# Generated by pormake.
# Topology zzz, (3,6)-cn, num edge types: 1
# Building blocks:
#     Node 0, Type 0, BuildingBlock: KAKCAD_clean_linker_0, # of connection points: 3
#     Node 1, Type 0, BuildingBlock: KAKCAD_clean_linker_0, # of connection points: 3
#     Node 2, Type 0, BuildingBlock: KAKCAD_clean_linker_0, # of connection points: 3
#     Node 3, Type 0, BuildingBlock: KAKCAD_clean_linker_0, # of connection points: 3
#     Node 4, Type 0, BuildingBlock: KAKCAD_clean_linker_0, # of connection points: 3
#     Node 5, Type 0, BuildingBlock: KAKCAD_clean_linker_0, # of connection points: 3
#     Node 6, Type 0, BuildingBlock: KAKCAD_clean_linker_0, # of connection points: 3
#     Node 7, Type 0, BuildingBlock: KAKCAD_clean_linker_0, # of connection points: 3
#     Node 8, Type 1, BuildingBlock: BETFEN_clean_sbu_0, # of connection points: 6
#     Node 9, Type 1, BuildingBlock: BETFEN_clean_sbu_0, # of connection points: 6
#     Node 10, Type 1, BuildingBlock: BETFEN_clean_sbu_0, # of connection points: 6
#     Node 11, Type 1, BuildingBlock: BETFEN_clean_sbu_0, # of connection points: 6
#     Edge 12, Type (0, 1), BuildingBlock: UVAHIK_clean_linker_0, # of connection points: 2
#     Edge 13, Type (0, 1), BuildingBlock: UVAHIK_clean_linker_0, # of connection points: 2
#     Edge 14, Type (0, 1), BuildingBlock: UVAHIK_clean_linker_0, # of connection points: 2
#     Edge 15, Type (0, 1), BuildingBlock: UVAHIK_clean_linker_0, # of connection points: 2
#     Edge 16, Type (0, 1), BuildingBlock: UVAHIK_clean_linker_0, # of connection points: 2
#     Edge 17, Type (0, 1), BuildingBlock: UVAHIK_clean_linker_0, # of connection points: 2
#     Edge 18, Type (0, 1), BuildingBlock: UVAHIK_clean_linker_0, # of connection points: 2
#     Edge 19, Type (0, 1), BuildingBlock: UVAHIK_clean_linker_0, # of connection points: 2
#     Edge 20, Type (0, 1), BuildingBlock: UVAHIK_clean_linker_0, # of connection points: 2
#     Edge 21, Type (0, 1), BuildingBlock: UVAHIK_clean_linker_0, # of connection points: 2
#     Edge 22, Type (0, 1), BuildingBlock: UVAHIK_clean_linker_0, # of connection points: 2
#     Edge 23, Type (0, 1), BuildingBlock: UVAHIK_clean_linker_0, # of connection points: 2
#     Edge 24, Type (0, 1), BuildingBlock: UVAHIK_clean_linker_0, # of connection points: 2
#     Edge 25, Type (0, 1), BuildingBlock: UVAHIK_clean_linker_0, # of connection points: 2
#     Edge 26, Type (0, 1), BuildingBlock: UVAHIK_clean_linker_0, # of connection points: 2
#     Edge 27, Type (0, 1), BuildingBlock: UVAHIK_clean_linker_0, # of connection points: 2
#     Edge 28, Type (0, 1), BuildingBlock: UVAHIK_clean_linker_0, # of connection points: 2
#     Edge 29, Type (0, 1), BuildingBlock: UVAHIK_clean_linker_0, # of connection points: 2
#     Edge 30, Type (0, 1), BuildingBlock: UVAHIK_clean_linker_0, # of connection points: 2
#     Edge 31, Type (0, 1), BuildingBlock: UVAHIK_clean_linker_0, # of connection points: 2
#     Edge 32, Type (0, 1), BuildingBlock: UVAHIK_clean_linker_0, # of connection points: 2
#     Edge 33, Type (0, 1), BuildingBlock: UVAHIK_clean_linker_0, # of connection points: 2
#     Edge 34, Type (0, 1), BuildingBlock: UVAHIK_clean_linker_0, # of connection points: 2
#     Edge 35, Type (0, 1), BuildingBlock: UVAHIK_clean_linker_0, # of connection points: 2
# Relax obj value: 0.415
# Max RMSD: 0.273
# Mean RMSD: 0.251
data_MOF--net-zzz--node1-BETFEN_clean_sbu_0--node2-KAKCAD_clean_linker_0--edge1-UVAHIK_clean_linker_0
_symmetry_space_group_name_H-M    P1
_symmetry_Int_Tables_number       1
_symmetry_cell_setting            triclinic
loop_
_symmetry_equiv_pos_as_xyz
'x, y, z'
_cell_length_a     74.345468
_cell_length_b     74.304542
_cell_length_c     22.635629
_cell_angle_alpha  90.025748
_cell_angle_beta   90.063405
_cell_angle_gamma 89.939076
loop_
_atom_site_label
_atom_site_type_symbol
_atom_site_fract_x
_atom_site_fract_y
_atom_site_fract_z
_atom_type_partial_charge
C0 C 0.75257 0.50087 0.08105 0.0
C1 C 0.76509 0.48671 0.08275 0.0
C2 C 0.74279 0.50543 0.1315 0.0
C3 C 0.74546 0.49597 0.18453 0.0
C4 C 0.75726 0.48122 0.18534 0.0
C5 C 0.76695 0.4766 0.13489 0.0
C6 C 0.7368 0.50216 0.23966 0.0
C7 C 0.71864 0.5069 0.24006 0.0
C8 C 0.71044 0.51349 0.29142 0.0
C9 C 0.72072 0.51552 0.34361 0.0
C10 C 0.73913 0.5107 0.34344 0.0
C11 C 0.74691 0.504 0.29149 0.0
C12 C 0.75115 0.51263 0.39537 0.0
C13 C 0.76071 0.52872 0.40366 0.0
C14 C 0.75696 0.49709 0.42508 0.0
C15 C 0.77271 0.49731 0.45911 0.0
C16 C 0.78315 0.51306 0.46372 0.0
C17 C 0.69107 0.51785 0.28685 0.0
C18 C 0.68594 0.53374 0.2578 0.0
C19 C 0.67852 0.50384 0.29191 0.0
C20 C 0.66177 0.50504 0.26376 0.0
C21 C 0.65728 0.52025 0.22966 0.0
C22 C 0.66918 0.53498 0.22971 0.0
C23 C 0.77651 0.52897 0.4377 0.0
H24 H 0.75084 0.50883 0.04136 0.0
H25 H 0.7338 0.5169 0.12976 0.0
H26 H 0.75936 0.47358 0.22551 0.0
H27 H 0.77666 0.46576 0.13778 0.0
H28 H 0.71072 0.50533 0.20008 0.0
H29 H 0.76112 0.50064 0.29112 0.0
H30 H 0.71453 0.52072 0.38343 0.0
H31 H 0.7568 0.54076 0.37986 0.0
H32 H 0.75004 0.48442 0.41835 0.0
H33 H 0.77719 0.48489 0.47933 0.0
H34 H 0.69558 0.54452 0.25186 0.0
H35 H 0.68232 0.49128 0.31284 0.0
H36 H 0.78421 0.54131 0.4398 0.0
H37 H 0.66628 0.54686 0.20368 0.0
H38 H 0.65281 0.49357 0.26554 0.0
C39 C 1.00568 0.75395 0.07456 0.0
C40 C 0.0209 0.76509 0.07162 0.0
C41 C 1.00169 0.7447 0.12661 0.0
C42 C 0.01269 0.74673 0.17667 0.0
C43 C 0.0281 0.75753 0.17328 0.0
C44 C 0.03224 0.76655 0.12107 0.0
C45 C 1.00789 0.73792 0.23282 0.0
C46 C 1.00421 0.71954 0.23416 0.0
C47 C 0.99987 0.71089 0.28726 0.0
C48 C 0.9987 0.72103 0.34004 0.0
C49 C 1.00232 0.73973 0.33874 0.0
C50 C 1.00705 0.7479 0.28511 0.0
C51 C 1.00099 0.75163 0.39122 0.0
C52 C 0.98417 0.75845 0.40833 0.0
C53 C 0.01662 0.76 0.41283 0.0
C54 C 0.01548 0.77558 0.44755 0.0
C55 C 0.99867 0.78331 0.46083 0.0
C56 C 0.99764 0.69113 0.28407 0.0
C57 C 0.98144 0.68408 0.26203 0.0
C58 C 0.0132 0.68042 0.28172 0.0
C59 C 0.013 0.66384 0.25227 0.0
C60 C 0.9972 0.65761 0.22484 0.0
C61 C 0.98118 0.66738 0.23305 0.0
C62 C 0.98301 0.77412 0.44278 0.0
H63 H 0.99672 0.75269 0.03701 0.0
H64 H 0.98971 0.73644 0.1284 0.0
H65 H 0.03684 0.75915 0.21126 0.0
H66 H 0.0439 0.77528 0.12019 0.0
H67 H 1.00517 0.71176 0.19367 0.0
H68 H 0.00969 0.76226 0.28386 0.0
H69 H 0.99526 0.71449 0.38125 0.0
H70 H 0.97194 0.75249 0.39118 0.0
H71 H 0.02975 0.75526 0.39906 0.0
H72 H 0.02783 0.7823 0.4601 0.0
H73 H 0.96938 0.69229 0.2618 0.0
H74 H 0.02595 0.68573 0.29706 0.0
H75 H 0.96984 0.77954 0.45283 0.0
H76 H 0.96882 0.66301 0.21214 0.0
H77 H 0.02552 0.65655 0.24712 0.0
C78 C 0.75979 0.0134 0.07754 0.0
C79 C 0.74877 0.02876 0.07807 0.0
C80 C 0.76934 0.00844 0.12811 0.0
C81 C 0.76783 0.01863 0.18015 0.0
C82 C 0.75736 0.03435 0.17999 0.0
C83 C 0.74798 0.03943 0.12928 0.0
C84 C 0.77642 0.01235 0.23528 0.0
C85 C 0.79438 1.00692 0.23533 0.0
C86 C 0.80253 1.00037 0.28687 0.0
C87 C 0.79234 0.99888 0.33933 0.0
C88 C 0.77413 1.00441 0.33956 0.0
C89 C 0.76644 0.01123 0.2875 0.0
C90 C 0.76219 1.00271 0.39179 0.0
C91 C 0.75588 0.98573 0.40929 0.0
C92 C 0.7537 0.01816 0.41431 0.0
C93 C 0.73849 0.01671 0.45041 0.0
C94 C 0.73126 0.99975 0.46437 0.0
C95 C 0.82186 0.99582 0.28268 0.0
C96 C 0.82695 0.98013 0.25235 0.0
C97 C 0.83457 0.00957 0.29028 0.0
C98 C 0.85149 0.00838 0.26336 0.0
C99 C 0.856 0.99341 0.22815 0.0
C100 C 0.8439 0.97888 0.22563 0.0
C101 C 0.74055 0.98426 0.44515 0.0
H102 H 0.7606 1.00498 0.03856 0.0
H103 H 0.7773 0.99622 0.12727 0.0
H104 H 0.75614 0.04249 0.2195 0.0
H105 H 0.7394 0.05121 0.13109 0.0
H106 H 0.8022 1.00802 0.19504 0.0
H107 H 0.75237 0.01511 0.28717 0.0
H108 H 0.79848 0.99366 0.37922 0.0
H109 H 0.76198 0.97362 0.39168 0.0
H110 H 0.75811 0.03141 0.40059 0.0
H111 H 0.73169 0.02894 0.46382 0.0
H112 H 0.8172 0.96956 0.24452 0.0
H113 H 0.83081 0.02197 0.31227 0.0
H114 H 0.73551 0.97097 0.45569 0.0
H115 H 0.84683 0.9672 0.19865 0.0
H116 H 0.8606 0.0197 0.26694 0.0
C117 C 0.50689 0.74337 0.45922 0.0
C118 C 0.52361 0.73499 0.46917 0.0
C119 C 0.50562 0.75859 0.42298 0.0
C120 C 0.52103 0.76588 0.39624 0.0
C121 C 0.53791 0.75863 0.41069 0.0
C122 C 0.5392 0.74336 0.44687 0.0
C123 C 0.51896 0.77617 0.34058 0.0
C124 C 0.52313 0.79462 0.33465 0.0
C125 C 0.52143 0.80301 0.27883 0.0
C126 C 0.51569 0.79286 0.22992 0.0
C127 C 0.51149 0.77461 0.23569 0.0
C128 C 0.51306 0.76647 0.29118 0.0
C129 C 0.50508 0.76394 0.18451 0.0
C130 C 0.49221 0.77098 0.14513 0.0
C131 C 0.51092 0.74609 0.17721 0.0
C132 C 0.50319 0.73514 0.13427 0.0
C133 C 0.48965 0.74188 0.09719 0.0
C134 C 0.52502 0.82239 0.26889 0.0
C135 C 0.51277 0.8354 0.28899 0.0
C136 C 0.53799 0.82738 0.22698 0.0
C137 C 0.53782 0.84458 0.20196 0.0
C138 C 0.52458 0.85722 0.21807 0.0
C139 C 0.51256 0.85267 0.26386 0.0
C140 C 0.4846 0.76002 0.10152 0.0
H141 H 0.49458 0.73732 0.47518 0.0
H142 H 0.49241 0.76367 0.41138 0.0
H143 H 0.54995 0.76375 0.38967 0.0
H144 H 0.55233 0.73747 0.45446 0.0
H145 H 0.52766 0.80227 0.37258 0.0
H146 H 0.50961 0.75237 0.29629 0.0
H147 H 0.51447 0.79927 0.18707 0.0
H148 H 0.4874 0.78467 0.14981 0.0
H149 H 0.52115 0.74041 0.20581 0.0
H150 H 0.50744 0.72122 0.13097 0.0
H151 H 0.50247 0.83179 0.32064 0.0
H152 H 0.54741 0.81749 0.21016 0.0
H153 H 0.47414 0.76544 0.07327 0.0
H154 H 0.50238 0.86214 0.27818 0.0
H155 H 0.5472 0.8474 0.16662 0.0
C156 C 0.2653 0.51418 0.264 0.0
C157 C 0.25133 0.50207 0.27634 0.0
C158 C 0.2748 0.51291 0.21108 0.0
C159 C 0.27038 0.49961 0.16938 0.0
C160 C 0.25691 0.48704 0.18276 0.0
C161 C 0.24752 0.48821 0.236 0.0
C162 C 0.27917 0.49959 0.11086 0.0
C163 C 0.29776 0.50169 0.10672 0.0
C164 C 0.30624 0.50331 0.05178 0.0
C165 C 0.29579 0.50286 0.9995 0.0
C166 C 0.27692 0.50043 1.0033 0.0
C167 C 0.26888 0.49869 0.05914 0.0
C168 C 0.26473 0.50059 0.95112 0.0
C169 C 0.26118 0.51674 0.92107 0.0
C170 C 0.25349 0.48572 0.94065 0.0
C171 C 0.23841 0.48724 0.90384 0.0
C172 C 0.23402 0.50375 0.87698 0.0
C173 C 0.32602 0.50566 0.05315 0.0
C174 C 0.33297 0.52186 0.07547 0.0
C175 C 0.33714 0.49038 0.05262 0.0
C176 C 0.35427 0.49091 0.0787 0.0
C177 C 0.36056 0.50669 0.10652 0.0
C178 C 0.35002 0.5224 0.1018 0.0
C179 C 0.24596 0.51833 0.88449 0.0
H180 H 0.26846 0.52498 0.29444 0.0
H181 H 0.28506 0.52284 0.20165 0.0
H182 H 0.25338 0.47658 0.15148 0.0
H183 H 0.23665 0.47884 0.24418 0.0
H184 H 0.30576 0.50217 0.14683 0.0
H185 H 0.25438 0.49744 0.06237 0.0
H186 H 0.30218 0.50439 0.95683 0.0
H187 H 0.26941 0.52851 0.92919 0.0
H188 H 0.25574 0.47321 0.96411 0.0
H189 H 0.22953 0.47576 0.89978 0.0
H190 H 0.32448 0.53371 0.0779 0.0
H191 H 0.33196 0.47762 0.03694 0.0
H192 H 0.24316 0.53119 0.86395 0.0
H193 H 0.35417 0.53479 0.1229 0.0
H194 H 0.36212 0.47863 0.08016 0.0
C195 C 0.01007 0.25903 0.24907 0.0
C196 C 0.02457 0.24723 0.25932 0.0
C197 C 0.00976 0.26989 0.19883 0.0
C198 C 0.02376 0.26893 0.15758 0.0
C199 C 0.0386 0.25782 0.16873 0.0
C200 C 0.03913 0.24724 0.21957 0.0
C201 C 0.02229 0.27866 0.10126 0.0
C202 C 0.02034 0.29731 0.10081 0.0
C203 C 0.01839 0.3067 0.0475 0.0
C204 C 0.01781 0.29705 0.99355 0.0
C205 C 0.01964 0.27807 0.99408 0.0
C206 C 0.02213 0.26915 0.04806 0.0
C207 C 0.01829 0.26658 0.94058 0.0
C208 C 1.00129 0.26089 0.92106 0.0
C209 C 0.03358 0.25719 0.92104 0.0
C210 C 0.03187 0.24172 0.88598 0.0
C211 C 0.01477 0.23511 0.87033 0.0
C212 C 0.0177 0.32657 0.05202 0.0
C213 C 1.00176 0.33482 0.07155 0.0
C214 C 0.03396 0.33601 0.05756 0.0
C215 C 0.03454 0.35257 0.08714 0.0
C216 C 0.01883 0.36006 0.11171 0.0
C217 C 1.00229 0.35148 0.10072 0.0
C218 C 0.99954 0.24533 0.8863 0.0
H219 H 0.9985 0.25924 0.27807 0.0
H220 H 0.99816 0.27839 0.1907 0.0
H221 H 0.04963 0.25711 0.13755 0.0
H222 H 0.05071 0.23867 0.22675 0.0
H223 H 0.02062 0.30462 0.14233 0.0
H224 H 0.02334 0.2546 0.04883 0.0
H225 H 0.01606 0.30414 0.95215 0.0
H226 H 0.98926 0.26761 0.93668 0.0
H227 H 0.04681 0.26101 0.93681 0.0
H228 H 0.04389 0.23419 0.87508 0.0
H229 H 0.98913 0.32759 0.06937 0.0
H230 H 0.04649 0.32975 0.04427 0.0
H231 H 0.98617 0.2408 0.87444 0.0
H232 H 0.98996 0.35679 0.11934 0.0
H233 H 0.04746 0.35892 0.09429 0.0
C234 C 0.25922 0.00975 0.24552 0.0
C235 C 0.27216 0.0234 0.25266 0.0
C236 C 0.24657 0.01079 0.20015 0.0
C237 C 0.24678 0.02534 0.16077 0.0
C238 C 0.25863 0.03968 0.17066 0.0
C239 C 0.27107 0.03883 0.21677 0.0
C240 C 0.23654 0.02417 0.10521 0.0
C241 C 0.21817 0.0205 0.10584 0.0
C242 C 0.20878 0.0172 0.05318 0.0
C243 C 0.21817 0.01726 0.99874 0.0
C244 C 0.23685 0.021 0.9981 0.0
C245 C 0.24571 0.02469 0.05142 0.0
C246 C 0.2483 0.02011 0.94442 0.0
C247 C 0.25524 1.00343 0.92594 0.0
C248 C 0.25665 0.03591 0.92433 0.0
C249 C 0.27238 0.03508 0.89041 0.0
C250 C 0.28028 0.0184 0.8761 0.0
C251 C 0.18928 0.01344 0.05895 0.0
C252 C 0.18391 0.99761 0.08781 0.0
C253 C 0.17685 0.02758 0.05345 0.0
C254 C 0.15989 0.02644 0.08043 0.0
C255 C 0.15507 0.01119 0.11398 0.0
C256 C 0.16703 0.99647 0.1149 0.0
C257 C 0.27103 1.00257 0.89191 0.0
H258 H 0.2597 0.99759 0.27179 0.0
H259 H 0.23757 0.99953 0.193 0.0
H260 H 0.25884 0.05112 0.141 0.0
H261 H 0.28051 0.0498 0.22209 0.0
H262 H 0.21114 0.02003 0.14782 0.0
H263 H 0.26012 0.02703 0.05131 0.0
H264 H 0.21115 0.01428 0.95794 0.0
H265 H 0.24938 0.99104 0.94219 0.0
H266 H 0.25181 0.04893 0.93895 0.0
H267 H 0.27889 0.04755 0.87809 0.0
H268 H 0.19342 0.98671 0.094 0.0
H269 H 0.1808 0.04008 0.03258 0.0
H270 H 0.27671 0.98949 0.88201 0.0
H271 H 0.16404 0.98456 0.14058 0.0
H272 H 0.15094 0.03792 0.07764 0.0
C273 C 0.48403 0.27786 0.89918 0.0
C274 C 0.50012 0.28383 0.8728 0.0
C275 C 0.48382 0.26243 0.9348 0.0
C276 C 0.49961 0.25248 0.94458 0.0
C277 C 0.51541 0.25767 0.91532 0.0
C278 C 0.51565 0.27311 0.87958 0.0
C279 C 0.50073 0.24053 0.99693 0.0
C280 C 0.49864 0.2216 0.99424 0.0
C281 C 0.49954 0.21136 0.04688 0.0
C282 C 0.50219 0.2201 0.10101 0.0
C283 C 0.50434 0.2387 0.1037 0.0
C284 C 0.50373 0.24883 0.05172 0.0
C285 C 0.50714 0.24756 0.16117 0.0
C286 C 0.49477 0.24504 0.20727 0.0
C287 C 0.52211 0.25868 0.16997 0.0
C288 C 0.52456 0.26741 0.2239 0.0
C289 C 0.51191 0.26537 0.26944 0.0
C290 C 0.49773 0.19153 0.04944 0.0
C291 C 0.4807 0.18405 0.05982 0.0
C292 C 0.51307 0.18123 0.0627 0.0
C293 C 0.51147 0.16457 0.09114 0.0
C294 C 0.49446 0.15786 0.1072 0.0
C295 C 0.47907 0.16734 0.08815 0.0
C296 C 0.49703 0.25405 0.2609 0.0
H297 H 0.47184 0.28577 0.89579 0.0
H298 H 0.47159 0.25901 0.95825 0.0
H299 H 0.52786 0.25049 0.92329 0.0
H300 H 0.52822 0.27705 0.85928 0.0
H301 H 0.49638 0.215 0.95222 0.0
H302 H 0.50529 0.26333 0.05401 0.0
H303 H 0.50277 0.21229 0.1415 0.0
H304 H 0.4831 0.2365 0.20115 0.0
H305 H 0.53185 0.26069 0.13501 0.0
H306 H 0.53598 0.27631 0.22922 0.0
H307 H 0.46867 0.19187 0.05126 0.0
H308 H 0.52635 0.18692 0.0566 0.0
H309 H 0.48707 0.2524 0.29537 0.0
H310 H 0.46574 0.16244 0.09862 0.0
H311 H 0.52364 0.1578 0.10522 0.0
Pr312 Pr 0.01831 1.00474 0.72299 0.0
Pr313 Pr 0.98988 0.01283 0.6221 0.0
C314 C 0.03132 0.99173 0.82469 0.0
C315 C 0.03284 0.97273 0.84193 0.0
C316 C 0.04877 0.96611 0.86704 0.0
C317 C 0.0512 0.94756 0.87426 0.0
C318 C 0.03779 0.93547 0.85572 0.0
C319 C 0.02162 0.94221 0.83266 0.0
C320 C 0.01916 0.96064 0.82584 0.0
C321 C 0.03688 0.00862 0.61564 0.0
C322 C 1.00206 0.9709 0.63855 0.0
C323 C 0.97172 0.02795 0.53304 0.0
C324 C 0.97402 0.04627 0.50965 0.0
C325 C 0.95942 0.05827 0.50966 0.0
C326 C 0.96232 0.07674 0.50244 0.0
C327 C 0.97987 0.08339 0.49534 0.0
C328 C 0.99426 0.07122 0.49128 0.0
C329 C 0.99139 0.05287 0.49858 0.0
C330 C 0.97557 1.00234 0.7305 0.0
C331 C 0.00957 0.04731 0.69745 0.0
O332 O 0.01491 0.99791 0.8195 0.0
O333 O 0.0418 0.99666 0.78127 0.0
O334 O 0.02013 0.00991 0.62321 0.0
O335 O 0.04482 1.00583 0.66597 0.0
O336 O 0.99543 0.98267 0.60055 0.0
O337 O 0.00916 0.97595 0.68968 0.0
O338 O 0.98507 0.01671 0.52422 0.0
O339 O 0.96538 0.02732 0.5869 0.0
O340 O 0.98855 0.01308 0.72309 0.0
O341 O 0.9691 0.99694 0.68007 0.0
O342 O 0.01743 0.0359 0.73415 0.0
O343 O 1.00002 0.04177 0.65132 0.0
H344 H 0.05955 0.97522 0.87904 0.0
H345 H 0.06379 0.94264 0.89221 0.0
H346 H 0.01094 0.9332 0.81903 0.0
H347 H 1.00675 0.96534 0.80601 0.0
H348 H 0.94595 0.05349 0.51889 0.0
H349 H 0.95098 0.08585 0.50565 0.0
H350 H 1.00788 0.07596 0.48448 0.0
H351 H 1.00297 0.04401 0.49888 0.0
Pr352 Pr 0.5093 0.0226 0.71484 0.0
Pr353 Pr 0.50226 0.99393 0.61472 0.0
C354 C 0.52251 0.04179 0.80539 0.0
C355 C 0.54102 0.04304 0.82744 0.0
C356 C 0.54758 0.05934 0.84994 0.0
C357 C 0.56597 0.06138 0.86132 0.0
C358 C 0.57796 0.04721 0.8493 0.0
C359 C 0.57122 0.03071 0.82891 0.0
C360 C 0.5529 0.02862 0.8183 0.0
C361 C 0.49957 0.03663 0.60522 0.0
C362 C 0.54454 1.0044 0.64147 0.0
C363 C 0.49261 0.9789 0.51169 0.0
C364 C 0.47614 0.96988 0.49287 0.0
C365 C 0.47328 0.96608 0.43309 0.0
C366 C 0.45598 0.96199 0.41304 0.0
C367 C 0.44134 0.96207 0.45252 0.0
C368 C 0.44473 0.96409 0.51332 0.0
C369 C 0.46203 0.96792 0.53331 0.0
C370 C 0.50526 0.97564 0.72295 0.0
C371 C 0.46756 0.00928 0.69643 0.0
O372 O 0.51452 0.02624 0.81258 0.0
O373 O 0.52013 0.04857 0.75267 0.0
O374 O 0.51052 0.0238 0.61328 0.0
O375 O 0.4933 0.04269 0.65508 0.0
O376 O 0.53338 0.99629 0.60472 0.0
O377 O 0.53872 0.01392 0.68708 0.0
O378 O 0.49049 0.99604 0.52338 0.0
O379 O 0.50242 0.97044 0.55094 0.0
O380 O 0.50647 0.99236 0.71491 0.0
O381 O 0.50234 0.9676 0.67295 0.0
O382 O 0.4791 0.01646 0.73421 0.0
O383 O 0.4729 1.00189 0.64602 0.0
H384 H 0.53861 0.07066 0.85658 0.0
H385 H 0.57091 0.07422 0.87712 0.0
H386 H 0.58019 0.01951 0.82018 0.0
H387 H 0.54813 0.01591 0.80085 0.0
H388 H 0.48411 0.96748 0.40144 0.0
H389 H 0.45386 0.9601 0.36611 0.0
H390 H 0.43384 0.96441 0.54504 0.0
H391 H 0.46409 0.97082 0.57975 0.0
Pr392 Pr 0.49689 0.51345 0.71821 0.0
Pr393 Pr 0.52491 0.50488 0.61567 0.0
C394 C 0.48368 0.5267 0.81911 0.0
C395 C 0.47705 0.54498 0.83188 0.0
C396 C 0.46047 0.54763 0.86008 0.0
C397 C 0.45365 0.56507 0.86757 0.0
C398 C 0.46327 0.58003 0.8463 0.0
C399 C 0.47993 0.57727 0.81868 0.0
C400 C 0.48674 0.55997 0.8116 0.0
C401 C 0.4783 0.51142 0.60996 0.0
C402 C 0.51401 0.54714 0.63473 0.0
C403 C 0.5418 0.48982 0.52392 0.0
C404 C 0.53924 0.47152 0.50125 0.0
C405 C 0.55411 0.46112 0.48446 0.0
C406 C 0.55219 0.44259 0.47575 0.0
C407 C 0.53541 0.43422 0.48427 0.0
C408 C 0.52041 0.4449 0.4983 0.0
C409 C 0.52231 0.46334 0.50668 0.0
C410 C 0.53975 0.51396 0.72477 0.0
C411 C 0.50515 0.47073 0.6917 0.0
O412 O 0.50097 0.5254 0.80865 0.0
O413 O 0.47383 0.51714 0.78274 0.0
O414 O 0.49491 0.50933 0.61829 0.0
O415 O 0.47042 0.51455 0.66012 0.0
O416 O 0.52066 0.53541 0.59661 0.0
O417 O 0.50642 0.54205 0.68497 0.0
O418 O 0.52814 0.50081 0.51725 0.0
O419 O 0.54893 0.4905 0.57675 0.0
O420 O 0.52628 0.50385 0.71683 0.0
O421 O 0.54645 0.51933 0.67466 0.0
O422 O 0.49797 0.48223 0.72962 0.0
O423 O 0.51426 0.47617 0.64462 0.0
H424 H 0.45271 0.53624 0.87557 0.0
H425 H 0.44078 0.56686 0.88919 0.0
H426 H 0.48786 0.58853 0.8031 0.0
H427 H 0.49958 0.5584 0.78967 0.0
H428 H 0.56731 0.46717 0.48082 0.0
H429 H 0.56394 0.43476 0.4639 0.0
H430 H 0.50736 0.43891 0.50613 0.0
H431 H 0.51068 0.47102 0.5208 0.0
Pr432 Pr 1.00583 0.49739 0.71954 0.0
Pr433 Pr 0.01328 0.52536 0.60432 0.0
C434 C 0.99489 0.48451 0.82388 0.0
C435 C 0.97719 0.48587 0.85169 0.0
C436 C 0.97132 0.47253 0.89081 0.0
C437 C 0.95322 0.47176 0.90732 0.0
C438 C 0.94079 0.48427 0.88449 0.0
C439 C 0.94699 0.49811 0.84749 0.0
C440 C 0.96501 0.49886 0.83118 0.0
C441 C 0.01454 0.47897 0.61452 0.0
C442 C 0.97129 0.51255 0.63353 0.0
C443 C 0.02482 0.53731 0.49995 0.0
C444 C 0.04285 0.53482 0.47435 0.0
C445 C 0.05424 0.54977 0.46886 0.0
C446 C 0.07278 0.54739 0.46319 0.0
C447 C 0.08021 0.52998 0.46219 0.0
C448 C 0.0686 0.51507 0.46189 0.0
C449 C 0.05011 0.51744 0.46821 0.0
C450 C 1.00575 0.54411 0.70964 0.0
C451 C 0.04778 0.51024 0.69007 0.0
O452 O 1.004 0.49955 0.81909 0.0
O453 O 0.99496 0.47483 0.77554 0.0
O454 O 0.01287 0.49558 0.62299 0.0
O455 O 0.01221 0.47071 0.66461 0.0
O456 O 0.98242 0.51996 0.5947 0.0
O457 O 0.97681 0.50488 0.68354 0.0
O458 O 0.01471 0.5229 0.50475 0.0
O459 O 0.02455 0.54747 0.54726 0.0
O460 O 1.00613 0.52737 0.70131 0.0
O461 O 0.00901 0.55216 0.65973 0.0
O462 O 0.03655 0.50349 0.72991 0.0
O463 O 0.04231 0.51725 0.63896 0.0
H464 H 0.98053 0.46225 0.90634 0.0
H465 H 0.94884 0.46107 0.93645 0.0
H466 H 0.93776 0.50776 0.82831 0.0
H467 H 0.96918 0.50901 0.79981 0.0
H468 H 0.04896 0.56329 0.47379 0.0
H469 H 0.08132 0.55918 0.46353 0.0
H470 H 0.07387 0.50149 0.45934 0.0
H471 H 0.04171 0.50559 0.4722 0.0
C472 C 0.13388 0.02708 0.18405 0.0
C473 C 0.13884 0.01133 0.15337 0.0
C474 C 0.12031 0.02674 0.22702 0.0
C475 C 0.09945 0.99544 0.33217 0.0
H476 H 0.06574 0.03442 0.35999 0.0
C477 C 0.0651 1.00562 0.55709 0.0
C478 C 0.04658 0.00943 0.55837 0.0
C479 C 0.0746 1.00565 0.50385 0.0
C480 C 0.07496 0.02335 0.35251 0.0
H481 H 0.13238 0.98307 0.14197 0.0
H482 H 0.10896 0.98245 0.21739 0.0
H483 H 0.08489 0.03485 0.27182 0.0
H484 H 0.02352 0.01648 0.50462 0.0
H485 H 0.0403 0.01685 0.4109 0.0
H486 H 0.08985 0.9841 0.41318 0.0
C487 C 0.11577 0.99504 0.20858 0.0
C488 C 0.08603 0.02366 0.30225 0.0
C489 C 0.12924 0.9954 0.16529 0.0
C490 C 0.0378 0.01353 0.50501 0.0
C491 C 0.0474 0.01377 0.45145 0.0
C492 C 0.08856 0.99523 0.38256 0.0
C493 C 0.11138 0.01062 0.24093 0.0
C494 C 0.09856 0.00979 0.29174 0.0
C495 C 0.06591 0.00962 0.45025 0.0
C496 C 0.07634 0.00929 0.39387 0.0
H497 H 0.14108 0.03956 0.17714 0.0
H498 H 0.11745 0.03895 0.2514 0.0
H499 H 0.10903 0.98462 0.32597 0.0
H500 H 0.0723 1.00244 0.59734 0.0
H501 H 0.08887 1.00266 0.50476 0.0
C502 C 0.50502 0.12805 0.14962 0.0
C503 C 0.49294 0.14267 0.15044 0.0
C504 C 0.5049 0.11513 0.19492 0.0
C505 C 0.49168 0.11049 0.35168 0.0
H506 H 0.49868 0.05934 0.32666 0.0
C507 C 0.48495 0.06069 0.54472 0.0
C508 C 0.49735 0.04647 0.5486 0.0
C509 C 0.48379 0.07122 0.49363 0.0
C510 C 0.4969 0.07361 0.33453 0.0
H511 H 0.47099 0.15476 0.19973 0.0
H512 H 0.47053 0.13219 0.27723 0.0
H513 H 0.49778 0.07975 0.24182 0.0
H514 H 0.5179 0.03175 0.50098 0.0
H515 H 0.51613 0.05033 0.41179 0.0
H516 H 0.49107 0.10458 0.444 0.0
C517 C 0.48026 0.13079 0.24196 0.0
C518 C 0.49636 0.08531 0.2858 0.0
C519 C 0.48035 0.14363 0.19678 0.0
C520 C 0.5082 0.04262 0.49932 0.0
C521 C 0.50712 0.05325 0.4481 0.0
C522 C 0.49229 0.09885 0.40019 0.0
C523 C 0.49277 0.11657 0.24241 0.0
C524 C 0.49359 0.1039 0.29375 0.0
C525 C 0.49512 0.06793 0.44497 0.0
C526 C 0.49476 0.08021 0.39247 0.0
H527 H 0.51483 0.12676 0.11453 0.0
H528 H 0.51475 0.10439 0.19383 0.0
H529 H 0.48997 0.12475 0.35975 0.0
H530 H 0.47627 0.0639 0.58169 0.0
H531 H 0.47406 0.08206 0.49253 0.0
C532 C 0.38773 0.52161 0.15339 0.0
C533 C 0.37671 0.50633 0.14639 0.0
C534 C 0.40116 0.52209 0.19692 0.0
C535 C 0.4282 0.49385 0.30018 0.0
H536 H 0.42805 0.53662 0.39836 0.0
C537 C 0.47711 0.5047 0.50048 0.0
C538 C 0.46874 0.5109 0.55234 0.0
C539 C 0.46757 0.50421 0.44678 0.0
C540 C 0.42831 0.52459 0.37131 0.0
H541 H 0.37188 0.47932 0.17945 0.0
H542 H 0.39545 0.48008 0.25395 0.0
H543 H 0.40886 0.53534 0.311 0.0
H544 H 0.4439 0.52147 0.58849 0.0
H545 H 0.42747 0.52084 0.49541 0.0
H546 H 0.44743 0.48301 0.36159 0.0
C547 C 0.39372 0.49168 0.22555 0.0
C548 C 0.41742 0.52392 0.32084 0.0
C549 C 0.38019 0.49124 0.18239 0.0
C550 C 0.45076 0.51666 0.54933 0.0
C551 C 0.44135 0.51639 0.49583 0.0
C552 C 0.43927 0.49461 0.35044 0.0
C553 C 0.4041 0.50726 0.23439 0.0
C554 C 0.41699 0.50844 0.28506 0.0
C555 C 0.44959 0.51018 0.44381 0.0
C556 C 0.4392 0.50987 0.38726 0.0
H557 H 0.38575 0.53338 0.12598 0.0
H558 H 0.4091 0.53422 0.20183 0.0
H559 H 0.4283 0.48177 0.27339 0.0
H560 H 0.49093 0.50013 0.5015 0.0
H561 H 0.47432 0.49938 0.40746 0.0
C562 C 1.00764 0.38933 0.1561 0.0
C563 C 0.02004 0.37499 0.15578 0.0
C564 C 1.00796 0.40226 0.20146 0.0
C565 C 0.01942 0.40636 0.35718 0.0
H566 H 0.02058 0.45803 0.33408 0.0
C567 C 0.02685 0.4531 0.55756 0.0
C568 C 0.01786 0.4697 0.55765 0.0
C569 C 0.02815 0.44289 0.50584 0.0
C570 C 0.01999 0.44366 0.34154 0.0
H571 H 0.04246 0.36308 0.2031 0.0
H572 H 0.04281 0.38537 0.28216 0.0
H573 H 0.02022 0.43791 0.24829 0.0
H574 H 1.00323 0.48873 0.50364 0.0
H575 H 1.00489 0.47068 0.41334 0.0
H576 H 0.01841 0.41172 0.4496 0.0
C577 C 0.033 0.38675 0.24702 0.0
C578 C 0.01986 0.43214 0.29221 0.0
C579 C 0.03289 0.37407 0.20135 0.0
C580 C 0.01055 0.47613 0.50448 0.0
C581 C 0.0115 0.4657 0.45271 0.0
C582 C 0.01922 0.41779 0.40625 0.0
C583 C 0.02042 0.40087 0.24807 0.0
C584 C 0.01981 0.41336 0.29961 0.0
C585 C 0.02 0.4487 0.45289 0.0
C586 C 0.01978 0.43665 0.39949 0.0
H587 H 0.99755 0.3904 0.1217 0.0
H588 H 0.99805 0.41296 0.20127 0.0
H589 H 0.01906 0.39195 0.3643 0.0
H590 H 0.03269 0.44786 0.59792 0.0
H591 H 0.03537 0.43025 0.50788 0.0
C592 C 0.88246 0.97864 0.17723 0.0
C593 C 0.87188 0.99401 0.18779 0.0
C594 C 0.89603 0.97885 0.13416 0.0
C595 C 0.92253 0.00989 0.03654 0.0
H596 H 0.92757 0.96732 0.939 0.0
C597 C 0.97215 1.00825 0.83934 0.0
C598 C 0.96625 0.99954 0.78771 0.0
C599 C 0.96256 1.00647 0.89234 0.0
C600 C 0.92629 0.97939 0.96546 0.0
H601 H 0.86739 0.02168 0.16105 0.0
H602 H 0.89066 0.02201 0.08607 0.0
H603 H 0.90739 0.96679 0.02341 0.0
H604 H 0.94583 0.98193 0.7514 0.0
H605 H 0.92887 0.97922 0.8429 0.0
H606 H 0.94067 0.02279 0.97681 0.0
C607 C 0.88892 0.00987 0.11189 0.0
C608 C 0.91487 0.979 0.01468 0.0
C609 C 0.8755 0.0097 0.15515 0.0
C610 C 0.95077 0.98878 0.79051 0.0
C611 C 0.94109 0.98711 0.84326 0.0
C612 C 0.93383 0.01032 0.98707 0.0
C613 C 0.89925 0.9944 0.10009 0.0
C614 C 0.91261 0.99433 0.05052 0.0
C615 C 0.94673 0.99607 0.89494 0.0
C616 C 0.9357 0.99516 0.95024 0.0
H617 H 0.88012 0.96637 0.20183 0.0
H618 H 0.90388 0.96676 0.12725 0.0
H619 H 0.92144 0.02188 0.06347 0.0
H620 H 0.98397 0.01671 0.8386 0.0
H621 H 0.96753 0.01336 0.93122 0.0
C622 C 0.50462 0.87967 0.16631 0.0
C623 C 0.52203 0.87391 0.18194 0.0
C624 C 0.50209 0.89338 0.12469 0.0
C625 C 0.5255 0.92927 0.03769 0.0
H626 H 0.48835 0.91857 0.9227 0.0
C627 C 0.51017 0.9752 0.83346 0.0
C628 C 0.50685 0.96606 0.78019 0.0
C629 C 0.51149 0.96566 0.88694 0.0
C630 C 0.49884 0.92177 0.95425 0.0
H631 H 0.55044 0.87916 0.16874 0.0
H632 H 0.54604 0.90268 0.09512 0.0
H633 H 0.49179 0.89946 0.00887 0.0
H634 H 0.50255 0.93979 0.74112 0.0
H635 H 0.50499 0.92325 0.83325 0.0
H636 H 0.53295 0.95124 0.98118 0.0
C637 C 0.53429 0.89667 0.11532 0.0
C638 C 0.50065 0.91092 0.00433 0.0
C639 C 0.53683 0.883 0.1572 0.0
C640 C 0.505 0.94725 0.78137 0.0
C641 C 0.50627 0.93778 0.83446 0.0
C642 C 0.52368 0.94017 0.98735 0.0
C643 C 0.51688 0.90168 0.09714 0.0
C644 C 0.51416 0.91434 0.04646 0.0
C645 C 0.50941 0.9468 0.8881 0.0
C646 C 0.51052 0.93635 0.94441 0.0
H647 H 0.49285 0.87297 0.18383 0.0
H648 H 0.48847 0.8971 0.11282 0.0
H649 H 0.53593 0.93246 0.06944 0.0
H650 H 0.5117 0.98971 0.83385 0.0
H651 H 0.51385 0.97306 0.92741 0.0
C652 C 0.63117 0.53525 0.1772 0.0
C653 C 0.64165 0.51982 0.18799 0.0
C654 C 0.61789 0.53522 0.13306 0.0
C655 C 0.59161 0.50473 0.03316 0.0
H656 H 0.58805 0.54731 0.93505 0.0
C657 C 0.54252 0.50809 0.8339 0.0
C658 C 0.54905 0.51631 0.78231 0.0
C659 C 0.55205 0.50947 0.88726 0.0
C660 C 0.58891 0.53525 0.96175 0.0
H661 H 0.64621 0.49222 0.16046 0.0
H662 H 0.62334 0.49219 0.08392 0.0
H663 H 0.60777 0.54746 0.02091 0.0
H664 H 0.57053 0.53266 0.74648 0.0
H665 H 0.58727 0.5348 0.8387 0.0
H666 H 0.57339 0.49224 0.97244 0.0
C667 C 0.62501 0.50424 0.11027 0.0
C668 C 0.60007 0.53542 0.01169 0.0
C669 C 0.63818 0.50425 0.15447 0.0
C670 C 0.56511 0.52621 0.78548 0.0
C671 C 0.57466 0.52753 0.83864 0.0
C672 C 0.58051 0.50453 0.98307 0.0
C673 C 0.61482 0.51979 0.09825 0.0
C674 C 0.60178 0.52008 0.04773 0.0
C675 C 0.56837 0.51905 0.89027 0.0
C676 C 0.57919 0.51971 0.94612 0.0
H677 H 0.63336 0.54744 0.20245 0.0
H678 H 0.61014 0.54737 0.12592 0.0
H679 H 0.59232 0.49273 0.06019 0.0
H680 H 0.53017 0.50038 0.83289 0.0
H681 H 0.54661 0.50297 0.92613 0.0
C682 C 0.01129 0.64366 0.13551 0.0
C683 C 0.99809 0.64293 0.17993 0.0
C684 C 0.01113 0.63141 0.08863 0.0
C685 C 0.99896 0.58737 0.03672 0.0
H686 H 0.99387 0.60988 0.88317 0.0
C687 C 0.99611 0.54582 0.81678 0.0
C688 C 1.00397 0.55374 0.76678 0.0
C689 C 0.99425 0.55566 0.86958 0.0
C690 C 0.99561 0.60329 0.92542 0.0
H691 H 0.9747 0.62835 0.21082 0.0
H692 H 0.97481 0.60641 0.12912 0.0
H693 H 0.99353 0.62835 0.97184 0.0
H694 H 0.01653 0.57796 0.73335 0.0
H695 H 0.01409 0.5947 0.82472 0.0
H696 H 1.00192 0.56235 0.9903 0.0
C697 C 0.98515 0.61665 0.13084 0.0
C698 C 0.99523 0.61393 0.97632 0.0
C699 C 0.98507 0.6292 0.17737 0.0
C700 C 0.01021 0.57151 0.77088 0.0
C701 C 0.00864 0.58121 0.82346 0.0
C702 C 0.9997 0.57667 0.98549 0.0
C703 C 0.99797 0.61792 0.0854 0.0
C704 C 0.99711 0.60614 0.0324 0.0
C705 C 1.00039 0.57359 0.87354 0.0
C706 C 0.99833 0.58454 0.92892 0.0
H707 H 0.02132 0.65422 0.13554 0.0
H708 H 0.02115 0.63267 0.05415 0.0
H709 H 1.00048 0.58105 0.07957 0.0
H710 H 0.99105 0.53222 0.81468 0.0
H711 H 0.98769 0.54931 0.90678 0.0
C712 C 0.0148 0.23741 0.36097 0.0
C713 C 0.02352 0.23361 0.30718 0.0
C714 C 0.01151 0.22369 0.40182 0.0
C715 C 0.02379 0.177 0.44075 0.0
H716 H 0.97305 0.17078 0.47483 0.0
C717 C 0.9729 0.11473 0.4612 0.0
C718 C 0.98348 0.10296 0.49501 0.0
C719 C 0.97746 0.13291 0.45713 0.0
C720 C 0.98728 0.17241 0.46614 0.0
H721 H 0.03616 0.21241 0.25552 0.0
H722 H 0.03092 0.18887 0.32703 0.0
H723 H 0.98366 0.19917 0.43317 0.0
H724 H 1.00627 0.10115 0.55465 0.0
H725 H 0.01406 0.13289 0.54828 0.0
H726 H 0.02734 0.14992 0.46945 0.0
C727 C 0.02671 0.20245 0.33785 0.0
C728 C 0.99338 0.18872 0.44299 0.0
C729 C 0.02977 0.21602 0.29682 0.0
C730 C 0.99806 0.10988 0.52737 0.0
C731 C 1.00251 0.12805 0.52382 0.0
C732 C 0.01772 0.16074 0.46387 0.0
C733 C 0.01717 0.20603 0.38999 0.0
C734 C 0.01157 0.19084 0.42777 0.0
C735 C 0.9926 0.13965 0.48723 0.0
C736 C 0.99929 0.15802 0.47454 0.0
H737 H 0.01009 0.25087 0.37085 0.0
H738 H 1.0042 0.22678 0.44193 0.0
H739 H 0.0379 0.17839 0.42983 0.0
H740 H 0.96162 0.10973 0.43572 0.0
H741 H 0.96969 0.14145 0.42789 0.0
C742 C 0.30532 0.02513 0.26898 0.0
C743 C 0.28825 0.02012 0.29003 0.0
C744 C 0.32084 0.01933 0.29756 0.0
C745 C 0.33727 0.98147 0.382 0.0
H746 H 0.3802 0.01086 0.39357 0.0
C747 C 0.408 0.95693 0.46234 0.0
C748 C 0.42264 0.96388 0.43026 0.0
C749 C 0.39046 0.96259 0.44971 0.0
C750 C 0.36832 1.00247 0.3903 0.0
H751 H 0.2742 1.00609 0.36027 0.0
H752 H 0.30156 0.9956 0.40967 0.0
H753 H 0.35145 0.02501 0.37089 0.0
H754 H 0.43009 0.98113 0.3567 0.0
H755 H 0.39967 0.99036 0.33372 0.0
H756 H 0.35438 0.95885 0.40007 0.0
C757 C 0.30275 1.00396 0.37068 0.0
C758 C 0.35189 0.01059 0.37773 0.0
C759 C 0.28713 0.00995 0.34236 0.0
C760 C 0.41922 0.97534 0.38213 0.0
C761 C 0.40178 0.98091 0.36953 0.0
C762 C 0.35379 0.97332 0.39474 0.0
C763 C 0.31972 1.00827 0.34764 0.0
C764 C 0.33631 1.00012 0.37171 0.0
C765 C 0.38736 0.97525 0.40483 0.0
C766 C 0.36953 0.98372 0.39711 0.0
H767 H 0.30682 0.03257 0.22818 0.0
H768 H 0.33374 0.02265 0.27827 0.0
H769 H 0.32547 0.97308 0.3771 0.0
H770 H 0.41017 0.94787 0.49913 0.0
H771 H 0.37951 0.9579 0.4772 0.0
C772 C 0.4992 0.28814 0.33809 0.0
C773 C 0.51339 0.27662 0.32282 0.0
C774 C 0.50185 0.30178 0.37947 0.0
C775 C 0.53947 0.32965 0.42855 0.0
H776 H 0.5012 0.35518 0.50929 0.0
C777 C 0.54706 0.40318 0.5056 0.0
C778 C 0.5336 0.41437 0.48185 0.0
C779 C 0.54513 0.3845 0.50443 0.0
C780 C 0.51206 0.34808 0.48747 0.0
H781 H 0.54079 0.26886 0.34286 0.0
H782 H 0.54531 0.29229 0.41715 0.0
H783 H 0.49672 0.32385 0.47991 0.0
H784 H 0.50754 0.41467 0.43845 0.0
H785 H 0.50412 0.3821 0.43721 0.0
H786 H 0.55458 0.35404 0.43469 0.0
C787 C 0.53232 0.29125 0.39576 0.0
C788 C 0.50951 0.3302 0.47047 0.0
C789 C 0.52974 0.2778 0.35356 0.0
C790 C 0.51806 0.40647 0.45781 0.0
C791 C 0.51605 0.38783 0.45732 0.0
C792 C 0.5421 0.34741 0.44628 0.0
C793 C 0.51872 0.304 0.40685 0.0
C794 C 0.52287 0.32105 0.4383 0.0
C795 C 0.52961 0.37668 0.48023 0.0
C796 C 0.52814 0.35699 0.47351 0.0
H797 H 0.4865 0.28753 0.31463 0.0
H798 H 0.4911 0.3114 0.38622 0.0
H799 H 0.55002 0.3232 0.40324 0.0
H800 H 0.55902 0.40885 0.52563 0.0
H801 H 0.55577 0.37614 0.52235 0.0
C802 C 0.23341 0.49103 0.36267 0.0
C803 C 0.23916 0.50529 0.32673 0.0
C804 C 0.21935 0.49358 0.40273 0.0
C805 C 0.18755 0.52864 0.46165 0.0
H806 H 0.15275 0.49024 0.44215 0.0
C807 C 0.11169 0.53884 0.43492 0.0
C808 C 0.09996 0.52734 0.46551 0.0
C809 C 0.13025 0.53625 0.43818 0.0
C810 C 0.16242 0.50094 0.44914 0.0
H811 H 0.23555 0.53357 0.30665 0.0
H812 H 0.21077 0.5379 0.37431 0.0
H813 H 0.18381 0.48518 0.41401 0.0
H814 H 0.0986 0.50467 0.52598 0.0
H815 H 0.13105 0.49971 0.5293 0.0
H816 H 0.16549 0.54483 0.49175 0.0
C817 C 0.21729 0.52487 0.37349 0.0
C818 C 0.18031 0.49803 0.43335 0.0
C819 C 0.23149 0.52238 0.33427 0.0
C820 C 0.10723 0.51345 0.50049 0.0
C821 C 0.12578 0.51073 0.5031 0.0
C822 C 0.16956 0.53163 0.47636 0.0
C823 C 0.21056 0.51033 0.40658 0.0
C824 C 0.19295 0.51208 0.43704 0.0
C825 C 0.1374 0.52202 0.47159 0.0
C826 C 0.15678 0.51799 0.46814 0.0
H827 H 0.23931 0.47777 0.35807 0.0
H828 H 0.21481 0.48219 0.42853 0.0
H829 H 0.19701 0.5396 0.46658 0.0
H830 H 0.10655 0.54957 0.40727 0.0
H831 H 0.13898 0.54494 0.41267 0.0
C832 C 0.01011 0.78804 0.99988 0.0
C833 C 0.02399 0.77682 0.02004 0.0
C834 C 0.01383 0.80203 0.96075 0.0
C835 C 0.02395 0.83073 0.87321 0.0
H836 H 0.06631 0.8563 0.92749 0.0
C837 C 0.03583 0.90475 0.8114 0.0
C838 C 0.04053 0.91581 0.85935 0.0
C839 C 0.03684 0.88607 0.81629 0.0
C840 C 0.05446 0.84932 0.91169 0.0
H841 H 0.05217 0.77003 0.01068 0.0
H842 H 0.05865 0.79419 0.94073 0.0
H843 H 0.06146 0.82547 0.95855 0.0
H844 H 0.05048 0.91616 0.94925 0.0
H845 H 0.05194 0.88353 0.95853 0.0
H846 H 0.01623 0.85516 0.83039 0.0
C847 C 0.045 0.79258 0.95652 0.0
C848 C 0.0518 0.8315 0.92869 0.0
C849 C 0.04131 0.77872 0.99629 0.0
C850 C 0.04692 0.90792 0.91153 0.0
C851 C 0.04782 0.88923 0.91661 0.0
C852 C 0.02653 0.84864 0.85666 0.0
C853 C 0.0315 0.80494 0.94064 0.0
C854 C 0.03617 0.82221 0.91152 0.0
C855 C 0.0425 0.87809 0.86939 0.0
C856 C 0.04147 0.85832 0.87766 0.0
H857 H 0.99666 0.78692 0.0179 0.0
H858 H 1.00311 0.81135 0.95011 0.0
H859 H 0.01193 0.82385 0.85833 0.0
H860 H 0.03115 0.91057 0.77031 0.0
H861 H 0.03291 0.87788 0.77884 0.0
C862 C 0.7253 0.01874 0.00687 0.0
C863 C 0.73639 0.03252 0.02847 0.0
C864 C 0.7111 0.02273 0.96885 0.0
C865 C 0.6809 0.06059 0.93875 0.0
H866 H 0.65874 0.02546 0.83523 0.0
C867 C 0.60468 0.05618 0.90941 0.0
C868 C 0.59754 0.04959 0.85634 0.0
C869 C 0.62327 0.05696 0.91757 0.0
C870 C 0.66482 0.03566 0.86297 0.0
H871 H 0.74248 0.06097 0.02326 0.0
H872 H 0.71791 0.06795 0.95521 0.0
H873 H 0.68977 0.02137 0.86598 0.0
H874 H 0.60398 0.03972 0.76885 0.0
H875 H 0.6365 0.04149 0.78233 0.0
H876 H 0.65599 0.07492 0.93554 0.0
C877 C 0.71983 0.05413 0.96904 0.0
C878 C 0.68258 0.03317 0.88123 0.0
C879 C 0.73393 0.05015 0.00772 0.0
C880 C 0.60924 0.04456 0.81056 0.0
C881 C 0.62783 0.04555 0.81837 0.0
C882 C 0.66323 0.0632 0.91986 0.0
C883 C 0.70779 0.04059 0.95116 0.0
C884 C 0.69058 0.0452 0.92133 0.0
C885 C 0.63508 0.0514 0.87244 0.0
C886 C 0.65473 0.05038 0.88375 0.0
H887 H 0.72679 1.00506 0.02267 0.0
H888 H 0.702 0.01196 0.95683 0.0
H889 H 0.68653 0.07011 0.96989 0.0
H890 H 0.59588 0.06003 0.94541 0.0
H891 H 0.62833 0.06122 0.96019 0.0
C892 C 0.47196 0.71402 0.08229 0.0
C893 C 0.47989 0.72943 0.058 0.0
C894 C 0.46388 0.70129 0.04591 0.0
C895 C 0.46896 0.68218 0.90139 0.0
H896 H 0.42755 0.65415 0.9501 0.0
C897 C 0.45849 0.61148 0.80994 0.0
C898 C 0.45668 0.59864 0.85516 0.0
C899 C 0.45548 0.62969 0.82144 0.0
C900 C 0.43905 0.66191 0.93558 0.0
H901 H 0.4851 0.74416 0.97734 0.0
H902 H 0.4712 0.72144 0.91268 0.0
H903 H 0.43318 0.68345 0.99542 0.0
H904 H 0.4491 0.59458 0.94655 0.0
H905 H 0.44398 0.62631 0.96693 0.0
H906 H 0.47559 0.66022 0.84463 0.0
C907 C 0.47114 0.71936 0.96004 0.0
C908 C 0.44224 0.67867 0.96135 0.0
C909 C 0.47905 0.7323 0.99679 0.0
C910 C 0.45048 0.60416 0.91079 0.0
C911 C 0.44751 0.62237 0.92234 0.0
C912 C 0.46581 0.6654 0.87573 0.0
C913 C 0.4637 0.70362 0.98435 0.0
C914 C 0.45768 0.68856 0.94647 0.0
C915 C 0.45062 0.6354 0.8784 0.0
C916 C 0.45129 0.65472 0.8946 0.0
H917 H 0.47236 0.71164 0.12951 0.0
H918 H 0.45854 0.68917 0.06588 0.0
H919 H 0.48104 0.68944 0.88938 0.0
H920 H 0.46294 0.60752 0.76626 0.0
H921 H 0.4577 0.63937 0.78645 0.0
C922 C 0.78714 0.49897 0.01059 0.0
C923 C 0.77803 0.48405 0.03396 0.0
C924 C 0.80231 0.49654 0.97539 0.0
C925 C 0.83864 0.46398 0.96443 0.0
H926 H 0.85734 0.49859 0.85212 0.0
C927 C 0.91318 0.46514 0.89225 0.0
C928 C 0.92125 0.48222 0.89499 0.0
C929 C 0.89456 0.46335 0.89741 0.0
C930 C 0.85225 0.4888 0.88332 0.0
H931 H 0.77634 0.45494 0.0336 0.0
H932 H 0.8028 0.45064 0.97118 0.0
H933 H 0.82524 0.49846 0.87503 0.0
H934 H 0.91618 0.51076 0.90672 0.0
H935 H 0.88368 0.50762 0.91564 0.0
H936 H 0.86571 0.45471 0.97411 0.0
C937 C 0.79848 0.46422 0.98133 0.0
C938 C 0.8339 0.48869 0.89633 0.0
C939 C 0.78333 0.46666 0.01689 0.0
C940 C 0.91034 0.49745 0.90366 0.0
C941 C 0.89174 0.49566 0.90843 0.0
C942 C 0.85694 0.46401 0.9511 0.0
C943 C 0.80862 0.47912 0.96266 0.0
C944 C 0.82701 0.47671 0.93866 0.0
C945 C 0.88367 0.47862 0.905 0.0
C946 C 0.86399 0.47683 0.91204 0.0
H947 H 0.78348 0.51254 0.0234 0.0
H948 H 0.80987 0.50833 0.96232 0.0
H949 H 0.83387 0.45474 0.9979 0.0
H950 H 0.92118 0.45318 0.8845 0.0
H951 H 0.88864 0.45006 0.89448 0.0
C952 C 0.02485 0.21041 0.80041 0.0
C953 C 0.01282 0.21673 0.84376 0.0
C954 C 0.024 0.19255 0.78017 0.0
C955 C 0.00904 0.14752 0.82861 0.0
H956 H 0.01525 0.13389 0.66453 0.0
C957 C 0.02039 0.07341 0.75921 0.0
C958 C 0.01084 0.06704 0.7097 0.0
C959 C 0.02074 0.09182 0.77286 0.0
C960 C 0.01342 0.13747 0.7105 0.0
H961 H 0.99031 0.20904 0.89914 0.0
H962 H 0.98877 0.17811 0.86371 0.0
H963 H 0.01502 0.16579 0.69203 0.0
H964 H 0.99436 0.07534 0.63524 0.0
H965 H 0.99489 0.10739 0.65962 0.0
H966 H 1.00743 0.11931 0.84728 0.0
C967 C 0.99892 0.18694 0.84543 0.0
C968 C 0.01343 0.15576 0.72635 0.0
C969 C 0.99967 0.2048 0.86523 0.0
C970 C 1.00192 0.07968 0.67365 0.0
C971 C 1.0023 0.09811 0.68735 0.0
C972 C 0.00921 0.12928 0.8129 0.0
C973 C 0.01124 0.18047 0.80328 0.0
C974 C 0.01119 0.16104 0.78565 0.0
C975 C 0.01159 0.10442 0.73744 0.0
C976 C 0.01141 0.12397 0.75367 0.0
H977 H 0.0351 0.21922 0.78262 0.0
H978 H 0.03375 0.18804 0.74785 0.0
H979 H 1.00747 0.15103 0.87476 0.0
H980 H 0.02745 0.06418 0.78799 0.0
H981 H 0.02823 0.09618 0.81135 0.0
C982 C 0.30378 1.00482 0.80783 0.0
C983 C 0.29891 0.01762 0.85086 0.0
C984 C 0.32154 1.00384 0.78664 0.0
C985 C 0.36475 0.03003 0.78242 0.0
H986 H 0.38613 0.98369 0.74673 0.0
C987 C 0.44162 0.02059 0.75761 0.0
C988 C 0.44796 0.00986 0.71078 0.0
C989 C 0.42324 0.02139 0.77102 0.0
C990 C 0.38031 0.99676 0.75595 0.0
H991 H 0.30927 0.03902 0.90642 0.0
H992 H 0.33993 0.03718 0.87057 0.0
H993 H 0.35458 0.98537 0.77645 0.0
H994 H 0.43969 0.99136 0.64172 0.0
H995 H 0.4076 0.99261 0.6657 0.0
H996 H 0.39061 0.04135 0.76339 0.0
C997 C 0.33002 0.02824 0.85145 0.0
C998 C 0.36215 0.99775 0.77287 0.0
C999 C 0.31232 0.0293 0.8722 0.0
C1000 C 0.43535 0.9998 0.67803 0.0
C1001 C 0.41694 1.00044 0.69196 0.0
C1002 C 0.38291 0.02901 0.76613 0.0
C1003 C 0.33498 0.01552 0.80826 0.0
C1004 C 0.35411 0.0144 0.78702 0.0
C1005 C 0.41062 0.01134 0.73845 0.0
C1006 C 0.39101 0.01236 0.7532 0.0
H1007 H 0.29383 0.99564 0.79019 0.0
H1008 H 0.32467 0.99399 0.75291 0.0
H1009 H 0.35907 0.04318 0.79133 0.0
H1010 H 0.45085 0.02853 0.78388 0.0
H1011 H 0.41892 0.02976 0.80754 0.0
C1012 C 0.51606 0.31316 0.85156 0.0
C1013 C 0.501 0.30192 0.84339 0.0
C1014 C 0.51634 0.3307 0.82876 0.0
C1015 C 0.48576 0.36736 0.78089 0.0
H1016 H 0.52962 0.38889 0.7213 0.0
C1017 C 0.51246 0.43839 0.66695 0.0
C1018 C 0.50358 0.45099 0.70321 0.0
C1019 C 0.51167 0.4199 0.6793 0.0
C1020 C 0.51718 0.38308 0.73726 0.0
H1021 H 0.47468 0.3004 0.80232 0.0
H1022 H 0.47515 0.33096 0.76276 0.0
H1023 H 0.52937 0.35716 0.74903 0.0
H1024 H 0.4867 0.45374 0.78078 0.0
H1025 H 0.48545 0.42166 0.80253 0.0
H1026 H 0.47355 0.39325 0.76895 0.0
C1027 C 0.48667 0.32626 0.78769 0.0
C1028 C 0.5171 0.36488 0.75382 0.0
C1029 C 0.48641 0.30867 0.81039 0.0
C1030 C 0.49368 0.44452 0.7517 0.0
C1031 C 0.49287 0.42603 0.76401 0.0
C1032 C 0.48587 0.38557 0.76456 0.0
C1033 C 0.50155 0.33762 0.79718 0.0
C1034 C 0.50143 0.35678 0.77638 0.0
C1035 C 0.50196 0.41344 0.72827 0.0
C1036 C 0.50162 0.39377 0.74301 0.0
H1037 H 0.52744 0.30868 0.87761 0.0
H1038 H 0.52794 0.33906 0.8378 0.0
H1039 H 0.47347 0.3617 0.79851 0.0
H1040 H 0.52027 0.4428 0.62931 0.0
H1041 H 0.51866 0.41066 0.65026 0.0
C1042 C 0.20879 0.49231 0.81157 0.0
C1043 C 0.21623 0.50611 0.84659 0.0
C1044 C 0.19128 0.49378 0.78873 0.0
C1045 C 0.1481 0.51662 0.81988 0.0
H1046 H 0.13394 0.49892 0.66549 0.0
C1047 C 0.07356 0.50484 0.76012 0.0
C1048 C 0.06746 0.51 0.70372 0.0
C1049 C 0.09192 0.5049 0.77393 0.0
C1050 C 0.13767 0.50404 0.70861 0.0
H1051 H 0.21095 0.53252 0.88362 0.0
H1052 H 0.18065 0.53517 0.84337 0.0
H1053 H 0.16572 0.49858 0.69423 0.0
H1054 H 0.07624 0.51899 0.61718 0.0
H1055 H 0.10833 0.51906 0.64144 0.0
H1056 H 0.12018 0.52206 0.83452 0.0
C1057 C 0.18831 0.5231 0.83392 0.0
C1058 C 0.15589 0.5037 0.7253 0.0
C1059 C 0.20583 0.52168 0.85643 0.0
C1060 C 0.08036 0.51499 0.66118 0.0
C1061 C 0.09881 0.51493 0.67496 0.0
C1062 C 0.12993 0.51683 0.80343 0.0
C1063 C 0.18064 0.50905 0.80063 0.0
C1064 C 0.16136 0.50992 0.78133 0.0
C1065 C 0.10483 0.51004 0.73178 0.0
C1066 C 0.1244 0.51041 0.74778 0.0
H1067 H 0.21642 0.48019 0.80258 0.0
H1068 H 0.18584 0.48265 0.76356 0.0
H1069 H 0.1517 0.52135 0.86358 0.0
H1070 H 0.06413 0.50085 0.7941 0.0
H1071 H 0.09602 0.50076 0.8178 0.0
C1072 C 0.98554 0.81455 0.46378 0.0
C1073 C 0.99761 0.80179 0.48708 0.0
C1074 C 0.98572 0.83243 0.4834 0.0
C1075 C 1.00053 0.8626 0.60453 0.0
H1076 H 0.99831 0.89926 0.48297 0.0
C1077 C 0.0112 0.93864 0.65684 0.0
C1078 C 1.00137 0.95134 0.62378 0.0
C1079 C 0.01077 0.92029 0.64206 0.0
C1080 C 0.99865 0.88929 0.5178 0.0
H1081 H 0.01894 0.79787 0.5512 0.0
H1082 H 0.0192 0.82912 0.58567 0.0
H1083 H 0.99703 0.86768 0.45542 0.0
H1084 H 0.98301 0.95448 0.55001 0.0
H1085 H 0.98181 0.92265 0.52549 0.0
H1086 H 1.00192 0.88422 0.66707 0.0
C1087 C 0.00959 0.82523 0.55204 0.0
C1088 C 0.99796 0.87109 0.50185 0.0
C1089 C 0.00951 0.80733 0.532 0.0
C1090 C 0.99091 0.94516 0.57616 0.0
C1091 C 0.99032 0.92682 0.56181 0.0
C1092 C 1.00106 0.88085 0.62062 0.0
C1093 C 0.99792 0.8381 0.52717 0.0
C1094 C 0.99881 0.85748 0.54492 0.0
C1095 C 1.00035 0.91408 0.59417 0.0
C1096 C 1.00004 0.89451 0.57747 0.0
H1097 H 0.97634 0.81091 0.42863 0.0
H1098 H 0.97638 0.84189 0.46376 0.0
H1099 H 1.0011 0.85248 0.63892 0.0
H1100 H 0.01949 0.94288 0.69365 0.0
H1101 H 0.0189 0.91103 0.66756 0.0
C1102 C 0.70037 0.98605 0.4722 0.0
C1103 C 0.71321 0.99839 0.49326 0.0
C1104 C 0.68279 0.98598 0.4945 0.0
C1105 C 0.64998 0.01536 0.57297 0.0
H1106 H 0.62248 0.97119 0.58376 0.0
C1107 C 0.57662 0.01364 0.66232 0.0
C1108 C 0.56428 1.00305 0.63039 0.0
C1109 C 0.59512 0.01268 0.65042 0.0
C1110 C 0.62992 0.98368 0.58063 0.0
H1111 H 0.71766 0.01988 0.55637 0.0
H1112 H 0.68713 0.0196 0.59596 0.0
H1113 H 0.65413 0.96997 0.55606 0.0
H1114 H 0.56195 0.98295 0.56124 0.0
H1115 H 0.59405 0.9813 0.54064 0.0
H1116 H 0.6257 0.02904 0.59758 0.0
C1117 C 0.69052 0.0102 0.56112 0.0
C1118 C 0.64812 0.98299 0.56461 0.0
C1119 C 0.7081 0.01032 0.53858 0.0
C1120 C 0.57098 0.99132 0.58679 0.0
C1121 C 0.58946 0.99028 0.5752 0.0
C1122 C 0.63179 0.01603 0.58932 0.0
C1123 C 0.67751 0.99821 0.53879 0.0
C1124 C 0.65838 0.99884 0.55975 0.0
C1125 C 0.60179 1.00101 0.6066 0.0
C1126 C 0.62145 1.00022 0.59262 0.0
H1127 H 0.70365 0.97689 0.43657 0.0
H1128 H 0.67318 0.97674 0.47532 0.0
H1129 H 0.65728 0.0279 0.56894 0.0
H1130 H 0.57199 0.02287 0.6961 0.0
H1131 H 0.60422 0.02102 0.67579 0.0
C1132 C 0.53561 0.70331 0.47075 0.0
C1133 C 0.52444 0.71657 0.49579 0.0
C1134 C 0.53508 0.68549 0.49074 0.0
C1135 C 0.50545 0.6533 0.57022 0.0
H1136 H 0.5483 0.62352 0.57013 0.0
C1137 C 0.50568 0.57943 0.65518 0.0
C1138 C 0.5153 0.56674 0.62145 0.0
C1139 C 0.50697 0.59788 0.64302 0.0
C1140 C 0.53617 0.6316 0.56995 0.0
H1141 H 0.50436 0.72141 0.56331 0.0
H1142 H 0.5036 0.69038 0.59886 0.0
H1143 H 0.55063 0.65538 0.54587 0.0
H1144 H 0.53382 0.56368 0.54815 0.0
H1145 H 0.53605 0.5958 0.52696 0.0
H1146 H 0.49103 0.62945 0.59452 0.0
C1147 C 0.51255 0.69371 0.56279 0.0
C1148 C 0.53749 0.64992 0.55597 0.0
C1149 C 0.51304 0.71156 0.54258 0.0
C1150 C 0.52622 0.57302 0.57513 0.0
C1151 C 0.52761 0.59148 0.56324 0.0
C1152 C 0.50415 0.63499 0.58455 0.0
C1153 C 0.52339 0.68034 0.53659 0.0
C1154 C 0.52213 0.66103 0.55521 0.0
C1155 C 0.51801 0.60417 0.59701 0.0
C1156 C 0.51946 0.62384 0.58397 0.0
H1157 H 0.54428 0.70649 0.43378 0.0
H1158 H 0.54341 0.67562 0.4686 0.0
H1159 H 0.49326 0.66128 0.5693 0.0
H1160 H 0.49703 0.57513 0.6909 0.0
H1161 H 0.49948 0.60724 0.67024 0.0
C1162 C 0.8087 0.52673 0.5231 0.0
C1163 C 0.80172 0.51238 0.48948 0.0
C1164 C 0.82662 0.52648 0.54292 0.0
C1165 C 0.87076 0.50636 0.50605 0.0
H1166 H 0.88526 0.52293 0.66138 0.0
C1167 C 0.94538 0.51876 0.56468 0.0
C1168 C 0.95161 0.51282 0.62009 0.0
C1169 C 0.92698 0.51874 0.55125 0.0
C1170 C 0.88143 0.51817 0.61794 0.0
H1171 H 0.80836 0.48649 0.45074 0.0
H1172 H 0.83929 0.48599 0.48573 0.0
H1173 H 0.85332 0.52252 0.63469 0.0
H1174 H 0.94309 0.50244 0.70518 0.0
H1175 H 0.91098 0.50247 0.68166 0.0
H1176 H 0.89874 0.50192 0.48915 0.0
C1177 C 0.83097 0.49749 0.49662 0.0
C1178 C 0.86312 0.51809 0.60244 0.0
C1179 C 0.81309 0.49768 0.47719 0.0
C1180 C 0.93885 0.50708 0.662 0.0
C1181 C 0.92039 0.50719 0.64865 0.0
C1182 C 0.88901 0.50657 0.52132 0.0
C1183 C 0.83808 0.51197 0.5291 0.0
C1184 C 0.85754 0.51214 0.54628 0.0
C1185 C 0.91422 0.51289 0.59286 0.0
C1186 C 0.89464 0.5125 0.5774 0.0
H1187 H 0.80035 0.53823 0.5337 0.0
H1188 H 0.83165 0.53791 0.56758 0.0
H1189 H 0.86702 0.50187 0.46219 0.0
H1190 H 0.95471 0.52332 0.53121 0.0
H1191 H 0.92274 0.52347 0.50817 0.0
loop_
_geom_bond_atom_site_label_1
_geom_bond_atom_site_label_2
_geom_bond_distance
_geom_bond_site_symmetry_2
_ccdc_geom_bond_type
C0 C1 1.386 . S
C0 C2 1.397 . S
C0 H24 0.931 . S
C1 C0 1.386 . S
C1 C5 1.397 . S
C2 C0 1.397 . S
C2 C3 1.384 . S
C2 H25 0.930 . S
C3 C2 1.384 . S
C3 C4 1.377 . S
C3 C6 1.481 . S
C4 C3 1.377 . S
C4 C5 1.389 . S
C4 H26 0.929 . S
C5 C1 1.397 . S
C5 C4 1.389 . S
C5 H27 0.931 . S
C6 C3 1.481 . S
C6 C7 1.387 . S
C6 C11 1.390 . S
C7 C6 1.387 . S
C7 C8 1.401 . S
C7 H28 0.930 . S
C8 C7 1.401 . S
C8 C9 1.376 . S
C8 C17 1.511 . S
C9 C8 1.376 . S
C9 C10 1.392 . S
C9 H30 0.931 . S
C10 C9 1.392 . S
C10 C11 1.361 . S
C10 C12 1.500 . S
C11 C6 1.390 . S
C11 C10 1.361 . S
C11 H29 0.931 . S
C12 C10 1.500 . S
C12 C13 1.371 . S
C12 C14 1.365 . S
C13 C12 1.371 . S
C13 C23 1.386 . S
C13 H31 0.931 . S
C14 C12 1.365 . S
C14 C15 1.409 . S
C14 H32 0.929 . S
C15 C14 1.409 . S
C15 C16 1.380 . S
C15 H33 0.930 . S
C16 C15 1.380 . S
C16 C23 1.357 . S
C17 C8 1.511 . S
C17 C18 1.341 . S
C17 C19 1.371 . S
C18 C17 1.341 . S
C18 C22 1.394 . S
C18 H34 0.930 . S
C19 C17 1.371 . S
C19 C20 1.392 . S
C19 H35 0.931 . S
C20 C19 1.392 . S
C20 C21 1.331 . S
C20 H38 0.932 . S
C21 C20 1.331 . S
C21 C22 1.336 . S
C22 C18 1.394 . S
C22 C21 1.336 . S
C22 H37 0.929 . S
C23 C13 1.386 . S
C23 C16 1.357 . S
C23 H36 0.928 . S
H24 C0 0.931 . S
H25 C2 0.930 . S
H26 C4 0.929 . S
H27 C5 0.931 . S
H28 C7 0.930 . S
H29 C11 0.931 . S
H30 C9 0.931 . S
H31 C13 0.931 . S
H32 C14 0.929 . S
H33 C15 0.930 . S
H34 C18 0.930 . S
H35 C19 0.931 . S
H36 C23 0.928 . S
H37 C22 0.929 . S
H38 C20 0.932 . S
C39 C40 1.386 . S
C39 C41 1.397 . S
C39 H63 0.931 . S
C40 C39 1.386 . S
C40 C44 1.397 1_655 S
C41 C39 1.397 . S
C41 C42 1.384 . S
C41 H64 0.930 . S
C42 C41 1.384 . S
C42 C43 1.377 1_655 S
C42 C45 1.481 . S
C43 C42 1.377 1_455 S
C43 C44 1.389 . S
C43 H65 0.929 . S
C44 C40 1.397 1_455 S
C44 C43 1.389 . S
C44 H66 0.931 . S
C45 C42 1.481 . S
C45 C46 1.387 . S
C45 C50 1.390 . S
C46 C45 1.387 . S
C46 C47 1.401 . S
C46 H67 0.930 . S
C47 C46 1.401 . S
C47 C48 1.376 . S
C47 C56 1.511 . S
C48 C47 1.376 . S
C48 C49 1.392 . S
C48 H69 0.931 . S
C49 C48 1.392 . S
C49 C50 1.361 . S
C49 C51 1.500 . S
C50 C45 1.390 . S
C50 C49 1.361 . S
C50 H68 0.931 . S
C51 C49 1.500 . S
C51 C52 1.371 . S
C51 C53 1.365 1_655 S
C52 C51 1.371 . S
C52 C62 1.386 . S
C52 H70 0.931 . S
C53 C51 1.365 1_455 S
C53 C54 1.409 . S
C53 H71 0.929 . S
C54 C53 1.409 . S
C54 C55 1.380 1_455 S
C54 H72 0.930 . S
C55 C54 1.380 1_655 S
C55 C62 1.357 . S
C56 C47 1.511 . S
C56 C57 1.341 . S
C56 C58 1.371 1_655 S
C57 C56 1.341 . S
C57 C61 1.394 . S
C57 H73 0.930 . S
C58 C56 1.371 1_455 S
C58 C59 1.392 . S
C58 H74 0.931 . S
C59 C58 1.392 . S
C59 C60 1.331 1_455 S
C59 H77 0.932 . S
C60 C59 1.331 1_655 S
C60 C61 1.336 . S
C61 C57 1.394 . S
C61 C60 1.336 . S
C61 H76 0.929 . S
C62 C52 1.386 . S
C62 C55 1.357 . S
C62 H75 0.928 . S
H63 C39 0.931 . S
H64 C41 0.930 . S
H65 C43 0.929 . S
H66 C44 0.931 . S
H67 C46 0.930 . S
H68 C50 0.931 . S
H69 C48 0.931 . S
H70 C52 0.931 . S
H71 C53 0.929 . S
H72 C54 0.930 . S
H73 C57 0.930 . S
H74 C58 0.931 . S
H75 C62 0.928 . S
H76 C61 0.929 . S
H77 C59 0.932 . S
C78 C79 1.394 . S
C78 C80 1.397 . S
C78 H102 0.931 . S
C79 C78 1.394 . S
C79 C83 1.389 1_565 S
C80 C78 1.397 . S
C80 C81 1.389 . S
C80 H103 0.930 . S
C81 C80 1.389 . S
C81 C82 1.373 1_565 S
C81 C84 1.480 . S
C82 C81 1.373 1_545 S
C82 C83 1.389 . S
C82 H104 0.929 . S
C83 C79 1.389 1_545 S
C83 C82 1.389 . S
C83 H105 0.931 . S
C84 C81 1.480 . S
C84 C85 1.388 . S
C84 C89 1.390 . S
C85 C84 1.388 . S
C85 C86 1.402 . S
C85 H106 0.930 . S
C86 C85 1.402 . S
C86 C87 1.376 . S
C86 C95 1.513 . S
C87 C86 1.376 . S
C87 C88 1.392 . S
C87 H108 0.934 . S
C88 C87 1.392 . S
C88 C89 1.361 . S
C88 C90 1.499 1_565 S
C89 C84 1.390 . S
C89 C88 1.361 . S
C89 H107 0.931 . S
C90 C88 1.499 1_545 S
C90 C91 1.364 1_545 S
C90 C92 1.373 . S
C91 C90 1.364 1_565 S
C91 C101 1.386 . S
C91 H109 0.931 . S
C92 C90 1.373 . S
C92 C93 1.409 . S
C92 H110 0.929 . S
C93 C92 1.409 . S
C93 C94 1.378 . S
C93 H111 0.930 . S
C94 C93 1.378 . S
C94 C101 1.360 1_545 S
C95 C86 1.513 . S
C95 C96 1.341 . S
C95 C97 1.371 1_565 S
C96 C95 1.341 . S
C96 C100 1.394 . S
C96 H112 0.930 . S
C97 C95 1.371 1_545 S
C97 C98 1.392 . S
C97 H113 0.931 . S
C98 C97 1.392 . S
C98 C99 1.322 1_545 S
C98 H116 0.932 . S
C99 C98 1.322 1_565 S
C99 C100 1.345 . S
C100 C96 1.394 . S
C100 C99 1.345 . S
C100 H115 0.929 . S
C101 C91 1.386 . S
C101 C94 1.360 1_565 S
C101 H114 0.928 . S
H102 C78 0.931 . S
H103 C80 0.930 . S
H104 C82 0.929 . S
H105 C83 0.931 . S
H106 C85 0.930 . S
H107 C89 0.931 . S
H108 C87 0.934 . S
H109 C91 0.931 . S
H110 C92 0.929 . S
H111 C93 0.930 . S
H112 C96 0.930 . S
H113 C97 0.931 . S
H114 C101 0.928 . S
H115 C100 0.929 . S
H116 C98 0.932 . S
C117 C118 1.386 . S
C117 C119 1.397 . S
C117 H141 0.931 . S
C118 C117 1.386 . S
C118 C122 1.397 . S
C119 C117 1.397 . S
C119 C120 1.384 . S
C119 H142 0.930 . S
C120 C119 1.384 . S
C120 C121 1.377 . S
C120 C123 1.481 . S
C121 C120 1.377 . S
C121 C122 1.389 . S
C121 H143 0.929 . S
C122 C118 1.397 . S
C122 C121 1.389 . S
C122 H144 0.931 . S
C123 C120 1.481 . S
C123 C124 1.387 . S
C123 C128 1.390 . S
C124 C123 1.387 . S
C124 C125 1.401 . S
C124 H145 0.930 . S
C125 C124 1.401 . S
C125 C126 1.376 . S
C125 C134 1.511 . S
C126 C125 1.376 . S
C126 C127 1.392 . S
C126 H147 0.931 . S
C127 C126 1.392 . S
C127 C128 1.361 . S
C127 C129 1.500 . S
C128 C123 1.390 . S
C128 C127 1.361 . S
C128 H146 0.931 . S
C129 C127 1.500 . S
C129 C130 1.371 . S
C129 C131 1.365 . S
C130 C129 1.371 . S
C130 C140 1.386 . S
C130 H148 0.931 . S
C131 C129 1.365 . S
C131 C132 1.409 . S
C131 H149 0.929 . S
C132 C131 1.409 . S
C132 C133 1.380 . S
C132 H150 0.930 . S
C133 C132 1.380 . S
C133 C140 1.357 . S
C134 C125 1.511 . S
C134 C135 1.341 . S
C134 C136 1.371 . S
C135 C134 1.341 . S
C135 C139 1.394 . S
C135 H151 0.930 . S
C136 C134 1.371 . S
C136 C137 1.392 . S
C136 H152 0.931 . S
C137 C136 1.392 . S
C137 C138 1.331 . S
C137 H155 0.932 . S
C138 C137 1.331 . S
C138 C139 1.336 . S
C139 C135 1.394 . S
C139 C138 1.336 . S
C139 H154 0.929 . S
C140 C130 1.386 . S
C140 C133 1.357 . S
C140 H153 0.928 . S
H141 C117 0.931 . S
H142 C119 0.930 . S
H143 C121 0.929 . S
H144 C122 0.931 . S
H145 C124 0.930 . S
H146 C128 0.931 . S
H147 C126 0.931 . S
H148 C130 0.931 . S
H149 C131 0.929 . S
H150 C132 0.930 . S
H151 C135 0.930 . S
H152 C136 0.931 . S
H153 C140 0.928 . S
H154 C139 0.929 . S
H155 C137 0.932 . S
C156 C157 1.386 . S
C156 C158 1.397 . S
C156 H180 0.931 . S
C157 C156 1.386 . S
C157 C161 1.397 . S
C158 C156 1.397 . S
C158 C159 1.384 . S
C158 H181 0.930 . S
C159 C158 1.384 . S
C159 C160 1.377 . S
C159 C162 1.481 . S
C160 C159 1.377 . S
C160 C161 1.389 . S
C160 H182 0.929 . S
C161 C157 1.397 . S
C161 C160 1.389 . S
C161 H183 0.931 . S
C162 C159 1.481 . S
C162 C163 1.387 . S
C162 C167 1.390 . S
C163 C162 1.387 . S
C163 C164 1.401 . S
C163 H184 0.930 . S
C164 C163 1.401 . S
C164 C165 1.376 1_554 S
C164 C173 1.511 . S
C165 C164 1.376 1_556 S
C165 C166 1.392 . S
C165 H186 0.931 . S
C166 C165 1.392 . S
C166 C167 1.361 1_556 S
C166 C168 1.500 . S
C167 C162 1.390 . S
C167 C166 1.361 1_554 S
C167 H185 0.931 . S
C168 C166 1.500 . S
C168 C169 1.371 . S
C168 C170 1.365 . S
C169 C168 1.371 . S
C169 C179 1.386 . S
C169 H187 0.931 . S
C170 C168 1.365 . S
C170 C171 1.409 . S
C170 H188 0.929 . S
C171 C170 1.409 . S
C171 C172 1.380 . S
C171 H189 0.930 . S
C172 C171 1.380 . S
C172 C179 1.357 . S
C173 C164 1.511 . S
C173 C174 1.341 . S
C173 C175 1.371 . S
C174 C173 1.341 . S
C174 C178 1.394 . S
C174 H190 0.930 . S
C175 C173 1.371 . S
C175 C176 1.392 . S
C175 H191 0.931 1_554 S
C176 C175 1.392 . S
C176 C177 1.331 . S
C176 H194 0.932 . S
C177 C176 1.331 . S
C177 C178 1.336 . S
C178 C174 1.394 . S
C178 C177 1.336 . S
C178 H193 0.929 . S
C179 C169 1.386 . S
C179 C172 1.357 . S
C179 H192 0.928 . S
H180 C156 0.931 . S
H181 C158 0.930 . S
H182 C160 0.929 . S
H183 C161 0.931 . S
H184 C163 0.930 . S
H185 C167 0.931 . S
H186 C165 0.931 . S
H187 C169 0.931 . S
H188 C170 0.929 . S
H189 C171 0.930 . S
H190 C174 0.930 . S
H191 C175 0.931 1_556 S
H192 C179 0.928 . S
H193 C178 0.929 . S
H194 C176 0.932 . S
C195 C196 1.386 1_655 S
C195 C197 1.397 . S
C195 H219 0.931 . S
C196 C195 1.386 1_455 S
C196 C200 1.397 . S
C197 C195 1.397 . S
C197 C198 1.384 1_655 S
C197 H220 0.930 . S
C198 C197 1.384 1_455 S
C198 C199 1.377 . S
C198 C201 1.481 . S
C199 C198 1.377 . S
C199 C200 1.389 . S
C199 H221 0.929 . S
C200 C196 1.397 . S
C200 C199 1.389 . S
C200 H222 0.931 . S
C201 C198 1.481 . S
C201 C202 1.387 . S
C201 C206 1.390 . S
C202 C201 1.387 . S
C202 C203 1.401 . S
C202 H223 0.930 . S
C203 C202 1.401 . S
C203 C204 1.376 1_554 S
C203 C212 1.511 . S
C204 C203 1.376 1_556 S
C204 C205 1.392 . S
C204 H225 0.931 . S
C205 C204 1.392 . S
C205 C206 1.361 1_556 S
C205 C207 1.500 . S
C206 C201 1.390 . S
C206 C205 1.361 1_554 S
C206 H224 0.931 . S
C207 C205 1.500 . S
C207 C208 1.371 1_455 S
C207 C209 1.365 . S
C208 C207 1.371 1_655 S
C208 C218 1.386 . S
C208 H226 0.931 . S
C209 C207 1.365 . S
C209 C210 1.409 . S
C209 H227 0.929 . S
C210 C209 1.409 . S
C210 C211 1.380 . S
C210 H228 0.930 . S
C211 C210 1.380 . S
C211 C218 1.357 1_455 S
C212 C203 1.511 . S
C212 C213 1.341 1_455 S
C212 C214 1.371 . S
C213 C212 1.341 1_655 S
C213 C217 1.394 . S
C213 H229 0.930 . S
C214 C212 1.371 . S
C214 C215 1.392 . S
C214 H230 0.931 1_554 S
C215 C214 1.392 . S
C215 C216 1.331 . S
C215 H233 0.932 . S
C216 C215 1.331 . S
C216 C217 1.336 1_455 S
C217 C213 1.394 . S
C217 C216 1.336 1_655 S
C217 H232 0.929 . S
C218 C208 1.386 . S
C218 C211 1.357 1_655 S
C218 H231 0.928 . S
H219 C195 0.931 . S
H220 C197 0.930 . S
H221 C199 0.929 . S
H222 C200 0.931 . S
H223 C202 0.930 . S
H224 C206 0.931 . S
H225 C204 0.931 . S
H226 C208 0.931 . S
H227 C209 0.929 . S
H228 C210 0.930 . S
H229 C213 0.930 . S
H230 C214 0.931 1_556 S
H231 C218 0.928 . S
H232 C217 0.929 . S
H233 C215 0.932 . S
C234 C235 1.386 . S
C234 C236 1.397 . S
C234 H258 0.931 . S
C235 C234 1.386 . S
C235 C239 1.398 1_565 S
C236 C234 1.397 . S
C236 C237 1.389 1_565 S
C236 H259 0.930 . S
C237 C236 1.389 1_545 S
C237 C238 1.373 . S
C237 C240 1.480 1_545 S
C238 C237 1.373 . S
C238 C239 1.389 . S
C238 H260 0.929 . S
C239 C235 1.398 1_545 S
C239 C238 1.389 . S
C239 H261 0.931 . S
C240 C237 1.480 1_565 S
C240 C241 1.386 . S
C240 C245 1.390 . S
C241 C240 1.386 . S
C241 C242 1.400 . S
C241 H262 0.935 . S
C242 C241 1.400 . S
C242 C243 1.376 1_554 S
C242 C251 1.512 . S
C243 C242 1.376 1_556 S
C243 C244 1.392 1_565 S
C243 H264 0.933 . S
C244 C243 1.392 1_545 S
C244 C245 1.361 1_546 S
C244 C246 1.499 . S
C245 C240 1.390 . S
C245 C244 1.361 1_564 S
C245 H263 0.931 1_565 S
C246 C244 1.499 . S
C246 C247 1.357 1_545 S
C246 C248 1.380 . S
C247 C246 1.357 1_565 S
C247 C257 1.386 . S
C247 H265 0.931 . S
C248 C246 1.380 . S
C248 C249 1.409 . S
C248 H266 0.929 . S
C249 C248 1.409 . S
C249 C250 1.384 . S
C249 H267 0.930 . S
C250 C249 1.384 . S
C250 C257 1.353 1_545 S
C251 C242 1.512 . S
C251 C252 1.341 . S
C251 C253 1.371 1_565 S
C252 C251 1.341 . S
C252 C256 1.394 . S
C252 H268 0.930 . S
C253 C251 1.371 1_545 S
C253 C254 1.392 . S
C253 H269 0.931 1_554 S
C254 C253 1.392 . S
C254 C255 1.327 1_545 S
C254 H272 0.932 . S
C255 C254 1.327 1_565 S
C255 C256 1.341 . S
C256 C252 1.394 . S
C256 C255 1.341 . S
C256 H271 0.929 . S
C257 C247 1.386 . S
C257 C250 1.353 1_565 S
C257 H270 0.928 . S
H258 C234 0.931 . S
H259 C236 0.930 . S
H260 C238 0.929 . S
H261 C239 0.931 . S
H262 C241 0.935 . S
H263 C245 0.931 1_545 S
H264 C243 0.933 . S
H265 C247 0.931 . S
H266 C248 0.929 . S
H267 C249 0.930 . S
H268 C252 0.930 . S
H269 C253 0.931 1_556 S
H270 C257 0.928 . S
H271 C256 0.929 . S
H272 C254 0.932 . S
C273 C274 1.386 . S
C273 C275 1.397 . S
C273 H297 0.931 . S
C274 C273 1.386 . S
C274 C278 1.397 . S
C275 C273 1.397 . S
C275 C276 1.384 . S
C275 H298 0.930 . S
C276 C275 1.384 . S
C276 C277 1.377 . S
C276 C279 1.481 . S
C277 C276 1.377 . S
C277 C278 1.389 . S
C277 H299 0.929 . S
C278 C274 1.397 . S
C278 C277 1.389 . S
C278 H300 0.931 . S
C279 C276 1.481 . S
C279 C280 1.387 . S
C279 C284 1.390 1_556 S
C280 C279 1.387 . S
C280 C281 1.401 1_556 S
C280 H301 0.930 . S
C281 C280 1.401 1_554 S
C281 C282 1.376 . S
C281 C290 1.511 . S
C282 C281 1.376 . S
C282 C283 1.392 . S
C282 H303 0.931 . S
C283 C282 1.392 . S
C283 C284 1.361 . S
C283 C285 1.500 . S
C284 C279 1.390 1_554 S
C284 C283 1.361 . S
C284 H302 0.931 . S
C285 C283 1.500 . S
C285 C286 1.371 . S
C285 C287 1.365 . S
C286 C285 1.371 . S
C286 C296 1.386 . S
C286 H304 0.931 . S
C287 C285 1.365 . S
C287 C288 1.409 . S
C287 H305 0.929 . S
C288 C287 1.409 . S
C288 C289 1.380 . S
C288 H306 0.930 . S
C289 C288 1.380 . S
C289 C296 1.357 . S
C290 C281 1.511 . S
C290 C291 1.341 . S
C290 C292 1.371 . S
C291 C290 1.341 . S
C291 C295 1.394 . S
C291 H307 0.930 1_554 S
C292 C290 1.371 . S
C292 C293 1.392 . S
C292 H308 0.931 . S
C293 C292 1.392 . S
C293 C294 1.331 . S
C293 H311 0.932 . S
C294 C293 1.331 . S
C294 C295 1.336 . S
C295 C291 1.394 . S
C295 C294 1.336 . S
C295 H310 0.929 . S
C296 C286 1.386 . S
C296 C289 1.357 . S
C296 H309 0.928 . S
H297 C273 0.931 . S
H298 C275 0.930 . S
H299 C277 0.929 . S
H300 C278 0.931 . S
H301 C280 0.930 . S
H302 C284 0.931 . S
H303 C282 0.931 . S
H304 C286 0.931 . S
H305 C287 0.929 . S
H306 C288 0.930 . S
H307 C291 0.930 1_556 S
H308 C292 0.931 . S
H309 C296 0.928 . S
H310 C295 0.929 . S
H311 C293 0.932 . S
Pr312 C314 2.880 . S
Pr312 O332 2.562 . S
Pr312 O333 2.490 . S
Pr312 O334 2.695 1_565 S
Pr312 O335 2.512 . S
Pr312 O337 2.437 . S
Pr312 O340 2.436 1_455 S
Pr312 O342 2.438 1_565 S
Pr313 C323 2.880 . S
Pr313 O334 2.436 1_655 S
Pr313 O336 2.438 1_545 S
Pr313 O338 2.562 . S
Pr313 O339 2.490 . S
Pr313 O340 2.695 1_545 S
Pr313 O341 2.512 . S
Pr313 O343 2.437 . S
C314 Pr312 2.880 . S
C314 C315 1.491 . S
C314 O332 1.254 . S
C314 O333 1.225 . S
C315 C314 1.491 . S
C315 C316 1.392 . S
C315 C320 1.356 . S
C316 C315 1.392 . S
C316 C317 1.368 . S
C316 H344 0.929 . S
C317 C316 1.368 . S
C317 C318 1.386 . S
C317 H345 0.929 . S
C318 C317 1.386 . S
C318 C319 1.373 . S
C319 C318 1.373 . S
C319 C320 1.409 . S
C319 H346 0.931 1_455 S
C320 C315 1.356 . S
C320 C319 1.409 . S
C320 H347 0.930 1_455 S
C321 O334 1.250 1_565 S
C321 O335 1.285 . S
C322 O336 1.267 . S
C322 O337 1.278 1_655 S
C323 Pr313 2.880 . S
C323 C324 1.491 . S
C323 O338 1.254 . S
C323 O339 1.225 . S
C324 C323 1.491 . S
C324 C325 1.392 . S
C324 C329 1.356 . S
C325 C324 1.392 . S
C325 C326 1.368 . S
C325 H348 0.929 . S
C326 C325 1.368 . S
C326 C327 1.386 . S
C326 H349 0.929 . S
C327 C326 1.386 . S
C327 C328 1.373 . S
C328 C327 1.373 . S
C328 C329 1.409 . S
C328 H350 0.931 1_655 S
C329 C324 1.356 . S
C329 C328 1.409 . S
C329 H351 0.930 1_655 S
C330 O340 1.270 1_545 S
C330 O341 1.248 . S
C331 O342 1.267 . S
C331 O343 1.278 1_455 S
O332 Pr312 2.562 . S
O332 C314 1.254 . S
O333 Pr312 2.490 . S
O333 C314 1.225 . S
O334 Pr312 2.695 1_545 S
O334 Pr313 2.436 1_455 S
O334 C321 1.250 1_545 S
O335 Pr312 2.512 . S
O335 C321 1.285 . S
O336 Pr313 2.438 1_565 S
O336 C322 1.267 . S
O337 Pr312 2.437 . S
O337 C322 1.278 1_455 S
O338 Pr313 2.562 . S
O338 C323 1.254 . S
O339 Pr313 2.490 . S
O339 C323 1.225 . S
O340 Pr312 2.436 1_655 S
O340 Pr313 2.695 1_565 S
O340 C330 1.270 1_565 S
O341 Pr313 2.512 . S
O341 C330 1.248 . S
O342 Pr312 2.438 1_545 S
O342 C331 1.267 . S
O343 Pr313 2.437 . S
O343 C331 1.278 1_655 S
H344 C316 0.929 . S
H345 C317 0.929 . S
H346 C319 0.931 1_655 S
H347 C320 0.930 1_655 S
H348 C325 0.929 . S
H349 C326 0.929 . S
H350 C328 0.931 1_455 S
H351 C329 0.930 1_455 S
Pr352 C354 2.880 . S
Pr352 O372 2.562 . S
Pr352 O373 2.490 . S
Pr352 O374 2.695 . S
Pr352 O375 2.512 . S
Pr352 O377 2.437 . S
Pr352 O380 2.436 1_545 S
Pr352 O382 2.438 . S
Pr353 C363 2.880 . S
Pr353 O374 2.436 1_565 S
Pr353 O376 2.438 . S
Pr353 O378 2.562 . S
Pr353 O379 2.490 . S
Pr353 O380 2.695 . S
Pr353 O381 2.512 . S
Pr353 O383 2.437 . S
C354 Pr352 2.880 . S
C354 C355 1.491 . S
C354 O372 1.254 . S
C354 O373 1.225 . S
C355 C354 1.491 . S
C355 C356 1.392 . S
C355 C360 1.356 . S
C356 C355 1.392 . S
C356 C357 1.368 . S
C356 H384 0.929 . S
C357 C356 1.368 . S
C357 C358 1.386 . S
C357 H385 0.929 . S
C358 C357 1.386 . S
C358 C359 1.373 . S
C359 C358 1.373 . S
C359 C360 1.409 . S
C359 H386 0.931 1_545 S
C360 C355 1.356 . S
C360 C359 1.409 . S
C360 H387 0.930 1_545 S
C361 O374 1.270 . S
C361 O375 1.248 . S
C362 O376 1.267 . S
C362 O377 1.278 1_565 S
C363 Pr353 2.880 . S
C363 C364 1.491 . S
C363 O378 1.254 . S
C363 O379 1.225 . S
C364 C363 1.491 . S
C364 C365 1.392 . S
C364 C369 1.356 . S
C365 C364 1.392 . S
C365 C366 1.368 . S
C365 H388 0.929 . S
C366 C365 1.368 . S
C366 C367 1.386 . S
C366 H389 0.929 . S
C367 C366 1.386 . S
C367 C368 1.373 . S
C368 C367 1.373 . S
C368 C369 1.409 . S
C368 H390 0.931 1_565 S
C369 C364 1.356 . S
C369 C368 1.409 . S
C369 H391 0.930 1_565 S
C370 O380 1.270 . S
C370 O381 1.248 . S
C371 O382 1.267 . S
C371 O383 1.278 1_545 S
O372 Pr352 2.562 . S
O372 C354 1.254 . S
O373 Pr352 2.490 . S
O373 C354 1.225 . S
O374 Pr352 2.695 . S
O374 Pr353 2.436 1_545 S
O374 C361 1.270 . S
O375 Pr352 2.512 . S
O375 C361 1.248 . S
O376 Pr353 2.438 . S
O376 C362 1.267 . S
O377 Pr352 2.437 . S
O377 C362 1.278 1_545 S
O378 Pr353 2.562 . S
O378 C363 1.254 . S
O379 Pr353 2.490 . S
O379 C363 1.225 . S
O380 Pr352 2.436 1_565 S
O380 Pr353 2.695 . S
O380 C370 1.270 . S
O381 Pr353 2.512 . S
O381 C370 1.248 . S
O382 Pr352 2.438 . S
O382 C371 1.267 . S
O383 Pr353 2.437 . S
O383 C371 1.278 1_565 S
H384 C356 0.929 . S
H385 C357 0.929 . S
H386 C359 0.931 1_565 S
H387 C360 0.930 1_565 S
H388 C365 0.929 . S
H389 C366 0.929 . S
H390 C368 0.931 1_545 S
H391 C369 0.930 1_545 S
Pr392 C394 2.880 . S
Pr392 O412 2.562 . S
Pr392 O413 2.490 . S
Pr392 O414 2.695 . S
Pr392 O415 2.512 . S
Pr392 O417 2.437 . S
Pr392 O420 2.436 . S
Pr392 O422 2.438 . S
Pr393 C403 2.880 . S
Pr393 O414 2.436 . S
Pr393 O416 2.438 . S
Pr393 O418 2.562 . S
Pr393 O419 2.490 . S
Pr393 O420 2.695 . S
Pr393 O421 2.512 . S
Pr393 O423 2.437 . S
C394 Pr392 2.880 . S
C394 C395 1.491 . S
C394 O412 1.254 . S
C394 O413 1.225 . S
C395 C394 1.491 . S
C395 C396 1.392 . S
C395 C400 1.356 . S
C396 C395 1.392 . S
C396 C397 1.368 . S
C396 H424 0.929 . S
C397 C396 1.368 . S
C397 C398 1.386 . S
C397 H425 0.929 . S
C398 C397 1.386 . S
C398 C399 1.373 . S
C399 C398 1.373 . S
C399 C400 1.409 . S
C399 H426 0.931 . S
C400 C395 1.356 . S
C400 C399 1.409 . S
C400 H427 0.930 . S
C401 O414 1.270 . S
C401 O415 1.248 . S
C402 O416 1.267 . S
C402 O417 1.278 . S
C403 Pr393 2.880 . S
C403 C404 1.491 . S
C403 O418 1.254 . S
C403 O419 1.225 . S
C404 C403 1.491 . S
C404 C405 1.392 . S
C404 C409 1.356 . S
C405 C404 1.392 . S
C405 C406 1.368 . S
C405 H428 0.929 . S
C406 C405 1.368 . S
C406 C407 1.386 . S
C406 H429 0.929 . S
C407 C406 1.386 . S
C407 C408 1.373 . S
C408 C407 1.373 . S
C408 C409 1.409 . S
C408 H430 0.931 . S
C409 C404 1.356 . S
C409 C408 1.409 . S
C409 H431 0.930 . S
C410 O420 1.270 . S
C410 O421 1.248 . S
C411 O422 1.267 . S
C411 O423 1.278 . S
O412 Pr392 2.562 . S
O412 C394 1.254 . S
O413 Pr392 2.490 . S
O413 C394 1.225 . S
O414 Pr392 2.695 . S
O414 Pr393 2.436 . S
O414 C401 1.270 . S
O415 Pr392 2.512 . S
O415 C401 1.248 . S
O416 Pr393 2.438 . S
O416 C402 1.267 . S
O417 Pr392 2.437 . S
O417 C402 1.278 . S
O418 Pr393 2.562 . S
O418 C403 1.254 . S
O419 Pr393 2.490 . S
O419 C403 1.225 . S
O420 Pr392 2.436 . S
O420 Pr393 2.695 . S
O420 C410 1.270 . S
O421 Pr393 2.512 . S
O421 C410 1.248 . S
O422 Pr392 2.438 . S
O422 C411 1.267 . S
O423 Pr393 2.437 . S
O423 C411 1.278 . S
H424 C396 0.929 . S
H425 C397 0.929 . S
H426 C399 0.931 . S
H427 C400 0.930 . S
H428 C405 0.929 . S
H429 C406 0.929 . S
H430 C408 0.931 . S
H431 C409 0.930 . S
Pr432 C434 2.880 . S
Pr432 O452 2.562 . S
Pr432 O453 2.490 . S
Pr432 O454 2.695 1_655 S
Pr432 O455 2.512 . S
Pr432 O457 2.437 . S
Pr432 O460 2.436 . S
Pr432 O462 2.438 1_655 S
Pr433 C443 2.880 . S
Pr433 O454 2.436 . S
Pr433 O456 2.438 1_455 S
Pr433 O458 2.562 . S
Pr433 O459 2.490 . S
Pr433 O460 2.695 1_455 S
Pr433 O461 2.512 . S
Pr433 O463 2.437 . S
C434 Pr432 2.880 . S
C434 C435 1.491 . S
C434 O452 1.254 . S
C434 O453 1.225 . S
C435 C434 1.491 . S
C435 C436 1.392 . S
C435 C440 1.356 . S
C436 C435 1.392 . S
C436 C437 1.368 . S
C436 H464 0.929 . S
C437 C436 1.368 . S
C437 C438 1.386 . S
C437 H465 0.929 . S
C438 C437 1.386 . S
C438 C439 1.373 . S
C439 C438 1.373 . S
C439 C440 1.409 . S
C439 H466 0.931 . S
C440 C435 1.356 . S
C440 C439 1.409 . S
C440 H467 0.930 . S
C441 O454 1.261 1_655 S
C441 O455 1.265 . S
C442 O456 1.267 . S
C442 O457 1.278 . S
C443 Pr433 2.880 . S
C443 C444 1.491 . S
C443 O458 1.254 . S
C443 O459 1.225 . S
C444 C443 1.491 . S
C444 C445 1.392 . S
C444 C449 1.356 . S
C445 C444 1.392 . S
C445 C446 1.368 . S
C445 H468 0.929 . S
C446 C445 1.368 . S
C446 C447 1.386 . S
C446 H469 0.929 . S
C447 C446 1.386 . S
C447 C448 1.373 . S
C448 C447 1.373 . S
C448 C449 1.409 . S
C448 H470 0.931 . S
C449 C444 1.356 . S
C449 C448 1.409 . S
C449 H471 0.930 . S
C450 O460 1.256 1_455 S
C450 O461 1.273 . S
C451 O462 1.267 . S
C451 O463 1.278 . S
O452 Pr432 2.562 . S
O452 C434 1.254 . S
O453 Pr432 2.490 . S
O453 C434 1.225 . S
O454 Pr432 2.695 1_455 S
O454 Pr433 2.436 . S
O454 C441 1.261 1_455 S
O455 Pr432 2.512 . S
O455 C441 1.265 . S
O456 Pr433 2.438 1_655 S
O456 C442 1.267 . S
O457 Pr432 2.437 . S
O457 C442 1.278 . S
O458 Pr433 2.562 . S
O458 C443 1.254 . S
O459 Pr433 2.490 . S
O459 C443 1.225 . S
O460 Pr432 2.436 . S
O460 Pr433 2.695 1_655 S
O460 C450 1.256 1_655 S
O461 Pr433 2.512 . S
O461 C450 1.273 . S
O462 Pr432 2.438 1_455 S
O462 C451 1.267 . S
O463 Pr433 2.437 . S
O463 C451 1.278 . S
H464 C436 0.929 . S
H465 C437 0.929 . S
H466 C439 0.931 . S
H467 C440 0.930 . S
H468 C445 0.929 . S
H469 C446 0.929 . S
H470 C448 0.931 . S
H471 C449 0.930 . S
C472 C473 1.354 . S
C472 C474 1.327 . S
C472 H497 0.950 . S
C473 C472 1.354 . S
C473 C489 1.344 1_545 S
C474 C472 1.327 . S
C474 C493 1.443 . S
C474 H498 0.950 . S
C475 C492 1.574 . S
C475 C494 1.347 1_565 S
C475 H499 0.949 . S
H476 C480 0.949 . S
C477 C478 1.304 1_565 S
C477 C479 1.327 . S
C477 H500 0.950 . S
C478 C477 1.304 1_545 S
C478 C490 1.395 . S
C479 C477 1.327 . S
C479 C495 1.395 1_565 S
C479 H501 0.950 . S
C480 H476 0.949 . S
C480 C488 1.574 . S
C480 C496 1.400 . S
H481 C489 0.950 . S
H482 C487 0.950 . S
H483 C488 0.949 . S
H484 C490 0.950 . S
H485 C491 0.950 . S
H486 C492 0.949 . S
C487 H482 0.950 . S
C487 C489 1.327 . S
C487 C493 1.414 1_565 S
C488 C480 1.574 . S
C488 H483 0.949 . S
C488 C494 1.390 . S
C489 C473 1.344 1_565 S
C489 H481 0.950 . S
C489 C487 1.327 . S
C490 C478 1.395 . S
C490 H484 0.950 . S
C490 C491 1.327 . S
C491 H485 0.950 . S
C491 C490 1.327 . S
C491 C495 1.464 . S
C492 C475 1.574 . S
C492 H486 0.949 . S
C492 C496 1.337 1_565 S
C493 C474 1.443 . S
C493 C487 1.414 1_545 S
C493 C494 1.523 . S
C494 C475 1.347 1_545 S
C494 C488 1.390 . S
C494 C493 1.523 . S
C495 C479 1.395 1_545 S
C495 C491 1.464 . S
C495 C496 1.523 . S
C496 C480 1.400 . S
C496 C492 1.337 1_545 S
C496 C495 1.523 . S
H497 C472 0.950 . S
H498 C474 0.950 . S
H499 C475 0.949 . S
H500 C477 0.950 . S
H501 C479 0.950 . S
C502 C503 1.349 . S
C502 C504 1.327 . S
C502 H527 0.950 . S
C503 C502 1.349 . S
C503 C519 1.349 . S
C504 C502 1.327 . S
C504 C523 1.429 . S
C504 H528 0.950 . S
C505 C522 1.574 . S
C505 C524 1.368 . S
C505 H529 0.949 . S
H506 C510 0.949 . S
C507 C508 1.349 . S
C507 C509 1.327 . S
C507 H530 0.950 . S
C508 C507 1.349 . S
C508 C520 1.349 . S
C509 C507 1.327 . S
C509 C525 1.429 . S
C509 H531 0.950 . S
C510 H506 0.949 . S
C510 C518 1.574 . S
C510 C526 1.368 . S
H511 C519 0.950 . S
H512 C517 0.950 . S
H513 C518 0.949 . S
H514 C520 0.950 . S
H515 C521 0.950 . S
H516 C522 0.949 . S
C517 H512 0.950 . S
C517 C519 1.327 . S
C517 C523 1.429 . S
C518 C510 1.574 . S
C518 H513 0.949 . S
C518 C524 1.368 . S
C519 C503 1.349 . S
C519 H511 0.950 . S
C519 C517 1.327 . S
C520 C508 1.349 . S
C520 H514 0.950 . S
C520 C521 1.327 . S
C521 H515 0.950 . S
C521 C520 1.327 . S
C521 C525 1.429 . S
C522 C505 1.574 . S
C522 H516 0.949 . S
C522 C526 1.368 . S
C523 C504 1.429 . S
C523 C517 1.429 . S
C523 C524 1.523 . S
C524 C505 1.368 . S
C524 C518 1.368 . S
C524 C523 1.523 . S
C525 C509 1.429 . S
C525 C521 1.429 . S
C525 C526 1.523 . S
C526 C510 1.368 . S
C526 C522 1.368 . S
C526 C525 1.523 . S
H527 C502 0.950 . S
H528 C504 0.950 . S
H529 C505 0.949 . S
H530 C507 0.950 . S
H531 C509 0.950 . S
C532 C533 1.349 . S
C532 C534 1.327 . S
C532 H557 0.950 . S
C533 C532 1.349 . S
C533 C549 1.349 . S
C534 C532 1.327 . S
C534 C553 1.429 . S
C534 H558 0.950 . S
C535 C552 1.574 . S
C535 C554 1.368 . S
C535 H559 0.949 . S
H536 C540 0.949 . S
C537 C538 1.349 . S
C537 C539 1.327 . S
C537 H560 0.950 . S
C538 C537 1.349 . S
C538 C550 1.349 . S
C539 C537 1.327 . S
C539 C555 1.429 . S
C539 H561 0.950 . S
C540 H536 0.949 . S
C540 C548 1.574 . S
C540 C556 1.368 . S
H541 C549 0.950 . S
H542 C547 0.950 . S
H543 C548 0.949 . S
H544 C550 0.950 . S
H545 C551 0.950 . S
H546 C552 0.949 . S
C547 H542 0.950 . S
C547 C549 1.327 . S
C547 C553 1.429 . S
C548 C540 1.574 . S
C548 H543 0.949 . S
C548 C554 1.368 . S
C549 C533 1.349 . S
C549 H541 0.950 . S
C549 C547 1.327 . S
C550 C538 1.349 . S
C550 H544 0.950 . S
C550 C551 1.327 . S
C551 H545 0.950 . S
C551 C550 1.327 . S
C551 C555 1.429 . S
C552 C535 1.574 . S
C552 H546 0.949 . S
C552 C556 1.368 . S
C553 C534 1.429 . S
C553 C547 1.429 . S
C553 C554 1.523 . S
C554 C535 1.368 . S
C554 C548 1.368 . S
C554 C553 1.523 . S
C555 C539 1.429 . S
C555 C551 1.429 . S
C555 C556 1.523 . S
C556 C540 1.368 . S
C556 C552 1.368 . S
C556 C555 1.523 . S
H557 C532 0.950 . S
H558 C534 0.950 . S
H559 C535 0.949 . S
H560 C537 0.950 . S
H561 C539 0.950 . S
C562 C563 1.349 1_655 S
C562 C564 1.327 . S
C562 H587 0.950 . S
C563 C562 1.349 1_455 S
C563 C579 1.349 . S
C564 C562 1.327 . S
C564 C583 1.429 1_655 S
C564 H588 0.950 . S
C565 C582 1.574 . S
C565 C584 1.368 . S
C565 H589 0.949 . S
H566 C570 0.949 . S
C567 C568 1.349 . S
C567 C569 1.327 . S
C567 H590 0.950 . S
C568 C567 1.349 . S
C568 C580 1.349 1_455 S
C569 C567 1.327 . S
C569 C585 1.429 . S
C569 H591 0.950 . S
C570 H566 0.949 . S
C570 C578 1.574 . S
C570 C586 1.368 1_655 S
H571 C579 0.950 . S
H572 C577 0.950 . S
H573 C578 0.949 . S
H574 C580 0.950 . S
H575 C581 0.950 . S
H576 C582 0.949 . S
C577 H572 0.950 . S
C577 C579 1.327 . S
C577 C583 1.429 . S
C578 C570 1.574 . S
C578 H573 0.949 . S
C578 C584 1.368 1_655 S
C579 C563 1.349 . S
C579 H571 0.950 . S
C579 C577 1.327 . S
C580 C568 1.349 1_655 S
C580 H574 0.950 . S
C580 C581 1.327 . S
C581 H575 0.950 . S
C581 C580 1.327 . S
C581 C585 1.429 1_655 S
C582 C565 1.574 . S
C582 H576 0.949 . S
C582 C586 1.368 . S
C583 C564 1.429 1_455 S
C583 C577 1.429 . S
C583 C584 1.523 . S
C584 C565 1.368 . S
C584 C578 1.368 1_455 S
C584 C583 1.523 . S
C585 C569 1.429 . S
C585 C581 1.429 1_455 S
C585 C586 1.523 . S
C586 C570 1.368 1_455 S
C586 C582 1.368 . S
C586 C585 1.523 . S
H587 C562 0.950 . S
H588 C564 0.950 . S
H589 C565 0.949 . S
H590 C567 0.950 . S
H591 C569 0.950 . S
C592 C593 1.354 1_565 S
C592 C594 1.327 . S
C592 H617 0.950 . S
C593 C592 1.354 1_545 S
C593 C609 1.344 . S
C594 C592 1.327 . S
C594 C613 1.433 . S
C594 H618 0.950 . S
C595 C612 1.574 1_554 S
C595 C614 1.358 1_545 S
C595 H619 0.949 . S
H596 C600 0.949 . S
C597 C598 1.314 1_545 S
C597 C599 1.327 . S
C597 H620 0.950 . S
C598 C597 1.314 1_565 S
C598 C610 1.385 . S
C599 C597 1.327 . S
C599 C615 1.405 1_545 S
C599 H621 0.950 . S
C600 H596 0.949 . S
C600 C608 1.574 . S
C600 C616 1.389 . S
H601 C609 0.950 . S
H602 C607 0.950 . S
H603 C608 0.948 1_554 S
H604 C610 0.950 . S
H605 C611 0.950 . S
H606 C612 0.949 . S
C607 H602 0.950 . S
C607 C609 1.327 . S
C607 C613 1.424 1_545 S
C608 C600 1.574 . S
C608 H603 0.948 1_556 S
C608 C614 1.379 1_556 S
C609 C593 1.344 . S
C609 H601 0.950 . S
C609 C607 1.327 . S
C610 C598 1.385 . S
C610 H604 0.950 . S
C610 C611 1.327 . S
C611 H605 0.950 . S
C611 C610 1.327 . S
C611 C615 1.453 . S
C612 C595 1.574 1_556 S
C612 H606 0.949 . S
C612 C616 1.348 1_545 S
C613 C594 1.433 . S
C613 C607 1.424 1_565 S
C613 C614 1.523 . S
C614 C595 1.358 1_565 S
C614 C608 1.379 1_554 S
C614 C613 1.523 . S
C615 C599 1.405 1_565 S
C615 C611 1.453 . S
C615 C616 1.523 . S
C616 C600 1.389 . S
C616 C612 1.348 1_565 S
C616 C615 1.523 . S
H617 C592 0.950 . S
H618 C594 0.950 . S
H619 C595 0.949 . S
H620 C597 0.950 . S
H621 C599 0.950 . S
C622 C623 1.349 . S
C622 C624 1.327 . S
C622 H647 0.950 . S
C623 C622 1.349 . S
C623 C639 1.349 . S
C624 C622 1.327 . S
C624 C643 1.429 . S
C624 H648 0.950 . S
C625 C642 1.574 1_554 S
C625 C644 1.368 . S
C625 H649 0.949 . S
H626 C630 0.949 . S
C627 C628 1.349 . S
C627 C629 1.327 . S
C627 H650 0.950 . S
C628 C627 1.349 . S
C628 C640 1.349 . S
C629 C627 1.327 . S
C629 C645 1.429 . S
C629 H651 0.950 . S
C630 H626 0.949 . S
C630 C638 1.574 . S
C630 C646 1.368 . S
H631 C639 0.950 . S
H632 C637 0.950 . S
H633 C638 0.949 . S
H634 C640 0.950 . S
H635 C641 0.950 . S
H636 C642 0.949 . S
C637 H632 0.950 . S
C637 C639 1.327 . S
C637 C643 1.429 . S
C638 C630 1.574 . S
C638 H633 0.949 . S
C638 C644 1.368 1_556 S
C639 C623 1.349 . S
C639 H631 0.950 . S
C639 C637 1.327 . S
C640 C628 1.349 . S
C640 H634 0.950 . S
C640 C641 1.327 . S
C641 H635 0.950 . S
C641 C640 1.327 . S
C641 C645 1.429 . S
C642 C625 1.574 1_556 S
C642 H636 0.949 . S
C642 C646 1.368 . S
C643 C624 1.429 . S
C643 C637 1.429 . S
C643 C644 1.523 . S
C644 C625 1.368 . S
C644 C638 1.368 1_554 S
C644 C643 1.523 . S
C645 C629 1.429 . S
C645 C641 1.429 . S
C645 C646 1.523 . S
C646 C630 1.368 . S
C646 C642 1.368 . S
C646 C645 1.523 . S
H647 C622 0.950 . S
H648 C624 0.950 . S
H649 C625 0.949 . S
H650 C627 0.950 . S
H651 C629 0.950 . S
C652 C653 1.349 . S
C652 C654 1.327 . S
C652 H677 0.950 . S
C653 C652 1.349 . S
C653 C669 1.349 . S
C654 C652 1.327 . S
C654 C673 1.429 . S
C654 H678 0.950 . S
C655 C672 1.574 1_554 S
C655 C674 1.368 . S
C655 H679 0.949 . S
H656 C660 0.949 . S
C657 C658 1.349 . S
C657 C659 1.327 . S
C657 H680 0.950 . S
C658 C657 1.349 . S
C658 C670 1.349 . S
C659 C657 1.327 . S
C659 C675 1.429 . S
C659 H681 0.950 . S
C660 H656 0.949 . S
C660 C668 1.574 . S
C660 C676 1.368 . S
H661 C669 0.950 . S
H662 C667 0.950 . S
H663 C668 0.947 1_554 S
H664 C670 0.950 . S
H665 C671 0.950 . S
H666 C672 0.949 . S
C667 H662 0.950 . S
C667 C669 1.327 . S
C667 C673 1.429 . S
C668 C660 1.574 . S
C668 H663 0.947 1_556 S
C668 C674 1.368 1_556 S
C669 C653 1.349 . S
C669 H661 0.950 . S
C669 C667 1.327 . S
C670 C658 1.349 . S
C670 H664 0.950 . S
C670 C671 1.327 . S
C671 H665 0.950 . S
C671 C670 1.327 . S
C671 C675 1.429 . S
C672 C655 1.574 1_556 S
C672 H666 0.949 . S
C672 C676 1.368 . S
C673 C654 1.429 . S
C673 C667 1.429 . S
C673 C674 1.523 . S
C674 C655 1.368 . S
C674 C668 1.368 1_554 S
C674 C673 1.523 . S
C675 C659 1.429 . S
C675 C671 1.429 . S
C675 C676 1.523 . S
C676 C660 1.368 . S
C676 C672 1.368 . S
C676 C675 1.523 . S
H677 C652 0.950 . S
H678 C654 0.950 . S
H679 C655 0.949 . S
H680 C657 0.950 . S
H681 C659 0.950 . S
C682 C683 1.349 1_455 S
C682 C684 1.327 . S
C682 H707 0.950 . S
C683 C682 1.349 1_655 S
C683 C699 1.349 . S
C684 C682 1.327 . S
C684 C703 1.429 1_455 S
C684 H708 0.950 . S
C685 C702 1.574 1_554 S
C685 C704 1.368 . S
C685 H709 0.949 . S
H686 C690 0.949 . S
C687 C688 1.349 . S
C687 C689 1.327 . S
C687 H710 0.950 . S
C688 C687 1.349 . S
C688 C700 1.349 1_655 S
C689 C687 1.327 . S
C689 C705 1.429 . S
C689 H711 0.950 . S
C690 H686 0.949 . S
C690 C698 1.574 . S
C690 C706 1.368 1_455 S
H691 C699 0.950 . S
H692 C697 0.950 . S
H693 C698 0.949 . S
H694 C700 0.950 . S
H695 C701 0.950 . S
H696 C702 0.949 . S
C697 H692 0.950 . S
C697 C699 1.327 . S
C697 C703 1.429 . S
C698 C690 1.574 . S
C698 H693 0.949 . S
C698 C704 1.368 1_456 S
C699 C683 1.349 . S
C699 H691 0.950 . S
C699 C697 1.327 . S
C700 C688 1.349 1_455 S
C700 H694 0.950 . S
C700 C701 1.327 . S
C701 H695 0.950 . S
C701 C700 1.327 . S
C701 C705 1.429 1_455 S
C702 C685 1.574 1_556 S
C702 H696 0.949 . S
C702 C706 1.368 . S
C703 C684 1.429 1_655 S
C703 C697 1.429 . S
C703 C704 1.523 . S
C704 C685 1.368 . S
C704 C698 1.368 1_654 S
C704 C703 1.523 . S
C705 C689 1.429 . S
C705 C701 1.429 1_655 S
C705 C706 1.523 . S
C706 C690 1.368 1_655 S
C706 C702 1.368 . S
C706 C705 1.523 . S
H707 C682 0.950 . S
H708 C684 0.950 . S
H709 C685 0.949 . S
H710 C687 0.950 . S
H711 C689 0.950 . S
C712 C713 1.349 1_655 S
C712 C714 1.327 . S
C712 H737 0.950 . S
C713 C712 1.349 1_455 S
C713 C729 1.349 . S
C714 C712 1.327 . S
C714 C733 1.429 . S
C714 H738 0.950 . S
C715 C732 1.574 . S
C715 C734 1.368 . S
C715 H739 0.949 1_655 S
H716 C720 0.949 . S
C717 C718 1.349 . S
C717 C719 1.327 . S
C717 H740 0.950 . S
C718 C717 1.349 . S
C718 C730 1.349 . S
C719 C717 1.327 . S
C719 C735 1.429 . S
C719 H741 0.950 . S
C720 H716 0.949 . S
C720 C728 1.574 . S
C720 C736 1.368 . S
H721 C729 0.950 . S
H722 C727 0.950 . S
H723 C728 0.949 . S
H724 C730 0.950 . S
H725 C731 0.950 . S
H726 C732 0.949 . S
C727 H722 0.950 . S
C727 C729 1.327 . S
C727 C733 1.429 1_455 S
C728 C720 1.574 . S
C728 H723 0.949 . S
C728 C734 1.368 . S
C729 C713 1.349 . S
C729 H721 0.950 . S
C729 C727 1.327 . S
C730 C718 1.349 . S
C730 H724 0.950 . S
C730 C731 1.327 . S
C731 H725 0.950 . S
C731 C730 1.327 . S
C731 C735 1.429 . S
C732 C715 1.574 . S
C732 H726 0.949 . S
C732 C736 1.368 . S
C733 C714 1.429 . S
C733 C727 1.429 1_655 S
C733 C734 1.523 . S
C734 C715 1.368 . S
C734 C728 1.368 . S
C734 C733 1.523 . S
C735 C719 1.429 . S
C735 C731 1.429 . S
C735 C736 1.523 . S
C736 C720 1.368 . S
C736 C732 1.368 . S
C736 C735 1.523 . S
H737 C712 0.950 . S
H738 C714 0.950 . S
H739 C715 0.949 1_455 S
H740 C717 0.950 . S
H741 C719 0.950 . S
C742 C743 1.342 1_565 S
C742 C744 1.339 . S
C742 H767 0.949 . S
C743 C742 1.342 1_545 S
C743 C759 1.354 . S
C744 C742 1.339 . S
C744 C763 1.429 . S
C744 H768 0.950 . S
C745 C762 1.574 . S
C745 C764 1.368 . S
C745 H769 0.949 . S
H746 C750 0.949 . S
C747 C748 1.349 . S
C747 C749 1.327 . S
C747 H770 0.950 . S
C748 C747 1.349 . S
C748 C760 1.349 . S
C749 C747 1.327 . S
C749 C765 1.429 . S
C749 H771 0.950 . S
C750 H746 0.949 . S
C750 C758 1.574 . S
C750 C766 1.368 . S
H751 C759 0.962 . S
H752 C757 0.950 . S
H753 C758 0.949 . S
H754 C760 0.950 . S
H755 C761 0.950 . S
H756 C762 0.949 . S
C757 H752 0.950 . S
C757 C759 1.316 1_565 S
C757 C763 1.429 . S
C758 C750 1.574 . S
C758 H753 0.949 . S
C758 C764 1.368 . S
C759 C743 1.354 . S
C759 H751 0.962 . S
C759 C757 1.316 1_545 S
C760 C748 1.349 . S
C760 H754 0.950 . S
C760 C761 1.327 . S
C761 H755 0.950 . S
C761 C760 1.327 . S
C761 C765 1.429 . S
C762 C745 1.574 . S
C762 H756 0.949 . S
C762 C766 1.368 . S
C763 C744 1.429 . S
C763 C757 1.429 . S
C763 C764 1.523 . S
C764 C745 1.368 . S
C764 C758 1.368 . S
C764 C763 1.523 . S
C765 C749 1.429 . S
C765 C761 1.429 . S
C765 C766 1.523 . S
C766 C750 1.368 . S
C766 C762 1.368 . S
C766 C765 1.523 . S
H767 C742 0.949 . S
H768 C744 0.950 . S
H769 C745 0.949 . S
H770 C747 0.950 . S
H771 C749 0.950 . S
C772 C773 1.349 . S
C772 C774 1.327 . S
C772 H797 0.950 . S
C773 C772 1.349 . S
C773 C789 1.349 . S
C774 C772 1.327 . S
C774 C793 1.429 . S
C774 H798 0.950 . S
C775 C792 1.574 . S
C775 C794 1.368 . S
C775 H799 0.949 . S
H776 C780 0.949 . S
C777 C778 1.349 . S
C777 C779 1.327 . S
C777 H800 0.950 . S
C778 C777 1.349 . S
C778 C790 1.349 . S
C779 C777 1.327 . S
C779 C795 1.429 . S
C779 H801 0.950 . S
C780 H776 0.949 . S
C780 C788 1.574 . S
C780 C796 1.368 . S
H781 C789 0.950 . S
H782 C787 0.950 . S
H783 C788 0.949 . S
H784 C790 0.950 . S
H785 C791 0.950 . S
H786 C792 0.949 . S
C787 H782 0.950 . S
C787 C789 1.327 . S
C787 C793 1.429 . S
C788 C780 1.574 . S
C788 H783 0.949 . S
C788 C794 1.368 . S
C789 C773 1.349 . S
C789 H781 0.950 . S
C789 C787 1.327 . S
C790 C778 1.349 . S
C790 H784 0.950 . S
C790 C791 1.327 . S
C791 H785 0.950 . S
C791 C790 1.327 . S
C791 C795 1.429 . S
C792 C775 1.574 . S
C792 H786 0.949 . S
C792 C796 1.368 . S
C793 C774 1.429 . S
C793 C787 1.429 . S
C793 C794 1.523 . S
C794 C775 1.368 . S
C794 C788 1.368 . S
C794 C793 1.523 . S
C795 C779 1.429 . S
C795 C791 1.429 . S
C795 C796 1.523 . S
C796 C780 1.368 . S
C796 C792 1.368 . S
C796 C795 1.523 . S
H797 C772 0.950 . S
H798 C774 0.950 . S
H799 C775 0.949 . S
H800 C777 0.950 . S
H801 C779 0.950 . S
C802 C803 1.349 . S
C802 C804 1.327 . S
C802 H827 0.950 . S
C803 C802 1.349 . S
C803 C819 1.349 . S
C804 C802 1.327 . S
C804 C823 1.429 . S
C804 H828 0.950 . S
C805 C822 1.574 . S
C805 C824 1.368 . S
C805 H829 0.949 . S
H806 C810 0.949 . S
C807 C808 1.349 . S
C807 C809 1.327 . S
C807 H830 0.950 . S
C808 C807 1.349 . S
C808 C820 1.349 . S
C809 C807 1.327 . S
C809 C825 1.429 . S
C809 H831 0.950 . S
C810 H806 0.949 . S
C810 C818 1.574 . S
C810 C826 1.368 . S
H811 C819 0.950 . S
H812 C817 0.950 . S
H813 C818 0.949 . S
H814 C820 0.950 . S
H815 C821 0.950 . S
H816 C822 0.949 . S
C817 H812 0.950 . S
C817 C819 1.327 . S
C817 C823 1.429 . S
C818 C810 1.574 . S
C818 H813 0.949 . S
C818 C824 1.368 . S
C819 C803 1.349 . S
C819 H811 0.950 . S
C819 C817 1.327 . S
C820 C808 1.349 . S
C820 H814 0.950 . S
C820 C821 1.327 . S
C821 H815 0.950 . S
C821 C820 1.327 . S
C821 C825 1.429 . S
C822 C805 1.574 . S
C822 H816 0.949 . S
C822 C826 1.368 . S
C823 C804 1.429 . S
C823 C817 1.429 . S
C823 C824 1.523 . S
C824 C805 1.368 . S
C824 C818 1.368 . S
C824 C823 1.523 . S
C825 C809 1.429 . S
C825 C821 1.429 . S
C825 C826 1.523 . S
C826 C810 1.368 . S
C826 C822 1.368 . S
C826 C825 1.523 . S
H827 C802 0.950 . S
H828 C804 0.950 . S
H829 C805 0.949 . S
H830 C807 0.950 . S
H831 C809 0.950 . S
C832 C833 1.349 1_455 S
C832 C834 1.327 . S
C832 H857 0.950 . S
C833 C832 1.349 1_655 S
C833 C849 1.349 . S
C834 C832 1.327 . S
C834 C853 1.429 . S
C834 H858 0.950 . S
C835 C852 1.574 1_655 S
C835 C854 1.368 1_656 S
C835 H859 0.949 . S
H836 C840 0.949 . S
C837 C838 1.349 . S
C837 C839 1.327 . S
C837 H860 0.950 . S
C838 C837 1.349 . S
C838 C850 1.349 . S
C839 C837 1.327 . S
C839 C855 1.429 . S
C839 H861 0.950 . S
C840 H836 0.949 . S
C840 C848 1.574 . S
C840 C856 1.368 1_554 S
H841 C849 0.950 . S
H842 C847 0.950 1_556 S
H843 C848 0.949 . S
H844 C850 0.950 . S
H845 C851 0.950 . S
H846 C852 0.949 1_655 S
C847 H842 0.950 1_554 S
C847 C849 1.327 . S
C847 C853 1.429 1_655 S
C848 C840 1.574 . S
C848 H843 0.949 . S
C848 C854 1.368 . S
C849 C833 1.349 . S
C849 H841 0.950 . S
C849 C847 1.327 . S
C850 C838 1.349 . S
C850 H844 0.950 . S
C850 C851 1.327 . S
C851 H845 0.950 . S
C851 C850 1.327 . S
C851 C855 1.429 . S
C852 C835 1.574 1_455 S
C852 H846 0.949 1_455 S
C852 C856 1.368 . S
C853 C834 1.429 . S
C853 C847 1.429 1_455 S
C853 C854 1.523 . S
C854 C835 1.368 1_454 S
C854 C848 1.368 . S
C854 C853 1.523 . S
C855 C839 1.429 . S
C855 C851 1.429 . S
C855 C856 1.523 . S
C856 C840 1.368 1_556 S
C856 C852 1.368 . S
C856 C855 1.523 . S
H857 C832 0.950 . S
H858 C834 0.950 . S
H859 C835 0.949 . S
H860 C837 0.950 . S
H861 C839 0.950 . S
C862 C863 1.349 . S
C862 C864 1.327 . S
C862 H887 0.950 . S
C863 C862 1.349 . S
C863 C879 1.349 1_565 S
C864 C862 1.327 . S
C864 C883 1.429 1_565 S
C864 H888 0.950 1_554 S
C865 C882 1.574 1_554 S
C865 C884 1.368 . S
C865 H889 0.949 . S
H866 C870 0.949 1_565 S
C867 C868 1.349 . S
C867 C869 1.327 . S
C867 H890 0.950 . S
C868 C867 1.349 . S
C868 C880 1.349 . S
C869 C867 1.327 . S
C869 C885 1.429 . S
C869 H891 0.950 . S
C870 H866 0.949 1_545 S
C870 C878 1.574 1_545 S
C870 C886 1.368 . S
H871 C879 0.950 . S
H872 C877 0.950 . S
H873 C878 0.949 . S
H874 C880 0.950 . S
H875 C881 0.900 1_565 S
H876 C882 0.949 1_554 S
C877 H872 0.950 . S
C877 C879 1.327 . S
C877 C883 1.429 . S
C878 C870 1.574 1_565 S
C878 H873 0.949 . S
C878 C884 1.368 1_566 S
C879 C863 1.349 1_545 S
C879 H871 0.950 . S
C879 C877 1.327 . S
C880 C868 1.349 . S
C880 H874 0.950 . S
C880 C881 1.327 . S
C881 H875 0.900 1_545 S
C881 C880 1.327 . S
C881 C885 1.429 . S
C882 C865 1.574 1_556 S
C882 H876 0.949 1_556 S
C882 C886 1.368 . S
C883 C864 1.429 1_545 S
C883 C877 1.429 . S
C883 C884 1.523 . S
C884 C865 1.368 . S
C884 C878 1.368 1_544 S
C884 C883 1.523 . S
C885 C869 1.429 . S
C885 C881 1.429 . S
C885 C886 1.523 . S
C886 C870 1.368 . S
C886 C882 1.368 . S
C886 C885 1.523 . S
H887 C862 0.950 . S
H888 C864 0.950 1_556 S
H889 C865 0.949 . S
H890 C867 0.950 . S
H891 C869 0.950 . S
C892 C893 1.349 . S
C892 C894 1.327 . S
C892 H917 0.950 . S
C893 C892 1.349 . S
C893 C909 1.349 . S
C894 C892 1.327 . S
C894 C913 1.429 . S
C894 H918 0.950 . S
C895 C912 1.574 . S
C895 C914 1.368 1_556 S
C895 H919 0.949 . S
H896 C900 0.949 . S
C897 C898 1.349 . S
C897 C899 1.327 . S
C897 H920 0.950 . S
C898 C897 1.349 . S
C898 C910 1.349 . S
C899 C897 1.327 . S
C899 C915 1.429 . S
C899 H921 0.950 . S
C900 H896 0.949 . S
C900 C908 1.574 . S
C900 C916 1.368 1_554 S
H901 C909 0.950 . S
H902 C907 0.950 1_556 S
H903 C908 0.949 . S
H904 C910 0.950 . S
H905 C911 0.950 . S
H906 C912 0.949 . S
C907 H902 0.950 1_554 S
C907 C909 1.327 . S
C907 C913 1.429 . S
C908 C900 1.574 . S
C908 H903 0.949 . S
C908 C914 1.368 . S
C909 C893 1.349 . S
C909 H901 0.950 . S
C909 C907 1.327 . S
C910 C898 1.349 . S
C910 H904 0.950 . S
C910 C911 1.327 . S
C911 H905 0.950 . S
C911 C910 1.327 . S
C911 C915 1.429 . S
C912 C895 1.574 . S
C912 H906 0.949 . S
C912 C916 1.368 . S
C913 C894 1.429 . S
C913 C907 1.429 . S
C913 C914 1.523 . S
C914 C895 1.368 1_554 S
C914 C908 1.368 . S
C914 C913 1.523 . S
C915 C899 1.429 . S
C915 C911 1.429 . S
C915 C916 1.523 . S
C916 C900 1.368 1_556 S
C916 C912 1.368 . S
C916 C915 1.523 . S
H917 C892 0.950 . S
H918 C894 0.950 . S
H919 C895 0.949 . S
H920 C897 0.950 . S
H921 C899 0.950 . S
C922 C923 1.349 . S
C922 C924 1.327 . S
C922 H947 0.950 . S
C923 C922 1.349 . S
C923 C939 1.349 . S
C924 C922 1.327 . S
C924 C943 1.429 . S
C924 H948 0.950 . S
C925 C942 1.574 . S
C925 C944 1.368 1_556 S
C925 H949 0.949 . S
H926 C930 0.949 . S
C927 C928 1.349 . S
C927 C929 1.327 . S
C927 H950 0.950 . S
C928 C927 1.349 . S
C928 C940 1.349 . S
C929 C927 1.327 . S
C929 C945 1.429 . S
C929 H951 0.950 . S
C930 H926 0.949 . S
C930 C938 1.574 1_556 S
C930 C946 1.368 . S
H931 C939 0.950 . S
H932 C937 0.950 . S
H933 C938 0.949 . S
H934 C940 0.950 . S
H935 C941 0.950 . S
H936 C942 0.949 . S
C937 H932 0.950 . S
C937 C939 1.327 . S
C937 C943 1.429 . S
C938 C930 1.574 1_554 S
C938 H933 0.949 . S
C938 C944 1.368 . S
C939 C923 1.349 . S
C939 H931 0.950 . S
C939 C937 1.327 . S
C940 C928 1.349 . S
C940 H934 0.950 . S
C940 C941 1.327 . S
C941 H935 0.950 . S
C941 C940 1.327 . S
C941 C945 1.429 . S
C942 C925 1.574 . S
C942 H936 0.949 . S
C942 C946 1.368 . S
C943 C924 1.429 . S
C943 C937 1.429 . S
C943 C944 1.523 . S
C944 C925 1.368 1_554 S
C944 C938 1.368 . S
C944 C943 1.523 . S
C945 C929 1.429 . S
C945 C941 1.429 . S
C945 C946 1.523 . S
C946 C930 1.368 . S
C946 C942 1.368 . S
C946 C945 1.523 . S
H947 C922 0.950 . S
H948 C924 0.950 . S
H949 C925 0.949 . S
H950 C927 0.950 . S
H951 C929 0.950 . S
C952 C953 1.349 . S
C952 C954 1.327 . S
C952 H977 0.950 . S
C953 C952 1.349 . S
C953 C969 1.349 1_455 S
C954 C952 1.327 . S
C954 C973 1.429 . S
C954 H978 0.950 . S
C955 C972 1.574 . S
C955 C974 1.368 1_655 S
C955 H979 0.949 . S
H956 C960 0.949 . S
C957 C958 1.345 . S
C957 C959 1.326 1_455 S
C957 H980 0.953 1_455 S
C958 C957 1.345 . S
C958 C970 1.349 . S
C959 C957 1.326 1_655 S
C959 C975 1.405 1_655 S
C959 H981 0.978 . S
C960 H956 0.949 . S
C960 C968 1.574 . S
C960 C976 1.368 . S
H961 C969 0.950 . S
H962 C967 0.950 . S
H963 C968 0.949 . S
H964 C970 0.950 . S
H965 C971 0.950 . S
H966 C972 0.949 . S
C967 H962 0.950 . S
C967 C969 1.327 . S
C967 C973 1.429 1_655 S
C968 C960 1.574 . S
C968 H963 0.949 . S
C968 C974 1.368 . S
C969 C953 1.349 1_655 S
C969 H961 0.950 . S
C969 C967 1.327 . S
C970 C958 1.349 . S
C970 H964 0.950 . S
C970 C971 1.327 . S
C971 H965 0.950 . S
C971 C970 1.327 . S
C971 C975 1.429 . S
C972 C955 1.574 . S
C972 H966 0.949 . S
C972 C976 1.368 1_655 S
C973 C954 1.429 . S
C973 C967 1.429 1_455 S
C973 C974 1.523 . S
C974 C955 1.368 1_455 S
C974 C968 1.368 . S
C974 C973 1.523 . S
C975 C959 1.405 1_455 S
C975 C971 1.429 . S
C975 C976 1.523 . S
C976 C960 1.368 . S
C976 C972 1.368 1_455 S
C976 C975 1.523 . S
H977 C952 0.950 . S
H978 C954 0.950 . S
H979 C955 0.949 . S
H980 C957 0.953 1_655 S
H981 C959 0.978 . S
C982 C983 1.349 1_565 S
C982 C984 1.327 . S
C982 H1007 0.950 . S
C983 C982 1.349 1_545 S
C983 C999 1.349 . S
C984 C982 1.327 . S
C984 C1003 1.429 1_565 S
C984 H1008 0.950 . S
C985 C1002 1.574 . S
C985 C1004 1.368 . S
C985 H1009 0.949 . S
H986 C990 0.949 . S
C987 C988 1.349 . S
C987 C989 1.327 . S
C987 H1010 0.950 . S
C988 C987 1.349 . S
C988 C1000 1.320 1_545 S
C989 C987 1.327 . S
C989 C1005 1.429 . S
C989 H1011 0.950 . S
C990 H986 0.949 . S
C990 C998 1.574 . S
C990 C1006 1.368 1_565 S
H991 C999 0.950 . S
H992 C997 0.950 . S
H993 C998 0.949 . S
H994 C1000 0.978 . S
H995 C1001 0.950 . S
H996 C1002 0.949 . S
C997 H992 0.950 . S
C997 C999 1.327 . S
C997 C1003 1.429 . S
C998 C990 1.574 . S
C998 H993 0.949 . S
C998 C1004 1.368 1_565 S
C999 C983 1.349 . S
C999 H991 0.950 . S
C999 C997 1.327 . S
C1000 C988 1.320 1_565 S
C1000 H994 0.978 . S
C1000 C1001 1.332 . S
C1001 H995 0.950 . S
C1001 C1000 1.332 . S
C1001 C1005 1.429 1_565 S
C1002 C985 1.574 . S
C1002 H996 0.949 . S
C1002 C1006 1.368 . S
C1003 C984 1.429 1_545 S
C1003 C997 1.429 . S
C1003 C1004 1.523 . S
C1004 C985 1.368 . S
C1004 C998 1.368 1_545 S
C1004 C1003 1.523 . S
C1005 C989 1.429 . S
C1005 C1001 1.429 1_545 S
C1005 C1006 1.523 . S
C1006 C990 1.368 1_545 S
C1006 C1002 1.368 . S
C1006 C1005 1.523 . S
H1007 C982 0.950 . S
H1008 C984 0.950 . S
H1009 C985 0.949 . S
H1010 C987 0.950 . S
H1011 C989 0.950 . S
C1012 C1013 1.349 . S
C1012 C1014 1.327 . S
C1012 H1037 0.950 . S
C1013 C1012 1.349 . S
C1013 C1029 1.349 . S
C1014 C1012 1.327 . S
C1014 C1033 1.429 . S
C1014 H1038 0.950 . S
C1015 C1032 1.574 . S
C1015 C1034 1.368 . S
C1015 H1039 0.949 . S
H1016 C1020 0.949 . S
C1017 C1018 1.349 . S
C1017 C1019 1.327 . S
C1017 H1040 0.950 . S
C1018 C1017 1.349 . S
C1018 C1030 1.349 . S
C1019 C1017 1.327 . S
C1019 C1035 1.429 . S
C1019 H1041 0.950 . S
C1020 H1016 0.949 . S
C1020 C1028 1.574 . S
C1020 C1036 1.368 . S
H1021 C1029 0.950 . S
H1022 C1027 0.950 . S
H1023 C1028 0.949 . S
H1024 C1030 0.950 . S
H1025 C1031 0.950 . S
H1026 C1032 0.949 . S
C1027 H1022 0.950 . S
C1027 C1029 1.327 . S
C1027 C1033 1.429 . S
C1028 C1020 1.574 . S
C1028 H1023 0.949 . S
C1028 C1034 1.368 . S
C1029 C1013 1.349 . S
C1029 H1021 0.950 . S
C1029 C1027 1.327 . S
C1030 C1018 1.349 . S
C1030 H1024 0.950 . S
C1030 C1031 1.327 . S
C1031 H1025 0.950 . S
C1031 C1030 1.327 . S
C1031 C1035 1.429 . S
C1032 C1015 1.574 . S
C1032 H1026 0.949 . S
C1032 C1036 1.368 . S
C1033 C1014 1.429 . S
C1033 C1027 1.429 . S
C1033 C1034 1.523 . S
C1034 C1015 1.368 . S
C1034 C1028 1.368 . S
C1034 C1033 1.523 . S
C1035 C1019 1.429 . S
C1035 C1031 1.429 . S
C1035 C1036 1.523 . S
C1036 C1020 1.368 . S
C1036 C1032 1.368 . S
C1036 C1035 1.523 . S
H1037 C1012 0.950 . S
H1038 C1014 0.950 . S
H1039 C1015 0.949 . S
H1040 C1017 0.950 . S
H1041 C1019 0.950 . S
C1042 C1043 1.349 . S
C1042 C1044 1.327 . S
C1042 H1067 0.950 . S
C1043 C1042 1.349 . S
C1043 C1059 1.349 . S
C1044 C1042 1.327 . S
C1044 C1063 1.429 . S
C1044 H1068 0.950 . S
C1045 C1062 1.574 . S
C1045 C1064 1.368 . S
C1045 H1069 0.949 . S
H1046 C1050 0.949 . S
C1047 C1048 1.349 . S
C1047 C1049 1.327 . S
C1047 H1070 0.950 . S
C1048 C1047 1.349 . S
C1048 C1060 1.349 . S
C1049 C1047 1.327 . S
C1049 C1065 1.429 . S
C1049 H1071 0.950 . S
C1050 H1046 0.949 . S
C1050 C1058 1.574 . S
C1050 C1066 1.368 . S
H1051 C1059 0.950 . S
H1052 C1057 0.950 . S
H1053 C1058 0.949 . S
H1054 C1060 0.950 . S
H1055 C1061 0.950 . S
H1056 C1062 0.949 . S
C1057 H1052 0.950 . S
C1057 C1059 1.327 . S
C1057 C1063 1.429 . S
C1058 C1050 1.574 . S
C1058 H1053 0.949 . S
C1058 C1064 1.368 . S
C1059 C1043 1.349 . S
C1059 H1051 0.950 . S
C1059 C1057 1.327 . S
C1060 C1048 1.349 . S
C1060 H1054 0.950 . S
C1060 C1061 1.327 . S
C1061 H1055 0.950 . S
C1061 C1060 1.327 . S
C1061 C1065 1.429 . S
C1062 C1045 1.574 . S
C1062 H1056 0.949 . S
C1062 C1066 1.368 . S
C1063 C1044 1.429 . S
C1063 C1057 1.429 . S
C1063 C1064 1.523 . S
C1064 C1045 1.368 . S
C1064 C1058 1.368 . S
C1064 C1063 1.523 . S
C1065 C1049 1.429 . S
C1065 C1061 1.429 . S
C1065 C1066 1.523 . S
C1066 C1050 1.368 . S
C1066 C1062 1.368 . S
C1066 C1065 1.523 . S
H1067 C1042 0.950 . S
H1068 C1044 0.950 . S
H1069 C1045 0.949 . S
H1070 C1047 0.950 . S
H1071 C1049 0.950 . S
C1072 C1073 1.349 . S
C1072 C1074 1.327 . S
C1072 H1097 0.950 . S
C1073 C1072 1.349 . S
C1073 C1089 1.349 1_655 S
C1074 C1072 1.327 . S
C1074 C1093 1.429 . S
C1074 H1098 0.950 . S
C1075 C1092 1.574 . S
C1075 C1094 1.368 1_455 S
C1075 H1099 0.949 . S
H1076 C1080 0.949 . S
C1077 C1078 1.347 . S
C1077 C1079 1.326 1_655 S
C1077 H1100 0.952 1_655 S
C1078 C1077 1.347 . S
C1078 C1090 1.349 . S
C1079 C1077 1.326 1_455 S
C1079 C1095 1.407 1_455 S
C1079 H1101 0.976 . S
C1080 H1076 0.949 . S
C1080 C1088 1.574 . S
C1080 C1096 1.368 . S
H1081 C1089 0.950 . S
H1082 C1087 0.950 . S
H1083 C1088 0.949 . S
H1084 C1090 0.950 . S
H1085 C1091 0.950 . S
H1086 C1092 0.949 . S
C1087 H1082 0.950 . S
C1087 C1089 1.327 . S
C1087 C1093 1.429 1_455 S
C1088 C1080 1.574 . S
C1088 H1083 0.949 . S
C1088 C1094 1.368 . S
C1089 C1073 1.349 1_455 S
C1089 H1081 0.950 . S
C1089 C1087 1.327 . S
C1090 C1078 1.349 . S
C1090 H1084 0.950 . S
C1090 C1091 1.327 . S
C1091 H1085 0.950 . S
C1091 C1090 1.327 . S
C1091 C1095 1.429 . S
C1092 C1075 1.574 . S
C1092 H1086 0.949 . S
C1092 C1096 1.368 1_455 S
C1093 C1074 1.429 . S
C1093 C1087 1.429 1_655 S
C1093 C1094 1.523 . S
C1094 C1075 1.368 1_655 S
C1094 C1088 1.368 . S
C1094 C1093 1.523 . S
C1095 C1079 1.407 1_655 S
C1095 C1091 1.429 . S
C1095 C1096 1.523 . S
C1096 C1080 1.368 . S
C1096 C1092 1.368 1_655 S
C1096 C1095 1.523 . S
H1097 C1072 0.950 . S
H1098 C1074 0.950 . S
H1099 C1075 0.949 . S
H1100 C1077 0.952 1_455 S
H1101 C1079 0.976 . S
C1102 C1103 1.349 . S
C1102 C1104 1.327 . S
C1102 H1127 0.950 . S
C1103 C1102 1.349 . S
C1103 C1119 1.349 1_565 S
C1104 C1102 1.327 . S
C1104 C1123 1.429 . S
C1104 H1128 0.950 . S
C1105 C1122 1.574 . S
C1105 C1124 1.368 1_545 S
C1105 H1129 0.949 . S
H1106 C1110 0.949 . S
C1107 C1108 1.349 1_545 S
C1107 C1109 1.327 . S
C1107 H1130 0.950 . S
C1108 C1107 1.349 1_565 S
C1108 C1120 1.349 . S
C1109 C1107 1.327 . S
C1109 C1125 1.429 1_545 S
C1109 H1131 0.950 . S
C1110 H1106 0.949 . S
C1110 C1118 1.574 . S
C1110 C1126 1.368 . S
H1111 C1119 0.950 . S
H1112 C1117 0.950 . S
H1113 C1118 0.949 . S
H1114 C1120 0.950 . S
H1115 C1121 0.950 . S
H1116 C1122 0.949 . S
C1117 H1112 0.950 . S
C1117 C1119 1.327 . S
C1117 C1123 1.429 1_545 S
C1118 C1110 1.574 . S
C1118 H1113 0.949 . S
C1118 C1124 1.368 . S
C1119 C1103 1.349 1_545 S
C1119 H1111 0.950 . S
C1119 C1117 1.327 . S
C1120 C1108 1.349 . S
C1120 H1114 0.950 . S
C1120 C1121 1.327 . S
C1121 H1115 0.950 . S
C1121 C1120 1.327 . S
C1121 C1125 1.429 . S
C1122 C1105 1.574 . S
C1122 H1116 0.949 . S
C1122 C1126 1.368 1_545 S
C1123 C1104 1.429 . S
C1123 C1117 1.429 1_565 S
C1123 C1124 1.523 . S
C1124 C1105 1.368 1_565 S
C1124 C1118 1.368 . S
C1124 C1123 1.523 . S
C1125 C1109 1.429 1_565 S
C1125 C1121 1.429 . S
C1125 C1126 1.523 . S
C1126 C1110 1.368 . S
C1126 C1122 1.368 1_565 S
C1126 C1125 1.523 . S
H1127 C1102 0.950 . S
H1128 C1104 0.950 . S
H1129 C1105 0.949 . S
H1130 C1107 0.950 . S
H1131 C1109 0.950 . S
C1132 C1133 1.349 . S
C1132 C1134 1.327 . S
C1132 H1157 0.950 . S
C1133 C1132 1.349 . S
C1133 C1149 1.349 . S
C1134 C1132 1.327 . S
C1134 C1153 1.429 . S
C1134 H1158 0.950 . S
C1135 C1152 1.574 . S
C1135 C1154 1.368 . S
C1135 H1159 0.949 . S
H1136 C1140 0.949 . S
C1137 C1138 1.349 . S
C1137 C1139 1.327 . S
C1137 H1160 0.950 . S
C1138 C1137 1.349 . S
C1138 C1150 1.349 . S
C1139 C1137 1.327 . S
C1139 C1155 1.429 . S
C1139 H1161 0.950 . S
C1140 H1136 0.949 . S
C1140 C1148 1.574 . S
C1140 C1156 1.368 . S
H1141 C1149 0.950 . S
H1142 C1147 0.950 . S
H1143 C1148 0.949 . S
H1144 C1150 0.950 . S
H1145 C1151 0.950 . S
H1146 C1152 0.949 . S
C1147 H1142 0.950 . S
C1147 C1149 1.327 . S
C1147 C1153 1.429 . S
C1148 C1140 1.574 . S
C1148 H1143 0.949 . S
C1148 C1154 1.368 . S
C1149 C1133 1.349 . S
C1149 H1141 0.950 . S
C1149 C1147 1.327 . S
C1150 C1138 1.349 . S
C1150 H1144 0.950 . S
C1150 C1151 1.327 . S
C1151 H1145 0.950 . S
C1151 C1150 1.327 . S
C1151 C1155 1.429 . S
C1152 C1135 1.574 . S
C1152 H1146 0.949 . S
C1152 C1156 1.368 . S
C1153 C1134 1.429 . S
C1153 C1147 1.429 . S
C1153 C1154 1.523 . S
C1154 C1135 1.368 . S
C1154 C1148 1.368 . S
C1154 C1153 1.523 . S
C1155 C1139 1.429 . S
C1155 C1151 1.429 . S
C1155 C1156 1.523 . S
C1156 C1140 1.368 . S
C1156 C1152 1.368 . S
C1156 C1155 1.523 . S
H1157 C1132 0.950 . S
H1158 C1134 0.950 . S
H1159 C1135 0.949 . S
H1160 C1137 0.950 . S
H1161 C1139 0.950 . S
C1162 C1163 1.349 . S
C1162 C1164 1.327 . S
C1162 H1187 0.950 . S
C1163 C1162 1.349 . S
C1163 C1179 1.349 . S
C1164 C1162 1.327 . S
C1164 C1183 1.429 . S
C1164 H1188 0.950 . S
C1165 C1182 1.574 . S
C1165 C1184 1.368 . S
C1165 H1189 0.949 . S
H1166 C1170 0.949 . S
C1167 C1168 1.349 . S
C1167 C1169 1.327 . S
C1167 H1190 0.950 . S
C1168 C1167 1.349 . S
C1168 C1180 1.349 . S
C1169 C1167 1.327 . S
C1169 C1185 1.429 . S
C1169 H1191 0.950 . S
C1170 H1166 0.949 . S
C1170 C1178 1.574 . S
C1170 C1186 1.368 . S
H1171 C1179 0.950 . S
H1172 C1177 0.950 . S
H1173 C1178 0.949 . S
H1174 C1180 0.950 . S
H1175 C1181 0.950 . S
H1176 C1182 0.949 . S
C1177 H1172 0.950 . S
C1177 C1179 1.327 . S
C1177 C1183 1.429 . S
C1178 C1170 1.574 . S
C1178 H1173 0.949 . S
C1178 C1184 1.368 . S
C1179 C1163 1.349 . S
C1179 H1171 0.950 . S
C1179 C1177 1.327 . S
C1180 C1168 1.349 . S
C1180 H1174 0.950 . S
C1180 C1181 1.327 . S
C1181 H1175 0.950 . S
C1181 C1180 1.327 . S
C1181 C1185 1.429 . S
C1182 C1165 1.574 . S
C1182 H1176 0.949 . S
C1182 C1186 1.368 . S
C1183 C1164 1.429 . S
C1183 C1177 1.429 . S
C1183 C1184 1.523 . S
C1184 C1165 1.368 . S
C1184 C1178 1.368 . S
C1184 C1183 1.523 . S
C1185 C1169 1.429 . S
C1185 C1181 1.429 . S
C1185 C1186 1.523 . S
C1186 C1170 1.368 . S
C1186 C1182 1.368 . S
C1186 C1185 1.523 . S
H1187 C1162 0.950 . S
H1188 C1164 0.950 . S
H1189 C1165 0.949 . S
H1190 C1167 0.950 . S
H1191 C1169 0.950 . S
C473 C255 1.916 1_545 S
C478 C321 2.019 1_545 S
C508 C361 2.038 . S
C503 C294 1.897 . S
C538 C401 2.030 . S
C533 C177 1.918 . S
C568 C441 2.034 1_455 S
C563 C216 1.924 . S
C598 C330 2.025 1_565 S
C593 C99 1.920 1_545 S
C623 C138 1.903 . S
C628 C370 2.042 . S
C653 C21 1.917 . S
C658 C410 2.029 . S
C683 C60 1.923 . S
C688 C450 2.033 1_655 S
C718 C327 0.270 . S
C713 C196 0.278 . S
C748 C367 0.266 . S
C743 C235 0.269 1_545 S
C778 C407 0.268 . S
C773 C289 0.274 . S
C803 C157 0.267 . S
C808 C447 0.264 . S
C833 C40 0.259 . S
C838 C318 0.267 . S
C868 C358 0.266 . S
C863 C79 0.254 . S
C898 C398 0.268 . S
C893 C133 0.266 . S
C923 C1 0.253 . S
C928 C438 0.267 . S
C953 C211 2.525 . S
C958 C331 2.827 . S
C983 C250 2.518 . S
C988 C371 2.828 . S
C1018 C411 2.831 . S
C1013 C274 2.526 . S
C1048 C451 2.826 . S
C1043 C172 2.512 . S
C1073 C55 2.526 . S
C1078 C322 2.844 . S
C1108 C362 2.827 . S
C1103 C94 2.517 1_565 S
C1138 C402 2.832 . S
C1133 C118 2.528 . S
C1163 C16 2.517 . S
C1168 C442 2.831 . S
