# Generated by pormake.
# Topology pth, (4,4)-cn, num edge types: 1
# Building blocks:
#     Node 0, Type 0, BuildingBlock: GALJAG_clean_sbu_0, # of connection points: 4
#     Node 1, Type 0, BuildingBlock: GALJAG_clean_sbu_0, # of connection points: 4
#     Node 2, Type 0, BuildingBlock: GALJAG_clean_sbu_0, # of connection points: 4
#     Node 3, Type 1, BuildingBlock: NAWXER_clean_linker_0, # of connection points: 4
#     Node 4, Type 1, BuildingBlock: NAWXER_clean_linker_0, # of connection points: 4
#     Node 5, Type 1, BuildingBlock: NAWXER_clean_linker_0, # of connection points: 4
#     Edge 6, Type (0, 1), BuildingBlock: CIFDUS_clean_linker_0, # of connection points: 2
#     Edge 7, Type (0, 1), BuildingBlock: CIFDUS_clean_linker_0, # of connection points: 2
#     Edge 8, Type (0, 1), BuildingBlock: CIFDUS_clean_linker_0, # of connection points: 2
#     Edge 9, Type (0, 1), BuildingBlock: CIFDUS_clean_linker_0, # of connection points: 2
#     Edge 10, Type (0, 1), BuildingBlock: CIFDUS_clean_linker_0, # of connection points: 2
#     Edge 11, Type (0, 1), BuildingBlock: CIFDUS_clean_linker_0, # of connection points: 2
#     Edge 12, Type (0, 1), BuildingBlock: CIFDUS_clean_linker_0, # of connection points: 2
#     Edge 13, Type (0, 1), BuildingBlock: CIFDUS_clean_linker_0, # of connection points: 2
#     Edge 14, Type (0, 1), BuildingBlock: CIFDUS_clean_linker_0, # of connection points: 2
#     Edge 15, Type (0, 1), BuildingBlock: CIFDUS_clean_linker_0, # of connection points: 2
#     Edge 16, Type (0, 1), BuildingBlock: CIFDUS_clean_linker_0, # of connection points: 2
#     Edge 17, Type (0, 1), BuildingBlock: CIFDUS_clean_linker_0, # of connection points: 2
# Relax obj value: 0.002
# Max RMSD: 0.036
# Mean RMSD: 0.021
data_MOF--net-pth--node1-GALJAG_clean_sbu_0--node2-NAWXER_clean_linker_0--edge1-CIFDUS_clean_linker_0
_symmetry_space_group_name_H-M    P1
_symmetry_Int_Tables_number       1
_symmetry_cell_setting            triclinic
loop_
_symmetry_equiv_pos_as_xyz
'x, y, z'
_cell_length_a     26.474538
_cell_length_b     26.449154
_cell_length_c     57.229923
_cell_angle_alpha  90.140204
_cell_angle_beta   90.062207
_cell_angle_gamma 120.03795
loop_
_atom_site_label
_atom_site_type_symbol
_atom_site_fract_x
_atom_site_fract_y
_atom_site_fract_z
_atom_type_partial_charge
In0 In 0.01315 0.00749 0.04738 0.0
O1 O 0.95556 0.03733 0.06585 0.0
O2 O 0.04624 0.08222 0.07354 0.0
C3 C 0.93096 0.93353 0.01672 0.0
C4 C 0.10071 0.07741 0.0182 0.0
C5 C 0.02713 0.93969 0.07876 0.0
O6 O 0.94251 0.98557 0.01938 0.0
O7 O 0.96038 0.91909 0.02944 0.0
O8 O 0.06836 0.97538 0.06587 0.0
O9 O 0.97955 0.93925 0.07606 0.0
C10 C 0.99726 0.0779 0.07712 0.0
O11 O 0.09785 0.03279 0.02747 0.0
O12 O 0.05956 0.08613 0.02356 0.0
In13 In 0.99065 0.9972 0.38107 0.0
O14 O 0.04865 0.08783 0.36503 0.0
O15 O 0.95817 0.04301 0.35698 0.0
C16 C 0.0659 0.98733 0.40977 0.0
C17 C 0.91371 0.99368 0.41282 0.0
C18 C 0.9765 0.91562 0.34924 0.0
O19 O 0.07826 0.03511 0.40009 0.0
O20 O 0.01586 0.94518 0.40498 0.0
O21 O 0.93634 0.90845 0.36309 0.0
O22 O 0.02294 0.96416 0.35118 0.0
C23 C 0.00722 0.0882 0.35421 0.0
O24 O 0.89805 0.96027 0.39521 0.0
O25 O 0.96788 0.02856 0.41435 0.0
In26 In 0.00112 0.01869 0.71388 0.0
O27 O 0.96095 0.93038 0.73278 0.0
O28 O 0.9246 0.98509 0.73868 0.0
C29 C 0.08503 0.01813 0.6875 0.0
C30 C 0.92824 0.01871 0.68096 0.0
C31 C 0.0724 0.10606 0.74287 0.0
O32 O 0.048 0.973 0.69834 0.0
O33 O 0.07919 0.06227 0.6901 0.0
O34 O 0.04842 0.11428 0.72533 0.0
O35 O 0.05917 0.05366 0.74609 0.0
C36 C 0.92269 0.93748 0.74311 0.0
O37 O 0.94616 0.05429 0.69787 0.0
O38 O 0.94722 0.98348 0.68065 0.0
C39 C 0.95524 0.30962 0.25108 0.0
C40 C 0.99192 0.32217 0.27065 0.0
C41 C 0.95966 0.35447 0.23686 0.0
C42 C 0.00171 0.41287 0.24156 0.0
C43 C 0.03357 0.38075 0.27547 0.0
C44 C 0.03822 0.42561 0.26112 0.0
C45 C 0.00557 0.46095 0.22698 0.0
C46 C 0.05299 0.35557 0.17988 0.0
C47 C 0.01606 0.33 0.16047 0.0
C48 C 0.04919 0.39746 0.19347 0.0
C49 C 0.00755 0.41391 0.18827 0.0
C50 C 0.97488 0.3471 0.15512 0.0
C51 C 0.97085 0.38877 0.16884 0.0
C52 C 0.00407 0.45936 0.20225 0.0
C53 C 0.04344 0.69753 0.17699 0.0
C54 C 0.99845 0.68256 0.16062 0.0
C55 C 0.04553 0.65427 0.19025 0.0
C56 C 0.00253 0.59532 0.18744 0.0
C57 C 0.95628 0.62336 0.1575 0.0
C58 C 0.95857 0.58015 0.17067 0.0
C59 C 0.00326 0.54917 0.20175 0.0
C60 C 0.96384 0.65892 0.25019 0.0
C61 C 0.00907 0.69071 0.26629 0.0
C62 C 0.96259 0.61342 0.23723 0.0
C63 C 0.00658 0.59901 0.24015 0.0
C64 C 0.05244 0.67546 0.26944 0.0
C65 C 0.05092 0.62972 0.25662 0.0
C66 C 0.00631 0.55151 0.22638 0.0
H67 H 0.92297 0.26502 0.24672 0.0
H68 H 0.92969 0.34344 0.22232 0.0
H69 H 0.06182 0.39211 0.29061 0.0
H70 H 0.07042 0.4704 0.26531 0.0
H71 H 0.08494 0.34322 0.18463 0.0
H72 H 0.07929 0.4174 0.20793 0.0
H73 H 0.9465 0.32916 0.14006 0.0
H74 H 0.93896 0.40136 0.16427 0.0
H75 H 0.07648 0.74275 0.17982 0.0
H76 H 0.08063 0.66689 0.20275 0.0
H77 H 0.92165 0.6104 0.14474 0.0
H78 H 0.92535 0.53487 0.16805 0.0
H79 H 0.92991 0.66977 0.24738 0.0
H80 H 0.9273 0.5895 0.22493 0.0
H81 H 0.08731 0.69861 0.28199 0.0
H82 H 0.0849 0.61887 0.2593 0.0
N83 N 0.00739 0.50739 0.23805 0.0
N84 N 0.00221 0.50319 0.19062 0.0
C85 C 0.67073 0.02381 0.5043 0.0
C86 C 0.65347 0.97339 0.4906 0.0
C87 C 0.63118 0.02761 0.51935 0.0
C88 C 0.57356 0.98125 0.5209 0.0
C89 C 0.59582 0.92669 0.4926 0.0
C90 C 0.55616 0.9309 0.5074 0.0
C91 C 0.53006 0.98634 0.53527 0.0
C92 C 0.64904 0.97126 0.58901 0.0
C93 C 0.68163 0.02335 0.60187 0.0
C94 C 0.60329 0.9638 0.57446 0.0
C95 C 0.58901 0.00802 0.57268 0.0
C96 C 0.66808 0.06817 0.59933 0.0
C97 C 0.62179 0.06023 0.58512 0.0
C98 C 0.53732 0.99877 0.5594 0.0
C99 C 0.29626 0.94258 0.58747 0.0
C100 C 0.31012 0.98274 0.60587 0.0
C101 C 0.33982 0.9467 0.57249 0.0
C102 C 0.39806 0.99127 0.57554 0.0
C103 C 0.3685 0.02701 0.60899 0.0
C104 C 0.41205 0.03098 0.59406 0.0
C105 C 0.44505 0.99401 0.56063 0.0
C106 C 0.34252 0.04021 0.51171 0.0
C107 C 0.3147 0.001 0.49315 0.0
C108 C 0.38205 0.03452 0.52605 0.0
C109 C 0.3943 0.98922 0.52225 0.0
C110 C 0.32675 0.9555 0.48944 0.0
C111 C 0.36654 0.94997 0.50375 0.0
C112 C 0.43993 0.98619 0.53613 0.0
H113 H 0.71431 0.06113 0.50293 0.0
H114 H 0.64514 0.06742 0.52925 0.0
H115 H 0.58114 0.88678 0.4827 0.0
H116 H 0.51177 0.89471 0.50833 0.0
H117 H 0.65742 0.93537 0.59077 0.0
H118 H 0.57782 0.92278 0.56525 0.0
H119 H 0.69289 0.10935 0.60848 0.0
H120 H 0.61133 0.09487 0.58392 0.0
H121 H 0.25166 0.90817 0.58456 0.0
H122 H 0.32805 0.9144 0.55878 0.0
H123 H 0.38069 0.0581 0.62321 0.0
H124 H 0.45675 0.06519 0.59698 0.0
H125 H 0.3339 0.07551 0.51508 0.0
H126 H 0.40416 0.0665 0.53975 0.0
H127 H 0.30655 0.92506 0.47509 0.0
H128 H 0.37597 0.91526 0.50026 0.0
N129 N 0.482 0.98128 0.52447 0.0
N130 N 0.49422 0.00133 0.57123 0.0
C131 C 0.36222 0.31021 0.84241 0.0
C132 C 0.32582 0.32424 0.82932 0.0
C133 C 0.40999 0.35337 0.85474 0.0
C134 C 0.42299 0.41162 0.85397 0.0
C135 C 0.33962 0.38306 0.82846 0.0
C136 C 0.38821 0.4264 0.84042 0.0
C137 C 0.47205 0.45681 0.86776 0.0
C138 C 0.32469 0.35598 0.91743 0.0
C139 C 0.33624 0.32664 0.93527 0.0
C140 C 0.36967 0.3968 0.90341 0.0
C141 C 0.42713 0.40834 0.90652 0.0
C142 C 0.39389 0.33855 0.93847 0.0
C143 C 0.4389 0.37919 0.92429 0.0
C144 C 0.47543 0.45331 0.89228 0.0
C145 C 0.66301 0.68272 0.92365 0.0
C146 C 0.70027 0.66981 0.93674 0.0
C147 C 0.62164 0.64134 0.90836 0.0
C148 C 0.61594 0.58595 0.90618 0.0
C149 C 0.69544 0.61461 0.93372 0.0
C150 C 0.653 0.57281 0.91894 0.0
C151 C 0.56831 0.54027 0.89208 0.0
C152 C 0.71447 0.64474 0.84193 0.0
C153 C 0.70127 0.67401 0.82462 0.0
C154 C 0.67047 0.60309 0.85615 0.0
C155 C 0.61241 0.59013 0.85347 0.0
C156 C 0.64305 0.66065 0.82188 0.0
C157 C 0.59907 0.6189 0.83606 0.0
C158 C 0.56491 0.54395 0.86758 0.0
H159 H 0.35423 0.2659 0.84305 0.0
H160 H 0.4369 0.34129 0.86489 0.0
H161 H 0.31236 0.39568 0.81892 0.0
H162 H 0.39758 0.47121 0.83971 0.0
H163 H 0.2808 0.34763 0.91433 0.0
H164 H 0.35955 0.42012 0.89043 0.0
H165 H 0.40451 0.31749 0.95229 0.0
H166 H 0.48303 0.38803 0.92725 0.0
H167 H 0.6643 0.72403 0.92568 0.0
H168 H 0.5927 0.65185 0.89884 0.0
H169 H 0.72415 0.60326 0.94289 0.0
H170 H 0.64911 0.53015 0.91742 0.0
H171 H 0.75888 0.65413 0.84453 0.0
H172 H 0.68174 0.58016 0.8689 0.0
H173 H 0.63126 0.68172 0.80846 0.0
H174 H 0.5545 0.60903 0.83343 0.0
N175 N 0.51667 0.5021 0.85632 0.0
N176 N 0.52362 0.49511 0.90351 0.0
H177 H 0.08279 0.17393 0.09864 0.0
H178 H 0.89578 0.07303 0.09057 0.0
H179 H 0.88487 0.14163 0.11594 0.0
H180 H 0.92882 0.23058 0.14029 0.0
H181 H 0.11635 0.33292 0.14678 0.0
H182 H 0.12654 0.26293 0.12242 0.0
C183 C 0.03959 0.1668 0.10248 0.0
C184 C 0.99016 0.11844 0.09278 0.0
C185 C 0.03373 0.20658 0.11686 0.0
C186 C 0.93452 0.10996 0.09783 0.0
C187 C 0.92828 0.14917 0.11233 0.0
C188 C 0.97194 0.23787 0.13622 0.0
C189 C 0.02169 0.28694 0.14551 0.0
C190 C 0.97763 0.19779 0.12187 0.0
C191 C 0.0772 0.29512 0.14027 0.0
C192 C 0.08316 0.2553 0.12617 0.0
H193 H 0.79616 0.94324 0.40837 0.0
H194 H 0.93839 0.04296 0.45613 0.0
H195 H 0.87034 0.04372 0.48475 0.0
H196 H 0.77069 0.01677 0.49605 0.0
H197 H 0.62939 0.92314 0.44704 0.0
H198 H 0.69661 0.9183 0.41935 0.0
C199 C 0.81214 0.96489 0.42509 0.0
C200 C 0.8721 0.99288 0.43017 0.0
C201 C 0.77292 0.96605 0.4413 0.0
C202 C 0.89236 0.02121 0.45181 0.0
C203 C 0.8535 0.02162 0.46818 0.0
C204 C 0.75454 0.99583 0.47923 0.0
C205 C 0.69478 0.97016 0.47381 0.0
C206 C 0.79372 0.99448 0.46306 0.0
C207 C 0.67481 0.94231 0.452 0.0
C208 C 0.71336 0.93993 0.436 0.0
H209 H 0.91038 0.83308 0.75696 0.0
H210 H 0.83541 0.94424 0.76505 0.0
H211 H 0.76106 0.87312 0.79101 0.0
H212 H 0.71685 0.77942 0.8114 0.0
H213 H 0.79042 0.66714 0.80345 0.0
H214 H 0.86606 0.73881 0.77778 0.0
C215 C 0.87777 0.84166 0.76443 0.0
C216 C 0.87842 0.89384 0.75903 0.0
C217 C 0.83495 0.80048 0.77946 0.0
C218 C 0.83595 0.90443 0.76889 0.0
C219 C 0.79332 0.86377 0.78376 0.0
C220 C 0.74916 0.77041 0.80391 0.0
C221 C 0.74783 0.71793 0.8093 0.0
C222 C 0.79229 0.81161 0.78911 0.0
C223 C 0.79074 0.70745 0.79978 0.0
C224 C 0.83383 0.74827 0.78499 0.0
H225 H 0.94111 0.85172 0.10356 0.0
H226 H 0.12571 0.93574 0.08951 0.0
H227 H 0.13359 0.86463 0.11422 0.0
H228 H 0.08708 0.77619 0.13862 0.0
H229 H 0.9021 0.69168 0.15192 0.0
H230 H 0.89522 0.7651 0.12853 0.0
C231 C 0.98317 0.85475 0.10603 0.0
C232 C 0.03276 0.89893 0.09474 0.0
C233 C 0.98719 0.81333 0.11998 0.0
C234 C 0.08688 0.90211 0.09802 0.0
C235 C 0.09139 0.86141 0.11211 0.0
C236 C 0.04541 0.77425 0.13658 0.0
C237 C 0.99513 0.72841 0.14691 0.0
C238 C 0.04172 0.81652 0.12301 0.0
C239 C 0.94129 0.72605 0.14388 0.0
C240 C 0.93737 0.76817 0.13062 0.0
H241 H 0.17154 0.07243 0.42576 0.0
H242 H 0.05092 0.88694 0.4291 0.0
H243 H 0.11717 0.87475 0.45508 0.0
H244 H 0.20911 0.91667 0.47704 0.0
H245 H 0.32979 0.10209 0.47397 0.0
H246 H 0.2636 0.11449 0.44792 0.0
C247 C 0.15985 0.02938 0.43217 0.0
C248 C 0.10648 0.98069 0.42549 0.0
C249 C 0.19804 0.02267 0.44723 0.0
C250 C 0.09177 0.92517 0.434 0.0
C251 C 0.12962 0.91811 0.44885 0.0
C252 C 0.22106 0.95971 0.47053 0.0
C253 C 0.27423 0.00833 0.47742 0.0
C254 C 0.18285 0.96652 0.45557 0.0
C255 C 0.28877 0.06401 0.46912 0.0
C256 C 0.25112 0.07111 0.45413 0.0
H257 H 0.11096 0.09861 0.78589 0.0
H258 H 0.13295 0.22173 0.73202 0.0
H259 H 0.21301 0.30036 0.75407 0.0
H260 H 0.28034 0.33252 0.78741 0.0
H261 H 0.25336 0.21063 0.84275 0.0
H262 H 0.1725 0.13297 0.82107 0.0
C263 C 0.133 0.14279 0.7791 0.0
C264 C 0.11641 0.15437 0.75733 0.0
C265 C 0.17862 0.18781 0.79194 0.0
C266 C 0.1449 0.2118 0.74879 0.0
C267 C 0.19086 0.2567 0.76133 0.0
C268 C 0.25627 0.28937 0.79504 0.0
C269 C 0.27398 0.2777 0.81663 0.0
C270 C 0.20858 0.24503 0.78279 0.0
C271 C 0.24222 0.22092 0.8259 0.0
C272 C 0.19542 0.1764 0.81362 0.0
H273 H 0.85963 0.06752 0.68392 0.0
H274 H 0.90399 0.96551 0.63836 0.0
H275 H 0.83348 0.96002 0.60938 0.0
H276 H 0.75831 0.98302 0.59729 0.0
H277 H 0.70859 0.07829 0.64449 0.0
H278 H 0.78291 0.08861 0.6722 0.0
C279 C 0.85405 0.04441 0.66758 0.0
C280 C 0.88696 0.01711 0.66323 0.0
C281 C 0.81264 0.0404 0.65122 0.0
C282 C 0.87899 0.98679 0.64211 0.0
C283 C 0.83874 0.98366 0.62553 0.0
C284 C 0.7632 0.00556 0.61372 0.0
C285 C 0.72784 0.03009 0.61859 0.0
C286 C 0.80499 0.00993 0.62998 0.0
C287 C 0.73581 0.05999 0.63989 0.0
C288 C 0.77803 0.0655 0.65593 0.0
H289 H 0.87368 0.81592 0.01862 0.0
H290 H 0.89049 0.95951 0.97725 0.0
H291 H 0.8218 0.89072 0.9484 0.0
H292 H 0.7595 0.78985 0.93457 0.0
H293 H 0.73569 0.64673 0.97851 0.0
H294 H 0.8058 0.71542 0.00635 0.0
C295 C 0.86217 0.8321 0.00329 0.0
C296 C 0.88726 0.89252 0.99992 0.0
C297 C 0.82199 0.79243 0.9871 0.0
C298 C 0.87154 0.91306 0.98019 0.0
C299 C 0.83249 0.87378 0.96368 0.0
C300 C 0.76872 0.77338 0.95036 0.0
C301 C 0.7425 0.71264 0.95402 0.0
C302 C 0.80762 0.8133 0.96692 0.0
C303 C 0.75618 0.69285 0.97461 0.0
C304 C 0.79591 0.73221 0.9908 0.0
H305 H 0.06208 0.91705 0.32293 0.0
H306 H 0.87938 0.81065 0.33952 0.0
H307 H 0.87265 0.73233 0.31449 0.0
H308 H 0.91998 0.69261 0.28923 0.0
H309 H 0.10333 0.79865 0.27369 0.0
H310 H 0.10863 0.87853 0.29709 0.0
C311 C 0.02065 0.8769 0.32093 0.0
C312 C 0.97129 0.86963 0.33304 0.0
C313 C 0.01737 0.83186 0.30684 0.0
C314 C 0.91801 0.81726 0.33037 0.0
C315 C 0.91417 0.77246 0.3161 0.0
C316 C 0.9609 0.73346 0.29079 0.0
C317 C 0.01124 0.73968 0.27983 0.0
C318 C 0.96373 0.77906 0.30444 0.0
C319 C 0.06415 0.79258 0.2822 0.0
C320 C 0.06716 0.83833 0.29549 0.0
H321 H 0.09928 0.92722 0.67341 0.0
H322 H 0.17517 0.11413 0.66804 0.0
H323 H 0.25136 0.11957 0.64261 0.0
H324 H 0.29566 0.07161 0.62124 0.0
H325 H 0.22071 0.88487 0.62592 0.0
H326 H 0.14465 0.87889 0.65197 0.0
C327 C 0.13267 0.96906 0.66673 0.0
C328 C 0.13155 0.02014 0.67262 0.0
C329 C 0.17632 0.97193 0.65185 0.0
C330 C 0.17492 0.07409 0.66374 0.0
C331 C 0.21857 0.07732 0.64918 0.0
C332 C 0.26302 0.02966 0.62814 0.0
C333 C 0.26393 0.97884 0.62171 0.0
C334 C 0.21959 0.02657 0.64306 0.0
C335 C 0.22065 0.92463 0.63045 0.0
C336 C 0.17734 0.92121 0.64544 0.0
H337 H 0.11923 0.18002 1.00066 0.0
H338 H 0.18974 0.06414 0.00086 0.0
H339 H 0.26891 0.13087 0.97507 0.0
H340 H 0.31752 0.22206 0.95229 0.0
H341 H 0.24776 0.33878 0.95364 0.0
H342 H 0.16846 0.27133 0.97876 0.0
C343 C 0.15186 0.16926 0.99504 0.0
C344 C 0.1486 0.11719 0.00259 0.0
C345 C 0.19724 0.20787 0.98041 0.0
C346 C 0.19134 0.10401 0.99526 0.0
C347 C 0.23656 0.14212 0.98052 0.0
C348 C 0.28528 0.23299 0.95825 0.0
C349 C 0.28852 0.28533 0.95089 0.0
C350 C 0.23998 0.19425 0.97301 0.0
C351 C 0.24586 0.29837 0.95861 0.0
C352 C 0.20064 0.26001 0.97313 0.0
H353 H 0.92243 0.10089 0.33348 0.0
H354 H 0.1093 0.18551 0.34167 0.0
H355 H 0.12127 0.26554 0.31651 0.0
H356 H 0.07833 0.31043 0.29168 0.0
H357 H 0.89095 0.22638 0.2849 0.0
H358 H 0.87965 0.14679 0.30976 0.0
C359 C 0.96582 0.13684 0.32977 0.0
C360 C 0.01492 0.13722 0.33936 0.0
C361 C 0.9723 0.18264 0.31543 0.0
C362 C 0.07081 0.18424 0.33449 0.0
C363 C 0.07766 0.22994 0.32009 0.0
C364 C 0.03499 0.27503 0.29583 0.0
C365 C 0.98562 0.27435 0.28623 0.0
C366 C 0.02867 0.22954 0.31043 0.0
C367 C 0.92982 0.22763 0.29161 0.0
C368 C 0.92323 0.18221 0.30599 0.0
loop_
_geom_bond_atom_site_label_1
_geom_bond_atom_site_label_2
_geom_bond_distance
_geom_bond_site_symmetry_2
_ccdc_geom_bond_type
In0 O1 2.294 1_455 S
In0 O2 2.326 . S
In0 O6 2.266 1_445 S
In0 O7 2.326 1_445 S
In0 O8 2.266 1_545 S
In0 O9 2.326 1_445 S
In0 O11 2.294 . S
In0 O12 2.326 . S
O1 In0 2.294 1_655 S
O1 C10 1.240 1_655 S
O2 In0 2.326 . S
O2 C10 1.252 . S
C3 O6 1.252 . S
C3 O7 1.260 . S
C4 O11 1.240 . S
C4 O12 1.252 . S
C5 O8 1.252 1_655 S
C5 O9 1.260 . S
O6 In0 2.266 1_665 S
O6 C3 1.252 . S
O7 In0 2.326 1_665 S
O7 C3 1.260 . S
O8 In0 2.266 1_565 S
O8 C5 1.252 1_455 S
O9 In0 2.326 1_665 S
O9 C5 1.260 . S
C10 O1 1.240 1_455 S
C10 O2 1.252 . S
O11 In0 2.294 . S
O11 C4 1.240 . S
O12 In0 2.326 . S
O12 C4 1.252 . S
In13 O14 2.294 . S
In13 O15 2.326 1_455 S
In13 O19 2.266 . S
In13 O20 2.326 1_545 S
In13 O21 2.266 1_445 S
In13 O22 2.326 1_545 S
In13 O24 2.294 1_445 S
In13 O25 2.326 1_455 S
O14 In13 2.294 . S
O14 C23 1.240 1_455 S
O15 In13 2.326 1_655 S
O15 C23 1.252 . S
C16 O19 1.252 1_565 S
C16 O20 1.260 . S
C17 O24 1.240 1_545 S
C17 O25 1.252 . S
C18 O21 1.252 1_455 S
C18 O22 1.260 . S
O19 In13 2.266 . S
O19 C16 1.252 1_545 S
O20 In13 2.326 1_565 S
O20 C16 1.260 . S
O21 In13 2.266 1_665 S
O21 C18 1.252 1_655 S
O22 In13 2.326 1_565 S
O22 C18 1.260 . S
C23 O14 1.240 1_655 S
C23 O15 1.252 . S
O24 In13 2.294 1_665 S
O24 C17 1.240 1_565 S
O25 In13 2.326 1_655 S
O25 C17 1.252 . S
In26 O27 2.281 1_445 S
In26 O28 2.328 1_445 S
In26 O32 2.254 1_545 S
In26 O33 2.328 . S
In26 O34 2.279 . S
In26 O35 2.324 . S
In26 O37 2.307 1_455 S
In26 O38 2.325 1_445 S
O27 In26 2.281 1_665 S
O27 C36 1.240 . S
O28 In26 2.328 1_665 S
O28 C36 1.252 . S
C29 O32 1.252 1_545 S
C29 O33 1.260 . S
C30 O37 1.240 1_565 S
C30 O38 1.252 . S
C31 O34 1.252 . S
C31 O35 1.260 . S
O32 In26 2.254 1_565 S
O32 C29 1.252 1_565 S
O33 In26 2.328 . S
O33 C29 1.260 . S
O34 In26 2.279 . S
O34 C31 1.252 . S
O35 In26 2.324 . S
O35 C31 1.260 . S
C36 O27 1.240 . S
C36 O28 1.252 . S
O37 In26 2.307 1_655 S
O37 C30 1.240 1_545 S
O38 In26 2.325 1_665 S
O38 C30 1.252 . S
C39 C40 1.384 1_655 S
C39 C41 1.384 . S
C39 H67 0.931 . S
C40 C39 1.384 1_455 S
C40 C43 1.382 . S
C41 C39 1.384 . S
C41 C42 1.381 1_655 S
C41 H68 0.930 . S
C42 C41 1.381 1_455 S
C42 C44 1.381 . S
C42 C45 1.487 . S
C43 C40 1.382 . S
C43 C44 1.387 . S
C43 H69 0.930 . S
C44 C42 1.381 . S
C44 C43 1.387 . S
C44 H70 0.931 . S
C45 C42 1.487 . S
C45 C52 1.399 . S
C45 N83 1.343 . S
C46 C47 1.384 . S
C46 C48 1.384 . S
C46 H71 0.931 . S
C47 C46 1.384 . S
C47 C50 1.382 1_455 S
C48 C46 1.384 . S
C48 C49 1.388 . S
C48 H72 0.930 . S
C49 C48 1.388 . S
C49 C51 1.377 1_455 S
C49 C52 1.484 . S
C50 C47 1.382 1_655 S
C50 C51 1.387 . S
C50 H73 0.930 . S
C51 C49 1.377 1_655 S
C51 C50 1.387 . S
C51 H74 0.931 . S
C52 C45 1.399 . S
C52 C49 1.484 . S
C52 N84 1.343 1_455 S
C53 C54 1.384 . S
C53 C55 1.384 . S
C53 H75 0.931 . S
C54 C53 1.384 . S
C54 C57 1.382 1_455 S
C55 C53 1.384 . S
C55 C56 1.383 . S
C55 H76 0.930 . S
C56 C55 1.383 . S
C56 C58 1.377 1_455 S
C56 C59 1.490 . S
C57 C54 1.382 1_655 S
C57 C58 1.387 . S
C57 H77 0.930 . S
C58 C56 1.377 1_655 S
C58 C57 1.387 . S
C58 H78 0.931 . S
C59 C56 1.490 . S
C59 C66 1.399 . S
C59 N84 1.343 1_455 S
C60 C61 1.384 1_655 S
C60 C62 1.384 . S
C60 H79 0.931 . S
C61 C60 1.384 1_455 S
C61 C64 1.382 . S
C62 C60 1.384 . S
C62 C63 1.381 1_655 S
C62 H80 0.930 . S
C63 C62 1.381 1_455 S
C63 C65 1.381 . S
C63 C66 1.487 . S
C64 C61 1.382 . S
C64 C65 1.387 . S
C64 H81 0.930 . S
C65 C63 1.381 . S
C65 C64 1.387 . S
C65 H82 0.931 . S
C66 C59 1.399 . S
C66 C63 1.487 . S
C66 N83 1.343 . S
H67 C39 0.931 . S
H68 C41 0.930 . S
H69 C43 0.930 . S
H70 C44 0.931 . S
H71 C46 0.931 . S
H72 C48 0.930 . S
H73 C50 0.930 . S
H74 C51 0.931 . S
H75 C53 0.931 . S
H76 C55 0.930 . S
H77 C57 0.930 . S
H78 C58 0.931 . S
H79 C60 0.931 . S
H80 C62 0.930 . S
H81 C64 0.930 . S
H82 C65 0.931 . S
N83 C45 1.343 . S
N83 C66 1.343 . S
N84 C52 1.343 1_655 S
N84 C59 1.343 1_655 S
C85 C86 1.384 . S
C85 C87 1.384 . S
C85 H113 0.931 . S
C86 C85 1.384 . S
C86 C89 1.382 1_545 S
C87 C85 1.384 . S
C87 C88 1.378 1_545 S
C87 H114 0.930 . S
C88 C87 1.378 1_565 S
C88 C90 1.390 . S
C88 C91 1.482 1_565 S
C89 C86 1.382 1_565 S
C89 C90 1.387 . S
C89 H115 0.930 . S
C90 C88 1.390 . S
C90 C89 1.387 . S
C90 H116 0.931 . S
C91 C88 1.482 1_545 S
C91 C98 1.399 . S
C91 N129 1.342 1_545 S
C92 C93 1.384 1_565 S
C92 C94 1.384 . S
C92 H117 0.931 . S
C93 C92 1.384 1_545 S
C93 C96 1.382 . S
C94 C92 1.384 . S
C94 C95 1.381 1_565 S
C94 H118 0.930 . S
C95 C94 1.381 1_545 S
C95 C97 1.381 . S
C95 C98 1.487 . S
C96 C93 1.382 . S
C96 C97 1.387 . S
C96 H119 0.930 . S
C97 C95 1.381 . S
C97 C96 1.387 . S
C97 H120 0.931 . S
C98 C91 1.399 . S
C98 C95 1.487 . S
C98 N130 1.343 . S
C99 C100 1.384 1_565 S
C99 C101 1.384 . S
C99 H121 0.931 . S
C100 C99 1.384 1_545 S
C100 C103 1.382 . S
C101 C99 1.384 . S
C101 C102 1.381 1_565 S
C101 H122 0.930 . S
C102 C101 1.381 1_545 S
C102 C104 1.381 . S
C102 C105 1.487 . S
C103 C100 1.382 . S
C103 C104 1.387 . S
C103 H123 0.930 . S
C104 C102 1.381 . S
C104 C103 1.387 . S
C104 H124 0.931 . S
C105 C102 1.487 . S
C105 C112 1.399 . S
C105 N130 1.343 . S
C106 C107 1.384 . S
C106 C108 1.384 . S
C106 H125 0.931 . S
C107 C106 1.384 . S
C107 C110 1.382 1_545 S
C108 C106 1.384 . S
C108 C109 1.368 1_545 S
C108 H126 0.930 . S
C109 C108 1.368 1_565 S
C109 C111 1.389 . S
C109 C112 1.492 1_565 S
C110 C107 1.382 1_565 S
C110 C111 1.387 . S
C110 H127 0.930 . S
C111 C109 1.389 . S
C111 C110 1.387 . S
C111 H128 0.931 . S
C112 C105 1.399 . S
C112 C109 1.492 1_545 S
C112 N129 1.344 1_545 S
H113 C85 0.931 . S
H114 C87 0.930 . S
H115 C89 0.930 . S
H116 C90 0.931 . S
H117 C92 0.931 . S
H118 C94 0.930 . S
H119 C96 0.930 . S
H120 C97 0.931 . S
H121 C99 0.931 . S
H122 C101 0.930 . S
H123 C103 0.930 . S
H124 C104 0.931 . S
H125 C106 0.931 . S
H126 C108 0.930 . S
H127 C110 0.930 . S
H128 C111 0.931 . S
N129 C91 1.342 1_565 S
N129 C112 1.344 1_565 S
N130 C98 1.343 . S
N130 C105 1.343 . S
C131 C132 1.384 . S
C131 C133 1.384 . S
C131 H159 0.931 . S
C132 C131 1.384 . S
C132 C135 1.382 . S
C133 C131 1.384 . S
C133 C134 1.381 . S
C133 H160 0.930 . S
C134 C133 1.381 . S
C134 C136 1.381 . S
C134 C137 1.487 . S
C135 C132 1.382 . S
C135 C136 1.387 . S
C135 H161 0.930 . S
C136 C134 1.381 . S
C136 C135 1.387 . S
C136 H162 0.931 . S
C137 C134 1.487 . S
C137 C144 1.399 . S
C137 N175 1.343 . S
C138 C139 1.384 . S
C138 C140 1.384 . S
C138 H163 0.931 . S
C139 C138 1.384 . S
C139 C142 1.382 . S
C140 C138 1.384 . S
C140 C141 1.381 . S
C140 H164 0.930 . S
C141 C140 1.381 . S
C141 C143 1.381 . S
C141 C144 1.487 . S
C142 C139 1.382 . S
C142 C143 1.387 . S
C142 H165 0.930 . S
C143 C141 1.381 . S
C143 C142 1.387 . S
C143 H166 0.931 . S
C144 C137 1.399 . S
C144 C141 1.487 . S
C144 N176 1.343 . S
C145 C146 1.384 . S
C145 C147 1.384 . S
C145 H167 0.931 . S
C146 C145 1.384 . S
C146 C149 1.382 . S
C147 C145 1.384 . S
C147 C148 1.381 . S
C147 H168 0.930 . S
C148 C147 1.381 . S
C148 C150 1.381 . S
C148 C151 1.487 . S
C149 C146 1.382 . S
C149 C150 1.387 . S
C149 H169 0.930 . S
C150 C148 1.381 . S
C150 C149 1.387 . S
C150 H170 0.931 . S
C151 C148 1.487 . S
C151 C158 1.399 . S
C151 N176 1.343 . S
C152 C153 1.384 . S
C152 C154 1.384 . S
C152 H171 0.931 . S
C153 C152 1.384 . S
C153 C156 1.382 . S
C154 C152 1.384 . S
C154 C155 1.381 . S
C154 H172 0.930 . S
C155 C154 1.381 . S
C155 C157 1.381 . S
C155 C158 1.487 . S
C156 C153 1.382 . S
C156 C157 1.387 . S
C156 H173 0.930 . S
C157 C155 1.381 . S
C157 C156 1.387 . S
C157 H174 0.931 . S
C158 C151 1.399 . S
C158 C155 1.487 . S
C158 N175 1.343 . S
H159 C131 0.931 . S
H160 C133 0.930 . S
H161 C135 0.930 . S
H162 C136 0.931 . S
H163 C138 0.931 . S
H164 C140 0.930 . S
H165 C142 0.930 . S
H166 C143 0.931 . S
H167 C145 0.931 . S
H168 C147 0.930 . S
H169 C149 0.930 . S
H170 C150 0.931 . S
H171 C152 0.931 . S
H172 C154 0.930 . S
H173 C156 0.930 . S
H174 C157 0.931 . S
N175 C137 1.343 . S
N175 C158 1.343 . S
N176 C144 1.343 . S
N176 C151 1.343 . S
H177 C183 0.930 . S
H178 C186 0.930 . S
H179 C187 0.930 . S
H180 C188 0.930 . S
H181 C191 0.930 . S
H182 C192 0.930 . S
C183 H177 0.930 . S
C183 C184 1.355 . S
C183 C185 1.415 . S
C184 C183 1.355 . S
C184 C186 1.419 1_455 S
C185 C183 1.415 . S
C185 C190 1.425 1_455 S
C185 C192 1.409 . S
C186 H178 0.930 . S
C186 C184 1.419 1_655 S
C186 C187 1.362 . S
C187 H179 0.930 . S
C187 C186 1.362 . S
C187 C190 1.409 . S
C188 H180 0.930 . S
C188 C189 1.355 1_655 S
C188 C190 1.415 . S
C189 C188 1.355 1_455 S
C189 C191 1.419 . S
C190 C185 1.425 1_655 S
C190 C187 1.409 . S
C190 C188 1.415 . S
C191 H181 0.930 . S
C191 C189 1.419 . S
C191 C192 1.362 . S
C192 H182 0.930 . S
C192 C185 1.409 . S
C192 C191 1.362 . S
H193 C199 0.930 . S
H194 C202 0.930 . S
H195 C203 0.930 . S
H196 C204 0.930 . S
H197 C207 0.930 . S
H198 C208 0.930 . S
C199 H193 0.930 . S
C199 C200 1.355 . S
C199 C201 1.415 . S
C200 C199 1.355 . S
C200 C202 1.419 1_545 S
C201 C199 1.415 . S
C201 C206 1.425 1_545 S
C201 C208 1.409 . S
C202 H194 0.930 . S
C202 C200 1.419 1_565 S
C202 C203 1.362 . S
C203 H195 0.930 . S
C203 C202 1.362 . S
C203 C206 1.409 . S
C204 H196 0.930 . S
C204 C205 1.355 1_565 S
C204 C206 1.415 . S
C205 C204 1.355 1_545 S
C205 C207 1.419 . S
C206 C201 1.425 1_565 S
C206 C203 1.409 . S
C206 C204 1.415 . S
C207 H197 0.930 . S
C207 C205 1.419 . S
C207 C208 1.362 . S
C208 H198 0.930 . S
C208 C201 1.409 . S
C208 C207 1.362 . S
H209 C215 0.930 . S
H210 C218 0.930 . S
H211 C219 0.930 . S
H212 C220 0.930 . S
H213 C223 0.930 . S
H214 C224 0.930 . S
C215 H209 0.930 . S
C215 C216 1.355 . S
C215 C217 1.415 . S
C216 C215 1.355 . S
C216 C218 1.419 . S
C217 C215 1.415 . S
C217 C222 1.425 . S
C217 C224 1.409 . S
C218 H210 0.930 . S
C218 C216 1.419 . S
C218 C219 1.362 . S
C219 H211 0.930 . S
C219 C218 1.362 . S
C219 C222 1.409 . S
C220 H212 0.930 . S
C220 C221 1.355 . S
C220 C222 1.415 . S
C221 C220 1.355 . S
C221 C223 1.419 . S
C222 C217 1.425 . S
C222 C219 1.409 . S
C222 C220 1.415 . S
C223 H213 0.930 . S
C223 C221 1.419 . S
C223 C224 1.362 . S
C224 H214 0.930 . S
C224 C217 1.409 . S
C224 C223 1.362 . S
H225 C231 0.930 . S
H226 C234 0.930 . S
H227 C235 0.930 . S
H228 C236 0.930 . S
H229 C239 0.930 . S
H230 C240 0.930 . S
C231 H225 0.930 . S
C231 C232 1.355 1_655 S
C231 C233 1.415 . S
C232 C231 1.355 1_455 S
C232 C234 1.419 . S
C233 C231 1.415 . S
C233 C238 1.425 1_655 S
C233 C240 1.409 . S
C234 H226 0.930 . S
C234 C232 1.419 . S
C234 C235 1.362 . S
C235 H227 0.930 . S
C235 C234 1.362 . S
C235 C238 1.409 . S
C236 H228 0.930 . S
C236 C237 1.355 1_455 S
C236 C238 1.415 . S
C237 C236 1.355 1_655 S
C237 C239 1.419 . S
C238 C233 1.425 1_455 S
C238 C235 1.409 . S
C238 C236 1.415 . S
C239 H229 0.930 . S
C239 C237 1.419 . S
C239 C240 1.362 . S
C240 H230 0.930 . S
C240 C233 1.409 . S
C240 C239 1.362 . S
H241 C247 0.930 . S
H242 C250 0.930 . S
H243 C251 0.930 . S
H244 C252 0.930 . S
H245 C255 0.930 . S
H246 C256 0.930 . S
C247 H241 0.930 . S
C247 C248 1.355 1_545 S
C247 C249 1.415 . S
C248 C247 1.355 1_565 S
C248 C250 1.419 . S
C249 C247 1.415 . S
C249 C254 1.425 1_545 S
C249 C256 1.409 . S
C250 H242 0.930 . S
C250 C248 1.419 . S
C250 C251 1.362 . S
C251 H243 0.930 . S
C251 C250 1.362 . S
C251 C254 1.409 . S
C252 H244 0.930 . S
C252 C253 1.355 1_565 S
C252 C254 1.415 . S
C253 C252 1.355 1_545 S
C253 C255 1.419 . S
C254 C249 1.425 1_565 S
C254 C251 1.409 . S
C254 C252 1.415 . S
C255 H245 0.930 . S
C255 C253 1.419 . S
C255 C256 1.362 . S
C256 H246 0.930 . S
C256 C249 1.409 . S
C256 C255 1.362 . S
H257 C263 0.930 . S
H258 C266 0.930 . S
H259 C267 0.930 . S
H260 C268 0.930 . S
H261 C271 0.930 . S
H262 C272 0.930 . S
C263 H257 0.930 . S
C263 C264 1.355 . S
C263 C265 1.415 . S
C264 C263 1.355 . S
C264 C266 1.419 . S
C265 C263 1.415 . S
C265 C270 1.425 . S
C265 C272 1.409 . S
C266 H258 0.930 . S
C266 C264 1.419 . S
C266 C267 1.362 . S
C267 H259 0.930 . S
C267 C266 1.362 . S
C267 C270 1.409 . S
C268 H260 0.930 . S
C268 C269 1.355 . S
C268 C270 1.415 . S
C269 C268 1.355 . S
C269 C271 1.419 . S
C270 C265 1.425 . S
C270 C267 1.409 . S
C270 C268 1.415 . S
C271 H261 0.930 . S
C271 C269 1.419 . S
C271 C272 1.362 . S
C272 H262 0.930 . S
C272 C265 1.409 . S
C272 C271 1.362 . S
H273 C279 0.929 . S
H274 C282 0.930 . S
H275 C283 0.930 . S
H276 C284 0.930 . S
H277 C287 0.930 . S
H278 C288 0.930 . S
C279 H273 0.929 . S
C279 C280 1.355 1_545 S
C279 C281 1.414 . S
C280 C279 1.355 1_565 S
C280 C282 1.419 . S
C281 C279 1.414 . S
C281 C286 1.425 1_545 S
C281 C288 1.409 . S
C282 H274 0.930 . S
C282 C280 1.419 . S
C282 C283 1.362 . S
C283 H275 0.930 . S
C283 C282 1.362 . S
C283 C286 1.409 . S
C284 H276 0.930 . S
C284 C285 1.355 1_565 S
C284 C286 1.415 . S
C285 C284 1.355 1_545 S
C285 C287 1.419 . S
C286 C281 1.425 1_565 S
C286 C283 1.409 . S
C286 C284 1.415 . S
C287 H277 0.930 . S
C287 C285 1.419 . S
C287 C288 1.362 . S
C288 H278 0.930 . S
C288 C281 1.409 . S
C288 C287 1.362 . S
H289 C295 0.930 . S
H290 C298 0.930 . S
H291 C299 0.930 . S
H292 C300 0.930 . S
H293 C303 0.930 . S
H294 C304 0.930 1_554 S
C295 H289 0.930 . S
C295 C296 1.355 . S
C295 C297 1.415 1_554 S
C296 C295 1.355 . S
C296 C298 1.419 1_554 S
C297 C295 1.415 1_556 S
C297 C302 1.425 . S
C297 C304 1.409 . S
C298 H290 0.930 . S
C298 C296 1.419 1_556 S
C298 C299 1.362 . S
C299 H291 0.930 . S
C299 C298 1.362 . S
C299 C302 1.409 . S
C300 H292 0.930 . S
C300 C301 1.355 . S
C300 C302 1.415 . S
C301 C300 1.355 . S
C301 C303 1.419 . S
C302 C297 1.425 . S
C302 C299 1.409 . S
C302 C300 1.415 . S
C303 H293 0.930 . S
C303 C301 1.419 . S
C303 C304 1.362 . S
C304 H294 0.930 1_556 S
C304 C297 1.409 . S
C304 C303 1.362 . S
H305 C311 0.930 . S
H306 C314 0.930 . S
H307 C315 0.930 . S
H308 C316 0.930 . S
H309 C319 0.930 . S
H310 C320 0.930 . S
C311 H305 0.930 . S
C311 C312 1.355 . S
C311 C313 1.415 . S
C312 C311 1.355 . S
C312 C314 1.419 1_455 S
C313 C311 1.415 . S
C313 C318 1.425 1_455 S
C313 C320 1.409 . S
C314 H306 0.930 . S
C314 C312 1.419 1_655 S
C314 C315 1.362 . S
C315 H307 0.930 . S
C315 C314 1.362 . S
C315 C318 1.409 . S
C316 H308 0.930 . S
C316 C317 1.355 1_655 S
C316 C318 1.415 . S
C317 C316 1.355 1_455 S
C317 C319 1.419 . S
C318 C313 1.425 1_655 S
C318 C315 1.409 . S
C318 C316 1.415 . S
C319 H309 0.930 . S
C319 C317 1.419 . S
C319 C320 1.362 . S
C320 H310 0.930 . S
C320 C313 1.409 . S
C320 C319 1.362 . S
H321 C327 0.930 . S
H322 C330 0.930 . S
H323 C331 0.930 . S
H324 C332 0.930 . S
H325 C335 0.930 . S
H326 C336 0.930 . S
C327 H321 0.930 . S
C327 C328 1.355 1_565 S
C327 C329 1.415 . S
C328 C327 1.355 1_545 S
C328 C330 1.419 . S
C329 C327 1.415 . S
C329 C334 1.425 1_565 S
C329 C336 1.409 . S
C330 H322 0.930 . S
C330 C328 1.419 . S
C330 C331 1.362 . S
C331 H323 0.930 . S
C331 C330 1.362 . S
C331 C334 1.409 . S
C332 H324 0.930 . S
C332 C333 1.355 1_545 S
C332 C334 1.415 . S
C333 C332 1.355 1_565 S
C333 C335 1.419 . S
C334 C329 1.425 1_545 S
C334 C331 1.409 . S
C334 C332 1.415 . S
C335 H325 0.930 . S
C335 C333 1.419 . S
C335 C336 1.362 . S
C336 H326 0.930 . S
C336 C329 1.409 . S
C336 C335 1.362 . S
H337 C343 0.930 . S
H338 C346 0.930 . S
H339 C347 0.930 . S
H340 C348 0.930 . S
H341 C351 0.930 . S
H342 C352 0.930 . S
C343 H337 0.930 . S
C343 C344 1.355 1_556 S
C343 C345 1.415 . S
C344 C343 1.355 1_554 S
C344 C346 1.419 . S
C345 C343 1.415 . S
C345 C350 1.425 . S
C345 C352 1.409 . S
C346 H338 0.930 . S
C346 C344 1.419 . S
C346 C347 1.362 1_554 S
C347 H339 0.930 . S
C347 C346 1.362 1_556 S
C347 C350 1.409 . S
C348 H340 0.930 . S
C348 C349 1.355 . S
C348 C350 1.415 . S
C349 C348 1.355 . S
C349 C351 1.419 . S
C350 C345 1.425 . S
C350 C347 1.409 . S
C350 C348 1.415 . S
C351 H341 0.930 . S
C351 C349 1.419 . S
C351 C352 1.362 . S
C352 H342 0.930 . S
C352 C345 1.409 . S
C352 C351 1.362 . S
H353 C359 0.930 . S
H354 C362 0.930 . S
H355 C363 0.930 . S
H356 C364 0.930 . S
H357 C367 0.930 . S
H358 C368 0.930 . S
C359 H353 0.930 . S
C359 C360 1.355 . S
C359 C361 1.415 . S
C360 C359 1.355 . S
C360 C362 1.419 1_655 S
C361 C359 1.415 . S
C361 C366 1.425 1_655 S
C361 C368 1.409 . S
C362 H354 0.930 . S
C362 C360 1.419 1_455 S
C362 C363 1.362 . S
C363 H355 0.930 . S
C363 C362 1.362 . S
C363 C366 1.409 . S
C364 H356 0.930 . S
C364 C365 1.355 . S
C364 C366 1.415 . S
C365 C364 1.355 . S
C365 C367 1.419 1_455 S
C366 C361 1.425 1_455 S
C366 C363 1.409 . S
C366 C364 1.415 . S
C367 H357 0.930 . S
C367 C365 1.419 1_655 S
C367 C368 1.362 . S
C368 H358 0.930 . S
C368 C361 1.409 . S
C368 C367 1.362 . S
C189 C47 1.517 . S
C184 C10 1.514 . S
C200 C17 1.516 . S
C205 C86 1.517 . S
C216 C36 1.513 . S
C221 C153 1.514 . S
C232 C5 1.513 1_455 S
C237 C54 1.507 1_655 S
C253 C107 1.512 . S
C248 C16 1.514 . S
C264 C31 1.513 . S
C269 C132 1.507 . S
C285 C93 1.516 . S
C280 C30 1.516 . S
C296 C3 1.514 . S
C301 C146 1.516 . S
C317 C61 1.507 . S
C312 C18 1.513 . S
C333 C100 1.518 1_565 S
C328 C29 1.515 . S
C349 C139 1.514 . S
C344 C4 1.512 . S
C360 C23 1.515 . S
C365 C40 1.517 . S
