# Generated by pormake.
# Topology ctn, (3,4)-cn, num edge types: 1
# Building blocks:
#     Node 0, Type 0, BuildingBlock: KAKCAD_clean_linker_0, # of connection points: 3
#     Node 1, Type 0, BuildingBlock: KAKCAD_clean_linker_0, # of connection points: 3
#     Node 2, Type 0, BuildingBlock: KAKCAD_clean_linker_0, # of connection points: 3
#     Node 3, Type 0, BuildingBlock: KAKCAD_clean_linker_0, # of connection points: 3
#     Node 4, Type 0, BuildingBlock: KAKCAD_clean_linker_0, # of connection points: 3
#     Node 5, Type 0, BuildingBlock: KAKCAD_clean_linker_0, # of connection points: 3
#     Node 6, Type 0, BuildingBlock: KAKCAD_clean_linker_0, # of connection points: 3
#     Node 7, Type 0, BuildingBlock: KAKCAD_clean_linker_0, # of connection points: 3
#     Node 8, Type 0, BuildingBlock: KAKCAD_clean_linker_0, # of connection points: 3
#     Node 9, Type 0, BuildingBlock: KAKCAD_clean_linker_0, # of connection points: 3
#     Node 10, Type 0, BuildingBlock: KAKCAD_clean_linker_0, # of connection points: 3
#     Node 11, Type 0, BuildingBlock: KAKCAD_clean_linker_0, # of connection points: 3
#     Node 12, Type 0, BuildingBlock: KAKCAD_clean_linker_0, # of connection points: 3
#     Node 13, Type 0, BuildingBlock: KAKCAD_clean_linker_0, # of connection points: 3
#     Node 14, Type 0, BuildingBlock: KAKCAD_clean_linker_0, # of connection points: 3
#     Node 15, Type 0, BuildingBlock: KAKCAD_clean_linker_0, # of connection points: 3
#     Node 16, Type 1, BuildingBlock: KUFVIS_clean_sbu_0, # of connection points: 4
#     Node 17, Type 1, BuildingBlock: KUFVIS_clean_sbu_0, # of connection points: 4
#     Node 18, Type 1, BuildingBlock: KUFVIS_clean_sbu_0, # of connection points: 4
#     Node 19, Type 1, BuildingBlock: KUFVIS_clean_sbu_0, # of connection points: 4
#     Node 20, Type 1, BuildingBlock: KUFVIS_clean_sbu_0, # of connection points: 4
#     Node 21, Type 1, BuildingBlock: KUFVIS_clean_sbu_0, # of connection points: 4
#     Node 22, Type 1, BuildingBlock: KUFVIS_clean_sbu_0, # of connection points: 4
#     Node 23, Type 1, BuildingBlock: KUFVIS_clean_sbu_0, # of connection points: 4
#     Node 24, Type 1, BuildingBlock: KUFVIS_clean_sbu_0, # of connection points: 4
#     Node 25, Type 1, BuildingBlock: KUFVIS_clean_sbu_0, # of connection points: 4
#     Node 26, Type 1, BuildingBlock: KUFVIS_clean_sbu_0, # of connection points: 4
#     Node 27, Type 1, BuildingBlock: KUFVIS_clean_sbu_0, # of connection points: 4
#     Edge 28, Type (0, 1), BuildingBlock: XIVTED_clean_linker_0, # of connection points: 2
#     Edge 29, Type (0, 1), BuildingBlock: XIVTED_clean_linker_0, # of connection points: 2
#     Edge 30, Type (0, 1), BuildingBlock: XIVTED_clean_linker_0, # of connection points: 2
#     Edge 31, Type (0, 1), BuildingBlock: XIVTED_clean_linker_0, # of connection points: 2
#     Edge 32, Type (0, 1), BuildingBlock: XIVTED_clean_linker_0, # of connection points: 2
#     Edge 33, Type (0, 1), BuildingBlock: XIVTED_clean_linker_0, # of connection points: 2
#     Edge 34, Type (0, 1), BuildingBlock: XIVTED_clean_linker_0, # of connection points: 2
#     Edge 35, Type (0, 1), BuildingBlock: XIVTED_clean_linker_0, # of connection points: 2
#     Edge 36, Type (0, 1), BuildingBlock: XIVTED_clean_linker_0, # of connection points: 2
#     Edge 37, Type (0, 1), BuildingBlock: XIVTED_clean_linker_0, # of connection points: 2
#     Edge 38, Type (0, 1), BuildingBlock: XIVTED_clean_linker_0, # of connection points: 2
#     Edge 39, Type (0, 1), BuildingBlock: XIVTED_clean_linker_0, # of connection points: 2
#     Edge 40, Type (0, 1), BuildingBlock: XIVTED_clean_linker_0, # of connection points: 2
#     Edge 41, Type (0, 1), BuildingBlock: XIVTED_clean_linker_0, # of connection points: 2
#     Edge 42, Type (0, 1), BuildingBlock: XIVTED_clean_linker_0, # of connection points: 2
#     Edge 43, Type (0, 1), BuildingBlock: XIVTED_clean_linker_0, # of connection points: 2
#     Edge 44, Type (0, 1), BuildingBlock: XIVTED_clean_linker_0, # of connection points: 2
#     Edge 45, Type (0, 1), BuildingBlock: XIVTED_clean_linker_0, # of connection points: 2
#     Edge 46, Type (0, 1), BuildingBlock: XIVTED_clean_linker_0, # of connection points: 2
#     Edge 47, Type (0, 1), BuildingBlock: XIVTED_clean_linker_0, # of connection points: 2
#     Edge 48, Type (0, 1), BuildingBlock: XIVTED_clean_linker_0, # of connection points: 2
#     Edge 49, Type (0, 1), BuildingBlock: XIVTED_clean_linker_0, # of connection points: 2
#     Edge 50, Type (0, 1), BuildingBlock: XIVTED_clean_linker_0, # of connection points: 2
#     Edge 51, Type (0, 1), BuildingBlock: XIVTED_clean_linker_0, # of connection points: 2
#     Edge 52, Type (0, 1), BuildingBlock: XIVTED_clean_linker_0, # of connection points: 2
#     Edge 53, Type (0, 1), BuildingBlock: XIVTED_clean_linker_0, # of connection points: 2
#     Edge 54, Type (0, 1), BuildingBlock: XIVTED_clean_linker_0, # of connection points: 2
#     Edge 55, Type (0, 1), BuildingBlock: XIVTED_clean_linker_0, # of connection points: 2
#     Edge 56, Type (0, 1), BuildingBlock: XIVTED_clean_linker_0, # of connection points: 2
#     Edge 57, Type (0, 1), BuildingBlock: XIVTED_clean_linker_0, # of connection points: 2
#     Edge 58, Type (0, 1), BuildingBlock: XIVTED_clean_linker_0, # of connection points: 2
#     Edge 59, Type (0, 1), BuildingBlock: XIVTED_clean_linker_0, # of connection points: 2
#     Edge 60, Type (0, 1), BuildingBlock: XIVTED_clean_linker_0, # of connection points: 2
#     Edge 61, Type (0, 1), BuildingBlock: XIVTED_clean_linker_0, # of connection points: 2
#     Edge 62, Type (0, 1), BuildingBlock: XIVTED_clean_linker_0, # of connection points: 2
#     Edge 63, Type (0, 1), BuildingBlock: XIVTED_clean_linker_0, # of connection points: 2
#     Edge 64, Type (0, 1), BuildingBlock: XIVTED_clean_linker_0, # of connection points: 2
#     Edge 65, Type (0, 1), BuildingBlock: XIVTED_clean_linker_0, # of connection points: 2
#     Edge 66, Type (0, 1), BuildingBlock: XIVTED_clean_linker_0, # of connection points: 2
#     Edge 67, Type (0, 1), BuildingBlock: XIVTED_clean_linker_0, # of connection points: 2
#     Edge 68, Type (0, 1), BuildingBlock: XIVTED_clean_linker_0, # of connection points: 2
#     Edge 69, Type (0, 1), BuildingBlock: XIVTED_clean_linker_0, # of connection points: 2
#     Edge 70, Type (0, 1), BuildingBlock: XIVTED_clean_linker_0, # of connection points: 2
#     Edge 71, Type (0, 1), BuildingBlock: XIVTED_clean_linker_0, # of connection points: 2
#     Edge 72, Type (0, 1), BuildingBlock: XIVTED_clean_linker_0, # of connection points: 2
#     Edge 73, Type (0, 1), BuildingBlock: XIVTED_clean_linker_0, # of connection points: 2
#     Edge 74, Type (0, 1), BuildingBlock: XIVTED_clean_linker_0, # of connection points: 2
#     Edge 75, Type (0, 1), BuildingBlock: XIVTED_clean_linker_0, # of connection points: 2
# Relax obj value: 0.012
# Max RMSD: 0.061
# Mean RMSD: 0.028
data_MOF--net-ctn--node1-KUFVIS_clean_sbu_0--node2-KAKCAD_clean_linker_0--edge1-XIVTED_clean_linker_0
_symmetry_space_group_name_H-M    P1
_symmetry_Int_Tables_number       1
_symmetry_cell_setting            triclinic
loop_
_symmetry_equiv_pos_as_xyz
'x, y, z'
_cell_length_a     67.16514
_cell_length_b     66.999667
_cell_length_c     67.204731
_cell_angle_alpha  91.054985
_cell_angle_beta   90.513527
_cell_angle_gamma 91.714366
loop_
_atom_site_label
_atom_site_type_symbol
_atom_site_fract_x
_atom_site_fract_y
_atom_site_fract_z
_atom_type_partial_charge
C0 C 0.0336 0.09378 0.9902 0.0
C1 C 0.0235 0.11049 0.99748 0.0
C2 C 0.03806 0.078 0.00263 0.0
C3 C 0.03316 0.07862 0.02296 0.0
C4 C 0.02332 0.09544 0.03033 0.0
C5 C 0.01833 0.11097 0.01776 0.0
C6 C 0.03828 0.06181 0.0363 0.0
C7 C 0.05524 0.05046 0.03268 0.0
C8 C 0.05984 0.03423 0.04466 0.0
C9 C 0.04766 0.0297 0.06093 0.0
C10 C 0.03088 0.04101 0.0651 0.0
C11 C 0.02617 0.05684 0.05261 0.0
C12 C 0.01821 0.03627 0.08251 0.0
C13 C 0.01245 0.01643 0.08655 0.0
C14 C 0.01191 0.05159 0.09532 0.0
C15 C 1.00018 0.04718 0.11184 0.0
C16 C 0.9943 0.02733 0.11588 0.0
C17 C 0.0772 0.02179 0.03989 0.0
C18 C 0.08071 0.01572 0.02014 0.0
C19 C 0.09021 0.01573 0.05496 0.0
C20 C 0.10643 0.00391 0.05035 0.0
C21 C 0.10994 0.99779 0.03057 0.0
C22 C 0.09684 0.00384 0.01554 0.0
C23 C 1.00059 0.01201 0.10299 0.0
H24 H 0.03829 0.09281 0.97487 0.0
H25 H 0.04525 0.06524 0.99611 0.0
H26 H 0.01954 0.0968 0.0459 0.0
H27 H 0.01024 0.12327 0.02404 0.0
H28 H 0.06519 0.05438 0.02068 0.0
H29 H 0.01273 0.06492 0.05541 0.0
H30 H 0.0512 0.0173 0.07033 0.0
H31 H 0.01687 0.00432 0.0768 0.0
H32 H 0.01635 0.067 0.09275 0.0
H33 H 0.99596 0.05934 0.1216 0.0
H34 H 0.07076 0.01988 0.00824 0.0
H35 H 0.08802 0.02036 0.07029 0.0
H36 H 0.99608 0.9966 0.10538 0.0
H37 H 0.09882 0.99911 1.00021 0.0
H38 H 0.11637 0.9998 0.06227 0.0
C39 C 0.37209 0.7229 0.24156 0.0
C40 C 0.38517 0.70734 0.24523 0.0
C41 C 0.35664 0.7204 0.22767 0.0
C42 C 0.3537 0.7022 0.21722 0.0
C43 C 0.36644 0.68645 0.22109 0.0
C44 C 0.38209 0.68902 0.23491 0.0
C45 C 0.33718 0.69981 0.20251 0.0
C46 C 0.33381 0.71489 0.18873 0.0
C47 C 0.31739 0.71358 0.17563 0.0
C48 C 0.3042 0.69694 0.1765 0.0
C49 C 0.30746 0.68168 0.1901 0.0
C50 C 0.32414 0.68307 0.20287 0.0
C51 C 0.29272 0.66499 0.19202 0.0
C52 C 0.27254 0.66899 0.19496 0.0
C53 C 0.29878 0.6451 0.19192 0.0
C54 C 0.28492 0.62948 0.19495 0.0
C55 C 0.26486 0.63357 0.19854 0.0
C56 C 0.31384 0.72981 0.16135 0.0
C57 C 0.31636 0.74995 0.16736 0.0
C58 C 0.30798 0.72529 0.14161 0.0
C59 C 0.30479 0.74056 0.12817 0.0
C60 C 0.30732 0.76071 0.13417 0.0
C61 C 0.31311 0.76522 0.15393 0.0
C62 C 0.25877 0.65343 0.19836 0.0
H63 H 0.37363 0.73703 0.24959 0.0
H64 H 0.34678 0.73266 0.22529 0.0
H65 H 0.36452 0.67228 0.21318 0.0
H66 H 0.39196 0.67677 0.23721 0.0
H67 H 0.34412 0.72762 0.18813 0.0
H68 H 0.32636 0.67161 0.21379 0.0
H69 H 0.29119 0.69598 0.16683 0.0
H70 H 0.26753 0.68421 0.19525 0.0
H71 H 0.31427 0.64168 0.18966 0.0
H72 H 0.28996 0.61428 0.19515 0.0
H73 H 0.32064 0.75393 0.18253 0.0
H74 H 0.30607 0.70992 0.13649 0.0
H75 H 0.24336 0.65691 0.20104 0.0
H76 H 0.31533 0.78057 0.15899 0.0
H77 H 0.3001 0.73658 0.11311 0.0
C78 C 0.00245 0.49662 0.1054 0.0
C79 C 0.02287 0.49266 0.10494 0.0
C80 C 0.99039 0.49299 0.08859 0.0
C81 C 0.99848 0.48542 0.07084 0.0
C82 C 0.01894 0.48156 0.07036 0.0
C83 C 0.03098 0.48509 0.08723 0.0
C84 C 0.98545 0.48116 0.05312 0.0
C85 C 0.97009 0.49406 0.04828 0.0
C86 C 0.95658 0.48946 0.03259 0.0
C87 C 0.95927 0.47193 0.02114 0.0
C88 C 0.975 0.45916 0.02528 0.0
C89 C 0.98785 0.46383 0.04142 0.0
C90 C 0.97776 0.44062 0.01316 0.0
C91 C 0.96128 0.4285 0.00712 0.0
C92 C 0.99695 0.43473 0.00784 0.0
C93 C 0.99962 0.41704 0.99693 0.0
C94 C 0.98316 0.4048 0.99108 0.0
C95 C 0.93942 0.50266 0.02866 0.0
C96 C 0.93038 0.51301 0.04442 0.0
C97 C 0.93171 0.5049 0.00929 0.0
C98 C 0.91531 0.51686 0.00589 0.0
C99 C 0.90637 0.5273 0.02168 0.0
C100 C 0.91437 0.52534 0.04095 0.0
C101 C 0.96394 0.41084 0.99619 0.0
H102 H 0.99568 0.50218 0.11889 0.0
H103 H 0.97463 0.49576 0.08964 0.0
H104 H 0.02572 0.47598 0.05688 0.0
H105 H 0.04672 0.48215 0.08632 0.0
H106 H 0.9688 0.50785 0.05677 0.0
H107 H 0.99935 0.45355 0.04532 0.0
H108 H 0.94903 0.46805 0.00906 0.0
H109 H 0.9463 0.43246 0.01111 0.0
H110 H 0.00996 0.44383 0.01207 0.0
H111 H 0.01463 0.41278 0.9934 0.0
H112 H 0.93546 0.51147 0.05963 0.0
H113 H 0.93835 0.49751 0.99665 0.0
H114 H 0.95089 0.40195 0.99169 0.0
H115 H 0.90838 0.53339 0.05354 0.0
H116 H 0.90955 0.51766 0.99084 0.0
C117 C 0.68576 0.76239 0.13755 0.0
C118 C 0.70508 0.75762 0.1315 0.0
C119 C 0.68295 0.77632 0.15299 0.0
C120 C 0.69939 0.78585 0.16265 0.0
C121 C 0.71867 0.78103 0.15659 0.0
C122 C 0.72148 0.76715 0.14121 0.0
C123 C 0.69663 0.80078 0.17898 0.0
C124 C 0.68232 0.79747 0.19382 0.0
C125 C 0.68051 0.81109 0.20984 0.0
C126 C 0.69313 0.8282 0.21082 0.0
C127 C 0.70738 0.83189 0.19605 0.0
C128 C 0.70888 0.81816 0.18012 0.0
C129 C 0.72113 0.84972 0.19763 0.0
C130 C 0.71434 0.86814 0.20481 0.0
C131 C 0.74134 0.84827 0.19261 0.0
C132 C 0.75451 0.8647 0.19512 0.0
C133 C 0.7478 0.88288 0.20287 0.0
C134 C 0.66573 0.80736 0.2258 0.0
C135 C 0.64615 0.80082 0.22106 0.0
C136 C 0.67102 0.81068 0.24591 0.0
C137 C 0.65702 0.80774 0.26092 0.0
C138 C 0.63737 0.80144 0.25619 0.0
C139 C 0.63212 0.79794 0.23608 0.0
C140 C 0.72755 0.88449 0.20749 0.0
H141 H 0.6728 0.7552 0.13051 0.0
H142 H 0.6679 0.7798 0.15721 0.0
H143 H 0.73168 0.78788 0.16387 0.0
H144 H 0.73655 0.76404 0.13679 0.0
H145 H 0.67308 0.78392 0.1933 0.0
H146 H 0.71952 0.8211 0.16843 0.0
H147 H 0.69194 0.8386 0.22325 0.0
H148 H 0.69881 0.86992 0.20844 0.0
H149 H 0.74718 0.83426 0.18733 0.0
H150 H 0.77009 0.86294 0.19167 0.0
H151 H 0.64159 0.79824 0.20571 0.0
H152 H 0.68604 0.8155 0.25008 0.0
H153 H 0.72193 0.89842 0.21326 0.0
H154 H 0.61717 0.79284 0.23194 0.0
H155 H 0.66152 0.8107 0.27623 0.0
C156 C 0.97766 0.97827 0.42954 0.0
C157 C 0.98563 0.98368 0.41108 0.0
C158 C 0.99018 0.97511 0.44585 0.0
C159 C 0.01101 0.97702 0.44403 0.0
C160 C 0.01892 0.98277 0.42558 0.0
C161 C 0.00637 0.98618 0.40935 0.0
C162 C 0.02443 0.97255 0.46111 0.0
C163 C 0.01959 0.95689 0.47411 0.0
C164 C 0.03254 0.95216 0.48972 0.0
C165 C 0.05036 0.9633 0.49259 0.0
C166 C 0.05537 0.97904 0.47993 0.0
C167 C 0.04241 0.98357 0.46424 0.0
C168 C 0.07429 0.99065 0.48299 0.0
C169 C 0.07898 0.99947 0.50161 0.0
C170 C 0.08779 0.99288 0.46733 0.0
C171 C 0.10575 0.00365 0.47025 0.0
C172 C 0.11046 0.01282 0.48882 0.0
C173 C 0.02784 0.93506 0.50263 0.0
C174 C 0.01063 0.93477 0.51435 0.0
C175 C 0.04067 0.91893 0.50332 0.0
C176 C 0.03627 0.90264 0.51539 0.0
C177 C 0.01921 0.90244 0.52732 0.0
C178 C 0.00648 0.91868 0.52681 0.0
C179 C 0.09677 0.01059 0.50445 0.0
H180 H 0.9617 0.97645 0.43136 0.0
H181 H 0.98348 0.97115 0.45989 0.0
H182 H 0.03486 0.98408 0.42345 0.0
H183 H 0.01294 0.99008 0.39523 0.0
H184 H 0.00612 0.94784 0.4717 0.0
H185 H 0.04625 0.99594 0.4547 0.0
H186 H 0.06043 0.95958 0.50458 0.0
H187 H 0.0687 0.99806 0.51387 0.0
H188 H 0.08457 0.98599 0.4529 0.0
H189 H 0.11601 0.00458 0.45795 0.0
H190 H 1.00057 0.94711 0.51404 0.0
H191 H 0.05399 0.91885 0.49435 0.0
H192 H 0.09955 0.01771 0.51883 0.0
H193 H 0.99321 0.91878 0.53585 0.0
H194 H 0.04633 0.89031 0.51562 0.0
C195 C 0.14063 0.68492 0.76424 0.0
C196 C 0.13555 0.70406 0.75798 0.0
C197 C 0.15608 0.68257 0.77804 0.0
C198 C 0.16678 0.6993 0.78592 0.0
C199 C 0.16192 0.71838 0.77938 0.0
C200 C 0.14649 0.72073 0.76565 0.0
C201 C 0.18258 0.69704 0.80133 0.0
C202 C 0.19635 0.68166 0.79985 0.0
C203 C 0.21153 0.67989 0.81426 0.0
C204 C 0.21253 0.69349 0.83046 0.0
C205 C 0.19901 0.70897 0.83204 0.0
C206 C 0.1841 0.71062 0.8175 0.0
C207 C 0.20098 0.72401 0.84841 0.0
C208 C 0.2022 0.7181 0.86832 0.0
C209 C 0.20205 0.74443 0.84408 0.0
C210 C 0.20474 0.7587 0.85934 0.0
C211 C 0.20604 0.75283 0.87925 0.0
C212 C 0.22686 0.66443 0.81202 0.0
C213 C 0.22155 0.64483 0.80576 0.0
C214 C 0.24705 0.66927 0.81599 0.0
C215 C 0.26157 0.65491 0.81371 0.0
C216 C 0.25629 0.63533 0.8074 0.0
C217 C 0.23608 0.63044 0.80351 0.0
C218 C 0.20451 0.73242 0.88365 0.0
H219 H 0.13268 0.67173 0.75846 0.0
H220 H 0.15937 0.66767 0.78285 0.0
H221 H 0.17005 0.73158 0.78491 0.0
H222 H 0.14289 0.73571 0.76136 0.0
H223 H 0.19572 0.67155 0.78708 0.0
H224 H 0.17348 0.72242 0.81899 0.0
H225 H 0.22409 0.69229 0.8417 0.0
H226 H 0.20134 0.70243 0.872 0.0
H227 H 0.20126 0.74934 0.82882 0.0
H228 H 0.20581 0.77436 0.85561 0.0
H229 H 0.20612 0.64058 0.80271 0.0
H230 H 0.25171 0.68427 0.8206 0.0
H231 H 0.20561 0.72755 0.89889 0.0
H232 H 0.23152 0.61556 0.79842 0.0
H233 H 0.27694 0.65915 0.81702 0.0
C234 C 0.99285 0.60669 0.50051 0.0
C235 C 0.99412 0.60531 0.52131 0.0
C236 C 0.98953 0.58957 0.48863 0.0
C237 C 0.98716 0.57074 0.49731 0.0
C238 C 0.98834 0.56933 0.51812 0.0
C239 C 0.99196 0.58646 0.53001 0.0
C240 C 0.98335 0.55271 0.48455 0.0
C241 C 0.99499 0.54947 0.46761 0.0
C242 C 0.99091 0.53311 0.45471 0.0
C243 C 0.97489 0.51996 0.45883 0.0
C244 C 0.96288 0.52313 0.47559 0.0
C245 C 0.96746 0.53933 0.4886 0.0
C246 C 0.94464 0.5105 0.47855 0.0
C247 C 0.93152 0.5065 0.46251 0.0
C248 C 0.93988 0.50289 0.49732 0.0
C249 C 0.92245 0.49124 0.4999 0.0
C250 C 0.90932 0.48714 0.48378 0.0
C251 C 0.00288 0.53043 0.43645 0.0
C252 C 0.0068 0.54673 0.42412 0.0
C253 C 0.0106 0.51178 0.4313 0.0
C254 C 0.02251 0.50965 0.41442 0.0
C255 C 0.02678 0.5261 0.40227 0.0
C256 C 0.01848 0.54457 0.4072 0.0
C257 C 0.91406 0.49509 0.4651 0.0
H258 H 0.99456 0.62102 0.49341 0.0
H259 H 0.98853 0.5911 0.47264 0.0
H260 H 0.98663 0.55498 0.52516 0.0
H261 H 0.99273 0.58501 0.54602 0.0
H262 H 0.00735 0.55969 0.46452 0.0
H263 H 0.958 0.54215 0.50127 0.0
H264 H 0.97141 0.50755 0.44869 0.0
H265 H 0.93455 0.51256 0.44797 0.0
H266 H 0.94978 0.50573 0.50994 0.0
H267 H 0.91941 0.48523 0.51444 0.0
H268 H 1.00071 0.56118 0.42751 0.0
H269 H 0.00783 0.49898 0.4406 0.0
H270 H 0.90411 0.49278 0.45245 0.0
H271 H 0.02093 0.55745 0.39793 0.0
H272 H 0.02875 0.49525 0.4112 0.0
C273 C 0.823 0.76813 0.87178 0.0
C274 C 0.80368 0.76002 0.87451 0.0
C275 C 0.82632 0.78362 0.85834 0.0
C276 C 0.81037 0.7914 0.84753 0.0
C277 C 0.79106 0.78346 0.85057 0.0
C278 C 0.78776 0.76804 0.8639 0.0
C279 C 0.81367 0.80723 0.83255 0.0
C280 C 0.82948 0.80615 0.81906 0.0
C281 C 0.83132 0.81978 0.80346 0.0
C282 C 0.81729 0.83483 0.80166 0.0
C283 C 0.80147 0.83626 0.81511 0.0
C284 C 0.79996 0.82255 0.83063 0.0
C285 C 0.78582 0.85124 0.81229 0.0
C286 C 0.79086 0.87095 0.80704 0.0
C287 C 0.76559 0.84573 0.81443 0.0
C288 C 0.75076 0.85954 0.81127 0.0
C289 C 0.75576 0.87922 0.8059 0.0
C290 C 0.84685 0.81714 0.7881 0.0
C291 C 0.86655 0.81305 0.79355 0.0
C292 C 0.84175 0.81758 0.76778 0.0
C293 C 0.85584 0.81334 0.75326 0.0
C294 C 0.8754 0.80871 0.7587 0.0
C295 C 0.88072 0.80899 0.77899 0.0
C296 C 0.776 0.8848 0.80393 0.0
H297 H 0.83557 0.76223 0.8797 0.0
H298 H 0.84136 0.7895 0.85641 0.0
H299 H 0.77845 0.78888 0.84232 0.0
H300 H 0.77265 0.76237 0.86587 0.0
H301 H 0.8397 0.79398 0.81998 0.0
H302 H 0.78793 0.8237 0.84119 0.0
H303 H 0.81839 0.8451 0.78941 0.0
H304 H 0.80631 0.8757 0.8054 0.0
H305 H 0.76116 0.8306 0.8182 0.0
H306 H 0.73534 0.85479 0.81311 0.0
H307 H 0.87092 0.81272 0.80909 0.0
H308 H 0.82665 0.8205 0.76311 0.0
H309 H 0.78037 0.89979 0.79961 0.0
H310 H 0.89564 0.80534 0.78363 0.0
H311 H 0.85135 0.81337 0.73774 0.0
C312 C 0.31989 0.26983 0.37519 0.0
C313 C 0.3004 0.26244 0.37848 0.0
C314 C 0.32377 0.2832 0.3598 0.0
C315 C 0.30822 0.28942 0.34741 0.0
C316 C 0.28886 0.28161 0.35044 0.0
C317 C 0.28501 0.26831 0.36574 0.0
C318 C 0.31195 0.30412 0.33145 0.0
C319 C 0.32852 0.30263 0.31899 0.0
C320 C 0.33157 0.31601 0.30331 0.0
C321 C 0.31776 0.3311 0.3003 0.0
C322 C 0.30105 0.33277 0.31261 0.0
C323 C 0.29843 0.31934 0.32823 0.0
C324 C 0.28596 0.34814 0.30896 0.0
C325 C 0.29177 0.36783 0.30435 0.0
C326 C 0.26552 0.34316 0.31024 0.0
C327 C 0.25124 0.35754 0.30714 0.0
C328 C 0.25701 0.37728 0.30266 0.0
C329 C 0.34865 0.31351 0.28959 0.0
C330 C 0.36736 0.30811 0.29697 0.0
C331 C 0.34616 0.31554 0.26892 0.0
C332 C 0.36178 0.3116 0.25592 0.0
C333 C 0.38021 0.30544 0.26329 0.0
C334 C 0.38293 0.30408 0.28397 0.0
C335 C 0.27745 0.38225 0.30128 0.0
H336 H 0.33205 0.26566 0.3848 0.0
H337 H 0.33883 0.28902 0.3579 0.0
H338 H 0.27664 0.28571 0.34086 0.0
H339 H 0.26991 0.26252 0.36753 0.0
H340 H 0.33862 0.2905 0.32101 0.0
H341 H 0.28584 0.32086 0.33808 0.0
H342 H 0.31986 0.34137 0.28818 0.0
H343 H 0.30738 0.37218 0.30339 0.0
H344 H 0.26053 0.32807 0.31351 0.0
H345 H 0.23565 0.35322 0.3085 0.0
H346 H 0.36993 0.30679 0.31282 0.0
H347 H 0.33189 0.31942 0.26268 0.0
H348 H 0.28241 0.39726 0.29763 0.0
H349 H 0.39706 0.29967 0.29012 0.0
H350 H 0.35914 0.31256 0.24005 0.0
C351 C 0.49763 0.99256 0.60453 0.0
C352 C 0.51815 0.98905 0.60417 0.0
C353 C 0.48577 0.98901 0.58756 0.0
C354 C 0.49416 0.98194 0.56976 0.0
C355 C 0.51469 0.97838 0.56943 0.0
C356 C 0.52654 0.98184 0.58644 0.0
C357 C 0.48151 0.97824 0.55167 0.0
C358 C 0.46635 0.99136 0.5468 0.0
C359 C 0.45397 0.98775 0.53004 0.0
C360 C 0.45719 0.97087 0.51786 0.0
C361 C 0.47236 0.95759 0.5224 0.0
C362 C 0.48437 0.9614 0.53937 0.0
C363 C 0.47535 0.93939 0.50984 0.0
C364 C 0.45894 0.92791 0.50249 0.0
C365 C 0.49466 0.93304 0.50554 0.0
C366 C 0.49747 0.91549 0.49445 0.0
C367 C 0.48104 0.90386 0.48737 0.0
C368 C 0.43749 1.00145 0.52557 0.0
C369 C 0.42591 0.00921 0.54106 0.0
C370 C 0.43316 0.00687 0.5059 0.0
C371 C 0.4177 0.01983 0.50187 0.0
C372 C 0.40626 0.0277 0.51742 0.0
C373 C 0.41053 0.02217 0.53704 0.0
C374 C 0.46175 0.9104 0.49138 0.0
H375 H 0.49066 0.99782 0.61803 0.0
H376 H 0.46996 0.99156 0.58847 0.0
H377 H 0.52171 0.97321 0.55591 0.0
H378 H 0.54235 0.97925 0.58559 0.0
H379 H 0.46437 0.00465 0.55592 0.0
H380 H 0.49558 0.95085 0.54339 0.0
H381 H 0.44774 0.96796 0.50492 0.0
H382 H 0.44387 0.93223 0.50567 0.0
H383 H 0.50764 0.94164 0.51077 0.0
H384 H 0.51253 0.91085 0.49178 0.0
H385 H 0.42854 0.00504 0.55633 0.0
H386 H 0.44193 1.00137 0.49364 0.0
H387 H 0.44875 0.90199 0.48591 0.0
H388 H 0.40177 0.02763 0.54933 0.0
H389 H 0.41493 0.02394 0.48661 0.0
C390 C 0.18377 0.25805 0.64464 0.0
C391 C 0.20289 0.25218 0.63902 0.0
C392 C 0.1814 0.27268 0.65949 0.0
C393 C 0.19809 0.28179 0.66908 0.0
C394 C 0.21719 0.27568 0.66368 0.0
C395 C 0.21956 0.26111 0.64882 0.0
C396 C 0.19569 0.29786 0.6844 0.0
C397 C 0.1805 0.29645 0.69866 0.0
C398 C 0.1785 0.31145 0.71339 0.0
C399 C 0.19165 0.32817 0.71349 0.0
C400 C 0.20695 0.3297 0.69949 0.0
C401 C 0.20888 0.31457 0.68502 0.0
C402 C 0.22167 0.34656 0.70076 0.0
C403 C 0.21547 0.3664 0.70123 0.0
C404 C 0.24206 0.34276 0.70242 0.0
C405 C 0.25596 0.35849 0.70522 0.0
C406 C 0.24975 0.37831 0.70597 0.0
C407 C 0.1633 0.30926 0.72924 0.0
C408 C 0.14383 0.30229 0.72464 0.0
C409 C 0.16832 0.31385 0.7492 0.0
C410 C 0.15426 0.31142 0.76422 0.0
C411 C 0.1348 0.30437 0.75966 0.0
C412 C 0.12971 0.29993 0.73968 0.0
C413 C 0.22945 0.3822 0.7036 0.0
H414 H 0.17059 0.25131 0.6376 0.0
H415 H 0.16648 0.27712 0.66318 0.0
H416 H 0.23037 0.28215 0.67097 0.0
H417 H 0.23452 0.25716 0.64476 0.0
H418 H 0.17073 0.28329 0.69878 0.0
H419 H 0.22058 0.31598 0.67409 0.0
H420 H 0.19029 0.33983 0.72475 0.0
H421 H 0.19981 0.36965 0.69994 0.0
H422 H 0.24716 0.32757 0.70223 0.0
H423 H 0.27156 0.3552 0.70705 0.0
H424 H 0.13946 0.29874 0.7094 0.0
H425 H 0.18326 0.31903 0.75328 0.0
H426 H 0.22437 0.39739 0.70429 0.0
H427 H 0.11491 0.29428 0.73568 0.0
H428 H 0.15861 0.31515 0.77942 0.0
C429 C 0.86584 0.22548 0.74567 0.0
C430 C 0.87836 0.20955 0.7497 0.0
C431 C 0.85051 0.22329 0.7316 0.0
C432 C 0.84715 0.20507 0.72132 0.0
C433 C 0.85939 0.18899 0.72549 0.0
C434 C 0.87489 0.19123 0.73949 0.0
C435 C 0.83071 0.20294 0.70648 0.0
C436 C 0.82773 0.218 0.69258 0.0
C437 C 0.81148 0.21684 0.67925 0.0
C438 C 0.79805 0.20038 0.68005 0.0
C439 C 0.80092 0.18514 0.69377 0.0
C440 C 0.81741 0.18639 0.70677 0.0
C441 C 0.78608 0.16848 0.6954 0.0
C442 C 0.76583 0.17248 0.69784 0.0
C443 C 0.79214 0.1486 0.69551 0.0
C444 C 0.7782 0.13298 0.69823 0.0
C445 C 0.75805 0.13705 0.7013 0.0
C446 C 0.80848 0.23294 0.6647 0.0
C447 C 0.81133 0.25312 0.67045 0.0
C448 C 0.80292 0.22826 0.64492 0.0
C449 C 0.80037 0.2434 0.63117 0.0
C450 C 0.80327 0.26358 0.6369 0.0
C451 C 0.80874 0.26826 0.65672 0.0
C452 C 0.75197 0.15691 0.70093 0.0
H453 H 0.86771 0.23965 0.75358 0.0
H454 H 0.84105 0.23582 0.72899 0.0
H455 H 0.85717 0.17479 0.71769 0.0
H456 H 0.88435 0.1787 0.74205 0.0
H457 H 0.83826 0.23055 0.69201 0.0
H458 H 0.81934 0.17494 0.71775 0.0
H459 H 0.7852 0.19951 0.67016 0.0
H460 H 0.76083 0.1877 0.69796 0.0
H461 H 0.80768 0.14517 0.69361 0.0
H462 H 0.78326 0.11779 0.69858 0.0
H463 H 0.81542 0.25723 0.68564 0.0
H464 H 0.80076 0.21286 0.63998 0.0
H465 H 0.73649 0.1604 0.70319 0.0
H466 H 0.81123 0.28364 0.66158 0.0
H467 H 0.79591 0.23928 0.61608 0.0
C468 C 0.52632 0.59107 0.48902 0.0
C469 C 0.52479 0.61056 0.49679 0.0
C470 C 0.53138 0.57543 0.50141 0.0
C471 C 0.53462 0.57892 0.52187 0.0
C472 C 0.53289 0.59838 0.5297 0.0
C473 C 0.52822 0.6141 0.51723 0.0
C474 C 0.53983 0.56229 0.53499 0.0
C475 C 0.55555 0.54983 0.53 0.0
C476 C 0.56067 0.53404 0.54235 0.0
C477 C 0.54951 0.53052 0.55961 0.0
C478 C 0.53355 0.54269 0.5647 0.0
C479 C 0.52901 0.55873 0.55242 0.0
C480 C 0.5213 0.53829 0.5825 0.0
C481 C 0.51502 0.51858 0.58649 0.0
C482 C 0.51551 0.55373 0.59545 0.0
C483 C 0.50369 0.54956 0.61199 0.0
C484 C 0.49727 0.52984 0.61592 0.0
C485 C 0.57776 0.52135 0.53732 0.0
C486 C 0.58052 0.51436 0.51772 0.0
C487 C 0.59154 0.51624 0.55209 0.0
C488 C 0.60772 0.50443 0.54738 0.0
C489 C 0.61047 0.49733 0.52779 0.0
C490 C 0.59664 0.50245 0.51302 0.0
C491 C 0.50312 0.51441 0.60294 0.0
H492 H 0.52386 0.58798 0.47329 0.0
H493 H 0.53253 0.56053 0.49504 0.0
H494 H 0.53541 0.60145 0.54541 0.0
H495 H 0.52703 0.62898 0.52359 0.0
H496 H 0.56414 0.55281 0.51675 0.0
H497 H 0.51659 0.56807 0.55604 0.0
H498 H 0.55321 0.51823 0.56908 0.0
H499 H 0.51896 0.50639 0.57662 0.0
H500 H 0.5203 0.56905 0.5929 0.0
H501 H 0.49976 0.56178 0.62181 0.0
H502 H 0.57002 0.51785 0.50605 0.0
H503 H 0.59 0.52165 0.56727 0.0
H504 H 0.49817 0.4991 0.60524 0.0
H505 H 0.59806 0.497 0.49784 0.0
H506 H 0.61824 0.50112 0.55908 0.0
C507 C 0.47621 0.47963 0.92797 0.0
C508 C 0.48447 0.48731 0.91046 0.0
C509 C 0.48817 0.47678 0.94476 0.0
C510 C 0.50876 0.48131 0.94436 0.0
C511 C 0.51694 0.48921 0.92685 0.0
C512 C 0.50492 0.4923 0.91015 0.0
C513 C 0.52168 0.47755 0.96201 0.0
C514 C 0.51827 0.46058 0.97372 0.0
C515 C 0.53043 0.45683 0.99034 0.0
C516 C 0.54644 0.47024 0.99488 0.0
C517 C 0.55052 0.48691 0.98304 0.0
C518 C 0.53779 0.49065 0.96692 0.0
C519 C 0.56869 0.49977 0.98689 0.0
C520 C 0.57521 0.50444 0.00643 0.0
C521 C 0.58024 0.50667 0.97092 0.0
C522 C 0.59798 0.51763 0.97439 0.0
C523 C 0.60479 0.52184 0.99391 0.0
C524 C 0.52677 0.43874 0.00269 0.0
C525 C 0.50733 0.43105 0.0058 0.0
C526 C 0.54275 0.42905 0.01167 0.0
C527 C 0.53939 0.41258 0.02375 0.0
C528 C 0.51998 0.40477 0.0268 0.0
C529 C 0.504 0.4142 0.01749 0.0
C530 C 0.59307 0.51529 0.00989 0.0
H531 H 0.46044 0.47584 0.92869 0.0
H532 H 0.48124 0.47106 0.95806 0.0
H533 H 0.53277 0.49257 0.92581 0.0
H534 H 0.51174 0.49797 0.89677 0.0
H535 H 0.50648 0.44994 0.96947 0.0
H536 H 0.5404 0.50393 0.95825 0.0
H537 H 0.55604 0.46755 0.0075 0.0
H538 H 0.56658 0.49961 0.01909 0.0
H539 H 0.57584 0.50319 0.95568 0.0
H540 H 0.60639 0.52275 0.96169 0.0
H541 H 0.49456 0.43814 0.9994 0.0
H542 H 0.558 0.43408 0.00936 0.0
H543 H 0.59787 0.51813 0.02513 0.0
H544 H 0.48884 0.40857 0.01909 0.0
H545 H 0.55216 0.40619 0.03087 0.0
C546 C 0.63879 0.18626 0.26645 0.0
C547 C 0.63603 0.20487 0.25753 0.0
C548 C 0.65419 0.18383 0.28028 0.0
C549 C 0.66693 0.20002 0.28574 0.0
C550 C 0.66435 0.21854 0.27683 0.0
C551 C 0.64922 0.22089 0.26275 0.0
C552 C 0.68268 0.19782 0.30103 0.0
C553 C 0.69676 0.18287 0.29905 0.0
C554 C 0.71208 0.1812 0.31326 0.0
C555 C 0.71296 0.19453 0.32967 0.0
C556 C 0.69882 0.20944 0.33201 0.0
C557 C 0.68375 0.21097 0.31752 0.0
C558 C 0.70003 0.22361 0.34936 0.0
C559 C 0.70588 0.21705 0.36824 0.0
C560 C 0.69566 0.24387 0.34713 0.0
C561 C 0.69737 0.25726 0.36329 0.0
C562 C 0.70368 0.25075 0.38199 0.0
C563 C 0.72758 0.166 0.31074 0.0
C564 C 0.73402 0.15494 0.32704 0.0
C565 C 0.73643 0.16283 0.29212 0.0
C566 C 0.75154 0.14908 0.28991 0.0
C567 C 0.75807 0.13809 0.30624 0.0
C568 C 0.74905 0.14109 0.3248 0.0
C569 C 0.70779 0.23049 0.38434 0.0
H570 H 0.62881 0.17363 0.26312 0.0
H571 H 0.65584 0.16943 0.28708 0.0
H572 H 0.67417 0.23118 0.28066 0.0
H573 H 0.648 0.2353 0.2559 0.0
H574 H 0.6959 0.17269 0.28632 0.0
H575 H 0.67256 0.22219 0.31919 0.0
H576 H 0.72512 0.19368 0.34031 0.0
H577 H 0.70896 0.2015 0.37063 0.0
H578 H 0.69143 0.24955 0.33276 0.0
H579 H 0.69436 0.27285 0.36101 0.0
H580 H 0.72738 0.15694 0.34155 0.0
H581 H 0.73193 0.17125 0.27932 0.0
H582 H 0.71248 0.22503 0.39866 0.0
H583 H 0.75382 0.13296 0.3377 0.0
H584 H 0.75802 0.14694 0.27535 0.0
C585 C 0.49106 0.10894 0.99776 0.0
C586 C 0.49269 0.10798 0.01856 0.0
C587 C 0.48782 0.09154 0.98626 0.0
C588 C 0.48581 0.07289 0.99537 0.0
C589 C 0.48742 0.07191 0.01619 0.0
C590 C 0.49103 0.0893 0.02767 0.0
C591 C 0.48156 0.05462 0.98313 0.0
C592 C 0.493 0.05057 0.96625 0.0
C593 C 0.48833 0.03402 0.95374 0.0
C594 C 0.47199 0.02142 0.95841 0.0
C595 C 0.4602 0.02537 0.97517 0.0
C596 C 0.46531 0.04187 0.98761 0.0
C597 C 0.44166 0.0133 0.97878 0.0
C598 C 0.42894 0.00766 0.96281 0.0
C599 C 0.43604 0.00814 0.99819 0.0
C600 C 0.41795 0.99785 1.00154 0.0
C601 C 0.40507 0.99259 0.98556 0.0
C602 C 0.49983 0.03059 0.93522 0.0
C603 C 0.50534 0.04676 0.92323 0.0
C604 C 0.50505 0.01124 0.92917 0.0
C605 C 0.5155 0.00816 0.91149 0.0
C606 C 0.52084 0.02436 0.89942 0.0
C607 C 0.51572 0.0437 0.9056 0.0
C608 C 0.41092 0.99741 0.96615 0.0
H609 H 0.49238 0.12315 0.99038 0.0
H610 H 0.48648 0.0927 0.97025 0.0
H611 H 0.48597 0.0577 0.02354 0.0
H612 H 0.4921 0.0882 0.04371 0.0
H613 H 0.50561 0.06037 0.96289 0.0
H614 H 0.45603 0.04547 1.00021 0.0
H615 H 0.46808 0.00882 0.94866 0.0
H616 H 0.43264 0.01161 0.9477 0.0
H617 H 0.44558 0.01214 0.01081 0.0
H618 H 0.41386 0.99444 0.01667 0.0
H619 H 0.50135 0.06183 0.9273 0.0
H620 H 0.50116 0.99847 0.93816 0.0
H621 H 0.40152 0.9933 0.95346 0.0
H622 H 0.51985 0.05656 0.89684 0.0
H623 H 0.51912 0.99307 0.9071 0.0
Mn624 Mn 0.25257 0.87737 0.00814 0.0
Mn625 Mn 0.2482 0.89411 0.96127 0.0
C626 C 0.23696 0.85759 0.98377 0.0
C627 C 0.26962 0.86063 0.03279 0.0
C628 C 0.22267 0.90842 0.99534 0.0
O629 O 0.27345 0.90008 0.00752 0.0
O630 O 0.27012 0.90918 0.97551 0.0
C631 C 0.28668 0.88097 0.94523 0.0
N632 N 0.26641 0.88078 0.94425 0.0
C633 C 0.2661 0.85954 0.91497 0.0
C634 C 0.28698 0.85961 0.91559 0.0
C635 C 0.2973 0.87034 0.93081 0.0
C636 C 0.25633 0.87052 0.92966 0.0
H637 H 0.29467 0.88914 0.95694 0.0
C638 C 0.27853 0.91074 0.99271 0.0
O639 O 0.25652 0.87382 0.03721 0.0
O640 O 0.27337 0.85774 0.01407 0.0
N641 N 0.2277 0.88049 0.94586 0.0
C642 C 0.20758 0.8808 0.94821 0.0
C643 C 0.19507 0.87015 0.93465 0.0
C644 C 0.20336 0.8594 0.91877 0.0
C645 C 0.2241 0.85942 0.91658 0.0
C646 C 0.23581 0.87041 0.93048 0.0
H647 H 0.20113 0.88899 0.96042 0.0
O648 O 0.23312 0.85472 0.00241 0.0
O649 O 0.24958 0.87208 0.98 0.0
O650 O 0.2301 0.89733 0.00853 0.0
O651 O 0.22853 0.90852 0.97732 0.0
C652 C 0.23362 0.8486 0.90142 0.0
C653 C 0.2546 0.84864 0.90062 0.0
H654 H 0.29522 0.85132 0.90458 0.0
H655 H 0.31341 0.87038 0.93145 0.0
H656 H 0.17908 0.87017 0.93647 0.0
H657 H 0.19367 0.85105 0.90846 0.0
H658 H 0.22494 0.8399 0.8905 0.0
H659 H 0.26175 0.83999 0.88909 0.0
Mn660 Mn 0.14264 0.50704 0.25311 0.0
Mn661 Mn 0.12941 0.55516 0.25019 0.0
C662 C 0.16308 0.53008 0.23725 0.0
C663 C 0.15872 0.48144 0.26922 0.0
C664 C 0.11086 0.52172 0.22445 0.0
O665 O 0.12129 0.50923 0.27451 0.0
O666 O 0.11541 0.54212 0.27259 0.0
C667 C 0.14711 0.57078 0.28809 0.0
N668 N 0.14546 0.57161 0.26791 0.0
C669 C 0.16816 0.60005 0.26698 0.0
C670 C 0.16998 0.5996 0.28777 0.0
C671 C 0.15945 0.58486 0.29835 0.0
C672 C 0.15557 0.58568 0.25757 0.0
H673 H 0.13911 0.55943 0.29628 0.0
C674 C 0.11279 0.52502 0.28059 0.0
O675 O 0.14439 0.47768 0.25648 0.0
O676 O 0.16304 0.50008 0.27329 0.0
N677 N 0.1422 0.56958 0.2293 0.0
C678 C 0.13988 0.56711 0.20923 0.0
C679 C 0.15003 0.58018 0.19644 0.0
C680 C 0.16231 0.59574 0.2044 0.0
C681 C 0.16432 0.59809 0.2251 0.0
C682 C 0.15378 0.58466 0.23711 0.0
H683 H 0.13044 0.5552 0.20302 0.0
O684 O 0.16436 0.51116 0.2332 0.0
O685 O 0.14989 0.53492 0.25036 0.0
O686 O 0.12147 0.50781 0.23108 0.0
O687 O 0.11228 0.53973 0.23099 0.0
C688 C 0.17671 0.61298 0.23428 0.0
C689 C 0.17866 0.61393 0.2552 0.0
H690 H 0.17956 0.61037 0.29573 0.0
H691 H 0.16088 0.58434 0.31439 0.0
H692 H 0.14841 0.57825 0.18048 0.0
H693 H 0.17024 0.60568 0.19449 0.0
H694 H 0.18507 0.62355 0.22537 0.0
H695 H 0.1885 0.62522 0.26206 0.0
Mn696 Mn 0.75671 0.62789 0.00322 0.0
Mn697 Mn 0.71358 0.64052 0.98107 0.0
C698 C 0.72845 0.60749 0.00608 0.0
C699 C 0.78741 0.61252 0.00267 0.0
C700 C 0.72962 0.66023 0.01922 0.0
O701 O 0.76577 0.64917 0.98349 0.0
O702 O 0.7365 0.6538 0.96778 0.0
C703 C 0.71937 0.62047 0.942 0.0
N704 N 0.70816 0.62333 0.95854 0.0
C705 C 0.68259 0.60032 0.94612 0.0
C706 C 0.69375 0.59731 0.92885 0.0
C707 C 0.71226 0.60737 0.92683 0.0
C708 C 0.69045 0.61353 0.96075 0.0
H709 H 0.73365 0.62809 0.94045 0.0
C710 C 0.75532 0.65692 0.9698 0.0
O711 O 0.78378 0.62685 0.01525 0.0
O712 O 0.77344 0.60753 0.98989 0.0
N713 N 0.69 0.62864 0.9922 0.0
C714 C 0.68138 0.6327 0.01005 0.0
C715 C 0.66288 0.62362 0.01454 0.0
C716 C 0.65333 0.61067 1.00056 0.0
C717 C 0.66233 0.60697 0.98217 0.0
C718 C 0.68072 0.61654 0.97848 0.0
H719 H 0.68855 0.64276 0.0208 0.0
O720 O 0.74302 0.6063 0.01874 0.0
O721 O 0.73095 0.62028 0.99196 0.0
O722 O 0.74469 0.64927 0.02105 0.0
O723 O 0.7175 0.65874 0.00446 0.0
C724 C 0.65393 0.59392 0.96749 0.0
C725 C 0.6641 0.59052 0.94952 0.0
H726 H 0.68834 0.58719 0.91712 0.0
H727 H 0.72104 0.60501 0.91361 0.0
H728 H 0.65601 0.62659 0.02875 0.0
H729 H 0.63914 0.60358 0.00414 0.0
H730 H 0.63981 0.58618 0.96999 0.0
H731 H 0.65764 0.58022 0.93847 0.0
Mn732 Mn 0.87308 0.00802 0.25907 0.0
Mn733 Mn 0.88574 0.95982 0.25416 0.0
C734 C 0.85267 0.98544 0.24139 0.0
C735 C 0.8571 0.03358 0.27598 0.0
C736 C 0.90524 0.99343 0.23088 0.0
O737 O 0.8941 0.0052 0.28098 0.0
O738 O 0.89936 0.97217 0.27791 0.0
C739 C 0.86651 0.94404 0.29035 0.0
N740 N 0.86874 0.9435 0.27023 0.0
C741 C 0.8446 0.91636 0.26666 0.0
C742 C 0.84221 0.91649 0.28737 0.0
C743 C 0.85318 0.93043 0.29925 0.0
C744 C 0.85816 0.93023 0.25864 0.0
H745 H 0.87478 0.95483 0.29954 0.0
C746 C 0.90213 0.98919 0.28673 0.0
O747 O 0.87163 0.03734 0.26386 0.0
O748 O 0.85252 0.01493 0.27899 0.0
N749 N 0.87321 0.9461 0.23191 0.0
C750 C 0.87651 0.94857 0.21212 0.0
C751 C 0.86631 0.9361 0.19816 0.0
C752 C 0.8529 0.92117 0.20469 0.0
C753 C 0.8499 0.91877 0.22513 0.0
C754 C 0.86063 0.93152 0.23836 0.0
H755 H 0.88679 0.96001 0.20699 0.0
O756 O 0.85156 0.00443 0.2383 0.0
O757 O 0.86564 0.98035 0.25463 0.0
O758 O 0.89448 0.00726 0.23773 0.0
O759 O 0.90371 0.97534 0.23653 0.0
C760 C 0.83643 0.90446 0.23289 0.0
C761 C 0.83375 0.90328 0.25364 0.0
H762 H 0.83186 0.90609 0.29428 0.0
H763 H 0.85131 0.93072 0.31523 0.0
H764 H 0.86871 0.93805 0.18241 0.0
H765 H 0.8449 0.91172 0.19387 0.0
H766 H 0.82784 0.89448 0.22302 0.0
H767 H 0.82312 0.89242 0.25941 0.0
Mn768 Mn 0.25611 0.1277 0.50495 0.0
Mn769 Mn 0.21214 0.14146 0.48526 0.0
C770 C 0.22856 0.10612 0.50559 0.0
C771 C 0.28732 0.11339 0.50272 0.0
C772 C 0.22759 0.15653 0.52536 0.0
O773 O 0.26447 0.15107 0.48747 0.0
O774 O 0.23434 0.15846 0.47505 0.0
C775 C 0.21946 0.12934 0.44344 0.0
N776 N 0.208 0.12832 0.46003 0.0
C777 C 0.18371 0.10677 0.44321 0.0
C778 C 0.1952 0.10767 0.4259 0.0
C779 C 0.21318 0.11895 0.42605 0.0
C780 C 0.19075 0.11741 0.4601 0.0
H781 H 0.23326 0.13802 0.4435 0.0
C782 C 0.25322 0.16143 0.47655 0.0
O783 O 0.28335 0.12639 0.51654 0.0
O784 O 0.27333 0.10913 0.48972 0.0
N785 N 0.18917 0.12638 0.49364 0.0
C786 C 0.18032 0.12634 0.51181 0.0
C787 C 0.1624 0.11539 0.51433 0.0
C788 C 0.1536 0.10484 0.4981 0.0
C789 C 0.16282 0.10537 0.47947 0.0
C790 C 0.18065 0.11657 0.47785 0.0
H791 H 0.18695 0.13454 0.52431 0.0
O792 O 0.24312 0.10425 0.51817 0.0
O793 O 0.23049 0.12052 0.49297 0.0
O794 O 0.24372 0.14696 0.52507 0.0
O795 O 0.21472 0.1555 0.51126 0.0
C796 C 0.15521 0.09491 0.46253 0.0
C797 C 0.1657 0.09553 0.44444 0.0
H798 H 0.19042 0.09966 0.41246 0.0
H799 H 0.22216 0.11965 0.41278 0.0
H800 H 0.15536 0.11508 0.52875 0.0
H801 H 0.13986 0.09629 0.50013 0.0
H802 H 0.14146 0.08611 0.46333 0.0
H803 H 0.15986 0.08718 0.43161 0.0
Mn804 Mn 0.37323 0.50737 0.75707 0.0
Mn805 Mn 0.38763 0.45973 0.75165 0.0
C806 C 0.35327 0.48404 0.73974 0.0
C807 C 0.3565 0.53239 0.77409 0.0
C808 C 0.40565 0.49415 0.72844 0.0
O809 O 0.39453 0.50516 0.77888 0.0
O810 O 0.40117 0.47247 0.7752 0.0
C811 C 0.37019 0.44256 0.78811 0.0
N812 N 0.37186 0.44244 0.76792 0.0
C813 C 0.3498 0.41357 0.76462 0.0
C814 C 0.34799 0.41329 0.78538 0.0
C815 C 0.35817 0.42789 0.79716 0.0
C816 C 0.36205 0.42852 0.75644 0.0
H817 H 0.37794 0.45378 0.79722 0.0
C818 C 0.40331 0.48941 0.78428 0.0
O819 O 0.37086 0.53659 0.76192 0.0
O820 O 0.35253 0.51362 0.77712 0.0
N821 N 0.37516 0.44574 0.72955 0.0
C822 C 0.37735 0.44898 0.70972 0.0
C823 C 0.3674 0.4362 0.69586 0.0
C824 C 0.35543 0.42017 0.70252 0.0
C825 C 0.3535 0.41707 0.72299 0.0
C826 C 0.36381 0.43025 0.73611 0.0
H827 H 0.38655 0.46127 0.70452 0.0
O828 O 0.35158 0.50295 0.7365 0.0
O829 O 0.3667 0.47944 0.75272 0.0
O830 O 0.39454 0.50757 0.73552 0.0
O831 O 0.40462 0.47599 0.73387 0.0
C832 C 0.34146 0.40162 0.73091 0.0
C833 C 0.33963 0.39987 0.75171 0.0
H834 H 0.33865 0.40206 0.79242 0.0
H835 H 0.35674 0.42784 0.81319 0.0
H836 H 0.36893 0.43872 0.68008 0.0
H837 H 0.34767 0.41043 0.69179 0.0
H838 H 0.33328 0.39121 0.72114 0.0
H839 H 0.33008 0.38813 0.7576 0.0
Mn840 Mn 0.75265 0.37752 0.50714 0.0
Mn841 Mn 0.74794 0.39065 0.45914 0.0
C842 C 0.7354 0.35678 0.48458 0.0
C843 C 0.76964 0.36171 0.53247 0.0
C844 C 0.72419 0.40907 0.49266 0.0
O845 O 0.77448 0.39919 0.50433 0.0
O846 O 0.77139 0.40495 0.47149 0.0
C847 C 0.78465 0.37297 0.44341 0.0
N848 N 0.76446 0.3744 0.44291 0.0
C849 C 0.76154 0.35031 0.41594 0.0
C850 C 0.78231 0.34872 0.41607 0.0
C851 C 0.7939 0.36006 0.4299 0.0
C852 C 0.75316 0.36347 0.42972 0.0
H853 H 0.79362 0.38155 0.4541 0.0
C854 C 0.78021 0.40767 0.48837 0.0
O855 O 0.75731 0.3758 0.53635 0.0
O856 O 0.77271 0.35744 0.51387 0.0
N857 N 0.72601 0.37744 0.44544 0.0
C858 C 0.70612 0.38 0.44787 0.0
C859 C 0.69243 0.36938 0.43546 0.0
C860 C 0.69932 0.35632 0.42063 0.0
C861 C 0.71986 0.35407 0.41828 0.0
C862 C 0.7328 0.36518 0.43098 0.0
H863 H 0.70072 0.39001 0.45924 0.0
O864 O 0.73207 0.35534 0.5035 0.0
O865 O 0.74851 0.37031 0.47958 0.0
O866 O 0.73112 0.39839 0.50645 0.0
O867 O 0.7299 0.40783 0.47459 0.0
C868 C 0.72798 0.34099 0.40407 0.0
C869 C 0.7488 0.33907 0.40293 0.0
H870 H 0.78949 0.33871 0.40574 0.0
H871 H 0.80993 0.35882 0.43018 0.0
H872 H 0.6766 0.37119 0.43736 0.0
H873 H 0.68872 0.348 0.41122 0.0
H874 H 0.71834 0.33212 0.39413 0.0
H875 H 0.75486 0.32875 0.39214 0.0
Mn876 Mn 0.63906 0.00577 0.7524 0.0
Mn877 Mn 0.62264 0.05285 0.74972 0.0
C878 C 0.65836 0.03032 0.7375 0.0
C879 C 0.65629 0.98103 0.76868 0.0
C880 C 0.60733 0.01898 0.72269 0.0
O881 O 0.61708 0.00608 0.77317 0.0
O882 O 0.60807 0.03812 0.77076 0.0
C883 C 0.63711 0.06815 0.78902 0.0
N884 N 0.63659 0.06961 0.76884 0.0
C885 C 0.65766 0.0993 0.77014 0.0
C886 C 0.65832 0.09819 0.79095 0.0
C887 C 0.64803 0.08252 0.80042 0.0
C888 C 0.64645 0.08461 0.75957 0.0
H889 H 0.62926 0.0561 0.79636 0.0
C890 C 0.60657 0.0208 0.77852 0.0
O891 O 0.64262 0.97657 0.75542 0.0
O892 O 0.65936 0.99982 0.77304 0.0
N893 N 0.63559 0.06887 0.73011 0.0
C894 C 0.63442 0.0671 0.7099 0.0
C895 C 0.64444 0.08124 0.69815 0.0
C896 C 0.65539 0.09714 0.70729 0.0
C897 C 0.65619 0.09877 0.72812 0.0
C898 C 0.64582 0.08429 0.73905 0.0
H899 H 0.62602 0.05492 0.70279 0.0
O900 O 0.66094 0.01163 0.73319 0.0
O901 O 0.64453 0.0341 0.75033 0.0
O902 O 0.6183 0.00556 0.7298 0.0
O903 O 0.60769 0.037 0.72921 0.0
C904 C 0.66723 0.11395 0.73845 0.0
C905 C 0.668 0.11419 0.75944 0.0
H906 H 0.66681 0.10918 0.79979 0.0
H907 H 0.64855 0.0815 0.81647 0.0
H908 H 0.64376 0.07987 0.68209 0.0
H909 H 0.66325 0.10791 0.69819 0.0
H910 H 0.67546 0.12531 0.7304 0.0
H911 H 0.67679 0.12575 0.76721 0.0
Mn912 Mn 0.00495 0.2527 0.87621 0.0
Mn913 Mn 0.95727 0.24816 0.89135 0.0
C914 C 0.98119 0.23652 0.85615 0.0
C915 C 0.03041 0.26991 0.85973 0.0
C916 C 0.99042 0.22322 0.90753 0.0
O917 O 0.00357 0.27385 0.8985 0.0
O918 O 0.97093 0.27066 0.90604 0.0
C919 C 0.94235 0.28604 0.87584 0.0
N920 N 0.9412 0.26573 0.87644 0.0
C921 C 0.91362 0.26435 0.85329 0.0
C922 C 0.91443 0.28526 0.85253 0.0
C923 C 0.92888 0.29614 0.86383 0.0
C924 C 0.92737 0.25511 0.86561 0.0
H925 H 0.95349 0.29446 0.88443 0.0
C926 C 0.98823 0.27909 0.90824 0.0
O927 O 0.03425 0.25702 0.87333 0.0
O928 O 0.0118 0.27347 0.85641 0.0
N929 N 0.94241 0.22699 0.87797 0.0
C930 C 0.94425 0.20689 0.87963 0.0
C931 C 0.93119 0.19385 0.8689 0.0
C932 C 0.91634 0.20159 0.85666 0.0
C933 C 0.91462 0.22233 0.85532 0.0
C934 C 0.92794 0.2346 0.86651 0.0
H935 H 0.95567 0.20085 0.88898 0.0
O936 O 0.99991 0.23297 0.85381 0.0
O937 O 0.97706 0.24926 0.87018 0.0
O938 O 0.00414 0.23022 0.89642 0.0
O939 O 0.97254 0.22919 0.90726 0.0
C940 C 0.90046 0.23131 0.84305 0.0
C941 C 0.89998 0.2523 0.84202 0.0
H942 H 0.90415 0.2931 0.84318 0.0
H943 H 0.92966 0.31228 0.86323 0.0
H944 H 0.93262 0.17786 0.87 0.0
H945 H 0.90644 0.19149 0.84824 0.0
H946 H 0.89005 0.2222 0.83413 0.0
H947 H 0.8892 0.25902 0.83232 0.0
Mn948 Mn 0.50823 0.75176 0.37412 0.0
Mn949 Mn 0.45997 0.74609 0.38704 0.0
C950 C 0.48578 0.73435 0.35349 0.0
C951 C 0.53403 0.76876 0.35795 0.0
C952 C 0.49281 0.72211 0.40513 0.0
O953 O 0.5054 0.77363 0.39535 0.0
O954 O 0.47295 0.76846 0.4027 0.0
C955 C 0.4458 0.7843 0.37152 0.0
N956 N 0.4446 0.76398 0.37174 0.0
C957 C 0.41814 0.76305 0.34732 0.0
C958 C 0.41902 0.78397 0.34692 0.0
C959 C 0.43292 0.79463 0.35906 0.0
C960 C 0.43128 0.75357 0.36011 0.0
H961 H 0.45653 0.79257 0.38074 0.0
C962 C 0.48973 0.77792 0.40501 0.0
O963 O 0.53759 0.75664 0.37232 0.0
O964 O 0.51549 0.77176 0.35371 0.0
N965 N 0.44561 0.72519 0.37273 0.0
C966 C 0.4472 0.70505 0.37427 0.0
C967 C 0.43447 0.69221 0.36292 0.0
C968 C 0.42023 0.70021 0.35013 0.0
C969 C 0.41878 0.72098 0.34889 0.0
C970 C 0.4317 0.73303 0.36075 0.0
H971 H 0.45819 0.69881 0.38398 0.0
O972 O 0.50466 0.73102 0.35237 0.0
O973 O 0.48068 0.74745 0.36681 0.0
O974 O 0.50702 0.73033 0.39547 0.0
O975 O 0.47459 0.72673 0.40304 0.0
C976 C 0.40526 0.73021 0.3361 0.0
C977 C 0.40497 0.75122 0.33527 0.0
H978 H 0.40919 0.79199 0.33725 0.0
H979 H 0.43376 0.81078 0.35877 0.0
H980 H 0.43572 0.6762 0.36392 0.0
H981 H 0.4106 0.69027 0.34122 0.0
H982 H 0.39519 0.72127 0.32664 0.0
H983 H 0.39467 0.75813 0.3252 0.0
Mn984 Mn 0.00444 0.75365 0.63115 0.0
Mn985 Mn 0.98337 0.70997 0.64585 0.0
C986 C 0.00757 0.72497 0.6118 0.0
C987 C 0.00262 0.78387 0.61463 0.0
C988 C 0.0216 0.72794 0.66393 0.0
O989 O 0.98477 0.76242 0.65239 0.0
O990 O 0.96995 0.73265 0.65896 0.0
C991 C 0.94369 0.714 0.62705 0.0
N992 N 0.96055 0.70349 0.62953 0.0
C993 C 0.94825 0.67736 0.60721 0.0
C994 C 0.93068 0.68782 0.60456 0.0
C995 C 0.92843 0.70625 0.61447 0.0
C996 C 0.96296 0.68584 0.61991 0.0
H997 H 0.94195 0.72822 0.63455 0.0
C998 C 0.97163 0.75167 0.66117 0.0
O999 O 0.01543 0.78146 0.6289 0.0
O1000 O 0.99049 0.76893 0.61035 0.0
N1001 N 0.99466 0.68663 0.63422 0.0
C1002 C 0.01276 0.67872 0.63789 0.0
C1003 C 0.01749 0.6604 0.6289 0.0
C1004 C 0.0035 0.65029 0.61641 0.0
C1005 C 0.98486 0.65857 0.61309 0.0
C1006 C 0.98093 0.6768 0.62257 0.0
H1007 H 0.02354 0.68635 0.64757 0.0
O1008 O 0.02 0.73999 0.60981 0.0
O1009 O 0.99363 0.72729 0.62484 0.0
O1010 O 0.02282 0.74299 0.65262 0.0
O1011 O 0.00713 0.71509 0.66312 0.0
C1012 C 0.97013 0.64958 0.60052 0.0
C1013 C 0.95188 0.65901 0.59751 0.0
H1014 H 0.91888 0.68192 0.59483 0.0
H1015 H 0.91496 0.71448 0.6124 0.0
H1016 H 0.03189 0.65408 0.63158 0.0
H1017 H 0.00726 0.63624 0.60938 0.0
H1018 H 0.97281 0.63555 0.59287 0.0
H1019 H 0.94078 0.6521 0.58759 0.0
Mn1020 Mn 0.50584 0.25485 0.13017 0.0
Mn1021 Mn 0.48452 0.21108 0.1445 0.0
C1022 C 0.50777 0.22659 0.11009 0.0
C1023 C 0.50517 0.2855 0.11434 0.0
C1024 C 0.52386 0.2272 0.16114 0.0
O1025 O 0.48697 0.26383 0.15194 0.0
O1026 O 0.47383 0.23379 0.16014 0.0
C1027 C 0.4438 0.21855 0.12973 0.0
N1028 N 0.46009 0.20692 0.13001 0.0
C1029 C 0.44442 0.18299 0.10728 0.0
C1030 C 0.42743 0.19464 0.10685 0.0
C1031 C 0.42715 0.21252 0.11808 0.0
C1032 C 0.46057 0.18977 0.11914 0.0
H1033 H 0.44354 0.23233 0.1383 0.0
C1034 C 0.47536 0.25282 0.16229 0.0
O1035 O 0.5181 0.28208 0.12822 0.0
O1036 O 0.49209 0.27136 0.1101 0.0
N1037 N 0.49316 0.18763 0.13078 0.0
C1038 C 0.51074 0.17818 0.13272 0.0
C1039 C 0.51342 0.15999 0.12252 0.0
C1040 C 0.49794 0.15161 0.11058 0.0
C1041 C 0.47986 0.16142 0.10908 0.0
C1042 C 0.47798 0.1794 0.11979 0.0
H1043 H 0.52268 0.18453 0.14188 0.0
O1044 O 0.5206 0.24129 0.10833 0.0
O1045 O 0.49405 0.22886 0.12342 0.0
O1046 O 0.52424 0.24321 0.15116 0.0
O1047 O 0.50983 0.21393 0.15971 0.0
C1048 C 0.46372 0.1542 0.09722 0.0
C1049 C 0.44604 0.16502 0.09625 0.0
H1050 H 0.41456 0.19006 0.09787 0.0
H1051 H 0.41412 0.22164 0.11776 0.0
H1052 H 0.52741 0.15249 0.12378 0.0
H1053 H 0.50014 0.13769 0.10255 0.0
H1054 H 0.46481 0.14044 0.08863 0.0
H1055 H 0.4338 0.15942 0.08692 0.0
H1056 H 0.18545 0.75806 0.9139 0.0
H1057 H 0.26243 0.8395 0.95896 0.0
H1058 H 0.23529 0.78181 0.8809 0.0
H1059 H 0.20084 0.83866 0.97632 0.0
H1060 H 0.2546 0.81352 0.93383 0.0
H1061 H 0.19248 0.78334 0.94029 0.0
C1062 C 0.19788 0.76857 0.91228 0.0
C1063 C 0.20981 0.76795 0.89526 0.0
C1064 C 0.24276 0.81908 0.94304 0.0
C1065 C 0.21803 0.79646 0.92527 0.0
C1066 C 0.24718 0.83396 0.95725 0.0
C1067 C 0.23204 0.84177 0.96895 0.0
C1068 C 0.22312 0.8116 0.9409 0.0
C1069 C 0.21275 0.83334 0.96706 0.0
C1070 C 0.2018 0.78298 0.92723 0.0
C1071 C 0.22567 0.78191 0.89374 0.0
N1072 N 0.20875 0.81873 0.95312 0.0
N1073 N 0.22942 0.7955 0.90863 0.0
H1074 H 0.03 0.49447 0.37552 0.0
H1075 H 0.09995 0.55643 0.30279 0.0
H1076 H 0.0543 0.55364 0.38904 0.0
H1077 H 0.09633 0.49197 0.29926 0.0
H1078 H 0.07965 0.55563 0.33242 0.0
H1079 H 0.05134 0.493 0.34608 0.0
C1080 C 0.03987 0.50709 0.37243 0.0
C1081 C 0.0401 0.52433 0.38472 0.0
C1082 C 0.08329 0.54162 0.32523 0.0
C1083 C 0.06422 0.52281 0.35092 0.0
C1084 C 0.09483 0.54204 0.30817 0.0
C1085 C 0.09992 0.52421 0.29842 0.0
C1086 C 0.07647 0.52327 0.33266 0.0
C1087 C 0.09282 0.50607 0.30631 0.0
C1088 C 0.05197 0.50623 0.35558 0.0
C1089 C 0.05311 0.54025 0.3798 0.0
N1090 N 0.08134 0.50606 0.32296 0.0
N1091 N 0.06448 0.53914 0.36326 0.0
H1092 H 0.81927 0.75404 0.91202 0.0
H1093 H 0.74228 0.66436 0.93241 0.0
H1094 H 0.77948 0.72714 0.86772 0.0
H1095 H 0.79033 0.6796 0.97353 0.0
H1096 H 0.75641 0.68756 0.90878 0.0
H1097 H 0.81001 0.72713 0.93486 0.0
C1098 C 0.80878 0.74237 0.90701 0.0
C1099 C 0.79987 0.74303 0.88804 0.0
C1100 C 0.76403 0.68581 0.92288 0.0
C1101 C 0.78914 0.71242 0.91407 0.0
C1102 C 0.7559 0.67256 0.93647 0.0
C1103 C 0.76505 0.6701 0.95508 0.0
C1104 C 0.78136 0.69706 0.9279 0.0
C1105 C 0.7828 0.68105 0.95935 0.0
C1106 C 0.80347 0.72707 0.92007 0.0
C1107 C 0.78634 0.72756 0.88237 0.0
N1108 N 0.79028 0.69428 0.94593 0.0
N1109 N 0.7813 0.71305 0.89535 0.0
H1110 H 0.95575 0.95799 0.3984 0.0
H1111 H 0.92037 0.02172 0.30605 0.0
H1112 H 0.98567 0.01352 0.38351 0.0
H1113 H 0.91208 0.9577 0.30952 0.0
H1114 H 0.94043 0.0214 0.33689 0.0
H1115 H 0.93507 0.96027 0.36847 0.0
C1116 C 0.95782 0.97078 0.38891 0.0
C1117 C 0.97244 0.98558 0.39342 0.0
C1118 C 0.93419 0.00748 0.33078 0.0
C1119 C 0.94886 0.98826 0.3591 0.0
C1120 C 0.92273 0.00764 0.31326 0.0
C1121 C 0.91456 0.98971 0.30511 0.0
C1122 C 0.93711 0.98932 0.34038 0.0
C1123 C 0.91813 0.9719 0.3151 0.0
C1124 C 0.94612 0.972 0.37177 0.0
C1125 C 0.97464 0.00172 0.38046 0.0
N1126 N 0.92899 0.97219 0.33222 0.0
N1127 N 0.96292 0.00269 0.36388 0.0
H1128 H 0.18169 0.24767 0.60398 0.0
H1129 H 0.24976 0.16179 0.55977 0.0
H1130 H 0.23023 0.22246 0.63668 0.0
H1131 H 0.19629 0.18141 0.53082 0.0
H1132 H 0.24321 0.18424 0.58785 0.0
H1133 H 0.18699 0.22366 0.57694 0.0
C1134 C 0.19334 0.23698 0.6056 0.0
C1135 C 0.20554 0.23716 0.6227 0.0
C1136 C 0.23289 0.18358 0.57538 0.0
C1137 C 0.21192 0.20977 0.59152 0.0
C1138 C 0.23663 0.17077 0.55929 0.0
C1139 C 0.22361 0.1697 0.5428 0.0
C1140 C 0.21605 0.19552 0.57498 0.0
C1141 C 0.2068 0.18171 0.54314 0.0
C1142 C 0.19644 0.22333 0.59007 0.0
C1143 C 0.22064 0.22313 0.62369 0.0
N1144 N 0.20357 0.19414 0.5589 0.0
N1145 N 0.22344 0.21007 0.60832 0.0
H1146 H 0.46674 0.55188 0.631 0.0
H1147 H 0.43436 0.47108 0.7116 0.0
H1148 H 0.49813 0.49751 0.64055 0.0
H1149 H 0.40984 0.52986 0.70916 0.0
H1150 H 0.45717 0.48012 0.68494 0.0
H1151 H 0.44527 0.54382 0.65906 0.0
C1152 C 0.46927 0.53833 0.63907 0.0
C1153 C 0.48432 0.52536 0.6333 0.0
C1154 C 0.44685 0.49107 0.69029 0.0
C1155 C 0.45947 0.51587 0.66533 0.0
C1156 C 0.43378 0.48592 0.70553 0.0
C1157 C 0.42009 0.49971 0.71271 0.0
C1158 C 0.4462 0.51013 0.68199 0.0
C1159 C 0.42012 0.51872 0.70418 0.0
C1160 C 0.4569 0.53369 0.65505 0.0
C1161 C 0.48656 0.50783 0.64418 0.0
N1162 N 0.43289 0.52332 0.68924 0.0
N1163 N 0.47425 0.50358 0.65959 0.0
H1164 H 0.7852 0.29943 0.64257 0.0
H1165 H 0.79492 0.33067 0.52863 0.0
H1166 H 0.81493 0.26442 0.5979 0.0
H1167 H 0.7634 0.36485 0.57264 0.0
H1168 H 0.80528 0.30807 0.5546 0.0
H1169 H 0.77976 0.32516 0.61796 0.0
C1170 C 0.79075 0.29722 0.62764 0.0
C1171 C 0.80044 0.27966 0.62228 0.0
C1172 C 0.79624 0.32061 0.55863 0.0
C1173 C 0.79411 0.30902 0.59395 0.0
C1174 C 0.79038 0.33357 0.5438 0.0
C1175 C 0.77816 0.3496 0.54845 0.0
C1176 C 0.78979 0.32363 0.57825 0.0
C1177 C 0.77276 0.35264 0.56838 0.0
C1178 C 0.78756 0.31189 0.61356 0.0
C1179 C 0.80709 0.27755 0.60262 0.0
N1180 N 0.77847 0.33968 0.58252 0.0
N1181 N 0.80374 0.292 0.58918 0.0
H1182 H 0.51722 0.02116 0.62991 0.0
H1183 H 0.60443 0.98373 0.70096 0.0
H1184 H 0.54793 0.96636 0.61934 0.0
H1185 H 0.57917 0.04215 0.70562 0.0
H1186 H 0.5824 0.97596 0.67248 0.0
H1187 H 0.53827 0.02789 0.65922 0.0
C1188 C 0.52831 0.01047 0.63383 0.0
C1189 C 0.5308 0.99317 0.62213 0.0
C1190 C 0.58169 0.99046 0.67977 0.0
C1191 C 0.55512 1.00086 0.65566 0.0
C1192 C 0.59423 0.9949 0.69608 0.0
C1193 C 0.59373 0.01366 0.70575 0.0
C1194 C 0.56846 0.00481 0.67313 0.0
C1195 C 0.58018 0.02752 0.69867 0.0
C1196 C 0.54042 0.01438 0.65051 0.0
C1197 C 0.54563 0.97999 0.6278 0.0
N1198 N 0.56812 0.02281 0.68284 0.0
N1199 N 0.55721 0.98409 0.64417 0.0
H1200 H 0.89195 0.18266 0.77692 0.0
H1201 H 0.96087 0.26282 0.83481 0.0
H1202 H 0.90272 0.24261 0.75613 0.0
H1203 H 0.97034 0.19982 0.84004 0.0
H1204 H 0.93702 0.25563 0.80778 0.0
H1205 H 0.91839 0.18836 0.80197 0.0
C1206 C 0.89996 0.19693 0.77745 0.0
C1207 C 0.89493 0.21224 0.76445 0.0
C1208 C 0.94433 0.24334 0.81475 0.0
C1209 C 0.92493 0.21886 0.7932 0.0
C1210 C 0.95779 0.24743 0.83024 0.0
C1211 C 0.96701 0.23181 0.83989 0.0
C1212 C 0.94001 0.22345 0.80893 0.0
C1213 C 0.96311 0.21218 0.83312 0.0
C1214 C 0.915 0.20016 0.79178 0.0
C1215 C 0.90569 0.23051 0.76607 0.0
N1216 N 0.94959 0.20847 0.81818 0.0
N1217 N 0.92004 0.23334 0.78026 0.0
H1218 H 0.50924 0.89552 0.45908 0.0
H1219 H 0.46299 0.78661 0.43402 0.0
H1220 H 0.45956 0.86859 0.49011 0.0
H1221 H 0.51754 0.80902 0.40787 0.0
H1222 H 0.4621 0.81653 0.45495 0.0
H1223 H 0.51311 0.86411 0.4405 0.0
C1224 C 0.49923 0.88299 0.46211 0.0
C1225 C 0.48394 0.88481 0.47612 0.0
C1226 C 0.47436 0.81491 0.44475 0.0
C1227 C 0.48821 0.84886 0.45474 0.0
C1228 C 0.47489 0.79778 0.43274 0.0
C1229 C 0.49032 0.79529 0.41904 0.0
C1230 C 0.48927 0.82989 0.44303 0.0
C1231 C 0.50537 0.81028 0.41823 0.0
C1232 C 0.50142 0.86508 0.45143 0.0
C1233 C 0.4713 0.86809 0.4792 0.0
N1234 N 0.50437 0.82704 0.42994 0.0
N1235 N 0.47368 0.85091 0.46857 0.0
H1236 H 0.1407 0.28839 0.79645 0.0
H1237 H 0.02635 0.29468 0.82813 0.0
H1238 H 0.09515 0.31333 0.75955 0.0
H1239 H 0.0706 0.26427 0.86216 0.0
H1240 H 0.05216 0.30507 0.80477 0.0
H1241 H 0.116 0.28267 0.82236 0.0
C1242 C 0.12554 0.29283 0.79386 0.0
C1243 C 0.12 0.3013 0.77574 0.0
C1244 C 0.05627 0.29626 0.81743 0.0
C1245 C 0.09156 0.29463 0.80534 0.0
C1246 C 0.04155 0.2904 0.83084 0.0
C1247 C 0.0463 0.27848 0.84708 0.0
C1248 C 0.07591 0.29018 0.82025 0.0
C1249 C 0.06624 0.27338 0.84982 0.0
C1250 C 0.11142 0.28946 0.80863 0.0
C1251 C 0.10005 0.3065 0.77315 0.0
N1252 N 0.08029 0.27915 0.83647 0.0
N1253 N 0.08656 0.30306 0.78775 0.0
H1254 H 0.49388 0.61189 0.47018 0.0
H1255 H 0.52893 0.71465 0.42238 0.0
H1256 H 0.54412 0.64684 0.49336 0.0
H1257 H 0.4677 0.6931 0.41999 0.0
H1258 H 0.53662 0.68775 0.44515 0.0
H1259 H 0.48584 0.6394 0.44819 0.0
C1260 C 0.50323 0.62535 0.47058 0.0
C1261 C 0.51966 0.62715 0.48358 0.0
C1262 C 0.5215 0.68898 0.43965 0.0
C1263 C 0.51069 0.65851 0.45843 0.0
C1264 C 0.51711 0.70427 0.4266 0.0
C1265 C 0.49763 0.70614 0.41922 0.0
C1266 C 0.50642 0.67524 0.44507 0.0
C1267 C 0.48291 0.69228 0.42531 0.0
C1268 C 0.49858 0.64105 0.45814 0.0
C1269 C 0.53123 0.64495 0.48364 0.0
N1270 N 0.48764 0.67732 0.43774 0.0
N1271 N 0.52663 0.6599 0.47112 0.0
H1272 H 0.91482 0.82023 0.75462 0.0
H1273 H 0.93505 0.7372 0.67189 0.0
H1274 H 0.86859 0.78212 0.72804 0.0
H1275 H 0.97524 0.78812 0.68089 0.0
H1276 H 0.91164 0.75231 0.69465 0.0
H1277 H 0.93835 0.80766 0.72987 0.0
C1278 C 0.90963 0.80929 0.74355 0.0
C1279 C 0.88972 0.80223 0.74335 0.0
C1280 C 0.92553 0.76027 0.69159 0.0
C1281 C 0.91648 0.78774 0.71523 0.0
C1282 C 0.93897 0.7516 0.67865 0.0
C1283 C 0.9572 0.76138 0.67449 0.0
C1284 C 0.93036 0.77876 0.70079 0.0
C1285 C 0.96134 0.7801 0.68363 0.0
C1286 C 0.92301 0.80222 0.7294 0.0
C1287 C 0.88373 0.78814 0.72862 0.0
N1288 N 0.94809 0.78812 0.69654 0.0
N1289 N 0.89708 0.78125 0.71529 0.0
H1290 H 0.01473 0.86321 0.51632 0.0
H1291 H 0.01828 0.82083 0.62513 0.0
H1292 H 0.01399 0.90275 0.5676 0.0
H1293 H 0.9877 0.78865 0.57717 0.0
H1294 H 0.02059 0.85042 0.60415 0.0
H1295 H 0.00871 0.8347 0.53812 0.0
C1296 C 0.01325 0.86583 0.53219 0.0
C1297 C 0.01481 0.88526 0.54025 0.0
C1298 C 0.01322 0.83691 0.59833 0.0
C1299 C 0.00827 0.85287 0.5652 0.0
C1300 C 0.01194 0.82004 0.61024 0.0
C1301 C 0.00278 0.80229 0.60286 0.0
C1302 C 0.00573 0.83582 0.57876 0.0
C1303 C 0.99481 0.80206 0.58347 0.0
C1304 C 0.00973 0.84963 0.54457 0.0
C1305 C 0.01275 0.88796 0.56087 0.0
N1306 N 0.9967 0.8185 0.57199 0.0
N1307 N 0.00982 0.87189 0.57271 0.0
H1308 H 0.09929 0.68385 0.75623 0.0
H1309 H 0.0563 0.75024 0.66879 0.0
H1310 H 0.13329 0.73057 0.72739 0.0
H1311 H 0.02495 0.69836 0.69153 0.0
H1312 H 0.08395 0.74413 0.69138 0.0
H1313 H 0.07148 0.68945 0.73349 0.0
C1314 C 0.10101 0.69516 0.74503 0.0
C1315 C 0.11871 0.70677 0.7438 0.0
C1316 C 0.07102 0.73408 0.69145 0.0
C1317 C 0.08673 0.71349 0.71791 0.0
C1318 C 0.05515 0.73759 0.67857 0.0
C1319 C 0.03818 0.72481 0.6782 0.0
C1320 C 0.06999 0.7177 0.70416 0.0
C1321 C 0.03768 0.70865 0.69126 0.0
C1322 C 0.08505 0.69844 0.73213 0.0
C1323 C 0.11986 0.72146 0.72915 0.0
N1324 N 0.05333 0.70556 0.7037 0.0
N1325 N 0.10411 0.72441 0.71685 0.0
H1326 H 0.02077 0.61169 0.55207 0.0
H1327 H 0.97684 0.71477 0.58713 0.0
H1328 H 0.97469 0.64043 0.51903 0.0
H1329 H 0.03675 0.69902 0.60214 0.0
H1330 H 0.97462 0.68657 0.56341 0.0
H1331 H 0.02554 0.64216 0.57264 0.0
C1332 C 0.01167 0.62441 0.54918 0.0
C1333 C 0.99734 0.62359 0.53384 0.0
C1334 C 0.98832 0.68934 0.57176 0.0
C1335 C 0.00269 0.65833 0.55721 0.0
C1336 C 0.98952 0.70529 0.58536 0.0
C1337 C 0.00676 0.70865 0.59693 0.0
C1338 C 0.00443 0.67657 0.56994 0.0
C1339 C 0.02306 0.69649 0.59373 0.0
C1340 C 0.01451 0.64181 0.56077 0.0
C1341 C 0.98602 0.64052 0.5306 0.0
N1342 N 0.02138 0.68066 0.58078 0.0
N1343 N 0.98882 0.65714 0.5423 0.0
H1344 H 0.77765 0.89776 0.17916 0.0
H1345 H 0.82817 0.96441 0.26517 0.0
H1346 H 0.75071 0.90599 0.23665 0.0
H1347 H 0.83944 0.97645 0.20348 0.0
H1348 H 0.80119 0.94095 0.25513 0.0
H1349 H 0.80229 0.92443 0.1878 0.0
C1350 C 0.77687 0.90526 0.19353 0.0
C1351 C 0.76211 0.89971 0.20721 0.0
C1352 C 0.80945 0.94878 0.24376 0.0
C1353 C 0.79013 0.93004 0.21713 0.0
C1354 C 0.8249 0.96201 0.24947 0.0
C1355 C 0.83626 0.97179 0.23505 0.0
C1356 C 0.80545 0.94522 0.22345 0.0
C1357 C 0.83117 0.96877 0.21495 0.0
C1358 C 0.79081 0.92053 0.19838 0.0
C1359 C 0.76169 0.90995 0.22559 0.0
N1360 N 0.8163 0.95541 0.20966 0.0
N1361 N 0.77561 0.92448 0.23008 0.0
H1362 H 0.79284 0.1426 0.28553 0.0
H1363 H 0.82553 0.03018 0.30129 0.0
H1364 H 0.76013 0.1005 0.32155 0.0
H1365 H 0.86035 0.07363 0.26884 0.0
H1366 H 0.80262 0.05629 0.31079 0.0
H1367 H 0.81859 0.11803 0.28067 0.0
C1368 C 0.79106 0.12817 0.2924 0.0
C1369 C 0.77421 0.12356 0.30385 0.0
C1370 C 0.81538 0.06017 0.30177 0.0
C1371 C 0.80375 0.09536 0.29847 0.0
C1372 C 0.82851 0.04527 0.29638 0.0
C1373 C 0.84482 0.0497 0.28415 0.0
C1374 C 0.81849 0.07964 0.29475 0.0
C1375 C 0.84794 0.06952 0.27824 0.0
C1376 C 0.80584 0.11418 0.28973 0.0
C1377 C 0.7729 0.10475 0.3127 0.0
N1378 N 0.8348 0.08371 0.28343 0.0
N1379 N 0.78739 0.0913 0.30971 0.0
H1380 H 0.36943 0.99981 0.96747 0.0
H1381 H 0.30859 0.91153 0.02091 0.0
H1382 H 0.3958 0.96239 0.01153 0.0
H1383 H 0.28795 0.94223 0.96906 0.0
H1384 H 0.33881 0.93309 0.02137 0.0
H1385 H 0.33776 0.98175 0.97146 0.0
C1386 C 0.36859 0.98774 0.97796 0.0
C1387 C 0.38543 0.98242 0.98894 0.0
C1388 C 0.32755 0.93517 0.01001 0.0
C1389 C 0.34897 0.96177 0.9938 0.0
C1390 C 0.31026 0.92296 0.00981 0.0
C1391 C 0.29577 0.92496 0.99483 0.0
C1392 C 0.33024 0.94957 0.99525 0.0
C1393 C 0.29879 0.93998 0.98077 0.0
C1394 C 0.35044 0.97749 0.98032 0.0
C1395 C 0.38322 0.96702 0.00275 0.0
N1396 N 0.31567 0.95161 0.9813 0.0
N1397 N 0.36536 0.95712 0.00469 0.0
H1398 H 0.25775 0.41649 0.31539 0.0
H1399 H 0.1545 0.44117 0.26194 0.0
H1400 H 0.22136 0.37287 0.28252 0.0
H1401 H 0.19125 0.48508 0.29399 0.0
H1402 H 0.1775 0.41539 0.27159 0.0
H1403 H 0.23263 0.4414 0.30937 0.0
C1404 C 0.24452 0.41216 0.30684 0.0
C1405 C 0.24173 0.39255 0.29938 0.0
C1406 C 0.18046 0.43063 0.27666 0.0
C1407 C 0.21275 0.42098 0.29263 0.0
C1408 C 0.16727 0.44536 0.27121 0.0
C1409 C 0.171 0.46534 0.27708 0.0
C1410 C 0.19755 0.43592 0.288 0.0
C1411 C 0.18781 0.46988 0.28908 0.0
C1412 C 0.2301 0.42636 0.30354 0.0
C1413 C 0.22408 0.38773 0.28873 0.0
N1414 N 0.20053 0.45532 0.29402 0.0
N1415 N 0.21033 0.40185 0.28562 0.0
H1416 H 0.13379 0.01736 0.52279 0.0
H1417 H 0.21738 0.08585 0.47187 0.0
H1418 H 0.13058 0.03599 0.46162 0.0
H1419 H 0.20572 0.08947 0.53472 0.0
H1420 H 0.19007 0.06093 0.46791 0.0
H1421 H 0.164 0.03825 0.52739 0.0
C1422 C 0.1393 0.02581 0.51032 0.0
C1423 C 0.12937 0.02486 0.49177 0.0
C1424 C 0.19349 0.06716 0.48257 0.0
C1425 C 0.16442 0.04826 0.49689 0.0
C1426 C 0.20894 0.08141 0.4848 0.0
C1427 C 0.21301 0.0903 0.50347 0.0
C1428 C 0.18231 0.06156 0.49922 0.0
C1429 C 0.20249 0.08334 0.51999 0.0
C1430 C 0.15666 0.03761 0.51297 0.0
C1431 C 0.13773 0.03584 0.4761 0.0
N1432 N 0.18736 0.06952 0.51746 0.0
N1433 N 0.15475 0.047 0.47901 0.0
H1434 H 0.75104 0.10179 0.68074 0.0
H1435 H 0.67835 0.0563 0.76221 0.0
H1436 H 0.7324 0.13525 0.73238 0.0
H1437 H 0.67405 0.03714 0.70075 0.0
H1438 H 0.70325 0.08193 0.75318 0.0
H1439 H 0.72719 0.07475 0.68928 0.0
C1440 C 0.74194 0.10339 0.69387 0.0
C1441 C 0.74357 0.12073 0.70586 0.0
C1442 C 0.69679 0.0722 0.74164 0.0
C1443 C 0.71672 0.08996 0.71581 0.0
C1444 C 0.68254 0.05771 0.74676 0.0
C1445 C 0.67356 0.04538 0.73201 0.0
C1446 C 0.70244 0.07399 0.72169 0.0
C1447 C 0.68027 0.04689 0.71239 0.0
C1448 C 0.72834 0.08806 0.69866 0.0
C1449 C 0.73144 0.12218 0.72267 0.0
N1450 N 0.69425 0.06113 0.70772 0.0
N1451 N 0.71863 0.10692 0.72723 0.0
H1452 H 0.37842 0.02555 0.4871 0.0
H1453 H 0.31914 0.11968 0.5279 0.0
H1454 H 0.39669 0.06152 0.53836 0.0
H1455 H 0.29886 0.08284 0.47796 0.0
H1456 H 0.34911 0.10012 0.53004 0.0
H1457 H 0.35072 0.04783 0.48167 0.0
C1458 C 0.37673 0.03823 0.49711 0.0
C1459 C 0.38985 0.04157 0.51331 0.0
C1460 C 0.33819 0.09636 0.51852 0.0
C1461 C 0.35806 0.06706 0.50725 0.0
C1462 C 0.32106 0.10758 0.51726 0.0
C1463 C 0.30639 0.10284 0.50279 0.0
C1464 C 0.34072 0.0802 0.50526 0.0
C1465 C 0.30976 0.087 0.48938 0.0
C1466 C 0.36084 0.05089 0.49406 0.0
C1467 C 0.38677 0.05814 0.52589 0.0
N1468 N 0.3265 0.07616 0.49102 0.0
N1469 N 0.3712 0.07019 0.52263 0.0
H1470 H 0.62667 0.46791 0.55023 0.0
H1471 H 0.70616 0.43603 0.46847 0.0
H1472 H 0.63341 0.49747 0.49402 0.0
H1473 H 0.7054 0.41391 0.52845 0.0
H1474 H 0.67886 0.45786 0.477 0.0
H1475 H 0.65483 0.44726 0.54197 0.0
C1476 C 0.63413 0.4702 0.53621 0.0
C1477 C 0.6276 0.48455 0.52284 0.0
C1478 C 0.68474 0.44828 0.4883 0.0
C1479 C 0.6598 0.46062 0.51313 0.0
C1480 C 0.70035 0.43579 0.48345 0.0
C1481 C 0.70817 0.42305 0.49775 0.0
C1482 C 0.67676 0.44798 0.50754 0.0
C1483 C 0.69994 0.42345 0.5169 0.0
C1484 C 0.65018 0.4583 0.53145 0.0
C1485 C 0.63769 0.48645 0.5047 0.0
N1486 N 0.68467 0.43562 0.52119 0.0
N1487 N 0.65325 0.47462 0.50038 0.0
H1488 H 0.67904 0.28019 0.39493 0.0
H1489 H 0.76055 0.33349 0.46454 0.0
H1490 H 0.73592 0.25439 0.40687 0.0
H1491 H 0.69807 0.34172 0.47474 0.0
H1492 H 0.75207 0.30618 0.44108 0.0
H1493 H 0.68586 0.30499 0.42173 0.0
C1494 C 0.6929 0.2797 0.40326 0.0
C1495 C 0.70694 0.26522 0.39874 0.0
C1496 C 0.74018 0.31383 0.44852 0.0
C1497 C 0.71478 0.29341 0.42917 0.0
C1498 C 0.74501 0.32947 0.46176 0.0
C1499 C 0.72992 0.34006 0.47104 0.0
C1500 C 0.72011 0.3089 0.44441 0.0
C1501 C 0.71004 0.33404 0.46748 0.0
C1502 C 0.69669 0.29372 0.41859 0.0
C1503 C 0.72461 0.26517 0.41001 0.0
N1504 N 0.70563 0.31901 0.45409 0.0
N1505 N 0.72812 0.27917 0.42457 0.0
H1506 H 0.51448 0.04251 0.8639 0.0
H1507 H 0.60546 0.9922 0.80755 0.0
H1508 H 0.55163 0.99919 0.89148 0.0
H1509 H 0.57502 0.04398 0.78715 0.0
H1510 H 0.58307 0.99081 0.83625 0.0
H1511 H 0.53376 0.03946 0.83354 0.0
C1512 C 0.52673 0.03237 0.8636 0.0
C1513 C 0.53161 0.02133 0.88041 0.0
C1514 C 0.58126 0.00236 0.82538 0.0
C1515 C 0.55372 0.01758 0.84546 0.0
C1516 C 0.59396 0.00311 0.80896 0.0
C1517 C 0.59223 0.01833 0.79499 0.0
C1518 C 0.56665 0.0168 0.82767 0.0
C1519 C 0.57709 0.03211 0.79762 0.0
C1520 C 0.53769 0.03055 0.84619 0.0
C1521 C 0.54732 0.00798 0.87888 0.0
N1522 N 0.56497 0.03103 0.81362 0.0
N1523 N 0.55792 0.00658 0.86176 0.0
H1524 H 0.32172 0.23063 0.39175 0.0
H1525 H 0.23468 0.19424 0.46356 0.0
H1526 H 0.26865 0.26346 0.40351 0.0
H1527 H 0.29159 0.16601 0.46242 0.0
H1528 H 0.24772 0.21992 0.44183 0.0
H1529 H 0.31208 0.20719 0.41789 0.0
C1530 C 0.30817 0.23303 0.39995 0.0
C1531 C 0.29582 0.24887 0.39521 0.0
C1532 C 0.25749 0.20824 0.44638 0.0
C1533 C 0.28466 0.22209 0.42495 0.0
C1534 C 0.25 0.19348 0.45877 0.0
C1535 C 0.26201 0.17784 0.4647 0.0
C1536 C 0.27712 0.20734 0.43952 0.0
C1537 C 0.28183 0.17781 0.4582 0.0
C1538 C 0.30266 0.21963 0.41481 0.0
C1539 C 0.2784 0.25121 0.40627 0.0
N1540 N 0.28873 0.19224 0.44574 0.0
N1541 N 0.2733 0.23792 0.42047 0.0
H1542 H 0.48261 0.51888 0.88496 0.0
H1543 H 0.41636 0.45769 0.805 0.0
H1544 H 0.45825 0.45954 0.89439 0.0
H1545 H 0.41859 0.52222 0.80573 0.0
H1546 H 0.43563 0.45808 0.8357 0.0
H1547 H 0.46275 0.52043 0.8541 0.0
C1548 C 0.47306 0.50622 0.88055 0.0
C1549 C 0.47203 0.48906 0.89225 0.0
C1550 C 0.43192 0.47218 0.82919 0.0
C1551 C 0.44957 0.49067 0.85705 0.0
C1552 C 0.42097 0.47201 0.81153 0.0
C1553 C 0.41576 0.48999 0.80267 0.0
C1554 C 0.43804 0.49043 0.83812 0.0
C1555 C 0.4222 0.50801 0.81204 0.0
C1556 C 0.4617 0.50717 0.86304 0.0
C1557 C 0.45936 0.47313 0.88594 0.0
N1558 N 0.43312 0.50779 0.82925 0.0
N1559 N 0.44877 0.47426 0.86872 0.0
H1560 H 0.73324 0.7289 0.12949 0.0
H1561 H 0.69908 0.68664 0.02185 0.0
H1562 H 0.68419 0.75244 0.09626 0.0
H1563 H 0.75114 0.66748 0.0536 0.0
H1564 H 0.69264 0.71015 0.04915 0.0
H1565 H 0.73918 0.70555 0.1021 0.0
C1566 C 0.72375 0.72924 0.11639 0.0
C1567 C 0.70826 0.74279 0.11516 0.0
C1568 C 0.70549 0.70082 0.0501 0.0
C1569 C 0.71487 0.71582 0.08371 0.0
C1570 C 0.7092 0.68739 0.03449 0.0
C1571 C 0.72572 0.67502 0.03534 0.0
C1572 C 0.71832 0.70187 0.06673 0.0
C1573 C 0.73824 0.67667 0.05219 0.0
C1574 C 0.7271 0.71581 0.10076 0.0
C1575 C 0.69619 0.74217 0.09795 0.0
N1576 N 0.73426 0.68979 0.06718 0.0
N1577 N 0.69978 0.72895 0.08289 0.0
H1578 H 0.96348 0.04884 0.13098 0.0
H1579 H 0.93313 0.96949 0.2136 0.0
H1580 H 0.99589 0.99512 0.1407 0.0
H1581 H 0.90994 0.02886 0.21141 0.0
H1582 H 0.95532 0.97782 0.18611 0.0
H1583 H 0.94282 0.04102 0.15961 0.0
C1584 C 0.9664 0.03548 0.1392 0.0
C1585 C 0.98156 0.02267 0.13335 0.0
C1586 C 0.94544 0.98904 0.19174 0.0
C1587 C 0.95759 0.01341 0.16608 0.0
C1588 C 0.93274 0.9843 0.20745 0.0
C1589 C 0.91959 0.99848 0.2149 0.0
C1590 C 0.94488 0.00803 0.18327 0.0
C1591 C 0.9198 0.01742 0.20624 0.0
C1592 C 0.95449 0.03096 0.15552 0.0
C1593 C 0.98424 0.00532 0.14441 0.0
N1594 N 0.93214 0.02158 0.19086 0.0
N1595 N 0.97236 1.00118 0.16019 0.0
H1596 H 0.28834 0.79586 0.14092 0.0
H1597 H 0.29566 0.83035 0.02773 0.0
H1598 H 0.31806 0.76258 0.09494 0.0
H1599 H 0.26332 0.86204 0.07298 0.0
H1600 H 0.30683 0.80721 0.05289 0.0
H1601 H 0.2817 0.8219 0.11698 0.0
C1602 C 0.29363 0.7941 0.12583 0.0
C1603 C 0.3037 0.77694 0.11992 0.0
C1604 C 0.29742 0.81932 0.05736 0.0
C1605 C 0.29598 0.80666 0.09235 0.0
C1606 C 0.29109 0.83259 0.04301 0.0
C1607 C 0.27843 0.84808 0.04824 0.0
C1608 C 0.29101 0.82152 0.0771 0.0
C1609 C 0.27301 0.85026 0.06827 0.0
C1610 C 0.28974 0.80894 0.11214 0.0
C1611 C 0.30997 0.77539 0.10008 0.0
N1612 N 0.27921 0.83704 0.08194 0.0
N1613 N 0.30596 0.79002 0.08702 0.0
H1614 H 0.05176 0.46899 0.12011 0.0
H1615 H 0.08337 0.54613 0.20792 0.0
H1616 H 0.02297 0.52487 0.13069 0.0
H1617 H 0.10633 0.48675 0.20259 0.0
H1618 H 0.06161 0.53881 0.17931 0.0
H1619 H 0.0726 0.47557 0.1497 0.0
C1620 C 0.04988 0.48269 0.12861 0.0
C1621 C 0.03561 0.49642 0.12289 0.0
C1622 C 0.07134 0.52735 0.18445 0.0
C1623 C 0.05933 0.50399 0.15686 0.0
C1624 C 0.0838 0.53151 0.20082 0.0
C1625 C 0.09678 0.51705 0.20775 0.0
C1626 C 0.07189 0.50863 0.17475 0.0
C1627 C 0.09659 0.49837 0.19786 0.0
C1628 C 0.06169 0.48637 0.14558 0.0
C1629 C 0.03364 0.51378 0.13465 0.0
N1630 N 0.08443 0.49474 0.18182 0.0
N1631 N 0.0454 0.5171 0.15101 0.0
H1632 H 0.40853 0.74111 0.25153 0.0
H1633 H 0.47674 0.69719 0.33735 0.0
H1634 H 0.40028 0.68066 0.27188 0.0
H1635 H 0.46592 0.75978 0.33068 0.0
H1636 H 0.45351 0.68953 0.30938 0.0
H1637 H 0.4344 0.74689 0.27673 0.0
C1638 C 0.41208 0.72904 0.26133 0.0
C1639 C 0.40192 0.71044 0.25972 0.0
C1640 C 0.4563 0.70492 0.31407 0.0
C1641 C 0.43202 0.7169 0.28838 0.0
C1642 C 0.46949 0.70925 0.32992 0.0
C1643 C 0.47259 0.72904 0.33657 0.0
C1644 C 0.44682 0.72061 0.30456 0.0
C1645 C 0.46337 0.74427 0.32629 0.0
C1646 C 0.42697 0.73234 0.27564 0.0
C1647 C 0.40773 0.69521 0.27248 0.0
N1648 N 0.45084 0.73974 0.31084 0.0
N1649 N 0.42237 0.69879 0.28635 0.0
H1650 H 0.00969 0.39684 0.96109 0.0
H1651 H 0.96364 0.28739 0.93909 0.0
H1652 H 0.96305 0.36901 0.99569 0.0
H1653 H 0.01623 0.31011 0.90961 0.0
H1654 H 0.96397 0.31717 0.96029 0.0
H1655 H 0.0131 0.36538 0.94246 0.0
C1656 C 1.00027 0.38411 0.9649 0.0
C1657 C 0.98592 0.38569 0.97991 0.0
C1658 C 0.97556 0.31565 0.94931 0.0
C1659 C 0.98965 0.34969 0.95848 0.0
C1660 C 0.97537 0.29861 0.93714 0.0
C1661 C 0.98986 0.29627 0.92243 0.0
C1662 C 0.99022 0.33072 0.9467 0.0
C1663 C 0.00478 0.31128 0.92078 0.0
C1664 C 0.0022 0.36617 0.95419 0.0
C1665 C 0.97401 0.3687 0.98399 0.0
N1666 N 0.00446 0.32799 0.93264 0.0
N1667 N 0.97609 0.3515 0.9733 0.0
H1668 H 0.59823 0.81204 0.25614 0.0
H1669 H 0.57419 0.7632 0.36142 0.0
H1670 H 0.6424 0.7844 0.29269 0.0
H1671 H 0.53064 0.79244 0.32546 0.0
H1672 H 0.59994 0.77295 0.33767 0.0
H1673 H 0.57369 0.80652 0.28223 0.0
C1674 C 0.60276 0.80474 0.26963 0.0
C1675 C 0.6224 0.79857 0.27215 0.0
C1676 C 0.58479 0.7774 0.33507 0.0
C1677 C 0.59437 0.79237 0.30225 0.0
C1678 C 0.57009 0.7719 0.34868 0.0
C1679 C 0.55021 0.77691 0.34537 0.0
C1680 C 0.57956 0.7879 0.31798 0.0
C1681 C 0.54576 0.78819 0.32859 0.0
C1682 C 0.58877 0.80173 0.2846 0.0
C1683 C 0.62748 0.78955 0.29014 0.0
N1684 N 0.56027 0.79315 0.31545 0.0
N1685 N 0.61355 0.78663 0.30443 0.0
H1686 H 0.01554 0.10895 0.95697 0.0
H1687 H 0.97699 0.21751 0.94531 0.0
H1688 H 0.01961 0.15063 0.00691 0.0
H1689 H 0.01486 0.1921 0.90061 0.0
H1690 H 0.98527 0.19019 0.96761 0.0
H1691 H 0.00836 0.13663 0.93526 0.0
C1692 C 0.01513 0.12381 0.96349 0.0
C1693 C 0.01843 0.12723 0.98402 0.0
C1694 C 0.99175 0.19069 0.95292 0.0
C1695 C 0.00922 0.15885 0.95909 0.0
C1696 C 0.987 0.20615 0.94021 0.0
C1697 C 0.99536 0.20704 0.92118 0.0
C1698 C 0.0044 0.17574 0.94626 0.0
C1699 C 0.00826 0.192 0.91525 0.0
C1700 C 0.01084 0.13957 0.95101 0.0
C1701 C 0.01686 0.14695 0.99138 0.0
N1702 N 0.01221 0.17679 0.92767 0.0
N1703 N 0.0122 0.16196 0.97897 0.0
H1704 H 0.40313 0.27262 0.26579 0.0
H1705 H 0.46406 0.292 0.16578 0.0
H1706 H 0.39314 0.32359 0.22908 0.0
H1707 H 0.45818 0.23484 0.19412 0.0
H1708 H 0.44208 0.30616 0.19113 0.0
H1709 H 0.42774 0.2611 0.24209 0.0
C1710 C 0.4063 0.28153 0.25285 0.0
C1711 C 0.39605 0.2991 0.24942 0.0
C1712 C 0.44569 0.29054 0.19175 0.0
C1713 C 0.42412 0.28583 0.22201 0.0
C1714 C 0.45828 0.28248 0.17737 0.0
C1715 C 0.46288 0.26217 0.17775 0.0
C1716 C 0.43796 0.27826 0.20675 0.0
C1717 C 0.45492 0.25051 0.19308 0.0
C1718 C 0.42024 0.27485 0.23922 0.0
C1719 C 0.40057 0.30986 0.23219 0.0
N1720 N 0.44292 0.25872 0.20694 0.0
N1721 N 0.41428 0.30306 0.2191 0.0
H1722 H 0.48728 0.39524 0.05009 0.0
H1723 H 0.5379 0.30956 0.10893 0.0
H1724 H 0.54477 0.3733 0.03317 0.0
H1725 H 0.4756 0.30327 0.09311 0.0
H1726 H 0.54084 0.33865 0.0875 0.0
H1727 H 0.48265 0.36634 0.07148 0.0
C1728 C 0.4989 0.38442 0.05065 0.0
C1729 C 0.51656 0.38702 0.0397 0.0
C1730 C 0.52652 0.33094 0.08885 0.0
C1731 C 0.5115 0.35436 0.06489 0.0
C1732 C 0.52478 0.31446 0.10115 0.0
C1733 C 0.50648 0.304 0.10274 0.0
C1734 C 0.50974 0.33732 0.07847 0.0
C1735 C 0.48999 0.31091 0.0922 0.0
C1736 C 0.49623 0.368 0.06302 0.0
C1737 C 0.53115 0.37249 0.04162 0.0
N1738 N 0.49196 0.32728 0.08057 0.0
N1739 N 0.52839 0.35697 0.05412 0.0
H1740 H 0.61967 0.17777 0.23005 0.0
H1741 H 0.54986 0.25516 0.17766 0.0
H1742 H 0.61409 0.23843 0.25189 0.0
H1743 H 0.53579 0.19183 0.17674 0.0
H1744 H 0.57714 0.24956 0.20106 0.0
H1745 H 0.59216 0.18288 0.20682 0.0
C1746 C 0.61267 0.19212 0.23012 0.0
C1747 C 0.61938 0.20768 0.24308 0.0
C1748 C 0.56806 0.23692 0.19572 0.0
C1749 C 0.5882 0.2137 0.21603 0.0
C1750 C 0.55255 0.24006 0.1823 0.0
C1751 C 0.5405 0.22393 0.1752 0.0
C1752 C 0.57181 0.21747 0.20184 0.0
C1753 C 0.54464 0.20471 0.18184 0.0
C1754 C 0.59702 0.19502 0.21674 0.0
C1755 C 0.60986 0.22607 0.242 0.0
N1756 N 0.56005 0.20199 0.19469 0.0
N1757 N 0.59487 0.22859 0.22866 0.0
H1758 H 0.47171 0.14217 0.01677 0.0
H1759 H 0.53739 0.20175 0.09942 0.0
H1760 H 0.52044 0.11579 0.04798 0.0
H1761 H 0.4766 0.21567 0.086 0.0
H1762 H 0.53485 0.17361 0.07537 0.0
H1763 H 0.47647 0.17251 0.03741 0.0
C1764 C 0.48351 0.14286 0.02787 0.0
C1765 C 0.4957 0.1265 0.03073 0.0
C1766 C 0.5221 0.18288 0.07766 0.0
C1767 C 0.50136 0.16113 0.05416 0.0
C1768 C 0.52357 0.19886 0.0913 0.0
C1769 C 0.50691 0.21034 0.09513 0.0
C1770 C 0.50405 0.17889 0.06742 0.0
C1771 C 0.4895 0.20658 0.08389 0.0
C1772 C 0.48617 0.16011 0.03966 0.0
C1773 C 0.51066 0.12806 0.04543 0.0
N1774 N 0.48846 0.19106 0.07059 0.0
N1775 N 0.51313 0.14512 0.05657 0.0
H1776 H 0.27344 0.38221 0.73868 0.0
H1777 H 0.33673 0.47696 0.70265 0.0
H1778 H 0.2589 0.41146 0.68408 0.0
H1779 H 0.33227 0.45997 0.76399 0.0
H1780 H 0.31021 0.45195 0.69394 0.0
H1781 H 0.29746 0.40928 0.74686 0.0
C1782 C 0.27546 0.39434 0.72838 0.0
C1783 C 0.26431 0.39469 0.7107 0.0
C1784 C 0.31504 0.45378 0.70929 0.0
C1785 C 0.29199 0.4255 0.71971 0.0
C1786 C 0.33013 0.46795 0.71421 0.0
C1787 C 0.3371 0.46982 0.73389 0.0
C1788 C 0.3069 0.44171 0.72426 0.0
C1789 C 0.3278 0.45833 0.74851 0.0
C1790 C 0.2891 0.4098 0.73304 0.0
C1791 C 0.26728 0.41078 0.69788 0.0
N1792 N 0.31336 0.44458 0.74337 0.0
N1793 N 0.28103 0.42552 0.70253 0.0
H1794 H 0.25474 0.59565 0.81715 0.0
H1795 H 0.36092 0.57284 0.76993 0.0
H1796 H 0.29337 0.6405 0.79113 0.0
H1797 H 0.32289 0.52788 0.79657 0.0
H1798 H 0.33745 0.59825 0.77987 0.0
H1799 H 0.28025 0.57093 0.81145 0.0
C1800 C 0.26857 0.6003 0.81021 0.0
C1801 C 0.27185 0.6202 0.80455 0.0
C1802 C 0.3343 0.58285 0.78371 0.0
C1803 C 0.30125 0.59198 0.79815 0.0
C1804 C 0.34775 0.56834 0.77809 0.0
C1805 C 0.34383 0.54818 0.78233 0.0
C1806 C 0.31671 0.57719 0.79356 0.0
C1807 C 0.32651 0.54323 0.79295 0.0
C1808 C 0.28319 0.5862 0.80708 0.0
C1809 C 0.29022 0.62541 0.79593 0.0
N1810 N 0.31351 0.55761 0.79805 0.0
N1811 N 0.30415 0.61139 0.79291 0.0
H1812 H 0.88385 0.48555 0.5159 0.0
H1813 H 0.80105 0.4212 0.45647 0.0
H1814 H 0.89234 0.46006 0.45718 0.0
H1815 H 0.80206 0.42265 0.52078 0.0
H1816 H 0.83247 0.43998 0.45647 0.0
H1817 H 0.8524 0.46613 0.51822 0.0
C1818 C 0.87926 0.4758 0.50357 0.0
C1819 C 0.89074 0.4747 0.48618 0.0
C1820 C 0.82585 0.43621 0.47061 0.0
C1821 C 0.85461 0.45286 0.48866 0.0
C1822 C 0.80777 0.42557 0.47066 0.0
C1823 C 0.7988 0.42023 0.48868 0.0
C1824 C 0.83512 0.44189 0.48869 0.0
C1825 C 0.80844 0.42637 0.50653 0.0
C1826 C 0.86126 0.46481 0.5049 0.0
C1827 C 0.88383 0.46191 0.47065 0.0
N1828 N 0.82609 0.43696 0.5061 0.0
N1829 N 0.8662 0.45168 0.4722 0.0
H1830 H 0.72026 0.87257 0.78603 0.0
H1831 H 0.6875 0.98633 0.7949 0.0
H1832 H 0.75506 0.91894 0.81676 0.0
H1833 H 0.65457 0.94066 0.76121 0.0
H1834 H 0.7108 0.96123 0.80558 0.0
H1835 H 0.69465 0.89668 0.77918 0.0
C1836 C 0.72245 0.88779 0.7915 0.0
C1837 C 0.7399 0.89372 0.80197 0.0
C1838 C 0.6984 0.95666 0.79597 0.0
C1839 C 0.71063 0.92152 0.79398 0.0
C1840 C 0.68503 0.97098 0.78992 0.0
C1841 C 0.6691 0.96561 0.77705 0.0
C1842 C 0.69586 0.93681 0.7891 0.0
C1843 C 0.66667 0.94549 0.77109 0.0
C1844 C 0.70785 0.90159 0.78748 0.0
C1845 C 0.74201 0.91375 0.8084 0.0
N1846 N 0.67996 0.93185 0.77706 0.0
N1847 N 0.72758 0.92692 0.80428 0.0
H1848 H 0.61448 0.54993 0.02315 0.0
H1849 H 0.71825 0.5816 0.9761 0.0
H1850 H 0.63947 0.51871 0.97288 0.0
H1851 H 0.70238 0.59876 0.03582 0.0
H1852 H 0.68958 0.55816 0.9747 0.0
H1853 H 0.64626 0.56818 0.02807 0.0
C1854 C 0.62666 0.54673 0.01327 0.0
C1855 C 0.62417 0.53279 0.99749 0.0
C1856 C 0.69241 0.56689 0.9882 0.0
C1857 C 0.66055 0.55383 0.00296 0.0
C1858 C 0.70866 0.58033 0.98893 0.0
C1859 C 0.71206 0.59251 0.00582 0.0
C1860 C 0.67941 0.56584 0.00444 0.0
C1861 C 0.69979 0.58991 0.02235 0.0
C1862 C 0.64481 0.55718 0.01609 0.0
C1863 C 0.64048 0.52958 0.98499 0.0
N1864 N 0.68368 0.57713 0.02112 0.0
N1865 N 0.65789 0.54011 0.9879 0.0
H1866 H 0.25654 0.5986 0.17786 0.0
H1867 H 0.1853 0.55453 0.2615 0.0
H1868 H 0.24081 0.63167 0.23079 0.0
H1869 H 0.1782 0.5361 0.20005 0.0
H1870 H 0.21118 0.57889 0.25193 0.0
H1871 H 0.23252 0.57189 0.18702 0.0
C1872 C 0.24806 0.60016 0.19141 0.0
C1873 C 0.25051 0.61732 0.20358 0.0
C1874 C 0.20393 0.56957 0.24051 0.0
C1875 C 0.22354 0.58693 0.21422 0.0
C1876 C 0.18914 0.5558 0.24594 0.0
C1877 C 0.17909 0.54409 0.23137 0.0
C1878 C 0.20899 0.57131 0.2204 0.0
C1879 C 0.18528 0.5454 0.21157 0.0
C1880 C 0.23438 0.58502 0.19656 0.0
C1881 C 0.2392 0.61874 0.22094 0.0
N1882 N 0.19977 0.559 0.20657 0.0
N1883 N 0.2263 0.60368 0.22582 0.0
H1884 H 0.87542 0.53501 0.04719 0.0
H1885 H 0.8053 0.59022 0.97356 0.0
H1886 H 0.89648 0.54866 0.98818 0.0
H1887 H 0.81137 0.60888 0.03515 0.0
H1888 H 0.83496 0.56982 0.97741 0.0
H1889 H 0.84768 0.5569 0.04197 0.0
C1890 C 0.87446 0.54267 0.03319 0.0
C1891 C 0.88874 0.54003 0.01824 0.0
C1892 C 0.8298 0.57853 0.98997 0.0
C1893 C 0.85622 0.56456 0.01198 0.0
C1894 C 0.81293 0.5901 0.98782 0.0
C1895 C 0.80595 0.60127 0.00406 0.0
C1896 C 0.83928 0.57771 0.00862 0.0
C1897 C 0.81633 0.60059 0.02223 0.0
C1898 C 0.85844 0.55507 0.03022 0.0
C1899 C 0.88588 0.5499 1.00013 0.0
N1900 N 0.83231 0.58878 0.02411 0.0
N1901 N 0.86989 0.56162 0.99746 0.0
H1902 H 0.13421 0.99984 0.99794 0.0
H1903 H 0.20298 0.91046 0.03099 0.0
H1904 H 0.12496 0.96678 0.0518 0.0
H1905 H 0.205 0.93684 0.97284 0.0
H1906 H 0.17595 0.93245 0.03991 0.0
H1907 H 0.16166 0.9783 0.98952 0.0
C1908 C 0.13786 0.988 0.00797 0.0
C1909 C 0.12711 0.98511 0.02558 0.0
C1910 C 0.18232 0.93341 0.0252 0.0
C1911 C 0.15885 0.9605 0.01612 0.0
C1912 C 0.1978 0.92088 0.02009 0.0
C1913 C 0.20634 0.92175 1.0011 0.0
C1914 C 0.17536 0.94702 0.0113 0.0
C1915 C 0.19891 0.93557 0.98763 0.0
C1916 C 0.15363 0.97575 0.00319 0.0
C1917 C 0.13291 0.96976 0.03818 0.0
N1918 N 0.1839 0.94765 0.99301 0.0
N1919 N 0.14835 0.95803 0.0332 0.0
loop_
_geom_bond_atom_site_label_1
_geom_bond_atom_site_label_2
_geom_bond_distance
_geom_bond_site_symmetry_2
_ccdc_geom_bond_type
C0 C1 1.386 . S
C0 C2 1.397 . S
C0 H24 0.931 . S
C1 C0 1.386 . S
C1 C5 1.397 1_556 S
C2 C0 1.397 . S
C2 C3 1.384 1_556 S
C2 H25 0.930 . S
C3 C2 1.384 1_554 S
C3 C4 1.377 . S
C3 C6 1.481 . S
C4 C3 1.377 . S
C4 C5 1.389 . S
C4 H26 0.929 . S
C5 C1 1.397 1_554 S
C5 C4 1.389 . S
C5 H27 0.931 . S
C6 C3 1.481 . S
C6 C7 1.387 . S
C6 C11 1.390 . S
C7 C6 1.387 . S
C7 C8 1.401 . S
C7 H28 0.930 . S
C8 C7 1.401 . S
C8 C9 1.376 . S
C8 C17 1.511 . S
C9 C8 1.376 . S
C9 C10 1.392 . S
C9 H30 0.931 . S
C10 C9 1.392 . S
C10 C11 1.361 . S
C10 C12 1.500 . S
C11 C6 1.390 . S
C11 C10 1.361 . S
C11 H29 0.931 . S
C12 C10 1.500 . S
C12 C13 1.371 . S
C12 C14 1.356 1_455 S
C13 C12 1.371 . S
C13 C23 1.386 1_455 S
C13 H31 0.910 1_545 S
C14 C12 1.356 1_655 S
C14 C15 1.423 . S
C14 H32 0.925 1_655 S
C15 C14 1.423 . S
C15 C16 1.380 . S
C15 H33 0.930 . S
C16 C15 1.380 . S
C16 C23 1.357 . S
C17 C8 1.511 . S
C17 C18 1.341 . S
C17 C19 1.371 1_545 S
C18 C17 1.341 . S
C18 C22 1.394 1_545 S
C18 H34 0.917 1_554 S
C19 C17 1.371 1_565 S
C19 C20 1.392 . S
C19 H35 0.931 . S
C20 C19 1.392 . S
C20 C21 1.331 . S
C20 H38 0.932 . S
C21 C20 1.331 . S
C21 C22 1.336 . S
C22 C18 1.394 1_565 S
C22 C21 1.336 . S
C22 H37 0.929 1_554 S
C23 C13 1.386 1_655 S
C23 C16 1.357 . S
C23 H36 0.928 1_545 S
H24 C0 0.931 . S
H25 C2 0.930 . S
H26 C4 0.929 . S
H27 C5 0.931 . S
H28 C7 0.930 . S
H29 C11 0.931 . S
H30 C9 0.931 . S
H31 C13 0.910 1_565 S
H32 C14 0.925 1_455 S
H33 C15 0.930 . S
H34 C18 0.917 1_556 S
H35 C19 0.931 . S
H36 C23 0.928 1_565 S
H37 C22 0.929 1_556 S
H38 C20 0.932 . S
C39 C40 1.386 . S
C39 C41 1.397 . S
C39 H63 0.931 . S
C40 C39 1.386 . S
C40 C44 1.397 . S
C41 C39 1.397 . S
C41 C42 1.384 . S
C41 H64 0.930 . S
C42 C41 1.384 . S
C42 C43 1.377 . S
C42 C45 1.481 . S
C43 C42 1.377 . S
C43 C44 1.389 . S
C43 H65 0.929 . S
C44 C40 1.397 . S
C44 C43 1.389 . S
C44 H66 0.931 . S
C45 C42 1.481 . S
C45 C46 1.387 . S
C45 C50 1.390 . S
C46 C45 1.387 . S
C46 C47 1.401 . S
C46 H67 0.930 . S
C47 C46 1.401 . S
C47 C48 1.376 . S
C47 C56 1.511 . S
C48 C47 1.376 . S
C48 C49 1.392 . S
C48 H69 0.931 . S
C49 C48 1.392 . S
C49 C50 1.361 . S
C49 C51 1.500 . S
C50 C45 1.390 . S
C50 C49 1.361 . S
C50 H68 0.931 . S
C51 C49 1.500 . S
C51 C52 1.371 . S
C51 C53 1.365 . S
C52 C51 1.371 . S
C52 C62 1.386 . S
C52 H70 0.931 . S
C53 C51 1.365 . S
C53 C54 1.409 . S
C53 H71 0.929 . S
C54 C53 1.409 . S
C54 C55 1.380 . S
C54 H72 0.930 . S
C55 C54 1.380 . S
C55 C62 1.357 . S
C56 C47 1.511 . S
C56 C57 1.341 . S
C56 C58 1.371 . S
C57 C56 1.341 . S
C57 C61 1.394 . S
C57 H73 0.930 . S
C58 C56 1.371 . S
C58 C59 1.392 . S
C58 H74 0.931 . S
C59 C58 1.392 . S
C59 C60 1.331 . S
C59 H77 0.932 . S
C60 C59 1.331 . S
C60 C61 1.336 . S
C61 C57 1.394 . S
C61 C60 1.336 . S
C61 H76 0.929 . S
C62 C52 1.386 . S
C62 C55 1.357 . S
C62 H75 0.928 . S
H63 C39 0.931 . S
H64 C41 0.930 . S
H65 C43 0.929 . S
H66 C44 0.931 . S
H67 C46 0.930 . S
H68 C50 0.931 . S
H69 C48 0.931 . S
H70 C52 0.931 . S
H71 C53 0.929 . S
H72 C54 0.930 . S
H73 C57 0.930 . S
H74 C58 0.931 . S
H75 C62 0.928 . S
H76 C61 0.929 . S
H77 C59 0.932 . S
C78 C79 1.341 1_655 S
C78 C80 1.425 . S
C78 H102 0.949 . S
C79 C78 1.341 1_455 S
C79 C83 1.397 . S
C80 C78 1.425 . S
C80 C81 1.384 . S
C80 H103 0.930 . S
C81 C80 1.384 . S
C81 C82 1.377 1_655 S
C81 C84 1.481 . S
C82 C81 1.377 1_455 S
C82 C83 1.389 . S
C82 H104 0.929 . S
C83 C79 1.397 . S
C83 C82 1.389 . S
C83 H105 0.931 . S
C84 C81 1.481 . S
C84 C85 1.387 . S
C84 C89 1.390 . S
C85 C84 1.387 . S
C85 C86 1.401 . S
C85 H106 0.930 . S
C86 C85 1.401 . S
C86 C87 1.376 . S
C86 C95 1.511 . S
C87 C86 1.376 . S
C87 C88 1.392 . S
C87 H108 0.931 . S
C88 C87 1.392 . S
C88 C89 1.361 . S
C88 C90 1.500 . S
C89 C84 1.390 . S
C89 C88 1.361 . S
C89 H107 0.931 . S
C90 C88 1.500 . S
C90 C91 1.371 1_554 S
C90 C92 1.365 . S
C91 C90 1.371 1_556 S
C91 C101 1.386 . S
C91 H109 0.938 . S
C92 C90 1.365 . S
C92 C93 1.409 1_554 S
C92 H110 0.929 1_655 S
C93 C92 1.409 1_556 S
C93 C94 1.380 . S
C93 H111 0.930 1_655 S
C94 C93 1.380 . S
C94 C101 1.357 . S
C95 C86 1.511 . S
C95 C96 1.341 . S
C95 C97 1.371 . S
C96 C95 1.341 . S
C96 C100 1.394 . S
C96 H112 0.930 . S
C97 C95 1.371 . S
C97 C98 1.392 . S
C97 H113 0.904 1_554 S
C98 C97 1.392 . S
C98 C99 1.331 . S
C98 H116 0.932 1_554 S
C99 C98 1.331 . S
C99 C100 1.336 . S
C100 C96 1.394 . S
C100 C99 1.336 . S
C100 H115 0.929 . S
C101 C91 1.386 . S
C101 C94 1.357 . S
C101 H114 0.928 . S
H102 C78 0.949 . S
H103 C80 0.930 . S
H104 C82 0.929 . S
H105 C83 0.931 . S
H106 C85 0.930 . S
H107 C89 0.931 . S
H108 C87 0.931 . S
H109 C91 0.938 . S
H110 C92 0.929 1_455 S
H111 C93 0.930 1_455 S
H112 C96 0.930 . S
H113 C97 0.904 1_556 S
H114 C101 0.928 . S
H115 C100 0.929 . S
H116 C98 0.932 1_556 S
C117 C118 1.386 . S
C117 C119 1.397 . S
C117 H141 0.931 . S
C118 C117 1.386 . S
C118 C122 1.397 . S
C119 C117 1.397 . S
C119 C120 1.384 . S
C119 H142 0.930 . S
C120 C119 1.384 . S
C120 C121 1.377 . S
C120 C123 1.481 . S
C121 C120 1.377 . S
C121 C122 1.389 . S
C121 H143 0.929 . S
C122 C118 1.397 . S
C122 C121 1.389 . S
C122 H144 0.931 . S
C123 C120 1.481 . S
C123 C124 1.387 . S
C123 C128 1.390 . S
C124 C123 1.387 . S
C124 C125 1.401 . S
C124 H145 0.930 . S
C125 C124 1.401 . S
C125 C126 1.376 . S
C125 C134 1.511 . S
C126 C125 1.376 . S
C126 C127 1.392 . S
C126 H147 0.931 . S
C127 C126 1.392 . S
C127 C128 1.361 . S
C127 C129 1.500 . S
C128 C123 1.390 . S
C128 C127 1.361 . S
C128 H146 0.931 . S
C129 C127 1.500 . S
C129 C130 1.371 . S
C129 C131 1.365 . S
C130 C129 1.371 . S
C130 C140 1.386 . S
C130 H148 0.931 . S
C131 C129 1.365 . S
C131 C132 1.409 . S
C131 H149 0.929 . S
C132 C131 1.409 . S
C132 C133 1.380 . S
C132 H150 0.930 . S
C133 C132 1.380 . S
C133 C140 1.357 . S
C134 C125 1.511 . S
C134 C135 1.341 . S
C134 C136 1.371 . S
C135 C134 1.341 . S
C135 C139 1.394 . S
C135 H151 0.930 . S
C136 C134 1.371 . S
C136 C137 1.392 . S
C136 H152 0.931 . S
C137 C136 1.392 . S
C137 C138 1.331 . S
C137 H155 0.932 . S
C138 C137 1.331 . S
C138 C139 1.336 . S
C139 C135 1.394 . S
C139 C138 1.336 . S
C139 H154 0.929 . S
C140 C130 1.386 . S
C140 C133 1.357 . S
C140 H153 0.928 . S
H141 C117 0.931 . S
H142 C119 0.930 . S
H143 C121 0.929 . S
H144 C122 0.931 . S
H145 C124 0.930 . S
H146 C128 0.931 . S
H147 C126 0.931 . S
H148 C130 0.931 . S
H149 C131 0.929 . S
H150 C132 0.930 . S
H151 C135 0.930 . S
H152 C136 0.931 . S
H153 C140 0.928 . S
H154 C139 0.929 . S
H155 C137 0.932 . S
C156 C157 1.386 . S
C156 C158 1.397 . S
C156 H180 0.931 . S
C157 C156 1.386 . S
C157 C161 1.397 1_655 S
C158 C156 1.397 . S
C158 C159 1.384 1_655 S
C158 H181 0.930 . S
C159 C158 1.384 1_455 S
C159 C160 1.377 . S
C159 C162 1.481 . S
C160 C159 1.377 . S
C160 C161 1.389 . S
C160 H182 0.929 . S
C161 C157 1.397 1_455 S
C161 C160 1.389 . S
C161 H183 0.931 . S
C162 C159 1.481 . S
C162 C163 1.387 . S
C162 C167 1.390 . S
C163 C162 1.387 . S
C163 C164 1.401 . S
C163 H184 0.930 . S
C164 C163 1.401 . S
C164 C165 1.376 . S
C164 C173 1.511 . S
C165 C164 1.376 . S
C165 C166 1.392 . S
C165 H186 0.931 . S
C166 C165 1.392 . S
C166 C167 1.361 . S
C166 C168 1.515 . S
C167 C162 1.390 . S
C167 C166 1.361 . S
C167 H185 0.931 . S
C168 C166 1.515 . S
C168 C169 1.367 1_565 S
C168 C170 1.354 1_565 S
C169 C168 1.367 1_545 S
C169 C179 1.386 . S
C169 H187 0.931 1_545 S
C170 C168 1.354 1_545 S
C170 C171 1.409 . S
C170 H188 0.929 . S
C171 C170 1.409 . S
C171 C172 1.380 . S
C171 H189 0.930 . S
C172 C171 1.380 . S
C172 C179 1.357 . S
C173 C164 1.511 . S
C173 C174 1.341 . S
C173 C175 1.371 . S
C174 C173 1.341 . S
C174 C178 1.394 . S
C174 H190 0.930 . S
C175 C173 1.371 . S
C175 C176 1.392 . S
C175 H191 0.931 . S
C176 C175 1.392 . S
C176 C177 1.331 . S
C176 H194 0.932 . S
C177 C176 1.331 . S
C177 C178 1.336 . S
C178 C174 1.394 . S
C178 C177 1.336 . S
C178 H193 0.929 1_455 S
C179 C169 1.386 . S
C179 C172 1.357 . S
C179 H192 0.928 . S
H180 C156 0.931 . S
H181 C158 0.930 . S
H182 C160 0.929 . S
H183 C161 0.931 . S
H184 C163 0.930 . S
H185 C167 0.931 . S
H186 C165 0.931 . S
H187 C169 0.931 1_565 S
H188 C170 0.929 . S
H189 C171 0.930 . S
H190 C174 0.930 . S
H191 C175 0.931 . S
H192 C179 0.928 . S
H193 C178 0.929 1_655 S
H194 C176 0.932 . S
C195 C196 1.386 . S
C195 C197 1.397 . S
C195 H219 0.931 . S
C196 C195 1.386 . S
C196 C200 1.397 . S
C197 C195 1.397 . S
C197 C198 1.384 . S
C197 H220 0.930 . S
C198 C197 1.384 . S
C198 C199 1.377 . S
C198 C201 1.481 . S
C199 C198 1.377 . S
C199 C200 1.389 . S
C199 H221 0.929 . S
C200 C196 1.397 . S
C200 C199 1.389 . S
C200 H222 0.931 . S
C201 C198 1.481 . S
C201 C202 1.387 . S
C201 C206 1.390 . S
C202 C201 1.387 . S
C202 C203 1.401 . S
C202 H223 0.930 . S
C203 C202 1.401 . S
C203 C204 1.376 . S
C203 C212 1.511 . S
C204 C203 1.376 . S
C204 C205 1.392 . S
C204 H225 0.931 . S
C205 C204 1.392 . S
C205 C206 1.361 . S
C205 C207 1.500 . S
C206 C201 1.390 . S
C206 C205 1.361 . S
C206 H224 0.931 . S
C207 C205 1.500 . S
C207 C208 1.371 . S
C207 C209 1.365 . S
C208 C207 1.371 . S
C208 C218 1.386 . S
C208 H226 0.931 . S
C209 C207 1.365 . S
C209 C210 1.409 . S
C209 H227 0.929 . S
C210 C209 1.409 . S
C210 C211 1.380 . S
C210 H228 0.930 . S
C211 C210 1.380 . S
C211 C218 1.357 . S
C212 C203 1.511 . S
C212 C213 1.341 . S
C212 C214 1.371 . S
C213 C212 1.341 . S
C213 C217 1.394 . S
C213 H229 0.930 . S
C214 C212 1.371 . S
C214 C215 1.392 . S
C214 H230 0.931 . S
C215 C214 1.392 . S
C215 C216 1.331 . S
C215 H233 0.932 . S
C216 C215 1.331 . S
C216 C217 1.336 . S
C217 C213 1.394 . S
C217 C216 1.336 . S
C217 H232 0.929 . S
C218 C208 1.386 . S
C218 C211 1.357 . S
C218 H231 0.928 . S
H219 C195 0.931 . S
H220 C197 0.930 . S
H221 C199 0.929 . S
H222 C200 0.931 . S
H223 C202 0.930 . S
H224 C206 0.931 . S
H225 C204 0.931 . S
H226 C208 0.931 . S
H227 C209 0.929 . S
H228 C210 0.930 . S
H229 C213 0.930 . S
H230 C214 0.931 . S
H231 C218 0.928 . S
H232 C217 0.929 . S
H233 C215 0.932 . S
C234 C235 1.386 . S
C234 C236 1.397 . S
C234 H258 0.931 . S
C235 C234 1.386 . S
C235 C239 1.397 . S
C236 C234 1.397 . S
C236 C237 1.384 . S
C236 H259 0.930 . S
C237 C236 1.384 . S
C237 C238 1.377 . S
C237 C240 1.481 . S
C238 C237 1.377 . S
C238 C239 1.389 . S
C238 H260 0.929 . S
C239 C235 1.397 . S
C239 C238 1.389 . S
C239 H261 0.931 . S
C240 C237 1.481 . S
C240 C241 1.387 . S
C240 C245 1.390 . S
C241 C240 1.387 . S
C241 C242 1.401 . S
C241 H262 0.930 . S
C242 C241 1.401 . S
C242 C243 1.376 . S
C242 C251 1.511 . S
C243 C242 1.376 . S
C243 C244 1.392 . S
C243 H264 0.931 . S
C244 C243 1.392 . S
C244 C245 1.361 . S
C244 C246 1.500 . S
C245 C240 1.390 . S
C245 C244 1.361 . S
C245 H263 0.931 . S
C246 C244 1.500 . S
C246 C247 1.371 . S
C246 C248 1.365 . S
C247 C246 1.371 . S
C247 C257 1.386 . S
C247 H265 0.931 . S
C248 C246 1.365 . S
C248 C249 1.409 . S
C248 H266 0.929 . S
C249 C248 1.409 . S
C249 C250 1.380 . S
C249 H267 0.930 . S
C250 C249 1.380 . S
C250 C257 1.357 . S
C251 C242 1.511 . S
C251 C252 1.341 1_655 S
C251 C253 1.374 . S
C252 C251 1.341 1_455 S
C252 C256 1.394 . S
C252 H268 0.930 . S
C253 C251 1.374 . S
C253 C254 1.375 1_655 S
C253 H269 0.947 . S
C254 C253 1.375 1_455 S
C254 C255 1.331 . S
C254 H272 0.932 . S
C255 C254 1.331 . S
C255 C256 1.336 . S
C256 C252 1.394 . S
C256 C255 1.336 . S
C256 H271 0.929 . S
C257 C247 1.386 . S
C257 C250 1.357 . S
C257 H270 0.928 . S
H258 C234 0.931 . S
H259 C236 0.930 . S
H260 C238 0.929 . S
H261 C239 0.931 . S
H262 C241 0.930 . S
H263 C245 0.931 . S
H264 C243 0.931 . S
H265 C247 0.931 . S
H266 C248 0.929 . S
H267 C249 0.930 . S
H268 C252 0.930 . S
H269 C253 0.947 . S
H270 C257 0.928 . S
H271 C256 0.929 . S
H272 C254 0.932 . S
C273 C274 1.386 . S
C273 C275 1.397 . S
C273 H297 0.931 . S
C274 C273 1.386 . S
C274 C278 1.397 . S
C275 C273 1.397 . S
C275 C276 1.384 . S
C275 H298 0.930 . S
C276 C275 1.384 . S
C276 C277 1.377 . S
C276 C279 1.481 . S
C277 C276 1.377 . S
C277 C278 1.389 . S
C277 H299 0.929 . S
C278 C274 1.397 . S
C278 C277 1.389 . S
C278 H300 0.931 . S
C279 C276 1.481 . S
C279 C280 1.387 . S
C279 C284 1.390 . S
C280 C279 1.387 . S
C280 C281 1.401 . S
C280 H301 0.930 . S
C281 C280 1.401 . S
C281 C282 1.376 . S
C281 C290 1.511 . S
C282 C281 1.376 . S
C282 C283 1.392 . S
C282 H303 0.931 . S
C283 C282 1.392 . S
C283 C284 1.361 . S
C283 C285 1.500 . S
C284 C279 1.390 . S
C284 C283 1.361 . S
C284 H302 0.931 . S
C285 C283 1.500 . S
C285 C286 1.371 . S
C285 C287 1.365 . S
C286 C285 1.371 . S
C286 C296 1.386 . S
C286 H304 0.931 . S
C287 C285 1.365 . S
C287 C288 1.409 . S
C287 H305 0.929 . S
C288 C287 1.409 . S
C288 C289 1.380 . S
C288 H306 0.930 . S
C289 C288 1.380 . S
C289 C296 1.357 . S
C290 C281 1.511 . S
C290 C291 1.341 . S
C290 C292 1.371 . S
C291 C290 1.341 . S
C291 C295 1.394 . S
C291 H307 0.930 . S
C292 C290 1.371 . S
C292 C293 1.392 . S
C292 H308 0.931 . S
C293 C292 1.392 . S
C293 C294 1.331 . S
C293 H311 0.932 . S
C294 C293 1.331 . S
C294 C295 1.336 . S
C295 C291 1.394 . S
C295 C294 1.336 . S
C295 H310 0.929 . S
C296 C286 1.386 . S
C296 C289 1.357 . S
C296 H309 0.928 . S
H297 C273 0.931 . S
H298 C275 0.930 . S
H299 C277 0.929 . S
H300 C278 0.931 . S
H301 C280 0.930 . S
H302 C284 0.931 . S
H303 C282 0.931 . S
H304 C286 0.931 . S
H305 C287 0.929 . S
H306 C288 0.930 . S
H307 C291 0.930 . S
H308 C292 0.931 . S
H309 C296 0.928 . S
H310 C295 0.929 . S
H311 C293 0.932 . S
C312 C313 1.386 . S
C312 C314 1.397 . S
C312 H336 0.931 . S
C313 C312 1.386 . S
C313 C317 1.397 . S
C314 C312 1.397 . S
C314 C315 1.384 . S
C314 H337 0.930 . S
C315 C314 1.384 . S
C315 C316 1.377 . S
C315 C318 1.481 . S
C316 C315 1.377 . S
C316 C317 1.389 . S
C316 H338 0.929 . S
C317 C313 1.397 . S
C317 C316 1.389 . S
C317 H339 0.931 . S
C318 C315 1.481 . S
C318 C319 1.387 . S
C318 C323 1.390 . S
C319 C318 1.387 . S
C319 C320 1.401 . S
C319 H340 0.930 . S
C320 C319 1.401 . S
C320 C321 1.376 . S
C320 C329 1.511 . S
C321 C320 1.376 . S
C321 C322 1.392 . S
C321 H342 0.931 . S
C322 C321 1.392 . S
C322 C323 1.361 . S
C322 C324 1.500 . S
C323 C318 1.390 . S
C323 C322 1.361 . S
C323 H341 0.931 . S
C324 C322 1.500 . S
C324 C325 1.371 . S
C324 C326 1.365 . S
C325 C324 1.371 . S
C325 C335 1.386 . S
C325 H343 0.931 . S
C326 C324 1.365 . S
C326 C327 1.409 . S
C326 H344 0.929 . S
C327 C326 1.409 . S
C327 C328 1.380 . S
C327 H345 0.930 . S
C328 C327 1.380 . S
C328 C335 1.357 . S
C329 C320 1.511 . S
C329 C330 1.341 . S
C329 C331 1.371 . S
C330 C329 1.341 . S
C330 C334 1.394 . S
C330 H346 0.930 . S
C331 C329 1.371 . S
C331 C332 1.392 . S
C331 H347 0.931 . S
C332 C331 1.392 . S
C332 C333 1.331 . S
C332 H350 0.932 . S
C333 C332 1.331 . S
C333 C334 1.336 . S
C334 C330 1.394 . S
C334 C333 1.336 . S
C334 H349 0.929 . S
C335 C325 1.386 . S
C335 C328 1.357 . S
C335 H348 0.928 . S
H336 C312 0.931 . S
H337 C314 0.930 . S
H338 C316 0.929 . S
H339 C317 0.931 . S
H340 C319 0.930 . S
H341 C323 0.931 . S
H342 C321 0.931 . S
H343 C325 0.931 . S
H344 C326 0.929 . S
H345 C327 0.930 . S
H346 C330 0.930 . S
H347 C331 0.931 . S
H348 C335 0.928 . S
H349 C334 0.929 . S
H350 C332 0.932 . S
C351 C352 1.386 . S
C351 C353 1.397 . S
C351 H375 0.931 . S
C352 C351 1.386 . S
C352 C356 1.397 . S
C353 C351 1.397 . S
C353 C354 1.384 . S
C353 H376 0.930 . S
C354 C353 1.384 . S
C354 C355 1.377 . S
C354 C357 1.481 . S
C355 C354 1.377 . S
C355 C356 1.389 . S
C355 H377 0.929 . S
C356 C352 1.397 . S
C356 C355 1.389 . S
C356 H378 0.931 . S
C357 C354 1.481 . S
C357 C358 1.387 . S
C357 C362 1.390 . S
C358 C357 1.387 . S
C358 C359 1.401 . S
C358 H379 0.930 . S
C359 C358 1.401 . S
C359 C360 1.376 . S
C359 C368 1.511 . S
C360 C359 1.376 . S
C360 C361 1.392 . S
C360 H381 0.931 . S
C361 C360 1.392 . S
C361 C362 1.361 . S
C361 C363 1.500 . S
C362 C357 1.390 . S
C362 C361 1.361 . S
C362 H380 0.931 . S
C363 C361 1.500 . S
C363 C364 1.371 . S
C363 C365 1.365 . S
C364 C363 1.371 . S
C364 C374 1.386 . S
C364 H382 0.931 . S
C365 C363 1.365 . S
C365 C366 1.409 . S
C365 H383 0.929 . S
C366 C365 1.409 . S
C366 C367 1.380 . S
C366 H384 0.930 . S
C367 C366 1.380 . S
C367 C374 1.357 . S
C368 C359 1.511 . S
C368 C369 1.341 1_565 S
C368 C370 1.371 . S
C369 C368 1.341 1_545 S
C369 C373 1.394 . S
C369 H385 0.930 . S
C370 C368 1.371 . S
C370 C371 1.392 1_565 S
C370 H386 0.931 . S
C371 C370 1.392 1_545 S
C371 C372 1.331 . S
C371 H389 0.932 . S
C372 C371 1.331 . S
C372 C373 1.336 . S
C373 C369 1.394 . S
C373 C372 1.336 . S
C373 H388 0.929 . S
C374 C364 1.386 . S
C374 C367 1.357 . S
C374 H387 0.928 . S
H375 C351 0.931 . S
H376 C353 0.930 . S
H377 C355 0.929 . S
H378 C356 0.931 . S
H379 C358 0.930 . S
H380 C362 0.931 . S
H381 C360 0.931 . S
H382 C364 0.931 . S
H383 C365 0.929 . S
H384 C366 0.930 . S
H385 C369 0.930 . S
H386 C370 0.931 . S
H387 C374 0.928 . S
H388 C373 0.929 . S
H389 C371 0.932 . S
C390 C391 1.386 . S
C390 C392 1.397 . S
C390 H414 0.931 . S
C391 C390 1.386 . S
C391 C395 1.397 . S
C392 C390 1.397 . S
C392 C393 1.384 . S
C392 H415 0.930 . S
C393 C392 1.384 . S
C393 C394 1.377 . S
C393 C396 1.481 . S
C394 C393 1.377 . S
C394 C395 1.389 . S
C394 H416 0.929 . S
C395 C391 1.397 . S
C395 C394 1.389 . S
C395 H417 0.931 . S
C396 C393 1.481 . S
C396 C397 1.387 . S
C396 C401 1.390 . S
C397 C396 1.387 . S
C397 C398 1.401 . S
C397 H418 0.930 . S
C398 C397 1.401 . S
C398 C399 1.376 . S
C398 C407 1.511 . S
C399 C398 1.376 . S
C399 C400 1.392 . S
C399 H420 0.931 . S
C400 C399 1.392 . S
C400 C401 1.361 . S
C400 C402 1.500 . S
C401 C396 1.390 . S
C401 C400 1.361 . S
C401 H419 0.931 . S
C402 C400 1.500 . S
C402 C403 1.371 . S
C402 C404 1.365 . S
C403 C402 1.371 . S
C403 C413 1.386 . S
C403 H421 0.931 . S
C404 C402 1.365 . S
C404 C405 1.409 . S
C404 H422 0.929 . S
C405 C404 1.409 . S
C405 C406 1.380 . S
C405 H423 0.930 . S
C406 C405 1.380 . S
C406 C413 1.357 . S
C407 C398 1.511 . S
C407 C408 1.341 . S
C407 C409 1.371 . S
C408 C407 1.341 . S
C408 C412 1.394 . S
C408 H424 0.930 . S
C409 C407 1.371 . S
C409 C410 1.392 . S
C409 H425 0.931 . S
C410 C409 1.392 . S
C410 C411 1.331 . S
C410 H428 0.932 . S
C411 C410 1.331 . S
C411 C412 1.336 . S
C412 C408 1.394 . S
C412 C411 1.336 . S
C412 H427 0.929 . S
C413 C403 1.386 . S
C413 C406 1.357 . S
C413 H426 0.928 . S
H414 C390 0.931 . S
H415 C392 0.930 . S
H416 C394 0.929 . S
H417 C395 0.931 . S
H418 C397 0.930 . S
H419 C401 0.931 . S
H420 C399 0.931 . S
H421 C403 0.931 . S
H422 C404 0.929 . S
H423 C405 0.930 . S
H424 C408 0.930 . S
H425 C409 0.931 . S
H426 C413 0.928 . S
H427 C412 0.929 . S
H428 C410 0.932 . S
C429 C430 1.386 . S
C429 C431 1.397 . S
C429 H453 0.931 . S
C430 C429 1.386 . S
C430 C434 1.397 . S
C431 C429 1.397 . S
C431 C432 1.384 . S
C431 H454 0.930 . S
C432 C431 1.384 . S
C432 C433 1.377 . S
C432 C435 1.481 . S
C433 C432 1.377 . S
C433 C434 1.389 . S
C433 H455 0.929 . S
C434 C430 1.397 . S
C434 C433 1.389 . S
C434 H456 0.931 . S
C435 C432 1.481 . S
C435 C436 1.387 . S
C435 C440 1.390 . S
C436 C435 1.387 . S
C436 C437 1.401 . S
C436 H457 0.930 . S
C437 C436 1.401 . S
C437 C438 1.376 . S
C437 C446 1.511 . S
C438 C437 1.376 . S
C438 C439 1.392 . S
C438 H459 0.931 . S
C439 C438 1.392 . S
C439 C440 1.361 . S
C439 C441 1.500 . S
C440 C435 1.390 . S
C440 C439 1.361 . S
C440 H458 0.931 . S
C441 C439 1.500 . S
C441 C442 1.371 . S
C441 C443 1.365 . S
C442 C441 1.371 . S
C442 C452 1.386 . S
C442 H460 0.931 . S
C443 C441 1.365 . S
C443 C444 1.409 . S
C443 H461 0.929 . S
C444 C443 1.409 . S
C444 C445 1.380 . S
C444 H462 0.930 . S
C445 C444 1.380 . S
C445 C452 1.357 . S
C446 C437 1.511 . S
C446 C447 1.341 . S
C446 C448 1.371 . S
C447 C446 1.341 . S
C447 C451 1.394 . S
C447 H463 0.930 . S
C448 C446 1.371 . S
C448 C449 1.392 . S
C448 H464 0.931 . S
C449 C448 1.392 . S
C449 C450 1.331 . S
C449 H467 0.932 . S
C450 C449 1.331 . S
C450 C451 1.336 . S
C451 C447 1.394 . S
C451 C450 1.336 . S
C451 H466 0.929 . S
C452 C442 1.386 . S
C452 C445 1.357 . S
C452 H465 0.928 . S
H453 C429 0.931 . S
H454 C431 0.930 . S
H455 C433 0.929 . S
H456 C434 0.931 . S
H457 C436 0.930 . S
H458 C440 0.931 . S
H459 C438 0.931 . S
H460 C442 0.931 . S
H461 C443 0.929 . S
H462 C444 0.930 . S
H463 C447 0.930 . S
H464 C448 0.931 . S
H465 C452 0.928 . S
H466 C451 0.929 . S
H467 C449 0.932 . S
C468 C469 1.386 . S
C468 C470 1.397 . S
C468 H492 0.931 . S
C469 C468 1.386 . S
C469 C473 1.397 . S
C470 C468 1.397 . S
C470 C471 1.384 . S
C470 H493 0.930 . S
C471 C470 1.384 . S
C471 C472 1.377 . S
C471 C474 1.481 . S
C472 C471 1.377 . S
C472 C473 1.389 . S
C472 H494 0.929 . S
C473 C469 1.397 . S
C473 C472 1.389 . S
C473 H495 0.931 . S
C474 C471 1.481 . S
C474 C475 1.387 . S
C474 C479 1.390 . S
C475 C474 1.387 . S
C475 C476 1.401 . S
C475 H496 0.930 . S
C476 C475 1.401 . S
C476 C477 1.376 . S
C476 C485 1.511 . S
C477 C476 1.376 . S
C477 C478 1.392 . S
C477 H498 0.931 . S
C478 C477 1.392 . S
C478 C479 1.361 . S
C478 C480 1.500 . S
C479 C474 1.390 . S
C479 C478 1.361 . S
C479 H497 0.931 . S
C480 C478 1.500 . S
C480 C481 1.371 . S
C480 C482 1.365 . S
C481 C480 1.371 . S
C481 C491 1.386 . S
C481 H499 0.931 . S
C482 C480 1.365 . S
C482 C483 1.409 . S
C482 H500 0.929 . S
C483 C482 1.409 . S
C483 C484 1.380 . S
C483 H501 0.930 . S
C484 C483 1.380 . S
C484 C491 1.357 . S
C485 C476 1.511 . S
C485 C486 1.341 . S
C485 C487 1.371 . S
C486 C485 1.341 . S
C486 C490 1.394 . S
C486 H502 0.930 . S
C487 C485 1.371 . S
C487 C488 1.392 . S
C487 H503 0.931 . S
C488 C487 1.392 . S
C488 C489 1.331 . S
C488 H506 0.932 . S
C489 C488 1.331 . S
C489 C490 1.336 . S
C490 C486 1.394 . S
C490 C489 1.336 . S
C490 H505 0.929 . S
C491 C481 1.386 . S
C491 C484 1.357 . S
C491 H504 0.928 . S
H492 C468 0.931 . S
H493 C470 0.930 . S
H494 C472 0.929 . S
H495 C473 0.931 . S
H496 C475 0.930 . S
H497 C479 0.931 . S
H498 C477 0.931 . S
H499 C481 0.931 . S
H500 C482 0.929 . S
H501 C483 0.930 . S
H502 C486 0.930 . S
H503 C487 0.931 . S
H504 C491 0.928 . S
H505 C490 0.929 . S
H506 C488 0.932 . S
C507 C508 1.386 . S
C507 C509 1.397 . S
C507 H531 0.931 . S
C508 C507 1.386 . S
C508 C512 1.397 . S
C509 C507 1.397 . S
C509 C510 1.384 . S
C509 H532 0.930 . S
C510 C509 1.384 . S
C510 C511 1.377 . S
C510 C513 1.481 . S
C511 C510 1.377 . S
C511 C512 1.389 . S
C511 H533 0.929 . S
C512 C508 1.397 . S
C512 C511 1.389 . S
C512 H534 0.931 . S
C513 C510 1.481 . S
C513 C514 1.387 . S
C513 C518 1.390 . S
C514 C513 1.387 . S
C514 C515 1.401 . S
C514 H535 0.930 . S
C515 C514 1.401 . S
C515 C516 1.376 . S
C515 C524 1.511 . S
C516 C515 1.376 . S
C516 C517 1.392 . S
C516 H537 0.931 . S
C517 C516 1.392 . S
C517 C518 1.361 . S
C517 C519 1.500 . S
C518 C513 1.390 . S
C518 C517 1.361 . S
C518 H536 0.931 . S
C519 C517 1.500 . S
C519 C520 1.371 . S
C519 C521 1.365 . S
C520 C519 1.371 . S
C520 C530 1.386 . S
C520 H538 0.931 1_556 S
C521 C519 1.365 . S
C521 C522 1.409 . S
C521 H539 0.929 . S
C522 C521 1.409 . S
C522 C523 1.380 . S
C522 H540 0.930 . S
C523 C522 1.380 . S
C523 C530 1.357 . S
C524 C515 1.511 . S
C524 C525 1.341 . S
C524 C526 1.371 1_556 S
C525 C524 1.341 . S
C525 C529 1.394 1_556 S
C525 H541 0.930 . S
C526 C524 1.371 1_554 S
C526 C527 1.392 . S
C526 H542 0.931 . S
C527 C526 1.392 . S
C527 C528 1.331 . S
C527 H545 0.932 . S
C528 C527 1.331 . S
C528 C529 1.336 . S
C529 C525 1.394 1_554 S
C529 C528 1.336 . S
C529 H544 0.929 . S
C530 C520 1.386 . S
C530 C523 1.357 . S
C530 H543 0.928 1_556 S
H531 C507 0.931 . S
H532 C509 0.930 . S
H533 C511 0.929 . S
H534 C512 0.931 . S
H535 C514 0.930 . S
H536 C518 0.931 . S
H537 C516 0.931 . S
H538 C520 0.931 1_554 S
H539 C521 0.929 . S
H540 C522 0.930 . S
H541 C525 0.930 . S
H542 C526 0.931 . S
H543 C530 0.928 1_554 S
H544 C529 0.929 . S
H545 C527 0.932 . S
C546 C547 1.386 . S
C546 C548 1.397 . S
C546 H570 0.931 . S
C547 C546 1.386 . S
C547 C551 1.397 . S
C548 C546 1.397 . S
C548 C549 1.384 . S
C548 H571 0.930 . S
C549 C548 1.384 . S
C549 C550 1.377 . S
C549 C552 1.481 . S
C550 C549 1.377 . S
C550 C551 1.389 . S
C550 H572 0.929 . S
C551 C547 1.397 . S
C551 C550 1.389 . S
C551 H573 0.931 . S
C552 C549 1.481 . S
C552 C553 1.387 . S
C552 C557 1.390 . S
C553 C552 1.387 . S
C553 C554 1.401 . S
C553 H574 0.930 . S
C554 C553 1.401 . S
C554 C555 1.376 . S
C554 C563 1.511 . S
C555 C554 1.376 . S
C555 C556 1.392 . S
C555 H576 0.931 . S
C556 C555 1.392 . S
C556 C557 1.361 . S
C556 C558 1.500 . S
C557 C552 1.390 . S
C557 C556 1.361 . S
C557 H575 0.931 . S
C558 C556 1.500 . S
C558 C559 1.371 . S
C558 C560 1.365 . S
C559 C558 1.371 . S
C559 C569 1.386 . S
C559 H577 0.931 . S
C560 C558 1.365 . S
C560 C561 1.409 . S
C560 H578 0.929 . S
C561 C560 1.409 . S
C561 C562 1.380 . S
C561 H579 0.930 . S
C562 C561 1.380 . S
C562 C569 1.357 . S
C563 C554 1.511 . S
C563 C564 1.341 . S
C563 C565 1.371 . S
C564 C563 1.341 . S
C564 C568 1.394 . S
C564 H580 0.930 . S
C565 C563 1.371 . S
C565 C566 1.392 . S
C565 H581 0.931 . S
C566 C565 1.392 . S
C566 C567 1.331 . S
C566 H584 0.932 . S
C567 C566 1.331 . S
C567 C568 1.336 . S
C568 C564 1.394 . S
C568 C567 1.336 . S
C568 H583 0.929 . S
C569 C559 1.386 . S
C569 C562 1.357 . S
C569 H582 0.928 . S
H570 C546 0.931 . S
H571 C548 0.930 . S
H572 C550 0.929 . S
H573 C551 0.931 . S
H574 C553 0.930 . S
H575 C557 0.931 . S
H576 C555 0.931 . S
H577 C559 0.931 . S
H578 C560 0.929 . S
H579 C561 0.930 . S
H580 C564 0.930 . S
H581 C565 0.931 . S
H582 C569 0.928 . S
H583 C568 0.929 . S
H584 C566 0.932 . S
C585 C586 1.386 . S
C585 C587 1.397 1_554 S
C585 H609 0.931 1_554 S
C586 C585 1.386 . S
C586 C590 1.397 . S
C587 C585 1.397 1_556 S
C587 C588 1.384 . S
C587 H610 0.930 . S
C588 C587 1.384 . S
C588 C589 1.377 1_556 S
C588 C591 1.481 . S
C589 C588 1.377 1_554 S
C589 C590 1.389 . S
C589 H611 0.929 . S
C590 C586 1.397 . S
C590 C589 1.389 . S
C590 H612 0.931 . S
C591 C588 1.481 . S
C591 C592 1.387 . S
C591 C596 1.390 . S
C592 C591 1.387 . S
C592 C593 1.401 . S
C592 H613 0.930 . S
C593 C592 1.401 . S
C593 C594 1.376 . S
C593 C602 1.511 . S
C594 C593 1.376 . S
C594 C595 1.392 . S
C594 H615 0.931 . S
C595 C594 1.392 . S
C595 C596 1.361 . S
C595 C597 1.500 . S
C596 C591 1.390 . S
C596 C595 1.361 . S
C596 H614 0.931 . S
C597 C595 1.500 . S
C597 C598 1.395 . S
C597 C599 1.365 . S
C598 C597 1.395 . S
C598 C608 1.356 1_545 S
C598 H616 0.940 . S
C599 C597 1.365 . S
C599 C600 1.399 1_546 S
C599 H617 0.929 1_556 S
C600 C599 1.399 1_564 S
C600 C601 1.335 1_554 S
C600 H618 0.987 . S
C601 C600 1.335 1_556 S
C601 C608 1.357 . S
C602 C593 1.511 . S
C602 C603 1.341 . S
C602 C604 1.371 . S
C603 C602 1.341 . S
C603 C607 1.394 . S
C603 H619 0.930 . S
C604 C602 1.371 . S
C604 C605 1.392 . S
C604 H620 0.931 . S
C605 C604 1.392 . S
C605 C606 1.331 . S
C605 H623 0.932 1_545 S
C606 C605 1.331 . S
C606 C607 1.336 . S
C607 C603 1.394 . S
C607 C606 1.336 . S
C607 H622 0.929 . S
C608 C598 1.356 1_565 S
C608 C601 1.357 . S
C608 H621 0.928 . S
H609 C585 0.931 1_556 S
H610 C587 0.930 . S
H611 C589 0.929 . S
H612 C590 0.931 . S
H613 C592 0.930 . S
H614 C596 0.931 . S
H615 C594 0.931 . S
H616 C598 0.940 . S
H617 C599 0.929 1_554 S
H618 C600 0.987 . S
H619 C603 0.930 . S
H620 C604 0.931 . S
H621 C608 0.928 . S
H622 C607 0.929 . S
H623 C605 0.932 1_565 S
Mn624 O629 2.095 . S
Mn624 O639 2.162 . S
Mn624 O640 2.297 . S
Mn624 O648 2.378 1_554 S
Mn624 O649 2.209 1_554 S
Mn624 O650 2.094 . S
Mn625 O630 2.121 . S
Mn625 N632 2.257 . S
Mn625 N641 2.282 . S
Mn625 O649 2.215 . S
Mn625 O651 2.117 . S
C626 O648 1.246 . S
C626 O649 1.283 . S
C627 O639 1.281 . S
C627 O640 1.236 . S
C628 O650 1.240 . S
C628 O651 1.264 1_554 S
O629 Mn624 2.095 . S
O629 C638 1.250 . S
O630 Mn625 2.121 . S
O630 C638 1.258 1_556 S
C631 N632 1.326 . S
C631 C635 1.460 . S
C631 H637 0.929 . S
N632 Mn625 2.257 . S
N632 C631 1.326 . S
N632 C636 1.362 . S
C633 C634 1.258 . S
C633 C636 1.431 . S
C633 C653 1.449 . S
C634 C633 1.258 . S
C634 C635 1.477 . S
C634 H654 0.931 . S
C635 C631 1.460 . S
C635 C634 1.477 . S
C635 H655 0.930 . S
C636 N632 1.362 . S
C636 C633 1.431 . S
C636 C646 1.476 . S
H637 C631 0.929 . S
C638 O629 1.250 . S
C638 O630 1.258 1_554 S
O639 Mn624 2.162 . S
O639 C627 1.281 . S
O640 Mn624 2.297 . S
O640 C627 1.236 . S
N641 Mn625 2.282 . S
N641 C642 1.328 . S
N641 C646 1.318 . S
C642 N641 1.328 . S
C642 C643 1.457 . S
C642 H647 0.929 . S
C643 C642 1.457 . S
C643 C644 1.291 . S
C643 H656 0.931 . S
C644 C643 1.291 . S
C644 C645 1.373 . S
C644 H657 0.929 . S
C645 C644 1.373 . S
C645 C646 1.396 . S
C645 C652 1.403 . S
C646 C636 1.476 . S
C646 N641 1.318 . S
C646 C645 1.396 . S
H647 C642 0.929 . S
O648 Mn624 2.378 1_556 S
O648 C626 1.246 . S
O649 Mn624 2.209 1_556 S
O649 Mn625 2.215 . S
O649 C626 1.283 . S
O650 Mn624 2.094 . S
O650 C628 1.240 . S
O651 Mn625 2.117 . S
O651 C628 1.264 1_556 S
C652 C645 1.403 . S
C652 C653 1.399 . S
C652 H658 0.929 . S
C653 C633 1.449 . S
C653 C652 1.399 . S
C653 H659 0.930 . S
H654 C634 0.931 . S
H655 C635 0.930 . S
H656 C643 0.931 . S
H657 C644 0.929 . S
H658 C652 0.929 . S
H659 C653 0.930 . S
Mn660 O665 2.095 . S
Mn660 O675 2.162 . S
Mn660 O676 2.297 . S
Mn660 O684 2.385 . S
Mn660 O685 2.209 . S
Mn660 O686 2.094 . S
Mn661 O666 2.121 . S
Mn661 N668 2.257 . S
Mn661 N677 2.282 . S
Mn661 O685 2.215 . S
Mn661 O687 2.117 . S
C662 O684 1.234 . S
C662 O685 1.283 . S
C663 O675 1.281 . S
C663 O676 1.236 . S
C664 O686 1.240 . S
C664 O687 1.264 . S
O665 Mn660 2.095 . S
O665 C674 1.250 . S
O666 Mn661 2.121 . S
O666 C674 1.258 . S
C667 N668 1.326 . S
C667 C671 1.460 . S
C667 H673 0.929 . S
N668 Mn661 2.257 . S
N668 C667 1.326 . S
N668 C672 1.362 . S
C669 C670 1.258 . S
C669 C672 1.431 . S
C669 C689 1.449 . S
C670 C669 1.258 . S
C670 C671 1.477 . S
C670 H690 0.931 . S
C671 C667 1.460 . S
C671 C670 1.477 . S
C671 H691 0.930 . S
C672 N668 1.362 . S
C672 C669 1.431 . S
C672 C682 1.476 . S
H673 C667 0.929 . S
C674 O665 1.250 . S
C674 O666 1.258 . S
O675 Mn660 2.162 . S
O675 C663 1.281 . S
O676 Mn660 2.297 . S
O676 C663 1.236 . S
N677 Mn661 2.282 . S
N677 C678 1.328 . S
N677 C682 1.318 . S
C678 N677 1.328 . S
C678 C679 1.457 . S
C678 H683 0.929 . S
C679 C678 1.457 . S
C679 C680 1.291 . S
C679 H692 0.931 . S
C680 C679 1.291 . S
C680 C681 1.373 . S
C680 H693 0.929 . S
C681 C680 1.373 . S
C681 C682 1.396 . S
C681 C688 1.403 . S
C682 C672 1.476 . S
C682 N677 1.318 . S
C682 C681 1.396 . S
H683 C678 0.929 . S
O684 Mn660 2.385 . S
O684 C662 1.234 . S
O685 Mn660 2.209 . S
O685 Mn661 2.215 . S
O685 C662 1.283 . S
O686 Mn660 2.094 . S
O686 C664 1.240 . S
O687 Mn661 2.117 . S
O687 C664 1.264 . S
C688 C681 1.403 . S
C688 C689 1.399 . S
C688 H694 0.929 . S
C689 C669 1.449 . S
C689 C688 1.399 . S
C689 H695 0.930 . S
H690 C670 0.931 . S
H691 C671 0.930 . S
H692 C679 0.931 . S
H693 C680 0.929 . S
H694 C688 0.929 . S
H695 C689 0.930 . S
Mn696 O701 2.095 1_554 S
Mn696 O711 2.162 . S
Mn696 O712 2.297 1_554 S
Mn696 O720 2.385 . S
Mn696 O721 2.209 1_554 S
Mn696 O722 2.094 . S
Mn697 O702 2.121 . S
Mn697 N704 2.257 . S
Mn697 N713 2.282 . S
Mn697 O721 2.215 . S
Mn697 O723 2.117 1_556 S
C698 O720 1.230 1_556 S
C698 O721 1.286 . S
C699 O711 1.281 . S
C699 O712 1.236 1_554 S
C700 O722 1.240 . S
C700 O723 1.264 . S
O701 Mn696 2.095 1_556 S
O701 C710 1.250 . S
O702 Mn697 2.121 . S
O702 C710 1.258 . S
C703 N704 1.326 . S
C703 C707 1.460 . S
C703 H709 0.929 . S
N704 Mn697 2.257 . S
N704 C703 1.326 . S
N704 C708 1.362 . S
C705 C706 1.258 . S
C705 C708 1.431 . S
C705 C725 1.449 . S
C706 C705 1.258 . S
C706 C707 1.477 . S
C706 H726 0.931 . S
C707 C703 1.460 . S
C707 C706 1.477 . S
C707 H727 0.930 . S
C708 N704 1.362 . S
C708 C705 1.431 . S
C708 C718 1.476 . S
H709 C703 0.929 . S
C710 O701 1.250 . S
C710 O702 1.258 . S
O711 Mn696 2.162 . S
O711 C699 1.281 . S
O712 Mn696 2.297 1_556 S
O712 C699 1.236 1_556 S
N713 Mn697 2.282 . S
N713 C714 1.328 1_556 S
N713 C718 1.318 . S
C714 N713 1.328 1_554 S
C714 C715 1.457 . S
C714 H719 0.929 . S
C715 C714 1.457 . S
C715 C716 1.291 . S
C715 H728 0.931 . S
C716 C715 1.291 . S
C716 C717 1.373 1_554 S
C716 H729 0.929 . S
C717 C716 1.373 1_556 S
C717 C718 1.396 . S
C717 C724 1.403 . S
C718 C708 1.476 . S
C718 N713 1.318 . S
C718 C717 1.396 . S
H719 C714 0.929 . S
O720 Mn696 2.385 . S
O720 C698 1.230 1_554 S
O721 Mn696 2.209 1_556 S
O721 Mn697 2.215 . S
O721 C698 1.286 . S
O722 Mn696 2.094 . S
O722 C700 1.240 . S
O723 Mn697 2.117 1_554 S
O723 C700 1.264 . S
C724 C717 1.403 . S
C724 C725 1.399 . S
C724 H730 0.929 . S
C725 C705 1.449 . S
C725 C724 1.399 . S
C725 H731 0.930 . S
H726 C706 0.931 . S
H727 C707 0.930 . S
H728 C715 0.931 . S
H729 C716 0.929 . S
H730 C724 0.929 . S
H731 C725 0.930 . S
Mn732 O737 2.095 . S
Mn732 O747 2.162 . S
Mn732 O748 2.297 . S
Mn732 O756 2.375 1_545 S
Mn732 O757 2.209 1_545 S
Mn732 O758 2.094 . S
Mn733 O738 2.121 . S
Mn733 N740 2.257 . S
Mn733 N749 2.282 . S
Mn733 O757 2.215 . S
Mn733 O759 2.117 . S
C734 O756 1.254 . S
C734 O757 1.283 . S
C735 O747 1.281 . S
C735 O748 1.236 . S
C736 O758 1.240 . S
C736 O759 1.264 1_545 S
O737 Mn732 2.095 . S
O737 C746 1.250 . S
O738 Mn733 2.121 . S
O738 C746 1.258 1_565 S
C739 N740 1.326 . S
C739 C743 1.460 . S
C739 H745 0.929 . S
N740 Mn733 2.257 . S
N740 C739 1.326 . S
N740 C744 1.362 . S
C741 C742 1.258 . S
C741 C744 1.431 . S
C741 C761 1.449 . S
C742 C741 1.258 . S
C742 C743 1.477 . S
C742 H762 0.931 . S
C743 C739 1.460 . S
C743 C742 1.477 . S
C743 H763 0.930 . S
C744 N740 1.362 . S
C744 C741 1.431 . S
C744 C754 1.476 . S
H745 C739 0.929 . S
C746 O737 1.250 . S
C746 O738 1.258 1_545 S
O747 Mn732 2.162 . S
O747 C735 1.281 . S
O748 Mn732 2.297 . S
O748 C735 1.236 . S
N749 Mn733 2.282 . S
N749 C750 1.328 . S
N749 C754 1.318 . S
C750 N749 1.328 . S
C750 C751 1.457 . S
C750 H755 0.929 . S
C751 C750 1.457 . S
C751 C752 1.291 . S
C751 H764 0.931 . S
C752 C751 1.291 . S
C752 C753 1.373 . S
C752 H765 0.929 . S
C753 C752 1.373 . S
C753 C754 1.396 . S
C753 C760 1.403 . S
C754 C744 1.476 . S
C754 N749 1.318 . S
C754 C753 1.396 . S
H755 C750 0.929 . S
O756 Mn732 2.375 1_565 S
O756 C734 1.254 . S
O757 Mn732 2.209 1_565 S
O757 Mn733 2.215 . S
O757 C734 1.283 . S
O758 Mn732 2.094 . S
O758 C736 1.240 . S
O759 Mn733 2.117 . S
O759 C736 1.264 1_565 S
C760 C753 1.403 . S
C760 C761 1.399 . S
C760 H766 0.929 . S
C761 C741 1.449 . S
C761 C760 1.399 . S
C761 H767 0.930 . S
H762 C742 0.931 . S
H763 C743 0.930 . S
H764 C751 0.931 . S
H765 C752 0.929 . S
H766 C760 0.929 . S
H767 C761 0.930 . S
Mn768 O773 2.095 . S
Mn768 O783 2.162 . S
Mn768 O784 2.297 . S
Mn768 O792 2.385 . S
Mn768 O793 2.209 . S
Mn768 O794 2.094 . S
Mn769 O774 2.121 . S
Mn769 N776 2.257 . S
Mn769 N785 2.282 . S
Mn769 O793 2.215 . S
Mn769 O795 2.117 . S
C770 O792 1.234 . S
C770 O793 1.283 . S
C771 O783 1.281 . S
C771 O784 1.236 . S
C772 O794 1.240 . S
C772 O795 1.264 . S
O773 Mn768 2.095 . S
O773 C782 1.250 . S
O774 Mn769 2.121 . S
O774 C782 1.258 . S
C775 N776 1.326 . S
C775 C779 1.460 . S
C775 H781 0.929 . S
N776 Mn769 2.257 . S
N776 C775 1.326 . S
N776 C780 1.362 . S
C777 C778 1.258 . S
C777 C780 1.431 . S
C777 C797 1.449 . S
C778 C777 1.258 . S
C778 C779 1.477 . S
C778 H798 0.931 . S
C779 C775 1.460 . S
C779 C778 1.477 . S
C779 H799 0.930 . S
C780 N776 1.362 . S
C780 C777 1.431 . S
C780 C790 1.476 . S
H781 C775 0.929 . S
C782 O773 1.250 . S
C782 O774 1.258 . S
O783 Mn768 2.162 . S
O783 C771 1.281 . S
O784 Mn768 2.297 . S
O784 C771 1.236 . S
N785 Mn769 2.282 . S
N785 C786 1.328 . S
N785 C790 1.318 . S
C786 N785 1.328 . S
C786 C787 1.457 . S
C786 H791 0.929 . S
C787 C786 1.457 . S
C787 C788 1.291 . S
C787 H800 0.931 . S
C788 C787 1.291 . S
C788 C789 1.373 . S
C788 H801 0.929 . S
C789 C788 1.373 . S
C789 C790 1.396 . S
C789 C796 1.403 . S
C790 C780 1.476 . S
C790 N785 1.318 . S
C790 C789 1.396 . S
H791 C786 0.929 . S
O792 Mn768 2.385 . S
O792 C770 1.234 . S
O793 Mn768 2.209 . S
O793 Mn769 2.215 . S
O793 C770 1.283 . S
O794 Mn768 2.094 . S
O794 C772 1.240 . S
O795 Mn769 2.117 . S
O795 C772 1.264 . S
C796 C789 1.403 . S
C796 C797 1.399 . S
C796 H802 0.929 . S
C797 C777 1.449 . S
C797 C796 1.399 . S
C797 H803 0.930 . S
H798 C778 0.931 . S
H799 C779 0.930 . S
H800 C787 0.931 . S
H801 C788 0.929 . S
H802 C796 0.929 . S
H803 C797 0.930 . S
Mn804 O809 2.095 . S
Mn804 O819 2.162 . S
Mn804 O820 2.297 . S
Mn804 O828 2.385 . S
Mn804 O829 2.209 . S
Mn804 O830 2.094 . S
Mn805 O810 2.121 . S
Mn805 N812 2.257 . S
Mn805 N821 2.282 . S
Mn805 O829 2.215 . S
Mn805 O831 2.117 . S
C806 O828 1.234 . S
C806 O829 1.283 . S
C807 O819 1.281 . S
C807 O820 1.236 . S
C808 O830 1.240 . S
C808 O831 1.264 . S
O809 Mn804 2.095 . S
O809 C818 1.250 . S
O810 Mn805 2.121 . S
O810 C818 1.258 . S
C811 N812 1.326 . S
C811 C815 1.460 . S
C811 H817 0.929 . S
N812 Mn805 2.257 . S
N812 C811 1.326 . S
N812 C816 1.362 . S
C813 C814 1.258 . S
C813 C816 1.431 . S
C813 C833 1.449 . S
C814 C813 1.258 . S
C814 C815 1.477 . S
C814 H834 0.931 . S
C815 C811 1.460 . S
C815 C814 1.477 . S
C815 H835 0.930 . S
C816 N812 1.362 . S
C816 C813 1.431 . S
C816 C826 1.476 . S
H817 C811 0.929 . S
C818 O809 1.250 . S
C818 O810 1.258 . S
O819 Mn804 2.162 . S
O819 C807 1.281 . S
O820 Mn804 2.297 . S
O820 C807 1.236 . S
N821 Mn805 2.282 . S
N821 C822 1.328 . S
N821 C826 1.318 . S
C822 N821 1.328 . S
C822 C823 1.457 . S
C822 H827 0.929 . S
C823 C822 1.457 . S
C823 C824 1.291 . S
C823 H836 0.931 . S
C824 C823 1.291 . S
C824 C825 1.373 . S
C824 H837 0.929 . S
C825 C824 1.373 . S
C825 C826 1.396 . S
C825 C832 1.403 . S
C826 C816 1.476 . S
C826 N821 1.318 . S
C826 C825 1.396 . S
H827 C822 0.929 . S
O828 Mn804 2.385 . S
O828 C806 1.234 . S
O829 Mn804 2.209 . S
O829 Mn805 2.215 . S
O829 C806 1.283 . S
O830 Mn804 2.094 . S
O830 C808 1.240 . S
O831 Mn805 2.117 . S
O831 C808 1.264 . S
C832 C825 1.403 . S
C832 C833 1.399 . S
C832 H838 0.929 . S
C833 C813 1.449 . S
C833 C832 1.399 . S
C833 H839 0.930 . S
H834 C814 0.931 . S
H835 C815 0.930 . S
H836 C823 0.931 . S
H837 C824 0.929 . S
H838 C832 0.929 . S
H839 C833 0.930 . S
Mn840 O845 2.095 . S
Mn840 O855 2.162 . S
Mn840 O856 2.297 . S
Mn840 O864 2.385 . S
Mn840 O865 2.209 . S
Mn840 O866 2.094 . S
Mn841 O846 2.121 . S
Mn841 N848 2.257 . S
Mn841 N857 2.282 . S
Mn841 O865 2.215 . S
Mn841 O867 2.117 . S
C842 O864 1.234 . S
C842 O865 1.283 . S
C843 O855 1.281 . S
C843 O856 1.236 . S
C844 O866 1.240 . S
C844 O867 1.264 . S
O845 Mn840 2.095 . S
O845 C854 1.250 . S
O846 Mn841 2.121 . S
O846 C854 1.258 . S
C847 N848 1.326 . S
C847 C851 1.460 . S
C847 H853 0.929 . S
N848 Mn841 2.257 . S
N848 C847 1.326 . S
N848 C852 1.362 . S
C849 C850 1.258 . S
C849 C852 1.431 . S
C849 C869 1.449 . S
C850 C849 1.258 . S
C850 C851 1.477 . S
C850 H870 0.931 . S
C851 C847 1.460 . S
C851 C850 1.477 . S
C851 H871 0.930 . S
C852 N848 1.362 . S
C852 C849 1.431 . S
C852 C862 1.476 . S
H853 C847 0.929 . S
C854 O845 1.250 . S
C854 O846 1.258 . S
O855 Mn840 2.162 . S
O855 C843 1.281 . S
O856 Mn840 2.297 . S
O856 C843 1.236 . S
N857 Mn841 2.282 . S
N857 C858 1.328 . S
N857 C862 1.318 . S
C858 N857 1.328 . S
C858 C859 1.457 . S
C858 H863 0.929 . S
C859 C858 1.457 . S
C859 C860 1.291 . S
C859 H872 0.931 . S
C860 C859 1.291 . S
C860 C861 1.373 . S
C860 H873 0.929 . S
C861 C860 1.373 . S
C861 C862 1.396 . S
C861 C868 1.403 . S
C862 C852 1.476 . S
C862 N857 1.318 . S
C862 C861 1.396 . S
H863 C858 0.929 . S
O864 Mn840 2.385 . S
O864 C842 1.234 . S
O865 Mn840 2.209 . S
O865 Mn841 2.215 . S
O865 C842 1.283 . S
O866 Mn840 2.094 . S
O866 C844 1.240 . S
O867 Mn841 2.117 . S
O867 C844 1.264 . S
C868 C861 1.403 . S
C868 C869 1.399 . S
C868 H874 0.929 . S
C869 C849 1.449 . S
C869 C868 1.399 . S
C869 H875 0.930 . S
H870 C850 0.931 . S
H871 C851 0.930 . S
H872 C859 0.931 . S
H873 C860 0.929 . S
H874 C868 0.929 . S
H875 C869 0.930 . S
Mn876 O881 2.095 . S
Mn876 O891 2.162 . S
Mn876 O892 2.297 . S
Mn876 O900 2.385 1_565 S
Mn876 O901 2.209 1_565 S
Mn876 O902 2.094 . S
Mn877 O882 2.121 . S
Mn877 N884 2.257 . S
Mn877 N893 2.282 . S
Mn877 O901 2.215 . S
Mn877 O903 2.117 . S
C878 O900 1.234 . S
C878 O901 1.283 . S
C879 O891 1.281 . S
C879 O892 1.236 . S
C880 O902 1.221 1_545 S
C880 O903 1.289 . S
O881 Mn876 2.095 . S
O881 C890 1.250 1_565 S
O882 Mn877 2.121 . S
O882 C890 1.258 . S
C883 N884 1.326 . S
C883 C887 1.460 . S
C883 H889 0.929 . S
N884 Mn877 2.257 . S
N884 C883 1.326 . S
N884 C888 1.362 . S
C885 C886 1.258 . S
C885 C888 1.431 . S
C885 C905 1.449 . S
C886 C885 1.258 . S
C886 C887 1.477 . S
C886 H906 0.931 . S
C887 C883 1.460 . S
C887 C886 1.477 . S
C887 H907 0.930 . S
C888 N884 1.362 . S
C888 C885 1.431 . S
C888 C898 1.476 . S
H889 C883 0.929 . S
C890 O881 1.250 1_545 S
C890 O882 1.258 . S
O891 Mn876 2.162 . S
O891 C879 1.281 . S
O892 Mn876 2.297 . S
O892 C879 1.236 . S
N893 Mn877 2.282 . S
N893 C894 1.328 . S
N893 C898 1.318 . S
C894 N893 1.328 . S
C894 C895 1.457 . S
C894 H899 0.929 . S
C895 C894 1.457 . S
C895 C896 1.291 . S
C895 H908 0.931 . S
C896 C895 1.291 . S
C896 C897 1.373 . S
C896 H909 0.929 . S
C897 C896 1.373 . S
C897 C898 1.396 . S
C897 C904 1.403 . S
C898 C888 1.476 . S
C898 N893 1.318 . S
C898 C897 1.396 . S
H899 C894 0.929 . S
O900 Mn876 2.385 1_545 S
O900 C878 1.234 . S
O901 Mn876 2.209 1_545 S
O901 Mn877 2.215 . S
O901 C878 1.283 . S
O902 Mn876 2.094 . S
O902 C880 1.221 1_565 S
O903 Mn877 2.117 . S
O903 C880 1.289 . S
C904 C897 1.403 . S
C904 C905 1.399 . S
C904 H910 0.929 . S
C905 C885 1.449 . S
C905 C904 1.399 . S
C905 H911 0.930 . S
H906 C886 0.931 . S
H907 C887 0.930 . S
H908 C895 0.931 . S
H909 C896 0.929 . S
H910 C904 0.929 . S
H911 C905 0.930 . S
Mn912 O917 2.095 . S
Mn912 O927 2.162 . S
Mn912 O928 2.297 . S
Mn912 O936 2.385 1_455 S
Mn912 O937 2.209 1_455 S
Mn912 O938 2.094 . S
Mn913 O918 2.121 . S
Mn913 N920 2.257 . S
Mn913 N929 2.282 . S
Mn913 O937 2.215 . S
Mn913 O939 2.117 . S
C914 O936 1.234 . S
C914 O937 1.283 . S
C915 O927 1.281 . S
C915 O928 1.236 . S
C916 O938 1.240 . S
C916 O939 1.264 1_455 S
O917 Mn912 2.095 . S
O917 C926 1.250 1_455 S
O918 Mn913 2.121 . S
O918 C926 1.258 . S
C919 N920 1.326 . S
C919 C923 1.460 . S
C919 H925 0.929 . S
N920 Mn913 2.257 . S
N920 C919 1.326 . S
N920 C924 1.362 . S
C921 C922 1.258 . S
C921 C924 1.431 . S
C921 C941 1.449 . S
C922 C921 1.258 . S
C922 C923 1.477 . S
C922 H942 0.931 . S
C923 C919 1.460 . S
C923 C922 1.477 . S
C923 H943 0.930 . S
C924 N920 1.362 . S
C924 C921 1.431 . S
C924 C934 1.476 . S
H925 C919 0.929 . S
C926 O917 1.250 1_655 S
C926 O918 1.258 . S
O927 Mn912 2.162 . S
O927 C915 1.281 . S
O928 Mn912 2.297 . S
O928 C915 1.236 . S
N929 Mn913 2.282 . S
N929 C930 1.328 . S
N929 C934 1.318 . S
C930 N929 1.328 . S
C930 C931 1.457 . S
C930 H935 0.929 . S
C931 C930 1.457 . S
C931 C932 1.291 . S
C931 H944 0.931 . S
C932 C931 1.291 . S
C932 C933 1.373 . S
C932 H945 0.929 . S
C933 C932 1.373 . S
C933 C934 1.396 . S
C933 C940 1.403 . S
C934 C924 1.476 . S
C934 N929 1.318 . S
C934 C933 1.396 . S
H935 C930 0.929 . S
O936 Mn912 2.385 1_655 S
O936 C914 1.234 . S
O937 Mn912 2.209 1_655 S
O937 Mn913 2.215 . S
O937 C914 1.283 . S
O938 Mn912 2.094 . S
O938 C916 1.240 . S
O939 Mn913 2.117 . S
O939 C916 1.264 1_655 S
C940 C933 1.403 . S
C940 C941 1.399 . S
C940 H946 0.929 . S
C941 C921 1.449 . S
C941 C940 1.399 . S
C941 H947 0.930 . S
H942 C922 0.931 . S
H943 C923 0.930 . S
H944 C931 0.931 . S
H945 C932 0.929 . S
H946 C940 0.929 . S
H947 C941 0.930 . S
Mn948 O953 2.095 . S
Mn948 O963 2.162 . S
Mn948 O964 2.297 . S
Mn948 O972 2.385 . S
Mn948 O973 2.209 . S
Mn948 O974 2.094 . S
Mn949 O954 2.121 . S
Mn949 N956 2.257 . S
Mn949 N965 2.282 . S
Mn949 O973 2.215 . S
Mn949 O975 2.117 . S
C950 O972 1.234 . S
C950 O973 1.283 . S
C951 O963 1.281 . S
C951 O964 1.236 . S
C952 O974 1.240 . S
C952 O975 1.264 . S
O953 Mn948 2.095 . S
O953 C962 1.250 . S
O954 Mn949 2.121 . S
O954 C962 1.258 . S
C955 N956 1.326 . S
C955 C959 1.460 . S
C955 H961 0.929 . S
N956 Mn949 2.257 . S
N956 C955 1.326 . S
N956 C960 1.362 . S
C957 C958 1.258 . S
C957 C960 1.431 . S
C957 C977 1.449 . S
C958 C957 1.258 . S
C958 C959 1.477 . S
C958 H978 0.931 . S
C959 C955 1.460 . S
C959 C958 1.477 . S
C959 H979 0.930 . S
C960 N956 1.362 . S
C960 C957 1.431 . S
C960 C970 1.476 . S
H961 C955 0.929 . S
C962 O953 1.250 . S
C962 O954 1.258 . S
O963 Mn948 2.162 . S
O963 C951 1.281 . S
O964 Mn948 2.297 . S
O964 C951 1.236 . S
N965 Mn949 2.282 . S
N965 C966 1.328 . S
N965 C970 1.318 . S
C966 N965 1.328 . S
C966 C967 1.457 . S
C966 H971 0.929 . S
C967 C966 1.457 . S
C967 C968 1.291 . S
C967 H980 0.931 . S
C968 C967 1.291 . S
C968 C969 1.373 . S
C968 H981 0.929 . S
C969 C968 1.373 . S
C969 C970 1.396 . S
C969 C976 1.403 . S
C970 C960 1.476 . S
C970 N965 1.318 . S
C970 C969 1.396 . S
H971 C966 0.929 . S
O972 Mn948 2.385 . S
O972 C950 1.234 . S
O973 Mn948 2.209 . S
O973 Mn949 2.215 . S
O973 C950 1.283 . S
O974 Mn948 2.094 . S
O974 C952 1.240 . S
O975 Mn949 2.117 . S
O975 C952 1.264 . S
C976 C969 1.403 . S
C976 C977 1.399 . S
C976 H982 0.929 . S
C977 C957 1.449 . S
C977 C976 1.399 . S
C977 H983 0.930 . S
H978 C958 0.931 . S
H979 C959 0.930 . S
H980 C967 0.931 . S
H981 C968 0.929 . S
H982 C976 0.929 . S
H983 C977 0.930 . S
Mn984 O989 2.095 1_455 S
Mn984 O999 2.162 . S
Mn984 O1000 2.297 1_455 S
Mn984 O1008 2.385 . S
Mn984 O1009 2.209 1_455 S
Mn984 O1010 2.094 . S
Mn985 O990 2.121 . S
Mn985 N992 2.257 . S
Mn985 N1001 2.282 1_655 S
Mn985 O1009 2.215 . S
Mn985 O1011 2.117 1_655 S
C986 O1008 1.234 . S
C986 O1009 1.283 1_455 S
C987 O999 1.281 . S
C987 O1000 1.236 1_455 S
C988 O1010 1.240 . S
C988 O1011 1.264 . S
O989 Mn984 2.095 1_655 S
O989 C998 1.250 . S
O990 Mn985 2.121 . S
O990 C998 1.258 . S
C991 N992 1.326 . S
C991 C995 1.460 . S
C991 H997 0.929 . S
N992 Mn985 2.257 . S
N992 C991 1.326 . S
N992 C996 1.362 . S
C993 C994 1.258 . S
C993 C996 1.431 . S
C993 C1013 1.449 . S
C994 C993 1.258 . S
C994 C995 1.477 . S
C994 H1014 0.931 . S
C995 C991 1.460 . S
C995 C994 1.477 . S
C995 H1015 0.930 . S
C996 N992 1.362 . S
C996 C993 1.431 . S
C996 C1006 1.476 . S
H997 C991 0.929 . S
C998 O989 1.250 . S
C998 O990 1.258 . S
O999 Mn984 2.162 . S
O999 C987 1.281 . S
O1000 Mn984 2.297 1_655 S
O1000 C987 1.236 1_655 S
N1001 Mn985 2.282 1_455 S
N1001 C1002 1.328 . S
N1001 C1006 1.318 1_455 S
C1002 N1001 1.328 . S
C1002 C1003 1.457 . S
C1002 H1007 0.929 . S
C1003 C1002 1.457 . S
C1003 C1004 1.291 . S
C1003 H1016 0.931 . S
C1004 C1003 1.291 . S
C1004 C1005 1.373 1_455 S
C1004 H1017 0.929 . S
C1005 C1004 1.373 1_655 S
C1005 C1006 1.396 . S
C1005 C1012 1.403 . S
C1006 C996 1.476 . S
C1006 N1001 1.318 1_655 S
C1006 C1005 1.396 . S
H1007 C1002 0.929 . S
O1008 Mn984 2.385 . S
O1008 C986 1.234 . S
O1009 Mn984 2.209 1_655 S
O1009 Mn985 2.215 . S
O1009 C986 1.283 1_655 S
O1010 Mn984 2.094 . S
O1010 C988 1.240 . S
O1011 Mn985 2.117 1_455 S
O1011 C988 1.264 . S
C1012 C1005 1.403 . S
C1012 C1013 1.399 . S
C1012 H1018 0.929 . S
C1013 C993 1.449 . S
C1013 C1012 1.399 . S
C1013 H1019 0.930 . S
H1014 C994 0.931 . S
H1015 C995 0.930 . S
H1016 C1003 0.931 . S
H1017 C1004 0.929 . S
H1018 C1012 0.929 . S
H1019 C1013 0.930 . S
Mn1020 O1025 2.095 . S
Mn1020 O1035 2.162 . S
Mn1020 O1036 2.297 . S
Mn1020 O1044 2.385 . S
Mn1020 O1045 2.209 . S
Mn1020 O1046 2.094 . S
Mn1021 O1026 2.121 . S
Mn1021 N1028 2.257 . S
Mn1021 N1037 2.282 . S
Mn1021 O1045 2.215 . S
Mn1021 O1047 2.117 . S
C1022 O1044 1.234 . S
C1022 O1045 1.283 . S
C1023 O1035 1.281 . S
C1023 O1036 1.236 . S
C1024 O1046 1.240 . S
C1024 O1047 1.264 . S
O1025 Mn1020 2.095 . S
O1025 C1034 1.250 . S
O1026 Mn1021 2.121 . S
O1026 C1034 1.258 . S
C1027 N1028 1.326 . S
C1027 C1031 1.460 . S
C1027 H1033 0.929 . S
N1028 Mn1021 2.257 . S
N1028 C1027 1.326 . S
N1028 C1032 1.362 . S
C1029 C1030 1.258 . S
C1029 C1032 1.431 . S
C1029 C1049 1.449 . S
C1030 C1029 1.258 . S
C1030 C1031 1.477 . S
C1030 H1050 0.931 . S
C1031 C1027 1.460 . S
C1031 C1030 1.477 . S
C1031 H1051 0.930 . S
C1032 N1028 1.362 . S
C1032 C1029 1.431 . S
C1032 C1042 1.476 . S
H1033 C1027 0.929 . S
C1034 O1025 1.250 . S
C1034 O1026 1.258 . S
O1035 Mn1020 2.162 . S
O1035 C1023 1.281 . S
O1036 Mn1020 2.297 . S
O1036 C1023 1.236 . S
N1037 Mn1021 2.282 . S
N1037 C1038 1.328 . S
N1037 C1042 1.318 . S
C1038 N1037 1.328 . S
C1038 C1039 1.457 . S
C1038 H1043 0.929 . S
C1039 C1038 1.457 . S
C1039 C1040 1.291 . S
C1039 H1052 0.931 . S
C1040 C1039 1.291 . S
C1040 C1041 1.373 . S
C1040 H1053 0.929 . S
C1041 C1040 1.373 . S
C1041 C1042 1.396 . S
C1041 C1048 1.403 . S
C1042 C1032 1.476 . S
C1042 N1037 1.318 . S
C1042 C1041 1.396 . S
H1043 C1038 0.929 . S
O1044 Mn1020 2.385 . S
O1044 C1022 1.234 . S
O1045 Mn1020 2.209 . S
O1045 Mn1021 2.215 . S
O1045 C1022 1.283 . S
O1046 Mn1020 2.094 . S
O1046 C1024 1.240 . S
O1047 Mn1021 2.117 . S
O1047 C1024 1.264 . S
C1048 C1041 1.403 . S
C1048 C1049 1.399 . S
C1048 H1054 0.929 . S
C1049 C1029 1.449 . S
C1049 C1048 1.399 . S
C1049 H1055 0.930 . S
H1050 C1030 0.931 . S
H1051 C1031 0.930 . S
H1052 C1039 0.931 . S
H1053 C1040 0.929 . S
H1054 C1048 0.929 . S
H1055 C1049 0.930 . S
H1056 C1062 0.930 . S
H1057 C1066 0.930 . S
H1058 C1071 0.929 . S
H1059 C1069 0.929 . S
H1060 C1064 0.929 . S
H1061 C1070 0.929 . S
C1062 H1056 0.930 . S
C1062 C1063 1.367 . S
C1062 C1070 1.378 . S
C1063 C1062 1.367 . S
C1063 C1071 1.433 . S
C1064 H1060 0.929 . S
C1064 C1066 1.378 . S
C1064 C1068 1.350 . S
C1065 C1068 1.463 . S
C1065 C1070 1.350 . S
C1065 N1073 1.427 . S
C1066 H1057 0.930 . S
C1066 C1064 1.378 . S
C1066 C1067 1.367 . S
C1067 C1066 1.367 . S
C1067 C1069 1.433 . S
C1068 C1064 1.350 . S
C1068 C1065 1.463 . S
C1068 N1072 1.427 . S
C1069 H1059 0.929 . S
C1069 C1067 1.433 . S
C1069 N1072 1.384 . S
C1070 H1061 0.929 . S
C1070 C1062 1.378 . S
C1070 C1065 1.350 . S
C1071 H1058 0.929 . S
C1071 C1063 1.433 . S
C1071 N1073 1.384 . S
N1072 C1068 1.427 . S
N1072 C1069 1.384 . S
N1073 C1065 1.427 . S
N1073 C1071 1.384 . S
H1074 C1080 0.930 . S
H1075 C1084 0.930 . S
H1076 C1089 0.929 . S
H1077 C1087 0.929 . S
H1078 C1082 0.929 . S
H1079 C1088 0.929 . S
C1080 H1074 0.930 . S
C1080 C1081 1.367 . S
C1080 C1088 1.378 . S
C1081 C1080 1.367 . S
C1081 C1089 1.433 . S
C1082 H1078 0.929 . S
C1082 C1084 1.378 . S
C1082 C1086 1.350 . S
C1083 C1086 1.463 . S
C1083 C1088 1.350 . S
C1083 N1091 1.427 . S
C1084 H1075 0.930 . S
C1084 C1082 1.378 . S
C1084 C1085 1.367 . S
C1085 C1084 1.367 . S
C1085 C1087 1.433 . S
C1086 C1082 1.350 . S
C1086 C1083 1.463 . S
C1086 N1090 1.427 . S
C1087 H1077 0.929 . S
C1087 C1085 1.433 . S
C1087 N1090 1.384 . S
C1088 H1079 0.929 . S
C1088 C1080 1.378 . S
C1088 C1083 1.350 . S
C1089 H1076 0.929 . S
C1089 C1081 1.433 . S
C1089 N1091 1.384 . S
N1090 C1086 1.427 . S
N1090 C1087 1.384 . S
N1091 C1083 1.427 . S
N1091 C1089 1.384 . S
H1092 C1098 0.930 . S
H1093 C1102 0.930 . S
H1094 C1107 0.929 . S
H1095 C1105 0.929 . S
H1096 C1100 0.929 . S
H1097 C1106 0.929 . S
C1098 H1092 0.930 . S
C1098 C1099 1.367 . S
C1098 C1106 1.378 . S
C1099 C1098 1.367 . S
C1099 C1107 1.433 . S
C1100 H1096 0.929 . S
C1100 C1102 1.378 . S
C1100 C1104 1.350 . S
C1101 C1104 1.463 . S
C1101 C1106 1.350 . S
C1101 N1109 1.427 . S
C1102 H1093 0.930 . S
C1102 C1100 1.378 . S
C1102 C1103 1.367 . S
C1103 C1102 1.367 . S
C1103 C1105 1.433 . S
C1104 C1100 1.350 . S
C1104 C1101 1.463 . S
C1104 N1108 1.427 . S
C1105 H1095 0.929 . S
C1105 C1103 1.433 . S
C1105 N1108 1.384 . S
C1106 H1097 0.929 . S
C1106 C1098 1.378 . S
C1106 C1101 1.350 . S
C1107 H1094 0.929 . S
C1107 C1099 1.433 . S
C1107 N1109 1.384 . S
N1108 C1104 1.427 . S
N1108 C1105 1.384 . S
N1109 C1101 1.427 . S
N1109 C1107 1.384 . S
H1110 C1116 0.930 . S
H1111 C1120 0.930 . S
H1112 C1125 0.929 . S
H1113 C1123 0.929 . S
H1114 C1118 0.929 . S
H1115 C1124 0.929 . S
C1116 H1110 0.930 . S
C1116 C1117 1.367 . S
C1116 C1124 1.378 . S
C1117 C1116 1.367 . S
C1117 C1125 1.433 1_565 S
C1118 H1114 0.929 . S
C1118 C1120 1.378 . S
C1118 C1122 1.350 1_545 S
C1119 C1122 1.463 . S
C1119 C1124 1.350 . S
C1119 N1127 1.427 1_565 S
C1120 H1111 0.930 . S
C1120 C1118 1.378 . S
C1120 C1121 1.367 . S
C1121 C1120 1.367 . S
C1121 C1123 1.433 1_545 S
C1122 C1118 1.350 1_565 S
C1122 C1119 1.463 . S
C1122 N1126 1.427 . S
C1123 H1113 0.929 . S
C1123 C1121 1.433 1_565 S
C1123 N1126 1.384 . S
C1124 H1115 0.929 . S
C1124 C1116 1.378 . S
C1124 C1119 1.350 . S
C1125 H1112 0.929 . S
C1125 C1117 1.433 1_545 S
C1125 N1127 1.384 . S
N1126 C1122 1.427 . S
N1126 C1123 1.384 . S
N1127 C1119 1.427 1_545 S
N1127 C1125 1.384 . S
H1128 C1134 0.930 . S
H1129 C1138 0.930 . S
H1130 C1143 0.929 . S
H1131 C1141 0.929 . S
H1132 C1136 0.929 . S
H1133 C1142 0.929 . S
C1134 H1128 0.930 . S
C1134 C1135 1.367 . S
C1134 C1142 1.378 . S
C1135 C1134 1.367 . S
C1135 C1143 1.433 . S
C1136 H1132 0.929 . S
C1136 C1138 1.378 . S
C1136 C1140 1.350 . S
C1137 C1140 1.463 . S
C1137 C1142 1.350 . S
C1137 N1145 1.427 . S
C1138 H1129 0.930 . S
C1138 C1136 1.378 . S
C1138 C1139 1.367 . S
C1139 C1138 1.367 . S
C1139 C1141 1.433 . S
C1140 C1136 1.350 . S
C1140 C1137 1.463 . S
C1140 N1144 1.427 . S
C1141 H1131 0.929 . S
C1141 C1139 1.433 . S
C1141 N1144 1.384 . S
C1142 H1133 0.929 . S
C1142 C1134 1.378 . S
C1142 C1137 1.350 . S
C1143 H1130 0.929 . S
C1143 C1135 1.433 . S
C1143 N1145 1.384 . S
N1144 C1140 1.427 . S
N1144 C1141 1.384 . S
N1145 C1137 1.427 . S
N1145 C1143 1.384 . S
H1146 C1152 0.930 . S
H1147 C1156 0.930 . S
H1148 C1161 0.929 . S
H1149 C1159 0.929 . S
H1150 C1154 0.929 . S
H1151 C1160 0.929 . S
C1152 H1146 0.930 . S
C1152 C1153 1.367 . S
C1152 C1160 1.378 . S
C1153 C1152 1.367 . S
C1153 C1161 1.433 . S
C1154 H1150 0.929 . S
C1154 C1156 1.378 . S
C1154 C1158 1.350 . S
C1155 C1158 1.463 . S
C1155 C1160 1.350 . S
C1155 N1163 1.427 . S
C1156 H1147 0.930 . S
C1156 C1154 1.378 . S
C1156 C1157 1.367 . S
C1157 C1156 1.367 . S
C1157 C1159 1.433 . S
C1158 C1154 1.350 . S
C1158 C1155 1.463 . S
C1158 N1162 1.427 . S
C1159 H1149 0.929 . S
C1159 C1157 1.433 . S
C1159 N1162 1.384 . S
C1160 H1151 0.929 . S
C1160 C1152 1.378 . S
C1160 C1155 1.350 . S
C1161 H1148 0.929 . S
C1161 C1153 1.433 . S
C1161 N1163 1.384 . S
N1162 C1158 1.427 . S
N1162 C1159 1.384 . S
N1163 C1155 1.427 . S
N1163 C1161 1.384 . S
H1164 C1170 0.930 . S
H1165 C1174 0.930 . S
H1166 C1179 0.929 . S
H1167 C1177 0.929 . S
H1168 C1172 0.929 . S
H1169 C1178 0.929 . S
C1170 H1164 0.930 . S
C1170 C1171 1.367 . S
C1170 C1178 1.378 . S
C1171 C1170 1.367 . S
C1171 C1179 1.433 . S
C1172 H1168 0.929 . S
C1172 C1174 1.378 . S
C1172 C1176 1.350 . S
C1173 C1176 1.463 . S
C1173 C1178 1.350 . S
C1173 N1181 1.427 . S
C1174 H1165 0.930 . S
C1174 C1172 1.378 . S
C1174 C1175 1.367 . S
C1175 C1174 1.367 . S
C1175 C1177 1.433 . S
C1176 C1172 1.350 . S
C1176 C1173 1.463 . S
C1176 N1180 1.427 . S
C1177 H1167 0.929 . S
C1177 C1175 1.433 . S
C1177 N1180 1.384 . S
C1178 H1169 0.929 . S
C1178 C1170 1.378 . S
C1178 C1173 1.350 . S
C1179 H1166 0.929 . S
C1179 C1171 1.433 . S
C1179 N1181 1.384 . S
N1180 C1176 1.427 . S
N1180 C1177 1.384 . S
N1181 C1173 1.427 . S
N1181 C1179 1.384 . S
H1182 C1188 0.930 1_545 S
H1183 C1192 0.930 . S
H1184 C1197 0.929 . S
H1185 C1195 0.929 . S
H1186 C1190 0.929 . S
H1187 C1196 0.929 1_545 S
C1188 H1182 0.930 1_565 S
C1188 C1189 1.367 . S
C1188 C1196 1.378 . S
C1189 C1188 1.367 . S
C1189 C1197 1.433 . S
C1190 H1186 0.929 . S
C1190 C1192 1.378 . S
C1190 C1194 1.350 . S
C1191 C1194 1.463 . S
C1191 C1196 1.350 . S
C1191 N1199 1.427 . S
C1192 H1183 0.930 . S
C1192 C1190 1.378 . S
C1192 C1193 1.367 . S
C1193 C1192 1.367 . S
C1193 C1195 1.433 1_565 S
C1194 C1190 1.350 . S
C1194 C1191 1.463 . S
C1194 N1198 1.427 1_565 S
C1195 H1185 0.929 . S
C1195 C1193 1.433 1_545 S
C1195 N1198 1.384 . S
C1196 H1187 0.929 1_565 S
C1196 C1188 1.378 . S
C1196 C1191 1.350 . S
C1197 H1184 0.929 . S
C1197 C1189 1.433 . S
C1197 N1199 1.384 . S
N1198 C1194 1.427 1_545 S
N1198 C1195 1.384 . S
N1199 C1191 1.427 . S
N1199 C1197 1.384 . S
H1200 C1206 0.930 . S
H1201 C1210 0.930 . S
H1202 C1215 0.929 . S
H1203 C1213 0.929 . S
H1204 C1208 0.929 . S
H1205 C1214 0.929 . S
C1206 H1200 0.930 . S
C1206 C1207 1.367 . S
C1206 C1214 1.378 . S
C1207 C1206 1.367 . S
C1207 C1215 1.433 . S
C1208 H1204 0.929 . S
C1208 C1210 1.378 . S
C1208 C1212 1.350 . S
C1209 C1212 1.463 . S
C1209 C1214 1.350 . S
C1209 N1217 1.427 . S
C1210 H1201 0.930 . S
C1210 C1208 1.378 . S
C1210 C1211 1.367 . S
C1211 C1210 1.367 . S
C1211 C1213 1.433 . S
C1212 C1208 1.350 . S
C1212 C1209 1.463 . S
C1212 N1216 1.427 . S
C1213 H1203 0.929 . S
C1213 C1211 1.433 . S
C1213 N1216 1.384 . S
C1214 H1205 0.929 . S
C1214 C1206 1.378 . S
C1214 C1209 1.350 . S
C1215 H1202 0.929 . S
C1215 C1207 1.433 . S
C1215 N1217 1.384 . S
N1216 C1212 1.427 . S
N1216 C1213 1.384 . S
N1217 C1209 1.427 . S
N1217 C1215 1.384 . S
H1218 C1224 0.930 . S
H1219 C1228 0.930 . S
H1220 C1233 0.929 . S
H1221 C1231 0.929 . S
H1222 C1226 0.929 . S
H1223 C1232 0.929 . S
C1224 H1218 0.930 . S
C1224 C1225 1.367 . S
C1224 C1232 1.378 . S
C1225 C1224 1.367 . S
C1225 C1233 1.433 . S
C1226 H1222 0.929 . S
C1226 C1228 1.378 . S
C1226 C1230 1.350 . S
C1227 C1230 1.463 . S
C1227 C1232 1.350 . S
C1227 N1235 1.427 . S
C1228 H1219 0.930 . S
C1228 C1226 1.378 . S
C1228 C1229 1.367 . S
C1229 C1228 1.367 . S
C1229 C1231 1.433 . S
C1230 C1226 1.350 . S
C1230 C1227 1.463 . S
C1230 N1234 1.427 . S
C1231 H1221 0.929 . S
C1231 C1229 1.433 . S
C1231 N1234 1.384 . S
C1232 H1223 0.929 . S
C1232 C1224 1.378 . S
C1232 C1227 1.350 . S
C1233 H1220 0.929 . S
C1233 C1225 1.433 . S
C1233 N1235 1.384 . S
N1234 C1230 1.427 . S
N1234 C1231 1.384 . S
N1235 C1227 1.427 . S
N1235 C1233 1.384 . S
H1236 C1242 0.930 . S
H1237 C1246 0.930 . S
H1238 C1251 0.929 . S
H1239 C1249 0.929 . S
H1240 C1244 0.929 . S
H1241 C1250 0.929 . S
C1242 H1236 0.930 . S
C1242 C1243 1.367 . S
C1242 C1250 1.378 . S
C1243 C1242 1.367 . S
C1243 C1251 1.433 . S
C1244 H1240 0.929 . S
C1244 C1246 1.378 . S
C1244 C1248 1.350 . S
C1245 C1248 1.463 . S
C1245 C1250 1.350 . S
C1245 N1253 1.427 . S
C1246 H1237 0.930 . S
C1246 C1244 1.378 . S
C1246 C1247 1.367 . S
C1247 C1246 1.367 . S
C1247 C1249 1.433 . S
C1248 C1244 1.350 . S
C1248 C1245 1.463 . S
C1248 N1252 1.427 . S
C1249 H1239 0.929 . S
C1249 C1247 1.433 . S
C1249 N1252 1.384 . S
C1250 H1241 0.929 . S
C1250 C1242 1.378 . S
C1250 C1245 1.350 . S
C1251 H1238 0.929 . S
C1251 C1243 1.433 . S
C1251 N1253 1.384 . S
N1252 C1248 1.427 . S
N1252 C1249 1.384 . S
N1253 C1245 1.427 . S
N1253 C1251 1.384 . S
H1254 C1260 0.930 . S
H1255 C1264 0.930 . S
H1256 C1269 0.929 . S
H1257 C1267 0.929 . S
H1258 C1262 0.929 . S
H1259 C1268 0.929 . S
C1260 H1254 0.930 . S
C1260 C1261 1.367 . S
C1260 C1268 1.378 . S
C1261 C1260 1.367 . S
C1261 C1269 1.433 . S
C1262 H1258 0.929 . S
C1262 C1264 1.378 . S
C1262 C1266 1.350 . S
C1263 C1266 1.463 . S
C1263 C1268 1.350 . S
C1263 N1271 1.427 . S
C1264 H1255 0.930 . S
C1264 C1262 1.378 . S
C1264 C1265 1.367 . S
C1265 C1264 1.367 . S
C1265 C1267 1.433 . S
C1266 C1262 1.350 . S
C1266 C1263 1.463 . S
C1266 N1270 1.427 . S
C1267 H1257 0.929 . S
C1267 C1265 1.433 . S
C1267 N1270 1.384 . S
C1268 H1259 0.929 . S
C1268 C1260 1.378 . S
C1268 C1263 1.350 . S
C1269 H1256 0.929 . S
C1269 C1261 1.433 . S
C1269 N1271 1.384 . S
N1270 C1266 1.427 . S
N1270 C1267 1.384 . S
N1271 C1263 1.427 . S
N1271 C1269 1.384 . S
H1272 C1278 0.930 . S
H1273 C1282 0.930 . S
H1274 C1287 0.929 . S
H1275 C1285 0.929 . S
H1276 C1280 0.929 . S
H1277 C1286 0.929 . S
C1278 H1272 0.930 . S
C1278 C1279 1.367 . S
C1278 C1286 1.378 . S
C1279 C1278 1.367 . S
C1279 C1287 1.433 . S
C1280 H1276 0.929 . S
C1280 C1282 1.378 . S
C1280 C1284 1.350 . S
C1281 C1284 1.463 . S
C1281 C1286 1.350 . S
C1281 N1289 1.427 . S
C1282 H1273 0.930 . S
C1282 C1280 1.378 . S
C1282 C1283 1.367 . S
C1283 C1282 1.367 . S
C1283 C1285 1.433 . S
C1284 C1280 1.350 . S
C1284 C1281 1.463 . S
C1284 N1288 1.427 . S
C1285 H1275 0.929 . S
C1285 C1283 1.433 . S
C1285 N1288 1.384 . S
C1286 H1277 0.929 . S
C1286 C1278 1.378 . S
C1286 C1281 1.350 . S
C1287 H1274 0.929 . S
C1287 C1279 1.433 . S
C1287 N1289 1.384 . S
N1288 C1284 1.427 . S
N1288 C1285 1.384 . S
N1289 C1281 1.427 . S
N1289 C1287 1.384 . S
H1290 C1296 0.930 . S
H1291 C1300 0.930 1_655 S
H1292 C1305 0.929 . S
H1293 C1303 0.929 . S
H1294 C1298 0.937 . S
H1295 C1304 0.929 . S
C1296 H1290 0.930 . S
C1296 C1297 1.367 . S
C1296 C1304 1.378 . S
C1297 C1296 1.367 . S
C1297 C1305 1.433 . S
C1298 H1294 0.937 . S
C1298 C1300 1.378 . S
C1298 C1302 1.350 . S
C1299 C1302 1.463 . S
C1299 C1304 1.350 . S
C1299 N1307 1.427 . S
C1300 H1291 0.930 1_455 S
C1300 C1298 1.378 . S
C1300 C1301 1.367 . S
C1301 C1300 1.367 . S
C1301 C1303 1.433 . S
C1302 C1298 1.350 . S
C1302 C1299 1.463 . S
C1302 N1306 1.427 . S
C1303 H1293 0.929 . S
C1303 C1301 1.433 . S
C1303 N1306 1.384 . S
C1304 H1295 0.929 . S
C1304 C1296 1.378 . S
C1304 C1299 1.350 . S
C1305 H1292 0.929 . S
C1305 C1297 1.433 . S
C1305 N1307 1.384 . S
N1306 C1302 1.427 . S
N1306 C1303 1.384 . S
N1307 C1299 1.427 . S
N1307 C1305 1.384 . S
H1308 C1314 0.930 . S
H1309 C1318 0.930 . S
H1310 C1323 0.929 . S
H1311 C1321 0.929 . S
H1312 C1316 0.929 . S
H1313 C1322 0.929 . S
C1314 H1308 0.930 . S
C1314 C1315 1.367 . S
C1314 C1322 1.378 . S
C1315 C1314 1.367 . S
C1315 C1323 1.433 . S
C1316 H1312 0.929 . S
C1316 C1318 1.378 . S
C1316 C1320 1.350 . S
C1317 C1320 1.463 . S
C1317 C1322 1.350 . S
C1317 N1325 1.427 . S
C1318 H1309 0.930 . S
C1318 C1316 1.378 . S
C1318 C1319 1.367 . S
C1319 C1318 1.367 . S
C1319 C1321 1.433 . S
C1320 C1316 1.350 . S
C1320 C1317 1.463 . S
C1320 N1324 1.427 . S
C1321 H1311 0.929 . S
C1321 C1319 1.433 . S
C1321 N1324 1.384 . S
C1322 H1313 0.929 . S
C1322 C1314 1.378 . S
C1322 C1317 1.350 . S
C1323 H1310 0.929 . S
C1323 C1315 1.433 . S
C1323 N1325 1.384 . S
N1324 C1320 1.427 . S
N1324 C1321 1.384 . S
N1325 C1317 1.427 . S
N1325 C1323 1.384 . S
H1326 C1332 0.930 . S
H1327 C1336 0.930 . S
H1328 C1341 0.929 . S
H1329 C1339 0.929 . S
H1330 C1334 0.929 . S
H1331 C1340 0.929 1_455 S
C1332 H1326 0.930 . S
C1332 C1333 1.367 . S
C1332 C1340 1.378 . S
C1333 C1332 1.367 . S
C1333 C1341 1.433 . S
C1334 H1330 0.929 . S
C1334 C1336 1.378 . S
C1334 C1338 1.350 . S
C1335 C1338 1.463 . S
C1335 C1340 1.350 . S
C1335 N1343 1.427 . S
C1336 H1327 0.930 . S
C1336 C1334 1.378 . S
C1336 C1337 1.370 . S
C1337 C1336 1.370 . S
C1337 C1339 1.431 1_655 S
C1338 C1334 1.350 . S
C1338 C1335 1.463 . S
C1338 N1342 1.427 1_655 S
C1339 H1329 0.929 . S
C1339 C1337 1.431 1_455 S
C1339 N1342 1.384 . S
C1340 H1331 0.929 1_655 S
C1340 C1332 1.378 . S
C1340 C1335 1.350 . S
C1341 H1328 0.929 . S
C1341 C1333 1.433 . S
C1341 N1343 1.384 . S
N1342 C1338 1.427 1_455 S
N1342 C1339 1.384 . S
N1343 C1335 1.427 . S
N1343 C1341 1.384 . S
H1344 C1350 0.930 . S
H1345 C1354 0.930 . S
H1346 C1359 0.929 . S
H1347 C1357 0.929 . S
H1348 C1352 0.929 . S
H1349 C1358 0.929 . S
C1350 H1344 0.930 . S
C1350 C1351 1.367 . S
C1350 C1358 1.378 . S
C1351 C1350 1.367 . S
C1351 C1359 1.433 . S
C1352 H1348 0.929 . S
C1352 C1354 1.378 . S
C1352 C1356 1.350 . S
C1353 C1356 1.463 . S
C1353 C1358 1.350 . S
C1353 N1361 1.427 . S
C1354 H1345 0.930 . S
C1354 C1352 1.378 . S
C1354 C1355 1.367 . S
C1355 C1354 1.367 . S
C1355 C1357 1.433 . S
C1356 C1352 1.350 . S
C1356 C1353 1.463 . S
C1356 N1360 1.427 . S
C1357 H1347 0.929 . S
C1357 C1355 1.433 . S
C1357 N1360 1.384 . S
C1358 H1349 0.929 . S
C1358 C1350 1.378 . S
C1358 C1353 1.350 . S
C1359 H1346 0.929 . S
C1359 C1351 1.433 . S
C1359 N1361 1.384 . S
N1360 C1356 1.427 . S
N1360 C1357 1.384 . S
N1361 C1353 1.427 . S
N1361 C1359 1.384 . S
H1362 C1368 0.930 . S
H1363 C1372 0.930 . S
H1364 C1377 0.929 . S
H1365 C1375 0.929 . S
H1366 C1370 0.929 . S
H1367 C1376 0.929 . S
C1368 H1362 0.930 . S
C1368 C1369 1.367 . S
C1368 C1376 1.378 . S
C1369 C1368 1.367 . S
C1369 C1377 1.433 . S
C1370 H1366 0.929 . S
C1370 C1372 1.378 . S
C1370 C1374 1.350 . S
C1371 C1374 1.463 . S
C1371 C1376 1.350 . S
C1371 N1379 1.427 . S
C1372 H1363 0.930 . S
C1372 C1370 1.378 . S
C1372 C1373 1.367 . S
C1373 C1372 1.367 . S
C1373 C1375 1.433 . S
C1374 C1370 1.350 . S
C1374 C1371 1.463 . S
C1374 N1378 1.427 . S
C1375 H1365 0.929 . S
C1375 C1373 1.433 . S
C1375 N1378 1.384 . S
C1376 H1367 0.929 . S
C1376 C1368 1.378 . S
C1376 C1371 1.350 . S
C1377 H1364 0.929 . S
C1377 C1369 1.433 . S
C1377 N1379 1.384 . S
N1378 C1374 1.427 . S
N1378 C1375 1.384 . S
N1379 C1371 1.427 . S
N1379 C1377 1.384 . S
H1380 C1386 0.930 . S
H1381 C1390 0.930 . S
H1382 C1395 0.929 . S
H1383 C1393 0.929 . S
H1384 C1388 0.929 . S
H1385 C1394 0.929 . S
C1386 H1380 0.930 . S
C1386 C1387 1.367 . S
C1386 C1394 1.378 . S
C1387 C1386 1.367 . S
C1387 C1395 1.433 1_556 S
C1388 H1384 0.929 . S
C1388 C1390 1.378 . S
C1388 C1392 1.350 1_554 S
C1389 C1392 1.463 . S
C1389 C1394 1.350 . S
C1389 N1397 1.427 1_556 S
C1390 H1381 0.930 . S
C1390 C1388 1.378 . S
C1390 C1391 1.367 . S
C1391 C1390 1.367 . S
C1391 C1393 1.433 1_554 S
C1392 C1388 1.350 1_556 S
C1392 C1389 1.463 . S
C1392 N1396 1.427 . S
C1393 H1383 0.929 . S
C1393 C1391 1.433 1_556 S
C1393 N1396 1.384 . S
C1394 H1385 0.929 . S
C1394 C1386 1.378 . S
C1394 C1389 1.350 . S
C1395 H1382 0.929 . S
C1395 C1387 1.433 1_554 S
C1395 N1397 1.384 . S
N1396 C1392 1.427 . S
N1396 C1393 1.384 . S
N1397 C1389 1.427 1_554 S
N1397 C1395 1.384 . S
H1398 C1404 0.930 . S
H1399 C1408 0.930 . S
H1400 C1413 0.929 . S
H1401 C1411 0.929 . S
H1402 C1406 0.929 . S
H1403 C1412 0.929 . S
C1404 H1398 0.930 . S
C1404 C1405 1.367 . S
C1404 C1412 1.378 . S
C1405 C1404 1.367 . S
C1405 C1413 1.433 . S
C1406 H1402 0.929 . S
C1406 C1408 1.378 . S
C1406 C1410 1.350 . S
C1407 C1410 1.463 . S
C1407 C1412 1.350 . S
C1407 N1415 1.427 . S
C1408 H1399 0.930 . S
C1408 C1406 1.378 . S
C1408 C1409 1.367 . S
C1409 C1408 1.367 . S
C1409 C1411 1.433 . S
C1410 C1406 1.350 . S
C1410 C1407 1.463 . S
C1410 N1414 1.427 . S
C1411 H1401 0.929 . S
C1411 C1409 1.433 . S
C1411 N1414 1.384 . S
C1412 H1403 0.929 . S
C1412 C1404 1.378 . S
C1412 C1407 1.350 . S
C1413 H1400 0.929 . S
C1413 C1405 1.433 . S
C1413 N1415 1.384 . S
N1414 C1410 1.427 . S
N1414 C1411 1.384 . S
N1415 C1407 1.427 . S
N1415 C1413 1.384 . S
H1416 C1422 0.930 . S
H1417 C1426 0.930 . S
H1418 C1431 0.929 . S
H1419 C1429 0.929 . S
H1420 C1424 0.929 . S
H1421 C1430 0.929 . S
C1422 H1416 0.930 . S
C1422 C1423 1.367 . S
C1422 C1430 1.378 . S
C1423 C1422 1.367 . S
C1423 C1431 1.433 . S
C1424 H1420 0.929 . S
C1424 C1426 1.378 . S
C1424 C1428 1.350 . S
C1425 C1428 1.463 . S
C1425 C1430 1.350 . S
C1425 N1433 1.427 . S
C1426 H1417 0.930 . S
C1426 C1424 1.378 . S
C1426 C1427 1.367 . S
C1427 C1426 1.367 . S
C1427 C1429 1.433 . S
C1428 C1424 1.350 . S
C1428 C1425 1.463 . S
C1428 N1432 1.427 . S
C1429 H1419 0.929 . S
C1429 C1427 1.433 . S
C1429 N1432 1.384 . S
C1430 H1421 0.929 . S
C1430 C1422 1.378 . S
C1430 C1425 1.350 . S
C1431 H1418 0.929 . S
C1431 C1423 1.433 . S
C1431 N1433 1.384 . S
N1432 C1428 1.427 . S
N1432 C1429 1.384 . S
N1433 C1425 1.427 . S
N1433 C1431 1.384 . S
H1434 C1440 0.930 . S
H1435 C1444 0.930 . S
H1436 C1449 0.929 . S
H1437 C1447 0.929 . S
H1438 C1442 0.929 . S
H1439 C1448 0.929 . S
C1440 H1434 0.930 . S
C1440 C1441 1.367 . S
C1440 C1448 1.378 . S
C1441 C1440 1.367 . S
C1441 C1449 1.433 . S
C1442 H1438 0.929 . S
C1442 C1444 1.378 . S
C1442 C1446 1.350 . S
C1443 C1446 1.463 . S
C1443 C1448 1.350 . S
C1443 N1451 1.427 . S
C1444 H1435 0.930 . S
C1444 C1442 1.378 . S
C1444 C1445 1.367 . S
C1445 C1444 1.367 . S
C1445 C1447 1.433 . S
C1446 C1442 1.350 . S
C1446 C1443 1.463 . S
C1446 N1450 1.427 . S
C1447 H1437 0.929 . S
C1447 C1445 1.433 . S
C1447 N1450 1.384 . S
C1448 H1439 0.929 . S
C1448 C1440 1.378 . S
C1448 C1443 1.350 . S
C1449 H1436 0.929 . S
C1449 C1441 1.433 . S
C1449 N1451 1.384 . S
N1450 C1446 1.427 . S
N1450 C1447 1.384 . S
N1451 C1443 1.427 . S
N1451 C1449 1.384 . S
H1452 C1458 0.930 . S
H1453 C1462 0.930 . S
H1454 C1467 0.929 . S
H1455 C1465 0.929 . S
H1456 C1460 0.929 . S
H1457 C1466 0.929 . S
C1458 H1452 0.930 . S
C1458 C1459 1.367 . S
C1458 C1466 1.378 . S
C1459 C1458 1.367 . S
C1459 C1467 1.433 . S
C1460 H1456 0.929 . S
C1460 C1462 1.378 . S
C1460 C1464 1.350 . S
C1461 C1464 1.463 . S
C1461 C1466 1.350 . S
C1461 N1469 1.427 . S
C1462 H1453 0.930 . S
C1462 C1460 1.378 . S
C1462 C1463 1.367 . S
C1463 C1462 1.367 . S
C1463 C1465 1.433 . S
C1464 C1460 1.350 . S
C1464 C1461 1.463 . S
C1464 N1468 1.427 . S
C1465 H1455 0.929 . S
C1465 C1463 1.433 . S
C1465 N1468 1.384 . S
C1466 H1457 0.929 . S
C1466 C1458 1.378 . S
C1466 C1461 1.350 . S
C1467 H1454 0.929 . S
C1467 C1459 1.433 . S
C1467 N1469 1.384 . S
N1468 C1464 1.427 . S
N1468 C1465 1.384 . S
N1469 C1461 1.427 . S
N1469 C1467 1.384 . S
H1470 C1476 0.930 . S
H1471 C1480 0.930 . S
H1472 C1485 0.929 . S
H1473 C1483 0.929 . S
H1474 C1478 0.929 . S
H1475 C1484 0.929 . S
C1476 H1470 0.930 . S
C1476 C1477 1.367 . S
C1476 C1484 1.378 . S
C1477 C1476 1.367 . S
C1477 C1485 1.433 . S
C1478 H1474 0.929 . S
C1478 C1480 1.378 . S
C1478 C1482 1.350 . S
C1479 C1482 1.463 . S
C1479 C1484 1.350 . S
C1479 N1487 1.427 . S
C1480 H1471 0.930 . S
C1480 C1478 1.378 . S
C1480 C1481 1.367 . S
C1481 C1480 1.367 . S
C1481 C1483 1.433 . S
C1482 C1478 1.350 . S
C1482 C1479 1.463 . S
C1482 N1486 1.427 . S
C1483 H1473 0.929 . S
C1483 C1481 1.433 . S
C1483 N1486 1.384 . S
C1484 H1475 0.929 . S
C1484 C1476 1.378 . S
C1484 C1479 1.350 . S
C1485 H1472 0.929 . S
C1485 C1477 1.433 . S
C1485 N1487 1.384 . S
N1486 C1482 1.427 . S
N1486 C1483 1.384 . S
N1487 C1479 1.427 . S
N1487 C1485 1.384 . S
H1488 C1494 0.930 . S
H1489 C1498 0.930 . S
H1490 C1503 0.929 . S
H1491 C1501 0.929 . S
H1492 C1496 0.929 . S
H1493 C1502 0.929 . S
C1494 H1488 0.930 . S
C1494 C1495 1.367 . S
C1494 C1502 1.378 . S
C1495 C1494 1.367 . S
C1495 C1503 1.433 . S
C1496 H1492 0.929 . S
C1496 C1498 1.378 . S
C1496 C1500 1.350 . S
C1497 C1500 1.463 . S
C1497 C1502 1.350 . S
C1497 N1505 1.427 . S
C1498 H1489 0.930 . S
C1498 C1496 1.378 . S
C1498 C1499 1.367 . S
C1499 C1498 1.367 . S
C1499 C1501 1.433 . S
C1500 C1496 1.350 . S
C1500 C1497 1.463 . S
C1500 N1504 1.427 . S
C1501 H1491 0.929 . S
C1501 C1499 1.433 . S
C1501 N1504 1.384 . S
C1502 H1493 0.929 . S
C1502 C1494 1.378 . S
C1502 C1497 1.350 . S
C1503 H1490 0.929 . S
C1503 C1495 1.433 . S
C1503 N1505 1.384 . S
N1504 C1500 1.427 . S
N1504 C1501 1.384 . S
N1505 C1497 1.427 . S
N1505 C1503 1.384 . S
H1506 C1512 0.930 . S
H1507 C1516 0.930 . S
H1508 C1521 0.901 1_565 S
H1509 C1519 0.929 . S
H1510 C1514 0.929 . S
H1511 C1520 0.929 . S
C1512 H1506 0.930 . S
C1512 C1513 1.367 . S
C1512 C1520 1.378 . S
C1513 C1512 1.367 . S
C1513 C1521 1.433 . S
C1514 H1510 0.929 . S
C1514 C1516 1.378 . S
C1514 C1518 1.350 1_565 S
C1515 C1518 1.463 . S
C1515 C1520 1.350 . S
C1515 N1523 1.427 . S
C1516 H1507 0.930 . S
C1516 C1514 1.378 . S
C1516 C1517 1.367 1_565 S
C1517 C1516 1.367 1_545 S
C1517 C1519 1.433 . S
C1518 C1514 1.350 1_545 S
C1518 C1515 1.463 . S
C1518 N1522 1.427 . S
C1519 H1509 0.929 . S
C1519 C1517 1.433 . S
C1519 N1522 1.384 . S
C1520 H1511 0.929 . S
C1520 C1512 1.378 . S
C1520 C1515 1.350 . S
C1521 H1508 0.901 1_545 S
C1521 C1513 1.433 . S
C1521 N1523 1.384 . S
N1522 C1518 1.427 . S
N1522 C1519 1.384 . S
N1523 C1515 1.427 . S
N1523 C1521 1.384 . S
H1524 C1530 0.930 . S
H1525 C1534 0.930 . S
H1526 C1539 0.929 . S
H1527 C1537 0.929 . S
H1528 C1532 0.929 . S
H1529 C1538 0.929 . S
C1530 H1524 0.930 . S
C1530 C1531 1.367 . S
C1530 C1538 1.378 . S
C1531 C1530 1.367 . S
C1531 C1539 1.433 . S
C1532 H1528 0.929 . S
C1532 C1534 1.378 . S
C1532 C1536 1.350 . S
C1533 C1536 1.463 . S
C1533 C1538 1.350 . S
C1533 N1541 1.427 . S
C1534 H1525 0.930 . S
C1534 C1532 1.378 . S
C1534 C1535 1.367 . S
C1535 C1534 1.367 . S
C1535 C1537 1.433 . S
C1536 C1532 1.350 . S
C1536 C1533 1.463 . S
C1536 N1540 1.427 . S
C1537 H1527 0.929 . S
C1537 C1535 1.433 . S
C1537 N1540 1.384 . S
C1538 H1529 0.929 . S
C1538 C1530 1.378 . S
C1538 C1533 1.350 . S
C1539 H1526 0.929 . S
C1539 C1531 1.433 . S
C1539 N1541 1.384 . S
N1540 C1536 1.427 . S
N1540 C1537 1.384 . S
N1541 C1533 1.427 . S
N1541 C1539 1.384 . S
H1542 C1548 0.930 . S
H1543 C1552 0.930 . S
H1544 C1557 0.929 . S
H1545 C1555 0.929 . S
H1546 C1550 0.929 . S
H1547 C1556 0.929 . S
C1548 H1542 0.930 . S
C1548 C1549 1.367 . S
C1548 C1556 1.378 . S
C1549 C1548 1.367 . S
C1549 C1557 1.433 . S
C1550 H1546 0.929 . S
C1550 C1552 1.378 . S
C1550 C1554 1.350 . S
C1551 C1554 1.463 . S
C1551 C1556 1.350 . S
C1551 N1559 1.427 . S
C1552 H1543 0.930 . S
C1552 C1550 1.378 . S
C1552 C1553 1.367 . S
C1553 C1552 1.367 . S
C1553 C1555 1.433 . S
C1554 C1550 1.350 . S
C1554 C1551 1.463 . S
C1554 N1558 1.427 . S
C1555 H1545 0.929 . S
C1555 C1553 1.433 . S
C1555 N1558 1.384 . S
C1556 H1547 0.929 . S
C1556 C1548 1.378 . S
C1556 C1551 1.350 . S
C1557 H1544 0.929 . S
C1557 C1549 1.433 . S
C1557 N1559 1.384 . S
N1558 C1554 1.427 . S
N1558 C1555 1.384 . S
N1559 C1551 1.427 . S
N1559 C1557 1.384 . S
H1560 C1566 0.930 . S
H1561 C1570 0.930 . S
H1562 C1575 0.929 . S
H1563 C1573 0.929 . S
H1564 C1568 0.929 . S
H1565 C1574 0.929 . S
C1566 H1560 0.930 . S
C1566 C1567 1.367 . S
C1566 C1574 1.378 . S
C1567 C1566 1.367 . S
C1567 C1575 1.433 . S
C1568 H1564 0.929 . S
C1568 C1570 1.378 . S
C1568 C1572 1.350 . S
C1569 C1572 1.463 . S
C1569 C1574 1.350 . S
C1569 N1577 1.427 . S
C1570 H1561 0.930 . S
C1570 C1568 1.378 . S
C1570 C1571 1.367 . S
C1571 C1570 1.367 . S
C1571 C1573 1.433 . S
C1572 C1568 1.350 . S
C1572 C1569 1.463 . S
C1572 N1576 1.427 . S
C1573 H1563 0.929 . S
C1573 C1571 1.433 . S
C1573 N1576 1.384 . S
C1574 H1565 0.929 . S
C1574 C1566 1.378 . S
C1574 C1569 1.350 . S
C1575 H1562 0.929 . S
C1575 C1567 1.433 . S
C1575 N1577 1.384 . S
N1576 C1572 1.427 . S
N1576 C1573 1.384 . S
N1577 C1569 1.427 . S
N1577 C1575 1.384 . S
H1578 C1584 0.930 . S
H1579 C1588 0.930 . S
H1580 C1593 0.929 1_565 S
H1581 C1591 0.929 . S
H1582 C1586 0.929 . S
H1583 C1592 0.929 . S
C1584 H1578 0.930 . S
C1584 C1585 1.367 . S
C1584 C1592 1.378 . S
C1585 C1584 1.367 . S
C1585 C1593 1.433 . S
C1586 H1582 0.929 . S
C1586 C1588 1.378 . S
C1586 C1590 1.350 1_565 S
C1587 C1590 1.463 . S
C1587 C1592 1.350 . S
C1587 N1595 1.427 . S
C1588 H1579 0.930 . S
C1588 C1586 1.378 . S
C1588 C1589 1.367 1_565 S
C1589 C1588 1.367 1_545 S
C1589 C1591 1.433 . S
C1590 C1586 1.350 1_545 S
C1590 C1587 1.463 . S
C1590 N1594 1.427 . S
C1591 H1581 0.929 . S
C1591 C1589 1.433 . S
C1591 N1594 1.384 . S
C1592 H1583 0.929 . S
C1592 C1584 1.378 . S
C1592 C1587 1.350 . S
C1593 H1580 0.929 1_545 S
C1593 C1585 1.433 . S
C1593 N1595 1.384 . S
N1594 C1590 1.427 . S
N1594 C1591 1.384 . S
N1595 C1587 1.427 . S
N1595 C1593 1.384 . S
H1596 C1602 0.930 . S
H1597 C1606 0.930 . S
H1598 C1611 0.929 . S
H1599 C1609 0.929 . S
H1600 C1604 0.929 . S
H1601 C1610 0.929 . S
C1602 H1596 0.930 . S
C1602 C1603 1.367 . S
C1602 C1610 1.378 . S
C1603 C1602 1.367 . S
C1603 C1611 1.433 . S
C1604 H1600 0.929 . S
C1604 C1606 1.378 . S
C1604 C1608 1.350 . S
C1605 C1608 1.463 . S
C1605 C1610 1.350 . S
C1605 N1613 1.427 . S
C1606 H1597 0.930 . S
C1606 C1604 1.378 . S
C1606 C1607 1.367 . S
C1607 C1606 1.367 . S
C1607 C1609 1.433 . S
C1608 C1604 1.350 . S
C1608 C1605 1.463 . S
C1608 N1612 1.427 . S
C1609 H1599 0.929 . S
C1609 C1607 1.433 . S
C1609 N1612 1.384 . S
C1610 H1601 0.929 . S
C1610 C1602 1.378 . S
C1610 C1605 1.350 . S
C1611 H1598 0.929 . S
C1611 C1603 1.433 . S
C1611 N1613 1.384 . S
N1612 C1608 1.427 . S
N1612 C1609 1.384 . S
N1613 C1605 1.427 . S
N1613 C1611 1.384 . S
H1614 C1620 0.930 . S
H1615 C1624 0.930 . S
H1616 C1629 0.929 . S
H1617 C1627 0.929 . S
H1618 C1622 0.929 . S
H1619 C1628 0.929 . S
C1620 H1614 0.930 . S
C1620 C1621 1.367 . S
C1620 C1628 1.378 . S
C1621 C1620 1.367 . S
C1621 C1629 1.433 . S
C1622 H1618 0.929 . S
C1622 C1624 1.378 . S
C1622 C1626 1.350 . S
C1623 C1626 1.463 . S
C1623 C1628 1.350 . S
C1623 N1631 1.427 . S
C1624 H1615 0.930 . S
C1624 C1622 1.378 . S
C1624 C1625 1.367 . S
C1625 C1624 1.367 . S
C1625 C1627 1.433 . S
C1626 C1622 1.350 . S
C1626 C1623 1.463 . S
C1626 N1630 1.427 . S
C1627 H1617 0.929 . S
C1627 C1625 1.433 . S
C1627 N1630 1.384 . S
C1628 H1619 0.929 . S
C1628 C1620 1.378 . S
C1628 C1623 1.350 . S
C1629 H1616 0.929 . S
C1629 C1621 1.433 . S
C1629 N1631 1.384 . S
N1630 C1626 1.427 . S
N1630 C1627 1.384 . S
N1631 C1623 1.427 . S
N1631 C1629 1.384 . S
H1632 C1638 0.930 . S
H1633 C1642 0.930 . S
H1634 C1647 0.929 . S
H1635 C1645 0.929 . S
H1636 C1640 0.929 . S
H1637 C1646 0.929 . S
C1638 H1632 0.930 . S
C1638 C1639 1.367 . S
C1638 C1646 1.378 . S
C1639 C1638 1.367 . S
C1639 C1647 1.433 . S
C1640 H1636 0.929 . S
C1640 C1642 1.378 . S
C1640 C1644 1.350 . S
C1641 C1644 1.463 . S
C1641 C1646 1.350 . S
C1641 N1649 1.427 . S
C1642 H1633 0.930 . S
C1642 C1640 1.378 . S
C1642 C1643 1.367 . S
C1643 C1642 1.367 . S
C1643 C1645 1.433 . S
C1644 C1640 1.350 . S
C1644 C1641 1.463 . S
C1644 N1648 1.427 . S
C1645 H1635 0.929 . S
C1645 C1643 1.433 . S
C1645 N1648 1.384 . S
C1646 H1637 0.929 . S
C1646 C1638 1.378 . S
C1646 C1641 1.350 . S
C1647 H1634 0.929 . S
C1647 C1639 1.433 . S
C1647 N1649 1.384 . S
N1648 C1644 1.427 . S
N1648 C1645 1.384 . S
N1649 C1641 1.427 . S
N1649 C1647 1.384 . S
H1650 C1656 0.930 . S
H1651 C1660 0.930 . S
H1652 C1665 0.929 . S
H1653 C1663 0.929 . S
H1654 C1658 0.929 . S
H1655 C1664 0.951 . S
C1656 H1650 0.930 . S
C1656 C1657 1.367 . S
C1656 C1664 1.378 . S
C1657 C1656 1.367 . S
C1657 C1665 1.433 . S
C1658 H1654 0.929 . S
C1658 C1660 1.378 . S
C1658 C1662 1.350 . S
C1659 C1662 1.463 . S
C1659 C1664 1.350 . S
C1659 N1667 1.427 . S
C1660 H1651 0.930 . S
C1660 C1658 1.378 . S
C1660 C1661 1.367 . S
C1661 C1660 1.367 . S
C1661 C1663 1.433 1_655 S
C1662 C1658 1.350 . S
C1662 C1659 1.463 . S
C1662 N1666 1.430 . S
C1663 H1653 0.929 . S
C1663 C1661 1.433 1_455 S
C1663 N1666 1.382 1_455 S
C1664 H1655 0.951 . S
C1664 C1656 1.378 . S
C1664 C1659 1.350 . S
C1665 H1652 0.929 . S
C1665 C1657 1.433 . S
C1665 N1667 1.384 . S
N1666 C1662 1.430 . S
N1666 C1663 1.382 1_655 S
N1667 C1659 1.427 . S
N1667 C1665 1.384 . S
H1668 C1674 0.930 . S
H1669 C1678 0.930 . S
H1670 C1683 0.929 . S
H1671 C1681 0.929 . S
H1672 C1676 0.929 . S
H1673 C1682 0.929 . S
C1674 H1668 0.930 . S
C1674 C1675 1.367 . S
C1674 C1682 1.378 . S
C1675 C1674 1.367 . S
C1675 C1683 1.433 . S
C1676 H1672 0.929 . S
C1676 C1678 1.378 . S
C1676 C1680 1.350 . S
C1677 C1680 1.463 . S
C1677 C1682 1.350 . S
C1677 N1685 1.427 . S
C1678 H1669 0.930 . S
C1678 C1676 1.378 . S
C1678 C1679 1.367 . S
C1679 C1678 1.367 . S
C1679 C1681 1.433 . S
C1680 C1676 1.350 . S
C1680 C1677 1.463 . S
C1680 N1684 1.427 . S
C1681 H1671 0.929 . S
C1681 C1679 1.433 . S
C1681 N1684 1.384 . S
C1682 H1673 0.929 . S
C1682 C1674 1.378 . S
C1682 C1677 1.350 . S
C1683 H1670 0.929 . S
C1683 C1675 1.433 . S
C1683 N1685 1.384 . S
N1684 C1680 1.427 . S
N1684 C1681 1.384 . S
N1685 C1677 1.427 . S
N1685 C1683 1.384 . S
H1686 C1692 0.930 . S
H1687 C1696 0.930 . S
H1688 C1701 0.929 . S
H1689 C1699 0.929 . S
H1690 C1694 0.929 . S
H1691 C1700 0.929 . S
C1692 H1686 0.930 . S
C1692 C1693 1.367 . S
C1692 C1700 1.378 . S
C1693 C1692 1.367 . S
C1693 C1701 1.433 . S
C1694 H1690 0.929 . S
C1694 C1696 1.378 . S
C1694 C1698 1.350 . S
C1695 C1698 1.463 . S
C1695 C1700 1.350 . S
C1695 N1703 1.427 . S
C1696 H1687 0.930 . S
C1696 C1694 1.378 . S
C1696 C1697 1.367 . S
C1697 C1696 1.367 . S
C1697 C1699 1.433 . S
C1698 C1694 1.350 . S
C1698 C1695 1.463 . S
C1698 N1702 1.427 . S
C1699 H1689 0.929 . S
C1699 C1697 1.433 . S
C1699 N1702 1.384 . S
C1700 H1691 0.929 . S
C1700 C1692 1.378 . S
C1700 C1695 1.350 . S
C1701 H1688 0.929 . S
C1701 C1693 1.433 . S
C1701 N1703 1.384 . S
N1702 C1698 1.427 . S
N1702 C1699 1.384 . S
N1703 C1695 1.427 . S
N1703 C1701 1.384 . S
H1704 C1710 0.930 . S
H1705 C1714 0.930 . S
H1706 C1719 0.929 . S
H1707 C1717 0.929 . S
H1708 C1712 0.929 . S
H1709 C1718 0.929 . S
C1710 H1704 0.930 . S
C1710 C1711 1.367 . S
C1710 C1718 1.378 . S
C1711 C1710 1.367 . S
C1711 C1719 1.433 . S
C1712 H1708 0.929 . S
C1712 C1714 1.378 . S
C1712 C1716 1.350 . S
C1713 C1716 1.463 . S
C1713 C1718 1.350 . S
C1713 N1721 1.427 . S
C1714 H1705 0.930 . S
C1714 C1712 1.378 . S
C1714 C1715 1.367 . S
C1715 C1714 1.367 . S
C1715 C1717 1.433 . S
C1716 C1712 1.350 . S
C1716 C1713 1.463 . S
C1716 N1720 1.427 . S
C1717 H1707 0.929 . S
C1717 C1715 1.433 . S
C1717 N1720 1.384 . S
C1718 H1709 0.929 . S
C1718 C1710 1.378 . S
C1718 C1713 1.350 . S
C1719 H1706 0.929 . S
C1719 C1711 1.433 . S
C1719 N1721 1.384 . S
N1720 C1716 1.427 . S
N1720 C1717 1.384 . S
N1721 C1713 1.427 . S
N1721 C1719 1.384 . S
H1722 C1728 0.930 . S
H1723 C1732 0.930 . S
H1724 C1737 0.929 . S
H1725 C1735 0.929 . S
H1726 C1730 0.929 . S
H1727 C1736 0.929 . S
C1728 H1722 0.930 . S
C1728 C1729 1.367 . S
C1728 C1736 1.378 . S
C1729 C1728 1.367 . S
C1729 C1737 1.433 . S
C1730 H1726 0.929 . S
C1730 C1732 1.378 . S
C1730 C1734 1.350 . S
C1731 C1734 1.463 . S
C1731 C1736 1.350 . S
C1731 N1739 1.427 . S
C1732 H1723 0.930 . S
C1732 C1730 1.378 . S
C1732 C1733 1.367 . S
C1733 C1732 1.367 . S
C1733 C1735 1.433 . S
C1734 C1730 1.350 . S
C1734 C1731 1.463 . S
C1734 N1738 1.427 . S
C1735 H1725 0.929 . S
C1735 C1733 1.433 . S
C1735 N1738 1.384 . S
C1736 H1727 0.929 . S
C1736 C1728 1.378 . S
C1736 C1731 1.350 . S
C1737 H1724 0.929 . S
C1737 C1729 1.433 . S
C1737 N1739 1.384 . S
N1738 C1734 1.427 . S
N1738 C1735 1.384 . S
N1739 C1731 1.427 . S
N1739 C1737 1.384 . S
H1740 C1746 0.930 . S
H1741 C1750 0.930 . S
H1742 C1755 0.929 . S
H1743 C1753 0.929 . S
H1744 C1748 0.929 . S
H1745 C1754 0.929 . S
C1746 H1740 0.930 . S
C1746 C1747 1.367 . S
C1746 C1754 1.378 . S
C1747 C1746 1.367 . S
C1747 C1755 1.433 . S
C1748 H1744 0.929 . S
C1748 C1750 1.378 . S
C1748 C1752 1.350 . S
C1749 C1752 1.463 . S
C1749 C1754 1.350 . S
C1749 N1757 1.427 . S
C1750 H1741 0.930 . S
C1750 C1748 1.378 . S
C1750 C1751 1.367 . S
C1751 C1750 1.367 . S
C1751 C1753 1.433 . S
C1752 C1748 1.350 . S
C1752 C1749 1.463 . S
C1752 N1756 1.427 . S
C1753 H1743 0.929 . S
C1753 C1751 1.433 . S
C1753 N1756 1.384 . S
C1754 H1745 0.929 . S
C1754 C1746 1.378 . S
C1754 C1749 1.350 . S
C1755 H1742 0.929 . S
C1755 C1747 1.433 . S
C1755 N1757 1.384 . S
N1756 C1752 1.427 . S
N1756 C1753 1.384 . S
N1757 C1749 1.427 . S
N1757 C1755 1.384 . S
H1758 C1764 0.930 . S
H1759 C1768 0.930 . S
H1760 C1773 0.929 . S
H1761 C1771 0.929 . S
H1762 C1766 0.929 . S
H1763 C1772 0.929 . S
C1764 H1758 0.930 . S
C1764 C1765 1.367 . S
C1764 C1772 1.378 . S
C1765 C1764 1.367 . S
C1765 C1773 1.433 . S
C1766 H1762 0.929 . S
C1766 C1768 1.378 . S
C1766 C1770 1.350 . S
C1767 C1770 1.463 . S
C1767 C1772 1.350 . S
C1767 N1775 1.427 . S
C1768 H1759 0.930 . S
C1768 C1766 1.378 . S
C1768 C1769 1.367 . S
C1769 C1768 1.367 . S
C1769 C1771 1.433 . S
C1770 C1766 1.350 . S
C1770 C1767 1.463 . S
C1770 N1774 1.427 . S
C1771 H1761 0.929 . S
C1771 C1769 1.433 . S
C1771 N1774 1.384 . S
C1772 H1763 0.929 . S
C1772 C1764 1.378 . S
C1772 C1767 1.350 . S
C1773 H1760 0.929 . S
C1773 C1765 1.433 . S
C1773 N1775 1.384 . S
N1774 C1770 1.427 . S
N1774 C1771 1.384 . S
N1775 C1767 1.427 . S
N1775 C1773 1.384 . S
H1776 C1782 0.930 . S
H1777 C1786 0.930 . S
H1778 C1791 0.929 . S
H1779 C1789 0.929 . S
H1780 C1784 0.929 . S
H1781 C1790 0.929 . S
C1782 H1776 0.930 . S
C1782 C1783 1.367 . S
C1782 C1790 1.378 . S
C1783 C1782 1.367 . S
C1783 C1791 1.433 . S
C1784 H1780 0.929 . S
C1784 C1786 1.378 . S
C1784 C1788 1.350 . S
C1785 C1788 1.463 . S
C1785 C1790 1.350 . S
C1785 N1793 1.427 . S
C1786 H1777 0.930 . S
C1786 C1784 1.378 . S
C1786 C1787 1.367 . S
C1787 C1786 1.367 . S
C1787 C1789 1.433 . S
C1788 C1784 1.350 . S
C1788 C1785 1.463 . S
C1788 N1792 1.427 . S
C1789 H1779 0.929 . S
C1789 C1787 1.433 . S
C1789 N1792 1.384 . S
C1790 H1781 0.929 . S
C1790 C1782 1.378 . S
C1790 C1785 1.350 . S
C1791 H1778 0.929 . S
C1791 C1783 1.433 . S
C1791 N1793 1.384 . S
N1792 C1788 1.427 . S
N1792 C1789 1.384 . S
N1793 C1785 1.427 . S
N1793 C1791 1.384 . S
H1794 C1800 0.930 . S
H1795 C1804 0.930 . S
H1796 C1809 0.929 . S
H1797 C1807 0.929 . S
H1798 C1802 0.929 . S
H1799 C1808 0.929 . S
C1800 H1794 0.930 . S
C1800 C1801 1.367 . S
C1800 C1808 1.378 . S
C1801 C1800 1.367 . S
C1801 C1809 1.433 . S
C1802 H1798 0.929 . S
C1802 C1804 1.378 . S
C1802 C1806 1.350 . S
C1803 C1806 1.463 . S
C1803 C1808 1.350 . S
C1803 N1811 1.427 . S
C1804 H1795 0.930 . S
C1804 C1802 1.378 . S
C1804 C1805 1.367 . S
C1805 C1804 1.367 . S
C1805 C1807 1.433 . S
C1806 C1802 1.350 . S
C1806 C1803 1.463 . S
C1806 N1810 1.427 . S
C1807 H1797 0.929 . S
C1807 C1805 1.433 . S
C1807 N1810 1.384 . S
C1808 H1799 0.929 . S
C1808 C1800 1.378 . S
C1808 C1803 1.350 . S
C1809 H1796 0.929 . S
C1809 C1801 1.433 . S
C1809 N1811 1.384 . S
N1810 C1806 1.427 . S
N1810 C1807 1.384 . S
N1811 C1803 1.427 . S
N1811 C1809 1.384 . S
H1812 C1818 0.930 . S
H1813 C1822 0.930 . S
H1814 C1827 0.929 . S
H1815 C1825 0.929 . S
H1816 C1820 0.929 . S
H1817 C1826 0.929 . S
C1818 H1812 0.930 . S
C1818 C1819 1.367 . S
C1818 C1826 1.378 . S
C1819 C1818 1.367 . S
C1819 C1827 1.433 . S
C1820 H1816 0.929 . S
C1820 C1822 1.378 . S
C1820 C1824 1.350 . S
C1821 C1824 1.463 . S
C1821 C1826 1.350 . S
C1821 N1829 1.427 . S
C1822 H1813 0.930 . S
C1822 C1820 1.378 . S
C1822 C1823 1.367 . S
C1823 C1822 1.367 . S
C1823 C1825 1.433 . S
C1824 C1820 1.350 . S
C1824 C1821 1.463 . S
C1824 N1828 1.427 . S
C1825 H1815 0.929 . S
C1825 C1823 1.433 . S
C1825 N1828 1.384 . S
C1826 H1817 0.929 . S
C1826 C1818 1.378 . S
C1826 C1821 1.350 . S
C1827 H1814 0.929 . S
C1827 C1819 1.433 . S
C1827 N1829 1.384 . S
N1828 C1824 1.427 . S
N1828 C1825 1.384 . S
N1829 C1821 1.427 . S
N1829 C1827 1.384 . S
H1830 C1836 0.930 . S
H1831 C1840 0.930 . S
H1832 C1845 0.929 . S
H1833 C1843 0.929 . S
H1834 C1838 0.929 . S
H1835 C1844 0.929 . S
C1836 H1830 0.930 . S
C1836 C1837 1.367 . S
C1836 C1844 1.378 . S
C1837 C1836 1.367 . S
C1837 C1845 1.433 . S
C1838 H1834 0.929 . S
C1838 C1840 1.378 . S
C1838 C1842 1.350 . S
C1839 C1842 1.463 . S
C1839 C1844 1.350 . S
C1839 N1847 1.427 . S
C1840 H1831 0.930 . S
C1840 C1838 1.378 . S
C1840 C1841 1.367 . S
C1841 C1840 1.367 . S
C1841 C1843 1.433 . S
C1842 C1838 1.350 . S
C1842 C1839 1.463 . S
C1842 N1846 1.427 . S
C1843 H1833 0.929 . S
C1843 C1841 1.433 . S
C1843 N1846 1.384 . S
C1844 H1835 0.929 . S
C1844 C1836 1.378 . S
C1844 C1839 1.350 . S
C1845 H1832 0.929 . S
C1845 C1837 1.433 . S
C1845 N1847 1.384 . S
N1846 C1842 1.427 . S
N1846 C1843 1.384 . S
N1847 C1839 1.427 . S
N1847 C1845 1.384 . S
H1848 C1854 0.944 . S
H1849 C1858 0.930 . S
H1850 C1863 0.929 . S
H1851 C1861 0.929 . S
H1852 C1856 0.929 . S
H1853 C1862 0.929 . S
C1854 H1848 0.944 . S
C1854 C1855 1.352 1_554 S
C1854 C1862 1.380 . S
C1855 C1854 1.352 1_556 S
C1855 C1863 1.433 . S
C1856 H1852 0.929 . S
C1856 C1858 1.378 . S
C1856 C1860 1.350 . S
C1857 C1860 1.463 . S
C1857 C1862 1.350 1_556 S
C1857 N1865 1.427 . S
C1858 H1849 0.930 . S
C1858 C1856 1.378 . S
C1858 C1859 1.367 . S
C1859 C1858 1.367 . S
C1859 C1861 1.433 1_556 S
C1860 C1856 1.350 . S
C1860 C1857 1.463 . S
C1860 N1864 1.427 1_556 S
C1861 H1851 0.929 . S
C1861 C1859 1.433 1_554 S
C1861 N1864 1.384 . S
C1862 H1853 0.929 . S
C1862 C1854 1.380 . S
C1862 C1857 1.350 1_554 S
C1863 H1850 0.929 . S
C1863 C1855 1.433 . S
C1863 N1865 1.384 . S
N1864 C1860 1.427 1_554 S
N1864 C1861 1.384 . S
N1865 C1857 1.427 . S
N1865 C1863 1.384 . S
H1866 C1872 0.930 . S
H1867 C1876 0.930 . S
H1868 C1881 0.929 . S
H1869 C1879 0.929 . S
H1870 C1874 0.929 . S
H1871 C1880 0.929 . S
C1872 H1866 0.930 . S
C1872 C1873 1.367 . S
C1872 C1880 1.378 . S
C1873 C1872 1.367 . S
C1873 C1881 1.433 . S
C1874 H1870 0.929 . S
C1874 C1876 1.378 . S
C1874 C1878 1.350 . S
C1875 C1878 1.463 . S
C1875 C1880 1.350 . S
C1875 N1883 1.427 . S
C1876 H1867 0.930 . S
C1876 C1874 1.378 . S
C1876 C1877 1.367 . S
C1877 C1876 1.367 . S
C1877 C1879 1.433 . S
C1878 C1874 1.350 . S
C1878 C1875 1.463 . S
C1878 N1882 1.427 . S
C1879 H1869 0.929 . S
C1879 C1877 1.433 . S
C1879 N1882 1.384 . S
C1880 H1871 0.929 . S
C1880 C1872 1.378 . S
C1880 C1875 1.350 . S
C1881 H1868 0.929 . S
C1881 C1873 1.433 . S
C1881 N1883 1.384 . S
N1882 C1878 1.427 . S
N1882 C1879 1.384 . S
N1883 C1875 1.427 . S
N1883 C1881 1.384 . S
H1884 C1890 0.930 . S
H1885 C1894 0.930 . S
H1886 C1899 0.968 . S
H1887 C1897 0.929 . S
H1888 C1892 0.929 . S
H1889 C1898 0.929 . S
C1890 H1884 0.930 . S
C1890 C1891 1.367 . S
C1890 C1898 1.378 . S
C1891 C1890 1.367 . S
C1891 C1899 1.387 1_554 S
C1892 H1888 0.929 . S
C1892 C1894 1.378 . S
C1892 C1896 1.350 1_556 S
C1893 C1896 1.463 . S
C1893 C1898 1.350 . S
C1893 N1901 1.427 1_554 S
C1894 H1885 0.930 . S
C1894 C1892 1.378 . S
C1894 C1895 1.367 1_556 S
C1895 C1894 1.367 1_554 S
C1895 C1897 1.433 . S
C1896 C1892 1.350 1_554 S
C1896 C1893 1.463 . S
C1896 N1900 1.427 . S
C1897 H1887 0.929 . S
C1897 C1895 1.433 . S
C1897 N1900 1.384 . S
C1898 H1889 0.929 . S
C1898 C1890 1.378 . S
C1898 C1893 1.350 . S
C1899 H1886 0.968 . S
C1899 C1891 1.387 1_556 S
C1899 N1901 1.390 . S
N1900 C1896 1.427 . S
N1900 C1897 1.384 . S
N1901 C1893 1.427 1_556 S
N1901 C1899 1.390 . S
H1902 C1908 0.930 . S
H1903 C1912 0.930 . S
H1904 C1917 0.929 . S
H1905 C1915 0.929 . S
H1906 C1910 0.929 . S
H1907 C1916 0.929 . S
C1908 H1902 0.930 . S
C1908 C1909 1.367 . S
C1908 C1916 1.378 . S
C1909 C1908 1.367 . S
C1909 C1917 1.433 . S
C1910 H1906 0.929 . S
C1910 C1912 1.378 . S
C1910 C1914 1.350 . S
C1911 C1914 1.463 . S
C1911 C1916 1.350 . S
C1911 N1919 1.427 . S
C1912 H1903 0.930 . S
C1912 C1910 1.378 . S
C1912 C1913 1.367 . S
C1913 C1912 1.367 . S
C1913 C1915 1.433 . S
C1914 C1910 1.350 . S
C1914 C1911 1.463 . S
C1914 N1918 1.427 . S
C1915 H1905 0.929 . S
C1915 C1913 1.433 . S
C1915 N1918 1.384 . S
C1916 H1907 0.929 . S
C1916 C1908 1.378 . S
C1916 C1911 1.350 . S
C1917 H1904 0.929 . S
C1917 C1909 1.433 . S
C1917 N1919 1.384 . S
N1918 C1914 1.427 . S
N1918 C1915 1.384 . S
N1919 C1911 1.427 . S
N1919 C1917 1.384 . S
C1067 C626 1.446 . S
C1063 C211 1.452 . S
C1085 C674 1.619 . S
C1081 C255 1.673 . S
C1099 C274 1.435 . S
C1103 C710 1.377 . S
C1121 C746 1.586 . S
C1117 C157 1.633 . S
C1139 C772 1.485 . S
C1135 C391 1.486 . S
C1157 C808 1.585 . S
C1153 C484 1.589 . S
C1171 C450 1.487 . S
C1175 C843 1.504 . S
C1193 C880 1.607 1_565 S
C1189 C352 1.614 . S
C1207 C430 1.440 . S
C1211 C914 1.432 . S
C1229 C962 1.561 . S
C1225 C367 1.616 . S
C1243 C411 1.468 . S
C1247 C915 1.480 . S
C1265 C952 1.616 . S
C1261 C469 1.619 . S
C1279 C294 1.469 . S
C1283 C998 1.403 . S
C1297 C177 1.631 . S
C1301 C987 1.625 . S
C1315 C196 1.501 . S
C1319 C988 1.499 . S
C1333 C235 1.652 . S
C1337 C986 1.644 1_655 S
C1351 C133 1.464 . S
C1355 C734 1.456 . S
C1369 C567 1.440 . S
C1373 C735 1.449 . S
C1391 C638 1.606 . S
C1387 C601 1.650 . S
C1409 C663 1.472 . S
C1405 C328 1.469 . S
C1423 C172 1.629 . S
C1427 C770 1.626 . S
C1445 C878 1.482 . S
C1441 C445 1.488 . S
C1463 C771 1.606 . S
C1459 C372 1.611 . S
C1481 C844 1.609 . S
C1477 C489 1.614 . S
C1499 C842 1.440 . S
C1495 C562 1.447 . S
C1513 C606 1.672 . S
C1517 C890 1.630 . S
C1531 C313 1.430 . S
C1535 C782 1.367 . S
C1553 C818 1.578 . S
C1549 C508 1.633 . S
C1567 C118 1.479 . S
C1571 C700 1.479 . S
C1589 C736 1.585 . S
C1585 C16 1.589 . S
C1607 C627 1.502 . S
C1603 C60 1.488 . S
C1625 C664 1.610 . S
C1621 C79 1.614 . S
C1639 C40 1.439 . S
C1643 C950 1.433 . S
C1657 C94 1.616 . S
C1661 C926 1.562 . S
C1675 C138 1.472 . S
C1679 C951 1.480 . S
C1693 C1 1.619 . S
C1697 C916 1.616 . S
C1715 C1034 1.411 . S
C1711 C333 1.465 . S
C1733 C1023 1.626 . S
C1729 C528 1.632 . S
C1751 C1024 1.496 . S
C1747 C547 1.497 . S
C1765 C586 1.649 . S
C1769 C1022 1.643 . S
C1783 C406 1.460 . S
C1787 C806 1.451 . S
C1805 C807 1.451 . S
C1801 C216 1.445 . S
C1823 C854 1.594 . S
C1819 C250 1.650 . S
C1841 C879 1.474 . S
C1837 C289 1.469 . S
C1855 C523 1.630 . S
C1859 C698 1.629 . S
C1877 C662 1.483 . S
C1873 C55 1.493 . S
C1891 C99 1.612 . S
C1895 C699 1.609 . S
C1913 C628 1.609 . S
C1909 C21 1.614 . S
