# Generated by pormake.
# Topology zzz, (3,6)-cn, num edge types: 1
# Building blocks:
#     Node 0, Type 0, BuildingBlock: CUQRIR_clean_linker_1, # of connection points: 3
#     Node 1, Type 0, BuildingBlock: CUQRIR_clean_linker_1, # of connection points: 3
#     Node 2, Type 0, BuildingBlock: CUQRIR_clean_linker_1, # of connection points: 3
#     Node 3, Type 0, BuildingBlock: CUQRIR_clean_linker_1, # of connection points: 3
#     Node 4, Type 0, BuildingBlock: CUQRIR_clean_linker_1, # of connection points: 3
#     Node 5, Type 0, BuildingBlock: CUQRIR_clean_linker_1, # of connection points: 3
#     Node 6, Type 0, BuildingBlock: CUQRIR_clean_linker_1, # of connection points: 3
#     Node 7, Type 0, BuildingBlock: CUQRIR_clean_linker_1, # of connection points: 3
#     Node 8, Type 1, BuildingBlock: BETDIP_clean_sbu_0, # of connection points: 6
#     Node 9, Type 1, BuildingBlock: BETDIP_clean_sbu_0, # of connection points: 6
#     Node 10, Type 1, BuildingBlock: BETDIP_clean_sbu_0, # of connection points: 6
#     Node 11, Type 1, BuildingBlock: BETDIP_clean_sbu_0, # of connection points: 6
#     Edge 12, Type (0, 1), BuildingBlock: CIFDUS_clean_linker_0, # of connection points: 2
#     Edge 13, Type (0, 1), BuildingBlock: CIFDUS_clean_linker_0, # of connection points: 2
#     Edge 14, Type (0, 1), BuildingBlock: CIFDUS_clean_linker_0, # of connection points: 2
#     Edge 15, Type (0, 1), BuildingBlock: CIFDUS_clean_linker_0, # of connection points: 2
#     Edge 16, Type (0, 1), BuildingBlock: CIFDUS_clean_linker_0, # of connection points: 2
#     Edge 17, Type (0, 1), BuildingBlock: CIFDUS_clean_linker_0, # of connection points: 2
#     Edge 18, Type (0, 1), BuildingBlock: CIFDUS_clean_linker_0, # of connection points: 2
#     Edge 19, Type (0, 1), BuildingBlock: CIFDUS_clean_linker_0, # of connection points: 2
#     Edge 20, Type (0, 1), BuildingBlock: CIFDUS_clean_linker_0, # of connection points: 2
#     Edge 21, Type (0, 1), BuildingBlock: CIFDUS_clean_linker_0, # of connection points: 2
#     Edge 22, Type (0, 1), BuildingBlock: CIFDUS_clean_linker_0, # of connection points: 2
#     Edge 23, Type (0, 1), BuildingBlock: CIFDUS_clean_linker_0, # of connection points: 2
#     Edge 24, Type (0, 1), BuildingBlock: CIFDUS_clean_linker_0, # of connection points: 2
#     Edge 25, Type (0, 1), BuildingBlock: CIFDUS_clean_linker_0, # of connection points: 2
#     Edge 26, Type (0, 1), BuildingBlock: CIFDUS_clean_linker_0, # of connection points: 2
#     Edge 27, Type (0, 1), BuildingBlock: CIFDUS_clean_linker_0, # of connection points: 2
#     Edge 28, Type (0, 1), BuildingBlock: CIFDUS_clean_linker_0, # of connection points: 2
#     Edge 29, Type (0, 1), BuildingBlock: CIFDUS_clean_linker_0, # of connection points: 2
#     Edge 30, Type (0, 1), BuildingBlock: CIFDUS_clean_linker_0, # of connection points: 2
#     Edge 31, Type (0, 1), BuildingBlock: CIFDUS_clean_linker_0, # of connection points: 2
#     Edge 32, Type (0, 1), BuildingBlock: CIFDUS_clean_linker_0, # of connection points: 2
#     Edge 33, Type (0, 1), BuildingBlock: CIFDUS_clean_linker_0, # of connection points: 2
#     Edge 34, Type (0, 1), BuildingBlock: CIFDUS_clean_linker_0, # of connection points: 2
#     Edge 35, Type (0, 1), BuildingBlock: CIFDUS_clean_linker_0, # of connection points: 2
# Relax obj value: 0.356
# Max RMSD: 0.184
# Mean RMSD: 0.146
data_MOF--net-zzz--node1-BETDIP_clean_sbu_0--node2-CUQRIR_clean_linker_1--edge1-CIFDUS_clean_linker_0
_symmetry_space_group_name_H-M    P1
_symmetry_Int_Tables_number       1
_symmetry_cell_setting            triclinic
loop_
_symmetry_equiv_pos_as_xyz
'x, y, z'
_cell_length_a     41.668512
_cell_length_b     41.647503
_cell_length_c     10.70495
_cell_angle_alpha  89.844516
_cell_angle_beta   89.82304
_cell_angle_gamma 90.038377
loop_
_atom_site_label
_atom_site_type_symbol
_atom_site_fract_x
_atom_site_fract_y
_atom_site_fract_z
_atom_type_partial_charge
C0 C 0.7513 0.5353 0.36301 0.0
N1 N 0.77217 0.51476 0.42065 0.0
N2 N 0.72412 0.51979 0.32437 0.0
C3 C 0.75823 0.57006 0.33836 0.0
C4 C 0.72972 0.48897 0.35918 0.0
N5 N 0.75897 0.48563 0.4138 0.0
C6 C 0.70812 0.46126 0.3257 0.0
H7 H 0.77237 0.58042 0.41619 0.0
H8 H 0.73562 0.58374 0.32582 0.0
H9 H 0.77272 0.57213 0.25156 0.0
H10 H 0.68379 0.46538 0.36456 0.0
H11 H 0.71722 0.43814 0.36309 0.0
H12 H 0.70587 0.45972 0.2226 0.0
C13 C 0.99933 0.75635 0.43313 0.0
N14 N 1.01954 0.77763 0.48935 0.0
N15 N 1.01569 0.73049 0.38694 0.0
C16 C 0.96409 0.7618 0.41633 0.0
C17 C 0.04658 0.73733 0.41604 0.0
N18 N 0.04913 0.76601 0.47563 0.0
C19 C 0.07475 0.71747 0.37364 0.0
H20 H 0.95387 0.77382 0.49984 0.0
H21 H 0.95144 0.73877 0.39922 0.0
H22 H 0.96043 0.77783 0.33466 0.0
H23 H 0.07688 0.7189 0.27041 0.0
H24 H 0.07073 0.69194 0.39858 0.0
H25 H 0.09746 0.72572 0.41694 0.0
C26 C 0.78718 0.02703 0.42959 0.0
N27 N 0.7633 0.04673 0.47221 0.0
N28 N 0.81189 0.04432 0.37804 0.0
C29 C 0.78572 0.99113 0.43372 0.0
C30 C 0.80208 0.07508 0.39184 0.0
N31 N 0.77278 0.07663 0.44724 0.0
C32 C 0.82066 0.1037 0.34459 0.0
H33 H 0.77746 0.98307 0.52735 0.0
H34 H 0.80944 0.98039 0.41196 0.0
H35 H 0.76789 0.98272 0.3643 0.0
H36 H 0.84592 0.10228 0.37624 0.0
H37 H 0.81021 0.12663 0.37804 0.0
H38 H 0.82084 0.10347 0.24091 0.0
C39 C 0.5135 0.79444 0.40592 0.0
N40 N 0.53175 0.76983 0.45054 0.0
N41 N 0.53207 0.81933 0.36463 0.0
C42 C 0.47774 0.79302 0.39218 0.0
C43 C 0.56231 0.80847 0.38427 0.0
N44 N 0.56236 0.77817 0.43219 0.0
C45 C 0.59193 0.8262 0.3421 0.0
H46 H 0.47185 0.78008 0.30472 0.0
H47 H 0.46744 0.81756 0.38696 0.0
H48 H 0.46689 0.77963 0.47152 0.0
H49 H 0.59129 0.85113 0.37823 0.0
H50 H 0.5923 0.82766 0.23857 0.0
H51 H 0.61411 0.81424 0.3755 0.0
C52 C 0.28664 0.52486 0.18614 0.0
N53 N 0.26195 0.54421 0.14826 0.0
N54 N 0.31085 0.54235 0.23933 0.0
C55 C 0.28634 0.48902 0.17654 0.0
C56 C 0.29991 0.57287 0.23156 0.0
N57 N 0.27046 0.57408 0.17794 0.0
C58 C 0.31764 0.60149 0.28229 0.0
H59 H 0.31032 0.47878 0.19736 0.0
H60 H 0.27866 0.48181 0.08147 0.0
H61 H 0.26853 0.47925 0.24392 0.0
H62 H 0.34324 0.60051 0.25393 0.0
H63 H 0.31677 0.60081 0.38589 0.0
H64 H 0.30712 0.62439 0.24866 0.0
C65 C 1.00752 0.29132 0.2423 0.0
N66 N 1.02456 0.26939 0.17464 0.0
N67 N 1.02616 0.31681 0.27669 0.0
C68 C 0.97326 0.28689 0.28186 0.0
C69 C 0.05539 0.30899 0.22955 0.0
N70 N 0.05472 0.28026 0.16933 0.0
C71 C 0.08561 0.32733 0.25785 0.0
H72 H 0.96162 0.31048 0.29807 0.0
H73 H 0.97262 0.273 0.37043 0.0
H74 H 0.95981 0.27323 0.21014 0.0
H75 H 0.09093 0.32534 0.3591 0.0
H76 H 0.08212 0.35313 0.23599 0.0
H77 H 0.10631 0.31815 0.2032 0.0
C78 C 0.24681 0.03478 0.22307 0.0
N79 N 0.26971 1.01367 0.18316 0.0
N80 N 0.22155 1.0192 0.27857 0.0
C81 C 0.25001 0.07054 0.21485 0.0
C82 C 0.23021 0.98793 0.27043 0.0
N83 N 0.25953 0.9845 0.21609 0.0
C84 C 0.21068 0.9607 0.32416 0.0
H85 H 0.22632 0.08236 0.22616 0.0
H86 H 0.26094 0.07748 0.12403 0.0
H87 H 0.26621 0.07884 0.29024 0.0
H88 H 0.18573 0.96199 0.28868 0.0
H89 H 0.20958 0.963 0.42735 0.0
H90 H 0.22085 0.93697 0.29886 0.0
C91 C 0.49912 0.26152 0.23097 0.0
N92 N 0.51814 0.28222 0.16533 0.0
N93 N 0.51532 0.23421 0.26269 0.0
C94 C 0.46543 0.26889 0.27124 0.0
C95 C 0.54512 0.23957 0.21561 0.0
N96 N 0.54709 0.2687 0.15855 0.0
C97 C 0.57358 0.21839 0.24195 0.0
H98 H 0.46615 0.28301 0.35894 0.0
H99 H 0.45179 0.24643 0.28882 0.0
H100 H 0.45313 0.28355 0.19911 0.0
H101 H 0.56786 0.19329 0.21653 0.0
H102 H 0.57891 0.21882 0.34345 0.0
H103 H 0.59512 0.22617 0.1887 0.0
Tb104 Tb 1.02495 1.01945 0.90532 0.0
Tb105 Tb 0.99288 0.03722 0.68257 0.0
C106 C 0.0431 0.99829 0.11334 0.0
C107 C 0.06474 0.97362 0.16139 0.0
C108 C 0.0914 0.96306 0.09253 0.0
C109 C 0.11002 0.93759 0.13701 0.0
C110 C 0.10183 0.92208 0.24975 0.0
C111 C 0.07658 0.9347 0.32242 0.0
C112 C 0.05821 0.96017 0.27823 0.0
C113 C 0.06587 0.03433 0.71827 0.0
C114 C 1.00477 0.96315 0.7111 0.0
C115 C 0.98481 0.06251 0.47306 0.0
C116 C 1.00645 0.08679 0.41738 0.0
C117 C 0.02901 0.0779 0.32529 0.0
C118 C 0.05482 0.09819 0.29547 0.0
C119 C 0.05863 0.12739 0.35888 0.0
C120 C 0.03518 0.13672 0.44637 0.0
C121 C 1.00927 0.11694 0.47392 0.0
C122 C 0.9509 1.02129 0.86233 0.0
C123 C 1.01208 0.0921 0.87322 0.0
O124 O 1.01737 0.98799 0.05605 0.0
O125 O 0.0567 1.02236 0.05547 0.0
O126 O 0.03988 1.01896 0.71275 0.0
O127 O 0.07072 0.04035 0.83499 0.0
O128 O 1.01649 0.97026 0.82371 0.0
O129 O 0.99454 0.98641 0.63752 0.0
O130 O 0.99809 0.03446 0.48817 0.0
O131 O 0.96839 0.07109 0.57213 0.0
O132 O 0.97679 0.03697 0.87638 0.0
O133 O 0.94738 1.01621 0.74363 0.0
O134 O 1.01145 0.08384 0.75377 0.0
O135 O 1.01165 0.06888 0.95716 0.0
H136 H 0.09709 0.97367 1.00263 0.0
H137 H 0.12957 0.92881 0.07967 0.0
H138 H 0.06921 0.92341 0.40906 0.0
H139 H 0.03815 0.96871 0.33333 0.0
H140 H 0.02747 0.05466 0.28053 0.0
H141 H 0.07209 0.09076 0.22548 0.0
H142 H 0.03644 0.15983 0.49237 0.0
H143 H 0.99218 0.12486 0.54371 0.0
Tb144 Tb 0.52497 0.0472 0.92077 0.0
Tb145 Tb 0.50654 1.00836 0.7136 0.0
C146 C 0.54521 0.072 0.11894 0.0
C147 C 0.56844 0.09603 0.15933 0.0
C148 C 0.57914 0.12059 0.07972 0.0
C149 C 0.60393 0.14094 0.11787 0.0
C150 C 0.61872 0.13642 0.23492 0.0
C151 C 0.60543 0.11358 0.31791 0.0
C152 C 0.58059 0.09366 0.28005 0.0
C153 C 0.50616 0.08245 0.72413 0.0
C154 C 0.57974 0.02991 0.72376 0.0
C155 C 0.48936 0.98567 0.50698 0.0
C156 C 0.46917 0.96286 0.4399 0.0
C157 C 0.46293 0.96899 0.31403 0.0
C158 C 0.44102 0.9502 0.24921 0.0
C159 C 0.42464 0.92504 0.31016 0.0
C160 C 0.43441 0.91633 0.43178 0.0
C161 C 0.45624 0.93546 0.49711 0.0
C162 C 0.5247 0.97281 0.91131 0.0
C163 C 0.45207 1.02573 0.91412 0.0
O164 O 0.557 0.04554 0.07156 0.0
O165 O 0.52067 0.08285 0.05641 0.0
O166 O 0.5227 0.05707 0.72228 0.0
O167 O 0.5014 0.0896 0.83975 0.0
O168 O 0.57403 0.03778 0.84195 0.0
O169 O 0.55503 1.02261 0.65181 0.0
O170 O 0.47541 1.01045 0.5594 0.0
O171 O 0.5123 0.97364 0.57514 0.0
O172 O 0.50871 0.9985 0.9126 0.0
O173 O 0.52865 0.96525 0.79552 0.0
O174 O 0.45746 1.01765 0.79533 0.0
O175 O 0.47697 0.03293 0.98531 0.0
H176 H 0.56931 0.12319 0.98666 0.0
H177 H 0.61274 0.15884 0.05277 0.0
H178 H 0.61583 0.10879 0.40852 0.0
H179 H 0.57173 0.07537 0.34332 0.0
H180 H 0.47395 0.98933 0.26738 0.0
H181 H 0.43478 0.95762 0.15545 0.0
H182 H 0.42319 0.89638 0.48015 0.0
H183 H 0.46182 0.92976 0.59342 0.0
Tb184 Tb 0.49589 0.53403 0.9178 0.0
Tb185 Tb 0.52815 0.52029 0.69295 0.0
C186 C 0.48532 0.55727 0.12938 0.0
C187 C 0.50646 0.57969 0.19727 0.0
C188 C 0.52566 0.56834 0.29568 0.0
C189 C 0.55078 0.58703 0.34286 0.0
C190 C 0.55696 0.61761 0.2929 0.0
C191 C 0.53663 0.62939 0.19814 0.0
C192 C 0.51177 0.61075 0.15114 0.0
C193 C 0.45386 0.51944 0.73737 0.0
C194 C 0.51447 0.59155 0.73678 0.0
C195 C 0.54729 0.50066 0.48384 0.0
C196 C 0.56818 0.47563 0.43312 0.0
C197 C 0.55929 0.4607 0.32173 0.0
C198 C 0.57717 0.4351 0.27573 0.0
C199 C 0.60435 0.4239 0.34065 0.0
C200 C 0.61465 0.44072 0.4471 0.0
C201 C 0.59654 0.46629 0.49365 0.0
C202 C 0.56889 0.53377 0.88121 0.0
C203 C 0.50937 0.46111 0.87504 0.0
O204 O 0.49762 0.52886 0.11236 0.0
O205 O 0.47155 0.56806 0.02791 0.0
O206 O 0.47932 0.536 0.72445 0.0
O207 O 0.4511 0.5124 0.85484 0.0
O208 O 0.51453 0.58159 0.85453 0.0
O209 O 0.51385 0.56962 0.64857 0.0
O210 O 0.52062 0.49094 0.53649 0.0
O211 O 0.56124 0.52356 0.54651 0.0
O212 O 0.54345 0.51742 0.88508 0.0
O213 O 0.57323 0.54173 0.7657 0.0
O214 O 0.51945 0.47054 0.76276 0.0
O215 O 0.50016 0.48267 0.95764 0.0
H216 H 0.52188 0.54446 0.33226 0.0
H217 H 0.56561 0.57746 0.41684 0.0
H218 H 0.53942 0.65345 0.16104 0.0
H219 H 0.49733 0.62046 0.07612 0.0
H220 H 0.53776 0.46805 0.27282 0.0
H221 H 0.56808 0.42262 0.19464 0.0
H222 H 0.63562 0.43294 0.49843 0.0
H223 H 0.60408 0.47798 0.57896 0.0
Tb224 Tb 1.00418 0.50449 0.94299 0.0
Tb225 Tb 1.01948 0.54291 0.73017 0.0
C226 C 0.98749 0.4834 0.15383 0.0
C227 C 0.96592 0.46257 0.22558 0.0
C228 C 0.95594 0.47307 0.34335 0.0
C229 C 0.93397 0.45517 0.41243 0.0
C230 C 0.9211 0.42656 0.36394 0.0
C231 C 0.93373 0.41446 0.25121 0.0
C232 C 0.95589 0.43247 0.18191 0.0
C233 C 1.01952 0.46832 0.74384 0.0
C234 C 0.9468 0.52218 0.75496 0.0
C235 C 0.03909 0.56669 0.52833 0.0
C236 C 0.06345 0.58948 0.48568 0.0
C237 C 0.07656 0.58527 0.36695 0.0
C238 C 0.1017 0.60462 0.32648 0.0
C239 C 0.11444 0.62855 0.40501 0.0
C240 C 0.09916 0.63456 0.52016 0.0
C241 C 0.07394 0.61495 0.56075 0.0
C242 C 1.00312 0.57866 0.92879 0.0
C243 C 0.07689 0.526 0.91897 0.0
O244 O 0.97524 0.50927 0.10312 0.0
O245 O 1.00875 0.46955 0.08224 0.0
O246 O 1.00354 0.49412 0.74416 0.0
O247 O 1.02521 0.46109 0.85905 0.0
O248 O 0.95464 0.51364 0.87104 0.0
O249 O 0.96996 0.53021 0.67583 0.0
O250 O 0.04967 0.53946 0.57355 0.0
O251 O 1.01559 0.57867 0.59414 0.0
O252 O 1.01994 0.55337 0.92811 0.0
O253 O 0.99672 0.58546 0.8139 0.0
O254 O 0.06957 0.53451 0.80251 0.0
O255 O 0.05332 0.51767 0.99524 0.0
H256 H 0.96427 0.49582 0.38014 0.0
H257 H 0.92502 0.46537 0.49857 0.0
H258 H 0.92474 0.39223 0.21232 0.0
H259 H 0.96414 0.42352 0.0925 0.0
H260 H 0.06799 0.5662 0.30722 0.0
H261 H 0.11269 0.5988 0.2377 0.0
H262 H 0.1079 0.65313 0.58195 0.0
H263 H 0.06351 0.6189 0.65225 0.0
H264 H 0.15727 1.01439 0.24499 0.0
H265 H 0.22857 0.04908 0.50061 0.0
H266 H 0.18688 0.05845 0.65944 0.0
H267 H 0.13006 0.0522 0.73265 0.0
H268 H 0.05934 1.0168 0.47415 0.0
H269 H 0.10026 1.01368 0.31039 0.0
C270 C 0.16352 1.02477 0.33443 0.0
C271 C 0.19613 0.03138 0.35992 0.0
C272 C 0.13931 0.02963 0.42625 0.0
C273 C 0.20375 0.04437 0.47735 0.0
C274 C 0.17984 0.04933 0.56887 0.0
C275 C 0.12351 0.04382 0.6404 0.0
C276 C 0.09132 0.03446 0.6173 0.0
C277 C 0.14754 0.0413 0.54575 0.0
C278 C 0.08363 1.02394 0.49617 0.0
C279 C 0.10714 1.02186 0.40213 0.0
H280 H 0.5145 0.16947 0.23376 0.0
H281 H 0.49931 0.24429 0.5039 0.0
H282 H 0.4934 0.20403 0.67003 0.0
H283 H 0.49626 0.14743 0.74161 0.0
H284 H 0.51326 0.07248 0.47254 0.0
H285 H 0.51334 0.11249 0.3038 0.0
C286 C 0.50949 0.17686 0.32884 0.0
C287 C 0.50713 0.20998 0.35601 0.0
C288 C 0.50667 0.15341 0.42468 0.0
C289 C 0.50068 0.21909 0.47991 0.0
C290 C 0.49765 0.19601 0.57521 0.0
C291 C 0.50006 0.13977 0.646 0.0
C292 C 0.50502 0.1068 0.62051 0.0
C293 C 0.50119 0.16308 0.5493 0.0
C294 C 0.50974 0.09755 0.49561 0.0
C295 C 0.51006 0.12049 0.39893 0.0
H296 H 0.3159 0.52039 0.47661 0.0
H297 H 0.37175 0.54547 0.15293 0.0
H298 H 0.4215 0.54082 0.27475 0.0
H299 H 0.44936 0.53299 0.48061 0.0
H300 H 0.39213 0.50662 0.80156 0.0
H301 H 0.34365 0.50851 0.67604 0.0
C302 C 0.33905 0.52386 0.4321 0.0
C303 C 0.34001 0.53253 0.30459 0.0
C304 C 0.36765 0.52155 0.50386 0.0
C305 C 0.37029 0.538 0.24974 0.0
C306 C 0.39878 0.53572 0.32018 0.0
C307 C 0.42632 0.52751 0.5229 0.0
C308 C 0.42488 0.51992 0.6521 0.0
C309 C 0.39787 0.5281 0.44848 0.0
C310 C 0.39449 0.51266 0.70348 0.0
C311 C 0.36645 0.51369 0.6313 0.0
H312 H 0.02771 0.38192 0.25053 0.0
H313 H 1.01223 0.30656 0.51972 0.0
H314 H 1.00873 0.34637 0.68779 0.0
H315 H 1.01277 0.40276 0.76108 0.0
H316 H 1.02578 0.4787 0.49172 0.0
H317 H 0.02846 0.43896 0.32297 0.0
C318 C 1.02318 0.37433 0.34588 0.0
C319 C 1.02 0.34112 0.37207 0.0
C320 C 1.02124 0.39761 0.44276 0.0
C321 C 1.01425 0.3318 0.49646 0.0
C322 C 1.01255 0.35464 0.59285 0.0
C323 C 1.01598 0.41069 0.66531 0.0
C324 C 1.01939 0.44392 0.63998 0.0
C325 C 1.01641 0.38762 0.56769 0.0
C326 C 1.02317 0.4535 0.5147 0.0
C327 C 1.02459 0.43068 0.4178 0.0
H328 H 0.81524 1.02025 0.14336 0.0
H329 H 0.87336 0.04873 0.45477 0.0
H330 H 0.92208 0.04399 0.32625 0.0
H331 H 0.94822 0.0355 0.1177 0.0
H332 H 0.88915 1.00575 0.80862 0.0
H333 H 0.84163 1.00719 0.9414 0.0
C334 C 0.83867 1.02444 0.18382 0.0
C335 C 0.84056 0.0343 0.30966 0.0
C336 C 0.86671 1.02203 0.10814 0.0
C337 C 0.8712 0.04053 0.35925 0.0
C338 C 0.89909 0.03816 0.28501 0.0
C339 C 0.925 0.02912 0.07963 0.0
C340 C 0.92266 1.02083 0.95162 0.0
C341 C 0.89722 0.02958 0.1581 0.0
C342 C 0.8921 1.01243 0.90562 0.0
C343 C 0.86465 1.0132 0.98198 0.0
H344 H 0.53744 0.88395 0.39623 0.0
H345 H 0.5099 0.81157 0.13138 0.0
H346 H 0.50482 0.85251 0.96767 0.0
H347 H 0.51184 0.90854 0.89529 0.0
H348 H 0.53675 0.98197 0.16039 0.0
H349 H 0.5395 0.94144 0.32733 0.0
C350 C 0.52971 0.87736 0.30319 0.0
C351 C 0.52372 0.84466 0.27638 0.0
C352 C 0.52693 0.90128 0.20886 0.0
C353 C 0.51405 0.83649 0.15494 0.0
C354 C 0.5115 0.85992 0.061 0.0
C355 C 0.51776 0.91573 0.98974 0.0
C356 C 0.52456 0.94834 1.01456 0.0
C357 C 0.51848 0.89231 0.086 0.0
C358 C 0.53166 0.95713 0.13813 0.0
C359 C 0.53322 0.93388 0.23377 0.0
H360 H 0.65946 0.51803 0.35807 0.0
H361 H 0.73239 0.54318 0.08993 0.0
H362 H 0.69113 0.55144 0.92954 0.0
H363 H 0.63394 0.54749 0.86026 0.0
H364 H 0.5617 0.52016 0.12927 0.0
H365 H 0.60249 0.51808 0.29303 0.0
C366 C 0.66628 0.52574 0.26491 0.0
C367 C 0.69921 0.53013 0.23691 0.0
C368 C 0.64229 0.5298 0.17205 0.0
C369 C 0.7074 0.54013 0.11521 0.0
C370 C 0.6837 0.54449 0.02286 0.0
C371 C 0.62706 0.54102 0.95475 0.0
C372 C 0.59444 0.53379 0.98116 0.0
C373 C 0.65103 0.53875 0.04917 0.0
C374 C 0.58633 0.5256 0.1049 0.0
C375 C 0.60976 0.52411 0.19895 0.0
H376 H 1.01476 0.66573 0.41705 0.0
H377 H 0.99623 0.74074 0.15011 0.0
H378 H 0.98949 0.70059 0.98444 0.0
H379 H 0.99275 0.6439 0.9119 0.0
H380 H 1.01143 0.56885 0.17999 0.0
H381 H 1.01174 0.6088 0.34812 0.0
C382 C 1.0085 0.67317 0.32312 0.0
C383 C 1.00565 0.70634 0.29653 0.0
C384 C 1.00491 0.64978 0.22772 0.0
C385 C 0.99799 0.7155 0.1737 0.0
C386 C 0.9945 0.69247 0.07863 0.0
C387 C 0.99716 0.63619 1.00711 0.0
C388 C 1.00254 0.60317 0.03215 0.0
C389 C 0.99859 0.65951 0.10375 0.0
C390 C 1.00781 0.59393 0.15678 0.0
C391 C 1.00839 0.61683 0.25317 0.0
H392 H 0.09316 0.26187 0.35538 0.0
H393 H 0.07814 0.24976 0.96218 0.0
H394 H 0.08955 0.19227 0.98087 0.0
H395 H 0.07883 0.14688 0.12755 0.0
H396 H 0.09675 0.16031 0.52032 0.0
H397 H 0.11077 0.21622 0.48317 0.0
C398 C 0.0947 0.24716 0.27215 0.0
C399 C 0.08172 0.25873 0.16 0.0
C400 C 0.10073 0.21428 0.28501 0.0
C401 C 0.0857 0.24028 0.05159 0.0
C402 C 0.092 0.20737 0.06256 0.0
C403 C 0.08782 0.16141 0.20377 0.0
C404 C 0.08447 0.15052 0.32763 0.0
C405 C 0.0955 0.1938 0.18185 0.0
C406 C 0.09755 0.16899 0.42481 0.0
C407 C 0.1054 0.20105 0.40381 0.0
H408 H 0.29805 0.95373 0.05164 0.0
H409 H 0.27047 0.95767 0.43962 0.0
H410 H 0.31683 0.92607 0.49749 0.0
H411 H 0.37136 0.91317 0.44743 0.0
H412 H 0.40461 0.91643 0.06533 0.0
H413 H 0.3503 0.92909 0.99539 0.0
C414 C 0.30197 0.94685 0.14808 0.0
C415 C 0.28114 0.95831 0.24124 0.0
C416 C 0.33025 0.93075 0.18218 0.0
C417 C 0.28593 0.94886 0.36591 0.0
C418 C 0.31276 0.93113 0.39941 0.0
C419 C 0.36681 0.91503 0.34806 0.0
C420 C 0.39248 0.91551 0.26261 0.0
C421 C 0.33613 0.92408 0.30964 0.0
C422 C 0.3855 0.91732 0.13402 0.0
C423 C 0.35445 0.92478 0.09392 0.0
H424 H 0.58516 0.28204 0.34933 0.0
H425 H 0.57294 0.29869 0.95616 0.0
H426 H 0.60164 0.3499 0.97292 0.0
H427 H 0.61373 0.39524 0.11319 0.0
H428 H 0.62119 0.37789 0.50999 0.0
H429 H 0.61374 0.32095 0.47709 0.0
C430 C 0.59057 0.29594 0.26608 0.0
C431 C 0.57587 0.28775 0.15296 0.0
C432 C 0.60614 0.32547 0.27788 0.0
C433 C 0.58313 0.30551 0.04509 0.0
C434 C 0.59941 0.33476 0.055 0.0
C435 C 0.61491 0.37879 0.1918 0.0
C436 C 0.61631 0.39103 0.31422 0.0
C437 C 0.60845 0.34611 0.17318 0.0
C438 C 0.61942 0.36942 0.41474 0.0
C439 C 0.61465 0.3367 0.39633 0.0
H440 H 0.25527 0.60421 0.38798 0.0
H441 H 0.23494 0.60136 0.99454 0.0
H442 H 0.1849 0.63104 0.02936 0.0
H443 H 0.14197 0.64385 0.17926 0.0
H444 H 0.16215 0.63992 0.57462 0.0
H445 H 0.21827 0.63056 0.5311 0.0
C446 C 0.24075 0.61163 0.30921 0.0
C447 C 0.24808 0.60014 0.18957 0.0
C448 C 0.21196 0.62782 0.33077 0.0
C449 C 0.2291 0.60951 0.08781 0.0
C450 C 0.2006 0.62643 0.1079 0.0
C451 C 0.15886 0.64186 0.25578 0.0
C452 C 0.14742 0.64056 0.37969 0.0
C453 C 0.19081 0.63361 0.2303 0.0
C454 C 0.16981 0.64011 0.47792 0.0
C455 C 0.20206 0.63413 0.45327 0.0
H456 H 0.08149 0.77994 0.26845 0.0
H457 H 0.07798 0.79941 0.66247 0.0
H458 H 0.10527 0.85086 0.62807 0.0
H459 H 0.11494 0.89493 0.47784 0.0
H460 H 0.11423 0.8743 0.08253 0.0
H461 H 0.10694 0.8178 0.12611 0.0
C462 C 0.08844 0.79449 0.3477 0.0
C463 C 0.07668 0.78679 0.46699 0.0
C464 C 0.10345 0.82399 0.32639 0.0
C465 C 0.08578 0.80573 0.56912 0.0
C466 C 0.10136 0.83506 0.54928 0.0
C467 C 0.11427 0.87788 0.40147 0.0
C468 C 0.11348 0.88913 0.27724 0.0
C469 C 0.10791 0.84544 0.42689 0.0
C470 C 0.11424 0.86667 0.17928 0.0
C471 C 0.10954 0.83418 0.20396 0.0
H472 H 0.75833 0.10889 0.24122 0.0
H473 H 0.73833 0.10349 0.6351 0.0
H474 H 0.68955 0.13556 0.60578 0.0
H475 H 0.64708 0.15151 0.45943 0.0
H476 H 0.66634 0.14875 0.06265 0.0
H477 H 0.72215 0.1377 0.10258 0.0
C478 C 0.74418 0.11621 0.3214 0.0
C479 C 0.7512 0.10345 0.43944 0.0
C480 C 0.71604 0.13366 0.30286 0.0
C481 C 0.7327 0.11264 0.54301 0.0
C482 C 0.70494 0.13095 0.52605 0.0
C483 C 0.66365 0.14917 0.38168 0.0
C484 C 0.65182 0.14846 0.25845 0.0
C485 C 0.69529 0.13953 0.40488 0.0
C486 C 0.67406 0.14819 0.15901 0.0
C487 C 0.70617 0.14121 0.18152 0.0
H488 H 0.58843 0.73421 0.58916 0.0
H489 H 0.59123 0.76847 0.20971 0.0
H490 H 0.6069 0.71593 0.13658 0.0
H491 H 0.5957 0.65936 0.1689 0.0
H492 H 0.57551 0.62427 0.53965 0.0
H493 H 0.59175 0.67564 0.62768 0.0
C494 C 0.59335 0.7301 0.49112 0.0
C495 C 0.58678 0.75461 0.40452 0.0
C496 C 0.59808 0.69867 0.44754 0.0
C497 C 0.59543 0.74994 0.2787 0.0
C498 C 0.6038 0.71953 0.23616 0.0
C499 C 0.59563 0.66277 0.26939 0.0
C500 C 0.58171 0.63926 0.34667 0.0
C501 C 0.60137 0.69335 0.3177 0.0
C502 C 0.58435 0.6427 0.47695 0.0
C503 C 0.59335 0.67232 0.52749 0.0
H504 H 0.79229 0.45548 0.59626 0.0
H505 H 0.76929 0.45199 0.20484 0.0
H506 H 0.81582 0.41857 0.16462 0.0
H507 H 0.8704 0.40834 0.22562 0.0
H508 H 0.89961 0.42163 0.60817 0.0
H509 H 0.84416 0.43314 0.66765 0.0
C510 C 0.79737 0.4468 0.50304 0.0
C511 C 0.77824 0.45708 0.40302 0.0
C512 C 0.82598 0.43015 0.47864 0.0
C513 C 0.78385 0.44451 0.28327 0.0
C514 C 0.81076 0.42576 0.25993 0.0
C515 C 0.86462 0.41206 0.32335 0.0
C516 C 0.88933 0.41568 0.41114 0.0
C517 C 0.8333 0.42093 0.3547 0.0
C518 C 0.88108 0.41985 0.53778 0.0
C519 C 0.84939 0.42675 0.57164 0.0
H520 H 1.0206 0.24501 0.9397 0.0
H521 H 1.00677 0.21981 0.32583 0.0
H522 H 0.99842 0.16341 0.26645 0.0
H523 H 1.003 0.11948 0.10857 0.0
H524 H 1.02211 0.14491 0.72488 0.0
H525 H 1.02286 0.20168 0.7803 0.0
C526 C 1.01584 0.2271 1.01101 0.0
C527 C 1.01467 0.23689 0.13762 0.0
C528 C 1.01368 0.19412 0.97727 0.0
C529 C 1.00789 0.21327 0.22812 0.0
C530 C 1.00391 0.18077 0.19437 0.0
C531 C 1.00733 0.13737 0.03678 0.0
C532 C 1.01248 0.12725 0.91155 0.0
C533 C 1.00806 0.17057 0.06992 0.0
C534 C 1.01782 0.15136 0.82119 0.0
C535 C 1.01828 0.18412 0.85311 0.0
H536 H 0.32975 1.01976 0.28053 0.0
H537 H 0.27809 1.01966 0.93406 0.0
H538 H 0.3289 1.02193 0.81654 0.0
H539 H 0.3894 1.02254 0.81166 0.0
H540 H 0.43957 1.02644 0.16329 0.0
H541 H 0.38921 1.02357 0.27625 0.0
C542 C 0.32965 1.021 0.17939 0.0
C543 C 0.29987 1.02022 0.11656 0.0
C544 C 0.35921 1.02233 0.11209 0.0
C545 C 0.30045 1.02097 0.98502 0.0
C546 C 0.32967 1.02192 0.91769 0.0
C547 C 0.38938 1.02275 0.91287 0.0
C548 C 0.41915 1.0241 0.97718 0.0
C549 C 0.35946 1.02234 0.9798 0.0
C550 C 0.41777 1.02488 0.10912 0.0
C551 C 0.38863 1.02346 0.17504 0.0
H552 H 0.51475 0.30806 0.93328 0.0
H553 H 0.50834 0.33216 0.32269 0.0
H554 H 0.50413 0.38946 0.26875 0.0
H555 H 0.50437 0.43327 0.10976 0.0
H556 H 0.51514 0.4089 0.72046 0.0
H557 H 0.51591 0.35183 0.77467 0.0
C558 C 0.51204 0.3259 1.00602 0.0
C559 C 0.51143 0.31567 0.1321 0.0
C560 C 0.51077 0.35901 0.97395 0.0
C561 C 0.50824 0.3392 0.22526 0.0
C562 C 0.50617 0.37204 0.19414 0.0
C563 C 0.50672 0.41553 0.0364 0.0
C564 C 0.5095 0.42588 0.91032 0.0
C565 C 0.5077 0.38236 0.0687 0.0
C566 C 0.51291 0.40212 0.81785 0.0
C567 C 0.51329 0.36927 0.84894 0.0
H568 H 0.20304 0.54047 0.25775 0.0
H569 H 0.25115 0.53111 0.90439 0.0
H570 H 0.19911 0.52605 0.79773 0.0
H571 H 0.13848 0.52603 0.80395 0.0
H572 H 0.09202 0.53184 0.16364 0.0
H573 H 0.14364 0.5369 0.26599 0.0
C574 C 0.20213 0.53651 0.1578 0.0
C575 C 0.2313 0.53547 0.08991 0.0
C576 C 0.17188 0.53361 0.09688 0.0
C577 C 0.22934 0.5312 0.95964 0.0
C578 C 0.1994 0.5287 0.89837 0.0
C579 C 0.1396 0.52843 0.9046 0.0
C580 C 0.11051 0.52904 0.97455 0.0
C581 C 0.17024 0.5302 0.96551 0.0
C582 C 0.11329 0.53169 0.10561 0.0
C583 C 0.14314 0.53439 0.16525 0.0
H584 H 1.00822 0.83536 0.37726 0.0
H585 H 1.01631 0.78978 0.73612 0.0
H586 H 1.01367 0.84229 0.84007 0.0
H587 H 1.01128 0.90256 0.82869 0.0
H588 H 0.99848 0.94664 0.46705 0.0
H589 H 1.00101 0.89455 0.36699 0.0
C590 C 1.00858 0.83693 0.47829 0.0
C591 C 1.01205 0.80843 0.54871 0.0
C592 C 1.00681 0.86746 0.53782 0.0
C593 C 1.01311 0.81116 0.67974 0.0
C594 C 1.01194 0.84134 0.73919 0.0
C595 C 1.00893 0.90082 0.72815 0.0
C596 C 1.00522 0.92935 0.65671 0.0
C597 C 1.00919 0.86993 0.66943 0.0
C598 C 1.0018 0.9258 0.52611 0.0
C599 C 1.00306 0.89568 0.46779 0.0
H600 H 0.7036 0.045 0.36921 0.0
H601 H 0.75376 0.03227 0.71576 0.0
H602 H 0.70237 0.02729 0.82817 0.0
H603 H 0.6419 0.02823 0.8294 0.0
H604 H 0.59294 0.03686 0.47681 0.0
H605 H 0.64398 0.04217 0.36799 0.0
C606 C 0.70325 0.04034 0.46886 0.0
C607 C 0.7328 0.03833 0.53324 0.0
C608 C 0.67335 0.0374 0.53313 0.0
C609 C 0.73161 0.03315 0.66322 0.0
C610 C 0.70206 0.03067 0.7278 0.0
C611 C 0.64235 0.03127 0.72886 0.0
C612 C 0.61281 0.0327 0.66285 0.0
C613 C 0.67254 0.03306 0.66431 0.0
C614 C 0.61465 0.03615 0.53177 0.0
C615 C 0.64413 0.03898 0.46851 0.0
H616 H 0.53267 0.74367 0.68248 0.0
H617 H 0.50798 0.72301 0.30156 0.0
H618 H 0.4977 0.66661 0.35742 0.0
H619 H 0.50156 0.6215 0.51049 0.0
H620 H 0.52954 0.64212 0.88945 0.0
H621 H 0.53346 0.69923 0.83855 0.0
C622 C 0.52456 0.72683 0.6123 0.0
C623 C 0.52096 0.73771 0.48779 0.0
C624 C 0.52015 0.69395 0.64435 0.0
C625 C 0.5107 0.71547 0.3978 0.0
C626 C 0.5053 0.68304 0.42966 0.0
C627 C 0.50835 0.63845 0.58237 0.0
C628 C 0.51543 0.62696 0.70424 0.0
C629 C 0.51084 0.67169 0.5519 0.0
C630 C 0.52393 0.64977 0.79529 0.0
C631 C 0.52621 0.68266 0.76603 0.0
H632 H 0.79479 0.51189 0.65852 0.0
H633 H 0.82434 0.53046 0.28012 0.0
H634 H 0.88054 0.53493 0.3483 0.0
H635 H 0.92203 0.53197 0.51614 0.0
H636 H 0.89226 0.50974 0.89289 0.0
H637 H 0.83627 0.50794 0.82542 0.0
C638 C 0.81354 0.51721 0.59123 0.0
C639 C 0.80503 0.52114 0.4639 0.0
C640 C 0.84613 0.51877 0.63117 0.0
C641 C 0.82987 0.52782 0.37836 0.0
C642 C 0.86215 0.53007 0.4176 0.0
C643 C 0.90338 0.52679 0.58403 0.0
C644 C 0.91205 0.52108 0.71074 0.0
C645 C 0.87074 0.52535 0.54381 0.0
C646 C 0.88697 0.51426 0.79544 0.0
C647 C 0.85466 0.51327 0.75665 0.0
loop_
_geom_bond_atom_site_label_1
_geom_bond_atom_site_label_2
_geom_bond_distance
_geom_bond_site_symmetry_2
_ccdc_geom_bond_type
C0 N1 1.317 . S
C0 N2 1.348 . S
C0 C3 1.485 . S
N1 C0 1.317 . S
N1 N5 1.370 . S
N2 C0 1.348 . S
N2 C4 1.346 . S
C3 C0 1.485 . S
C3 H7 0.960 . S
C3 H8 0.961 . S
C3 H9 0.960 . S
C4 N2 1.346 . S
C4 N5 1.307 . S
C4 C6 1.486 . S
N5 N1 1.370 . S
N5 C4 1.307 . S
C6 C4 1.486 . S
C6 H10 0.960 . S
C6 H11 0.960 . S
C6 H12 0.959 . S
H7 C3 0.960 . S
H8 C3 0.961 . S
H9 C3 0.960 . S
H10 C6 0.960 . S
H11 C6 0.960 . S
H12 C6 0.959 . S
C13 N14 1.317 . S
C13 N15 1.348 . S
C13 C16 1.485 . S
N14 C13 1.317 . S
N14 N18 1.371 . S
N15 C13 1.348 . S
N15 C17 1.346 1_655 S
C16 C13 1.485 . S
C16 H20 0.960 1_655 S
C16 H21 0.961 . S
C16 H22 0.960 . S
C17 N15 1.346 1_455 S
C17 N18 1.307 1_455 S
C17 C19 1.486 . S
N18 N14 1.371 . S
N18 C17 1.307 1_655 S
C19 C17 1.486 . S
C19 H23 0.960 1_455 S
C19 H24 0.960 . S
C19 H25 0.959 . S
H20 C16 0.960 1_455 S
H21 C16 0.961 . S
H22 C16 0.960 . S
H23 C19 0.960 1_655 S
H24 C19 0.960 . S
H25 C19 0.959 . S
C26 N27 1.317 . S
C26 N28 1.348 . S
C26 C29 1.485 . S
N27 C26 1.317 . S
N27 N31 1.371 . S
N28 C26 1.348 . S
N28 C30 1.346 1_565 S
C29 C26 1.485 . S
C29 H33 0.960 1_565 S
C29 H34 0.961 . S
C29 H35 0.960 . S
C30 N28 1.346 1_545 S
C30 N31 1.307 1_545 S
C30 C32 1.486 . S
N31 N27 1.371 . S
N31 C30 1.307 1_565 S
C32 C30 1.486 . S
C32 H36 0.960 1_545 S
C32 H37 0.960 . S
C32 H38 0.959 . S
H33 C29 0.960 1_545 S
H34 C29 0.961 . S
H35 C29 0.960 . S
H36 C32 0.960 1_565 S
H37 C32 0.960 . S
H38 C32 0.959 . S
C39 N40 1.317 . S
C39 N41 1.348 . S
C39 C42 1.485 . S
N40 C39 1.317 . S
N40 N44 1.370 . S
N41 C39 1.348 . S
N41 C43 1.346 . S
C42 C39 1.485 . S
C42 H46 0.960 . S
C42 H47 0.961 . S
C42 H48 0.960 . S
C43 N41 1.346 . S
C43 N44 1.307 . S
C43 C45 1.486 . S
N44 N40 1.370 . S
N44 C43 1.307 . S
C45 C43 1.486 . S
C45 H49 0.960 . S
C45 H50 0.960 . S
C45 H51 0.959 . S
H46 C42 0.960 . S
H47 C42 0.961 . S
H48 C42 0.960 . S
H49 C45 0.960 . S
H50 C45 0.960 . S
H51 C45 0.959 . S
C52 N53 1.317 . S
C52 N54 1.348 1_556 S
C52 C55 1.485 . S
N53 C52 1.317 . S
N53 N57 1.370 1_556 S
N54 C52 1.348 1_554 S
N54 C56 1.346 . S
C55 C52 1.485 . S
C55 H59 0.960 . S
C55 H60 0.961 . S
C55 H61 0.960 . S
C56 N54 1.346 . S
C56 N57 1.307 . S
C56 C58 1.486 . S
N57 N53 1.370 1_554 S
N57 C56 1.307 . S
C58 C56 1.486 . S
C58 H62 0.960 . S
C58 H63 0.960 . S
C58 H64 0.959 . S
H59 C55 0.960 . S
H60 C55 0.961 . S
H61 C55 0.960 . S
H62 C58 0.960 . S
H63 C58 0.960 . S
H64 C58 0.959 . S
C65 N66 1.317 . S
C65 N67 1.350 1_556 S
C65 C68 1.485 . S
N66 C65 1.317 . S
N66 N70 1.371 1_556 S
N67 C65 1.350 1_554 S
N67 C69 1.345 1_655 S
C68 C65 1.485 . S
C68 H72 0.960 1_655 S
C68 H73 0.961 . S
C68 H74 0.960 . S
C69 N67 1.345 1_455 S
C69 N70 1.307 1_455 S
C69 C71 1.486 . S
N70 N66 1.371 1_554 S
N70 C69 1.307 1_655 S
C71 C69 1.486 . S
C71 H75 0.960 1_455 S
C71 H76 0.960 . S
C71 H77 0.959 . S
H72 C68 0.960 1_455 S
H73 C68 0.961 . S
H74 C68 0.960 . S
H75 C71 0.960 1_655 S
H76 C71 0.960 . S
H77 C71 0.959 . S
C78 N79 1.317 . S
C78 N80 1.350 1_556 S
C78 C81 1.485 . S
N79 C78 1.317 . S
N79 N83 1.371 1_556 S
N80 C78 1.350 1_554 S
N80 C82 1.345 1_565 S
C81 C78 1.485 . S
C81 H85 0.960 1_565 S
C81 H86 0.961 . S
C81 H87 0.960 . S
C82 N80 1.345 1_545 S
C82 N83 1.307 1_545 S
C82 C84 1.487 . S
N83 N79 1.371 1_554 S
N83 C82 1.307 1_565 S
C84 C82 1.487 . S
C84 H88 0.960 1_545 S
C84 H89 0.960 . S
C84 H90 0.959 . S
H85 C81 0.960 1_545 S
H86 C81 0.961 . S
H87 C81 0.960 . S
H88 C84 0.960 1_565 S
H89 C84 0.960 . S
H90 C84 0.959 . S
C91 N92 1.317 . S
C91 N93 1.348 1_556 S
C91 C94 1.485 . S
N92 C91 1.317 . S
N92 N96 1.370 1_556 S
N93 C91 1.348 1_554 S
N93 C95 1.346 . S
C94 C91 1.485 . S
C94 H98 0.960 . S
C94 H99 0.961 . S
C94 H100 0.960 . S
C95 N93 1.346 . S
C95 N96 1.307 . S
C95 C97 1.486 . S
N96 N92 1.370 1_554 S
N96 C95 1.307 . S
C97 C95 1.486 . S
C97 H101 0.960 . S
C97 H102 0.960 . S
C97 H103 0.959 . S
H98 C94 0.960 . S
H99 C94 0.961 . S
H100 C94 0.960 . S
H101 C97 0.960 . S
H102 C97 0.960 . S
H103 C97 0.959 . S
Tb104 C106 2.809 1_556 S
Tb104 O124 2.484 1_556 S
Tb104 O125 2.440 1_556 S
Tb104 O126 2.658 1_565 S
Tb104 O127 2.409 . S
Tb104 O128 2.378 . S
Tb104 O132 2.325 1_455 S
Tb104 O135 2.341 1_565 S
Tb105 C115 2.809 . S
Tb105 O126 2.325 1_655 S
Tb105 O129 2.341 1_545 S
Tb105 O130 2.484 . S
Tb105 O131 2.440 . S
Tb105 O132 2.658 1_545 S
Tb105 O133 2.409 . S
Tb105 O134 2.378 . S
C106 Tb104 2.809 1_554 S
C106 C107 1.514 . S
C106 O124 1.248 . S
C106 O125 1.266 . S
C107 C106 1.514 . S
C107 C108 1.359 . S
C107 C112 1.348 . S
C108 C107 1.359 . S
C108 C109 1.380 . S
C108 H136 0.929 1_455 S
C109 C108 1.380 . S
C109 C110 1.347 . S
C109 H137 0.931 1_455 S
C110 C109 1.347 . S
C110 C111 1.369 . S
C111 C110 1.369 . S
C111 C112 1.408 . S
C111 H138 0.930 . S
C112 C107 1.348 . S
C112 C111 1.408 . S
C112 H139 0.930 . S
C113 O126 1.281 1_565 S
C113 O127 1.254 . S
C114 O128 1.236 1_655 S
C114 O129 1.266 . S
C115 Tb105 2.809 . S
C115 C116 1.514 . S
C115 O130 1.248 . S
C115 O131 1.266 . S
C116 C115 1.514 . S
C116 C117 1.359 . S
C116 C121 1.348 . S
C117 C116 1.359 . S
C117 C118 1.380 . S
C117 H140 0.929 1_655 S
C118 C117 1.380 . S
C118 C119 1.347 . S
C118 H141 0.931 1_655 S
C119 C118 1.347 . S
C119 C120 1.369 . S
C120 C119 1.369 . S
C120 C121 1.408 . S
C120 H142 0.930 . S
C121 C116 1.348 . S
C121 C120 1.408 . S
C121 H143 0.930 . S
C122 O132 1.281 1_545 S
C122 O133 1.254 . S
C123 O134 1.236 1_455 S
C123 O135 1.266 . S
O124 Tb104 2.484 1_554 S
O124 C106 1.248 . S
O125 Tb104 2.440 1_554 S
O125 C106 1.266 . S
O126 Tb104 2.658 1_545 S
O126 Tb105 2.325 1_455 S
O126 C113 1.281 1_545 S
O127 Tb104 2.409 . S
O127 C113 1.254 . S
O128 Tb104 2.378 . S
O128 C114 1.236 1_455 S
O129 Tb105 2.341 1_565 S
O129 C114 1.266 . S
O130 Tb105 2.484 . S
O130 C115 1.248 . S
O131 Tb105 2.440 . S
O131 C115 1.266 . S
O132 Tb104 2.325 1_655 S
O132 Tb105 2.658 1_565 S
O132 C122 1.281 1_565 S
O133 Tb105 2.409 . S
O133 C122 1.254 . S
O134 Tb105 2.378 . S
O134 C123 1.236 1_655 S
O135 Tb104 2.341 1_545 S
O135 C123 1.266 . S
H136 C108 0.929 1_655 S
H137 C109 0.931 1_655 S
H138 C111 0.930 . S
H139 C112 0.930 . S
H140 C117 0.929 1_455 S
H141 C118 0.931 1_455 S
H142 C120 0.930 . S
H143 C121 0.930 . S
Tb144 C146 2.809 1_556 S
Tb144 O164 2.484 1_556 S
Tb144 O165 2.440 1_556 S
Tb144 O166 2.658 . S
Tb144 O167 2.409 . S
Tb144 O168 2.378 . S
Tb144 O172 2.325 1_545 S
Tb144 O175 2.341 . S
Tb145 C155 2.809 . S
Tb145 O166 2.325 1_565 S
Tb145 O169 2.341 . S
Tb145 O170 2.484 . S
Tb145 O171 2.440 . S
Tb145 O172 2.658 . S
Tb145 O173 2.409 . S
Tb145 O174 2.378 . S
C146 Tb144 2.809 1_554 S
C146 C147 1.514 . S
C146 O164 1.248 . S
C146 O165 1.266 . S
C147 C146 1.514 . S
C147 C148 1.359 . S
C147 C152 1.348 . S
C148 C147 1.359 . S
C148 C149 1.380 . S
C148 H176 0.929 1_545 S
C149 C148 1.380 . S
C149 C150 1.347 . S
C149 H177 0.931 1_545 S
C150 C149 1.347 . S
C150 C151 1.369 . S
C151 C150 1.369 . S
C151 C152 1.408 . S
C151 H178 0.930 . S
C152 C147 1.348 . S
C152 C151 1.408 . S
C152 H179 0.930 . S
C153 O166 1.281 . S
C153 O167 1.254 . S
C154 O168 1.236 1_565 S
C154 O169 1.266 . S
C155 Tb145 2.809 . S
C155 C156 1.514 . S
C155 O170 1.248 . S
C155 O171 1.266 . S
C156 C155 1.514 . S
C156 C157 1.359 . S
C156 C161 1.348 . S
C157 C156 1.359 . S
C157 C158 1.380 . S
C157 H180 0.929 1_565 S
C158 C157 1.380 . S
C158 C159 1.347 . S
C158 H181 0.931 1_565 S
C159 C158 1.347 . S
C159 C160 1.369 . S
C160 C159 1.369 . S
C160 C161 1.408 . S
C160 H182 0.930 . S
C161 C156 1.348 . S
C161 C160 1.408 . S
C161 H183 0.930 . S
C162 O172 1.281 . S
C162 O173 1.254 . S
C163 O174 1.236 1_545 S
C163 O175 1.266 . S
O164 Tb144 2.484 1_554 S
O164 C146 1.248 . S
O165 Tb144 2.440 1_554 S
O165 C146 1.266 . S
O166 Tb144 2.658 . S
O166 Tb145 2.325 1_545 S
O166 C153 1.281 . S
O167 Tb144 2.409 . S
O167 C153 1.254 . S
O168 Tb144 2.378 . S
O168 C154 1.236 1_545 S
O169 Tb145 2.341 . S
O169 C154 1.266 . S
O170 Tb145 2.484 . S
O170 C155 1.248 . S
O171 Tb145 2.440 . S
O171 C155 1.266 . S
O172 Tb144 2.325 1_565 S
O172 Tb145 2.658 . S
O172 C162 1.281 . S
O173 Tb145 2.409 . S
O173 C162 1.254 . S
O174 Tb145 2.378 . S
O174 C163 1.236 1_565 S
O175 Tb144 2.341 . S
O175 C163 1.266 . S
H176 C148 0.929 1_565 S
H177 C149 0.931 1_565 S
H178 C151 0.930 . S
H179 C152 0.930 . S
H180 C157 0.929 1_545 S
H181 C158 0.931 1_545 S
H182 C160 0.930 . S
H183 C161 0.930 . S
Tb184 C186 2.809 1_556 S
Tb184 O204 2.484 1_556 S
Tb184 O205 2.440 1_556 S
Tb184 O206 2.658 . S
Tb184 O207 2.409 . S
Tb184 O208 2.378 . S
Tb184 O212 2.325 . S
Tb184 O215 2.341 . S
Tb185 C195 2.809 . S
Tb185 O206 2.325 . S
Tb185 O209 2.341 . S
Tb185 O210 2.484 . S
Tb185 O211 2.440 . S
Tb185 O212 2.658 . S
Tb185 O213 2.409 . S
Tb185 O214 2.378 . S
C186 Tb184 2.809 1_554 S
C186 C187 1.514 . S
C186 O204 1.248 . S
C186 O205 1.266 . S
C187 C186 1.514 . S
C187 C188 1.359 . S
C187 C192 1.348 . S
C188 C187 1.359 . S
C188 C189 1.380 . S
C188 H216 0.929 . S
C189 C188 1.380 . S
C189 C190 1.347 . S
C189 H217 0.931 . S
C190 C189 1.347 . S
C190 C191 1.369 . S
C191 C190 1.369 . S
C191 C192 1.408 . S
C191 H218 0.930 . S
C192 C187 1.348 . S
C192 C191 1.408 . S
C192 H219 0.930 . S
C193 O206 1.281 . S
C193 O207 1.254 . S
C194 O208 1.236 . S
C194 O209 1.266 . S
C195 Tb185 2.809 . S
C195 C196 1.514 . S
C195 O210 1.248 . S
C195 O211 1.266 . S
C196 C195 1.514 . S
C196 C197 1.359 . S
C196 C201 1.348 . S
C197 C196 1.359 . S
C197 C198 1.380 . S
C197 H220 0.929 . S
C198 C197 1.380 . S
C198 C199 1.347 . S
C198 H221 0.931 . S
C199 C198 1.347 . S
C199 C200 1.369 . S
C200 C199 1.369 . S
C200 C201 1.408 . S
C200 H222 0.930 . S
C201 C196 1.348 . S
C201 C200 1.408 . S
C201 H223 0.930 . S
C202 O212 1.281 . S
C202 O213 1.254 . S
C203 O214 1.236 . S
C203 O215 1.266 . S
O204 Tb184 2.484 1_554 S
O204 C186 1.248 . S
O205 Tb184 2.440 1_554 S
O205 C186 1.266 . S
O206 Tb184 2.658 . S
O206 Tb185 2.325 . S
O206 C193 1.281 . S
O207 Tb184 2.409 . S
O207 C193 1.254 . S
O208 Tb184 2.378 . S
O208 C194 1.236 . S
O209 Tb185 2.341 . S
O209 C194 1.266 . S
O210 Tb185 2.484 . S
O210 C195 1.248 . S
O211 Tb185 2.440 . S
O211 C195 1.266 . S
O212 Tb184 2.325 . S
O212 Tb185 2.658 . S
O212 C202 1.281 . S
O213 Tb185 2.409 . S
O213 C202 1.254 . S
O214 Tb185 2.378 . S
O214 C203 1.236 . S
O215 Tb184 2.341 . S
O215 C203 1.266 . S
H216 C188 0.929 . S
H217 C189 0.931 . S
H218 C191 0.930 . S
H219 C192 0.930 . S
H220 C197 0.929 . S
H221 C198 0.931 . S
H222 C200 0.930 . S
H223 C201 0.930 . S
Tb224 C226 2.809 1_556 S
Tb224 O244 2.484 1_556 S
Tb224 O245 2.440 1_556 S
Tb224 O246 2.658 1_655 S
Tb224 O247 2.409 . S
Tb224 O248 2.378 . S
Tb224 O252 2.325 . S
Tb224 O255 2.341 1_655 S
Tb225 C235 2.809 . S
Tb225 O246 2.325 . S
Tb225 O249 2.341 1_455 S
Tb225 O250 2.484 . S
Tb225 O251 2.440 . S
Tb225 O252 2.658 1_455 S
Tb225 O253 2.409 . S
Tb225 O254 2.378 . S
C226 Tb224 2.809 1_554 S
C226 C227 1.514 . S
C226 O244 1.248 . S
C226 O245 1.266 . S
C227 C226 1.514 . S
C227 C228 1.359 . S
C227 C232 1.348 . S
C228 C227 1.359 . S
C228 C229 1.380 . S
C228 H256 0.929 . S
C229 C228 1.380 . S
C229 C230 1.347 . S
C229 H257 0.931 . S
C230 C229 1.347 . S
C230 C231 1.369 . S
C231 C230 1.369 . S
C231 C232 1.408 . S
C231 H258 0.930 . S
C232 C227 1.348 . S
C232 C231 1.408 . S
C232 H259 0.930 . S
C233 O246 1.275 1_655 S
C233 O247 1.261 . S
C234 O248 1.236 . S
C234 O249 1.266 . S
C235 Tb225 2.809 . S
C235 C236 1.514 . S
C235 O250 1.248 . S
C235 O251 1.266 . S
C236 C235 1.514 . S
C236 C237 1.359 . S
C236 C241 1.348 . S
C237 C236 1.359 . S
C237 C238 1.380 . S
C237 H260 0.929 . S
C238 C237 1.380 . S
C238 C239 1.347 . S
C238 H261 0.931 . S
C239 C238 1.347 . S
C239 C240 1.369 . S
C240 C239 1.369 . S
C240 C241 1.408 . S
C240 H262 0.930 . S
C241 C236 1.348 . S
C241 C240 1.408 . S
C241 H263 0.930 . S
C242 O252 1.272 1_455 S
C242 O253 1.265 . S
C243 O254 1.236 . S
C243 O255 1.266 . S
O244 Tb224 2.484 1_554 S
O244 C226 1.248 . S
O245 Tb224 2.440 1_554 S
O245 C226 1.266 . S
O246 Tb224 2.658 1_455 S
O246 Tb225 2.325 . S
O246 C233 1.275 1_455 S
O247 Tb224 2.409 . S
O247 C233 1.261 . S
O248 Tb224 2.378 . S
O248 C234 1.236 . S
O249 Tb225 2.341 1_655 S
O249 C234 1.266 . S
O250 Tb225 2.484 . S
O250 C235 1.248 . S
O251 Tb225 2.440 . S
O251 C235 1.266 . S
O252 Tb224 2.325 . S
O252 Tb225 2.658 1_655 S
O252 C242 1.272 1_655 S
O253 Tb225 2.409 . S
O253 C242 1.265 . S
O254 Tb225 2.378 . S
O254 C243 1.236 . S
O255 Tb224 2.341 1_455 S
O255 C243 1.266 . S
H256 C228 0.929 . S
H257 C229 0.931 . S
H258 C231 0.930 . S
H259 C232 0.930 . S
H260 C237 0.929 . S
H261 C238 0.931 . S
H262 C240 0.930 . S
H263 C241 0.930 . S
H264 C270 0.930 . S
H265 C273 0.930 . S
H266 C274 0.930 . S
H267 C275 0.930 . S
H268 C278 0.930 . S
H269 C279 0.930 . S
C270 H264 0.930 . S
C270 C271 1.355 1_565 S
C270 C272 1.415 . S
C271 C270 1.355 1_545 S
C271 C273 1.419 . S
C272 C270 1.415 . S
C272 C277 1.425 1_565 S
C272 C279 1.409 . S
C273 H265 0.930 . S
C273 C271 1.419 . S
C273 C274 1.362 . S
C274 H266 0.930 . S
C274 C273 1.362 . S
C274 C277 1.409 . S
C275 H267 0.930 . S
C275 C276 1.355 1_545 S
C275 C277 1.415 . S
C276 C275 1.355 1_565 S
C276 C278 1.419 . S
C277 C272 1.425 1_545 S
C277 C274 1.409 . S
C277 C275 1.415 . S
C278 H268 0.930 . S
C278 C276 1.419 . S
C278 C279 1.362 . S
C279 H269 0.930 . S
C279 C272 1.409 . S
C279 C278 1.362 . S
H280 C286 0.930 . S
H281 C289 0.930 . S
H282 C290 0.930 . S
H283 C291 0.930 . S
H284 C294 0.930 . S
H285 C295 0.930 . S
C286 H280 0.930 . S
C286 C287 1.355 . S
C286 C288 1.415 . S
C287 C286 1.355 . S
C287 C289 1.419 . S
C288 C286 1.415 . S
C288 C293 1.425 . S
C288 C295 1.409 . S
C289 H281 0.930 . S
C289 C287 1.419 . S
C289 C290 1.362 . S
C290 H282 0.930 . S
C290 C289 1.362 . S
C290 C293 1.409 . S
C291 H283 0.930 . S
C291 C292 1.355 . S
C291 C293 1.415 . S
C292 C291 1.355 . S
C292 C294 1.419 . S
C293 C288 1.425 . S
C293 C290 1.409 . S
C293 C291 1.415 . S
C294 H284 0.930 . S
C294 C292 1.419 . S
C294 C295 1.362 . S
C295 H285 0.930 . S
C295 C288 1.409 . S
C295 C294 1.362 . S
H296 C302 0.930 . S
H297 C305 0.930 . S
H298 C306 0.930 . S
H299 C307 0.930 . S
H300 C310 0.930 . S
H301 C311 0.930 . S
C302 H296 0.930 . S
C302 C303 1.355 . S
C302 C304 1.415 . S
C303 C302 1.355 . S
C303 C305 1.419 . S
C304 C302 1.415 . S
C304 C309 1.425 . S
C304 C311 1.409 . S
C305 H297 0.930 . S
C305 C303 1.419 . S
C305 C306 1.362 . S
C306 H298 0.930 . S
C306 C305 1.362 . S
C306 C309 1.409 . S
C307 H299 0.930 . S
C307 C308 1.355 . S
C307 C309 1.415 . S
C308 C307 1.355 . S
C308 C310 1.419 . S
C309 C304 1.425 . S
C309 C306 1.409 . S
C309 C307 1.415 . S
C310 H300 0.930 . S
C310 C308 1.419 . S
C310 C311 1.362 . S
C311 H301 0.930 . S
C311 C304 1.409 . S
C311 C310 1.362 . S
H312 C318 0.930 . S
H313 C321 0.930 . S
H314 C322 0.930 . S
H315 C323 0.930 . S
H316 C326 0.931 . S
H317 C327 0.930 . S
C318 H312 0.930 . S
C318 C319 1.356 . S
C318 C320 1.414 . S
C319 C318 1.356 . S
C319 C321 1.419 . S
C320 C318 1.414 . S
C320 C325 1.425 . S
C320 C327 1.409 1_455 S
C321 H313 0.930 . S
C321 C319 1.419 . S
C321 C322 1.362 . S
C322 H314 0.930 . S
C322 C321 1.362 . S
C322 C325 1.409 . S
C323 H315 0.930 . S
C323 C324 1.355 1_455 S
C323 C325 1.415 . S
C324 C323 1.355 1_655 S
C324 C326 1.419 . S
C325 C320 1.425 . S
C325 C322 1.409 . S
C325 C323 1.415 . S
C326 H316 0.931 . S
C326 C324 1.419 . S
C326 C327 1.363 . S
C327 H317 0.930 . S
C327 C320 1.409 1_655 S
C327 C326 1.363 . S
H328 C334 0.930 . S
H329 C337 0.930 . S
H330 C338 0.930 . S
H331 C339 0.930 . S
H332 C342 0.930 . S
H333 C343 0.930 . S
C334 H328 0.930 . S
C334 C335 1.355 1_565 S
C334 C336 1.415 . S
C335 C334 1.355 1_545 S
C335 C337 1.419 . S
C336 C334 1.415 . S
C336 C341 1.425 1_565 S
C336 C343 1.409 . S
C337 H329 0.930 . S
C337 C335 1.419 . S
C337 C338 1.362 . S
C338 H330 0.930 . S
C338 C337 1.362 . S
C338 C341 1.409 . S
C339 H331 0.930 . S
C339 C340 1.355 1_545 S
C339 C341 1.415 . S
C340 C339 1.355 1_565 S
C340 C342 1.419 . S
C341 C336 1.425 1_545 S
C341 C338 1.409 . S
C341 C339 1.415 . S
C342 H332 0.930 . S
C342 C340 1.419 . S
C342 C343 1.362 . S
C343 H333 0.930 . S
C343 C336 1.409 . S
C343 C342 1.362 . S
H344 C350 0.930 . S
H345 C353 0.930 . S
H346 C354 0.930 . S
H347 C355 0.930 . S
H348 C358 0.930 1_556 S
H349 C359 0.930 . S
C350 H344 0.930 . S
C350 C351 1.355 . S
C350 C352 1.415 . S
C351 C350 1.355 . S
C351 C353 1.419 . S
C352 C350 1.415 . S
C352 C357 1.425 . S
C352 C359 1.409 . S
C353 H345 0.930 . S
C353 C351 1.419 . S
C353 C354 1.362 . S
C354 H346 0.930 . S
C354 C353 1.362 . S
C354 C357 1.409 . S
C355 H347 0.930 . S
C355 C356 1.355 . S
C355 C357 1.415 . S
C356 C355 1.355 . S
C356 C358 1.419 . S
C357 C352 1.425 . S
C357 C354 1.409 . S
C357 C355 1.415 . S
C358 H348 0.930 1_554 S
C358 C356 1.419 . S
C358 C359 1.362 . S
C359 H349 0.930 . S
C359 C352 1.409 . S
C359 C358 1.362 . S
H360 C366 0.930 . S
H361 C369 0.930 . S
H362 C370 0.930 . S
H363 C371 0.930 . S
H364 C374 0.930 . S
H365 C375 0.930 . S
C366 H360 0.930 . S
C366 C367 1.355 . S
C366 C368 1.415 . S
C367 C366 1.355 . S
C367 C369 1.419 . S
C368 C366 1.415 . S
C368 C373 1.425 . S
C368 C375 1.409 . S
C369 H361 0.930 . S
C369 C367 1.419 . S
C369 C370 1.362 . S
C370 H362 0.930 . S
C370 C369 1.362 . S
C370 C373 1.409 . S
C371 H363 0.930 . S
C371 C372 1.355 . S
C371 C373 1.415 . S
C372 C371 1.355 . S
C372 C374 1.419 . S
C373 C368 1.425 . S
C373 C370 1.409 . S
C373 C371 1.415 . S
C374 H364 0.930 . S
C374 C372 1.419 . S
C374 C375 1.362 . S
C375 H365 0.930 . S
C375 C368 1.409 . S
C375 C374 1.362 . S
H376 C382 0.930 . S
H377 C385 0.930 . S
H378 C386 0.930 . S
H379 C387 0.930 1_556 S
H380 C390 0.929 . S
H381 C391 0.931 . S
C382 H376 0.930 . S
C382 C383 1.356 . S
C382 C384 1.415 . S
C383 C382 1.356 . S
C383 C385 1.418 1_455 S
C384 C382 1.415 . S
C384 C389 1.425 1_455 S
C384 C391 1.409 . S
C385 H377 0.930 . S
C385 C383 1.418 1_655 S
C385 C386 1.362 . S
C386 H378 0.930 . S
C386 C385 1.362 . S
C386 C389 1.409 . S
C387 H379 0.930 1_554 S
C387 C388 1.355 . S
C387 C389 1.415 . S
C388 C387 1.355 . S
C388 C390 1.419 1_655 S
C389 C384 1.425 1_655 S
C389 C386 1.409 . S
C389 C387 1.415 . S
C390 H380 0.929 . S
C390 C388 1.419 1_455 S
C390 C391 1.362 . S
C391 H381 0.931 . S
C391 C384 1.409 . S
C391 C390 1.362 . S
H392 C398 0.930 . S
H393 C401 0.930 1_556 S
H394 C402 0.930 . S
H395 C403 0.930 . S
H396 C406 0.930 . S
H397 C407 0.930 . S
C398 H392 0.930 . S
C398 C399 1.355 1_655 S
C398 C400 1.415 . S
C399 C398 1.355 1_455 S
C399 C401 1.419 . S
C400 C398 1.415 . S
C400 C405 1.425 . S
C400 C407 1.409 . S
C401 H393 0.930 1_554 S
C401 C399 1.419 . S
C401 C402 1.362 . S
C402 H394 0.930 . S
C402 C401 1.362 . S
C402 C405 1.409 1_455 S
C403 H395 0.930 . S
C403 C404 1.355 . S
C403 C405 1.415 . S
C404 C403 1.355 . S
C404 C406 1.419 . S
C405 C400 1.425 . S
C405 C402 1.409 1_655 S
C405 C403 1.415 . S
C406 H396 0.930 . S
C406 C404 1.419 . S
C406 C407 1.362 . S
C407 H397 0.930 . S
C407 C400 1.409 . S
C407 C406 1.362 . S
H408 C414 0.930 . S
H409 C417 0.930 . S
H410 C418 0.930 . S
H411 C419 0.930 . S
H412 C422 0.930 . S
H413 C423 0.930 . S
C414 H408 0.930 . S
C414 C415 1.355 1_565 S
C414 C416 1.415 . S
C415 C414 1.355 1_545 S
C415 C417 1.419 . S
C416 C414 1.415 . S
C416 C421 1.425 . S
C416 C423 1.409 . S
C417 H409 0.930 . S
C417 C415 1.419 . S
C417 C418 1.362 . S
C418 H410 0.930 . S
C418 C417 1.362 . S
C418 C421 1.409 1_545 S
C419 H411 0.930 . S
C419 C420 1.355 . S
C419 C421 1.415 . S
C420 C419 1.355 . S
C420 C422 1.419 . S
C421 C416 1.425 . S
C421 C418 1.409 1_565 S
C421 C419 1.415 . S
C422 H412 0.930 . S
C422 C420 1.419 . S
C422 C423 1.362 . S
C423 H413 0.930 . S
C423 C416 1.409 . S
C423 C422 1.362 . S
H424 C430 0.930 . S
H425 C433 0.930 . S
H426 C434 0.930 . S
H427 C435 0.930 . S
H428 C438 0.930 . S
H429 C439 0.930 . S
C430 H424 0.930 . S
C430 C431 1.355 . S
C430 C432 1.415 . S
C431 C430 1.355 . S
C431 C433 1.419 . S
C432 C430 1.415 . S
C432 C437 1.425 . S
C432 C439 1.409 . S
C433 H425 0.930 . S
C433 C431 1.419 . S
C433 C434 1.362 . S
C434 H426 0.930 . S
C434 C433 1.362 . S
C434 C437 1.409 . S
C435 H427 0.930 . S
C435 C436 1.355 . S
C435 C437 1.415 . S
C436 C435 1.355 . S
C436 C438 1.419 . S
C437 C432 1.425 . S
C437 C434 1.409 . S
C437 C435 1.415 . S
C438 H428 0.930 . S
C438 C436 1.419 . S
C438 C439 1.362 . S
C439 H429 0.930 . S
C439 C432 1.409 . S
C439 C438 1.362 . S
H440 C446 0.930 . S
H441 C449 0.930 1_556 S
H442 C450 0.930 . S
H443 C451 0.930 . S
H444 C454 0.930 . S
H445 C455 0.930 . S
C446 H440 0.930 . S
C446 C447 1.355 . S
C446 C448 1.415 . S
C447 C446 1.355 . S
C447 C449 1.419 . S
C448 C446 1.415 . S
C448 C453 1.425 . S
C448 C455 1.409 . S
C449 H441 0.930 1_554 S
C449 C447 1.419 . S
C449 C450 1.362 . S
C450 H442 0.930 . S
C450 C449 1.362 . S
C450 C453 1.409 . S
C451 H443 0.930 . S
C451 C452 1.355 . S
C451 C453 1.415 . S
C452 C451 1.355 . S
C452 C454 1.419 . S
C453 C448 1.425 . S
C453 C450 1.409 . S
C453 C451 1.415 . S
C454 H444 0.930 . S
C454 C452 1.419 . S
C454 C455 1.362 . S
C455 H445 0.930 . S
C455 C448 1.409 . S
C455 C454 1.362 . S
H456 C462 0.930 . S
H457 C465 0.930 . S
H458 C466 0.930 . S
H459 C467 0.930 . S
H460 C470 0.930 . S
H461 C471 0.925 1_655 S
C462 H456 0.930 . S
C462 C463 1.365 . S
C462 C464 1.415 1_655 S
C463 C462 1.365 . S
C463 C465 1.391 1_655 S
C464 C462 1.415 1_455 S
C464 C469 1.425 . S
C464 C471 1.411 . S
C465 H457 0.930 . S
C465 C463 1.391 1_455 S
C465 C466 1.362 . S
C466 H458 0.930 . S
C466 C465 1.362 . S
C466 C469 1.409 . S
C467 H459 0.930 . S
C467 C468 1.355 . S
C467 C469 1.415 . S
C468 C467 1.355 . S
C468 C470 1.419 . S
C469 C464 1.425 . S
C469 C466 1.409 . S
C469 C467 1.415 . S
C470 H460 0.930 . S
C470 C468 1.419 . S
C470 C471 1.366 . S
C471 H461 0.925 1_455 S
C471 C464 1.411 . S
C471 C470 1.366 . S
H472 C478 0.930 . S
H473 C481 0.930 . S
H474 C482 0.930 . S
H475 C483 0.930 . S
H476 C486 0.930 . S
H477 C487 0.927 . S
C478 H472 0.930 . S
C478 C479 1.360 . S
C478 C480 1.415 1_565 S
C479 C478 1.360 . S
C479 C481 1.404 1_565 S
C480 C478 1.415 1_545 S
C480 C485 1.425 . S
C480 C487 1.410 1_545 S
C481 H473 0.930 . S
C481 C479 1.404 1_545 S
C481 C482 1.362 . S
C482 H474 0.930 . S
C482 C481 1.362 . S
C482 C485 1.409 . S
C483 H475 0.930 . S
C483 C484 1.355 . S
C483 C485 1.415 . S
C484 C483 1.355 . S
C484 C486 1.419 . S
C485 C480 1.425 . S
C485 C482 1.409 . S
C485 C483 1.415 . S
C486 H476 0.930 . S
C486 C484 1.419 . S
C486 C487 1.364 1_545 S
C487 H477 0.927 . S
C487 C480 1.410 1_565 S
C487 C486 1.364 1_565 S
H488 C494 0.930 . S
H489 C497 0.930 . S
H490 C498 0.930 . S
H491 C499 0.930 . S
H492 C502 0.930 . S
H493 C503 0.930 . S
C494 H488 0.930 . S
C494 C495 1.355 . S
C494 C496 1.415 . S
C495 C494 1.355 . S
C495 C497 1.419 . S
C496 C494 1.415 . S
C496 C501 1.425 . S
C496 C503 1.409 . S
C497 H489 0.930 . S
C497 C495 1.419 . S
C497 C498 1.362 . S
C498 H490 0.930 . S
C498 C497 1.362 . S
C498 C501 1.409 . S
C499 H491 0.930 . S
C499 C500 1.355 . S
C499 C501 1.415 . S
C500 C499 1.355 . S
C500 C502 1.419 . S
C501 C496 1.425 . S
C501 C498 1.409 . S
C501 C499 1.415 . S
C502 H492 0.930 . S
C502 C500 1.419 . S
C502 C503 1.362 . S
C503 H493 0.930 . S
C503 C496 1.409 . S
C503 C502 1.362 . S
H504 C510 0.930 . S
H505 C513 0.930 . S
H506 C514 0.930 . S
H507 C515 0.930 . S
H508 C518 0.930 . S
H509 C519 0.930 . S
C510 H504 0.930 . S
C510 C511 1.355 . S
C510 C512 1.415 . S
C511 C510 1.355 . S
C511 C513 1.419 . S
C512 C510 1.415 . S
C512 C517 1.425 . S
C512 C519 1.409 . S
C513 H505 0.930 . S
C513 C511 1.419 . S
C513 C514 1.362 . S
C514 H506 0.930 . S
C514 C513 1.362 . S
C514 C517 1.409 . S
C515 H507 0.930 . S
C515 C516 1.355 . S
C515 C517 1.415 . S
C516 C515 1.355 . S
C516 C518 1.419 . S
C517 C512 1.425 . S
C517 C514 1.409 . S
C517 C515 1.415 . S
C518 H508 0.930 . S
C518 C516 1.419 . S
C518 C519 1.362 . S
C519 H509 0.930 . S
C519 C512 1.409 . S
C519 C518 1.362 . S
H520 C526 0.930 . S
H521 C529 0.930 . S
H522 C530 0.930 . S
H523 C531 0.930 . S
H524 C534 0.930 . S
H525 C535 0.930 1_554 S
C526 H520 0.930 . S
C526 C527 1.368 . S
C526 C528 1.415 . S
C527 C526 1.368 . S
C527 C529 1.404 1_455 S
C528 C526 1.415 . S
C528 C533 1.425 1_455 S
C528 C535 1.409 . S
C529 H521 0.930 . S
C529 C527 1.404 1_655 S
C529 C530 1.362 . S
C530 H522 0.930 . S
C530 C529 1.362 . S
C530 C533 1.409 . S
C531 H523 0.930 . S
C531 C532 1.355 1_655 S
C531 C533 1.415 . S
C532 C531 1.355 1_455 S
C532 C534 1.419 . S
C533 C528 1.425 1_655 S
C533 C530 1.409 . S
C533 C531 1.415 . S
C534 H524 0.930 . S
C534 C532 1.419 . S
C534 C535 1.362 . S
C535 H525 0.930 1_556 S
C535 C528 1.409 . S
C535 C534 1.362 . S
H536 C542 0.930 1_554 S
H537 C545 0.930 . S
H538 C546 0.930 . S
H539 C547 0.930 . S
H540 C550 0.930 1_554 S
H541 C551 0.930 . S
C542 H536 0.930 1_556 S
C542 C543 1.355 . S
C542 C544 1.415 . S
C543 C542 1.355 . S
C543 C545 1.419 1_545 S
C544 C542 1.415 . S
C544 C549 1.425 1_545 S
C544 C551 1.409 1_556 S
C545 H537 0.930 . S
C545 C543 1.419 1_565 S
C545 C546 1.362 . S
C546 H538 0.930 . S
C546 C545 1.362 . S
C546 C549 1.409 . S
C547 H539 0.930 . S
C547 C548 1.355 1_565 S
C547 C549 1.415 . S
C548 C547 1.355 1_545 S
C548 C550 1.419 . S
C549 C544 1.425 1_565 S
C549 C546 1.409 . S
C549 C547 1.415 . S
C550 H540 0.930 1_556 S
C550 C548 1.419 . S
C550 C551 1.362 1_556 S
C551 H541 0.930 . S
C551 C544 1.409 1_554 S
C551 C550 1.362 1_554 S
H552 C558 0.930 . S
H553 C561 0.930 . S
H554 C562 0.930 . S
H555 C563 0.930 . S
H556 C566 0.930 . S
H557 C567 0.930 . S
C558 H552 0.930 . S
C558 C559 1.355 . S
C558 C560 1.415 . S
C559 C558 1.355 . S
C559 C561 1.419 1_556 S
C560 C558 1.415 . S
C560 C565 1.425 . S
C560 C567 1.409 . S
C561 H553 0.930 . S
C561 C559 1.419 1_554 S
C561 C562 1.362 . S
C562 H554 0.930 . S
C562 C561 1.362 . S
C562 C565 1.409 1_554 S
C563 H555 0.930 . S
C563 C564 1.355 . S
C563 C565 1.415 . S
C564 C563 1.355 . S
C564 C566 1.419 . S
C565 C560 1.425 . S
C565 C562 1.409 1_556 S
C565 C563 1.415 . S
C566 H556 0.930 . S
C566 C564 1.419 . S
C566 C567 1.362 . S
C567 H557 0.930 . S
C567 C560 1.409 . S
C567 C566 1.362 . S
H568 C574 0.930 1_554 S
H569 C577 0.930 . S
H570 C578 0.930 . S
H571 C579 0.930 . S
H572 C582 0.930 . S
H573 C583 0.930 . S
C574 H568 0.930 1_556 S
C574 C575 1.355 . S
C574 C576 1.415 . S
C575 C574 1.355 . S
C575 C577 1.419 . S
C576 C574 1.415 . S
C576 C581 1.425 . S
C576 C583 1.409 1_556 S
C577 H569 0.930 . S
C577 C575 1.419 . S
C577 C578 1.362 . S
C578 H570 0.930 . S
C578 C577 1.362 . S
C578 C581 1.409 . S
C579 H571 0.930 . S
C579 C580 1.355 . S
C579 C581 1.415 . S
C580 C579 1.355 . S
C580 C582 1.419 1_556 S
C581 C576 1.425 . S
C581 C578 1.409 . S
C581 C579 1.415 . S
C582 H572 0.930 . S
C582 C580 1.419 1_554 S
C582 C583 1.362 . S
C583 H573 0.930 . S
C583 C576 1.409 1_554 S
C583 C582 1.362 . S
H584 C590 0.930 . S
H585 C593 0.930 . S
H586 C594 0.930 . S
H587 C595 0.930 . S
H588 C598 0.930 . S
H589 C599 0.930 . S
C590 H584 0.930 . S
C590 C591 1.355 . S
C590 C592 1.415 . S
C591 C590 1.355 . S
C591 C593 1.419 1_655 S
C592 C590 1.415 . S
C592 C597 1.425 . S
C592 C599 1.409 . S
C593 H585 0.930 . S
C593 C591 1.419 1_455 S
C593 C594 1.362 . S
C594 H586 0.930 . S
C594 C593 1.362 . S
C594 C597 1.409 1_455 S
C595 H587 0.930 . S
C595 C596 1.355 . S
C595 C597 1.415 . S
C596 C595 1.355 . S
C596 C598 1.419 . S
C597 C592 1.425 . S
C597 C594 1.409 1_655 S
C597 C595 1.415 . S
C598 H588 0.930 . S
C598 C596 1.419 . S
C598 C599 1.362 . S
C599 H589 0.930 . S
C599 C592 1.409 . S
C599 C598 1.362 . S
H600 C606 0.930 . S
H601 C609 0.930 . S
H602 C610 0.930 . S
H603 C611 0.932 . S
H604 C614 0.930 . S
H605 C615 0.930 . S
C606 H600 0.930 . S
C606 C607 1.359 . S
C606 C608 1.415 . S
C607 C606 1.359 . S
C607 C609 1.415 1_565 S
C608 C606 1.415 . S
C608 C613 1.413 1_565 S
C608 C615 1.409 . S
C609 H601 0.930 . S
C609 C607 1.415 1_545 S
C609 C610 1.362 . S
C610 H602 0.930 . S
C610 C609 1.362 . S
C610 C613 1.422 . S
C611 H603 0.932 . S
C611 C612 1.352 1_545 S
C611 C613 1.415 . S
C612 C611 1.352 1_565 S
C612 C614 1.419 . S
C613 C608 1.413 1_545 S
C613 C610 1.422 . S
C613 C611 1.415 . S
C614 H604 0.930 . S
C614 C612 1.419 . S
C614 C615 1.362 . S
C615 H605 0.930 . S
C615 C608 1.409 . S
C615 C614 1.362 . S
H616 C622 0.930 . S
H617 C625 0.930 . S
H618 C626 0.930 . S
H619 C627 0.930 . S
H620 C630 0.930 . S
H621 C631 0.930 . S
C622 H616 0.930 . S
C622 C623 1.355 . S
C622 C624 1.415 . S
C623 C622 1.355 . S
C623 C625 1.419 . S
C624 C622 1.415 . S
C624 C629 1.425 . S
C624 C631 1.409 . S
C625 H617 0.930 . S
C625 C623 1.419 . S
C625 C626 1.362 . S
C626 H618 0.930 . S
C626 C625 1.362 . S
C626 C629 1.409 . S
C627 H619 0.930 . S
C627 C628 1.355 . S
C627 C629 1.415 . S
C628 C627 1.355 . S
C628 C630 1.419 . S
C629 C624 1.425 . S
C629 C626 1.409 . S
C629 C627 1.415 . S
C630 H620 0.930 . S
C630 C628 1.419 . S
C630 C631 1.362 . S
C631 H621 0.930 . S
C631 C624 1.409 . S
C631 C630 1.362 . S
H632 C638 0.930 . S
H633 C641 0.930 . S
H634 C642 0.930 . S
H635 C643 0.930 . S
H636 C646 0.930 . S
H637 C647 0.930 . S
C638 H632 0.930 . S
C638 C639 1.355 . S
C638 C640 1.415 . S
C639 C638 1.355 . S
C639 C641 1.419 . S
C640 C638 1.415 . S
C640 C645 1.425 . S
C640 C647 1.409 . S
C641 H633 0.930 . S
C641 C639 1.419 . S
C641 C642 1.362 . S
C642 H634 0.930 . S
C642 C641 1.362 . S
C642 C645 1.409 . S
C643 H635 0.930 . S
C643 C644 1.355 . S
C643 C645 1.415 . S
C644 C643 1.355 . S
C644 C646 1.419 . S
C645 C640 1.425 . S
C645 C642 1.409 . S
C645 C643 1.415 . S
C646 H636 0.930 . S
C646 C644 1.419 . S
C646 C647 1.362 . S
C647 H637 0.930 . S
C647 C640 1.409 . S
C647 C646 1.362 . S
C271 N80 1.894 1_545 S
C276 C113 2.023 . S
C292 C153 2.043 . S
C287 N93 1.966 . S
C308 C193 2.060 . S
C303 N54 1.983 . S
C324 C233 2.047 . S
C319 N67 1.900 1_455 S
C340 C122 2.031 1_564 S
C335 N28 1.923 1_545 S
C351 N41 1.968 . S
C356 C162 2.046 1_554 S
C367 N2 1.926 . S
C372 C202 2.058 1_554 S
C383 N15 1.899 1_455 S
C388 C242 2.049 1_654 S
C404 C119 0.647 . S
C399 N70 0.618 1_455 S
C420 C159 0.660 . S
C415 N83 0.615 1_545 S
C436 C199 0.493 . S
C431 N96 0.503 . S
C447 N57 0.532 . S
C452 C239 0.521 . S
C463 N18 0.495 . S
C468 C110 0.526 . S
C484 C150 0.542 . S
C479 N31 0.513 . S
C500 C190 0.511 . S
C495 N44 0.505 . S
C511 N5 0.548 . S
C516 C230 0.606 . S
C527 N66 2.305 1_455 S
C532 C123 2.391 . S
C543 N79 2.262 1_545 S
C548 C163 2.335 . S
C564 C203 2.298 . S
C559 N92 2.188 . S
C580 C243 2.362 . S
C575 N53 2.294 . S
C591 N14 2.308 . S
C596 C114 2.397 . S
C612 C154 2.343 . S
C607 N27 2.252 . S
C628 C194 2.322 . S
C623 N40 2.193 . S
C639 N1 2.239 . S
C644 C234 2.347 . S
