# Generated by pormake.
# Topology anh, (6,3)-cn, num edge types: 1
# Building blocks:
#     Node 0, Type 0, BuildingBlock: PAMTOO_clean_sbu_0, # of connection points: 6
#     Node 1, Type 0, BuildingBlock: PAMTOO_clean_sbu_0, # of connection points: 6
#     Node 2, Type 0, BuildingBlock: PAMTOO_clean_sbu_0, # of connection points: 6
#     Node 3, Type 1, BuildingBlock: BETDAH_clean_linker_0, # of connection points: 3
#     Node 4, Type 1, BuildingBlock: BETDAH_clean_linker_0, # of connection points: 3
#     Node 5, Type 1, BuildingBlock: BETDAH_clean_linker_0, # of connection points: 3
#     Node 6, Type 1, BuildingBlock: BETDAH_clean_linker_0, # of connection points: 3
#     Node 7, Type 1, BuildingBlock: BETDAH_clean_linker_0, # of connection points: 3
#     Node 8, Type 1, BuildingBlock: BETDAH_clean_linker_0, # of connection points: 3
#     Edge 9, Type (0, 1), BuildingBlock: XUDNAN_clean_linker_2, # of connection points: 2
#     Edge 10, Type (0, 1), BuildingBlock: XUDNAN_clean_linker_2, # of connection points: 2
#     Edge 11, Type (0, 1), BuildingBlock: XUDNAN_clean_linker_2, # of connection points: 2
#     Edge 12, Type (0, 1), BuildingBlock: XUDNAN_clean_linker_2, # of connection points: 2
#     Edge 13, Type (0, 1), BuildingBlock: XUDNAN_clean_linker_2, # of connection points: 2
#     Edge 14, Type (0, 1), BuildingBlock: XUDNAN_clean_linker_2, # of connection points: 2
#     Edge 15, Type (0, 1), BuildingBlock: XUDNAN_clean_linker_2, # of connection points: 2
#     Edge 16, Type (0, 1), BuildingBlock: XUDNAN_clean_linker_2, # of connection points: 2
#     Edge 17, Type (0, 1), BuildingBlock: XUDNAN_clean_linker_2, # of connection points: 2
#     Edge 18, Type (0, 1), BuildingBlock: XUDNAN_clean_linker_2, # of connection points: 2
#     Edge 19, Type (0, 1), BuildingBlock: XUDNAN_clean_linker_2, # of connection points: 2
#     Edge 20, Type (0, 1), BuildingBlock: XUDNAN_clean_linker_2, # of connection points: 2
#     Edge 21, Type (0, 1), BuildingBlock: XUDNAN_clean_linker_2, # of connection points: 2
#     Edge 22, Type (0, 1), BuildingBlock: XUDNAN_clean_linker_2, # of connection points: 2
#     Edge 23, Type (0, 1), BuildingBlock: XUDNAN_clean_linker_2, # of connection points: 2
#     Edge 24, Type (0, 1), BuildingBlock: XUDNAN_clean_linker_2, # of connection points: 2
#     Edge 25, Type (0, 1), BuildingBlock: XUDNAN_clean_linker_2, # of connection points: 2
#     Edge 26, Type (0, 1), BuildingBlock: XUDNAN_clean_linker_2, # of connection points: 2
# Relax obj value: 0.145
# Max RMSD: 0.160
# Mean RMSD: 0.105
data_MOF--net-anh--node1-PAMTOO_clean_sbu_0--node2-BETDAH_clean_linker_0--edge1-XUDNAN_clean_linker_2
_symmetry_space_group_name_H-M    P1
_symmetry_Int_Tables_number       1
_symmetry_cell_setting            triclinic
loop_
_symmetry_equiv_pos_as_xyz
'x, y, z'
_cell_length_a     30.467465
_cell_length_b     29.803615
_cell_length_c     49.240837
_cell_angle_alpha  93.856833
_cell_angle_beta   97.43288
_cell_angle_gamma 101.47491
loop_
_atom_site_label
_atom_site_type_symbol
_atom_site_fract_x
_atom_site_fract_y
_atom_site_fract_z
_atom_type_partial_charge
Dy0 Dy 0.10346 0.63779 0.16605 0.0
Dy1 Dy 1.07821 0.5265 0.14808 0.0
C2 C 0.09854 0.59851 0.10272 0.0
O3 O 1.02798 0.62446 0.15354 0.0
O4 O 1.01059 0.5455 0.15304 0.0
O5 O 0.10683 0.70923 0.15925 0.0
O6 O 0.1351 0.69076 0.19865 0.0
O7 O 0.09463 0.53724 0.19401 0.0
O8 O 1.07203 0.60491 0.20001 0.0
O9 O 0.15239 0.54619 0.14299 0.0
O10 O 0.16949 0.61354 0.17121 0.0
O11 O 0.0908 0.45909 0.15505 0.0
O12 O 1.03515 0.46617 0.12473 0.0
C13 C 0.99799 0.58546 0.15231 0.0
O14 O 0.11326 0.63255 0.12213 0.0
O15 O 1.08028 0.55665 0.10781 0.0
C16 C 0.17581 0.75598 0.18219 0.0
C17 C 0.26429 0.80882 0.18403 0.0
C18 C 0.24094 0.78341 0.15946 0.0
C19 C 0.19731 0.75698 0.1586 0.0
C20 C 0.19825 0.78255 0.20642 0.0
C21 C 0.24207 0.80858 0.20739 0.0
C22 C 0.13251 0.72379 0.18281 0.0
C23 C 1.08069 0.5673 0.20958 0.0
C24 C 0.1825 0.58105 0.15666 0.0
C25 C 1.02306 0.4039 0.15148 0.0
C26 C 0.96106 0.33936 0.17452 0.0
C27 C 0.97263 0.38572 0.18545 0.0
C28 C 1.00331 0.41769 0.174 0.0
C29 C 1.01214 0.35774 0.14069 0.0
C30 C 0.9814 0.32569 0.15211 0.0
C31 C 1.0541 0.43793 0.13895 0.0
H32 H 0.25658 0.78335 0.14092 0.0
H33 H 0.18095 0.73643 0.13967 0.0
H34 H 0.18249 0.78181 0.22494 0.0
H35 H 0.25909 0.82703 0.2268 0.0
H36 H 0.9572 0.39754 0.20243 0.0
H37 H 1.01126 0.45335 0.18251 0.0
H38 H 1.02715 0.34655 0.12334 0.0
H39 H 0.97365 0.29017 0.14343 0.0
Dy40 Dy 0.57577 0.0188 0.50946 0.0
Dy41 Dy 0.68305 0.06114 0.53449 0.0
C42 C 0.612 0.02546 0.57507 0.0
O43 O 0.58706 0.09452 0.50568 0.0
O44 O 0.64748 0.11918 0.53982 0.0
O45 O 0.50412 0.01229 0.5108 0.0
O46 O 0.52728 0.98086 0.47593 0.0
O47 O 0.67126 0.07755 0.49088 0.0
O48 O 0.61775 0.01321 0.47599 0.0
O49 O 0.67645 0.98454 0.52684 0.0
O50 O 0.59955 0.95749 0.52363 0.0
O51 O 0.75249 0.06079 0.53019 0.0
O52 O 0.73714 0.10794 0.56127 0.0
C53 C 0.6139 0.12744 0.52269 0.0
O54 O 0.57805 0.02292 0.55515 0.0
O55 O 0.65469 0.03558 0.57139 0.0
C56 C 0.4627 0.93972 0.49058 0.0
C57 C 0.41117 0.85 0.49019 0.0
C58 C 0.44817 0.86723 0.51095 0.0
C59 C 0.47382 0.91169 0.51108 0.0
C60 C 0.42526 0.92327 0.47029 0.0
C61 C 0.39968 0.87879 0.47007 0.0
C62 C 0.49278 0.9839 0.48849 0.0
C63 C 0.64852 0.04762 0.47083 0.0
C64 C 0.64104 0.95071 0.5264 0.0
C65 C 0.7987 0.13427 0.5379 0.0
C66 C 0.85723 0.20057 0.51389 0.0
C67 C 0.81002 0.19578 0.50794 0.0
C68 C 0.781 0.16285 0.51982 0.0
C69 C 0.84564 0.13954 0.5444 0.0
C70 C 0.87472 0.17246 0.53254 0.0
C71 C 0.76835 0.09651 0.54804 0.0
H72 H 0.45766 0.84619 0.52689 0.0
H73 H 0.50301 0.92376 0.52676 0.0
H74 H 0.41671 0.94427 0.45409 0.0
H75 H 0.37196 0.86641 0.4535 0.0
H76 H 0.79548 0.21723 0.49394 0.0
H77 H 0.74472 0.15901 0.51444 0.0
H78 H 0.85979 0.11738 0.55809 0.0
H79 H 0.91087 0.17481 0.53727 0.0
Dy80 Dy 0.61148 0.48397 0.83665 0.0
Dy81 Dy 0.50202 0.47948 0.8275 0.0
C82 C 0.55921 0.49357 0.77761 0.0
O83 O 0.60502 0.55475 0.8269 0.0
O84 O 0.53505 0.55388 0.83972 0.0
O85 O 0.67884 0.51361 0.85738 0.0
O86 O 0.6675 0.45437 0.8273 0.0
O87 O 0.51862 0.46056 0.87013 0.0
O88 O 0.59252 0.49907 0.87822 0.0
O89 O 0.50943 0.40707 0.81742 0.0
O90 O 0.5795 0.4118 0.84231 0.0
O91 O 0.44217 0.49187 0.84311 0.0
O92 O 0.43734 0.46175 0.80124 0.0
C93 C 0.57354 0.57637 0.83328 0.0
O94 O 0.59041 0.47546 0.79106 0.0
O95 O 0.52641 0.50497 0.7895 0.0
C96 C 0.73663 0.50764 0.83109 0.0
C97 C 0.81362 0.55568 0.81155 0.0
C98 C 0.77 0.55576 0.79805 0.0
C99 C 0.73169 0.53189 0.8078 0.0
C100 C 0.77984 0.5061 0.84396 0.0
C101 C 0.81799 0.52994 0.83436 0.0
C102 C 0.69736 0.48585 0.8432 0.0
C103 C 0.55517 0.47996 0.88724 0.0
C104 C 0.5413 0.38749 0.82885 0.0
C105 C 0.39363 0.51652 0.80947 0.0
C106 C 0.35319 0.59164 0.79937 0.0
C107 C 0.32757 0.55075 0.80659 0.0
C108 C 0.34778 0.51335 0.81171 0.0
C109 C 0.41849 0.55637 0.80062 0.0
C110 C 0.39833 0.5937 0.79557 0.0
C111 C 0.41693 0.48081 0.81917 0.0
H112 H 0.76551 0.57512 0.78043 0.0
H113 H 0.6983 0.53329 0.79764 0.0
H114 H 0.7841 0.48767 0.86203 0.0
H115 H 0.85088 0.52997 0.84575 0.0
H116 H 0.29279 0.54877 0.80991 0.0
H117 H 0.32827 0.48289 0.81865 0.0
H118 H 0.45402 0.55937 0.79882 0.0
H119 H 0.41838 0.62478 0.78971 0.0
H120 H 0.55837 0.99944 0.27179 0.0
H121 H 0.68693 0.08144 0.25995 0.0
H122 H 0.59383 0.00946 0.19053 0.0
C123 C 0.58233 0.01303 0.2584 0.0
C124 C 0.57131 1.00069 0.22997 0.0
C125 C 0.62426 0.04167 0.26967 0.0
C126 C 0.65436 0.05979 0.25171 0.0
C127 C 0.64306 0.04832 0.2231 0.0
C128 C 0.60203 0.01843 0.21256 0.0
N129 N 0.67232 0.06497 0.20415 0.0
C130 C 0.71033 0.10046 0.21015 0.0
H131 H 0.60373 0.44175 0.58942 0.0
H132 H 0.61239 0.58387 0.57516 0.0
H133 H 0.61657 0.48426 0.50862 0.0
C134 C 0.60828 0.46884 0.57578 0.0
C135 C 0.61117 0.4575 0.54805 0.0
C136 C 0.60837 0.51417 0.58572 0.0
C137 C 0.61227 0.54885 0.5676 0.0
C138 C 0.61538 0.53812 0.53972 0.0
C139 C 0.61439 0.49242 0.53011 0.0
N140 N 0.6186 0.57199 0.52062 0.0
C141 C 0.626 0.61926 0.52759 0.0
H142 H 1.06712 0.67919 0.90262 0.0
H143 H 0.18567 0.77695 0.94205 0.0
H144 H 0.12749 0.79033 0.85939 0.0
C145 C 0.09349 0.70932 0.90204 0.0
C146 C 0.09355 0.73278 0.87829 0.0
C147 C 0.12637 0.72481 0.92523 0.0
C148 C 0.15922 0.76512 0.92466 0.0
C149 C 0.16005 0.78836 0.90081 0.0
C150 C 0.12677 0.77242 0.87782 0.0
N151 N 0.19729 0.82429 0.89882 0.0
C152 C 0.22186 0.81995 0.87732 0.0
H153 H 0.18167 0.588 0.40482 0.0
H154 H 0.10652 0.44983 0.40532 0.0
H155 H 0.21477 0.50746 0.4709 0.0
C156 C 0.17509 0.5566 0.41491 0.0
C157 C 0.20217 0.55265 0.43958 0.0
C158 C 0.14092 0.5196 0.40234 0.0
C159 C 0.13285 0.4785 0.41499 0.0
C160 C 0.15944 0.47441 0.43992 0.0
C161 C 0.19444 0.51107 0.45173 0.0
N162 N 0.15237 0.4337 0.45347 0.0
C163 C 0.10992 0.40602 0.45332 0.0
H164 H 0.56839 0.07877 0.76385 0.0
H165 H 0.57021 0.93852 0.77881 0.0
H166 H 0.54235 0.03172 0.84197 0.0
C167 C 0.56627 0.05187 0.7777 0.0
C168 C 0.55556 0.06076 0.80409 0.0
C169 C 0.5708 0.00771 0.76829 0.0
C170 C 0.56665 0.97255 0.78608 0.0
C171 C 0.55719 0.98127 0.81295 0.0
C172 C 0.55084 0.02521 0.82157 0.0
N173 N 0.55275 0.94663 0.8316 0.0
C174 C 0.56167 0.90283 0.82689 0.0
H175 H 0.66954 0.53651 0.08667 0.0
H176 H 0.53323 0.54283 0.09892 0.0
H177 H 0.64181 0.57866 0.16689 0.0
C178 C 0.64582 0.54338 0.10021 0.0
C179 C 0.66213 0.5585 0.128 0.0
C180 C 0.59965 0.53794 0.08943 0.0
C181 C 0.56868 0.54672 0.10706 0.0
C182 C 0.58331 0.56096 0.13511 0.0
C183 C 0.63025 0.56719 0.14534 0.0
N184 N 0.55208 0.56877 0.15359 0.0
C185 C 0.50593 0.57064 0.14703 0.0
H186 H 0.2329 0.51421 0.14405 0.0
H187 H 0.24669 0.6605 0.1656 0.0
H188 H 0.32828 0.67288 0.16323 0.0
H189 H 0.33952 0.5062 0.18446 0.0
H190 H 0.35271 0.46476 0.16011 0.0
H191 H 0.29455 0.46684 0.16225 0.0
H192 H 0.28134 0.4771 0.1103 0.0
H193 H 0.33955 0.47525 0.10803 0.0
H194 H 0.31708 0.52364 0.09693 0.0
H195 H 0.40925 0.67075 0.15859 0.0
H196 H 0.48438 0.65314 0.15504 0.0
H197 H 0.42276 0.50812 0.13838 0.0
C198 C 0.25307 0.54884 0.14817 0.0
C199 C 0.23258 0.58636 0.15504 0.0
C200 C 0.26086 0.63097 0.16048 0.0
C201 C 0.30757 0.63849 0.15905 0.0
C202 C 0.32665 0.60109 0.15239 0.0
C203 C 0.30051 0.55699 0.14728 0.0
C204 C 0.33053 0.52284 0.14168 0.0
C205 C 0.32924 0.4881 0.16342 0.0
C206 C 0.31626 0.49824 0.1125 0.0
C207 C 0.37734 0.55463 0.1444 0.0
C208 C 0.37397 0.59971 0.15035 0.0
C209 C 0.41215 0.63554 0.15391 0.0
C210 C 0.45483 0.62525 0.15174 0.0
C211 C 0.45974 0.57946 0.14615 0.0
C212 C 0.4202 0.54361 0.14234 0.0
H213 H 0.93843 0.2567 0.53635 0.0
H214 H 0.84639 0.21795 0.45967 0.0
H215 H 0.89972 0.26936 0.43589 0.0
H216 H 0.97885 0.3763 0.52489 0.0
H217 H 1.03592 0.37727 0.54055 0.0
H218 H 0.98902 0.33979 0.55175 0.0
H219 H 1.02511 0.26982 0.54165 0.0
H220 H 1.07202 0.30701 0.53036 0.0
H221 H 1.03936 0.25835 0.50782 0.0
H222 H 0.96548 0.32203 0.41993 0.0
H223 H 1.03813 0.37267 0.41365 0.0
H224 H 0.08671 0.37536 0.50049 0.0
C225 C 0.9294 0.25905 0.51457 0.0
C226 C 0.88815 0.23337 0.49991 0.0
C227 C 0.87747 0.23782 0.47145 0.0
C228 C 0.90766 0.26674 0.45772 0.0
C229 C 0.9483 0.29109 0.47275 0.0
C230 C 0.95908 0.28768 0.50058 0.0
C231 C 1.00544 0.31636 0.51188 0.0
C232 C 1.00208 0.35471 0.53355 0.0
C233 C 1.03735 0.28606 0.52361 0.0
C234 C 1.01946 0.33581 0.48598 0.0
C235 C 0.98599 0.32111 0.46361 0.0
C236 C 0.99179 0.33395 0.43733 0.0
C237 C 1.03296 0.36251 0.43391 0.0
C238 C 1.06734 0.37746 0.45662 0.0
C239 C 1.06053 0.3642 0.4829 0.0
H240 H 0.51516 0.63393 0.84269 0.0
H241 H 0.64798 0.6338 0.8196 0.0
H242 H 0.65896 0.71697 0.81471 0.0
H243 H 0.48527 0.71107 0.79637 0.0
H244 H 0.45735 0.74288 0.81849 0.0
H245 H 0.45825 0.68367 0.8232 0.0
H246 H 0.49407 0.70124 0.87307 0.0
H247 H 0.4934 0.76133 0.87153 0.0
H248 H 0.54571 0.74405 0.88244 0.0
H249 H 0.65511 0.80093 0.81168 0.0
H250 H 0.63713 0.87868 0.81238 0.0
H251 H 0.50748 0.82416 0.8375 0.0
C252 C 0.54675 0.65135 0.83682 0.0
C253 C 0.58074 0.62702 0.83164 0.0
C254 C 0.62138 0.65141 0.82379 0.0
C255 C 0.62797 0.69878 0.8209 0.0
C256 C 0.59368 0.72159 0.82597 0.0
C257 C 0.55399 0.69872 0.83393 0.0
C258 C 0.5224 0.73122 0.83803 0.0
C259 C 0.47817 0.71635 0.81781 0.0
C260 C 0.51334 0.73463 0.86803 0.0
C261 C 0.55039 0.77587 0.83117 0.0
C262 C 0.59143 0.76964 0.82418 0.0
C263 C 0.62306 0.8061 0.81711 0.0
C264 C 0.61259 0.85003 0.81747 0.0
C265 C 0.57096 0.85697 0.82481 0.0
C266 C 0.53946 0.81947 0.83162 0.0
H267 H 0.91936 0.51978 0.13078 0.0
H268 H 0.96443 0.65652 0.17361 0.0
H269 H 0.88497 0.66223 0.17466 0.0
H270 H 0.8241 0.54672 0.08759 0.0
H271 H 0.78754 0.49129 0.08799 0.0
H272 H 0.84801 0.49653 0.09196 0.0
H273 H 0.84561 0.45873 0.13769 0.0
H274 H 0.78513 0.45358 0.1339 0.0
H275 H 0.82032 0.48318 0.16469 0.0
H276 H 0.79921 0.65309 0.17173 0.0
H277 H 0.71568 0.63334 0.16045 0.0
H278 H 0.7243 0.50468 0.11693 0.0
C279 C 0.91251 0.55082 0.14051 0.0
C280 C 0.94881 0.58766 0.15226 0.0
C281 C 0.93779 0.62781 0.16439 0.0
C282 C 0.89249 0.63132 0.16522 0.0
C283 C 0.85766 0.59467 0.15347 0.0
C284 C 0.86707 0.55537 0.14098 0.0
C285 C 0.82304 0.52214 0.12852 0.0
C286 C 0.82054 0.51368 0.09715 0.0
C287 C 0.81825 0.47671 0.14201 0.0
C288 C 0.78761 0.54881 0.13596 0.0
C289 C 0.80835 0.5903 0.15073 0.0
C290 C 0.78276 0.62069 0.1601 0.0
C291 C 0.73506 0.60899 0.15377 0.0
C292 C 0.71272 0.56743 0.13778 0.0
C293 C 0.73988 0.53687 0.12909 0.0
H294 H 0.31973 0.8168 0.47582 0.0
H295 H 0.44583 0.77334 0.50005 0.0
H296 H 0.40475 0.69235 0.49361 0.0
H297 H 0.24535 0.72679 0.50566 0.0
H298 H 0.20019 0.72091 0.47729 0.0
H299 H 0.23868 0.77557 0.48698 0.0
H300 H 0.25763 0.77745 0.43719 0.0
H301 H 0.21942 0.72278 0.42738 0.0
H302 H 0.2777 0.73008 0.42193 0.0
H303 H 0.35094 0.61577 0.48064 0.0
H304 H 0.28877 0.54993 0.46197 0.0
H305 H 0.19856 0.64383 0.44544 0.0
C306 C 0.33873 0.79033 0.47997 0.0
C307 C 0.386 0.80156 0.48857 0.0
C308 C 0.40948 0.76577 0.49395 0.0
C309 C 0.38648 0.71959 0.49021 0.0
C310 C 0.34003 0.70978 0.48115 0.0
C311 C 0.31641 0.74417 0.4762 0.0
C312 C 0.26722 0.72451 0.46495 0.0
C313 C 0.23602 0.73773 0.48492 0.0
C314 C 0.25479 0.7396 0.43616 0.0
C315 C 0.26707 0.67365 0.46368 0.0
C316 C 0.30922 0.66578 0.4734 0.0
C317 C 0.31765 0.6215 0.47328 0.0
C318 C 0.28212 0.58432 0.46273 0.0
C319 C 0.23885 0.59176 0.45228 0.0
C320 C 0.23134 0.63706 0.45311 0.0
H321 H 0.60451 0.33557 0.82281 0.0
H322 H 0.46248 0.32487 0.82972 0.0
H323 H 0.45181 0.23993 0.82742 0.0
H324 H 0.58651 0.23808 0.77265 0.0
H325 H 0.63787 0.22057 0.78581 0.0
H326 H 0.6346 0.28025 0.78993 0.0
H327 H 0.6571 0.28169 0.84261 0.0
H328 H 0.6601 0.22188 0.83867 0.0
H329 H 0.62415 0.24084 0.86139 0.0
H330 H 0.45758 0.15577 0.82547 0.0
H331 H 0.47655 0.07923 0.81759 0.0
H332 H 0.61303 0.145 0.80784 0.0
C333 C 0.57124 0.3153 0.82404 0.0
C334 C 0.53436 0.33668 0.82676 0.0
C335 C 0.49113 0.30908 0.82768 0.0
C336 C 0.48487 0.26089 0.82654 0.0
C337 C 0.52201 0.24083 0.82397 0.0
C338 C 0.56417 0.26718 0.82221 0.0
C339 C 0.59779 0.23718 0.81751 0.0
C340 C 0.6152 0.24445 0.78983 0.0
C341 C 0.6371 0.24593 0.84148 0.0
C342 C 0.56807 0.18977 0.81698 0.0
C343 C 0.52468 0.19258 0.82125 0.0
C344 C 0.49139 0.15322 0.822 0.0
C345 C 0.50248 0.10996 0.81769 0.0
C346 C 0.54619 0.1064 0.81223 0.0
C347 C 0.5794 0.14688 0.81207 0.0
H348 H 0.57625 0.87041 0.51892 0.0
H349 H 0.72113 0.92301 0.54021 0.0
H350 H 0.73215 0.84392 0.54522 0.0
H351 H 0.56666 0.78058 0.56515 0.0
H352 H 0.52523 0.74031 0.54115 0.0
H353 H 0.52854 0.8012 0.54021 0.0
H354 H 0.5385 0.79439 0.48886 0.0
H355 H 0.53511 0.73351 0.48957 0.0
H356 H 0.58344 0.76896 0.47847 0.0
H357 H 0.7277 0.75892 0.54718 0.0
H358 H 0.70824 0.67371 0.54368 0.0
H359 H 0.56674 0.6762 0.52047 0.0
C360 C 0.61034 0.86545 0.52477 0.0
C361 C 0.64787 0.90314 0.52923 0.0
C362 C 0.69186 0.89485 0.53663 0.0
C363 C 0.69844 0.85001 0.53964 0.0
C364 C 0.66074 0.81374 0.53511 0.0
C365 C 0.61755 0.82093 0.5277 0.0
C366 C 0.58292 0.77584 0.52307 0.0
C367 C 0.54884 0.77441 0.54363 0.0
C368 C 0.55859 0.76771 0.49322 0.0
C369 C 0.61345 0.74206 0.52882 0.0
C370 C 0.65818 0.76472 0.53597 0.0
C371 C 0.6928 0.74086 0.54174 0.0
C372 C 0.68151 0.69261 0.53978 0.0
C373 C 0.63614 0.66892 0.53209 0.0
C374 C 0.60165 0.69384 0.52673 0.0
H375 H 0.89786 0.53734 0.81103 0.0
H376 H 0.82186 0.64436 0.79805 0.0
H377 H 0.89294 0.7014 0.80047 0.0
H378 H 0.96654 0.59205 0.86307 0.0
H379 H 1.01753 0.57359 0.85685 0.0
H380 H 0.96356 0.53865 0.84267 0.0
H381 H 0.98578 0.54077 0.79367 0.0
H382 H 1.04051 0.57555 0.80783 0.0
H383 H 1.0054 0.59528 0.78079 0.0
H384 H 0.96805 0.74898 0.81845 0.0
H385 H 1.03868 0.78143 0.8501 0.0
H386 H 1.06712 0.64522 0.85413 0.0
C387 C 0.89627 0.5725 0.80756 0.0
C388 C 0.85439 0.58639 0.80447 0.0
C389 C 0.85346 0.63264 0.80002 0.0
C390 C 0.89385 0.66542 0.80141 0.0
C391 C 0.93484 0.65136 0.80703 0.0
C392 C 0.93633 0.60566 0.80957 0.0
C393 C 0.9833 0.60051 0.82135 0.0
C394 C 0.98263 0.57475 0.84752 0.0
C395 C 1.00503 0.57662 0.7996 0.0
C396 C 1.00663 0.65055 0.82777 0.0
C397 C 0.97887 0.67939 0.81824 0.0
C398 C 0.99066 0.72687 0.82521 0.0
C399 C 1.03078 0.74506 0.84324 0.0
C400 C 1.058 0.71564 0.85443 0.0
C401 C 1.04681 0.66827 0.84558 0.0
H402 H 0.30662 0.89156 0.21354 0.0
H403 H 0.33143 0.78139 0.15902 0.0
H404 H 0.41152 0.82049 0.16311 0.0
H405 H 0.3843 0.9853 0.19097 0.0
H406 H 0.40261 0.01402 0.22514 0.0
H407 H 0.34633 0.97916 0.21632 0.0
H408 H 0.36138 0.93101 0.25712 0.0
H409 H 0.4177 0.96564 0.26604 0.0
H410 H 0.40958 0.90408 0.2596 0.0
H411 H 0.4895 0.87014 0.1742 0.0
H412 H 0.56034 0.92587 0.19263 0.0
H413 H 0.48569 1.00163 0.24165 0.0
C414 C 0.32878 0.87551 0.20245 0.0
C415 C 0.31231 0.83349 0.18571 0.0
C416 C 0.3427 0.81406 0.17143 0.0
C417 C 0.38844 0.83584 0.17379 0.0
C418 C 0.40349 0.87692 0.19063 0.0
C419 C 0.37464 0.8965 0.20479 0.0
C420 C 0.39981 0.93984 0.22247 0.0
C421 C 0.38221 0.98207 0.21316 0.0
C422 C 0.39694 0.93482 0.25312 0.0
C423 C 0.44742 0.94132 0.2162 0.0
C424 C 0.4487 0.90494 0.19759 0.0
C425 C 0.4889 0.89887 0.1887 0.0
C426 C 0.52889 0.93076 0.19919 0.0
C427 C 0.52844 0.96804 0.21851 0.0
C428 C 0.48707 0.97328 0.22705 0.0
H429 H 0.65556 0.20335 0.55849 0.0
H430 H 0.55821 0.16051 0.48422 0.0
H431 H 0.54945 0.24072 0.48143 0.0
H432 H 0.59877 0.28569 0.5872 0.0
H433 H 0.65039 0.3258 0.60146 0.0
H434 H 0.64979 0.2652 0.59716 0.0
H435 H 0.71542 0.28133 0.56815 0.0
H436 H 0.71607 0.34199 0.57226 0.0
H437 H 0.70916 0.31259 0.53829 0.0
H438 H 0.55151 0.32613 0.48664 0.0
H439 H 0.56044 0.40889 0.50129 0.0
H440 H 0.65559 0.39556 0.57234 0.0
C441 C 0.63239 0.21075 0.54161 0.0
C442 C 0.60761 0.17547 0.52156 0.0
C443 C 0.5775 0.18679 0.4999 0.0
C444 C 0.57242 0.23234 0.49806 0.0
C445 C 0.59752 0.26626 0.51807 0.0
C446 C 0.62666 0.25596 0.53955 0.0
C447 C 0.64878 0.29855 0.55881 0.0
C448 C 0.63616 0.2935 0.58787 0.0
C449 C 0.70042 0.30924 0.5594 0.0
C450 C 0.62733 0.33437 0.5449 0.0
C451 C 0.59818 0.31518 0.52129 0.0
C452 C 0.57431 0.34153 0.50507 0.0
C453 C 0.57982 0.38857 0.51344 0.0
C454 C 0.6087 0.40871 0.53794 0.0
C455 C 0.63304 0.38112 0.55362 0.0
H456 H 0.38283 0.66555 0.83638 0.0
H457 H 0.28065 0.61012 0.7664 0.0
H458 H 0.24423 0.67656 0.77344 0.0
H459 H 0.31006 0.69278 0.87719 0.0
H460 H 0.34659 0.7441 0.89522 0.0
H461 H 0.37073 0.69977 0.88037 0.0
H462 H 0.41566 0.75938 0.85383 0.0
H463 H 0.39049 0.80458 0.8668 0.0
H464 H 0.38691 0.79141 0.83018 0.0
H465 H 0.21209 0.74037 0.7929 0.0
H466 H 0.18374 0.79163 0.82495 0.0
H467 H 0.30578 0.80407 0.88302 0.0
C468 C 0.35413 0.66883 0.82177 0.0
C469 C 0.33516 0.63393 0.80035 0.0
C470 C 0.29599 0.63733 0.78253 0.0
C471 C 0.27538 0.67499 0.78632 0.0
C472 C 0.29436 0.70858 0.80811 0.0
C473 C 0.33294 0.70574 0.82557 0.0
C474 C 0.34205 0.74119 0.85023 0.0
C475 C 0.34232 0.71806 0.87732 0.0
C476 C 0.3864 0.77626 0.8502 0.0
C477 C 0.30162 0.76318 0.8446 0.0
C478 C 0.27509 0.74483 0.81984 0.0
C479 C 0.23323 0.75595 0.81188 0.0
C480 C 0.21744 0.78518 0.83011 0.0
C481 C 0.24342 0.80244 0.85588 0.0
C482 C 0.2864 0.79255 0.86286 0.0
H483 H 0.89302 0.27202 0.14598 0.0
H484 H 0.95163 0.33087 0.22888 0.0
H485 H 0.89358 0.27596 0.24752 0.0
H486 H 0.77758 0.25271 0.1567 0.0
H487 H 0.76122 0.19926 0.13496 0.0
H488 H 0.80763 0.24294 0.12837 0.0
H489 H 0.86031 0.18447 0.13133 0.0
H490 H 0.81403 0.14054 0.13783 0.0
H491 H 0.86607 0.15409 0.16161 0.0
H492 H 0.82805 0.21398 0.25697 0.0
H493 H 0.76089 0.15044 0.25594 0.0
H494 H 0.74703 0.13278 0.16701 0.0
C495 C 0.89409 0.27305 0.16808 0.0
C496 C 0.92699 0.30571 0.18596 0.0
C497 C 0.9265 0.30644 0.21475 0.0
C498 C 0.89381 0.27525 0.22554 0.0
C499 C 0.86181 0.24356 0.20728 0.0
C500 C 0.8618 0.24228 0.17916 0.0
C501 C 0.82363 0.20531 0.16384 0.0
C502 C 0.79056 0.22633 0.14486 0.0
C503 C 0.84213 0.16895 0.14771 0.0
C504 C 0.80212 0.18585 0.1877 0.0
C505 C 0.82451 0.20826 0.21265 0.0
C506 C 0.81036 0.19617 0.23755 0.0
C507 C 0.77237 0.16022 0.23683 0.0
C508 C 0.74942 0.13719 0.21142 0.0
C509 C 0.76439 0.1501 0.18667 0.0
H510 H 0.12093 0.68271 0.0831 0.0
H511 H 0.08717 0.53615 0.05738 0.0
H512 H 0.0956 0.55275 0.00961 0.0
H513 H 1.0602 0.71671 0.02431 0.0
H514 H 0.1011 0.76908 0.02315 0.0
H515 H 0.09492 0.74547 0.05547 0.0
H516 H 0.18045 0.74433 0.06331 0.0
H517 H 0.18688 0.76777 0.03091 0.0
H518 H 0.20416 0.71465 0.03758 0.0
H519 H 0.10604 0.58532 0.96466 0.0
H520 H 0.11364 0.63137 0.92511 0.0
H521 H 0.13862 0.75681 0.98003 0.0
C522 C 0.11562 0.65397 0.06751 0.0
C523 C 0.10352 0.60805 0.07404 0.0
C524 C 0.0964 0.57159 0.0529 0.0
C525 C 0.10132 0.58067 0.02574 0.0
C526 C 0.11326 0.62635 0.02007 0.0
C527 C 0.1201 0.6624 0.04033 0.0
C528 C 0.13066 0.70843 0.02862 0.0
C529 C 0.09456 0.73656 0.03316 0.0
C530 C 0.17838 0.73537 0.04084 0.0
C531 C 0.12822 0.69266 -0.0015 0.0
C532 C 0.11856 0.64519 0.99407 0.0
C533 C 0.11356 0.62249 0.96788 0.0
C534 C 0.11771 0.64898 0.94555 0.0
C535 C 0.12637 0.6977 0.94947 0.0
C536 C 0.13245 0.7197 0.97641 0.0
H537 H 0.61653 0.9863 0.4253 0.0
H538 H 0.69429 0.12459 0.45105 0.0
H539 H 0.6995 0.13774 0.4024 0.0
H540 H 0.67804 0.9634 0.36865 0.0
H541 H 0.62774 0.93089 0.34728 0.0
H542 H 0.63232 0.93208 0.38418 0.0
H543 H 0.55725 0.96093 0.38258 0.0
H544 H 0.55262 0.96018 0.34574 0.0
H545 H 0.55191 0.01235 0.36628 0.0
H546 H 0.69076 0.13736 0.35027 0.0
H547 H 0.6722 0.12214 0.29969 0.0
H548 H 0.60443 0.98251 0.309 0.0
C549 C 0.63507 0.01923 0.42078 0.0
C550 C 0.65492 0.05444 0.44198 0.0
C551 C 0.67892 0.09701 0.43515 0.0
C552 C 0.68199 0.10484 0.40757 0.0
C553 C 0.66137 0.06957 0.38712 0.0
C554 C 0.63885 0.02743 0.39347 0.0
C555 C 0.619 0.99538 0.36779 0.0
C556 C 0.64058 0.95294 0.36693 0.0
C557 C 0.56713 0.98141 0.36547 0.0
C558 C 0.63305 0.02632 0.34593 0.0
C559 C 0.65743 0.06899 0.3574 0.0
C560 C 0.67223 0.10382 0.34108 0.0
C561 C 0.6617 0.09475 0.31233 0.0
C562 C 0.63671 0.05113 0.30015 0.0
C563 C 0.62288 0.01651 0.31742 0.0
H564 H 0.61636 0.46757 0.74348 0.0
H565 H 0.50979 0.54446 0.74692 0.0
H566 H 0.51585 0.56394 0.69952 0.0
H567 H 0.68358 0.5435 0.70213 0.0
H568 H 0.69842 0.49674 0.68265 0.0
H569 H 0.68779 0.49107 0.71756 0.0
H570 H 0.62666 0.41704 0.70123 0.0
H571 H 0.63727 0.42237 0.66635 0.0
H572 H 0.58078 0.41888 0.67452 0.0
H573 H 0.53131 0.57288 0.65119 0.0
H574 H 0.55132 0.56562 0.60428 0.0
H575 H 0.64764 0.48307 0.63215 0.0
C576 C 0.59446 0.4887 0.73434 0.0
C577 C 0.56261 0.50444 0.74897 0.0
C578 C 0.53437 0.53179 0.73614 0.0
C579 C 0.53772 0.54333 0.70925 0.0
C580 C 0.56946 0.5273 0.69542 0.0
C581 C 0.59716 0.50036 0.70744 0.0
C582 C 0.62677 0.48559 0.68757 0.0
C583 C 0.67712 0.50542 0.69811 0.0
C584 C 0.61728 0.43285 0.68209 0.0
C585 C 0.61068 0.50763 0.66235 0.0
C586 C 0.5781 0.53211 0.66743 0.0
C587 C 0.55707 0.55414 0.647 0.0
C588 C 0.56887 0.55011 0.62047 0.0
C589 C 0.60109 0.5239 0.61458 0.0
C590 C 0.62282 0.50326 0.63602 0.0
H591 H 0.65616 0.06591 0.62553 0.0
H592 H 0.54333 0.95911 0.5861 0.0
H593 H 0.52513 0.93817 0.6317 0.0
H594 H 0.68937 0.0073 0.68506 0.0
H595 H 0.70121 0.05862 0.70861 0.0
H596 H 0.70798 0.06273 0.67298 0.0
H597 H 0.65349 0.11934 0.66886 0.0
H598 H 0.64685 0.11567 0.70449 0.0
H599 H 0.59774 0.10272 0.67835 0.0
H600 H 0.51886 0.92917 0.68142 0.0
H601 H 0.51867 0.93923 0.73166 0.0
H602 H 0.63216 0.05527 0.73884 0.0
C603 C 0.62793 0.03785 0.6266 0.0
C604 C 0.60127 0.01383 0.60243 0.0
C605 C 0.56403 0.97794 0.60447 0.0
C606 C 0.55368 0.96559 0.63024 0.0
C607 C 0.58053 0.98994 0.65374 0.0
C608 C 0.61645 0.0258 0.65219 0.0
C609 C 0.63748 0.04888 0.68055 0.0
C610 C 0.68694 0.04408 0.68718 0.0
C611 C 0.63363 0.09965 0.68321 0.0
C612 C 0.60759 0.0206 0.69824 0.0
C613 C 0.57555 0.98619 0.6824 0.0
C614 C 0.54384 0.95591 0.69405 0.0
C615 C 0.54416 0.96167 0.72258 0.0
C616 C 0.57549 0.99785 0.73903 0.0
C617 C 0.60795 0.02724 0.72669 0.0
H618 H 0.61882 0.52943 0.92879 0.0
H619 H 0.48829 0.43447 0.91383 0.0
H620 H 0.48523 0.43871 0.9638 0.0
H621 H 0.6619 0.48705 0.99153 0.0
H622 H 0.68989 0.54339 0.00758 0.0
H623 H 0.68215 0.53203 0.97069 0.0
H624 H 0.64111 0.59997 0.96569 0.0
H625 H 0.64869 0.6115 0.00255 0.0
H626 H 0.59276 0.60137 0.98306 0.0
H627 H 0.49661 0.45347 0.01576 0.0
H628 H 0.52145 0.47778 0.06527 0.0
H629 H 0.64288 0.56545 0.0457 0.0
C630 C 0.58969 0.50925 0.93598 0.0
C631 C 0.55386 0.48146 0.91732 0.0
C632 C 0.51618 0.456 0.92767 0.0
C633 C 0.51413 0.45816 0.95604 0.0
C634 C 0.5499 0.4861 0.97384 0.0
C635 C 0.58693 0.51125 0.96419 0.0
C636 C 0.62051 0.53932 0.98754 0.0
C637 C 0.66632 0.52454 0.98944 0.0
C638 C 0.62607 0.5911 0.98452 0.0
C639 C 0.59668 0.52593 0.01185 0.0
C640 C 0.55606 0.49515 0.00357 0.0
C641 C 0.5283 0.47773 0.02246 0.0
C642 C 0.54256 0.492 0.05055 0.0
C643 C 0.58416 0.52355 0.05954 0.0
C644 C 0.61124 0.54077 0.03971 0.0
H645 H 0.10829 0.50081 0.2398 0.0
H646 H 1.04444 0.61837 0.24539 0.0
H647 H 1.04308 0.61128 0.2948 0.0
H648 H 1.04923 0.43642 0.29191 0.0
H649 H 0.09916 0.41656 0.30528 0.0
H650 H 0.08938 0.42655 0.2695 0.0
H651 H 0.16781 0.48203 0.27497 0.0
H652 H 0.17782 0.47217 0.31064 0.0
H653 H 0.18119 0.52998 0.30112 0.0
H654 H 1.0578 0.59872 0.34417 0.0
H655 H 0.08817 0.58121 0.39041 0.0
H656 H 0.14074 0.47076 0.35348 0.0
C657 C 0.09312 0.52441 0.25129 0.0
C658 C 1.07646 0.56013 0.23867 0.0
C659 C 1.05748 0.59075 0.25454 0.0
C660 C 1.05629 0.58685 0.28264 0.0
C661 C 1.07385 0.55193 0.29458 0.0
C662 C 0.09169 0.52104 0.27943 0.0
C663 C 0.11194 0.48924 0.29779 0.0
C664 C 0.08586 0.43922 0.29069 0.0
C665 C 0.16269 0.49365 0.29602 0.0
C666 C 0.10435 0.50835 0.32572 0.0
C667 C 0.08171 0.5441 0.32332 0.0
C668 C 1.07455 0.5701 0.34632 0.0
C669 C 0.09184 0.55998 0.37244 0.0
C670 C 0.11578 0.52412 0.37531 0.0
C671 C 0.12122 0.49735 0.35171 0.0
loop_
_geom_bond_atom_site_label_1
_geom_bond_atom_site_label_2
_geom_bond_distance
_geom_bond_site_symmetry_2
_ccdc_geom_bond_type
Dy0 O3 2.307 1_455 S
Dy0 O5 2.395 . S
Dy0 O6 2.379 . S
Dy0 O8 2.339 . S
Dy0 O10 2.298 . S
Dy0 O14 2.275 . S
Dy0 C22 2.738 . S
Dy1 O4 2.298 . S
Dy1 O7 2.275 1_655 S
Dy1 O9 2.307 1_655 S
Dy1 O11 2.395 . S
Dy1 O12 2.379 . S
Dy1 O15 2.339 . S
Dy1 C31 2.738 . S
C2 O14 1.254 . S
C2 O15 1.257 1_455 S
O3 Dy0 2.307 1_655 S
O3 C13 1.266 . S
O4 Dy1 2.298 . S
O4 C13 1.236 . S
O5 Dy0 2.395 . S
O5 C22 1.255 . S
O6 Dy0 2.379 . S
O6 C22 1.249 . S
O7 Dy1 2.275 1_455 S
O7 C23 1.254 . S
O8 Dy0 2.339 . S
O8 C23 1.257 . S
O9 Dy1 2.307 1_455 S
O9 C24 1.266 . S
O10 Dy0 2.298 . S
O10 C24 1.236 . S
O11 Dy1 2.395 . S
O11 C31 1.255 . S
O12 Dy1 2.379 . S
O12 C31 1.249 . S
C13 O3 1.266 . S
C13 O4 1.236 . S
O14 Dy0 2.275 . S
O14 C2 1.254 . S
O15 Dy1 2.339 . S
O15 C2 1.257 1_655 S
C16 C19 1.344 . S
C16 C20 1.328 . S
C16 C22 1.516 . S
C17 C18 1.304 . S
C17 C21 1.323 . S
C18 C17 1.304 . S
C18 C19 1.371 . S
C18 H32 0.930 . S
C19 C16 1.344 . S
C19 C18 1.371 . S
C19 H33 0.931 . S
C20 C16 1.328 . S
C20 C21 1.433 . S
C20 H34 0.931 . S
C21 C17 1.323 . S
C21 C20 1.433 . S
C21 H35 0.933 . S
C22 Dy0 2.738 . S
C22 O5 1.255 . S
C22 O6 1.249 . S
C22 C16 1.516 . S
C23 O7 1.254 . S
C23 O8 1.257 . S
C24 O9 1.266 . S
C24 O10 1.236 . S
C25 C28 1.344 . S
C25 C29 1.328 . S
C25 C31 1.516 . S
C26 C27 1.304 . S
C26 C30 1.323 . S
C27 C26 1.304 . S
C27 C28 1.371 . S
C27 H36 0.930 . S
C28 C25 1.344 . S
C28 C27 1.371 . S
C28 H37 0.931 . S
C29 C25 1.328 . S
C29 C30 1.433 . S
C29 H38 0.931 . S
C30 C26 1.323 . S
C30 C29 1.433 . S
C30 H39 0.933 . S
C31 Dy1 2.738 . S
C31 O11 1.255 . S
C31 O12 1.249 . S
C31 C25 1.516 . S
H32 C18 0.930 . S
H33 C19 0.931 . S
H34 C20 0.931 . S
H35 C21 0.933 . S
H36 C27 0.930 . S
H37 C28 0.931 . S
H38 C29 0.931 . S
H39 C30 0.933 . S
Dy40 O43 2.307 . S
Dy40 O45 2.395 1_545 S
Dy40 O46 2.379 1_545 S
Dy40 O48 2.339 . S
Dy40 O50 2.298 1_545 S
Dy40 O54 2.275 . S
Dy40 C62 2.738 1_545 S
Dy41 O44 2.298 . S
Dy41 O47 2.275 . S
Dy41 O49 2.307 1_545 S
Dy41 O51 2.395 . S
Dy41 O52 2.379 . S
Dy41 O55 2.339 . S
Dy41 C71 2.738 . S
C42 O54 1.254 . S
C42 O55 1.257 . S
O43 Dy40 2.307 . S
O43 C53 1.266 . S
O44 Dy41 2.298 . S
O44 C53 1.236 . S
O45 Dy40 2.395 1_565 S
O45 C62 1.255 . S
O46 Dy40 2.379 1_565 S
O46 C62 1.249 . S
O47 Dy41 2.275 . S
O47 C63 1.254 . S
O48 Dy40 2.339 . S
O48 C63 1.257 . S
O49 Dy41 2.307 1_565 S
O49 C64 1.266 . S
O50 Dy40 2.298 1_565 S
O50 C64 1.236 . S
O51 Dy41 2.395 . S
O51 C71 1.255 . S
O52 Dy41 2.379 . S
O52 C71 1.249 . S
C53 O43 1.266 . S
C53 O44 1.236 . S
O54 Dy40 2.275 . S
O54 C42 1.254 . S
O55 Dy41 2.339 . S
O55 C42 1.257 . S
C56 C59 1.344 . S
C56 C60 1.328 . S
C56 C62 1.516 . S
C57 C58 1.304 . S
C57 C61 1.323 . S
C58 C57 1.304 . S
C58 C59 1.371 . S
C58 H72 0.930 . S
C59 C56 1.344 . S
C59 C58 1.371 . S
C59 H73 0.931 . S
C60 C56 1.328 . S
C60 C61 1.433 . S
C60 H74 0.931 . S
C61 C57 1.323 . S
C61 C60 1.433 . S
C61 H75 0.933 . S
C62 Dy40 2.738 1_565 S
C62 O45 1.255 . S
C62 O46 1.249 . S
C62 C56 1.516 . S
C63 O47 1.254 . S
C63 O48 1.257 . S
C64 O49 1.266 . S
C64 O50 1.236 . S
C65 C68 1.344 . S
C65 C69 1.328 . S
C65 C71 1.516 . S
C66 C67 1.304 . S
C66 C70 1.323 . S
C67 C66 1.304 . S
C67 C68 1.371 . S
C67 H76 0.930 . S
C68 C65 1.344 . S
C68 C67 1.371 . S
C68 H77 0.931 . S
C69 C65 1.328 . S
C69 C70 1.433 . S
C69 H78 0.931 . S
C70 C66 1.323 . S
C70 C69 1.433 . S
C70 H79 0.933 . S
C71 Dy41 2.738 . S
C71 O51 1.255 . S
C71 O52 1.249 . S
C71 C65 1.516 . S
H72 C58 0.930 . S
H73 C59 0.931 . S
H74 C60 0.931 . S
H75 C61 0.933 . S
H76 C67 0.930 . S
H77 C68 0.931 . S
H78 C69 0.931 . S
H79 C70 0.933 . S
Dy80 O83 2.307 . S
Dy80 O85 2.395 . S
Dy80 O86 2.379 . S
Dy80 O88 2.339 . S
Dy80 O90 2.298 . S
Dy80 O94 2.275 . S
Dy80 C102 2.738 . S
Dy81 O84 2.298 . S
Dy81 O87 2.275 . S
Dy81 O89 2.307 . S
Dy81 O91 2.395 . S
Dy81 O92 2.379 . S
Dy81 O95 2.339 . S
Dy81 C111 2.738 . S
C82 O94 1.254 . S
C82 O95 1.257 . S
O83 Dy80 2.307 . S
O83 C93 1.266 . S
O84 Dy81 2.298 . S
O84 C93 1.236 . S
O85 Dy80 2.395 . S
O85 C102 1.255 . S
O86 Dy80 2.379 . S
O86 C102 1.249 . S
O87 Dy81 2.275 . S
O87 C103 1.254 . S
O88 Dy80 2.339 . S
O88 C103 1.257 . S
O89 Dy81 2.307 . S
O89 C104 1.266 . S
O90 Dy80 2.298 . S
O90 C104 1.236 . S
O91 Dy81 2.395 . S
O91 C111 1.255 . S
O92 Dy81 2.379 . S
O92 C111 1.249 . S
C93 O83 1.266 . S
C93 O84 1.236 . S
O94 Dy80 2.275 . S
O94 C82 1.254 . S
O95 Dy81 2.339 . S
O95 C82 1.257 . S
C96 C99 1.344 . S
C96 C100 1.328 . S
C96 C102 1.516 . S
C97 C98 1.304 . S
C97 C101 1.323 . S
C98 C97 1.304 . S
C98 C99 1.371 . S
C98 H112 0.930 . S
C99 C96 1.344 . S
C99 C98 1.371 . S
C99 H113 0.931 . S
C100 C96 1.328 . S
C100 C101 1.433 . S
C100 H114 0.931 . S
C101 C97 1.323 . S
C101 C100 1.433 . S
C101 H115 0.933 . S
C102 Dy80 2.738 . S
C102 O85 1.255 . S
C102 O86 1.249 . S
C102 C96 1.516 . S
C103 O87 1.254 . S
C103 O88 1.257 . S
C104 O89 1.266 . S
C104 O90 1.236 . S
C105 C108 1.344 . S
C105 C109 1.328 . S
C105 C111 1.516 . S
C106 C107 1.304 . S
C106 C110 1.323 . S
C107 C106 1.304 . S
C107 C108 1.371 . S
C107 H116 0.930 . S
C108 C105 1.344 . S
C108 C107 1.371 . S
C108 H117 0.931 . S
C109 C105 1.328 . S
C109 C110 1.433 . S
C109 H118 0.931 . S
C110 C106 1.323 . S
C110 C109 1.433 . S
C110 H119 0.933 . S
C111 Dy81 2.738 . S
C111 O91 1.255 . S
C111 O92 1.249 . S
C111 C105 1.516 . S
H112 C98 0.930 . S
H113 C99 0.931 . S
H114 C100 0.931 . S
H115 C101 0.933 . S
H116 C107 0.930 . S
H117 C108 0.931 . S
H118 C109 0.931 . S
H119 C110 0.933 . S
H120 C123 0.929 . S
H121 C126 0.929 . S
H122 C128 0.930 . S
C123 H120 0.929 . S
C123 C124 1.398 . S
C123 C125 1.396 . S
C124 C123 1.398 . S
C124 C128 1.407 . S
C125 C123 1.396 . S
C125 C126 1.394 . S
C126 H121 0.929 . S
C126 C125 1.394 . S
C126 C127 1.382 . S
C127 C126 1.382 . S
C127 C128 1.392 . S
C127 N129 1.420 . S
C128 H122 0.930 . S
C128 C124 1.407 . S
C128 C127 1.392 . S
N129 C127 1.420 . S
N129 C130 1.244 . S
C130 N129 1.244 . S
H131 C134 0.929 . S
H132 C137 0.929 . S
H133 C139 0.930 . S
C134 H131 0.929 . S
C134 C135 1.398 . S
C134 C136 1.396 . S
C135 C134 1.398 . S
C135 C139 1.407 . S
C136 C134 1.396 . S
C136 C137 1.394 . S
C137 H132 0.929 . S
C137 C136 1.394 . S
C137 C138 1.382 . S
C138 C137 1.382 . S
C138 C139 1.392 . S
C138 N140 1.420 . S
C139 H133 0.930 . S
C139 C135 1.407 . S
C139 C138 1.392 . S
N140 C138 1.420 . S
N140 C141 1.244 . S
C141 N140 1.244 . S
H142 C145 0.929 . S
H143 C148 0.929 . S
H144 C150 0.930 . S
C145 H142 0.929 . S
C145 C146 1.398 . S
C145 C147 1.396 1_655 S
C146 C145 1.398 . S
C146 C150 1.407 1_655 S
C147 C145 1.396 1_455 S
C147 C148 1.394 . S
C148 H143 0.929 . S
C148 C147 1.394 . S
C148 C149 1.382 . S
C149 C148 1.382 . S
C149 C150 1.392 . S
C149 N151 1.420 . S
C150 H144 0.930 . S
C150 C146 1.407 1_455 S
C150 C149 1.392 . S
N151 C149 1.420 . S
N151 C152 1.244 . S
C152 N151 1.244 . S
H153 C156 0.929 . S
H154 C159 0.929 1_655 S
H155 C161 0.930 . S
C156 H153 0.929 . S
C156 C157 1.398 . S
C156 C158 1.396 . S
C157 C156 1.398 . S
C157 C161 1.407 . S
C158 C156 1.396 . S
C158 C159 1.394 . S
C159 H154 0.929 1_455 S
C159 C158 1.394 . S
C159 C160 1.382 . S
C160 C159 1.382 . S
C160 C161 1.392 . S
C160 N162 1.420 1_455 S
C161 H155 0.930 . S
C161 C157 1.407 . S
C161 C160 1.392 . S
N162 C160 1.420 1_655 S
N162 C163 1.244 . S
C163 N162 1.244 . S
H164 C167 0.929 . S
H165 C170 0.929 . S
H166 C172 0.930 . S
C167 H164 0.929 . S
C167 C168 1.398 . S
C167 C169 1.396 . S
C168 C167 1.398 . S
C168 C172 1.407 . S
C169 C167 1.396 . S
C169 C170 1.394 1_545 S
C170 H165 0.929 . S
C170 C169 1.394 1_565 S
C170 C171 1.382 . S
C171 C170 1.382 . S
C171 C172 1.392 1_565 S
C171 N173 1.420 . S
C172 H166 0.930 . S
C172 C168 1.407 . S
C172 C171 1.392 1_545 S
N173 C171 1.420 . S
N173 C174 1.244 . S
C174 N173 1.244 . S
H175 C178 0.929 . S
H176 C181 0.929 . S
H177 C183 0.930 . S
C178 H175 0.929 . S
C178 C179 1.398 . S
C178 C180 1.396 . S
C179 C178 1.398 . S
C179 C183 1.407 . S
C180 C178 1.396 . S
C180 C181 1.394 . S
C181 H176 0.929 . S
C181 C180 1.394 . S
C181 C182 1.382 . S
C182 C181 1.382 . S
C182 C183 1.392 . S
C182 N184 1.420 . S
C183 H177 0.930 . S
C183 C179 1.407 . S
C183 C182 1.392 . S
N184 C182 1.420 . S
N184 C185 1.244 . S
C185 N184 1.244 . S
H186 C198 0.930 . S
H187 C200 0.930 . S
H188 C201 0.930 . S
H189 C205 0.959 . S
H190 C205 0.959 . S
H191 C205 0.961 . S
H192 C206 0.960 . S
H193 C206 0.961 . S
H194 C206 0.959 . S
H195 C209 0.929 . S
H196 C210 0.931 . S
H197 C212 0.930 . S
C198 H186 0.930 . S
C198 C199 1.399 . S
C198 C203 1.399 . S
C199 C198 1.399 . S
C199 C200 1.376 . S
C200 H187 0.930 . S
C200 C199 1.376 . S
C200 C201 1.388 . S
C201 H188 0.930 . S
C201 C200 1.388 . S
C201 C202 1.390 . S
C202 C201 1.390 . S
C202 C203 1.394 . S
C202 C208 1.465 . S
C203 C198 1.399 . S
C203 C202 1.394 . S
C203 C204 1.516 . S
C204 C203 1.516 . S
C204 C205 1.502 . S
C204 C206 1.561 . S
C204 C207 1.526 . S
C205 H189 0.959 . S
C205 H190 0.959 . S
C205 H191 0.961 . S
C205 C204 1.502 . S
C206 H192 0.960 . S
C206 H193 0.961 . S
C206 H194 0.959 . S
C206 C204 1.561 . S
C207 C204 1.526 . S
C207 C208 1.396 . S
C207 C212 1.390 . S
C208 C202 1.465 . S
C208 C207 1.396 . S
C208 C209 1.399 . S
C209 H195 0.929 . S
C209 C208 1.399 . S
C209 C210 1.385 . S
C210 H196 0.931 . S
C210 C209 1.385 . S
C210 C211 1.389 . S
C211 C210 1.389 . S
C211 C212 1.387 . S
C212 H197 0.930 . S
C212 C207 1.390 . S
C212 C211 1.387 . S
H213 C225 0.930 . S
H214 C227 0.930 . S
H215 C228 0.930 . S
H216 C232 0.959 . S
H217 C232 0.959 . S
H218 C232 0.961 . S
H219 C233 0.960 . S
H220 C233 0.961 . S
H221 C233 0.959 . S
H222 C236 0.929 . S
H223 C237 0.931 . S
H224 C239 0.930 . S
C225 H213 0.930 . S
C225 C226 1.399 . S
C225 C230 1.399 . S
C226 C225 1.399 . S
C226 C227 1.376 . S
C227 H214 0.930 . S
C227 C226 1.376 . S
C227 C228 1.388 . S
C228 H215 0.930 . S
C228 C227 1.388 . S
C228 C229 1.390 . S
C229 C228 1.390 . S
C229 C230 1.394 . S
C229 C235 1.465 . S
C230 C225 1.399 . S
C230 C229 1.394 . S
C230 C231 1.516 . S
C231 C230 1.516 . S
C231 C232 1.502 . S
C231 C233 1.561 . S
C231 C234 1.526 . S
C232 H216 0.959 . S
C232 H217 0.959 . S
C232 H218 0.961 . S
C232 C231 1.502 . S
C233 H219 0.960 . S
C233 H220 0.961 . S
C233 H221 0.959 . S
C233 C231 1.561 . S
C234 C231 1.526 . S
C234 C235 1.396 . S
C234 C239 1.390 . S
C235 C229 1.465 . S
C235 C234 1.396 . S
C235 C236 1.399 . S
C236 H222 0.929 . S
C236 C235 1.399 . S
C236 C237 1.385 . S
C237 H223 0.931 . S
C237 C236 1.385 . S
C237 C238 1.389 . S
C238 C237 1.389 . S
C238 C239 1.387 . S
C239 H224 0.930 . S
C239 C234 1.390 . S
C239 C238 1.387 . S
H240 C252 0.930 . S
H241 C254 0.930 . S
H242 C255 0.930 . S
H243 C259 0.959 . S
H244 C259 0.959 . S
H245 C259 0.961 . S
H246 C260 0.960 . S
H247 C260 0.961 . S
H248 C260 0.959 . S
H249 C263 0.929 . S
H250 C264 0.931 . S
H251 C266 0.930 . S
C252 H240 0.930 . S
C252 C253 1.399 . S
C252 C257 1.399 . S
C253 C252 1.399 . S
C253 C254 1.376 . S
C254 H241 0.930 . S
C254 C253 1.376 . S
C254 C255 1.388 . S
C255 H242 0.930 . S
C255 C254 1.388 . S
C255 C256 1.390 . S
C256 C255 1.390 . S
C256 C257 1.394 . S
C256 C262 1.465 . S
C257 C252 1.399 . S
C257 C256 1.394 . S
C257 C258 1.516 . S
C258 C257 1.516 . S
C258 C259 1.502 . S
C258 C260 1.561 . S
C258 C261 1.526 . S
C259 H243 0.959 . S
C259 H244 0.959 . S
C259 H245 0.961 . S
C259 C258 1.502 . S
C260 H246 0.960 . S
C260 H247 0.961 . S
C260 H248 0.959 . S
C260 C258 1.561 . S
C261 C258 1.526 . S
C261 C262 1.396 . S
C261 C266 1.390 . S
C262 C256 1.465 . S
C262 C261 1.396 . S
C262 C263 1.399 . S
C263 H249 0.929 . S
C263 C262 1.399 . S
C263 C264 1.385 . S
C264 H250 0.931 . S
C264 C263 1.385 . S
C264 C265 1.389 . S
C265 C264 1.389 . S
C265 C266 1.387 . S
C266 H251 0.930 . S
C266 C261 1.390 . S
C266 C265 1.387 . S
H267 C279 0.930 . S
H268 C281 0.930 . S
H269 C282 0.930 . S
H270 C286 0.959 . S
H271 C286 0.959 . S
H272 C286 0.961 . S
H273 C287 0.960 . S
H274 C287 0.961 . S
H275 C287 0.959 . S
H276 C290 0.929 . S
H277 C291 0.931 . S
H278 C293 0.930 . S
C279 H267 0.930 . S
C279 C280 1.399 . S
C279 C284 1.399 . S
C280 C279 1.399 . S
C280 C281 1.376 . S
C281 H268 0.930 . S
C281 C280 1.376 . S
C281 C282 1.388 . S
C282 H269 0.930 . S
C282 C281 1.388 . S
C282 C283 1.390 . S
C283 C282 1.390 . S
C283 C284 1.394 . S
C283 C289 1.465 . S
C284 C279 1.399 . S
C284 C283 1.394 . S
C284 C285 1.516 . S
C285 C284 1.516 . S
C285 C286 1.502 . S
C285 C287 1.561 . S
C285 C288 1.526 . S
C286 H270 0.959 . S
C286 H271 0.959 . S
C286 H272 0.961 . S
C286 C285 1.502 . S
C287 H273 0.960 . S
C287 H274 0.961 . S
C287 H275 0.959 . S
C287 C285 1.561 . S
C288 C285 1.526 . S
C288 C289 1.396 . S
C288 C293 1.390 . S
C289 C283 1.465 . S
C289 C288 1.396 . S
C289 C290 1.399 . S
C290 H276 0.929 . S
C290 C289 1.399 . S
C290 C291 1.385 . S
C291 H277 0.931 . S
C291 C290 1.385 . S
C291 C292 1.389 . S
C292 C291 1.389 . S
C292 C293 1.387 . S
C293 H278 0.930 . S
C293 C288 1.390 . S
C293 C292 1.387 . S
H294 C306 0.930 . S
H295 C308 0.930 . S
H296 C309 0.930 . S
H297 C313 0.959 . S
H298 C313 0.959 . S
H299 C313 0.961 . S
H300 C314 0.960 . S
H301 C314 0.961 . S
H302 C314 0.959 . S
H303 C317 0.929 . S
H304 C318 0.931 . S
H305 C320 0.930 . S
C306 H294 0.930 . S
C306 C307 1.399 . S
C306 C311 1.399 . S
C307 C306 1.399 . S
C307 C308 1.376 . S
C308 H295 0.930 . S
C308 C307 1.376 . S
C308 C309 1.388 . S
C309 H296 0.930 . S
C309 C308 1.388 . S
C309 C310 1.390 . S
C310 C309 1.390 . S
C310 C311 1.394 . S
C310 C316 1.465 . S
C311 C306 1.399 . S
C311 C310 1.394 . S
C311 C312 1.516 . S
C312 C311 1.516 . S
C312 C313 1.502 . S
C312 C314 1.561 . S
C312 C315 1.526 . S
C313 H297 0.959 . S
C313 H298 0.959 . S
C313 H299 0.961 . S
C313 C312 1.502 . S
C314 H300 0.960 . S
C314 H301 0.961 . S
C314 H302 0.959 . S
C314 C312 1.561 . S
C315 C312 1.526 . S
C315 C316 1.396 . S
C315 C320 1.390 . S
C316 C310 1.465 . S
C316 C315 1.396 . S
C316 C317 1.399 . S
C317 H303 0.929 . S
C317 C316 1.399 . S
C317 C318 1.385 . S
C318 H304 0.931 . S
C318 C317 1.385 . S
C318 C319 1.389 . S
C319 C318 1.389 . S
C319 C320 1.387 . S
C320 H305 0.930 . S
C320 C315 1.390 . S
C320 C319 1.387 . S
H321 C333 0.930 . S
H322 C335 0.930 . S
H323 C336 0.930 . S
H324 C340 0.959 . S
H325 C340 0.959 . S
H326 C340 0.961 . S
H327 C341 0.960 . S
H328 C341 0.961 . S
H329 C341 0.959 . S
H330 C344 0.929 . S
H331 C345 0.931 . S
H332 C347 0.930 . S
C333 H321 0.930 . S
C333 C334 1.399 . S
C333 C338 1.399 . S
C334 C333 1.399 . S
C334 C335 1.376 . S
C335 H322 0.930 . S
C335 C334 1.376 . S
C335 C336 1.388 . S
C336 H323 0.930 . S
C336 C335 1.388 . S
C336 C337 1.390 . S
C337 C336 1.390 . S
C337 C338 1.394 . S
C337 C343 1.465 . S
C338 C333 1.399 . S
C338 C337 1.394 . S
C338 C339 1.516 . S
C339 C338 1.516 . S
C339 C340 1.502 . S
C339 C341 1.561 . S
C339 C342 1.526 . S
C340 H324 0.959 . S
C340 H325 0.959 . S
C340 H326 0.961 . S
C340 C339 1.502 . S
C341 H327 0.960 . S
C341 H328 0.961 . S
C341 H329 0.959 . S
C341 C339 1.561 . S
C342 C339 1.526 . S
C342 C343 1.396 . S
C342 C347 1.390 . S
C343 C337 1.465 . S
C343 C342 1.396 . S
C343 C344 1.399 . S
C344 H330 0.929 . S
C344 C343 1.399 . S
C344 C345 1.385 . S
C345 H331 0.931 . S
C345 C344 1.385 . S
C345 C346 1.389 . S
C346 C345 1.389 . S
C346 C347 1.387 . S
C347 H332 0.930 . S
C347 C342 1.390 . S
C347 C346 1.387 . S
H348 C360 0.930 . S
H349 C362 0.930 . S
H350 C363 0.930 . S
H351 C367 0.959 . S
H352 C367 0.959 . S
H353 C367 0.961 . S
H354 C368 0.960 . S
H355 C368 0.961 . S
H356 C368 0.959 . S
H357 C371 0.929 . S
H358 C372 0.931 . S
H359 C374 0.930 . S
C360 H348 0.930 . S
C360 C361 1.399 . S
C360 C365 1.399 . S
C361 C360 1.399 . S
C361 C362 1.376 . S
C362 H349 0.930 . S
C362 C361 1.376 . S
C362 C363 1.388 . S
C363 H350 0.930 . S
C363 C362 1.388 . S
C363 C364 1.390 . S
C364 C363 1.390 . S
C364 C365 1.394 . S
C364 C370 1.465 . S
C365 C360 1.399 . S
C365 C364 1.394 . S
C365 C366 1.516 . S
C366 C365 1.516 . S
C366 C367 1.502 . S
C366 C368 1.561 . S
C366 C369 1.526 . S
C367 H351 0.959 . S
C367 H352 0.959 . S
C367 H353 0.961 . S
C367 C366 1.502 . S
C368 H354 0.960 . S
C368 H355 0.961 . S
C368 H356 0.959 . S
C368 C366 1.561 . S
C369 C366 1.526 . S
C369 C370 1.396 . S
C369 C374 1.390 . S
C370 C364 1.465 . S
C370 C369 1.396 . S
C370 C371 1.399 . S
C371 H357 0.929 . S
C371 C370 1.399 . S
C371 C372 1.385 . S
C372 H358 0.931 . S
C372 C371 1.385 . S
C372 C373 1.389 . S
C373 C372 1.389 . S
C373 C374 1.387 . S
C374 H359 0.930 . S
C374 C369 1.390 . S
C374 C373 1.387 . S
H375 C387 0.930 . S
H376 C389 0.930 . S
H377 C390 0.930 . S
H378 C394 0.959 . S
H379 C394 0.959 . S
H380 C394 0.961 . S
H381 C395 0.960 . S
H382 C395 0.961 . S
H383 C395 0.959 . S
H384 C398 0.929 . S
H385 C399 0.931 . S
H386 C401 0.930 . S
C387 H375 0.930 . S
C387 C388 1.399 . S
C387 C392 1.399 . S
C388 C387 1.399 . S
C388 C389 1.376 . S
C389 H376 0.930 . S
C389 C388 1.376 . S
C389 C390 1.388 . S
C390 H377 0.930 . S
C390 C389 1.388 . S
C390 C391 1.390 . S
C391 C390 1.390 . S
C391 C392 1.394 . S
C391 C397 1.465 . S
C392 C387 1.399 . S
C392 C391 1.394 . S
C392 C393 1.516 . S
C393 C392 1.516 . S
C393 C394 1.502 . S
C393 C395 1.561 . S
C393 C396 1.526 . S
C394 H378 0.959 . S
C394 H379 0.959 . S
C394 H380 0.961 . S
C394 C393 1.502 . S
C395 H381 0.960 . S
C395 H382 0.961 . S
C395 H383 0.959 . S
C395 C393 1.561 . S
C396 C393 1.526 . S
C396 C397 1.396 . S
C396 C401 1.390 . S
C397 C391 1.465 . S
C397 C396 1.396 . S
C397 C398 1.399 . S
C398 H384 0.929 . S
C398 C397 1.399 . S
C398 C399 1.385 . S
C399 H385 0.931 . S
C399 C398 1.385 . S
C399 C400 1.389 . S
C400 C399 1.389 . S
C400 C401 1.387 . S
C401 H386 0.930 . S
C401 C396 1.390 . S
C401 C400 1.387 . S
H402 C414 0.930 . S
H403 C416 0.930 . S
H404 C417 0.930 . S
H405 C421 0.959 . S
H406 C421 0.959 . S
H407 C421 0.961 . S
H408 C422 0.960 . S
H409 C422 0.961 1_545 S
H410 C422 0.959 . S
H411 C425 0.929 . S
H412 C426 0.931 . S
H413 C428 0.930 . S
C414 H402 0.930 . S
C414 C415 1.399 . S
C414 C419 1.399 . S
C415 C414 1.399 . S
C415 C416 1.376 . S
C416 H403 0.930 . S
C416 C415 1.376 . S
C416 C417 1.388 . S
C417 H404 0.930 . S
C417 C416 1.388 . S
C417 C418 1.390 . S
C418 C417 1.390 . S
C418 C419 1.394 . S
C418 C424 1.465 . S
C419 C414 1.399 . S
C419 C418 1.394 . S
C419 C420 1.516 . S
C420 C419 1.516 . S
C420 C421 1.502 1_565 S
C420 C422 1.561 . S
C420 C423 1.526 . S
C421 H405 0.959 . S
C421 H406 0.959 . S
C421 H407 0.961 . S
C421 C420 1.502 1_545 S
C422 H408 0.960 . S
C422 H409 0.961 1_565 S
C422 H410 0.959 . S
C422 C420 1.561 . S
C423 C420 1.526 . S
C423 C424 1.396 . S
C423 C428 1.390 1_565 S
C424 C418 1.465 . S
C424 C423 1.396 . S
C424 C425 1.399 . S
C425 H411 0.929 . S
C425 C424 1.399 . S
C425 C426 1.385 . S
C426 H412 0.931 . S
C426 C425 1.385 . S
C426 C427 1.401 . S
C427 C426 1.401 . S
C427 C428 1.381 1_565 S
C428 H413 0.930 . S
C428 C423 1.390 1_545 S
C428 C427 1.381 1_545 S
H429 C441 0.930 . S
H430 C443 0.930 . S
H431 C444 0.930 . S
H432 C448 0.959 . S
H433 C448 0.959 . S
H434 C448 0.961 . S
H435 C449 0.960 . S
H436 C449 0.961 . S
H437 C449 0.959 . S
H438 C452 0.929 . S
H439 C453 0.931 . S
H440 C455 0.930 . S
C441 H429 0.930 . S
C441 C442 1.399 . S
C441 C446 1.399 . S
C442 C441 1.399 . S
C442 C443 1.376 . S
C443 H430 0.930 . S
C443 C442 1.376 . S
C443 C444 1.388 . S
C444 H431 0.930 . S
C444 C443 1.388 . S
C444 C445 1.390 . S
C445 C444 1.390 . S
C445 C446 1.394 . S
C445 C451 1.465 . S
C446 C441 1.399 . S
C446 C445 1.394 . S
C446 C447 1.516 . S
C447 C446 1.516 . S
C447 C448 1.502 . S
C447 C449 1.561 . S
C447 C450 1.526 . S
C448 H432 0.959 . S
C448 H433 0.959 . S
C448 H434 0.961 . S
C448 C447 1.502 . S
C449 H435 0.960 . S
C449 H436 0.961 . S
C449 H437 0.959 . S
C449 C447 1.561 . S
C450 C447 1.526 . S
C450 C451 1.396 . S
C450 C455 1.390 . S
C451 C445 1.465 . S
C451 C450 1.396 . S
C451 C452 1.399 . S
C452 H438 0.929 . S
C452 C451 1.399 . S
C452 C453 1.385 . S
C453 H439 0.931 . S
C453 C452 1.385 . S
C453 C454 1.389 . S
C454 C453 1.389 . S
C454 C455 1.387 . S
C455 H440 0.930 . S
C455 C450 1.390 . S
C455 C454 1.387 . S
H456 C468 0.930 . S
H457 C470 0.930 . S
H458 C471 0.930 . S
H459 C475 0.959 . S
H460 C475 0.959 . S
H461 C475 0.961 . S
H462 C476 0.960 . S
H463 C476 0.961 . S
H464 C476 0.959 . S
H465 C479 0.929 . S
H466 C480 0.931 . S
H467 C482 0.930 . S
C468 H456 0.930 . S
C468 C469 1.399 . S
C468 C473 1.399 . S
C469 C468 1.399 . S
C469 C470 1.376 . S
C470 H457 0.930 . S
C470 C469 1.376 . S
C470 C471 1.388 . S
C471 H458 0.930 . S
C471 C470 1.388 . S
C471 C472 1.390 . S
C472 C471 1.390 . S
C472 C473 1.394 . S
C472 C478 1.465 . S
C473 C468 1.399 . S
C473 C472 1.394 . S
C473 C474 1.516 . S
C474 C473 1.516 . S
C474 C475 1.502 . S
C474 C476 1.561 . S
C474 C477 1.526 . S
C475 H459 0.959 . S
C475 H460 0.959 . S
C475 H461 0.961 . S
C475 C474 1.502 . S
C476 H462 0.960 . S
C476 H463 0.961 . S
C476 H464 0.959 . S
C476 C474 1.561 . S
C477 C474 1.526 . S
C477 C478 1.396 . S
C477 C482 1.390 . S
C478 C472 1.465 . S
C478 C477 1.396 . S
C478 C479 1.399 . S
C479 H465 0.929 . S
C479 C478 1.399 . S
C479 C480 1.385 . S
C480 H466 0.931 . S
C480 C479 1.385 . S
C480 C481 1.389 . S
C481 C480 1.389 . S
C481 C482 1.387 . S
C482 H467 0.930 . S
C482 C477 1.390 . S
C482 C481 1.387 . S
H483 C495 0.930 . S
H484 C497 0.930 . S
H485 C498 0.930 . S
H486 C502 0.959 . S
H487 C502 0.959 . S
H488 C502 0.961 . S
H489 C503 0.960 . S
H490 C503 0.961 . S
H491 C503 0.959 . S
H492 C506 0.929 . S
H493 C507 0.931 . S
H494 C509 0.930 . S
C495 H483 0.930 . S
C495 C496 1.399 . S
C495 C500 1.399 . S
C496 C495 1.399 . S
C496 C497 1.376 . S
C497 H484 0.930 . S
C497 C496 1.376 . S
C497 C498 1.388 . S
C498 H485 0.930 . S
C498 C497 1.388 . S
C498 C499 1.390 . S
C499 C498 1.390 . S
C499 C500 1.394 . S
C499 C505 1.465 . S
C500 C495 1.399 . S
C500 C499 1.394 . S
C500 C501 1.516 . S
C501 C500 1.516 . S
C501 C502 1.502 . S
C501 C503 1.561 . S
C501 C504 1.526 . S
C502 H486 0.959 . S
C502 H487 0.959 . S
C502 H488 0.961 . S
C502 C501 1.502 . S
C503 H489 0.960 . S
C503 H490 0.961 . S
C503 H491 0.959 . S
C503 C501 1.561 . S
C504 C501 1.526 . S
C504 C505 1.396 . S
C504 C509 1.390 . S
C505 C499 1.465 . S
C505 C504 1.396 . S
C505 C506 1.399 . S
C506 H492 0.929 . S
C506 C505 1.399 . S
C506 C507 1.385 . S
C507 H493 0.931 . S
C507 C506 1.385 . S
C507 C508 1.389 . S
C508 C507 1.389 . S
C508 C509 1.387 . S
C509 H494 0.930 . S
C509 C504 1.390 . S
C509 C508 1.387 . S
H510 C522 0.930 . S
H511 C524 0.930 . S
H512 C525 0.930 . S
H513 C529 0.959 1_655 S
H514 C529 0.959 1_556 S
H515 C529 0.961 . S
H516 C530 0.960 . S
H517 C530 0.961 . S
H518 C530 0.959 . S
H519 C533 0.932 . S
H520 C534 0.931 . S
H521 C536 0.930 . S
C522 H510 0.930 . S
C522 C523 1.399 . S
C522 C527 1.399 . S
C523 C522 1.399 . S
C523 C524 1.376 . S
C524 H511 0.930 . S
C524 C523 1.376 . S
C524 C525 1.388 . S
C525 H512 0.930 . S
C525 C524 1.388 . S
C525 C526 1.390 . S
C526 C525 1.390 . S
C526 C527 1.394 . S
C526 C532 1.465 . S
C527 C522 1.399 . S
C527 C526 1.394 . S
C527 C528 1.516 . S
C528 C527 1.516 . S
C528 C529 1.502 . S
C528 C530 1.561 . S
C528 C531 1.526 1_554 S
C529 H513 0.959 1_455 S
C529 H514 0.959 1_554 S
C529 H515 0.961 . S
C529 C528 1.502 . S
C530 H516 0.960 . S
C530 H517 0.961 . S
C530 H518 0.959 . S
C530 C528 1.561 . S
C531 C528 1.526 1_556 S
C531 C532 1.396 1_556 S
C531 C536 1.390 . S
C532 C526 1.465 . S
C532 C531 1.396 1_554 S
C532 C533 1.399 1_554 S
C533 H519 0.932 . S
C533 C532 1.399 1_556 S
C533 C534 1.385 . S
C534 H520 0.931 . S
C534 C533 1.385 . S
C534 C535 1.389 . S
C535 C534 1.389 . S
C535 C536 1.387 . S
C536 H521 0.930 . S
C536 C531 1.390 . S
C536 C535 1.387 . S
H537 C549 0.930 1_565 S
H538 C551 0.930 . S
H539 C552 0.930 . S
H540 C556 0.959 . S
H541 C556 0.959 . S
H542 C556 0.961 . S
H543 C557 0.960 . S
H544 C557 0.961 . S
H545 C557 0.959 . S
H546 C560 0.929 . S
H547 C561 0.931 . S
H548 C563 0.930 . S
C549 H537 0.930 1_545 S
C549 C550 1.399 . S
C549 C554 1.399 . S
C550 C549 1.399 . S
C550 C551 1.376 . S
C551 H538 0.930 . S
C551 C550 1.376 . S
C551 C552 1.388 . S
C552 H539 0.930 . S
C552 C551 1.388 . S
C552 C553 1.390 . S
C553 C552 1.390 . S
C553 C554 1.394 . S
C553 C559 1.465 . S
C554 C549 1.399 . S
C554 C553 1.394 . S
C554 C555 1.516 . S
C555 C554 1.516 . S
C555 C556 1.502 1_545 S
C555 C557 1.561 1_545 S
C555 C558 1.526 . S
C556 H540 0.959 . S
C556 H541 0.959 . S
C556 H542 0.961 . S
C556 C555 1.502 1_565 S
C557 H543 0.960 . S
C557 H544 0.961 . S
C557 H545 0.959 . S
C557 C555 1.561 1_565 S
C558 C555 1.526 . S
C558 C559 1.396 . S
C558 C563 1.390 . S
C559 C553 1.465 . S
C559 C558 1.396 . S
C559 C560 1.399 . S
C560 H546 0.929 . S
C560 C559 1.399 . S
C560 C561 1.385 . S
C561 H547 0.931 . S
C561 C560 1.385 . S
C561 C562 1.389 . S
C562 C561 1.389 . S
C562 C563 1.387 . S
C563 H548 0.930 . S
C563 C558 1.390 . S
C563 C562 1.387 . S
H564 C576 0.930 . S
H565 C578 0.930 . S
H566 C579 0.930 . S
H567 C583 0.959 . S
H568 C583 0.959 . S
H569 C583 0.961 . S
H570 C584 0.960 . S
H571 C584 0.961 . S
H572 C584 0.959 . S
H573 C587 0.929 . S
H574 C588 0.931 . S
H575 C590 0.930 . S
C576 H564 0.930 . S
C576 C577 1.399 . S
C576 C581 1.399 . S
C577 C576 1.399 . S
C577 C578 1.376 . S
C578 H565 0.930 . S
C578 C577 1.376 . S
C578 C579 1.388 . S
C579 H566 0.930 . S
C579 C578 1.388 . S
C579 C580 1.390 . S
C580 C579 1.390 . S
C580 C581 1.394 . S
C580 C586 1.465 . S
C581 C576 1.399 . S
C581 C580 1.394 . S
C581 C582 1.516 . S
C582 C581 1.516 . S
C582 C583 1.502 . S
C582 C584 1.561 . S
C582 C585 1.526 . S
C583 H567 0.959 . S
C583 H568 0.959 . S
C583 H569 0.961 . S
C583 C582 1.502 . S
C584 H570 0.960 . S
C584 H571 0.961 . S
C584 H572 0.959 . S
C584 C582 1.561 . S
C585 C582 1.526 . S
C585 C586 1.396 . S
C585 C590 1.390 . S
C586 C580 1.465 . S
C586 C585 1.396 . S
C586 C587 1.399 . S
C587 H573 0.929 . S
C587 C586 1.399 . S
C587 C588 1.385 . S
C588 H574 0.931 . S
C588 C587 1.385 . S
C588 C589 1.389 . S
C589 C588 1.389 . S
C589 C590 1.387 . S
C590 H575 0.930 . S
C590 C585 1.390 . S
C590 C589 1.387 . S
H591 C603 0.930 . S
H592 C605 0.930 . S
H593 C606 0.930 . S
H594 C610 0.959 . S
H595 C610 0.959 . S
H596 C610 0.961 . S
H597 C611 0.960 . S
H598 C611 0.961 . S
H599 C611 0.959 . S
H600 C614 0.929 . S
H601 C615 0.931 . S
H602 C617 0.930 . S
C603 H591 0.930 . S
C603 C604 1.399 . S
C603 C608 1.399 . S
C604 C603 1.399 . S
C604 C605 1.376 1_545 S
C605 H592 0.930 . S
C605 C604 1.376 1_565 S
C605 C606 1.388 . S
C606 H593 0.930 . S
C606 C605 1.388 . S
C606 C607 1.390 1_565 S
C607 C606 1.390 1_545 S
C607 C608 1.394 . S
C607 C613 1.465 . S
C608 C603 1.399 . S
C608 C607 1.394 . S
C608 C609 1.516 . S
C609 C608 1.516 . S
C609 C610 1.502 . S
C609 C611 1.561 . S
C609 C612 1.526 . S
C610 H594 0.959 . S
C610 H595 0.959 . S
C610 H596 0.961 . S
C610 C609 1.502 . S
C611 H597 0.960 . S
C611 H598 0.961 . S
C611 H599 0.959 . S
C611 C609 1.561 . S
C612 C609 1.526 . S
C612 C613 1.396 . S
C612 C617 1.390 . S
C613 C607 1.465 . S
C613 C612 1.396 . S
C613 C614 1.399 1_545 S
C614 H600 0.929 . S
C614 C613 1.399 1_565 S
C614 C615 1.385 . S
C615 H601 0.931 . S
C615 C614 1.385 . S
C615 C616 1.389 1_565 S
C616 C615 1.389 1_545 S
C616 C617 1.387 . S
C617 H602 0.930 . S
C617 C612 1.390 . S
C617 C616 1.387 . S
H618 C630 0.930 . S
H619 C632 0.930 . S
H620 C633 0.930 . S
H621 C637 0.959 . S
H622 C637 0.959 1_554 S
H623 C637 0.961 . S
H624 C638 0.960 . S
H625 C638 0.961 . S
H626 C638 0.959 . S
H627 C641 0.929 . S
H628 C642 0.931 . S
H629 C644 0.930 . S
C630 H618 0.930 . S
C630 C631 1.399 . S
C630 C635 1.399 . S
C631 C630 1.399 . S
C631 C632 1.376 . S
C632 H619 0.930 . S
C632 C631 1.376 . S
C632 C633 1.388 . S
C633 H620 0.930 . S
C633 C632 1.388 . S
C633 C634 1.390 . S
C634 C633 1.390 . S
C634 C635 1.394 . S
C634 C640 1.474 . S
C635 C630 1.399 . S
C635 C634 1.394 . S
C635 C636 1.516 . S
C636 C635 1.516 . S
C636 C637 1.502 . S
C636 C638 1.561 . S
C636 C639 1.526 1_556 S
C637 H621 0.959 . S
C637 H622 0.959 1_556 S
C637 H623 0.961 . S
C637 C636 1.502 . S
C638 H624 0.960 . S
C638 H625 0.961 . S
C638 H626 0.959 . S
C638 C636 1.561 . S
C639 C636 1.526 1_554 S
C639 C640 1.394 1_554 S
C639 C644 1.390 . S
C640 C634 1.474 . S
C640 C639 1.394 1_556 S
C640 C641 1.392 1_556 S
C641 H627 0.929 . S
C641 C640 1.392 1_554 S
C641 C642 1.385 . S
C642 H628 0.931 . S
C642 C641 1.385 . S
C642 C643 1.389 . S
C643 C642 1.389 . S
C643 C644 1.387 . S
C644 H629 0.930 . S
C644 C639 1.390 . S
C644 C643 1.387 . S
H645 C657 0.930 1_655 S
H646 C659 0.930 . S
H647 C660 0.930 . S
H648 C664 0.959 . S
H649 C664 0.959 . S
H650 C664 0.961 . S
H651 C665 0.960 . S
H652 C665 0.961 . S
H653 C665 0.959 . S
H654 C668 0.929 . S
H655 C669 0.931 . S
H656 C671 0.930 1_655 S
C657 H645 0.930 1_455 S
C657 C658 1.399 . S
C657 C662 1.399 . S
C658 C657 1.399 . S
C658 C659 1.376 . S
C659 H646 0.930 . S
C659 C658 1.376 . S
C659 C660 1.388 . S
C660 H647 0.930 . S
C660 C659 1.388 . S
C660 C661 1.390 . S
C661 C660 1.390 . S
C661 C662 1.394 . S
C661 C667 1.465 . S
C662 C657 1.399 . S
C662 C661 1.394 . S
C662 C663 1.516 1_455 S
C663 C662 1.516 1_655 S
C663 C664 1.502 . S
C663 C665 1.561 1_655 S
C663 C666 1.526 1_655 S
C664 H648 0.959 . S
C664 H649 0.959 . S
C664 H650 0.961 . S
C664 C663 1.502 . S
C665 H651 0.960 . S
C665 H652 0.961 . S
C665 H653 0.959 . S
C665 C663 1.561 1_455 S
C666 C663 1.526 1_455 S
C666 C667 1.396 . S
C666 C671 1.390 . S
C667 C661 1.465 . S
C667 C666 1.396 . S
C667 C668 1.399 . S
C668 H654 0.929 . S
C668 C667 1.399 . S
C668 C669 1.385 . S
C669 H655 0.931 . S
C669 C668 1.385 . S
C669 C670 1.389 . S
C670 C669 1.389 . S
C670 C671 1.387 . S
C671 H656 0.930 1_455 S
C671 C666 1.390 . S
C671 C670 1.387 . S
C199 C24 3.030 . S
C211 C185 2.971 . S
C226 C66 1.163 . S
C238 C163 1.184 . S
C253 C93 1.821 . S
C265 C174 1.779 . S
C280 C13 2.978 . S
C292 C179 2.930 . S
C319 C157 1.117 . S
C307 C57 1.102 . S
C346 C168 1.844 . S
C334 C104 1.847 . S
C361 C64 1.975 . S
C373 C141 1.909 . S
C388 C97 0.480 . S
C400 C146 0.452 . S
C415 C17 1.171 . S
C427 C124 1.230 1_565 S
C454 C135 1.717 . S
C442 C53 1.726 . S
C481 C152 0.313 . S
C469 C106 0.406 . S
C496 C26 1.185 . S
C508 C130 1.203 . S
C535 C147 1.215 . S
C523 C2 1.151 . S
C550 C63 1.477 . S
C562 C125 1.494 . S
C577 C82 1.404 . S
C589 C136 1.473 . S
C616 C169 1.459 . S
C604 C42 1.450 . S
C643 C180 1.742 . S
C631 C103 1.738 . S
C658 C23 1.509 . S
C670 C158 1.518 . S
