# Generated by pormake.
# Topology zzz, (3,6)-cn, num edge types: 1
# Building blocks:
#     Node 0, Type 0, BuildingBlock: ESEHIV_clean_linker_0, # of connection points: 3
#     Node 1, Type 0, BuildingBlock: ESEHIV_clean_linker_0, # of connection points: 3
#     Node 2, Type 0, BuildingBlock: ESEHIV_clean_linker_0, # of connection points: 3
#     Node 3, Type 0, BuildingBlock: ESEHIV_clean_linker_0, # of connection points: 3
#     Node 4, Type 0, BuildingBlock: ESEHIV_clean_linker_0, # of connection points: 3
#     Node 5, Type 0, BuildingBlock: ESEHIV_clean_linker_0, # of connection points: 3
#     Node 6, Type 0, BuildingBlock: ESEHIV_clean_linker_0, # of connection points: 3
#     Node 7, Type 0, BuildingBlock: ESEHIV_clean_linker_0, # of connection points: 3
#     Node 8, Type 1, BuildingBlock: MIFKUJ_clean_sbu_0, # of connection points: 6
#     Node 9, Type 1, BuildingBlock: MIFKUJ_clean_sbu_0, # of connection points: 6
#     Node 10, Type 1, BuildingBlock: MIFKUJ_clean_sbu_0, # of connection points: 6
#     Node 11, Type 1, BuildingBlock: MIFKUJ_clean_sbu_0, # of connection points: 6
#     Edge 12, Type (0, 1), BuildingBlock: KIFKEQ_clean_linker_1, # of connection points: 2
#     Edge 13, Type (0, 1), BuildingBlock: KIFKEQ_clean_linker_1, # of connection points: 2
#     Edge 14, Type (0, 1), BuildingBlock: KIFKEQ_clean_linker_1, # of connection points: 2
#     Edge 15, Type (0, 1), BuildingBlock: KIFKEQ_clean_linker_1, # of connection points: 2
#     Edge 16, Type (0, 1), BuildingBlock: KIFKEQ_clean_linker_1, # of connection points: 2
#     Edge 17, Type (0, 1), BuildingBlock: KIFKEQ_clean_linker_1, # of connection points: 2
#     Edge 18, Type (0, 1), BuildingBlock: KIFKEQ_clean_linker_1, # of connection points: 2
#     Edge 19, Type (0, 1), BuildingBlock: KIFKEQ_clean_linker_1, # of connection points: 2
#     Edge 20, Type (0, 1), BuildingBlock: KIFKEQ_clean_linker_1, # of connection points: 2
#     Edge 21, Type (0, 1), BuildingBlock: KIFKEQ_clean_linker_1, # of connection points: 2
#     Edge 22, Type (0, 1), BuildingBlock: KIFKEQ_clean_linker_1, # of connection points: 2
#     Edge 23, Type (0, 1), BuildingBlock: KIFKEQ_clean_linker_1, # of connection points: 2
#     Edge 24, Type (0, 1), BuildingBlock: KIFKEQ_clean_linker_1, # of connection points: 2
#     Edge 25, Type (0, 1), BuildingBlock: KIFKEQ_clean_linker_1, # of connection points: 2
#     Edge 26, Type (0, 1), BuildingBlock: KIFKEQ_clean_linker_1, # of connection points: 2
#     Edge 27, Type (0, 1), BuildingBlock: KIFKEQ_clean_linker_1, # of connection points: 2
#     Edge 28, Type (0, 1), BuildingBlock: KIFKEQ_clean_linker_1, # of connection points: 2
#     Edge 29, Type (0, 1), BuildingBlock: KIFKEQ_clean_linker_1, # of connection points: 2
#     Edge 30, Type (0, 1), BuildingBlock: KIFKEQ_clean_linker_1, # of connection points: 2
#     Edge 31, Type (0, 1), BuildingBlock: KIFKEQ_clean_linker_1, # of connection points: 2
#     Edge 32, Type (0, 1), BuildingBlock: KIFKEQ_clean_linker_1, # of connection points: 2
#     Edge 33, Type (0, 1), BuildingBlock: KIFKEQ_clean_linker_1, # of connection points: 2
#     Edge 34, Type (0, 1), BuildingBlock: KIFKEQ_clean_linker_1, # of connection points: 2
#     Edge 35, Type (0, 1), BuildingBlock: KIFKEQ_clean_linker_1, # of connection points: 2
# Relax obj value: 0.322
# Max RMSD: 0.207
# Mean RMSD: 0.191
data_MOF--net-zzz--node1-MIFKUJ_clean_sbu_0--node2-ESEHIV_clean_linker_0--edge1-KIFKEQ_clean_linker_1
_symmetry_space_group_name_H-M    P1
_symmetry_Int_Tables_number       1
_symmetry_cell_setting            triclinic
loop_
_symmetry_equiv_pos_as_xyz
'x, y, z'
_cell_length_a     44.369922
_cell_length_b     45.010333
_cell_length_c     16.837882
_cell_angle_alpha  89.102703
_cell_angle_beta   89.930072
_cell_angle_gamma 91.641143
loop_
_atom_site_label
_atom_site_type_symbol
_atom_site_fract_x
_atom_site_fract_y
_atom_site_fract_z
_atom_type_partial_charge
H0 H 0.77892 0.58809 0.10765 0.0
H1 H 0.70644 0.58324 0.94213 0.0
H2 H 0.68727 0.59026 0.19238 0.0
C3 C 0.75495 0.58979 0.09594 0.0
C4 C 0.73465 0.59183 0.15926 0.0
C5 C 0.74469 0.58614 0.01872 0.0
C6 C 0.71407 0.58702 0.00248 0.0
C7 C 0.69303 0.58906 0.06423 0.0
C8 C 0.70329 0.5906 0.14375 0.0
H9 H 0.98923 0.77856 0.13389 0.0
H10 H 0.99323 0.71067 0.95943 0.0
H11 H 0.98525 0.68652 0.208 0.0
C12 C 0.98804 0.75516 0.11896 0.0
C13 C 0.98618 0.73373 0.17987 0.0
C14 C 0.99114 0.747 0.04003 0.0
C15 C 0.99075 0.71699 0.02098 0.0
C16 C 0.98779 0.69503 0.08077 0.0
C17 C 0.98614 0.7033 0.16118 0.0
H18 H 0.71795 0.90343 0.10376 0.0
H19 H 0.79495 0.91189 0.95183 0.0
H20 H 0.80439 0.92827 0.20169 0.0
C21 C 0.74224 0.90566 0.09728 0.0
C22 C 0.75988 0.91303 0.16373 0.0
C23 C 0.75457 0.9064 0.02087 0.0
C24 C 0.78558 0.91072 0.01146 0.0
C25 C 0.80379 0.91854 0.07611 0.0
C26 C 0.79086 0.92025 0.15254 0.0
H27 H 0.45687 0.71757 0.13185 0.0
H28 H 0.49233 0.80358 0.19998 0.0
H29 H 0.45593 0.79031 0.96497 0.0
C30 C 0.461 0.741 0.11831 0.0
C31 C 0.4544 0.75203 0.04256 0.0
C32 C 0.47479 0.75913 0.17534 0.0
C33 C 0.48147 0.78936 0.15663 0.0
C34 C 0.47393 0.80081 0.08061 0.0
C35 C 0.4607 0.78188 0.02425 0.0
H36 H 0.22068 0.40876 0.1044 0.0
H37 H 0.29952 0.41802 0.24888 0.0
H38 H 0.30417 0.4405 -0.0002 0.0
C39 C 0.24492 0.41222 0.10896 0.0
C40 C 0.26119 0.42212 0.04167 0.0
C41 C 0.25831 0.41204 0.18405 0.0
C42 C 0.28928 0.41773 0.19036 0.0
C43 C 0.30614 0.42767 0.12426 0.0
C44 C 0.2919 0.43067 0.04978 0.0
H45 H 0.00017 0.22653 0.07835 0.0
H46 H 0.99724 0.30224 0.22807 0.0
H47 H 0.02407 0.31361 0.98258 0.0
C48 C 0.00337 0.25033 0.08601 0.0
C49 C 0.01338 0.26839 0.02217 0.0
C50 C 0.99753 0.26255 0.15962 0.0
C51 C 0.00179 0.29293 0.17032 0.0
C52 C 0.01109 0.31157 0.107 0.0
C53 C 0.01704 0.29936 0.03205 0.0
H54 H 0.27658 0.09676 0.10519 0.0
H55 H 0.19667 0.09235 0.24754 0.0
H56 H 0.19203 0.0702 -8e-05 0.0
C57 C 0.25217 0.09469 0.10909 0.0
C58 C 0.23582 0.08519 0.04272 0.0
C59 C 0.23829 0.09635 0.18324 0.0
C60 C 0.20713 0.09211 0.18923 0.0
C61 C 0.19 0.08357 0.12293 0.0
C62 C 0.20455 0.07928 0.0496 0.0
H63 H 0.54833 0.29725 0.08173 0.0
H64 H 0.50198 0.21571 0.02072 0.0
H65 H 0.56257 0.21812 0.22059 0.0
C66 C 0.545 0.27351 0.09136 0.0
C67 C 0.55803 0.25966 0.15752 0.0
C68 C 0.52529 0.25792 0.0409 0.0
C69 C 0.51837 0.2276 0.0568 0.0
C70 C 0.53233 0.21309 0.1215 0.0
C71 C 0.55264 0.22913 0.16961 0.0
Zn72 Zn 0.98621 0.0471 0.60749 0.0
Zn73 Zn 0.00878 0.9605 0.58842 0.0
C74 C 0.9907 0.08425 0.73628 0.0
O75 O 0.96196 0.07634 0.73574 0.0
C76 C 0.01766 0.91032 0.49819 0.0
O77 O 0.04537 0.91879 0.5162 0.0
O78 O 0.96191 0.07784 0.55165 0.0
O79 O 0.01519 0.03413 0.5234 0.0
O80 O 0.03125 0.98816 0.51419 0.0
C81 C 0.97879 0.10051 0.53701 0.0
O82 O 0.00772 0.09961 0.55285 0.0
O83 O 0.00847 0.07127 0.68981 0.0
C84 C 0.0202 0.92099 0.7012 0.0
O85 O 0.99166 0.91754 0.68218 0.0
O86 O 0.0362 0.9413 0.66725 0.0
O87 O 0.97359 0.97327 0.6553 0.0
O88 O 0.95827 0.01922 0.6676 0.0
O89 O 0.99591 0.92623 0.51949 0.0
C90 C 0.03133 0.01501 0.49045 0.0
C91 C 0.95567 0.99173 0.68425 0.0
Zn92 Zn 0.45265 0.01384 0.60145 0.0
Zn93 Zn 0.54667 0.99852 0.59675 0.0
C94 C 0.40564 0.02572 0.70096 0.0
O95 O 0.39882 0.99954 0.6716 0.0
C96 C 0.59328 0.98844 0.49242 0.0
O97 O 0.59553 0.01699 0.50726 0.0
O98 O 0.4204 0.00912 0.51949 0.0
O99 O 0.48728 0.03597 0.54368 0.0
O100 O 0.53691 0.03583 0.53535 0.0
C101 C 0.41415 0.03517 0.49571 0.0
O102 O 0.4298 0.05802 0.52289 0.0
O103 O 0.43081 0.03844 0.68275 0.0
C104 C 0.58354 0.97994 0.70825 0.0
O105 O 0.5685 0.9565 0.68242 0.0
O106 O 0.57766 0.00549 0.68024 0.0
O107 O 0.51148 0.97665 0.6529 0.0
O108 O 0.46181 0.97565 0.66014 0.0
O109 O 0.57093 0.9734 0.52126 0.0
C110 C 0.51191 0.04668 0.51499 0.0
C111 C 0.48701 0.96549 0.6815 0.0
Zn112 Zn 0.52275 0.47626 0.57247 0.0
Zn113 Zn 0.48032 0.53229 0.6235 0.0
C114 C 0.51844 0.43739 0.70992 0.0
O115 O 0.54588 0.44836 0.7202 0.0
C116 C 0.47623 0.57844 0.51343 0.0
O117 O 0.44878 0.56701 0.52121 0.0
O118 O 0.54944 0.44782 0.5166 0.0
O119 O 0.49352 0.48897 0.48639 0.0
O120 O 0.45513 0.50404 0.55725 0.0
C121 C 0.53302 0.42618 0.4924 0.0
O122 O 0.50366 0.42723 0.50178 0.0
O123 O 0.50238 0.4478 0.65393 0.0
C124 C 0.47061 0.57426 0.73147 0.0
O125 O 0.49998 0.57309 0.72298 0.0
O126 O 0.45372 0.55652 0.69234 0.0
O127 O 0.50955 0.51495 0.70408 0.0
O128 O 0.54845 0.5078 0.62739 0.0
O129 O 0.49758 0.56557 0.54986 0.0
C130 C 0.46549 0.49345 0.4935 0.0
C131 C 0.5378 0.51647 0.6928 0.0
Zn132 Zn 0.04699 0.49881 0.60092 0.0
Zn133 Zn 0.95157 0.51115 0.57187 0.0
C134 C 0.08305 0.48671 0.73464 0.0
O135 O 0.08082 0.51568 0.73782 0.0
C136 C 0.90568 0.52274 0.46518 0.0
O137 O 0.90512 0.49367 0.47379 0.0
O138 O 0.08146 0.50526 0.52574 0.0
O139 O 0.01272 0.47984 0.53607 0.0
O140 O 0.96452 0.47697 0.50622 0.0
C141 C 0.08696 0.47955 0.50032 0.0
O142 O 0.06996 0.45679 0.52381 0.0
O143 O 0.06711 0.47245 0.68417 0.0
C144 C 0.90956 0.52322 0.67566 0.0
O145 O 0.92165 0.54875 0.65135 0.0
O146 O 0.92071 0.49914 0.65283 0.0
O147 O 0.98616 0.5314 0.63106 0.0
O148 O 0.03471 0.53622 0.65548 0.0
O149 O 0.92698 0.53769 0.49791 0.0
C150 C 0.99116 0.46822 0.4962 0.0
C151 C 0.00787 0.54404 0.66803 0.0
H152 H 0.16606 0.02754 0.11489 0.0
H153 H 0.14444 0.11735 0.17324 0.0
H154 H 0.12195 0.00891 0.18945 0.0
H155 H 0.10093 0.09907 0.2493 0.0
H156 H 0.0219 0.05984 0.3828 0.0
H157 H 0.05331 0.07454 0.26873 0.0
H158 H 0.11536 0.00552 0.33015 0.0
H159 H 0.08326 0.9901 0.44147 0.0
C160 C 0.15101 0.04334 0.14053 0.0
C161 C 0.15845 0.07384 0.13825 0.0
C162 C 0.12608 0.0327 0.18458 0.0
C163 C 0.10829 0.05243 0.22721 0.0
C164 C 0.11398 0.08317 0.21733 0.0
C165 C 0.13885 0.09375 0.17338 0.0
C166 C 0.04222 0.04779 0.37152 0.0
C167 C 0.0503 0.024 0.4214 0.0
C168 C 0.06018 0.05615 0.30608 0.0
C169 C 0.08689 0.04121 0.28985 0.0
C170 C 0.09463 0.01712 0.33937 0.0
C171 C 0.07642 0.00847 0.40392 0.0
H172 H 0.56779 0.16504 0.12845 0.0
H173 H 0.47857 0.19384 0.18446 0.0
H174 H 0.56057 0.12212 0.21764 0.0
H175 H 0.4713 0.1511 0.27506 0.0
H176 H 0.46673 0.05974 0.40936 0.0
H177 H 0.46814 0.09625 0.30037 0.0
H178 H 0.55967 0.12112 0.36299 0.0
H179 H 0.5579 0.08526 0.47281 0.0
C180 C 0.54614 0.16144 0.15743 0.0
C181 C 0.52365 0.18259 0.14908 0.0
C182 C 0.54217 0.13718 0.20967 0.0
C183 C 0.51566 0.13359 0.25521 0.0
C184 C 0.49201 0.15319 0.24106 0.0
C185 C 0.49601 0.17752 0.18852 0.0
C186 C 0.48674 0.07369 0.40164 0.0
C187 C 0.51183 0.07014 0.45164 0.0
C188 C 0.48773 0.09431 0.3382 0.0
C189 C 0.5141 0.11147 0.3223 0.0
C190 C 0.53915 0.1079 0.37243 0.0
C191 C 0.53805 0.08752 0.43602 0.0
H192 H 0.35739 0.39788 0.15362 0.0
H193 H 0.32103 0.48559 0.14351 0.0
H194 H 0.39959 0.41658 0.23373 0.0
H195 H 0.36299 0.50443 0.2243 0.0
H196 H 0.4057 0.50616 0.47825 0.0
H197 H 0.37183 0.49316 0.36938 0.0
H198 H 0.44477 0.45157 0.24761 0.0
H199 H 0.47876 0.46445 0.35654 0.0
C200 C 0.35937 0.42148 0.16507 0.0
C201 C 0.33639 0.44045 0.14121 0.0
C202 C 0.38331 0.43217 0.21165 0.0
C203 C 0.38433 0.46189 0.23637 0.0
C204 C 0.36262 0.48136 0.20689 0.0
C205 C 0.33894 0.47074 0.15941 0.0
C206 C 0.41461 0.49441 0.42813 0.0
C207 C 0.44496 0.48631 0.42639 0.0
C208 C 0.39525 0.4872 0.36533 0.0
C209 C 0.40571 0.47155 0.29953 0.0
C210 C 0.43607 0.46361 0.29748 0.0
C211 C 0.45552 0.47105 0.35995 0.0
H212 H 0.06042 0.34376 0.15322 0.0
H213 H 0.96517 0.34926 0.10876 0.0
H214 H 0.05844 0.38702 0.23915 0.0
H215 H 0.96263 0.39159 0.19609 0.0
H216 H 0.96549 0.47152 0.35098 0.0
H217 H 0.97428 0.44083 0.23583 0.0
H218 H 0.03813 0.39018 0.37175 0.0
H219 H 0.02895 0.42091 0.48709 0.0
C220 C 0.0394 0.35526 0.15859 0.0
C221 C 0.01303 0.34357 0.12367 0.0
C222 C 0.03805 0.37956 0.20928 0.0
C223 C 0.01023 0.39236 0.22635 0.0
C224 C 0.9845 0.38253 0.18433 0.0
C225 C 0.98594 0.35841 0.13336 0.0
C226 C 0.98153 0.45388 0.35606 0.0
C227 C 0.99706 0.449 0.42764 0.0
C228 C 0.98661 0.43632 0.28995 0.0
C229 C 0.00718 0.41317 0.29384 0.0
C230 C 0.0228 0.40836 0.36561 0.0
C231 C 0.01769 0.42602 0.43186 0.0
H232 H 0.85547 0.88925 0.04708 0.0
H233 H 0.81751 0.97618 0.04863 0.0
H234 H 0.89625 0.90801 0.96073 0.0
H235 H 0.85639 0.99469 0.95816 0.0
H236 H 0.93287 0.02534 0.8022 0.0
H237 H 0.90329 0.00891 0.91652 0.0
H238 H 0.90116 0.91918 0.82756 0.0
H239 H 0.93256 0.93557 0.71574 0.0
C240 C 0.85667 0.91271 0.03153 0.0
C241 C 0.83378 0.93145 0.05567 0.0
C242 C 0.87952 0.92336 0.98012 0.0
C243 C 0.87938 0.95277 0.94986 0.0
C244 C 0.85778 0.97204 0.97998 0.0
C245 C 0.83546 0.96154 0.0328 0.0
C246 C 0.92592 0.00212 0.80673 0.0
C247 C 0.93487 0.98182 0.74921 0.0
C248 C 0.90886 0.9926 0.87271 0.0
C249 C 0.89958 0.96258 0.88235 0.0
C250 C 0.90833 0.94234 0.82402 0.0
C251 C 0.926 0.95179 0.75886 0.0
H252 H 0.43399 0.84484 0.06754 0.0
H253 H 0.52696 0.82495 0.02533 0.0
H254 H 0.43856 0.8877 0.97705 0.0
H255 H 0.53171 0.86765 0.93374 0.0
H256 H 0.53065 0.95727 0.79438 0.0
H257 H 0.5301 0.92181 0.90569 0.0
H258 H 0.44228 0.88883 0.83238 0.0
H259 H 0.44329 0.92381 0.72022 0.0
C260 C 0.4558 0.85052 0.0416 0.0
C261 C 0.48024 0.8319 0.0543 0.0
C262 C 0.4583 0.87469 0.98848 0.0
C263 C 0.48529 0.88071 0.94645 0.0
C264 C 0.51059 0.8637 0.96496 0.0
C265 C 0.50802 0.83942 0.01814 0.0
C266 C 0.51177 0.94172 0.80026 0.0
C267 C 0.48756 0.94266 0.74643 0.0
C268 C 0.51119 0.92172 0.86505 0.0
C269 C 0.48609 0.90251 0.8785 0.0
C270 C 0.4618 0.9036 0.82481 0.0
C271 C 0.46249 0.92345 0.75988 0.0
H272 H 0.66039 0.62494 0.9694 0.0
H273 H 0.65552 0.54177 0.0999 0.0
H274 H 0.61916 0.60779 0.88396 0.0
H275 H 0.6137 0.52475 0.01519 0.0
H276 H 0.52585 0.51748 0.85192 0.0
H277 H 0.55783 0.53796 0.9576 0.0
H278 H 0.6262 0.56222 0.78422 0.0
H279 H 0.59466 0.54112 0.67873 0.0
C280 C 0.64934 0.60364 0.98255 0.0
C281 C 0.66101 0.58473 0.04147 0.0
C282 C 0.62613 0.59364 0.93284 0.0
C283 C 0.61377 0.56474 0.94202 0.0
C284 C 0.62293 0.54712 0.00685 0.0
C285 C 0.64654 0.55701 0.0561 0.0
C286 C 0.54779 0.52707 0.83642 0.0
C287 C 0.55778 0.52768 0.75692 0.0
C288 C 0.566 0.53876 0.89693 0.0
C289 C 0.59424 0.55197 0.87887 0.0
C290 C 0.6043 0.55249 0.79954 0.0
C291 C 0.58639 0.54021 0.7393 0.0
H292 H 0.94053 0.66264 0.02504 0.0
H293 H 0.03598 0.65977 0.06917 0.0
H294 H 0.94431 0.62263 0.93004 0.0
H295 H 0.04 0.61899 0.97595 0.0
H296 H 0.04453 0.58946 0.71786 0.0
H297 H 0.03869 0.61985 0.8349 0.0
H298 H 0.95436 0.57345 0.88943 0.0
H299 H 0.96017 0.54343 0.77115 0.0
C300 C 0.96203 0.65219 0.01755 0.0
C301 C 0.9879 0.66395 0.05476 0.0
C302 C 0.96433 0.62942 0.96249 0.0
C303 C 0.99263 0.61807 0.94347 0.0
C304 C 0.01798 0.62777 0.98743 0.0
C305 C 0.01565 0.65063 0.04225 0.0
C306 C 0.02454 0.58606 0.7543 0.0
C307 C 0.00236 0.56466 0.73389 0.0
C308 C 0.0214 0.60313 0.8223 0.0
C309 C 0.99618 0.59896 0.87253 0.0
C310 C 0.9739 0.57757 0.85184 0.0
C311 C 0.97698 0.56062 0.78333 0.0
H312 H 0.94366 0.23312 0.17539 0.0
H313 H 0.02906 0.24913 0.29112 0.0
H314 H 0.92826 0.1984 0.28251 0.0
H315 H 0.01479 0.21361 0.39575 0.0
H316 H 0.98833 0.15628 0.58684 0.0
H317 H 0.98385 0.20132 0.50613 0.0
H318 H 0.94214 0.14945 0.31964 0.0
H319 H 0.94515 0.10483 0.40302 0.0
C320 C 0.95894 0.22919 0.22433 0.0
C321 C 0.98744 0.24339 0.22595 0.0
C322 C 0.95024 0.20942 0.28533 0.0
C323 C 0.9702 0.20328 0.34785 0.0
C324 C 0.99847 0.21833 0.34983 0.0
C325 C 0.00689 0.2384 0.28964 0.0
C326 C 0.97706 0.15493 0.52983 0.0
C327 C 0.96741 0.1274 0.49999 0.0
C328 C 0.97474 0.18056 0.48338 0.0
C329 C 0.96361 0.17878 0.40547 0.0
C330 C 0.95086 0.15163 0.37935 0.0
C331 C 0.95258 0.12603 0.42683 0.0
H332 H 0.28248 0.1339 0.23972 0.0
H333 H 0.23798 0.04856 0.28017 0.0
H334 H 0.32344 0.1193 0.32748 0.0
H335 H 0.27958 0.03283 0.36173 0.0
H336 H 0.35766 0.013 0.52408 0.0
H337 H 0.31114 0.03206 0.4686 0.0
H338 H 0.36375 0.0894 0.30869 0.0
H339 H 0.40973 0.0721 0.36971 0.0
C340 C 0.28117 0.11236 0.26938 0.0
C341 C 0.25728 0.09235 0.25376 0.0
C342 C 0.30484 0.10365 0.31818 0.0
C343 C 0.30546 0.07442 0.34943 0.0
C344 C 0.28007 0.05549 0.33924 0.0
C345 C 0.25606 0.06453 0.29253 0.0
C346 C 0.35899 0.02933 0.47612 0.0
C347 C 0.38695 0.04103 0.45029 0.0
C348 C 0.33241 0.04043 0.44454 0.0
C349 C 0.33349 0.06278 0.38494 0.0
C350 C 0.36181 0.07311 0.35653 0.0
C351 C 0.38823 0.06273 0.38994 0.0
H352 H 0.59377 0.31069 0.14301 0.0
H353 H 0.55205 0.25139 0.31834 0.0
H354 H 0.59698 0.34972 0.24153 0.0
H355 H 0.55751 0.28946 0.41712 0.0
H356 H 0.50404 0.37356 0.46968 0.0
H357 H 0.52239 0.33019 0.4054 0.0
H358 H 0.60961 0.37387 0.37206 0.0
H359 H 0.59081 0.41828 0.43722 0.0
C360 C 0.58639 0.30554 0.20312 0.0
C361 C 0.5714 0.27829 0.22149 0.0
C362 C 0.58864 0.32783 0.2599 0.0
C363 C 0.57645 0.32289 0.33611 0.0
C364 C 0.56631 0.29408 0.358 0.0
C365 C 0.56349 0.27206 0.30111 0.0
C366 C 0.52725 0.37402 0.44951 0.0
C367 C 0.54589 0.39948 0.45768 0.0
C368 C 0.53796 0.34887 0.41361 0.0
C369 C 0.56763 0.34841 0.38461 0.0
C370 C 0.58669 0.3736 0.39429 0.0
C371 C 0.57594 0.39894 0.4313 0.0
H372 H 0.26219 0.45653 0.28938 0.0
H373 H 0.20942 0.37767 0.23208 0.0
H374 H 0.22188 0.47335 0.3724 0.0
H375 H 0.16918 0.39379 0.31917 0.0
H376 H 0.08906 0.45055 0.36285 0.0
H377 H 0.13351 0.43067 0.3005 0.0
H378 H 0.18959 0.4711 0.48183 0.0
H379 H 0.14486 0.49248 0.54069 0.0
C380 C 0.2425 0.44201 0.29779 0.0
C381 C 0.23878 0.41586 0.25389 0.0
C382 C 0.21922 0.45178 0.3453 0.0
C383 C 0.1919 0.43538 0.35068 0.0
C384 C 0.18956 0.4075 0.3139 0.0
C385 C 0.21271 0.39796 0.26515 0.0
C386 C 0.1111 0.45582 0.38755 0.0
C387 C 0.11395 0.4735 0.45485 0.0
C388 C 0.13648 0.44388 0.35326 0.0
C389 C 0.16513 0.44867 0.38721 0.0
C390 C 0.16794 0.46711 0.4538 0.0
C391 C 0.14249 0.47962 0.48707 0.0
H392 H 0.0389 0.75004 0.93872 0.0
H393 H 0.95965 0.7965 0.00943 0.0
H394 H 0.05588 0.79346 0.85913 0.0
H395 H 0.97631 0.8396 0.92981 0.0
H396 H 0.02151 0.92176 0.86039 0.0
H397 H 0.01891 0.87684 0.94352 0.0
H398 H 0.0399 0.82408 0.73955 0.0
H399 H 0.04315 0.86927 0.6574 0.0
C400 C 0.02483 0.7693 0.93551 0.0
C401 C 0.9981 0.77022 0.98004 0.0
C402 C 0.03466 0.79413 0.89087 0.0
C403 C 0.01787 0.82008 0.89067 0.0
C404 C 0.99021 0.8202 0.93139 0.0
C405 C 0.98046 0.7955 0.97589 0.0
C406 C 0.0274 0.90075 0.83482 0.0
C407 C 0.03293 0.8987 0.75338 0.0
C408 C 0.02535 0.87504 0.88172 0.0
C409 C 0.0284 0.84706 0.84715 0.0
C410 C 0.03745 0.84539 0.76752 0.0
C411 C 0.03964 0.8712 0.72073 0.0
H412 H 0.75903 0.95273 0.91735 0.0
H413 H 0.70371 0.875 0.97665 0.0
H414 H 0.71862 0.97241 0.83782 0.0
H415 H 0.66329 0.89417 0.89375 0.0
H416 H 0.58522 0.9533 0.85183 0.0
H417 H 0.62953 0.9331 0.91589 0.0
H418 H 0.68574 0.97112 0.72782 0.0
H419 H 0.64126 0.99269 0.66679 0.0
C420 C 0.73868 0.93916 0.91024 0.0
C421 C 0.73436 0.91238 0.95343 0.0
C422 C 0.71538 0.95058 0.86492 0.0
C423 C 0.68744 0.93527 0.86132 0.0
C424 C 0.68426 0.90697 0.89773 0.0
C425 C 0.70747 0.89572 0.94404 0.0
C426 C 0.60726 0.95809 0.82611 0.0
C427 C 0.61025 0.97492 0.7559 0.0
C428 C 0.63252 0.94599 0.86146 0.0
C429 C 0.66107 0.9498 0.82573 0.0
C430 C 0.66411 0.96783 0.75697 0.0
C431 C 0.63881 0.98046 0.7225 0.0
H432 H 0.40786 0.71102 0.0465 0.0
H433 H 0.48179 0.74476 0.90098 0.0
H434 H 0.40312 0.66711 0.96223 0.0
H435 H 0.47703 0.701 0.81757 0.0
H436 H 0.49619 0.59802 0.86101 0.0
H437 H 0.4833 0.64425 0.92433 0.0
H438 H 0.40594 0.65191 0.77123 0.0
H439 H 0.41887 0.60507 0.70675 0.0
C440 C 0.4222 0.70957 0.99466 0.0
C441 C 0.4453 0.731 0.98023 0.0
C442 C 0.41937 0.68466 0.94651 0.0
C443 C 0.43969 0.68104 0.88398 0.0
C444 C 0.4609 0.70376 0.8651 0.0
C445 C 0.46358 0.72872 0.91269 0.0
C446 C 0.47607 0.60919 0.84187 0.0
C447 C 0.45855 0.5982 0.77902 0.0
C448 C 0.46881 0.63558 0.87784 0.0
C449 C 0.44396 0.65145 0.85148 0.0
C450 C 0.42522 0.63977 0.79195 0.0
C451 C 0.43247 0.61306 0.75579 0.0
H452 H 0.77194 0.61476 0.89295 0.0
H453 H 0.76234 0.52995 0.0144 0.0
H454 H 0.80841 0.59372 0.8016 0.0
H455 H 0.79793 0.50845 0.92226 0.0
H456 H 0.89632 0.50175 0.82348 0.0
H457 H 0.85194 0.51398 0.90164 0.0
H458 H 0.81424 0.55814 0.69601 0.0
H459 H 0.85908 0.54671 0.61962 0.0
C460 C 0.77745 0.59154 0.89894 0.0
C461 C 0.76495 0.57386 0.96014 0.0
C462 C 0.79799 0.57939 0.84668 0.0
C463 C 0.80596 0.5494 0.85505 0.0
C464 C 0.79248 0.53164 0.9151 0.0
C465 C 0.77219 0.54384 0.96744 0.0
C466 C 0.87803 0.51325 0.79499 0.0
C467 C 0.88074 0.52351 0.7165 0.0
C468 C 0.8527 0.52029 0.83932 0.0
C469 C 0.82991 0.53745 0.80501 0.0
C470 C 0.83177 0.5455 0.72432 0.0
C471 C 0.85718 0.53877 0.68056 0.0
H472 H 0.06343 0.2403 0.9751 0.0
H473 H 0.97239 0.25934 0.90655 0.0
H474 H 0.06181 0.19597 0.89259 0.0
H475 H 0.97061 0.21512 0.82432 0.0
H476 H 0.96029 0.11343 0.84922 0.0
H477 H 0.97021 0.16367 0.89541 0.0
H478 H 0.05147 0.16988 0.7542 0.0
H479 H 0.04147 0.1192 0.70703 0.0
C480 C 0.04381 0.23602 0.93831 0.0
C481 C 0.01811 0.25328 0.94641 0.0
C482 C 0.04275 0.21047 0.89188 0.0
C483 C 0.01583 0.20182 0.85387 0.0
C484 C 0.9915 0.22116 0.85407 0.0
C485 C 0.99266 0.24675 0.8999 0.0
C486 C 0.98042 0.12533 0.82841 0.0
C487 C -0.0 0.1124 0.77427 0.0
C488 C 0.98591 0.15423 0.85411 0.0
C489 C 0.01114 0.17092 0.82649 0.0
C490 C 0.03168 0.15756 0.77556 0.0
C491 C 0.02608 0.12851 0.74932 0.0
H492 H 0.25245 0.11696 0.90922 0.0
H493 H 0.26202 0.03257 0.02969 0.0
H494 H 0.29461 0.10549 0.82063 0.0
H495 H 0.30437 0.02139 0.94324 0.0
H496 H 0.40237 0.03311 0.86051 0.0
H497 H 0.35785 0.0479 0.93544 0.0
H498 H 0.31103 0.06497 0.71552 0.0
H499 H 0.35547 0.04991 0.64109 0.0
C500 C 0.26284 0.09553 0.91451 0.0
C501 C 0.25368 0.0753 0.97467 0.0
C502 C 0.28713 0.08914 0.8648 0.0
C503 C 0.30302 0.06281 0.8763 0.0
C504 C 0.29277 0.04201 0.93389 0.0
C505 C 0.26824 0.04813 0.98227 0.0
C506 C 0.38284 0.04084 0.82858 0.0
C507 C 0.38229 0.04085 0.74545 0.0
C508 C 0.35731 0.04893 0.87113 0.0
C509 C 0.33095 0.05729 0.83105 0.0
C510 C 0.33106 0.05874 0.74775 0.0
C511 C 0.35645 0.05026 0.70532 0.0
H512 H 0.53992 0.26147 0.88349 0.0
H513 H 0.48064 0.29675 0.0592 0.0
H514 H 0.53035 0.30421 0.79553 0.0
H515 H 0.47149 0.33963 0.97243 0.0
H516 H 0.5233 0.42667 0.8682 0.0
H517 H 0.51572 0.37912 0.93888 0.0
H518 H 0.48812 0.33766 0.72035 0.0
H519 H 0.49465 0.38578 0.64997 0.0
C520 C 0.52361 0.27754 0.90141 0.0
C521 C 0.51065 0.27561 0.97755 0.0
C522 C 0.51834 0.30214 0.85149 0.0
C523 C 0.50043 0.32541 0.87762 0.0
C524 C 0.48547 0.32211 0.95093 0.0
C525 C 0.49039 0.2974 0.00014 0.0
C526 C 0.51477 0.40759 0.83582 0.0
C527 C 0.50907 0.40998 0.75409 0.0
C528 C 0.51044 0.38039 0.87614 0.0
C529 C 0.50119 0.3547 0.83516 0.0
C530 C 0.49506 0.35713 0.75343 0.0
C531 C 0.49855 0.38466 0.71344 0.0
H532 H 0.25299 0.47658 0.9753 0.0
H533 H 0.22662 0.38415 0.95348 0.0
H534 H 0.21006 0.49057 0.8935 0.0
H535 H 0.18342 0.39799 0.87235 0.0
H536 H 0.11438 0.43742 0.69361 0.0
H537 H 0.1619 0.421 0.75166 0.0
H538 H 0.15655 0.48916 0.92848 0.0
H539 H 0.10968 0.50569 0.87005 0.0
C540 C 0.23879 0.4592 0.94992 0.0
C541 C 0.24323 0.4293 0.97011 0.0
C542 C 0.21382 0.46719 0.90444 0.0
C543 C 0.19286 0.44541 0.87806 0.0
C544 C 0.19903 0.41531 0.89176 0.0
C545 C 0.22391 0.40735 0.93767 0.0
C546 C 0.12309 0.44841 0.74591 0.0
C547 C 0.10829 0.47281 0.77741 0.0
C548 C 0.15044 0.4392 0.77871 0.0
C549 C 0.16343 0.45423 0.84354 0.0
C550 C 0.14774 0.47769 0.87702 0.0
C551 C 0.12062 0.48691 0.84424 0.0
H552 H 0.94079 0.75356 0.27148 0.0
H553 H 0.03695 0.74377 0.26266 0.0
H554 H 0.94727 0.79413 0.36482 0.0
H555 H 0.04402 0.7854 0.35053 0.0
H556 H 0.05223 0.8619 0.5133 0.0
H557 H 0.04224 0.81242 0.46285 0.0
H558 H 0.96128 0.84347 0.34888 0.0
H559 H 0.97023 0.89233 0.40587 0.0
C560 C 0.96323 0.75912 0.29294 0.0
C561 C 0.98835 0.74528 0.26104 0.0
C562 C 0.96711 0.78303 0.34445 0.0
C563 C 0.99625 0.79396 0.36351 0.0
C564 C 0.02117 0.77783 0.33819 0.0
C565 C 0.01719 0.75355 0.28825 0.0
C566 C 0.03217 0.858 0.47795 0.0
C567 C 0.01193 0.88086 0.46355 0.0
C568 C 0.02646 0.82958 0.44855 0.0
C569 C 0.00084 0.82353 0.40161 0.0
C570 C 0.98077 0.84674 0.38663 0.0
C571 C 0.98605 0.87496 0.41826 0.0
H572 H 0.71729 0.87751 0.23796 0.0
H573 H 0.76378 0.96263 0.25557 0.0
H574 H 0.67792 0.89417 0.3258 0.0
H575 H 0.72536 0.97888 0.34768 0.0
H576 H 0.63206 0.01492 0.38734 0.0
H577 H 0.67611 0.99434 0.32586 0.0
H578 H 0.65704 0.91016 0.4455 0.0
H579 H 0.61187 0.93078 0.50466 0.0
C580 C 0.71974 0.8994 0.26347 0.0
C581 C 0.74341 0.91892 0.23873 0.0
C582 C 0.69708 0.90901 0.31402 0.0
C583 C 0.69779 0.93828 0.34214 0.0
C584 C 0.72343 0.95654 0.32494 0.0
C585 C 0.74592 0.94702 0.27345 0.0
C586 C 0.63714 0.99193 0.40011 0.0
C587 C 0.61836 0.97441 0.45031 0.0
C588 C 0.66276 0.98019 0.36577 0.0
C589 C 0.67071 0.95064 0.38159 0.0
C590 C 0.65166 0.93294 0.43142 0.0
C591 C 0.62567 0.94467 0.4651 0.0
H592 H 0.52686 0.7318 0.21203 0.0
H593 H 0.43858 0.74951 0.30319 0.0
H594 H 0.53052 0.68941 0.3041 0.0
H595 H 0.4422 0.70758 0.39615 0.0
H596 H 0.43488 0.60668 0.42354 0.0
H597 H 0.43877 0.65524 0.36016 0.0
H598 H 0.53081 0.66548 0.44036 0.0
H599 H 0.52691 0.61602 0.50477 0.0
C600 C 0.50901 0.72768 0.25512 0.0
C601 C 0.48264 0.74425 0.25139 0.0
C602 C 0.51094 0.70316 0.30733 0.0
C603 C 0.48637 0.69461 0.35628 0.0
C604 C 0.46132 0.71315 0.35816 0.0
C605 C 0.45944 0.7376 0.3061 0.0
C606 C 0.45605 0.61912 0.42806 0.0
C607 C 0.48056 0.60733 0.46974 0.0
C608 C 0.45817 0.64726 0.39221 0.0
C609 C 0.48487 0.66471 0.39657 0.0
C610 C 0.50982 0.65272 0.4363 0.0
C611 C 0.50765 0.62434 0.47288 0.0
H612 H 0.72954 0.54512 0.26235 0.0
H613 H 0.77273 0.63144 0.23072 0.0
H614 H 0.76985 0.53048 0.35199 0.0
H615 H 0.81361 0.61672 0.31803 0.0
H616 H 0.88508 0.57924 0.48734 0.0
H617 H 0.83762 0.59938 0.43839 0.0
H618 H 0.81959 0.51811 0.31139 0.0
H619 H 0.86611 0.49803 0.36151 0.0
C620 C 0.74676 0.56153 0.27812 0.0
C621 C 0.74804 0.58937 0.23952 0.0
C622 C 0.77034 0.55294 0.32791 0.0
C623 C 0.79565 0.57202 0.33975 0.0
C624 C 0.7947 0.60133 0.30997 0.0
C625 C 0.77103 0.60994 0.26054 0.0
C626 C 0.87105 0.56592 0.44822 0.0
C627 C 0.87935 0.53705 0.4282 0.0
C628 C 0.84374 0.57733 0.42069 0.0
C629 C 0.82429 0.56013 0.37239 0.0
C630 C 0.83329 0.53166 0.35072 0.0
C631 C 0.86029 0.52026 0.3785 0.0
loop_
_geom_bond_atom_site_label_1
_geom_bond_atom_site_label_2
_geom_bond_distance
_geom_bond_site_symmetry_2
_ccdc_geom_bond_type
H0 C3 0.931 . S
H1 C6 0.928 . S
H2 C8 0.930 . S
C3 H0 0.931 . S
C3 C4 1.413 . S
C3 C5 1.360 1_554 S
C4 C3 1.413 . S
C4 C8 1.429 . S
C5 C3 1.360 1_556 S
C5 C6 1.372 . S
C6 H1 0.928 . S
C6 C5 1.372 . S
C6 C7 1.404 1_556 S
C7 C6 1.404 1_554 S
C7 C8 1.391 . S
C8 H2 0.930 . S
C8 C4 1.429 . S
C8 C7 1.391 . S
H9 C12 0.930 . S
H10 C15 0.928 . S
H11 C17 0.929 . S
C12 H9 0.930 . S
C12 C13 1.413 . S
C12 C14 1.360 1_554 S
C13 C12 1.413 . S
C13 C17 1.429 1_655 S
C14 C12 1.360 1_556 S
C14 C15 1.372 . S
C15 H10 0.928 . S
C15 C14 1.372 . S
C15 C16 1.405 1_556 S
C16 C15 1.405 1_554 S
C16 C17 1.391 1_655 S
C17 H11 0.929 . S
C17 C13 1.429 1_455 S
C17 C16 1.391 1_455 S
H18 C21 0.931 . S
H19 C24 0.928 . S
H20 C26 0.930 . S
C21 H18 0.931 . S
C21 C22 1.413 . S
C21 C23 1.360 1_554 S
C22 C21 1.413 . S
C22 C26 1.429 . S
C23 C21 1.360 1_556 S
C23 C24 1.372 . S
C24 H19 0.928 . S
C24 C23 1.372 . S
C24 C25 1.404 1_556 S
C25 C24 1.404 1_554 S
C25 C26 1.391 . S
C26 H20 0.930 . S
C26 C22 1.429 . S
C26 C25 1.391 . S
H27 C30 0.931 . S
H28 C33 0.928 . S
H29 C35 0.930 . S
C30 H27 0.931 . S
C30 C31 1.413 1_554 S
C30 C32 1.360 . S
C31 C30 1.413 1_556 S
C31 C35 1.429 . S
C32 C30 1.360 . S
C32 C33 1.372 . S
C33 H28 0.928 . S
C33 C32 1.372 . S
C33 C34 1.404 . S
C34 C33 1.404 . S
C34 C35 1.391 1_554 S
C35 H29 0.930 . S
C35 C31 1.429 . S
C35 C34 1.391 1_556 S
H36 C39 0.931 . S
H37 C42 0.928 . S
H38 C44 0.930 . S
C39 H36 0.931 . S
C39 C40 1.413 . S
C39 C41 1.360 . S
C40 C39 1.413 . S
C40 C44 1.429 . S
C41 C39 1.360 . S
C41 C42 1.372 . S
C42 H37 0.928 . S
C42 C41 1.372 . S
C42 C43 1.404 . S
C43 C42 1.404 . S
C43 C44 1.391 . S
C44 H38 0.930 . S
C44 C40 1.429 . S
C44 C43 1.391 . S
H45 C48 0.931 . S
H46 C51 0.928 . S
H47 C53 0.930 . S
C48 H45 0.931 . S
C48 C49 1.413 . S
C48 C50 1.360 . S
C49 C48 1.413 . S
C49 C53 1.429 1_655 S
C50 C48 1.360 . S
C50 C51 1.372 . S
C51 H46 0.928 . S
C51 C50 1.372 . S
C51 C52 1.404 . S
C52 C51 1.404 . S
C52 C53 1.390 1_655 S
C53 H47 0.930 . S
C53 C49 1.429 1_455 S
C53 C52 1.390 1_455 S
H54 C57 0.931 . S
H55 C60 0.928 . S
H56 C62 0.930 . S
C57 H54 0.931 . S
C57 C58 1.413 . S
C57 C59 1.360 . S
C58 C57 1.413 . S
C58 C62 1.429 . S
C59 C57 1.360 . S
C59 C60 1.372 . S
C60 H55 0.928 . S
C60 C59 1.372 . S
C60 C61 1.404 . S
C61 C60 1.404 . S
C61 C62 1.391 . S
C62 H56 0.930 . S
C62 C58 1.429 . S
C62 C61 1.391 . S
H63 C66 0.931 . S
H64 C69 0.928 . S
H65 C71 0.930 . S
C66 H63 0.931 . S
C66 C67 1.413 . S
C66 C68 1.360 . S
C67 C66 1.413 . S
C67 C71 1.429 . S
C68 C66 1.360 . S
C68 C69 1.372 . S
C69 H64 0.928 . S
C69 C68 1.372 . S
C69 C70 1.404 . S
C70 C69 1.404 . S
C70 C71 1.391 . S
C71 H65 0.930 . S
C71 C67 1.429 . S
C71 C70 1.391 . S
Zn72 O78 1.969 . S
Zn72 O79 1.965 1_655 S
Zn72 O83 2.024 1_655 S
Zn72 O88 1.969 . S
Zn73 O80 1.969 . S
Zn73 O86 1.969 . S
Zn73 O87 1.965 1_455 S
Zn73 O89 2.024 1_455 S
C74 O75 1.229 1_455 S
C74 O83 1.058 . S
O75 C74 1.229 1_655 S
C76 O77 1.229 1_655 S
C76 O89 1.058 . S
O77 C76 1.229 1_455 S
O78 Zn72 1.969 . S
O78 C81 1.267 . S
O79 Zn72 1.965 1_455 S
O79 C90 1.260 . S
O80 Zn73 1.969 . S
O80 C90 1.258 1_565 S
C81 O78 1.267 . S
C81 O82 1.228 1_655 S
O82 C81 1.228 1_455 S
O83 Zn72 2.024 1_455 S
O83 C74 1.058 . S
C84 O85 1.228 1_455 S
C84 O86 1.267 . S
O85 C84 1.228 1_655 S
O86 Zn73 1.969 . S
O86 C84 1.267 . S
O87 Zn73 1.965 1_655 S
O87 C91 1.267 . S
O88 Zn72 1.969 . S
O88 C91 1.245 1_545 S
O89 Zn73 2.024 1_655 S
O89 C76 1.058 . S
C90 O79 1.260 . S
C90 O80 1.258 1_545 S
C91 O87 1.267 . S
C91 O88 1.245 1_565 S
Zn92 O98 1.969 1_545 S
Zn92 O99 1.965 . S
Zn92 O103 2.024 . S
Zn92 O108 1.969 1_545 S
Zn93 O100 1.969 1_565 S
Zn93 O106 1.969 1_565 S
Zn93 O107 1.965 . S
Zn93 O109 2.024 . S
C94 O95 1.229 . S
C94 O103 1.058 . S
O95 C94 1.229 . S
C96 O97 1.229 . S
C96 O109 1.058 . S
O97 C96 1.229 . S
O98 Zn92 1.969 1_565 S
O98 C101 1.267 1_565 S
O99 Zn92 1.965 . S
O99 C110 1.260 . S
O100 Zn93 1.969 1_545 S
O100 C110 1.258 . S
C101 O98 1.267 1_545 S
C101 O102 1.228 . S
O102 C101 1.228 . S
O103 Zn92 2.024 . S
O103 C94 1.058 . S
C104 O105 1.228 . S
C104 O106 1.267 1_565 S
O105 C104 1.228 . S
O106 Zn93 1.969 1_545 S
O106 C104 1.267 1_545 S
O107 Zn93 1.965 . S
O107 C111 1.260 . S
O108 Zn92 1.969 1_565 S
O108 C111 1.258 . S
O109 Zn93 2.024 . S
O109 C96 1.058 . S
C110 O99 1.260 . S
C110 O100 1.258 . S
C111 O107 1.260 . S
C111 O108 1.258 . S
Zn112 O118 1.969 . S
Zn112 O119 1.965 . S
Zn112 O123 2.024 . S
Zn112 O128 1.969 . S
Zn113 O120 1.969 . S
Zn113 O126 1.969 . S
Zn113 O127 1.965 . S
Zn113 O129 2.024 . S
C114 O115 1.229 . S
C114 O123 1.058 . S
O115 C114 1.229 . S
C116 O117 1.229 . S
C116 O129 1.058 . S
O117 C116 1.229 . S
O118 Zn112 1.969 . S
O118 C121 1.267 . S
O119 Zn112 1.965 . S
O119 C130 1.260 . S
O120 Zn113 1.969 . S
O120 C130 1.258 . S
C121 O118 1.267 . S
C121 O122 1.228 . S
O122 C121 1.228 . S
O123 Zn112 2.024 . S
O123 C114 1.058 . S
C124 O125 1.228 . S
C124 O126 1.267 . S
O125 C124 1.228 . S
O126 Zn113 1.969 . S
O126 C124 1.267 . S
O127 Zn113 1.965 . S
O127 C131 1.260 . S
O128 Zn112 1.969 . S
O128 C131 1.258 . S
O129 Zn113 2.024 . S
O129 C116 1.058 . S
C130 O119 1.260 . S
C130 O120 1.258 . S
C131 O127 1.260 . S
C131 O128 1.258 . S
Zn132 O138 1.969 . S
Zn132 O139 1.965 . S
Zn132 O143 2.024 . S
Zn132 O148 1.969 . S
Zn133 O140 1.969 . S
Zn133 O146 1.969 . S
Zn133 O147 1.965 . S
Zn133 O149 2.024 . S
C134 O135 1.229 . S
C134 O143 1.058 . S
O135 C134 1.229 . S
C136 O137 1.229 . S
C136 O149 1.058 . S
O137 C136 1.229 . S
O138 Zn132 1.969 . S
O138 C141 1.267 . S
O139 Zn132 1.965 . S
O139 C150 1.260 1_455 S
O140 Zn133 1.969 . S
O140 C150 1.258 . S
C141 O138 1.267 . S
C141 O142 1.228 . S
O142 C141 1.228 . S
O143 Zn132 2.024 . S
O143 C134 1.058 . S
C144 O145 1.228 . S
C144 O146 1.267 . S
O145 C144 1.228 . S
O146 Zn133 1.969 . S
O146 C144 1.267 . S
O147 Zn133 1.965 . S
O147 C151 1.260 1_655 S
O148 Zn132 1.969 . S
O148 C151 1.258 . S
O149 Zn133 2.024 . S
O149 C136 1.058 . S
C150 O139 1.260 1_655 S
C150 O140 1.258 . S
C151 O147 1.260 1_455 S
C151 O148 1.258 . S
H152 C160 0.950 . S
H153 C165 0.950 . S
H154 C162 0.950 . S
H155 C164 0.950 . S
H156 C166 0.950 . S
H157 C168 0.950 . S
H158 C170 0.950 . S
H159 C171 0.950 1_565 S
C160 H152 0.950 . S
C160 C161 1.386 . S
C160 C162 1.391 . S
C161 C160 1.386 . S
C161 C165 1.393 . S
C162 H154 0.950 . S
C162 C160 1.391 . S
C162 C163 1.400 . S
C163 C162 1.400 . S
C163 C164 1.398 . S
C163 C169 1.491 . S
C164 H155 0.950 . S
C164 C163 1.398 . S
C164 C165 1.391 . S
C165 H153 0.950 . S
C165 C161 1.393 . S
C165 C164 1.391 . S
C166 H156 0.950 . S
C166 C167 1.386 . S
C166 C168 1.391 . S
C167 C166 1.386 . S
C167 C171 1.393 . S
C168 H157 0.950 . S
C168 C166 1.391 . S
C168 C169 1.400 . S
C169 C163 1.491 . S
C169 C168 1.400 . S
C169 C170 1.398 . S
C170 H158 0.950 . S
C170 C169 1.398 . S
C170 C171 1.391 . S
C171 H159 0.950 1_545 S
C171 C167 1.393 . S
C171 C170 1.391 . S
H172 C180 0.950 . S
H173 C185 0.950 . S
H174 C182 0.950 . S
H175 C184 0.950 . S
H176 C186 0.950 . S
H177 C188 0.950 . S
H178 C190 0.950 . S
H179 C191 0.950 . S
C180 H172 0.950 . S
C180 C181 1.386 . S
C180 C182 1.391 . S
C181 C180 1.386 . S
C181 C185 1.393 . S
C182 H174 0.950 . S
C182 C180 1.391 . S
C182 C183 1.400 . S
C183 C182 1.400 . S
C183 C184 1.398 . S
C183 C189 1.491 . S
C184 H175 0.950 . S
C184 C183 1.398 . S
C184 C185 1.391 . S
C185 H173 0.950 . S
C185 C181 1.393 . S
C185 C184 1.391 . S
C186 H176 0.950 . S
C186 C187 1.386 . S
C186 C188 1.391 . S
C187 C186 1.386 . S
C187 C191 1.393 . S
C188 H177 0.950 . S
C188 C186 1.391 . S
C188 C189 1.400 . S
C189 C183 1.491 . S
C189 C188 1.400 . S
C189 C190 1.398 . S
C190 H178 0.950 . S
C190 C189 1.398 . S
C190 C191 1.391 . S
C191 H179 0.950 . S
C191 C187 1.393 . S
C191 C190 1.391 . S
H192 C200 0.950 . S
H193 C205 0.950 . S
H194 C202 0.950 . S
H195 C204 0.950 . S
H196 C206 0.950 . S
H197 C208 0.950 . S
H198 C210 0.950 . S
H199 C211 0.950 . S
C200 H192 0.950 . S
C200 C201 1.386 . S
C200 C202 1.391 . S
C201 C200 1.386 . S
C201 C205 1.393 . S
C202 H194 0.950 . S
C202 C200 1.391 . S
C202 C203 1.400 . S
C203 C202 1.400 . S
C203 C204 1.398 . S
C203 C209 1.491 . S
C204 H195 0.950 . S
C204 C203 1.398 . S
C204 C205 1.391 . S
C205 H193 0.950 . S
C205 C201 1.393 . S
C205 C204 1.391 . S
C206 H196 0.950 . S
C206 C207 1.386 . S
C206 C208 1.391 . S
C207 C206 1.386 . S
C207 C211 1.393 . S
C208 H197 0.950 . S
C208 C206 1.391 . S
C208 C209 1.400 . S
C209 C203 1.491 . S
C209 C208 1.400 . S
C209 C210 1.398 . S
C210 H198 0.950 . S
C210 C209 1.398 . S
C210 C211 1.391 . S
C211 H199 0.950 . S
C211 C207 1.393 . S
C211 C210 1.391 . S
H212 C220 0.950 . S
H213 C225 0.950 . S
H214 C222 0.950 . S
H215 C224 0.950 . S
H216 C226 0.950 . S
H217 C228 0.950 . S
H218 C230 0.950 . S
H219 C231 0.950 . S
C220 H212 0.950 . S
C220 C221 1.375 1_455 S
C220 C222 1.391 . S
C221 C220 1.375 1_655 S
C221 C225 1.404 . S
C222 H214 0.950 . S
C222 C220 1.391 . S
C222 C223 1.400 1_455 S
C223 C222 1.400 1_655 S
C223 C224 1.398 . S
C223 C229 1.491 . S
C224 H215 0.950 . S
C224 C223 1.398 . S
C224 C225 1.391 . S
C225 H213 0.950 . S
C225 C221 1.404 . S
C225 C224 1.391 . S
C226 H216 0.950 . S
C226 C227 1.386 . S
C226 C228 1.391 . S
C227 C226 1.386 . S
C227 C231 1.393 1_655 S
C228 H217 0.950 . S
C228 C226 1.391 . S
C228 C229 1.400 . S
C229 C223 1.491 . S
C229 C228 1.400 . S
C229 C230 1.398 1_655 S
C230 H218 0.950 . S
C230 C229 1.398 1_455 S
C230 C231 1.391 . S
C231 H219 0.950 . S
C231 C227 1.393 1_455 S
C231 C230 1.391 . S
H232 C240 0.950 . S
H233 C245 0.950 . S
H234 C242 0.950 . S
H235 C244 0.950 . S
H236 C246 0.950 . S
H237 C248 0.950 1_545 S
H238 C250 0.950 . S
H239 C251 0.950 . S
C240 H232 0.950 . S
C240 C241 1.386 . S
C240 C242 1.391 . S
C241 C240 1.386 . S
C241 C245 1.393 . S
C242 H234 0.950 . S
C242 C240 1.391 . S
C242 C243 1.400 . S
C243 C242 1.400 . S
C243 C244 1.398 . S
C243 C249 1.491 . S
C244 H235 0.950 . S
C244 C243 1.398 . S
C244 C245 1.391 . S
C245 H233 0.950 . S
C245 C241 1.393 . S
C245 C244 1.391 . S
C246 H236 0.950 . S
C246 C247 1.386 1_545 S
C246 C248 1.391 1_545 S
C247 C246 1.386 1_565 S
C247 C251 1.393 . S
C248 H237 0.950 1_565 S
C248 C246 1.391 1_565 S
C248 C249 1.400 . S
C249 C243 1.491 . S
C249 C248 1.400 . S
C249 C250 1.398 . S
C250 H238 0.950 . S
C250 C249 1.398 . S
C250 C251 1.391 . S
C251 H239 0.950 . S
C251 C247 1.393 . S
C251 C250 1.391 . S
H252 C260 0.950 . S
H253 C265 0.950 1_554 S
H254 C262 0.950 . S
H255 C264 0.950 . S
H256 C266 0.950 . S
H257 C268 0.950 . S
H258 C270 0.950 . S
H259 C271 0.950 . S
C260 H252 0.950 . S
C260 C261 1.386 . S
C260 C262 1.391 . S
C261 C260 1.386 . S
C261 C265 1.393 . S
C262 H254 0.950 . S
C262 C260 1.391 . S
C262 C263 1.400 . S
C263 C262 1.400 . S
C263 C264 1.398 . S
C263 C269 1.491 . S
C264 H255 0.950 . S
C264 C263 1.398 . S
C264 C265 1.391 . S
C265 H253 0.950 1_556 S
C265 C261 1.393 . S
C265 C264 1.391 . S
C266 H256 0.950 . S
C266 C267 1.386 . S
C266 C268 1.391 . S
C267 C266 1.386 . S
C267 C271 1.393 . S
C268 H257 0.950 . S
C268 C266 1.391 . S
C268 C269 1.400 . S
C269 C263 1.491 . S
C269 C268 1.400 . S
C269 C270 1.398 . S
C270 H258 0.950 . S
C270 C269 1.398 . S
C270 C271 1.391 . S
C271 H259 0.950 . S
C271 C267 1.393 . S
C271 C270 1.391 . S
H272 C280 0.950 . S
H273 C285 0.950 1_554 S
H274 C282 0.950 . S
H275 C284 0.950 . S
H276 C286 0.950 . S
H277 C288 0.950 . S
H278 C290 0.950 . S
H279 C291 0.950 . S
C280 H272 0.950 . S
C280 C281 1.386 . S
C280 C282 1.391 . S
C281 C280 1.386 . S
C281 C285 1.393 . S
C282 H274 0.950 . S
C282 C280 1.391 . S
C282 C283 1.400 . S
C283 C282 1.400 . S
C283 C284 1.398 . S
C283 C289 1.491 . S
C284 H275 0.950 . S
C284 C283 1.398 . S
C284 C285 1.391 . S
C285 H273 0.950 1_556 S
C285 C281 1.393 . S
C285 C284 1.391 . S
C286 H276 0.950 . S
C286 C287 1.386 . S
C286 C288 1.391 . S
C287 C286 1.386 . S
C287 C291 1.393 . S
C288 H277 0.950 . S
C288 C286 1.391 . S
C288 C289 1.400 . S
C289 C283 1.491 . S
C289 C288 1.400 . S
C289 C290 1.398 . S
C290 H278 0.950 . S
C290 C289 1.398 . S
C290 C291 1.391 . S
C291 H279 0.950 . S
C291 C287 1.393 . S
C291 C290 1.391 . S
H292 C300 0.950 . S
H293 C305 0.950 . S
H294 C302 0.950 . S
H295 C304 0.950 . S
H296 C306 0.950 . S
H297 C308 0.950 . S
H298 C310 0.950 . S
H299 C311 0.950 . S
C300 H292 0.950 . S
C300 C301 1.391 1_554 S
C300 C302 1.391 1_554 S
C301 C300 1.391 1_556 S
C301 C305 1.387 1_655 S
C302 H294 0.950 . S
C302 C300 1.391 1_556 S
C302 C303 1.400 1_655 S
C303 C302 1.400 1_455 S
C303 C304 1.398 . S
C303 C309 1.491 . S
C304 H295 0.950 . S
C304 C303 1.398 . S
C304 C305 1.391 . S
C305 H293 0.950 . S
C305 C301 1.387 1_455 S
C305 C304 1.391 . S
C306 H296 0.950 . S
C306 C307 1.386 . S
C306 C308 1.391 . S
C307 C306 1.386 . S
C307 C311 1.393 1_455 S
C308 H297 0.950 . S
C308 C306 1.391 . S
C308 C309 1.400 . S
C309 C303 1.491 . S
C309 C308 1.400 . S
C309 C310 1.398 1_455 S
C310 H298 0.950 . S
C310 C309 1.398 1_655 S
C310 C311 1.391 . S
C311 H299 0.950 . S
C311 C307 1.393 1_655 S
C311 C310 1.391 . S
H312 C320 0.950 . S
H313 C325 0.950 . S
H314 C322 0.950 . S
H315 C324 0.950 . S
H316 C326 0.936 1_455 S
H317 C328 0.950 . S
H318 C330 0.950 . S
H319 C331 0.950 . S
C320 H312 0.950 . S
C320 C321 1.386 1_655 S
C320 C322 1.391 . S
C321 C320 1.386 1_455 S
C321 C325 1.393 . S
C322 H314 0.950 . S
C322 C320 1.391 . S
C322 C323 1.400 . S
C323 C322 1.400 . S
C323 C324 1.398 1_655 S
C323 C329 1.491 . S
C324 H315 0.950 . S
C324 C323 1.398 1_455 S
C324 C325 1.391 . S
C325 H313 0.950 . S
C325 C321 1.393 . S
C325 C324 1.391 . S
C326 H316 0.936 1_655 S
C326 C327 1.402 . S
C326 C328 1.389 1_655 S
C327 C326 1.402 . S
C327 C331 1.393 . S
C328 H317 0.950 . S
C328 C326 1.389 1_455 S
C328 C329 1.400 1_455 S
C329 C323 1.491 . S
C329 C328 1.400 1_655 S
C329 C330 1.398 . S
C330 H318 0.950 . S
C330 C329 1.398 . S
C330 C331 1.391 . S
C331 H319 0.950 . S
C331 C327 1.393 . S
C331 C330 1.391 . S
H332 C340 0.950 . S
H333 C345 0.950 . S
H334 C342 0.950 . S
H335 C344 0.950 . S
H336 C346 0.950 . S
H337 C348 0.950 1_565 S
H338 C350 0.950 . S
H339 C351 0.950 . S
C340 H332 0.950 . S
C340 C341 1.386 . S
C340 C342 1.391 . S
C341 C340 1.386 . S
C341 C345 1.393 . S
C342 H334 0.950 . S
C342 C340 1.391 . S
C342 C343 1.400 . S
C343 C342 1.400 . S
C343 C344 1.398 . S
C343 C349 1.491 . S
C344 H335 0.950 . S
C344 C343 1.398 . S
C344 C345 1.391 . S
C345 H333 0.950 . S
C345 C341 1.393 . S
C345 C344 1.391 . S
C346 H336 0.950 . S
C346 C347 1.386 1_565 S
C346 C348 1.391 1_565 S
C347 C346 1.386 1_545 S
C347 C351 1.393 . S
C348 H337 0.950 1_545 S
C348 C346 1.391 1_545 S
C348 C349 1.400 . S
C349 C343 1.491 . S
C349 C348 1.400 . S
C349 C350 1.398 . S
C350 H338 0.950 . S
C350 C349 1.398 . S
C350 C351 1.391 . S
C351 H339 0.950 . S
C351 C347 1.393 . S
C351 C350 1.391 . S
H352 C360 0.950 . S
H353 C365 0.950 . S
H354 C362 0.950 . S
H355 C364 0.950 . S
H356 C366 0.950 . S
H357 C368 0.950 . S
H358 C370 0.950 . S
H359 C371 0.950 . S
C360 H352 0.950 . S
C360 C361 1.386 . S
C360 C362 1.391 . S
C361 C360 1.386 . S
C361 C365 1.393 . S
C362 H354 0.950 . S
C362 C360 1.391 . S
C362 C363 1.400 . S
C363 C362 1.400 . S
C363 C364 1.398 . S
C363 C369 1.491 . S
C364 H355 0.950 . S
C364 C363 1.398 . S
C364 C365 1.391 . S
C365 H353 0.950 . S
C365 C361 1.393 . S
C365 C364 1.391 . S
C366 H356 0.950 . S
C366 C367 1.386 . S
C366 C368 1.391 . S
C367 C366 1.386 . S
C367 C371 1.393 . S
C368 H357 0.950 . S
C368 C366 1.391 . S
C368 C369 1.400 . S
C369 C363 1.491 . S
C369 C368 1.400 . S
C369 C370 1.398 . S
C370 H358 0.950 . S
C370 C369 1.398 . S
C370 C371 1.391 . S
C371 H359 0.950 . S
C371 C367 1.393 . S
C371 C370 1.391 . S
H372 C380 0.950 . S
H373 C385 0.950 . S
H374 C382 0.950 . S
H375 C384 0.950 . S
H376 C386 0.950 . S
H377 C388 0.950 . S
H378 C390 0.950 . S
H379 C391 0.950 . S
C380 H372 0.950 . S
C380 C381 1.386 . S
C380 C382 1.391 . S
C381 C380 1.386 . S
C381 C385 1.393 . S
C382 H374 0.950 . S
C382 C380 1.391 . S
C382 C383 1.400 . S
C383 C382 1.400 . S
C383 C384 1.398 . S
C383 C389 1.491 . S
C384 H375 0.950 . S
C384 C383 1.398 . S
C384 C385 1.391 . S
C385 H373 0.950 . S
C385 C381 1.393 . S
C385 C384 1.391 . S
C386 H376 0.950 . S
C386 C387 1.386 . S
C386 C388 1.391 . S
C387 C386 1.386 . S
C387 C391 1.393 . S
C388 H377 0.950 . S
C388 C386 1.391 . S
C388 C389 1.400 . S
C389 C383 1.491 . S
C389 C388 1.400 . S
C389 C390 1.398 . S
C390 H378 0.950 . S
C390 C389 1.398 . S
C390 C391 1.391 . S
C391 H379 0.950 . S
C391 C387 1.393 . S
C391 C390 1.391 . S
H392 C400 0.950 . S
H393 C405 0.950 1_554 S
H394 C402 0.950 . S
H395 C404 0.950 . S
H396 C406 0.950 . S
H397 C408 0.950 . S
H398 C410 0.950 . S
H399 C411 0.950 . S
C400 H392 0.950 . S
C400 C401 1.386 1_455 S
C400 C402 1.391 . S
C401 C400 1.386 1_655 S
C401 C405 1.393 . S
C402 H394 0.950 . S
C402 C400 1.391 . S
C402 C403 1.400 . S
C403 C402 1.400 . S
C403 C404 1.398 1_455 S
C403 C409 1.491 . S
C404 H395 0.950 . S
C404 C403 1.398 1_655 S
C404 C405 1.391 . S
C405 H393 0.950 1_556 S
C405 C401 1.393 . S
C405 C404 1.391 . S
C406 H396 0.950 . S
C406 C407 1.386 1_655 S
C406 C408 1.391 . S
C407 C406 1.386 1_455 S
C407 C411 1.393 . S
C408 H397 0.950 . S
C408 C406 1.391 . S
C408 C409 1.400 1_655 S
C409 C403 1.491 . S
C409 C408 1.400 1_455 S
C409 C410 1.398 . S
C410 H398 0.950 . S
C410 C409 1.398 . S
C410 C411 1.391 . S
C411 H399 0.950 . S
C411 C407 1.393 . S
C411 C410 1.391 . S
H412 C420 0.950 . S
H413 C425 0.950 1_554 S
H414 C422 0.950 . S
H415 C424 0.950 . S
H416 C426 0.950 . S
H417 C428 0.950 . S
H418 C430 0.950 . S
H419 C431 0.950 1_545 S
C420 H412 0.950 . S
C420 C421 1.386 . S
C420 C422 1.391 . S
C421 C420 1.386 . S
C421 C425 1.393 . S
C422 H414 0.950 . S
C422 C420 1.391 . S
C422 C423 1.400 . S
C423 C422 1.400 . S
C423 C424 1.398 . S
C423 C429 1.491 . S
C424 H415 0.950 . S
C424 C423 1.398 . S
C424 C425 1.391 . S
C425 H413 0.950 1_556 S
C425 C421 1.393 . S
C425 C424 1.391 . S
C426 H416 0.950 . S
C426 C427 1.386 . S
C426 C428 1.391 . S
C427 C426 1.386 . S
C427 C431 1.393 . S
C428 H417 0.950 . S
C428 C426 1.391 . S
C428 C429 1.400 . S
C429 C423 1.491 . S
C429 C428 1.400 . S
C429 C430 1.398 . S
C430 H418 0.950 . S
C430 C429 1.398 . S
C430 C431 1.391 . S
C431 H419 0.950 1_565 S
C431 C427 1.393 . S
C431 C430 1.391 . S
H432 C440 0.950 . S
H433 C445 0.950 1_554 S
H434 C442 0.950 . S
H435 C444 0.950 . S
H436 C446 0.950 . S
H437 C448 0.950 . S
H438 C450 0.950 . S
H439 C451 0.950 . S
C440 H432 0.950 . S
C440 C441 1.386 . S
C440 C442 1.391 . S
C441 C440 1.386 . S
C441 C445 1.393 . S
C442 H434 0.950 . S
C442 C440 1.391 . S
C442 C443 1.400 . S
C443 C442 1.400 . S
C443 C444 1.398 . S
C443 C449 1.491 . S
C444 H435 0.950 . S
C444 C443 1.398 . S
C444 C445 1.391 . S
C445 H433 0.950 1_556 S
C445 C441 1.393 . S
C445 C444 1.391 . S
C446 H436 0.950 . S
C446 C447 1.386 . S
C446 C448 1.391 . S
C447 C446 1.386 . S
C447 C451 1.393 . S
C448 H437 0.950 . S
C448 C446 1.391 . S
C448 C449 1.400 . S
C449 C443 1.491 . S
C449 C448 1.400 . S
C449 C450 1.398 . S
C450 H438 0.950 . S
C450 C449 1.398 . S
C450 C451 1.391 . S
C451 H439 0.950 . S
C451 C447 1.393 . S
C451 C450 1.391 . S
H452 C460 0.950 . S
H453 C465 0.950 1_554 S
H454 C462 0.950 . S
H455 C464 0.950 . S
H456 C466 0.950 . S
H457 C468 0.950 . S
H458 C470 0.950 . S
H459 C471 0.950 . S
C460 H452 0.950 . S
C460 C461 1.386 . S
C460 C462 1.391 . S
C461 C460 1.386 . S
C461 C465 1.393 . S
C462 H454 0.950 . S
C462 C460 1.391 . S
C462 C463 1.400 . S
C463 C462 1.400 . S
C463 C464 1.398 . S
C463 C469 1.491 . S
C464 H455 0.950 . S
C464 C463 1.398 . S
C464 C465 1.391 . S
C465 H453 0.950 1_556 S
C465 C461 1.393 . S
C465 C464 1.391 . S
C466 H456 0.950 . S
C466 C467 1.386 . S
C466 C468 1.391 . S
C467 C466 1.386 . S
C467 C471 1.393 . S
C468 H457 0.950 . S
C468 C466 1.391 . S
C468 C469 1.400 . S
C469 C463 1.491 . S
C469 C468 1.400 . S
C469 C470 1.398 . S
C470 H458 0.950 . S
C470 C469 1.398 . S
C470 C471 1.391 . S
C471 H459 0.950 . S
C471 C467 1.393 . S
C471 C470 1.391 . S
H472 C480 0.950 . S
H473 C485 0.950 . S
H474 C482 0.950 . S
H475 C484 0.950 1_554 S
H476 C486 0.950 . S
H477 C488 0.950 . S
H478 C490 0.950 . S
H479 C491 0.950 . S
C480 H472 0.950 . S
C480 C481 1.386 1_556 S
C480 C482 1.391 . S
C481 C480 1.386 1_554 S
C481 C485 1.393 1_455 S
C482 H474 0.950 . S
C482 C480 1.391 . S
C482 C483 1.400 . S
C483 C482 1.400 . S
C483 C484 1.398 1_455 S
C483 C489 1.491 . S
C484 H475 0.950 1_556 S
C484 C483 1.398 1_655 S
C484 C485 1.391 1_556 S
C485 H473 0.950 . S
C485 C481 1.393 1_655 S
C485 C484 1.391 1_554 S
C486 H476 0.950 . S
C486 C487 1.386 1_655 S
C486 C488 1.391 . S
C487 C486 1.386 1_455 S
C487 C491 1.393 . S
C488 H477 0.950 . S
C488 C486 1.391 . S
C488 C489 1.400 1_655 S
C489 C483 1.491 . S
C489 C488 1.400 1_455 S
C489 C490 1.398 . S
C490 H478 0.950 . S
C490 C489 1.398 . S
C490 C491 1.391 . S
C491 H479 0.950 . S
C491 C487 1.393 . S
C491 C490 1.391 . S
H492 C500 0.950 . S
H493 C505 0.950 . S
H494 C502 0.950 . S
H495 C504 0.950 . S
H496 C506 0.950 . S
H497 C508 0.950 . S
H498 C510 0.950 . S
H499 C511 0.950 . S
C500 H492 0.950 . S
C500 C501 1.386 1_556 S
C500 C502 1.391 . S
C501 C500 1.386 1_554 S
C501 C505 1.393 . S
C502 H494 0.950 . S
C502 C500 1.391 . S
C502 C503 1.400 . S
C503 C502 1.400 . S
C503 C504 1.398 1_556 S
C503 C509 1.491 . S
C504 H495 0.950 . S
C504 C503 1.398 1_554 S
C504 C505 1.391 . S
C505 H493 0.950 . S
C505 C501 1.393 . S
C505 C504 1.391 . S
C506 H496 0.950 . S
C506 C507 1.386 . S
C506 C508 1.391 . S
C507 C506 1.386 . S
C507 C511 1.393 . S
C508 H497 0.950 . S
C508 C506 1.391 . S
C508 C509 1.400 . S
C509 C503 1.491 . S
C509 C508 1.400 . S
C509 C510 1.398 . S
C510 H498 0.950 . S
C510 C509 1.398 . S
C510 C511 1.391 . S
C511 H499 0.950 . S
C511 C507 1.393 . S
C511 C510 1.391 . S
H512 C520 0.950 . S
H513 C525 0.950 . S
H514 C522 0.950 . S
H515 C524 0.950 . S
H516 C526 0.950 . S
H517 C528 0.950 . S
H518 C530 0.950 . S
H519 C531 0.950 . S
C520 H512 0.950 . S
C520 C521 1.386 1_556 S
C520 C522 1.391 . S
C521 C520 1.386 1_554 S
C521 C525 1.393 . S
C522 H514 0.950 . S
C522 C520 1.391 . S
C522 C523 1.400 . S
C523 C522 1.400 . S
C523 C524 1.398 1_556 S
C523 C529 1.491 . S
C524 H515 0.950 . S
C524 C523 1.398 1_554 S
C524 C525 1.391 . S
C525 H513 0.950 . S
C525 C521 1.393 . S
C525 C524 1.391 . S
C526 H516 0.950 . S
C526 C527 1.386 . S
C526 C528 1.391 . S
C527 C526 1.386 . S
C527 C531 1.393 . S
C528 H517 0.950 . S
C528 C526 1.391 . S
C528 C529 1.400 . S
C529 C523 1.491 . S
C529 C528 1.400 . S
C529 C530 1.398 . S
C530 H518 0.950 . S
C530 C529 1.398 . S
C530 C531 1.391 . S
C531 H519 0.950 . S
C531 C527 1.393 . S
C531 C530 1.391 . S
H532 C540 0.950 . S
H533 C545 0.950 . S
H534 C542 0.950 . S
H535 C544 0.950 . S
H536 C546 0.950 . S
H537 C548 0.950 . S
H538 C550 0.950 . S
H539 C551 0.950 . S
C540 H532 0.950 . S
C540 C541 1.386 . S
C540 C542 1.391 . S
C541 C540 1.386 . S
C541 C545 1.393 1_554 S
C542 H534 0.950 . S
C542 C540 1.391 . S
C542 C543 1.400 1_554 S
C543 C542 1.400 1_556 S
C543 C544 1.398 . S
C543 C549 1.491 . S
C544 H535 0.950 . S
C544 C543 1.398 . S
C544 C545 1.391 . S
C545 H533 0.950 . S
C545 C541 1.393 1_556 S
C545 C544 1.391 . S
C546 H536 0.950 . S
C546 C547 1.386 . S
C546 C548 1.391 . S
C547 C546 1.386 . S
C547 C551 1.393 . S
C548 H537 0.950 . S
C548 C546 1.391 . S
C548 C549 1.400 . S
C549 C543 1.491 . S
C549 C548 1.400 . S
C549 C550 1.398 . S
C550 H538 0.950 . S
C550 C549 1.398 . S
C550 C551 1.391 . S
C551 H539 0.950 . S
C551 C547 1.393 . S
C551 C550 1.391 . S
H552 C560 0.950 . S
H553 C565 0.950 . S
H554 C562 0.950 . S
H555 C564 0.950 . S
H556 C566 0.950 . S
H557 C568 0.950 . S
H558 C570 0.950 . S
H559 C571 0.950 . S
C560 H552 0.950 . S
C560 C561 1.386 . S
C560 C562 1.391 . S
C561 C560 1.386 . S
C561 C565 1.393 1_655 S
C562 H554 0.950 . S
C562 C560 1.391 . S
C562 C563 1.400 . S
C563 C562 1.400 . S
C563 C564 1.398 1_655 S
C563 C569 1.491 . S
C564 H555 0.950 . S
C564 C563 1.398 1_455 S
C564 C565 1.391 . S
C565 H553 0.950 . S
C565 C561 1.393 1_455 S
C565 C564 1.391 . S
C566 H556 0.950 . S
C566 C567 1.386 1_455 S
C566 C568 1.391 . S
C567 C566 1.386 1_655 S
C567 C571 1.393 . S
C568 H557 0.950 . S
C568 C566 1.391 . S
C568 C569 1.400 1_455 S
C569 C563 1.491 . S
C569 C568 1.400 1_655 S
C569 C570 1.398 . S
C570 H558 0.950 . S
C570 C569 1.398 . S
C570 C571 1.391 . S
C571 H559 0.950 . S
C571 C567 1.393 . S
C571 C570 1.391 . S
H572 C580 0.950 . S
H573 C585 0.950 . S
H574 C582 0.950 . S
H575 C584 0.950 . S
H576 C586 0.950 1_545 S
H577 C588 0.950 . S
H578 C590 0.950 . S
H579 C591 0.950 . S
C580 H572 0.950 . S
C580 C581 1.386 . S
C580 C582 1.391 . S
C581 C580 1.386 . S
C581 C585 1.393 . S
C582 H574 0.950 . S
C582 C580 1.391 . S
C582 C583 1.400 . S
C583 C582 1.400 . S
C583 C584 1.398 . S
C583 C589 1.491 . S
C584 H575 0.950 . S
C584 C583 1.398 . S
C584 C585 1.391 . S
C585 H573 0.950 . S
C585 C581 1.393 . S
C585 C584 1.391 . S
C586 H576 0.950 1_565 S
C586 C587 1.386 . S
C586 C588 1.391 . S
C587 C586 1.386 . S
C587 C591 1.393 . S
C588 H577 0.950 . S
C588 C586 1.391 . S
C588 C589 1.400 . S
C589 C583 1.491 . S
C589 C588 1.400 . S
C589 C590 1.398 . S
C590 H578 0.950 . S
C590 C589 1.398 . S
C590 C591 1.391 . S
C591 H579 0.950 . S
C591 C587 1.393 . S
C591 C590 1.391 . S
H592 C600 0.950 . S
H593 C605 0.950 . S
H594 C602 0.950 . S
H595 C604 0.950 . S
H596 C606 0.950 . S
H597 C608 0.950 . S
H598 C610 0.950 . S
H599 C611 0.950 . S
C600 H592 0.950 . S
C600 C601 1.386 . S
C600 C602 1.391 . S
C601 C600 1.386 . S
C601 C605 1.393 . S
C602 H594 0.950 . S
C602 C600 1.391 . S
C602 C603 1.400 . S
C603 C602 1.400 . S
C603 C604 1.398 . S
C603 C609 1.491 . S
C604 H595 0.950 . S
C604 C603 1.398 . S
C604 C605 1.391 . S
C605 H593 0.950 . S
C605 C601 1.393 . S
C605 C604 1.391 . S
C606 H596 0.950 . S
C606 C607 1.386 . S
C606 C608 1.391 . S
C607 C606 1.386 . S
C607 C611 1.393 . S
C608 H597 0.950 . S
C608 C606 1.391 . S
C608 C609 1.400 . S
C609 C603 1.491 . S
C609 C608 1.400 . S
C609 C610 1.398 . S
C610 H598 0.950 . S
C610 C609 1.398 . S
C610 C611 1.391 . S
C611 H599 0.950 . S
C611 C607 1.393 . S
C611 C610 1.391 . S
H612 C620 0.950 . S
H613 C625 0.950 . S
H614 C622 0.950 . S
H615 C624 0.950 . S
H616 C626 0.950 . S
H617 C628 0.950 . S
H618 C630 0.950 . S
H619 C631 0.950 . S
C620 H612 0.950 . S
C620 C621 1.386 . S
C620 C622 1.391 . S
C621 C620 1.386 . S
C621 C625 1.393 . S
C622 H614 0.950 . S
C622 C620 1.391 . S
C622 C623 1.400 . S
C623 C622 1.400 . S
C623 C624 1.398 . S
C623 C629 1.491 . S
C624 H615 0.950 . S
C624 C623 1.398 . S
C624 C625 1.391 . S
C625 H613 0.950 . S
C625 C621 1.393 . S
C625 C624 1.391 . S
C626 H616 0.950 . S
C626 C627 1.386 . S
C626 C628 1.391 . S
C627 C626 1.386 . S
C627 C631 1.393 . S
C628 H617 0.950 . S
C628 C626 1.391 . S
C628 C629 1.400 . S
C629 C623 1.491 . S
C629 C628 1.400 . S
C629 C630 1.398 . S
C630 H618 0.950 . S
C630 C629 1.398 . S
C630 C631 1.391 . S
C631 H619 0.950 . S
C631 C627 1.393 . S
C631 C630 1.391 . S
C161 C61 1.507 . S
C167 C90 1.521 . S
C187 C110 1.352 . S
C181 C70 1.365 . S
C207 C130 1.523 . S
C201 C43 1.490 . S
C227 C150 1.383 . S
C221 C52 1.384 . S
C247 C91 1.528 . S
C241 C25 1.504 1_556 S
C261 C34 1.393 1_556 S
C267 C111 1.381 . S
C281 C7 1.490 1_556 S
C287 C131 1.517 . S
C301 C16 1.365 1_556 S
C307 C151 1.361 . S
C327 C81 0.716 . S
C321 C50 0.690 1_455 S
C347 C101 0.765 . S
C341 C59 0.764 . S
C367 C121 0.713 . S
C361 C67 0.704 . S
C381 C41 0.707 . S
C387 C141 0.707 . S
C401 C14 0.707 . S
C407 C84 0.731 . S
C427 C104 0.784 . S
C421 C23 0.774 . S
C447 C124 0.753 . S
C441 C31 0.726 . S
C461 C5 0.721 . S
C467 C144 0.734 . S
C481 C49 1.540 1_455 S
C487 C74 1.500 . S
C501 C58 1.571 . S
C507 C94 1.527 . S
C527 C114 1.448 . S
C521 C68 1.487 . S
C547 C134 1.626 . S
C541 C40 1.647 . S
C561 C13 1.557 . S
C567 C76 1.518 . S
C587 C96 1.555 . S
C581 C22 1.591 . S
C607 C116 1.479 . S
C601 C32 1.513 . S
C621 C4 1.637 . S
C627 C136 1.597 . S
