# Generated by pormake.
# Topology anh, (6,3)-cn, num edge types: 1
# Building blocks:
#     Node 0, Type 0, BuildingBlock: BETDIP_clean_sbu_0, # of connection points: 6
#     Node 1, Type 0, BuildingBlock: BETDIP_clean_sbu_0, # of connection points: 6
#     Node 2, Type 0, BuildingBlock: BETDIP_clean_sbu_0, # of connection points: 6
#     Node 3, Type 1, BuildingBlock: BELTOD_clean_linker_0, # of connection points: 3
#     Node 4, Type 1, BuildingBlock: BELTOD_clean_linker_0, # of connection points: 3
#     Node 5, Type 1, BuildingBlock: BELTOD_clean_linker_0, # of connection points: 3
#     Node 6, Type 1, BuildingBlock: BELTOD_clean_linker_0, # of connection points: 3
#     Node 7, Type 1, BuildingBlock: BELTOD_clean_linker_0, # of connection points: 3
#     Node 8, Type 1, BuildingBlock: BELTOD_clean_linker_0, # of connection points: 3
#     Edge 9, Type (0, 1), BuildingBlock: MIFKUJ_clean_linker_0, # of connection points: 2
#     Edge 10, Type (0, 1), BuildingBlock: MIFKUJ_clean_linker_0, # of connection points: 2
#     Edge 11, Type (0, 1), BuildingBlock: MIFKUJ_clean_linker_0, # of connection points: 2
#     Edge 12, Type (0, 1), BuildingBlock: MIFKUJ_clean_linker_0, # of connection points: 2
#     Edge 13, Type (0, 1), BuildingBlock: MIFKUJ_clean_linker_0, # of connection points: 2
#     Edge 14, Type (0, 1), BuildingBlock: MIFKUJ_clean_linker_0, # of connection points: 2
#     Edge 15, Type (0, 1), BuildingBlock: MIFKUJ_clean_linker_0, # of connection points: 2
#     Edge 16, Type (0, 1), BuildingBlock: MIFKUJ_clean_linker_0, # of connection points: 2
#     Edge 17, Type (0, 1), BuildingBlock: MIFKUJ_clean_linker_0, # of connection points: 2
#     Edge 18, Type (0, 1), BuildingBlock: MIFKUJ_clean_linker_0, # of connection points: 2
#     Edge 19, Type (0, 1), BuildingBlock: MIFKUJ_clean_linker_0, # of connection points: 2
#     Edge 20, Type (0, 1), BuildingBlock: MIFKUJ_clean_linker_0, # of connection points: 2
#     Edge 21, Type (0, 1), BuildingBlock: MIFKUJ_clean_linker_0, # of connection points: 2
#     Edge 22, Type (0, 1), BuildingBlock: MIFKUJ_clean_linker_0, # of connection points: 2
#     Edge 23, Type (0, 1), BuildingBlock: MIFKUJ_clean_linker_0, # of connection points: 2
#     Edge 24, Type (0, 1), BuildingBlock: MIFKUJ_clean_linker_0, # of connection points: 2
#     Edge 25, Type (0, 1), BuildingBlock: MIFKUJ_clean_linker_0, # of connection points: 2
#     Edge 26, Type (0, 1), BuildingBlock: MIFKUJ_clean_linker_0, # of connection points: 2
# Relax obj value: 0.205
# Max RMSD: 0.174
# Mean RMSD: 0.142
data_MOF--net-anh--node1-BETDIP_clean_sbu_0--node2-BELTOD_clean_linker_0--edge1-MIFKUJ_clean_linker_0
_symmetry_space_group_name_H-M    P1
_symmetry_Int_Tables_number       1
_symmetry_cell_setting            triclinic
loop_
_symmetry_equiv_pos_as_xyz
'x, y, z'
_cell_length_a     44.091356
_cell_length_b     43.789122
_cell_length_c     76.432567
_cell_angle_alpha  90.358825
_cell_angle_beta   90.45431
_cell_angle_gamma 120.16925
loop_
_atom_site_label
_atom_site_type_symbol
_atom_site_fract_x
_atom_site_fract_y
_atom_site_fract_z
_atom_type_partial_charge
Tb0 Tb 0.09109 0.59889 0.17436 0.0
Tb1 Tb 0.05566 0.52466 0.16219 0.0
C2 C 0.13035 0.65403 0.19146 0.0
C3 C 0.16872 0.67819 0.19075 0.0
C4 C 0.19173 0.67212 0.20102 0.0
C5 C 0.22799 0.69262 0.19885 0.0
C6 C 0.24196 0.71963 0.18639 0.0
C7 C 0.21894 0.72631 0.1765 0.0
C8 C 0.1828 0.70602 0.17875 0.0
C9 C 0.08076 0.59127 0.14058 0.0
C10 C 0.13814 0.56182 0.16422 0.0
C11 C 1.01531 0.46799 0.14628 0.0
C12 C 0.97876 0.4537 0.14035 0.0
C13 C 0.9677 0.43727 0.12387 0.0
C14 C 0.93322 0.42481 0.11803 0.0
C15 C 0.90951 0.42909 0.12852 0.0
C16 C 0.92102 0.44629 0.14483 0.0
C17 C 0.95519 0.45834 0.1507 0.0
C18 C 0.06572 0.53402 0.19645 0.0
C19 C 1.01033 0.5641 0.16704 0.0
O20 O 0.11981 0.62226 0.19744 0.0
O21 O 0.11249 0.65337 0.17755 0.0
O22 O 0.08935 0.57365 0.15029 0.0
O23 O 0.08097 0.61659 0.14954 0.0
O24 O 0.13665 0.58943 0.17088 0.0
O25 O 0.10888 0.53318 0.15884 0.0
O26 O 1.03829 0.49662 0.13838 0.0
O27 O 1.02056 0.47012 0.16323 0.0
O28 O 0.05611 0.5503 0.18633 0.0
O29 O 0.06858 0.51038 0.18748 0.0
O30 O 1.01405 0.53908 0.1591 0.0
O31 O 1.03674 0.58873 0.17662 0.0
H32 H 0.18173 0.65105 0.21048 0.0
H33 H 0.24505 0.68728 0.20693 0.0
H34 H 0.22877 0.7467 0.16668 0.0
H35 H 0.16586 0.71155 0.17068 0.0
H36 H 0.98569 0.43397 0.11558 0.0
H37 H 0.92501 0.41165 0.1054 0.0
H38 H 0.90332 0.44958 0.15333 0.0
H39 H 0.96308 0.47125 0.1634 0.0
Tb40 Tb 0.59387 0.04189 0.50589 0.0
Tb41 Tb 0.55643 0.07868 0.49607 0.0
C42 C 0.60732 0.99967 0.52105 0.0
C43 C 0.58939 0.9611 0.51887 0.0
C44 C 0.58602 0.93965 0.53309 0.0
C45 C 0.56855 0.90293 0.53095 0.0
C46 C 0.5545 0.88733 0.51453 0.0
C47 C 0.55705 0.90879 0.50044 0.0
C48 C 0.57405 0.94538 0.50264 0.0
C49 C 0.59333 0.05164 0.47225 0.0
C50 C 0.50968 0.99614 0.49657 0.0
C51 C 0.53923 0.12061 0.48322 0.0
C52 C 0.55795 0.15933 0.48377 0.0
C53 C 0.54896 0.1784 0.47227 0.0
C54 C 0.56803 0.21541 0.47258 0.0
C55 C 0.59657 0.23372 0.48429 0.0
C56 C 0.60557 0.2142 0.49558 0.0
C57 C 0.5862 0.17749 0.49547 0.0
C58 C 0.55963 0.06928 0.53019 0.0
C59 C 0.64162 0.12303 0.50001 0.0
O60 O 0.58842 1.01174 0.52815 0.0
O61 O 0.62451 1.01783 0.50739 0.0
O62 O 0.56818 0.04369 0.48245 0.0
O63 O 0.61862 0.05073 0.48051 0.0
O64 O 0.53789 0.99754 0.50394 0.0
O65 O 0.51187 1.02547 0.49045 0.0
O66 O 0.55476 0.10689 0.47434 0.0
O67 O 0.52824 0.10533 0.49833 0.0
O68 O 0.584 0.07834 0.51939 0.0
O69 O 0.53248 0.06645 0.52207 0.0
O70 O 0.61254 0.12049 0.49326 0.0
O71 O 0.63987 0.09566 0.50838 0.0
H72 H 0.5973 0.9513 0.54573 0.0
H73 H 0.56726 0.88681 0.54193 0.0
H74 H 0.54643 0.89725 0.48768 0.0
H75 H 0.57563 0.96143 0.49157 0.0
H76 H 0.52725 0.16471 0.46311 0.0
H77 H 0.56018 0.22961 0.46383 0.0
H78 H 0.62783 0.22722 0.50448 0.0
H79 H 0.59348 0.16328 0.50453 0.0
Tb80 Tb 0.5471 0.53977 0.83884 0.0
Tb81 Tb 0.62398 0.58033 0.83287 0.0
C82 C 0.48829 0.51912 0.85227 0.0
C83 C 0.46441 0.53322 0.85351 0.0
C84 C 0.47718 0.56956 0.85578 0.0
C85 C 0.45404 0.58258 0.85584 0.0
C86 C 0.41778 0.55944 0.85368 0.0
C87 C 0.40514 0.52302 0.8517 0.0
C88 C 0.42828 0.51007 0.85157 0.0
C89 C 0.56518 0.54518 0.80601 0.0
C90 C 0.58653 0.62579 0.83325 0.0
C91 C 0.68255 0.59899 0.81971 0.0
C92 C 0.69696 0.57675 0.81397 0.0
C93 C 0.71072 0.58033 0.79709 0.0
C94 C 0.71935 0.55563 0.79066 0.0
C95 C 0.71356 0.52672 0.80092 0.0
C96 C 0.70043 0.52374 0.81787 0.0
C97 C 0.69242 0.54852 0.82436 0.0
C98 C 0.60608 0.57578 0.86598 0.0
C99 C 0.58309 0.494 0.83397 0.0
O100 O 0.51799 0.53625 0.86102 0.0
O101 O 0.49233 0.51004 0.8365 0.0
O102 O 0.57911 0.56849 0.81776 0.0
O103 O 0.5377 0.51776 0.81214 0.0
O104 O 0.55749 0.59561 0.83733 0.0
O105 O 0.61617 0.62591 0.83003 0.0
O106 O 0.65534 0.59429 0.81058 0.0
O107 O 0.67799 0.60031 0.83657 0.0
O108 O 0.59192 0.55137 0.85454 0.0
O109 O 0.63253 0.6032 0.85911 0.0
O110 O 0.61155 0.52432 0.82982 0.0
O111 O 0.55475 0.49384 0.83981 0.0
H112 H 0.505 0.58793 0.85736 0.0
H113 H 0.46458 0.61076 0.85734 0.0
H114 H 0.37728 0.50442 0.85041 0.0
H115 H 0.41798 0.48196 0.84984 0.0
H116 H 0.71393 0.60166 0.78876 0.0
H117 H 0.72981 0.55869 0.7776 0.0
H118 H 0.69642 0.50216 0.82619 0.0
H119 H 0.68167 0.5449 0.83738 0.0
P120 P 0.66886 0.08988 0.231 0.0
H121 H 0.67103 0.04154 0.20507 0.0
H122 H 0.62456 0.98795 0.19058 0.0
H123 H 0.54689 0.99659 0.22092 0.0
H124 H 0.59317 0.04974 0.23531 0.0
H125 H 0.72538 0.14511 0.21074 0.0
H126 H 0.72731 0.1888 0.19048 0.0
H127 H 0.61899 0.15482 0.20133 0.0
H128 H 0.61702 0.1106 0.2216 0.0
H129 H 0.66562 0.0479 0.26063 0.0
H130 H 0.64882 0.13531 0.25102 0.0
O131 O 0.70713 0.09075 0.23047 0.0
H132 H 0.6504 0.04777 0.29133 0.0
H133 H 0.63307 0.13492 0.28167 0.0
C134 C 0.63546 0.04915 0.22143 0.0
C135 C 0.644 1.03157 0.20872 0.0
C136 C 0.61753 1.00109 0.20044 0.0
C137 C 0.58221 0.98836 0.20456 0.0
C138 C 0.57389 1.00613 0.21733 0.0
C139 C 0.60031 1.0363 0.22567 0.0
C140 C 0.67116 0.12478 0.21778 0.0
C141 C 0.70208 0.14713 0.20892 0.0
C142 C 0.70307 0.1719 0.19722 0.0
C143 C 0.67314 0.17483 0.19421 0.0
C144 C 0.64237 0.15304 0.20343 0.0
C145 C 0.6413 0.12789 0.21501 0.0
C146 C 0.6585 0.09164 0.25356 0.0
C147 C 0.65876 0.06713 0.26515 0.0
C148 C 0.65007 0.06708 0.28265 0.0
C149 C 0.6406 0.09137 0.28885 0.0
C150 C 0.63999 0.11573 0.27717 0.0
C151 C 0.64909 0.116 0.25965 0.0
P152 P 0.74391 0.65976 0.57636 0.0
H153 H 0.78738 0.66522 0.54681 0.0
H154 H 0.79067 0.6203 0.52896 0.0
H155 H 0.72008 0.53969 0.56435 0.0
H156 H 0.71705 0.58446 0.58202 0.0
H157 H 0.74161 0.7182 0.55907 0.0
H158 H 0.69549 0.72095 0.54245 0.0
H159 H 0.62847 0.60804 0.54725 0.0
H160 H 0.67481 0.60548 0.5639 0.0
H161 H 0.77028 0.63965 0.60677 0.0
H162 H 0.68171 0.6524 0.59426 0.0
O163 O 0.78064 0.69905 0.57731 0.0
H164 H 0.74799 0.62177 0.63644 0.0
H165 H 0.65858 0.63306 0.62327 0.0
C166 C 0.75269 0.62825 0.56595 0.0
C167 C 0.77355 0.63798 0.55099 0.0
C168 C 0.77517 0.61232 0.54073 0.0
C169 C 0.75579 0.57653 0.54531 0.0
C170 C 0.73593 0.56712 0.56069 0.0
C171 C 0.73419 0.59274 0.57084 0.0
C172 C 0.71155 0.66167 0.5627 0.0
C173 C 0.71723 0.69399 0.55633 0.0
C174 C 0.69092 0.69546 0.54673 0.0
C175 C 0.65844 0.66464 0.54351 0.0
C176 C 0.6532 0.63216 0.54957 0.0
C177 C 0.67966 0.63069 0.55902 0.0
C178 C 0.72746 0.64681 0.59819 0.0
C179 C 0.74593 0.63832 0.61035 0.0
C180 C 0.733 0.62785 0.62725 0.0
C181 C 0.70137 0.62581 0.63226 0.0
C182 C 0.68321 0.63472 0.62 0.0
C183 C 0.69629 0.64542 0.60322 0.0
P184 P 1.00804 0.56621 0.89859 0.0
H185 H 0.06693 0.62565 0.88099 0.0
H186 H 0.12705 0.6393 0.87529 0.0
H187 H 0.10626 0.54408 0.90202 0.0
H188 H 1.04667 0.531 0.90783 0.0
H189 H 0.93345 0.51473 0.90117 0.0
H190 H 0.89221 0.46821 0.88134 0.0
H191 H 0.97738 0.4882 0.84692 0.0
H192 H 1.01847 0.53493 0.86674 0.0
H193 H 1.02053 0.61443 0.92755 0.0
H194 H 0.98108 0.50292 0.92038 0.0
O195 O 1.00219 0.59947 0.89256 0.0
H196 H 1.01726 0.60708 0.95918 0.0
H197 H 0.9764 0.49497 0.95205 0.0
C198 C 1.05264 0.57759 0.89504 0.0
C199 C 0.07551 0.60798 0.88577 0.0
C200 C 0.10975 0.61564 0.88244 0.0
C201 C 0.12146 0.59293 0.88834 0.0
C202 C 0.0983 0.56252 0.89764 0.0
C203 C 0.06418 0.55491 0.90092 0.0
C204 C 0.97906 0.52795 0.8856 0.0
C205 C 0.94339 0.5084 0.88963 0.0
C206 C 0.91989 0.48159 0.87832 0.0
C207 C 0.93161 0.47431 0.86261 0.0
C208 C 0.96763 0.49312 0.85895 0.0
C209 C 0.99113 0.51983 0.87031 0.0
C210 C 1.00024 0.55913 0.92164 0.0
C211 C 1.01022 0.58818 0.9328 0.0
C212 C 1.00819 0.58387 0.9509 0.0
C213 C 0.9963 0.55036 0.9582 0.0
C214 C 0.98585 0.52116 0.94689 0.0
C215 C 0.98811 0.52559 0.92876 0.0
P216 P 0.09146 0.54172 0.44736 0.0
H217 H 0.12925 0.57177 0.48112 0.0
H218 H 0.17929 0.62954 0.48924 0.0
H219 H 0.17092 0.67035 0.43928 0.0
H220 H 0.12053 0.61326 0.43166 0.0
H221 H 0.06585 0.46924 0.4597 0.0
H222 H 1.00955 0.42025 0.46762 0.0
H223 H 0.96342 0.48649 0.46283 0.0
H224 H 1.02101 0.53635 0.45455 0.0
H225 H 0.13568 0.54367 0.41851 0.0
H226 H 1.03862 0.54411 0.42366 0.0
O227 O 0.11762 0.52477 0.45026 0.0
H228 H 0.13107 0.54488 0.38681 0.0
H229 H 1.03359 0.54492 0.39169 0.0
C230 C 0.11987 0.58744 0.45584 0.0
C231 C 0.13726 0.59346 0.47214 0.0
C232 C 0.16676 0.62675 0.47663 0.0
C233 C 0.18041 0.65553 0.46494 0.0
C234 C 0.16179 0.64972 0.44894 0.0
C235 C 0.13232 0.61651 0.4445 0.0
C236 C 1.04888 0.50762 0.45667 0.0
C237 C 1.04415 0.47406 0.46064 0.0
C238 C 1.01125 0.44541 0.46528 0.0
C239 C 0.98094 0.4485 0.46611 0.0
C240 C 0.98558 0.48231 0.4623 0.0
C241 C 1.01892 0.5113 0.45768 0.0
C242 C 0.08699 0.54275 0.42365 0.0
C243 C 0.11304 0.54356 0.41286 0.0
C244 C 0.11035 0.54421 0.39461 0.0
C245 C 0.08169 0.54448 0.38653 0.0
C246 C 0.05606 0.54473 0.39738 0.0
C247 C 0.05873 0.54394 0.41573 0.0
P248 P 0.60625 0.07109 0.78021 0.0
H249 H 0.62216 0.11215 0.81347 0.0
H250 H 0.61562 0.16231 0.82238 0.0
H251 H 0.55262 0.14711 0.7761 0.0
H252 H 0.55844 0.09656 0.76766 0.0
H253 H 0.63524 1.02799 0.76899 0.0
H254 H 0.62907 0.97172 0.77731 0.0
H255 H 0.55188 0.95836 0.81547 0.0
H256 H 0.55835 1.01581 0.80684 0.0
H257 H 0.64436 0.12033 0.75201 0.0
H258 H 0.55206 1.01754 0.75632 0.0
O259 O 0.64966 0.09571 0.78295 0.0
H260 H 0.63692 0.1175 0.72024 0.0
H261 H 0.5445 1.0143 0.72436 0.0
C262 C 0.5905 0.09951 0.78992 0.0
C263 C 0.60585 0.11871 0.80551 0.0
C264 C 0.60266 0.14825 0.81043 0.0
C265 C 0.58403 0.16005 0.79992 0.0
C266 C 0.56706 0.13946 0.78479 0.0
C267 C 0.57028 0.10995 0.77991 0.0
C268 C 0.59745 1.02686 0.7872 0.0
C269 C 0.61683 1.01316 0.77918 0.0
C270 C 0.61345 0.98068 0.7841 0.0
C271 C 0.59028 0.9599 0.79734 0.0
C272 C 0.57004 0.97318 0.80521 0.0
C273 C 0.57373 1.00628 0.8003 0.0
C274 C 0.59918 0.06886 0.75661 0.0
C275 C 0.62254 0.09698 0.74612 0.0
C276 C 0.61832 0.09526 0.72787 0.0
C277 C 0.59035 0.06547 0.71958 0.0
C278 C 0.56632 1.03771 0.73021 0.0
C279 C 0.57069 1.03942 0.74852 0.0
P280 P 0.56382 0.54253 0.11598 0.0
H281 H 0.60267 0.55641 0.15067 0.0
H282 H 0.65964 0.56204 0.15874 0.0
H283 H 0.68316 0.56264 0.10409 0.0
H284 H 0.62734 0.55715 0.09624 0.0
H285 H 0.50711 0.50883 0.14219 0.0
H286 H 0.45672 0.51501 0.14954 0.0
H287 H 0.4975 0.6082 0.11785 0.0
H288 H 0.54808 0.6018 0.11045 0.0
H289 H 0.5324 0.49058 0.08703 0.0
H290 H 0.59377 0.60389 0.09227 0.0
O291 O 0.54462 0.49918 0.11949 0.0
H292 H 0.5349 0.49535 0.05543 0.0
H293 H 0.59455 0.60921 0.06042 0.0
C294 C 0.61015 0.55766 0.12272 0.0
C295 C 0.62054 0.55903 0.14038 0.0
C296 C 0.65334 0.56192 0.14501 0.0
C297 C 0.67668 0.5625 0.13215 0.0
C298 C 0.66637 0.56183 0.11456 0.0
C299 C 0.63406 0.55935 0.11 0.0
C300 C 0.53243 0.55475 0.12563 0.0
C301 C 0.50595 0.53115 0.13698 0.0
C302 C 0.4764 0.53445 0.14106 0.0
C303 C 0.47185 0.5618 0.13415 0.0
C304 C 0.49939 0.58666 0.12357 0.0
C305 C 0.52888 0.58309 0.11932 0.0
C306 C 0.56267 0.54689 0.09224 0.0
C307 C 0.54592 0.51668 0.08143 0.0
C308 C 0.54714 0.5195 0.06315 0.0
C309 C 0.56484 0.55271 0.05502 0.0
C310 C 0.58105 0.58305 0.06596 0.0
C311 C 0.58017 0.58013 0.0843 0.0
H312 H 0.15091 0.50808 0.1549 0.0
H313 H 0.20678 0.50999 0.15057 0.0
H314 H 0.26264 0.62103 0.1634 0.0
H315 H 0.20649 0.61918 0.16791 0.0
H316 H 0.29412 0.60873 0.1356 0.0
H317 H 0.25908 0.55775 0.1922 0.0
H318 H 0.21934 0.51566 0.21399 0.0
H319 H 0.21534 0.4295 0.18487 0.0
H320 H 0.25468 0.47105 0.16276 0.0
H321 H 0.46337 0.62055 0.13898 0.0
H322 H 0.4099 0.62267 0.14468 0.0
H323 H 0.3493 0.509 0.14232 0.0
H324 H 0.40281 0.50683 0.13721 0.0
H325 H 0.3207 0.52479 0.16565 0.0
H326 H 0.35297 0.57413 0.1083 0.0
H327 H 0.39114 0.61522 0.08574 0.0
H328 H 0.39883 0.7029 0.11503 0.0
H329 H 0.36105 0.66236 0.13788 0.0
C330 C 0.17495 0.53304 0.1569 0.0
C331 C 0.17341 0.56342 0.16187 0.0
C332 C 0.20731 0.53408 0.15445 0.0
C333 C 0.23986 0.5656 0.15672 0.0
C334 C 0.23846 0.59615 0.16149 0.0
C335 C 0.20599 0.59503 0.16417 0.0
C336 C 0.27486 0.56645 0.15409 0.0
C337 C 0.29998 0.59062 0.1424 0.0
C338 C 0.28315 0.54253 0.16246 0.0
C339 C 0.25956 0.51749 0.17573 0.0
C340 C 0.2495 0.5298 0.19037 0.0
C341 C 0.22709 0.50605 0.20279 0.0
C342 C 0.21475 0.46992 0.20079 0.0
C343 C 0.22488 0.45749 0.18639 0.0
C344 C 0.24726 0.48113 0.17391 0.0
C345 C 0.43873 0.59587 0.13954 0.0
C346 C 0.4383 0.5635 0.13755 0.0
C347 C 0.40761 0.5971 0.14275 0.0
C348 C 0.37427 0.56602 0.1437 0.0
C349 C 0.37394 0.5337 0.14178 0.0
C350 C 0.40506 0.53246 0.13883 0.0
C351 C 0.34009 0.56683 0.14691 0.0
C352 C 0.31501 0.54294 0.15876 0.0
C353 C 0.33173 0.59083 0.13855 0.0
C354 C 0.35453 0.61525 0.12489 0.0
C355 C 0.36302 0.6022 0.10999 0.0
C356 C 0.38455 0.62539 0.09714 0.0
C357 C 0.3975 0.66166 0.09898 0.0
C358 C 0.38885 0.67481 0.11365 0.0
C359 C 0.36737 0.65174 0.12654 0.0
H360 H 0.41415 0.67956 0.08902 0.0
H361 H 0.1974 0.45157 0.21043 0.0
H362 H 0.70843 0.14179 0.51262 0.0
H363 H 0.76442 0.19624 0.50759 0.0
H364 H 0.71076 0.23679 0.47659 0.0
H365 H 0.65498 0.1825 0.48146 0.0
H366 H 0.7691 0.25281 0.4605 0.0
H367 H 0.74505 0.26985 0.51917 0.0
H368 H 0.73038 0.25525 0.55021 0.0
H369 H 0.8237 0.24897 0.55779 0.0
H370 H 0.83872 0.26315 0.52672 0.0
H371 H 0.91342 0.43078 0.45468 0.0
H372 H 0.85709 0.37798 0.46093 0.0
H373 H 0.90989 0.33875 0.49348 0.0
H374 H 0.96586 0.39196 0.48796 0.0
H375 H 0.85181 0.32174 0.50869 0.0
H376 H 0.87615 0.30708 0.4492 0.0
H377 H 0.88963 0.3229 0.41819 0.0
H378 H 0.79429 0.32593 0.41206 0.0
H379 H 0.78045 0.31054 0.4431 0.0
C380 C 0.70837 0.16229 0.5048 0.0
C381 C 0.67651 0.15715 0.49757 0.0
C382 C 0.7407 0.19381 0.50194 0.0
C383 C 0.74262 0.22156 0.49172 0.0
C384 C 0.71078 0.21633 0.48447 0.0
C385 C 0.6785 0.18497 0.48739 0.0
C386 C 0.77744 0.25556 0.48837 0.0
C387 C 0.78684 0.26798 0.47114 0.0
C388 C 0.80171 0.27579 0.50196 0.0
C389 C 0.79276 0.26709 0.52059 0.0
C390 C 0.76227 0.26503 0.52743 0.0
C391 C 0.75393 0.25691 0.54503 0.0
C392 C 0.77603 0.25106 0.55595 0.0
C393 C 0.80657 0.25343 0.5493 0.0
C394 C 0.81502 0.26153 0.5317 0.0
C395 C 0.91328 0.41126 0.46334 0.0
C396 C 0.94519 0.41635 0.47055 0.0
C397 C 0.88068 0.38043 0.46676 0.0
C398 C 0.87843 0.35311 0.47746 0.0
C399 C 0.91009 0.35865 0.48506 0.0
C400 C 0.9426 0.38941 0.48168 0.0
C401 C 0.84358 0.31904 0.48078 0.0
C402 C 0.83419 0.30652 0.49802 0.0
C403 C 0.81923 0.29881 0.46718 0.0
C404 C 0.82749 0.3081 0.44853 0.0
C405 C 0.8582 0.31141 0.44127 0.0
C406 C 0.86588 0.32024 0.42368 0.0
C407 C 0.84289 0.32554 0.41317 0.0
C408 C 0.81212 0.32191 0.42022 0.0
C409 C 0.80434 0.31312 0.43782 0.0
H410 H 0.84887 0.33236 0.39955 0.0
H411 H 0.76954 0.24478 0.56958 0.0
H412 H 0.64112 0.69305 0.82636 0.0
H413 H 0.63966 0.74741 0.82146 0.0
H414 H 0.52801 0.69133 0.82943 0.0
H415 H 0.52929 0.63652 0.83413 0.0
H416 H 0.54126 0.7353 0.8032 0.0
H417 H 0.59001 0.75193 0.8607 0.0
H418 H 0.63054 0.75433 0.8838 0.0
H419 H 0.71778 0.83638 0.85636 0.0
H420 H 0.67781 0.83414 0.83296 0.0
H421 H 0.53209 0.89575 0.8071 0.0
H422 H 0.52923 0.83967 0.81416 0.0
H423 H 0.64062 0.8882 0.80658 0.0
H424 H 0.64372 0.94413 0.79988 0.0
H425 H 0.62492 0.84702 0.83373 0.0
H426 H 0.57574 0.82868 0.77575 0.0
H427 H 0.53482 0.82598 0.75279 0.0
H428 H 0.4477 0.74703 0.7816 0.0
H429 H 0.4881 0.7496 0.80486 0.0
C430 C 0.61614 0.69205 0.8272 0.0
C431 C 0.58538 0.65978 0.83085 0.0
C432 C 0.61535 0.72358 0.82444 0.0
C433 C 0.58379 0.72444 0.82524 0.0
C434 C 0.55292 0.69213 0.82872 0.0
C435 C 0.55371 0.66052 0.83155 0.0
C436 C 0.58313 0.75873 0.82232 0.0
C437 C 0.55927 0.7595 0.81015 0.0
C438 C 0.60681 0.79115 0.83096 0.0
C439 C 0.63094 0.79262 0.84499 0.0
C440 C 0.61787 0.7703 0.85952 0.0
C441 C 0.64074 0.77166 0.87268 0.0
C442 C 0.67672 0.79543 0.87152 0.0
C443 C 0.6899 0.81795 0.85722 0.0
C444 C 0.66715 0.81667 0.84401 0.0
C445 C 0.55611 0.89472 0.80705 0.0
C446 C 0.5881 0.92513 0.80265 0.0
C447 C 0.5544 0.86221 0.81095 0.0
C448 C 0.58463 0.85873 0.81073 0.0
C449 C 0.61666 0.88934 0.80683 0.0
C450 C 0.61833 0.92165 0.80281 0.0
C451 C 0.58328 0.8237 0.8145 0.0
C452 C 0.60681 0.8228 0.82684 0.0
C453 C 0.55923 0.79118 0.80605 0.0
C454 C 0.5349 0.78963 0.79213 0.0
C455 C 0.54783 0.81096 0.77726 0.0
C456 C 0.52474 0.80941 0.76418 0.0
C457 C 0.48867 0.78643 0.76576 0.0
C458 C 0.47563 0.76487 0.78041 0.0
C459 C 0.49862 0.76635 0.79354 0.0
H460 H 0.47084 0.78526 0.75562 0.0
H461 H 0.69438 0.79645 0.88173 0.0
H462 H 0.98668 0.6053 0.18367 0.0
H463 H 0.93157 0.60554 0.17877 0.0
H464 H 0.9002 0.52367 0.13965 0.0
H465 H 0.95541 0.52416 0.14407 0.0
H466 H 0.88406 0.57017 0.12769 0.0
H467 H 0.86446 0.51044 0.18218 0.0
H468 H 0.8761 0.5027 0.21298 0.0
H469 H 0.86749 0.5926 0.22808 0.0
H470 H 0.85621 0.60115 0.19734 0.0
H471 H 0.70605 0.52707 0.11551 0.0
H472 H 0.76042 0.52735 0.12196 0.0
H473 H 0.78097 0.59845 0.16546 0.0
H474 H 0.72555 0.59719 0.15934 0.0
H475 H 0.80399 0.55922 0.17546 0.0
H476 H 0.82483 0.6204 0.12136 0.0
H477 H 0.81548 0.63034 0.09056 0.0
H478 H 0.82498 0.54136 0.07457 0.0
H479 H 0.83379 0.5305 0.10531 0.0
C480 C 0.96812 0.58726 0.17402 0.0
C481 C 0.97602 0.56441 0.16447 0.0
C482 C 0.93617 0.58727 0.17124 0.0
C483 C 0.91072 0.56444 0.1588 0.0
C484 C 0.91881 0.54182 0.14924 0.0
C485 C 0.95061 0.54182 0.15198 0.0
C486 C 0.87621 0.56431 0.15544 0.0
C487 C 0.86644 0.5673 0.1382 0.0
C488 C 0.85293 0.56164 0.16895 0.0
C489 C 0.85979 0.5566 0.18743 0.0
C490 C 0.86527 0.52869 0.19205 0.0
C491 C 0.87176 0.52413 0.2095 0.0
C492 C 0.8726 0.54718 0.22246 0.0
C493 C 0.86687 0.57479 0.21802 0.0
C494 C 0.8604 0.57949 0.20059 0.0
C495 C 0.7221 0.54314 0.1264 0.0
C496 C 0.71078 0.56249 0.13667 0.0
C497 C 0.75381 0.54344 0.13009 0.0
C498 C 0.77648 0.56377 0.14401 0.0
C499 C 0.76485 0.58254 0.15455 0.0
C500 C 0.73274 0.58182 0.15101 0.0
C501 C 0.81163 0.56506 0.14762 0.0
C502 C 0.82155 0.56222 0.16492 0.0
C503 C 0.8353 0.5682 0.13415 0.0
C504 C 0.82949 0.57436 0.11568 0.0
C505 C 0.82456 0.60273 0.1113 0.0
C506 C 0.81941 0.60856 0.09384 0.0
C507 C 0.81949 0.58641 0.08063 0.0
C508 C 0.82479 0.55842 0.08483 0.0
C509 C 0.82985 0.5524 0.10227 0.0
H510 H 0.81555 0.59101 0.06712 0.0
H511 H 0.87763 0.5436 0.23596 0.0
H512 H 0.49228 0.93042 0.50979 0.0
H513 H 0.43797 0.87372 0.50572 0.0
H514 H 0.39602 0.92383 0.47297 0.0
H515 H 0.44971 0.9808 0.47764 0.0
H516 H 0.34498 0.87921 0.49105 0.0
H517 H 0.43091 0.86542 0.45822 0.0
H518 H 0.48682 0.86599 0.45497 0.0
H519 H 0.45562 0.78617 0.49413 0.0
H520 H 0.39973 0.78551 0.49782 0.0
H521 H 0.20055 0.72383 0.45381 0.0
H522 H 0.25524 0.77898 0.45923 0.0
H523 H 0.29287 0.72425 0.49138 0.0
H524 H 0.23889 0.66846 0.48524 0.0
H525 H 0.34639 0.77029 0.47461 0.0
H526 H 0.26212 0.78256 0.50788 0.0
H527 H 0.20732 0.78288 0.51361 0.0
H528 H 0.23593 0.86535 0.47616 0.0
H529 H 0.29072 0.86522 0.47003 0.0
C530 C 0.47155 0.92953 0.50171 0.0
C531 C 0.47598 0.9608 0.49406 0.0
C532 C 0.44024 0.89665 0.49922 0.0
C533 C 0.41224 0.89339 0.48864 0.0
C534 C 0.41663 0.92477 0.48116 0.0
C535 C 0.44773 0.9577 0.48382 0.0
C536 C 0.37848 0.85787 0.48547 0.0
C537 C 0.34558 0.85566 0.48718 0.0
C538 C 0.37816 0.82604 0.481 0.0
C539 C 0.41124 0.82562 0.47838 0.0
C540 C 0.43601 0.84806 0.46617 0.0
C541 C 0.46772 0.84843 0.46427 0.0
C542 C 0.4748 0.8262 0.47438 0.0
C543 C 0.45012 0.80343 0.48634 0.0
C544 C 0.41841 0.80301 0.48833 0.0
C545 C 0.22034 0.72304 0.46193 0.0
C546 C 0.21423 0.69065 0.46902 0.0
C547 C 0.25191 0.75522 0.46527 0.0
C548 C 0.27888 0.75685 0.47607 0.0
C549 C 0.27303 0.72458 0.48307 0.0
C550 C 0.24149 0.6923 0.47967 0.0
C551 C 0.31288 0.79181 0.47992 0.0
C552 C 0.3458 0.79388 0.4784 0.0
C553 C 0.31328 0.82349 0.48476 0.0
C554 C 0.28034 0.82361 0.48836 0.0
C555 C 0.2566 0.80058 0.50077 0.0
C556 C 0.22556 0.80076 0.5041 0.0
C557 C 0.2181 0.82405 0.49522 0.0
C558 C 0.24171 0.84728 0.48301 0.0
C559 C 0.27278 0.84718 0.4796 0.0
H560 H 0.19406 0.82416 0.49783 0.0
H561 H 0.49938 0.82657 0.4729 0.0
H562 H 0.52821 0.4285 0.82381 0.0
H563 H 0.52848 0.37355 0.8182 0.0
H564 H 0.6377 0.42486 0.83347 0.0
H565 H 0.63748 0.48017 0.83833 0.0
H566 H 0.6331 0.38427 0.80976 0.0
H567 H 0.55959 0.3572 0.85931 0.0
H568 H 0.5107 0.35166 0.87712 0.0
H569 H 0.43654 0.27983 0.83908 0.0
H570 H 0.48502 0.28527 0.82093 0.0
H571 H 0.63481 0.22154 0.8169 0.0
H572 H 0.63432 0.27583 0.82351 0.0
H573 H 0.53258 0.23267 0.79894 0.0
H574 H 0.53205 0.1774 0.79297 0.0
H575 H 0.53429 0.26859 0.8279 0.0
H576 H 0.61459 0.30973 0.77633 0.0
H577 H 0.6659 0.3147 0.76086 0.0
H578 H 0.72876 0.35624 0.8076 0.0
H579 H 0.67776 0.35179 0.82315 0.0
C580 C 0.55228 0.42811 0.8261 0.0
C581 C 0.5829 0.45934 0.8315 0.0
C582 C 0.55243 0.39623 0.82298 0.0
C583 C 0.58293 0.39371 0.82567 0.0
C584 C 0.61355 0.42508 0.83112 0.0
C585 C 0.61352 0.45714 0.8339 0.0
C586 C 0.58305 0.35896 0.82262 0.0
C587 C 0.61148 0.35926 0.81402 0.0
C588 C 0.55516 0.32526 0.82784 0.0
C589 C 0.52594 0.32194 0.83868 0.0
C590 C 0.53286 0.34041 0.85469 0.0
C591 C 0.50522 0.33726 0.86485 0.0
C592 C 0.47054 0.31549 0.85921 0.0
C593 C 0.46342 0.29673 0.84341 0.0
C594 C 0.49096 0.29982 0.83319 0.0
C595 C 0.61197 0.22306 0.81299 0.0
C596 C 0.58348 0.19412 0.80425 0.0
C597 C 0.61204 0.25488 0.81655 0.0
C598 C 0.58381 0.25959 0.81142 0.0
C599 C 0.55505 0.23057 0.803 0.0
C600 C 0.55493 0.19867 0.79943 0.0
C601 C 0.58403 0.29419 0.815 0.0
C602 C 0.55572 0.29378 0.82368 0.0
C603 C 0.61227 0.3278 0.81025 0.0
C604 C 0.64274 0.33084 0.80081 0.0
C605 C 0.63947 0.32012 0.78322 0.0
C606 C 0.66845 0.32287 0.77444 0.0
C607 C 0.70068 0.33607 0.7832 0.0
C608 C 0.70395 0.34644 0.80076 0.0
C609 C 0.67513 0.34401 0.80952 0.0
H610 H 0.72307 0.33811 0.77641 0.0
H611 H 0.44918 0.31308 0.8671 0.0
H612 H 0.5025 0.83135 0.53195 0.0
H613 H 0.4918 0.77066 0.53168 0.0
H614 H 0.56908 0.79877 0.4913 0.0
H615 H 0.57811 0.85838 0.49088 0.0
H616 H 0.52528 0.73109 0.48902 0.0
H617 H 0.59184 0.81453 0.5366 0.0
H618 H 0.5979 0.85363 0.56142 0.0
H619 H 0.513 0.76628 0.58752 0.0
H620 H 0.50623 0.72678 0.56273 0.0
H621 H 0.66069 0.70114 0.51425 0.0
H622 H 0.61659 0.71572 0.50459 0.0
H623 H 0.54658 0.64909 0.54463 0.0
H624 H 0.59083 0.63472 0.55447 0.0
H625 H 0.56358 0.71706 0.54813 0.0
H626 H 0.51894 0.63195 0.50244 0.0
H627 H 0.52087 0.59761 0.47724 0.0
H628 H 0.57302 0.69213 0.44691 0.0
H629 H 0.57192 0.72719 0.47199 0.0
C630 C 0.51616 0.82399 0.52263 0.0
C631 C 0.54158 0.84942 0.51168 0.0
C632 C 0.51008 0.78943 0.52245 0.0
C633 C 0.53051 0.7805 0.51189 0.0
C634 C 0.55311 0.80498 0.49965 0.0
C635 C 0.55847 0.83916 0.49949 0.0
C636 C 0.53416 0.74934 0.51581 0.0
C637 C 0.53334 0.72767 0.50195 0.0
C638 C 0.54393 0.74433 0.53279 0.0
C639 C 0.54825 0.76788 0.54777 0.0
C640 C 0.57442 0.80374 0.54762 0.0
C641 C 0.57796 0.82596 0.56166 0.0
C642 C 0.55577 0.81247 0.57601 0.0
C643 C 0.53009 0.7767 0.57637 0.0
C644 C 0.52637 0.7544 0.56234 0.0
C645 C 0.63553 0.6889 0.52068 0.0
C646 C 0.62933 0.66722 0.53524 0.0
C647 C 0.61016 0.69686 0.51502 0.0
C648 C 0.57821 0.68334 0.52385 0.0
C649 C 0.57094 0.65955 0.53756 0.0
C650 C 0.59625 0.65138 0.54315 0.0
C651 C 0.55644 0.69993 0.52116 0.0
C652 C 0.55398 0.71907 0.53531 0.0
C653 C 0.54471 0.70318 0.50437 0.0
C654 C 0.54537 0.68224 0.48916 0.0
C655 C 0.53102 0.64548 0.49044 0.0
C656 C 0.53194 0.62587 0.47616 0.0
C657 C 0.54706 0.64268 0.46049 0.0
C658 C 0.56126 0.67914 0.45906 0.0
C659 C 0.56042 0.69889 0.4733 0.0
H660 H 0.54775 0.62745 0.44945 0.0
H661 H 0.55853 0.82971 0.58687 0.0
H662 H 0.67446 0.45493 0.80257 0.0
H663 H 0.6981 0.41512 0.8032 0.0
H664 H 0.79852 0.49985 0.78683 0.0
H665 H 0.77519 0.53998 0.78639 0.0
H666 H 0.78555 0.42917 0.77788 0.0
H667 H 0.78092 0.49963 0.82752 0.0
H668 H 0.74917 0.517 0.84801 0.0
H669 H 0.68525 0.40903 0.86356 0.0
H670 H 0.71745 0.39131 0.8435 0.0
H671 H 0.93216 0.48906 0.82812 0.0
H672 H 0.88193 0.46424 0.80851 0.0
H673 H 0.8212 0.38427 0.84639 0.0
H674 H 0.8718 0.40987 0.86642 0.0
H675 H 0.79501 0.42328 0.84233 0.0
H676 H 0.82211 0.36188 0.80138 0.0
H677 H 0.85736 0.34733 0.78185 0.0
H678 H 0.88197 0.43776 0.75053 0.0
H679 H 0.84737 0.45325 0.77 0.0
C680 C 0.70117 0.46465 0.7984 0.0
C681 C 0.72339 0.50072 0.79495 0.0
C682 C 0.71451 0.44175 0.79861 0.0
C683 C 0.75017 0.45473 0.79541 0.0
C684 C 0.7709 0.48936 0.78936 0.0
C685 C 0.75759 0.51235 0.78917 0.0
C686 C 0.76794 0.43666 0.80283 0.0
C687 C 0.78762 0.42746 0.79194 0.0
C688 C 0.76931 0.4331 0.82116 0.0
C689 C 0.75057 0.44391 0.83352 0.0
C690 C 0.75987 0.47957 0.83518 0.0
C691 C 0.74204 0.48954 0.84684 0.0
C692 C 0.71486 0.46407 0.8569 0.0
C693 C 0.70601 0.42868 0.8556 0.0
C694 C 0.72408 0.41867 0.84412 0.0
C695 C 0.90872 0.46514 0.83199 0.0
C696 C 0.90564 0.45192 0.84898 0.0
C697 C 0.87984 0.45065 0.82062 0.0
C698 C 0.84745 0.42246 0.82597 0.0
C699 C 0.84581 0.40618 0.84201 0.0
C700 C 0.87465 0.42096 0.85349 0.0
C701 C 0.81489 0.41774 0.81749 0.0
C702 C 0.79212 0.42292 0.8282 0.0
C703 C 0.81104 0.41772 0.79907 0.0
C704 C 0.83202 0.40871 0.7872 0.0
C705 C 0.83519 0.37881 0.79039 0.0
C706 C 0.85505 0.37038 0.77931 0.0
C707 C 0.87187 0.3916 0.76495 0.0
C708 C 0.86885 0.4213 0.76163 0.0
C709 C 0.84901 0.42986 0.77267 0.0
H710 H 0.88726 0.38503 0.75639 0.0
H711 H 0.70088 0.47179 0.8658 0.0
H712 H 0.28097 0.79054 0.1807 0.0
H713 H 0.34396 0.82591 0.17638 0.0
H714 H 0.35356 0.73321 0.18219 0.0
H715 H 0.28994 0.6971 0.18602 0.0
H716 H 0.39979 0.7894 0.20319 0.0
H717 H 0.36954 0.76919 0.1432 0.0
H718 H 0.33605 0.76373 0.11624 0.0
H719 H 0.36764 0.87369 0.1198 0.0
H720 H 0.40091 0.87975 0.14694 0.0
H721 H 0.57809 0.92455 0.19909 0.0
H722 H 0.52675 0.86975 0.18846 0.0
H723 H 0.47102 0.92607 0.17999 0.0
H724 H 0.5222 0.98069 0.19023 0.0
H725 H 0.45421 0.8748 0.15494 0.0
H726 H 0.46632 0.8875 0.2189 0.0
H727 H 0.49779 0.89402 0.24676 0.0
H728 H 0.49847 0.79806 0.23579 0.0
H729 H 0.46737 0.79126 0.20774 0.0
C730 C 0.29625 0.77743 0.1807 0.0
C731 C 0.28037 0.74097 0.18368 0.0
C732 C 0.33229 0.79771 0.17821 0.0
C733 C 0.35327 0.78203 0.17869 0.0
C734 C 0.33768 0.74567 0.18165 0.0
C735 C 0.30144 0.72522 0.18401 0.0
C736 C 0.39177 0.80473 0.17761 0.0
C737 C 0.412 0.80731 0.19238 0.0
C738 C 0.40751 0.82822 0.16356 0.0
C739 C 0.3877 0.82489 0.14716 0.0
C740 C 0.36919 0.79218 0.13831 0.0
C741 C 0.35026 0.78898 0.12298 0.0
C742 C 0.34971 0.81834 0.11632 0.0
C743 C 0.36813 0.85098 0.12497 0.0
C744 C 0.3871 0.85432 0.14031 0.0
C745 C 0.55516 0.9253 0.19451 0.0
C746 C 0.55375 0.9566 0.19575 0.0
C747 C 0.52591 0.89405 0.1885 0.0
C748 C 0.49501 0.89384 0.18366 0.0
C749 C 0.4946 0.92566 0.18367 0.0
C750 C 0.52368 0.95674 0.1897 0.0
C751 C 0.46158 0.86038 0.18084 0.0
C752 C 0.44233 0.85587 0.16539 0.0
C753 C 0.44658 0.83518 0.19429 0.0
C754 C 0.46498 0.83912 0.21117 0.0
C755 C 0.4734 0.86794 0.2224 0.0
C756 C 0.49113 0.87167 0.23822 0.0
C757 C 0.50023 0.84653 0.24302 0.0
C758 C 0.4915 0.81755 0.23203 0.0
C759 C 0.47383 0.81375 0.21618 0.0
H760 H 0.51395 0.84945 0.25527 0.0
H761 H 0.33502 0.8158 0.10445 0.0
H762 H 0.61545 0.28082 0.45713 0.0
H763 H 0.65086 0.34559 0.45901 0.0
H764 H 0.6598 0.3396 0.51492 0.0
H765 H 0.62323 0.27566 0.5134 0.0
H766 H 0.63669 0.39381 0.48491 0.0
H767 H 0.75106 0.3907 0.52077 0.0
H768 H 0.78069 0.35558 0.52001 0.0
H769 H 0.75184 0.32996 0.46588 0.0
H770 H 0.72253 0.36531 0.4662 0.0
H771 H 0.75809 0.51725 0.55377 0.0
H772 H 0.74096 0.46557 0.53507 0.0
H773 H 0.73027 0.52073 0.49101 0.0
H774 H 0.74638 0.57222 0.50981 0.0
H775 H 0.76059 0.44742 0.50504 0.0
H776 H 0.65375 0.46132 0.46941 0.0
H777 H 0.6203 0.49238 0.4725 0.0
H778 H 0.63008 0.49194 0.52843 0.0
H779 H 0.66312 0.46047 0.52566 0.0
C780 C 0.62449 0.29334 0.46985 0.0
C781 C 0.6168 0.27294 0.4851 0.0
C782 C 0.64488 0.33024 0.47085 0.0
C783 C 0.65822 0.34703 0.48706 0.0
C784 C 0.6501 0.3269 0.50227 0.0
C785 C 0.62939 0.29031 0.50133 0.0
C786 C 0.68052 0.38569 0.48866 0.0
C787 C 0.66416 0.40602 0.48869 0.0
C788 C 0.71604 0.40108 0.49393 0.0
C789 C 0.73446 0.38055 0.49354 0.0
C790 C 0.75127 0.37781 0.50867 0.0
C791 C 0.76796 0.35782 0.50832 0.0
C792 C 0.76809 0.3406 0.4929 0.0
C793 C 0.75164 0.34331 0.4778 0.0
C794 C 0.73494 0.36326 0.47807 0.0
C795 C 0.75265 0.51856 0.54003 0.0
C796 C 0.75303 0.54852 0.53331 0.0
C797 C 0.74318 0.48916 0.52932 0.0
C798 C 0.73385 0.48918 0.51173 0.0
C799 C 0.73706 0.52011 0.50461 0.0
C800 C 0.74648 0.54957 0.51534 0.0
C801 C 0.7165 0.45541 0.50178 0.0
C802 C 0.73367 0.43587 0.50042 0.0
C803 C 0.68155 0.4406 0.49544 0.0
C804 C 0.66131 0.45905 0.4973 0.0
C805 C 0.64869 0.46783 0.48235 0.0
C806 C 0.62979 0.48548 0.48405 0.0
C807 C 0.62321 0.49427 0.50065 0.0
C808 C 0.63532 0.48525 0.51558 0.0
C809 C 0.65413 0.46752 0.51395 0.0
H810 H 0.60863 0.50798 0.50193 0.0
H811 H 0.78095 0.3252 0.49265 0.0
H812 H 0.41893 0.60991 0.87544 0.0
H813 H 0.37335 0.62578 0.87845 0.0
H814 H 0.31462 0.55469 0.83594 0.0
H815 H 0.36035 0.53921 0.83256 0.0
H816 H 0.33609 0.64991 0.85546 0.0
H817 H 0.23201 0.50358 0.85224 0.0
H818 H 0.22722 0.4453 0.85568 0.0
H819 H 0.31318 0.49 0.89255 0.0
H820 H 0.31807 0.54836 0.88954 0.0
H821 H 0.1567 0.61512 0.85744 0.0
H822 H 0.21272 0.61949 0.85006 0.0
H823 H 0.22228 0.58991 0.90265 0.0
H824 H 0.16678 0.5861 0.91022 0.0
H825 H 0.22676 0.54736 0.87728 0.0
H826 H 0.27556 0.67172 0.88983 0.0
H827 H 0.28087 0.73016 0.88636 0.0
H828 H 0.30579 0.7305 0.83214 0.0
H829 H 0.30015 0.67181 0.83523 0.0
C830 C 0.39682 0.59842 0.8664 0.0
C831 C 0.39289 0.57283 0.85396 0.0
C832 C 0.37088 0.60759 0.86812 0.0
C833 C 0.34063 0.59114 0.85752 0.0
C834 C 0.33776 0.56746 0.8443 0.0
C835 C 0.3637 0.55838 0.84253 0.0
C836 C 0.31005 0.59472 0.86192 0.0
C837 C 0.31208 0.62756 0.86016 0.0
C838 C 0.27898 0.56552 0.86817 0.0
C839 C 0.27561 0.53035 0.87052 0.0
C840 C 0.24975 0.50089 0.86115 0.0
C841 C 0.24703 0.46786 0.86301 0.0
C842 C 0.26996 0.46398 0.87428 0.0
C843 C 0.29551 0.49307 0.88378 0.0
C844 C 0.29828 0.52612 0.882 0.0
C845 C 0.17118 0.6104 0.86754 0.0
C846 C 0.1572 0.59988 0.88436 0.0
C847 C 0.2031 0.61284 0.86329 0.0
C848 C 0.22145 0.60489 0.87581 0.0
C849 C 0.20832 0.59594 0.8928 0.0
C850 C 0.17657 0.5936 0.89706 0.0
C851 C 0.2526 0.60264 0.87092 0.0
C852 C 0.25062 0.56982 0.87251 0.0
C853 C 0.28358 0.6319 0.86457 0.0
C854 C 0.28709 0.66722 0.86273 0.0
C855 C 0.28187 0.68411 0.87713 0.0
C856 C 0.285 0.71731 0.87524 0.0
C857 C 0.29357 0.73399 0.85903 0.0
C858 C 0.29911 0.71753 0.84469 0.0
C859 C 0.29599 0.68432 0.84651 0.0
H860 H 0.29598 0.75969 0.8576 0.0
H861 H 0.26787 0.43841 0.87567 0.0
H862 H 0.8664 0.45726 0.13105 0.0
H863 H 0.80235 0.42313 0.13292 0.0
H864 H 0.80382 0.32893 0.11752 0.0
H865 H 0.86736 0.36269 0.11562 0.0
H866 H 0.73947 0.3239 0.10955 0.0
H867 H 0.82307 0.35707 0.1608 0.0
H868 H 0.86963 0.40307 0.17961 0.0
H869 H 0.80578 0.45011 0.1883 0.0
H870 H 0.75898 0.40445 0.16942 0.0
H871 H 0.69733 0.18412 0.16106 0.0
H872 H 0.71171 0.23391 0.1422 0.0
H873 H 0.66668 0.27406 0.1794 0.0
H874 H 0.65287 0.22411 0.19862 0.0
H875 H 0.73127 0.32057 0.17427 0.0
H876 H 0.6378 0.26008 0.13542 0.0
H877 H 0.59287 0.21122 0.11735 0.0
H878 H 0.67314 0.21338 0.08506 0.0
H879 H 0.71864 0.26183 0.10308 0.0
C880 C 0.85285 0.42951 0.12743 0.0
C881 C 0.87184 0.41233 0.12372 0.0
C882 C 0.81627 0.41013 0.12837 0.0
C883 C 0.79845 0.37335 0.12581 0.0
C884 C 0.81702 0.35727 0.11961 0.0
C885 C 0.85349 0.37662 0.11858 0.0
C886 C 0.76381 0.35046 0.13378 0.0
C887 C 0.73706 0.32327 0.12367 0.0
C888 C 0.76004 0.3506 0.15215 0.0
C889 C 0.78779 0.37766 0.16366 0.0
C890 C 0.81906 0.37728 0.16674 0.0
C891 C 0.84546 0.40327 0.17738 0.0
C892 C 0.84073 0.42958 0.18509 0.0
C893 C 0.80948 0.42982 0.18226 0.0
C894 C 0.783 0.40389 0.1716 0.0
C895 C 0.68973 0.20311 0.16501 0.0
C896 C 0.67465 0.20074 0.18141 0.0
C897 C 0.69741 0.23134 0.15408 0.0
C898 C 0.69006 0.25776 0.15927 0.0
C899 C 0.67238 0.2539 0.17506 0.0
C900 C 0.66456 0.22543 0.18603 0.0
C901 C 0.70795 0.29217 0.15016 0.0
C902 C 0.73184 0.32176 0.16009 0.0
C903 C 0.70887 0.29403 0.13166 0.0
C904 C 0.68172 0.26482 0.12062 0.0
C905 C 0.64594 0.25007 0.12452 0.0
C906 C 0.62034 0.22241 0.11427 0.0
C907 C 0.63014 0.20924 0.10005 0.0
C908 C 0.66558 0.2237 0.09605 0.0
C909 C 0.6913 0.25136 0.10625 0.0
H910 H 0.61028 0.18782 0.09214 0.0
H911 H 0.86126 0.4497 0.19328 0.0
H912 H 1.04779 0.61785 0.12119 0.0
H913 H 1.02745 0.60341 0.09082 0.0
H914 H 0.0659 0.53021 0.08844 0.0
H915 H 0.08772 0.54588 0.11864 0.0
H916 H 0.0848 0.57017 0.06076 0.0
H917 H 0.97706 0.50409 0.09185 0.0
H918 H 0.93042 0.49454 0.11244 0.0
H919 H 0.90862 0.56474 0.08319 0.0
H920 H 0.95592 0.57581 0.06272 0.0
H921 H 1.01557 0.509 0.97646 0.0
H922 H 1.02282 0.50758 0.00806 0.0
H923 H 0.98824 0.58308 0.01521 0.0
H924 H 0.97914 0.58327 0.98365 0.0
H925 H 0.96434 0.53583 0.04082 0.0
H926 H 0.07564 0.60936 0.01337 0.0
H927 H 0.12313 0.62272 0.99259 0.0
H928 H 0.13833 0.54181 0.01522 0.0
H929 H 0.09057 0.52764 0.03599 0.0
C930 C 1.05193 0.59872 0.11416 0.0
C931 C 0.06897 0.58265 0.12225 0.0
C932 C 1.03994 0.59018 0.09688 0.0
C933 C 1.04444 0.56513 0.08747 0.0
C934 C 0.0618 0.54932 0.09552 0.0
C935 C 0.07408 0.55812 0.11276 0.0
C936 C 1.033 0.5571 0.0689 0.0
C937 C 0.05823 0.56194 0.05646 0.0
C938 C 0.99857 0.54738 0.06326 0.0
C939 C 0.9703 0.54095 0.07575 0.0
C940 C 0.96263 0.51782 0.08988 0.0
C941 C 0.93601 0.51208 0.10153 0.0
C942 C 0.91648 0.52886 0.09907 0.0
C943 C 0.92374 0.55171 0.08505 0.0
C944 C 0.9505 0.55778 0.07344 0.0
C945 C 1.0086 0.52462 0.98475 0.0
C946 C 0.99711 0.54656 0.97748 0.0
C947 C 1.01312 0.52404 0.00282 0.0
C948 C 1.00676 0.54577 0.01395 0.0
C949 C 0.99353 0.56626 0.00685 0.0
C950 C 0.98871 0.56663 0.98879 0.0
C951 C 1.0162 0.54913 0.03281 0.0
C952 C 0.9907 0.54354 0.04524 0.0
C953 C 1.05047 0.5586 0.03852 0.0
C954 C 0.07927 0.56718 0.02609 0.0
C955 C 0.08894 0.59424 0.01382 0.0
C956 C 0.11592 0.60198 0.00206 0.0
C957 C 0.13367 0.58305 0.00255 0.0
C958 C 0.12452 0.5564 0.01483 0.0
C959 C 0.0975 0.54851 0.02661 0.0
H960 H 0.15456 0.58909 0.99344 0.0
H961 H 0.89564 0.52409 0.10798 0.0
H962 H 0.54082 0.05021 0.45212 0.0
H963 H 0.54278 0.06252 0.4207 0.0
H964 H 0.64804 0.07964 0.41873 0.0
H965 H 0.64655 0.06852 0.44998 0.0
H966 H 0.64401 0.12894 0.40098 0.0
H967 H 0.57458 1.00096 0.40512 0.0
H968 H 0.52426 0.94517 0.41519 0.0
H969 H 0.45304 0.97181 0.39037 0.0
H970 H 0.50298 1.02801 0.38034 0.0
H971 H 0.67776 0.09006 0.31707 0.0
H972 H 0.6633 0.08858 0.34797 0.0
H973 H 0.56979 0.09128 0.33382 0.0
H974 H 0.58422 0.0928 0.3027 0.0
H975 H 0.55962 1.03856 0.35907 0.0
H976 H 0.63198 0.16242 0.35051 0.0
H977 H 0.68364 0.21679 0.3402 0.0
H978 H 0.75076 0.19676 0.37328 0.0
H979 H 0.69956 0.14196 0.38358 0.0
C980 C 0.56437 0.05681 0.44494 0.0
C981 C 0.59355 0.05845 0.45341 0.0
C982 C 0.56542 0.06368 0.42701 0.0
C983 C 0.59552 0.07183 0.41734 0.0
C984 C 0.62462 0.07359 0.42592 0.0
C985 C 0.62366 0.06701 0.44376 0.0
C986 C 0.59712 0.07803 0.39824 0.0
C987 C 0.62556 0.10915 0.39182 0.0
C988 C 0.57242 0.05274 0.38629 0.0
C989 C 0.54246 1.01884 0.39217 0.0
C990 C 0.54817 0.99502 0.40192 0.0
C991 C 0.51973 0.96332 0.4076 0.0
C992 C 0.48547 0.95501 0.40347 0.0
C993 C 0.47959 0.97833 0.39359 0.0
C994 C 0.50794 1.01009 0.3879 0.0
C995 C 0.65411 0.09032 0.32054 0.0
C996 C 0.63208 0.09152 0.30753 0.0
C997 C 0.64598 0.08967 0.33817 0.0
C998 C 0.61562 0.09006 0.34313 0.0
C999 C 0.59339 0.09108 0.33021 0.0
C1000 C 0.60175 0.09215 0.3125 0.0
C1001 C 0.60727 0.08876 0.36192 0.0
C1002 C 0.57758 0.05868 0.36825 0.0
C1003 C 0.63099 0.11485 0.37382 0.0
C1004 C 0.6619 0.14795 0.36775 0.0
C1005 C 0.65777 0.16946 0.35549 0.0
C1006 C 0.68698 0.20039 0.34967 0.0
C1007 C 0.72047 0.2102 0.35607 0.0
C1008 C 0.7248 0.18913 0.36834 0.0
C1009 C 0.69569 0.15815 0.37419 0.0
H1010 H 0.74305 0.23415 0.35154 0.0
H1011 H 0.46349 0.93046 0.40789 0.0
H1012 H 0.61278 0.60627 0.79084 0.0
H1013 H 0.63525 0.61445 0.76112 0.0
H1014 H 0.56614 0.50363 0.74997 0.0
H1015 H 0.54422 0.49502 0.78009 0.0
H1016 H 0.66837 0.58138 0.74415 0.0
H1017 H 0.53878 0.50271 0.70603 0.0
H1018 H 0.47582 0.48251 0.70929 0.0
H1019 H 0.50151 0.57168 0.74272 0.0
H1020 H 0.56456 0.59263 0.73945 0.0
H1021 H 0.70186 0.57429 0.65245 0.0
H1022 H 0.67782 0.55591 0.68178 0.0
H1023 H 0.64407 0.6328 0.68166 0.0
H1024 H 0.66892 0.65216 0.65272 0.0
H1025 H 0.59217 0.56634 0.69286 0.0
H1026 H 0.71532 0.65049 0.70332 0.0
H1027 H 0.77886 0.67365 0.70048 0.0
H1028 H 0.76751 0.57896 0.72307 0.0
H1029 H 0.70377 0.555 0.72579 0.0
C1030 C 0.6027 0.58353 0.78215 0.0
C1031 C 0.57721 0.5499 0.7878 0.0
C1032 C 0.61552 0.58827 0.76518 0.0
C1033 C 0.60252 0.55962 0.75344 0.0
C1034 C 0.57652 0.52603 0.7589 0.0
C1035 C 0.56397 0.52118 0.77603 0.0
C1036 C 0.61591 0.56554 0.73537 0.0
C1037 C 0.65168 0.57773 0.7329 0.0
C1038 C 0.5941 0.56099 0.72078 0.0
C1039 C 0.55632 0.54894 0.72267 0.0
C1040 C 0.53095 0.51802 0.71404 0.0
C1041 C 0.49527 0.50645 0.71589 0.0
C1042 C 0.48467 0.52572 0.72627 0.0
C1043 C 0.50974 0.55669 0.73475 0.0
C1044 C 0.54545 0.56838 0.73293 0.0
C1045 C 0.68971 0.5876 0.65874 0.0
C1046 C 0.68728 0.61468 0.65017 0.0
C1047 C 0.67577 0.57686 0.67544 0.0
C1048 C 0.65908 0.59293 0.68382 0.0
C1049 C 0.65654 0.61983 0.67532 0.0
C1050 C 0.67068 0.63077 0.65873 0.0
C1051 C 0.64474 0.58239 0.70161 0.0
C1052 C 0.60877 0.5693 0.70405 0.0
C1053 C 0.66643 0.58638 0.7162 0.0
C1054 C 0.70472 0.60076 0.71453 0.0
C1055 C 0.72632 0.63446 0.70751 0.0
C1056 C 0.76238 0.64776 0.70596 0.0
C1057 C 0.77719 0.62774 0.71153 0.0
C1058 C 0.75598 0.5944 0.71872 0.0
C1059 C 0.71989 0.58095 0.72027 0.0
H1060 H 0.80512 0.6381 0.71033 0.0
H1061 H 0.45704 0.51671 0.72769 0.0
H1062 H 0.61828 0.08471 0.54972 0.0
H1063 H 0.62322 0.08255 0.58162 0.0
H1064 H 0.51267 0.04577 0.58616 0.0
H1065 H 0.50797 0.04889 0.55436 0.0
H1066 H 0.54563 0.09269 0.61038 0.0
H1067 H 0.54885 0.99016 0.59154 0.0
H1068 H 0.56962 0.95643 0.57448 0.0
H1069 H 0.67237 1.01808 0.59754 0.0
H1070 H 0.65228 0.05246 0.61463 0.0
H1071 H 0.52995 1.03988 0.69953 0.0
H1072 H 0.52436 1.03832 0.66758 0.0
H1073 H 0.63644 0.08553 0.66313 0.0
H1074 H 0.64217 0.08652 0.69503 0.0
H1075 H 0.60228 1.03246 0.63904 0.0
H1076 H 0.59679 0.1348 0.65796 0.0
H1077 H 0.5737 0.16643 0.67507 0.0
H1078 H 0.47175 0.1016 0.65169 0.0
H1079 H 0.49415 0.06926 0.63461 0.0
C1080 C 0.59504 0.07607 0.55754 0.0
C1081 C 0.56273 0.06696 0.5495 0.0
C1082 C 0.59781 0.07464 0.57581 0.0
C1083 C 0.56823 0.06358 0.58648 0.0
C1084 C 0.53596 0.05445 0.57837 0.0
C1085 C 0.53325 0.05612 0.56014 0.0
C1086 C 0.57091 0.06213 0.60604 0.0
C1087 C 0.55759 0.07904 0.61658 0.0
C1088 C 0.58701 0.0449 0.61436 0.0
C1089 C 0.59914 1.02411 0.60424 0.0
C1090 C 0.57594 0.99668 0.59289 0.0
C1091 C 0.58758 0.97743 0.58322 0.0
C1092 C 0.62233 0.98519 0.58488 0.0
C1093 C 0.64547 1.01214 0.59626 0.0
C1094 C 0.63396 1.03149 0.60596 0.0
C1095 C 0.55342 0.04963 0.69178 0.0
C1096 C 0.58656 0.06356 0.69999 0.0
C1097 C 0.55021 0.04898 0.67346 0.0
C1098 C 0.58002 0.06219 0.66282 0.0
C1099 C 0.61302 0.07529 0.67096 0.0
C1100 C 0.61627 0.07613 0.68927 0.0
C1101 C 0.57696 0.06296 0.64328 0.0
C1102 C 0.59026 0.046 0.63278 0.0
C1103 C 0.56049 0.07979 0.63498 0.0
C1104 C 0.54707 0.0994 0.64514 0.0
C1105 C 0.5694 0.12713 0.65656 0.0
C1106 C 0.55644 0.14521 0.66624 0.0
C1107 C 0.52126 0.13597 0.66451 0.0
C1108 C 0.49899 0.1087 0.65304 0.0
C1109 C 0.5118 0.09051 0.64335 0.0
H1110 H 0.51128 0.15 0.67201 0.0
H1111 H 0.63131 0.97026 0.57737 0.0
H1112 H 0.55522 0.51842 0.88385 0.0
H1113 H 0.54578 0.51311 0.91565 0.0
H1114 H 0.63331 0.6186 0.92322 0.0
H1115 H 0.64235 0.62428 0.89163 0.0
H1116 H 0.63498 0.56985 0.94615 0.0
H1117 H 0.5524 0.60432 0.92605 0.0
H1118 H 0.50307 0.59722 0.9076 0.0
H1119 H 0.43575 0.49573 0.9301 0.0
H1120 H 0.48489 0.50194 0.94846 0.0
H1121 H 0.61854 0.60275 0.03484 0.0
H1122 H 0.62271 0.606 0.0031 0.0
H1123 H 0.52187 0.51092 0.99828 0.0
H1124 H 0.51618 0.50897 0.03001 0.0
H1125 H 0.52534 0.55112 0.97347 0.0
H1126 H 0.60442 0.51384 0.99314 0.0
H1127 H 0.65289 0.51596 0.01046 0.0
H1128 H 0.72513 0.61615 0.98814 0.0
H1129 H 0.677 0.61485 0.97084 0.0
C1130 C 0.57222 0.54056 0.89229 0.0
C1131 C 0.5994 0.57186 0.88516 0.0
C1132 C 0.56685 0.53749 0.91048 0.0
C1133 C 0.58879 0.56551 0.92191 0.0
C1134 C 0.61606 0.59658 0.91476 0.0
C1135 C 0.62113 0.59982 0.89664 0.0
C1136 C 0.5837 0.56273 0.94132 0.0
C1137 C 0.61115 0.56614 0.95214 0.0
C1138 C 0.55221 0.55676 0.94918 0.0
C1139 C 0.52242 0.55344 0.9385 0.0
C1140 C 0.52714 0.58038 0.92699 0.0
C1141 C 0.49921 0.57653 0.91655 0.0
C1142 C 0.46632 0.546 0.91764 0.0
C1143 C 0.46126 0.51934 0.92924 0.0
C1144 C 0.48914 0.52302 0.93967 0.0
C1145 C 0.59682 0.58279 0.02714 0.0
C1146 C 0.5671 0.5554 0.03533 0.0
C1147 C 0.59954 0.58437 0.00883 0.0
C1148 C 0.57305 0.5582 0.99806 0.0
C1149 C 0.54295 0.53136 0.00613 0.0
C1150 C 0.53995 0.53004 0.02444 0.0
C1151 C 0.57689 0.55863 0.97848 0.0
C1152 C 0.5492 0.55474 0.96758 0.0
C1153 C 0.60799 0.56354 0.97048 0.0
C1154 C 0.63703 0.5644 0.98082 0.0
C1155 C 0.6306 0.53644 0.99201 0.0
C1156 C 0.65802 0.53748 0.00182 0.0
C1157 C 0.69205 0.56621 0.00044 0.0
C1158 C 0.69875 0.59393 0.98921 0.0
C1159 C 0.67142 0.59304 0.9794 0.0
H1160 H 0.71324 0.56697 0.00804 0.0
H1161 H 0.44475 0.54304 0.90952 0.0
H1162 H 1.05216 0.57669 0.21757 0.0
H1163 H 1.05386 0.57989 0.24967 0.0
H1164 H 0.08582 0.50162 0.25136 0.0
H1165 H 0.08357 0.49799 0.21937 0.0
H1166 H 1.03719 0.48658 0.27488 0.0
H1167 H 0.14403 0.59129 0.25964 0.0
H1168 H 0.17984 0.64762 0.24443 0.0
H1169 H 0.12374 0.6916 0.26991 0.0
H1170 H 0.0873 0.63535 0.28515 0.0
H1171 H 0.09689 0.50697 0.36273 0.0
H1172 H 0.09357 0.50724 0.33085 0.0
H1173 H 0.05589 0.58086 0.3336 0.0
H1174 H 0.05991 0.58135 0.36566 0.0
H1175 H 0.10518 0.59931 0.30799 0.0
H1176 H 0.99979 0.49424 0.3241 0.0
H1177 H 0.9645 0.43748 0.33905 0.0
H1178 H 1.01894 0.39386 0.31163 0.0
H1179 H 1.05492 0.45054 0.29669 0.0
C1180 C 0.05967 0.56028 0.22481 0.0
C1181 C 0.06776 0.5371 0.2159 0.0
C1182 C 0.06078 0.56221 0.24319 0.0
C1183 C 0.07027 0.54121 0.2531 0.0
C1184 C 0.07835 0.51808 0.24414 0.0
C1185 C 0.07718 0.51611 0.2258 0.0
C1186 C 0.07135 0.54279 0.27274 0.0
C1187 C 1.05243 0.51123 0.28207 0.0
C1188 C 0.09047 0.57496 0.28231 0.0
C1189 C 0.1127 0.60899 0.2734 0.0
C1190 C 0.13918 0.6129 0.26192 0.0
C1191 C 0.1596 0.64482 0.25329 0.0
C1192 C 0.15396 0.67312 0.25614 0.0
C1193 C 0.12802 0.66962 0.26769 0.0
C1194 C 0.10751 0.63774 0.27634 0.0
C1195 C 0.08812 0.52348 0.35662 0.0
C1196 C 0.07871 0.54417 0.36692 0.0
C1197 C 0.08596 0.52337 0.33831 0.0
C1198 C 0.07416 0.54382 0.32968 0.0
C1199 C 0.065 0.56477 0.33987 0.0
C1200 C 0.06702 0.56477 0.35825 0.0
C1201 C 0.07132 0.54303 0.31008 0.0
C1202 C 0.08986 0.5747 0.30078 0.0
C1203 C 1.05198 0.51093 0.3005 0.0
C1204 C 1.03025 0.47674 0.30939 0.0
C1205 C 1.00441 0.47263 0.32135 0.0
C1206 C 0.98425 0.44045 0.32981 0.0
C1207 C 0.98952 0.41211 0.32632 0.0
C1208 C 1.01491 0.41585 0.31433 0.0
C1209 C 1.03516 0.44799 0.30585 0.0
H1210 H 0.97389 0.38722 0.33288 0.0
H1211 H 0.16977 0.69779 0.24942 0.0
loop_
_geom_bond_atom_site_label_1
_geom_bond_atom_site_label_2
_geom_bond_distance
_geom_bond_site_symmetry_2
_ccdc_geom_bond_type
Tb0 C2 2.809 . S
Tb0 O20 2.484 . S
Tb0 O21 2.440 . S
Tb0 O22 2.658 . S
Tb0 O23 2.409 . S
Tb0 O24 2.378 . S
Tb0 O28 2.325 . S
Tb0 O31 2.341 1_455 S
Tb1 C11 2.809 1_455 S
Tb1 O22 2.325 . S
Tb1 O25 2.341 . S
Tb1 O26 2.484 1_455 S
Tb1 O27 2.440 1_455 S
Tb1 O28 2.658 . S
Tb1 O29 2.409 . S
Tb1 O30 2.378 1_455 S
C2 Tb0 2.809 . S
C2 C3 1.514 . S
C2 O20 1.248 . S
C2 O21 1.266 . S
C3 C2 1.514 . S
C3 C4 1.359 . S
C3 C8 1.348 . S
C4 C3 1.359 . S
C4 C5 1.380 . S
C4 H32 0.929 . S
C5 C4 1.380 . S
C5 C6 1.347 . S
C5 H33 0.931 . S
C6 C5 1.347 . S
C6 C7 1.369 . S
C7 C6 1.369 . S
C7 C8 1.408 . S
C7 H34 0.930 . S
C8 C3 1.348 . S
C8 C7 1.408 . S
C8 H35 0.930 . S
C9 O22 1.281 . S
C9 O23 1.254 . S
C10 O24 1.236 . S
C10 O25 1.266 . S
C11 Tb1 2.809 1_655 S
C11 C12 1.514 . S
C11 O26 1.248 . S
C11 O27 1.266 . S
C12 C11 1.514 . S
C12 C13 1.359 . S
C12 C17 1.348 . S
C13 C12 1.359 . S
C13 C14 1.380 . S
C13 H36 0.929 . S
C14 C13 1.380 . S
C14 C15 1.347 . S
C14 H37 0.931 . S
C15 C14 1.347 . S
C15 C16 1.369 . S
C16 C15 1.369 . S
C16 C17 1.408 . S
C16 H38 0.930 . S
C17 C12 1.348 . S
C17 C16 1.408 . S
C17 H39 0.930 . S
C18 O28 1.281 . S
C18 O29 1.254 . S
C19 O30 1.236 . S
C19 O31 1.266 . S
O20 Tb0 2.484 . S
O20 C2 1.248 . S
O21 Tb0 2.440 . S
O21 C2 1.266 . S
O22 Tb0 2.658 . S
O22 Tb1 2.325 . S
O22 C9 1.281 . S
O23 Tb0 2.409 . S
O23 C9 1.254 . S
O24 Tb0 2.378 . S
O24 C10 1.236 . S
O25 Tb1 2.341 . S
O25 C10 1.266 . S
O26 Tb1 2.484 1_655 S
O26 C11 1.248 . S
O27 Tb1 2.440 1_655 S
O27 C11 1.266 . S
O28 Tb0 2.325 . S
O28 Tb1 2.658 . S
O28 C18 1.281 . S
O29 Tb1 2.409 . S
O29 C18 1.254 . S
O30 Tb1 2.378 1_655 S
O30 C19 1.236 . S
O31 Tb0 2.341 1_655 S
O31 C19 1.266 . S
H32 C4 0.929 . S
H33 C5 0.931 . S
H34 C7 0.930 . S
H35 C8 0.930 . S
H36 C13 0.929 . S
H37 C14 0.931 . S
H38 C16 0.930 . S
H39 C17 0.930 . S
Tb40 C42 2.809 1_545 S
Tb40 O60 2.484 1_545 S
Tb40 O61 2.440 1_545 S
Tb40 O62 2.658 . S
Tb40 O63 2.409 . S
Tb40 O64 2.378 1_545 S
Tb40 O68 2.325 . S
Tb40 O71 2.341 . S
Tb41 C51 2.809 . S
Tb41 O62 2.325 . S
Tb41 O65 2.341 1_545 S
Tb41 O66 2.484 . S
Tb41 O67 2.440 . S
Tb41 O68 2.658 . S
Tb41 O69 2.409 . S
Tb41 O70 2.378 . S
C42 Tb40 2.809 1_565 S
C42 C43 1.514 . S
C42 O60 1.248 . S
C42 O61 1.266 . S
C43 C42 1.514 . S
C43 C44 1.359 . S
C43 C48 1.348 . S
C44 C43 1.359 . S
C44 C45 1.380 . S
C44 H72 0.929 . S
C45 C44 1.380 . S
C45 C46 1.347 . S
C45 H73 0.931 . S
C46 C45 1.347 . S
C46 C47 1.369 . S
C47 C46 1.369 . S
C47 C48 1.408 . S
C47 H74 0.930 . S
C48 C43 1.348 . S
C48 C47 1.408 . S
C48 H75 0.930 . S
C49 O62 1.281 . S
C49 O63 1.254 . S
C50 O64 1.236 . S
C50 O65 1.266 . S
C51 Tb41 2.809 . S
C51 C52 1.514 . S
C51 O66 1.248 . S
C51 O67 1.266 . S
C52 C51 1.514 . S
C52 C53 1.359 . S
C52 C57 1.348 . S
C53 C52 1.359 . S
C53 C54 1.380 . S
C53 H76 0.929 . S
C54 C53 1.380 . S
C54 C55 1.347 . S
C54 H77 0.931 . S
C55 C54 1.347 . S
C55 C56 1.369 . S
C56 C55 1.369 . S
C56 C57 1.408 . S
C56 H78 0.930 . S
C57 C52 1.348 . S
C57 C56 1.408 . S
C57 H79 0.930 . S
C58 O68 1.281 . S
C58 O69 1.254 . S
C59 O70 1.236 . S
C59 O71 1.266 . S
O60 Tb40 2.484 1_565 S
O60 C42 1.248 . S
O61 Tb40 2.440 1_565 S
O61 C42 1.266 . S
O62 Tb40 2.658 . S
O62 Tb41 2.325 . S
O62 C49 1.281 . S
O63 Tb40 2.409 . S
O63 C49 1.254 . S
O64 Tb40 2.378 1_565 S
O64 C50 1.236 . S
O65 Tb41 2.341 1_565 S
O65 C50 1.266 . S
O66 Tb41 2.484 . S
O66 C51 1.248 . S
O67 Tb41 2.440 . S
O67 C51 1.266 . S
O68 Tb40 2.325 . S
O68 Tb41 2.658 . S
O68 C58 1.281 . S
O69 Tb41 2.409 . S
O69 C58 1.254 . S
O70 Tb41 2.378 . S
O70 C59 1.236 . S
O71 Tb40 2.341 . S
O71 C59 1.266 . S
H72 C44 0.929 . S
H73 C45 0.931 . S
H74 C47 0.930 . S
H75 C48 0.930 . S
H76 C53 0.929 . S
H77 C54 0.931 . S
H78 C56 0.930 . S
H79 C57 0.930 . S
Tb80 C82 2.809 . S
Tb80 O100 2.484 . S
Tb80 O101 2.440 . S
Tb80 O102 2.658 . S
Tb80 O103 2.409 . S
Tb80 O104 2.378 . S
Tb80 O108 2.325 . S
Tb80 O111 2.341 . S
Tb81 C91 2.809 . S
Tb81 O102 2.325 . S
Tb81 O105 2.341 . S
Tb81 O106 2.484 . S
Tb81 O107 2.440 . S
Tb81 O108 2.658 . S
Tb81 O109 2.409 . S
Tb81 O110 2.378 . S
C82 Tb80 2.809 . S
C82 C83 1.514 . S
C82 O100 1.248 . S
C82 O101 1.266 . S
C83 C82 1.514 . S
C83 C84 1.359 . S
C83 C88 1.348 . S
C84 C83 1.359 . S
C84 C85 1.380 . S
C84 H112 0.929 . S
C85 C84 1.380 . S
C85 C86 1.347 . S
C85 H113 0.931 . S
C86 C85 1.347 . S
C86 C87 1.369 . S
C87 C86 1.369 . S
C87 C88 1.408 . S
C87 H114 0.930 . S
C88 C83 1.348 . S
C88 C87 1.408 . S
C88 H115 0.930 . S
C89 O102 1.281 . S
C89 O103 1.254 . S
C90 O104 1.236 . S
C90 O105 1.266 . S
C91 Tb81 2.809 . S
C91 C92 1.514 . S
C91 O106 1.248 . S
C91 O107 1.266 . S
C92 C91 1.514 . S
C92 C93 1.359 . S
C92 C97 1.348 . S
C93 C92 1.359 . S
C93 C94 1.380 . S
C93 H116 0.929 . S
C94 C93 1.380 . S
C94 C95 1.347 . S
C94 H117 0.931 . S
C95 C94 1.347 . S
C95 C96 1.369 . S
C96 C95 1.369 . S
C96 C97 1.408 . S
C96 H118 0.930 . S
C97 C92 1.348 . S
C97 C96 1.408 . S
C97 H119 0.930 . S
C98 O108 1.281 . S
C98 O109 1.254 . S
C99 O110 1.236 . S
C99 O111 1.266 . S
O100 Tb80 2.484 . S
O100 C82 1.248 . S
O101 Tb80 2.440 . S
O101 C82 1.266 . S
O102 Tb80 2.658 . S
O102 Tb81 2.325 . S
O102 C89 1.281 . S
O103 Tb80 2.409 . S
O103 C89 1.254 . S
O104 Tb80 2.378 . S
O104 C90 1.236 . S
O105 Tb81 2.341 . S
O105 C90 1.266 . S
O106 Tb81 2.484 . S
O106 C91 1.248 . S
O107 Tb81 2.440 . S
O107 C91 1.266 . S
O108 Tb80 2.325 . S
O108 Tb81 2.658 . S
O108 C98 1.281 . S
O109 Tb81 2.409 . S
O109 C98 1.254 . S
O110 Tb81 2.378 . S
O110 C99 1.236 . S
O111 Tb80 2.341 . S
O111 C99 1.266 . S
H112 C84 0.929 . S
H113 C85 0.931 . S
H114 C87 0.930 . S
H115 C88 0.930 . S
H116 C93 0.929 . S
H117 C94 0.931 . S
H118 C96 0.930 . S
H119 C97 0.930 . S
P120 O131 1.490 . S
P120 C134 1.812 . S
P120 C140 1.803 . S
P120 C146 1.819 . S
H121 C135 0.941 . S
H122 C136 0.939 . S
H123 C138 0.940 . S
H124 C139 0.940 . S
H125 C141 0.939 . S
H126 C142 0.942 . S
H127 C144 0.940 . S
H128 C145 0.939 . S
H129 C147 0.941 1_565 S
H130 C151 0.939 . S
O131 P120 1.490 . S
H132 C148 0.939 1_565 S
H133 C150 0.940 . S
C134 P120 1.812 . S
C134 C135 1.389 1_545 S
C134 C139 1.391 . S
C135 H121 0.941 . S
C135 C134 1.389 1_565 S
C135 C136 1.397 . S
C136 H122 0.939 . S
C136 C135 1.397 . S
C136 C137 1.378 . S
C137 C136 1.378 . S
C137 C138 1.378 . S
C138 H123 0.940 . S
C138 C137 1.378 . S
C138 C139 1.396 1_565 S
C139 H124 0.940 . S
C139 C134 1.391 . S
C139 C138 1.396 1_545 S
C140 P120 1.803 . S
C140 C141 1.378 . S
C140 C145 1.400 . S
C141 H125 0.939 . S
C141 C140 1.378 . S
C141 C142 1.361 . S
C142 H126 0.942 . S
C142 C141 1.361 . S
C142 C143 1.369 . S
C143 C142 1.369 . S
C143 C144 1.404 . S
C144 H127 0.940 . S
C144 C143 1.404 . S
C144 C145 1.389 . S
C145 H128 0.939 . S
C145 C140 1.400 . S
C145 C144 1.389 . S
C146 P120 1.819 . S
C146 C147 1.391 . S
C146 C151 1.391 . S
C147 H129 0.941 1_545 S
C147 C146 1.391 . S
C147 C148 1.396 . S
C148 H132 0.939 1_545 S
C148 C147 1.396 . S
C148 C149 1.397 . S
C149 C148 1.397 . S
C149 C150 1.385 . S
C150 H133 0.940 . S
C150 C149 1.385 . S
C150 C151 1.388 . S
C151 H130 0.939 . S
C151 C146 1.391 . S
C151 C150 1.388 . S
P152 O163 1.490 . S
P152 C166 1.812 . S
P152 C172 1.803 . S
P152 C178 1.819 . S
H153 C167 0.941 . S
H154 C168 0.939 . S
H155 C170 0.940 . S
H156 C171 0.940 . S
H157 C173 0.939 . S
H158 C174 0.942 . S
H159 C176 0.940 . S
H160 C177 0.939 . S
H161 C179 0.941 . S
H162 C183 0.939 . S
O163 P152 1.490 . S
H164 C180 0.939 . S
H165 C182 0.940 . S
C166 P152 1.812 . S
C166 C167 1.389 . S
C166 C171 1.391 . S
C167 H153 0.941 . S
C167 C166 1.389 . S
C167 C168 1.397 . S
C168 H154 0.939 . S
C168 C167 1.397 . S
C168 C169 1.378 . S
C169 C168 1.378 . S
C169 C170 1.378 . S
C170 H155 0.940 . S
C170 C169 1.378 . S
C170 C171 1.396 . S
C171 H156 0.940 . S
C171 C166 1.391 . S
C171 C170 1.396 . S
C172 P152 1.803 . S
C172 C173 1.378 . S
C172 C177 1.400 . S
C173 H157 0.939 . S
C173 C172 1.378 . S
C173 C174 1.361 . S
C174 H158 0.942 . S
C174 C173 1.361 . S
C174 C175 1.369 . S
C175 C174 1.369 . S
C175 C176 1.404 . S
C176 H159 0.940 . S
C176 C175 1.404 . S
C176 C177 1.389 . S
C177 H160 0.939 . S
C177 C172 1.400 . S
C177 C176 1.389 . S
C178 P152 1.819 . S
C178 C179 1.391 . S
C178 C183 1.391 . S
C179 H161 0.941 . S
C179 C178 1.391 . S
C179 C180 1.396 . S
C180 H164 0.939 . S
C180 C179 1.396 . S
C180 C181 1.397 . S
C181 C180 1.397 . S
C181 C182 1.385 . S
C182 H165 0.940 . S
C182 C181 1.385 . S
C182 C183 1.388 . S
C183 H162 0.939 . S
C183 C178 1.391 . S
C183 C182 1.388 . S
P184 O195 1.490 . S
P184 C198 1.812 . S
P184 C204 1.803 1_455 S
P184 C210 1.819 . S
H185 C199 0.941 . S
H186 C200 0.939 . S
H187 C202 0.940 . S
H188 C203 0.940 . S
H189 C205 0.939 . S
H190 C206 0.942 . S
H191 C208 0.940 . S
H192 C209 0.939 . S
H193 C211 0.941 . S
H194 C215 0.939 . S
O195 P184 1.490 . S
H196 C212 0.939 . S
H197 C214 0.940 . S
C198 P184 1.812 . S
C198 C199 1.389 . S
C198 C203 1.391 . S
C199 H185 0.941 . S
C199 C198 1.389 . S
C199 C200 1.397 . S
C200 H186 0.939 . S
C200 C199 1.397 . S
C200 C201 1.378 . S
C201 C200 1.378 . S
C201 C202 1.378 . S
C202 H187 0.940 . S
C202 C201 1.378 . S
C202 C203 1.396 . S
C203 H188 0.940 . S
C203 C198 1.391 . S
C203 C202 1.396 . S
C204 P184 1.803 1_655 S
C204 C205 1.378 . S
C204 C209 1.400 . S
C205 H189 0.939 . S
C205 C204 1.378 . S
C205 C206 1.361 . S
C206 H190 0.942 . S
C206 C205 1.361 . S
C206 C207 1.369 . S
C207 C206 1.369 . S
C207 C208 1.404 . S
C208 H191 0.940 . S
C208 C207 1.404 . S
C208 C209 1.389 . S
C209 H192 0.939 . S
C209 C204 1.400 . S
C209 C208 1.389 . S
C210 P184 1.819 . S
C210 C211 1.391 . S
C210 C215 1.391 1_455 S
C211 H193 0.941 . S
C211 C210 1.391 . S
C211 C212 1.396 . S
C212 H196 0.939 . S
C212 C211 1.396 . S
C212 C213 1.397 . S
C213 C212 1.397 . S
C213 C214 1.385 1_455 S
C214 H197 0.940 . S
C214 C213 1.385 1_655 S
C214 C215 1.388 . S
C215 H194 0.939 . S
C215 C210 1.391 1_655 S
C215 C214 1.388 . S
P216 O227 1.490 . S
P216 C230 1.812 . S
P216 C236 1.803 . S
P216 C242 1.819 . S
H217 C231 0.941 . S
H218 C232 0.939 . S
H219 C234 0.940 . S
H220 C235 0.940 . S
H221 C237 0.939 . S
H222 C238 0.942 . S
H223 C240 0.940 . S
H224 C241 0.939 . S
H225 C243 0.941 . S
H226 C247 0.939 . S
O227 P216 1.490 . S
H228 C244 0.939 . S
H229 C246 0.940 1_655 S
C230 P216 1.812 . S
C230 C231 1.389 . S
C230 C235 1.391 . S
C231 H217 0.941 . S
C231 C230 1.389 . S
C231 C232 1.397 . S
C232 H218 0.939 . S
C232 C231 1.397 . S
C232 C233 1.378 . S
C233 C232 1.378 . S
C233 C234 1.378 . S
C234 H219 0.940 . S
C234 C233 1.378 . S
C234 C235 1.396 . S
C235 H220 0.940 . S
C235 C230 1.391 . S
C235 C234 1.396 . S
C236 P216 1.803 . S
C236 C237 1.378 . S
C236 C241 1.400 . S
C237 H221 0.939 . S
C237 C236 1.378 . S
C237 C238 1.361 1_455 S
C238 H222 0.942 . S
C238 C237 1.361 1_655 S
C238 C239 1.369 . S
C239 C238 1.369 . S
C239 C240 1.404 . S
C240 H223 0.940 . S
C240 C239 1.404 . S
C240 C241 1.389 1_655 S
C241 H224 0.939 . S
C241 C236 1.400 . S
C241 C240 1.389 1_455 S
C242 P216 1.819 . S
C242 C243 1.391 . S
C242 C247 1.391 . S
C243 H225 0.941 . S
C243 C242 1.391 . S
C243 C244 1.396 . S
C244 H228 0.939 . S
C244 C243 1.396 . S
C244 C245 1.397 . S
C245 C244 1.397 . S
C245 C246 1.385 . S
C246 H229 0.940 1_455 S
C246 C245 1.385 . S
C246 C247 1.388 . S
C247 H226 0.939 . S
C247 C242 1.391 . S
C247 C246 1.388 . S
P248 O259 1.490 . S
P248 C262 1.812 . S
P248 C268 1.803 1_545 S
P248 C274 1.819 . S
H249 C263 0.941 . S
H250 C264 0.939 . S
H251 C266 0.940 . S
H252 C267 0.940 . S
H253 C269 0.939 . S
H254 C270 0.942 . S
H255 C272 0.940 . S
H256 C273 0.939 . S
H257 C275 0.941 . S
H258 C279 0.939 . S
O259 P248 1.490 . S
H260 C276 0.939 . S
H261 C278 0.940 . S
C262 P248 1.812 . S
C262 C263 1.389 . S
C262 C267 1.391 . S
C263 H249 0.941 . S
C263 C262 1.389 . S
C263 C264 1.397 . S
C264 H250 0.939 . S
C264 C263 1.397 . S
C264 C265 1.378 . S
C265 C264 1.378 . S
C265 C266 1.378 . S
C266 H251 0.940 . S
C266 C265 1.378 . S
C266 C267 1.396 . S
C267 H252 0.940 . S
C267 C262 1.391 . S
C267 C266 1.396 . S
C268 P248 1.803 1_565 S
C268 C269 1.378 . S
C268 C273 1.400 . S
C269 H253 0.939 . S
C269 C268 1.378 . S
C269 C270 1.361 . S
C270 H254 0.942 . S
C270 C269 1.361 . S
C270 C271 1.369 . S
C271 C270 1.369 . S
C271 C272 1.404 . S
C272 H255 0.940 . S
C272 C271 1.404 . S
C272 C273 1.389 . S
C273 H256 0.939 . S
C273 C268 1.400 . S
C273 C272 1.389 . S
C274 P248 1.819 . S
C274 C275 1.391 . S
C274 C279 1.391 1_545 S
C275 H257 0.941 . S
C275 C274 1.391 . S
C275 C276 1.396 . S
C276 H260 0.939 . S
C276 C275 1.396 . S
C276 C277 1.397 . S
C277 C276 1.397 . S
C277 C278 1.385 1_545 S
C278 H261 0.940 . S
C278 C277 1.385 1_565 S
C278 C279 1.388 . S
C279 H258 0.939 . S
C279 C274 1.391 1_565 S
C279 C278 1.388 . S
P280 O291 1.490 . S
P280 C294 1.812 . S
P280 C300 1.803 . S
P280 C306 1.819 . S
H281 C295 0.941 . S
H282 C296 0.939 . S
H283 C298 0.940 . S
H284 C299 0.940 . S
H285 C301 0.939 . S
H286 C302 0.942 . S
H287 C304 0.940 . S
H288 C305 0.939 . S
H289 C307 0.941 . S
H290 C311 0.939 . S
O291 P280 1.490 . S
H292 C308 0.939 . S
H293 C310 0.940 . S
C294 P280 1.812 . S
C294 C295 1.389 . S
C294 C299 1.391 . S
C295 H281 0.941 . S
C295 C294 1.389 . S
C295 C296 1.397 . S
C296 H282 0.939 . S
C296 C295 1.397 . S
C296 C297 1.378 . S
C297 C296 1.378 . S
C297 C298 1.378 . S
C298 H283 0.940 . S
C298 C297 1.378 . S
C298 C299 1.396 . S
C299 H284 0.940 . S
C299 C294 1.391 . S
C299 C298 1.396 . S
C300 P280 1.803 . S
C300 C301 1.378 . S
C300 C305 1.400 . S
C301 H285 0.939 . S
C301 C300 1.378 . S
C301 C302 1.361 . S
C302 H286 0.942 . S
C302 C301 1.361 . S
C302 C303 1.369 . S
C303 C302 1.369 . S
C303 C304 1.404 . S
C304 H287 0.940 . S
C304 C303 1.404 . S
C304 C305 1.389 . S
C305 H288 0.939 . S
C305 C300 1.400 . S
C305 C304 1.389 . S
C306 P280 1.819 . S
C306 C307 1.391 . S
C306 C311 1.391 . S
C307 H289 0.941 . S
C307 C306 1.391 . S
C307 C308 1.396 . S
C308 H292 0.939 . S
C308 C307 1.396 . S
C308 C309 1.397 . S
C309 C308 1.397 . S
C309 C310 1.385 . S
C310 H293 0.940 . S
C310 C309 1.385 . S
C310 C311 1.388 . S
C311 H290 0.939 . S
C311 C306 1.391 . S
C311 C310 1.388 . S
H312 C330 0.951 . S
H313 C332 0.951 . S
H314 C334 0.950 . S
H315 C335 0.950 . S
H316 C337 0.950 . S
H317 C340 0.950 . S
H318 C341 0.950 . S
H319 C343 0.950 . S
H320 C344 0.950 . S
H321 C345 0.951 . S
H322 C347 0.951 . S
H323 C349 0.950 . S
H324 C350 0.950 . S
H325 C352 0.950 . S
H326 C355 0.950 . S
H327 C356 0.950 . S
H328 C358 0.950 . S
H329 C359 0.950 . S
C330 H312 0.951 . S
C330 C331 1.366 . S
C330 C332 1.388 . S
C331 C330 1.366 . S
C331 C335 1.385 . S
C332 H313 0.951 . S
C332 C330 1.388 . S
C332 C333 1.366 . S
C333 C332 1.366 . S
C333 C334 1.414 . S
C333 C336 1.499 . S
C334 H314 0.950 . S
C334 C333 1.414 . S
C334 C335 1.374 . S
C335 H315 0.950 . S
C335 C331 1.385 . S
C335 C334 1.374 . S
C336 C333 1.499 . S
C336 C337 1.373 . S
C336 C338 1.389 . S
C337 H316 0.950 . S
C337 C336 1.373 . S
C337 C353 1.377 . S
C338 C336 1.389 . S
C338 C339 1.524 . S
C338 C352 1.377 . S
C339 C338 1.524 . S
C339 C340 1.397 . S
C339 C344 1.363 . S
C340 H317 0.950 . S
C340 C339 1.397 . S
C340 C341 1.334 . S
C341 H318 0.950 . S
C341 C340 1.334 . S
C341 C342 1.287 . S
C342 C341 1.287 . S
C342 C343 1.524 . S
C342 H361 0.913 . S
C343 H319 0.950 . S
C343 C342 1.524 . S
C343 C344 1.415 . S
C344 H320 0.950 . S
C344 C339 1.363 . S
C344 C343 1.415 . S
C345 H321 0.951 . S
C345 C346 1.366 . S
C345 C347 1.388 . S
C346 C345 1.366 . S
C346 C350 1.385 . S
C347 H322 0.951 . S
C347 C345 1.388 . S
C347 C348 1.366 . S
C348 C347 1.366 . S
C348 C349 1.414 . S
C348 C351 1.499 . S
C349 H323 0.950 . S
C349 C348 1.414 . S
C349 C350 1.374 . S
C350 H324 0.950 . S
C350 C346 1.385 . S
C350 C349 1.374 . S
C351 C348 1.499 . S
C351 C352 1.373 . S
C351 C353 1.389 . S
C352 H325 0.950 . S
C352 C338 1.377 . S
C352 C351 1.373 . S
C353 C337 1.377 . S
C353 C351 1.389 . S
C353 C354 1.524 . S
C354 C353 1.524 . S
C354 C355 1.397 . S
C354 C359 1.363 . S
C355 H326 0.950 . S
C355 C354 1.397 . S
C355 C356 1.334 . S
C356 H327 0.950 . S
C356 C355 1.334 . S
C356 C357 1.287 . S
C357 C356 1.287 . S
C357 C358 1.524 . S
C357 H360 0.999 . S
C358 H328 0.950 . S
C358 C357 1.524 . S
C358 C359 1.415 . S
C359 H329 0.950 . S
C359 C354 1.363 . S
C359 C358 1.415 . S
H360 C357 0.999 . S
H361 C342 0.913 . S
H362 C380 0.951 . S
H363 C382 0.951 . S
H364 C384 0.950 . S
H365 C385 0.950 . S
H366 C387 0.950 . S
H367 C390 0.950 . S
H368 C391 0.950 . S
H369 C393 0.950 . S
H370 C394 0.950 . S
H371 C395 0.951 . S
H372 C397 0.951 . S
H373 C399 0.950 . S
H374 C400 0.950 . S
H375 C402 0.950 . S
H376 C405 0.950 . S
H377 C406 0.950 . S
H378 C408 0.950 . S
H379 C409 0.950 . S
C380 H362 0.951 . S
C380 C381 1.366 . S
C380 C382 1.388 . S
C381 C380 1.366 . S
C381 C385 1.385 . S
C382 H363 0.951 . S
C382 C380 1.388 . S
C382 C383 1.366 . S
C383 C382 1.366 . S
C383 C384 1.414 . S
C383 C386 1.499 . S
C384 H364 0.950 . S
C384 C383 1.414 . S
C384 C385 1.374 . S
C385 H365 0.950 . S
C385 C381 1.385 . S
C385 C384 1.374 . S
C386 C383 1.499 . S
C386 C387 1.373 . S
C386 C388 1.389 . S
C387 H366 0.950 . S
C387 C386 1.373 . S
C387 C403 1.377 . S
C388 C386 1.389 . S
C388 C389 1.524 . S
C388 C402 1.377 . S
C389 C388 1.524 . S
C389 C390 1.397 . S
C389 C394 1.363 . S
C390 H367 0.950 . S
C390 C389 1.397 . S
C390 C391 1.334 . S
C391 H368 0.950 . S
C391 C390 1.334 . S
C391 C392 1.287 . S
C392 C391 1.287 . S
C392 C393 1.524 . S
C392 H411 0.913 . S
C393 H369 0.950 . S
C393 C392 1.524 . S
C393 C394 1.415 . S
C394 H370 0.950 . S
C394 C389 1.363 . S
C394 C393 1.415 . S
C395 H371 0.951 . S
C395 C396 1.366 . S
C395 C397 1.388 . S
C396 C395 1.366 . S
C396 C400 1.385 . S
C397 H372 0.951 . S
C397 C395 1.388 . S
C397 C398 1.366 . S
C398 C397 1.366 . S
C398 C399 1.414 . S
C398 C401 1.499 . S
C399 H373 0.950 . S
C399 C398 1.414 . S
C399 C400 1.374 . S
C400 H374 0.950 . S
C400 C396 1.385 . S
C400 C399 1.374 . S
C401 C398 1.499 . S
C401 C402 1.373 . S
C401 C403 1.389 . S
C402 H375 0.950 . S
C402 C388 1.377 . S
C402 C401 1.373 . S
C403 C387 1.377 . S
C403 C401 1.389 . S
C403 C404 1.524 . S
C404 C403 1.524 . S
C404 C405 1.397 . S
C404 C409 1.363 . S
C405 H376 0.950 . S
C405 C404 1.397 . S
C405 C406 1.334 . S
C406 H377 0.950 . S
C406 C405 1.334 . S
C406 C407 1.287 . S
C407 C406 1.287 . S
C407 C408 1.524 . S
C407 H410 0.999 . S
C408 H378 0.950 . S
C408 C407 1.524 . S
C408 C409 1.415 . S
C409 H379 0.950 . S
C409 C404 1.363 . S
C409 C408 1.415 . S
H410 C407 0.999 . S
H411 C392 0.913 . S
H412 C430 0.951 . S
H413 C432 0.951 . S
H414 C434 0.950 . S
H415 C435 0.950 . S
H416 C437 0.950 . S
H417 C440 0.950 . S
H418 C441 0.950 . S
H419 C443 0.950 . S
H420 C444 0.950 . S
H421 C445 0.951 . S
H422 C447 0.951 . S
H423 C449 0.950 . S
H424 C450 0.950 . S
H425 C452 0.950 . S
H426 C455 0.950 . S
H427 C456 0.950 . S
H428 C458 0.950 . S
H429 C459 0.950 . S
C430 H412 0.951 . S
C430 C431 1.366 . S
C430 C432 1.388 . S
C431 C430 1.366 . S
C431 C435 1.385 . S
C432 H413 0.951 . S
C432 C430 1.388 . S
C432 C433 1.366 . S
C433 C432 1.366 . S
C433 C434 1.414 . S
C433 C436 1.499 . S
C434 H414 0.950 . S
C434 C433 1.414 . S
C434 C435 1.374 . S
C435 H415 0.950 . S
C435 C431 1.385 . S
C435 C434 1.374 . S
C436 C433 1.499 . S
C436 C437 1.373 . S
C436 C438 1.389 . S
C437 H416 0.950 . S
C437 C436 1.373 . S
C437 C453 1.377 . S
C438 C436 1.389 . S
C438 C439 1.524 . S
C438 C452 1.377 . S
C439 C438 1.524 . S
C439 C440 1.397 . S
C439 C444 1.363 . S
C440 H417 0.950 . S
C440 C439 1.397 . S
C440 C441 1.334 . S
C441 H418 0.950 . S
C441 C440 1.334 . S
C441 C442 1.287 . S
C442 C441 1.287 . S
C442 C443 1.524 . S
C442 H461 0.913 . S
C443 H419 0.950 . S
C443 C442 1.524 . S
C443 C444 1.415 . S
C444 H420 0.950 . S
C444 C439 1.363 . S
C444 C443 1.415 . S
C445 H421 0.951 . S
C445 C446 1.366 . S
C445 C447 1.388 . S
C446 C445 1.366 . S
C446 C450 1.385 . S
C447 H422 0.951 . S
C447 C445 1.388 . S
C447 C448 1.366 . S
C448 C447 1.366 . S
C448 C449 1.414 . S
C448 C451 1.499 . S
C449 H423 0.950 . S
C449 C448 1.414 . S
C449 C450 1.374 . S
C450 H424 0.950 . S
C450 C446 1.385 . S
C450 C449 1.374 . S
C451 C448 1.499 . S
C451 C452 1.373 . S
C451 C453 1.389 . S
C452 H425 0.950 . S
C452 C438 1.377 . S
C452 C451 1.373 . S
C453 C437 1.377 . S
C453 C451 1.389 . S
C453 C454 1.524 . S
C454 C453 1.524 . S
C454 C455 1.397 . S
C454 C459 1.363 . S
C455 H426 0.950 . S
C455 C454 1.397 . S
C455 C456 1.334 . S
C456 H427 0.950 . S
C456 C455 1.334 . S
C456 C457 1.287 . S
C457 C456 1.287 . S
C457 C458 1.524 . S
C457 H460 0.999 . S
C458 H428 0.950 . S
C458 C457 1.524 . S
C458 C459 1.415 . S
C459 H429 0.950 . S
C459 C454 1.363 . S
C459 C458 1.415 . S
H460 C457 0.999 . S
H461 C442 0.913 . S
H462 C480 0.951 . S
H463 C482 0.951 . S
H464 C484 0.950 . S
H465 C485 0.950 . S
H466 C487 0.950 . S
H467 C490 0.950 . S
H468 C491 0.950 . S
H469 C493 0.950 . S
H470 C494 0.950 . S
H471 C495 0.951 . S
H472 C497 0.951 . S
H473 C499 0.950 . S
H474 C500 0.950 . S
H475 C502 0.950 . S
H476 C505 0.950 . S
H477 C506 0.950 . S
H478 C508 0.950 . S
H479 C509 0.950 . S
C480 H462 0.951 . S
C480 C481 1.366 . S
C480 C482 1.388 . S
C481 C480 1.366 . S
C481 C485 1.385 . S
C482 H463 0.951 . S
C482 C480 1.388 . S
C482 C483 1.366 . S
C483 C482 1.366 . S
C483 C484 1.414 . S
C483 C486 1.499 . S
C484 H464 0.950 . S
C484 C483 1.414 . S
C484 C485 1.374 . S
C485 H465 0.950 . S
C485 C481 1.385 . S
C485 C484 1.374 . S
C486 C483 1.499 . S
C486 C487 1.373 . S
C486 C488 1.389 . S
C487 H466 0.950 . S
C487 C486 1.373 . S
C487 C503 1.377 . S
C488 C486 1.389 . S
C488 C489 1.524 . S
C488 C502 1.377 . S
C489 C488 1.524 . S
C489 C490 1.397 . S
C489 C494 1.363 . S
C490 H467 0.950 . S
C490 C489 1.397 . S
C490 C491 1.334 . S
C491 H468 0.950 . S
C491 C490 1.334 . S
C491 C492 1.287 . S
C492 C491 1.287 . S
C492 C493 1.524 . S
C492 H511 0.913 . S
C493 H469 0.950 . S
C493 C492 1.524 . S
C493 C494 1.415 . S
C494 H470 0.950 . S
C494 C489 1.363 . S
C494 C493 1.415 . S
C495 H471 0.951 . S
C495 C496 1.366 . S
C495 C497 1.388 . S
C496 C495 1.366 . S
C496 C500 1.385 . S
C497 H472 0.951 . S
C497 C495 1.388 . S
C497 C498 1.366 . S
C498 C497 1.366 . S
C498 C499 1.414 . S
C498 C501 1.499 . S
C499 H473 0.950 . S
C499 C498 1.414 . S
C499 C500 1.374 . S
C500 H474 0.950 . S
C500 C496 1.385 . S
C500 C499 1.374 . S
C501 C498 1.499 . S
C501 C502 1.373 . S
C501 C503 1.389 . S
C502 H475 0.950 . S
C502 C488 1.377 . S
C502 C501 1.373 . S
C503 C487 1.377 . S
C503 C501 1.389 . S
C503 C504 1.524 . S
C504 C503 1.524 . S
C504 C505 1.397 . S
C504 C509 1.363 . S
C505 H476 0.950 . S
C505 C504 1.397 . S
C505 C506 1.334 . S
C506 H477 0.950 . S
C506 C505 1.334 . S
C506 C507 1.287 . S
C507 C506 1.287 . S
C507 C508 1.524 . S
C507 H510 0.999 . S
C508 H478 0.950 . S
C508 C507 1.524 . S
C508 C509 1.415 . S
C509 H479 0.950 . S
C509 C504 1.363 . S
C509 C508 1.415 . S
H510 C507 0.999 . S
H511 C492 0.913 . S
H512 C530 0.951 . S
H513 C532 0.951 . S
H514 C534 0.950 . S
H515 C535 0.950 . S
H516 C537 0.950 . S
H517 C540 0.950 . S
H518 C541 0.950 . S
H519 C543 0.950 . S
H520 C544 0.950 . S
H521 C545 0.951 . S
H522 C547 0.951 . S
H523 C549 0.950 . S
H524 C550 0.950 . S
H525 C552 0.950 . S
H526 C555 0.950 . S
H527 C556 0.950 . S
H528 C558 0.950 . S
H529 C559 0.950 . S
C530 H512 0.951 . S
C530 C531 1.366 . S
C530 C532 1.388 . S
C531 C530 1.366 . S
C531 C535 1.385 . S
C532 H513 0.951 . S
C532 C530 1.388 . S
C532 C533 1.366 . S
C533 C532 1.366 . S
C533 C534 1.414 . S
C533 C536 1.499 . S
C534 H514 0.950 . S
C534 C533 1.414 . S
C534 C535 1.374 . S
C535 H515 0.950 . S
C535 C531 1.385 . S
C535 C534 1.374 . S
C536 C533 1.499 . S
C536 C537 1.373 . S
C536 C538 1.389 . S
C537 H516 0.950 . S
C537 C536 1.373 . S
C537 C553 1.377 . S
C538 C536 1.389 . S
C538 C539 1.524 . S
C538 C552 1.377 . S
C539 C538 1.524 . S
C539 C540 1.397 . S
C539 C544 1.363 . S
C540 H517 0.950 . S
C540 C539 1.397 . S
C540 C541 1.334 . S
C541 H518 0.950 . S
C541 C540 1.334 . S
C541 C542 1.287 . S
C542 C541 1.287 . S
C542 C543 1.524 . S
C542 H561 0.913 . S
C543 H519 0.950 . S
C543 C542 1.524 . S
C543 C544 1.415 . S
C544 H520 0.950 . S
C544 C539 1.363 . S
C544 C543 1.415 . S
C545 H521 0.951 . S
C545 C546 1.366 . S
C545 C547 1.388 . S
C546 C545 1.366 . S
C546 C550 1.385 . S
C547 H522 0.951 . S
C547 C545 1.388 . S
C547 C548 1.366 . S
C548 C547 1.366 . S
C548 C549 1.414 . S
C548 C551 1.499 . S
C549 H523 0.950 . S
C549 C548 1.414 . S
C549 C550 1.374 . S
C550 H524 0.950 . S
C550 C546 1.385 . S
C550 C549 1.374 . S
C551 C548 1.499 . S
C551 C552 1.373 . S
C551 C553 1.389 . S
C552 H525 0.950 . S
C552 C538 1.377 . S
C552 C551 1.373 . S
C553 C537 1.377 . S
C553 C551 1.389 . S
C553 C554 1.524 . S
C554 C553 1.524 . S
C554 C555 1.397 . S
C554 C559 1.363 . S
C555 H526 0.950 . S
C555 C554 1.397 . S
C555 C556 1.334 . S
C556 H527 0.950 . S
C556 C555 1.334 . S
C556 C557 1.287 . S
C557 C556 1.287 . S
C557 C558 1.524 . S
C557 H560 0.999 . S
C558 H528 0.950 . S
C558 C557 1.524 . S
C558 C559 1.415 . S
C559 H529 0.950 . S
C559 C554 1.363 . S
C559 C558 1.415 . S
H560 C557 0.999 . S
H561 C542 0.913 . S
H562 C580 0.951 . S
H563 C582 0.951 . S
H564 C584 0.950 . S
H565 C585 0.950 . S
H566 C587 0.950 . S
H567 C590 0.950 . S
H568 C591 0.950 . S
H569 C593 0.950 . S
H570 C594 0.950 . S
H571 C595 0.951 . S
H572 C597 0.951 . S
H573 C599 0.950 . S
H574 C600 0.950 . S
H575 C602 0.950 . S
H576 C605 0.950 . S
H577 C606 0.950 . S
H578 C608 0.950 . S
H579 C609 0.950 . S
C580 H562 0.951 . S
C580 C581 1.366 . S
C580 C582 1.388 . S
C581 C580 1.366 . S
C581 C585 1.385 . S
C582 H563 0.951 . S
C582 C580 1.388 . S
C582 C583 1.366 . S
C583 C582 1.366 . S
C583 C584 1.414 . S
C583 C586 1.499 . S
C584 H564 0.950 . S
C584 C583 1.414 . S
C584 C585 1.374 . S
C585 H565 0.950 . S
C585 C581 1.385 . S
C585 C584 1.374 . S
C586 C583 1.499 . S
C586 C587 1.373 . S
C586 C588 1.389 . S
C587 H566 0.950 . S
C587 C586 1.373 . S
C587 C603 1.377 . S
C588 C586 1.389 . S
C588 C589 1.524 . S
C588 C602 1.377 . S
C589 C588 1.524 . S
C589 C590 1.397 . S
C589 C594 1.363 . S
C590 H567 0.950 . S
C590 C589 1.397 . S
C590 C591 1.334 . S
C591 H568 0.950 . S
C591 C590 1.334 . S
C591 C592 1.287 . S
C592 C591 1.287 . S
C592 C593 1.524 . S
C592 H611 0.913 . S
C593 H569 0.950 . S
C593 C592 1.524 . S
C593 C594 1.415 . S
C594 H570 0.950 . S
C594 C589 1.363 . S
C594 C593 1.415 . S
C595 H571 0.951 . S
C595 C596 1.366 . S
C595 C597 1.388 . S
C596 C595 1.366 . S
C596 C600 1.385 . S
C597 H572 0.951 . S
C597 C595 1.388 . S
C597 C598 1.366 . S
C598 C597 1.366 . S
C598 C599 1.414 . S
C598 C601 1.499 . S
C599 H573 0.950 . S
C599 C598 1.414 . S
C599 C600 1.374 . S
C600 H574 0.950 . S
C600 C596 1.385 . S
C600 C599 1.374 . S
C601 C598 1.499 . S
C601 C602 1.373 . S
C601 C603 1.389 . S
C602 H575 0.950 . S
C602 C588 1.377 . S
C602 C601 1.373 . S
C603 C587 1.377 . S
C603 C601 1.389 . S
C603 C604 1.524 . S
C604 C603 1.524 . S
C604 C605 1.397 . S
C604 C609 1.363 . S
C605 H576 0.950 . S
C605 C604 1.397 . S
C605 C606 1.334 . S
C606 H577 0.950 . S
C606 C605 1.334 . S
C606 C607 1.287 . S
C607 C606 1.287 . S
C607 C608 1.524 . S
C607 H610 0.999 . S
C608 H578 0.950 . S
C608 C607 1.524 . S
C608 C609 1.415 . S
C609 H579 0.950 . S
C609 C604 1.363 . S
C609 C608 1.415 . S
H610 C607 0.999 . S
H611 C592 0.913 . S
H612 C630 0.951 . S
H613 C632 0.951 . S
H614 C634 0.950 . S
H615 C635 0.950 . S
H616 C637 0.950 . S
H617 C640 0.950 . S
H618 C641 0.950 . S
H619 C643 0.950 . S
H620 C644 0.950 . S
H621 C645 0.951 . S
H622 C647 0.951 . S
H623 C649 0.950 . S
H624 C650 0.950 . S
H625 C652 0.950 . S
H626 C655 0.950 . S
H627 C656 0.950 . S
H628 C658 0.950 . S
H629 C659 0.950 . S
C630 H612 0.951 . S
C630 C631 1.366 . S
C630 C632 1.388 . S
C631 C630 1.366 . S
C631 C635 1.385 . S
C632 H613 0.951 . S
C632 C630 1.388 . S
C632 C633 1.366 . S
C633 C632 1.366 . S
C633 C634 1.414 . S
C633 C636 1.499 . S
C634 H614 0.950 . S
C634 C633 1.414 . S
C634 C635 1.374 . S
C635 H615 0.950 . S
C635 C631 1.385 . S
C635 C634 1.374 . S
C636 C633 1.499 . S
C636 C637 1.373 . S
C636 C638 1.389 . S
C637 H616 0.950 . S
C637 C636 1.373 . S
C637 C653 1.377 . S
C638 C636 1.389 . S
C638 C639 1.524 . S
C638 C652 1.377 . S
C639 C638 1.524 . S
C639 C640 1.397 . S
C639 C644 1.363 . S
C640 H617 0.950 . S
C640 C639 1.397 . S
C640 C641 1.334 . S
C641 H618 0.950 . S
C641 C640 1.334 . S
C641 C642 1.287 . S
C642 C641 1.287 . S
C642 C643 1.524 . S
C642 H661 0.913 . S
C643 H619 0.950 . S
C643 C642 1.524 . S
C643 C644 1.415 . S
C644 H620 0.950 . S
C644 C639 1.363 . S
C644 C643 1.415 . S
C645 H621 0.951 . S
C645 C646 1.366 . S
C645 C647 1.388 . S
C646 C645 1.366 . S
C646 C650 1.385 . S
C647 H622 0.951 . S
C647 C645 1.388 . S
C647 C648 1.366 . S
C648 C647 1.366 . S
C648 C649 1.414 . S
C648 C651 1.499 . S
C649 H623 0.950 . S
C649 C648 1.414 . S
C649 C650 1.374 . S
C650 H624 0.950 . S
C650 C646 1.385 . S
C650 C649 1.374 . S
C651 C648 1.499 . S
C651 C652 1.373 . S
C651 C653 1.389 . S
C652 H625 0.950 . S
C652 C638 1.377 . S
C652 C651 1.373 . S
C653 C637 1.377 . S
C653 C651 1.389 . S
C653 C654 1.524 . S
C654 C653 1.524 . S
C654 C655 1.397 . S
C654 C659 1.363 . S
C655 H626 0.950 . S
C655 C654 1.397 . S
C655 C656 1.334 . S
C656 H627 0.950 . S
C656 C655 1.334 . S
C656 C657 1.287 . S
C657 C656 1.287 . S
C657 C658 1.524 . S
C657 H660 0.999 . S
C658 H628 0.950 . S
C658 C657 1.524 . S
C658 C659 1.415 . S
C659 H629 0.950 . S
C659 C654 1.363 . S
C659 C658 1.415 . S
H660 C657 0.999 . S
H661 C642 0.913 . S
H662 C680 0.951 . S
H663 C682 0.951 . S
H664 C684 0.950 . S
H665 C685 0.950 . S
H666 C687 0.950 . S
H667 C690 0.950 . S
H668 C691 0.950 . S
H669 C693 0.950 . S
H670 C694 0.950 . S
H671 C695 0.951 . S
H672 C697 0.951 . S
H673 C699 0.950 . S
H674 C700 0.950 . S
H675 C702 0.950 . S
H676 C705 0.950 . S
H677 C706 0.950 . S
H678 C708 0.950 . S
H679 C709 0.950 . S
C680 H662 0.951 . S
C680 C681 1.366 . S
C680 C682 1.388 . S
C681 C680 1.366 . S
C681 C685 1.385 . S
C682 H663 0.951 . S
C682 C680 1.388 . S
C682 C683 1.366 . S
C683 C682 1.366 . S
C683 C684 1.414 . S
C683 C686 1.499 . S
C684 H664 0.950 . S
C684 C683 1.414 . S
C684 C685 1.374 . S
C685 H665 0.950 . S
C685 C681 1.385 . S
C685 C684 1.374 . S
C686 C683 1.499 . S
C686 C687 1.373 . S
C686 C688 1.389 . S
C687 H666 0.950 . S
C687 C686 1.373 . S
C687 C703 1.377 . S
C688 C686 1.389 . S
C688 C689 1.524 . S
C688 C702 1.377 . S
C689 C688 1.524 . S
C689 C690 1.397 . S
C689 C694 1.363 . S
C690 H667 0.950 . S
C690 C689 1.397 . S
C690 C691 1.334 . S
C691 H668 0.950 . S
C691 C690 1.334 . S
C691 C692 1.287 . S
C692 C691 1.287 . S
C692 C693 1.524 . S
C692 H711 0.913 . S
C693 H669 0.950 . S
C693 C692 1.524 . S
C693 C694 1.415 . S
C694 H670 0.950 . S
C694 C689 1.363 . S
C694 C693 1.415 . S
C695 H671 0.951 . S
C695 C696 1.366 . S
C695 C697 1.388 . S
C696 C695 1.366 . S
C696 C700 1.385 . S
C697 H672 0.951 . S
C697 C695 1.388 . S
C697 C698 1.366 . S
C698 C697 1.366 . S
C698 C699 1.414 . S
C698 C701 1.499 . S
C699 H673 0.950 . S
C699 C698 1.414 . S
C699 C700 1.374 . S
C700 H674 0.950 . S
C700 C696 1.385 . S
C700 C699 1.374 . S
C701 C698 1.499 . S
C701 C702 1.373 . S
C701 C703 1.389 . S
C702 H675 0.950 . S
C702 C688 1.377 . S
C702 C701 1.373 . S
C703 C687 1.377 . S
C703 C701 1.389 . S
C703 C704 1.524 . S
C704 C703 1.524 . S
C704 C705 1.397 . S
C704 C709 1.363 . S
C705 H676 0.950 . S
C705 C704 1.397 . S
C705 C706 1.334 . S
C706 H677 0.950 . S
C706 C705 1.334 . S
C706 C707 1.287 . S
C707 C706 1.287 . S
C707 C708 1.524 . S
C707 H710 0.999 . S
C708 H678 0.950 . S
C708 C707 1.524 . S
C708 C709 1.415 . S
C709 H679 0.950 . S
C709 C704 1.363 . S
C709 C708 1.415 . S
H710 C707 0.999 . S
H711 C692 0.913 . S
H712 C730 0.951 . S
H713 C732 0.951 . S
H714 C734 0.950 . S
H715 C735 0.950 . S
H716 C737 0.950 . S
H717 C740 0.950 . S
H718 C741 0.950 . S
H719 C743 0.950 . S
H720 C744 0.950 . S
H721 C745 0.951 . S
H722 C747 0.951 . S
H723 C749 0.950 . S
H724 C750 0.950 . S
H725 C752 0.950 . S
H726 C755 0.950 . S
H727 C756 0.950 . S
H728 C758 0.950 . S
H729 C759 0.950 . S
C730 H712 0.951 . S
C730 C731 1.366 . S
C730 C732 1.388 . S
C731 C730 1.366 . S
C731 C735 1.385 . S
C732 H713 0.951 . S
C732 C730 1.388 . S
C732 C733 1.366 . S
C733 C732 1.366 . S
C733 C734 1.414 . S
C733 C736 1.499 . S
C734 H714 0.950 . S
C734 C733 1.414 . S
C734 C735 1.374 . S
C735 H715 0.950 . S
C735 C731 1.385 . S
C735 C734 1.374 . S
C736 C733 1.499 . S
C736 C737 1.373 . S
C736 C738 1.389 . S
C737 H716 0.950 . S
C737 C736 1.373 . S
C737 C753 1.377 . S
C738 C736 1.389 . S
C738 C739 1.524 . S
C738 C752 1.377 . S
C739 C738 1.524 . S
C739 C740 1.397 . S
C739 C744 1.363 . S
C740 H717 0.950 . S
C740 C739 1.397 . S
C740 C741 1.334 . S
C741 H718 0.950 . S
C741 C740 1.334 . S
C741 C742 1.287 . S
C742 C741 1.287 . S
C742 C743 1.524 . S
C742 H761 0.913 . S
C743 H719 0.950 . S
C743 C742 1.524 . S
C743 C744 1.415 . S
C744 H720 0.950 . S
C744 C739 1.363 . S
C744 C743 1.415 . S
C745 H721 0.951 . S
C745 C746 1.366 . S
C745 C747 1.388 . S
C746 C745 1.366 . S
C746 C750 1.385 . S
C747 H722 0.951 . S
C747 C745 1.388 . S
C747 C748 1.366 . S
C748 C747 1.366 . S
C748 C749 1.414 . S
C748 C751 1.499 . S
C749 H723 0.950 . S
C749 C748 1.414 . S
C749 C750 1.374 . S
C750 H724 0.950 . S
C750 C746 1.385 . S
C750 C749 1.374 . S
C751 C748 1.499 . S
C751 C752 1.373 . S
C751 C753 1.389 . S
C752 H725 0.950 . S
C752 C738 1.377 . S
C752 C751 1.373 . S
C753 C737 1.377 . S
C753 C751 1.389 . S
C753 C754 1.524 . S
C754 C753 1.524 . S
C754 C755 1.397 . S
C754 C759 1.363 . S
C755 H726 0.950 . S
C755 C754 1.397 . S
C755 C756 1.334 . S
C756 H727 0.950 . S
C756 C755 1.334 . S
C756 C757 1.287 . S
C757 C756 1.287 . S
C757 C758 1.524 . S
C757 H760 0.999 . S
C758 H728 0.950 . S
C758 C757 1.524 . S
C758 C759 1.415 . S
C759 H729 0.950 . S
C759 C754 1.363 . S
C759 C758 1.415 . S
H760 C757 0.999 . S
H761 C742 0.913 . S
H762 C780 0.951 . S
H763 C782 0.951 . S
H764 C784 0.950 . S
H765 C785 0.950 . S
H766 C787 0.950 . S
H767 C790 0.950 . S
H768 C791 0.950 . S
H769 C793 0.950 . S
H770 C794 0.950 . S
H771 C795 0.951 . S
H772 C797 0.951 . S
H773 C799 0.950 . S
H774 C800 0.950 . S
H775 C802 0.950 . S
H776 C805 0.950 . S
H777 C806 0.950 . S
H778 C808 0.950 . S
H779 C809 0.950 . S
C780 H762 0.951 . S
C780 C781 1.366 . S
C780 C782 1.388 . S
C781 C780 1.366 . S
C781 C785 1.385 . S
C782 H763 0.951 . S
C782 C780 1.388 . S
C782 C783 1.366 . S
C783 C782 1.366 . S
C783 C784 1.414 . S
C783 C786 1.499 . S
C784 H764 0.950 . S
C784 C783 1.414 . S
C784 C785 1.374 . S
C785 H765 0.950 . S
C785 C781 1.385 . S
C785 C784 1.374 . S
C786 C783 1.499 . S
C786 C787 1.373 . S
C786 C788 1.389 . S
C787 H766 0.950 . S
C787 C786 1.373 . S
C787 C803 1.377 . S
C788 C786 1.389 . S
C788 C789 1.524 . S
C788 C802 1.377 . S
C789 C788 1.524 . S
C789 C790 1.397 . S
C789 C794 1.363 . S
C790 H767 0.950 . S
C790 C789 1.397 . S
C790 C791 1.334 . S
C791 H768 0.950 . S
C791 C790 1.334 . S
C791 C792 1.287 . S
C792 C791 1.287 . S
C792 C793 1.524 . S
C792 H811 0.913 . S
C793 H769 0.950 . S
C793 C792 1.524 . S
C793 C794 1.415 . S
C794 H770 0.950 . S
C794 C789 1.363 . S
C794 C793 1.415 . S
C795 H771 0.951 . S
C795 C796 1.366 . S
C795 C797 1.388 . S
C796 C795 1.366 . S
C796 C800 1.385 . S
C797 H772 0.951 . S
C797 C795 1.388 . S
C797 C798 1.366 . S
C798 C797 1.366 . S
C798 C799 1.414 . S
C798 C801 1.499 . S
C799 H773 0.950 . S
C799 C798 1.414 . S
C799 C800 1.374 . S
C800 H774 0.950 . S
C800 C796 1.385 . S
C800 C799 1.374 . S
C801 C798 1.499 . S
C801 C802 1.373 . S
C801 C803 1.389 . S
C802 H775 0.950 . S
C802 C788 1.377 . S
C802 C801 1.373 . S
C803 C787 1.377 . S
C803 C801 1.389 . S
C803 C804 1.524 . S
C804 C803 1.524 . S
C804 C805 1.397 . S
C804 C809 1.363 . S
C805 H776 0.950 . S
C805 C804 1.397 . S
C805 C806 1.334 . S
C806 H777 0.950 . S
C806 C805 1.334 . S
C806 C807 1.287 . S
C807 C806 1.287 . S
C807 C808 1.524 . S
C807 H810 0.999 . S
C808 H778 0.950 . S
C808 C807 1.524 . S
C808 C809 1.415 . S
C809 H779 0.950 . S
C809 C804 1.363 . S
C809 C808 1.415 . S
H810 C807 0.999 . S
H811 C792 0.913 . S
H812 C830 0.951 . S
H813 C832 0.951 . S
H814 C834 0.950 . S
H815 C835 0.950 . S
H816 C837 0.950 . S
H817 C840 0.950 . S
H818 C841 0.950 . S
H819 C843 0.950 . S
H820 C844 0.950 . S
H821 C845 0.951 . S
H822 C847 0.951 . S
H823 C849 0.950 . S
H824 C850 0.950 . S
H825 C852 0.950 . S
H826 C855 0.950 . S
H827 C856 0.950 . S
H828 C858 0.950 . S
H829 C859 0.950 . S
C830 H812 0.951 . S
C830 C831 1.366 . S
C830 C832 1.388 . S
C831 C830 1.366 . S
C831 C835 1.385 . S
C832 H813 0.951 . S
C832 C830 1.388 . S
C832 C833 1.366 . S
C833 C832 1.366 . S
C833 C834 1.414 . S
C833 C836 1.499 . S
C834 H814 0.950 . S
C834 C833 1.414 . S
C834 C835 1.374 . S
C835 H815 0.950 . S
C835 C831 1.385 . S
C835 C834 1.374 . S
C836 C833 1.499 . S
C836 C837 1.373 . S
C836 C838 1.389 . S
C837 H816 0.950 . S
C837 C836 1.373 . S
C837 C853 1.377 . S
C838 C836 1.389 . S
C838 C839 1.524 . S
C838 C852 1.377 . S
C839 C838 1.524 . S
C839 C840 1.397 . S
C839 C844 1.363 . S
C840 H817 0.950 . S
C840 C839 1.397 . S
C840 C841 1.334 . S
C841 H818 0.950 . S
C841 C840 1.334 . S
C841 C842 1.287 . S
C842 C841 1.287 . S
C842 C843 1.524 . S
C842 H861 0.913 . S
C843 H819 0.950 . S
C843 C842 1.524 . S
C843 C844 1.415 . S
C844 H820 0.950 . S
C844 C839 1.363 . S
C844 C843 1.415 . S
C845 H821 0.951 . S
C845 C846 1.366 . S
C845 C847 1.388 . S
C846 C845 1.366 . S
C846 C850 1.385 . S
C847 H822 0.951 . S
C847 C845 1.388 . S
C847 C848 1.366 . S
C848 C847 1.366 . S
C848 C849 1.414 . S
C848 C851 1.499 . S
C849 H823 0.950 . S
C849 C848 1.414 . S
C849 C850 1.374 . S
C850 H824 0.950 . S
C850 C846 1.385 . S
C850 C849 1.374 . S
C851 C848 1.499 . S
C851 C852 1.373 . S
C851 C853 1.389 . S
C852 H825 0.950 . S
C852 C838 1.377 . S
C852 C851 1.373 . S
C853 C837 1.377 . S
C853 C851 1.389 . S
C853 C854 1.524 . S
C854 C853 1.524 . S
C854 C855 1.397 . S
C854 C859 1.363 . S
C855 H826 0.950 . S
C855 C854 1.397 . S
C855 C856 1.334 . S
C856 H827 0.950 . S
C856 C855 1.334 . S
C856 C857 1.287 . S
C857 C856 1.287 . S
C857 C858 1.524 . S
C857 H860 0.999 . S
C858 H828 0.950 . S
C858 C857 1.524 . S
C858 C859 1.415 . S
C859 H829 0.950 . S
C859 C854 1.363 . S
C859 C858 1.415 . S
H860 C857 0.999 . S
H861 C842 0.913 . S
H862 C880 0.951 . S
H863 C882 0.951 . S
H864 C884 0.950 . S
H865 C885 0.950 . S
H866 C887 0.950 . S
H867 C890 0.950 . S
H868 C891 0.950 . S
H869 C893 0.950 . S
H870 C894 0.950 . S
H871 C895 0.951 . S
H872 C897 0.951 . S
H873 C899 0.950 . S
H874 C900 0.950 . S
H875 C902 0.950 . S
H876 C905 0.950 . S
H877 C906 0.950 . S
H878 C908 0.950 . S
H879 C909 0.950 . S
C880 H862 0.951 . S
C880 C881 1.366 . S
C880 C882 1.388 . S
C881 C880 1.366 . S
C881 C885 1.385 . S
C882 H863 0.951 . S
C882 C880 1.388 . S
C882 C883 1.366 . S
C883 C882 1.366 . S
C883 C884 1.414 . S
C883 C886 1.499 . S
C884 H864 0.950 . S
C884 C883 1.414 . S
C884 C885 1.374 . S
C885 H865 0.950 . S
C885 C881 1.385 . S
C885 C884 1.374 . S
C886 C883 1.499 . S
C886 C887 1.373 . S
C886 C888 1.389 . S
C887 H866 0.950 . S
C887 C886 1.373 . S
C887 C903 1.377 . S
C888 C886 1.389 . S
C888 C889 1.524 . S
C888 C902 1.377 . S
C889 C888 1.524 . S
C889 C890 1.397 . S
C889 C894 1.363 . S
C890 H867 0.950 . S
C890 C889 1.397 . S
C890 C891 1.334 . S
C891 H868 0.950 . S
C891 C890 1.334 . S
C891 C892 1.287 . S
C892 C891 1.287 . S
C892 C893 1.524 . S
C892 H911 0.913 . S
C893 H869 0.950 . S
C893 C892 1.524 . S
C893 C894 1.415 . S
C894 H870 0.950 . S
C894 C889 1.363 . S
C894 C893 1.415 . S
C895 H871 0.951 . S
C895 C896 1.366 . S
C895 C897 1.388 . S
C896 C895 1.366 . S
C896 C900 1.385 . S
C897 H872 0.951 . S
C897 C895 1.388 . S
C897 C898 1.366 . S
C898 C897 1.366 . S
C898 C899 1.414 . S
C898 C901 1.499 . S
C899 H873 0.950 . S
C899 C898 1.414 . S
C899 C900 1.374 . S
C900 H874 0.950 . S
C900 C896 1.385 . S
C900 C899 1.374 . S
C901 C898 1.499 . S
C901 C902 1.373 . S
C901 C903 1.389 . S
C902 H875 0.950 . S
C902 C888 1.377 . S
C902 C901 1.373 . S
C903 C887 1.377 . S
C903 C901 1.389 . S
C903 C904 1.524 . S
C904 C903 1.524 . S
C904 C905 1.397 . S
C904 C909 1.363 . S
C905 H876 0.950 . S
C905 C904 1.397 . S
C905 C906 1.334 . S
C906 H877 0.950 . S
C906 C905 1.334 . S
C906 C907 1.287 . S
C907 C906 1.287 . S
C907 C908 1.524 . S
C907 H910 0.999 . S
C908 H878 0.950 . S
C908 C907 1.524 . S
C908 C909 1.415 . S
C909 H879 0.950 . S
C909 C904 1.363 . S
C909 C908 1.415 . S
H910 C907 0.999 . S
H911 C892 0.913 . S
H912 C930 0.951 . S
H913 C932 0.951 . S
H914 C934 0.950 . S
H915 C935 0.950 . S
H916 C937 0.950 . S
H917 C940 0.950 . S
H918 C941 0.950 . S
H919 C943 0.950 . S
H920 C944 0.950 . S
H921 C945 0.951 1_655 S
H922 C947 0.955 1_654 S
H923 C949 0.950 . S
H924 C950 0.950 . S
H925 C952 0.950 . S
H926 C955 0.950 . S
H927 C956 0.989 . S
H928 C958 0.950 . S
H929 C959 0.950 . S
C930 H912 0.951 . S
C930 C931 1.366 . S
C930 C932 1.388 . S
C931 C930 1.366 . S
C931 C935 1.385 . S
C932 H913 0.951 . S
C932 C930 1.388 . S
C932 C933 1.366 . S
C933 C932 1.366 . S
C933 C934 1.414 . S
C933 C936 1.499 . S
C934 H914 0.950 . S
C934 C933 1.414 . S
C934 C935 1.374 . S
C935 H915 0.950 . S
C935 C931 1.385 . S
C935 C934 1.374 . S
C936 C933 1.499 . S
C936 C937 1.373 . S
C936 C938 1.389 1_455 S
C937 H916 0.950 . S
C937 C936 1.373 . S
C937 C953 1.377 . S
C938 C936 1.389 1_655 S
C938 C939 1.524 . S
C938 C952 1.377 . S
C939 C938 1.524 . S
C939 C940 1.397 . S
C939 C944 1.363 . S
C940 H917 0.950 . S
C940 C939 1.397 . S
C940 C941 1.334 . S
C941 H918 0.950 . S
C941 C940 1.334 . S
C941 C942 1.287 . S
C942 C941 1.287 . S
C942 C943 1.524 . S
C942 H961 0.913 . S
C943 H919 0.950 . S
C943 C942 1.524 . S
C943 C944 1.415 . S
C944 H920 0.950 . S
C944 C939 1.363 . S
C944 C943 1.415 . S
C945 H921 0.951 1_455 S
C945 C946 1.366 . S
C945 C947 1.388 . S
C946 C945 1.366 . S
C946 C950 1.385 . S
C947 H922 0.955 1_456 S
C947 C945 1.388 . S
C947 C948 1.366 1_556 S
C948 C947 1.366 1_554 S
C948 C949 1.414 1_554 S
C948 C951 1.499 . S
C949 H923 0.950 . S
C949 C948 1.414 1_556 S
C949 C950 1.374 . S
C950 H924 0.950 . S
C950 C946 1.385 . S
C950 C949 1.374 . S
C951 C948 1.499 . S
C951 C952 1.373 1_455 S
C951 C953 1.389 . S
C952 H925 0.950 . S
C952 C938 1.377 . S
C952 C951 1.373 1_655 S
C953 C937 1.377 . S
C953 C951 1.389 . S
C953 C954 1.524 . S
C954 C953 1.524 . S
C954 C955 1.397 . S
C954 C959 1.363 . S
C955 H926 0.950 . S
C955 C954 1.397 . S
C955 C956 1.334 . S
C956 H927 0.989 . S
C956 C955 1.334 . S
C956 C957 1.287 . S
C957 C956 1.287 . S
C957 C958 1.524 . S
C957 H960 0.999 . S
C958 H928 0.950 . S
C958 C957 1.524 . S
C958 C959 1.415 . S
C959 H929 0.950 . S
C959 C954 1.363 . S
C959 C958 1.415 . S
H960 C957 0.999 . S
H961 C942 0.913 . S
H962 C980 0.951 . S
H963 C982 0.951 . S
H964 C984 0.950 . S
H965 C985 0.950 . S
H966 C987 0.950 . S
H967 C990 0.950 . S
H968 C991 0.950 . S
H969 C993 0.950 . S
H970 C994 0.950 . S
H971 C995 0.951 . S
H972 C997 0.951 . S
H973 C999 0.950 . S
H974 C1000 0.950 . S
H975 C1002 0.950 . S
H976 C1005 0.950 . S
H977 C1006 0.950 . S
H978 C1008 0.950 . S
H979 C1009 0.950 . S
C980 H962 0.951 . S
C980 C981 1.366 . S
C980 C982 1.388 . S
C981 C980 1.366 . S
C981 C985 1.385 . S
C982 H963 0.951 . S
C982 C980 1.388 . S
C982 C983 1.366 . S
C983 C982 1.366 . S
C983 C984 1.414 . S
C983 C986 1.499 . S
C984 H964 0.950 . S
C984 C983 1.414 . S
C984 C985 1.374 . S
C985 H965 0.950 . S
C985 C981 1.385 . S
C985 C984 1.374 . S
C986 C983 1.499 . S
C986 C987 1.373 . S
C986 C988 1.389 . S
C987 H966 0.950 . S
C987 C986 1.373 . S
C987 C1003 1.377 . S
C988 C986 1.389 . S
C988 C989 1.524 . S
C988 C1002 1.377 . S
C989 C988 1.524 . S
C989 C990 1.397 1_545 S
C989 C994 1.363 . S
C990 H967 0.950 . S
C990 C989 1.397 1_565 S
C990 C991 1.334 . S
C991 H968 0.950 . S
C991 C990 1.334 . S
C991 C992 1.287 . S
C992 C991 1.287 . S
C992 C993 1.524 1_565 S
C992 H1011 0.913 . S
C993 H969 0.950 . S
C993 C992 1.524 1_545 S
C993 C994 1.415 . S
C994 H970 0.950 . S
C994 C989 1.363 . S
C994 C993 1.415 . S
C995 H971 0.951 . S
C995 C996 1.366 . S
C995 C997 1.388 . S
C996 C995 1.366 . S
C996 C1000 1.385 . S
C997 H972 0.951 . S
C997 C995 1.388 . S
C997 C998 1.366 . S
C998 C997 1.366 . S
C998 C999 1.414 . S
C998 C1001 1.499 . S
C999 H973 0.950 . S
C999 C998 1.414 . S
C999 C1000 1.374 . S
C1000 H974 0.950 . S
C1000 C996 1.385 . S
C1000 C999 1.374 . S
C1001 C998 1.499 . S
C1001 C1002 1.373 . S
C1001 C1003 1.389 . S
C1002 H975 0.950 . S
C1002 C988 1.377 . S
C1002 C1001 1.373 . S
C1003 C987 1.377 . S
C1003 C1001 1.389 . S
C1003 C1004 1.524 . S
C1004 C1003 1.524 . S
C1004 C1005 1.397 . S
C1004 C1009 1.363 . S
C1005 H976 0.950 . S
C1005 C1004 1.397 . S
C1005 C1006 1.334 . S
C1006 H977 0.950 . S
C1006 C1005 1.334 . S
C1006 C1007 1.287 . S
C1007 C1006 1.287 . S
C1007 C1008 1.524 . S
C1007 H1010 0.999 . S
C1008 H978 0.950 . S
C1008 C1007 1.524 . S
C1008 C1009 1.415 . S
C1009 H979 0.950 . S
C1009 C1004 1.363 . S
C1009 C1008 1.415 . S
H1010 C1007 0.999 . S
H1011 C992 0.913 . S
H1012 C1030 0.951 . S
H1013 C1032 0.951 . S
H1014 C1034 0.950 . S
H1015 C1035 0.950 . S
H1016 C1037 0.950 . S
H1017 C1040 0.950 . S
H1018 C1041 0.950 . S
H1019 C1043 0.950 . S
H1020 C1044 0.950 . S
H1021 C1045 0.951 . S
H1022 C1047 0.951 . S
H1023 C1049 0.950 . S
H1024 C1050 0.950 . S
H1025 C1052 0.950 . S
H1026 C1055 0.950 . S
H1027 C1056 0.950 . S
H1028 C1058 0.950 . S
H1029 C1059 0.950 . S
C1030 H1012 0.951 . S
C1030 C1031 1.366 . S
C1030 C1032 1.388 . S
C1031 C1030 1.366 . S
C1031 C1035 1.385 . S
C1032 H1013 0.951 . S
C1032 C1030 1.388 . S
C1032 C1033 1.366 . S
C1033 C1032 1.366 . S
C1033 C1034 1.414 . S
C1033 C1036 1.499 . S
C1034 H1014 0.950 . S
C1034 C1033 1.414 . S
C1034 C1035 1.374 . S
C1035 H1015 0.950 . S
C1035 C1031 1.385 . S
C1035 C1034 1.374 . S
C1036 C1033 1.499 . S
C1036 C1037 1.373 . S
C1036 C1038 1.389 . S
C1037 H1016 0.950 . S
C1037 C1036 1.373 . S
C1037 C1053 1.377 . S
C1038 C1036 1.389 . S
C1038 C1039 1.524 . S
C1038 C1052 1.377 . S
C1039 C1038 1.524 . S
C1039 C1040 1.397 . S
C1039 C1044 1.363 . S
C1040 H1017 0.950 . S
C1040 C1039 1.397 . S
C1040 C1041 1.334 . S
C1041 H1018 0.950 . S
C1041 C1040 1.334 . S
C1041 C1042 1.287 . S
C1042 C1041 1.287 . S
C1042 C1043 1.524 . S
C1042 H1061 0.913 . S
C1043 H1019 0.950 . S
C1043 C1042 1.524 . S
C1043 C1044 1.415 . S
C1044 H1020 0.950 . S
C1044 C1039 1.363 . S
C1044 C1043 1.415 . S
C1045 H1021 0.951 . S
C1045 C1046 1.366 . S
C1045 C1047 1.388 . S
C1046 C1045 1.366 . S
C1046 C1050 1.385 . S
C1047 H1022 0.951 . S
C1047 C1045 1.388 . S
C1047 C1048 1.366 . S
C1048 C1047 1.366 . S
C1048 C1049 1.414 . S
C1048 C1051 1.499 . S
C1049 H1023 0.950 . S
C1049 C1048 1.414 . S
C1049 C1050 1.374 . S
C1050 H1024 0.950 . S
C1050 C1046 1.385 . S
C1050 C1049 1.374 . S
C1051 C1048 1.499 . S
C1051 C1052 1.373 . S
C1051 C1053 1.389 . S
C1052 H1025 0.950 . S
C1052 C1038 1.377 . S
C1052 C1051 1.373 . S
C1053 C1037 1.377 . S
C1053 C1051 1.389 . S
C1053 C1054 1.524 . S
C1054 C1053 1.524 . S
C1054 C1055 1.397 . S
C1054 C1059 1.363 . S
C1055 H1026 0.950 . S
C1055 C1054 1.397 . S
C1055 C1056 1.334 . S
C1056 H1027 0.950 . S
C1056 C1055 1.334 . S
C1056 C1057 1.287 . S
C1057 C1056 1.287 . S
C1057 C1058 1.524 . S
C1057 H1060 0.999 . S
C1058 H1028 0.950 . S
C1058 C1057 1.524 . S
C1058 C1059 1.415 . S
C1059 H1029 0.950 . S
C1059 C1054 1.363 . S
C1059 C1058 1.415 . S
H1060 C1057 0.999 . S
H1061 C1042 0.913 . S
H1062 C1080 0.951 . S
H1063 C1082 0.951 . S
H1064 C1084 0.950 . S
H1065 C1085 0.950 . S
H1066 C1087 0.950 . S
H1067 C1090 0.950 1_565 S
H1068 C1091 0.950 1_565 S
H1069 C1093 0.950 . S
H1070 C1094 0.950 . S
H1071 C1095 0.951 . S
H1072 C1097 0.951 . S
H1073 C1099 0.950 . S
H1074 C1100 0.950 . S
H1075 C1102 0.950 . S
H1076 C1105 0.950 . S
H1077 C1106 0.950 . S
H1078 C1108 0.950 . S
H1079 C1109 0.950 . S
C1080 H1062 0.951 . S
C1080 C1081 1.366 . S
C1080 C1082 1.388 . S
C1081 C1080 1.366 . S
C1081 C1085 1.385 1_545 S
C1082 H1063 0.951 . S
C1082 C1080 1.388 . S
C1082 C1083 1.366 . S
C1083 C1082 1.366 . S
C1083 C1084 1.414 1_545 S
C1083 C1086 1.499 . S
C1084 H1064 0.950 . S
C1084 C1083 1.414 1_565 S
C1084 C1085 1.374 . S
C1085 H1065 0.950 . S
C1085 C1081 1.385 1_565 S
C1085 C1084 1.374 . S
C1086 C1083 1.499 . S
C1086 C1087 1.373 . S
C1086 C1088 1.389 . S
C1087 H1066 0.950 . S
C1087 C1086 1.373 . S
C1087 C1103 1.377 . S
C1088 C1086 1.389 . S
C1088 C1089 1.524 . S
C1088 C1102 1.377 . S
C1089 C1088 1.524 . S
C1089 C1090 1.397 . S
C1089 C1094 1.363 . S
C1090 H1067 0.950 1_545 S
C1090 C1089 1.397 . S
C1090 C1091 1.334 . S
C1091 H1068 0.950 1_545 S
C1091 C1090 1.334 . S
C1091 C1092 1.287 . S
C1092 C1091 1.287 . S
C1092 C1093 1.524 . S
C1092 H1111 0.913 . S
C1093 H1069 0.950 . S
C1093 C1092 1.524 . S
C1093 C1094 1.415 . S
C1094 H1070 0.950 . S
C1094 C1089 1.363 . S
C1094 C1093 1.415 . S
C1095 H1071 0.951 . S
C1095 C1096 1.366 1_565 S
C1095 C1097 1.388 . S
C1096 C1095 1.366 1_545 S
C1096 C1100 1.385 . S
C1097 H1072 0.951 . S
C1097 C1095 1.388 . S
C1097 C1098 1.366 1_565 S
C1098 C1097 1.366 1_545 S
C1098 C1099 1.414 . S
C1098 C1101 1.499 . S
C1099 H1073 0.950 . S
C1099 C1098 1.414 . S
C1099 C1100 1.374 . S
C1100 H1074 0.950 . S
C1100 C1096 1.385 . S
C1100 C1099 1.374 . S
C1101 C1098 1.499 . S
C1101 C1102 1.373 . S
C1101 C1103 1.389 . S
C1102 H1075 0.950 . S
C1102 C1088 1.377 . S
C1102 C1101 1.373 . S
C1103 C1087 1.377 . S
C1103 C1101 1.389 . S
C1103 C1104 1.524 . S
C1104 C1103 1.524 . S
C1104 C1105 1.397 . S
C1104 C1109 1.363 1_545 S
C1105 H1076 0.950 . S
C1105 C1104 1.397 . S
C1105 C1106 1.334 . S
C1106 H1077 0.950 . S
C1106 C1105 1.334 . S
C1106 C1107 1.287 1_545 S
C1107 C1106 1.287 1_565 S
C1107 C1108 1.524 . S
C1107 H1110 0.999 . S
C1108 H1078 0.950 . S
C1108 C1107 1.524 . S
C1108 C1109 1.415 . S
C1109 H1079 0.950 . S
C1109 C1104 1.363 1_565 S
C1109 C1108 1.415 . S
H1110 C1107 0.999 . S
H1111 C1092 0.913 . S
H1112 C1130 0.951 . S
H1113 C1132 0.951 . S
H1114 C1134 0.950 . S
H1115 C1135 0.950 . S
H1116 C1137 0.950 . S
H1117 C1140 0.950 . S
H1118 C1141 0.950 . S
H1119 C1143 0.950 . S
H1120 C1144 0.950 . S
H1121 C1145 0.951 . S
H1122 C1147 0.951 1_556 S
H1123 C1149 0.967 . S
H1124 C1150 0.950 . S
H1125 C1152 0.950 . S
H1126 C1155 0.950 . S
H1127 C1156 0.950 1_554 S
H1128 C1158 0.950 . S
H1129 C1159 0.950 . S
C1130 H1112 0.951 . S
C1130 C1131 1.366 . S
C1130 C1132 1.388 . S
C1131 C1130 1.366 . S
C1131 C1135 1.385 . S
C1132 H1113 0.951 . S
C1132 C1130 1.388 . S
C1132 C1133 1.366 . S
C1133 C1132 1.366 . S
C1133 C1134 1.414 . S
C1133 C1136 1.499 . S
C1134 H1114 0.950 . S
C1134 C1133 1.414 . S
C1134 C1135 1.374 . S
C1135 H1115 0.950 . S
C1135 C1131 1.385 . S
C1135 C1134 1.374 . S
C1136 C1133 1.499 . S
C1136 C1137 1.373 . S
C1136 C1138 1.389 . S
C1137 H1116 0.950 . S
C1137 C1136 1.373 . S
C1137 C1153 1.377 . S
C1138 C1136 1.389 . S
C1138 C1139 1.524 . S
C1138 C1152 1.377 . S
C1139 C1138 1.524 . S
C1139 C1140 1.397 . S
C1139 C1144 1.363 . S
C1140 H1117 0.950 . S
C1140 C1139 1.397 . S
C1140 C1141 1.334 . S
C1141 H1118 0.950 . S
C1141 C1140 1.334 . S
C1141 C1142 1.287 . S
C1142 C1141 1.287 . S
C1142 C1143 1.524 . S
C1142 H1161 0.913 . S
C1143 H1119 0.950 . S
C1143 C1142 1.524 . S
C1143 C1144 1.415 . S
C1144 H1120 0.950 . S
C1144 C1139 1.363 . S
C1144 C1143 1.415 . S
C1145 H1121 0.951 . S
C1145 C1146 1.366 . S
C1145 C1147 1.388 . S
C1146 C1145 1.366 . S
C1146 C1150 1.385 . S
C1147 H1122 0.951 1_554 S
C1147 C1145 1.388 . S
C1147 C1148 1.366 1_554 S
C1148 C1147 1.366 1_556 S
C1148 C1149 1.414 1_556 S
C1148 C1151 1.499 . S
C1149 H1123 0.967 . S
C1149 C1148 1.414 1_554 S
C1149 C1150 1.374 . S
C1150 H1124 0.950 . S
C1150 C1146 1.385 . S
C1150 C1149 1.374 . S
C1151 C1148 1.499 . S
C1151 C1152 1.373 . S
C1151 C1153 1.389 . S
C1152 H1125 0.950 . S
C1152 C1138 1.377 . S
C1152 C1151 1.373 . S
C1153 C1137 1.377 . S
C1153 C1151 1.389 . S
C1153 C1154 1.524 . S
C1154 C1153 1.524 . S
C1154 C1155 1.397 . S
C1154 C1159 1.363 . S
C1155 H1126 0.950 . S
C1155 C1154 1.397 . S
C1155 C1156 1.334 . S
C1156 H1127 0.950 1_556 S
C1156 C1155 1.334 . S
C1156 C1157 1.287 . S
C1157 C1156 1.287 . S
C1157 C1158 1.524 . S
C1157 H1160 0.999 . S
C1158 H1128 0.950 . S
C1158 C1157 1.524 . S
C1158 C1159 1.415 . S
C1159 H1129 0.950 . S
C1159 C1154 1.363 . S
C1159 C1158 1.415 . S
H1160 C1157 0.999 . S
H1161 C1142 0.913 . S
H1162 C1180 0.951 . S
H1163 C1182 0.951 . S
H1164 C1184 0.950 . S
H1165 C1185 0.950 . S
H1166 C1187 0.946 1_655 S
H1167 C1190 0.950 . S
H1168 C1191 0.950 . S
H1169 C1193 0.950 . S
H1170 C1194 0.950 . S
H1171 C1195 0.951 . S
H1172 C1197 0.951 . S
H1173 C1199 0.950 . S
H1174 C1200 0.950 . S
H1175 C1202 0.950 . S
H1176 C1205 0.950 . S
H1177 C1206 0.950 . S
H1178 C1208 0.950 . S
H1179 C1209 0.950 . S
C1180 H1162 0.951 . S
C1180 C1181 1.366 . S
C1180 C1182 1.388 . S
C1181 C1180 1.366 . S
C1181 C1185 1.385 . S
C1182 H1163 0.951 . S
C1182 C1180 1.388 . S
C1182 C1183 1.366 . S
C1183 C1182 1.366 . S
C1183 C1184 1.414 . S
C1183 C1186 1.499 . S
C1184 H1164 0.950 . S
C1184 C1183 1.414 . S
C1184 C1185 1.374 . S
C1185 H1165 0.950 . S
C1185 C1181 1.385 . S
C1185 C1184 1.374 . S
C1186 C1183 1.499 . S
C1186 C1187 1.373 . S
C1186 C1188 1.389 . S
C1187 H1166 0.946 1_455 S
C1187 C1186 1.373 . S
C1187 C1203 1.377 . S
C1188 C1186 1.389 . S
C1188 C1189 1.524 . S
C1188 C1202 1.377 . S
C1189 C1188 1.524 . S
C1189 C1190 1.397 . S
C1189 C1194 1.363 . S
C1190 H1167 0.950 . S
C1190 C1189 1.397 . S
C1190 C1191 1.334 . S
C1191 H1168 0.950 . S
C1191 C1190 1.334 . S
C1191 C1192 1.287 . S
C1192 C1191 1.287 . S
C1192 C1193 1.524 . S
C1192 H1211 0.913 . S
C1193 H1169 0.950 . S
C1193 C1192 1.524 . S
C1193 C1194 1.415 . S
C1194 H1170 0.950 . S
C1194 C1189 1.363 . S
C1194 C1193 1.415 . S
C1195 H1171 0.951 . S
C1195 C1196 1.366 . S
C1195 C1197 1.388 . S
C1196 C1195 1.366 . S
C1196 C1200 1.385 . S
C1197 H1172 0.951 . S
C1197 C1195 1.388 . S
C1197 C1198 1.366 . S
C1198 C1197 1.366 . S
C1198 C1199 1.414 . S
C1198 C1201 1.499 . S
C1199 H1173 0.950 . S
C1199 C1198 1.414 . S
C1199 C1200 1.374 . S
C1200 H1174 0.950 . S
C1200 C1196 1.385 . S
C1200 C1199 1.374 . S
C1201 C1198 1.499 . S
C1201 C1202 1.373 . S
C1201 C1203 1.389 . S
C1202 H1175 0.950 . S
C1202 C1188 1.377 . S
C1202 C1201 1.373 . S
C1203 C1187 1.377 . S
C1203 C1201 1.389 . S
C1203 C1204 1.524 1_455 S
C1204 C1203 1.524 1_655 S
C1204 C1205 1.397 . S
C1204 C1209 1.363 . S
C1205 H1176 0.950 . S
C1205 C1204 1.397 . S
C1205 C1206 1.334 . S
C1206 H1177 0.950 . S
C1206 C1205 1.334 . S
C1206 C1207 1.287 . S
C1207 C1206 1.287 . S
C1207 C1208 1.524 . S
C1207 H1210 0.999 . S
C1208 H1178 0.950 . S
C1208 C1207 1.524 . S
C1208 C1209 1.415 . S
C1209 H1179 0.950 . S
C1209 C1204 1.363 . S
C1209 C1208 1.415 . S
H1210 C1207 0.999 . S
H1211 C1192 0.913 . S
C331 C10 2.889 . S
C346 C303 2.856 . S
C381 C59 3.018 . S
C396 C239 2.956 . S
C431 C90 2.921 . S
C446 C271 2.890 . S
C481 C19 3.029 . S
C496 C297 2.977 . S
C546 C233 2.869 . S
C531 C50 2.900 . S
C596 C265 2.944 . S
C581 C99 2.996 . S
C631 C46 0.363 . S
C646 C175 0.347 . S
C681 C95 0.310 . S
C696 C207 0.328 . S
C731 C6 0.329 . S
C746 C137 0.400 . S
C796 C169 0.275 . S
C781 C55 0.311 . S
C846 C201 0.419 . S
C831 C86 0.357 . S
C881 C15 0.327 . S
C896 C143 0.338 . S
C946 C213 1.088 . S
C931 C9 1.092 . S
C981 C49 1.084 . S
C996 C149 1.084 . S
C1031 C89 1.092 . S
C1046 C181 1.103 . S
C1096 C277 1.736 . S
C1081 C58 1.696 . S
C1146 C309 1.740 . S
C1131 C98 1.696 . S
C1181 C18 1.697 . S
C1196 C245 1.742 . S
