# Generated by pormake.
# Topology hwx, (6,3)-cn, num edge types: 1
# Building blocks:
#     Node 0, Type 0, BuildingBlock: OJICUG_clean_sbu_0, # of connection points: 6
#     Node 1, Type 0, BuildingBlock: OJICUG_clean_sbu_0, # of connection points: 6
#     Node 2, Type 0, BuildingBlock: OJICUG_clean_sbu_0, # of connection points: 6
#     Node 3, Type 0, BuildingBlock: OJICUG_clean_sbu_0, # of connection points: 6
#     Node 4, Type 1, BuildingBlock: VETTIZ_charged_linker_0, # of connection points: 3
#     Node 5, Type 1, BuildingBlock: VETTIZ_charged_linker_0, # of connection points: 3
#     Node 6, Type 1, BuildingBlock: VETTIZ_charged_linker_0, # of connection points: 3
#     Node 7, Type 1, BuildingBlock: VETTIZ_charged_linker_0, # of connection points: 3
#     Node 8, Type 1, BuildingBlock: VETTIZ_charged_linker_0, # of connection points: 3
#     Node 9, Type 1, BuildingBlock: VETTIZ_charged_linker_0, # of connection points: 3
#     Node 10, Type 1, BuildingBlock: VETTIZ_charged_linker_0, # of connection points: 3
#     Node 11, Type 1, BuildingBlock: VETTIZ_charged_linker_0, # of connection points: 3
#     Edge 12, Type (0, 1), BuildingBlock: KIFKEQ_clean_linker_1, # of connection points: 2
#     Edge 13, Type (0, 1), BuildingBlock: KIFKEQ_clean_linker_1, # of connection points: 2
#     Edge 14, Type (0, 1), BuildingBlock: KIFKEQ_clean_linker_1, # of connection points: 2
#     Edge 15, Type (0, 1), BuildingBlock: KIFKEQ_clean_linker_1, # of connection points: 2
#     Edge 16, Type (0, 1), BuildingBlock: KIFKEQ_clean_linker_1, # of connection points: 2
#     Edge 17, Type (0, 1), BuildingBlock: KIFKEQ_clean_linker_1, # of connection points: 2
#     Edge 18, Type (0, 1), BuildingBlock: KIFKEQ_clean_linker_1, # of connection points: 2
#     Edge 19, Type (0, 1), BuildingBlock: KIFKEQ_clean_linker_1, # of connection points: 2
#     Edge 20, Type (0, 1), BuildingBlock: KIFKEQ_clean_linker_1, # of connection points: 2
#     Edge 21, Type (0, 1), BuildingBlock: KIFKEQ_clean_linker_1, # of connection points: 2
#     Edge 22, Type (0, 1), BuildingBlock: KIFKEQ_clean_linker_1, # of connection points: 2
#     Edge 23, Type (0, 1), BuildingBlock: KIFKEQ_clean_linker_1, # of connection points: 2
#     Edge 24, Type (0, 1), BuildingBlock: KIFKEQ_clean_linker_1, # of connection points: 2
#     Edge 25, Type (0, 1), BuildingBlock: KIFKEQ_clean_linker_1, # of connection points: 2
#     Edge 26, Type (0, 1), BuildingBlock: KIFKEQ_clean_linker_1, # of connection points: 2
#     Edge 27, Type (0, 1), BuildingBlock: KIFKEQ_clean_linker_1, # of connection points: 2
#     Edge 28, Type (0, 1), BuildingBlock: KIFKEQ_clean_linker_1, # of connection points: 2
#     Edge 29, Type (0, 1), BuildingBlock: KIFKEQ_clean_linker_1, # of connection points: 2
#     Edge 30, Type (0, 1), BuildingBlock: KIFKEQ_clean_linker_1, # of connection points: 2
#     Edge 31, Type (0, 1), BuildingBlock: KIFKEQ_clean_linker_1, # of connection points: 2
#     Edge 32, Type (0, 1), BuildingBlock: KIFKEQ_clean_linker_1, # of connection points: 2
#     Edge 33, Type (0, 1), BuildingBlock: KIFKEQ_clean_linker_1, # of connection points: 2
#     Edge 34, Type (0, 1), BuildingBlock: KIFKEQ_clean_linker_1, # of connection points: 2
#     Edge 35, Type (0, 1), BuildingBlock: KIFKEQ_clean_linker_1, # of connection points: 2
# Relax obj value: 0.080
# Max RMSD: 0.104
# Mean RMSD: 0.097
data_MOF--net-hwx--node1-OJICUG_clean_sbu_0--node2-VETTIZ_charged_linker_0--edge1-KIFKEQ_clean_linker_1
_symmetry_space_group_name_H-M    P1
_symmetry_Int_Tables_number       1
_symmetry_cell_setting            triclinic
loop_
_symmetry_equiv_pos_as_xyz
'x, y, z'
_cell_length_a     61.537199
_cell_length_b     61.535056
_cell_length_c     27.964232
_cell_angle_alpha  90.174153
_cell_angle_beta   89.866255
_cell_angle_gamma 90.023125
loop_
_atom_site_label
_atom_site_type_symbol
_atom_site_fract_x
_atom_site_fract_y
_atom_site_fract_z
_atom_type_partial_charge
Sc0 Sc 0.22182 0.22303 0.05798 0.0
Sc1 Sc 0.18595 0.18822 0.99599 0.0
Sc2 Sc 0.22319 0.22132 0.93287 0.0
O3 O 0.21027 0.21084 0.99561 0.0
C4 C 0.2198 0.2653 0.99227 0.0
C5 C 0.17108 0.22028 0.07998 0.0
C6 C 0.1725 0.21785 0.908 0.0
C7 C 0.21575 0.17272 0.0825 0.0
C8 C 0.26555 0.21896 0.99825 0.0
C9 C 0.21811 0.17059 0.91448 0.0
O10 O 0.22086 0.25596 0.03267 0.0
O11 O 0.16696 0.20556 0.04924 0.0
O12 O 0.19185 0.22399 0.89955 0.0
O13 O 0.22387 0.19144 0.08952 0.0
O14 O 0.25626 0.22004 0.95783 0.0
O15 O 0.20209 0.16813 0.94287 0.0
O16 O 0.25513 0.2194 0.0374 0.0
O17 O 0.20185 0.16885 0.04994 0.0
O18 O 0.22756 0.1887 0.90805 0.0
O19 O 0.18998 0.228 0.08612 0.0
O20 O 0.22011 0.25496 0.95284 0.0
O21 O 0.16759 0.20533 0.94245 0.0
Sc22 Sc 0.27729 0.72128 0.43307 0.0
Sc23 Sc 0.30775 0.68441 0.50273 0.0
Sc24 Sc 0.27203 0.72176 0.558 0.0
O25 O 0.28572 0.70912 0.4979 0.0
C26 C 0.27914 0.76438 0.496 0.0
C27 C 0.32833 0.71411 0.42058 0.0
C28 C 0.32131 0.71539 0.58963 0.0
C29 C 0.28008 0.67026 0.41158 0.0
C30 C 0.23156 0.71993 0.48752 0.0
C31 C 0.27329 0.67125 0.58298 0.0
O32 O 0.28021 0.75449 0.45619 0.0
O33 O 0.32973 0.69931 0.4521 0.0
O34 O 0.30273 0.72423 0.59311 0.0
O35 O 0.27388 0.68948 0.40224 0.0
O36 O 0.23998 0.72038 0.52889 0.0
O37 O 0.28833 0.66637 0.5536 0.0
O38 O 0.24285 0.72033 0.4493 0.0
O39 O 0.29215 0.66571 0.44703 0.0
O40 O 0.26617 0.69046 0.58806 0.0
O41 O 0.31059 0.72356 0.41035 0.0
O42 O 0.27594 0.75483 0.53551 0.0
O43 O 0.32573 0.70069 0.55894 0.0
Sc44 Sc 0.77739 0.77208 0.93557 0.0
Sc45 Sc 0.80926 0.81023 -0.00124 0.0
Sc46 Sc 0.77283 0.77601 0.06014 0.0
O47 O 0.78653 0.78611 0.99812 0.0
C48 C 0.73207 0.77543 0.98978 0.0
C49 C 0.78097 0.82243 0.90803 0.0
C50 C 0.77514 0.82693 0.07723 0.0
C51 C 0.82817 0.77772 0.91917 0.0
C52 C 0.77929 0.73115 0.00538 0.0
C53 C 0.82267 0.78256 0.08935 0.0
O54 O 0.74317 0.77532 0.95136 0.0
O55 O 0.79248 0.82815 0.9437 0.0
O56 O 0.76575 0.80869 0.08224 0.0
O57 O 0.81052 0.76734 0.91319 0.0
O58 O 0.77836 0.7422 0.04384 0.0
O59 O 0.82798 0.7943 0.05379 0.0
O60 O 0.77825 0.73974 0.96421 0.0
O61 O 0.82972 0.79413 0.94669 0.0
O62 O 0.80335 0.77608 0.09673 0.0
O63 O 0.77553 0.80283 0.90005 0.0
O64 O 0.74071 0.77482 0.03091 0.0
O65 O 0.79183 0.82958 0.05096 0.0
Sc66 Sc 0.72126 0.27601 0.56709 0.0
Sc67 Sc 0.68496 0.30705 0.49728 0.0
Sc68 Sc 0.72337 0.27269 0.4422 0.0
O69 O 0.70981 0.28527 0.5022 0.0
C70 C 0.76501 0.27946 0.50637 0.0
C71 C 0.71418 0.32674 0.58182 0.0
C72 C 0.71568 0.32211 0.4121 0.0
C73 C 0.66995 0.27859 0.58583 0.0
C74 C 0.72145 0.23124 0.51097 0.0
C75 C 0.67336 0.27276 0.41468 0.0
O76 O 0.75486 0.27692 0.54552 0.0
O77 O 0.69875 0.32801 0.55166 0.0
O78 O 0.72389 0.30336 0.40668 0.0
O79 O 0.68926 0.27356 0.59728 0.0
O80 O 0.72428 0.24027 0.47061 0.0
O81 O 0.66835 0.28845 0.44241 0.0
O82 O 0.71905 0.24198 0.54955 0.0
O83 O 0.66549 0.28992 0.5492 0.0
O84 O 0.69241 0.26493 0.41217 0.0
O85 O 0.72452 0.30924 0.5899 0.0
O86 O 0.75576 0.27963 0.4659 0.0
O87 O 0.70185 0.32653 0.4446 0.0
C88 C 0.215 0.54701 0.83279 0.0
C89 C 0.2158 0.5697 0.82829 0.0
C90 C 0.21361 0.58285 0.8693 0.0
C91 C 0.21233 0.55082 0.91902 0.0
C92 C 0.21289 0.53794 0.87847 0.0
C93 C 0.21142 0.51415 0.8902 0.0
H94 H 0.21289 0.43469 0.05623 0.0
C95 C 0.21225 0.53645 0.96107 0.0
C96 C 0.21118 0.51496 0.94454 0.0
H97 H 0.20493 0.4285 0.90308 0.0
H98 H 0.20554 0.46741 0.89503 0.0
H99 H 0.24932 0.47067 0.05086 0.0
H100 H 0.1801 0.47631 0.07058 0.0
H101 H 0.19305 0.49377 0.11166 0.0
H102 H 0.19783 0.46492 0.11485 0.0
H103 H 0.23651 0.46473 0.107 0.0
H104 H 0.24501 0.49191 0.09171 0.0
C105 C 0.23208 0.50281 0.87061 0.0
C106 C 0.1898 0.50518 0.86953 0.0
C107 C 0.22809 0.56851 0.12415 0.0
C108 C 0.2327 0.55927 0.16888 0.0
C109 C 0.23003 0.53669 0.17491 0.0
C110 C 0.22386 0.52345 0.13624 0.0
C111 C 0.22048 0.53288 0.09107 0.0
C112 C 0.2223 0.55511 0.08591 0.0
C113 C 0.21889 0.56241 0.03529 0.0
C114 C 0.21507 0.5408 0.01052 0.0
C115 C 0.21601 0.52357 0.04328 0.0
C116 C 0.24013 0.57354 0.01816 0.0
C117 C 0.19848 0.57718 0.03374 0.0
C118 C 0.21131 0.44174 0.02097 0.0
C119 C 0.20883 0.4285 0.98025 0.0
C120 C 0.20656 0.43833 0.93507 0.0
C121 C 0.20706 0.46094 0.9304 0.0
C122 C 0.20996 0.47391 0.97124 0.0
C123 C 0.21179 0.46433 0.01565 0.0
C124 C 0.21489 0.48078 0.05495 0.0
C125 C 0.21409 0.50182 0.02681 0.0
C126 C 0.21148 0.49761 0.97777 0.0
C127 C 0.2375 0.47688 0.07779 0.0
C128 C 0.19559 0.47888 0.09026 0.0
H129 H 0.21078 0.58436 0.94467 0.0
H130 H 0.21625 0.53662 0.80156 0.0
H131 H 0.1776 0.5183 0.8643 0.0
H132 H 0.18176 0.49357 0.89404 0.0
H133 H 0.1924 0.49721 0.83429 0.0
H134 H 0.2468 0.51263 0.8789 0.0
H135 H 0.2312 0.50084 0.83117 0.0
H136 H 0.235 0.48673 0.88664 0.0
H137 H 0.22946 0.58587 0.11861 0.0
H138 H 0.23343 0.52917 0.20905 0.0
H139 H 0.22248 0.50632 0.14272 0.0
H140 H 0.25457 0.564 0.02952 0.0
H141 H 0.24166 0.59011 0.03366 0.0
H142 H 0.2415 0.57482 0.97903 0.0
H143 H 0.18705 0.57344 0.06351 0.0
H144 H 0.18879 0.57468 0.00086 0.0
H145 H 0.20296 0.59462 0.03679 0.0
H146 H 0.21416 0.6004 0.8664 0.0
C147 C 0.21184 0.57353 0.91466 0.0
C148 C 0.05558 0.7142 0.5187 0.0
C149 C 0.06782 0.71291 0.47618 0.0
C150 C 0.05687 0.71204 0.43202 0.0
C151 C 0.02223 0.71499 0.47274 0.0
C152 C 0.03289 0.71522 0.51615 0.0
C153 C 0.01741 0.71733 0.55772 0.0
H154 H 0.91502 0.73779 0.63481 0.0
C155 C -0.00123 0.71724 0.48218 0.0
C156 C 0.99574 0.71841 0.53196 0.0
H157 H 0.97227 0.72888 0.7213 0.0
H158 H 0.99342 0.72017 0.65022 0.0
H159 H 0.93782 0.76374 0.54776 0.0
H160 H 0.92187 0.69673 0.57209 0.0
H161 H 0.92071 0.7 0.50979 0.0
H162 H 0.90234 0.71521 0.54774 0.0
H163 H 0.91064 0.75326 0.55233 0.0
H164 H 0.92489 0.75345 0.49632 0.0
C165 C 0.02274 0.73876 0.58439 0.0
C166 C 0.01931 0.69668 0.58893 0.0
C167 C 0.94658 0.72663 0.34312 0.0
C168 C 0.92391 0.72903 0.34118 0.0
C169 C 0.91165 0.72788 0.38367 0.0
C170 C 0.92186 0.72518 0.42782 0.0
C171 C 0.94458 0.72361 0.42957 0.0
C172 C 0.95652 0.72364 0.38765 0.0
C173 C 0.98039 0.72047 0.39662 0.0
C174 C 0.98077 0.71921 0.45091 0.0
C175 C 0.95981 0.72153 0.46987 0.0
C176 C 0.99252 0.7408 0.37779 0.0
C177 C 0.98748 0.69876 0.3729 0.0
C178 C 0.93214 0.734 0.63824 0.0
C179 C 0.94222 0.73437 0.68311 0.0
C180 C 0.96434 0.72883 0.68677 0.0
C181 C 0.97652 0.7239 0.64554 0.0
C182 C 0.96637 0.72446 0.60045 0.0
C183 C 0.94439 0.72888 0.59768 0.0
C184 C 0.93597 0.72798 0.54741 0.0
C185 C 0.95668 0.72304 0.52001 0.0
C186 C 0.9745 0.72123 0.55105 0.0
C187 C 0.9267 0.75069 0.535 0.0
C188 C 0.91925 0.70915 0.54383 0.0
H189 H 0.02686 0.71257 0.39537 0.0
H190 H 0.06349 0.71456 0.55325 0.0
H191 H 0.02252 0.68208 0.56642 0.0
H192 H 0.00413 0.69292 0.60839 0.0
H193 H 0.03285 0.69819 0.61496 0.0
H194 H 0.02614 0.75204 0.55848 0.0
H195 H 0.03733 0.73683 0.60731 0.0
H196 H 0.00923 0.74476 0.60668 0.0
H197 H 0.9563 0.72714 0.31079 0.0
H198 H 0.89415 0.72977 0.38286 0.0
H199 H 0.91167 0.72489 0.45893 0.0
H200 H 0.98348 0.75587 0.38728 0.0
H201 H 0.99415 0.74024 0.33824 0.0
H202 H 0.00881 0.74292 0.39349 0.0
H203 H 0.97367 0.68715 0.37023 0.0
H204 H -0.00014 0.69003 0.39408 0.0
H205 H 0.99379 0.70144 0.33614 0.0
H206 H 0.06588 0.71124 0.39875 0.0
C207 C 0.03418 0.71299 0.43011 0.0
C208 C 0.76601 0.44723 0.15452 0.0
C209 C 0.7629 0.42467 0.15676 0.0
C210 C 0.76278 0.41233 0.11432 0.0
C211 C 0.76752 0.44506 0.06785 0.0
C212 C 0.76862 0.45702 0.1097 0.0
C213 C 0.77281 0.4807 0.10039 0.0
H214 H 0.78085 0.56343 0.9433 0.0
C215 C 0.76982 0.46016 0.02734 0.0
C216 C 0.77339 0.48099 0.04603 0.0
H217 H 0.78688 0.56546 0.09736 0.0
H218 H 0.78305 0.52661 0.10092 0.0
H219 H 0.81144 0.52066 0.92822 0.0
H220 H 0.74187 0.52796 0.94017 0.0
H221 H 0.74778 0.51061 0.8917 0.0
H222 H 0.75717 0.53827 0.89037 0.0
H223 H 0.79545 0.53185 0.88065 0.0
H224 H 0.79924 0.5029 0.88689 0.0
C225 C 0.79512 0.48679 0.12249 0.0
C226 C 0.75332 0.49377 0.12063 0.0
C227 C 0.75488 0.43285 0.85974 0.0
C228 C 0.75481 0.44282 0.81476 0.0
C229 C 0.76115 0.46473 0.81078 0.0
C230 C 0.76667 0.4768 0.85176 0.0
C231 C 0.76597 0.46674 0.89692 0.0
C232 C 0.76063 0.44497 0.90004 0.0
C233 C 0.76161 0.43656 0.95028 0.0
C234 C 0.76767 0.45706 0.97731 0.0
C235 C 0.77001 0.47476 0.94608 0.0
C236 C 0.77975 0.41907 0.95294 0.0
C237 C 0.73865 0.42826 0.96398 0.0
C238 C 0.7816 0.55543 0.97771 0.0
C239 C 0.78393 0.56755 0.02019 0.0
C240 C 0.7847 0.55654 0.06426 0.0
C241 C 0.78255 0.53395 0.06624 0.0
C242 C 0.77949 0.52215 0.02375 0.0
C243 C 0.77941 0.53281 0.98034 0.0
C244 C 0.77606 0.51744 0.93898 0.0
C245 C 0.77408 0.49586 0.96489 0.0
C246 C 0.77591 0.49884 0.01456 0.0
C247 C 0.79647 0.51825 0.90657 0.0
C248 C 0.75469 0.52384 0.91353 0.0
H249 H 0.76443 0.41219 0.0388 0.0
H250 H 0.76649 0.45695 0.18687 0.0
H251 H 0.73772 0.48547 0.11211 0.0
H252 H 0.75183 0.51016 0.10519 0.0
H253 H 0.7544 0.4953 0.16015 0.0
H254 H 0.80601 0.47241 0.125 0.0
H255 H 0.79319 0.49353 0.15914 0.0
H256 H 0.80428 0.49852 0.10028 0.0
H257 H 0.75054 0.41587 0.86343 0.0
H258 H 0.76137 0.47257 0.77616 0.0
H259 H 0.77106 0.49353 0.84681 0.0
H260 H 0.79203 0.42117 0.92405 0.0
H261 H 0.77294 0.40243 0.94934 0.0
H262 H 0.78922 0.42014 0.9865 0.0
H263 H 0.72599 0.43994 0.95203 0.0
H264 H 0.73621 0.42652 0.00281 0.0
H265 H 0.73523 0.41234 0.94673 0.0
H266 H 0.76039 0.39489 0.11556 0.0
C267 C 0.76504 0.42241 0.06987 0.0
C268 C 0.04644 0.26848 0.34072 0.0
C269 C 0.06908 0.26892 0.33505 0.0
C270 C 0.0824 0.27309 0.3749 0.0
C271 C 0.05067 0.27505 0.42587 0.0
C272 C 0.03759 0.27194 0.3863 0.0
C273 C 0.01384 0.27296 0.39874 0.0
H274 H 0.93583 0.28837 0.56572 0.0
C275 C 0.0365 0.27725 0.46818 0.0
C276 C 0.0149 0.27648 0.45248 0.0
H277 H 0.92808 0.27601 0.41399 0.0
H278 H 0.96669 0.27384 0.40468 0.0
H279 H 0.96739 0.25065 0.5789 0.0
H280 H 0.98002 0.31888 0.56286 0.0
H281 H 0.9951 0.30862 0.61169 0.0
H282 H 0.96595 0.30676 0.61247 0.0
H283 H 0.96797 0.26846 0.62965 0.0
H284 H 0.99224 0.25515 0.60791 0.0
C285 C 0.00338 0.2508 0.38575 0.0
C286 C 0.00388 0.29276 0.37253 0.0
C287 C 0.06959 0.27595 0.63382 0.0
C288 C 0.06045 0.2745 0.67974 0.0
C289 C 0.03779 0.27653 0.6853 0.0
C290 C 0.02437 0.27948 0.64535 0.0
C291 C 0.0337 0.27995 0.5994 0.0
C292 C 0.05598 0.27837 0.59429 0.0
C293 C 0.06299 0.27785 0.54277 0.0
C294 C 0.04117 0.27872 0.51774 0.0
C295 C 0.02412 0.2802 0.55103 0.0
C296 C 0.07492 0.25604 0.53356 0.0
C297 C 0.07689 0.29836 0.5327 0.0
C298 C 0.94231 0.2851 0.53043 0.0
C299 C 0.92857 0.28287 0.49044 0.0
C300 C 0.93805 0.2786 0.44531 0.0
C301 C 0.96059 0.2771 0.43993 0.0
C302 C 0.97397 0.27947 0.48014 0.0
C303 C 0.96479 0.28302 0.52457 0.0
C304 C 0.98148 0.28318 0.56382 0.0
C305 C 0.00226 0.28049 0.53505 0.0
C306 C -0.00228 0.27842 0.4861 0.0
C307 C 0.9771 0.26348 0.59709 0.0
C308 C 0.98063 0.30548 0.58944 0.0
H309 H 0.0843 0.2789 0.44942 0.0
H310 H 0.0359 0.26563 0.31035 0.0
H311 H 0.01577 0.30636 0.37029 0.0
H312 H 0.98973 0.29976 0.39135 0.0
H313 H -0.0009 0.28841 0.33543 0.0
H314 H 0.01491 0.23722 0.39236 0.0
H315 H -0.00126 0.2502 0.34741 0.0
H316 H 0.989 0.24695 0.40789 0.0
H317 H 0.08694 0.27407 0.62852 0.0
H318 H 0.03047 0.27551 0.7205 0.0
H319 H 0.00723 0.28085 0.65165 0.0
H320 H 0.06622 0.24241 0.55134 0.0
H321 H 0.09172 0.25654 0.54795 0.0
H322 H 0.07576 0.25149 0.49547 0.0
H323 H 0.07245 0.31198 0.55712 0.0
H324 H 0.07423 0.3049 0.49636 0.0
H325 H 0.09447 0.29502 0.53768 0.0
H326 H 0.09992 0.27347 0.37102 0.0
C327 C 0.07332 0.27613 0.42031 0.0
C328 C 0.72524 0.94603 0.65412 0.0
C329 C 0.72621 0.92327 0.65646 0.0
C330 C 0.72364 0.91093 0.61434 0.0
C331 C 0.72088 0.9439 0.56796 0.0
C332 C 0.72232 0.95597 0.60959 0.0
C333 C 0.72078 0.97997 0.60032 0.0
H334 H 0.71835 0.06283 0.44263 0.0
C335 C 0.71949 0.95911 0.52747 0.0
C336 C 0.71906 0.98025 0.5461 0.0
H337 H 0.71518 0.06571 0.59715 0.0
H338 H 0.71582 0.02672 0.60103 0.0
H339 H 0.75364 0.0242 0.43627 0.0
H340 H 0.68355 0.02275 0.43163 0.0
H341 H 0.69362 0.00498 0.38743 0.0
H342 H 0.69961 0.03362 0.38363 0.0
H343 H 0.73858 0.03449 0.38629 0.0
H344 H 0.74564 0.00616 0.39075 0.0
C345 C 0.74208 0.99072 0.61802 0.0
C346 C 0.69985 0.98867 0.62483 0.0
C347 C 0.72514 0.9296 0.35885 0.0
C348 C 0.72606 0.93929 0.31347 0.0
C349 C 0.72418 0.9621 0.31013 0.0
C350 C 0.72165 0.97495 0.35143 0.0
C351 C 0.72111 0.96492 0.39658 0.0
C352 C 0.72264 0.94257 0.3995 0.0
C353 C 0.72201 0.93449 0.45004 0.0
C354 C 0.72001 0.9557 0.47731 0.0
C355 C 0.71957 0.97351 0.44601 0.0
C356 C 0.74385 0.92284 0.4602 0.0
C357 C 0.70155 0.92 0.45618 0.0
C358 C 0.71758 0.05503 0.47726 0.0
C359 C 0.71695 0.06741 0.51969 0.0
C360 C 0.71612 0.0566 0.56401 0.0
C361 C 0.71635 0.03392 0.5662 0.0
C362 C 0.71746 0.0218 0.52368 0.0
C363 C 0.71777 0.03231 0.4801 0.0
C364 C 0.71865 0.01659 0.43873 0.0
C365 C 0.71869 0.99497 0.46482 0.0
C366 C 0.71823 -0.00177 0.51456 0.0
C367 C 0.74013 0.02052 0.41111 0.0
C368 C 0.6979 0.01962 0.40832 0.0
H369 H 0.71959 0.91083 0.5393 0.0
H370 H 0.72686 0.95584 0.68614 0.0
H371 H 0.68752 0.97561 0.62952 0.0
H372 H 0.69151 0.00115 0.60314 0.0
H373 H 0.70341 0.99547 0.66081 0.0
H374 H 0.7564 0.98071 0.60763 0.0
H375 H 0.7421 0.99232 0.6576 0.0
H376 H 0.74505 0.00687 0.60232 0.0
H377 H 0.72697 0.9122 0.36304 0.0
H378 H 0.72465 0.96999 0.27559 0.0
H379 H 0.72039 0.9922 0.34666 0.0
H380 H 0.75764 0.93181 0.44363 0.0
H381 H 0.74385 0.9061 0.4452 0.0
H382 H 0.74788 0.92196 0.49853 0.0
H383 H 0.68844 0.92479 0.43099 0.0
H384 H 0.69409 0.92163 0.49206 0.0
H385 H 0.70536 0.90262 0.44929 0.0
H386 H 0.72445 0.89335 0.61539 0.0
C387 C 0.72098 0.92112 0.57015 0.0
C388 C 0.54987 0.22065 0.1561 0.0
C389 C 0.57263 0.22054 0.15918 0.0
C390 C 0.58511 0.2171 0.11757 0.0
C391 C 0.55233 0.21584 0.07005 0.0
C392 C 0.54008 0.21796 0.11129 0.0
C393 C 0.51608 0.21721 0.10134 0.0
H394 H 0.43437 0.21574 0.94017 0.0
C395 C 0.53732 0.21504 0.02905 0.0
C396 C 0.51605 0.21545 0.04713 0.0
H397 H 0.42981 0.21292 0.09442 0.0
H398 H 0.46886 0.21362 0.10043 0.0
H399 H 0.47028 0.25076 0.93586 0.0
H400 H 0.47508 0.18107 0.9301 0.0
H401 H 0.49178 0.192 0.88487 0.0
H402 H 0.463 0.1972 0.88383 0.0
H403 H 0.46526 0.23595 0.88168 0.0
H404 H 0.49221 0.24497 0.89779 0.0
C405 C 0.5059 0.23884 0.11882 0.0
C406 C 0.50653 0.19662 0.12545 0.0
C407 C 0.56736 0.22108 0.86065 0.0
C408 C 0.5575 0.22416 0.81595 0.0
C409 C 0.53468 0.22365 0.81261 0.0
C410 C 0.52185 0.22038 0.85349 0.0
C411 C 0.53197 0.21796 0.89823 0.0
C412 C 0.55437 0.21826 0.90118 0.0
C413 C 0.56234 0.2168 0.95183 0.0
C414 C 0.541 0.21563 0.97894 0.0
C415 C 0.52331 0.2162 0.94738 0.0
C416 C 0.5751 0.23792 0.96318 0.0
C417 C 0.57577 0.19563 0.95703 0.0
C418 C 0.4418 0.21498 0.9752 0.0
C419 C 0.429 0.21431 0.01687 0.0
C420 C 0.43931 0.21373 0.06182 0.0
C421 C 0.46199 0.21399 0.06524 0.0
C422 C 0.47455 0.21488 0.02331 0.0
C423 C 0.46444 0.2152 0.97925 0.0
C424 C 0.48042 0.21625 0.93858 0.0
C425 C 0.50178 0.2159 0.96555 0.0
C426 C 0.49821 0.21534 0.01512 0.0
C427 C 0.4769 0.23798 0.91166 0.0
C428 C 0.47746 0.19567 0.90729 0.0
H429 H 0.58545 0.21262 0.04249 0.0
H430 H 0.53997 0.22288 0.18782 0.0
H431 H 0.51911 0.18384 0.13032 0.0
H432 H 0.49385 0.18872 0.1034 0.0
H433 H 0.4997 0.20044 0.16131 0.0
H434 H 0.51627 0.25286 0.10821 0.0
H435 H 0.50434 0.23909 0.1584 0.0
H436 H 0.4898 0.24208 0.10316 0.0
H437 H 0.58487 0.22185 0.86438 0.0
H438 H 0.52679 0.22598 0.77841 0.0
H439 H 0.50455 0.22027 0.8488 0.0
H440 H 0.56676 0.2523 0.94765 0.0
H441 H 0.59176 0.23726 0.94785 0.0
H442 H 0.57634 0.24148 0.0017 0.0
H443 H 0.56991 0.1828 0.93207 0.0
H444 H 0.57421 0.18832 0.99297 0.0
H445 H 0.59322 0.1985 0.94905 0.0
H446 H 0.6027 0.21696 0.11934 0.0
C447 C 0.57508 0.21475 0.07301 0.0
C448 C 0.26009 0.04519 0.33922 0.0
C449 C 0.2581 0.0678 0.33496 0.0
C450 C 0.25973 0.08106 0.37582 0.0
C451 C 0.2647 0.04924 0.42503 0.0
C452 C 0.2637 0.0363 0.38458 0.0
C453 C 0.26714 0.01267 0.39588 0.0
H454 H 0.28888 0.93517 0.55955 0.0
C455 C 0.26828 0.03503 0.46657 0.0
C456 C 0.27006 0.01363 0.4498 0.0
H457 H 0.27658 0.92738 0.40783 0.0
H458 H 0.27199 0.96579 0.39996 0.0
H459 H 0.31631 0.98148 0.55642 0.0
H460 H 0.24877 0.96496 0.57425 0.0
H461 H 0.25328 0.98833 0.6088 0.0
H462 H 0.26753 0.96355 0.6231 0.0
H463 H 0.30571 0.96707 0.60717 0.0
H464 H 0.3055 0.9963 0.60517 0.0
C465 C 0.28812 0.00514 0.36995 0.0
C466 C 0.24636 1e-05 0.38148 0.0
C467 C 0.26568 0.06719 0.63317 0.0
C468 C 0.26722 0.05823 0.67917 0.0
C469 C 0.2718 0.03589 0.68389 0.0
C470 C 0.2746 0.0227 0.64325 0.0
C471 C 0.27255 0.03191 0.59749 0.0
C472 C 0.26834 0.05386 0.59317 0.0
C473 C 0.26639 0.06096 0.54207 0.0
C474 C 0.26946 0.0395 0.51625 0.0
C475 C 0.27317 0.02257 0.54874 0.0
C476 C 0.28506 0.07719 0.5312 0.0
C477 C 0.24323 0.07028 0.53474 0.0
C478 C 0.28515 0.9416 0.52455 0.0
C479 C 0.28351 0.92792 0.48419 0.0
C480 C 0.27869 0.93734 0.43944 0.0
C481 C 0.27573 0.95975 0.43491 0.0
C482 C 0.27721 0.97305 0.47558 0.0
C483 C 0.28159 0.96393 0.51956 0.0
C484 C 0.28061 0.98038 0.55945 0.0
C485 C 0.27576 0.00097 0.53173 0.0
C486 C 0.27398 0.99655 0.4826 0.0
C487 C 0.30314 0.98139 0.58375 0.0
C488 C 0.26172 0.97405 0.59354 0.0
H489 H 0.26381 0.08283 0.45075 0.0
H490 H 0.2591 0.03478 0.308 0.0
H491 H 0.2316 0.0103 0.38562 0.0
H492 H 0.24325 0.98578 0.40455 0.0
H493 H 0.24714 0.99461 0.34359 0.0
H494 H 0.30075 0.01808 0.37108 0.0
H495 H 0.28486 0.00135 0.33178 0.0
H496 H 0.29581 0.99091 0.38681 0.0
H497 H 0.26183 0.08422 0.62821 0.0
H498 H 0.27324 0.02865 0.719 0.0
H499 H 0.27807 0.00582 0.64899 0.0
H500 H 0.29921 0.07459 0.55521 0.0
H501 H 0.27964 0.09427 0.53606 0.0
H502 H 0.29176 0.07515 0.49469 0.0
H503 H 0.23095 0.06013 0.55359 0.0
H504 H 0.23807 0.07041 0.49702 0.0
H505 H 0.242 0.08707 0.54917 0.0
H506 H 0.25821 0.09855 0.37283 0.0
C507 C 0.26295 0.0719 0.42089 0.0
C508 C 0.55606 0.77806 0.02209 0.0
C509 C 0.56825 0.77977 0.97961 0.0
C510 C 0.55727 0.78057 0.93549 0.0
C511 C 0.52271 0.77678 0.97618 0.0
C512 C 0.5334 0.77658 0.01954 0.0
C513 C 0.51802 0.77393 0.06108 0.0
H514 H 0.41616 0.75131 0.13824 0.0
C515 C 0.4993 0.77404 0.98564 0.0
C516 C 0.49636 0.77254 0.03537 0.0
H517 H 0.47345 0.7609 0.22443 0.0
H518 H 0.49432 0.77012 0.15342 0.0
H519 H 0.42219 0.79269 0.0775 0.0
H520 H 0.43921 0.72622 0.04891 0.0
H521 H 0.42562 0.73684 -0.0013 0.0
H522 H 0.41191 0.73617 0.05531 0.0
H523 H 0.40296 0.77418 0.05185 0.0
H524 H 0.42116 0.79005 0.015 0.0
C525 C 0.51955 0.79446 0.09307 0.0
C526 C 0.5238 0.75247 0.08688 0.0
C527 C 0.44696 0.76527 0.84651 0.0
C528 C 0.42431 0.76289 0.84462 0.0
C529 C 0.41209 0.76348 0.8872 0.0
C530 C 0.42237 0.76565 0.93146 0.0
C531 C 0.4451 0.76732 0.93315 0.0
C532 C 0.45697 0.76781 0.89114 0.0
C533 C 0.48082 0.77119 0.90009 0.0
C534 C 0.48128 0.77201 0.95442 0.0
C535 C 0.46038 0.76924 0.97343 0.0
C536 C 0.48762 0.79316 0.87748 0.0
C537 C 0.49314 0.75116 0.88011 0.0
C538 C 0.43325 0.75529 0.1416 0.0
C539 C 0.44342 0.75498 0.18637 0.0
C540 C 0.46546 0.76086 0.18996 0.0
C541 C 0.47748 0.7661 0.14877 0.0
C542 C 0.46724 0.76556 0.10379 0.0
C543 C 0.44533 0.76076 0.10106 0.0
C544 C 0.43677 0.76192 0.05093 0.0
C545 C 0.45735 0.76735 0.02353 0.0
C546 C 0.4752 0.76924 0.05448 0.0
C547 C 0.41979 0.78053 0.04844 0.0
C548 C 0.42776 0.73919 0.03746 0.0
H549 H 0.52725 0.77954 0.89887 0.0
H550 H 0.56399 0.77774 0.05663 0.0
H551 H 0.52755 0.73944 0.06046 0.0
H552 H 0.51039 0.746 0.10877 0.0
H553 H 0.5383 0.75461 0.11002 0.0
H554 H 0.52253 0.80922 0.07113 0.0
H555 H 0.53307 0.79307 0.11912 0.0
H556 H 0.50428 0.79787 0.11258 0.0
H557 H 0.45661 0.76518 0.81405 0.0
H558 H 0.39458 0.76165 0.88624 0.0
H559 H 0.41223 0.76556 0.96267 0.0
H560 H 0.4737 0.80467 0.87583 0.0
H561 H 0.49377 0.79088 0.84043 0.0
H562 H 0.50004 0.80181 0.89885 0.0
H563 H 0.48426 0.73591 0.88875 0.0
H564 H 0.50945 0.74909 0.89569 0.0
H565 H 0.49475 0.75209 0.84059 0.0
H566 H 0.56625 0.78167 0.90223 0.0
C567 C 0.5346 0.77915 0.93357 0.0
H568 H 0.12707 0.21166 0.07632 0.0
H569 H 0.1754 0.24825 0.15472 0.0
H570 H 0.09885 0.2257 0.13013 0.0
H571 H 0.14775 0.26149 0.20839 0.0
H572 H 0.09611 0.29504 0.28461 0.0
H573 H 0.11765 0.28516 0.21449 0.0
H574 H 0.0873 0.22175 0.21264 0.0
H575 H 0.06501 0.23225 0.28147 0.0
C576 C 0.13168 0.22267 0.10484 0.0
C577 C 0.15352 0.2288 0.11111 0.0
C578 C 0.11554 0.23068 0.13568 0.0
C579 C 0.12099 0.24492 0.17329 0.0
C580 C 0.1428 0.25105 0.17912 0.0
C581 C 0.15878 0.24322 0.14843 0.0
C582 C 0.09376 0.27921 0.26834 0.0
C583 C 0.07918 0.26429 0.28835 0.0
C584 C 0.10614 0.27346 0.22848 0.0
C585 C 0.10457 0.25247 0.20863 0.0
C586 C 0.08886 0.23806 0.22685 0.0
C587 C 0.07617 0.244 0.26632 0.0
H588 H 0.27738 0.6268 0.57467 0.0
H589 H 0.24684 0.67703 0.65988 0.0
H590 H 0.26055 0.59912 0.62544 0.0
H591 H 0.23082 0.64978 0.71076 0.0
H592 H 0.19218 0.60039 0.78206 0.0
H593 H 0.20396 0.62241 0.71436 0.0
H594 H 0.26339 0.58508 0.70546 0.0
H595 H 0.25092 0.56246 0.77169 0.0
C596 C 0.26715 0.63194 0.60418 0.0
C597 C 0.26345 0.65413 0.61314 0.0
C598 C 0.25752 0.6161 0.63325 0.0
C599 C 0.24411 0.6222 0.67186 0.0
C600 C 0.24051 0.6444 0.68059 0.0
C601 C 0.24994 0.66011 0.65156 0.0
C602 C 0.20746 0.59661 0.76462 0.0
C603 C 0.22076 0.57995 0.782 0.0
C604 C 0.21433 0.60928 0.7262 0.0
C605 C 0.23488 0.60586 0.70524 0.0
C606 C 0.24745 0.58813 0.72056 0.0
C607 C 0.24037 0.57519 0.75853 0.0
H608 H 0.81621 0.76549 0.17761 0.0
H609 H 0.86716 0.78285 0.078 0.0
H610 H 0.84297 0.75097 0.23196 0.0
H611 H 0.89424 0.76774 0.13284 0.0
H612 H 0.93326 0.76151 0.2785 0.0
H613 H 0.91038 0.77411 0.21266 0.0
H614 H 0.8669 0.71997 0.23618 0.0
H615 H 0.8894 0.70791 0.30267 0.0
C616 C 0.83316 0.76614 0.16715 0.0
C617 C 0.83952 0.7752 0.12324 0.0
C618 C 0.84852 0.75761 0.19823 0.0
C619 C 0.87068 0.75776 0.18624 0.0
C620 C 0.87724 0.76735 0.14294 0.0
C621 C 0.86176 0.77602 0.11165 0.0
C622 C 0.91906 0.75209 0.26868 0.0
C623 C 0.91283 0.73395 0.29581 0.0
C624 C 0.90599 0.75927 0.23105 0.0
C625 C 0.88661 0.74829 0.21996 0.0
C626 C 0.88143 0.72911 0.24477 0.0
C627 C 0.89433 0.72211 0.28256 0.0
H628 H 0.68972 0.36317 0.59853 0.0
H629 H 0.75265 0.33485 0.62685 0.0
H630 H 0.69929 0.39456 0.64814 0.0
H631 H 0.76215 0.36626 0.67594 0.0
H632 H 0.77813 0.43366 0.73408 0.0
H633 H 0.76827 0.40778 0.6706 0.0
H634 H 0.70612 0.39727 0.73875 0.0
H635 H 0.7161 0.42281 0.80212 0.0
C636 C 0.70566 0.36375 0.61484 0.0
C637 C 0.72034 0.34643 0.60917 0.0
C638 C 0.7111 0.38169 0.64322 0.0
C639 C 0.73146 0.38282 0.66572 0.0
C640 C 0.74644 0.36591 0.65859 0.0
C641 C 0.74089 0.34783 0.63087 0.0
C642 C 0.76222 0.42611 0.7347 0.0
C643 C 0.74785 0.43008 0.77274 0.0
C644 C 0.75664 0.41127 0.69872 0.0
C645 C 0.73646 0.40053 0.69992 0.0
C646 C 0.72168 0.40546 0.73671 0.0
C647 C 0.7274 0.41996 0.77299 0.0
H648 H 0.62898 0.27817 0.41829 0.0
H649 H 0.67999 0.24622 0.33812 0.0
H650 H 0.60199 0.26297 0.36354 0.0
H651 H 0.65344 0.2319 0.28297 0.0
H652 H 0.6033 0.19622 0.20386 0.0
H653 H 0.6253 0.2067 0.27263 0.0
H654 H 0.58963 0.26709 0.28349 0.0
H655 H 0.56699 0.2559 0.2162 0.0
C656 C 0.63444 0.26796 0.38903 0.0
C657 C 0.65665 0.26342 0.38263 0.0
C658 C 0.61899 0.25929 0.35758 0.0
C659 C 0.62548 0.24606 0.31892 0.0
C660 C 0.6477 0.24151 0.31293 0.0
C661 C 0.66302 0.24993 0.34446 0.0
C662 C 0.59997 0.21151 0.22173 0.0
C663 C 0.58365 0.22535 0.2048 0.0
C664 C 0.61263 0.21763 0.26083 0.0
C665 C 0.60956 0.23797 0.28307 0.0
C666 C 0.59237 0.25126 0.26758 0.0
C667 C 0.57944 0.24492 0.22895 0.0
H668 H 0.19597 0.13442 0.88417 0.0
H669 H 0.25964 0.16394 0.88564 0.0
H670 H 0.20988 0.10513 0.83336 0.0
H671 H 0.27378 0.13434 0.83713 0.0
H672 H 0.28194 0.09939 0.69421 0.0
H673 H 0.27089 0.12458 0.75634 0.0
H674 H 0.2329 0.07396 0.82351 0.0
H675 H 0.24312 0.04894 0.75919 0.0
C676 C 0.213 0.13441 0.87432 0.0
C677 C 0.22662 0.15165 0.88796 0.0
C678 C 0.22104 0.11757 0.84552 0.0
C679 C 0.24291 0.11752 0.83055 0.0
C680 C 0.25673 0.13415 0.8468 0.0
C681 C 0.24864 0.15111 0.87472 0.0
C682 C 0.27128 0.09359 0.72231 0.0
C683 C 0.26318 0.07227 0.72145 0.0
C684 C 0.26513 0.10798 0.75839 0.0
C685 C 0.25091 0.10136 0.79501 0.0
C686 C 0.24362 0.07968 0.79548 0.0
C687 C 0.2497 0.06526 0.75902 0.0
H688 H 0.36516 0.69012 0.40512 0.0
H689 H 0.3361 0.75258 0.37559 0.0
H690 H 0.39641 0.69984 0.3552 0.0
H691 H 0.36739 0.76226 0.32631 0.0
H692 H 0.43459 0.77846 0.26702 0.0
H693 H 0.40911 0.76865 0.33128 0.0
H694 H 0.39829 0.70639 0.26375 0.0
H695 H 0.42339 0.71634 0.19954 0.0
C696 C 0.36559 0.70601 0.38857 0.0
C697 C 0.34808 0.7205 0.39385 0.0
C698 C 0.38343 0.71153 0.36001 0.0
C699 C 0.38428 0.73179 0.33704 0.0
C700 C 0.36723 0.74662 0.34401 0.0
C701 C 0.34924 0.74098 0.37184 0.0
C702 C 0.42705 0.76255 0.26667 0.0
C703 C 0.43079 0.74813 0.2286 0.0
C704 C 0.41245 0.75699 0.30312 0.0
C705 C 0.40177 0.73677 0.30235 0.0
C706 C 0.40646 0.72197 0.26546 0.0
C707 C 0.4207 0.72767 0.2287 0.0
H708 H 0.78151 0.86697 0.9183 0.0
H709 H 0.76178 0.81558 0.82185 0.0
H710 H 0.76596 0.89385 0.86376 0.0
H711 H 0.74682 0.84217 0.76773 0.0
H712 H 0.70456 0.88938 0.69656 0.0
H713 H 0.71658 0.86694 0.76319 0.0
H714 H 0.77202 0.9091 0.78347 0.0
H715 H 0.75955 0.93189 0.71751 0.0
C716 C 0.77401 0.86142 0.88546 0.0
C717 C 0.7728 0.83911 0.8746 0.0
C718 C 0.7651 0.8768 0.85431 0.0
C719 C 0.75483 0.8701 0.81186 0.0
C720 C 0.75405 0.84785 0.80078 0.0
C721 C 0.76284 0.83258 0.83173 0.0
C722 C 0.71908 0.89403 0.71593 0.0
C723 C 0.73129 0.91214 0.70174 0.0
C724 C 0.72603 0.88117 0.75385 0.0
C725 C 0.74551 0.886 0.77787 0.0
C726 C 0.75693 0.90499 0.76576 0.0
C727 C 0.74982 0.91802 0.72803 0.0
H728 H 0.86508 0.80109 0.90083 0.0
H729 H 0.83521 0.73852 0.87546 0.0
H730 H 0.89578 0.79052 0.85031 0.0
H731 H 0.86598 0.72802 0.82524 0.0
H732 H 0.93298 0.71104 0.76357 0.0
H733 H 0.9075 0.7212 0.82775 0.0
H734 H 0.89723 0.78335 0.76008 0.0
H735 H 0.92233 0.77306 0.6961 0.0
C736 C 0.86518 0.785 0.88502 0.0
C737 C 0.84759 0.77072 0.89177 0.0
C738 C 0.88273 0.77899 0.85607 0.0
C739 C 0.88322 0.75848 0.83392 0.0
C740 C 0.86611 0.74386 0.84227 0.0
C741 C 0.8484 0.74996 0.87065 0.0
C742 C 0.92553 0.72699 0.76317 0.0
C743 C 0.92948 0.74131 0.7252 0.0
C744 C 0.91092 0.73274 0.79954 0.0
C745 C 0.90043 0.75305 0.79877 0.0
C746 C 0.90525 0.7677 0.76183 0.0
C747 C 0.91951 0.76181 0.7252 0.0
H748 H 0.73579 0.31626 0.32672 0.0
H749 H 0.71189 0.36657 0.42141 0.0
H750 H 0.74884 0.3435 0.27179 0.0
H751 H 0.7257 0.39425 0.3662 0.0
H752 H 0.72991 0.43212 0.21945 0.0
H753 H 0.71922 0.40905 0.28672 0.0
H754 H 0.77678 0.36994 0.26453 0.0
H755 H 0.7867 0.39242 0.1962 0.0
C756 C 0.7335 0.33321 0.3361 0.0
C757 C 0.72289 0.33924 0.37865 0.0
C758 C 0.74119 0.34888 0.30468 0.0
C759 C 0.73873 0.37109 0.31501 0.0
C760 C 0.72785 0.37725 0.35725 0.0
C761 C 0.71994 0.36143 0.38881 0.0
C762 C 0.74041 0.41883 0.22985 0.0
C763 C 0.75893 0.41375 0.20269 0.0
C764 C 0.73436 0.40567 0.26834 0.0
C765 C 0.74691 0.38739 0.28033 0.0
C766 C 0.76642 0.38352 0.25534 0.0
C767 C 0.77223 0.39643 0.21653 0.0
H768 H 0.12861 0.21822 0.92541 0.0
H769 H 0.17683 0.23691 0.82065 0.0
H770 H 0.10019 0.23406 0.87572 0.0
H771 H 0.14853 0.25198 0.77053 0.0
H772 H 0.09811 0.29426 0.70644 0.0
H773 H 0.12416 0.28168 0.76582 0.0
H774 H 0.08109 0.22866 0.80224 0.0
H775 H 0.05478 0.24185 0.74397 0.0
C776 C 0.13312 0.2255 0.89159 0.0
C777 C 0.15499 0.22634 0.87705 0.0
C778 C 0.11683 0.23457 0.8631 0.0
C779 C 0.12206 0.24451 0.81932 0.0
C780 C 0.14392 0.24499 0.80458 0.0
C781 C 0.16017 0.23614 0.83317 0.0
C782 C 0.09413 0.28015 0.72783 0.0
C783 C 0.07454 0.26896 0.72064 0.0
C784 C 0.10908 0.27281 0.76153 0.0
C785 C 0.10492 0.2539 0.78821 0.0
C786 C 0.08479 0.24335 0.78261 0.0
C787 C 0.0697 0.25088 0.74926 0.0
H788 H 0.28142 0.6261 0.42639 0.0
H789 H 0.26308 0.67461 0.32239 0.0
H790 H 0.27058 0.59737 0.37022 0.0
H791 H 0.25247 0.64607 0.267 0.0
H792 H 0.2629 0.59133 0.16126 0.0
H793 H 0.27461 0.61685 0.22254 0.0
H794 H 0.23446 0.58414 0.32662 0.0
H795 H 0.22217 0.55863 0.26463 0.0
C796 C 0.27511 0.63063 0.39171 0.0
C797 C 0.27322 0.65265 0.37878 0.0
C798 C 0.26881 0.61421 0.3598 0.0
C799 C 0.26088 0.61958 0.31431 0.0
C800 C 0.25879 0.64152 0.3017 0.0
C801 C 0.26478 0.65786 0.33359 0.0
C802 C 0.25642 0.5896 0.19711 0.0
C803 C 0.24121 0.57326 0.20786 0.0
C804 C 0.26324 0.60414 0.23219 0.0
C805 C 0.2552 0.60259 0.27901 0.0
C806 C 0.24088 0.58561 0.29068 0.0
C807 C 0.23388 0.57106 0.25528 0.0
H808 H 0.36565 0.71048 0.58222 0.0
H809 H 0.31532 0.73715 0.67313 0.0
H810 H 0.39327 0.72435 0.63738 0.0
H811 H 0.34252 0.75021 0.72833 0.0
H812 H 0.3924 0.78701 0.80457 0.0
H813 H 0.36968 0.77706 0.73658 0.0
H814 H 0.40755 0.71852 0.7165 0.0
H815 H 0.43089 0.72924 0.78324 0.0
C816 C 0.36049 0.71916 0.61404 0.0
C817 C 0.33831 0.72282 0.62316 0.0
C818 C 0.37628 0.72709 0.6456 0.0
C819 C 0.37014 0.73869 0.68693 0.0
C820 C 0.34793 0.74196 0.69617 0.0
C821 C 0.33226 0.73426 0.66463 0.0
C822 C 0.39608 0.7723 0.78477 0.0
C823 C 0.41316 0.75878 0.79898 0.0
C824 C 0.38301 0.76647 0.74617 0.0
C825 C 0.38647 0.74671 0.7218 0.0
C826 C 0.40448 0.73386 0.73431 0.0
C827 C 0.4178 0.73993 0.77252 0.0
H828 H 0.79717 0.86255 0.10989 0.0
H829 H 0.73323 0.83377 0.10457 0.0
H830 H 0.78324 0.89165 0.16065 0.0
H831 H 0.71892 0.86345 0.15288 0.0
H832 H 0.70883 0.89931 0.29421 0.0
H833 H 0.71969 0.87403 0.23226 0.0
H834 H 0.76188 0.92292 0.17116 0.0
H835 H 0.75213 0.94778 0.23583 0.0
C836 C 0.78003 0.86271 0.11883 0.0
C837 C 0.76636 0.84574 0.10394 0.0
C838 C 0.77196 0.8795 0.14765 0.0
C839 C 0.74993 0.87988 0.16145 0.0
C840 C 0.73608 0.86344 0.1442 0.0
C841 C 0.74424 0.84645 0.11628 0.0
C842 C 0.72046 0.9047 0.26762 0.0
C843 C 0.72992 0.92545 0.2706 0.0
C844 C 0.72647 0.89026 0.23146 0.0
C845 C 0.74185 0.89627 0.19662 0.0
C846 C 0.75034 0.91753 0.19788 0.0
C847 C 0.74449 0.93193 0.23458 0.0
H848 H 0.626 0.27919 0.5679 0.0
H849 H 0.67341 0.2591 0.67278 0.0
H850 H 0.59702 0.26396 0.61757 0.0
H851 H 0.64465 0.24449 0.72234 0.0
H852 H 0.59355 0.2028 0.78476 0.0
H853 H 0.61937 0.21482 0.72407 0.0
H854 H 0.57855 0.27022 0.6937 0.0
H855 H 0.55246 0.25778 0.75369 0.0
C856 C 0.63024 0.27167 0.60158 0.0
C857 C 0.65205 0.2703 0.61623 0.0
C858 C 0.61364 0.26296 0.63001 0.0
C859 C 0.61855 0.25276 0.67361 0.0
C860 C 0.64033 0.25172 0.6884 0.0
C861 C 0.65684 0.2603 0.66007 0.0
C862 C 0.58998 0.21734 0.76449 0.0
C863 C 0.57116 0.22947 0.77407 0.0
C864 C 0.60478 0.22431 0.72998 0.0
C865 C 0.60121 0.24371 0.70472 0.0
C866 C 0.58173 0.25516 0.71235 0.0
C867 C 0.5668 0.24805 0.74667 0.0
H868 H 0.20473 0.12936 0.07835 0.0
H869 H 0.24339 0.17563 0.15809 0.0
H870 H 0.21698 0.10039 0.13162 0.0
H871 H 0.25499 0.14711 0.21128 0.0
H872 H 0.28585 0.0929 0.28453 0.0
H873 H 0.27716 0.11541 0.21539 0.0
H874 H 0.21191 0.08926 0.2145 0.0
H875 H 0.22115 0.06605 0.28246 0.0
C876 C 0.2158 0.13337 0.1071 0.0
C877 C 0.22303 0.15485 0.11393 0.0
C878 C 0.22279 0.11678 0.13761 0.0
C879 C 0.23713 0.12139 0.17539 0.0
C880 C 0.24438 0.14284 0.18186 0.0
C881 C 0.2375 0.1593 0.15152 0.0
C882 C 0.26988 0.09162 0.26851 0.0
C883 C 0.25409 0.07798 0.28842 0.0
C884 C 0.26481 0.10457 0.22931 0.0
C885 C 0.24369 0.10445 0.21009 0.0
C886 C 0.22834 0.08966 0.22826 0.0
C887 C 0.23355 0.07644 0.26714 0.0
H888 H 0.21454 0.29146 0.9141 0.0
H889 H 0.22045 0.29344 0.06822 0.0
H890 H 0.21119 0.33089 0.91275 0.0
H891 H 0.21677 0.3328 0.06665 0.0
H892 H 0.23594 0.40392 0.03513 0.0
H893 H 0.23802 0.36442 0.03896 0.0
H894 H 0.1852 0.35938 0.93804 0.0
H895 H 0.18299 0.39893 0.93442 0.0
C896 C 0.2151 0.30026 0.94768 0.0
C897 C 0.21784 0.28926 0.99125 0.0
C898 C 0.21302 0.32283 0.9469 0.0
C899 C 0.21369 0.33489 0.98961 0.0
C900 C 0.21642 0.32393 0.03314 0.0
C901 C 0.21844 0.30136 0.03399 0.0
C902 C 0.22455 0.39439 0.01432 0.0
C903 C 0.20933 0.40452 0.98439 0.0
C904 C 0.22578 0.37178 0.01646 0.0
C905 C 0.21183 0.35885 0.98864 0.0
C906 C 0.19638 0.36896 0.95928 0.0
C907 C 0.19512 0.39158 0.95723 0.0
H908 H 0.2026 0.71941 0.5615 0.0
H909 H 0.20603 0.7175 0.40697 0.0
H910 H 0.16334 0.71717 0.55777 0.0
H911 H 0.16637 0.71561 0.40347 0.0
H912 H 0.09358 0.73851 0.53211 0.0
H913 H 0.13309 0.7402 0.53331 0.0
H914 H 0.13612 0.69053 0.42398 0.0
H915 H 0.09646 0.68877 0.42285 0.0
C916 C 0.19502 0.71861 0.52662 0.0
C917 C 0.20755 0.71872 0.48447 0.0
C918 C 0.17244 0.71744 0.52457 0.0
C919 C 0.16176 0.71635 0.48036 0.0
C920 C 0.1742 0.71628 0.4381 0.0
C921 C 0.19689 0.71749 0.44012 0.0
C922 C 0.10266 0.72775 0.50875 0.0
C923 C 0.0919 0.71342 0.47759 0.0
C924 C 0.12529 0.72876 0.50933 0.0
C925 C 0.1377 0.71547 0.47877 0.0
C926 C 0.12698 0.70117 0.44747 0.0
C927 C 0.10429 0.70014 0.44692 0.0
H928 H 0.78362 0.70608 0.08576 0.0
H929 H 0.77996 0.70193 0.93152 0.0
H930 H 0.78644 0.66663 0.09005 0.0
H931 H 0.78229 0.6626 0.93606 0.0
H932 H 0.80661 0.59353 0.95837 0.0
H933 H 0.80703 0.63321 0.95581 0.0
H934 H 0.76307 0.63537 0.07647 0.0
H935 H 0.76275 0.59585 0.07913 0.0
C936 C 0.78338 0.6968 0.05279 0.0
C937 C 0.78146 0.70722 0.00832 0.0
C938 C 0.78491 0.67418 0.05528 0.0
C939 C 0.78454 0.66149 0.01339 0.0
C940 C 0.78292 0.67192 0.96895 0.0
C941 C 0.78142 0.6945 0.96643 0.0
C942 C 0.79702 0.60253 0.98422 0.0
C943 C 0.78469 0.5916 0.019 0.0
C944 C 0.79725 0.62522 0.98279 0.0
C945 C 0.7851 0.63743 0.016 0.0
C946 C 0.77291 0.62646 0.05094 0.0
C947 C 0.77271 0.60381 0.05242 0.0
H948 H 0.79349 0.25491 0.55624 0.0
H949 H 0.78955 0.30913 0.45938 0.0
H950 H 0.83294 0.25671 0.55376 0.0
H951 H 0.82897 0.31249 0.45994 0.0
H952 H 0.89896 0.29812 0.42518 0.0
H953 H 0.85987 0.29756 0.43061 0.0
H954 H 0.86424 0.27345 0.57553 0.0
H955 H 0.90326 0.27123 0.56767 0.0
C956 C 0.80121 0.26753 0.53525 0.0
C957 C 0.7887 0.28178 0.50775 0.0
C958 C 0.82384 0.26875 0.53407 0.0
C959 C 0.83442 0.28475 0.50652 0.0
C960 C 0.82162 0.29955 0.48049 0.0
C961 C 0.79901 0.29781 0.48044 0.0
C962 C 0.89166 0.29221 0.4579 0.0
C963 C 0.90451 0.2844 0.49565 0.0
C964 C 0.86906 0.29238 0.46148 0.0
C965 C 0.85861 0.28543 0.50356 0.0
C966 C 0.87151 0.27846 0.54205 0.0
C967 C 0.8941 0.27763 0.5379 0.0
H968 H 0.72327 0.20285 0.43566 0.0
H969 H 0.71768 0.20511 0.58986 0.0
H970 H 0.72197 0.16338 0.43797 0.0
H971 H 0.71608 0.16552 0.59185 0.0
H972 H 0.73986 0.09489 0.57752 0.0
H973 H 0.74048 0.13445 0.57594 0.0
H974 H 0.69604 0.13401 0.45658 0.0
H975 H 0.69527 0.09435 0.45835 0.0
C976 C 0.72173 0.19497 0.47009 0.0
C977 C 0.72065 0.2072 0.51263 0.0
C978 C 0.72083 0.17233 0.4713 0.0
C979 C 0.71889 0.16138 0.51506 0.0
C980 C 0.71781 0.17354 0.55762 0.0
C981 C 0.71863 0.19622 0.55643 0.0
C982 C 0.73004 0.10323 0.55125 0.0
C983 C 0.71746 0.09149 0.51814 0.0
C984 C 0.7304 0.12589 0.55037 0.0
C985 C 0.71827 0.13732 0.51624 0.0
C986 C 0.70576 0.12561 0.48296 0.0
C987 C 0.70534 0.10292 0.48392 0.0
H988 H 0.29107 0.21562 0.07768 0.0
H989 H 0.29438 0.21861 0.92326 0.0
H990 H 0.33046 0.21383 0.08138 0.0
H991 H 0.33394 0.21719 0.92728 0.0
H992 H 0.40328 0.19168 0.95452 0.0
H993 H 0.36368 0.19227 0.94919 0.0
H994 H 0.36108 0.2382 0.06624 0.0
H995 H 0.40057 0.23764 0.07154 0.0
C996 C 0.30017 0.21595 0.04448 0.0
C997 C 0.28952 0.21738 0.00014 0.0
C998 C 0.32277 0.21503 0.04668 0.0
C999 C 0.33528 0.21552 0.00466 0.0
C1000 C 0.3247 0.21661 0.96025 0.0
C1001 C 0.30204 0.21754 0.958 0.0
C1002 C 0.39422 0.20201 0.97887 0.0
C1003 C 0.405 0.21455 0.01358 0.0
C1004 C 0.37158 0.20235 0.97579 0.0
C1005 C 0.3593 0.21522 0.0074 0.0
C1006 C 0.3701 0.22783 0.04194 0.0
C1007 C 0.3927 0.22749 0.045 0.0
H1008 H 0.30883 0.78858 0.44785 0.0
H1009 H 0.25455 0.79328 0.5451 0.0
H1010 H 0.31281 0.82798 0.44911 0.0
H1011 H 0.257 0.83266 0.5434 0.0
H1012 H 0.27259 0.90219 0.56099 0.0
H1013 H 0.27467 0.86315 0.56706 0.0
H1014 H 0.29872 0.85962 0.42166 0.0
H1015 H 0.29942 0.89879 0.41796 0.0
C1016 C 0.2976 0.7982 0.46901 0.0
C1017 C 0.28141 0.7881 0.49638 0.0
C1018 C 0.29971 0.82079 0.46955 0.0
C1019 C 0.28519 0.83377 0.49623 0.0
C1020 C 0.2689 0.8234 0.52338 0.0
C1021 C 0.26728 0.80081 0.52404 0.0
C1022 C 0.279 0.89323 0.53075 0.0
C1023 C 0.28568 0.9039 0.48878 0.0
C1024 C 0.27972 0.87062 0.53386 0.0
C1025 C 0.28646 0.85795 0.49457 0.0
C1026 C 0.29361 0.86864 0.453 0.0
C1027 C 0.29355 0.89127 0.45045 0.0
H1028 H 0.70333 0.77561 0.06424 0.0
H1029 H 0.7063 0.77782 0.90973 0.0
H1030 H 0.664 0.77736 0.06104 0.0
H1031 H 0.66664 0.77922 0.90675 0.0
H1032 H 0.59638 0.80468 0.92696 0.0
H1033 H 0.63607 0.80379 0.92812 0.0
H1034 H 0.63407 0.75381 0.0362 0.0
H1035 H 0.59454 0.75461 0.03493 0.0
C1036 C 0.69563 0.77638 0.0295 0.0
C1037 C 0.70805 0.77647 0.98718 0.0
C1038 C 0.67303 0.77728 0.02774 0.0
C1039 C 0.66223 0.7783 0.98367 0.0
C1040 C 0.67455 0.77861 0.94127 0.0
C1041 C 0.69726 0.77767 0.94299 0.0
C1042 C 0.60445 0.79343 0.95076 0.0
C1043 C 0.59233 0.77979 0.98103 0.0
C1044 C 0.62715 0.7929 0.95135 0.0
C1045 C 0.63816 0.77876 0.9823 0.0
C1046 C 0.62604 0.76513 0.01251 0.0
C1047 C 0.60339 0.76564 0.01188 0.0
loop_
_geom_bond_atom_site_label_1
_geom_bond_atom_site_label_2
_geom_bond_distance
_geom_bond_site_symmetry_2
_ccdc_geom_bond_type
Sc0 O3 2.025 . S
Sc0 O10 2.105 . S
Sc0 O13 2.105 . S
Sc0 O16 2.105 . S
Sc0 O19 2.105 . S
Sc1 O3 2.025 . S
Sc1 O11 2.105 . S
Sc1 O15 2.105 1_554 S
Sc1 O17 2.105 . S
Sc1 O21 2.105 1_554 S
Sc2 O3 2.025 1_556 S
Sc2 O12 2.105 . S
Sc2 O14 2.105 . S
Sc2 O18 2.105 . S
Sc2 O20 2.105 . S
O3 Sc0 2.025 . S
O3 Sc1 2.025 . S
O3 Sc2 2.025 1_554 S
C4 O10 1.268 . S
C4 O20 1.268 1_554 S
C5 O11 1.268 . S
C5 O19 1.268 . S
C6 O12 1.268 . S
C6 O21 1.268 . S
C7 O13 1.268 . S
C7 O17 1.268 . S
C8 O14 1.268 1_554 S
C8 O16 1.268 . S
C9 O15 1.268 . S
C9 O18 1.268 . S
O10 Sc0 2.105 . S
O10 C4 1.268 . S
O11 Sc1 2.105 . S
O11 C5 1.268 . S
O12 Sc2 2.105 . S
O12 C6 1.268 . S
O13 Sc0 2.105 . S
O13 C7 1.268 . S
O14 Sc2 2.105 . S
O14 C8 1.268 1_556 S
O15 Sc1 2.105 1_556 S
O15 C9 1.268 . S
O16 Sc0 2.105 . S
O16 C8 1.268 . S
O17 Sc1 2.105 . S
O17 C7 1.268 . S
O18 Sc2 2.105 . S
O18 C9 1.268 . S
O19 Sc0 2.105 . S
O19 C5 1.268 . S
O20 Sc2 2.105 . S
O20 C4 1.268 1_556 S
O21 Sc1 2.105 1_556 S
O21 C6 1.268 . S
Sc22 O25 2.025 . S
Sc22 O32 2.105 . S
Sc22 O35 2.105 . S
Sc22 O38 2.105 . S
Sc22 O41 2.105 . S
Sc23 O25 2.025 . S
Sc23 O33 2.105 . S
Sc23 O37 2.105 . S
Sc23 O39 2.105 . S
Sc23 O43 2.105 . S
Sc24 O25 2.025 . S
Sc24 O34 2.105 . S
Sc24 O36 2.105 . S
Sc24 O40 2.105 . S
Sc24 O42 2.105 . S
O25 Sc22 2.025 . S
O25 Sc23 2.025 . S
O25 Sc24 2.025 . S
C26 O32 1.268 . S
C26 O42 1.268 . S
C27 O33 1.268 . S
C27 O41 1.268 . S
C28 O34 1.268 . S
C28 O43 1.268 . S
C29 O35 1.268 . S
C29 O39 1.268 . S
C30 O36 1.268 . S
C30 O38 1.268 . S
C31 O37 1.268 . S
C31 O40 1.268 . S
O32 Sc22 2.105 . S
O32 C26 1.268 . S
O33 Sc23 2.105 . S
O33 C27 1.268 . S
O34 Sc24 2.105 . S
O34 C28 1.268 . S
O35 Sc22 2.105 . S
O35 C29 1.268 . S
O36 Sc24 2.105 . S
O36 C30 1.268 . S
O37 Sc23 2.105 . S
O37 C31 1.268 . S
O38 Sc22 2.105 . S
O38 C30 1.268 . S
O39 Sc23 2.105 . S
O39 C29 1.268 . S
O40 Sc24 2.105 . S
O40 C31 1.268 . S
O41 Sc22 2.105 . S
O41 C27 1.268 . S
O42 Sc24 2.105 . S
O42 C26 1.268 . S
O43 Sc23 2.105 . S
O43 C28 1.268 . S
Sc44 O47 2.025 1_556 S
Sc44 O54 2.105 . S
Sc44 O57 2.105 . S
Sc44 O60 2.105 . S
Sc44 O63 2.105 . S
Sc45 O47 2.025 . S
Sc45 O55 2.105 1_554 S
Sc45 O59 2.105 . S
Sc45 O61 2.105 1_554 S
Sc45 O65 2.105 . S
Sc46 O47 2.025 . S
Sc46 O56 2.105 . S
Sc46 O58 2.105 . S
Sc46 O62 2.105 . S
Sc46 O64 2.105 . S
O47 Sc44 2.025 1_554 S
O47 Sc45 2.025 . S
O47 Sc46 2.025 . S
C48 O54 1.268 1_554 S
C48 O64 1.268 . S
C49 O55 1.268 . S
C49 O63 1.268 . S
C50 O56 1.268 . S
C50 O65 1.268 . S
C51 O57 1.268 . S
C51 O61 1.268 . S
C52 O58 1.268 . S
C52 O60 1.268 1_554 S
C53 O59 1.268 . S
C53 O62 1.268 . S
O54 Sc44 2.105 . S
O54 C48 1.268 1_556 S
O55 Sc45 2.105 1_556 S
O55 C49 1.268 . S
O56 Sc46 2.105 . S
O56 C50 1.268 . S
O57 Sc44 2.105 . S
O57 C51 1.268 . S
O58 Sc46 2.105 . S
O58 C52 1.268 . S
O59 Sc45 2.105 . S
O59 C53 1.268 . S
O60 Sc44 2.105 . S
O60 C52 1.268 1_556 S
O61 Sc45 2.105 1_556 S
O61 C51 1.268 . S
O62 Sc46 2.105 . S
O62 C53 1.268 . S
O63 Sc44 2.105 . S
O63 C49 1.268 . S
O64 Sc46 2.105 . S
O64 C48 1.268 . S
O65 Sc45 2.105 . S
O65 C50 1.268 . S
Sc66 O69 2.025 . S
Sc66 O76 2.105 . S
Sc66 O79 2.105 . S
Sc66 O82 2.105 . S
Sc66 O85 2.105 . S
Sc67 O69 2.025 . S
Sc67 O77 2.105 . S
Sc67 O81 2.105 . S
Sc67 O83 2.105 . S
Sc67 O87 2.105 . S
Sc68 O69 2.025 . S
Sc68 O78 2.105 . S
Sc68 O80 2.105 . S
Sc68 O84 2.105 . S
Sc68 O86 2.105 . S
O69 Sc66 2.025 . S
O69 Sc67 2.025 . S
O69 Sc68 2.025 . S
C70 O76 1.268 . S
C70 O86 1.268 . S
C71 O77 1.268 . S
C71 O85 1.268 . S
C72 O78 1.268 . S
C72 O87 1.268 . S
C73 O79 1.268 . S
C73 O83 1.268 . S
C74 O80 1.268 . S
C74 O82 1.268 . S
C75 O81 1.268 . S
C75 O84 1.268 . S
O76 Sc66 2.105 . S
O76 C70 1.268 . S
O77 Sc67 2.105 . S
O77 C71 1.268 . S
O78 Sc68 2.105 . S
O78 C72 1.268 . S
O79 Sc66 2.105 . S
O79 C73 1.268 . S
O80 Sc68 2.105 . S
O80 C74 1.268 . S
O81 Sc67 2.105 . S
O81 C75 1.268 . S
O82 Sc66 2.105 . S
O82 C74 1.268 . S
O83 Sc67 2.105 . S
O83 C73 1.268 . S
O84 Sc68 2.105 . S
O84 C75 1.268 . S
O85 Sc66 2.105 . S
O85 C71 1.268 . S
O86 Sc68 2.105 . S
O86 C70 1.268 . S
O87 Sc67 2.105 . S
O87 C72 1.268 . S
C88 C89 1.391 . S
C88 C92 1.391 . S
C88 H130 0.948 . S
C89 C88 1.391 . S
C89 C90 1.391 . S
C90 C89 1.391 . S
C90 H146 0.947 . S
C90 C147 1.392 . S
C91 C92 1.391 . S
C91 C95 1.397 . S
C91 C147 1.419 . S
C92 C88 1.391 . S
C92 C91 1.391 . S
C92 C93 1.399 . S
C93 C92 1.399 . S
C93 C96 1.396 . S
C93 C105 1.453 . S
C93 C106 1.684 . S
H94 C118 0.948 . S
C95 C91 1.397 . S
C95 C96 1.394 . S
C95 C114 1.723 1_556 S
C96 C93 1.396 . S
C96 C95 1.394 . S
C96 C126 1.723 . S
H97 C120 0.947 . S
H98 C121 0.948 . S
H99 C127 0.982 . S
H100 C128 0.979 . S
H101 C128 0.980 . S
H102 C128 0.983 . S
H103 C127 0.979 . S
H104 C127 0.977 . S
C105 C93 1.453 . S
C105 H134 0.982 . S
C105 H135 0.979 . S
C105 H136 0.977 . S
C106 C93 1.684 . S
C106 H131 0.979 . S
C106 H132 0.980 . S
C106 H133 0.983 . S
C107 C108 1.391 . S
C107 C112 1.391 . S
C107 H137 0.948 . S
C108 C107 1.391 . S
C108 C109 1.391 . S
C109 C108 1.391 . S
C109 C110 1.392 . S
C109 H138 0.947 . S
C110 C109 1.392 . S
C110 C111 1.419 . S
C110 H139 0.948 . S
C111 C110 1.419 . S
C111 C112 1.391 . S
C111 C115 1.397 . S
C112 C107 1.391 . S
C112 C111 1.391 . S
C112 C113 1.399 . S
C113 C112 1.399 . S
C113 C114 1.396 . S
C113 C116 1.453 . S
C113 C117 1.684 . S
C114 C95 1.723 1_554 S
C114 C113 1.396 . S
C114 C115 1.394 . S
C115 C111 1.397 . S
C115 C114 1.394 . S
C115 C125 1.723 . S
C116 C113 1.453 . S
C116 H140 0.982 . S
C116 H141 0.979 . S
C116 H142 0.977 1_554 S
C117 C113 1.684 . S
C117 H143 0.979 . S
C117 H144 0.980 1_554 S
C117 H145 0.983 . S
C118 H94 0.948 . S
C118 C119 1.391 1_554 S
C118 C123 1.391 . S
C119 C118 1.391 1_556 S
C119 C120 1.391 . S
C120 H97 0.947 . S
C120 C119 1.391 . S
C120 C121 1.392 . S
C121 H98 0.948 . S
C121 C120 1.392 . S
C121 C122 1.419 . S
C122 C121 1.419 . S
C122 C123 1.391 1_556 S
C122 C126 1.397 . S
C123 C118 1.391 . S
C123 C122 1.391 1_554 S
C123 C124 1.399 . S
C124 C123 1.399 . S
C124 C125 1.396 . S
C124 C127 1.453 . S
C124 C128 1.684 . S
C125 C115 1.723 . S
C125 C124 1.396 . S
C125 C126 1.394 1_554 S
C126 C96 1.723 . S
C126 C122 1.397 . S
C126 C125 1.394 1_556 S
C127 H99 0.982 . S
C127 H103 0.979 . S
C127 H104 0.977 . S
C127 C124 1.453 . S
C128 H100 0.979 . S
C128 H101 0.980 . S
C128 H102 0.983 . S
C128 C124 1.684 . S
H129 C147 0.948 . S
H130 C88 0.948 . S
H131 C106 0.979 . S
H132 C106 0.980 . S
H133 C106 0.983 . S
H134 C105 0.982 . S
H135 C105 0.979 . S
H136 C105 0.977 . S
H137 C107 0.948 . S
H138 C109 0.947 . S
H139 C110 0.948 . S
H140 C116 0.982 . S
H141 C116 0.979 . S
H142 C116 0.977 1_556 S
H143 C117 0.979 . S
H144 C117 0.980 1_556 S
H145 C117 0.983 . S
H146 C90 0.947 . S
C147 C90 1.392 . S
C147 C91 1.419 . S
C147 H129 0.948 . S
C148 C149 1.391 . S
C148 C152 1.391 . S
C148 H190 0.948 . S
C149 C148 1.391 . S
C149 C150 1.391 . S
C150 C149 1.391 . S
C150 H206 0.947 . S
C150 C207 1.392 . S
C151 C152 1.391 . S
C151 C155 1.397 . S
C151 C207 1.419 . S
C152 C148 1.391 . S
C152 C151 1.391 . S
C152 C153 1.399 . S
C153 C152 1.399 . S
C153 C156 1.381 1_455 S
C153 C165 1.453 . S
C153 C166 1.684 . S
H154 C178 0.948 . S
C155 C151 1.397 . S
C155 C156 1.391 1_455 S
C155 C174 1.723 1_455 S
C156 C153 1.381 1_655 S
C156 C155 1.391 1_655 S
C156 C186 1.741 . S
H157 C180 0.947 . S
H158 C181 0.948 . S
H159 C187 0.982 . S
H160 C188 0.979 . S
H161 C188 0.980 . S
H162 C188 0.983 . S
H163 C187 0.979 . S
H164 C187 0.977 . S
C165 C153 1.453 . S
C165 H194 0.982 . S
C165 H195 0.979 . S
C165 H196 0.977 . S
C166 C153 1.684 . S
C166 H191 0.979 . S
C166 H192 0.980 . S
C166 H193 0.983 . S
C167 C168 1.391 . S
C167 C172 1.391 . S
C167 H197 0.948 . S
C168 C167 1.391 . S
C168 C169 1.391 . S
C169 C168 1.391 . S
C169 C170 1.392 . S
C169 H198 0.947 . S
C170 C169 1.392 . S
C170 C171 1.419 . S
C170 H199 0.948 . S
C171 C170 1.419 . S
C171 C172 1.391 . S
C171 C175 1.397 . S
C172 C167 1.391 . S
C172 C171 1.391 . S
C172 C173 1.399 . S
C173 C172 1.399 . S
C173 C174 1.396 . S
C173 C176 1.430 1_655 S
C173 C177 1.697 . S
C174 C155 1.723 1_655 S
C174 C173 1.396 . S
C174 C175 1.394 . S
C175 C171 1.397 . S
C175 C174 1.394 . S
C175 C185 1.723 . S
C176 C173 1.430 1_455 S
C176 H200 0.974 1_455 S
C176 H201 0.979 . S
C176 H202 1.008 . S
C177 C173 1.697 . S
C177 H203 0.989 . S
C177 H204 0.956 1_655 S
C177 H205 0.983 . S
C178 H154 0.948 . S
C178 C179 1.391 . S
C178 C183 1.391 . S
C179 C178 1.391 . S
C179 C180 1.391 . S
C180 H157 0.947 . S
C180 C179 1.391 . S
C180 C181 1.392 . S
C181 H158 0.948 . S
C181 C180 1.392 . S
C181 C182 1.419 . S
C182 C181 1.419 . S
C182 C183 1.391 . S
C182 C186 1.397 . S
C183 C178 1.391 . S
C183 C182 1.391 . S
C183 C184 1.399 . S
C184 C183 1.399 . S
C184 C185 1.396 . S
C184 C187 1.453 . S
C184 C188 1.684 . S
C185 C175 1.723 . S
C185 C184 1.396 . S
C185 C186 1.394 . S
C186 C156 1.741 . S
C186 C182 1.397 . S
C186 C185 1.394 . S
C187 H159 0.982 . S
C187 H163 0.979 . S
C187 H164 0.977 . S
C187 C184 1.453 . S
C188 H160 0.979 . S
C188 H161 0.980 . S
C188 H162 0.983 . S
C188 C184 1.684 . S
H189 C207 0.948 . S
H190 C148 0.948 . S
H191 C166 0.979 . S
H192 C166 0.980 . S
H193 C166 0.983 . S
H194 C165 0.982 . S
H195 C165 0.979 . S
H196 C165 0.977 . S
H197 C167 0.948 . S
H198 C169 0.947 . S
H199 C170 0.948 . S
H200 C176 0.974 1_655 S
H201 C176 0.979 . S
H202 C176 1.008 . S
H203 C177 0.989 . S
H204 C177 0.956 1_455 S
H205 C177 0.983 . S
H206 C150 0.947 . S
C207 C150 1.392 . S
C207 C151 1.419 . S
C207 H189 0.948 . S
C208 C209 1.391 . S
C208 C212 1.391 . S
C208 H250 0.948 . S
C209 C208 1.391 . S
C209 C210 1.391 . S
C210 C209 1.391 . S
C210 H266 0.947 . S
C210 C267 1.392 . S
C211 C212 1.391 . S
C211 C215 1.397 . S
C211 C267 1.419 . S
C212 C208 1.391 . S
C212 C211 1.391 . S
C212 C213 1.399 . S
C213 C212 1.399 . S
C213 C216 1.396 . S
C213 C225 1.453 . S
C213 C226 1.684 . S
H214 C238 0.948 . S
C215 C211 1.397 . S
C215 C216 1.394 . S
C215 C234 1.723 1_554 S
C216 C213 1.396 . S
C216 C215 1.394 . S
C216 C246 1.723 . S
H217 C240 0.947 . S
H218 C241 0.948 . S
H219 C247 0.982 . S
H220 C248 0.979 . S
H221 C248 0.980 . S
H222 C248 0.983 . S
H223 C247 0.979 . S
H224 C247 0.977 . S
C225 C213 1.453 . S
C225 H254 0.982 . S
C225 H255 0.979 . S
C225 H256 0.977 . S
C226 C213 1.684 . S
C226 H251 0.979 . S
C226 H252 0.980 . S
C226 H253 0.983 . S
C227 C228 1.391 . S
C227 C232 1.391 . S
C227 H257 0.948 . S
C228 C227 1.391 . S
C228 C229 1.391 . S
C229 C228 1.391 . S
C229 C230 1.392 . S
C229 H258 0.947 . S
C230 C229 1.392 . S
C230 C231 1.419 . S
C230 H259 0.948 . S
C231 C230 1.419 . S
C231 C232 1.391 . S
C231 C235 1.397 . S
C232 C227 1.391 . S
C232 C231 1.391 . S
C232 C233 1.399 . S
C233 C232 1.399 . S
C233 C234 1.396 . S
C233 C236 1.453 . S
C233 C237 1.684 . S
C234 C215 1.723 1_556 S
C234 C233 1.396 . S
C234 C235 1.394 . S
C235 C231 1.397 . S
C235 C234 1.394 . S
C235 C245 1.723 . S
C236 C233 1.453 . S
C236 H260 0.982 . S
C236 H261 0.979 . S
C236 H262 0.977 1_556 S
C237 C233 1.684 . S
C237 H263 0.979 . S
C237 H264 0.980 1_556 S
C237 H265 0.983 . S
C238 H214 0.948 . S
C238 C239 1.391 1_556 S
C238 C243 1.391 . S
C239 C238 1.391 1_554 S
C239 C240 1.391 . S
C240 H217 0.947 . S
C240 C239 1.391 . S
C240 C241 1.392 . S
C241 H218 0.948 . S
C241 C240 1.392 . S
C241 C242 1.419 . S
C242 C241 1.419 . S
C242 C243 1.391 1_554 S
C242 C246 1.397 . S
C243 C238 1.391 . S
C243 C242 1.391 1_556 S
C243 C244 1.399 . S
C244 C243 1.399 . S
C244 C245 1.396 . S
C244 C247 1.453 . S
C244 C248 1.684 . S
C245 C235 1.723 . S
C245 C244 1.396 . S
C245 C246 1.394 1_556 S
C246 C216 1.723 . S
C246 C242 1.397 . S
C246 C245 1.394 1_554 S
C247 H219 0.982 . S
C247 H223 0.979 . S
C247 H224 0.977 . S
C247 C244 1.453 . S
C248 H220 0.979 . S
C248 H221 0.980 . S
C248 H222 0.983 . S
C248 C244 1.684 . S
H249 C267 0.948 . S
H250 C208 0.948 . S
H251 C226 0.979 . S
H252 C226 0.980 . S
H253 C226 0.983 . S
H254 C225 0.982 . S
H255 C225 0.979 . S
H256 C225 0.977 . S
H257 C227 0.948 . S
H258 C229 0.947 . S
H259 C230 0.948 . S
H260 C236 0.982 . S
H261 C236 0.979 . S
H262 C236 0.977 1_554 S
H263 C237 0.979 . S
H264 C237 0.980 1_554 S
H265 C237 0.983 . S
H266 C210 0.947 . S
C267 C210 1.392 . S
C267 C211 1.419 . S
C267 H249 0.948 . S
C268 C269 1.391 . S
C268 C272 1.391 . S
C268 H310 0.948 . S
C269 C268 1.391 . S
C269 C270 1.391 . S
C270 C269 1.391 . S
C270 H326 0.947 . S
C270 C327 1.392 . S
C271 C272 1.391 . S
C271 C275 1.397 . S
C271 C327 1.419 . S
C272 C268 1.391 . S
C272 C271 1.391 . S
C272 C273 1.399 . S
C273 C272 1.399 . S
C273 C276 1.396 . S
C273 C285 1.430 1_455 S
C273 C286 1.698 . S
H274 C298 0.948 . S
C275 C271 1.397 . S
C275 C276 1.394 . S
C275 C294 1.723 . S
C276 C273 1.396 . S
C276 C275 1.394 . S
C276 C306 1.723 1_455 S
H277 C300 0.947 . S
H278 C301 0.948 . S
H279 C307 0.982 . S
H280 C308 0.979 . S
H281 C308 0.980 . S
H282 C308 0.983 . S
H283 C307 0.979 . S
H284 C307 0.977 . S
C285 C273 1.430 1_655 S
C285 H314 0.974 1_655 S
C285 H315 0.979 . S
C285 H316 1.008 . S
C286 C273 1.698 . S
C286 H311 0.989 . S
C286 H312 0.956 1_455 S
C286 H313 0.983 . S
C287 C288 1.391 . S
C287 C292 1.391 . S
C287 H317 0.948 . S
C288 C287 1.391 . S
C288 C289 1.391 . S
C289 C288 1.391 . S
C289 C290 1.392 . S
C289 H318 0.947 . S
C290 C289 1.392 . S
C290 C291 1.419 . S
C290 H319 0.948 . S
C291 C290 1.419 . S
C291 C292 1.391 . S
C291 C295 1.397 . S
C292 C287 1.391 . S
C292 C291 1.391 . S
C292 C293 1.399 . S
C293 C292 1.399 . S
C293 C294 1.396 . S
C293 C296 1.453 . S
C293 C297 1.684 . S
C294 C275 1.723 . S
C294 C293 1.396 . S
C294 C295 1.394 . S
C295 C291 1.397 . S
C295 C294 1.394 . S
C295 C305 1.741 . S
C296 C293 1.453 . S
C296 H320 0.982 . S
C296 H321 0.979 . S
C296 H322 0.977 . S
C297 C293 1.684 . S
C297 H323 0.979 . S
C297 H324 0.980 . S
C297 H325 0.983 . S
C298 H274 0.948 . S
C298 C299 1.391 . S
C298 C303 1.391 . S
C299 C298 1.391 . S
C299 C300 1.391 . S
C300 H277 0.947 . S
C300 C299 1.391 . S
C300 C301 1.392 . S
C301 H278 0.948 . S
C301 C300 1.392 . S
C301 C302 1.419 . S
C302 C301 1.419 . S
C302 C303 1.391 . S
C302 C306 1.397 . S
C303 C298 1.391 . S
C303 C302 1.391 . S
C303 C304 1.399 . S
C304 C303 1.399 . S
C304 C305 1.381 1_655 S
C304 C307 1.453 . S
C304 C308 1.684 . S
C305 C295 1.741 . S
C305 C304 1.381 1_455 S
C305 C306 1.391 1_455 S
C306 C276 1.723 1_655 S
C306 C302 1.397 . S
C306 C305 1.391 1_655 S
C307 H279 0.982 . S
C307 H283 0.979 . S
C307 H284 0.977 . S
C307 C304 1.453 . S
C308 H280 0.979 . S
C308 H281 0.980 . S
C308 H282 0.983 . S
C308 C304 1.684 . S
H309 C327 0.948 . S
H310 C268 0.948 . S
H311 C286 0.989 . S
H312 C286 0.956 1_655 S
H313 C286 0.983 . S
H314 C285 0.974 1_455 S
H315 C285 0.979 . S
H316 C285 1.008 . S
H317 C287 0.948 . S
H318 C289 0.947 . S
H319 C290 0.948 . S
H320 C296 0.982 . S
H321 C296 0.979 . S
H322 C296 0.977 . S
H323 C297 0.979 . S
H324 C297 0.980 . S
H325 C297 0.983 . S
H326 C270 0.947 . S
C327 C270 1.392 . S
C327 C271 1.419 . S
C327 H309 0.948 . S
C328 C329 1.391 . S
C328 C332 1.391 . S
C328 H370 0.948 . S
C329 C328 1.391 . S
C329 C330 1.391 . S
C330 C329 1.391 . S
C330 H386 0.947 . S
C330 C387 1.392 . S
C331 C332 1.391 . S
C331 C335 1.397 . S
C331 C387 1.419 . S
C332 C328 1.391 . S
C332 C331 1.391 . S
C332 C333 1.399 . S
C333 C332 1.399 . S
C333 C336 1.396 . S
C333 C345 1.430 1_565 S
C333 C346 1.697 . S
H334 C358 0.948 . S
C335 C331 1.397 . S
C335 C336 1.394 . S
C335 C354 1.723 . S
C336 C333 1.396 . S
C336 C335 1.394 . S
C336 C366 1.723 1_565 S
H337 C360 0.947 . S
H338 C361 0.948 . S
H339 C367 0.982 . S
H340 C368 0.979 . S
H341 C368 0.980 . S
H342 C368 0.983 . S
H343 C367 0.979 . S
H344 C367 0.977 . S
C345 C333 1.430 1_545 S
C345 H374 0.974 1_545 S
C345 H375 0.979 . S
C345 H376 1.008 . S
C346 C333 1.697 . S
C346 H371 0.989 . S
C346 H372 0.956 1_565 S
C346 H373 0.983 . S
C347 C348 1.391 . S
C347 C352 1.391 . S
C347 H377 0.948 . S
C348 C347 1.391 . S
C348 C349 1.391 . S
C349 C348 1.391 . S
C349 C350 1.392 . S
C349 H378 0.947 . S
C350 C349 1.392 . S
C350 C351 1.419 . S
C350 H379 0.948 . S
C351 C350 1.419 . S
C351 C352 1.391 . S
C351 C355 1.397 . S
C352 C347 1.391 . S
C352 C351 1.391 . S
C352 C353 1.399 . S
C353 C352 1.399 . S
C353 C354 1.396 . S
C353 C356 1.453 . S
C353 C357 1.684 . S
C354 C335 1.723 . S
C354 C353 1.396 . S
C354 C355 1.394 . S
C355 C351 1.397 . S
C355 C354 1.394 . S
C355 C365 1.741 . S
C356 C353 1.453 . S
C356 H380 0.982 . S
C356 H381 0.979 . S
C356 H382 0.977 . S
C357 C353 1.684 . S
C357 H383 0.979 . S
C357 H384 0.980 . S
C357 H385 0.983 . S
C358 H334 0.948 . S
C358 C359 1.391 . S
C358 C363 1.391 . S
C359 C358 1.391 . S
C359 C360 1.391 . S
C360 H337 0.947 . S
C360 C359 1.391 . S
C360 C361 1.392 . S
C361 H338 0.948 . S
C361 C360 1.392 . S
C361 C362 1.419 . S
C362 C361 1.419 . S
C362 C363 1.391 . S
C362 C366 1.397 . S
C363 C358 1.391 . S
C363 C362 1.391 . S
C363 C364 1.399 . S
C364 C363 1.399 . S
C364 C365 1.381 1_545 S
C364 C367 1.453 . S
C364 C368 1.684 . S
C365 C355 1.741 . S
C365 C364 1.381 1_565 S
C365 C366 1.391 1_565 S
C366 C336 1.723 1_545 S
C366 C362 1.397 . S
C366 C365 1.391 1_545 S
C367 H339 0.982 . S
C367 H343 0.979 . S
C367 H344 0.977 . S
C367 C364 1.453 . S
C368 H340 0.979 . S
C368 H341 0.980 . S
C368 H342 0.983 . S
C368 C364 1.684 . S
H369 C387 0.948 . S
H370 C328 0.948 . S
H371 C346 0.989 . S
H372 C346 0.956 1_545 S
H373 C346 0.983 . S
H374 C345 0.974 1_565 S
H375 C345 0.979 . S
H376 C345 1.008 . S
H377 C347 0.948 . S
H378 C349 0.947 . S
H379 C350 0.948 . S
H380 C356 0.982 . S
H381 C356 0.979 . S
H382 C356 0.977 . S
H383 C357 0.979 . S
H384 C357 0.980 . S
H385 C357 0.983 . S
H386 C330 0.947 . S
C387 C330 1.392 . S
C387 C331 1.419 . S
C387 H369 0.948 . S
C388 C389 1.391 . S
C388 C392 1.391 . S
C388 H430 0.948 . S
C389 C388 1.391 . S
C389 C390 1.391 . S
C390 C389 1.391 . S
C390 H446 0.947 . S
C390 C447 1.392 . S
C391 C392 1.391 . S
C391 C395 1.397 . S
C391 C447 1.419 . S
C392 C388 1.391 . S
C392 C391 1.391 . S
C392 C393 1.399 . S
C393 C392 1.399 . S
C393 C396 1.396 . S
C393 C405 1.453 . S
C393 C406 1.684 . S
H394 C418 0.948 . S
C395 C391 1.397 . S
C395 C396 1.394 . S
C395 C414 1.723 1_554 S
C396 C393 1.396 . S
C396 C395 1.394 . S
C396 C426 1.723 . S
H397 C420 0.947 . S
H398 C421 0.948 . S
H399 C427 0.982 . S
H400 C428 0.979 . S
H401 C428 0.980 . S
H402 C428 0.983 . S
H403 C427 0.979 . S
H404 C427 0.977 . S
C405 C393 1.453 . S
C405 H434 0.982 . S
C405 H435 0.979 . S
C405 H436 0.977 . S
C406 C393 1.684 . S
C406 H431 0.979 . S
C406 H432 0.980 . S
C406 H433 0.983 . S
C407 C408 1.391 . S
C407 C412 1.391 . S
C407 H437 0.948 . S
C408 C407 1.391 . S
C408 C409 1.391 . S
C409 C408 1.391 . S
C409 C410 1.392 . S
C409 H438 0.947 . S
C410 C409 1.392 . S
C410 C411 1.419 . S
C410 H439 0.948 . S
C411 C410 1.419 . S
C411 C412 1.391 . S
C411 C415 1.397 . S
C412 C407 1.391 . S
C412 C411 1.391 . S
C412 C413 1.399 . S
C413 C412 1.399 . S
C413 C414 1.396 . S
C413 C416 1.453 . S
C413 C417 1.684 . S
C414 C395 1.723 1_556 S
C414 C413 1.396 . S
C414 C415 1.394 . S
C415 C411 1.397 . S
C415 C414 1.394 . S
C415 C425 1.723 . S
C416 C413 1.453 . S
C416 H440 0.982 . S
C416 H441 0.979 . S
C416 H442 0.977 1_556 S
C417 C413 1.684 . S
C417 H443 0.979 . S
C417 H444 0.980 1_556 S
C417 H445 0.983 . S
C418 H394 0.948 . S
C418 C419 1.391 1_556 S
C418 C423 1.391 . S
C419 C418 1.391 1_554 S
C419 C420 1.391 . S
C420 H397 0.947 . S
C420 C419 1.391 . S
C420 C421 1.392 . S
C421 H398 0.948 . S
C421 C420 1.392 . S
C421 C422 1.419 . S
C422 C421 1.419 . S
C422 C423 1.391 1_554 S
C422 C426 1.397 . S
C423 C418 1.391 . S
C423 C422 1.391 1_556 S
C423 C424 1.399 . S
C424 C423 1.399 . S
C424 C425 1.396 . S
C424 C427 1.453 . S
C424 C428 1.684 . S
C425 C415 1.723 . S
C425 C424 1.396 . S
C425 C426 1.394 1_556 S
C426 C396 1.723 . S
C426 C422 1.397 . S
C426 C425 1.394 1_554 S
C427 H399 0.982 . S
C427 H403 0.979 . S
C427 H404 0.977 . S
C427 C424 1.453 . S
C428 H400 0.979 . S
C428 H401 0.980 . S
C428 H402 0.983 . S
C428 C424 1.684 . S
H429 C447 0.948 . S
H430 C388 0.948 . S
H431 C406 0.979 . S
H432 C406 0.980 . S
H433 C406 0.983 . S
H434 C405 0.982 . S
H435 C405 0.979 . S
H436 C405 0.977 . S
H437 C407 0.948 . S
H438 C409 0.947 . S
H439 C410 0.948 . S
H440 C416 0.982 . S
H441 C416 0.979 . S
H442 C416 0.977 1_554 S
H443 C417 0.979 . S
H444 C417 0.980 1_554 S
H445 C417 0.983 . S
H446 C390 0.947 . S
C447 C390 1.392 . S
C447 C391 1.419 . S
C447 H429 0.948 . S
C448 C449 1.391 . S
C448 C452 1.391 . S
C448 H490 0.948 . S
C449 C448 1.391 . S
C449 C450 1.391 . S
C450 C449 1.391 . S
C450 H506 0.947 . S
C450 C507 1.392 . S
C451 C452 1.391 . S
C451 C455 1.397 . S
C451 C507 1.419 . S
C452 C448 1.391 . S
C452 C451 1.391 . S
C452 C453 1.399 . S
C453 C452 1.399 . S
C453 C456 1.396 . S
C453 C465 1.453 . S
C453 C466 1.684 1_545 S
H454 C478 0.948 . S
C455 C451 1.397 . S
C455 C456 1.394 . S
C455 C474 1.723 . S
C456 C453 1.396 . S
C456 C455 1.394 . S
C456 C486 1.723 1_545 S
H457 C480 0.947 . S
H458 C481 0.948 . S
H459 C487 0.982 . S
H460 C488 0.979 . S
H461 C488 0.980 . S
H462 C488 0.983 . S
H463 C487 0.979 . S
H464 C487 0.977 . S
C465 C453 1.453 . S
C465 H494 0.982 . S
C465 H495 0.979 . S
C465 H496 0.977 1_545 S
C466 C453 1.684 1_565 S
C466 H491 0.979 . S
C466 H492 0.980 . S
C466 H493 0.983 . S
C467 C468 1.391 . S
C467 C472 1.391 . S
C467 H497 0.948 . S
C468 C467 1.391 . S
C468 C469 1.391 . S
C469 C468 1.391 . S
C469 C470 1.392 . S
C469 H498 0.947 . S
C470 C469 1.392 . S
C470 C471 1.419 . S
C470 H499 0.948 . S
C471 C470 1.419 . S
C471 C472 1.391 . S
C471 C475 1.397 . S
C472 C467 1.391 . S
C472 C471 1.391 . S
C472 C473 1.399 . S
C473 C472 1.399 . S
C473 C474 1.396 . S
C473 C476 1.453 . S
C473 C477 1.684 . S
C474 C455 1.723 . S
C474 C473 1.396 . S
C474 C475 1.394 . S
C475 C471 1.397 . S
C475 C474 1.394 . S
C475 C485 1.761 . S
C476 C473 1.453 . S
C476 H500 0.982 . S
C476 H501 0.979 . S
C476 H502 0.977 . S
C477 C473 1.684 . S
C477 H503 0.979 . S
C477 H504 0.980 . S
C477 H505 0.983 . S
C478 H454 0.948 . S
C478 C479 1.391 . S
C478 C483 1.391 . S
C479 C478 1.391 . S
C479 C480 1.391 . S
C480 H457 0.947 . S
C480 C479 1.391 . S
C480 C481 1.392 . S
C481 H458 0.948 . S
C481 C480 1.392 . S
C481 C482 1.419 . S
C482 C481 1.419 . S
C482 C483 1.391 . S
C482 C486 1.397 . S
C483 C478 1.391 . S
C483 C482 1.391 . S
C483 C484 1.399 . S
C484 C483 1.399 . S
C484 C485 1.362 1_565 S
C484 C487 1.453 . S
C484 C488 1.684 . S
C485 C475 1.761 . S
C485 C484 1.362 1_545 S
C485 C486 1.388 1_545 S
C486 C456 1.723 1_565 S
C486 C482 1.397 . S
C486 C485 1.388 1_565 S
C487 H459 0.982 . S
C487 H463 0.979 . S
C487 H464 0.977 . S
C487 C484 1.453 . S
C488 H460 0.979 . S
C488 H461 0.980 . S
C488 H462 0.983 . S
C488 C484 1.684 . S
H489 C507 0.948 . S
H490 C448 0.948 . S
H491 C466 0.979 . S
H492 C466 0.980 . S
H493 C466 0.983 . S
H494 C465 0.982 . S
H495 C465 0.979 . S
H496 C465 0.977 1_565 S
H497 C467 0.948 . S
H498 C469 0.947 . S
H499 C470 0.948 . S
H500 C476 0.982 . S
H501 C476 0.979 . S
H502 C476 0.977 . S
H503 C477 0.979 . S
H504 C477 0.980 . S
H505 C477 0.983 . S
H506 C450 0.947 . S
C507 C450 1.392 . S
C507 C451 1.419 . S
C507 H489 0.948 . S
C508 C509 1.391 1_554 S
C508 C512 1.391 . S
C508 H550 0.948 . S
C509 C508 1.391 1_556 S
C509 C510 1.391 . S
C510 C509 1.391 . S
C510 H566 0.947 . S
C510 C567 1.392 . S
C511 C512 1.391 1_556 S
C511 C515 1.397 . S
C511 C567 1.419 . S
C512 C508 1.391 . S
C512 C511 1.391 1_554 S
C512 C513 1.399 . S
C513 C512 1.399 . S
C513 C516 1.396 . S
C513 C525 1.453 . S
C513 C526 1.684 . S
H514 C538 0.948 . S
C515 C511 1.397 . S
C515 C516 1.394 1_556 S
C515 C534 1.723 . S
C516 C513 1.396 . S
C516 C515 1.394 1_554 S
C516 C546 1.723 . S
H517 C540 0.947 . S
H518 C541 0.948 . S
H519 C547 0.982 . S
H520 C548 0.979 . S
H521 C548 0.980 1_556 S
H522 C548 0.983 . S
H523 C547 0.979 . S
H524 C547 0.977 1_556 S
C525 C513 1.453 . S
C525 H554 0.982 . S
C525 H555 0.979 . S
C525 H556 0.977 . S
C526 C513 1.684 . S
C526 H551 0.979 . S
C526 H552 0.980 . S
C526 H553 0.983 . S
C527 C528 1.391 . S
C527 C532 1.391 . S
C527 H557 0.948 . S
C528 C527 1.391 . S
C528 C529 1.391 . S
C529 C528 1.391 . S
C529 C530 1.392 . S
C529 H558 0.947 . S
C530 C529 1.392 . S
C530 C531 1.419 . S
C530 H559 0.948 . S
C531 C530 1.419 . S
C531 C532 1.391 . S
C531 C535 1.397 . S
C532 C527 1.391 . S
C532 C531 1.391 . S
C532 C533 1.399 . S
C533 C532 1.399 . S
C533 C534 1.396 . S
C533 C536 1.453 . S
C533 C537 1.684 . S
C534 C515 1.723 . S
C534 C533 1.396 . S
C534 C535 1.394 . S
C535 C531 1.397 . S
C535 C534 1.394 . S
C535 C545 1.723 1_556 S
C536 C533 1.453 . S
C536 H560 0.982 . S
C536 H561 0.979 . S
C536 H562 0.977 . S
C537 C533 1.684 . S
C537 H563 0.979 . S
C537 H564 0.980 . S
C537 H565 0.983 . S
C538 H514 0.948 . S
C538 C539 1.391 . S
C538 C543 1.391 . S
C539 C538 1.391 . S
C539 C540 1.391 . S
C540 H517 0.947 . S
C540 C539 1.391 . S
C540 C541 1.392 . S
C541 H518 0.948 . S
C541 C540 1.392 . S
C541 C542 1.419 . S
C542 C541 1.419 . S
C542 C543 1.391 . S
C542 C546 1.397 . S
C543 C538 1.391 . S
C543 C542 1.391 . S
C543 C544 1.399 . S
C544 C543 1.399 . S
C544 C545 1.396 . S
C544 C547 1.453 . S
C544 C548 1.684 . S
C545 C535 1.723 1_554 S
C545 C544 1.396 . S
C545 C546 1.394 . S
C546 C516 1.723 . S
C546 C542 1.397 . S
C546 C545 1.394 . S
C547 H519 0.982 . S
C547 H523 0.979 . S
C547 H524 0.977 1_554 S
C547 C544 1.453 . S
C548 H520 0.979 . S
C548 H521 0.980 1_554 S
C548 H522 0.983 . S
C548 C544 1.684 . S
H549 C567 0.948 . S
H550 C508 0.948 . S
H551 C526 0.979 . S
H552 C526 0.980 . S
H553 C526 0.983 . S
H554 C525 0.982 . S
H555 C525 0.979 . S
H556 C525 0.977 . S
H557 C527 0.948 . S
H558 C529 0.947 . S
H559 C530 0.948 . S
H560 C536 0.982 . S
H561 C536 0.979 . S
H562 C536 0.977 . S
H563 C537 0.979 . S
H564 C537 0.980 . S
H565 C537 0.983 . S
H566 C510 0.947 . S
C567 C510 1.392 . S
C567 C511 1.419 . S
C567 H549 0.948 . S
H568 C576 0.950 . S
H569 C581 0.950 . S
H570 C578 0.950 . S
H571 C580 0.950 . S
H572 C582 0.950 . S
H573 C584 0.950 . S
H574 C586 0.950 . S
H575 C587 0.950 . S
C576 H568 0.950 . S
C576 C577 1.386 . S
C576 C578 1.391 . S
C577 C576 1.386 . S
C577 C581 1.393 . S
C578 H570 0.950 . S
C578 C576 1.391 . S
C578 C579 1.400 . S
C579 C578 1.400 . S
C579 C580 1.398 . S
C579 C585 1.491 . S
C580 H571 0.950 . S
C580 C579 1.398 . S
C580 C581 1.391 . S
C581 H569 0.950 . S
C581 C577 1.393 . S
C581 C580 1.391 . S
C582 H572 0.950 . S
C582 C583 1.386 . S
C582 C584 1.391 . S
C583 C582 1.386 . S
C583 C587 1.393 . S
C584 H573 0.950 . S
C584 C582 1.391 . S
C584 C585 1.400 . S
C585 C579 1.491 . S
C585 C584 1.400 . S
C585 C586 1.398 . S
C586 H574 0.950 . S
C586 C585 1.398 . S
C586 C587 1.391 . S
C587 H575 0.950 . S
C587 C583 1.393 . S
C587 C586 1.391 . S
H588 C596 0.950 . S
H589 C601 0.950 . S
H590 C598 0.950 . S
H591 C600 0.950 . S
H592 C602 0.950 . S
H593 C604 0.950 . S
H594 C606 0.950 . S
H595 C607 0.950 . S
C596 H588 0.950 . S
C596 C597 1.386 . S
C596 C598 1.391 . S
C597 C596 1.386 . S
C597 C601 1.393 . S
C598 H590 0.950 . S
C598 C596 1.391 . S
C598 C599 1.400 . S
C599 C598 1.400 . S
C599 C600 1.398 . S
C599 C605 1.491 . S
C600 H591 0.950 . S
C600 C599 1.398 . S
C600 C601 1.391 . S
C601 H589 0.950 . S
C601 C597 1.393 . S
C601 C600 1.391 . S
C602 H592 0.950 . S
C602 C603 1.386 . S
C602 C604 1.391 . S
C603 C602 1.386 . S
C603 C607 1.393 . S
C604 H593 0.950 . S
C604 C602 1.391 . S
C604 C605 1.400 . S
C605 C599 1.491 . S
C605 C604 1.400 . S
C605 C606 1.398 . S
C606 H594 0.950 . S
C606 C605 1.398 . S
C606 C607 1.391 . S
C607 H595 0.950 . S
C607 C603 1.393 . S
C607 C606 1.391 . S
H608 C616 0.950 . S
H609 C621 0.950 . S
H610 C618 0.950 . S
H611 C620 0.950 . S
H612 C622 0.950 . S
H613 C624 0.950 . S
H614 C626 0.950 . S
H615 C627 0.950 . S
C616 H608 0.950 . S
C616 C617 1.386 . S
C616 C618 1.391 . S
C617 C616 1.386 . S
C617 C621 1.393 . S
C618 H610 0.950 . S
C618 C616 1.391 . S
C618 C619 1.400 . S
C619 C618 1.400 . S
C619 C620 1.398 . S
C619 C625 1.491 . S
C620 H611 0.950 . S
C620 C619 1.398 . S
C620 C621 1.391 . S
C621 H609 0.950 . S
C621 C617 1.393 . S
C621 C620 1.391 . S
C622 H612 0.950 . S
C622 C623 1.386 . S
C622 C624 1.391 . S
C623 C622 1.386 . S
C623 C627 1.393 . S
C624 H613 0.950 . S
C624 C622 1.391 . S
C624 C625 1.400 . S
C625 C619 1.491 . S
C625 C624 1.400 . S
C625 C626 1.398 . S
C626 H614 0.950 . S
C626 C625 1.398 . S
C626 C627 1.391 . S
C627 H615 0.950 . S
C627 C623 1.393 . S
C627 C626 1.391 . S
H628 C636 0.950 . S
H629 C641 0.950 . S
H630 C638 0.950 . S
H631 C640 0.950 . S
H632 C642 0.950 . S
H633 C644 0.950 . S
H634 C646 0.950 . S
H635 C647 0.950 . S
C636 H628 0.950 . S
C636 C637 1.386 . S
C636 C638 1.391 . S
C637 C636 1.386 . S
C637 C641 1.393 . S
C638 H630 0.950 . S
C638 C636 1.391 . S
C638 C639 1.400 . S
C639 C638 1.400 . S
C639 C640 1.398 . S
C639 C645 1.491 . S
C640 H631 0.950 . S
C640 C639 1.398 . S
C640 C641 1.391 . S
C641 H629 0.950 . S
C641 C637 1.393 . S
C641 C640 1.391 . S
C642 H632 0.950 . S
C642 C643 1.386 . S
C642 C644 1.391 . S
C643 C642 1.386 . S
C643 C647 1.393 . S
C644 H633 0.950 . S
C644 C642 1.391 . S
C644 C645 1.400 . S
C645 C639 1.491 . S
C645 C644 1.400 . S
C645 C646 1.398 . S
C646 H634 0.950 . S
C646 C645 1.398 . S
C646 C647 1.391 . S
C647 H635 0.950 . S
C647 C643 1.393 . S
C647 C646 1.391 . S
H648 C656 0.950 . S
H649 C661 0.950 . S
H650 C658 0.950 . S
H651 C660 0.950 . S
H652 C662 0.950 . S
H653 C664 0.950 . S
H654 C666 0.950 . S
H655 C667 0.950 . S
C656 H648 0.950 . S
C656 C657 1.386 . S
C656 C658 1.391 . S
C657 C656 1.386 . S
C657 C661 1.393 . S
C658 H650 0.950 . S
C658 C656 1.391 . S
C658 C659 1.400 . S
C659 C658 1.400 . S
C659 C660 1.398 . S
C659 C665 1.491 . S
C660 H651 0.950 . S
C660 C659 1.398 . S
C660 C661 1.391 . S
C661 H649 0.950 . S
C661 C657 1.393 . S
C661 C660 1.391 . S
C662 H652 0.950 . S
C662 C663 1.386 . S
C662 C664 1.391 . S
C663 C662 1.386 . S
C663 C667 1.393 . S
C664 H653 0.950 . S
C664 C662 1.391 . S
C664 C665 1.400 . S
C665 C659 1.491 . S
C665 C664 1.400 . S
C665 C666 1.398 . S
C666 H654 0.950 . S
C666 C665 1.398 . S
C666 C667 1.391 . S
C667 H655 0.950 . S
C667 C663 1.393 . S
C667 C666 1.391 . S
H668 C676 0.950 . S
H669 C681 0.950 . S
H670 C678 0.950 . S
H671 C680 0.950 . S
H672 C682 0.950 . S
H673 C684 0.950 . S
H674 C686 0.950 . S
H675 C687 0.950 . S
C676 H668 0.950 . S
C676 C677 1.386 . S
C676 C678 1.391 . S
C677 C676 1.386 . S
C677 C681 1.393 . S
C678 H670 0.950 . S
C678 C676 1.391 . S
C678 C679 1.400 . S
C679 C678 1.400 . S
C679 C680 1.398 . S
C679 C685 1.491 . S
C680 H671 0.950 . S
C680 C679 1.398 . S
C680 C681 1.391 . S
C681 H669 0.950 . S
C681 C677 1.393 . S
C681 C680 1.391 . S
C682 H672 0.950 . S
C682 C683 1.386 . S
C682 C684 1.391 . S
C683 C682 1.386 . S
C683 C687 1.393 . S
C684 H673 0.950 . S
C684 C682 1.391 . S
C684 C685 1.400 . S
C685 C679 1.491 . S
C685 C684 1.400 . S
C685 C686 1.398 . S
C686 H674 0.950 . S
C686 C685 1.398 . S
C686 C687 1.391 . S
C687 H675 0.950 . S
C687 C683 1.393 . S
C687 C686 1.391 . S
H688 C696 0.950 . S
H689 C701 0.950 . S
H690 C698 0.950 . S
H691 C700 0.950 . S
H692 C702 0.950 . S
H693 C704 0.950 . S
H694 C706 0.950 . S
H695 C707 0.950 . S
C696 H688 0.950 . S
C696 C697 1.386 . S
C696 C698 1.391 . S
C697 C696 1.386 . S
C697 C701 1.393 . S
C698 H690 0.950 . S
C698 C696 1.391 . S
C698 C699 1.400 . S
C699 C698 1.400 . S
C699 C700 1.398 . S
C699 C705 1.491 . S
C700 H691 0.950 . S
C700 C699 1.398 . S
C700 C701 1.391 . S
C701 H689 0.950 . S
C701 C697 1.393 . S
C701 C700 1.391 . S
C702 H692 0.950 . S
C702 C703 1.386 . S
C702 C704 1.391 . S
C703 C702 1.386 . S
C703 C707 1.393 . S
C704 H693 0.950 . S
C704 C702 1.391 . S
C704 C705 1.400 . S
C705 C699 1.491 . S
C705 C704 1.400 . S
C705 C706 1.398 . S
C706 H694 0.950 . S
C706 C705 1.398 . S
C706 C707 1.391 . S
C707 H695 0.950 . S
C707 C703 1.393 . S
C707 C706 1.391 . S
H708 C716 0.950 . S
H709 C721 0.950 . S
H710 C718 0.950 . S
H711 C720 0.950 . S
H712 C722 0.950 . S
H713 C724 0.950 . S
H714 C726 0.950 . S
H715 C727 0.950 . S
C716 H708 0.950 . S
C716 C717 1.386 . S
C716 C718 1.391 . S
C717 C716 1.386 . S
C717 C721 1.393 . S
C718 H710 0.950 . S
C718 C716 1.391 . S
C718 C719 1.400 . S
C719 C718 1.400 . S
C719 C720 1.398 . S
C719 C725 1.491 . S
C720 H711 0.950 . S
C720 C719 1.398 . S
C720 C721 1.391 . S
C721 H709 0.950 . S
C721 C717 1.393 . S
C721 C720 1.391 . S
C722 H712 0.950 . S
C722 C723 1.386 . S
C722 C724 1.391 . S
C723 C722 1.386 . S
C723 C727 1.393 . S
C724 H713 0.950 . S
C724 C722 1.391 . S
C724 C725 1.400 . S
C725 C719 1.491 . S
C725 C724 1.400 . S
C725 C726 1.398 . S
C726 H714 0.950 . S
C726 C725 1.398 . S
C726 C727 1.391 . S
C727 H715 0.950 . S
C727 C723 1.393 . S
C727 C726 1.391 . S
H728 C736 0.950 . S
H729 C741 0.950 . S
H730 C738 0.950 . S
H731 C740 0.950 . S
H732 C742 0.950 . S
H733 C744 0.950 . S
H734 C746 0.950 . S
H735 C747 0.950 . S
C736 H728 0.950 . S
C736 C737 1.386 . S
C736 C738 1.391 . S
C737 C736 1.386 . S
C737 C741 1.393 . S
C738 H730 0.950 . S
C738 C736 1.391 . S
C738 C739 1.400 . S
C739 C738 1.400 . S
C739 C740 1.398 . S
C739 C745 1.491 . S
C740 H731 0.950 . S
C740 C739 1.398 . S
C740 C741 1.391 . S
C741 H729 0.950 . S
C741 C737 1.393 . S
C741 C740 1.391 . S
C742 H732 0.950 . S
C742 C743 1.386 . S
C742 C744 1.391 . S
C743 C742 1.386 . S
C743 C747 1.393 . S
C744 H733 0.950 . S
C744 C742 1.391 . S
C744 C745 1.400 . S
C745 C739 1.491 . S
C745 C744 1.400 . S
C745 C746 1.398 . S
C746 H734 0.950 . S
C746 C745 1.398 . S
C746 C747 1.391 . S
C747 H735 0.950 . S
C747 C743 1.393 . S
C747 C746 1.391 . S
H748 C756 0.950 . S
H749 C761 0.950 . S
H750 C758 0.950 . S
H751 C760 0.950 . S
H752 C762 0.950 . S
H753 C764 0.950 . S
H754 C766 0.950 . S
H755 C767 0.950 . S
C756 H748 0.950 . S
C756 C757 1.386 . S
C756 C758 1.391 . S
C757 C756 1.386 . S
C757 C761 1.393 . S
C758 H750 0.950 . S
C758 C756 1.391 . S
C758 C759 1.400 . S
C759 C758 1.400 . S
C759 C760 1.398 . S
C759 C765 1.491 . S
C760 H751 0.950 . S
C760 C759 1.398 . S
C760 C761 1.391 . S
C761 H749 0.950 . S
C761 C757 1.393 . S
C761 C760 1.391 . S
C762 H752 0.950 . S
C762 C763 1.386 . S
C762 C764 1.391 . S
C763 C762 1.386 . S
C763 C767 1.393 . S
C764 H753 0.950 . S
C764 C762 1.391 . S
C764 C765 1.400 . S
C765 C759 1.491 . S
C765 C764 1.400 . S
C765 C766 1.398 . S
C766 H754 0.950 . S
C766 C765 1.398 . S
C766 C767 1.391 . S
C767 H755 0.950 . S
C767 C763 1.393 . S
C767 C766 1.391 . S
H768 C776 0.950 . S
H769 C781 0.950 . S
H770 C778 0.950 . S
H771 C780 0.950 . S
H772 C782 0.950 . S
H773 C784 0.950 . S
H774 C786 0.950 . S
H775 C787 0.950 . S
C776 H768 0.950 . S
C776 C777 1.386 . S
C776 C778 1.391 . S
C777 C776 1.386 . S
C777 C781 1.393 . S
C778 H770 0.950 . S
C778 C776 1.391 . S
C778 C779 1.400 . S
C779 C778 1.400 . S
C779 C780 1.398 . S
C779 C785 1.491 . S
C780 H771 0.950 . S
C780 C779 1.398 . S
C780 C781 1.391 . S
C781 H769 0.950 . S
C781 C777 1.393 . S
C781 C780 1.391 . S
C782 H772 0.950 . S
C782 C783 1.386 . S
C782 C784 1.391 . S
C783 C782 1.386 . S
C783 C787 1.393 . S
C784 H773 0.950 . S
C784 C782 1.391 . S
C784 C785 1.400 . S
C785 C779 1.491 . S
C785 C784 1.400 . S
C785 C786 1.398 . S
C786 H774 0.950 . S
C786 C785 1.398 . S
C786 C787 1.391 . S
C787 H775 0.950 . S
C787 C783 1.393 . S
C787 C786 1.391 . S
H788 C796 0.950 . S
H789 C801 0.950 . S
H790 C798 0.950 . S
H791 C800 0.950 . S
H792 C802 0.950 . S
H793 C804 0.950 . S
H794 C806 0.950 . S
H795 C807 0.950 . S
C796 H788 0.950 . S
C796 C797 1.386 . S
C796 C798 1.391 . S
C797 C796 1.386 . S
C797 C801 1.393 . S
C798 H790 0.950 . S
C798 C796 1.391 . S
C798 C799 1.400 . S
C799 C798 1.400 . S
C799 C800 1.398 . S
C799 C805 1.491 . S
C800 H791 0.950 . S
C800 C799 1.398 . S
C800 C801 1.391 . S
C801 H789 0.950 . S
C801 C797 1.393 . S
C801 C800 1.391 . S
C802 H792 0.950 . S
C802 C803 1.386 . S
C802 C804 1.391 . S
C803 C802 1.386 . S
C803 C807 1.393 . S
C804 H793 0.950 . S
C804 C802 1.391 . S
C804 C805 1.400 . S
C805 C799 1.491 . S
C805 C804 1.400 . S
C805 C806 1.398 . S
C806 H794 0.950 . S
C806 C805 1.398 . S
C806 C807 1.391 . S
C807 H795 0.950 . S
C807 C803 1.393 . S
C807 C806 1.391 . S
H808 C816 0.950 . S
H809 C821 0.950 . S
H810 C818 0.950 . S
H811 C820 0.950 . S
H812 C822 0.950 . S
H813 C824 0.950 . S
H814 C826 0.950 . S
H815 C827 0.950 . S
C816 H808 0.950 . S
C816 C817 1.386 . S
C816 C818 1.391 . S
C817 C816 1.386 . S
C817 C821 1.393 . S
C818 H810 0.950 . S
C818 C816 1.391 . S
C818 C819 1.400 . S
C819 C818 1.400 . S
C819 C820 1.398 . S
C819 C825 1.491 . S
C820 H811 0.950 . S
C820 C819 1.398 . S
C820 C821 1.391 . S
C821 H809 0.950 . S
C821 C817 1.393 . S
C821 C820 1.391 . S
C822 H812 0.950 . S
C822 C823 1.386 . S
C822 C824 1.391 . S
C823 C822 1.386 . S
C823 C827 1.393 . S
C824 H813 0.950 . S
C824 C822 1.391 . S
C824 C825 1.400 . S
C825 C819 1.491 . S
C825 C824 1.400 . S
C825 C826 1.398 . S
C826 H814 0.950 . S
C826 C825 1.398 . S
C826 C827 1.391 . S
C827 H815 0.950 . S
C827 C823 1.393 . S
C827 C826 1.391 . S
H828 C836 0.950 . S
H829 C841 0.950 . S
H830 C838 0.950 . S
H831 C840 0.950 . S
H832 C842 0.950 . S
H833 C844 0.950 . S
H834 C846 0.950 . S
H835 C847 0.950 . S
C836 H828 0.950 . S
C836 C837 1.386 . S
C836 C838 1.391 . S
C837 C836 1.386 . S
C837 C841 1.393 . S
C838 H830 0.950 . S
C838 C836 1.391 . S
C838 C839 1.400 . S
C839 C838 1.400 . S
C839 C840 1.398 . S
C839 C845 1.491 . S
C840 H831 0.950 . S
C840 C839 1.398 . S
C840 C841 1.391 . S
C841 H829 0.950 . S
C841 C837 1.393 . S
C841 C840 1.391 . S
C842 H832 0.950 . S
C842 C843 1.386 . S
C842 C844 1.391 . S
C843 C842 1.386 . S
C843 C847 1.393 . S
C844 H833 0.950 . S
C844 C842 1.391 . S
C844 C845 1.400 . S
C845 C839 1.491 . S
C845 C844 1.400 . S
C845 C846 1.398 . S
C846 H834 0.950 . S
C846 C845 1.398 . S
C846 C847 1.391 . S
C847 H835 0.950 . S
C847 C843 1.393 . S
C847 C846 1.391 . S
H848 C856 0.950 . S
H849 C861 0.950 . S
H850 C858 0.950 . S
H851 C860 0.950 . S
H852 C862 0.950 . S
H853 C864 0.950 . S
H854 C866 0.950 . S
H855 C867 0.950 . S
C856 H848 0.950 . S
C856 C857 1.386 . S
C856 C858 1.391 . S
C857 C856 1.386 . S
C857 C861 1.393 . S
C858 H850 0.950 . S
C858 C856 1.391 . S
C858 C859 1.400 . S
C859 C858 1.400 . S
C859 C860 1.398 . S
C859 C865 1.491 . S
C860 H851 0.950 . S
C860 C859 1.398 . S
C860 C861 1.391 . S
C861 H849 0.950 . S
C861 C857 1.393 . S
C861 C860 1.391 . S
C862 H852 0.950 . S
C862 C863 1.386 . S
C862 C864 1.391 . S
C863 C862 1.386 . S
C863 C867 1.393 . S
C864 H853 0.950 . S
C864 C862 1.391 . S
C864 C865 1.400 . S
C865 C859 1.491 . S
C865 C864 1.400 . S
C865 C866 1.398 . S
C866 H854 0.950 . S
C866 C865 1.398 . S
C866 C867 1.391 . S
C867 H855 0.950 . S
C867 C863 1.393 . S
C867 C866 1.391 . S
H868 C876 0.950 . S
H869 C881 0.950 . S
H870 C878 0.950 . S
H871 C880 0.950 . S
H872 C882 0.950 . S
H873 C884 0.950 . S
H874 C886 0.950 . S
H875 C887 0.950 . S
C876 H868 0.950 . S
C876 C877 1.386 . S
C876 C878 1.391 . S
C877 C876 1.386 . S
C877 C881 1.393 . S
C878 H870 0.950 . S
C878 C876 1.391 . S
C878 C879 1.400 . S
C879 C878 1.400 . S
C879 C880 1.398 . S
C879 C885 1.491 . S
C880 H871 0.950 . S
C880 C879 1.398 . S
C880 C881 1.391 . S
C881 H869 0.950 . S
C881 C877 1.393 . S
C881 C880 1.391 . S
C882 H872 0.950 . S
C882 C883 1.386 . S
C882 C884 1.391 . S
C883 C882 1.386 . S
C883 C887 1.393 . S
C884 H873 0.950 . S
C884 C882 1.391 . S
C884 C885 1.400 . S
C885 C879 1.491 . S
C885 C884 1.400 . S
C885 C886 1.398 . S
C886 H874 0.950 . S
C886 C885 1.398 . S
C886 C887 1.391 . S
C887 H875 0.950 . S
C887 C883 1.393 . S
C887 C886 1.391 . S
H888 C896 0.950 . S
H889 C901 0.950 . S
H890 C898 0.950 . S
H891 C900 0.950 . S
H892 C902 0.950 . S
H893 C904 0.950 . S
H894 C906 0.950 . S
H895 C907 0.950 . S
C896 H888 0.950 . S
C896 C897 1.386 1_556 S
C896 C898 1.391 . S
C897 C896 1.386 1_554 S
C897 C901 1.393 . S
C898 H890 0.950 . S
C898 C896 1.391 . S
C898 C899 1.400 1_556 S
C899 C898 1.400 1_554 S
C899 C900 1.398 . S
C899 C905 1.490 1_554 S
C900 H891 0.950 . S
C900 C899 1.398 . S
C900 C901 1.391 . S
C901 H889 0.950 . S
C901 C897 1.393 . S
C901 C900 1.391 . S
C902 H892 0.950 . S
C902 C903 1.386 1_554 S
C902 C904 1.391 . S
C903 C902 1.386 1_556 S
C903 C907 1.393 . S
C904 H893 0.950 . S
C904 C902 1.391 . S
C904 C905 1.396 1_554 S
C905 C899 1.490 1_556 S
C905 C904 1.396 1_556 S
C905 C906 1.403 . S
C906 H894 0.950 . S
C906 C905 1.403 . S
C906 C907 1.391 . S
C907 H895 0.950 . S
C907 C903 1.393 . S
C907 C906 1.391 . S
H908 C916 0.950 . S
H909 C921 0.950 . S
H910 C918 0.950 . S
H911 C920 0.950 . S
H912 C922 0.950 . S
H913 C924 0.950 . S
H914 C926 0.950 . S
H915 C927 0.950 . S
C916 H908 0.950 . S
C916 C917 1.386 . S
C916 C918 1.391 . S
C917 C916 1.386 . S
C917 C921 1.393 . S
C918 H910 0.950 . S
C918 C916 1.391 . S
C918 C919 1.400 . S
C919 C918 1.400 . S
C919 C920 1.398 . S
C919 C925 1.491 . S
C920 H911 0.950 . S
C920 C919 1.398 . S
C920 C921 1.391 . S
C921 H909 0.950 . S
C921 C917 1.393 . S
C921 C920 1.391 . S
C922 H912 0.950 . S
C922 C923 1.386 . S
C922 C924 1.391 . S
C923 C922 1.386 . S
C923 C927 1.393 . S
C924 H913 0.950 . S
C924 C922 1.391 . S
C924 C925 1.400 . S
C925 C919 1.491 . S
C925 C924 1.400 . S
C925 C926 1.398 . S
C926 H914 0.950 . S
C926 C925 1.398 . S
C926 C927 1.391 . S
C927 H915 0.950 . S
C927 C923 1.393 . S
C927 C926 1.391 . S
H928 C936 0.950 . S
H929 C941 0.950 . S
H930 C938 0.950 . S
H931 C940 0.950 . S
H932 C942 0.950 . S
H933 C944 0.950 . S
H934 C946 0.950 . S
H935 C947 0.950 . S
C936 H928 0.950 . S
C936 C937 1.386 1_554 S
C936 C938 1.391 . S
C937 C936 1.386 1_556 S
C937 C941 1.393 . S
C938 H930 0.950 . S
C938 C936 1.391 . S
C938 C939 1.394 1_554 S
C939 C938 1.394 1_556 S
C939 C940 1.405 . S
C939 C945 1.490 1_556 S
C940 H931 0.950 . S
C940 C939 1.405 . S
C940 C941 1.391 . S
C941 H929 0.950 . S
C941 C937 1.393 . S
C941 C940 1.391 . S
C942 H932 0.950 . S
C942 C943 1.386 1_556 S
C942 C944 1.391 . S
C943 C942 1.386 1_554 S
C943 C947 1.393 . S
C944 H933 0.950 . S
C944 C942 1.391 . S
C944 C945 1.392 1_556 S
C945 C939 1.490 1_554 S
C945 C944 1.392 1_554 S
C945 C946 1.407 . S
C946 H934 0.950 . S
C946 C945 1.407 . S
C946 C947 1.391 . S
C947 H935 0.950 . S
C947 C943 1.393 . S
C947 C946 1.391 . S
H948 C956 0.950 . S
H949 C961 0.950 . S
H950 C958 0.950 . S
H951 C960 0.950 . S
H952 C962 0.950 . S
H953 C964 0.950 . S
H954 C966 0.950 . S
H955 C967 0.950 . S
C956 H948 0.950 . S
C956 C957 1.386 . S
C956 C958 1.391 . S
C957 C956 1.386 . S
C957 C961 1.393 . S
C958 H950 0.950 . S
C958 C956 1.391 . S
C958 C959 1.400 . S
C959 C958 1.400 . S
C959 C960 1.398 . S
C959 C965 1.491 . S
C960 H951 0.950 . S
C960 C959 1.398 . S
C960 C961 1.391 . S
C961 H949 0.950 . S
C961 C957 1.393 . S
C961 C960 1.391 . S
C962 H952 0.950 . S
C962 C963 1.386 . S
C962 C964 1.391 . S
C963 C962 1.386 . S
C963 C967 1.393 . S
C964 H953 0.950 . S
C964 C962 1.391 . S
C964 C965 1.400 . S
C965 C959 1.491 . S
C965 C964 1.400 . S
C965 C966 1.398 . S
C966 H954 0.950 . S
C966 C965 1.398 . S
C966 C967 1.391 . S
C967 H955 0.950 . S
C967 C963 1.393 . S
C967 C966 1.391 . S
H968 C976 0.950 . S
H969 C981 0.950 . S
H970 C978 0.950 . S
H971 C980 0.950 . S
H972 C982 0.950 . S
H973 C984 0.950 . S
H974 C986 0.950 . S
H975 C987 0.950 . S
C976 H968 0.950 . S
C976 C977 1.386 . S
C976 C978 1.391 . S
C977 C976 1.386 . S
C977 C981 1.393 . S
C978 H970 0.950 . S
C978 C976 1.391 . S
C978 C979 1.400 . S
C979 C978 1.400 . S
C979 C980 1.398 . S
C979 C985 1.491 . S
C980 H971 0.950 . S
C980 C979 1.398 . S
C980 C981 1.391 . S
C981 H969 0.950 . S
C981 C977 1.393 . S
C981 C980 1.391 . S
C982 H972 0.950 . S
C982 C983 1.386 . S
C982 C984 1.391 . S
C983 C982 1.386 . S
C983 C987 1.393 . S
C984 H973 0.950 . S
C984 C982 1.391 . S
C984 C985 1.400 . S
C985 C979 1.491 . S
C985 C984 1.400 . S
C985 C986 1.398 . S
C986 H974 0.950 . S
C986 C985 1.398 . S
C986 C987 1.391 . S
C987 H975 0.950 . S
C987 C983 1.393 . S
C987 C986 1.391 . S
H988 C996 0.950 . S
H989 C1001 0.950 . S
H990 C998 0.950 . S
H991 C1000 0.950 . S
H992 C1002 0.950 . S
H993 C1004 0.950 . S
H994 C1006 0.950 . S
H995 C1007 0.950 . S
C996 H988 0.950 . S
C996 C997 1.386 . S
C996 C998 1.391 . S
C997 C996 1.386 . S
C997 C1001 1.393 1_554 S
C998 H990 0.950 . S
C998 C996 1.391 . S
C998 C999 1.408 . S
C999 C998 1.408 . S
C999 C1000 1.391 1_554 S
C999 C1005 1.490 1_554 S
C1000 H991 0.950 . S
C1000 C999 1.391 1_556 S
C1000 C1001 1.391 . S
C1001 H989 0.950 . S
C1001 C997 1.393 1_556 S
C1001 C1000 1.391 . S
C1002 H992 0.950 . S
C1002 C1003 1.386 . S
C1002 C1004 1.391 . S
C1003 C1002 1.386 . S
C1003 C1007 1.393 1_556 S
C1004 H993 0.950 . S
C1004 C1002 1.391 . S
C1004 C1005 1.406 . S
C1005 C999 1.490 1_556 S
C1005 C1004 1.406 . S
C1005 C1006 1.393 1_556 S
C1006 H994 0.950 . S
C1006 C1005 1.393 1_554 S
C1006 C1007 1.391 . S
C1007 H995 0.950 . S
C1007 C1003 1.393 1_554 S
C1007 C1006 1.391 . S
H1008 C1016 0.950 . S
H1009 C1021 0.950 . S
H1010 C1018 0.950 . S
H1011 C1020 0.950 . S
H1012 C1022 0.950 . S
H1013 C1024 0.950 . S
H1014 C1026 0.950 . S
H1015 C1027 0.950 . S
C1016 H1008 0.950 . S
C1016 C1017 1.386 . S
C1016 C1018 1.391 . S
C1017 C1016 1.386 . S
C1017 C1021 1.393 . S
C1018 H1010 0.950 . S
C1018 C1016 1.391 . S
C1018 C1019 1.400 . S
C1019 C1018 1.400 . S
C1019 C1020 1.398 . S
C1019 C1025 1.491 . S
C1020 H1011 0.950 . S
C1020 C1019 1.398 . S
C1020 C1021 1.391 . S
C1021 H1009 0.950 . S
C1021 C1017 1.393 . S
C1021 C1020 1.391 . S
C1022 H1012 0.950 . S
C1022 C1023 1.386 . S
C1022 C1024 1.391 . S
C1023 C1022 1.386 . S
C1023 C1027 1.393 . S
C1024 H1013 0.950 . S
C1024 C1022 1.391 . S
C1024 C1025 1.400 . S
C1025 C1019 1.491 . S
C1025 C1024 1.400 . S
C1025 C1026 1.398 . S
C1026 H1014 0.950 . S
C1026 C1025 1.398 . S
C1026 C1027 1.391 . S
C1027 H1015 0.950 . S
C1027 C1023 1.393 . S
C1027 C1026 1.391 . S
H1028 C1036 0.950 . S
H1029 C1041 0.950 . S
H1030 C1038 0.950 . S
H1031 C1040 0.950 . S
H1032 C1042 0.950 . S
H1033 C1044 0.950 . S
H1034 C1046 0.950 . S
H1035 C1047 0.950 . S
C1036 H1028 0.950 . S
C1036 C1037 1.386 . S
C1036 C1038 1.391 . S
C1037 C1036 1.386 . S
C1037 C1041 1.393 1_554 S
C1038 H1030 0.950 . S
C1038 C1036 1.391 . S
C1038 C1039 1.410 . S
C1039 C1038 1.410 . S
C1039 C1040 1.389 1_554 S
C1039 C1045 1.490 1_554 S
C1040 H1031 0.950 . S
C1040 C1039 1.389 1_556 S
C1040 C1041 1.391 . S
C1041 H1029 0.950 . S
C1041 C1037 1.393 1_556 S
C1041 C1040 1.391 . S
C1042 H1032 0.950 . S
C1042 C1043 1.400 . S
C1042 C1044 1.391 . S
C1043 C1042 1.400 . S
C1043 C1047 1.379 1_556 S
C1044 H1033 0.950 . S
C1044 C1042 1.391 . S
C1044 C1045 1.406 . S
C1045 C1039 1.490 1_556 S
C1045 C1044 1.406 . S
C1045 C1046 1.392 1_556 S
C1046 H1034 0.950 . S
C1046 C1045 1.392 1_554 S
C1046 C1047 1.391 . S
C1047 H1035 0.950 . S
C1047 C1043 1.379 1_554 S
C1047 C1046 1.391 . S
C577 C5 1.473 . S
C583 C269 1.434 . S
C597 C31 1.470 . S
C603 C89 1.444 . S
C623 C168 1.430 . S
C617 C53 1.480 . S
C637 C71 1.471 . S
C643 C228 1.463 . S
C663 C389 1.436 . S
C657 C75 1.472 . S
C683 C468 1.469 . S
C677 C9 1.471 . S
C703 C539 1.459 . S
C697 C27 1.471 . S
C723 C329 1.443 . S
C717 C49 1.472 . S
C737 C51 1.482 . S
C743 C179 1.497 . S
C757 C72 1.473 . S
C763 C209 1.411 . S
C777 C6 1.480 . S
C783 C288 1.495 . S
C803 C108 1.493 . S
C797 C29 1.477 . S
C817 C28 1.483 . S
C823 C528 1.389 . S
C843 C348 1.494 . S
C837 C50 1.483 . S
C863 C408 1.494 . S
C857 C73 1.482 . S
C877 C7 1.484 . S
C883 C449 1.383 . S
C903 C119 1.481 . S
C897 C4 1.500 . S
C923 C149 1.482 . S
C917 C30 1.498 . S
C937 C52 1.498 1_556 S
C943 C239 1.454 . S
C957 C70 1.498 . S
C963 C299 1.496 . S
C983 C359 1.483 . S
C977 C74 1.496 . S
C997 C8 1.502 . S
C1003 C419 1.495 1_556 S
C1017 C26 1.496 . S
C1023 C479 1.470 . S
C1037 C48 1.503 . S
C1043 C509 1.450 . S
