# Generated by pormake.
# Topology anh, (6,3)-cn, num edge types: 1
# Building blocks:
#     Node 0, Type 0, BuildingBlock: MIFKUJ_clean_sbu_0, # of connection points: 6
#     Node 1, Type 0, BuildingBlock: MIFKUJ_clean_sbu_0, # of connection points: 6
#     Node 2, Type 0, BuildingBlock: MIFKUJ_clean_sbu_0, # of connection points: 6
#     Node 3, Type 1, BuildingBlock: CUQRIR_clean_linker_1, # of connection points: 3
#     Node 4, Type 1, BuildingBlock: CUQRIR_clean_linker_1, # of connection points: 3
#     Node 5, Type 1, BuildingBlock: CUQRIR_clean_linker_1, # of connection points: 3
#     Node 6, Type 1, BuildingBlock: CUQRIR_clean_linker_1, # of connection points: 3
#     Node 7, Type 1, BuildingBlock: CUQRIR_clean_linker_1, # of connection points: 3
#     Node 8, Type 1, BuildingBlock: CUQRIR_clean_linker_1, # of connection points: 3
#     Edge 9, Type (0, 1), BuildingBlock: KIFKEQ_clean_linker_1, # of connection points: 2
#     Edge 10, Type (0, 1), BuildingBlock: KIFKEQ_clean_linker_1, # of connection points: 2
#     Edge 11, Type (0, 1), BuildingBlock: KIFKEQ_clean_linker_1, # of connection points: 2
#     Edge 12, Type (0, 1), BuildingBlock: KIFKEQ_clean_linker_1, # of connection points: 2
#     Edge 13, Type (0, 1), BuildingBlock: KIFKEQ_clean_linker_1, # of connection points: 2
#     Edge 14, Type (0, 1), BuildingBlock: KIFKEQ_clean_linker_1, # of connection points: 2
#     Edge 15, Type (0, 1), BuildingBlock: KIFKEQ_clean_linker_1, # of connection points: 2
#     Edge 16, Type (0, 1), BuildingBlock: KIFKEQ_clean_linker_1, # of connection points: 2
#     Edge 17, Type (0, 1), BuildingBlock: KIFKEQ_clean_linker_1, # of connection points: 2
#     Edge 18, Type (0, 1), BuildingBlock: KIFKEQ_clean_linker_1, # of connection points: 2
#     Edge 19, Type (0, 1), BuildingBlock: KIFKEQ_clean_linker_1, # of connection points: 2
#     Edge 20, Type (0, 1), BuildingBlock: KIFKEQ_clean_linker_1, # of connection points: 2
#     Edge 21, Type (0, 1), BuildingBlock: KIFKEQ_clean_linker_1, # of connection points: 2
#     Edge 22, Type (0, 1), BuildingBlock: KIFKEQ_clean_linker_1, # of connection points: 2
#     Edge 23, Type (0, 1), BuildingBlock: KIFKEQ_clean_linker_1, # of connection points: 2
#     Edge 24, Type (0, 1), BuildingBlock: KIFKEQ_clean_linker_1, # of connection points: 2
#     Edge 25, Type (0, 1), BuildingBlock: KIFKEQ_clean_linker_1, # of connection points: 2
#     Edge 26, Type (0, 1), BuildingBlock: KIFKEQ_clean_linker_1, # of connection points: 2
# Relax obj value: 0.118
# Max RMSD: 0.214
# Mean RMSD: 0.153
data_MOF--net-anh--node1-MIFKUJ_clean_sbu_0--node2-CUQRIR_clean_linker_1--edge1-KIFKEQ_clean_linker_1
_symmetry_space_group_name_H-M    P1
_symmetry_Int_Tables_number       1
_symmetry_cell_setting            triclinic
loop_
_symmetry_equiv_pos_as_xyz
'x, y, z'
_cell_length_a     29.86101
_cell_length_b     29.909058
_cell_length_c     44.811464
_cell_angle_alpha  89.415899
_cell_angle_beta   90.930485
_cell_angle_gamma 120.01868
loop_
_atom_site_label
_atom_site_type_symbol
_atom_site_fract_x
_atom_site_fract_y
_atom_site_fract_z
_atom_type_partial_charge
Zn0 Zn 0.04711 0.52521 0.15555 0.0
Zn1 Zn 0.90007 0.41816 0.15885 0.0
C2 C 0.11519 0.48092 0.16024 0.0
O3 O 0.08039 0.44829 0.17886 0.0
C4 C 0.82105 0.43418 0.13437 0.0
O5 O 0.81266 0.39221 0.1204 0.0
O6 O 0.08001 0.60157 0.15959 0.0
O7 O 0.99483 0.50237 0.12259 0.0
O8 O 0.94021 0.41915 0.12244 0.0
C9 C 0.10205 0.62998 0.13714 0.0
O10 O 0.09773 0.6081 0.11117 0.0
O11 O 0.10702 0.51377 0.14659 0.0
C12 C 0.84564 0.31221 0.1814 0.0
O13 O 0.8862 0.3266 0.19895 0.0
O14 O 0.84457 0.3443 0.16304 0.0
O15 O 0.93719 0.43564 0.19918 0.0
O16 O 0.02032 0.49492 0.19554 0.0
O17 O 0.8603 0.45653 0.15176 0.0
C18 C 0.97791 0.45853 0.11071 0.0
C19 C 0.98173 0.46367 0.21091 0.0
Zn20 Zn 0.62592 0.0973 0.49508 0.0
Zn21 Zn 0.5896 0.95532 0.50433 0.0
C22 C 0.72461 0.18489 0.50017 0.0
O23 O 0.70133 0.18701 0.52431 0.0
C24 C 0.48845 0.88729 0.47733 0.0
O25 O 0.51539 0.89858 0.45274 0.0
O26 O 0.59252 0.14041 0.49546 0.0
O27 O 0.58426 0.04212 0.46527 0.0
O28 O 0.61773 0.9914 0.46449 0.0
C29 C 0.596 0.16793 0.47291 0.0
O30 O 0.62072 0.16655 0.44926 0.0
O31 O 0.70013 0.1466 0.48265 0.0
C32 C 0.6253 0.89168 0.53382 0.0
O33 O 0.62433 0.91523 0.55816 0.0
O34 O 0.61432 0.90448 0.50881 0.0
O35 O 0.60671 0.99508 0.54318 0.0
O36 O 0.62574 0.07633 0.53729 0.0
O37 O 0.51139 0.90885 0.50164 0.0
C38 C 0.60291 0.01922 0.45081 0.0
C39 C 0.6191 0.039 0.5539 0.0
Zn40 Zn 0.63584 0.59497 0.83448 0.0
Zn41 Zn 0.53966 0.6475 0.83942 0.0
C42 C 0.59206 0.49041 0.84812 0.0
O43 O 0.62061 0.51356 0.87179 0.0
C44 C 0.57023 0.74833 0.81089 0.0
O45 O 0.57227 0.72626 0.78615 0.0
O46 O 0.70427 0.59868 0.83156 0.0
O47 O 0.63015 0.64047 0.80306 0.0
O48 O 0.54814 0.61925 0.8003 0.0
C49 C 0.74283 0.62398 0.81473 0.0
O50 O 0.74339 0.6582 0.79592 0.0
O51 O 0.58748 0.51811 0.82783 0.0
C52 C 0.44981 0.62896 0.86943 0.0
O53 O 0.4855 0.66758 0.88515 0.0
O54 O 0.46362 0.61154 0.84784 0.0
O55 O 0.57293 0.63857 0.87691 0.0
O56 O 0.63078 0.61275 0.87664 0.0
O57 O 0.55973 0.72307 0.83526 0.0
C58 C 0.5883 0.62352 0.78819 0.0
C59 C 0.60407 0.62782 0.89055 0.0
C60 C 0.47121 0.96414 0.19104 0.0
N61 N 0.50963 0.98611 0.21169 0.0
N62 N 0.42904 0.92369 0.20303 0.0
C63 C 0.47442 0.98263 0.15938 0.0
C64 C 0.44317 0.92137 0.23159 0.0
N65 N 0.49252 0.95921 0.23683 0.0
C66 C 0.40838 0.88317 0.25455 0.0
H67 H 0.51472 0.00095 0.15126 0.0
H68 H 0.46174 0.01173 0.15854 0.0
H69 H 0.44873 0.95047 0.1443 0.0
H70 H 0.36705 0.86479 0.24788 0.0
H71 H 0.41413 0.90236 0.27647 0.0
H72 H 0.41849 0.85234 0.25721 0.0
C73 C 0.57001 0.5065 0.52759 0.0
N74 N 0.57566 0.53779 0.55066 0.0
N75 N 0.56013 0.45981 0.53781 0.0
C76 C 0.57574 0.52202 0.49521 0.0
C77 C 0.56072 0.46394 0.56787 0.0
N78 N 0.57041 0.51156 0.57572 0.0
C79 C 0.55314 0.4219 0.58944 0.0
H80 H 0.53896 0.51866 0.48695 0.0
H81 H 0.58427 0.49688 0.48126 0.0
H82 H 0.60683 0.56281 0.49253 0.0
H83 H 0.52779 0.38315 0.57973 0.0
H84 H 0.5361 0.4252 0.61054 0.0
H85 H 0.59128 0.42553 0.59462 0.0
C86 C 0.05933 0.54486 0.85346 0.0
N87 N 0.07823 0.52972 0.87665 0.0
N88 N 0.00832 0.52733 0.85692 0.0
C89 C 0.09039 0.5766 0.82738 0.0
C90 C 0.99693 0.50123 0.88316 0.0
N91 N 0.03936 0.50209 0.89499 0.0
C92 C 0.94615 0.48054 0.89902 0.0
H93 H 0.10921 0.61812 0.83325 0.0
H94 H 0.06511 0.56967 0.8075 0.0
H95 H 0.12104 0.56744 0.82195 0.0
H96 H 0.92168 0.43887 0.89382 0.0
H97 H 0.92509 0.50063 0.89177 0.0
H98 H 0.95198 0.48456 0.92356 0.0
C99 C 0.10236 0.53457 0.46901 0.0
N100 N 0.06779 0.49698 0.4505 0.0
N101 N 0.14279 0.57128 0.4533 0.0
C102 C 0.09594 0.53631 0.50208 0.0
C103 C 0.13181 0.55437 0.42477 0.0
N104 N 0.08654 0.50928 0.42311 0.0
C105 C 0.164 0.58343 0.39828 0.0
H106 H 0.07312 0.55556 0.50629 0.0
H107 H 0.13386 0.55863 0.51364 0.0
H108 H 0.07482 0.49669 0.51151 0.0
H109 H 0.20494 0.60954 0.40492 0.0
H110 H 0.14825 0.60693 0.38833 0.0
H111 H 0.16258 0.5566 0.38094 0.0
C112 C 0.5631 0.11333 0.8106 0.0
N113 N 0.57462 0.08586 0.79133 0.0
N114 N 0.56625 0.15545 0.79682 0.0
C115 C 0.54966 0.09964 0.84282 0.0
C116 C 0.58076 0.15301 0.76871 0.0
N117 N 0.58604 0.11102 0.76545 0.0
C118 C 0.59108 0.19218 0.7445 0.0
H119 H 0.50766 0.07159 0.84437 0.0
H120 H 0.55822 0.1341 0.85616 0.0
H121 H 0.57112 0.08133 0.85239 0.0
H122 H 0.63349 0.21776 0.74243 0.0
H123 H 0.57382 0.21654 0.74932 0.0
H124 H 0.57584 0.17253 0.72275 0.0
C125 C 0.5027 0.51584 0.14829 0.0
N126 N 0.53922 0.52745 0.12723 0.0
N127 N 0.46958 0.53227 0.13959 0.0
C128 C 0.49736 0.48565 0.17631 0.0
C129 C 0.48681 0.55366 0.11249 0.0
N130 N 0.52869 0.55043 0.10486 0.0
C131 C 0.45992 0.57389 0.09241 0.0
H132 H 0.50706 0.45502 0.17199 0.0
H133 H 0.45773 0.46811 0.18536 0.0
H134 H 0.52492 0.51209 0.19341 0.0
H135 H 0.44642 0.59611 0.10543 0.0
H136 H 0.42548 0.54075 0.082 0.0
H137 H 0.48577 0.59916 0.07457 0.0
H138 H 0.20233 0.55619 0.13341 0.0
H139 H 0.14427 0.41375 0.18322 0.0
H140 H 0.2883 0.56576 0.13384 0.0
H141 H 0.2307 0.42346 0.18351 0.0
H142 H 0.38278 0.4396 0.13908 0.0
H143 H 0.29471 0.42384 0.14652 0.0
H144 H 0.35773 0.58327 0.1721 0.0
H145 H 0.4454 0.59828 0.1647 0.0
C146 C 0.20776 0.52669 0.14428 0.0
C147 C 0.16633 0.4842 0.1583 0.0
C148 C 0.25721 0.53249 0.1448 0.0
C149 C 0.26642 0.49573 0.15908 0.0
C150 C 0.22478 0.45245 0.17238 0.0
C151 C 0.17531 0.44692 0.17218 0.0
C152 C 0.37747 0.47046 0.14743 0.0
C153 C 0.42038 0.51994 0.15165 0.0
C154 C 0.32727 0.46169 0.15147 0.0
C155 C 0.31931 0.50255 0.15943 0.0
C156 C 0.36262 0.55124 0.16551 0.0
C157 C 0.41268 0.55975 0.16173 0.0
H158 H 0.78043 0.20181 0.44881 0.0
H159 H 0.78709 0.26703 0.53545 0.0
H160 H 0.86392 0.27715 0.43661 0.0
H161 H 0.87045 0.34129 0.52359 0.0
H162 H 0.98832 0.49352 0.48048 0.0
H163 H 0.90575 0.41672 0.49227 0.0
H164 H 0.95572 0.32122 0.44862 0.0
H165 H 0.0381 0.39854 0.43685 0.0
C166 C 0.7999 0.23188 0.46535 0.0
C167 C 0.77689 0.22841 0.49305 0.0
C168 C 0.84785 0.27504 0.45841 0.0
C169 C 0.87384 0.31564 0.47903 0.0
C170 C 0.85118 0.3114 0.50692 0.0
C171 C 0.80341 0.26849 0.51381 0.0
C172 C 0.98167 0.45597 0.47382 0.0
C173 C 0.01955 0.45166 0.45812 0.0
C174 C 0.93445 0.41194 0.48049 0.0
C175 C 0.92403 0.36256 0.47154 0.0
C176 C 0.96206 0.35853 0.45559 0.0
C177 C 0.00926 0.40264 0.44895 0.0
H178 H 0.54506 0.79545 0.85433 0.0
H179 H 0.60608 0.8186 0.7652 0.0
H180 H 0.54803 0.87855 0.85147 0.0
H181 H 0.60915 0.90169 0.76246 0.0
H182 H 0.65422 0.07025 0.78043 0.0
H183 H 0.65583 0.98958 0.78632 0.0
H184 H 0.50141 0.91589 0.82181 0.0
H185 H 0.49962 0.99647 0.81504 0.0
C186 C 0.55956 0.81844 0.83423 0.0
C187 C 0.57536 0.80034 0.80998 0.0
C188 C 0.5609 0.86587 0.83254 0.0
C189 C 0.57872 0.89663 0.80673 0.0
C190 C 0.59562 0.87908 0.78276 0.0
C191 C 0.59367 0.83137 0.78429 0.0
C192 C 0.62068 0.03668 0.78942 0.0
C193 C 0.57677 0.0394 0.79723 0.0
C194 C 0.62156 0.99059 0.7928 0.0
C195 C 0.5787 0.94631 0.80446 0.0
C196 C 0.53524 0.94949 0.81306 0.0
C197 C 0.5342 0.99553 0.80931 0.0
H198 H 0.72465 0.38139 0.10961 0.0
H199 H 0.8283 0.52449 0.1544 0.0
H200 H 0.65776 0.40455 0.10826 0.0
H201 H 0.76166 0.54924 0.15178 0.0
H202 H 0.61261 0.55315 0.17001 0.0
H203 H 0.68202 0.53224 0.17158 0.0
H204 H 0.62992 0.45657 0.08598 0.0
H205 H 0.55861 0.47404 0.08598 0.0
C206 C 0.73353 0.41835 0.11876 0.0
C207 C 0.78203 0.45112 0.13207 0.0
C208 C 0.69503 0.43187 0.11782 0.0
C209 C 0.70396 0.47903 0.12975 0.0
C210 C 0.75287 0.51226 0.14273 0.0
C211 C 0.79134 0.49832 0.14403 0.0
C212 C 0.61591 0.5315 0.1518 0.0
C213 C 0.58041 0.51535 0.12786 0.0
C214 C 0.65613 0.52015 0.15241 0.0
C215 C 0.66204 0.49268 0.12888 0.0
C216 C 0.62649 0.47705 0.10478 0.0
C217 C 0.58595 0.48778 0.10446 0.0
H218 H 0.42997 0.83005 0.52463 0.0
H219 H 0.4228 0.84971 0.42939 0.0
H220 H 0.34203 0.75555 0.52299 0.0
H221 H 0.33506 0.77589 0.42786 0.0
H222 H 0.16364 0.66655 0.43754 0.0
H223 H 0.24488 0.74746 0.44637 0.0
H224 H 0.30167 0.66484 0.49976 0.0
H225 H 0.2204 0.58386 0.4903 0.0
C226 C 0.40936 0.81902 0.50344 0.0
C227 C 0.43339 0.84576 0.47711 0.0
C228 C 0.35917 0.77619 0.50251 0.0
C229 C 0.33163 0.75989 0.47532 0.0
C230 C 0.35505 0.7878 0.44921 0.0
C231 C 0.40543 0.82996 0.45006 0.0
C232 C 0.19323 0.66618 0.45166 0.0
C233 C 0.18602 0.61937 0.46338 0.0
C234 C 0.23971 0.71222 0.45657 0.0
C235 C 0.2798 0.71245 0.47358 0.0
C236 C 0.27134 0.66596 0.48677 0.0
C237 C 0.22493 0.61973 0.48151 0.0
H238 H 0.55203 0.43302 0.79689 0.0
H239 H 0.593 0.42227 0.88852 0.0
H240 H 0.53788 0.34642 0.78752 0.0
H241 H 0.57847 0.33598 0.87922 0.0
H242 H 0.62979 0.22776 0.83584 0.0
H243 H 0.62686 0.30482 0.85075 0.0
H244 H 0.48618 0.25275 0.79892 0.0
H245 H 0.48977 0.17567 0.78422 0.0
C246 C 0.55687 0.41181 0.81519 0.0
C247 C 0.5742 0.43487 0.84336 0.0
C248 C 0.5487 0.36211 0.80984 0.0
C249 C 0.55776 0.33454 0.83254 0.0
C250 C 0.57212 0.35652 0.86111 0.0
C251 C 0.58016 0.40596 0.86645 0.0
C252 C 0.59771 0.23245 0.82838 0.0
C253 C 0.55985 0.19609 0.80915 0.0
C254 C 0.5959 0.27643 0.8368 0.0
C255 C 0.5563 0.28507 0.82594 0.0
C256 C 0.51741 0.24753 0.80744 0.0
C257 C 0.5191 0.20334 0.79925 0.0
H258 H 0.64194 0.84858 0.58393 0.0
H259 H 0.61935 0.82896 0.48833 0.0
H260 H 0.6355 0.76403 0.58796 0.0
H261 H 0.61316 0.74485 0.49252 0.0
H262 H 0.52134 0.57314 0.52061 0.0
H263 H 0.54214 0.66296 0.51573 0.0
H264 H 0.67706 0.71091 0.57227 0.0
H265 H 0.65642 0.62056 0.57644 0.0
C266 C 0.63658 0.82674 0.56374 0.0
C267 C 0.63037 0.84511 0.53587 0.0
C268 C 0.63307 0.77846 0.56608 0.0
C269 C 0.62305 0.74778 0.5406 0.0
C270 C 0.62001 0.76749 0.51256 0.0
C271 C 0.62381 0.81574 0.51019 0.0
C272 C 0.5557 0.60311 0.53162 0.0
C273 C 0.58756 0.59053 0.54867 0.0
C274 C 0.56767 0.65431 0.52886 0.0
C275 C 0.61153 0.69381 0.54338 0.0
C276 C 0.64303 0.6811 0.5609 0.0
C277 C 0.63125 0.62973 0.56336 0.0
H278 H 0.74071 0.54137 0.84164 0.0
H279 H 0.83889 0.67665 0.78896 0.0
H280 H 0.8081 0.51903 0.84391 0.0
H281 H 0.9072 0.65367 0.79121 0.0
H282 H 0.02681 0.62429 0.84936 0.0
H283 H 0.96413 0.6493 0.83215 0.0
H284 H 0.85471 0.48963 0.81198 0.0
H285 H 0.91759 0.46514 0.82967 0.0
C286 C 0.77671 0.56636 0.8304 0.0
C287 C 0.78458 0.61108 0.81528 0.0
C288 C 0.81517 0.5531 0.8314 0.0
C289 C 0.86271 0.58424 0.81743 0.0
C290 C 0.8708 0.62893 0.80211 0.0
C291 C 0.83181 0.64206 0.80084 0.0
C292 C 0.98995 0.59507 0.84024 0.0
C293 C 0.97646 0.54291 0.84083 0.0
C294 C 0.95414 0.60925 0.8304 0.0
C295 C 0.90432 0.5713 0.82111 0.0
C296 C 0.89258 0.51958 0.81946 0.0
C297 C 0.92836 0.50551 0.82935 0.0
H298 H 0.12094 0.68671 0.18786 0.0
H299 H 0.17299 0.69657 0.0973 0.0
H300 H 0.19856 0.76799 0.19957 0.0
H301 H 0.25052 0.77848 0.10902 0.0
H302 H 0.40893 0.85153 0.16207 0.0
H303 H 0.32411 0.79004 0.14095 0.0
H304 H 0.25471 0.8618 0.19134 0.0
H305 H 0.34022 0.92305 0.21241 0.0
C306 C 0.14822 0.70696 0.17021 0.0
C307 C 0.14144 0.68466 0.14185 0.0
C308 C 0.1926 0.75375 0.17689 0.0
C309 C 0.23098 0.77906 0.15533 0.0
C310 C 0.2219 0.75922 0.12619 0.0
C311 C 0.17738 0.71247 0.11947 0.0
C312 C 0.37542 0.85434 0.16805 0.0
C313 C 0.38019 0.8911 0.18879 0.0
C314 C 0.3271 0.81969 0.15588 0.0
C315 C 0.28278 0.82124 0.16446 0.0
C316 C 0.28815 0.8596 0.18446 0.0
C317 C 0.33667 0.89443 0.19648 0.0
H318 H 0.62094 0.25096 0.43663 0.0
H319 H 0.53214 0.17094 0.51441 0.0
H320 H 0.60378 0.32143 0.4457 0.0
H321 H 0.51542 0.24123 0.52348 0.0
H322 H 0.47641 0.36684 0.52831 0.0
H323 H 0.47504 0.29204 0.5051 0.0
H324 H 0.63846 0.38579 0.48739 0.0
H325 H 0.63905 0.45984 0.51059 0.0
C326 C 0.59688 0.2479 0.45525 0.0
C327 C 0.57853 0.20591 0.4751 0.0
C328 C 0.58724 0.28826 0.46047 0.0
C329 C 0.55865 0.2869 0.4854 0.0
C330 C 0.53722 0.24313 0.50395 0.0
C331 C 0.54719 0.20308 0.4989 0.0
C332 C 0.5115 0.37111 0.51888 0.0
C333 C 0.55786 0.41824 0.5211 0.0
C334 C 0.51086 0.32871 0.50569 0.0
C335 C 0.55665 0.33321 0.49447 0.0
C336 C 0.60244 0.38139 0.49542 0.0
C337 C 0.60302 0.42355 0.50878 0.0
H338 H 0.36601 0.54729 0.84284 0.0
H339 H 0.40834 0.66634 0.90913 0.0
H340 H 0.27492 0.52037 0.84929 0.0
H341 H 0.3173 0.63917 0.91559 0.0
H342 H 0.16229 0.62438 0.87994 0.0
H343 H 0.25262 0.64508 0.88226 0.0
H344 H 0.20229 0.48224 0.8863 0.0
H345 H 0.11175 0.46208 0.8837 0.0
C346 C 0.35587 0.5673 0.85903 0.0
C347 C 0.39443 0.60926 0.87526 0.0
C348 C 0.30369 0.55166 0.86286 0.0
C349 C 0.2891 0.57787 0.88284 0.0
C350 C 0.32752 0.61864 0.8998 0.0
C351 C 0.37962 0.63405 0.89615 0.0
C352 C 0.17089 0.5933 0.88153 0.0
C353 C 0.13078 0.54179 0.88125 0.0
C354 C 0.22232 0.60497 0.88311 0.0
C355 C 0.23445 0.56521 0.8843 0.0
C356 C 0.19402 0.51359 0.8851 0.0
C357 C 0.14249 0.50202 0.88381 0.0
H358 H 0.76121 0.26792 0.14463 0.0
H359 H 0.82538 0.24016 0.22518 0.0
H360 H 0.6814 0.18673 0.15181 0.0
H361 H 0.74459 0.15904 0.23272 0.0
H362 H 0.60286 0.99442 0.22053 0.0
H363 H 0.68761 0.07175 0.21244 0.0
H364 H 0.61105 0.15693 0.18699 0.0
H365 H 0.52719 0.07961 0.19485 0.0
C366 C 0.75835 0.24438 0.16384 0.0
C367 C 0.7994 0.26066 0.18451 0.0
C368 C 0.71248 0.19798 0.16803 0.0
C369 C 0.70647 0.16694 0.19307 0.0
C370 C 0.74822 0.18211 0.21315 0.0
C371 C 0.79438 0.2286 0.20888 0.0
C372 C 0.60474 0.02995 0.21324 0.0
C373 C 0.55919 0.03149 0.20778 0.0
C374 C 0.65289 0.07403 0.2087 0.0
C375 C 0.6559 0.12017 0.19869 0.0
C376 C 0.60999 0.12163 0.19396 0.0
C377 C 0.56211 0.07766 0.19846 0.0
H378 H 0.91869 0.39539 0.06526 0.0
H379 H 0.07362 0.51572 0.08734 0.0
H380 H 0.94249 0.40079 0.01309 0.0
H381 H 0.09869 0.51958 0.03549 0.0
H382 H 0.09363 0.56975 0.93801 0.0
H383 H 0.08526 0.55306 0.99148 0.0
H384 H 0.98711 0.38969 0.97416 0.0
H385 H 0.99415 0.40789 0.92045 0.0
C386 C 0.95826 0.42206 0.05902 0.0
C387 C 0.9941 0.45582 0.08016 0.0
C388 C 0.97215 0.42501 0.02909 0.0
C389 C 0.02252 0.46114 0.0198 0.0
C390 C 0.05921 0.49231 0.04155 0.0
C391 C 0.04498 0.49003 0.07131 0.0
C392 C 0.07175 0.53024 0.94584 0.0
C393 C 0.04465 0.49003 0.92549 0.0
C394 C 0.0668 0.52042 0.97648 0.0
C395 C 0.03493 0.46993 0.98738 0.0
C396 C 0.01102 0.42916 0.9667 0.0
C397 C 0.01551 0.43925 0.93601 0.0
H398 H 0.55817 0.06146 0.41594 0.0
H399 H 0.63243 0.96935 0.41117 0.0
H400 H 0.53969 0.05034 0.363 0.0
H401 H 0.61576 0.95998 0.35738 0.0
H402 H 0.51025 0.89687 0.27285 0.0
H403 H 0.54476 0.91531 0.32385 0.0
H404 H 0.57281 0.07138 0.31471 0.0
H405 H 0.53449 0.05102 0.26471 0.0
C406 C 0.57132 0.03941 0.4035 0.0
C407 C 0.59632 0.01581 0.41793 0.0
C408 C 0.56114 0.03346 0.37292 0.0
C409 C 0.57625 0.00429 0.35575 0.0
C410 C 0.60288 0.98208 0.36997 0.0
C411 C 0.61271 0.98768 0.40077 0.0
C412 C 0.52386 0.93498 0.28196 0.0
C413 C 0.51923 0.97234 0.26521 0.0
C414 C 0.54431 0.9459 0.31097 0.0
C415 C 0.56113 0.99473 0.32362 0.0
C416 C 0.55921 0.03301 0.30599 0.0
C417 C 0.53798 0.02172 0.27721 0.0
H418 H 0.66944 0.64176 0.75272 0.0
H419 H 0.50339 0.57546 0.75142 0.0
H420 H 0.66653 0.6185 0.70056 0.0
H421 H 0.50028 0.55078 0.6995 0.0
H422 H 0.51617 0.55247 0.5987 0.0
H423 H 0.52223 0.58406 0.64967 0.0
H424 H 0.63927 0.54338 0.67077 0.0
H425 H 0.63458 0.51452 0.61944 0.0
C426 C 0.63228 0.62204 0.74135 0.0
C427 C 0.58665 0.61035 0.75629 0.0
C428 C 0.63057 0.60848 0.71145 0.0
C429 C 0.58314 0.58257 0.69582 0.0
C430 C 0.53756 0.57136 0.7107 0.0
C431 C 0.53931 0.58523 0.74055 0.0
C432 C 0.54341 0.55095 0.61433 0.0
C433 C 0.57461 0.53084 0.60551 0.0
C434 C 0.54663 0.56849 0.64351 0.0
C435 C 0.58104 0.566 0.66441 0.0
C436 C 0.61276 0.54643 0.65524 0.0
C437 C 0.6097 0.52928 0.62604 0.0
H438 H 0.58944 0.96557 0.59819 0.0
H439 H 0.65693 0.12988 0.58382 0.0
H440 H 0.58837 0.97867 0.65191 0.0
H441 H 0.65472 0.14261 0.63695 0.0
H442 H 0.67435 0.16116 0.73486 0.0
H443 H 0.69033 0.1397 0.68504 0.0
H444 H 0.53903 0.00249 0.68485 0.0
H445 H 0.52423 0.02409 0.73502 0.0
C446 C 0.60462 0.00448 0.60647 0.0
C447 C 0.62299 0.04663 0.58666 0.0
C448 C 0.60367 0.01192 0.63721 0.0
C449 C 0.62137 0.06165 0.64872 0.0
C450 C 0.64148 0.10386 0.62896 0.0
C451 C 0.64231 0.09646 0.59837 0.0
C452 C 0.6451 0.12614 0.72413 0.0
C453 C 0.59793 0.0945 0.7382 0.0
C454 C 0.65401 0.11384 0.69571 0.0
C455 C 0.61563 0.06979 0.68077 0.0
C456 C 0.56955 0.0365 0.69577 0.0
C457 C 0.56085 0.04879 0.72433 0.0
H458 H 0.66935 0.61321 0.92807 0.0
H459 H 0.539 0.63884 0.9279 0.0
H460 H 0.65984 0.59686 0.98198 0.0
H461 H 0.52961 0.62186 0.98135 0.0
H462 H 0.47972 0.49852 0.05575 0.0
H463 H 0.50719 0.52405 0.00423 0.0
H464 H 0.65283 0.64972 0.03607 0.0
H465 H 0.62431 0.62418 0.0881 0.0
C466 C 0.63939 0.61634 0.93954 0.0
C467 C 0.60454 0.62677 0.92359 0.0
C468 C 0.63418 0.60715 0.97033 0.0
C469 C 0.59381 0.60777 0.98546 0.0
C470 C 0.5609 0.62101 0.96994 0.0
C471 C 0.56641 0.63079 0.93936 0.0
C472 C 0.51793 0.53094 0.05159 0.0
C473 C 0.5499 0.55984 0.07545 0.0
C474 C 0.53351 0.54563 0.02233 0.0
C475 C 0.58167 0.58916 0.01645 0.0
C476 C 0.61544 0.61608 0.04027 0.0
C477 C 0.59942 0.60154 0.06979 0.0
H478 H 0.0736 0.49596 0.2396 0.0
H479 H 0.90921 0.42152 0.25529 0.0
H480 H 0.08959 0.49326 0.29259 0.0
H481 H 0.92561 0.4189 0.30899 0.0
H482 H 0.00368 0.51087 0.40045 0.0
H483 H 0.96963 0.48764 0.34925 0.0
H484 H 0.07518 0.43125 0.33377 0.0
H485 H 0.10901 0.45512 0.38489 0.0
C486 C 0.04074 0.47873 0.25436 0.0
C487 C 0.99012 0.45935 0.24322 0.0
C488 C 0.04993 0.47666 0.28476 0.0
C489 C 0.00882 0.45549 0.30493 0.0
C490 C 0.95799 0.43542 0.2939 0.0
C491 C 0.94866 0.43688 0.26322 0.0
C492 C 0.01813 0.49201 0.3862 0.0
C493 C 0.05905 0.4851 0.39603 0.0
C494 C 0.99877 0.47865 0.35703 0.0
C495 C 0.02036 0.45837 0.3374 0.0
C496 C 0.0584 0.44755 0.34828 0.0
C497 C 0.07757 0.46085 0.3774 0.0
loop_
_geom_bond_atom_site_label_1
_geom_bond_atom_site_label_2
_geom_bond_distance
_geom_bond_site_symmetry_2
_ccdc_geom_bond_type
Zn0 O6 1.969 . S
Zn0 O7 1.965 . S
Zn0 O11 2.024 . S
Zn0 O16 1.969 . S
Zn1 O8 1.969 . S
Zn1 O14 1.969 . S
Zn1 O15 1.965 . S
Zn1 O17 2.024 . S
C2 O3 1.229 . S
C2 O11 1.058 . S
O3 C2 1.229 . S
C4 O5 1.229 . S
C4 O17 1.058 . S
O5 C4 1.229 . S
O6 Zn0 1.969 . S
O6 C9 1.267 . S
O7 Zn0 1.965 . S
O7 C18 1.260 1_455 S
O8 Zn1 1.969 . S
O8 C18 1.258 . S
C9 O6 1.267 . S
C9 O10 1.228 . S
O10 C9 1.228 . S
O11 Zn0 2.024 . S
O11 C2 1.058 . S
C12 O13 1.228 . S
C12 O14 1.267 . S
O13 C12 1.228 . S
O14 Zn1 1.969 . S
O14 C12 1.267 . S
O15 Zn1 1.965 . S
O15 C19 1.260 1_655 S
O16 Zn0 1.969 . S
O16 C19 1.258 . S
O17 Zn1 2.024 . S
O17 C4 1.058 . S
C18 O7 1.260 1_655 S
C18 O8 1.258 . S
C19 O15 1.260 1_455 S
C19 O16 1.258 . S
Zn20 O26 1.969 . S
Zn20 O27 1.965 . S
Zn20 O31 2.024 . S
Zn20 O36 1.969 . S
Zn21 O28 1.969 . S
Zn21 O34 1.969 . S
Zn21 O35 1.965 . S
Zn21 O37 2.024 . S
C22 O23 1.229 . S
C22 O31 1.058 . S
O23 C22 1.229 . S
C24 O25 1.229 . S
C24 O37 1.058 . S
O25 C24 1.229 . S
O26 Zn20 1.969 . S
O26 C29 1.267 . S
O27 Zn20 1.965 . S
O27 C38 1.260 . S
O28 Zn21 1.969 . S
O28 C38 1.258 1_565 S
C29 O26 1.267 . S
C29 O30 1.228 . S
O30 C29 1.228 . S
O31 Zn20 2.024 . S
O31 C22 1.058 . S
C32 O33 1.228 . S
C32 O34 1.267 . S
O33 C32 1.228 . S
O34 Zn21 1.969 . S
O34 C32 1.267 . S
O35 Zn21 1.965 . S
O35 C39 1.260 1_565 S
O36 Zn20 1.969 . S
O36 C39 1.258 . S
O37 Zn21 2.024 . S
O37 C24 1.058 . S
C38 O27 1.260 . S
C38 O28 1.258 1_545 S
C39 O35 1.260 1_545 S
C39 O36 1.258 . S
Zn40 O46 1.969 . S
Zn40 O47 1.965 . S
Zn40 O51 2.024 . S
Zn40 O56 1.969 . S
Zn41 O48 1.969 . S
Zn41 O54 1.969 . S
Zn41 O55 1.965 . S
Zn41 O57 2.024 . S
C42 O43 1.229 . S
C42 O51 1.058 . S
O43 C42 1.229 . S
C44 O45 1.229 . S
C44 O57 1.058 . S
O45 C44 1.229 . S
O46 Zn40 1.969 . S
O46 C49 1.267 . S
O47 Zn40 1.965 . S
O47 C58 1.260 . S
O48 Zn41 1.969 . S
O48 C58 1.258 . S
C49 O46 1.267 . S
C49 O50 1.228 . S
O50 C49 1.228 . S
O51 Zn40 2.024 . S
O51 C42 1.058 . S
C52 O53 1.228 . S
C52 O54 1.267 . S
O53 C52 1.228 . S
O54 Zn41 1.969 . S
O54 C52 1.267 . S
O55 Zn41 1.965 . S
O55 C59 1.260 . S
O56 Zn40 1.969 . S
O56 C59 1.258 . S
O57 Zn41 2.024 . S
O57 C44 1.058 . S
C58 O47 1.260 . S
C58 O48 1.258 . S
C59 O55 1.260 . S
C59 O56 1.258 . S
C60 N61 1.317 . S
C60 N62 1.348 1_545 S
C60 C63 1.485 . S
N61 C60 1.317 . S
N61 N65 1.370 . S
N62 C60 1.348 1_565 S
N62 C64 1.346 . S
C63 C60 1.485 . S
C63 H67 0.960 . S
C63 H68 0.961 1_545 S
C63 H69 0.960 . S
C64 N62 1.346 . S
C64 N65 1.307 1_565 S
C64 C66 1.486 . S
N65 N61 1.370 . S
N65 C64 1.307 1_545 S
C66 C64 1.486 . S
C66 H70 0.960 . S
C66 H71 0.960 . S
C66 H72 0.959 . S
H67 C63 0.960 . S
H68 C63 0.961 1_565 S
H69 C63 0.960 . S
H70 C66 0.960 . S
H71 C66 0.960 . S
H72 C66 0.959 . S
C73 N74 1.317 . S
C73 N75 1.348 . S
C73 C76 1.485 . S
N74 C73 1.317 . S
N74 N78 1.370 . S
N75 C73 1.348 . S
N75 C77 1.346 . S
C76 C73 1.485 . S
C76 H80 0.960 . S
C76 H81 0.961 . S
C76 H82 0.960 . S
C77 N75 1.346 . S
C77 N78 1.307 . S
C77 C79 1.486 . S
N78 N74 1.370 . S
N78 C77 1.307 . S
C79 C77 1.486 . S
C79 H83 0.960 . S
C79 H84 0.960 . S
C79 H85 0.959 . S
H80 C76 0.960 . S
H81 C76 0.961 . S
H82 C76 0.960 . S
H83 C79 0.960 . S
H84 C79 0.960 . S
H85 C79 0.959 . S
C86 N87 1.317 . S
C86 N88 1.348 . S
C86 C89 1.485 . S
N87 C86 1.317 . S
N87 N91 1.370 . S
N88 C86 1.348 . S
N88 C90 1.346 . S
C89 C86 1.485 . S
C89 H93 0.960 . S
C89 H94 0.961 . S
C89 H95 0.960 . S
C90 N88 1.346 . S
C90 N91 1.307 . S
C90 C92 1.486 1_455 S
N91 N87 1.370 . S
N91 C90 1.307 . S
C92 C90 1.486 1_655 S
C92 H96 0.960 . S
C92 H97 0.960 . S
C92 H98 0.959 . S
H93 C89 0.960 . S
H94 C89 0.961 . S
H95 C89 0.960 . S
H96 C92 0.960 . S
H97 C92 0.960 . S
H98 C92 0.959 . S
C99 N100 1.317 . S
C99 N101 1.348 . S
C99 C102 1.485 . S
N100 C99 1.317 . S
N100 N104 1.370 . S
N101 C99 1.348 . S
N101 C103 1.346 . S
C102 C99 1.485 . S
C102 H106 0.960 . S
C102 H107 0.961 . S
C102 H108 0.960 . S
C103 N101 1.346 . S
C103 N104 1.307 . S
C103 C105 1.486 . S
N104 N100 1.370 . S
N104 C103 1.307 . S
C105 C103 1.486 . S
C105 H109 0.960 . S
C105 H110 0.960 . S
C105 H111 0.959 . S
H106 C102 0.960 . S
H107 C102 0.961 . S
H108 C102 0.960 . S
H109 C105 0.960 . S
H110 C105 0.960 . S
H111 C105 0.959 . S
C112 N113 1.317 . S
C112 N114 1.348 . S
C112 C115 1.485 . S
N113 C112 1.317 . S
N113 N117 1.370 . S
N114 C112 1.348 . S
N114 C116 1.346 . S
C115 C112 1.485 . S
C115 H119 0.960 . S
C115 H120 0.961 . S
C115 H121 0.960 . S
C116 N114 1.346 . S
C116 N117 1.307 . S
C116 C118 1.486 . S
N117 N113 1.370 . S
N117 C116 1.307 . S
C118 C116 1.486 . S
C118 H122 0.960 . S
C118 H123 0.960 . S
C118 H124 0.959 . S
H119 C115 0.960 . S
H120 C115 0.961 . S
H121 C115 0.960 . S
H122 C118 0.960 . S
H123 C118 0.960 . S
H124 C118 0.959 . S
C125 N126 1.317 . S
C125 N127 1.348 . S
C125 C128 1.485 . S
N126 C125 1.317 . S
N126 N130 1.370 . S
N127 C125 1.348 . S
N127 C129 1.346 . S
C128 C125 1.485 . S
C128 H132 0.960 . S
C128 H133 0.961 . S
C128 H134 0.960 . S
C129 N127 1.346 . S
C129 N130 1.307 . S
C129 C131 1.486 . S
N130 N126 1.370 . S
N130 C129 1.307 . S
C131 C129 1.486 . S
C131 H135 0.960 . S
C131 H136 0.960 . S
C131 H137 0.959 . S
H132 C128 0.960 . S
H133 C128 0.961 . S
H134 C128 0.960 . S
H135 C131 0.960 . S
H136 C131 0.960 . S
H137 C131 0.959 . S
H138 C146 0.950 . S
H139 C151 0.950 . S
H140 C148 0.950 . S
H141 C150 0.950 . S
H142 C152 0.950 . S
H143 C154 0.950 . S
H144 C156 0.950 . S
H145 C157 0.950 . S
C146 H138 0.950 . S
C146 C147 1.386 . S
C146 C148 1.391 . S
C147 C146 1.386 . S
C147 C151 1.393 . S
C148 H140 0.950 . S
C148 C146 1.391 . S
C148 C149 1.400 . S
C149 C148 1.400 . S
C149 C150 1.398 . S
C149 C155 1.491 . S
C150 H141 0.950 . S
C150 C149 1.398 . S
C150 C151 1.391 . S
C151 H139 0.950 . S
C151 C147 1.393 . S
C151 C150 1.391 . S
C152 H142 0.950 . S
C152 C153 1.386 . S
C152 C154 1.391 . S
C153 C152 1.386 . S
C153 C157 1.393 . S
C154 H143 0.950 . S
C154 C152 1.391 . S
C154 C155 1.400 . S
C155 C149 1.491 . S
C155 C154 1.400 . S
C155 C156 1.398 . S
C156 H144 0.950 . S
C156 C155 1.398 . S
C156 C157 1.391 . S
C157 H145 0.950 . S
C157 C153 1.393 . S
C157 C156 1.391 . S
H158 C166 0.950 . S
H159 C171 0.950 . S
H160 C168 0.950 . S
H161 C170 0.950 . S
H162 C172 0.950 . S
H163 C174 0.950 . S
H164 C176 0.950 . S
H165 C177 0.950 1_455 S
C166 H158 0.950 . S
C166 C167 1.386 . S
C166 C168 1.391 . S
C167 C166 1.386 . S
C167 C171 1.393 . S
C168 H160 0.950 . S
C168 C166 1.391 . S
C168 C169 1.400 . S
C169 C168 1.400 . S
C169 C170 1.398 . S
C169 C175 1.491 . S
C170 H161 0.950 . S
C170 C169 1.398 . S
C170 C171 1.391 . S
C171 H159 0.950 . S
C171 C167 1.393 . S
C171 C170 1.391 . S
C172 H162 0.950 . S
C172 C173 1.396 . S
C172 C174 1.391 . S
C173 C172 1.396 . S
C173 C177 1.387 . S
C174 H163 0.950 . S
C174 C172 1.391 . S
C174 C175 1.400 . S
C175 C169 1.491 . S
C175 C174 1.400 . S
C175 C176 1.398 . S
C176 H164 0.950 . S
C176 C175 1.398 . S
C176 C177 1.391 . S
C177 H165 0.950 1_655 S
C177 C173 1.387 . S
C177 C176 1.391 . S
H178 C186 0.950 . S
H179 C191 0.950 . S
H180 C188 0.950 . S
H181 C190 0.950 . S
H182 C192 0.950 . S
H183 C194 0.950 . S
H184 C196 0.950 . S
H185 C197 0.950 . S
C186 H178 0.950 . S
C186 C187 1.386 . S
C186 C188 1.391 . S
C187 C186 1.386 . S
C187 C191 1.393 . S
C188 H180 0.950 . S
C188 C186 1.391 . S
C188 C189 1.400 . S
C189 C188 1.400 . S
C189 C190 1.398 . S
C189 C195 1.491 . S
C190 H181 0.950 . S
C190 C189 1.398 . S
C190 C191 1.391 . S
C191 H179 0.950 . S
C191 C187 1.393 . S
C191 C190 1.391 . S
C192 H182 0.950 . S
C192 C193 1.386 . S
C192 C194 1.391 . S
C193 C192 1.386 . S
C193 C197 1.393 . S
C194 H183 0.950 . S
C194 C192 1.391 . S
C194 C195 1.400 . S
C195 C189 1.491 . S
C195 C194 1.400 . S
C195 C196 1.398 . S
C196 H184 0.950 . S
C196 C195 1.398 . S
C196 C197 1.391 . S
C197 H185 0.950 . S
C197 C193 1.393 . S
C197 C196 1.391 . S
H198 C206 0.950 . S
H199 C211 0.950 . S
H200 C208 0.950 . S
H201 C210 0.950 . S
H202 C212 0.950 . S
H203 C214 0.950 . S
H204 C216 0.950 . S
H205 C217 0.950 . S
C206 H198 0.950 . S
C206 C207 1.386 . S
C206 C208 1.391 . S
C207 C206 1.386 . S
C207 C211 1.393 . S
C208 H200 0.950 . S
C208 C206 1.391 . S
C208 C209 1.400 . S
C209 C208 1.400 . S
C209 C210 1.398 . S
C209 C215 1.491 . S
C210 H201 0.950 . S
C210 C209 1.398 . S
C210 C211 1.391 . S
C211 H199 0.950 . S
C211 C207 1.393 . S
C211 C210 1.391 . S
C212 H202 0.950 . S
C212 C213 1.386 . S
C212 C214 1.391 . S
C213 C212 1.386 . S
C213 C217 1.393 . S
C214 H203 0.950 . S
C214 C212 1.391 . S
C214 C215 1.400 . S
C215 C209 1.491 . S
C215 C214 1.400 . S
C215 C216 1.398 . S
C216 H204 0.950 . S
C216 C215 1.398 . S
C216 C217 1.391 . S
C217 H205 0.950 . S
C217 C213 1.393 . S
C217 C216 1.391 . S
H218 C226 0.950 . S
H219 C231 0.950 . S
H220 C228 0.950 . S
H221 C230 0.950 . S
H222 C232 0.950 . S
H223 C234 0.950 . S
H224 C236 0.950 . S
H225 C237 0.950 . S
C226 H218 0.950 . S
C226 C227 1.386 . S
C226 C228 1.391 . S
C227 C226 1.386 . S
C227 C231 1.393 . S
C228 H220 0.950 . S
C228 C226 1.391 . S
C228 C229 1.400 . S
C229 C228 1.400 . S
C229 C230 1.398 . S
C229 C235 1.491 . S
C230 H221 0.950 . S
C230 C229 1.398 . S
C230 C231 1.391 . S
C231 H219 0.950 . S
C231 C227 1.393 . S
C231 C230 1.391 . S
C232 H222 0.950 . S
C232 C233 1.386 . S
C232 C234 1.391 . S
C233 C232 1.386 . S
C233 C237 1.393 . S
C234 H223 0.950 . S
C234 C232 1.391 . S
C234 C235 1.400 . S
C235 C229 1.491 . S
C235 C234 1.400 . S
C235 C236 1.398 . S
C236 H224 0.950 . S
C236 C235 1.398 . S
C236 C237 1.391 . S
C237 H225 0.950 . S
C237 C233 1.393 . S
C237 C236 1.391 . S
H238 C246 0.950 . S
H239 C251 0.950 . S
H240 C248 0.950 . S
H241 C250 0.950 . S
H242 C252 0.950 . S
H243 C254 0.950 . S
H244 C256 0.950 . S
H245 C257 0.950 . S
C246 H238 0.950 . S
C246 C247 1.386 . S
C246 C248 1.391 . S
C247 C246 1.386 . S
C247 C251 1.393 . S
C248 H240 0.950 . S
C248 C246 1.391 . S
C248 C249 1.400 . S
C249 C248 1.400 . S
C249 C250 1.398 . S
C249 C255 1.491 . S
C250 H241 0.950 . S
C250 C249 1.398 . S
C250 C251 1.391 . S
C251 H239 0.950 . S
C251 C247 1.393 . S
C251 C250 1.391 . S
C252 H242 0.950 . S
C252 C253 1.386 . S
C252 C254 1.391 . S
C253 C252 1.386 . S
C253 C257 1.393 . S
C254 H243 0.950 . S
C254 C252 1.391 . S
C254 C255 1.400 . S
C255 C249 1.491 . S
C255 C254 1.400 . S
C255 C256 1.398 . S
C256 H244 0.950 . S
C256 C255 1.398 . S
C256 C257 1.391 . S
C257 H245 0.950 . S
C257 C253 1.393 . S
C257 C256 1.391 . S
H258 C266 0.950 . S
H259 C271 0.950 . S
H260 C268 0.950 . S
H261 C270 0.950 . S
H262 C272 0.950 . S
H263 C274 0.950 . S
H264 C276 0.950 . S
H265 C277 0.950 . S
C266 H258 0.950 . S
C266 C267 1.386 . S
C266 C268 1.391 . S
C267 C266 1.386 . S
C267 C271 1.393 . S
C268 H260 0.950 . S
C268 C266 1.391 . S
C268 C269 1.400 . S
C269 C268 1.400 . S
C269 C270 1.398 . S
C269 C275 1.491 . S
C270 H261 0.950 . S
C270 C269 1.398 . S
C270 C271 1.391 . S
C271 H259 0.950 . S
C271 C267 1.393 . S
C271 C270 1.391 . S
C272 H262 0.950 . S
C272 C273 1.386 . S
C272 C274 1.391 . S
C273 C272 1.386 . S
C273 C277 1.393 . S
C274 H263 0.950 . S
C274 C272 1.391 . S
C274 C275 1.400 . S
C275 C269 1.491 . S
C275 C274 1.400 . S
C275 C276 1.398 . S
C276 H264 0.950 . S
C276 C275 1.398 . S
C276 C277 1.391 . S
C277 H265 0.950 . S
C277 C273 1.393 . S
C277 C276 1.391 . S
H278 C286 0.950 . S
H279 C291 0.950 . S
H280 C288 0.950 . S
H281 C290 0.950 . S
H282 C292 0.950 1_455 S
H283 C294 0.950 . S
H284 C296 0.950 . S
H285 C297 0.950 . S
C286 H278 0.950 . S
C286 C287 1.386 . S
C286 C288 1.391 . S
C287 C286 1.386 . S
C287 C291 1.393 . S
C288 H280 0.950 . S
C288 C286 1.391 . S
C288 C289 1.400 . S
C289 C288 1.400 . S
C289 C290 1.398 . S
C289 C295 1.491 . S
C290 H281 0.950 . S
C290 C289 1.398 . S
C290 C291 1.391 . S
C291 H279 0.950 . S
C291 C287 1.393 . S
C291 C290 1.391 . S
C292 H282 0.950 1_655 S
C292 C293 1.386 . S
C292 C294 1.391 . S
C293 C292 1.386 . S
C293 C297 1.393 . S
C294 H283 0.950 . S
C294 C292 1.391 . S
C294 C295 1.400 . S
C295 C289 1.491 . S
C295 C294 1.400 . S
C295 C296 1.398 . S
C296 H284 0.950 . S
C296 C295 1.398 . S
C296 C297 1.391 . S
C297 H285 0.950 . S
C297 C293 1.393 . S
C297 C296 1.391 . S
H298 C306 0.950 . S
H299 C311 0.950 . S
H300 C308 0.950 . S
H301 C310 0.950 . S
H302 C312 0.950 . S
H303 C314 0.950 . S
H304 C316 0.950 . S
H305 C317 0.950 . S
C306 H298 0.950 . S
C306 C307 1.386 . S
C306 C308 1.391 . S
C307 C306 1.386 . S
C307 C311 1.393 . S
C308 H300 0.950 . S
C308 C306 1.391 . S
C308 C309 1.400 . S
C309 C308 1.400 . S
C309 C310 1.398 . S
C309 C315 1.491 . S
C310 H301 0.950 . S
C310 C309 1.398 . S
C310 C311 1.391 . S
C311 H299 0.950 . S
C311 C307 1.393 . S
C311 C310 1.391 . S
C312 H302 0.950 . S
C312 C313 1.386 . S
C312 C314 1.391 . S
C313 C312 1.386 . S
C313 C317 1.393 . S
C314 H303 0.950 . S
C314 C312 1.391 . S
C314 C315 1.400 . S
C315 C309 1.491 . S
C315 C314 1.400 . S
C315 C316 1.398 . S
C316 H304 0.950 . S
C316 C315 1.398 . S
C316 C317 1.391 . S
C317 H305 0.950 . S
C317 C313 1.393 . S
C317 C316 1.391 . S
H318 C326 0.950 . S
H319 C331 0.950 . S
H320 C328 0.950 . S
H321 C330 0.950 . S
H322 C332 0.950 . S
H323 C334 0.950 . S
H324 C336 0.950 . S
H325 C337 0.950 . S
C326 H318 0.950 . S
C326 C327 1.386 . S
C326 C328 1.391 . S
C327 C326 1.386 . S
C327 C331 1.393 . S
C328 H320 0.950 . S
C328 C326 1.391 . S
C328 C329 1.400 . S
C329 C328 1.400 . S
C329 C330 1.398 . S
C329 C335 1.491 . S
C330 H321 0.950 . S
C330 C329 1.398 . S
C330 C331 1.391 . S
C331 H319 0.950 . S
C331 C327 1.393 . S
C331 C330 1.391 . S
C332 H322 0.950 . S
C332 C333 1.386 . S
C332 C334 1.391 . S
C333 C332 1.386 . S
C333 C337 1.393 . S
C334 H323 0.950 . S
C334 C332 1.391 . S
C334 C335 1.400 . S
C335 C329 1.491 . S
C335 C334 1.400 . S
C335 C336 1.398 . S
C336 H324 0.950 . S
C336 C335 1.398 . S
C336 C337 1.391 . S
C337 H325 0.950 . S
C337 C333 1.393 . S
C337 C336 1.391 . S
H338 C346 0.950 . S
H339 C351 0.950 . S
H340 C348 0.950 . S
H341 C350 0.950 . S
H342 C352 0.950 . S
H343 C354 0.950 . S
H344 C356 0.950 . S
H345 C357 0.950 . S
C346 H338 0.950 . S
C346 C347 1.386 . S
C346 C348 1.391 . S
C347 C346 1.386 . S
C347 C351 1.393 . S
C348 H340 0.950 . S
C348 C346 1.391 . S
C348 C349 1.400 . S
C349 C348 1.400 . S
C349 C350 1.398 . S
C349 C355 1.491 . S
C350 H341 0.950 . S
C350 C349 1.398 . S
C350 C351 1.391 . S
C351 H339 0.950 . S
C351 C347 1.393 . S
C351 C350 1.391 . S
C352 H342 0.950 . S
C352 C353 1.386 . S
C352 C354 1.391 . S
C353 C352 1.386 . S
C353 C357 1.393 . S
C354 H343 0.950 . S
C354 C352 1.391 . S
C354 C355 1.400 . S
C355 C349 1.491 . S
C355 C354 1.400 . S
C355 C356 1.398 . S
C356 H344 0.950 . S
C356 C355 1.398 . S
C356 C357 1.391 . S
C357 H345 0.950 . S
C357 C353 1.393 . S
C357 C356 1.391 . S
H358 C366 0.950 . S
H359 C371 0.950 . S
H360 C368 0.950 . S
H361 C370 0.950 . S
H362 C372 0.950 . S
H363 C374 0.950 . S
H364 C376 0.950 . S
H365 C377 0.950 . S
C366 H358 0.950 . S
C366 C367 1.386 . S
C366 C368 1.391 . S
C367 C366 1.386 . S
C367 C371 1.393 . S
C368 H360 0.950 . S
C368 C366 1.391 . S
C368 C369 1.400 . S
C369 C368 1.400 . S
C369 C370 1.398 . S
C369 C375 1.491 . S
C370 H361 0.950 . S
C370 C369 1.398 . S
C370 C371 1.391 . S
C371 H359 0.950 . S
C371 C367 1.393 . S
C371 C370 1.391 . S
C372 H362 0.950 . S
C372 C373 1.386 . S
C372 C374 1.391 . S
C373 C372 1.386 . S
C373 C377 1.393 . S
C374 H363 0.950 . S
C374 C372 1.391 . S
C374 C375 1.400 . S
C375 C369 1.491 . S
C375 C374 1.400 . S
C375 C376 1.398 . S
C376 H364 0.950 . S
C376 C375 1.398 . S
C376 C377 1.391 . S
C377 H365 0.950 . S
C377 C373 1.393 . S
C377 C376 1.391 . S
H378 C386 0.950 . S
H379 C391 0.950 . S
H380 C388 0.950 . S
H381 C390 0.950 . S
H382 C392 0.950 . S
H383 C394 0.950 . S
H384 C396 0.950 . S
H385 C397 0.950 1_655 S
C386 H378 0.950 . S
C386 C387 1.386 1_655 S
C386 C388 1.391 . S
C387 C386 1.386 1_455 S
C387 C391 1.393 . S
C388 H380 0.950 . S
C388 C386 1.391 . S
C388 C389 1.400 1_655 S
C389 C388 1.400 1_455 S
C389 C390 1.398 . S
C389 C395 1.491 1_554 S
C390 H381 0.950 . S
C390 C389 1.398 . S
C390 C391 1.391 . S
C391 H379 0.950 . S
C391 C387 1.393 . S
C391 C390 1.391 . S
C392 H382 0.950 . S
C392 C393 1.386 . S
C392 C394 1.391 . S
C393 C392 1.386 . S
C393 C397 1.393 . S
C394 H383 0.950 . S
C394 C392 1.391 . S
C394 C395 1.400 . S
C395 C389 1.491 1_556 S
C395 C394 1.400 . S
C395 C396 1.398 1_455 S
C396 H384 0.950 . S
C396 C395 1.398 1_655 S
C396 C397 1.391 1_655 S
C397 H385 0.950 1_455 S
C397 C393 1.393 . S
C397 C396 1.391 1_455 S
H398 C406 0.950 . S
H399 C411 0.950 . S
H400 C408 0.950 . S
H401 C410 0.950 . S
H402 C412 0.950 . S
H403 C414 0.950 . S
H404 C416 0.950 . S
H405 C417 0.950 . S
C406 H398 0.950 . S
C406 C407 1.386 1_565 S
C406 C408 1.391 . S
C407 C406 1.386 1_545 S
C407 C411 1.393 . S
C408 H400 0.950 . S
C408 C406 1.391 . S
C408 C409 1.400 1_565 S
C409 C408 1.400 1_545 S
C409 C410 1.398 . S
C409 C415 1.491 . S
C410 H401 0.950 . S
C410 C409 1.398 . S
C410 C411 1.391 . S
C411 H399 0.950 . S
C411 C407 1.393 . S
C411 C410 1.391 . S
C412 H402 0.950 . S
C412 C413 1.386 . S
C412 C414 1.391 . S
C413 C412 1.386 . S
C413 C417 1.393 1_545 S
C414 H403 0.950 . S
C414 C412 1.391 . S
C414 C415 1.400 . S
C415 C409 1.491 . S
C415 C414 1.400 . S
C415 C416 1.398 1_545 S
C416 H404 0.950 . S
C416 C415 1.398 1_565 S
C416 C417 1.391 . S
C417 H405 0.950 . S
C417 C413 1.393 1_565 S
C417 C416 1.391 . S
H418 C426 0.950 . S
H419 C431 0.950 . S
H420 C428 0.950 . S
H421 C430 0.950 . S
H422 C432 0.950 . S
H423 C434 0.950 . S
H424 C436 0.950 . S
H425 C437 0.950 . S
C426 H418 0.950 . S
C426 C427 1.386 . S
C426 C428 1.391 . S
C427 C426 1.386 . S
C427 C431 1.393 . S
C428 H420 0.950 . S
C428 C426 1.391 . S
C428 C429 1.400 . S
C429 C428 1.400 . S
C429 C430 1.398 . S
C429 C435 1.491 . S
C430 H421 0.950 . S
C430 C429 1.398 . S
C430 C431 1.391 . S
C431 H419 0.950 . S
C431 C427 1.393 . S
C431 C430 1.391 . S
C432 H422 0.950 . S
C432 C433 1.386 . S
C432 C434 1.391 . S
C433 C432 1.386 . S
C433 C437 1.393 . S
C434 H423 0.950 . S
C434 C432 1.391 . S
C434 C435 1.400 . S
C435 C429 1.491 . S
C435 C434 1.400 . S
C435 C436 1.398 . S
C436 H424 0.950 . S
C436 C435 1.398 . S
C436 C437 1.391 . S
C437 H425 0.950 . S
C437 C433 1.393 . S
C437 C436 1.391 . S
H438 C446 0.950 . S
H439 C451 0.950 . S
H440 C448 0.950 . S
H441 C450 0.950 . S
H442 C452 0.950 . S
H443 C454 0.950 . S
H444 C456 0.950 . S
H445 C457 0.950 . S
C446 H438 0.950 . S
C446 C447 1.386 1_565 S
C446 C448 1.391 . S
C447 C446 1.386 1_545 S
C447 C451 1.393 . S
C448 H440 0.950 . S
C448 C446 1.391 . S
C448 C449 1.400 1_565 S
C449 C448 1.400 1_545 S
C449 C450 1.398 . S
C449 C455 1.491 . S
C450 H441 0.950 . S
C450 C449 1.398 . S
C450 C451 1.391 . S
C451 H439 0.950 . S
C451 C447 1.393 . S
C451 C450 1.391 . S
C452 H442 0.950 . S
C452 C453 1.386 . S
C452 C454 1.391 . S
C453 C452 1.386 . S
C453 C457 1.393 1_545 S
C454 H443 0.950 . S
C454 C452 1.391 . S
C454 C455 1.400 . S
C455 C449 1.491 . S
C455 C454 1.400 . S
C455 C456 1.398 1_545 S
C456 H444 0.950 . S
C456 C455 1.398 1_565 S
C456 C457 1.391 . S
C457 H445 0.950 . S
C457 C453 1.393 1_565 S
C457 C456 1.391 . S
H458 C466 0.950 . S
H459 C471 0.950 . S
H460 C468 0.950 . S
H461 C470 0.950 . S
H462 C472 0.950 . S
H463 C474 0.950 . S
H464 C476 0.950 . S
H465 C477 0.950 . S
C466 H458 0.950 . S
C466 C467 1.386 . S
C466 C468 1.391 . S
C467 C466 1.386 . S
C467 C471 1.393 . S
C468 H460 0.950 . S
C468 C466 1.391 . S
C468 C469 1.400 . S
C469 C468 1.400 . S
C469 C470 1.398 . S
C469 C475 1.491 1_556 S
C470 H461 0.950 . S
C470 C469 1.398 . S
C470 C471 1.391 . S
C471 H459 0.950 . S
C471 C467 1.393 . S
C471 C470 1.391 . S
C472 H462 0.950 . S
C472 C473 1.386 . S
C472 C474 1.391 . S
C473 C472 1.386 . S
C473 C477 1.393 . S
C474 H463 0.950 . S
C474 C472 1.391 . S
C474 C475 1.400 . S
C475 C469 1.491 1_554 S
C475 C474 1.400 . S
C475 C476 1.398 . S
C476 H464 0.950 . S
C476 C475 1.398 . S
C476 C477 1.391 . S
C477 H465 0.950 . S
C477 C473 1.393 . S
C477 C476 1.391 . S
H478 C486 0.950 . S
H479 C491 0.950 . S
H480 C488 0.950 . S
H481 C490 0.950 . S
H482 C492 0.950 1_655 S
H483 C494 0.950 1_655 S
H484 C496 0.950 . S
H485 C497 0.950 . S
C486 H478 0.950 . S
C486 C487 1.386 . S
C486 C488 1.391 . S
C487 C486 1.386 . S
C487 C491 1.393 1_455 S
C488 H480 0.950 . S
C488 C486 1.391 . S
C488 C489 1.400 . S
C489 C488 1.400 . S
C489 C490 1.398 1_455 S
C489 C495 1.491 . S
C490 H481 0.950 . S
C490 C489 1.398 1_655 S
C490 C491 1.391 . S
C491 H479 0.950 . S
C491 C487 1.393 1_655 S
C491 C490 1.391 . S
C492 H482 0.950 1_455 S
C492 C493 1.386 . S
C492 C494 1.391 . S
C493 C492 1.386 . S
C493 C497 1.393 . S
C494 H483 0.950 1_455 S
C494 C492 1.391 . S
C494 C495 1.400 . S
C495 C489 1.491 . S
C495 C494 1.400 . S
C495 C496 1.398 . S
C496 H484 0.950 . S
C496 C495 1.398 . S
C496 C497 1.391 . S
C497 H485 0.950 . S
C497 C493 1.393 . S
C497 C496 1.391 . S
C147 C2 1.117 . S
C153 N127 1.206 . S
C167 C22 1.273 . S
C173 N100 1.391 1_655 S
C187 C44 1.321 . S
C193 N113 1.409 1_565 S
C207 C4 1.752 . S
C213 N126 1.859 . S
C233 N101 1.644 . S
C227 C24 1.593 . S
C253 N114 1.621 . S
C247 C42 1.527 . S
C267 C32 1.185 . S
C273 N74 1.242 . S
C287 C49 0.984 . S
C293 N88 0.987 1_655 S
C307 C9 1.312 . S
C313 N62 1.342 . S
C333 N75 1.307 . S
C327 C29 1.290 . S
C353 N87 1.539 . S
C347 C52 1.482 . S
C367 C12 1.192 . S
C373 N61 1.233 . S
C393 N91 1.484 . S
C387 C18 1.516 1_455 S
C407 C38 1.511 . S
C413 N65 1.528 . S
C427 C58 1.512 . S
C433 N78 1.504 . S
C453 N117 1.596 . S
C447 C39 1.586 . S
C473 N130 1.526 . S
C467 C59 1.521 . S
C487 C19 1.522 . S
C493 N104 1.557 . S
