# Generated by pormake.
# Topology pyr, (3,6)-cn, num edge types: 1
# Building blocks:
#     Node 0, Type 0, BuildingBlock: CUQRIR_clean_linker_1, # of connection points: 3
#     Node 1, Type 0, BuildingBlock: CUQRIR_clean_linker_1, # of connection points: 3
#     Node 2, Type 0, BuildingBlock: CUQRIR_clean_linker_1, # of connection points: 3
#     Node 3, Type 0, BuildingBlock: CUQRIR_clean_linker_1, # of connection points: 3
#     Node 4, Type 0, BuildingBlock: CUQRIR_clean_linker_1, # of connection points: 3
#     Node 5, Type 0, BuildingBlock: CUQRIR_clean_linker_1, # of connection points: 3
#     Node 6, Type 0, BuildingBlock: CUQRIR_clean_linker_1, # of connection points: 3
#     Node 7, Type 0, BuildingBlock: CUQRIR_clean_linker_1, # of connection points: 3
#     Node 8, Type 1, BuildingBlock: BETDAH_clean_sbu_0, # of connection points: 6
#     Node 9, Type 1, BuildingBlock: BETDAH_clean_sbu_0, # of connection points: 6
#     Node 10, Type 1, BuildingBlock: BETDAH_clean_sbu_0, # of connection points: 6
#     Node 11, Type 1, BuildingBlock: BETDAH_clean_sbu_0, # of connection points: 6
#     Edge 12, Type (0, 1), BuildingBlock: OJICUG_clean_linker_0, # of connection points: 2
#     Edge 13, Type (0, 1), BuildingBlock: OJICUG_clean_linker_0, # of connection points: 2
#     Edge 14, Type (0, 1), BuildingBlock: OJICUG_clean_linker_0, # of connection points: 2
#     Edge 15, Type (0, 1), BuildingBlock: OJICUG_clean_linker_0, # of connection points: 2
#     Edge 16, Type (0, 1), BuildingBlock: OJICUG_clean_linker_0, # of connection points: 2
#     Edge 17, Type (0, 1), BuildingBlock: OJICUG_clean_linker_0, # of connection points: 2
#     Edge 18, Type (0, 1), BuildingBlock: OJICUG_clean_linker_0, # of connection points: 2
#     Edge 19, Type (0, 1), BuildingBlock: OJICUG_clean_linker_0, # of connection points: 2
#     Edge 20, Type (0, 1), BuildingBlock: OJICUG_clean_linker_0, # of connection points: 2
#     Edge 21, Type (0, 1), BuildingBlock: OJICUG_clean_linker_0, # of connection points: 2
#     Edge 22, Type (0, 1), BuildingBlock: OJICUG_clean_linker_0, # of connection points: 2
#     Edge 23, Type (0, 1), BuildingBlock: OJICUG_clean_linker_0, # of connection points: 2
#     Edge 24, Type (0, 1), BuildingBlock: OJICUG_clean_linker_0, # of connection points: 2
#     Edge 25, Type (0, 1), BuildingBlock: OJICUG_clean_linker_0, # of connection points: 2
#     Edge 26, Type (0, 1), BuildingBlock: OJICUG_clean_linker_0, # of connection points: 2
#     Edge 27, Type (0, 1), BuildingBlock: OJICUG_clean_linker_0, # of connection points: 2
#     Edge 28, Type (0, 1), BuildingBlock: OJICUG_clean_linker_0, # of connection points: 2
#     Edge 29, Type (0, 1), BuildingBlock: OJICUG_clean_linker_0, # of connection points: 2
#     Edge 30, Type (0, 1), BuildingBlock: OJICUG_clean_linker_0, # of connection points: 2
#     Edge 31, Type (0, 1), BuildingBlock: OJICUG_clean_linker_0, # of connection points: 2
#     Edge 32, Type (0, 1), BuildingBlock: OJICUG_clean_linker_0, # of connection points: 2
#     Edge 33, Type (0, 1), BuildingBlock: OJICUG_clean_linker_0, # of connection points: 2
#     Edge 34, Type (0, 1), BuildingBlock: OJICUG_clean_linker_0, # of connection points: 2
#     Edge 35, Type (0, 1), BuildingBlock: OJICUG_clean_linker_0, # of connection points: 2
# Relax obj value: 0.305
# Max RMSD: 0.275
# Mean RMSD: 0.178
data_MOF--net-pyr--node1-BETDAH_clean_sbu_0--node2-CUQRIR_clean_linker_1--edge1-OJICUG_clean_linker_0
_symmetry_space_group_name_H-M    P1
_symmetry_Int_Tables_number       1
_symmetry_cell_setting            triclinic
loop_
_symmetry_equiv_pos_as_xyz
'x, y, z'
_cell_length_a     25.353666
_cell_length_b     25.575585
_cell_length_c     23.069252
_cell_angle_alpha  89.380975
_cell_angle_beta   88.690352
_cell_angle_gamma 109.0965
loop_
_atom_site_label
_atom_site_type_symbol
_atom_site_fract_x
_atom_site_fract_y
_atom_site_fract_z
_atom_type_partial_charge
C0 C 0.45789 0.51141 0.28375 0.0
N1 N 0.47929 0.46987 0.29254 0.0
N2 N 0.46157 0.52702 0.22708 0.0
C3 C 0.42071 0.52692 0.32771 0.0
C4 C 0.49206 0.49761 0.20286 0.0
N5 N 0.50426 0.46415 0.24278 0.0
C6 C 0.50351 0.49668 0.13881 0.0
H7 H 0.41903 0.56896 0.31858 0.0
H8 H 0.43644 0.5263 0.37205 0.0
H9 H 0.37776 0.49685 0.32626 0.0
H10 H 0.5088 0.53783 0.11885 0.0
H11 H 0.46741 0.46592 0.11858 0.0
H12 H 0.54139 0.485 0.13005 0.0
C13 C 0.19175 0.96237 0.66038 0.0
N14 N 0.20325 1.0042 0.69849 0.0
N15 N 0.19546 0.91554 0.68524 0.0
C16 C 0.17587 0.96603 0.59832 0.0
C17 C 0.20335 0.92924 0.74195 0.0
N18 N 0.20816 0.98284 0.74985 0.0
C19 C 0.21769 0.89351 0.78742 0.0
H20 H 0.14874 0.92486 0.58415 0.0
H21 H 0.21363 0.97885 0.56947 0.0
H22 H 0.15364 0.99663 0.59346 0.0
H23 H 0.26018 0.89171 0.77793 0.0
H24 H 0.18762 0.85086 0.78668 0.0
H25 H 0.21672 0.90956 0.83171 0.0
C26 C 0.66682 0.4803 0.90066 0.0
N27 N 0.69813 0.47614 0.94669 0.0
N28 N 0.68492 0.53211 0.87656 0.0
C29 C 0.61568 0.43488 0.88207 0.0
C30 C 0.72847 0.55941 0.91013 0.0
N31 N 0.73617 0.52595 0.95336 0.0
C32 C 0.76621 0.61772 0.89756 0.0
H33 H 0.62823 0.41032 0.84836 0.0
H34 H 0.58487 0.45222 0.86337 0.0
H35 H 0.59548 0.40665 0.9189 0.0
H36 H 0.75131 0.64684 0.92319 0.0
H37 H 0.7659 0.62865 0.85092 0.0
H38 H 0.80972 0.6229 0.9096 0.0
C39 C 0.86731 0.78309 0.41097 0.0
N40 N 0.9193 0.8189 0.39614 0.0
N41 N 0.83999 0.80575 0.44919 0.0
C42 C 0.84382 0.72476 0.38966 0.0
C43 C 0.87624 0.85715 0.45657 0.0
N44 N 0.92467 0.86599 0.42513 0.0
C45 C 0.86467 0.89868 0.49668 0.0
H46 H 0.79789 0.70791 0.39605 0.0
H47 H 0.86238 0.69784 0.41417 0.0
H48 H 0.85453 0.72309 0.34296 0.0
H49 H 0.81932 0.88859 0.50618 0.0
H50 H 0.88066 0.94099 0.47746 0.0
H51 H 0.88607 0.89863 0.5381 0.0
C52 C 0.61459 0.88286 0.97461 0.0
N53 N 0.65257 0.86321 0.94865 0.0
N54 N 0.60489 0.92256 0.94126 0.0
C55 C 0.59309 0.86976 1.03613 0.0
C56 C 0.63661 0.92415 0.89283 0.0
N57 N 0.66712 0.88989 0.89795 0.0
C58 C 0.64737 0.96835 0.84624 0.0
H59 H 0.54901 0.8687 1.0395 0.0
H60 H 0.61781 0.90296 1.06472 0.0
H61 H 0.59613 0.8295 1.05115 0.0
H62 H 0.68397 1.00426 0.85763 0.0
H63 H 0.61063 0.98252 0.84211 0.0
H64 H 0.65699 0.95236 0.80415 0.0
C65 C 0.75874 0.25724 0.65519 0.0
N66 N 0.7746 0.22016 0.62403 0.0
N67 N 0.71096 0.26233 0.63454 0.0
C68 C 0.79235 0.29226 0.70183 0.0
C69 C 0.69912 0.2272 0.58948 0.0
N70 N 0.73832 0.20242 0.58233 0.0
C71 C 0.65617 0.22618 0.54498 0.0
H72 H 0.76486 0.30575 0.73208 0.0
H73 H 0.82333 0.32964 0.68161 0.0
H74 H 0.81525 0.26908 0.72599 0.0
H75 H 0.67052 0.2652 0.51881 0.0
H76 H 0.61586 0.22333 0.56675 0.0
H77 H 0.64946 0.19063 0.51563 0.0
C78 C 0.37655 0.81099 0.31144 0.0
N79 N 0.42557 0.84642 0.33073 0.0
N80 N 0.35439 0.83547 0.27055 0.0
C81 C 0.34908 0.75269 0.33415 0.0
C82 C 0.39139 0.88718 0.26514 0.0
N83 N 0.43464 0.89461 0.30152 0.0
C84 C 0.38572 0.93039 0.22268 0.0
H85 H 0.36692 0.72464 0.31029 0.0
H86 H 0.30336 0.73875 0.32785 0.0
H87 H 0.35691 0.74934 0.38093 0.0
H88 H 0.36534 0.95703 0.24536 0.0
H89 H 0.36009 0.91112 0.18543 0.0
H90 H 0.42663 0.95732 0.20512 0.0
C91 C 0.15176 0.49392 0.82475 0.0
N92 N 0.18519 0.48393 0.78168 0.0
N93 N 0.17317 0.54635 0.84551 0.0
C94 C 0.09576 0.45382 0.84329 0.0
C95 C 0.22132 0.56778 0.813 0.0
N96 N 0.22861 0.53064 0.77412 0.0
C97 C 0.26212 0.62527 0.81975 0.0
H98 H 0.0763 0.42655 0.80715 0.0
H99 H 0.06717 0.47601 0.85837 0.0
H100 H 0.10142 0.42749 0.87956 0.0
H101 H 0.26027 0.63997 0.86456 0.0
H102 H 0.25161 0.65388 0.78911 0.0
H103 H 0.30556 0.62708 0.80953 0.0
Ho104 Ho 0.09207 0.20328 0.5461 0.0
Ho105 Ho 0.05777 0.13689 0.65233 0.0
C106 C 0.11286 0.27268 0.66029 0.0
C107 C 0.12083 0.25359 0.44844 0.0
C108 C 0.17967 0.27901 0.42915 0.0
C109 C 0.20837 0.33493 0.4403 0.0
C110 C 0.26601 0.3568 0.43052 0.0
C111 C 0.2958 0.32321 0.40918 0.0
C112 C 0.2674 0.26731 0.39858 0.0
C113 C 0.20993 0.24546 0.4082 0.0
C114 C 0.17485 0.17887 0.60072 0.0
C115 C 0.03641 1.0702 0.53297 0.0
C116 C 0.04258 1.08135 0.74902 0.0
C117 C 0.99528 1.03395 0.76912 0.0
C118 C 0.98913 1.01787 0.82765 0.0
C119 C 0.93839 0.98101 0.8488 0.0
C120 C 0.89293 0.96103 0.81177 0.0
C121 C 0.90139 0.97312 0.75208 0.0
C122 C 0.95235 1.00917 0.73091 0.0
C123 C 0.97101 0.1585 0.60304 0.0
O124 O 0.09904 0.27386 0.60565 0.0
O125 O 0.10771 0.22403 0.68577 0.0
O126 O 0.10322 0.19969 0.4533 0.0
O127 O 0.10471 0.27673 0.49256 0.0
O128 O 0.18276 0.226 0.57543 0.0
O129 O 0.12664 0.14804 0.59239 0.0
O130 O 0.04737 1.06711 0.58855 0.0
O131 O 0.04042 0.1192 0.50975 0.0
O132 O 1.03114 0.12725 0.74264 0.0
O133 O 0.07117 1.07217 0.70494 0.0
O134 O 0.96925 0.11144 0.62548 0.0
O135 O 1.01979 0.19235 0.60645 0.0
H136 H 0.18635 0.36166 0.45706 0.0
H137 H 0.28688 0.40054 0.43713 0.0
H138 H 0.28953 0.24104 0.38091 0.0
H139 H 0.18943 0.20203 0.39978 0.0
H140 H 1.02225 1.03619 0.85748 0.0
H141 H 0.9335 0.97118 0.89482 0.0
H142 H 0.86742 0.95862 0.72235 0.0
H143 H 0.9569 1.02054 0.68529 0.0
Ho144 Ho 0.62751 0.19337 0.15998 0.0
Ho145 Ho 0.51822 0.18051 0.12207 0.0
C146 C 0.56151 0.26545 0.21786 0.0
C147 C 0.72955 0.20113 0.18075 0.0
C148 C 0.751 0.18199 0.23232 0.0
C149 C 0.8034 0.21213 0.25305 0.0
C150 C 0.81694 0.20287 0.30975 0.0
C151 C 0.77721 0.16486 0.3468 0.0
C152 C 0.72789 0.12993 0.32293 0.0
C153 C 0.71508 0.1383 0.2661 0.0
C154 C 0.54825 0.11365 0.22616 0.0
C155 C 0.58242 0.11263 1.05347 0.0
C156 C 0.41549 0.15785 0.09184 0.0
C157 C 0.37541 0.12022 1.05417 0.0
C158 C 0.32547 0.13033 1.04311 0.0
C159 C 0.29371 1.10606 0.99587 0.0
C160 C 0.31202 1.07186 0.95892 0.0
C161 C 0.35991 1.05858 0.97279 0.0
C162 C 0.39141 1.08262 1.02018 0.0
C163 C 0.59548 0.27697 1.08016 0.0
O164 O 0.61155 0.26867 0.19741 0.0
O165 O 0.51962 0.22034 0.20789 0.0
O166 O 0.6965 0.16195 0.1503 0.0
O167 O 0.70957 0.24157 0.18932 0.0
O168 O 0.59028 0.15224 0.24601 0.0
O169 O 0.54922 0.12118 0.17177 0.0
O170 O 0.5331 0.11726 1.06406 0.0
O171 O 0.62685 0.14405 1.07991 0.0
O172 O 0.45824 0.19222 1.06384 0.0
O173 O 0.42959 0.13759 0.13911 0.0
O174 O 0.54601 0.27154 0.09943 0.0
O175 O 0.60252 0.23021 1.08252 0.0
H176 H 0.83201 0.24538 0.22707 0.0
H177 H 0.85633 0.22901 0.32609 0.0
H178 H 0.69614 1.10003 0.34943 0.0
H179 H 0.6748 0.11361 0.25042 0.0
H180 H 0.31301 0.15989 1.0686 0.0
H181 H 0.25696 0.11692 0.98609 0.0
H182 H 0.37427 1.03142 0.94556 0.0
H183 H 0.42999 1.07464 1.028 0.0
Ho184 Ho 0.52629 0.62478 0.56632 0.0
Ho185 Ho 0.53677 0.71488 0.64341 0.0
C186 C 0.58313 0.62506 0.69509 0.0
C187 C 0.54461 0.54464 0.5118 0.0
C188 C 0.57245 0.50579 0.53267 0.0
C189 C 0.6242 0.52552 0.55988 0.0
C190 C 0.6479 0.48873 0.58469 0.0
C191 C 0.62035 0.4314 0.58316 0.0
C192 C 0.56882 0.41168 0.55543 0.0
C193 C 0.54511 0.44856 0.53048 0.0
C194 C 0.42906 0.61308 0.62697 0.0
C195 C 0.49562 0.72634 0.5118 0.0
C196 C 0.50792 0.78459 0.70422 0.0
C197 C 0.45628 0.79712 0.69625 0.0
C198 C 0.40966 0.75638 0.67385 0.0
C199 C 0.36219 0.76907 0.65947 0.0
C200 C 0.36097 0.82289 0.66659 0.0
C201 C 0.4073 0.86337 0.69004 0.0
C202 C 0.45478 0.85057 0.7046 0.0
C203 C 0.634 0.72533 0.58489 0.0
O204 O 0.57433 0.604 0.64232 0.0
O205 O 0.56874 0.66849 0.70823 0.0
O206 O 0.49674 0.5399 0.53728 0.0
O207 O 0.57619 0.59624 0.50508 0.0
O208 O 0.43218 0.60445 0.57179 0.0
O209 O 0.47802 0.62891 0.64647 0.0
O210 O 0.49215 0.73864 0.56715 0.0
O211 O 0.51232 0.68384 0.49836 0.0
O212 O 0.5442 0.80001 0.661 0.0
O213 O 0.50061 0.73416 0.72251 0.0
O214 O 0.63098 0.73999 0.63829 0.0
O215 O 0.58564 0.7094 0.56453 0.0
H216 H 0.64602 0.56949 0.56319 0.0
H217 H 0.68735 0.5053 0.60609 0.0
H218 H 0.54704 0.36768 0.55246 0.0
H219 H 0.50499 0.43238 0.51027 0.0
H220 H 0.4104 0.71496 0.66614 0.0
H221 H 0.32705 0.73726 0.64167 0.0
H222 H 0.40679 0.90499 0.69722 0.0
H223 H 0.49053 0.88249 0.72125 0.0
Ho224 Ho 0.04399 0.63549 0.15355 0.0
Ho225 Ho 0.03957 0.72824 0.08472 0.0
C226 C 0.15259 0.74279 0.14447 0.0
C227 C 0.08384 0.56352 0.19834 0.0
C228 C 0.14169 0.56052 0.1952 0.0
C229 C 0.15703 0.5286 0.15283 0.0
C230 C 0.21188 0.52738 0.14834 0.0
C231 C 0.25303 0.55784 0.18627 0.0
C232 C 0.23767 0.59 0.22845 0.0
C233 C 0.18286 0.59127 0.2329 0.0
C234 C 0.99996 0.70463 0.21633 0.0
C235 C 0.93028 0.61714 0.09201 0.0
C236 C 1.00654 0.80363 1.03712 0.0
C237 C 0.94971 0.80622 1.02977 0.0
C238 C 0.91052 0.7939 1.07641 0.0
C239 C 0.8563 0.79473 1.06852 0.0
C240 C 0.83991 0.80666 1.01365 0.0
C241 C 0.87872 0.81808 0.96682 0.0
C242 C 0.93324 0.8181 0.9749 0.0
C243 C 0.09034 0.66508 1.02426 0.0
O244 O 0.13407 0.68854 0.14242 0.0
O245 O 0.12004 0.7712 0.12892 0.0
O246 O 0.07658 0.60417 0.22754 0.0
O247 O 0.05641 0.55547 0.15022 0.0
O248 O 0.98335 0.65084 0.2207 0.0
O249 O 0.04069 0.71884 0.17995 0.0
O250 O 0.94916 0.6718 0.08899 0.0
O251 O 0.96213 0.58995 0.11268 0.0
O252 O 1.01865 0.76571 1.00755 0.0
O253 O 1.02412 0.8064 0.0901 0.0
O254 O 0.10567 0.71876 1.02235 0.0
O255 O 0.04724 0.64711 1.05772 0.0
H256 H 0.12663 0.50464 0.12281 0.0
H257 H 0.22202 0.50257 0.1149 0.0
H258 H 0.26765 0.61331 0.25917 0.0
H259 H 0.17285 0.61645 0.26605 0.0
H260 H 0.92158 0.7834 0.11898 0.0
H261 H 0.82706 0.78577 0.10519 0.0
H262 H 0.86721 0.82822 0.92423 0.0
H263 H 0.96252 0.82722 0.93826 0.0
C264 C 0.405 0.38131 0.29595 0.0
C265 C 0.4458 0.42206 0.32567 0.0
H266 H 0.32726 0.31655 0.29987 0.0
C267 C 0.44214 0.42283 0.38646 0.0
H268 H 0.40376 0.38248 0.24929 0.0
C269 C 0.39477 0.38721 0.41596 0.0
C270 C 0.35247 0.34925 0.38473 0.0
H271 H 0.47256 0.45468 0.41004 0.0
H272 H 0.38938 0.39181 0.46212 0.0
C273 C 0.3599 0.3443 0.32516 0.0
C274 C 0.20002 1.01062 0.85007 0.0
C275 C 0.23254 1.01371 0.79943 0.0
H276 H 0.19997 1.02649 0.94115 0.0
C277 C 0.29045 1.03886 0.80036 0.0
H278 H 0.15525 0.99035 0.84972 0.0
C279 C 0.31609 1.05863 0.85216 0.0
C280 C 0.28401 1.05353 0.90374 0.0
H281 H 0.31582 1.04062 0.7615 0.0
H282 H 0.36112 1.07706 0.85211 0.0
C283 C 0.22557 1.03077 0.90201 0.0
C284 C 0.64765 0.52906 0.77635 0.0
C285 C 0.6599 0.55494 0.83041 0.0
H286 H 0.61396 0.53021 0.69157 0.0
C287 C 0.64675 0.60366 0.83903 0.0
H288 H 0.65739 0.49161 0.76808 0.0
C289 C 0.62237 0.62601 0.79522 0.0
C290 C 0.61001 0.60043 0.74097 0.0
H291 H 0.65476 0.62426 0.88022 0.0
H292 H 0.61304 0.66357 0.80422 0.0
C293 C 0.62306 0.55147 0.73227 0.0
C294 C 0.9616 0.82141 0.29614 0.0
C295 C 0.95734 0.8042 0.35507 0.0
H296 H 0.97932 0.8053 0.207 0.0
C297 C 0.97326 0.7572 0.36735 0.0
H298 H 0.94797 0.85584 0.28396 0.0
C299 C 0.98795 0.72619 0.32293 0.0
C300 C 0.98958 0.74172 0.26388 0.0
H301 H 0.96927 0.74132 0.41151 0.0
H302 H 0.99653 0.68877 0.33491 0.0
C303 C 0.97845 0.79141 0.25158 0.0
C304 C 0.4938 0.37528 0.19562 0.0
C305 C 0.52378 0.41778 0.23173 0.0
H306 H 0.47776 0.29232 0.16885 0.0
C307 C 0.56722 0.41016 0.26411 0.0
H308 H 0.45982 0.37954 0.17059 0.0
C309 C 0.58064 0.36101 0.25982 0.0
C310 C 0.54814 0.31733 0.22621 0.0
H311 H 0.59043 0.44218 0.29289 0.0
H312 H 0.61516 0.35655 0.28387 0.0
C313 C 0.50406 0.325 0.19501 0.0
C314 C 0.24826 1.08467 0.63344 0.0
C315 C 0.21732 1.06227 0.68449 0.0
H316 H 0.26109 0.14545 0.56535 0.0
C317 C 0.19477 1.09564 0.71767 0.0
H318 H 0.26983 1.06143 0.60926 0.0
C319 C 0.19346 0.14577 0.6944 0.0
C320 C 0.21246 0.16123 0.63706 0.0
H321 H 0.17234 1.08021 0.75812 0.0
H322 H 0.16897 0.16699 0.71729 0.0
C323 C 0.24524 0.13387 0.6093 0.0
C324 C 0.78728 0.59201 1.02731 0.0
C325 C 0.77835 0.54214 0.99766 0.0
H326 H 0.84172 0.65471 1.07962 0.0
C327 C 0.81606 0.51297 1.00642 0.0
H328 H 0.75852 0.61498 1.02255 0.0
C329 C 0.86356 0.53522 1.0406 0.0
C330 C 0.87475 0.58747 1.06626 0.0
H331 H 0.81063 0.47465 0.98405 0.0
H332 H 0.8933 0.51316 1.0438 0.0
C333 C 0.83499 0.61468 1.06033 0.0
C334 C 0.78882 0.77634 0.54303 0.0
C335 C 0.78835 0.77968 0.48215 0.0
H336 H 0.74079 0.75689 0.62295 0.0
C337 C 0.73657 0.76221 0.45497 0.0
H338 H 0.82815 0.78968 0.56503 0.0
C339 C 0.68636 0.74276 0.48807 0.0
C340 C 0.6869 0.74133 0.54915 0.0
H341 H 0.73498 0.7652 0.40823 0.0
H342 H 0.64709 0.73055 0.46591 0.0
C343 C 0.73881 0.75769 0.57611 0.0
C344 C 0.40994 0.59157 0.2055 0.0
C345 C 0.41589 0.53915 0.20006 0.0
H346 H 0.35412 0.63906 0.20486 0.0
C347 C 0.3699 0.49496 0.18229 0.0
H348 H 0.44454 0.626 0.22007 0.0
C349 C 0.31795 0.50183 0.1747 0.0
C350 C 0.31052 0.55322 0.18467 0.0
H351 H 0.37301 0.45383 0.17934 0.0
H352 H 0.28277 0.46571 0.16512 0.0
C353 C 0.35783 0.59859 0.1979 0.0
C354 C 0.69084 0.37875 0.96929 0.0
C355 C 0.68466 0.42916 0.98671 0.0
H356 H 0.66894 0.29086 0.98587 0.0
C357 C 0.65444 0.42954 1.03827 0.0
H358 H 0.71289 0.37722 0.92894 0.0
C359 C 0.62814 0.38023 1.06982 0.0
C360 C 0.63212 0.32926 1.05126 0.0
H361 H 0.64798 0.46743 1.05189 0.0
H362 H 0.60267 0.38166 0.10774 0.0
C363 C 0.6655 0.32936 1.0017 0.0
C364 C 0.9754 0.96616 0.41081 0.0
C365 C 0.97318 0.91469 0.43581 0.0
H366 H 0.99528 1.05432 0.421 0.0
C367 C 0.99992 0.91696 0.48926 0.0
H368 H 0.95374 0.9666 0.371 0.0
C369 C 1.02185 0.96712 0.51939 0.0
C370 C 1.01898 1.01775 0.49698 0.0
H371 H 0.9977 0.87864 0.51125 0.0
H372 H 0.03853 0.96556 0.56193 0.0
C373 C 0.99786 1.01663 0.44066 0.0
C374 C 0.27569 0.91117 0.62748 0.0
C375 C 0.22519 0.88304 0.65747 0.0
H376 H 0.35847 0.91302 0.60594 0.0
C377 C 0.21457 0.82769 0.67478 0.0
H378 H 0.28553 0.95388 0.61351 0.0
C379 C 0.25785 0.80504 0.67284 0.0
C380 C 0.31119 0.83731 0.65176 0.0
H381 H 0.17545 0.80481 0.69665 0.0
H382 H 0.25116 0.76495 0.69322 0.0
C383 C 0.3182 0.88827 0.62434 0.0
C384 C 0.76493 0.94572 0.9047 0.0
C385 C 0.72349 0.90555 0.87543 0.0
H386 H 0.85051 0.99435 0.90788 0.0
C387 C 0.73792 0.88001 0.8271 0.0
H388 H 0.75408 0.96519 0.94249 0.0
C389 C 0.79375 0.89584 0.80744 0.0
C390 C 0.83534 0.93724 0.83621 0.0
H391 H 0.70615 0.84829 0.80479 0.0
H392 H 0.80425 0.87636 0.76945 0.0
C393 C 0.82016 0.96145 0.88543 0.0
C394 C 0.78818 0.23372 0.49057 0.0
C395 C 0.75572 0.18996 0.52618 0.0
H396 H 0.82087 0.26034 0.4061 0.0
C397 C 0.73938 0.13583 0.50606 0.0
H398 H 0.80152 0.27562 0.50645 0.0
C399 C 0.75197 0.12621 0.44862 0.0
C400 C 0.77985 0.17096 0.41071 0.0
H401 H 0.71527 1.10168 0.53398 0.0
H402 H 0.73702 1.08426 0.43307 0.0
C403 C 0.80001 0.22451 0.43337 0.0
C404 C 0.44916 0.83865 0.43397 0.0
C405 C 0.45836 0.83039 0.37474 0.0
H406 H 0.45275 0.81306 0.5228 0.0
C407 C 0.48259 0.78926 0.36165 0.0
H408 H 0.42829 0.86788 0.44598 0.0
C409 C 0.49501 0.75627 0.40551 0.0
C410 C 0.48366 0.76288 0.46467 0.0
H411 H 0.48809 0.77983 0.31673 0.0
H412 H 0.51211 0.72435 0.39273 0.0
C413 C 0.46196 0.80592 0.47808 0.0
C414 C 0.12765 0.5487 0.94395 0.0
C415 C 0.14958 0.57426 0.88985 0.0
H416 H 0.09115 0.55604 1.02803 0.0
C417 C 0.1492 0.62876 0.88056 0.0
H418 H 0.12742 0.50711 0.95347 0.0
C419 C 0.13017 0.65734 0.92396 0.0
C420 C 0.10871 0.63221 0.9781 0.0
H421 H 0.1639 0.64971 0.8394 0.0
H422 H 0.13186 0.69947 0.9147 0.0
C423 C 0.107 0.57696 0.98705 0.0
C424 C 0.64545 1.01522 0.98043 0.0
C425 C 0.59792 0.97161 0.96517 0.0
H426 H 0.67797 1.09449 1.01859 0.0
C427 C 0.54493 0.97617 0.97483 0.0
H428 H 0.68665 1.01206 0.97348 0.0
C429 C 0.53964 1.0236 1.00084 0.0
C430 C 0.58741 1.06678 1.01761 0.0
H431 H 0.50796 0.94273 0.96334 0.0
H432 H 0.4982 1.02543 1.00972 0.0
C433 C 0.64035 1.06235 1.00609 0.0
C434 C 0.82141 0.15094 0.62769 0.0
C435 C 0.82532 0.20682 0.62634 0.0
H436 H 0.86399 1.0918 0.61945 0.0
C437 C 0.87744 0.24739 0.6153 0.0
H438 H 0.78115 0.11918 0.63446 0.0
C439 C 0.92509 0.23193 0.60592 0.0
C440 C 0.92092 0.17568 0.60705 0.0
H441 H 0.88079 0.29061 0.61174 0.0
H442 H 0.96503 0.26383 0.59785 0.0
C443 C 0.86857 0.13543 0.61807 0.0
C444 C 0.29431 0.76281 0.20838 0.0
C445 C 0.30385 0.81227 0.23853 0.0
H446 H 0.23942 0.70248 0.15425 0.0
C447 C 0.26456 0.84025 0.2349 0.0
H448 H 0.32422 0.74082 0.20983 0.0
C449 C 0.21694 0.81948 0.20152 0.0
C450 C 0.20691 0.76951 0.17211 0.0
H451 H 0.27065 0.87815 0.25829 0.0
H452 H 0.18695 0.84143 0.20061 0.0
C453 C 0.24617 0.74141 0.17594 0.0
C454 C 0.27436 0.56053 0.67687 0.0
C455 C 0.27652 0.54132 0.73395 0.0
H456 H 0.32002 0.59725 0.59838 0.0
C457 C 0.32938 0.54499 0.7549 0.0
H458 H 0.23488 0.56064 0.66012 0.0
C459 C 0.37857 0.5685 0.72064 0.0
C460 C 0.37649 0.58804 0.66364 0.0
H461 H 0.33279 0.53227 0.79919 0.0
H462 H 0.4184 0.57166 0.73902 0.0
C463 C 0.32343 0.58255 0.64188 0.0
C464 C 0.70239 0.79564 0.94622 0.0
C465 C 0.68739 0.83622 0.97652 0.0
H466 H 0.76347 0.755 0.93358 0.0
C467 C 0.7183 0.86044 1.0248 0.0
H468 H 0.67966 0.77721 0.90831 0.0
C469 C 0.76577 0.84747 1.0396 0.0
C470 C 0.78374 0.81097 1.00565 0.0
H471 H 0.70918 0.89337 1.04754 0.0
H472 H 0.79096 0.86947 1.07458 0.0
C473 C 0.75056 0.78356 0.96017 0.0
C474 C 0.52019 0.95869 0.25593 0.0
C475 C 0.48052 0.94671 0.30233 0.0
H476 H 0.56998 1.01944 0.19368 0.0
C477 C 0.47053 0.99227 0.32876 0.0
H478 H 0.52774 0.9249 0.23316 0.0
C479 C 0.49432 1.04667 0.30577 0.0
C480 C 0.52824 1.05715 0.25499 0.0
H481 H 0.43913 0.98485 0.36327 0.0
H482 H 0.48297 1.07991 0.32541 0.0
C483 C 0.54292 1.0128 0.232 0.0
C484 C 0.16425 0.4296 0.69037 0.0
C485 C 0.17417 0.43199 0.75018 0.0
H486 H 0.13743 0.37896 0.61587 0.0
C487 C 0.16526 0.38117 0.78016 0.0
H488 H 0.16884 0.46725 0.66602 0.0
C489 C 0.14652 0.32982 0.75152 0.0
C490 C 0.13531 0.32727 0.69179 0.0
H491 H 0.17168 0.38119 0.8264 0.0
H492 H 0.13971 0.29201 0.77656 0.0
C493 C 0.14526 0.37838 0.66178 0.0
C494 C 0.72659 0.36022 0.61347 0.0
C495 C 0.69269 0.30974 0.63816 0.0
H496 H 0.73012 0.43801 0.5758 0.0
C497 C 0.63664 0.30251 0.65217 0.0
H498 H 0.76959 0.36593 0.60107 0.0
C499 C 0.61359 0.34339 0.6372 0.0
C500 C 0.64638 0.39215 0.60794 0.0
H501 H 0.60984 0.26348 0.67059 0.0
H502 H 0.56956 0.33575 0.64616 0.0
C503 C 0.70371 0.40113 0.59852 0.0
loop_
_geom_bond_atom_site_label_1
_geom_bond_atom_site_label_2
_geom_bond_distance
_geom_bond_site_symmetry_2
_ccdc_geom_bond_type
C0 N1 1.317 . S
C0 N2 1.348 . S
C0 C3 1.485 . S
N1 C0 1.317 . S
N1 N5 1.370 . S
N2 C0 1.348 . S
N2 C4 1.346 . S
C3 C0 1.485 . S
C3 H7 0.960 . S
C3 H8 0.961 . S
C3 H9 0.960 . S
C4 N2 1.346 . S
C4 N5 1.307 . S
C4 C6 1.486 . S
N5 N1 1.370 . S
N5 C4 1.307 . S
C6 C4 1.486 . S
C6 H10 0.960 . S
C6 H11 0.960 . S
C6 H12 0.959 . S
H7 C3 0.960 . S
H8 C3 0.961 . S
H9 C3 0.960 . S
H10 C6 0.960 . S
H11 C6 0.960 . S
H12 C6 0.959 . S
C13 N14 1.317 . S
C13 N15 1.348 . S
C13 C16 1.485 . S
N14 C13 1.317 . S
N14 N18 1.370 . S
N15 C13 1.348 . S
N15 C17 1.346 . S
C16 C13 1.485 . S
C16 H20 0.960 . S
C16 H21 0.961 . S
C16 H22 0.960 . S
C17 N15 1.346 . S
C17 N18 1.307 . S
C17 C19 1.486 . S
N18 N14 1.370 . S
N18 C17 1.307 . S
C19 C17 1.486 . S
C19 H23 0.960 . S
C19 H24 0.960 . S
C19 H25 0.959 . S
H20 C16 0.960 . S
H21 C16 0.961 . S
H22 C16 0.960 . S
H23 C19 0.960 . S
H24 C19 0.960 . S
H25 C19 0.959 . S
C26 N27 1.317 . S
C26 N28 1.348 . S
C26 C29 1.485 . S
N27 C26 1.317 . S
N27 N31 1.370 . S
N28 C26 1.348 . S
N28 C30 1.346 . S
C29 C26 1.485 . S
C29 H33 0.960 . S
C29 H34 0.961 . S
C29 H35 0.960 . S
C30 N28 1.346 . S
C30 N31 1.307 . S
C30 C32 1.486 . S
N31 N27 1.370 . S
N31 C30 1.307 . S
C32 C30 1.486 . S
C32 H36 0.960 . S
C32 H37 0.960 . S
C32 H38 0.959 . S
H33 C29 0.960 . S
H34 C29 0.961 . S
H35 C29 0.960 . S
H36 C32 0.960 . S
H37 C32 0.960 . S
H38 C32 0.959 . S
C39 N40 1.317 . S
C39 N41 1.348 . S
C39 C42 1.485 . S
N40 C39 1.317 . S
N40 N44 1.370 . S
N41 C39 1.348 . S
N41 C43 1.346 . S
C42 C39 1.485 . S
C42 H46 0.960 . S
C42 H47 0.961 . S
C42 H48 0.960 . S
C43 N41 1.346 . S
C43 N44 1.307 . S
C43 C45 1.486 . S
N44 N40 1.370 . S
N44 C43 1.307 . S
C45 C43 1.486 . S
C45 H49 0.960 . S
C45 H50 0.960 . S
C45 H51 0.959 . S
H46 C42 0.960 . S
H47 C42 0.961 . S
H48 C42 0.960 . S
H49 C45 0.960 . S
H50 C45 0.960 . S
H51 C45 0.959 . S
C52 N53 1.317 . S
C52 N54 1.348 . S
C52 C55 1.485 . S
N53 C52 1.317 . S
N53 N57 1.370 . S
N54 C52 1.348 . S
N54 C56 1.346 . S
C55 C52 1.485 . S
C55 H59 0.960 . S
C55 H60 0.961 . S
C55 H61 0.960 . S
C56 N54 1.346 . S
C56 N57 1.307 . S
C56 C58 1.486 . S
N57 N53 1.370 . S
N57 C56 1.307 . S
C58 C56 1.486 . S
C58 H62 0.960 . S
C58 H63 0.960 . S
C58 H64 0.959 . S
H59 C55 0.960 . S
H60 C55 0.961 . S
H61 C55 0.960 . S
H62 C58 0.960 . S
H63 C58 0.960 . S
H64 C58 0.959 . S
C65 N66 1.317 . S
C65 N67 1.348 . S
C65 C68 1.485 . S
N66 C65 1.317 . S
N66 N70 1.370 . S
N67 C65 1.348 . S
N67 C69 1.346 . S
C68 C65 1.485 . S
C68 H72 0.960 . S
C68 H73 0.961 . S
C68 H74 0.960 . S
C69 N67 1.346 . S
C69 N70 1.307 . S
C69 C71 1.486 . S
N70 N66 1.370 . S
N70 C69 1.307 . S
C71 C69 1.486 . S
C71 H75 0.960 . S
C71 H76 0.960 . S
C71 H77 0.959 . S
H72 C68 0.960 . S
H73 C68 0.961 . S
H74 C68 0.960 . S
H75 C71 0.960 . S
H76 C71 0.960 . S
H77 C71 0.959 . S
C78 N79 1.317 . S
C78 N80 1.348 . S
C78 C81 1.485 . S
N79 C78 1.317 . S
N79 N83 1.370 . S
N80 C78 1.348 . S
N80 C82 1.346 . S
C81 C78 1.485 . S
C81 H85 0.960 . S
C81 H86 0.961 . S
C81 H87 0.960 . S
C82 N80 1.346 . S
C82 N83 1.307 . S
C82 C84 1.486 . S
N83 N79 1.370 . S
N83 C82 1.307 . S
C84 C82 1.486 . S
C84 H88 0.960 . S
C84 H89 0.960 . S
C84 H90 0.959 . S
H85 C81 0.960 . S
H86 C81 0.961 . S
H87 C81 0.960 . S
H88 C84 0.960 . S
H89 C84 0.960 . S
H90 C84 0.959 . S
C91 N92 1.317 . S
C91 N93 1.348 . S
C91 C94 1.485 . S
N92 C91 1.317 . S
N92 N96 1.370 . S
N93 C91 1.348 . S
N93 C95 1.346 . S
C94 C91 1.485 . S
C94 H98 0.960 . S
C94 H99 0.961 . S
C94 H100 0.960 . S
C95 N93 1.346 . S
C95 N96 1.307 . S
C95 C97 1.486 . S
N96 N92 1.370 . S
N96 C95 1.307 . S
C97 C95 1.486 . S
C97 H101 0.960 . S
C97 H102 0.960 . S
C97 H103 0.959 . S
H98 C94 0.960 . S
H99 C94 0.961 . S
H100 C94 0.960 . S
H101 C97 0.960 . S
H102 C97 0.960 . S
H103 C97 0.959 . S
Ho104 C107 2.811 . S
Ho104 O124 2.322 . S
Ho104 O126 2.378 . S
Ho104 O127 2.524 . S
Ho104 O128 2.381 . S
Ho104 O129 2.669 . S
Ho104 O131 2.346 1_545 S
Ho104 O135 2.305 . S
Ho105 C116 2.815 1_545 S
Ho105 O125 2.341 1_655 S
Ho105 O129 2.297 1_655 S
Ho105 O130 2.324 1_545 S
Ho105 O132 2.385 1_545 S
Ho105 O133 2.524 1_545 S
Ho105 O134 2.387 . S
Ho105 O135 2.669 1_655 S
C106 O124 1.259 . S
C106 O125 1.268 . S
C107 Ho104 2.811 . S
C107 C108 1.488 . S
C107 O126 1.215 . S
C107 O127 1.289 . S
C108 C107 1.488 . S
C108 C109 1.348 . S
C108 C113 1.413 . S
C109 C108 1.348 . S
C109 C110 1.442 . S
C109 H136 0.930 . S
C110 C109 1.442 . S
C110 C111 1.381 . S
C110 H137 0.931 . S
C111 C110 1.381 . S
C111 C112 1.321 . S
C112 C111 1.321 . S
C112 C113 1.403 . S
C112 H138 0.934 . S
C113 C108 1.413 . S
C113 C112 1.403 . S
C113 H139 0.930 . S
C114 O128 1.275 1_565 S
C114 O129 1.256 1_565 S
C115 O130 1.259 . S
C115 O131 1.268 1_655 S
C116 Ho105 2.815 1_565 S
C116 C117 1.488 . S
C116 O132 1.215 . S
C116 O133 1.289 . S
C117 C116 1.488 . S
C117 C118 1.348 . S
C117 C122 1.413 . S
C118 C117 1.348 . S
C118 C119 1.442 . S
C118 H140 0.930 . S
C119 C118 1.442 . S
C119 C120 1.381 . S
C119 H141 0.931 . S
C120 C119 1.381 . S
C120 C121 1.321 . S
C121 C120 1.321 . S
C121 C122 1.403 . S
C121 H142 0.934 . S
C122 C117 1.413 . S
C122 C121 1.403 . S
C122 H143 0.930 . S
C123 O134 1.275 . S
C123 O135 1.256 1_655 S
O124 Ho104 2.322 . S
O124 C106 1.259 . S
O125 Ho105 2.341 1_455 S
O125 C106 1.268 . S
O126 Ho104 2.378 . S
O126 C107 1.215 . S
O127 Ho104 2.524 . S
O127 C107 1.289 . S
O128 Ho104 2.381 . S
O128 C114 1.275 1_545 S
O129 Ho104 2.669 . S
O129 Ho105 2.297 1_455 S
O129 C114 1.256 1_545 S
O130 Ho105 2.324 1_565 S
O130 C115 1.259 . S
O131 Ho104 2.346 1_565 S
O131 C115 1.268 1_455 S
O132 Ho105 2.385 1_565 S
O132 C116 1.215 . S
O133 Ho105 2.524 1_565 S
O133 C116 1.289 . S
O134 Ho105 2.387 . S
O134 C123 1.275 . S
O135 Ho104 2.305 . S
O135 Ho105 2.669 1_455 S
O135 C123 1.256 1_455 S
H136 C109 0.930 . S
H137 C110 0.931 . S
H138 C112 0.934 . S
H139 C113 0.930 . S
H140 C118 0.930 . S
H141 C119 0.931 . S
H142 C121 0.934 . S
H143 C122 0.930 . S
Ho144 C147 2.811 . S
Ho144 O164 2.322 . S
Ho144 O166 2.378 . S
Ho144 O167 2.524 . S
Ho144 O168 2.381 1_545 S
Ho144 O169 2.669 . S
Ho144 O171 2.346 . S
Ho144 O175 2.305 . S
Ho145 C156 2.811 1_554 S
Ho145 O165 2.346 . S
Ho145 O169 2.305 . S
Ho145 O170 2.322 1_554 S
Ho145 O172 2.378 1_554 S
Ho145 O173 2.524 1_544 S
Ho145 O174 2.381 1_554 S
Ho145 O175 2.669 . S
C146 O164 1.259 . S
C146 O165 1.268 . S
C147 Ho144 2.811 . S
C147 C148 1.488 . S
C147 O166 1.215 . S
C147 O167 1.289 . S
C148 C147 1.488 . S
C148 C149 1.348 . S
C148 C153 1.413 . S
C149 C148 1.348 . S
C149 C150 1.442 . S
C149 H176 0.930 . S
C150 C149 1.442 . S
C150 C151 1.381 . S
C150 H177 0.931 . S
C151 C150 1.381 . S
C151 C152 1.321 . S
C152 C151 1.321 . S
C152 C153 1.403 . S
C152 H178 0.934 . S
C153 C148 1.413 . S
C153 C152 1.403 . S
C153 H179 0.930 . S
C154 O168 1.275 . S
C154 O169 1.256 1_565 S
C155 O170 1.259 . S
C155 O171 1.268 1_556 S
C156 Ho145 2.811 1_556 S
C156 C157 1.488 1_545 S
C156 O172 1.215 . S
C156 O173 1.289 1_545 S
C157 C156 1.488 1_565 S
C157 C158 1.348 . S
C157 C162 1.413 1_565 S
C158 C157 1.348 . S
C158 C159 1.442 . S
C158 H180 0.930 . S
C159 C158 1.442 . S
C159 C160 1.381 . S
C159 H181 0.931 . S
C160 C159 1.381 . S
C160 C161 1.321 . S
C161 C160 1.321 . S
C161 C162 1.403 1_565 S
C161 H182 0.934 . S
C162 C157 1.413 1_545 S
C162 C161 1.403 1_545 S
C162 H183 0.930 . S
C163 O174 1.275 1_554 S
C163 O175 1.256 . S
O164 Ho144 2.322 . S
O164 C146 1.259 . S
O165 Ho145 2.346 . S
O165 C146 1.268 . S
O166 Ho144 2.378 . S
O166 C147 1.215 . S
O167 Ho144 2.524 . S
O167 C147 1.289 . S
O168 Ho144 2.381 1_565 S
O168 C154 1.275 . S
O169 Ho144 2.669 . S
O169 Ho145 2.305 . S
O169 C154 1.256 1_545 S
O170 Ho145 2.322 1_556 S
O170 C155 1.259 . S
O171 Ho144 2.346 . S
O171 C155 1.268 1_554 S
O172 Ho145 2.378 1_556 S
O172 C156 1.215 . S
O173 Ho145 2.524 1_566 S
O173 C156 1.289 1_565 S
O174 Ho145 2.381 1_556 S
O174 C163 1.275 1_556 S
O175 Ho144 2.305 . S
O175 Ho145 2.669 . S
O175 C163 1.256 . S
H176 C149 0.930 . S
H177 C150 0.931 . S
H178 C152 0.934 . S
H179 C153 0.930 . S
H180 C158 0.930 . S
H181 C159 0.931 . S
H182 C161 0.934 . S
H183 C162 0.930 . S
Ho184 C187 2.811 . S
Ho184 O204 2.322 . S
Ho184 O206 2.378 . S
Ho184 O207 2.524 . S
Ho184 O208 2.381 . S
Ho184 O209 2.669 . S
Ho184 O211 2.346 . S
Ho184 O215 2.305 . S
Ho185 C196 2.811 . S
Ho185 O205 2.346 . S
Ho185 O209 2.305 . S
Ho185 O210 2.322 . S
Ho185 O212 2.378 . S
Ho185 O213 2.524 . S
Ho185 O214 2.381 . S
Ho185 O215 2.669 . S
C186 O204 1.259 . S
C186 O205 1.268 . S
C187 Ho184 2.811 . S
C187 C188 1.488 . S
C187 O206 1.215 . S
C187 O207 1.289 . S
C188 C187 1.488 . S
C188 C189 1.348 . S
C188 C193 1.413 . S
C189 C188 1.348 . S
C189 C190 1.442 . S
C189 H216 0.930 . S
C190 C189 1.442 . S
C190 C191 1.381 . S
C190 H217 0.931 . S
C191 C190 1.381 . S
C191 C192 1.321 . S
C192 C191 1.321 . S
C192 C193 1.403 . S
C192 H218 0.934 . S
C193 C188 1.413 . S
C193 C192 1.403 . S
C193 H219 0.930 . S
C194 O208 1.275 . S
C194 O209 1.256 . S
C195 O210 1.259 . S
C195 O211 1.268 . S
C196 Ho185 2.811 . S
C196 C197 1.488 . S
C196 O212 1.215 . S
C196 O213 1.289 . S
C197 C196 1.488 . S
C197 C198 1.348 . S
C197 C202 1.413 . S
C198 C197 1.348 . S
C198 C199 1.442 . S
C198 H220 0.930 . S
C199 C198 1.442 . S
C199 C200 1.381 . S
C199 H221 0.931 . S
C200 C199 1.381 . S
C200 C201 1.321 . S
C201 C200 1.321 . S
C201 C202 1.403 . S
C201 H222 0.934 . S
C202 C197 1.413 . S
C202 C201 1.403 . S
C202 H223 0.930 . S
C203 O214 1.275 . S
C203 O215 1.256 . S
O204 Ho184 2.322 . S
O204 C186 1.259 . S
O205 Ho185 2.346 . S
O205 C186 1.268 . S
O206 Ho184 2.378 . S
O206 C187 1.215 . S
O207 Ho184 2.524 . S
O207 C187 1.289 . S
O208 Ho184 2.381 . S
O208 C194 1.275 . S
O209 Ho184 2.669 . S
O209 Ho185 2.305 . S
O209 C194 1.256 . S
O210 Ho185 2.322 . S
O210 C195 1.259 . S
O211 Ho184 2.346 . S
O211 C195 1.268 . S
O212 Ho185 2.378 . S
O212 C196 1.215 . S
O213 Ho185 2.524 . S
O213 C196 1.289 . S
O214 Ho185 2.381 . S
O214 C203 1.275 . S
O215 Ho184 2.305 . S
O215 Ho185 2.669 . S
O215 C203 1.256 . S
H216 C189 0.930 . S
H217 C190 0.931 . S
H218 C192 0.934 . S
H219 C193 0.930 . S
H220 C198 0.930 . S
H221 C199 0.931 . S
H222 C201 0.934 . S
H223 C202 0.930 . S
Ho224 C227 2.811 . S
Ho224 O244 2.322 . S
Ho224 O246 2.378 . S
Ho224 O247 2.524 . S
Ho224 O248 2.381 1_455 S
Ho224 O249 2.669 1_455 S
Ho224 O251 2.346 1_455 S
Ho224 O255 2.305 1_554 S
Ho225 C236 2.811 1_455 S
Ho225 O245 2.346 1_556 S
Ho225 O249 2.305 1_456 S
Ho225 O250 2.322 1_455 S
Ho225 O252 2.378 1_455 S
Ho225 O253 2.524 1_455 S
Ho225 O254 2.381 . S
Ho225 O255 2.669 . S
C226 O244 1.259 . S
C226 O245 1.268 . S
C227 Ho224 2.811 . S
C227 C228 1.488 . S
C227 O246 1.215 . S
C227 O247 1.289 . S
C228 C227 1.488 . S
C228 C229 1.348 . S
C228 C233 1.413 . S
C229 C228 1.348 . S
C229 C230 1.442 . S
C229 H256 0.930 . S
C230 C229 1.442 . S
C230 C231 1.381 . S
C230 H257 0.931 . S
C231 C230 1.381 . S
C231 C232 1.321 . S
C232 C231 1.321 . S
C232 C233 1.403 . S
C232 H258 0.934 . S
C233 C228 1.413 . S
C233 C232 1.403 . S
C233 H259 0.930 . S
C234 O248 1.275 . S
C234 O249 1.256 . S
C235 O250 1.259 . S
C235 O251 1.268 1_556 S
C236 Ho225 2.811 1_655 S
C236 C237 1.488 . S
C236 O252 1.215 . S
C236 O253 1.289 . S
C237 C236 1.488 . S
C237 C238 1.348 . S
C237 C242 1.413 . S
C238 C237 1.348 . S
C238 C239 1.442 . S
C238 H260 0.930 . S
C239 C238 1.442 . S
C239 C240 1.381 . S
C239 H261 0.931 . S
C240 C239 1.381 . S
C240 C241 1.321 . S
C241 C240 1.321 . S
C241 C242 1.403 . S
C241 H262 0.934 . S
C242 C237 1.413 . S
C242 C241 1.403 . S
C242 H263 0.930 . S
C243 O254 1.275 . S
C243 O255 1.256 . S
O244 Ho224 2.322 . S
O244 C226 1.259 . S
O245 Ho225 2.346 1_554 S
O245 C226 1.268 . S
O246 Ho224 2.378 . S
O246 C227 1.215 . S
O247 Ho224 2.524 . S
O247 C227 1.289 . S
O248 Ho224 2.381 1_655 S
O248 C234 1.275 . S
O249 Ho224 2.669 1_655 S
O249 Ho225 2.305 1_654 S
O249 C234 1.256 . S
O250 Ho225 2.322 1_655 S
O250 C235 1.259 . S
O251 Ho224 2.346 1_655 S
O251 C235 1.268 1_554 S
O252 Ho225 2.378 1_655 S
O252 C236 1.215 . S
O253 Ho225 2.524 1_655 S
O253 C236 1.289 . S
O254 Ho225 2.381 . S
O254 C243 1.275 . S
O255 Ho224 2.305 1_556 S
O255 Ho225 2.669 . S
O255 C243 1.256 . S
H256 C229 0.930 . S
H257 C230 0.931 . S
H258 C232 0.934 . S
H259 C233 0.930 . S
H260 C238 0.930 . S
H261 C239 0.931 . S
H262 C241 0.934 . S
H263 C242 0.930 . S
C264 C265 1.387 . S
C264 H268 0.950 . S
C264 C273 1.390 . S
C265 C264 1.387 . S
C265 C267 1.387 . S
H266 C273 0.950 . S
C267 C265 1.387 . S
C267 C269 1.390 . S
C267 H271 0.950 . S
H268 C264 0.950 . S
C269 C267 1.390 . S
C269 C270 1.387 . S
C269 H272 0.950 . S
C270 C269 1.387 . S
C270 C273 1.387 . S
H271 C267 0.950 . S
H272 C269 0.950 . S
C273 C264 1.390 . S
C273 H266 0.950 . S
C273 C270 1.387 . S
C274 C275 1.387 . S
C274 H278 0.950 . S
C274 C283 1.390 . S
C275 C274 1.387 . S
C275 C277 1.387 . S
H276 C283 0.950 . S
C277 C275 1.387 . S
C277 C279 1.390 . S
C277 H281 0.950 . S
H278 C274 0.950 . S
C279 C277 1.390 . S
C279 C280 1.387 . S
C279 H282 0.950 . S
C280 C279 1.387 . S
C280 C283 1.387 . S
H281 C277 0.950 . S
H282 C279 0.950 . S
C283 C274 1.390 . S
C283 H276 0.950 . S
C283 C280 1.387 . S
C284 C285 1.387 . S
C284 H288 0.950 . S
C284 C293 1.390 . S
C285 C284 1.387 . S
C285 C287 1.387 . S
H286 C293 0.950 . S
C287 C285 1.387 . S
C287 C289 1.390 . S
C287 H291 0.950 . S
H288 C284 0.950 . S
C289 C287 1.390 . S
C289 C290 1.387 . S
C289 H292 0.950 . S
C290 C289 1.387 . S
C290 C293 1.387 . S
H291 C287 0.950 . S
H292 C289 0.950 . S
C293 C284 1.390 . S
C293 H286 0.950 . S
C293 C290 1.387 . S
C294 C295 1.387 . S
C294 H298 0.950 . S
C294 C303 1.390 . S
C295 C294 1.387 . S
C295 C297 1.387 . S
H296 C303 0.950 . S
C297 C295 1.387 . S
C297 C299 1.390 . S
C297 H301 0.950 . S
H298 C294 0.950 . S
C299 C297 1.390 . S
C299 C300 1.387 . S
C299 H302 0.950 . S
C300 C299 1.387 . S
C300 C303 1.387 . S
H301 C297 0.950 . S
H302 C299 0.950 . S
C303 C294 1.390 . S
C303 H296 0.950 . S
C303 C300 1.387 . S
C304 C305 1.387 . S
C304 H308 0.950 . S
C304 C313 1.390 . S
C305 C304 1.387 . S
C305 C307 1.387 . S
H306 C313 0.950 . S
C307 C305 1.387 . S
C307 C309 1.390 . S
C307 H311 0.950 . S
H308 C304 0.950 . S
C309 C307 1.390 . S
C309 C310 1.387 . S
C309 H312 0.950 . S
C310 C309 1.387 . S
C310 C313 1.387 . S
H311 C307 0.950 . S
H312 C309 0.950 . S
C313 C304 1.390 . S
C313 H306 0.950 . S
C313 C310 1.387 . S
C314 C315 1.387 . S
C314 H318 0.950 . S
C314 C323 1.390 . S
C315 C314 1.387 . S
C315 C317 1.387 . S
H316 C323 0.950 . S
C317 C315 1.387 . S
C317 C319 1.390 . S
C317 H321 0.950 . S
H318 C314 0.950 . S
C319 C317 1.390 . S
C319 C320 1.387 . S
C319 H322 0.950 . S
C320 C319 1.387 . S
C320 C323 1.387 . S
H321 C317 0.950 . S
H322 C319 0.950 . S
C323 C314 1.390 . S
C323 H316 0.950 . S
C323 C320 1.387 . S
C324 C325 1.387 . S
C324 H328 0.950 . S
C324 C333 1.390 . S
C325 C324 1.387 . S
C325 C327 1.387 . S
H326 C333 0.950 1_554 S
C327 C325 1.387 . S
C327 C329 1.390 . S
C327 H331 0.950 . S
H328 C324 0.950 . S
C329 C327 1.390 . S
C329 C330 1.387 . S
C329 H332 0.950 . S
C330 C329 1.387 . S
C330 C333 1.387 . S
H331 C327 0.950 . S
H332 C329 0.950 . S
C333 C324 1.390 . S
C333 H326 0.950 1_556 S
C333 C330 1.387 . S
C334 C335 1.387 . S
C334 H338 0.950 . S
C334 C343 1.390 . S
C335 C334 1.387 . S
C335 C337 1.387 . S
H336 C343 0.950 . S
C337 C335 1.387 . S
C337 C339 1.390 . S
C337 H341 0.950 . S
H338 C334 0.950 . S
C339 C337 1.390 . S
C339 C340 1.387 . S
C339 H342 0.950 . S
C340 C339 1.387 . S
C340 C343 1.387 . S
H341 C337 0.950 . S
H342 C339 0.950 . S
C343 C334 1.390 . S
C343 H336 0.950 . S
C343 C340 1.387 . S
C344 C345 1.387 . S
C344 H348 0.950 . S
C344 C353 1.390 . S
C345 C344 1.387 . S
C345 C347 1.387 . S
H346 C353 0.950 . S
C347 C345 1.387 . S
C347 C349 1.390 . S
C347 H351 0.950 . S
H348 C344 0.950 . S
C349 C347 1.390 . S
C349 C350 1.387 . S
C349 H352 0.950 . S
C350 C349 1.387 . S
C350 C353 1.387 . S
H351 C347 0.950 . S
H352 C349 0.950 . S
C353 C344 1.390 . S
C353 H346 0.950 . S
C353 C350 1.387 . S
C354 C355 1.387 . S
C354 H358 0.950 . S
C354 C363 1.390 . S
C355 C354 1.387 . S
C355 C357 1.387 . S
H356 C363 0.950 . S
C357 C355 1.387 . S
C357 C359 1.390 . S
C357 H361 0.950 . S
H358 C354 0.950 . S
C359 C357 1.390 . S
C359 C360 1.387 . S
C359 H362 0.950 1_556 S
C360 C359 1.387 . S
C360 C363 1.387 . S
H361 C357 0.950 . S
H362 C359 0.950 1_554 S
C363 C354 1.390 . S
C363 H356 0.950 . S
C363 C360 1.387 . S
C364 C365 1.387 . S
C364 H368 0.950 . S
C364 C373 1.390 . S
C365 C364 1.387 . S
C365 C367 1.387 . S
H366 C373 0.950 . S
C367 C365 1.387 . S
C367 C369 1.390 . S
C367 H371 0.950 . S
H368 C364 0.950 . S
C369 C367 1.390 . S
C369 C370 1.387 . S
C369 H372 0.950 . S
C370 C369 1.387 . S
C370 C373 1.387 . S
H371 C367 0.950 . S
H372 C369 0.950 . S
C373 C364 1.390 . S
C373 H366 0.950 . S
C373 C370 1.387 . S
C374 C375 1.387 . S
C374 H378 0.950 . S
C374 C383 1.390 . S
C375 C374 1.387 . S
C375 C377 1.387 . S
H376 C383 0.950 . S
C377 C375 1.387 . S
C377 C379 1.390 . S
C377 H381 0.950 . S
H378 C374 0.950 . S
C379 C377 1.390 . S
C379 C380 1.387 . S
C379 H382 0.950 . S
C380 C379 1.387 . S
C380 C383 1.387 . S
H381 C377 0.950 . S
H382 C379 0.950 . S
C383 C374 1.390 . S
C383 H376 0.950 . S
C383 C380 1.387 . S
C384 C385 1.387 . S
C384 H388 0.950 . S
C384 C393 1.390 . S
C385 C384 1.387 . S
C385 C387 1.387 . S
H386 C393 0.950 . S
C387 C385 1.387 . S
C387 C389 1.390 . S
C387 H391 0.950 . S
H388 C384 0.950 . S
C389 C387 1.390 . S
C389 C390 1.387 . S
C389 H392 0.950 . S
C390 C389 1.387 . S
C390 C393 1.387 . S
H391 C387 0.950 . S
H392 C389 0.950 . S
C393 C384 1.390 . S
C393 H386 0.950 . S
C393 C390 1.387 . S
C394 C395 1.387 . S
C394 H398 0.950 . S
C394 C403 1.390 . S
C395 C394 1.387 . S
C395 C397 1.387 . S
H396 C403 0.950 . S
C397 C395 1.387 . S
C397 C399 1.390 . S
C397 H401 0.950 . S
H398 C394 0.950 . S
C399 C397 1.390 . S
C399 C400 1.387 . S
C399 H402 0.950 . S
C400 C399 1.387 . S
C400 C403 1.387 . S
H401 C397 0.950 . S
H402 C399 0.950 . S
C403 C394 1.390 . S
C403 H396 0.950 . S
C403 C400 1.387 . S
C404 C405 1.387 . S
C404 H408 0.950 . S
C404 C413 1.390 . S
C405 C404 1.387 . S
C405 C407 1.387 . S
H406 C413 0.950 . S
C407 C405 1.387 . S
C407 C409 1.390 . S
C407 H411 0.950 . S
H408 C404 0.950 . S
C409 C407 1.390 . S
C409 C410 1.387 . S
C409 H412 0.950 . S
C410 C409 1.387 . S
C410 C413 1.387 . S
H411 C407 0.950 . S
H412 C409 0.950 . S
C413 C404 1.390 . S
C413 H406 0.950 . S
C413 C410 1.387 . S
C414 C415 1.387 . S
C414 H418 0.950 . S
C414 C423 1.390 . S
C415 C414 1.387 . S
C415 C417 1.387 . S
H416 C423 0.950 . S
C417 C415 1.387 . S
C417 C419 1.390 . S
C417 H421 0.950 . S
H418 C414 0.950 . S
C419 C417 1.390 . S
C419 C420 1.387 . S
C419 H422 0.950 . S
C420 C419 1.387 . S
C420 C423 1.387 . S
H421 C417 0.950 . S
H422 C419 0.950 . S
C423 C414 1.390 . S
C423 H416 0.950 . S
C423 C420 1.387 . S
C424 C425 1.387 . S
C424 H428 0.950 . S
C424 C433 1.390 . S
C425 C424 1.387 . S
C425 C427 1.387 . S
H426 C433 0.950 . S
C427 C425 1.387 . S
C427 C429 1.390 . S
C427 H431 0.950 . S
H428 C424 0.950 . S
C429 C427 1.390 . S
C429 C430 1.387 . S
C429 H432 0.950 . S
C430 C429 1.387 . S
C430 C433 1.387 . S
H431 C427 0.950 . S
H432 C429 0.950 . S
C433 C424 1.390 . S
C433 H426 0.950 . S
C433 C430 1.387 . S
C434 C435 1.387 . S
C434 H438 0.950 . S
C434 C443 1.390 . S
C435 C434 1.387 . S
C435 C437 1.387 . S
H436 C443 0.950 . S
C437 C435 1.387 . S
C437 C439 1.390 . S
C437 H441 0.950 . S
H438 C434 0.950 . S
C439 C437 1.390 . S
C439 C440 1.387 . S
C439 H442 0.950 . S
C440 C439 1.387 . S
C440 C443 1.387 . S
H441 C437 0.950 . S
H442 C439 0.950 . S
C443 C434 1.390 . S
C443 H436 0.950 . S
C443 C440 1.387 . S
C444 C445 1.387 . S
C444 H448 0.950 . S
C444 C453 1.390 . S
C445 C444 1.387 . S
C445 C447 1.387 . S
H446 C453 0.950 . S
C447 C445 1.387 . S
C447 C449 1.390 . S
C447 H451 0.950 . S
H448 C444 0.950 . S
C449 C447 1.390 . S
C449 C450 1.387 . S
C449 H452 0.950 . S
C450 C449 1.387 . S
C450 C453 1.387 . S
H451 C447 0.950 . S
H452 C449 0.950 . S
C453 C444 1.390 . S
C453 H446 0.950 . S
C453 C450 1.387 . S
C454 C455 1.387 . S
C454 H458 0.950 . S
C454 C463 1.390 . S
C455 C454 1.387 . S
C455 C457 1.387 . S
H456 C463 0.950 . S
C457 C455 1.387 . S
C457 C459 1.390 . S
C457 H461 0.950 . S
H458 C454 0.950 . S
C459 C457 1.390 . S
C459 C460 1.387 . S
C459 H462 0.950 . S
C460 C459 1.387 . S
C460 C463 1.387 . S
H461 C457 0.950 . S
H462 C459 0.950 . S
C463 C454 1.390 . S
C463 H456 0.950 . S
C463 C460 1.387 . S
C464 C465 1.387 . S
C464 H468 0.950 . S
C464 C473 1.390 . S
C465 C464 1.387 . S
C465 C467 1.387 . S
H466 C473 0.950 . S
C467 C465 1.387 . S
C467 C469 1.390 . S
C467 H471 0.950 . S
H468 C464 0.950 . S
C469 C467 1.390 . S
C469 C470 1.387 . S
C469 H472 0.950 . S
C470 C469 1.387 . S
C470 C473 1.387 . S
H471 C467 0.950 . S
H472 C469 0.950 . S
C473 C464 1.390 . S
C473 H466 0.950 . S
C473 C470 1.387 . S
C474 C475 1.387 . S
C474 H478 0.950 . S
C474 C483 1.390 . S
C475 C474 1.387 . S
C475 C477 1.387 . S
H476 C483 0.950 . S
C477 C475 1.387 . S
C477 C479 1.390 . S
C477 H481 0.950 . S
H478 C474 0.950 . S
C479 C477 1.390 . S
C479 C480 1.387 . S
C479 H482 0.950 . S
C480 C479 1.387 . S
C480 C483 1.387 . S
H481 C477 0.950 . S
H482 C479 0.950 . S
C483 C474 1.390 . S
C483 H476 0.950 . S
C483 C480 1.387 . S
C484 C485 1.387 . S
C484 H488 0.950 . S
C484 C493 1.390 . S
C485 C484 1.387 . S
C485 C487 1.387 . S
H486 C493 0.950 . S
C487 C485 1.387 . S
C487 C489 1.390 . S
C487 H491 0.950 . S
H488 C484 0.950 . S
C489 C487 1.390 . S
C489 C490 1.387 . S
C489 H492 0.950 . S
C490 C489 1.387 . S
C490 C493 1.387 . S
H491 C487 0.950 . S
H492 C489 0.950 . S
C493 C484 1.390 . S
C493 H486 0.950 . S
C493 C490 1.387 . S
C494 C495 1.387 . S
C494 H498 0.950 . S
C494 C503 1.390 . S
C495 C494 1.387 . S
C495 C497 1.387 . S
H496 C503 0.950 . S
C497 C495 1.387 . S
C497 C499 1.390 . S
C497 H501 0.950 . S
H498 C494 0.950 . S
C499 C497 1.390 . S
C499 C500 1.387 . S
C499 H502 0.950 . S
C500 C499 1.387 . S
C500 C503 1.387 . S
H501 C497 0.950 . S
H502 C499 0.950 . S
C503 C494 1.390 . S
C503 H496 0.950 . S
C503 C500 1.387 . S
C265 N1 0.973 . S
C270 C111 1.009 . S
C275 N18 1.120 . S
C280 C160 1.177 . S
C290 C186 2.189 . S
C285 N28 2.247 . S
C295 N40 2.668 . S
C300 C234 2.689 . S
C310 C146 2.274 . S
C305 N5 2.181 . S
C320 C114 0.586 . S
C315 N14 0.547 . S
C330 C235 2.054 . S
C325 N31 2.059 . S
C340 C203 1.589 . S
C335 N41 1.601 . S
C345 N2 1.322 . S
C350 C231 1.371 . S
C360 C163 2.485 1_556 S
C355 N27 2.547 . S
C365 N44 2.441 . S
C370 C115 2.505 . S
C375 N15 0.974 . S
C380 C200 0.980 . S
C390 C120 1.497 . S
C385 N57 1.578 . S
C395 N70 0.995 . S
C400 C151 1.084 . S
C405 N79 2.380 . S
C410 C195 2.413 . S
C415 N93 2.503 . S
C420 C243 2.489 . S
C425 N54 1.866 . S
C430 C155 2.054 1_565 S
C440 C123 1.343 . S
C435 N66 1.426 . S
C450 C226 1.594 . S
C445 N80 1.666 . S
C460 C194 1.826 . S
C455 N96 1.829 . S
C465 N53 1.542 . S
C470 C240 1.555 . S
C480 C154 2.218 . S
C475 N83 2.216 . S
C490 C106 2.662 . S
C485 N92 2.658 . S
C495 N67 1.180 . S
C500 C191 1.229 . S
