# Generated by pormake.
# Topology ssb, (4,4)-cn, num edge types: 1
# Building blocks:
#     Node 0, Type 0, BuildingBlock: MIFKUJ_clean_linker_1, # of connection points: 4
#     Node 1, Type 0, BuildingBlock: MIFKUJ_clean_linker_1, # of connection points: 4
#     Node 2, Type 0, BuildingBlock: MIFKUJ_clean_linker_1, # of connection points: 4
#     Node 3, Type 0, BuildingBlock: MIFKUJ_clean_linker_1, # of connection points: 4
#     Node 4, Type 0, BuildingBlock: MIFKUJ_clean_linker_1, # of connection points: 4
#     Node 5, Type 0, BuildingBlock: MIFKUJ_clean_linker_1, # of connection points: 4
#     Node 6, Type 0, BuildingBlock: MIFKUJ_clean_linker_1, # of connection points: 4
#     Node 7, Type 0, BuildingBlock: MIFKUJ_clean_linker_1, # of connection points: 4
#     Node 8, Type 1, BuildingBlock: KOZSID_clean_sbu_0, # of connection points: 4
#     Node 9, Type 1, BuildingBlock: KOZSID_clean_sbu_0, # of connection points: 4
#     Node 10, Type 1, BuildingBlock: KOZSID_clean_sbu_0, # of connection points: 4
#     Node 11, Type 1, BuildingBlock: KOZSID_clean_sbu_0, # of connection points: 4
#     Node 12, Type 1, BuildingBlock: KOZSID_clean_sbu_0, # of connection points: 4
#     Node 13, Type 1, BuildingBlock: KOZSID_clean_sbu_0, # of connection points: 4
#     Node 14, Type 1, BuildingBlock: KOZSID_clean_sbu_0, # of connection points: 4
#     Node 15, Type 1, BuildingBlock: KOZSID_clean_sbu_0, # of connection points: 4
#     Edge 16, Type (0, 1), BuildingBlock: MIFKUJ_clean_linker_0, # of connection points: 2
#     Edge 17, Type (0, 1), BuildingBlock: MIFKUJ_clean_linker_0, # of connection points: 2
#     Edge 18, Type (0, 1), BuildingBlock: MIFKUJ_clean_linker_0, # of connection points: 2
#     Edge 19, Type (0, 1), BuildingBlock: MIFKUJ_clean_linker_0, # of connection points: 2
#     Edge 20, Type (0, 1), BuildingBlock: MIFKUJ_clean_linker_0, # of connection points: 2
#     Edge 21, Type (0, 1), BuildingBlock: MIFKUJ_clean_linker_0, # of connection points: 2
#     Edge 22, Type (0, 1), BuildingBlock: MIFKUJ_clean_linker_0, # of connection points: 2
#     Edge 23, Type (0, 1), BuildingBlock: MIFKUJ_clean_linker_0, # of connection points: 2
#     Edge 24, Type (0, 1), BuildingBlock: MIFKUJ_clean_linker_0, # of connection points: 2
#     Edge 25, Type (0, 1), BuildingBlock: MIFKUJ_clean_linker_0, # of connection points: 2
#     Edge 26, Type (0, 1), BuildingBlock: MIFKUJ_clean_linker_0, # of connection points: 2
#     Edge 27, Type (0, 1), BuildingBlock: MIFKUJ_clean_linker_0, # of connection points: 2
#     Edge 28, Type (0, 1), BuildingBlock: MIFKUJ_clean_linker_0, # of connection points: 2
#     Edge 29, Type (0, 1), BuildingBlock: MIFKUJ_clean_linker_0, # of connection points: 2
#     Edge 30, Type (0, 1), BuildingBlock: MIFKUJ_clean_linker_0, # of connection points: 2
#     Edge 31, Type (0, 1), BuildingBlock: MIFKUJ_clean_linker_0, # of connection points: 2
#     Edge 32, Type (0, 1), BuildingBlock: MIFKUJ_clean_linker_0, # of connection points: 2
#     Edge 33, Type (0, 1), BuildingBlock: MIFKUJ_clean_linker_0, # of connection points: 2
#     Edge 34, Type (0, 1), BuildingBlock: MIFKUJ_clean_linker_0, # of connection points: 2
#     Edge 35, Type (0, 1), BuildingBlock: MIFKUJ_clean_linker_0, # of connection points: 2
#     Edge 36, Type (0, 1), BuildingBlock: MIFKUJ_clean_linker_0, # of connection points: 2
#     Edge 37, Type (0, 1), BuildingBlock: MIFKUJ_clean_linker_0, # of connection points: 2
#     Edge 38, Type (0, 1), BuildingBlock: MIFKUJ_clean_linker_0, # of connection points: 2
#     Edge 39, Type (0, 1), BuildingBlock: MIFKUJ_clean_linker_0, # of connection points: 2
#     Edge 40, Type (0, 1), BuildingBlock: MIFKUJ_clean_linker_0, # of connection points: 2
#     Edge 41, Type (0, 1), BuildingBlock: MIFKUJ_clean_linker_0, # of connection points: 2
#     Edge 42, Type (0, 1), BuildingBlock: MIFKUJ_clean_linker_0, # of connection points: 2
#     Edge 43, Type (0, 1), BuildingBlock: MIFKUJ_clean_linker_0, # of connection points: 2
#     Edge 44, Type (0, 1), BuildingBlock: MIFKUJ_clean_linker_0, # of connection points: 2
#     Edge 45, Type (0, 1), BuildingBlock: MIFKUJ_clean_linker_0, # of connection points: 2
#     Edge 46, Type (0, 1), BuildingBlock: MIFKUJ_clean_linker_0, # of connection points: 2
#     Edge 47, Type (0, 1), BuildingBlock: MIFKUJ_clean_linker_0, # of connection points: 2
# Relax obj value: 0.001
# Max RMSD: 0.017
# Mean RMSD: 0.011
data_MOF--net-ssb--node1-KOZSID_clean_sbu_0--node2-MIFKUJ_clean_linker_1--edge1-MIFKUJ_clean_linker_0
_symmetry_space_group_name_H-M    P1
_symmetry_Int_Tables_number       1
_symmetry_cell_setting            triclinic
loop_
_symmetry_equiv_pos_as_xyz
'x, y, z'
_cell_length_a     78.022747
_cell_length_b     77.861407
_cell_length_c     57.503565
_cell_angle_alpha  91.804717
_cell_angle_beta   93.548038
_cell_angle_gamma 90.01259
loop_
_atom_site_label
_atom_site_type_symbol
_atom_site_fract_x
_atom_site_fract_y
_atom_site_fract_z
_atom_type_partial_charge
H0 H 0.27781 0.22544 0.22345 0.0
H1 H 0.3025 0.22662 0.19931 0.0
H2 H 0.31494 0.27734 0.22798 0.0
H3 H 0.29044 0.27599 0.25245 0.0
H4 H 0.27495 0.22571 0.26836 0.0
H5 H 0.25707 0.26305 0.20673 0.0
H6 H 0.25813 0.28757 0.1813 0.0
H7 H 0.25303 0.32218 0.24058 0.0
H8 H 0.25229 0.29763 0.26604 0.0
H9 H 0.23259 0.26962 0.32018 0.0
H10 H 0.20794 0.26869 0.34466 0.0
H11 H 0.18826 0.22425 0.30486 0.0
H12 H 0.21314 0.22501 0.28071 0.0
H13 H 0.23155 0.27217 0.26988 0.0
H14 H 0.24901 0.23398 0.33111 0.0
H15 H 0.24741 0.20916 0.35566 0.0
H16 H 0.25323 0.17544 0.29553 0.0
H17 H 0.25369 0.20034 0.27085 0.0
C18 C 0.28209 0.2507 0.23959 0.0
C19 C 0.2859 0.23678 0.22467 0.0
C20 C 0.30003 0.23746 0.21088 0.0
C21 C 0.31061 0.25211 0.21165 0.0
C22 C 0.30687 0.26599 0.22673 0.0
C23 C 0.29286 0.26522 0.24072 0.0
C24 C 0.26694 0.24995 0.25407 0.0
C25 C 0.2653 0.23573 0.26844 0.0
C26 C 0.25454 0.26332 0.25436 0.0
C27 C 0.25487 0.27834 0.23855 0.0
C28 C 0.2564 0.2759 0.21439 0.0
C29 C 0.25698 0.28999 0.19978 0.0
C30 C 0.25574 0.30694 0.20881 0.0
C31 C 0.25388 0.30935 0.23291 0.0
C32 C 0.25347 0.29527 0.24755 0.0
C33 C 0.2247 0.24735 0.29873 0.0
C34 C 0.22298 0.25967 0.31678 0.0
C35 C 0.20898 0.25907 0.33079 0.0
C36 C 0.19624 0.24639 0.32662 0.0
C37 C 0.19788 0.23419 0.30835 0.0
C38 C 0.21207 0.23458 0.29463 0.0
C39 C 0.23964 0.24797 0.28404 0.0
C40 C 0.2412 0.26215 0.26966 0.0
C41 C 0.25184 0.23448 0.28354 0.0
C42 C 0.25112 0.21921 0.29885 0.0
C43 C 0.24958 0.22126 0.32305 0.0
C44 C 0.24896 0.20694 0.33724 0.0
C45 C 0.25015 0.19007 0.32778 0.0
C46 C 0.25192 0.18808 0.30358 0.0
C47 C 0.25239 0.20241 0.28937 0.0
H48 H 0.70746 0.25114 0.25717 0.0
H49 H 0.68143 0.25041 0.23137 0.0
H50 H 0.712 0.257 0.17209 0.0
H51 H 0.73808 0.25694 0.19792 0.0
H52 H 0.73364 0.23041 0.26024 0.0
H53 H 0.72596 0.28942 0.2457 0.0
H54 H 0.72134 0.31498 0.22261 0.0
H55 H 0.77014 0.30645 0.19239 0.0
H56 H 0.77424 0.28042 0.21463 0.0
H57 H 0.80369 0.25051 0.26208 0.0
H58 H 0.8299 0.2491 0.28747 0.0
H59 H 0.79955 0.25311 0.34788 0.0
H60 H 0.77339 0.25385 0.32226 0.0
H61 H 0.77775 0.27628 0.25996 0.0
H62 H 0.78428 0.21631 0.27758 0.0
H63 H 0.78632 0.19067 0.30118 0.0
H64 H 0.7378 0.20344 0.32959 0.0
H65 H 0.73595 0.22922 0.3064 0.0
C66 C 0.72473 0.25424 0.22953 0.0
C67 C 0.70857 0.25237 0.2386 0.0
C68 C 0.69367 0.25212 0.22384 0.0
C69 C 0.6946 0.25375 0.19966 0.0
C70 C 0.71082 0.25557 0.19059 0.0
C71 C 0.72574 0.25573 0.20538 0.0
C72 C 0.74051 0.25426 0.24535 0.0
C73 C 0.74315 0.24059 0.26038 0.0
C74 C 0.75306 0.26738 0.2454 0.0
C75 C 0.75033 0.28292 0.23159 0.0
C76 C 0.73553 0.29293 0.23383 0.0
C77 C 0.733 0.30763 0.22083 0.0
C78 C 0.74534 0.31268 0.20562 0.0
C79 C 0.76024 0.30271 0.20362 0.0
C80 C 0.76269 0.28795 0.21649 0.0
C81 C 0.78664 0.25217 0.29031 0.0
C82 C 0.80274 0.25112 0.28081 0.0
C83 C 0.81771 0.25039 0.29538 0.0
C84 C 0.81689 0.25097 0.31979 0.0
C85 C 0.80069 0.2523 0.32921 0.0
C86 C 0.78571 0.25284 0.3146 0.0
C87 C 0.7708 0.25244 0.27477 0.0
C88 C 0.76819 0.26615 0.25979 0.0
C89 C 0.75807 0.23958 0.27517 0.0
C90 C 0.76002 0.2247 0.29039 0.0
C91 C 0.77427 0.21378 0.28926 0.0
C92 C 0.77541 0.19915 0.30266 0.0
C93 C 0.76217 0.19512 0.31703 0.0
C94 C 0.74807 0.20621 0.31842 0.0
C95 C 0.74702 0.22091 0.30523 0.0
H96 H 0.72643 0.77349 0.21026 0.0
H97 H 0.70146 0.7715 0.18249 0.0
H98 H 0.68333 0.72749 0.21804 0.0
H99 H 0.70871 0.7292 0.24507 0.0
H100 H 0.72746 0.77792 0.25887 0.0
H101 H 0.74457 0.73712 0.20106 0.0
H102 H 0.743 0.71156 0.17535 0.0
H103 H 0.74601 0.6795 0.23544 0.0
H104 H 0.74676 0.70517 0.26106 0.0
H105 H 0.77058 0.73316 0.31548 0.0
H106 H 0.79647 0.73373 0.3418 0.0
H107 H 0.81286 0.78035 0.31083 0.0
H108 H 0.78713 0.77951 0.28425 0.0
H109 H 0.76907 0.73011 0.26831 0.0
H110 H 0.74971 0.7712 0.32591 0.0
H111 H 0.75085 0.79696 0.35131 0.0
H112 H 0.75425 0.82835 0.29105 0.0
H113 H 0.7525 0.80251 0.2658 0.0
C114 C 0.71944 0.75144 0.2296 0.0
C115 C 0.71706 0.76341 0.21198 0.0
C116 C 0.70271 0.76229 0.1962 0.0
C117 C 0.69029 0.74934 0.19799 0.0
C118 C 0.69274 0.73743 0.21581 0.0
C119 C 0.70719 0.73844 0.2314 0.0
C120 C 0.73462 0.75266 0.24636 0.0
C121 C 0.73671 0.76757 0.26079 0.0
C122 C 0.74642 0.73892 0.24895 0.0
C123 C 0.74552 0.72321 0.23314 0.0
C124 C 0.74462 0.72461 0.20876 0.0
C125 C 0.74396 0.7099 0.19401 0.0
C126 C 0.74438 0.69332 0.20319 0.0
C127 C 0.74539 0.69197 0.22762 0.0
C128 C 0.74599 0.7067 0.24237 0.0
C129 C 0.77688 0.75633 0.29801 0.0
C130 C 0.77971 0.74355 0.31448 0.0
C131 C 0.79444 0.74397 0.32961 0.0
C132 C 0.80671 0.75709 0.32837 0.0
C133 C 0.80372 0.77001 0.31206 0.0
C134 C 0.78895 0.76962 0.29701 0.0
C135 C 0.7618 0.75527 0.28103 0.0
C136 C 0.75977 0.74041 0.26647 0.0
C137 C 0.75008 0.76906 0.27828 0.0
C138 C 0.75111 0.78483 0.29387 0.0
C139 C 0.75078 0.78363 0.31818 0.0
C140 C 0.75152 0.79846 0.33274 0.0
C141 C 0.75269 0.81493 0.32342 0.0
C142 C 0.75305 0.81603 0.29901 0.0
C143 C 0.75215 0.8012 0.28446 0.0
H144 H 0.22555 0.73153 0.29017 0.0
H145 H 0.20133 0.73196 0.31519 0.0
H146 H 0.18207 0.77783 0.28237 0.0
H147 H 0.20614 0.77719 0.25704 0.0
H148 H 0.22774 0.72746 0.24594 0.0
H149 H 0.24447 0.77171 0.30087 0.0
H150 H 0.24377 0.79823 0.32461 0.0
H151 H 0.23855 0.82761 0.26203 0.0
H152 H 0.23866 0.80095 0.23835 0.0
H153 H 0.26486 0.76972 0.18708 0.0
H154 H 0.28976 0.76842 0.1633 0.0
H155 H 0.31366 0.73175 0.21008 0.0
H156 H 0.28835 0.73258 0.23297 0.0
H157 H 0.26452 0.77843 0.2364 0.0
H158 H 0.24749 0.7322 0.18218 0.0
H159 H 0.24977 0.70488 0.16058 0.0
H160 H 0.25921 0.67892 0.22553 0.0
H161 H 0.25647 0.7063 0.24701 0.0
C162 C 0.21781 0.75441 0.27182 0.0
C163 C 0.21608 0.74164 0.28825 0.0
C164 C 0.20222 0.74188 0.30254 0.0
C165 C 0.18983 0.75495 0.30077 0.0
C166 C 0.19156 0.76773 0.28434 0.0
C167 C 0.20533 0.76739 0.26989 0.0
C168 C 0.23249 0.75392 0.25647 0.0
C169 C 0.23587 0.73859 0.24417 0.0
C170 C 0.24299 0.76845 0.2536 0.0
C171 C 0.24147 0.7844 0.26788 0.0
C172 C 0.24285 0.78384 0.29228 0.0
C173 C 0.24262 0.799 0.3058 0.0
C174 C 0.24119 0.81497 0.29514 0.0
C175 C 0.23949 0.81547 0.2707 0.0
C176 C 0.23968 0.80029 0.25718 0.0
C177 C 0.27474 0.75118 0.21166 0.0
C178 C 0.27547 0.76136 0.19208 0.0
C179 C 0.28979 0.76067 0.17861 0.0
C180 C 0.30384 0.75 0.18471 0.0
C181 C 0.30302 0.73987 0.20449 0.0
C182 C 0.28859 0.7404 0.21774 0.0
C183 C 0.25967 0.75203 0.22611 0.0
C184 C 0.25625 0.7674 0.23819 0.0
C185 C 0.24934 0.7375 0.22914 0.0
C186 C 0.25186 0.72119 0.21612 0.0
C187 C 0.25025 0.72063 0.1917 0.0
C188 C 0.25162 0.70503 0.17941 0.0
C189 C 0.25464 0.68974 0.19137 0.0
C190 C 0.25661 0.69044 0.21586 0.0
C191 C 0.25513 0.70604 0.22813 0.0
H192 H 0.20604 0.76381 0.75063 0.0
H193 H 0.17979 0.76486 0.72538 0.0
H194 H 0.21015 0.76675 0.6651 0.0
H195 H 0.23632 0.7647 0.69038 0.0
H196 H 0.22965 0.74026 0.75384 0.0
H197 H 0.22867 0.7999 0.73384 0.0
H198 H 0.22747 0.82458 0.70857 0.0
H199 H 0.27548 0.80891 0.68094 0.0
H200 H 0.27621 0.78388 0.70555 0.0
H201 H 0.30226 0.75665 0.75283 0.0
H202 H 0.32875 0.75523 0.77751 0.0
H203 H 0.29904 0.75258 0.83836 0.0
H204 H 0.27268 0.75516 0.8137 0.0
H205 H 0.27879 0.78028 0.75051 0.0
H206 H 0.27814 0.7193 0.76763 0.0
H207 H 0.27909 0.69432 0.79235 0.0
H208 H 0.23519 0.7139 0.82706 0.0
H209 H 0.23398 0.73843 0.8016 0.0
C210 C 0.22318 0.76435 0.72246 0.0
C211 C 0.20704 0.76442 0.73196 0.0
C212 C 0.19202 0.7652 0.71749 0.0
C213 C 0.19282 0.76597 0.69316 0.0
C214 C 0.20903 0.76599 0.68371 0.0
C215 C 0.22404 0.76504 0.69819 0.0
C216 C 0.23906 0.76289 0.7379 0.0
C217 C 0.24032 0.74914 0.75335 0.0
C218 C 0.25311 0.77437 0.73677 0.0
C219 C 0.25242 0.78974 0.72153 0.0
C220 C 0.23886 0.80163 0.72216 0.0
C221 C 0.23829 0.81594 0.70782 0.0
C222 C 0.25136 0.81889 0.69252 0.0
C223 C 0.26501 0.80704 0.69212 0.0
C224 C 0.26554 0.79273 0.70642 0.0
C225 C 0.28543 0.75583 0.78133 0.0
C226 C 0.30146 0.7558 0.7715 0.0
C227 C 0.31662 0.7548 0.78565 0.0
C228 C 0.31609 0.75371 0.80998 0.0
C229 C 0.29999 0.75361 0.81975 0.0
C230 C 0.28485 0.75482 0.8056 0.0
C231 C 0.26941 0.75757 0.76623 0.0
C232 C 0.26811 0.7714 0.75092 0.0
C233 C 0.25533 0.74619 0.76745 0.0
C234 C 0.25603 0.73088 0.78271 0.0
C235 C 0.26872 0.71821 0.78059 0.0
C236 C 0.2693 0.70392 0.79494 0.0
C237 C 0.25724 0.70188 0.81198 0.0
C238 C 0.24454 0.71466 0.81399 0.0
C239 C 0.24387 0.72885 0.79947 0.0
H240 H 0.29233 0.2526 0.78327 0.0
H241 H 0.31924 0.25491 0.80713 0.0
H242 H 0.29076 0.2639 0.86851 0.0
H243 H 0.26389 0.26061 0.84468 0.0
H244 H 0.26696 0.23073 0.78234 0.0
H245 H 0.27143 0.2918 0.79272 0.0
H246 H 0.27663 0.31838 0.81592 0.0
H247 H 0.23348 0.30683 0.85644 0.0
H248 H 0.2284 0.28014 0.8332 0.0
H249 H 0.19598 0.25044 0.77991 0.0
H250 H 0.17022 0.24902 0.75348 0.0
H251 H 0.20199 0.2502 0.6945 0.0
H252 H 0.22764 0.25103 0.7211 0.0
H253 H 0.22194 0.27567 0.78396 0.0
H254 H 0.21574 0.21549 0.7638 0.0
H255 H 0.21384 0.1892 0.7392 0.0
H256 H 0.26337 0.2004 0.71363 0.0
H257 H 0.26502 0.22692 0.73754 0.0
C258 C 0.27607 0.25658 0.81212 0.0
C259 C 0.29189 0.25495 0.8019 0.0
C260 C 0.30727 0.25648 0.81555 0.0
C261 C 0.3072 0.25973 0.83975 0.0
C262 C 0.29132 0.26125 0.84997 0.0
C263 C 0.27592 0.25957 0.83632 0.0
C264 C 0.25978 0.25509 0.79739 0.0
C265 C 0.2572 0.24065 0.78248 0.0
C266 C 0.24689 0.26782 0.79786 0.0
C267 C 0.24961 0.28405 0.81143 0.0
C268 C 0.26311 0.29502 0.80661 0.0
C269 C 0.26601 0.31019 0.81976 0.0
C270 C 0.25547 0.31457 0.83795 0.0
C271 C 0.24187 0.30361 0.84264 0.0
C272 C 0.23889 0.2885 0.82933 0.0
C273 C 0.21369 0.25069 0.75244 0.0
C274 C 0.19734 0.25037 0.76127 0.0
C275 C 0.18263 0.24965 0.74611 0.0
C276 C 0.18399 0.24949 0.7218 0.0
C277 C 0.20044 0.24998 0.71307 0.0
C278 C 0.21513 0.25054 0.72824 0.0
C279 C 0.22925 0.25141 0.76854 0.0
C280 C 0.23165 0.26569 0.78383 0.0
C281 C 0.24219 0.23872 0.76789 0.0
C282 C 0.24047 0.22323 0.75237 0.0
C283 C 0.22602 0.21248 0.75254 0.0
C284 C 0.22496 0.19747 0.73859 0.0
C285 C 0.2385 0.19285 0.72471 0.0
C286 C 0.25286 0.20366 0.7244 0.0
C287 C 0.2538 0.21877 0.73803 0.0
H288 H 0.73318 0.23597 0.81903 0.0
H289 H 0.70898 0.23757 0.84448 0.0
H290 H 0.68531 0.27646 0.80145 0.0
H291 H 0.70977 0.27526 0.7765 0.0
H292 H 0.73108 0.2292 0.76778 0.0
H293 H 0.74821 0.27134 0.82695 0.0
H294 H 0.74667 0.29725 0.8518 0.0
H295 H 0.74769 0.32849 0.79122 0.0
H296 H 0.74871 0.30248 0.76626 0.0
H297 H 0.76929 0.27234 0.7116 0.0
H298 H 0.79374 0.27125 0.68663 0.0
H299 H 0.81628 0.23057 0.72759 0.0
H300 H 0.79167 0.23147 0.7522 0.0
H301 H 0.77102 0.27826 0.76202 0.0
H302 H 0.75076 0.23683 0.70287 0.0
H303 H 0.75157 0.21131 0.67723 0.0
H304 H 0.75767 0.17952 0.73747 0.0
H305 H 0.75637 0.20516 0.76297 0.0
C306 C 0.72326 0.25555 0.79598 0.0
C307 C 0.72279 0.24486 0.81514 0.0
C308 C 0.70906 0.24583 0.82967 0.0
C309 C 0.69537 0.25713 0.82484 0.0
C310 C 0.69573 0.26763 0.80545 0.0
C311 C 0.70966 0.26697 0.79126 0.0
C312 C 0.73793 0.25474 0.78078 0.0
C313 C 0.73997 0.23982 0.76671 0.0
C314 C 0.74921 0.26889 0.77919 0.0
C315 C 0.74821 0.28478 0.79451 0.0
C316 C 0.74771 0.28371 0.81885 0.0
C317 C 0.74692 0.29859 0.83314 0.0
C318 C 0.74698 0.315 0.82355 0.0
C319 C 0.74774 0.31609 0.79924 0.0
C320 C 0.7483 0.30118 0.78492 0.0
C321 C 0.77867 0.25195 0.73366 0.0
C322 C 0.77947 0.26315 0.71511 0.0
C323 C 0.79337 0.26246 0.70084 0.0
C324 C 0.80687 0.25083 0.70524 0.0
C325 C 0.80608 0.2397 0.72391 0.0
C326 C 0.79203 0.24016 0.73789 0.0
C327 C 0.76408 0.25279 0.74898 0.0
C328 C 0.76208 0.26769 0.7631 0.0
C329 C 0.75279 0.23869 0.75059 0.0
C330 C 0.75366 0.22302 0.73494 0.0
C331 C 0.75241 0.22438 0.71058 0.0
C332 C 0.75293 0.20969 0.69588 0.0
C333 C 0.75475 0.19317 0.7051 0.0
C334 C 0.75599 0.19189 0.72957 0.0
C335 C 0.75535 0.20659 0.74426 0.0
H336 H 0.77597 0.73125 0.70716 0.0
H337 H 0.79972 0.73221 0.6813 0.0
H338 H 0.81758 0.7796 0.71552 0.0
H339 H 0.7943 0.77827 0.74196 0.0
H340 H 0.77515 0.7278 0.75139 0.0
H341 H 0.75014 0.77168 0.70089 0.0
H342 H 0.75006 0.79847 0.67939 0.0
H343 H 0.76787 0.82635 0.74234 0.0
H344 H 0.76746 0.79964 0.76398 0.0
H345 H 0.73561 0.77387 0.81 0.0
H346 H 0.71131 0.77299 0.83497 0.0
H347 H 0.69386 0.72571 0.80012 0.0
H348 H 0.7176 0.72701 0.77443 0.0
H349 H 0.73691 0.77741 0.76582 0.0
H350 H 0.76018 0.73256 0.81658 0.0
H351 H 0.758 0.70555 0.8372 0.0
H352 H 0.74239 0.67905 0.77226 0.0
H353 H 0.745 0.70596 0.75158 0.0
C354 C 0.78311 0.75484 0.72632 0.0
C355 C 0.785 0.74184 0.70915 0.0
C356 C 0.79855 0.7424 0.69438 0.0
C357 C 0.81039 0.75604 0.69633 0.0
C358 C 0.80846 0.76909 0.7134 0.0
C359 C 0.79508 0.76838 0.72843 0.0
C360 C 0.76901 0.75387 0.74255 0.0
C361 C 0.76669 0.73862 0.75429 0.0
C362 C 0.75811 0.76794 0.74695 0.0
C363 C 0.75885 0.78381 0.73389 0.0
C364 C 0.75407 0.78357 0.70998 0.0
C365 C 0.754 0.79877 0.69781 0.0
C366 C 0.75899 0.81425 0.70938 0.0
C367 C 0.76407 0.81445 0.7332 0.0
C368 C 0.76378 0.79931 0.74549 0.0
C369 C 0.72871 0.75034 0.79055 0.0
C370 C 0.72656 0.76331 0.80769 0.0
C371 C 0.7127 0.76281 0.82195 0.0
C372 C 0.70082 0.74921 0.81955 0.0
C373 C 0.70301 0.73618 0.80257 0.0
C374 C 0.71667 0.73686 0.788 0.0
C375 C 0.74305 0.75136 0.7747 0.0
C376 C 0.74543 0.76662 0.76303 0.0
C377 C 0.75394 0.73726 0.77028 0.0
C378 C 0.7527 0.72113 0.78267 0.0
C379 C 0.75635 0.7209 0.80683 0.0
C380 C 0.75515 0.70557 0.81851 0.0
C381 C 0.75001 0.69042 0.80617 0.0
C382 C 0.7463 0.69068 0.78201 0.0
C383 C 0.74785 0.70593 0.77027 0.0
C384 C 0.02729 0.2634 0.55514 0.0
C385 C 0.03419 0.27917 0.56293 0.0
C386 C 0.02597 0.29138 0.54995 0.0
C387 C 0.01473 0.28244 0.53486 0.0
N388 N 0.01506 0.26525 0.53759 0.0
Co389 Co 0.00229 0.24744 0.51735 0.0
N390 N 0.99008 0.26547 0.49844 0.0
C391 C 0.99133 0.28268 0.50199 0.0
C392 C 0.98034 0.29184 0.48764 0.0
C393 C 0.97126 0.27975 0.47436 0.0
C394 C 0.97742 0.26384 0.48125 0.0
N395 N 0.99039 0.22963 0.49624 0.0
C396 C 0.97855 0.23141 0.47825 0.0
C397 C 0.97406 0.21567 0.46758 0.0
C398 C 0.98312 0.20347 0.47962 0.0
C399 C 0.9927 0.21244 0.49673 0.0
N400 N 0.01353 0.22943 0.5372 0.0
C401 C 0.01094 0.21226 0.53505 0.0
C402 C 0.01992 0.20313 0.55175 0.0
C403 C 0.02885 0.21518 0.56532 0.0
C404 C 0.02493 0.23101 0.55589 0.0
N405 N 0.98281 0.24782 0.53807 0.0
C406 C 0.9543 0.24862 0.56589 0.0
C407 C 0.95883 0.23354 0.55404 0.0
C408 C 0.97313 0.23337 0.54055 0.0
C409 C 0.96439 0.26324 0.56388 0.0
C410 C 0.97841 0.26262 0.54983 0.0
N411 N 0.02181 0.24705 0.49657 0.0
C412 C 0.04575 0.23218 0.48015 0.0
C413 C 0.05015 0.24676 0.46836 0.0
C414 C 0.04008 0.26144 0.47068 0.0
C415 C 0.02619 0.26138 0.48492 0.0
C416 C 0.03153 0.23252 0.4938 0.0
H417 H 0.0193 0.27314 0.48633 0.0
H418 H 0.02872 0.22083 0.50195 0.0
H419 H 0.97605 0.22138 0.53222 0.0
H420 H 0.98537 0.27431 0.54857 0.0
C421 C 0.00326 0.28982 0.51857 0.0
C422 C 0.0331 0.24703 0.56448 0.0
C423 C 0.97053 0.24756 0.47151 0.0
C424 C 0.00181 0.20505 0.51551 0.0
H425 H 0.04424 0.28164 0.57642 0.0
H426 H 0.02803 0.30513 0.55126 0.0
H427 H 0.97895 0.30566 0.48708 0.0
H428 H 0.96111 0.2824 0.46129 0.0
H429 H 0.96479 0.21323 0.45305 0.0
H430 H 0.98223 0.18967 0.4769 0.0
H431 H 0.02042 0.18933 0.55334 0.0
H432 H 0.03765 0.21258 0.58008 0.0
H433 H 0.95148 0.22184 0.55537 0.0
H434 H 0.96127 0.27523 0.57271 0.0
H435 H 0.05313 0.22045 0.47861 0.0
H436 H 0.04312 0.27307 0.4619 0.0
C437 C 0.74057 0.03363 0.54236 0.0
C438 C 0.72467 0.04006 0.54787 0.0
C439 C 0.71257 0.02985 0.53623 0.0
C440 C 0.72168 0.01784 0.52423 0.0
N441 N 0.7389 0.01979 0.52735 0.0
Co442 Co 0.75674 0.00479 0.5132 0.0
N443 N 0.73884 0.99048 0.49484 0.0
C444 C 0.72167 0.99304 0.49404 0.0
C445 C 0.7125 0.98133 0.48 0.0
C446 C 0.72452 0.97067 0.47115 0.0
C447 C 0.74044 0.97655 0.48025 0.0
N448 N 0.77454 0.9892 0.50008 0.0
C449 C 0.77284 0.97507 0.48558 0.0
C450 C 0.78871 0.96797 0.48128 0.0
C451 C 0.80079 0.97772 0.49374 0.0
C452 C 0.79171 0.99023 0.50485 0.0
N453 N 0.77466 0.0197 0.5305 0.0
C454 C 0.79188 0.01798 0.52985 0.0
C455 C 0.80105 0.0302 0.54301 0.0
C456 C 0.78899 0.04048 0.55251 0.0
C457 C 0.77306 0.03394 0.54453 0.0
N458 N 0.75593 0.98954 0.54 0.0
C459 C 0.75553 0.96567 0.57566 0.0
C460 C 0.77042 0.97487 0.5719 0.0
C461 C 0.77038 0.98651 0.55402 0.0
C462 C 0.74062 0.96927 0.56196 0.0
C463 C 0.74106 0.98132 0.5446 0.0
N464 N 0.75762 0.02002 0.48645 0.0
C465 C 0.77403 0.03485 0.45903 0.0
C466 C 0.7595 0.04394 0.45115 0.0
C467 C 0.74385 0.04026 0.46047 0.0
C468 C 0.74319 0.02825 0.47784 0.0
C469 C 0.77281 0.02307 0.47657 0.0
H470 H 0.73091 0.02612 0.48435 0.0
H471 H 0.78442 0.01683 0.48208 0.0
H472 H 0.7823 0.99267 0.55172 0.0
H473 H 0.72925 0.98347 0.53487 0.0
C474 C 0.71447 0.00554 0.50835 0.0
C475 C 0.75683 0.04146 0.55132 0.0
C476 C 0.75661 0.96808 0.4751 0.0
C477 C 0.799 0.00393 0.51827 0.0
H478 H 0.72204 0.05116 0.55887 0.0
H479 H 0.69876 0.03128 0.53607 0.0
H480 H 0.69869 0.98036 0.47708 0.0
H481 H 0.72178 0.95962 0.45966 0.0
H482 H 0.79135 0.95699 0.47005 0.0
H483 H 0.81459 0.9761 0.49424 0.0
H484 H 0.81486 0.03128 0.54576 0.0
H485 H 0.79166 0.0514 0.56426 0.0
H486 H 0.78221 0.97297 0.58246 0.0
H487 H 0.72873 0.96246 0.56399 0.0
H488 H 0.78637 0.03695 0.45193 0.0
H489 H 0.73223 0.04703 0.45502 0.0
C490 C 0.02851 0.77524 0.53809 0.0
C491 C 0.03469 0.79157 0.54442 0.0
C492 C 0.02516 0.80286 0.53143 0.0
C493 C 0.01386 0.79286 0.51781 0.0
N494 N 0.01541 0.77583 0.52148 0.0
Co495 Co 0.00273 0.7567 0.50364 0.0
N496 N 0.98882 0.77338 0.48441 0.0
C497 C 0.98954 0.79073 0.48619 0.0
C498 C 0.97752 0.79876 0.47196 0.0
C499 C 0.96832 0.78576 0.4607 0.0
C500 C 0.97539 0.77051 0.46868 0.0
N501 N 0.99059 0.73756 0.48516 0.0
C502 C 0.97745 0.73813 0.46869 0.0
C503 C 0.97275 0.72183 0.46012 0.0
C504 C 0.9831 0.71052 0.47196 0.0
C505 C 0.99354 0.72052 0.48692 0.0
N506 N 0.01602 0.74001 0.52357 0.0
C507 C 0.01444 0.72269 0.52276 0.0
C508 C 0.02491 0.71468 0.53905 0.0
C509 C 0.03382 0.72763 0.55087 0.0
C510 C 0.02835 0.74285 0.5409 0.0
N511 N 0.98449 0.7571 0.52622 0.0
C512 C 0.95696 0.75779 0.55583 0.0
C513 C 0.96295 0.74228 0.54652 0.0
C514 C 0.97666 0.74222 0.53202 0.0
C515 C 0.9653 0.77293 0.55044 0.0
C516 C 0.9789 0.7723 0.53572 0.0
N517 N 0.02101 0.75629 0.48095 0.0
C518 C 0.04363 0.74126 0.46176 0.0
C519 C 0.04795 0.75605 0.45023 0.0
C520 C 0.03832 0.77089 0.45414 0.0
C521 C 0.0251 0.77075 0.46946 0.0
C522 C 0.0302 0.74162 0.47674 0.0
H523 H 0.01846 0.78255 0.47176 0.0
H524 H 0.02763 0.72989 0.48486 0.0
H525 H 0.98051 0.72998 0.52543 0.0
H526 H 0.98459 0.7843 0.53211 0.0
C527 C 0.00153 0.79908 0.5016 0.0
C528 C 0.03586 0.75955 0.54774 0.0
C529 C 0.96843 0.75365 0.4616 0.0
C530 C 0.00431 0.71429 0.50502 0.0
H531 H 0.04519 0.79502 0.55686 0.0
H532 H 0.02646 0.81671 0.53168 0.0
H533 H 0.97546 0.81243 0.47033 0.0
H534 H 0.95742 0.78735 0.44838 0.0
H535 H 0.96251 0.71848 0.4472 0.0
H536 H 0.98252 0.69663 0.47063 0.0
H537 H 0.0263 0.70101 0.54154 0.0
H538 H 0.04355 0.72602 0.56488 0.0
H539 H 0.95687 0.73019 0.54991 0.0
H540 H 0.9614 0.78526 0.55755 0.0
H541 H 0.05077 0.72944 0.45963 0.0
H542 H 0.04085 0.78263 0.44533 0.0
C543 C 0.264 0.97627 0.54074 0.0
C544 C 0.27977 0.97088 0.55039 0.0
C545 C 0.29186 0.98165 0.54274 0.0
C546 C 0.28286 0.99303 0.52902 0.0
N547 N 0.26571 0.99022 0.52738 0.0
Co548 Co 0.24795 0.00422 0.50958 0.0
N549 N 0.26588 0.01981 0.49784 0.0
C550 C 0.28308 0.01854 0.50208 0.0
C551 C 0.29227 0.03057 0.4912 0.0
C552 C 0.28026 0.04016 0.47926 0.0
C553 C 0.26432 0.0335 0.4837 0.0
N554 N 0.23016 0.01841 0.49214 0.0
C555 C 0.23186 0.03252 0.47906 0.0
C556 C 0.21597 0.03875 0.47101 0.0
C557 C 0.20387 0.02816 0.47899 0.0
C558 C 0.21294 0.01616 0.49158 0.0
N559 N 0.23005 0.9884 0.52093 0.0
C560 C 0.21291 0.98917 0.51583 0.0
C561 C 0.20382 0.97645 0.52552 0.0
C562 C 0.21585 0.96691 0.53752 0.0
C563 C 0.23167 0.97445 0.53459 0.0
N564 N 0.246 0.01955 0.5374 0.0
C565 C 0.24288 0.04337 0.57464 0.0
C566 C 0.22847 0.03497 0.56418 0.0
C567 C 0.23031 0.02322 0.54575 0.0
C568 C 0.25897 0.03912 0.5668 0.0
C569 C 0.26023 0.02719 0.54841 0.0
N570 N 0.24986 0.98893 0.48173 0.0
C571 C 0.23636 0.97186 0.44996 0.0
C572 C 0.25227 0.96565 0.44372 0.0
C573 C 0.26702 0.97175 0.45634 0.0
C574 C 0.26552 0.98327 0.47515 0.0
C575 C 0.23548 0.98346 0.46876 0.0
H576 H 0.2772 0.98723 0.48426 0.0
H577 H 0.22297 0.98756 0.47269 0.0
H578 H 0.21879 0.01749 0.53838 0.0
H579 H 0.27283 0.02461 0.54315 0.0
C580 C 0.29019 0.00612 0.51681 0.0
C581 C 0.24781 0.96773 0.54499 0.0
C582 C 0.24813 0.04061 0.47395 0.0
C583 C 0.20569 0.00237 0.50252 0.0
H584 H 0.2823 0.96024 0.56178 0.0
H585 H 0.30561 0.98117 0.54662 0.0
H586 H 0.30607 0.0322 0.4919 0.0
H587 H 0.28298 0.05084 0.46847 0.0
H588 H 0.21336 0.04985 0.46051 0.0
H589 H 0.19007 0.02907 0.47593 0.0
H590 H 0.19007 0.9744 0.52411 0.0
H591 H 0.21326 0.95566 0.54733 0.0
H592 H 0.21576 0.03754 0.57002 0.0
H593 H 0.27054 0.04536 0.57426 0.0
H594 H 0.22453 0.96738 0.44093 0.0
H595 H 0.27967 0.96751 0.45192 0.0
C596 C 0.52868 0.76099 0.0423 0.0
C597 C 0.53484 0.77616 0.0531 0.0
C598 C 0.52639 0.78924 0.0421 0.0
C599 C 0.51558 0.78133 0.02537 0.0
N600 N 0.51637 0.76396 0.02526 0.0
Co601 Co 0.50326 0.74734 0.00345 0.0
N602 N 0.49209 0.76659 0.98579 0.0
C603 C 0.49461 0.78365 0.98985 0.0
C604 C 0.48506 0.79375 0.97489 0.0
C605 C 0.47569 0.7825 0.96059 0.0
C606 C 0.48001 0.76612 0.96779 0.0
N607 N 0.49015 0.73072 0.9816 0.0
C608 C 0.47805 0.73366 0.96423 0.0
C609 C 0.47143 0.71839 0.9542 0.0
C610 C 0.47965 0.70537 0.96557 0.0
C611 C 0.49068 0.71335 0.98193 0.0
N612 N 0.51447 0.72811 0.02115 0.0
C613 C 0.5119 0.71106 0.01722 0.0
C614 C 0.52198 0.70097 0.03158 0.0
C615 C 0.53179 0.71224 0.04531 0.0
C616 C 0.52705 0.7286 0.03853 0.0
N617 N 0.48391 0.74751 0.02447 0.0
C618 C 0.45524 0.74793 0.05229 0.0
C619 C 0.46146 0.73252 0.04294 0.0
C620 C 0.47573 0.73259 0.02941 0.0
C621 C 0.46389 0.76309 0.04777 0.0
C622 C 0.47797 0.76259 0.03387 0.0
N623 N 0.52257 0.74719 0.98246 0.0
C624 C 0.54259 0.73163 0.95918 0.0
C625 C 0.55112 0.74683 0.95454 0.0
C626 C 0.54489 0.76223 0.96386 0.0
C627 C 0.53069 0.76213 0.97752 0.0
C628 C 0.52851 0.7321 0.97308 0.0
H629 H 0.52667 0.77429 0.98414 0.0
H630 H 0.52273 0.72006 0.97613 0.0
H631 H 0.47975 0.72041 0.02292 0.0
H632 H 0.48373 0.77463 0.03087 0.0
C633 C 0.50546 0.78982 0.00849 0.0
C634 C 0.53554 0.74416 0.04809 0.0
C635 C 0.47183 0.75059 0.95749 0.0
C636 C 0.50087 0.7049 0.99879 0.0
H637 H 0.54472 0.77762 0.06709 0.0
H638 H 0.5283 0.80289 0.04541 0.0
H639 H 0.48471 0.80764 0.97471 0.0
H640 H 0.46648 0.78596 0.94667 0.0
H641 H 0.46138 0.71673 0.94049 0.0
H642 H 0.47746 0.69172 0.96273 0.0
H643 H 0.52255 0.68708 0.03151 0.0
H644 H 0.54165 0.70877 0.05838 0.0
H645 H 0.45519 0.7204 0.0456 0.0
H646 H 0.45991 0.77537 0.05495 0.0
H647 H 0.54668 0.71937 0.95206 0.0
H648 H 0.55111 0.77436 0.96109 0.0
C649 C 0.23922 0.52478 0.04302 0.0
C650 C 0.22237 0.52905 0.04711 0.0
C651 C 0.21219 0.51998 0.03096 0.0
C652 C 0.22336 0.51083 0.01791 0.0
N653 N 0.24007 0.51328 0.02497 0.0
Co654 Co 0.26063 0.50368 0.00984 0.0
N655 N 0.24568 0.49093 0.98549 0.0
C656 C 0.22832 0.49043 0.98354 0.0
C657 C 0.22174 0.47971 0.96583 0.0
C658 C 0.23575 0.4727 0.95611 0.0
C659 C 0.25008 0.47966 0.96849 0.0
N660 N 0.2812 0.4946 0.99429 0.0
C661 C 0.28211 0.48346 0.9759 0.0
C662 C 0.29893 0.48051 0.97035 0.0
C663 C 0.30909 0.48997 0.98611 0.0
C664 C 0.2979 0.49813 1.00023 0.0
N665 N 0.27561 0.51586 0.03463 0.0
C666 C 0.29294 0.5154 0.03745 0.0
C667 C 0.29952 0.52475 0.05653 0.0
C668 C 0.28557 0.53177 0.06634 0.0
C669 C 0.27126 0.52635 0.05248 0.0
N670 N 0.26044 0.48301 0.02976 0.0
C671 C 0.26006 0.45389 0.05844 0.0
C672 C 0.27552 0.46135 0.05267 0.0
C673 C 0.27542 0.47574 0.03851 0.0
C674 C 0.24482 0.46126 0.04931 0.0
C675 C 0.24529 0.47558 0.03513 0.0
N676 N 0.26079 0.52437 0.98992 0.0
C677 C 0.27544 0.54907 0.97544 0.0
C678 C 0.26084 0.55382 0.96166 0.0
C679 C 0.24623 0.54343 0.96247 0.0
C680 C 0.24645 0.52904 0.97659 0.0
C681 C 0.27516 0.53447 0.98919 0.0
H682 H 0.23481 0.52189 0.97638 0.0
H683 H 0.28673 0.53166 0.9992 0.0
H684 H 0.28766 0.48081 0.03493 0.0
H685 H 0.23319 0.48039 0.02866 0.0
C686 C 0.21858 0.50001 0.9988 0.0
C687 C 0.25402 0.53259 0.0559 0.0
C688 C 0.26755 0.47443 0.96437 0.0
C689 C 0.30271 0.50744 0.02071 0.0
H690 H 0.21789 0.53801 0.06014 0.0
H691 H 0.19832 0.52026 0.02871 0.0
H692 H 0.20837 0.47705 0.96088 0.0
H693 H 0.23545 0.46328 0.94185 0.0
H694 H 0.30336 0.47197 0.95678 0.0
H695 H 0.32298 0.49027 0.98771 0.0
H696 H 0.3129 0.52672 0.06215 0.0
H697 H 0.28589 0.54037 0.08152 0.0
H698 H 0.28772 0.45632 0.05936 0.0
H699 H 0.23247 0.45588 0.0528 0.0
H700 H 0.28707 0.55669 0.97595 0.0
H701 H 0.2346 0.54617 0.952 0.0
C702 C 0.47747 0.27854 0.98414 0.0
C703 C 0.47236 0.29512 0.97887 0.0
C704 C 0.48246 0.30597 0.99284 0.0
C705 C 0.49305 0.29545 0.00586 0.0
N706 N 0.49055 0.27852 1.0008 0.0
Co707 Co 0.50225 0.25874 0.01675 0.0
N708 N 0.51584 0.27469 0.03902 0.0
C709 C 0.51525 0.29208 0.0398 0.0
C710 C 0.5269 0.29958 0.05575 0.0
C711 C 0.53565 0.28623 0.0656 0.0
C712 C 0.52867 0.27123 0.05519 0.0
N713 N 0.51382 0.23895 0.03273 0.0
C714 C 0.52642 0.23888 0.05003 0.0
C715 C 0.53077 0.22228 0.05624 0.0
C716 C 0.52093 0.21145 0.04189 0.0
C717 C 0.51107 0.22201 0.02792 0.0
N718 N 0.48878 0.24279 0.99442 0.0
C719 C 0.48971 0.22544 0.99306 0.0
C720 C 0.47866 0.21804 0.97617 0.0
C721 C 0.46992 0.23145 0.96641 0.0
C722 C 0.47611 0.24627 0.97809 0.0
N723 N 0.52111 0.25944 0.99498 0.0
C724 C 0.5493 0.26021 0.96655 0.0
C725 C 0.54102 0.24478 0.97051 0.0
C726 C 0.52715 0.24467 0.98478 0.0
C727 C 0.54304 0.27529 0.97665 0.0
C728 C 0.52894 0.27464 0.99046 0.0
N729 N 0.48344 0.25804 0.03855 0.0
C730 C 0.46149 0.24228 0.05695 0.0
C731 C 0.45567 0.2573 0.06784 0.0
C732 C 0.4642 0.27266 0.06402 0.0
C733 C 0.47788 0.27274 0.04944 0.0
C734 C 0.47528 0.24293 0.0426 0.0
H735 H 0.48369 0.28489 0.04715 0.0
H736 H 0.47897 0.23105 0.03476 0.0
H737 H 0.52169 0.23244 0.98755 0.0
H738 H 0.52474 0.28661 0.99744 0.0
C739 C 0.50454 0.30104 0.02409 0.0
C740 C 0.46884 0.26321 0.974 0.0
C741 C 0.53525 0.25409 0.06025 0.0
C742 C 0.50001 0.21641 0.00919 0.0
H743 H 0.46206 0.299 0.96671 0.0
H744 H 0.48173 0.31985 0.99398 0.0
H745 H 0.52922 0.31315 0.05918 0.0
H746 H 0.5463 0.28755 0.07846 0.0
H747 H 0.54038 0.2184 0.06942 0.0
H748 H 0.52127 0.19755 0.04127 0.0
H749 H 0.47677 0.20449 0.97202 0.0
H750 H 0.45976 0.23041 0.95273 0.0
H751 H 0.54549 0.23275 0.9631 0.0
H752 H 0.54892 0.28759 0.97377 0.0
H753 H 0.45524 0.23006 0.05907 0.0
H754 H 0.46043 0.28463 0.07233 0.0
C755 C 0.72622 0.53357 0.03962 0.0
C756 C 0.71015 0.54049 0.04311 0.0
C757 C 0.69844 0.53038 0.0305 0.0
C758 C 0.70796 0.518 0.01983 0.0
N759 N 0.72505 0.51947 0.025 0.0
Co760 Co 0.74343 0.50502 0.01121 0.0
N761 N 0.72611 0.4896 0.99361 0.0
C762 C 0.70886 0.49049 0.99449 0.0
C763 C 0.7002 0.47768 0.98177 0.0
C764 C 0.71267 0.46789 0.97233 0.0
C765 C 0.72829 0.47542 0.97968 0.0
N766 N 0.76183 0.49123 0.99637 0.0
C767 C 0.76069 0.47744 0.98124 0.0
C768 C 0.77675 0.47237 0.97449 0.0
C769 C 0.78844 0.48317 0.98593 0.0
C770 C 0.77891 0.49428 0.99884 0.0
N771 N 0.76077 0.51969 0.03002 0.0
C772 C 0.77802 0.51777 0.0308 0.0
C773 C 0.7867 0.52903 0.04607 0.0
C774 C 0.77425 0.53878 0.05565 0.0
C775 C 0.75862 0.53303 0.04539 0.0
N776 N 0.74343 0.48916 0.0373 0.0
C777 C 0.7429 0.4637 0.07058 0.0
C778 C 0.75828 0.46848 0.06146 0.0
C779 C 0.75828 0.48126 0.04509 0.0
C780 C 0.72793 0.47249 0.06382 0.0
C781 C 0.72848 0.48512 0.04722 0.0
N782 N 0.7434 0.52089 0.98495 0.0
C783 C 0.75749 0.54258 0.96382 0.0
C784 C 0.74291 0.54446 0.94874 0.0
C785 C 0.72872 0.53402 0.95183 0.0
C786 C 0.72915 0.5226 0.97002 0.0
C787 C 0.75755 0.53066 0.98138 0.0
H788 H 0.71771 0.5154 0.97163 0.0
H789 H 0.76918 0.5298 0.99197 0.0
H790 H 0.77038 0.48424 0.03861 0.0
H791 H 0.71658 0.4911 0.04225 0.0
C792 C 0.7012 0.50418 0.00617 0.0
C793 C 0.74218 0.54097 0.05038 0.0
C794 C 0.74481 0.46861 0.97296 0.0
C795 C 0.78569 0.50634 0.01539 0.0
H796 H 0.70714 0.55171 0.05366 0.0
H797 H 0.68462 0.53181 0.02938 0.0
H798 H 0.68645 0.47578 0.97947 0.0
H799 H 0.71048 0.45652 0.96123 0.0
H800 H 0.77973 0.46182 0.96273 0.0
H801 H 0.80228 0.48268 0.98542 0.0
H802 H 0.80045 0.53027 0.04947 0.0
H803 H 0.77648 0.54913 0.06849 0.0
H804 H 0.77023 0.46219 0.06666 0.0
H805 H 0.71574 0.46916 0.07056 0.0
H806 H 0.76879 0.55048 0.96253 0.0
H807 H 0.71722 0.53463 0.94035 0.0
H808 H 0.1963 0.24648 0.37408 0.0
H809 H 0.17135 0.24613 0.39812 0.0
H810 H 0.13743 0.24563 0.336 0.0
H811 H 0.16234 0.2456 0.31188 0.0
H812 H 0.13032 0.27141 0.37407 0.0
H813 H 0.14049 0.21072 0.3595 0.0
H814 H 0.15848 0.18469 0.3594 0.0
H815 H 0.16842 0.19046 0.43351 0.0
H816 H 0.15068 0.2167 0.434 0.0
H817 H 0.05116 0.25598 0.42311 0.0
H818 H 0.07592 0.25555 0.39898 0.0
H819 H 0.10798 0.2376 0.45712 0.0
H820 H 0.08298 0.2372 0.48085 0.0
H821 H 0.11671 0.22136 0.42101 0.0
H822 H 0.108 0.28095 0.4378 0.0
H823 H 0.09202 0.3082 0.44034 0.0
H824 H 0.08188 0.30656 0.36605 0.0
H825 H 0.09761 0.27917 0.3631 0.0
C826 C 0.18351 0.24628 0.3656 0.0
C827 C 0.18121 0.24604 0.34116 0.0
C828 C 0.16931 0.24604 0.37931 0.0
C829 C 0.15259 0.24584 0.36879 0.0
C830 C 0.15025 0.24578 0.3444 0.0
C831 C 0.16445 0.24568 0.33068 0.0
C832 C 0.13753 0.24574 0.38329 0.0
C833 C 0.12716 0.26041 0.38413 0.0
C834 C 0.13386 0.23161 0.397 0.0
C835 C 0.14441 0.21577 0.39674 0.0
C836 C 0.14664 0.20653 0.37574 0.0
C837 C 0.15677 0.19172 0.37562 0.0
C838 C 0.16463 0.18595 0.39642 0.0
C839 C 0.16234 0.19496 0.41741 0.0
C840 C 0.15224 0.20979 0.41761 0.0
C841 C 0.06352 0.25198 0.43069 0.0
C842 C 0.06521 0.24668 0.45383 0.0
C843 C 0.07771 0.25182 0.41695 0.0
C844 C 0.09399 0.24687 0.42629 0.0
C845 C 0.09561 0.24148 0.44943 0.0
C846 C 0.08134 0.24129 0.46301 0.0
C847 C 0.10925 0.24709 0.41188 0.0
C848 C 0.11976 0.23243 0.41104 0.0
C849 C 0.11328 0.26142 0.39857 0.0
C850 C 0.10384 0.27792 0.40026 0.0
C851 C 0.10226 0.28634 0.42202 0.0
C852 C 0.09326 0.30182 0.42354 0.0
C853 C 0.0859 0.30908 0.40338 0.0
C854 C 0.08757 0.3009 0.38166 0.0
C855 C 0.09653 0.28541 0.38005 0.0
H856 H 0.07895 0.32107 0.40459 0.0
H857 H 0.17246 0.17448 0.3963 0.0
H858 H 0.73671 0.17149 0.31781 0.0
H859 H 0.73709 0.14481 0.33904 0.0
H860 H 0.78889 0.15579 0.36623 0.0
H861 H 0.78867 0.18241 0.3445 0.0
H862 H 0.78567 0.12296 0.35313 0.0
H863 H 0.75464 0.16246 0.39984 0.0
H864 H 0.73247 0.18393 0.40826 0.0
H865 H 0.69291 0.14713 0.38795 0.0
H866 H 0.71487 0.12549 0.37908 0.0
H867 H 0.78528 0.0675 0.44964 0.0
H868 H 0.78653 0.09177 0.42402 0.0
H869 H 0.73778 0.07676 0.38996 0.0
H870 H 0.73662 0.05205 0.41507 0.0
H871 H 0.7396 0.11123 0.40627 0.0
H872 H 0.77207 0.07137 0.36097 0.0
H873 H 0.79513 0.0504 0.35466 0.0
H874 H 0.8331 0.08875 0.37526 0.0
H875 H 0.81026 0.10989 0.38202 0.0
C876 C 0.74813 0.16823 0.32842 0.0
C877 C 0.7626 0.179 0.32978 0.0
C878 C 0.74834 0.15302 0.34052 0.0
C879 C 0.76291 0.1485 0.3545 0.0
C880 C 0.77751 0.1591 0.35556 0.0
C881 C 0.77738 0.17425 0.34321 0.0
C882 C 0.76281 0.13272 0.36806 0.0
C883 C 0.77573 0.12048 0.36498 0.0
C884 C 0.74966 0.12943 0.38322 0.0
C885 C 0.73641 0.1424 0.38858 0.0
C886 C 0.74122 0.15898 0.39699 0.0
C887 C 0.72869 0.17118 0.40188 0.0
C888 C 0.71129 0.16691 0.39859 0.0
C889 C 0.70639 0.15043 0.39046 0.0
C890 C 0.71887 0.13818 0.38552 0.0
C891 C 0.77502 0.06907 0.43632 0.0
C892 C 0.76084 0.05784 0.43438 0.0
C893 C 0.77573 0.083 0.42179 0.0
C894 C 0.76227 0.08594 0.40513 0.0
C895 C 0.74826 0.07463 0.4028 0.0
C896 C 0.74759 0.06061 0.41722 0.0
C897 C 0.76237 0.10147 0.39119 0.0
C898 C 0.74948 0.1137 0.39432 0.0
C899 C 0.77567 0.10485 0.37638 0.0
C900 C 0.78944 0.09217 0.3722 0.0
C901 C 0.78533 0.07529 0.36434 0.0
C902 C 0.79837 0.06338 0.36065 0.0
C903 C 0.81557 0.06823 0.36461 0.0
C904 C 0.81977 0.08501 0.37222 0.0
C905 C 0.80678 0.09697 0.37596 0.0
H906 H 0.82564 0.05899 0.36174 0.0
H907 H 0.70161 0.17637 0.40238 0.0
H908 H 0.83921 0.76296 0.31544 0.0
H909 H 0.86607 0.76148 0.3395 0.0
H910 H 0.8379 0.74877 0.39886 0.0
H911 H 0.81086 0.75054 0.37493 0.0
H912 H 0.86356 0.77279 0.40992 0.0
H913 H 0.85775 0.7177 0.37097 0.0
H914 H 0.853 0.69752 0.33728 0.0
H915 H 0.8978 0.71705 0.30718 0.0
H916 H 0.90268 0.73754 0.34054 0.0
H917 H 0.93757 0.74655 0.47831 0.0
H918 H 0.90938 0.74588 0.45669 0.0
H919 H 0.93367 0.75734 0.39351 0.0
H920 H 0.96183 0.75782 0.41517 0.0
H921 H 0.90914 0.73269 0.38592 0.0
H922 H 0.91458 0.78824 0.42425 0.0
H923 H 0.91956 0.80837 0.45792 0.0
H924 H 0.87543 0.78835 0.48905 0.0
H925 H 0.87044 0.76772 0.45584 0.0
C926 C 0.8387 0.76006 0.33369 0.0
C927 C 0.82292 0.75684 0.3433 0.0
C928 C 0.85407 0.75908 0.34735 0.0
C929 C 0.85397 0.75482 0.37088 0.0
C930 C 0.83823 0.75201 0.38071 0.0
C931 C 0.82283 0.75291 0.367 0.0
C932 C 0.87038 0.7531 0.38504 0.0
C933 C 0.87343 0.76384 0.40492 0.0
C934 C 0.88334 0.74162 0.37822 0.0
C935 C 0.88049 0.72927 0.35816 0.0
C936 C 0.86651 0.71779 0.35707 0.0
C937 C 0.86381 0.70628 0.33805 0.0
C938 C 0.87506 0.70603 0.32007 0.0
C939 C 0.88907 0.71727 0.32111 0.0
C940 C 0.89183 0.72883 0.34008 0.0
C941 C 0.93678 0.74878 0.45976 0.0
C942 C 0.95164 0.75232 0.44825 0.0
C943 C 0.92076 0.74847 0.44748 0.0
C944 C 0.91943 0.75176 0.42355 0.0
C945 C 0.93442 0.75479 0.41195 0.0
C946 C 0.95043 0.75511 0.42425 0.0
C947 C 0.90241 0.75251 0.41067 0.0
C948 C 0.89923 0.74158 0.39102 0.0
C949 C 0.88936 0.76382 0.41771 0.0
C950 C 0.89225 0.77629 0.43766 0.0
C951 C 0.90603 0.78799 0.43838 0.0
C952 C 0.90886 0.79949 0.45739 0.0
C953 C 0.89787 0.79957 0.47566 0.0
C954 C 0.88399 0.78819 0.47493 0.0
C955 C 0.88116 0.77658 0.45603 0.0
H956 H 0.90006 0.80851 0.49035 0.0
H957 H 0.87295 0.6971 0.30536 0.0
H958 H 0.22156 0.84388 0.29009 0.0
H959 H 0.22408 0.87069 0.31352 0.0
H960 H 0.26588 0.84912 0.3557 0.0
H961 H 0.26352 0.8224 0.33235 0.0
H962 H 0.24248 0.86484 0.3819 0.0
H963 H 0.27365 0.87759 0.31461 0.0
H964 H 0.27726 0.88006 0.27254 0.0
H965 H 0.23604 0.91656 0.2677 0.0
H966 H 0.23203 0.91413 0.3097 0.0
H967 H 0.27346 0.93775 0.44385 0.0
H968 H 0.27265 0.91348 0.41599 0.0
H969 H 0.23193 0.93779 0.37491 0.0
H970 H 0.23324 0.9626 0.40211 0.0
H971 H 0.25384 0.92109 0.3475 0.0
H972 H 0.22246 0.9086 0.41415 0.0
H973 H 0.21828 0.90627 0.45609 0.0
H974 H 0.25891 0.86916 0.46191 0.0
H975 H 0.2635 0.87147 0.42005 0.0
C976 C 0.23134 0.84493 0.30428 0.0
C977 C 0.24232 0.83107 0.30946 0.0
C978 C 0.23276 0.86021 0.31761 0.0
C979 C 0.24525 0.86187 0.33617 0.0
C980 C 0.25613 0.84803 0.34146 0.0
C981 C 0.25471 0.83277 0.32819 0.0
C982 C 0.24692 0.87796 0.35039 0.0
C983 C 0.24517 0.87711 0.37444 0.0
C984 C 0.24994 0.89398 0.34046 0.0
C985 C 0.25243 0.89555 0.31525 0.0
C986 C 0.26527 0.88605 0.30454 0.0
C987 C 0.2674 0.88746 0.28071 0.0
C988 C 0.25686 0.89843 0.26745 0.0
C989 C 0.24419 0.90805 0.27799 0.0
C990 C 0.24198 0.90667 0.30181 0.0
C991 C 0.26466 0.93819 0.42856 0.0
C992 C 0.25327 0.95202 0.42532 0.0
C993 C 0.26409 0.92422 0.4128 0.0
C994 C 0.25196 0.92371 0.39374 0.0
C995 C 0.24127 0.93791 0.38966 0.0
C996 C 0.24193 0.95198 0.40532 0.0
C997 C 0.24965 0.9079 0.37904 0.0
C998 C 0.25117 0.90881 0.35494 0.0
C999 C 0.2463 0.8919 0.38888 0.0
C1000 C 0.24342 0.89033 0.41401 0.0
C1001 C 0.23058 0.90003 0.4244 0.0
C1002 C 0.22813 0.8987 0.44816 0.0
C1003 C 0.23835 0.88761 0.46167 0.0
C1004 C 0.25101 0.87777 0.45143 0.0
C1005 C 0.25354 0.87907 0.42769 0.0
H1006 H 0.23644 0.8866 0.48006 0.0
H1007 H 0.25853 0.8995 0.249 0.0
H1008 H 0.16282 0.78309 0.70078 0.0
H1009 H 0.1361 0.78247 0.67622 0.0
H1010 H 0.15979 0.74954 0.62583 0.0
H1011 H 0.18641 0.74962 0.65055 0.0
H1012 H 0.14076 0.77659 0.60583 0.0
H1013 H 0.13398 0.73214 0.66117 0.0
H1014 H 0.13371 0.72054 0.70056 0.0
H1015 H 0.09394 0.75603 0.7176 0.0
H1016 H 0.09415 0.76802 0.6784 0.0
H1017 H 0.06736 0.7476 0.53792 0.0
H1018 H 0.09395 0.74912 0.56293 0.0
H1019 H 0.06686 0.77538 0.61677 0.0
H1020 H 0.0401 0.77316 0.59201 0.0
H1021 H 0.08764 0.75268 0.63553 0.0
H1022 H 0.09341 0.79695 0.58084 0.0
H1023 H 0.09338 0.80933 0.5419 0.0
H1024 H 0.13468 0.7759 0.5242 0.0
H1025 H 0.13478 0.76312 0.56293 0.0
C1026 C 0.16234 0.77558 0.68458 0.0
C1027 C 0.17678 0.76633 0.67774 0.0
C1028 C 0.14707 0.77533 0.67052 0.0
C1029 C 0.14596 0.76586 0.64931 0.0
C1030 C 0.16043 0.75696 0.64212 0.0
C1031 C 0.17566 0.7571 0.65624 0.0
C1032 C 0.1296 0.76496 0.63482 0.0
C1033 C 0.12917 0.7712 0.61218 0.0
C1034 C 0.11441 0.75836 0.64341 0.0
C1035 C 0.11421 0.7511 0.66694 0.0
C1036 C 0.12528 0.73757 0.67338 0.0
C1037 C 0.12512 0.73091 0.69566 0.0
C1038 C 0.11385 0.73758 0.71159 0.0
C1039 C 0.10268 0.7509 0.70525 0.0
C1040 C 0.1028 0.75762 0.683 0.0
C1041 C 0.06716 0.75362 0.55515 0.0
C1042 C 0.05186 0.76042 0.5631 0.0
C1043 C 0.08233 0.7546 0.56935 0.0
C1044 C 0.08249 0.76268 0.59157 0.0
C1045 C 0.06707 0.76918 0.59966 0.0
C1046 C 0.05185 0.768 0.58555 0.0
C1047 C 0.09874 0.76427 0.60638 0.0
C1048 C 0.09917 0.75816 0.62912 0.0
C1049 C 0.11389 0.77117 0.59795 0.0
C1050 C 0.114 0.77897 0.57473 0.0
C1051 C 0.10241 0.79215 0.56859 0.0
C1052 C 0.10239 0.79925 0.54656 0.0
C1053 C 0.114 0.79338 0.53057 0.0
C1054 C 0.12569 0.78042 0.5366 0.0
C1055 C 0.12574 0.77326 0.5586 0.0
H1056 H 0.11396 0.79888 0.51351 0.0
H1057 H 0.11374 0.7324 0.72883 0.0
H1058 H 0.21295 0.18089 0.694 0.0
H1059 H 0.21281 0.15415 0.67037 0.0
H1060 H 0.26263 0.14121 0.7019 0.0
H1061 H 0.26301 0.16818 0.72488 0.0
H1062 H 0.26241 0.13593 0.65723 0.0
H1063 H 0.22462 0.12115 0.7163 0.0
H1064 H 0.19978 0.12483 0.74048 0.0
H1065 H 0.16552 0.12174 0.67911 0.0
H1066 H 0.19018 0.11827 0.65453 0.0
H1067 H 0.26363 0.04982 0.61415 0.0
H1068 H 0.26192 0.07414 0.6419 0.0
H1069 H 0.2163 0.09204 0.60397 0.0
H1070 H 0.21811 0.06808 0.57584 0.0
H1071 H 0.21433 0.09398 0.65269 0.0
H1072 H 0.2525 0.1098 0.59395 0.0
H1073 H 0.27746 0.10591 0.57003 0.0
H1074 H 0.31125 0.10672 0.63191 0.0
H1075 H 0.28644 0.11036 0.65622 0.0
C1076 C 0.22378 0.17223 0.69592 0.0
C1077 C 0.23801 0.1765 0.71112 0.0
C1078 C 0.22367 0.15696 0.68254 0.0
C1079 C 0.23763 0.14559 0.6846 0.0
C1080 C 0.25175 0.14981 0.70001 0.0
C1081 C 0.25197 0.16518 0.7131 0.0
C1082 C 0.23787 0.12959 0.67007 0.0
C1083 C 0.25202 0.12663 0.65657 0.0
C1084 C 0.22413 0.11765 0.6688 0.0
C1085 C 0.20926 0.11959 0.68356 0.0
C1086 C 0.2118 0.12137 0.70795 0.0
C1087 C 0.19775 0.1234 0.72173 0.0
C1088 C 0.18108 0.12356 0.71133 0.0
C1089 C 0.17843 0.12163 0.68713 0.0
C1090 C 0.19244 0.11961 0.67327 0.0
C1091 C 0.25324 0.05893 0.61172 0.0
C1092 C 0.24107 0.05709 0.59272 0.0
C1093 C 0.25223 0.07273 0.62764 0.0
C1094 C 0.23905 0.08487 0.62479 0.0
C1095 C 0.22651 0.08272 0.60644 0.0
C1096 C 0.22755 0.06899 0.59045 0.0
C1097 C 0.23889 0.10037 0.64014 0.0
C1098 C 0.22475 0.10326 0.65362 0.0
C1099 C 0.25266 0.11221 0.64152 0.0
C1100 C 0.2676 0.11016 0.62691 0.0
C1101 C 0.26524 0.109 0.60246 0.0
C1102 C 0.27936 0.10687 0.58883 0.0
C1103 C 0.29593 0.10602 0.59945 0.0
C1104 C 0.29841 0.10735 0.62372 0.0
C1105 C 0.28432 0.10946 0.63743 0.0
H1106 H 0.30684 0.10437 0.58887 0.0
H1107 H 0.17022 0.12514 0.72203 0.0
H1108 H 0.84074 0.25295 0.71983 0.0
H1109 H 0.8656 0.25287 0.69565 0.0
H1110 H 0.83174 0.24755 0.63369 0.0
H1111 H 0.8068 0.248 0.65778 0.0
H1112 H 0.86196 0.22378 0.63775 0.0
H1113 H 0.84652 0.28392 0.6424 0.0
H1114 H 0.83987 0.31101 0.66329 0.0
H1115 H 0.88963 0.31053 0.69961 0.0
H1116 H 0.89648 0.28328 0.67918 0.0
H1117 H 0.92183 0.23761 0.55293 0.0
H1118 H 0.89665 0.23825 0.57625 0.0
H1119 H 0.92734 0.26074 0.63446 0.0
H1120 H 0.95237 0.26079 0.61073 0.0
H1121 H 0.89831 0.27568 0.63275 0.0
H1122 H 0.91465 0.21661 0.6303 0.0
H1123 H 0.92227 0.18871 0.61229 0.0
H1124 H 0.87262 0.1857 0.57576 0.0
H1125 H 0.86478 0.21371 0.59331 0.0
C1126 C 0.83863 0.25173 0.70105 0.0
C1127 C 0.82188 0.2505 0.69063 0.0
C1128 C 0.8528 0.25173 0.68729 0.0
C1129 C 0.85047 0.25023 0.66292 0.0
C1130 C 0.83378 0.24872 0.65248 0.0
C1131 C 0.81958 0.24905 0.66621 0.0
C1132 C 0.86549 0.25034 0.64836 0.0
C1133 C 0.86981 0.23516 0.63634 0.0
C1134 C 0.876 0.26504 0.64725 0.0
C1135 C 0.87194 0.28147 0.65945 0.0
C1136 C 0.85598 0.2895 0.65501 0.0
C1137 C 0.85219 0.30491 0.66673 0.0
C1138 C 0.8643 0.31246 0.68282 0.0
C1139 C 0.88025 0.30465 0.68717 0.0
C1140 C 0.8841 0.28923 0.67551 0.0
C1141 C 0.92317 0.24265 0.57073 0.0
C1142 C 0.93905 0.24906 0.58009 0.0
C1143 C 0.9088 0.24294 0.58411 0.0
C1144 C 0.9101 0.24921 0.60736 0.0
C1145 C 0.92596 0.2558 0.61662 0.0
C1146 C 0.94026 0.25582 0.60308 0.0
C1147 C 0.89493 0.24905 0.62192 0.0
C1148 C 0.89054 0.26423 0.63403 0.0
C1149 C 0.88455 0.23421 0.62349 0.0
C1150 C 0.88919 0.21734 0.61294 0.0
C1151 C 0.9054 0.21006 0.61829 0.0
C1152 C 0.90976 0.19421 0.60819 0.0
C1153 C 0.89795 0.18546 0.59284 0.0
C1154 C 0.88176 0.19251 0.58762 0.0
C1155 C 0.87734 0.20836 0.59766 0.0
H1156 H 0.90135 0.17319 0.58504 0.0
H1157 H 0.86134 0.32439 0.69187 0.0
H1158 H 0.73089 0.82945 0.68941 0.0
H1159 H 0.72969 0.85653 0.66887 0.0
H1160 H 0.78478 0.86166 0.67976 0.0
H1161 H 0.78576 0.83501 0.70146 0.0
H1162 H 0.77137 0.89108 0.68651 0.0
H1163 H 0.76414 0.84784 0.62611 0.0
H1164 H 0.75157 0.82227 0.60516 0.0
H1165 H 0.70281 0.8477 0.59748 0.0
H1166 H 0.71504 0.87336 0.61868 0.0
H1167 H 0.78181 0.94347 0.5866 0.0
H1168 H 0.78167 0.91948 0.61277 0.0
H1169 H 0.72954 0.93123 0.62819 0.0
H1170 H 0.72979 0.95607 0.60321 0.0
H1171 H 0.74057 0.89436 0.60865 0.0
H1172 H 0.75094 0.93874 0.66938 0.0
H1173 H 0.76656 0.96383 0.68729 0.0
H1174 H 0.81347 0.93493 0.69023 0.0
H1175 H 0.79816 0.90973 0.67199 0.0
C1176 C 0.74268 0.83644 0.68733 0.0
C1177 C 0.75842 0.83031 0.69673 0.0
C1178 C 0.74203 0.85181 0.67555 0.0
C1179 C 0.75719 0.86096 0.6724 0.0
C1180 C 0.77293 0.85481 0.68198 0.0
C1181 C 0.77352 0.83963 0.69424 0.0
C1182 C 0.75662 0.87697 0.65922 0.0
C1183 C 0.76475 0.89171 0.66941 0.0
C1184 C 0.74788 0.87787 0.63695 0.0
C1185 C 0.74046 0.86245 0.62421 0.0
C1186 C 0.7507 0.84793 0.62012 0.0
C1187 C 0.74364 0.83343 0.60817 0.0
C1188 C 0.72639 0.83334 0.60005 0.0
C1189 C 0.71617 0.84778 0.60382 0.0
C1190 C 0.72316 0.86231 0.61578 0.0
C1191 C 0.77045 0.94136 0.59604 0.0
C1192 C 0.7558 0.95177 0.59275 0.0
C1193 C 0.77038 0.92754 0.61081 0.0
C1194 C 0.75561 0.92373 0.62225 0.0
C1195 C 0.74103 0.93409 0.61936 0.0
C1196 C 0.74118 0.94816 0.60495 0.0
C1197 C 0.75518 0.90824 0.63608 0.0
C1198 C 0.74699 0.89363 0.62589 0.0
C1199 C 0.76426 0.90732 0.65798 0.0
C1200 C 0.77344 0.92242 0.6691 0.0
C1201 C 0.76462 0.93779 0.67363 0.0
C1202 C 0.77341 0.95202 0.68389 0.0
C1203 C 0.79101 0.95099 0.68984 0.0
C1204 C 0.79984 0.93571 0.68559 0.0
C1205 C 0.79111 0.92145 0.67531 0.0
H1206 H 0.79779 0.96202 0.69779 0.0
H1207 H 0.72095 0.8221 0.5908 0.0
H1208 H 0.8328 0.73019 0.6872 0.0
H1209 H 0.85756 0.73115 0.66301 0.0
H1210 H 0.84564 0.78367 0.64674 0.0
H1211 H 0.82093 0.78285 0.67116 0.0
H1212 H 0.85357 0.76093 0.60713 0.0
H1213 H 0.87612 0.77879 0.68426 0.0
H1214 H 0.88119 0.7758 0.72668 0.0
H1215 H 0.90753 0.72815 0.71523 0.0
H1216 H 0.90239 0.73073 0.67271 0.0
H1217 H 0.93105 0.7816 0.55669 0.0
H1218 H 0.90627 0.78188 0.58058 0.0
H1219 H 0.92351 0.73467 0.61156 0.0
H1220 H 0.94883 0.7348 0.58869 0.0
H1221 H 0.91247 0.75518 0.64381 0.0
H1222 H 0.89026 0.73565 0.56846 0.0
H1223 H 0.88477 0.7363 0.52581 0.0
H1224 H 0.85745 0.78384 0.53302 0.0
H1225 H 0.86297 0.78359 0.57575 0.0
C1226 C 0.8354 0.74189 0.67832 0.0
C1227 C 0.82499 0.75646 0.68105 0.0
C1228 C 0.84956 0.74244 0.66461 0.0
C1229 C 0.85343 0.7575 0.65319 0.0
C1230 C 0.84284 0.77194 0.65544 0.0
C1231 C 0.82883 0.77149 0.66945 0.0
C1232 C 0.86877 0.75823 0.63932 0.0
C1233 C 0.86648 0.75993 0.61512 0.0
C1234 C 0.88553 0.75639 0.64975 0.0
C1235 C 0.88871 0.75487 0.67531 0.0
C1236 C 0.88286 0.7676 0.69079 0.0
C1237 C 0.88577 0.76599 0.71485 0.0
C1238 C 0.89464 0.75177 0.72365 0.0
C1239 C 0.90065 0.73915 0.70839 0.0
C1240 C 0.89775 0.74068 0.68431 0.0
C1241 C 0.92974 0.7714 0.56883 0.0
C1242 C 0.94196 0.75815 0.57067 0.0
C1243 C 0.91541 0.77146 0.58227 0.0
C1244 C 0.91284 0.75814 0.5976 0.0
C1245 C 0.92515 0.74504 0.59977 0.0
C1246 C 0.93955 0.74505 0.58648 0.0
C1247 C 0.89737 0.75785 0.61144 0.0
C1248 C 0.8996 0.75623 0.6357 0.0
C1249 C 0.88054 0.75946 0.60098 0.0
C1250 C 0.87717 0.75968 0.5753 0.0
C1251 C 0.88319 0.74632 0.56095 0.0
C1252 C 0.88005 0.7466 0.53676 0.0
C1253 C 0.87079 0.76011 0.52672 0.0
C1254 C 0.86463 0.77338 0.54084 0.0
C1255 C 0.86775 0.77317 0.56505 0.0
H1256 H 0.86832 0.76026 0.508 0.0
H1257 H 0.89689 0.75056 0.74229 0.0
H1258 H 0.2402 0.85179 0.70255 0.0
H1259 H 0.23928 0.87662 0.67755 0.0
H1260 H 0.26058 0.846 0.62268 0.0
H1261 H 0.26137 0.82104 0.64748 0.0
H1262 H 0.27588 0.87679 0.62627 0.0
H1263 H 0.21751 0.85699 0.62098 0.0
H1264 H 0.19004 0.8482 0.63605 0.0
H1265 H 0.18483 0.89808 0.66884 0.0
H1266 H 0.21241 0.9071 0.65423 0.0
H1267 H 0.25904 0.93524 0.53473 0.0
H1268 H 0.25931 0.91 0.55933 0.0
H1269 H 0.23696 0.94031 0.61376 0.0
H1270 H 0.23644 0.96544 0.58888 0.0
H1271 H 0.22219 0.90965 0.6104 0.0
H1272 H 0.28042 0.92958 0.61558 0.0
H1273 H 0.30774 0.93853 0.60025 0.0
H1274 H 0.3133 0.88855 0.56789 0.0
H1275 H 0.28584 0.87939 0.58269 0.0
C1276 C 0.24451 0.85021 0.68508 0.0
C1277 C 0.25081 0.83423 0.67716 0.0
C1278 C 0.24402 0.86451 0.67075 0.0
C1279 C 0.2497 0.86327 0.648 0.0
C1280 C 0.25615 0.84741 0.64012 0.0
C1281 C 0.25664 0.83309 0.65443 0.0
C1282 C 0.24899 0.87848 0.63251 0.0
C1283 C 0.26406 0.88381 0.62258 0.0
C1284 C 0.23372 0.88802 0.62797 0.0
C1285 C 0.21711 0.88266 0.6367 0.0
C1286 C 0.21057 0.86604 0.63156 0.0
C1287 C 0.19497 0.86103 0.63999 0.0
C1288 C 0.18572 0.87256 0.65345 0.0
C1289 C 0.19203 0.88915 0.65845 0.0
C1290 C 0.20763 0.89423 0.65008 0.0
C1291 C 0.25419 0.93645 0.55195 0.0
C1292 C 0.24778 0.95228 0.55996 0.0
C1293 C 0.25441 0.92205 0.56608 0.0
C1294 C 0.24838 0.92318 0.58868 0.0
C1295 C 0.24171 0.939 0.59649 0.0
C1296 C 0.24146 0.95338 0.58232 0.0
C1297 C 0.24907 0.90796 0.60416 0.0
C1298 C 0.23401 0.90264 0.6141 0.0
C1299 C 0.26436 0.89844 0.60873 0.0
C1300 C 0.28099 0.90385 0.60006 0.0
C1301 C 0.28741 0.92053 0.60506 0.0
C1302 C 0.30293 0.92564 0.59648 0.0
C1303 C 0.31224 0.91413 0.58307 0.0
C1304 C 0.30606 0.89746 0.57826 0.0
C1305 C 0.29052 0.8923 0.58675 0.0
H1306 H 0.32425 0.91811 0.57644 0.0
H1307 H 0.17364 0.86865 0.65996 0.0
H1308 H 0.15321 0.26576 0.72715 0.0
H1309 H 0.12744 0.26451 0.70076 0.0
H1310 H 0.15354 0.23132 0.65309 0.0
H1311 H 0.17922 0.23197 0.67971 0.0
H1312 H 0.13574 0.25877 0.63155 0.0
H1313 H 0.12566 0.21403 0.6851 0.0
H1314 H 0.12334 0.20206 0.72397 0.0
H1315 H 0.08301 0.23774 0.73798 0.0
H1316 H 0.08527 0.25009 0.69929 0.0
H1317 H 0.06437 0.23344 0.55699 0.0
H1318 H 0.08984 0.23308 0.58417 0.0
H1319 H 0.06145 0.25952 0.63654 0.0
H1320 H 0.03578 0.2592 0.60955 0.0
H1321 H 0.0806 0.2356 0.65595 0.0
H1322 H 0.09015 0.28069 0.60366 0.0
H1323 H 0.09217 0.29369 0.56537 0.0
H1324 H 0.13318 0.25926 0.54976 0.0
H1325 H 0.13123 0.24586 0.58784 0.0
C1326 C 0.15344 0.25798 0.71122 0.0
C1327 C 0.16832 0.24891 0.70564 0.0
C1328 C 0.13872 0.25738 0.6961 0.0
C1329 C 0.13859 0.24776 0.67506 0.0
C1330 C 0.15343 0.23886 0.66924 0.0
C1331 C 0.16811 0.23933 0.68444 0.0
C1332 C 0.12295 0.247 0.6591 0.0
C1333 C 0.12373 0.2535 0.63672 0.0
C1334 C 0.1072 0.24057 0.66618 0.0
C1335 C 0.10575 0.23309 0.68939 0.0
C1336 C 0.11639 0.21942 0.69654 0.0
C1337 C 0.11507 0.21255 0.71853 0.0
C1338 C 0.10307 0.21917 0.73346 0.0
C1339 C 0.09232 0.23264 0.72641 0.0
C1340 C 0.09361 0.23957 0.70444 0.0
C1341 C 0.06363 0.23905 0.57438 0.0
C1342 C 0.04831 0.2465 0.58126 0.0
C1343 C 0.07816 0.23896 0.58983 0.0
C1344 C 0.07766 0.24658 0.61226 0.0
C1345 C 0.06216 0.25364 0.6193 0.0
C1346 C 0.04757 0.25354 0.60392 0.0
C1347 C 0.09334 0.24735 0.62826 0.0
C1348 C 0.09259 0.24088 0.65069 0.0
C1349 C 0.10908 0.254 0.62132 0.0
C1350 C 0.11044 0.26217 0.59852 0.0
C1351 C 0.09953 0.27582 0.59201 0.0
C1352 C 0.10067 0.28326 0.57035 0.0
C1353 C 0.11277 0.27727 0.55512 0.0
C1354 C 0.1238 0.26386 0.56156 0.0
C1355 C 0.12269 0.25635 0.58319 0.0
H1356 H 0.11363 0.28305 0.53836 0.0
H1357 H 0.10206 0.21383 0.75048 0.0
H1358 H 0.74142 0.16094 0.7116 0.0
H1359 H 0.74225 0.1354 0.68593 0.0
H1360 H 0.76929 0.16394 0.63662 0.0
H1361 H 0.769 0.18945 0.66245 0.0
H1362 H 0.74303 0.14451 0.61504 0.0
H1363 H 0.79052 0.13559 0.67068 0.0
H1364 H 0.80463 0.13319 0.71 0.0
H1365 H 0.77133 0.09122 0.72352 0.0
H1366 H 0.75685 0.09353 0.68436 0.0
H1367 H 0.76737 0.07404 0.54274 0.0
H1368 H 0.7674 0.0996 0.56883 0.0
H1369 H 0.74587 0.0696 0.62177 0.0
H1370 H 0.74645 0.04393 0.59589 0.0
H1371 H 0.76923 0.08993 0.64168 0.0
H1372 H 0.72149 0.09841 0.58708 0.0
H1373 H 0.70655 0.10056 0.54823 0.0
H1374 H 0.73881 0.14302 0.53334 0.0
H1375 H 0.75413 0.14096 0.572 0.0
C1376 C 0.74779 0.16181 0.69549 0.0
C1377 C 0.75519 0.17742 0.68931 0.0
C1378 C 0.74817 0.14714 0.68071 0.0
C1379 C 0.75593 0.14764 0.65932 0.0
C1380 C 0.76317 0.1632 0.65296 0.0
C1381 C 0.76291 0.17785 0.66779 0.0
C1382 C 0.75645 0.13198 0.64359 0.0
C1383 C 0.74897 0.13264 0.62077 0.0
C1384 C 0.76376 0.1163 0.65116 0.0
C1385 C 0.77249 0.11485 0.67467 0.0
C1386 C 0.78611 0.12594 0.6821 0.0
C1387 C 0.79419 0.12458 0.70435 0.0
C1388 C 0.78885 0.11209 0.71927 0.0
C1389 C 0.77544 0.10091 0.71195 0.0
C1390 C 0.7673 0.10222 0.68972 0.0
C1391 C 0.7627 0.07296 0.55999 0.0
C1392 C 0.75685 0.05706 0.56729 0.0
C1393 C 0.7626 0.08758 0.57487 0.0
C1394 C 0.75636 0.08672 0.59727 0.0
C1395 C 0.75071 0.07072 0.60463 0.0
C1396 C 0.75096 0.05606 0.58982 0.0
C1397 C 0.7558 0.10241 0.61303 0.0
C1398 C 0.76327 0.10177 0.63588 0.0
C1399 C 0.74832 0.11807 0.60555 0.0
C1400 C 0.73907 0.11942 0.58236 0.0
C1401 C 0.72548 0.10813 0.57546 0.0
C1402 C 0.71694 0.10934 0.55349 0.0
C1403 C 0.72176 0.12189 0.53831 0.0
C1404 C 0.73511 0.13329 0.54511 0.0
C1405 C 0.74372 0.13212 0.56706 0.0
H1406 H 0.71512 0.12281 0.5213 0.0
H1407 H 0.79512 0.11106 0.73649 0.0
H1408 H 0.82179 0.23456 0.36125 0.0
H1409 H 0.84786 0.23378 0.387 0.0
H1410 H 0.87444 0.2641 0.33908 0.0
H1411 H 0.84827 0.26556 0.31359 0.0
H1412 H 0.89302 0.23485 0.35522 0.0
H1413 H 0.86212 0.28341 0.38553 0.0
H1414 H 0.83696 0.29811 0.40075 0.0
H1415 H 0.83756 0.26368 0.45768 0.0
H1416 H 0.86259 0.2486 0.4426 0.0
H1417 H 0.96702 0.25841 0.42688 0.0
H1418 H 0.94081 0.25837 0.40098 0.0
H1419 H 0.91279 0.23541 0.45457 0.0
H1420 H 0.93893 0.23599 0.48066 0.0
H1421 H 0.8946 0.26031 0.43553 0.0
H1422 H 0.92525 0.2119 0.40681 0.0
H1423 H 0.95001 0.19622 0.39211 0.0
H1424 H 0.94942 0.22852 0.33291 0.0
H1425 H 0.9248 0.24459 0.34745 0.0
C1426 C 0.83308 0.24128 0.35628 0.0
C1427 C 0.83285 0.25019 0.33533 0.0
C1428 C 0.84801 0.2407 0.37096 0.0
C1429 C 0.86302 0.24893 0.36494 0.0
C1430 C 0.86297 0.25761 0.34395 0.0
C1431 C 0.84801 0.25835 0.32936 0.0
C1432 C 0.87876 0.24862 0.38067 0.0
C1433 C 0.89348 0.24059 0.37269 0.0
C1434 C 0.87912 0.25568 0.40366 0.0
C1435 C 0.86411 0.26476 0.41279 0.0
C1436 C 0.85679 0.27887 0.40118 0.0
C1437 C 0.84257 0.28729 0.4098 0.0
C1438 C 0.83564 0.2818 0.43013 0.0
C1439 C 0.84293 0.2679 0.44191 0.0
C1440 C 0.85714 0.25942 0.43334 0.0
C1441 C 0.95521 0.25341 0.43301 0.0
C1442 C 0.95481 0.24729 0.45564 0.0
C1443 C 0.9403 0.25328 0.41823 0.0
C1444 C 0.92486 0.24672 0.42574 0.0
C1445 C 0.92454 0.24054 0.44841 0.0
C1446 C 0.93942 0.2408 0.46323 0.0
C1447 C 0.90898 0.24657 0.41011 0.0
C1448 C 0.8942 0.25451 0.4181 0.0
C1449 C 0.90852 0.23925 0.38721 0.0
C1450 C 0.92328 0.22956 0.37834 0.0
C1451 C 0.93048 0.21575 0.39075 0.0
C1452 C 0.94448 0.20678 0.38243 0.0
C1453 C 0.95131 0.2114 0.36161 0.0
C1454 C 0.94413 0.22497 0.34904 0.0
C1455 C 0.93014 0.23401 0.35731 0.0
H1456 H 0.96215 0.20443 0.3552 0.0
H1457 H 0.82463 0.28834 0.43679 0.0
H1458 H 0.76814 0.81932 0.36776 0.0
H1459 H 0.76871 0.84503 0.39327 0.0
H1460 H 0.74008 0.87271 0.34009 0.0
H1461 H 0.73888 0.84693 0.3147 0.0
H1462 H 0.76781 0.89159 0.36038 0.0
H1463 H 0.72018 0.85918 0.38572 0.0
H1464 H 0.70603 0.83351 0.39979 0.0
H1465 H 0.74081 0.83419 0.46068 0.0
H1466 H 0.75533 0.85973 0.44679 0.0
H1467 H 0.74665 0.9653 0.42864 0.0
H1468 H 0.74594 0.93948 0.40306 0.0
H1469 H 0.76633 0.90966 0.46041 0.0
H1470 H 0.76619 0.93538 0.48619 0.0
H1471 H 0.74311 0.89156 0.43782 0.0
H1472 H 0.79103 0.92325 0.41376 0.0
H1473 H 0.80638 0.9484 0.40026 0.0
H1474 H 0.77313 0.94848 0.33789 0.0
H1475 H 0.75742 0.92348 0.35119 0.0
C1476 C 0.76173 0.83075 0.36149 0.0
C1477 C 0.75339 0.83084 0.33901 0.0
C1478 C 0.76217 0.84553 0.37613 0.0
C1479 C 0.75436 0.86085 0.36872 0.0
C1480 C 0.74626 0.8611 0.34622 0.0
C1481 C 0.74568 0.84629 0.33164 0.0
C1482 C 0.75456 0.87655 0.38442 0.0
C1483 C 0.76222 0.89165 0.3772 0.0
C1484 C 0.74772 0.87657 0.40667 0.0
C1485 C 0.73895 0.86126 0.4151 0.0
C1486 C 0.7249 0.85377 0.40201 0.0
C1487 C 0.7168 0.83926 0.40997 0.0
C1488 C 0.72255 0.83219 0.43108 0.0
C1489 C 0.73639 0.83966 0.44431 0.0
C1490 C 0.74455 0.85416 0.43641 0.0
C1491 C 0.75093 0.9532 0.43572 0.0
C1492 C 0.75652 0.95234 0.45936 0.0
C1493 C 0.75067 0.93844 0.42106 0.0
C1494 C 0.75638 0.92252 0.42955 0.0
C1495 C 0.76189 0.92169 0.45328 0.0
C1496 C 0.76191 0.93641 0.46801 0.0
C1497 C 0.7564 0.90673 0.41386 0.0
C1498 C 0.74876 0.89157 0.42105 0.0
C1499 C 0.76347 0.9066 0.39169 0.0
C1500 C 0.77294 0.92159 0.38358 0.0
C1501 C 0.78691 0.92871 0.39724 0.0
C1502 C 0.79569 0.94293 0.38962 0.0
C1503 C 0.7907 0.95006 0.36826 0.0
C1504 C 0.77696 0.94296 0.35445 0.0
C1505 C 0.76812 0.92875 0.36201 0.0
H1506 H 0.79751 0.96107 0.36238 0.0
H1507 H 0.71625 0.82096 0.43722 0.0
H1508 H 0.17693 0.78237 0.32489 0.0
H1509 H 0.15272 0.78256 0.35008 0.0
H1510 H 0.1453 0.72823 0.33614 0.0
H1511 H 0.16941 0.72797 0.31079 0.0
H1512 H 0.11478 0.74685 0.33292 0.0
H1513 H 0.16422 0.7412 0.38649 0.0
H1514 H 0.19262 0.74939 0.40468 0.0
H1515 H 0.17265 0.79836 0.4262 0.0
H1516 H 0.14418 0.79055 0.40783 0.0
H1517 H 0.05798 0.73002 0.42064 0.0
H1518 H 0.08208 0.72986 0.39563 0.0
H1519 H 0.09434 0.7821 0.41789 0.0
H1520 H 0.07096 0.78199 0.44413 0.0
H1521 H 0.12252 0.7647 0.4165 0.0
H1522 H 0.07339 0.77117 0.36332 0.0
H1523 H 0.04492 0.76391 0.34458 0.0
H1524 H 0.06391 0.71491 0.32151 0.0
H1525 H 0.09246 0.72179 0.34038 0.0
C1526 C 0.17007 0.77049 0.32709 0.0
C1527 C 0.17509 0.75514 0.31592 0.0
C1528 C 0.15632 0.7706 0.34159 0.0
C1529 C 0.14731 0.75538 0.3451 0.0
C1530 C 0.15212 0.7401 0.3337 0.0
C1531 C 0.16596 0.73995 0.31937 0.0
C1532 C 0.13285 0.75539 0.36068 0.0
C1533 C 0.11648 0.75055 0.35127 0.0
C1534 C 0.13502 0.76066 0.38445 0.0
C1535 C 0.15211 0.76535 0.39558 0.0
C1536 C 0.16592 0.75377 0.39493 0.0
C1537 C 0.18202 0.75834 0.4053 0.0
C1538 C 0.18445 0.77441 0.41653 0.0
C1539 C 0.17076 0.78593 0.41746 0.0
C1540 C 0.15463 0.78143 0.40709 0.0
C1541 C 0.0659 0.74143 0.42049 0.0
C1542 C 0.06242 0.75604 0.43444 0.0
C1543 C 0.07957 0.7414 0.40588 0.0
C1544 C 0.08989 0.75608 0.40451 0.0
C1545 C 0.08652 0.77064 0.41851 0.0
C1546 C 0.07299 0.77062 0.43333 0.0
C1547 C 0.10433 0.75618 0.38878 0.0
C1548 C 0.12074 0.76104 0.39815 0.0
C1549 C 0.10215 0.75108 0.3649 0.0
C1550 C 0.08502 0.74694 0.35346 0.0
C1551 C 0.07147 0.7588 0.35439 0.0
C1552 C 0.05532 0.75476 0.34372 0.0
C1553 C 0.0526 0.73894 0.33191 0.0
C1554 C 0.06604 0.72715 0.33069 0.0
C1555 C 0.0822 0.73112 0.34135 0.0
H1556 H 0.04009 0.73584 0.32366 0.0
H1557 H 0.19693 0.77792 0.42455 0.0
H1558 H 0.26303 0.18708 0.37339 0.0
H1559 H 0.26214 0.16226 0.39808 0.0
H1560 H 0.23633 0.13279 0.34161 0.0
H1561 H 0.23621 0.15789 0.3172 0.0
H1562 H 0.22244 0.12526 0.37962 0.0
H1563 H 0.28085 0.12826 0.35892 0.0
H1564 H 0.30908 0.14173 0.35488 0.0
H1565 H 0.31511 0.15053 0.42903 0.0
H1566 H 0.28681 0.13731 0.43348 0.0
H1567 H 0.23825 0.04257 0.42755 0.0
H1568 H 0.23841 0.06784 0.403 0.0
H1569 H 0.25857 0.09874 0.462 0.0
H1570 H 0.25831 0.07346 0.48654 0.0
H1571 H 0.27534 0.10535 0.42289 0.0
H1572 H 0.21668 0.10133 0.44294 0.0
H1573 H 0.18893 0.08672 0.44615 0.0
H1574 H 0.18385 0.07876 0.37181 0.0
H1575 H 0.21173 0.09307 0.36818 0.0
C1576 C 0.25693 0.17544 0.36619 0.0
C1577 C 0.24974 0.17469 0.34305 0.0
C1578 C 0.25665 0.16108 0.38034 0.0
C1579 C 0.24946 0.14538 0.37174 0.0
C1580 C 0.24207 0.14463 0.34878 0.0
C1581 C 0.2422 0.15904 0.33467 0.0
C1582 C 0.24954 0.12982 0.38663 0.0
C1583 C 0.2341 0.12081 0.38878 0.0
C1584 C 0.2646 0.12401 0.39912 0.0
C1585 C 0.28163 0.13195 0.39651 0.0
C1586 C 0.28814 0.13318 0.37435 0.0
C1587 C 0.30416 0.14076 0.37199 0.0
C1588 C 0.31386 0.14703 0.39168 0.0
C1589 C 0.30758 0.14569 0.41379 0.0
C1590 C 0.29155 0.13815 0.41624 0.0
C1591 C 0.24264 0.05479 0.43524 0.0
C1592 C 0.24821 0.05607 0.45896 0.0
C1593 C 0.24272 0.06924 0.42123 0.0
C1594 C 0.24838 0.08533 0.43061 0.0
C1595 C 0.25415 0.08654 0.45428 0.0
C1596 C 0.25397 0.07211 0.46832 0.0
C1597 C 0.24829 0.10086 0.41579 0.0
C1598 C 0.26372 0.10983 0.41368 0.0
C1599 C 0.23326 0.10654 0.4032 0.0
C1600 C 0.21638 0.09813 0.40531 0.0
C1601 C 0.20971 0.09636 0.42729 0.0
C1602 C 0.19395 0.08814 0.42918 0.0
C1603 C 0.18465 0.08179 0.4092 0.0
C1604 C 0.19108 0.08368 0.38728 0.0
C1605 C 0.20686 0.09184 0.38529 0.0
H1606 H 0.17245 0.07543 0.41071 0.0
H1607 H 0.32626 0.15288 0.38982 0.0
H1608 H 0.6902 0.72279 0.84526 0.0
H1609 H 0.66521 0.7221 0.86897 0.0
H1610 H 0.65245 0.77393 0.84977 0.0
H1611 H 0.67786 0.77486 0.82691 0.0
H1612 H 0.64745 0.77111 0.893 0.0
H1613 H 0.63097 0.73662 0.8246 0.0
H1614 H 0.63382 0.71323 0.79517 0.0
H1615 H 0.63272 0.67591 0.84847 0.0
H1616 H 0.63007 0.6991 0.87827 0.0
H1617 H 0.56027 0.77029 0.9228 0.0
H1618 H 0.58604 0.77039 0.90073 0.0
H1619 H 0.60243 0.72287 0.93147 0.0
H1620 H 0.57696 0.72288 0.95417 0.0
H1621 H 0.60552 0.72312 0.88314 0.0
H1622 H 0.621 0.75874 0.95121 0.0
H1623 H 0.61715 0.78273 0.97942 0.0
H1624 H 0.61885 0.81876 0.92459 0.0
H1625 H 0.62247 0.79495 0.89598 0.0
C1626 C 0.68203 0.73401 0.84616 0.0
C1627 C 0.68589 0.74886 0.83424 0.0
C1628 C 0.66771 0.7336 0.8596 0.0
C1629 C 0.65669 0.74785 0.86084 0.0
C1630 C 0.6607 0.76276 0.84912 0.0
C1631 C 0.67521 0.76329 0.83605 0.0
C1632 C 0.64102 0.74729 0.87435 0.0
C1633 C 0.63819 0.76071 0.89057 0.0
C1634 C 0.62902 0.73358 0.8716 0.0
C1635 C 0.63049 0.71961 0.85369 0.0
C1636 C 0.63145 0.72343 0.83006 0.0
C1637 C 0.63301 0.71021 0.81331 0.0
C1638 C 0.6335 0.6931 0.81996 0.0
C1639 C 0.63236 0.68917 0.84336 0.0
C1640 C 0.63081 0.70235 0.86018 0.0
C1641 C 0.56942 0.75994 0.92511 0.0
C1642 C 0.56652 0.74662 0.94041 0.0
C1643 C 0.58411 0.75998 0.91237 0.0
C1644 C 0.59619 0.7467 0.9146 0.0
C1645 C 0.59323 0.73322 0.92946 0.0
C1646 C 0.5786 0.73322 0.94234 0.0
C1647 C 0.612 0.74695 0.90154 0.0
C1648 C 0.61483 0.73348 0.88548 0.0
C1649 C 0.62388 0.76071 0.9042 0.0
C1650 C 0.62185 0.77505 0.92142 0.0
C1651 C 0.62042 0.77177 0.94513 0.0
C1652 C 0.6183 0.78533 0.9612 0.0
C1653 C 0.61771 0.80225 0.95379 0.0
C1654 C 0.61929 0.80565 0.9303 0.0
C1655 C 0.62139 0.79212 0.91416 0.0
H1656 H 0.61607 0.81274 0.96626 0.0
H1657 H 0.63471 0.68288 0.80696 0.0
H1658 H 0.23026 0.68471 0.8301 0.0
H1659 H 0.23137 0.66031 0.85576 0.0
H1660 H 0.28647 0.65904 0.85424 0.0
H1661 H 0.28563 0.6839 0.8293 0.0
H1662 H 0.27158 0.62636 0.84798 0.0
H1663 H 0.26889 0.67486 0.9015 0.0
H1664 H 0.2568 0.70178 0.91717 0.0
H1665 H 0.2093 0.67595 0.92711 0.0
H1666 H 0.22102 0.64892 0.91117 0.0
H1667 H 0.28755 0.56731 0.93843 0.0
H1668 H 0.28736 0.59239 0.91406 0.0
H1669 H 0.23373 0.60036 0.92495 0.0
H1670 H 0.23407 0.57597 0.95054 0.0
H1671 H 0.24816 0.62993 0.92623 0.0
H1672 H 0.24941 0.58196 0.8724 0.0
H1673 H 0.26013 0.5548 0.85556 0.0
H1674 H 0.30834 0.57893 0.84462 0.0
H1675 H 0.29798 0.6062 0.86169 0.0
C1676 C 0.24269 0.67951 0.83542 0.0
C1677 C 0.25786 0.68657 0.82748 0.0
C1678 C 0.24328 0.66539 0.85007 0.0
C1679 C 0.25901 0.6578 0.85714 0.0
C1680 C 0.27415 0.66458 0.84902 0.0
C1681 C 0.27361 0.67882 0.83457 0.0
C1682 C 0.25966 0.64283 0.87298 0.0
C1683 C 0.26667 0.62721 0.86523 0.0
C1684 C 0.25283 0.64369 0.89526 0.0
C1685 C 0.24578 0.65991 0.90492 0.0
C1686 C 0.25581 0.67496 0.90684 0.0
C1687 C 0.24904 0.69023 0.91581 0.0
C1688 C 0.23228 0.69059 0.92308 0.0
C1689 C 0.22227 0.67566 0.92145 0.0
C1690 C 0.22898 0.66036 0.91246 0.0
C1691 C 0.27573 0.57447 0.93598 0.0
C1692 C 0.2608 0.56933 0.94658 0.0
C1693 C 0.27558 0.58877 0.92165 0.0
C1694 C 0.26043 0.59825 0.9171 0.0
C1695 C 0.24559 0.59332 0.92792 0.0
C1696 C 0.24577 0.57913 0.94243 0.0
C1697 C 0.26005 0.61331 0.90128 0.0
C1698 C 0.25308 0.629 0.90901 0.0
C1699 C 0.26672 0.61243 0.87883 0.0
C1700 C 0.27298 0.59607 0.86855 0.0
C1701 C 0.26235 0.58144 0.86657 0.0
C1702 C 0.26835 0.56604 0.85695 0.0
C1703 C 0.28492 0.56513 0.84909 0.0
C1704 C 0.29551 0.57965 0.85076 0.0
C1705 C 0.28958 0.59508 0.86039 0.0
H1706 H 0.28954 0.55319 0.84165 0.0
H1707 H 0.22706 0.70242 0.93002 0.0
H1708 H 0.31472 0.24766 0.88353 0.0
H1709 H 0.34191 0.24999 0.90692 0.0
H1710 H 0.36422 0.27726 0.85206 0.0
H1711 H 0.33696 0.27544 0.82877 0.0
H1712 H 0.38466 0.25055 0.8688 0.0
H1713 H 0.35373 0.29881 0.89935 0.0
H1714 H 0.3293 0.31332 0.91676 0.0
H1715 H 0.33579 0.28195 0.97676 0.0
H1716 H 0.3601 0.26705 0.95954 0.0
H1717 H 0.46222 0.27566 0.9306 0.0
H1718 H 0.43438 0.2766 0.9083 0.0
H1719 H 0.41006 0.25395 0.96546 0.0
H1720 H 0.43784 0.25351 0.98793 0.0
H1721 H 0.39048 0.27877 0.94748 0.0
H1722 H 0.42022 0.22992 0.91782 0.0
H1723 H 0.44439 0.21439 0.90127 0.0
H1724 H 0.43966 0.24516 0.84054 0.0
H1725 H 0.41563 0.26109 0.85692 0.0
C1726 C 0.32531 0.2544 0.87655 0.0
C1727 C 0.32362 0.26136 0.85423 0.0
C1728 C 0.34086 0.25565 0.88992 0.0
C1729 C 0.35503 0.26386 0.88124 0.0
C1730 C 0.35343 0.27082 0.85902 0.0
C1731 C 0.33786 0.26969 0.8457 0.0
C1732 C 0.37166 0.26482 0.8951 0.0
C1733 C 0.38602 0.25694 0.88586 0.0
C1734 C 0.37324 0.27272 0.91763 0.0
C1735 C 0.35863 0.28168 0.92803 0.0
C1736 C 0.34985 0.29489 0.91616 0.0
C1737 C 0.33604 0.30321 0.92601 0.0
C1738 C 0.33096 0.29853 0.94782 0.0
C1739 C 0.33972 0.28554 0.95985 0.0
C1740 C 0.35352 0.27716 0.95005 0.0
C1741 C 0.45084 0.27109 0.93837 0.0
C1742 C 0.45198 0.26459 0.96087 0.0
C1743 C 0.43501 0.27152 0.92565 0.0
C1744 C 0.42017 0.26515 0.93512 0.0
C1745 C 0.42132 0.25894 0.95783 0.0
C1746 C 0.43713 0.25863 0.97059 0.0
C1747 C 0.40354 0.26455 0.92115 0.0
C1748 C 0.38916 0.27244 0.93039 0.0
C1749 C 0.40188 0.25648 0.89872 0.0
C1750 C 0.41623 0.24681 0.88871 0.0
C1751 C 0.42441 0.23346 0.90101 0.0
C1752 C 0.43808 0.22458 0.89165 0.0
C1753 C 0.44358 0.22881 0.86989 0.0
C1754 C 0.4354 0.24191 0.85741 0.0
C1755 C 0.42175 0.25087 0.86672 0.0
H1756 H 0.45417 0.22191 0.86266 0.0
H1757 H 0.32027 0.30499 0.95542 0.0
H1758 H 0.7661 0.34449 0.82168 0.0
H1759 H 0.76563 0.37025 0.84725 0.0
H1760 H 0.72638 0.34728 0.88582 0.0
H1761 H 0.72674 0.32151 0.86024 0.0
H1762 H 0.71924 0.38119 0.87695 0.0
H1763 H 0.76644 0.34833 0.90857 0.0
H1764 H 0.79354 0.33211 0.90771 0.0
H1765 H 0.81956 0.37705 0.88639 0.0
H1766 H 0.79253 0.39348 0.8868 0.0
H1767 H 0.7561 0.43664 0.98469 0.0
H1768 H 0.75641 0.41045 0.95968 0.0
H1769 H 0.73558 0.43905 0.90142 0.0
H1770 H 0.73505 0.46511 0.92659 0.0
H1771 H 0.77227 0.40133 0.92171 0.0
H1772 H 0.70938 0.41307 0.8659 0.0
H1773 H 0.6819 0.42833 0.86928 0.0
H1774 H 0.68625 0.42346 0.94358 0.0
H1775 H 0.7136 0.40791 0.94061 0.0
C1776 C 0.75727 0.34496 0.83549 0.0
C1777 C 0.74649 0.33087 0.8389 0.0
C1778 C 0.75709 0.35967 0.85021 0.0
C1779 C 0.74604 0.36072 0.86861 0.0
C1780 C 0.73504 0.34681 0.8718 0.0
C1781 C 0.73535 0.33202 0.85724 0.0
C1782 C 0.7461 0.37623 0.88466 0.0
C1783 C 0.73085 0.38561 0.88667 0.0
C1784 C 0.76115 0.38192 0.89773 0.0
C1785 C 0.77742 0.37209 0.89748 0.0
C1786 C 0.77791 0.35472 0.9035 0.0
C1787 C 0.79326 0.34549 0.90313 0.0
C1788 C 0.80825 0.35353 0.89694 0.0
C1789 C 0.80793 0.37083 0.89115 0.0
C1790 C 0.7926 0.38011 0.89147 0.0
C1791 C 0.75162 0.43725 0.96652 0.0
C1792 C 0.74544 0.4528 0.95755 0.0
C1793 C 0.75184 0.42233 0.95222 0.0
C1794 C 0.74583 0.42263 0.92865 0.0
C1795 C 0.74001 0.43833 0.91959 0.0
C1796 C 0.73975 0.45323 0.93392 0.0
C1797 C 0.74548 0.40652 0.91367 0.0
C1798 C 0.76067 0.39699 0.91189 0.0
C1799 C 0.73031 0.40056 0.90108 0.0
C1800 C 0.71362 0.40947 0.90303 0.0
C1801 C 0.70442 0.41516 0.88294 0.0
C1802 C 0.68887 0.42387 0.88479 0.0
C1803 C 0.68236 0.4269 0.90664 0.0
C1804 C 0.69133 0.42114 0.92668 0.0
C1805 C 0.70686 0.41238 0.92492 0.0
H1806 H 0.67034 0.43369 0.90803 0.0
H1807 H 0.82013 0.34636 0.89667 0.0
H1808 H 0.66369 0.26884 0.20734 0.0
H1809 H 0.63717 0.26706 0.18251 0.0
H1810 H 0.66291 0.23644 0.13156 0.0
H1811 H 0.68949 0.23785 0.15651 0.0
H1812 H 0.64232 0.26189 0.1117 0.0
H1813 H 0.63743 0.2169 0.16591 0.0
H1814 H 0.63809 0.20438 0.20481 0.0
H1815 H 0.59744 0.23808 0.22418 0.0
H1816 H 0.59672 0.25098 0.18549 0.0
H1817 H 0.56507 0.24055 0.04599 0.0
H1818 H 0.59249 0.23794 0.06876 0.0
H1819 H 0.56977 0.26128 0.12863 0.0
H1820 H 0.54206 0.26264 0.10627 0.0
H1821 H 0.58991 0.23744 0.14267 0.0
H1822 H 0.59604 0.28393 0.08965 0.0
H1823 H 0.59507 0.29645 0.05071 0.0
H1824 H 0.63315 0.26046 0.02924 0.0
H1825 H 0.63419 0.2476 0.06797 0.0
C1826 C 0.66371 0.2616 0.19094 0.0
C1827 C 0.67869 0.25336 0.18402 0.0
C1828 C 0.64855 0.26066 0.17674 0.0
C1829 C 0.64805 0.25145 0.15534 0.0
C1830 C 0.66306 0.2436 0.14803 0.0
C1831 C 0.67824 0.24448 0.16228 0.0
C1832 C 0.63173 0.24985 0.14083 0.0
C1833 C 0.63089 0.25635 0.11831 0.0
C1834 C 0.61681 0.24283 0.14963 0.0
C1835 C 0.61712 0.23501 0.17286 0.0
C1836 C 0.62872 0.22173 0.17852 0.0
C1837 C 0.62909 0.21455 0.20053 0.0
C1838 C 0.61784 0.22046 0.21697 0.0
C1839 C 0.60616 0.23353 0.21143 0.0
C1840 C 0.60575 0.24077 0.18945 0.0
C1841 C 0.56599 0.24494 0.0641 0.0
C1842 C 0.55167 0.25209 0.07437 0.0
C1843 C 0.58165 0.24361 0.07703 0.0
C1844 C 0.58337 0.24989 0.10025 0.0
C1845 C 0.56884 0.25649 0.11071 0.0
C1846 C 0.55307 0.25739 0.09794 0.0
C1847 C 0.60029 0.24986 0.11364 0.0
C1848 C 0.60129 0.24299 0.13597 0.0
C1849 C 0.61533 0.25664 0.10469 0.0
C1850 C 0.61509 0.26472 0.08165 0.0
C1851 C 0.60418 0.27867 0.0766 0.0
C1852 C 0.60361 0.28582 0.05456 0.0
C1853 C 0.61401 0.27923 0.03749 0.0
C1854 C 0.62508 0.26554 0.04246 0.0
C1855 C 0.62569 0.25833 0.06447 0.0
H1856 H 0.61352 0.28474 0.02042 0.0
H1857 H 0.61815 0.21488 0.234 0.0
H1858 H 0.75975 0.68824 0.16165 0.0
H1859 H 0.75879 0.66268 0.13586 0.0
H1860 H 0.72736 0.63684 0.18301 0.0
H1861 H 0.72802 0.66246 0.20878 0.0
H1862 H 0.75261 0.61588 0.16824 0.0
H1863 H 0.71 0.65287 0.1318 0.0
H1864 H 0.69952 0.67994 0.11492 0.0
H1865 H 0.7368 0.67587 0.06314 0.0
H1866 H 0.74765 0.64889 0.0799 0.0
H1867 H 0.72843 0.54467 0.09292 0.0
H1868 H 0.72815 0.57045 0.11857 0.0
H1869 H 0.7554 0.59847 0.06877 0.0
H1870 H 0.75506 0.57282 0.04279 0.0
H1871 H 0.73207 0.61845 0.08506 0.0
H1872 H 0.77529 0.58259 0.1205 0.0
H1873 H 0.78738 0.55609 0.13715 0.0
H1874 H 0.75113 0.55851 0.19038 0.0
H1875 H 0.73865 0.58491 0.17383 0.0
C1876 C 0.75243 0.67723 0.16647 0.0
C1877 C 0.74389 0.67758 0.18738 0.0
C1878 C 0.75195 0.66255 0.15167 0.0
C1879 C 0.74285 0.6478 0.15728 0.0
C1880 C 0.73449 0.648 0.17824 0.0
C1881 C 0.73494 0.66269 0.19305 0.0
C1882 C 0.74214 0.63218 0.14138 0.0
C1883 C 0.74788 0.6164 0.15014 0.0
C1884 C 0.73645 0.63286 0.11754 0.0
C1885 C 0.72974 0.64894 0.10724 0.0
C1886 C 0.71603 0.6578 0.1169 0.0
C1887 C 0.71002 0.67312 0.10734 0.0
C1888 C 0.71754 0.67965 0.08802 0.0
C1889 C 0.73101 0.67081 0.07813 0.0
C1890 C 0.73709 0.6555 0.08763 0.0
C1891 C 0.73426 0.55639 0.08747 0.0
C1892 C 0.7418 0.55677 0.06593 0.0
C1893 C 0.73423 0.5711 0.10219 0.0
C1894 C 0.74201 0.58646 0.0959 0.0
C1895 C 0.74933 0.58686 0.07416 0.0
C1896 C 0.74922 0.57219 0.05935 0.0
C1897 C 0.74253 0.60208 0.11189 0.0
C1898 C 0.73677 0.61788 0.10316 0.0
C1899 C 0.7484 0.60146 0.13571 0.0
C1900 C 0.75592 0.58563 0.14578 0.0
C1901 C 0.76981 0.5774 0.13566 0.0
C1902 C 0.77675 0.56241 0.14509 0.0
C1903 C 0.77 0.55559 0.16478 0.0
C1904 C 0.75633 0.56379 0.17511 0.0
C1905 C 0.74932 0.57878 0.16572 0.0
H1906 H 0.77539 0.54398 0.17206 0.0
H1907 H 0.71293 0.69154 0.08068 0.0
H1908 H 0.31854 0.77669 0.16275 0.0
H1909 H 0.34388 0.7759 0.13986 0.0
H1910 H 0.35033 0.72203 0.15295 0.0
H1911 H 0.32452 0.72239 0.17494 0.0
H1912 H 0.38105 0.7431 0.16115 0.0
H1913 H 0.33538 0.73102 0.10241 0.0
H1914 H 0.30775 0.73666 0.08087 0.0
H1915 H 0.32685 0.78516 0.05995 0.0
H1916 H 0.35453 0.77992 0.08167 0.0
H1917 H 0.4451 0.72387 0.08275 0.0
H1918 H 0.41935 0.72401 0.10463 0.0
H1919 H 0.40499 0.77318 0.07694 0.0
H1920 H 0.43004 0.77256 0.05363 0.0
H1921 H 0.37797 0.75452 0.0766 0.0
H1922 H 0.42291 0.76806 0.13449 0.0
H1923 H 0.45051 0.76436 0.15703 0.0
H1924 H 0.43323 0.71601 0.18095 0.0
H1925 H 0.40559 0.71931 0.15829 0.0
C1926 C 0.32511 0.76456 0.16049 0.0
C1927 C 0.31935 0.74958 0.17074 0.0
C1928 C 0.33969 0.76419 0.14753 0.0
C1929 C 0.34894 0.7489 0.14473 0.0
C1930 C 0.3434 0.73397 0.15504 0.0
C1931 C 0.32867 0.73426 0.16773 0.0
C1932 C 0.36442 0.74852 0.13105 0.0
C1933 C 0.38041 0.74536 0.1426 0.0
C1934 C 0.36356 0.75203 0.10704 0.0
C1935 C 0.34696 0.75515 0.09386 0.0
C1936 C 0.33364 0.74295 0.09339 0.0
C1937 C 0.31797 0.74606 0.08112 0.0
C1938 C 0.31553 0.76128 0.0691 0.0
C1939 C 0.32875 0.77339 0.06929 0.0
C1940 C 0.34444 0.77035 0.08156 0.0
C1941 C 0.43639 0.73464 0.08101 0.0
C1942 C 0.43978 0.74823 0.06636 0.0
C1943 C 0.42175 0.73481 0.09387 0.0
C1944 C 0.41033 0.74876 0.09282 0.0
C1945 C 0.41363 0.76231 0.07818 0.0
C1946 C 0.42812 0.76203 0.06505 0.0
C1947 C 0.3948 0.74909 0.10665 0.0
C1948 C 0.37874 0.75225 0.09515 0.0
C1949 C 0.39564 0.74588 0.13083 0.0
C1950 C 0.41224 0.74386 0.14451 0.0
C1951 C 0.42504 0.75658 0.14442 0.0
C1952 C 0.44068 0.75456 0.15724 0.0
C1953 C 0.44364 0.73993 0.17037 0.0
C1954 C 0.43093 0.72732 0.17075 0.0
C1955 C 0.41526 0.72926 0.15794 0.0
H1956 H 0.45576 0.7384 0.18028 0.0
H1957 H 0.30339 0.76366 0.0596 0.0
H1958 H 0.23608 0.33631 0.20931 0.0
H1959 H 0.23705 0.36086 0.18384 0.0
H1960 H 0.27747 0.33643 0.1472 0.0
H1961 H 0.27673 0.31191 0.17283 0.0
H1962 H 0.28437 0.37054 0.15621 0.0
H1963 H 0.23676 0.33713 0.12299 0.0
H1964 H 0.20925 0.32155 0.12316 0.0
H1965 H 0.1841 0.36793 0.14466 0.0
H1966 H 0.21153 0.38374 0.14493 0.0
H1967 H 0.28157 0.42578 0.05945 0.0
H1968 H 0.28103 0.40105 0.08457 0.0
H1969 H 0.23744 0.42253 0.11767 0.0
H1970 H 0.23786 0.44725 0.09252 0.0
H1971 H 0.23228 0.38962 0.11035 0.0
H1972 H 0.27939 0.4231 0.14433 0.0
H1973 H 0.30675 0.43902 0.14508 0.0
H1974 H 0.3327 0.39315 0.12346 0.0
H1975 H 0.30543 0.377 0.12227 0.0
C1976 C 0.24527 0.33617 0.19594 0.0
C1977 C 0.2563 0.32202 0.19317 0.0
C1978 C 0.24572 0.3502 0.18122 0.0
C1979 C 0.25723 0.35053 0.16335 0.0
C1980 C 0.26843 0.33654 0.16075 0.0
C1981 C 0.26789 0.32243 0.17534 0.0
C1982 C 0.2576 0.36543 0.14745 0.0
C1983 C 0.27303 0.37455 0.14594 0.0
C1984 C 0.24275 0.37105 0.13441 0.0
C1985 C 0.22624 0.36158 0.1342 0.0
C1986 C 0.22539 0.34398 0.12794 0.0
C1987 C 0.20981 0.33511 0.12792 0.0
C1988 C 0.19495 0.34373 0.13398 0.0
C1989 C 0.19563 0.36126 0.14001 0.0
C1990 C 0.21119 0.37018 0.14007 0.0
C1991 C 0.27195 0.42536 0.07221 0.0
C1992 C 0.25979 0.43866 0.07388 0.0
C1993 C 0.27165 0.41114 0.08664 0.0
C1994 C 0.25933 0.40988 0.10339 0.0
C1995 C 0.24709 0.42307 0.10495 0.0
C1996 C 0.24732 0.43724 0.09045 0.0
C1997 C 0.25906 0.39482 0.11911 0.0
C1998 C 0.24365 0.38564 0.1206 0.0
C1999 C 0.27391 0.38922 0.13226 0.0
C2000 C 0.29033 0.39888 0.13298 0.0
C2001 C 0.2909 0.41644 0.13956 0.0
C2002 C 0.3064 0.4255 0.14009 0.0
C2003 C 0.32145 0.41711 0.13426 0.0
C2004 C 0.32103 0.39963 0.12794 0.0
C2005 C 0.30556 0.39052 0.12735 0.0
H2006 H 0.33343 0.42415 0.13469 0.0
H2007 H 0.1829 0.33684 0.13395 0.0
H2008 H 0.33461 0.22723 0.2044 0.0
H2009 H 0.35917 0.22853 0.17998 0.0
H2010 H 0.34495 0.27999 0.16105 0.0
H2011 H 0.32026 0.27872 0.18534 0.0
H2012 H 0.3532 0.2592 0.12296 0.0
H2013 H 0.37743 0.27478 0.19955 0.0
H2014 H 0.38364 0.27116 0.24167 0.0
H2015 H 0.40974 0.22377 0.22755 0.0
H2016 H 0.40346 0.22699 0.18533 0.0
H2017 H 0.43005 0.28124 0.07137 0.0
H2018 H 0.40568 0.28069 0.09596 0.0
H2019 H 0.42253 0.23178 0.12211 0.0
H2020 H 0.44743 0.23264 0.09843 0.0
H2021 H 0.41271 0.25157 0.15664 0.0
H2022 H 0.38856 0.23538 0.08048 0.0
H2023 H 0.3822 0.2383 0.03825 0.0
H2024 H 0.35572 0.28566 0.05111 0.0
H2025 H 0.36214 0.28316 0.09343 0.0
C2026 C 0.33666 0.23878 0.19494 0.0
C2027 C 0.32552 0.25289 0.19683 0.0
C2028 C 0.35075 0.23955 0.18111 0.0
C2029 C 0.35395 0.2544 0.16883 0.0
C2030 C 0.34273 0.26842 0.17043 0.0
C2031 C 0.32872 0.26773 0.18442 0.0
C2032 C 0.36903 0.25529 0.15434 0.0
C2033 C 0.36624 0.25777 0.13034 0.0
C2034 C 0.38599 0.25298 0.16391 0.0
C2035 C 0.38982 0.25104 0.18928 0.0
C2036 C 0.38436 0.26351 0.20543 0.0
C2037 C 0.38792 0.26155 0.22932 0.0
C2038 C 0.39704 0.24722 0.23728 0.0
C2039 C 0.40266 0.23485 0.22136 0.0
C2040 C 0.39912 0.23675 0.19744 0.0
C2041 C 0.42872 0.27045 0.08255 0.0
C2042 C 0.44074 0.25697 0.08283 0.0
C2043 C 0.41463 0.27005 0.09641 0.0
C2044 C 0.41208 0.25606 0.11065 0.0
C2045 C 0.42415 0.24268 0.11119 0.0
C2046 C 0.43831 0.24312 0.09744 0.0
C2047 C 0.39694 0.25543 0.12514 0.0
C2048 C 0.39969 0.253 0.14918 0.0
C2049 C 0.37993 0.25766 0.11556 0.0
C2050 C 0.37599 0.25917 0.09012 0.0
C2051 C 0.3815 0.24649 0.0743 0.0
C2052 C 0.37786 0.24806 0.05035 0.0
C2053 C 0.3686 0.26218 0.042 0.0
C2054 C 0.36292 0.27474 0.0576 0.0
C2055 C 0.36654 0.27325 0.08157 0.0
H2056 H 0.3658 0.26337 0.02345 0.0
H2057 H 0.39979 0.24573 0.25579 0.0
H2058 H 0.75252 0.31746 0.1604 0.0
H2059 H 0.75071 0.3442 0.1393 0.0
H2060 H 0.73052 0.37023 0.19897 0.0
H2061 H 0.73273 0.34364 0.22054 0.0
H2062 H 0.7134 0.37788 0.15433 0.0
H2063 H 0.77005 0.37609 0.19272 0.0
H2064 H 0.79789 0.36259 0.20346 0.0
H2065 H 0.80892 0.35824 0.13128 0.0
H2066 H 0.78101 0.37148 0.12007 0.0
H2067 H 0.72743 0.46171 0.11179 0.0
H2068 H 0.72651 0.43674 0.13667 0.0
H2069 H 0.75573 0.40741 0.08797 0.0
H2070 H 0.75697 0.43233 0.06347 0.0
H2071 H 0.76801 0.40258 0.13042 0.0
H2072 H 0.71181 0.40231 0.09097 0.0
H2073 H 0.68364 0.41438 0.07842 0.0
H2074 H 0.67134 0.42125 0.14987 0.0
H2075 H 0.69956 0.40944 0.16286 0.0
C2076 C 0.74776 0.32888 0.16909 0.0
C2077 C 0.74295 0.3285 0.19222 0.0
C2078 C 0.74663 0.34408 0.15697 0.0
C2079 C 0.74063 0.35911 0.16774 0.0
C2080 C 0.73515 0.35868 0.19045 0.0
C2081 C 0.73639 0.34349 0.20267 0.0
C2082 C 0.74092 0.37544 0.15557 0.0
C2083 C 0.72531 0.38349 0.14937 0.0
C2084 C 0.75649 0.38243 0.14883 0.0
C2085 C 0.77338 0.37465 0.15555 0.0
C2086 C 0.77835 0.37214 0.17913 0.0
C2087 C 0.79416 0.36455 0.1853 0.0
C2088 C 0.80515 0.35953 0.16806 0.0
C2089 C 0.80038 0.36213 0.14461 0.0
C2090 C 0.78458 0.36968 0.13834 0.0
C2091 C 0.73361 0.44989 0.10649 0.0
C2092 C 0.74235 0.4489 0.08586 0.0
C2093 C 0.73305 0.43567 0.12061 0.0
C2094 C 0.74094 0.4202 0.11404 0.0
C2095 C 0.74964 0.41925 0.09342 0.0
C2096 C 0.75038 0.43347 0.07948 0.0
C2097 C 0.74043 0.40497 0.12866 0.0
C2098 C 0.75605 0.39712 0.13546 0.0
C2099 C 0.72484 0.39808 0.13566 0.0
C2100 C 0.70787 0.40518 0.12789 0.0
C2101 C 0.70316 0.40654 0.10401 0.0
C2102 C 0.68717 0.4133 0.09682 0.0
C2103 C 0.67573 0.41863 0.11334 0.0
C2104 C 0.68023 0.41716 0.1371 0.0
C2105 C 0.69622 0.41042 0.14438 0.0
H2106 H 0.66336 0.42386 0.10774 0.0
H2107 H 0.81738 0.35366 0.17288 0.0
H2108 H 0.67355 0.72054 0.17934 0.0
H2109 H 0.64752 0.71919 0.15358 0.0
H2110 H 0.64628 0.77456 0.15251 0.0
H2111 H 0.6716 0.77606 0.17953 0.0
H2112 H 0.61569 0.76365 0.15662 0.0
H2113 H 0.6601 0.7485 0.10582 0.0
H2114 H 0.68494 0.73224 0.09236 0.0
H2115 H 0.65531 0.68567 0.08939 0.0
H2116 H 0.63034 0.70161 0.10309 0.0
H2117 H 0.5676 0.75098 0.03525 0.0
H2118 H 0.59447 0.75124 0.05991 0.0
H2119 H 0.56665 0.73523 0.11815 0.0
H2120 H 0.53977 0.73524 0.09348 0.0
H2121 H 0.61216 0.72729 0.08404 0.0
H2122 H 0.58369 0.75632 0.16739 0.0
H2123 H 0.55961 0.77496 0.17793 0.0
H2124 H 0.55929 0.7983 0.11124 0.0
H2125 H 0.58355 0.78005 0.10048 0.0
C2126 C 0.66765 0.73246 0.17388 0.0
C2127 C 0.67475 0.74842 0.18157 0.0
C2128 C 0.65287 0.73165 0.15885 0.0
C2129 C 0.64505 0.74677 0.15079 0.0
C2130 C 0.6521 0.76271 0.15842 0.0
C2131 C 0.66673 0.76354 0.17368 0.0
C2132 C 0.62934 0.74603 0.13477 0.0
C2133 C 0.61496 0.75568 0.14077 0.0
C2134 C 0.62839 0.73586 0.11386 0.0
C2135 C 0.64339 0.72623 0.10567 0.0
C2136 C 0.65892 0.73477 0.10246 0.0
C2137 C 0.67301 0.72561 0.09476 0.0
C2138 C 0.6717 0.70793 0.09006 0.0
C2139 C 0.6563 0.69936 0.09305 0.0
C2140 C 0.64217 0.70846 0.10075 0.0
C2141 C 0.56736 0.74739 0.05329 0.0
C2142 C 0.55182 0.74305 0.06263 0.0
C2143 C 0.58264 0.74749 0.0673 0.0
C2144 C 0.58253 0.74338 0.09089 0.0
C2145 C 0.56699 0.73862 0.10005 0.0
C2146 C 0.55171 0.73854 0.08603 0.0
C2147 C 0.59856 0.74471 0.1061 0.0
C2148 C 0.61294 0.73519 0.09995 0.0
C2149 C 0.59968 0.75535 0.12655 0.0
C2150 C 0.58532 0.76667 0.13306 0.0
C2151 C 0.57853 0.76549 0.15503 0.0
C2152 C 0.56485 0.77599 0.16104 0.0
C2153 C 0.55789 0.78776 0.14524 0.0
C2154 C 0.56465 0.78913 0.12344 0.0
C2155 C 0.57837 0.77871 0.11737 0.0
H2156 H 0.54728 0.79585 0.14991 0.0
H2157 H 0.68259 0.70088 0.08401 0.0
H2158 H 0.24043 0.65935 0.20293 0.0
H2159 H 0.23988 0.63213 0.18061 0.0
H2160 H 0.26838 0.65526 0.12776 0.0
H2161 H 0.2694 0.68247 0.15026 0.0
H2162 H 0.23911 0.63728 0.11013 0.0
H2163 H 0.28844 0.62885 0.16305 0.0
H2164 H 0.30405 0.62798 0.2016 0.0
H2165 H 0.26963 0.58902 0.22221 0.0
H2166 H 0.25364 0.58984 0.18386 0.0
H2167 H 0.26365 0.56439 0.04473 0.0
H2168 H 0.2625 0.59088 0.06865 0.0
H2169 H 0.23882 0.5631 0.1221 0.0
H2170 H 0.24051 0.53642 0.09831 0.0
H2171 H 0.26409 0.58316 0.14037 0.0
H2172 H 0.21539 0.59046 0.08714 0.0
H2173 H 0.19967 0.59109 0.04865 0.0
H2174 H 0.23214 0.63199 0.02884 0.0
H2175 H 0.24823 0.63143 0.0671 0.0
C2176 C 0.24686 0.65858 0.18678 0.0
C2177 C 0.25499 0.67305 0.17837 0.0
C2178 C 0.24645 0.64305 0.17401 0.0
C2179 C 0.25412 0.64176 0.15264 0.0
C2180 C 0.26233 0.65611 0.14422 0.0
C2181 C 0.26285 0.67161 0.15704 0.0
C2182 C 0.25324 0.62551 0.13877 0.0
C2183 C 0.24473 0.62547 0.11657 0.0
C2184 C 0.26011 0.61008 0.14763 0.0
C2185 C 0.26973 0.60955 0.17068 0.0
C2186 C 0.2841 0.62021 0.17588 0.0
C2187 C 0.29304 0.6197 0.19768 0.0
C2188 C 0.2878 0.60849 0.21437 0.0
C2189 C 0.27365 0.59772 0.20927 0.0
C2190 C 0.26465 0.59819 0.1875 0.0
C2191 C 0.25807 0.56408 0.06152 0.0
C2192 C 0.25199 0.54863 0.06978 0.0
C2193 C 0.25735 0.57914 0.07509 0.0
C2194 C 0.25033 0.57898 0.09698 0.0
C2195 C 0.24419 0.56348 0.1052 0.0
C2196 C 0.24505 0.54835 0.09166 0.0
C2197 C 0.25007 0.59491 0.11157 0.0
C2198 C 0.25835 0.59492 0.13393 0.0
C2199 C 0.24289 0.6103 0.10291 0.0
C2200 C 0.2331 0.61081 0.07995 0.0
C2201 C 0.21925 0.59952 0.07453 0.0
C2202 C 0.21027 0.59987 0.05275 0.0
C2203 C 0.21492 0.61155 0.03629 0.0
C2204 C 0.22855 0.62294 0.0416 0.0
C2205 C 0.2376 0.62263 0.06335 0.0
H2206 H 0.20795 0.6118 0.01943 0.0
H2207 H 0.29474 0.60811 0.23124 0.0
H2208 H 0.32278 0.7691 0.85319 0.0
H2209 H 0.34938 0.7685 0.87768 0.0
H2210 H 0.37308 0.73743 0.82519 0.0
H2211 H 0.34615 0.73703 0.80118 0.0
H2212 H 0.38226 0.72602 0.86606 0.0
H2213 H 0.38094 0.78153 0.8329 0.0
H2214 H 0.36878 0.8097 0.82255 0.0
H2215 H 0.36593 0.8235 0.8951 0.0
H2216 H 0.37787 0.79531 0.90588 0.0
H2217 H 0.46837 0.74188 0.91111 0.0
H2218 H 0.4421 0.74291 0.88528 0.0
H2219 H 0.41437 0.76411 0.94209 0.0
H2220 H 0.44055 0.76274 0.96802 0.0
H2221 H 0.40802 0.7807 0.89831 0.0
H2222 H 0.40976 0.72411 0.9304 0.0
H2223 H 0.42356 0.69641 0.93927 0.0
H2224 H 0.42712 0.6851 0.86616 0.0
H2225 H 0.41364 0.71293 0.85686 0.0
C2226 C 0.33353 0.76188 0.84696 0.0
C2227 C 0.33228 0.75316 0.82511 0.0
C2228 C 0.34884 0.76176 0.86087 0.0
C2229 C 0.36337 0.75321 0.85309 0.0
C2230 C 0.36209 0.74423 0.83151 0.0
C2231 C 0.34671 0.74417 0.81768 0.0
C2232 C 0.37986 0.75363 0.86749 0.0
C2233 C 0.38799 0.73801 0.87281 0.0
C2234 C 0.38729 0.76924 0.8766 0.0
C2235 C 0.38015 0.78624 0.87019 0.0
C2236 C 0.37761 0.79052 0.84664 0.0
C2237 C 0.37077 0.8065 0.8407 0.0
C2238 C 0.36654 0.81837 0.85816 0.0
C2239 C 0.36919 0.81429 0.8816 0.0
C2240 C 0.37601 0.79832 0.88763 0.0
C2241 C 0.45663 0.74676 0.91795 0.0
C2242 C 0.45628 0.75205 0.94147 0.0
C2243 C 0.44171 0.74737 0.90327 0.0
C2244 C 0.42632 0.75347 0.91188 0.0
C2245 C 0.42614 0.75936 0.93517 0.0
C2246 C 0.441 0.75854 0.94992 0.0
C2247 C 0.41025 0.75315 0.89681 0.0
C2248 C 0.40224 0.76876 0.89143 0.0
C2249 C 0.40307 0.73758 0.8874 0.0
C2250 C 0.41085 0.72069 0.89295 0.0
C2251 C 0.41361 0.71579 0.91622 0.0
C2252 C 0.42136 0.70005 0.92132 0.0
C2253 C 0.42625 0.68902 0.90329 0.0
C2254 C 0.42335 0.69368 0.88011 0.0
C2255 C 0.41565 0.70943 0.87491 0.0
H2256 H 0.43226 0.67684 0.90728 0.0
H2257 H 0.36125 0.83074 0.85352 0.0
H2258 H 0.26089 0.3465 0.82198 0.0
H2259 H 0.26596 0.37312 0.84502 0.0
H2260 H 0.26244 0.34531 0.90834 0.0
H2261 H 0.25706 0.31866 0.88526 0.0
H2262 H 0.24446 0.37391 0.91012 0.0
H2263 H 0.30139 0.35915 0.89089 0.0
H2264 H 0.32428 0.35073 0.86514 0.0
H2265 H 0.3169 0.39742 0.82802 0.0
H2266 H 0.29379 0.40601 0.85334 0.0
H2267 H 0.27263 0.4436 0.9836 0.0
H2268 H 0.2742 0.41554 0.96313 0.0
H2269 H 0.26999 0.44054 0.89707 0.0
H2270 H 0.26854 0.46864 0.91765 0.0
H2271 H 0.29358 0.41267 0.89874 0.0
H2272 H 0.2353 0.42613 0.91718 0.0
H2273 H 0.21322 0.43467 0.94413 0.0
H2274 H 0.22407 0.38979 0.98396 0.0
H2275 H 0.24646 0.38115 0.95747 0.0
C2276 C 0.26134 0.34608 0.84082 0.0
C2277 C 0.25863 0.33059 0.8519 0.0
C2278 C 0.26428 0.36125 0.85395 0.0
C2279 C 0.26484 0.36112 0.87838 0.0
C2280 C 0.26209 0.34565 0.88949 0.0
C2281 C 0.25898 0.33049 0.87634 0.0
C2282 C 0.26768 0.37726 0.89227 0.0
C2283 C 0.25537 0.38222 0.90792 0.0
C2284 C 0.28177 0.38823 0.88908 0.0
C2285 C 0.29576 0.38316 0.87391 0.0
C2286 C 0.30456 0.36757 0.87713 0.0
C2287 C 0.31759 0.36277 0.86263 0.0
C2288 C 0.32202 0.37352 0.84492 0.0
C2289 C 0.31345 0.3891 0.84173 0.0
C2290 C 0.3004 0.39395 0.85617 0.0
C2291 C 0.27234 0.443 0.96472 0.0
C2292 C 0.27037 0.45797 0.95198 0.0
C2293 C 0.27323 0.42709 0.95311 0.0
C2294 C 0.27205 0.42606 0.92866 0.0
C2295 C 0.27096 0.44116 0.91595 0.0
C2296 C 0.27005 0.45709 0.9276 0.0
C2297 C 0.27035 0.40922 0.91637 0.0
C2298 C 0.28281 0.4042 0.90102 0.0
C2299 C 0.25646 0.39813 0.91991 0.0
C2300 C 0.24267 0.40307 0.93547 0.0
C2301 C 0.23305 0.41813 0.93176 0.0
C2302 C 0.22048 0.42299 0.94695 0.0
C2303 C 0.21727 0.4128 0.96577 0.0
C2304 C 0.22658 0.39768 0.96939 0.0
C2305 C 0.23922 0.3928 0.95429 0.0
H2306 H 0.20754 0.41658 0.97753 0.0
H2307 H 0.33211 0.36978 0.83371 0.0
H2308 H 0.66186 0.25046 0.81204 0.0
H2309 H 0.63742 0.25135 0.83673 0.0
H2310 H 0.67121 0.26722 0.89586 0.0
H2311 H 0.6958 0.26524 0.87132 0.0
H2312 H 0.65007 0.2466 0.91057 0.0
H2313 H 0.64252 0.29571 0.86415 0.0
H2314 H 0.64008 0.31245 0.82842 0.0
H2315 H 0.59543 0.28337 0.80392 0.0
H2316 H 0.59773 0.26628 0.83938 0.0
H2317 H 0.5801 0.27619 0.97707 0.0
H2318 H 0.60526 0.27638 0.95349 0.0
H2319 H 0.57777 0.24536 0.90005 0.0
H2320 H 0.55262 0.24499 0.92363 0.0
H2321 H 0.59582 0.27511 0.88388 0.0
H2322 H 0.60542 0.22615 0.93372 0.0
H2323 H 0.60814 0.21294 0.9722 0.0
H2324 H 0.65003 0.24686 0.99332 0.0
H2325 H 0.64739 0.26045 0.95507 0.0
C2326 C 0.664 0.25413 0.83032 0.0
C2327 C 0.68062 0.25787 0.83983 0.0
C2328 C 0.65003 0.25477 0.84442 0.0
C2329 C 0.65231 0.25976 0.86816 0.0
C2330 C 0.66902 0.26337 0.87765 0.0
C2331 C 0.68306 0.2623 0.86365 0.0
C2332 C 0.63731 0.26097 0.88306 0.0
C2333 C 0.63833 0.25307 0.90478 0.0
C2334 C 0.62186 0.26935 0.8757 0.0
C2335 C 0.6204 0.2796 0.85434 0.0
C2336 C 0.63225 0.2928 0.85107 0.0
C2337 C 0.63089 0.30236 0.83087 0.0
C2338 C 0.61764 0.29895 0.81388 0.0
C2339 C 0.6057 0.28599 0.81709 0.0
C2340 C 0.60702 0.27637 0.83724 0.0
C2341 C 0.57942 0.26949 0.96023 0.0
C2342 C 0.56443 0.26056 0.95216 0.0
C2343 C 0.59379 0.26956 0.94685 0.0
C2344 C 0.59336 0.26085 0.92507 0.0
C2345 C 0.57833 0.25215 0.91681 0.0
C2346 C 0.56404 0.25187 0.93033 0.0
C2347 C 0.60865 0.26061 0.91097 0.0
C2348 C 0.60764 0.26872 0.88951 0.0
C2349 C 0.62425 0.25289 0.91886 0.0
C2350 C 0.62611 0.24441 0.94161 0.0
C2351 C 0.61515 0.23085 0.94662 0.0
C2352 C 0.61667 0.22329 0.96839 0.0
C2353 C 0.62921 0.22909 0.98522 0.0
C2354 C 0.64031 0.2424 0.98028 0.0
C2355 C 0.63881 0.25002 0.95855 0.0
H2356 H 0.63035 0.22325 0.00208 0.0
H2357 H 0.6166 0.30637 0.79826 0.0
H2358 H 0.7216 0.67059 0.8082 0.0
H2359 H 0.71899 0.64409 0.82987 0.0
H2360 H 0.7726 0.64758 0.85284 0.0
H2361 H 0.77514 0.67431 0.83173 0.0
H2362 H 0.75742 0.61289 0.83231 0.0
H2363 H 0.75104 0.65955 0.89035 0.0
H2364 H 0.73744 0.68621 0.90431 0.0
H2365 H 0.68816 0.66134 0.89889 0.0
H2366 H 0.70147 0.63459 0.88456 0.0
H2367 H 0.76937 0.55559 0.92358 0.0
H2368 H 0.76899 0.57911 0.89686 0.0
H2369 H 0.71459 0.58566 0.90394 0.0
H2370 H 0.71521 0.56339 0.93263 0.0
H2371 H 0.72795 0.61483 0.90639 0.0
H2372 H 0.73283 0.56763 0.85268 0.0
H2373 H 0.7444 0.54067 0.83641 0.0
H2374 H 0.79316 0.56509 0.83007 0.0
H2375 H 0.78196 0.59215 0.8466 0.0
C2376 C 0.73279 0.66559 0.81783 0.0
C2377 C 0.74855 0.67433 0.8185 0.0
C2378 C 0.7313 0.65056 0.8301 0.0
C2379 C 0.74563 0.64401 0.84277 0.0
C2380 C 0.76147 0.65251 0.84301 0.0
C2381 C 0.76288 0.66773 0.83114 0.0
C2382 C 0.74396 0.62863 0.85656 0.0
C2383 C 0.75111 0.61321 0.84861 0.0
C2384 C 0.73515 0.62914 0.87724 0.0
C2385 C 0.72721 0.64515 0.88612 0.0
C2386 C 0.73728 0.65982 0.89192 0.0
C2387 C 0.72964 0.67494 0.89995 0.0
C2388 C 0.71194 0.67549 0.90241 0.0
C2389 C 0.70186 0.66091 0.89693 0.0
C2390 C 0.70945 0.64576 0.88887 0.0
C2391 C 0.75734 0.56212 0.91972 0.0
C2392 C 0.74235 0.55758 0.93051 0.0
C2393 C 0.75707 0.57538 0.904 0.0
C2394 C 0.7417 0.58399 0.89803 0.0
C2395 C 0.72661 0.57917 0.90821 0.0
C2396 C 0.72695 0.56623 0.92442 0.0
C2397 C 0.74161 0.59877 0.88243 0.0
C2398 C 0.73412 0.61422 0.88999 0.0
C2399 C 0.74979 0.59814 0.86108 0.0
C2400 C 0.75658 0.58189 0.85105 0.0
C2401 C 0.74605 0.56723 0.84797 0.0
C2402 C 0.75254 0.55193 0.83867 0.0
C2403 C 0.76951 0.55116 0.83226 0.0
C2404 C 0.78002 0.5657 0.83506 0.0
C2405 C 0.7736 0.58103 0.84436 0.0
H2406 H 0.77451 0.5393 0.82507 0.0
H2407 H 0.70604 0.68721 0.90862 0.0
loop_
_geom_bond_atom_site_label_1
_geom_bond_atom_site_label_2
_geom_bond_distance
_geom_bond_site_symmetry_2
_ccdc_geom_bond_type
H0 C19 0.949 . S
H1 C20 0.950 . S
H2 C22 0.950 . S
H3 C23 0.950 . S
H4 C25 0.950 . S
H5 C28 0.950 . S
H6 C29 0.950 . S
H7 C31 0.951 . S
H8 C32 0.949 . S
H9 C34 0.949 . S
H10 C35 0.950 . S
H11 C37 0.950 . S
H12 C38 0.950 . S
H13 C40 0.950 . S
H14 C43 0.950 . S
H15 C44 0.950 . S
H16 C46 0.951 . S
H17 C47 0.949 . S
C18 C19 1.376 . S
C18 C23 1.386 . S
C18 C24 1.483 . S
C19 H0 0.949 . S
C19 C18 1.376 . S
C19 C20 1.397 . S
C20 H1 0.950 . S
C20 C19 1.397 . S
C20 C21 1.391 . S
C21 C20 1.391 . S
C21 C22 1.405 . S
C22 H2 0.950 . S
C22 C21 1.405 . S
C22 C23 1.367 . S
C23 H3 0.950 . S
C23 C18 1.386 . S
C23 C22 1.367 . S
C24 C18 1.483 . S
C24 C25 1.382 . S
C24 C26 1.403 . S
C25 H4 0.950 . S
C25 C24 1.382 . S
C25 C41 1.411 . S
C26 C24 1.403 . S
C26 C27 1.489 . S
C26 C40 1.411 . S
C27 C26 1.489 . S
C27 C28 1.383 . S
C27 C32 1.382 . S
C28 H5 0.950 . S
C28 C27 1.383 . S
C28 C29 1.395 . S
C29 H6 0.950 . S
C29 C28 1.395 . S
C29 C30 1.288 . S
C30 C29 1.288 . S
C30 C31 1.392 . S
C31 H7 0.951 . S
C31 C30 1.392 . S
C31 C32 1.392 . S
C32 H8 0.949 . S
C32 C27 1.382 . S
C32 C31 1.392 . S
C33 C34 1.376 . S
C33 C38 1.386 . S
C33 C39 1.483 . S
C34 H9 0.949 . S
C34 C33 1.376 . S
C34 C35 1.397 . S
C35 H10 0.950 . S
C35 C34 1.397 . S
C35 C36 1.391 . S
C36 C35 1.391 . S
C36 C37 1.405 . S
C37 H11 0.950 . S
C37 C36 1.405 . S
C37 C38 1.367 . S
C38 H12 0.950 . S
C38 C33 1.386 . S
C38 C37 1.367 . S
C39 C33 1.483 . S
C39 C40 1.382 . S
C39 C41 1.403 . S
C40 H13 0.950 . S
C40 C26 1.411 . S
C40 C39 1.382 . S
C41 C25 1.411 . S
C41 C39 1.403 . S
C41 C42 1.489 . S
C42 C41 1.489 . S
C42 C43 1.383 . S
C42 C47 1.382 . S
C43 H14 0.950 . S
C43 C42 1.383 . S
C43 C44 1.395 . S
C44 H15 0.950 . S
C44 C43 1.395 . S
C44 C45 1.288 . S
C45 C44 1.288 . S
C45 C46 1.392 . S
C46 H16 0.951 . S
C46 C45 1.392 . S
C46 C47 1.392 . S
C47 H17 0.949 . S
C47 C42 1.382 . S
C47 C46 1.392 . S
H48 C67 0.949 . S
H49 C68 0.950 . S
H50 C70 0.950 . S
H51 C71 0.950 . S
H52 C73 0.950 . S
H53 C76 0.950 . S
H54 C77 0.950 . S
H55 C79 0.951 . S
H56 C80 0.949 . S
H57 C82 0.949 . S
H58 C83 0.950 . S
H59 C85 0.950 . S
H60 C86 0.950 . S
H61 C88 0.950 . S
H62 C91 0.950 . S
H63 C92 0.950 . S
H64 C94 0.951 . S
H65 C95 0.949 . S
C66 C67 1.376 . S
C66 C71 1.386 . S
C66 C72 1.483 . S
C67 H48 0.949 . S
C67 C66 1.376 . S
C67 C68 1.397 . S
C68 H49 0.950 . S
C68 C67 1.397 . S
C68 C69 1.391 . S
C69 C68 1.391 . S
C69 C70 1.405 . S
C70 H50 0.950 . S
C70 C69 1.405 . S
C70 C71 1.367 . S
C71 H51 0.950 . S
C71 C66 1.386 . S
C71 C70 1.367 . S
C72 C66 1.483 . S
C72 C73 1.382 . S
C72 C74 1.403 . S
C73 H52 0.950 . S
C73 C72 1.382 . S
C73 C89 1.411 . S
C74 C72 1.403 . S
C74 C75 1.489 . S
C74 C88 1.411 . S
C75 C74 1.489 . S
C75 C76 1.383 . S
C75 C80 1.382 . S
C76 H53 0.950 . S
C76 C75 1.383 . S
C76 C77 1.395 . S
C77 H54 0.950 . S
C77 C76 1.395 . S
C77 C78 1.288 . S
C78 C77 1.288 . S
C78 C79 1.392 . S
C79 H55 0.951 . S
C79 C78 1.392 . S
C79 C80 1.392 . S
C80 H56 0.949 . S
C80 C75 1.382 . S
C80 C79 1.392 . S
C81 C82 1.376 . S
C81 C86 1.386 . S
C81 C87 1.483 . S
C82 H57 0.949 . S
C82 C81 1.376 . S
C82 C83 1.397 . S
C83 H58 0.950 . S
C83 C82 1.397 . S
C83 C84 1.391 . S
C84 C83 1.391 . S
C84 C85 1.405 . S
C85 H59 0.950 . S
C85 C84 1.405 . S
C85 C86 1.367 . S
C86 H60 0.950 . S
C86 C81 1.386 . S
C86 C85 1.367 . S
C87 C81 1.483 . S
C87 C88 1.382 . S
C87 C89 1.403 . S
C88 H61 0.950 . S
C88 C74 1.411 . S
C88 C87 1.382 . S
C89 C73 1.411 . S
C89 C87 1.403 . S
C89 C90 1.489 . S
C90 C89 1.489 . S
C90 C91 1.383 . S
C90 C95 1.382 . S
C91 H62 0.950 . S
C91 C90 1.383 . S
C91 C92 1.395 . S
C92 H63 0.950 . S
C92 C91 1.395 . S
C92 C93 1.288 . S
C93 C92 1.288 . S
C93 C94 1.392 . S
C94 H64 0.951 . S
C94 C93 1.392 . S
C94 C95 1.392 . S
C95 H65 0.949 . S
C95 C90 1.382 . S
C95 C94 1.392 . S
H96 C115 0.949 . S
H97 C116 0.950 . S
H98 C118 0.950 . S
H99 C119 0.950 . S
H100 C121 0.950 . S
H101 C124 0.950 . S
H102 C125 0.950 . S
H103 C127 0.951 . S
H104 C128 0.949 . S
H105 C130 0.949 . S
H106 C131 0.950 . S
H107 C133 0.950 . S
H108 C134 0.950 . S
H109 C136 0.950 . S
H110 C139 0.950 . S
H111 C140 0.950 . S
H112 C142 0.951 . S
H113 C143 0.949 . S
C114 C115 1.376 . S
C114 C119 1.386 . S
C114 C120 1.483 . S
C115 H96 0.949 . S
C115 C114 1.376 . S
C115 C116 1.397 . S
C116 H97 0.950 . S
C116 C115 1.397 . S
C116 C117 1.391 . S
C117 C116 1.391 . S
C117 C118 1.405 . S
C118 H98 0.950 . S
C118 C117 1.405 . S
C118 C119 1.367 . S
C119 H99 0.950 . S
C119 C114 1.386 . S
C119 C118 1.367 . S
C120 C114 1.483 . S
C120 C121 1.382 . S
C120 C122 1.403 . S
C121 H100 0.950 . S
C121 C120 1.382 . S
C121 C137 1.411 . S
C122 C120 1.403 . S
C122 C123 1.489 . S
C122 C136 1.411 . S
C123 C122 1.489 . S
C123 C124 1.383 . S
C123 C128 1.382 . S
C124 H101 0.950 . S
C124 C123 1.383 . S
C124 C125 1.395 . S
C125 H102 0.950 . S
C125 C124 1.395 . S
C125 C126 1.288 . S
C126 C125 1.288 . S
C126 C127 1.392 . S
C127 H103 0.951 . S
C127 C126 1.392 . S
C127 C128 1.392 . S
C128 H104 0.949 . S
C128 C123 1.382 . S
C128 C127 1.392 . S
C129 C130 1.376 . S
C129 C134 1.386 . S
C129 C135 1.483 . S
C130 H105 0.949 . S
C130 C129 1.376 . S
C130 C131 1.397 . S
C131 H106 0.950 . S
C131 C130 1.397 . S
C131 C132 1.391 . S
C132 C131 1.391 . S
C132 C133 1.405 . S
C133 H107 0.950 . S
C133 C132 1.405 . S
C133 C134 1.367 . S
C134 H108 0.950 . S
C134 C129 1.386 . S
C134 C133 1.367 . S
C135 C129 1.483 . S
C135 C136 1.382 . S
C135 C137 1.403 . S
C136 H109 0.950 . S
C136 C122 1.411 . S
C136 C135 1.382 . S
C137 C121 1.411 . S
C137 C135 1.403 . S
C137 C138 1.489 . S
C138 C137 1.489 . S
C138 C139 1.383 . S
C138 C143 1.382 . S
C139 H110 0.950 . S
C139 C138 1.383 . S
C139 C140 1.395 . S
C140 H111 0.950 . S
C140 C139 1.395 . S
C140 C141 1.288 . S
C141 C140 1.288 . S
C141 C142 1.392 . S
C142 H112 0.951 . S
C142 C141 1.392 . S
C142 C143 1.392 . S
C143 H113 0.949 . S
C143 C138 1.382 . S
C143 C142 1.392 . S
H144 C163 0.949 . S
H145 C164 0.950 . S
H146 C166 0.950 . S
H147 C167 0.950 . S
H148 C169 0.950 . S
H149 C172 0.950 . S
H150 C173 0.950 . S
H151 C175 0.951 . S
H152 C176 0.949 . S
H153 C178 0.949 . S
H154 C179 0.950 . S
H155 C181 0.950 . S
H156 C182 0.950 . S
H157 C184 0.950 . S
H158 C187 0.950 . S
H159 C188 0.950 . S
H160 C190 0.951 . S
H161 C191 0.949 . S
C162 C163 1.376 . S
C162 C167 1.386 . S
C162 C168 1.483 . S
C163 H144 0.949 . S
C163 C162 1.376 . S
C163 C164 1.397 . S
C164 H145 0.950 . S
C164 C163 1.397 . S
C164 C165 1.391 . S
C165 C164 1.391 . S
C165 C166 1.405 . S
C166 H146 0.950 . S
C166 C165 1.405 . S
C166 C167 1.367 . S
C167 H147 0.950 . S
C167 C162 1.386 . S
C167 C166 1.367 . S
C168 C162 1.483 . S
C168 C169 1.382 . S
C168 C170 1.403 . S
C169 H148 0.950 . S
C169 C168 1.382 . S
C169 C185 1.411 . S
C170 C168 1.403 . S
C170 C171 1.489 . S
C170 C184 1.411 . S
C171 C170 1.489 . S
C171 C172 1.383 . S
C171 C176 1.382 . S
C172 H149 0.950 . S
C172 C171 1.383 . S
C172 C173 1.395 . S
C173 H150 0.950 . S
C173 C172 1.395 . S
C173 C174 1.288 . S
C174 C173 1.288 . S
C174 C175 1.392 . S
C175 H151 0.951 . S
C175 C174 1.392 . S
C175 C176 1.392 . S
C176 H152 0.949 . S
C176 C171 1.382 . S
C176 C175 1.392 . S
C177 C178 1.376 . S
C177 C182 1.386 . S
C177 C183 1.483 . S
C178 H153 0.949 . S
C178 C177 1.376 . S
C178 C179 1.397 . S
C179 H154 0.950 . S
C179 C178 1.397 . S
C179 C180 1.391 . S
C180 C179 1.391 . S
C180 C181 1.405 . S
C181 H155 0.950 . S
C181 C180 1.405 . S
C181 C182 1.367 . S
C182 H156 0.950 . S
C182 C177 1.386 . S
C182 C181 1.367 . S
C183 C177 1.483 . S
C183 C184 1.382 . S
C183 C185 1.403 . S
C184 H157 0.950 . S
C184 C170 1.411 . S
C184 C183 1.382 . S
C185 C169 1.411 . S
C185 C183 1.403 . S
C185 C186 1.489 . S
C186 C185 1.489 . S
C186 C187 1.383 . S
C186 C191 1.382 . S
C187 H158 0.950 . S
C187 C186 1.383 . S
C187 C188 1.395 . S
C188 H159 0.950 . S
C188 C187 1.395 . S
C188 C189 1.288 . S
C189 C188 1.288 . S
C189 C190 1.392 . S
C190 H160 0.951 . S
C190 C189 1.392 . S
C190 C191 1.392 . S
C191 H161 0.949 . S
C191 C186 1.382 . S
C191 C190 1.392 . S
H192 C211 0.949 . S
H193 C212 0.950 . S
H194 C214 0.950 . S
H195 C215 0.950 . S
H196 C217 0.950 . S
H197 C220 0.950 . S
H198 C221 0.950 . S
H199 C223 0.951 . S
H200 C224 0.949 . S
H201 C226 0.949 . S
H202 C227 0.950 . S
H203 C229 0.950 . S
H204 C230 0.950 . S
H205 C232 0.950 . S
H206 C235 0.950 . S
H207 C236 0.950 . S
H208 C238 0.951 . S
H209 C239 0.949 . S
C210 C211 1.376 . S
C210 C215 1.386 . S
C210 C216 1.483 . S
C211 H192 0.949 . S
C211 C210 1.376 . S
C211 C212 1.397 . S
C212 H193 0.950 . S
C212 C211 1.397 . S
C212 C213 1.391 . S
C213 C212 1.391 . S
C213 C214 1.405 . S
C214 H194 0.950 . S
C214 C213 1.405 . S
C214 C215 1.367 . S
C215 H195 0.950 . S
C215 C210 1.386 . S
C215 C214 1.367 . S
C216 C210 1.483 . S
C216 C217 1.382 . S
C216 C218 1.403 . S
C217 H196 0.950 . S
C217 C216 1.382 . S
C217 C233 1.411 . S
C218 C216 1.403 . S
C218 C219 1.489 . S
C218 C232 1.411 . S
C219 C218 1.489 . S
C219 C220 1.383 . S
C219 C224 1.382 . S
C220 H197 0.950 . S
C220 C219 1.383 . S
C220 C221 1.395 . S
C221 H198 0.950 . S
C221 C220 1.395 . S
C221 C222 1.288 . S
C222 C221 1.288 . S
C222 C223 1.392 . S
C223 H199 0.951 . S
C223 C222 1.392 . S
C223 C224 1.392 . S
C224 H200 0.949 . S
C224 C219 1.382 . S
C224 C223 1.392 . S
C225 C226 1.376 . S
C225 C230 1.386 . S
C225 C231 1.483 . S
C226 H201 0.949 . S
C226 C225 1.376 . S
C226 C227 1.397 . S
C227 H202 0.950 . S
C227 C226 1.397 . S
C227 C228 1.391 . S
C228 C227 1.391 . S
C228 C229 1.405 . S
C229 H203 0.950 . S
C229 C228 1.405 . S
C229 C230 1.367 . S
C230 H204 0.950 . S
C230 C225 1.386 . S
C230 C229 1.367 . S
C231 C225 1.483 . S
C231 C232 1.382 . S
C231 C233 1.403 . S
C232 H205 0.950 . S
C232 C218 1.411 . S
C232 C231 1.382 . S
C233 C217 1.411 . S
C233 C231 1.403 . S
C233 C234 1.489 . S
C234 C233 1.489 . S
C234 C235 1.383 . S
C234 C239 1.382 . S
C235 H206 0.950 . S
C235 C234 1.383 . S
C235 C236 1.395 . S
C236 H207 0.950 . S
C236 C235 1.395 . S
C236 C237 1.288 . S
C237 C236 1.288 . S
C237 C238 1.392 . S
C238 H208 0.951 . S
C238 C237 1.392 . S
C238 C239 1.392 . S
C239 H209 0.949 . S
C239 C234 1.382 . S
C239 C238 1.392 . S
H240 C259 0.949 . S
H241 C260 0.950 . S
H242 C262 0.950 . S
H243 C263 0.950 . S
H244 C265 0.950 . S
H245 C268 0.950 . S
H246 C269 0.950 . S
H247 C271 0.951 . S
H248 C272 0.949 . S
H249 C274 0.949 . S
H250 C275 0.950 . S
H251 C277 0.950 . S
H252 C278 0.950 . S
H253 C280 0.950 . S
H254 C283 0.950 . S
H255 C284 0.950 . S
H256 C286 0.951 . S
H257 C287 0.949 . S
C258 C259 1.376 . S
C258 C263 1.386 . S
C258 C264 1.483 . S
C259 H240 0.949 . S
C259 C258 1.376 . S
C259 C260 1.397 . S
C260 H241 0.950 . S
C260 C259 1.397 . S
C260 C261 1.391 . S
C261 C260 1.391 . S
C261 C262 1.405 . S
C262 H242 0.950 . S
C262 C261 1.405 . S
C262 C263 1.367 . S
C263 H243 0.950 . S
C263 C258 1.386 . S
C263 C262 1.367 . S
C264 C258 1.483 . S
C264 C265 1.382 . S
C264 C266 1.403 . S
C265 H244 0.950 . S
C265 C264 1.382 . S
C265 C281 1.411 . S
C266 C264 1.403 . S
C266 C267 1.489 . S
C266 C280 1.411 . S
C267 C266 1.489 . S
C267 C268 1.383 . S
C267 C272 1.382 . S
C268 H245 0.950 . S
C268 C267 1.383 . S
C268 C269 1.395 . S
C269 H246 0.950 . S
C269 C268 1.395 . S
C269 C270 1.288 . S
C270 C269 1.288 . S
C270 C271 1.392 . S
C271 H247 0.951 . S
C271 C270 1.392 . S
C271 C272 1.392 . S
C272 H248 0.949 . S
C272 C267 1.382 . S
C272 C271 1.392 . S
C273 C274 1.376 . S
C273 C278 1.386 . S
C273 C279 1.483 . S
C274 H249 0.949 . S
C274 C273 1.376 . S
C274 C275 1.397 . S
C275 H250 0.950 . S
C275 C274 1.397 . S
C275 C276 1.391 . S
C276 C275 1.391 . S
C276 C277 1.405 . S
C277 H251 0.950 . S
C277 C276 1.405 . S
C277 C278 1.367 . S
C278 H252 0.950 . S
C278 C273 1.386 . S
C278 C277 1.367 . S
C279 C273 1.483 . S
C279 C280 1.382 . S
C279 C281 1.403 . S
C280 H253 0.950 . S
C280 C266 1.411 . S
C280 C279 1.382 . S
C281 C265 1.411 . S
C281 C279 1.403 . S
C281 C282 1.489 . S
C282 C281 1.489 . S
C282 C283 1.383 . S
C282 C287 1.382 . S
C283 H254 0.950 . S
C283 C282 1.383 . S
C283 C284 1.395 . S
C284 H255 0.950 . S
C284 C283 1.395 . S
C284 C285 1.288 . S
C285 C284 1.288 . S
C285 C286 1.392 . S
C286 H256 0.951 . S
C286 C285 1.392 . S
C286 C287 1.392 . S
C287 H257 0.949 . S
C287 C282 1.382 . S
C287 C286 1.392 . S
H288 C307 0.949 . S
H289 C308 0.950 . S
H290 C310 0.950 . S
H291 C311 0.950 . S
H292 C313 0.950 . S
H293 C316 0.950 . S
H294 C317 0.950 . S
H295 C319 0.951 . S
H296 C320 0.949 . S
H297 C322 0.949 . S
H298 C323 0.950 . S
H299 C325 0.950 . S
H300 C326 0.950 . S
H301 C328 0.950 . S
H302 C331 0.950 . S
H303 C332 0.950 . S
H304 C334 0.951 . S
H305 C335 0.949 . S
C306 C307 1.376 . S
C306 C311 1.386 . S
C306 C312 1.483 . S
C307 H288 0.949 . S
C307 C306 1.376 . S
C307 C308 1.397 . S
C308 H289 0.950 . S
C308 C307 1.397 . S
C308 C309 1.391 . S
C309 C308 1.391 . S
C309 C310 1.405 . S
C310 H290 0.950 . S
C310 C309 1.405 . S
C310 C311 1.367 . S
C311 H291 0.950 . S
C311 C306 1.386 . S
C311 C310 1.367 . S
C312 C306 1.483 . S
C312 C313 1.382 . S
C312 C314 1.403 . S
C313 H292 0.950 . S
C313 C312 1.382 . S
C313 C329 1.411 . S
C314 C312 1.403 . S
C314 C315 1.489 . S
C314 C328 1.411 . S
C315 C314 1.489 . S
C315 C316 1.383 . S
C315 C320 1.382 . S
C316 H293 0.950 . S
C316 C315 1.383 . S
C316 C317 1.395 . S
C317 H294 0.950 . S
C317 C316 1.395 . S
C317 C318 1.288 . S
C318 C317 1.288 . S
C318 C319 1.392 . S
C319 H295 0.951 . S
C319 C318 1.392 . S
C319 C320 1.392 . S
C320 H296 0.949 . S
C320 C315 1.382 . S
C320 C319 1.392 . S
C321 C322 1.376 . S
C321 C326 1.386 . S
C321 C327 1.483 . S
C322 H297 0.949 . S
C322 C321 1.376 . S
C322 C323 1.397 . S
C323 H298 0.950 . S
C323 C322 1.397 . S
C323 C324 1.391 . S
C324 C323 1.391 . S
C324 C325 1.405 . S
C325 H299 0.950 . S
C325 C324 1.405 . S
C325 C326 1.367 . S
C326 H300 0.950 . S
C326 C321 1.386 . S
C326 C325 1.367 . S
C327 C321 1.483 . S
C327 C328 1.382 . S
C327 C329 1.403 . S
C328 H301 0.950 . S
C328 C314 1.411 . S
C328 C327 1.382 . S
C329 C313 1.411 . S
C329 C327 1.403 . S
C329 C330 1.489 . S
C330 C329 1.489 . S
C330 C331 1.383 . S
C330 C335 1.382 . S
C331 H302 0.950 . S
C331 C330 1.383 . S
C331 C332 1.395 . S
C332 H303 0.950 . S
C332 C331 1.395 . S
C332 C333 1.288 . S
C333 C332 1.288 . S
C333 C334 1.392 . S
C334 H304 0.951 . S
C334 C333 1.392 . S
C334 C335 1.392 . S
C335 H305 0.949 . S
C335 C330 1.382 . S
C335 C334 1.392 . S
H336 C355 0.949 . S
H337 C356 0.950 . S
H338 C358 0.950 . S
H339 C359 0.950 . S
H340 C361 0.950 . S
H341 C364 0.950 . S
H342 C365 0.950 . S
H343 C367 0.951 . S
H344 C368 0.949 . S
H345 C370 0.949 . S
H346 C371 0.950 . S
H347 C373 0.950 . S
H348 C374 0.950 . S
H349 C376 0.950 . S
H350 C379 0.950 . S
H351 C380 0.950 . S
H352 C382 0.951 . S
H353 C383 0.949 . S
C354 C355 1.376 . S
C354 C359 1.386 . S
C354 C360 1.483 . S
C355 H336 0.949 . S
C355 C354 1.376 . S
C355 C356 1.397 . S
C356 H337 0.950 . S
C356 C355 1.397 . S
C356 C357 1.391 . S
C357 C356 1.391 . S
C357 C358 1.405 . S
C358 H338 0.950 . S
C358 C357 1.405 . S
C358 C359 1.367 . S
C359 H339 0.950 . S
C359 C354 1.386 . S
C359 C358 1.367 . S
C360 C354 1.483 . S
C360 C361 1.382 . S
C360 C362 1.403 . S
C361 H340 0.950 . S
C361 C360 1.382 . S
C361 C377 1.411 . S
C362 C360 1.403 . S
C362 C363 1.489 . S
C362 C376 1.411 . S
C363 C362 1.489 . S
C363 C364 1.383 . S
C363 C368 1.382 . S
C364 H341 0.950 . S
C364 C363 1.383 . S
C364 C365 1.395 . S
C365 H342 0.950 . S
C365 C364 1.395 . S
C365 C366 1.288 . S
C366 C365 1.288 . S
C366 C367 1.392 . S
C367 H343 0.951 . S
C367 C366 1.392 . S
C367 C368 1.392 . S
C368 H344 0.949 . S
C368 C363 1.382 . S
C368 C367 1.392 . S
C369 C370 1.376 . S
C369 C374 1.386 . S
C369 C375 1.483 . S
C370 H345 0.949 . S
C370 C369 1.376 . S
C370 C371 1.397 . S
C371 H346 0.950 . S
C371 C370 1.397 . S
C371 C372 1.391 . S
C372 C371 1.391 . S
C372 C373 1.405 . S
C373 H347 0.950 . S
C373 C372 1.405 . S
C373 C374 1.367 . S
C374 H348 0.950 . S
C374 C369 1.386 . S
C374 C373 1.367 . S
C375 C369 1.483 . S
C375 C376 1.382 . S
C375 C377 1.403 . S
C376 H349 0.950 . S
C376 C362 1.411 . S
C376 C375 1.382 . S
C377 C361 1.411 . S
C377 C375 1.403 . S
C377 C378 1.489 . S
C378 C377 1.489 . S
C378 C379 1.383 . S
C378 C383 1.382 . S
C379 H350 0.950 . S
C379 C378 1.383 . S
C379 C380 1.395 . S
C380 H351 0.950 . S
C380 C379 1.395 . S
C380 C381 1.288 . S
C381 C380 1.288 . S
C381 C382 1.392 . S
C382 H352 0.951 . S
C382 C381 1.392 . S
C382 C383 1.392 . S
C383 H353 0.949 . S
C383 C378 1.382 . S
C383 C382 1.392 . S
C384 C385 1.443 . S
C384 N388 1.376 . S
C384 C422 1.389 . S
C385 C384 1.443 . S
C385 C386 1.340 . S
C385 H425 0.951 . S
C386 C385 1.340 . S
C386 C387 1.439 . S
C386 H426 0.950 . S
C387 C386 1.439 . S
C387 N388 1.374 . S
C387 C421 1.395 . S
N388 C384 1.376 . S
N388 C387 1.374 . S
N388 Co389 2.008 . S
Co389 N388 2.008 . S
Co389 N390 1.995 1_455 S
Co389 N395 2.008 1_455 S
Co389 N400 1.995 . S
Co389 N405 2.282 1_455 S
Co389 N411 2.282 . S
N390 Co389 1.995 1_655 S
N390 C391 1.376 . S
N390 C394 1.383 . S
C391 N390 1.376 . S
C391 C392 1.446 . S
C391 C421 1.391 1_655 S
C392 C391 1.446 . S
C392 C393 1.339 . S
C392 H427 0.949 . S
C393 C392 1.339 . S
C393 C394 1.439 . S
C393 H428 0.950 . S
C394 N390 1.383 . S
C394 C393 1.439 . S
C394 C423 1.392 . S
N395 Co389 2.008 1_655 S
N395 C396 1.376 . S
N395 C399 1.374 . S
C396 N395 1.376 . S
C396 C397 1.443 . S
C396 C423 1.389 . S
C397 C396 1.443 . S
C397 C398 1.340 . S
C397 H429 0.951 . S
C398 C397 1.340 . S
C398 C399 1.439 . S
C398 H430 0.950 . S
C399 N395 1.374 . S
C399 C398 1.439 . S
C399 C424 1.421 . S
N400 Co389 1.995 . S
N400 C401 1.376 . S
N400 C404 1.383 . S
C401 N400 1.376 . S
C401 C402 1.446 . S
C401 C424 1.364 1_455 S
C402 C401 1.446 . S
C402 C403 1.339 . S
C402 H431 0.949 . S
C403 C402 1.339 . S
C403 C404 1.439 . S
C403 H432 0.950 . S
C404 N400 1.383 . S
C404 C403 1.439 . S
C404 C422 1.392 . S
N405 Co389 2.282 1_655 S
N405 C408 1.332 . S
N405 C410 1.332 . S
C406 C407 1.386 . S
C406 C409 1.388 . S
C407 C406 1.386 . S
C407 C408 1.382 . S
C407 H433 0.950 . S
C408 N405 1.332 . S
C408 C407 1.382 . S
C408 H419 0.952 . S
C409 C406 1.388 . S
C409 C410 1.382 . S
C409 H434 0.950 . S
C410 N405 1.332 . S
C410 C409 1.382 . S
C410 H420 0.948 . S
N411 Co389 2.282 . S
N411 C415 1.332 . S
N411 C416 1.332 . S
C412 C413 1.388 . S
C412 C416 1.382 . S
C412 H435 0.950 . S
C413 C412 1.388 . S
C413 C414 1.386 . S
C414 C413 1.386 . S
C414 C415 1.382 . S
C414 H436 0.950 . S
C415 N411 1.332 . S
C415 C414 1.382 . S
C415 H417 0.952 . S
C416 N411 1.332 . S
C416 C412 1.382 . S
C416 H418 0.948 . S
H417 C415 0.952 . S
H418 C416 0.948 . S
H419 C408 0.952 . S
H420 C410 0.948 . S
C421 C387 1.395 . S
C421 C391 1.391 1_455 S
C422 C384 1.389 . S
C422 C404 1.392 . S
C423 C394 1.392 . S
C423 C396 1.389 . S
C424 C399 1.421 . S
C424 C401 1.364 1_655 S
H425 C385 0.951 . S
H426 C386 0.950 . S
H427 C392 0.949 . S
H428 C393 0.950 . S
H429 C397 0.951 . S
H430 C398 0.950 . S
H431 C402 0.949 . S
H432 C403 0.950 . S
H433 C407 0.950 . S
H434 C409 0.950 . S
H435 C412 0.950 . S
H436 C414 0.950 . S
C437 C438 1.443 . S
C437 N441 1.376 . S
C437 C475 1.389 . S
C438 C437 1.443 . S
C438 C439 1.340 . S
C438 H478 0.951 . S
C439 C438 1.340 . S
C439 C440 1.439 . S
C439 H479 0.950 . S
C440 C439 1.439 . S
C440 N441 1.374 . S
C440 C474 1.395 . S
N441 C437 1.376 . S
N441 C440 1.374 . S
N441 Co442 2.008 . S
Co442 N441 2.008 . S
Co442 N443 1.995 1_545 S
Co442 N448 2.008 1_545 S
Co442 N453 1.995 . S
Co442 N458 2.282 1_545 S
Co442 N464 2.282 . S
N443 Co442 1.995 1_565 S
N443 C444 1.376 . S
N443 C447 1.383 . S
C444 N443 1.376 . S
C444 C445 1.446 . S
C444 C474 1.391 1_565 S
C445 C444 1.446 . S
C445 C446 1.339 . S
C445 H480 0.949 . S
C446 C445 1.339 . S
C446 C447 1.439 . S
C446 H481 0.950 . S
C447 N443 1.383 . S
C447 C446 1.439 . S
C447 C476 1.392 . S
N448 Co442 2.008 1_565 S
N448 C449 1.376 . S
N448 C452 1.374 . S
C449 N448 1.376 . S
C449 C450 1.443 . S
C449 C476 1.389 . S
C450 C449 1.443 . S
C450 C451 1.340 . S
C450 H482 0.951 . S
C451 C450 1.340 . S
C451 C452 1.439 . S
C451 H483 0.950 . S
C452 N448 1.374 . S
C452 C451 1.439 . S
C452 C477 1.402 . S
N453 Co442 1.995 . S
N453 C454 1.376 . S
N453 C457 1.383 . S
C454 N453 1.376 . S
C454 C455 1.446 . S
C454 C477 1.383 1_545 S
C455 C454 1.446 . S
C455 C456 1.339 . S
C455 H484 0.949 . S
C456 C455 1.339 . S
C456 C457 1.439 . S
C456 H485 0.950 . S
C457 N453 1.383 . S
C457 C456 1.439 . S
C457 C475 1.392 . S
N458 Co442 2.282 1_565 S
N458 C461 1.332 . S
N458 C463 1.332 . S
C459 C460 1.386 . S
C459 C462 1.388 . S
C460 C459 1.386 . S
C460 C461 1.382 . S
C460 H486 0.950 . S
C461 N458 1.332 . S
C461 C460 1.382 . S
C461 H472 0.952 . S
C462 C459 1.388 . S
C462 C463 1.382 . S
C462 H487 0.950 . S
C463 N458 1.332 . S
C463 C462 1.382 . S
C463 H473 0.948 . S
N464 Co442 2.282 . S
N464 C468 1.332 . S
N464 C469 1.332 . S
C465 C466 1.388 . S
C465 C469 1.382 . S
C465 H488 0.950 . S
C466 C465 1.388 . S
C466 C467 1.386 . S
C467 C466 1.386 . S
C467 C468 1.382 . S
C467 H489 0.950 . S
C468 N464 1.332 . S
C468 C467 1.382 . S
C468 H470 0.952 . S
C469 N464 1.332 . S
C469 C465 1.382 . S
C469 H471 0.948 . S
H470 C468 0.952 . S
H471 C469 0.948 . S
H472 C461 0.952 . S
H473 C463 0.948 . S
C474 C440 1.395 . S
C474 C444 1.391 1_545 S
C475 C437 1.389 . S
C475 C457 1.392 . S
C476 C447 1.392 . S
C476 C449 1.389 . S
C477 C452 1.402 . S
C477 C454 1.383 1_565 S
H478 C438 0.951 . S
H479 C439 0.950 . S
H480 C445 0.949 . S
H481 C446 0.950 . S
H482 C450 0.951 . S
H483 C451 0.950 . S
H484 C455 0.949 . S
H485 C456 0.950 . S
H486 C460 0.950 . S
H487 C462 0.950 . S
H488 C465 0.950 . S
H489 C467 0.950 . S
C490 C491 1.443 . S
C490 N494 1.376 . S
C490 C528 1.389 . S
C491 C490 1.443 . S
C491 C492 1.340 . S
C491 H531 0.951 . S
C492 C491 1.340 . S
C492 C493 1.439 . S
C492 H532 0.950 . S
C493 C492 1.439 . S
C493 N494 1.374 . S
C493 C527 1.395 . S
N494 C490 1.376 . S
N494 C493 1.374 . S
N494 Co495 2.008 . S
Co495 N494 2.008 . S
Co495 N496 1.995 1_455 S
Co495 N501 2.008 1_455 S
Co495 N506 1.995 . S
Co495 N511 2.282 1_455 S
Co495 N517 2.282 . S
N496 Co495 1.995 1_655 S
N496 C497 1.376 . S
N496 C500 1.383 . S
C497 N496 1.376 . S
C497 C498 1.446 . S
C497 C527 1.391 1_655 S
C498 C497 1.446 . S
C498 C499 1.339 . S
C498 H533 0.949 . S
C499 C498 1.339 . S
C499 C500 1.439 . S
C499 H534 0.950 . S
C500 N496 1.383 . S
C500 C499 1.439 . S
C500 C529 1.392 . S
N501 Co495 2.008 1_655 S
N501 C502 1.376 . S
N501 C505 1.374 . S
C502 N501 1.376 . S
C502 C503 1.443 . S
C502 C529 1.389 . S
C503 C502 1.443 . S
C503 C504 1.340 . S
C503 H535 0.951 . S
C504 C503 1.340 . S
C504 C505 1.439 . S
C504 H536 0.950 . S
C505 N501 1.374 . S
C505 C504 1.439 . S
C505 C530 1.395 . S
N506 Co495 1.995 . S
N506 C507 1.376 . S
N506 C510 1.383 . S
C507 N506 1.376 . S
C507 C508 1.446 . S
C507 C530 1.391 1_455 S
C508 C507 1.446 . S
C508 C509 1.339 . S
C508 H537 0.949 . S
C509 C508 1.339 . S
C509 C510 1.439 . S
C509 H538 0.950 . S
C510 N506 1.383 . S
C510 C509 1.439 . S
C510 C528 1.392 . S
N511 Co495 2.282 1_655 S
N511 C514 1.332 . S
N511 C516 1.332 . S
C512 C513 1.386 . S
C512 C515 1.388 . S
C513 C512 1.386 . S
C513 C514 1.382 . S
C513 H539 0.950 . S
C514 N511 1.332 . S
C514 C513 1.382 . S
C514 H525 0.952 . S
C515 C512 1.388 . S
C515 C516 1.382 . S
C515 H540 0.950 . S
C516 N511 1.332 . S
C516 C515 1.382 . S
C516 H526 0.948 . S
N517 Co495 2.282 . S
N517 C521 1.332 . S
N517 C522 1.332 . S
C518 C519 1.388 . S
C518 C522 1.382 . S
C518 H541 0.950 . S
C519 C518 1.388 . S
C519 C520 1.386 . S
C520 C519 1.386 . S
C520 C521 1.382 . S
C520 H542 0.950 . S
C521 N517 1.332 . S
C521 C520 1.382 . S
C521 H523 0.952 . S
C522 N517 1.332 . S
C522 C518 1.382 . S
C522 H524 0.948 . S
H523 C521 0.952 . S
H524 C522 0.948 . S
H525 C514 0.952 . S
H526 C516 0.948 . S
C527 C493 1.395 . S
C527 C497 1.391 1_455 S
C528 C490 1.389 . S
C528 C510 1.392 . S
C529 C500 1.392 . S
C529 C502 1.389 . S
C530 C505 1.395 . S
C530 C507 1.391 1_655 S
H531 C491 0.951 . S
H532 C492 0.950 . S
H533 C498 0.949 . S
H534 C499 0.950 . S
H535 C503 0.951 . S
H536 C504 0.950 . S
H537 C508 0.949 . S
H538 C509 0.950 . S
H539 C513 0.950 . S
H540 C515 0.950 . S
H541 C518 0.950 . S
H542 C520 0.950 . S
C543 C544 1.443 . S
C543 N547 1.376 . S
C543 C581 1.389 . S
C544 C543 1.443 . S
C544 C545 1.340 . S
C544 H584 0.951 . S
C545 C544 1.340 . S
C545 C546 1.439 . S
C545 H585 0.950 . S
C546 C545 1.439 . S
C546 N547 1.374 . S
C546 C580 1.417 . S
N547 C543 1.376 . S
N547 C546 1.374 . S
N547 Co548 2.008 1_565 S
Co548 N547 2.008 1_545 S
Co548 N549 1.995 . S
Co548 N554 2.008 . S
Co548 N559 1.995 1_545 S
Co548 N564 2.282 . S
Co548 N570 2.282 1_545 S
N549 Co548 1.995 . S
N549 C550 1.376 . S
N549 C553 1.383 . S
C550 N549 1.376 . S
C550 C551 1.446 . S
C550 C580 1.368 1_545 S
C551 C550 1.446 . S
C551 C552 1.339 . S
C551 H586 0.949 . S
C552 C551 1.339 . S
C552 C553 1.439 . S
C552 H587 0.950 . S
C553 N549 1.383 . S
C553 C552 1.439 . S
C553 C582 1.392 . S
N554 Co548 2.008 . S
N554 C555 1.376 . S
N554 C558 1.374 . S
C555 N554 1.376 . S
C555 C556 1.443 . S
C555 C582 1.389 . S
C556 C555 1.443 . S
C556 C557 1.340 . S
C556 H588 0.951 . S
C557 C556 1.340 . S
C557 C558 1.439 . S
C557 H589 0.950 . S
C558 N554 1.374 . S
C558 C557 1.439 . S
C558 C583 1.395 . S
N559 Co548 1.995 1_565 S
N559 C560 1.376 . S
N559 C563 1.383 . S
C560 N559 1.376 . S
C560 C561 1.446 . S
C560 C583 1.391 1_565 S
C561 C560 1.446 . S
C561 C562 1.339 . S
C561 H590 0.949 . S
C562 C561 1.339 . S
C562 C563 1.439 . S
C562 H591 0.950 . S
C563 N559 1.383 . S
C563 C562 1.439 . S
C563 C581 1.392 . S
N564 Co548 2.282 . S
N564 C567 1.332 . S
N564 C569 1.332 . S
C565 C566 1.386 . S
C565 C568 1.388 . S
C566 C565 1.386 . S
C566 C567 1.382 . S
C566 H592 0.950 . S
C567 N564 1.332 . S
C567 C566 1.382 . S
C567 H578 0.952 . S
C568 C565 1.388 . S
C568 C569 1.382 . S
C568 H593 0.950 . S
C569 N564 1.332 . S
C569 C568 1.382 . S
C569 H579 0.948 . S
N570 Co548 2.282 1_565 S
N570 C574 1.332 . S
N570 C575 1.332 . S
C571 C572 1.388 . S
C571 C575 1.382 . S
C571 H594 0.950 . S
C572 C571 1.388 . S
C572 C573 1.386 . S
C573 C572 1.386 . S
C573 C574 1.382 . S
C573 H595 0.950 . S
C574 N570 1.332 . S
C574 C573 1.382 . S
C574 H576 0.952 . S
C575 N570 1.332 . S
C575 C571 1.382 . S
C575 H577 0.948 . S
H576 C574 0.952 . S
H577 C575 0.948 . S
H578 C567 0.952 . S
H579 C569 0.948 . S
C580 C546 1.417 . S
C580 C550 1.368 1_565 S
C581 C543 1.389 . S
C581 C563 1.392 . S
C582 C553 1.392 . S
C582 C555 1.389 . S
C583 C558 1.395 . S
C583 C560 1.391 1_545 S
H584 C544 0.951 . S
H585 C545 0.950 . S
H586 C551 0.949 . S
H587 C552 0.950 . S
H588 C556 0.951 . S
H589 C557 0.950 . S
H590 C561 0.949 . S
H591 C562 0.950 . S
H592 C566 0.950 . S
H593 C568 0.950 . S
H594 C571 0.950 . S
H595 C573 0.950 . S
C596 C597 1.443 . S
C596 N600 1.376 . S
C596 C634 1.389 . S
C597 C596 1.443 . S
C597 C598 1.340 . S
C597 H637 0.951 . S
C598 C597 1.340 . S
C598 C599 1.439 . S
C598 H638 0.950 . S
C599 C598 1.439 . S
C599 N600 1.374 . S
C599 C633 1.395 1_554 S
N600 C596 1.376 . S
N600 C599 1.374 . S
N600 Co601 2.018 . S
Co601 N600 2.018 . S
Co601 N602 1.983 1_554 S
Co601 N607 1.999 1_554 S
Co601 N612 2.006 . S
Co601 N617 2.298 . S
Co601 N623 2.267 1_554 S
N602 Co601 1.983 1_556 S
N602 C603 1.376 . S
N602 C606 1.383 . S
C603 N602 1.376 . S
C603 C604 1.446 . S
C603 C633 1.391 . S
C604 C603 1.446 . S
C604 C605 1.339 . S
C604 H639 0.949 . S
C605 C604 1.339 . S
C605 C606 1.439 . S
C605 H640 0.950 . S
C606 N602 1.383 . S
C606 C605 1.439 . S
C606 C635 1.392 . S
N607 Co601 1.999 1_556 S
N607 C608 1.376 . S
N607 C611 1.374 . S
C608 N607 1.376 . S
C608 C609 1.443 . S
C608 C635 1.389 . S
C609 C608 1.443 . S
C609 C610 1.340 . S
C609 H641 0.951 . S
C610 C609 1.340 . S
C610 C611 1.439 . S
C610 H642 0.950 . S
C611 N607 1.374 . S
C611 C610 1.439 . S
C611 C636 1.395 1_556 S
N612 Co601 2.006 . S
N612 C613 1.376 . S
N612 C616 1.383 . S
C613 N612 1.376 . S
C613 C614 1.446 . S
C613 C636 1.391 . S
C614 C613 1.446 . S
C614 C615 1.339 . S
C614 H643 0.949 . S
C615 C614 1.339 . S
C615 C616 1.439 . S
C615 H644 0.950 . S
C616 N612 1.383 . S
C616 C615 1.439 . S
C616 C634 1.392 . S
N617 Co601 2.298 . S
N617 C620 1.332 . S
N617 C622 1.332 . S
C618 C619 1.386 . S
C618 C621 1.388 . S
C619 C618 1.386 . S
C619 C620 1.382 . S
C619 H645 0.950 . S
C620 N617 1.332 . S
C620 C619 1.382 . S
C620 H631 0.952 . S
C621 C618 1.388 . S
C621 C622 1.382 . S
C621 H646 0.950 . S
C622 N617 1.332 . S
C622 C621 1.382 . S
C622 H632 0.948 . S
N623 Co601 2.267 1_556 S
N623 C627 1.332 . S
N623 C628 1.332 . S
C624 C625 1.388 . S
C624 C628 1.382 . S
C624 H647 0.950 . S
C625 C624 1.388 . S
C625 C626 1.386 . S
C626 C625 1.386 . S
C626 C627 1.382 . S
C626 H648 0.950 . S
C627 N623 1.332 . S
C627 C626 1.382 . S
C627 H629 0.952 . S
C628 N623 1.332 . S
C628 C624 1.382 . S
C628 H630 0.948 . S
H629 C627 0.952 . S
H630 C628 0.948 . S
H631 C620 0.952 . S
H632 C622 0.948 . S
C633 C599 1.395 1_556 S
C633 C603 1.391 . S
C634 C596 1.389 . S
C634 C616 1.392 . S
C635 C606 1.392 . S
C635 C608 1.389 . S
C636 C611 1.395 1_554 S
C636 C613 1.391 . S
H637 C597 0.951 . S
H638 C598 0.950 . S
H639 C604 0.949 . S
H640 C605 0.950 . S
H641 C609 0.951 . S
H642 C610 0.950 . S
H643 C614 0.949 . S
H644 C615 0.950 . S
H645 C619 0.950 . S
H646 C621 0.950 . S
H647 C624 0.950 . S
H648 C626 0.950 . S
C649 C650 1.443 . S
C649 N653 1.376 . S
C649 C687 1.389 . S
C650 C649 1.443 . S
C650 C651 1.340 . S
C650 H690 0.951 . S
C651 C650 1.340 . S
C651 C652 1.439 . S
C651 H691 0.950 . S
C652 C651 1.439 . S
C652 N653 1.374 . S
C652 C686 1.395 . S
N653 C649 1.376 . S
N653 C652 1.374 . S
N653 Co654 2.008 . S
Co654 N653 2.008 . S
Co654 N655 1.995 1_554 S
Co654 N660 2.012 . S
Co654 N665 1.995 . S
Co654 N670 2.282 . S
Co654 N676 2.282 1_554 S
N655 Co654 1.995 1_556 S
N655 C656 1.376 . S
N655 C659 1.383 . S
C656 N655 1.376 . S
C656 C657 1.446 . S
C656 C686 1.391 1_556 S
C657 C656 1.446 . S
C657 C658 1.339 . S
C657 H692 0.949 . S
C658 C657 1.339 . S
C658 C659 1.439 . S
C658 H693 0.950 . S
C659 N655 1.383 . S
C659 C658 1.439 . S
C659 C688 1.392 . S
N660 Co654 2.012 . S
N660 C661 1.371 1_554 S
N660 C664 1.376 . S
C661 N660 1.371 1_556 S
C661 C662 1.443 . S
C661 C688 1.389 . S
C662 C661 1.443 . S
C662 C663 1.340 . S
C662 H694 0.951 . S
C663 C662 1.340 . S
C663 C664 1.439 1_556 S
C663 H695 0.950 . S
C664 N660 1.376 . S
C664 C663 1.439 1_554 S
C664 C689 1.395 . S
N665 Co654 1.995 . S
N665 C666 1.376 . S
N665 C669 1.383 . S
C666 N665 1.376 . S
C666 C667 1.446 . S
C666 C689 1.391 . S
C667 C666 1.446 . S
C667 C668 1.339 . S
C667 H696 0.949 . S
C668 C667 1.339 . S
C668 C669 1.439 . S
C668 H697 0.950 . S
C669 N665 1.383 . S
C669 C668 1.439 . S
C669 C687 1.392 . S
N670 Co654 2.282 . S
N670 C673 1.332 . S
N670 C675 1.332 . S
C671 C672 1.386 . S
C671 C674 1.388 . S
C672 C671 1.386 . S
C672 C673 1.382 . S
C672 H698 0.950 . S
C673 N670 1.332 . S
C673 C672 1.382 . S
C673 H684 0.952 . S
C674 C671 1.388 . S
C674 C675 1.382 . S
C674 H699 0.950 . S
C675 N670 1.332 . S
C675 C674 1.382 . S
C675 H685 0.948 . S
N676 Co654 2.282 1_556 S
N676 C680 1.332 . S
N676 C681 1.332 . S
C677 C678 1.388 . S
C677 C681 1.382 . S
C677 H700 0.950 . S
C678 C677 1.388 . S
C678 C679 1.386 . S
C679 C678 1.386 . S
C679 C680 1.382 . S
C679 H701 0.950 . S
C680 N676 1.332 . S
C680 C679 1.382 . S
C680 H682 0.952 . S
C681 N676 1.332 . S
C681 C677 1.382 . S
C681 H683 0.948 . S
H682 C680 0.952 . S
H683 C681 0.948 . S
H684 C673 0.952 . S
H685 C675 0.948 . S
C686 C652 1.395 . S
C686 C656 1.391 1_554 S
C687 C649 1.389 . S
C687 C669 1.392 . S
C688 C659 1.392 . S
C688 C661 1.389 . S
C689 C664 1.395 . S
C689 C666 1.391 . S
H690 C650 0.951 . S
H691 C651 0.950 . S
H692 C657 0.949 . S
H693 C658 0.950 . S
H694 C662 0.951 . S
H695 C663 0.950 . S
H696 C667 0.949 . S
H697 C668 0.950 . S
H698 C672 0.950 . S
H699 C674 0.950 . S
H700 C677 0.950 . S
H701 C679 0.950 . S
C702 C703 1.443 . S
C702 N706 1.376 1_556 S
C702 C740 1.389 . S
C703 C702 1.443 . S
C703 C704 1.340 1_556 S
C703 H743 0.951 . S
C704 C703 1.340 1_554 S
C704 C705 1.439 . S
C704 H744 0.950 . S
C705 C704 1.439 . S
C705 N706 1.374 . S
C705 C739 1.395 . S
N706 C702 1.376 1_554 S
N706 C705 1.374 . S
N706 Co707 2.008 . S
Co707 N706 2.008 . S
Co707 N708 1.995 . S
Co707 N713 2.008 . S
Co707 N718 1.995 . S
Co707 N723 2.282 1_554 S
Co707 N729 2.282 . S
N708 Co707 1.995 . S
N708 C709 1.376 . S
N708 C712 1.383 . S
C709 N708 1.376 . S
C709 C710 1.446 . S
C709 C739 1.391 . S
C710 C709 1.446 . S
C710 C711 1.339 . S
C710 H745 0.949 . S
C711 C710 1.339 . S
C711 C712 1.439 . S
C711 H746 0.950 . S
C712 N708 1.383 . S
C712 C711 1.439 . S
C712 C741 1.392 . S
N713 Co707 2.008 . S
N713 C714 1.376 . S
N713 C717 1.374 . S
C714 N713 1.376 . S
C714 C715 1.443 . S
C714 C741 1.389 . S
C715 C714 1.443 . S
C715 C716 1.340 . S
C715 H747 0.951 . S
C716 C715 1.340 . S
C716 C717 1.439 . S
C716 H748 0.950 . S
C717 N713 1.374 . S
C717 C716 1.439 . S
C717 C742 1.395 . S
N718 Co707 1.995 . S
N718 C719 1.376 . S
N718 C722 1.383 1_554 S
C719 N718 1.376 . S
C719 C720 1.440 1_554 S
C719 C742 1.397 . S
C720 C719 1.440 1_556 S
C720 C721 1.339 . S
C720 H749 0.949 . S
C721 C720 1.339 . S
C721 C722 1.439 . S
C721 H750 0.950 . S
C722 N718 1.383 1_556 S
C722 C721 1.439 . S
C722 C740 1.392 . S
N723 Co707 2.282 1_556 S
N723 C726 1.332 . S
N723 C728 1.332 . S
C724 C725 1.386 . S
C724 C727 1.388 . S
C725 C724 1.386 . S
C725 C726 1.382 . S
C725 H751 0.950 . S
C726 N723 1.332 . S
C726 C725 1.382 . S
C726 H737 0.952 . S
C727 C724 1.388 . S
C727 C728 1.382 . S
C727 H752 0.950 . S
C728 N723 1.332 . S
C728 C727 1.382 . S
C728 H738 0.954 . S
N729 Co707 2.282 . S
N729 C733 1.332 . S
N729 C734 1.332 . S
C730 C731 1.388 . S
C730 C734 1.382 . S
C730 H753 0.950 . S
C731 C730 1.388 . S
C731 C732 1.386 . S
C732 C731 1.386 . S
C732 C733 1.382 . S
C732 H754 0.950 . S
C733 N729 1.332 . S
C733 C732 1.382 . S
C733 H735 0.952 . S
C734 N729 1.332 . S
C734 C730 1.382 . S
C734 H736 0.948 . S
H735 C733 0.952 . S
H736 C734 0.948 . S
H737 C726 0.952 . S
H738 C728 0.954 . S
C739 C705 1.395 . S
C739 C709 1.391 . S
C740 C702 1.389 . S
C740 C722 1.392 . S
C741 C712 1.392 . S
C741 C714 1.389 . S
C742 C717 1.395 . S
C742 C719 1.397 . S
H743 C703 0.951 . S
H744 C704 0.950 . S
H745 C710 0.949 . S
H746 C711 0.950 . S
H747 C715 0.951 . S
H748 C716 0.950 . S
H749 C720 0.949 . S
H750 C721 0.950 . S
H751 C725 0.950 . S
H752 C727 0.950 . S
H753 C730 0.950 . S
H754 C732 0.950 . S
C755 C756 1.443 . S
C755 N759 1.376 . S
C755 C793 1.389 . S
C756 C755 1.443 . S
C756 C757 1.340 . S
C756 H796 0.951 . S
C757 C756 1.340 . S
C757 C758 1.439 . S
C757 H797 0.950 . S
C758 C757 1.439 . S
C758 N759 1.374 . S
C758 C792 1.369 1_554 S
N759 C755 1.376 . S
N759 C758 1.374 . S
N759 Co760 2.008 . S
Co760 N759 2.008 . S
Co760 N761 1.995 1_554 S
Co760 N766 2.008 1_554 S
Co760 N771 1.995 . S
Co760 N776 2.282 . S
Co760 N782 2.282 1_554 S
N761 Co760 1.995 1_556 S
N761 C762 1.376 . S
N761 C765 1.383 . S
C762 N761 1.376 . S
C762 C763 1.446 . S
C762 C792 1.415 . S
C763 C762 1.446 . S
C763 C764 1.339 . S
C763 H798 0.949 . S
C764 C763 1.339 . S
C764 C765 1.439 . S
C764 H799 0.950 . S
C765 N761 1.383 . S
C765 C764 1.439 . S
C765 C794 1.392 . S
N766 Co760 2.008 1_556 S
N766 C767 1.376 . S
N766 C770 1.365 1_556 S
C767 N766 1.376 . S
C767 C768 1.443 . S
C767 C794 1.389 . S
C768 C767 1.443 . S
C768 C769 1.340 . S
C768 H800 0.951 . S
C769 C768 1.340 . S
C769 C770 1.419 1_556 S
C769 H801 0.950 . S
C770 N766 1.365 1_554 S
C770 C769 1.419 1_554 S
C770 C795 1.424 . S
N771 Co760 1.995 . S
N771 C772 1.376 . S
N771 C775 1.383 . S
C772 N771 1.376 . S
C772 C773 1.446 . S
C772 C795 1.391 . S
C773 C772 1.446 . S
C773 C774 1.339 . S
C773 H802 0.949 . S
C774 C773 1.339 . S
C774 C775 1.439 . S
C774 H803 0.950 . S
C775 N771 1.383 . S
C775 C774 1.439 . S
C775 C793 1.392 . S
N776 Co760 2.282 . S
N776 C779 1.332 . S
N776 C781 1.332 . S
C777 C778 1.386 . S
C777 C780 1.388 . S
C778 C777 1.386 . S
C778 C779 1.382 . S
C778 H804 0.950 . S
C779 N776 1.332 . S
C779 C778 1.382 . S
C779 H790 0.952 . S
C780 C777 1.388 . S
C780 C781 1.382 . S
C780 H805 0.950 . S
C781 N776 1.332 . S
C781 C780 1.382 . S
C781 H791 0.948 . S
N782 Co760 2.282 1_556 S
N782 C786 1.332 . S
N782 C787 1.332 . S
C783 C784 1.388 . S
C783 C787 1.382 . S
C783 H806 0.950 . S
C784 C783 1.388 . S
C784 C785 1.386 . S
C785 C784 1.386 . S
C785 C786 1.382 . S
C785 H807 0.950 . S
C786 N782 1.332 . S
C786 C785 1.382 . S
C786 H788 0.952 . S
C787 N782 1.332 . S
C787 C783 1.382 . S
C787 H789 0.948 . S
H788 C786 0.952 . S
H789 C787 0.948 . S
H790 C779 0.952 . S
H791 C781 0.948 . S
C792 C758 1.369 1_556 S
C792 C762 1.415 . S
C793 C755 1.389 . S
C793 C775 1.392 . S
C794 C765 1.392 . S
C794 C767 1.389 . S
C795 C770 1.424 . S
C795 C772 1.391 . S
H796 C756 0.951 . S
H797 C757 0.950 . S
H798 C763 0.949 . S
H799 C764 0.950 . S
H800 C768 0.951 . S
H801 C769 0.950 . S
H802 C773 0.949 . S
H803 C774 0.950 . S
H804 C778 0.950 . S
H805 C780 0.950 . S
H806 C783 0.950 . S
H807 C785 0.950 . S
H808 C826 0.951 . S
H809 C828 0.951 . S
H810 C830 0.950 . S
H811 C831 0.950 . S
H812 C833 0.950 . S
H813 C836 0.950 . S
H814 C837 0.950 . S
H815 C839 0.950 . S
H816 C840 0.950 . S
H817 C841 0.951 . S
H818 C843 0.951 . S
H819 C845 0.950 . S
H820 C846 0.950 . S
H821 C848 0.950 . S
H822 C851 0.950 . S
H823 C852 0.950 . S
H824 C854 0.950 . S
H825 C855 0.950 . S
C826 H808 0.951 . S
C826 C827 1.366 . S
C826 C828 1.388 . S
C827 C826 1.366 . S
C827 C831 1.385 . S
C828 H809 0.951 . S
C828 C826 1.388 . S
C828 C829 1.366 . S
C829 C828 1.366 . S
C829 C830 1.414 . S
C829 C832 1.499 . S
C830 H810 0.950 . S
C830 C829 1.414 . S
C830 C831 1.374 . S
C831 H811 0.950 . S
C831 C827 1.385 . S
C831 C830 1.374 . S
C832 C829 1.499 . S
C832 C833 1.373 . S
C832 C834 1.389 . S
C833 H812 0.950 . S
C833 C832 1.373 . S
C833 C849 1.377 . S
C834 C832 1.389 . S
C834 C835 1.524 . S
C834 C848 1.377 . S
C835 C834 1.524 . S
C835 C836 1.397 . S
C835 C840 1.363 . S
C836 H813 0.950 . S
C836 C835 1.397 . S
C836 C837 1.334 . S
C837 H814 0.950 . S
C837 C836 1.334 . S
C837 C838 1.287 . S
C838 C837 1.287 . S
C838 C839 1.524 . S
C838 H857 0.913 . S
C839 H815 0.950 . S
C839 C838 1.524 . S
C839 C840 1.415 . S
C840 H816 0.950 . S
C840 C835 1.363 . S
C840 C839 1.415 . S
C841 H817 0.951 . S
C841 C842 1.366 . S
C841 C843 1.388 . S
C842 C841 1.366 . S
C842 C846 1.385 . S
C843 H818 0.951 . S
C843 C841 1.388 . S
C843 C844 1.366 . S
C844 C843 1.366 . S
C844 C845 1.414 . S
C844 C847 1.499 . S
C845 H819 0.950 . S
C845 C844 1.414 . S
C845 C846 1.374 . S
C846 H820 0.950 . S
C846 C842 1.385 . S
C846 C845 1.374 . S
C847 C844 1.499 . S
C847 C848 1.373 . S
C847 C849 1.389 . S
C848 H821 0.950 . S
C848 C834 1.377 . S
C848 C847 1.373 . S
C849 C833 1.377 . S
C849 C847 1.389 . S
C849 C850 1.524 . S
C850 C849 1.524 . S
C850 C851 1.397 . S
C850 C855 1.363 . S
C851 H822 0.950 . S
C851 C850 1.397 . S
C851 C852 1.334 . S
C852 H823 0.950 . S
C852 C851 1.334 . S
C852 C853 1.287 . S
C853 C852 1.287 . S
C853 C854 1.524 . S
C853 H856 0.999 . S
C854 H824 0.950 . S
C854 C853 1.524 . S
C854 C855 1.415 . S
C855 H825 0.950 . S
C855 C850 1.363 . S
C855 C854 1.415 . S
H856 C853 0.999 . S
H857 C838 0.913 . S
H858 C876 0.951 . S
H859 C878 0.951 . S
H860 C880 0.950 . S
H861 C881 0.950 . S
H862 C883 0.950 . S
H863 C886 0.950 . S
H864 C887 0.950 . S
H865 C889 0.950 . S
H866 C890 0.950 . S
H867 C891 0.951 . S
H868 C893 0.951 . S
H869 C895 0.950 . S
H870 C896 0.950 . S
H871 C898 0.950 . S
H872 C901 0.950 . S
H873 C902 0.950 . S
H874 C904 0.950 . S
H875 C905 0.950 . S
C876 H858 0.951 . S
C876 C877 1.366 . S
C876 C878 1.388 . S
C877 C876 1.366 . S
C877 C881 1.385 . S
C878 H859 0.951 . S
C878 C876 1.388 . S
C878 C879 1.366 . S
C879 C878 1.366 . S
C879 C880 1.414 . S
C879 C882 1.499 . S
C880 H860 0.950 . S
C880 C879 1.414 . S
C880 C881 1.374 . S
C881 H861 0.950 . S
C881 C877 1.385 . S
C881 C880 1.374 . S
C882 C879 1.499 . S
C882 C883 1.373 . S
C882 C884 1.389 . S
C883 H862 0.950 . S
C883 C882 1.373 . S
C883 C899 1.377 . S
C884 C882 1.389 . S
C884 C885 1.524 . S
C884 C898 1.377 . S
C885 C884 1.524 . S
C885 C886 1.397 . S
C885 C890 1.363 . S
C886 H863 0.950 . S
C886 C885 1.397 . S
C886 C887 1.334 . S
C887 H864 0.950 . S
C887 C886 1.334 . S
C887 C888 1.287 . S
C888 C887 1.287 . S
C888 C889 1.524 . S
C888 H907 0.913 . S
C889 H865 0.950 . S
C889 C888 1.524 . S
C889 C890 1.415 . S
C890 H866 0.950 . S
C890 C885 1.363 . S
C890 C889 1.415 . S
C891 H867 0.951 . S
C891 C892 1.366 . S
C891 C893 1.388 . S
C892 C891 1.366 . S
C892 C896 1.385 . S
C893 H868 0.951 . S
C893 C891 1.388 . S
C893 C894 1.366 . S
C894 C893 1.366 . S
C894 C895 1.414 . S
C894 C897 1.499 . S
C895 H869 0.950 . S
C895 C894 1.414 . S
C895 C896 1.374 . S
C896 H870 0.950 . S
C896 C892 1.385 . S
C896 C895 1.374 . S
C897 C894 1.499 . S
C897 C898 1.373 . S
C897 C899 1.389 . S
C898 H871 0.950 . S
C898 C884 1.377 . S
C898 C897 1.373 . S
C899 C883 1.377 . S
C899 C897 1.389 . S
C899 C900 1.524 . S
C900 C899 1.524 . S
C900 C901 1.397 . S
C900 C905 1.363 . S
C901 H872 0.950 . S
C901 C900 1.397 . S
C901 C902 1.334 . S
C902 H873 0.950 . S
C902 C901 1.334 . S
C902 C903 1.287 . S
C903 C902 1.287 . S
C903 C904 1.524 . S
C903 H906 0.999 . S
C904 H874 0.950 . S
C904 C903 1.524 . S
C904 C905 1.415 . S
C905 H875 0.950 . S
C905 C900 1.363 . S
C905 C904 1.415 . S
H906 C903 0.999 . S
H907 C888 0.913 . S
H908 C926 0.951 . S
H909 C928 0.951 . S
H910 C930 0.950 . S
H911 C931 0.950 . S
H912 C933 0.950 . S
H913 C936 0.950 . S
H914 C937 0.950 . S
H915 C939 0.950 . S
H916 C940 0.950 . S
H917 C941 0.951 . S
H918 C943 0.951 . S
H919 C945 0.950 . S
H920 C946 0.950 . S
H921 C948 0.950 . S
H922 C951 0.950 . S
H923 C952 0.950 . S
H924 C954 0.950 . S
H925 C955 0.950 . S
C926 H908 0.951 . S
C926 C927 1.366 . S
C926 C928 1.388 . S
C927 C926 1.366 . S
C927 C931 1.385 . S
C928 H909 0.951 . S
C928 C926 1.388 . S
C928 C929 1.366 . S
C929 C928 1.366 . S
C929 C930 1.414 . S
C929 C932 1.499 . S
C930 H910 0.950 . S
C930 C929 1.414 . S
C930 C931 1.374 . S
C931 H911 0.950 . S
C931 C927 1.385 . S
C931 C930 1.374 . S
C932 C929 1.499 . S
C932 C933 1.373 . S
C932 C934 1.389 . S
C933 H912 0.950 . S
C933 C932 1.373 . S
C933 C949 1.377 . S
C934 C932 1.389 . S
C934 C935 1.524 . S
C934 C948 1.377 . S
C935 C934 1.524 . S
C935 C936 1.397 . S
C935 C940 1.363 . S
C936 H913 0.950 . S
C936 C935 1.397 . S
C936 C937 1.334 . S
C937 H914 0.950 . S
C937 C936 1.334 . S
C937 C938 1.287 . S
C938 C937 1.287 . S
C938 C939 1.524 . S
C938 H957 0.913 . S
C939 H915 0.950 . S
C939 C938 1.524 . S
C939 C940 1.415 . S
C940 H916 0.950 . S
C940 C935 1.363 . S
C940 C939 1.415 . S
C941 H917 0.951 . S
C941 C942 1.366 . S
C941 C943 1.388 . S
C942 C941 1.366 . S
C942 C946 1.385 . S
C943 H918 0.951 . S
C943 C941 1.388 . S
C943 C944 1.366 . S
C944 C943 1.366 . S
C944 C945 1.414 . S
C944 C947 1.499 . S
C945 H919 0.950 . S
C945 C944 1.414 . S
C945 C946 1.374 . S
C946 H920 0.950 . S
C946 C942 1.385 . S
C946 C945 1.374 . S
C947 C944 1.499 . S
C947 C948 1.373 . S
C947 C949 1.389 . S
C948 H921 0.950 . S
C948 C934 1.377 . S
C948 C947 1.373 . S
C949 C933 1.377 . S
C949 C947 1.389 . S
C949 C950 1.524 . S
C950 C949 1.524 . S
C950 C951 1.397 . S
C950 C955 1.363 . S
C951 H922 0.950 . S
C951 C950 1.397 . S
C951 C952 1.334 . S
C952 H923 0.950 . S
C952 C951 1.334 . S
C952 C953 1.287 . S
C953 C952 1.287 . S
C953 C954 1.524 . S
C953 H956 0.999 . S
C954 H924 0.950 . S
C954 C953 1.524 . S
C954 C955 1.415 . S
C955 H925 0.950 . S
C955 C950 1.363 . S
C955 C954 1.415 . S
H956 C953 0.999 . S
H957 C938 0.913 . S
H958 C976 0.951 . S
H959 C978 0.951 . S
H960 C980 0.950 . S
H961 C981 0.950 . S
H962 C983 0.950 . S
H963 C986 0.950 . S
H964 C987 0.950 . S
H965 C989 0.950 . S
H966 C990 0.950 . S
H967 C991 0.951 . S
H968 C993 0.951 . S
H969 C995 0.950 . S
H970 C996 0.950 . S
H971 C998 0.950 . S
H972 C1001 0.950 . S
H973 C1002 0.950 . S
H974 C1004 0.950 . S
H975 C1005 0.950 . S
C976 H958 0.951 . S
C976 C977 1.366 . S
C976 C978 1.388 . S
C977 C976 1.366 . S
C977 C981 1.385 . S
C978 H959 0.951 . S
C978 C976 1.388 . S
C978 C979 1.366 . S
C979 C978 1.366 . S
C979 C980 1.414 . S
C979 C982 1.499 . S
C980 H960 0.950 . S
C980 C979 1.414 . S
C980 C981 1.374 . S
C981 H961 0.950 . S
C981 C977 1.385 . S
C981 C980 1.374 . S
C982 C979 1.499 . S
C982 C983 1.373 . S
C982 C984 1.389 . S
C983 H962 0.950 . S
C983 C982 1.373 . S
C983 C999 1.377 . S
C984 C982 1.389 . S
C984 C985 1.524 . S
C984 C998 1.377 . S
C985 C984 1.524 . S
C985 C986 1.397 . S
C985 C990 1.363 . S
C986 H963 0.950 . S
C986 C985 1.397 . S
C986 C987 1.334 . S
C987 H964 0.950 . S
C987 C986 1.334 . S
C987 C988 1.287 . S
C988 C987 1.287 . S
C988 C989 1.524 . S
C988 H1007 0.913 . S
C989 H965 0.950 . S
C989 C988 1.524 . S
C989 C990 1.415 . S
C990 H966 0.950 . S
C990 C985 1.363 . S
C990 C989 1.415 . S
C991 H967 0.951 . S
C991 C992 1.366 . S
C991 C993 1.388 . S
C992 C991 1.366 . S
C992 C996 1.385 . S
C993 H968 0.951 . S
C993 C991 1.388 . S
C993 C994 1.366 . S
C994 C993 1.366 . S
C994 C995 1.414 . S
C994 C997 1.499 . S
C995 H969 0.950 . S
C995 C994 1.414 . S
C995 C996 1.374 . S
C996 H970 0.950 . S
C996 C992 1.385 . S
C996 C995 1.374 . S
C997 C994 1.499 . S
C997 C998 1.373 . S
C997 C999 1.389 . S
C998 H971 0.950 . S
C998 C984 1.377 . S
C998 C997 1.373 . S
C999 C983 1.377 . S
C999 C997 1.389 . S
C999 C1000 1.524 . S
C1000 C999 1.524 . S
C1000 C1001 1.397 . S
C1000 C1005 1.363 . S
C1001 H972 0.950 . S
C1001 C1000 1.397 . S
C1001 C1002 1.334 . S
C1002 H973 0.950 . S
C1002 C1001 1.334 . S
C1002 C1003 1.287 . S
C1003 C1002 1.287 . S
C1003 C1004 1.524 . S
C1003 H1006 0.999 . S
C1004 H974 0.950 . S
C1004 C1003 1.524 . S
C1004 C1005 1.415 . S
C1005 H975 0.950 . S
C1005 C1000 1.363 . S
C1005 C1004 1.415 . S
H1006 C1003 0.999 . S
H1007 C988 0.913 . S
H1008 C1026 0.951 . S
H1009 C1028 0.951 . S
H1010 C1030 0.950 . S
H1011 C1031 0.950 . S
H1012 C1033 0.950 . S
H1013 C1036 0.950 . S
H1014 C1037 0.950 . S
H1015 C1039 0.950 . S
H1016 C1040 0.950 . S
H1017 C1041 0.951 . S
H1018 C1043 0.951 . S
H1019 C1045 0.950 . S
H1020 C1046 0.950 . S
H1021 C1048 0.950 . S
H1022 C1051 0.950 . S
H1023 C1052 0.950 . S
H1024 C1054 0.950 . S
H1025 C1055 0.950 . S
C1026 H1008 0.951 . S
C1026 C1027 1.366 . S
C1026 C1028 1.388 . S
C1027 C1026 1.366 . S
C1027 C1031 1.385 . S
C1028 H1009 0.951 . S
C1028 C1026 1.388 . S
C1028 C1029 1.366 . S
C1029 C1028 1.366 . S
C1029 C1030 1.414 . S
C1029 C1032 1.499 . S
C1030 H1010 0.950 . S
C1030 C1029 1.414 . S
C1030 C1031 1.374 . S
C1031 H1011 0.950 . S
C1031 C1027 1.385 . S
C1031 C1030 1.374 . S
C1032 C1029 1.499 . S
C1032 C1033 1.373 . S
C1032 C1034 1.389 . S
C1033 H1012 0.950 . S
C1033 C1032 1.373 . S
C1033 C1049 1.377 . S
C1034 C1032 1.389 . S
C1034 C1035 1.524 . S
C1034 C1048 1.377 . S
C1035 C1034 1.524 . S
C1035 C1036 1.397 . S
C1035 C1040 1.363 . S
C1036 H1013 0.950 . S
C1036 C1035 1.397 . S
C1036 C1037 1.334 . S
C1037 H1014 0.950 . S
C1037 C1036 1.334 . S
C1037 C1038 1.287 . S
C1038 C1037 1.287 . S
C1038 C1039 1.524 . S
C1038 H1057 0.913 . S
C1039 H1015 0.950 . S
C1039 C1038 1.524 . S
C1039 C1040 1.415 . S
C1040 H1016 0.950 . S
C1040 C1035 1.363 . S
C1040 C1039 1.415 . S
C1041 H1017 0.951 . S
C1041 C1042 1.366 . S
C1041 C1043 1.388 . S
C1042 C1041 1.366 . S
C1042 C1046 1.385 . S
C1043 H1018 0.951 . S
C1043 C1041 1.388 . S
C1043 C1044 1.366 . S
C1044 C1043 1.366 . S
C1044 C1045 1.414 . S
C1044 C1047 1.499 . S
C1045 H1019 0.950 . S
C1045 C1044 1.414 . S
C1045 C1046 1.374 . S
C1046 H1020 0.950 . S
C1046 C1042 1.385 . S
C1046 C1045 1.374 . S
C1047 C1044 1.499 . S
C1047 C1048 1.373 . S
C1047 C1049 1.389 . S
C1048 H1021 0.950 . S
C1048 C1034 1.377 . S
C1048 C1047 1.373 . S
C1049 C1033 1.377 . S
C1049 C1047 1.389 . S
C1049 C1050 1.524 . S
C1050 C1049 1.524 . S
C1050 C1051 1.397 . S
C1050 C1055 1.363 . S
C1051 H1022 0.950 . S
C1051 C1050 1.397 . S
C1051 C1052 1.334 . S
C1052 H1023 0.950 . S
C1052 C1051 1.334 . S
C1052 C1053 1.287 . S
C1053 C1052 1.287 . S
C1053 C1054 1.524 . S
C1053 H1056 0.999 . S
C1054 H1024 0.950 . S
C1054 C1053 1.524 . S
C1054 C1055 1.415 . S
C1055 H1025 0.950 . S
C1055 C1050 1.363 . S
C1055 C1054 1.415 . S
H1056 C1053 0.999 . S
H1057 C1038 0.913 . S
H1058 C1076 0.951 . S
H1059 C1078 0.951 . S
H1060 C1080 0.950 . S
H1061 C1081 0.950 . S
H1062 C1083 0.950 . S
H1063 C1086 0.950 . S
H1064 C1087 0.950 . S
H1065 C1089 0.950 . S
H1066 C1090 0.950 . S
H1067 C1091 0.951 . S
H1068 C1093 0.951 . S
H1069 C1095 0.950 . S
H1070 C1096 0.950 . S
H1071 C1098 0.950 . S
H1072 C1101 0.950 . S
H1073 C1102 0.950 . S
H1074 C1104 0.950 . S
H1075 C1105 0.950 . S
C1076 H1058 0.951 . S
C1076 C1077 1.366 . S
C1076 C1078 1.388 . S
C1077 C1076 1.366 . S
C1077 C1081 1.385 . S
C1078 H1059 0.951 . S
C1078 C1076 1.388 . S
C1078 C1079 1.366 . S
C1079 C1078 1.366 . S
C1079 C1080 1.414 . S
C1079 C1082 1.499 . S
C1080 H1060 0.950 . S
C1080 C1079 1.414 . S
C1080 C1081 1.374 . S
C1081 H1061 0.950 . S
C1081 C1077 1.385 . S
C1081 C1080 1.374 . S
C1082 C1079 1.499 . S
C1082 C1083 1.373 . S
C1082 C1084 1.389 . S
C1083 H1062 0.950 . S
C1083 C1082 1.373 . S
C1083 C1099 1.377 . S
C1084 C1082 1.389 . S
C1084 C1085 1.524 . S
C1084 C1098 1.377 . S
C1085 C1084 1.524 . S
C1085 C1086 1.397 . S
C1085 C1090 1.363 . S
C1086 H1063 0.950 . S
C1086 C1085 1.397 . S
C1086 C1087 1.334 . S
C1087 H1064 0.950 . S
C1087 C1086 1.334 . S
C1087 C1088 1.287 . S
C1088 C1087 1.287 . S
C1088 C1089 1.524 . S
C1088 H1107 0.913 . S
C1089 H1065 0.950 . S
C1089 C1088 1.524 . S
C1089 C1090 1.415 . S
C1090 H1066 0.950 . S
C1090 C1085 1.363 . S
C1090 C1089 1.415 . S
C1091 H1067 0.951 . S
C1091 C1092 1.366 . S
C1091 C1093 1.388 . S
C1092 C1091 1.366 . S
C1092 C1096 1.385 . S
C1093 H1068 0.951 . S
C1093 C1091 1.388 . S
C1093 C1094 1.366 . S
C1094 C1093 1.366 . S
C1094 C1095 1.414 . S
C1094 C1097 1.499 . S
C1095 H1069 0.950 . S
C1095 C1094 1.414 . S
C1095 C1096 1.374 . S
C1096 H1070 0.950 . S
C1096 C1092 1.385 . S
C1096 C1095 1.374 . S
C1097 C1094 1.499 . S
C1097 C1098 1.373 . S
C1097 C1099 1.389 . S
C1098 H1071 0.950 . S
C1098 C1084 1.377 . S
C1098 C1097 1.373 . S
C1099 C1083 1.377 . S
C1099 C1097 1.389 . S
C1099 C1100 1.524 . S
C1100 C1099 1.524 . S
C1100 C1101 1.397 . S
C1100 C1105 1.363 . S
C1101 H1072 0.950 . S
C1101 C1100 1.397 . S
C1101 C1102 1.334 . S
C1102 H1073 0.950 . S
C1102 C1101 1.334 . S
C1102 C1103 1.287 . S
C1103 C1102 1.287 . S
C1103 C1104 1.524 . S
C1103 H1106 0.999 . S
C1104 H1074 0.950 . S
C1104 C1103 1.524 . S
C1104 C1105 1.415 . S
C1105 H1075 0.950 . S
C1105 C1100 1.363 . S
C1105 C1104 1.415 . S
H1106 C1103 0.999 . S
H1107 C1088 0.913 . S
H1108 C1126 0.951 . S
H1109 C1128 0.951 . S
H1110 C1130 0.950 . S
H1111 C1131 0.950 . S
H1112 C1133 0.950 . S
H1113 C1136 0.950 . S
H1114 C1137 0.950 . S
H1115 C1139 0.950 . S
H1116 C1140 0.950 . S
H1117 C1141 0.951 . S
H1118 C1143 0.951 . S
H1119 C1145 0.950 . S
H1120 C1146 0.950 . S
H1121 C1148 0.950 . S
H1122 C1151 0.950 . S
H1123 C1152 0.950 . S
H1124 C1154 0.950 . S
H1125 C1155 0.950 . S
C1126 H1108 0.951 . S
C1126 C1127 1.366 . S
C1126 C1128 1.388 . S
C1127 C1126 1.366 . S
C1127 C1131 1.385 . S
C1128 H1109 0.951 . S
C1128 C1126 1.388 . S
C1128 C1129 1.366 . S
C1129 C1128 1.366 . S
C1129 C1130 1.414 . S
C1129 C1132 1.499 . S
C1130 H1110 0.950 . S
C1130 C1129 1.414 . S
C1130 C1131 1.374 . S
C1131 H1111 0.950 . S
C1131 C1127 1.385 . S
C1131 C1130 1.374 . S
C1132 C1129 1.499 . S
C1132 C1133 1.373 . S
C1132 C1134 1.389 . S
C1133 H1112 0.950 . S
C1133 C1132 1.373 . S
C1133 C1149 1.377 . S
C1134 C1132 1.389 . S
C1134 C1135 1.524 . S
C1134 C1148 1.377 . S
C1135 C1134 1.524 . S
C1135 C1136 1.397 . S
C1135 C1140 1.363 . S
C1136 H1113 0.950 . S
C1136 C1135 1.397 . S
C1136 C1137 1.334 . S
C1137 H1114 0.950 . S
C1137 C1136 1.334 . S
C1137 C1138 1.287 . S
C1138 C1137 1.287 . S
C1138 C1139 1.524 . S
C1138 H1157 0.913 . S
C1139 H1115 0.950 . S
C1139 C1138 1.524 . S
C1139 C1140 1.415 . S
C1140 H1116 0.950 . S
C1140 C1135 1.363 . S
C1140 C1139 1.415 . S
C1141 H1117 0.951 . S
C1141 C1142 1.366 . S
C1141 C1143 1.388 . S
C1142 C1141 1.366 . S
C1142 C1146 1.385 . S
C1143 H1118 0.951 . S
C1143 C1141 1.388 . S
C1143 C1144 1.366 . S
C1144 C1143 1.366 . S
C1144 C1145 1.414 . S
C1144 C1147 1.499 . S
C1145 H1119 0.950 . S
C1145 C1144 1.414 . S
C1145 C1146 1.374 . S
C1146 H1120 0.950 . S
C1146 C1142 1.385 . S
C1146 C1145 1.374 . S
C1147 C1144 1.499 . S
C1147 C1148 1.373 . S
C1147 C1149 1.389 . S
C1148 H1121 0.950 . S
C1148 C1134 1.377 . S
C1148 C1147 1.373 . S
C1149 C1133 1.377 . S
C1149 C1147 1.389 . S
C1149 C1150 1.524 . S
C1150 C1149 1.524 . S
C1150 C1151 1.397 . S
C1150 C1155 1.363 . S
C1151 H1122 0.950 . S
C1151 C1150 1.397 . S
C1151 C1152 1.334 . S
C1152 H1123 0.950 . S
C1152 C1151 1.334 . S
C1152 C1153 1.287 . S
C1153 C1152 1.287 . S
C1153 C1154 1.524 . S
C1153 H1156 0.999 . S
C1154 H1124 0.950 . S
C1154 C1153 1.524 . S
C1154 C1155 1.415 . S
C1155 H1125 0.950 . S
C1155 C1150 1.363 . S
C1155 C1154 1.415 . S
H1156 C1153 0.999 . S
H1157 C1138 0.913 . S
H1158 C1176 0.951 . S
H1159 C1178 0.951 . S
H1160 C1180 0.950 . S
H1161 C1181 0.950 . S
H1162 C1183 0.950 . S
H1163 C1186 0.950 . S
H1164 C1187 0.950 . S
H1165 C1189 0.950 . S
H1166 C1190 0.950 . S
H1167 C1191 0.951 . S
H1168 C1193 0.951 . S
H1169 C1195 0.950 . S
H1170 C1196 0.950 . S
H1171 C1198 0.950 . S
H1172 C1201 0.950 . S
H1173 C1202 0.950 . S
H1174 C1204 0.950 . S
H1175 C1205 0.950 . S
C1176 H1158 0.951 . S
C1176 C1177 1.366 . S
C1176 C1178 1.388 . S
C1177 C1176 1.366 . S
C1177 C1181 1.385 . S
C1178 H1159 0.951 . S
C1178 C1176 1.388 . S
C1178 C1179 1.366 . S
C1179 C1178 1.366 . S
C1179 C1180 1.414 . S
C1179 C1182 1.499 . S
C1180 H1160 0.950 . S
C1180 C1179 1.414 . S
C1180 C1181 1.374 . S
C1181 H1161 0.950 . S
C1181 C1177 1.385 . S
C1181 C1180 1.374 . S
C1182 C1179 1.499 . S
C1182 C1183 1.373 . S
C1182 C1184 1.389 . S
C1183 H1162 0.950 . S
C1183 C1182 1.373 . S
C1183 C1199 1.377 . S
C1184 C1182 1.389 . S
C1184 C1185 1.524 . S
C1184 C1198 1.377 . S
C1185 C1184 1.524 . S
C1185 C1186 1.397 . S
C1185 C1190 1.363 . S
C1186 H1163 0.950 . S
C1186 C1185 1.397 . S
C1186 C1187 1.334 . S
C1187 H1164 0.950 . S
C1187 C1186 1.334 . S
C1187 C1188 1.287 . S
C1188 C1187 1.287 . S
C1188 C1189 1.524 . S
C1188 H1207 0.913 . S
C1189 H1165 0.950 . S
C1189 C1188 1.524 . S
C1189 C1190 1.415 . S
C1190 H1166 0.950 . S
C1190 C1185 1.363 . S
C1190 C1189 1.415 . S
C1191 H1167 0.951 . S
C1191 C1192 1.366 . S
C1191 C1193 1.388 . S
C1192 C1191 1.366 . S
C1192 C1196 1.385 . S
C1193 H1168 0.951 . S
C1193 C1191 1.388 . S
C1193 C1194 1.366 . S
C1194 C1193 1.366 . S
C1194 C1195 1.414 . S
C1194 C1197 1.499 . S
C1195 H1169 0.950 . S
C1195 C1194 1.414 . S
C1195 C1196 1.374 . S
C1196 H1170 0.950 . S
C1196 C1192 1.385 . S
C1196 C1195 1.374 . S
C1197 C1194 1.499 . S
C1197 C1198 1.373 . S
C1197 C1199 1.389 . S
C1198 H1171 0.950 . S
C1198 C1184 1.377 . S
C1198 C1197 1.373 . S
C1199 C1183 1.377 . S
C1199 C1197 1.389 . S
C1199 C1200 1.524 . S
C1200 C1199 1.524 . S
C1200 C1201 1.397 . S
C1200 C1205 1.363 . S
C1201 H1172 0.950 . S
C1201 C1200 1.397 . S
C1201 C1202 1.334 . S
C1202 H1173 0.950 . S
C1202 C1201 1.334 . S
C1202 C1203 1.287 . S
C1203 C1202 1.287 . S
C1203 C1204 1.524 . S
C1203 H1206 0.999 . S
C1204 H1174 0.950 . S
C1204 C1203 1.524 . S
C1204 C1205 1.415 . S
C1205 H1175 0.950 . S
C1205 C1200 1.363 . S
C1205 C1204 1.415 . S
H1206 C1203 0.999 . S
H1207 C1188 0.913 . S
H1208 C1226 0.951 . S
H1209 C1228 0.951 . S
H1210 C1230 0.950 . S
H1211 C1231 0.950 . S
H1212 C1233 0.950 . S
H1213 C1236 0.950 . S
H1214 C1237 0.950 . S
H1215 C1239 0.950 . S
H1216 C1240 0.950 . S
H1217 C1241 0.951 . S
H1218 C1243 0.951 . S
H1219 C1245 0.950 . S
H1220 C1246 0.950 . S
H1221 C1248 0.950 . S
H1222 C1251 0.950 . S
H1223 C1252 0.950 . S
H1224 C1254 0.950 . S
H1225 C1255 0.950 . S
C1226 H1208 0.951 . S
C1226 C1227 1.366 . S
C1226 C1228 1.388 . S
C1227 C1226 1.366 . S
C1227 C1231 1.385 . S
C1228 H1209 0.951 . S
C1228 C1226 1.388 . S
C1228 C1229 1.366 . S
C1229 C1228 1.366 . S
C1229 C1230 1.414 . S
C1229 C1232 1.499 . S
C1230 H1210 0.950 . S
C1230 C1229 1.414 . S
C1230 C1231 1.374 . S
C1231 H1211 0.950 . S
C1231 C1227 1.385 . S
C1231 C1230 1.374 . S
C1232 C1229 1.499 . S
C1232 C1233 1.373 . S
C1232 C1234 1.389 . S
C1233 H1212 0.950 . S
C1233 C1232 1.373 . S
C1233 C1249 1.377 . S
C1234 C1232 1.389 . S
C1234 C1235 1.524 . S
C1234 C1248 1.377 . S
C1235 C1234 1.524 . S
C1235 C1236 1.397 . S
C1235 C1240 1.363 . S
C1236 H1213 0.950 . S
C1236 C1235 1.397 . S
C1236 C1237 1.334 . S
C1237 H1214 0.950 . S
C1237 C1236 1.334 . S
C1237 C1238 1.287 . S
C1238 C1237 1.287 . S
C1238 C1239 1.524 . S
C1238 H1257 0.913 . S
C1239 H1215 0.950 . S
C1239 C1238 1.524 . S
C1239 C1240 1.415 . S
C1240 H1216 0.950 . S
C1240 C1235 1.363 . S
C1240 C1239 1.415 . S
C1241 H1217 0.951 . S
C1241 C1242 1.366 . S
C1241 C1243 1.388 . S
C1242 C1241 1.366 . S
C1242 C1246 1.385 . S
C1243 H1218 0.951 . S
C1243 C1241 1.388 . S
C1243 C1244 1.366 . S
C1244 C1243 1.366 . S
C1244 C1245 1.414 . S
C1244 C1247 1.499 . S
C1245 H1219 0.950 . S
C1245 C1244 1.414 . S
C1245 C1246 1.374 . S
C1246 H1220 0.950 . S
C1246 C1242 1.385 . S
C1246 C1245 1.374 . S
C1247 C1244 1.499 . S
C1247 C1248 1.373 . S
C1247 C1249 1.389 . S
C1248 H1221 0.950 . S
C1248 C1234 1.377 . S
C1248 C1247 1.373 . S
C1249 C1233 1.377 . S
C1249 C1247 1.389 . S
C1249 C1250 1.524 . S
C1250 C1249 1.524 . S
C1250 C1251 1.397 . S
C1250 C1255 1.363 . S
C1251 H1222 0.950 . S
C1251 C1250 1.397 . S
C1251 C1252 1.334 . S
C1252 H1223 0.950 . S
C1252 C1251 1.334 . S
C1252 C1253 1.287 . S
C1253 C1252 1.287 . S
C1253 C1254 1.524 . S
C1253 H1256 0.999 . S
C1254 H1224 0.950 . S
C1254 C1253 1.524 . S
C1254 C1255 1.415 . S
C1255 H1225 0.950 . S
C1255 C1250 1.363 . S
C1255 C1254 1.415 . S
H1256 C1253 0.999 . S
H1257 C1238 0.913 . S
H1258 C1276 0.951 . S
H1259 C1278 0.951 . S
H1260 C1280 0.950 . S
H1261 C1281 0.950 . S
H1262 C1283 0.950 . S
H1263 C1286 0.950 . S
H1264 C1287 0.950 . S
H1265 C1289 0.950 . S
H1266 C1290 0.950 . S
H1267 C1291 0.951 . S
H1268 C1293 0.951 . S
H1269 C1295 0.950 . S
H1270 C1296 0.950 . S
H1271 C1298 0.950 . S
H1272 C1301 0.950 . S
H1273 C1302 0.950 . S
H1274 C1304 0.950 . S
H1275 C1305 0.950 . S
C1276 H1258 0.951 . S
C1276 C1277 1.366 . S
C1276 C1278 1.388 . S
C1277 C1276 1.366 . S
C1277 C1281 1.385 . S
C1278 H1259 0.951 . S
C1278 C1276 1.388 . S
C1278 C1279 1.366 . S
C1279 C1278 1.366 . S
C1279 C1280 1.414 . S
C1279 C1282 1.499 . S
C1280 H1260 0.950 . S
C1280 C1279 1.414 . S
C1280 C1281 1.374 . S
C1281 H1261 0.950 . S
C1281 C1277 1.385 . S
C1281 C1280 1.374 . S
C1282 C1279 1.499 . S
C1282 C1283 1.373 . S
C1282 C1284 1.389 . S
C1283 H1262 0.950 . S
C1283 C1282 1.373 . S
C1283 C1299 1.377 . S
C1284 C1282 1.389 . S
C1284 C1285 1.524 . S
C1284 C1298 1.377 . S
C1285 C1284 1.524 . S
C1285 C1286 1.397 . S
C1285 C1290 1.363 . S
C1286 H1263 0.950 . S
C1286 C1285 1.397 . S
C1286 C1287 1.334 . S
C1287 H1264 0.950 . S
C1287 C1286 1.334 . S
C1287 C1288 1.287 . S
C1288 C1287 1.287 . S
C1288 C1289 1.524 . S
C1288 H1307 0.913 . S
C1289 H1265 0.950 . S
C1289 C1288 1.524 . S
C1289 C1290 1.415 . S
C1290 H1266 0.950 . S
C1290 C1285 1.363 . S
C1290 C1289 1.415 . S
C1291 H1267 0.951 . S
C1291 C1292 1.366 . S
C1291 C1293 1.388 . S
C1292 C1291 1.366 . S
C1292 C1296 1.385 . S
C1293 H1268 0.951 . S
C1293 C1291 1.388 . S
C1293 C1294 1.366 . S
C1294 C1293 1.366 . S
C1294 C1295 1.414 . S
C1294 C1297 1.499 . S
C1295 H1269 0.950 . S
C1295 C1294 1.414 . S
C1295 C1296 1.374 . S
C1296 H1270 0.950 . S
C1296 C1292 1.385 . S
C1296 C1295 1.374 . S
C1297 C1294 1.499 . S
C1297 C1298 1.373 . S
C1297 C1299 1.389 . S
C1298 H1271 0.950 . S
C1298 C1284 1.377 . S
C1298 C1297 1.373 . S
C1299 C1283 1.377 . S
C1299 C1297 1.389 . S
C1299 C1300 1.524 . S
C1300 C1299 1.524 . S
C1300 C1301 1.397 . S
C1300 C1305 1.363 . S
C1301 H1272 0.950 . S
C1301 C1300 1.397 . S
C1301 C1302 1.334 . S
C1302 H1273 0.950 . S
C1302 C1301 1.334 . S
C1302 C1303 1.287 . S
C1303 C1302 1.287 . S
C1303 C1304 1.524 . S
C1303 H1306 0.999 . S
C1304 H1274 0.950 . S
C1304 C1303 1.524 . S
C1304 C1305 1.415 . S
C1305 H1275 0.950 . S
C1305 C1300 1.363 . S
C1305 C1304 1.415 . S
H1306 C1303 0.999 . S
H1307 C1288 0.913 . S
H1308 C1326 0.951 . S
H1309 C1328 0.951 . S
H1310 C1330 0.950 . S
H1311 C1331 0.950 . S
H1312 C1333 0.950 . S
H1313 C1336 0.950 . S
H1314 C1337 0.950 . S
H1315 C1339 0.950 . S
H1316 C1340 0.950 . S
H1317 C1341 0.951 . S
H1318 C1343 0.951 . S
H1319 C1345 0.950 . S
H1320 C1346 0.950 . S
H1321 C1348 0.950 . S
H1322 C1351 0.950 . S
H1323 C1352 0.950 . S
H1324 C1354 0.950 . S
H1325 C1355 0.950 . S
C1326 H1308 0.951 . S
C1326 C1327 1.366 . S
C1326 C1328 1.388 . S
C1327 C1326 1.366 . S
C1327 C1331 1.385 . S
C1328 H1309 0.951 . S
C1328 C1326 1.388 . S
C1328 C1329 1.366 . S
C1329 C1328 1.366 . S
C1329 C1330 1.414 . S
C1329 C1332 1.499 . S
C1330 H1310 0.950 . S
C1330 C1329 1.414 . S
C1330 C1331 1.374 . S
C1331 H1311 0.950 . S
C1331 C1327 1.385 . S
C1331 C1330 1.374 . S
C1332 C1329 1.499 . S
C1332 C1333 1.373 . S
C1332 C1334 1.389 . S
C1333 H1312 0.950 . S
C1333 C1332 1.373 . S
C1333 C1349 1.377 . S
C1334 C1332 1.389 . S
C1334 C1335 1.524 . S
C1334 C1348 1.377 . S
C1335 C1334 1.524 . S
C1335 C1336 1.397 . S
C1335 C1340 1.363 . S
C1336 H1313 0.950 . S
C1336 C1335 1.397 . S
C1336 C1337 1.334 . S
C1337 H1314 0.950 . S
C1337 C1336 1.334 . S
C1337 C1338 1.287 . S
C1338 C1337 1.287 . S
C1338 C1339 1.524 . S
C1338 H1357 0.913 . S
C1339 H1315 0.950 . S
C1339 C1338 1.524 . S
C1339 C1340 1.415 . S
C1340 H1316 0.950 . S
C1340 C1335 1.363 . S
C1340 C1339 1.415 . S
C1341 H1317 0.951 . S
C1341 C1342 1.366 . S
C1341 C1343 1.388 . S
C1342 C1341 1.366 . S
C1342 C1346 1.385 . S
C1343 H1318 0.951 . S
C1343 C1341 1.388 . S
C1343 C1344 1.366 . S
C1344 C1343 1.366 . S
C1344 C1345 1.414 . S
C1344 C1347 1.499 . S
C1345 H1319 0.950 . S
C1345 C1344 1.414 . S
C1345 C1346 1.374 . S
C1346 H1320 0.950 . S
C1346 C1342 1.385 . S
C1346 C1345 1.374 . S
C1347 C1344 1.499 . S
C1347 C1348 1.373 . S
C1347 C1349 1.389 . S
C1348 H1321 0.950 . S
C1348 C1334 1.377 . S
C1348 C1347 1.373 . S
C1349 C1333 1.377 . S
C1349 C1347 1.389 . S
C1349 C1350 1.524 . S
C1350 C1349 1.524 . S
C1350 C1351 1.397 . S
C1350 C1355 1.363 . S
C1351 H1322 0.950 . S
C1351 C1350 1.397 . S
C1351 C1352 1.334 . S
C1352 H1323 0.950 . S
C1352 C1351 1.334 . S
C1352 C1353 1.287 . S
C1353 C1352 1.287 . S
C1353 C1354 1.524 . S
C1353 H1356 0.999 . S
C1354 H1324 0.950 . S
C1354 C1353 1.524 . S
C1354 C1355 1.415 . S
C1355 H1325 0.950 . S
C1355 C1350 1.363 . S
C1355 C1354 1.415 . S
H1356 C1353 0.999 . S
H1357 C1338 0.913 . S
H1358 C1376 0.951 . S
H1359 C1378 0.951 . S
H1360 C1380 0.950 . S
H1361 C1381 0.950 . S
H1362 C1383 0.950 . S
H1363 C1386 0.950 . S
H1364 C1387 0.950 . S
H1365 C1389 0.950 . S
H1366 C1390 0.950 . S
H1367 C1391 0.951 . S
H1368 C1393 0.951 . S
H1369 C1395 0.950 . S
H1370 C1396 0.950 . S
H1371 C1398 0.950 . S
H1372 C1401 0.950 . S
H1373 C1402 0.950 . S
H1374 C1404 0.950 . S
H1375 C1405 0.950 . S
C1376 H1358 0.951 . S
C1376 C1377 1.366 . S
C1376 C1378 1.388 . S
C1377 C1376 1.366 . S
C1377 C1381 1.385 . S
C1378 H1359 0.951 . S
C1378 C1376 1.388 . S
C1378 C1379 1.366 . S
C1379 C1378 1.366 . S
C1379 C1380 1.414 . S
C1379 C1382 1.499 . S
C1380 H1360 0.950 . S
C1380 C1379 1.414 . S
C1380 C1381 1.374 . S
C1381 H1361 0.950 . S
C1381 C1377 1.385 . S
C1381 C1380 1.374 . S
C1382 C1379 1.499 . S
C1382 C1383 1.373 . S
C1382 C1384 1.389 . S
C1383 H1362 0.950 . S
C1383 C1382 1.373 . S
C1383 C1399 1.377 . S
C1384 C1382 1.389 . S
C1384 C1385 1.524 . S
C1384 C1398 1.377 . S
C1385 C1384 1.524 . S
C1385 C1386 1.397 . S
C1385 C1390 1.363 . S
C1386 H1363 0.950 . S
C1386 C1385 1.397 . S
C1386 C1387 1.334 . S
C1387 H1364 0.950 . S
C1387 C1386 1.334 . S
C1387 C1388 1.287 . S
C1388 C1387 1.287 . S
C1388 C1389 1.524 . S
C1388 H1407 0.913 . S
C1389 H1365 0.950 . S
C1389 C1388 1.524 . S
C1389 C1390 1.415 . S
C1390 H1366 0.950 . S
C1390 C1385 1.363 . S
C1390 C1389 1.415 . S
C1391 H1367 0.951 . S
C1391 C1392 1.366 . S
C1391 C1393 1.388 . S
C1392 C1391 1.366 . S
C1392 C1396 1.385 . S
C1393 H1368 0.951 . S
C1393 C1391 1.388 . S
C1393 C1394 1.366 . S
C1394 C1393 1.366 . S
C1394 C1395 1.414 . S
C1394 C1397 1.499 . S
C1395 H1369 0.950 . S
C1395 C1394 1.414 . S
C1395 C1396 1.374 . S
C1396 H1370 0.950 . S
C1396 C1392 1.385 . S
C1396 C1395 1.374 . S
C1397 C1394 1.499 . S
C1397 C1398 1.373 . S
C1397 C1399 1.389 . S
C1398 H1371 0.950 . S
C1398 C1384 1.377 . S
C1398 C1397 1.373 . S
C1399 C1383 1.377 . S
C1399 C1397 1.389 . S
C1399 C1400 1.524 . S
C1400 C1399 1.524 . S
C1400 C1401 1.397 . S
C1400 C1405 1.363 . S
C1401 H1372 0.950 . S
C1401 C1400 1.397 . S
C1401 C1402 1.334 . S
C1402 H1373 0.950 . S
C1402 C1401 1.334 . S
C1402 C1403 1.287 . S
C1403 C1402 1.287 . S
C1403 C1404 1.524 . S
C1403 H1406 0.999 . S
C1404 H1374 0.950 . S
C1404 C1403 1.524 . S
C1404 C1405 1.415 . S
C1405 H1375 0.950 . S
C1405 C1400 1.363 . S
C1405 C1404 1.415 . S
H1406 C1403 0.999 . S
H1407 C1388 0.913 . S
H1408 C1426 0.951 . S
H1409 C1428 0.951 . S
H1410 C1430 0.950 . S
H1411 C1431 0.950 . S
H1412 C1433 0.950 . S
H1413 C1436 0.950 . S
H1414 C1437 0.950 . S
H1415 C1439 0.950 . S
H1416 C1440 0.950 . S
H1417 C1441 0.951 . S
H1418 C1443 0.951 . S
H1419 C1445 0.950 . S
H1420 C1446 0.950 . S
H1421 C1448 0.950 . S
H1422 C1451 0.950 . S
H1423 C1452 0.950 . S
H1424 C1454 0.950 . S
H1425 C1455 0.950 . S
C1426 H1408 0.951 . S
C1426 C1427 1.366 . S
C1426 C1428 1.388 . S
C1427 C1426 1.366 . S
C1427 C1431 1.385 . S
C1428 H1409 0.951 . S
C1428 C1426 1.388 . S
C1428 C1429 1.366 . S
C1429 C1428 1.366 . S
C1429 C1430 1.414 . S
C1429 C1432 1.499 . S
C1430 H1410 0.950 . S
C1430 C1429 1.414 . S
C1430 C1431 1.374 . S
C1431 H1411 0.950 . S
C1431 C1427 1.385 . S
C1431 C1430 1.374 . S
C1432 C1429 1.499 . S
C1432 C1433 1.373 . S
C1432 C1434 1.389 . S
C1433 H1412 0.950 . S
C1433 C1432 1.373 . S
C1433 C1449 1.377 . S
C1434 C1432 1.389 . S
C1434 C1435 1.524 . S
C1434 C1448 1.377 . S
C1435 C1434 1.524 . S
C1435 C1436 1.397 . S
C1435 C1440 1.363 . S
C1436 H1413 0.950 . S
C1436 C1435 1.397 . S
C1436 C1437 1.334 . S
C1437 H1414 0.950 . S
C1437 C1436 1.334 . S
C1437 C1438 1.287 . S
C1438 C1437 1.287 . S
C1438 C1439 1.524 . S
C1438 H1457 0.913 . S
C1439 H1415 0.950 . S
C1439 C1438 1.524 . S
C1439 C1440 1.415 . S
C1440 H1416 0.950 . S
C1440 C1435 1.363 . S
C1440 C1439 1.415 . S
C1441 H1417 0.951 . S
C1441 C1442 1.366 . S
C1441 C1443 1.388 . S
C1442 C1441 1.366 . S
C1442 C1446 1.385 . S
C1443 H1418 0.951 . S
C1443 C1441 1.388 . S
C1443 C1444 1.366 . S
C1444 C1443 1.366 . S
C1444 C1445 1.414 . S
C1444 C1447 1.499 . S
C1445 H1419 0.950 . S
C1445 C1444 1.414 . S
C1445 C1446 1.374 . S
C1446 H1420 0.950 . S
C1446 C1442 1.385 . S
C1446 C1445 1.374 . S
C1447 C1444 1.499 . S
C1447 C1448 1.373 . S
C1447 C1449 1.389 . S
C1448 H1421 0.950 . S
C1448 C1434 1.377 . S
C1448 C1447 1.373 . S
C1449 C1433 1.377 . S
C1449 C1447 1.389 . S
C1449 C1450 1.524 . S
C1450 C1449 1.524 . S
C1450 C1451 1.397 . S
C1450 C1455 1.363 . S
C1451 H1422 0.950 . S
C1451 C1450 1.397 . S
C1451 C1452 1.334 . S
C1452 H1423 0.950 . S
C1452 C1451 1.334 . S
C1452 C1453 1.287 . S
C1453 C1452 1.287 . S
C1453 C1454 1.524 . S
C1453 H1456 0.999 . S
C1454 H1424 0.950 . S
C1454 C1453 1.524 . S
C1454 C1455 1.415 . S
C1455 H1425 0.950 . S
C1455 C1450 1.363 . S
C1455 C1454 1.415 . S
H1456 C1453 0.999 . S
H1457 C1438 0.913 . S
H1458 C1476 0.951 . S
H1459 C1478 0.951 . S
H1460 C1480 0.950 . S
H1461 C1481 0.950 . S
H1462 C1483 0.950 . S
H1463 C1486 0.950 . S
H1464 C1487 0.950 . S
H1465 C1489 0.950 . S
H1466 C1490 0.950 . S
H1467 C1491 0.951 . S
H1468 C1493 0.951 . S
H1469 C1495 0.950 . S
H1470 C1496 0.950 . S
H1471 C1498 0.950 . S
H1472 C1501 0.950 . S
H1473 C1502 0.950 . S
H1474 C1504 0.950 . S
H1475 C1505 0.950 . S
C1476 H1458 0.951 . S
C1476 C1477 1.366 . S
C1476 C1478 1.388 . S
C1477 C1476 1.366 . S
C1477 C1481 1.385 . S
C1478 H1459 0.951 . S
C1478 C1476 1.388 . S
C1478 C1479 1.366 . S
C1479 C1478 1.366 . S
C1479 C1480 1.414 . S
C1479 C1482 1.499 . S
C1480 H1460 0.950 . S
C1480 C1479 1.414 . S
C1480 C1481 1.374 . S
C1481 H1461 0.950 . S
C1481 C1477 1.385 . S
C1481 C1480 1.374 . S
C1482 C1479 1.499 . S
C1482 C1483 1.373 . S
C1482 C1484 1.389 . S
C1483 H1462 0.950 . S
C1483 C1482 1.373 . S
C1483 C1499 1.377 . S
C1484 C1482 1.389 . S
C1484 C1485 1.524 . S
C1484 C1498 1.377 . S
C1485 C1484 1.524 . S
C1485 C1486 1.397 . S
C1485 C1490 1.363 . S
C1486 H1463 0.950 . S
C1486 C1485 1.397 . S
C1486 C1487 1.334 . S
C1487 H1464 0.950 . S
C1487 C1486 1.334 . S
C1487 C1488 1.287 . S
C1488 C1487 1.287 . S
C1488 C1489 1.524 . S
C1488 H1507 0.913 . S
C1489 H1465 0.950 . S
C1489 C1488 1.524 . S
C1489 C1490 1.415 . S
C1490 H1466 0.950 . S
C1490 C1485 1.363 . S
C1490 C1489 1.415 . S
C1491 H1467 0.951 . S
C1491 C1492 1.366 . S
C1491 C1493 1.388 . S
C1492 C1491 1.366 . S
C1492 C1496 1.385 . S
C1493 H1468 0.951 . S
C1493 C1491 1.388 . S
C1493 C1494 1.366 . S
C1494 C1493 1.366 . S
C1494 C1495 1.414 . S
C1494 C1497 1.499 . S
C1495 H1469 0.950 . S
C1495 C1494 1.414 . S
C1495 C1496 1.374 . S
C1496 H1470 0.950 . S
C1496 C1492 1.385 . S
C1496 C1495 1.374 . S
C1497 C1494 1.499 . S
C1497 C1498 1.373 . S
C1497 C1499 1.389 . S
C1498 H1471 0.950 . S
C1498 C1484 1.377 . S
C1498 C1497 1.373 . S
C1499 C1483 1.377 . S
C1499 C1497 1.389 . S
C1499 C1500 1.524 . S
C1500 C1499 1.524 . S
C1500 C1501 1.397 . S
C1500 C1505 1.363 . S
C1501 H1472 0.950 . S
C1501 C1500 1.397 . S
C1501 C1502 1.334 . S
C1502 H1473 0.950 . S
C1502 C1501 1.334 . S
C1502 C1503 1.287 . S
C1503 C1502 1.287 . S
C1503 C1504 1.524 . S
C1503 H1506 0.999 . S
C1504 H1474 0.950 . S
C1504 C1503 1.524 . S
C1504 C1505 1.415 . S
C1505 H1475 0.950 . S
C1505 C1500 1.363 . S
C1505 C1504 1.415 . S
H1506 C1503 0.999 . S
H1507 C1488 0.913 . S
H1508 C1526 0.951 . S
H1509 C1528 0.951 . S
H1510 C1530 0.950 . S
H1511 C1531 0.950 . S
H1512 C1533 0.950 . S
H1513 C1536 0.950 . S
H1514 C1537 0.950 . S
H1515 C1539 0.950 . S
H1516 C1540 0.950 . S
H1517 C1541 0.951 . S
H1518 C1543 0.951 . S
H1519 C1545 0.950 . S
H1520 C1546 0.950 . S
H1521 C1548 0.950 . S
H1522 C1551 0.950 . S
H1523 C1552 0.950 . S
H1524 C1554 0.950 . S
H1525 C1555 0.950 . S
C1526 H1508 0.951 . S
C1526 C1527 1.366 . S
C1526 C1528 1.388 . S
C1527 C1526 1.366 . S
C1527 C1531 1.385 . S
C1528 H1509 0.951 . S
C1528 C1526 1.388 . S
C1528 C1529 1.366 . S
C1529 C1528 1.366 . S
C1529 C1530 1.414 . S
C1529 C1532 1.499 . S
C1530 H1510 0.950 . S
C1530 C1529 1.414 . S
C1530 C1531 1.374 . S
C1531 H1511 0.950 . S
C1531 C1527 1.385 . S
C1531 C1530 1.374 . S
C1532 C1529 1.499 . S
C1532 C1533 1.373 . S
C1532 C1534 1.389 . S
C1533 H1512 0.950 . S
C1533 C1532 1.373 . S
C1533 C1549 1.377 . S
C1534 C1532 1.389 . S
C1534 C1535 1.524 . S
C1534 C1548 1.377 . S
C1535 C1534 1.524 . S
C1535 C1536 1.397 . S
C1535 C1540 1.363 . S
C1536 H1513 0.950 . S
C1536 C1535 1.397 . S
C1536 C1537 1.334 . S
C1537 H1514 0.950 . S
C1537 C1536 1.334 . S
C1537 C1538 1.287 . S
C1538 C1537 1.287 . S
C1538 C1539 1.524 . S
C1538 H1557 0.913 . S
C1539 H1515 0.950 . S
C1539 C1538 1.524 . S
C1539 C1540 1.415 . S
C1540 H1516 0.950 . S
C1540 C1535 1.363 . S
C1540 C1539 1.415 . S
C1541 H1517 0.951 . S
C1541 C1542 1.366 . S
C1541 C1543 1.388 . S
C1542 C1541 1.366 . S
C1542 C1546 1.385 . S
C1543 H1518 0.951 . S
C1543 C1541 1.388 . S
C1543 C1544 1.366 . S
C1544 C1543 1.366 . S
C1544 C1545 1.414 . S
C1544 C1547 1.499 . S
C1545 H1519 0.950 . S
C1545 C1544 1.414 . S
C1545 C1546 1.374 . S
C1546 H1520 0.950 . S
C1546 C1542 1.385 . S
C1546 C1545 1.374 . S
C1547 C1544 1.499 . S
C1547 C1548 1.373 . S
C1547 C1549 1.389 . S
C1548 H1521 0.950 . S
C1548 C1534 1.377 . S
C1548 C1547 1.373 . S
C1549 C1533 1.377 . S
C1549 C1547 1.389 . S
C1549 C1550 1.524 . S
C1550 C1549 1.524 . S
C1550 C1551 1.397 . S
C1550 C1555 1.363 . S
C1551 H1522 0.950 . S
C1551 C1550 1.397 . S
C1551 C1552 1.334 . S
C1552 H1523 0.950 . S
C1552 C1551 1.334 . S
C1552 C1553 1.287 . S
C1553 C1552 1.287 . S
C1553 C1554 1.524 . S
C1553 H1556 0.999 . S
C1554 H1524 0.950 . S
C1554 C1553 1.524 . S
C1554 C1555 1.415 . S
C1555 H1525 0.950 . S
C1555 C1550 1.363 . S
C1555 C1554 1.415 . S
H1556 C1553 0.999 . S
H1557 C1538 0.913 . S
H1558 C1576 0.951 . S
H1559 C1578 0.951 . S
H1560 C1580 0.950 . S
H1561 C1581 0.950 . S
H1562 C1583 0.950 . S
H1563 C1586 0.950 . S
H1564 C1587 0.950 . S
H1565 C1589 0.950 . S
H1566 C1590 0.950 . S
H1567 C1591 0.951 . S
H1568 C1593 0.951 . S
H1569 C1595 0.950 . S
H1570 C1596 0.950 . S
H1571 C1598 0.950 . S
H1572 C1601 0.950 . S
H1573 C1602 0.950 . S
H1574 C1604 0.950 . S
H1575 C1605 0.950 . S
C1576 H1558 0.951 . S
C1576 C1577 1.366 . S
C1576 C1578 1.388 . S
C1577 C1576 1.366 . S
C1577 C1581 1.385 . S
C1578 H1559 0.951 . S
C1578 C1576 1.388 . S
C1578 C1579 1.366 . S
C1579 C1578 1.366 . S
C1579 C1580 1.414 . S
C1579 C1582 1.499 . S
C1580 H1560 0.950 . S
C1580 C1579 1.414 . S
C1580 C1581 1.374 . S
C1581 H1561 0.950 . S
C1581 C1577 1.385 . S
C1581 C1580 1.374 . S
C1582 C1579 1.499 . S
C1582 C1583 1.373 . S
C1582 C1584 1.389 . S
C1583 H1562 0.950 . S
C1583 C1582 1.373 . S
C1583 C1599 1.377 . S
C1584 C1582 1.389 . S
C1584 C1585 1.524 . S
C1584 C1598 1.377 . S
C1585 C1584 1.524 . S
C1585 C1586 1.397 . S
C1585 C1590 1.363 . S
C1586 H1563 0.950 . S
C1586 C1585 1.397 . S
C1586 C1587 1.334 . S
C1587 H1564 0.950 . S
C1587 C1586 1.334 . S
C1587 C1588 1.287 . S
C1588 C1587 1.287 . S
C1588 C1589 1.524 . S
C1588 H1607 0.913 . S
C1589 H1565 0.950 . S
C1589 C1588 1.524 . S
C1589 C1590 1.415 . S
C1590 H1566 0.950 . S
C1590 C1585 1.363 . S
C1590 C1589 1.415 . S
C1591 H1567 0.951 . S
C1591 C1592 1.366 . S
C1591 C1593 1.388 . S
C1592 C1591 1.366 . S
C1592 C1596 1.385 . S
C1593 H1568 0.951 . S
C1593 C1591 1.388 . S
C1593 C1594 1.366 . S
C1594 C1593 1.366 . S
C1594 C1595 1.414 . S
C1594 C1597 1.499 . S
C1595 H1569 0.950 . S
C1595 C1594 1.414 . S
C1595 C1596 1.374 . S
C1596 H1570 0.950 . S
C1596 C1592 1.385 . S
C1596 C1595 1.374 . S
C1597 C1594 1.499 . S
C1597 C1598 1.373 . S
C1597 C1599 1.389 . S
C1598 H1571 0.950 . S
C1598 C1584 1.377 . S
C1598 C1597 1.373 . S
C1599 C1583 1.377 . S
C1599 C1597 1.389 . S
C1599 C1600 1.524 . S
C1600 C1599 1.524 . S
C1600 C1601 1.397 . S
C1600 C1605 1.363 . S
C1601 H1572 0.950 . S
C1601 C1600 1.397 . S
C1601 C1602 1.334 . S
C1602 H1573 0.950 . S
C1602 C1601 1.334 . S
C1602 C1603 1.287 . S
C1603 C1602 1.287 . S
C1603 C1604 1.524 . S
C1603 H1606 0.999 . S
C1604 H1574 0.950 . S
C1604 C1603 1.524 . S
C1604 C1605 1.415 . S
C1605 H1575 0.950 . S
C1605 C1600 1.363 . S
C1605 C1604 1.415 . S
H1606 C1603 0.999 . S
H1607 C1588 0.913 . S
H1608 C1626 0.951 . S
H1609 C1628 0.951 . S
H1610 C1630 0.950 . S
H1611 C1631 0.950 . S
H1612 C1633 0.950 . S
H1613 C1636 0.950 . S
H1614 C1637 0.950 . S
H1615 C1639 0.950 . S
H1616 C1640 0.950 . S
H1617 C1641 0.951 . S
H1618 C1643 0.951 . S
H1619 C1645 0.950 . S
H1620 C1646 0.950 . S
H1621 C1648 0.950 . S
H1622 C1651 0.950 . S
H1623 C1652 0.950 . S
H1624 C1654 0.950 . S
H1625 C1655 0.950 . S
C1626 H1608 0.951 . S
C1626 C1627 1.366 . S
C1626 C1628 1.388 . S
C1627 C1626 1.366 . S
C1627 C1631 1.385 . S
C1628 H1609 0.951 . S
C1628 C1626 1.388 . S
C1628 C1629 1.366 . S
C1629 C1628 1.366 . S
C1629 C1630 1.414 . S
C1629 C1632 1.499 . S
C1630 H1610 0.950 . S
C1630 C1629 1.414 . S
C1630 C1631 1.374 . S
C1631 H1611 0.950 . S
C1631 C1627 1.385 . S
C1631 C1630 1.374 . S
C1632 C1629 1.499 . S
C1632 C1633 1.373 . S
C1632 C1634 1.389 . S
C1633 H1612 0.950 . S
C1633 C1632 1.373 . S
C1633 C1649 1.377 . S
C1634 C1632 1.389 . S
C1634 C1635 1.524 . S
C1634 C1648 1.377 . S
C1635 C1634 1.524 . S
C1635 C1636 1.397 . S
C1635 C1640 1.363 . S
C1636 H1613 0.950 . S
C1636 C1635 1.397 . S
C1636 C1637 1.334 . S
C1637 H1614 0.950 . S
C1637 C1636 1.334 . S
C1637 C1638 1.287 . S
C1638 C1637 1.287 . S
C1638 C1639 1.524 . S
C1638 H1657 0.913 . S
C1639 H1615 0.950 . S
C1639 C1638 1.524 . S
C1639 C1640 1.415 . S
C1640 H1616 0.950 . S
C1640 C1635 1.363 . S
C1640 C1639 1.415 . S
C1641 H1617 0.951 . S
C1641 C1642 1.366 . S
C1641 C1643 1.388 . S
C1642 C1641 1.366 . S
C1642 C1646 1.385 . S
C1643 H1618 0.951 . S
C1643 C1641 1.388 . S
C1643 C1644 1.366 . S
C1644 C1643 1.366 . S
C1644 C1645 1.414 . S
C1644 C1647 1.499 . S
C1645 H1619 0.950 . S
C1645 C1644 1.414 . S
C1645 C1646 1.374 . S
C1646 H1620 0.950 . S
C1646 C1642 1.385 . S
C1646 C1645 1.374 . S
C1647 C1644 1.499 . S
C1647 C1648 1.373 . S
C1647 C1649 1.389 . S
C1648 H1621 0.950 . S
C1648 C1634 1.377 . S
C1648 C1647 1.373 . S
C1649 C1633 1.377 . S
C1649 C1647 1.389 . S
C1649 C1650 1.524 . S
C1650 C1649 1.524 . S
C1650 C1651 1.397 . S
C1650 C1655 1.363 . S
C1651 H1622 0.950 . S
C1651 C1650 1.397 . S
C1651 C1652 1.334 . S
C1652 H1623 0.950 . S
C1652 C1651 1.334 . S
C1652 C1653 1.287 . S
C1653 C1652 1.287 . S
C1653 C1654 1.524 . S
C1653 H1656 0.999 . S
C1654 H1624 0.950 . S
C1654 C1653 1.524 . S
C1654 C1655 1.415 . S
C1655 H1625 0.950 . S
C1655 C1650 1.363 . S
C1655 C1654 1.415 . S
H1656 C1653 0.999 . S
H1657 C1638 0.913 . S
H1658 C1676 0.951 . S
H1659 C1678 0.951 . S
H1660 C1680 0.950 . S
H1661 C1681 0.950 . S
H1662 C1683 0.950 . S
H1663 C1686 0.950 . S
H1664 C1687 0.950 . S
H1665 C1689 0.950 . S
H1666 C1690 0.950 . S
H1667 C1691 0.951 . S
H1668 C1693 0.951 . S
H1669 C1695 0.950 . S
H1670 C1696 0.950 . S
H1671 C1698 0.950 . S
H1672 C1701 0.950 . S
H1673 C1702 0.950 . S
H1674 C1704 0.950 . S
H1675 C1705 0.950 . S
C1676 H1658 0.951 . S
C1676 C1677 1.366 . S
C1676 C1678 1.388 . S
C1677 C1676 1.366 . S
C1677 C1681 1.385 . S
C1678 H1659 0.951 . S
C1678 C1676 1.388 . S
C1678 C1679 1.366 . S
C1679 C1678 1.366 . S
C1679 C1680 1.414 . S
C1679 C1682 1.499 . S
C1680 H1660 0.950 . S
C1680 C1679 1.414 . S
C1680 C1681 1.374 . S
C1681 H1661 0.950 . S
C1681 C1677 1.385 . S
C1681 C1680 1.374 . S
C1682 C1679 1.499 . S
C1682 C1683 1.373 . S
C1682 C1684 1.389 . S
C1683 H1662 0.950 . S
C1683 C1682 1.373 . S
C1683 C1699 1.377 . S
C1684 C1682 1.389 . S
C1684 C1685 1.524 . S
C1684 C1698 1.377 . S
C1685 C1684 1.524 . S
C1685 C1686 1.397 . S
C1685 C1690 1.363 . S
C1686 H1663 0.950 . S
C1686 C1685 1.397 . S
C1686 C1687 1.334 . S
C1687 H1664 0.950 . S
C1687 C1686 1.334 . S
C1687 C1688 1.287 . S
C1688 C1687 1.287 . S
C1688 C1689 1.524 . S
C1688 H1707 0.913 . S
C1689 H1665 0.950 . S
C1689 C1688 1.524 . S
C1689 C1690 1.415 . S
C1690 H1666 0.950 . S
C1690 C1685 1.363 . S
C1690 C1689 1.415 . S
C1691 H1667 0.951 . S
C1691 C1692 1.366 . S
C1691 C1693 1.388 . S
C1692 C1691 1.366 . S
C1692 C1696 1.385 . S
C1693 H1668 0.951 . S
C1693 C1691 1.388 . S
C1693 C1694 1.366 . S
C1694 C1693 1.366 . S
C1694 C1695 1.414 . S
C1694 C1697 1.499 . S
C1695 H1669 0.950 . S
C1695 C1694 1.414 . S
C1695 C1696 1.374 . S
C1696 H1670 0.950 . S
C1696 C1692 1.385 . S
C1696 C1695 1.374 . S
C1697 C1694 1.499 . S
C1697 C1698 1.373 . S
C1697 C1699 1.389 . S
C1698 H1671 0.950 . S
C1698 C1684 1.377 . S
C1698 C1697 1.373 . S
C1699 C1683 1.377 . S
C1699 C1697 1.389 . S
C1699 C1700 1.524 . S
C1700 C1699 1.524 . S
C1700 C1701 1.397 . S
C1700 C1705 1.363 . S
C1701 H1672 0.950 . S
C1701 C1700 1.397 . S
C1701 C1702 1.334 . S
C1702 H1673 0.950 . S
C1702 C1701 1.334 . S
C1702 C1703 1.287 . S
C1703 C1702 1.287 . S
C1703 C1704 1.524 . S
C1703 H1706 0.999 . S
C1704 H1674 0.950 . S
C1704 C1703 1.524 . S
C1704 C1705 1.415 . S
C1705 H1675 0.950 . S
C1705 C1700 1.363 . S
C1705 C1704 1.415 . S
H1706 C1703 0.999 . S
H1707 C1688 0.913 . S
H1708 C1726 0.951 . S
H1709 C1728 0.951 . S
H1710 C1730 0.950 . S
H1711 C1731 0.950 . S
H1712 C1733 0.950 . S
H1713 C1736 0.950 . S
H1714 C1737 0.950 . S
H1715 C1739 0.950 . S
H1716 C1740 0.950 . S
H1717 C1741 0.951 . S
H1718 C1743 0.951 . S
H1719 C1745 0.950 . S
H1720 C1746 0.950 . S
H1721 C1748 0.950 . S
H1722 C1751 0.950 . S
H1723 C1752 0.950 . S
H1724 C1754 0.950 . S
H1725 C1755 0.950 . S
C1726 H1708 0.951 . S
C1726 C1727 1.366 . S
C1726 C1728 1.388 . S
C1727 C1726 1.366 . S
C1727 C1731 1.385 . S
C1728 H1709 0.951 . S
C1728 C1726 1.388 . S
C1728 C1729 1.366 . S
C1729 C1728 1.366 . S
C1729 C1730 1.414 . S
C1729 C1732 1.499 . S
C1730 H1710 0.950 . S
C1730 C1729 1.414 . S
C1730 C1731 1.374 . S
C1731 H1711 0.950 . S
C1731 C1727 1.385 . S
C1731 C1730 1.374 . S
C1732 C1729 1.499 . S
C1732 C1733 1.373 . S
C1732 C1734 1.389 . S
C1733 H1712 0.950 . S
C1733 C1732 1.373 . S
C1733 C1749 1.377 . S
C1734 C1732 1.389 . S
C1734 C1735 1.524 . S
C1734 C1748 1.377 . S
C1735 C1734 1.524 . S
C1735 C1736 1.397 . S
C1735 C1740 1.363 . S
C1736 H1713 0.950 . S
C1736 C1735 1.397 . S
C1736 C1737 1.334 . S
C1737 H1714 0.950 . S
C1737 C1736 1.334 . S
C1737 C1738 1.287 . S
C1738 C1737 1.287 . S
C1738 C1739 1.524 . S
C1738 H1757 0.913 . S
C1739 H1715 0.950 . S
C1739 C1738 1.524 . S
C1739 C1740 1.415 . S
C1740 H1716 0.950 . S
C1740 C1735 1.363 . S
C1740 C1739 1.415 . S
C1741 H1717 0.951 . S
C1741 C1742 1.366 . S
C1741 C1743 1.388 . S
C1742 C1741 1.366 . S
C1742 C1746 1.385 . S
C1743 H1718 0.951 . S
C1743 C1741 1.388 . S
C1743 C1744 1.366 . S
C1744 C1743 1.366 . S
C1744 C1745 1.414 . S
C1744 C1747 1.499 . S
C1745 H1719 0.950 . S
C1745 C1744 1.414 . S
C1745 C1746 1.374 . S
C1746 H1720 0.950 . S
C1746 C1742 1.385 . S
C1746 C1745 1.374 . S
C1747 C1744 1.499 . S
C1747 C1748 1.373 . S
C1747 C1749 1.389 . S
C1748 H1721 0.950 . S
C1748 C1734 1.377 . S
C1748 C1747 1.373 . S
C1749 C1733 1.377 . S
C1749 C1747 1.389 . S
C1749 C1750 1.524 . S
C1750 C1749 1.524 . S
C1750 C1751 1.397 . S
C1750 C1755 1.363 . S
C1751 H1722 0.950 . S
C1751 C1750 1.397 . S
C1751 C1752 1.334 . S
C1752 H1723 0.950 . S
C1752 C1751 1.334 . S
C1752 C1753 1.287 . S
C1753 C1752 1.287 . S
C1753 C1754 1.524 . S
C1753 H1756 0.999 . S
C1754 H1724 0.950 . S
C1754 C1753 1.524 . S
C1754 C1755 1.415 . S
C1755 H1725 0.950 . S
C1755 C1750 1.363 . S
C1755 C1754 1.415 . S
H1756 C1753 0.999 . S
H1757 C1738 0.913 . S
H1758 C1776 0.951 . S
H1759 C1778 0.951 . S
H1760 C1780 0.950 . S
H1761 C1781 0.950 . S
H1762 C1783 0.950 . S
H1763 C1786 0.950 . S
H1764 C1787 0.950 . S
H1765 C1789 0.950 . S
H1766 C1790 0.950 . S
H1767 C1791 0.951 . S
H1768 C1793 0.951 . S
H1769 C1795 0.950 . S
H1770 C1796 0.950 . S
H1771 C1798 0.950 . S
H1772 C1801 0.950 . S
H1773 C1802 0.950 . S
H1774 C1804 0.950 . S
H1775 C1805 0.950 . S
C1776 H1758 0.951 . S
C1776 C1777 1.366 . S
C1776 C1778 1.388 . S
C1777 C1776 1.366 . S
C1777 C1781 1.385 . S
C1778 H1759 0.951 . S
C1778 C1776 1.388 . S
C1778 C1779 1.366 . S
C1779 C1778 1.366 . S
C1779 C1780 1.414 . S
C1779 C1782 1.499 . S
C1780 H1760 0.950 . S
C1780 C1779 1.414 . S
C1780 C1781 1.374 . S
C1781 H1761 0.950 . S
C1781 C1777 1.385 . S
C1781 C1780 1.374 . S
C1782 C1779 1.499 . S
C1782 C1783 1.373 . S
C1782 C1784 1.389 . S
C1783 H1762 0.950 . S
C1783 C1782 1.373 . S
C1783 C1799 1.377 . S
C1784 C1782 1.389 . S
C1784 C1785 1.524 . S
C1784 C1798 1.377 . S
C1785 C1784 1.524 . S
C1785 C1786 1.397 . S
C1785 C1790 1.363 . S
C1786 H1763 0.950 . S
C1786 C1785 1.397 . S
C1786 C1787 1.334 . S
C1787 H1764 0.950 . S
C1787 C1786 1.334 . S
C1787 C1788 1.287 . S
C1788 C1787 1.287 . S
C1788 C1789 1.524 . S
C1788 H1807 0.913 . S
C1789 H1765 0.950 . S
C1789 C1788 1.524 . S
C1789 C1790 1.415 . S
C1790 H1766 0.950 . S
C1790 C1785 1.363 . S
C1790 C1789 1.415 . S
C1791 H1767 0.951 . S
C1791 C1792 1.366 . S
C1791 C1793 1.388 . S
C1792 C1791 1.366 . S
C1792 C1796 1.385 . S
C1793 H1768 0.951 . S
C1793 C1791 1.388 . S
C1793 C1794 1.366 . S
C1794 C1793 1.366 . S
C1794 C1795 1.414 . S
C1794 C1797 1.499 . S
C1795 H1769 0.950 . S
C1795 C1794 1.414 . S
C1795 C1796 1.374 . S
C1796 H1770 0.950 . S
C1796 C1792 1.385 . S
C1796 C1795 1.374 . S
C1797 C1794 1.499 . S
C1797 C1798 1.373 . S
C1797 C1799 1.389 . S
C1798 H1771 0.950 . S
C1798 C1784 1.377 . S
C1798 C1797 1.373 . S
C1799 C1783 1.377 . S
C1799 C1797 1.389 . S
C1799 C1800 1.524 . S
C1800 C1799 1.524 . S
C1800 C1801 1.397 . S
C1800 C1805 1.363 . S
C1801 H1772 0.950 . S
C1801 C1800 1.397 . S
C1801 C1802 1.334 . S
C1802 H1773 0.950 . S
C1802 C1801 1.334 . S
C1802 C1803 1.287 . S
C1803 C1802 1.287 . S
C1803 C1804 1.524 . S
C1803 H1806 0.999 . S
C1804 H1774 0.950 . S
C1804 C1803 1.524 . S
C1804 C1805 1.415 . S
C1805 H1775 0.950 . S
C1805 C1800 1.363 . S
C1805 C1804 1.415 . S
H1806 C1803 0.999 . S
H1807 C1788 0.913 . S
H1808 C1826 0.951 . S
H1809 C1828 0.951 . S
H1810 C1830 0.950 . S
H1811 C1831 0.950 . S
H1812 C1833 0.950 . S
H1813 C1836 0.950 . S
H1814 C1837 0.950 . S
H1815 C1839 0.950 . S
H1816 C1840 0.950 . S
H1817 C1841 0.951 . S
H1818 C1843 0.951 . S
H1819 C1845 0.950 . S
H1820 C1846 0.950 . S
H1821 C1848 0.950 . S
H1822 C1851 0.950 . S
H1823 C1852 0.950 . S
H1824 C1854 0.950 . S
H1825 C1855 0.950 . S
C1826 H1808 0.951 . S
C1826 C1827 1.366 . S
C1826 C1828 1.388 . S
C1827 C1826 1.366 . S
C1827 C1831 1.385 . S
C1828 H1809 0.951 . S
C1828 C1826 1.388 . S
C1828 C1829 1.366 . S
C1829 C1828 1.366 . S
C1829 C1830 1.414 . S
C1829 C1832 1.499 . S
C1830 H1810 0.950 . S
C1830 C1829 1.414 . S
C1830 C1831 1.374 . S
C1831 H1811 0.950 . S
C1831 C1827 1.385 . S
C1831 C1830 1.374 . S
C1832 C1829 1.499 . S
C1832 C1833 1.373 . S
C1832 C1834 1.389 . S
C1833 H1812 0.950 . S
C1833 C1832 1.373 . S
C1833 C1849 1.377 . S
C1834 C1832 1.389 . S
C1834 C1835 1.524 . S
C1834 C1848 1.377 . S
C1835 C1834 1.524 . S
C1835 C1836 1.397 . S
C1835 C1840 1.363 . S
C1836 H1813 0.950 . S
C1836 C1835 1.397 . S
C1836 C1837 1.334 . S
C1837 H1814 0.950 . S
C1837 C1836 1.334 . S
C1837 C1838 1.287 . S
C1838 C1837 1.287 . S
C1838 C1839 1.524 . S
C1838 H1857 0.913 . S
C1839 H1815 0.950 . S
C1839 C1838 1.524 . S
C1839 C1840 1.415 . S
C1840 H1816 0.950 . S
C1840 C1835 1.363 . S
C1840 C1839 1.415 . S
C1841 H1817 0.951 . S
C1841 C1842 1.366 . S
C1841 C1843 1.388 . S
C1842 C1841 1.366 . S
C1842 C1846 1.385 . S
C1843 H1818 0.951 . S
C1843 C1841 1.388 . S
C1843 C1844 1.366 . S
C1844 C1843 1.366 . S
C1844 C1845 1.414 . S
C1844 C1847 1.499 . S
C1845 H1819 0.950 . S
C1845 C1844 1.414 . S
C1845 C1846 1.374 . S
C1846 H1820 0.950 . S
C1846 C1842 1.385 . S
C1846 C1845 1.374 . S
C1847 C1844 1.499 . S
C1847 C1848 1.373 . S
C1847 C1849 1.389 . S
C1848 H1821 0.950 . S
C1848 C1834 1.377 . S
C1848 C1847 1.373 . S
C1849 C1833 1.377 . S
C1849 C1847 1.389 . S
C1849 C1850 1.524 . S
C1850 C1849 1.524 . S
C1850 C1851 1.397 . S
C1850 C1855 1.363 . S
C1851 H1822 0.950 . S
C1851 C1850 1.397 . S
C1851 C1852 1.334 . S
C1852 H1823 0.950 . S
C1852 C1851 1.334 . S
C1852 C1853 1.287 . S
C1853 C1852 1.287 . S
C1853 C1854 1.524 . S
C1853 H1856 0.999 . S
C1854 H1824 0.950 . S
C1854 C1853 1.524 . S
C1854 C1855 1.415 . S
C1855 H1825 0.950 . S
C1855 C1850 1.363 . S
C1855 C1854 1.415 . S
H1856 C1853 0.999 . S
H1857 C1838 0.913 . S
H1858 C1876 0.951 . S
H1859 C1878 0.951 . S
H1860 C1880 0.950 . S
H1861 C1881 0.950 . S
H1862 C1883 0.950 . S
H1863 C1886 0.950 . S
H1864 C1887 0.950 . S
H1865 C1889 0.950 . S
H1866 C1890 0.950 . S
H1867 C1891 0.951 . S
H1868 C1893 0.951 . S
H1869 C1895 0.950 . S
H1870 C1896 0.950 . S
H1871 C1898 0.950 . S
H1872 C1901 0.950 . S
H1873 C1902 0.950 . S
H1874 C1904 0.950 . S
H1875 C1905 0.950 . S
C1876 H1858 0.951 . S
C1876 C1877 1.366 . S
C1876 C1878 1.388 . S
C1877 C1876 1.366 . S
C1877 C1881 1.385 . S
C1878 H1859 0.951 . S
C1878 C1876 1.388 . S
C1878 C1879 1.366 . S
C1879 C1878 1.366 . S
C1879 C1880 1.414 . S
C1879 C1882 1.499 . S
C1880 H1860 0.950 . S
C1880 C1879 1.414 . S
C1880 C1881 1.374 . S
C1881 H1861 0.950 . S
C1881 C1877 1.385 . S
C1881 C1880 1.374 . S
C1882 C1879 1.499 . S
C1882 C1883 1.373 . S
C1882 C1884 1.389 . S
C1883 H1862 0.950 . S
C1883 C1882 1.373 . S
C1883 C1899 1.377 . S
C1884 C1882 1.389 . S
C1884 C1885 1.524 . S
C1884 C1898 1.377 . S
C1885 C1884 1.524 . S
C1885 C1886 1.397 . S
C1885 C1890 1.363 . S
C1886 H1863 0.950 . S
C1886 C1885 1.397 . S
C1886 C1887 1.334 . S
C1887 H1864 0.950 . S
C1887 C1886 1.334 . S
C1887 C1888 1.287 . S
C1888 C1887 1.287 . S
C1888 C1889 1.524 . S
C1888 H1907 0.913 . S
C1889 H1865 0.950 . S
C1889 C1888 1.524 . S
C1889 C1890 1.415 . S
C1890 H1866 0.950 . S
C1890 C1885 1.363 . S
C1890 C1889 1.415 . S
C1891 H1867 0.951 . S
C1891 C1892 1.366 . S
C1891 C1893 1.388 . S
C1892 C1891 1.366 . S
C1892 C1896 1.385 . S
C1893 H1868 0.951 . S
C1893 C1891 1.388 . S
C1893 C1894 1.366 . S
C1894 C1893 1.366 . S
C1894 C1895 1.414 . S
C1894 C1897 1.499 . S
C1895 H1869 0.950 . S
C1895 C1894 1.414 . S
C1895 C1896 1.374 . S
C1896 H1870 0.950 . S
C1896 C1892 1.385 . S
C1896 C1895 1.374 . S
C1897 C1894 1.499 . S
C1897 C1898 1.373 . S
C1897 C1899 1.389 . S
C1898 H1871 0.950 . S
C1898 C1884 1.377 . S
C1898 C1897 1.373 . S
C1899 C1883 1.377 . S
C1899 C1897 1.389 . S
C1899 C1900 1.524 . S
C1900 C1899 1.524 . S
C1900 C1901 1.397 . S
C1900 C1905 1.363 . S
C1901 H1872 0.950 . S
C1901 C1900 1.397 . S
C1901 C1902 1.334 . S
C1902 H1873 0.950 . S
C1902 C1901 1.334 . S
C1902 C1903 1.287 . S
C1903 C1902 1.287 . S
C1903 C1904 1.524 . S
C1903 H1906 0.999 . S
C1904 H1874 0.950 . S
C1904 C1903 1.524 . S
C1904 C1905 1.415 . S
C1905 H1875 0.950 . S
C1905 C1900 1.363 . S
C1905 C1904 1.415 . S
H1906 C1903 0.999 . S
H1907 C1888 0.913 . S
H1908 C1926 0.951 . S
H1909 C1928 0.951 . S
H1910 C1930 0.950 . S
H1911 C1931 0.950 . S
H1912 C1933 0.950 . S
H1913 C1936 0.950 . S
H1914 C1937 0.950 . S
H1915 C1939 0.950 . S
H1916 C1940 0.950 . S
H1917 C1941 0.951 . S
H1918 C1943 0.951 . S
H1919 C1945 0.950 . S
H1920 C1946 0.950 . S
H1921 C1948 0.950 . S
H1922 C1951 0.950 . S
H1923 C1952 0.950 . S
H1924 C1954 0.950 . S
H1925 C1955 0.950 . S
C1926 H1908 0.951 . S
C1926 C1927 1.366 . S
C1926 C1928 1.388 . S
C1927 C1926 1.366 . S
C1927 C1931 1.385 . S
C1928 H1909 0.951 . S
C1928 C1926 1.388 . S
C1928 C1929 1.366 . S
C1929 C1928 1.366 . S
C1929 C1930 1.414 . S
C1929 C1932 1.499 . S
C1930 H1910 0.950 . S
C1930 C1929 1.414 . S
C1930 C1931 1.374 . S
C1931 H1911 0.950 . S
C1931 C1927 1.385 . S
C1931 C1930 1.374 . S
C1932 C1929 1.499 . S
C1932 C1933 1.373 . S
C1932 C1934 1.389 . S
C1933 H1912 0.950 . S
C1933 C1932 1.373 . S
C1933 C1949 1.377 . S
C1934 C1932 1.389 . S
C1934 C1935 1.524 . S
C1934 C1948 1.377 . S
C1935 C1934 1.524 . S
C1935 C1936 1.397 . S
C1935 C1940 1.363 . S
C1936 H1913 0.950 . S
C1936 C1935 1.397 . S
C1936 C1937 1.334 . S
C1937 H1914 0.950 . S
C1937 C1936 1.334 . S
C1937 C1938 1.287 . S
C1938 C1937 1.287 . S
C1938 C1939 1.524 . S
C1938 H1957 0.913 . S
C1939 H1915 0.950 . S
C1939 C1938 1.524 . S
C1939 C1940 1.415 . S
C1940 H1916 0.950 . S
C1940 C1935 1.363 . S
C1940 C1939 1.415 . S
C1941 H1917 0.951 . S
C1941 C1942 1.366 . S
C1941 C1943 1.388 . S
C1942 C1941 1.366 . S
C1942 C1946 1.385 . S
C1943 H1918 0.951 . S
C1943 C1941 1.388 . S
C1943 C1944 1.366 . S
C1944 C1943 1.366 . S
C1944 C1945 1.414 . S
C1944 C1947 1.499 . S
C1945 H1919 0.950 . S
C1945 C1944 1.414 . S
C1945 C1946 1.374 . S
C1946 H1920 0.950 . S
C1946 C1942 1.385 . S
C1946 C1945 1.374 . S
C1947 C1944 1.499 . S
C1947 C1948 1.373 . S
C1947 C1949 1.389 . S
C1948 H1921 0.950 . S
C1948 C1934 1.377 . S
C1948 C1947 1.373 . S
C1949 C1933 1.377 . S
C1949 C1947 1.389 . S
C1949 C1950 1.524 . S
C1950 C1949 1.524 . S
C1950 C1951 1.397 . S
C1950 C1955 1.363 . S
C1951 H1922 0.950 . S
C1951 C1950 1.397 . S
C1951 C1952 1.334 . S
C1952 H1923 0.950 . S
C1952 C1951 1.334 . S
C1952 C1953 1.287 . S
C1953 C1952 1.287 . S
C1953 C1954 1.524 . S
C1953 H1956 0.999 . S
C1954 H1924 0.950 . S
C1954 C1953 1.524 . S
C1954 C1955 1.415 . S
C1955 H1925 0.950 . S
C1955 C1950 1.363 . S
C1955 C1954 1.415 . S
H1956 C1953 0.999 . S
H1957 C1938 0.913 . S
H1958 C1976 0.951 . S
H1959 C1978 0.951 . S
H1960 C1980 0.950 . S
H1961 C1981 0.950 . S
H1962 C1983 0.950 . S
H1963 C1986 0.950 . S
H1964 C1987 0.950 . S
H1965 C1989 0.950 . S
H1966 C1990 0.950 . S
H1967 C1991 0.951 . S
H1968 C1993 0.951 . S
H1969 C1995 0.950 . S
H1970 C1996 0.950 . S
H1971 C1998 0.950 . S
H1972 C2001 0.950 . S
H1973 C2002 0.950 . S
H1974 C2004 0.950 . S
H1975 C2005 0.950 . S
C1976 H1958 0.951 . S
C1976 C1977 1.366 . S
C1976 C1978 1.388 . S
C1977 C1976 1.366 . S
C1977 C1981 1.385 . S
C1978 H1959 0.951 . S
C1978 C1976 1.388 . S
C1978 C1979 1.366 . S
C1979 C1978 1.366 . S
C1979 C1980 1.414 . S
C1979 C1982 1.499 . S
C1980 H1960 0.950 . S
C1980 C1979 1.414 . S
C1980 C1981 1.374 . S
C1981 H1961 0.950 . S
C1981 C1977 1.385 . S
C1981 C1980 1.374 . S
C1982 C1979 1.499 . S
C1982 C1983 1.373 . S
C1982 C1984 1.389 . S
C1983 H1962 0.950 . S
C1983 C1982 1.373 . S
C1983 C1999 1.377 . S
C1984 C1982 1.389 . S
C1984 C1985 1.524 . S
C1984 C1998 1.377 . S
C1985 C1984 1.524 . S
C1985 C1986 1.397 . S
C1985 C1990 1.363 . S
C1986 H1963 0.950 . S
C1986 C1985 1.397 . S
C1986 C1987 1.334 . S
C1987 H1964 0.950 . S
C1987 C1986 1.334 . S
C1987 C1988 1.287 . S
C1988 C1987 1.287 . S
C1988 C1989 1.524 . S
C1988 H2007 0.913 . S
C1989 H1965 0.950 . S
C1989 C1988 1.524 . S
C1989 C1990 1.415 . S
C1990 H1966 0.950 . S
C1990 C1985 1.363 . S
C1990 C1989 1.415 . S
C1991 H1967 0.951 . S
C1991 C1992 1.366 . S
C1991 C1993 1.388 . S
C1992 C1991 1.366 . S
C1992 C1996 1.385 . S
C1993 H1968 0.951 . S
C1993 C1991 1.388 . S
C1993 C1994 1.366 . S
C1994 C1993 1.366 . S
C1994 C1995 1.414 . S
C1994 C1997 1.499 . S
C1995 H1969 0.950 . S
C1995 C1994 1.414 . S
C1995 C1996 1.374 . S
C1996 H1970 0.950 . S
C1996 C1992 1.385 . S
C1996 C1995 1.374 . S
C1997 C1994 1.499 . S
C1997 C1998 1.373 . S
C1997 C1999 1.389 . S
C1998 H1971 0.950 . S
C1998 C1984 1.377 . S
C1998 C1997 1.373 . S
C1999 C1983 1.377 . S
C1999 C1997 1.389 . S
C1999 C2000 1.524 . S
C2000 C1999 1.524 . S
C2000 C2001 1.397 . S
C2000 C2005 1.363 . S
C2001 H1972 0.950 . S
C2001 C2000 1.397 . S
C2001 C2002 1.334 . S
C2002 H1973 0.950 . S
C2002 C2001 1.334 . S
C2002 C2003 1.287 . S
C2003 C2002 1.287 . S
C2003 C2004 1.524 . S
C2003 H2006 0.999 . S
C2004 H1974 0.950 . S
C2004 C2003 1.524 . S
C2004 C2005 1.415 . S
C2005 H1975 0.950 . S
C2005 C2000 1.363 . S
C2005 C2004 1.415 . S
H2006 C2003 0.999 . S
H2007 C1988 0.913 . S
H2008 C2026 0.951 . S
H2009 C2028 0.951 . S
H2010 C2030 0.950 . S
H2011 C2031 0.950 . S
H2012 C2033 0.950 . S
H2013 C2036 0.950 . S
H2014 C2037 0.950 . S
H2015 C2039 0.950 . S
H2016 C2040 0.950 . S
H2017 C2041 0.951 . S
H2018 C2043 0.951 . S
H2019 C2045 0.950 . S
H2020 C2046 0.950 . S
H2021 C2048 0.950 . S
H2022 C2051 0.950 . S
H2023 C2052 0.950 . S
H2024 C2054 0.950 . S
H2025 C2055 0.950 . S
C2026 H2008 0.951 . S
C2026 C2027 1.366 . S
C2026 C2028 1.388 . S
C2027 C2026 1.366 . S
C2027 C2031 1.385 . S
C2028 H2009 0.951 . S
C2028 C2026 1.388 . S
C2028 C2029 1.366 . S
C2029 C2028 1.366 . S
C2029 C2030 1.414 . S
C2029 C2032 1.499 . S
C2030 H2010 0.950 . S
C2030 C2029 1.414 . S
C2030 C2031 1.374 . S
C2031 H2011 0.950 . S
C2031 C2027 1.385 . S
C2031 C2030 1.374 . S
C2032 C2029 1.499 . S
C2032 C2033 1.373 . S
C2032 C2034 1.389 . S
C2033 H2012 0.950 . S
C2033 C2032 1.373 . S
C2033 C2049 1.377 . S
C2034 C2032 1.389 . S
C2034 C2035 1.524 . S
C2034 C2048 1.377 . S
C2035 C2034 1.524 . S
C2035 C2036 1.397 . S
C2035 C2040 1.363 . S
C2036 H2013 0.950 . S
C2036 C2035 1.397 . S
C2036 C2037 1.334 . S
C2037 H2014 0.950 . S
C2037 C2036 1.334 . S
C2037 C2038 1.287 . S
C2038 C2037 1.287 . S
C2038 C2039 1.524 . S
C2038 H2057 0.913 . S
C2039 H2015 0.950 . S
C2039 C2038 1.524 . S
C2039 C2040 1.415 . S
C2040 H2016 0.950 . S
C2040 C2035 1.363 . S
C2040 C2039 1.415 . S
C2041 H2017 0.951 . S
C2041 C2042 1.366 . S
C2041 C2043 1.388 . S
C2042 C2041 1.366 . S
C2042 C2046 1.385 . S
C2043 H2018 0.951 . S
C2043 C2041 1.388 . S
C2043 C2044 1.366 . S
C2044 C2043 1.366 . S
C2044 C2045 1.414 . S
C2044 C2047 1.499 . S
C2045 H2019 0.950 . S
C2045 C2044 1.414 . S
C2045 C2046 1.374 . S
C2046 H2020 0.950 . S
C2046 C2042 1.385 . S
C2046 C2045 1.374 . S
C2047 C2044 1.499 . S
C2047 C2048 1.373 . S
C2047 C2049 1.389 . S
C2048 H2021 0.950 . S
C2048 C2034 1.377 . S
C2048 C2047 1.373 . S
C2049 C2033 1.377 . S
C2049 C2047 1.389 . S
C2049 C2050 1.524 . S
C2050 C2049 1.524 . S
C2050 C2051 1.397 . S
C2050 C2055 1.363 . S
C2051 H2022 0.950 . S
C2051 C2050 1.397 . S
C2051 C2052 1.334 . S
C2052 H2023 0.950 . S
C2052 C2051 1.334 . S
C2052 C2053 1.287 . S
C2053 C2052 1.287 . S
C2053 C2054 1.524 . S
C2053 H2056 0.999 . S
C2054 H2024 0.950 . S
C2054 C2053 1.524 . S
C2054 C2055 1.415 . S
C2055 H2025 0.950 . S
C2055 C2050 1.363 . S
C2055 C2054 1.415 . S
H2056 C2053 0.999 . S
H2057 C2038 0.913 . S
H2058 C2076 0.951 . S
H2059 C2078 0.951 . S
H2060 C2080 0.950 . S
H2061 C2081 0.950 . S
H2062 C2083 0.950 . S
H2063 C2086 0.950 . S
H2064 C2087 0.950 . S
H2065 C2089 0.950 . S
H2066 C2090 0.950 . S
H2067 C2091 0.951 . S
H2068 C2093 0.951 . S
H2069 C2095 0.950 . S
H2070 C2096 0.950 . S
H2071 C2098 0.950 . S
H2072 C2101 0.950 . S
H2073 C2102 0.950 . S
H2074 C2104 0.950 . S
H2075 C2105 0.950 . S
C2076 H2058 0.951 . S
C2076 C2077 1.366 . S
C2076 C2078 1.388 . S
C2077 C2076 1.366 . S
C2077 C2081 1.385 . S
C2078 H2059 0.951 . S
C2078 C2076 1.388 . S
C2078 C2079 1.366 . S
C2079 C2078 1.366 . S
C2079 C2080 1.414 . S
C2079 C2082 1.499 . S
C2080 H2060 0.950 . S
C2080 C2079 1.414 . S
C2080 C2081 1.374 . S
C2081 H2061 0.950 . S
C2081 C2077 1.385 . S
C2081 C2080 1.374 . S
C2082 C2079 1.499 . S
C2082 C2083 1.373 . S
C2082 C2084 1.389 . S
C2083 H2062 0.950 . S
C2083 C2082 1.373 . S
C2083 C2099 1.377 . S
C2084 C2082 1.389 . S
C2084 C2085 1.524 . S
C2084 C2098 1.377 . S
C2085 C2084 1.524 . S
C2085 C2086 1.397 . S
C2085 C2090 1.363 . S
C2086 H2063 0.950 . S
C2086 C2085 1.397 . S
C2086 C2087 1.334 . S
C2087 H2064 0.950 . S
C2087 C2086 1.334 . S
C2087 C2088 1.287 . S
C2088 C2087 1.287 . S
C2088 C2089 1.524 . S
C2088 H2107 0.913 . S
C2089 H2065 0.950 . S
C2089 C2088 1.524 . S
C2089 C2090 1.415 . S
C2090 H2066 0.950 . S
C2090 C2085 1.363 . S
C2090 C2089 1.415 . S
C2091 H2067 0.951 . S
C2091 C2092 1.366 . S
C2091 C2093 1.388 . S
C2092 C2091 1.366 . S
C2092 C2096 1.385 . S
C2093 H2068 0.951 . S
C2093 C2091 1.388 . S
C2093 C2094 1.366 . S
C2094 C2093 1.366 . S
C2094 C2095 1.414 . S
C2094 C2097 1.499 . S
C2095 H2069 0.950 . S
C2095 C2094 1.414 . S
C2095 C2096 1.374 . S
C2096 H2070 0.950 . S
C2096 C2092 1.385 . S
C2096 C2095 1.374 . S
C2097 C2094 1.499 . S
C2097 C2098 1.373 . S
C2097 C2099 1.389 . S
C2098 H2071 0.950 . S
C2098 C2084 1.377 . S
C2098 C2097 1.373 . S
C2099 C2083 1.377 . S
C2099 C2097 1.389 . S
C2099 C2100 1.524 . S
C2100 C2099 1.524 . S
C2100 C2101 1.397 . S
C2100 C2105 1.363 . S
C2101 H2072 0.950 . S
C2101 C2100 1.397 . S
C2101 C2102 1.334 . S
C2102 H2073 0.950 . S
C2102 C2101 1.334 . S
C2102 C2103 1.287 . S
C2103 C2102 1.287 . S
C2103 C2104 1.524 . S
C2103 H2106 0.999 . S
C2104 H2074 0.950 . S
C2104 C2103 1.524 . S
C2104 C2105 1.415 . S
C2105 H2075 0.950 . S
C2105 C2100 1.363 . S
C2105 C2104 1.415 . S
H2106 C2103 0.999 . S
H2107 C2088 0.913 . S
H2108 C2126 0.951 . S
H2109 C2128 0.951 . S
H2110 C2130 0.950 . S
H2111 C2131 0.950 . S
H2112 C2133 0.950 . S
H2113 C2136 0.950 . S
H2114 C2137 0.950 . S
H2115 C2139 0.950 . S
H2116 C2140 0.950 . S
H2117 C2141 0.951 . S
H2118 C2143 0.951 . S
H2119 C2145 0.950 . S
H2120 C2146 0.950 . S
H2121 C2148 0.950 . S
H2122 C2151 0.950 . S
H2123 C2152 0.950 . S
H2124 C2154 0.950 . S
H2125 C2155 0.950 . S
C2126 H2108 0.951 . S
C2126 C2127 1.366 . S
C2126 C2128 1.388 . S
C2127 C2126 1.366 . S
C2127 C2131 1.385 . S
C2128 H2109 0.951 . S
C2128 C2126 1.388 . S
C2128 C2129 1.366 . S
C2129 C2128 1.366 . S
C2129 C2130 1.414 . S
C2129 C2132 1.499 . S
C2130 H2110 0.950 . S
C2130 C2129 1.414 . S
C2130 C2131 1.374 . S
C2131 H2111 0.950 . S
C2131 C2127 1.385 . S
C2131 C2130 1.374 . S
C2132 C2129 1.499 . S
C2132 C2133 1.373 . S
C2132 C2134 1.389 . S
C2133 H2112 0.950 . S
C2133 C2132 1.373 . S
C2133 C2149 1.377 . S
C2134 C2132 1.389 . S
C2134 C2135 1.524 . S
C2134 C2148 1.377 . S
C2135 C2134 1.524 . S
C2135 C2136 1.397 . S
C2135 C2140 1.363 . S
C2136 H2113 0.950 . S
C2136 C2135 1.397 . S
C2136 C2137 1.334 . S
C2137 H2114 0.950 . S
C2137 C2136 1.334 . S
C2137 C2138 1.287 . S
C2138 C2137 1.287 . S
C2138 C2139 1.524 . S
C2138 H2157 0.913 . S
C2139 H2115 0.950 . S
C2139 C2138 1.524 . S
C2139 C2140 1.415 . S
C2140 H2116 0.950 . S
C2140 C2135 1.363 . S
C2140 C2139 1.415 . S
C2141 H2117 0.951 . S
C2141 C2142 1.366 . S
C2141 C2143 1.388 . S
C2142 C2141 1.366 . S
C2142 C2146 1.385 . S
C2143 H2118 0.951 . S
C2143 C2141 1.388 . S
C2143 C2144 1.366 . S
C2144 C2143 1.366 . S
C2144 C2145 1.414 . S
C2144 C2147 1.499 . S
C2145 H2119 0.950 . S
C2145 C2144 1.414 . S
C2145 C2146 1.374 . S
C2146 H2120 0.950 . S
C2146 C2142 1.385 . S
C2146 C2145 1.374 . S
C2147 C2144 1.499 . S
C2147 C2148 1.373 . S
C2147 C2149 1.389 . S
C2148 H2121 0.950 . S
C2148 C2134 1.377 . S
C2148 C2147 1.373 . S
C2149 C2133 1.377 . S
C2149 C2147 1.389 . S
C2149 C2150 1.524 . S
C2150 C2149 1.524 . S
C2150 C2151 1.397 . S
C2150 C2155 1.363 . S
C2151 H2122 0.950 . S
C2151 C2150 1.397 . S
C2151 C2152 1.334 . S
C2152 H2123 0.950 . S
C2152 C2151 1.334 . S
C2152 C2153 1.287 . S
C2153 C2152 1.287 . S
C2153 C2154 1.524 . S
C2153 H2156 0.999 . S
C2154 H2124 0.950 . S
C2154 C2153 1.524 . S
C2154 C2155 1.415 . S
C2155 H2125 0.950 . S
C2155 C2150 1.363 . S
C2155 C2154 1.415 . S
H2156 C2153 0.999 . S
H2157 C2138 0.913 . S
H2158 C2176 0.951 . S
H2159 C2178 0.951 . S
H2160 C2180 0.950 . S
H2161 C2181 0.950 . S
H2162 C2183 0.950 . S
H2163 C2186 0.950 . S
H2164 C2187 0.950 . S
H2165 C2189 0.950 . S
H2166 C2190 0.950 . S
H2167 C2191 0.951 . S
H2168 C2193 0.951 . S
H2169 C2195 0.950 . S
H2170 C2196 0.950 . S
H2171 C2198 0.950 . S
H2172 C2201 0.950 . S
H2173 C2202 0.950 . S
H2174 C2204 0.950 . S
H2175 C2205 0.950 . S
C2176 H2158 0.951 . S
C2176 C2177 1.366 . S
C2176 C2178 1.388 . S
C2177 C2176 1.366 . S
C2177 C2181 1.385 . S
C2178 H2159 0.951 . S
C2178 C2176 1.388 . S
C2178 C2179 1.366 . S
C2179 C2178 1.366 . S
C2179 C2180 1.414 . S
C2179 C2182 1.499 . S
C2180 H2160 0.950 . S
C2180 C2179 1.414 . S
C2180 C2181 1.374 . S
C2181 H2161 0.950 . S
C2181 C2177 1.385 . S
C2181 C2180 1.374 . S
C2182 C2179 1.499 . S
C2182 C2183 1.373 . S
C2182 C2184 1.389 . S
C2183 H2162 0.950 . S
C2183 C2182 1.373 . S
C2183 C2199 1.377 . S
C2184 C2182 1.389 . S
C2184 C2185 1.524 . S
C2184 C2198 1.377 . S
C2185 C2184 1.524 . S
C2185 C2186 1.397 . S
C2185 C2190 1.363 . S
C2186 H2163 0.950 . S
C2186 C2185 1.397 . S
C2186 C2187 1.334 . S
C2187 H2164 0.950 . S
C2187 C2186 1.334 . S
C2187 C2188 1.287 . S
C2188 C2187 1.287 . S
C2188 C2189 1.524 . S
C2188 H2207 0.913 . S
C2189 H2165 0.950 . S
C2189 C2188 1.524 . S
C2189 C2190 1.415 . S
C2190 H2166 0.950 . S
C2190 C2185 1.363 . S
C2190 C2189 1.415 . S
C2191 H2167 0.951 . S
C2191 C2192 1.366 . S
C2191 C2193 1.388 . S
C2192 C2191 1.366 . S
C2192 C2196 1.385 . S
C2193 H2168 0.951 . S
C2193 C2191 1.388 . S
C2193 C2194 1.366 . S
C2194 C2193 1.366 . S
C2194 C2195 1.414 . S
C2194 C2197 1.499 . S
C2195 H2169 0.950 . S
C2195 C2194 1.414 . S
C2195 C2196 1.374 . S
C2196 H2170 0.950 . S
C2196 C2192 1.385 . S
C2196 C2195 1.374 . S
C2197 C2194 1.499 . S
C2197 C2198 1.373 . S
C2197 C2199 1.389 . S
C2198 H2171 0.950 . S
C2198 C2184 1.377 . S
C2198 C2197 1.373 . S
C2199 C2183 1.377 . S
C2199 C2197 1.389 . S
C2199 C2200 1.524 . S
C2200 C2199 1.524 . S
C2200 C2201 1.397 . S
C2200 C2205 1.363 . S
C2201 H2172 0.950 . S
C2201 C2200 1.397 . S
C2201 C2202 1.334 . S
C2202 H2173 0.950 . S
C2202 C2201 1.334 . S
C2202 C2203 1.287 . S
C2203 C2202 1.287 . S
C2203 C2204 1.524 . S
C2203 H2206 0.999 . S
C2204 H2174 0.950 . S
C2204 C2203 1.524 . S
C2204 C2205 1.415 . S
C2205 H2175 0.950 . S
C2205 C2200 1.363 . S
C2205 C2204 1.415 . S
H2206 C2203 0.999 . S
H2207 C2188 0.913 . S
H2208 C2226 0.951 . S
H2209 C2228 0.951 . S
H2210 C2230 0.950 . S
H2211 C2231 0.950 . S
H2212 C2233 0.950 . S
H2213 C2236 0.950 . S
H2214 C2237 0.950 . S
H2215 C2239 0.950 . S
H2216 C2240 0.950 . S
H2217 C2241 0.951 . S
H2218 C2243 0.951 . S
H2219 C2245 0.950 . S
H2220 C2246 0.950 . S
H2221 C2248 0.950 . S
H2222 C2251 0.950 . S
H2223 C2252 0.950 . S
H2224 C2254 0.950 . S
H2225 C2255 0.950 . S
C2226 H2208 0.951 . S
C2226 C2227 1.366 . S
C2226 C2228 1.388 . S
C2227 C2226 1.366 . S
C2227 C2231 1.385 . S
C2228 H2209 0.951 . S
C2228 C2226 1.388 . S
C2228 C2229 1.366 . S
C2229 C2228 1.366 . S
C2229 C2230 1.414 . S
C2229 C2232 1.499 . S
C2230 H2210 0.950 . S
C2230 C2229 1.414 . S
C2230 C2231 1.374 . S
C2231 H2211 0.950 . S
C2231 C2227 1.385 . S
C2231 C2230 1.374 . S
C2232 C2229 1.499 . S
C2232 C2233 1.373 . S
C2232 C2234 1.389 . S
C2233 H2212 0.950 . S
C2233 C2232 1.373 . S
C2233 C2249 1.377 . S
C2234 C2232 1.389 . S
C2234 C2235 1.524 . S
C2234 C2248 1.377 . S
C2235 C2234 1.524 . S
C2235 C2236 1.397 . S
C2235 C2240 1.363 . S
C2236 H2213 0.950 . S
C2236 C2235 1.397 . S
C2236 C2237 1.334 . S
C2237 H2214 0.950 . S
C2237 C2236 1.334 . S
C2237 C2238 1.287 . S
C2238 C2237 1.287 . S
C2238 C2239 1.524 . S
C2238 H2257 0.913 . S
C2239 H2215 0.950 . S
C2239 C2238 1.524 . S
C2239 C2240 1.415 . S
C2240 H2216 0.950 . S
C2240 C2235 1.363 . S
C2240 C2239 1.415 . S
C2241 H2217 0.951 . S
C2241 C2242 1.366 . S
C2241 C2243 1.388 . S
C2242 C2241 1.366 . S
C2242 C2246 1.385 . S
C2243 H2218 0.951 . S
C2243 C2241 1.388 . S
C2243 C2244 1.366 . S
C2244 C2243 1.366 . S
C2244 C2245 1.414 . S
C2244 C2247 1.499 . S
C2245 H2219 0.950 . S
C2245 C2244 1.414 . S
C2245 C2246 1.374 . S
C2246 H2220 0.950 . S
C2246 C2242 1.385 . S
C2246 C2245 1.374 . S
C2247 C2244 1.499 . S
C2247 C2248 1.373 . S
C2247 C2249 1.389 . S
C2248 H2221 0.950 . S
C2248 C2234 1.377 . S
C2248 C2247 1.373 . S
C2249 C2233 1.377 . S
C2249 C2247 1.389 . S
C2249 C2250 1.524 . S
C2250 C2249 1.524 . S
C2250 C2251 1.397 . S
C2250 C2255 1.363 . S
C2251 H2222 0.950 . S
C2251 C2250 1.397 . S
C2251 C2252 1.334 . S
C2252 H2223 0.950 . S
C2252 C2251 1.334 . S
C2252 C2253 1.287 . S
C2253 C2252 1.287 . S
C2253 C2254 1.524 . S
C2253 H2256 0.999 . S
C2254 H2224 0.950 . S
C2254 C2253 1.524 . S
C2254 C2255 1.415 . S
C2255 H2225 0.950 . S
C2255 C2250 1.363 . S
C2255 C2254 1.415 . S
H2256 C2253 0.999 . S
H2257 C2238 0.913 . S
H2258 C2276 0.951 . S
H2259 C2278 0.951 . S
H2260 C2280 0.950 . S
H2261 C2281 0.950 . S
H2262 C2283 0.950 . S
H2263 C2286 0.950 . S
H2264 C2287 0.950 . S
H2265 C2289 0.950 . S
H2266 C2290 0.950 . S
H2267 C2291 0.951 . S
H2268 C2293 0.951 . S
H2269 C2295 0.950 . S
H2270 C2296 0.950 . S
H2271 C2298 0.950 . S
H2272 C2301 0.950 . S
H2273 C2302 0.950 . S
H2274 C2304 0.955 . S
H2275 C2305 0.950 . S
C2276 H2258 0.951 . S
C2276 C2277 1.366 . S
C2276 C2278 1.388 . S
C2277 C2276 1.366 . S
C2277 C2281 1.385 . S
C2278 H2259 0.951 . S
C2278 C2276 1.388 . S
C2278 C2279 1.366 . S
C2279 C2278 1.366 . S
C2279 C2280 1.414 . S
C2279 C2282 1.499 . S
C2280 H2260 0.950 . S
C2280 C2279 1.414 . S
C2280 C2281 1.374 . S
C2281 H2261 0.950 . S
C2281 C2277 1.385 . S
C2281 C2280 1.374 . S
C2282 C2279 1.499 . S
C2282 C2283 1.373 . S
C2282 C2284 1.389 . S
C2283 H2262 0.950 . S
C2283 C2282 1.373 . S
C2283 C2299 1.377 . S
C2284 C2282 1.389 . S
C2284 C2285 1.524 . S
C2284 C2298 1.377 . S
C2285 C2284 1.524 . S
C2285 C2286 1.397 . S
C2285 C2290 1.363 . S
C2286 H2263 0.950 . S
C2286 C2285 1.397 . S
C2286 C2287 1.334 . S
C2287 H2264 0.950 . S
C2287 C2286 1.334 . S
C2287 C2288 1.287 . S
C2288 C2287 1.287 . S
C2288 C2289 1.524 . S
C2288 H2307 0.913 . S
C2289 H2265 0.950 . S
C2289 C2288 1.524 . S
C2289 C2290 1.415 . S
C2290 H2266 0.950 . S
C2290 C2285 1.363 . S
C2290 C2289 1.415 . S
C2291 H2267 0.951 . S
C2291 C2292 1.366 . S
C2291 C2293 1.388 . S
C2292 C2291 1.366 . S
C2292 C2296 1.385 . S
C2293 H2268 0.951 . S
C2293 C2291 1.388 . S
C2293 C2294 1.366 . S
C2294 C2293 1.366 . S
C2294 C2295 1.414 . S
C2294 C2297 1.499 . S
C2295 H2269 0.950 . S
C2295 C2294 1.414 . S
C2295 C2296 1.374 . S
C2296 H2270 0.950 . S
C2296 C2292 1.385 . S
C2296 C2295 1.374 . S
C2297 C2294 1.499 . S
C2297 C2298 1.373 . S
C2297 C2299 1.389 . S
C2298 H2271 0.950 . S
C2298 C2284 1.377 . S
C2298 C2297 1.373 . S
C2299 C2283 1.377 . S
C2299 C2297 1.389 . S
C2299 C2300 1.524 . S
C2300 C2299 1.524 . S
C2300 C2301 1.397 . S
C2300 C2305 1.363 . S
C2301 H2272 0.950 . S
C2301 C2300 1.397 . S
C2301 C2302 1.334 . S
C2302 H2273 0.950 . S
C2302 C2301 1.334 . S
C2302 C2303 1.287 . S
C2303 C2302 1.287 . S
C2303 C2304 1.524 . S
C2303 H2306 0.999 1_556 S
C2304 H2274 0.955 . S
C2304 C2303 1.524 . S
C2304 C2305 1.415 . S
C2305 H2275 0.950 . S
C2305 C2300 1.363 . S
C2305 C2304 1.415 . S
H2306 C2303 0.999 1_554 S
H2307 C2288 0.913 . S
H2308 C2326 0.951 . S
H2309 C2328 0.951 . S
H2310 C2330 0.950 . S
H2311 C2331 0.950 . S
H2312 C2333 0.950 . S
H2313 C2336 0.950 . S
H2314 C2337 0.950 . S
H2315 C2339 0.950 . S
H2316 C2340 0.950 . S
H2317 C2341 0.951 . S
H2318 C2343 0.951 . S
H2319 C2345 0.950 . S
H2320 C2346 0.950 . S
H2321 C2348 0.950 . S
H2322 C2351 0.950 . S
H2323 C2352 0.950 . S
H2324 C2354 0.950 . S
H2325 C2355 0.950 . S
C2326 H2308 0.951 . S
C2326 C2327 1.366 . S
C2326 C2328 1.388 . S
C2327 C2326 1.366 . S
C2327 C2331 1.385 . S
C2328 H2309 0.951 . S
C2328 C2326 1.388 . S
C2328 C2329 1.366 . S
C2329 C2328 1.366 . S
C2329 C2330 1.414 . S
C2329 C2332 1.499 . S
C2330 H2310 0.950 . S
C2330 C2329 1.414 . S
C2330 C2331 1.374 . S
C2331 H2311 0.950 . S
C2331 C2327 1.385 . S
C2331 C2330 1.374 . S
C2332 C2329 1.499 . S
C2332 C2333 1.373 . S
C2332 C2334 1.389 . S
C2333 H2312 0.950 . S
C2333 C2332 1.373 . S
C2333 C2349 1.377 . S
C2334 C2332 1.389 . S
C2334 C2335 1.524 . S
C2334 C2348 1.377 . S
C2335 C2334 1.524 . S
C2335 C2336 1.397 . S
C2335 C2340 1.363 . S
C2336 H2313 0.950 . S
C2336 C2335 1.397 . S
C2336 C2337 1.334 . S
C2337 H2314 0.950 . S
C2337 C2336 1.334 . S
C2337 C2338 1.287 . S
C2338 C2337 1.287 . S
C2338 C2339 1.524 . S
C2338 H2357 0.913 . S
C2339 H2315 0.950 . S
C2339 C2338 1.524 . S
C2339 C2340 1.415 . S
C2340 H2316 0.950 . S
C2340 C2335 1.363 . S
C2340 C2339 1.415 . S
C2341 H2317 0.951 . S
C2341 C2342 1.366 . S
C2341 C2343 1.388 . S
C2342 C2341 1.366 . S
C2342 C2346 1.385 . S
C2343 H2318 0.951 . S
C2343 C2341 1.388 . S
C2343 C2344 1.366 . S
C2344 C2343 1.366 . S
C2344 C2345 1.414 . S
C2344 C2347 1.499 . S
C2345 H2319 0.950 . S
C2345 C2344 1.414 . S
C2345 C2346 1.374 . S
C2346 H2320 0.950 . S
C2346 C2342 1.385 . S
C2346 C2345 1.374 . S
C2347 C2344 1.499 . S
C2347 C2348 1.373 . S
C2347 C2349 1.389 . S
C2348 H2321 0.950 . S
C2348 C2334 1.377 . S
C2348 C2347 1.373 . S
C2349 C2333 1.377 . S
C2349 C2347 1.389 . S
C2349 C2350 1.524 . S
C2350 C2349 1.524 . S
C2350 C2351 1.397 . S
C2350 C2355 1.363 . S
C2351 H2322 0.950 . S
C2351 C2350 1.397 . S
C2351 C2352 1.334 . S
C2352 H2323 0.950 . S
C2352 C2351 1.334 . S
C2352 C2353 1.287 . S
C2353 C2352 1.287 . S
C2353 C2354 1.524 . S
C2353 H2356 0.999 . S
C2354 H2324 0.950 . S
C2354 C2353 1.524 . S
C2354 C2355 1.415 . S
C2355 H2325 0.950 . S
C2355 C2350 1.363 . S
C2355 C2354 1.415 . S
H2356 C2353 0.999 . S
H2357 C2338 0.913 . S
H2358 C2376 0.951 . S
H2359 C2378 0.951 . S
H2360 C2380 0.950 . S
H2361 C2381 0.950 . S
H2362 C2383 0.950 . S
H2363 C2386 0.950 . S
H2364 C2387 0.950 . S
H2365 C2389 0.950 . S
H2366 C2390 0.950 . S
H2367 C2391 0.951 . S
H2368 C2393 0.951 . S
H2369 C2395 0.950 . S
H2370 C2396 0.950 . S
H2371 C2398 0.950 . S
H2372 C2401 0.950 . S
H2373 C2402 0.950 . S
H2374 C2404 0.950 . S
H2375 C2405 0.950 . S
C2376 H2358 0.951 . S
C2376 C2377 1.366 . S
C2376 C2378 1.388 . S
C2377 C2376 1.366 . S
C2377 C2381 1.385 . S
C2378 H2359 0.951 . S
C2378 C2376 1.388 . S
C2378 C2379 1.366 . S
C2379 C2378 1.366 . S
C2379 C2380 1.414 . S
C2379 C2382 1.499 . S
C2380 H2360 0.950 . S
C2380 C2379 1.414 . S
C2380 C2381 1.374 . S
C2381 H2361 0.950 . S
C2381 C2377 1.385 . S
C2381 C2380 1.374 . S
C2382 C2379 1.499 . S
C2382 C2383 1.373 . S
C2382 C2384 1.389 . S
C2383 H2362 0.950 . S
C2383 C2382 1.373 . S
C2383 C2399 1.377 . S
C2384 C2382 1.389 . S
C2384 C2385 1.524 . S
C2384 C2398 1.377 . S
C2385 C2384 1.524 . S
C2385 C2386 1.397 . S
C2385 C2390 1.363 . S
C2386 H2363 0.950 . S
C2386 C2385 1.397 . S
C2386 C2387 1.334 . S
C2387 H2364 0.950 . S
C2387 C2386 1.334 . S
C2387 C2388 1.287 . S
C2388 C2387 1.287 . S
C2388 C2389 1.524 . S
C2388 H2407 0.913 . S
C2389 H2365 0.950 . S
C2389 C2388 1.524 . S
C2389 C2390 1.415 . S
C2390 H2366 0.950 . S
C2390 C2385 1.363 . S
C2390 C2389 1.415 . S
C2391 H2367 0.951 . S
C2391 C2392 1.366 . S
C2391 C2393 1.388 . S
C2392 C2391 1.366 . S
C2392 C2396 1.385 . S
C2393 H2368 0.951 . S
C2393 C2391 1.388 . S
C2393 C2394 1.366 . S
C2394 C2393 1.366 . S
C2394 C2395 1.414 . S
C2394 C2397 1.499 . S
C2395 H2369 0.950 . S
C2395 C2394 1.414 . S
C2395 C2396 1.374 . S
C2396 H2370 0.950 . S
C2396 C2392 1.385 . S
C2396 C2395 1.374 . S
C2397 C2394 1.499 . S
C2397 C2398 1.373 . S
C2397 C2399 1.389 . S
C2398 H2371 0.950 . S
C2398 C2384 1.377 . S
C2398 C2397 1.373 . S
C2399 C2383 1.377 . S
C2399 C2397 1.389 . S
C2399 C2400 1.524 . S
C2400 C2399 1.524 . S
C2400 C2401 1.397 . S
C2400 C2405 1.363 . S
C2401 H2372 0.950 . S
C2401 C2400 1.397 . S
C2401 C2402 1.334 . S
C2402 H2373 0.950 . S
C2402 C2401 1.334 . S
C2402 C2403 1.287 . S
C2403 C2402 1.287 . S
C2403 C2404 1.524 . S
C2403 H2406 0.999 . S
C2404 H2374 0.950 . S
C2404 C2403 1.524 . S
C2404 C2405 1.415 . S
C2405 H2375 0.950 . S
C2405 C2400 1.363 . S
C2405 C2404 1.415 . S
H2406 C2403 0.999 . S
H2407 C2388 0.913 . S
C842 C413 1.457 . S
C827 C36 1.456 . S
C892 C466 1.286 . S
C877 C93 1.282 . S
C942 C529 1.526 . S
C927 C132 1.526 . S
C992 C572 1.248 . S
C977 C174 1.247 . S
C1027 C213 1.522 . S
C1042 C528 1.523 . S
C1092 C565 1.309 . S
C1077 C285 1.303 . S
C1142 C406 1.461 . S
C1127 C324 1.460 . S
C1192 C459 1.223 . S
C1177 C366 1.220 . S
C1242 C512 1.484 . S
C1227 C357 1.480 . S
C1292 C581 1.787 . S
C1277 C222 1.785 . S
C1342 C422 1.554 . S
C1327 C276 1.553 . S
C1392 C475 1.720 . S
C1377 C333 1.715 . S
C1442 C423 1.545 . S
C1427 C84 1.544 . S
C1492 C476 1.785 . S
C1477 C141 1.779 . S
C1542 C519 1.492 . S
C1527 C165 1.489 . S
C1592 C582 1.724 . S
C1577 C45 1.715 . S
C1642 C625 1.430 . S
C1627 C372 1.429 . S
C1677 C237 1.665 . S
C1692 C678 1.672 . S
C1727 C261 1.552 . S
C1742 C740 1.552 . S
C1777 C318 1.663 . S
C1792 C794 1.668 . S
C1827 C69 1.490 . S
C1842 C741 1.492 . S
C1877 C126 1.728 . S
C1892 C793 1.734 . S
C1927 C180 1.485 . S
C1942 C618 1.485 . S
C1992 C671 1.613 . S
C1977 C30 1.610 . S
C2042 C731 1.457 . S
C2027 C21 1.454 . S
C2077 C78 1.334 . S
C2092 C777 1.337 . S
C2127 C117 1.577 . S
C2142 C634 1.578 . S
C2177 C189 1.314 . S
C2192 C687 1.320 . S
C2242 C635 1.516 . S
C2227 C228 1.514 . S
C2292 C688 1.388 . S
C2277 C270 1.386 . S
C2327 C309 1.511 . S
C2342 C724 1.513 . S
C2392 C784 1.275 . S
C2377 C381 1.271 . S
