# Generated by pormake.
# Topology pth, (4,4)-cn, num edge types: 1
# Building blocks:
#     Node 0, Type 0, BuildingBlock: NAHDIM_clean_sbu_0, # of connection points: 4
#     Node 1, Type 0, BuildingBlock: NAHDIM_clean_sbu_0, # of connection points: 4
#     Node 2, Type 0, BuildingBlock: NAHDIM_clean_sbu_0, # of connection points: 4
#     Node 3, Type 1, BuildingBlock: MUDLON_clean_linker_0, # of connection points: 4
#     Node 4, Type 1, BuildingBlock: MUDLON_clean_linker_0, # of connection points: 4
#     Node 5, Type 1, BuildingBlock: MUDLON_clean_linker_0, # of connection points: 4
#     Edge 6, Type (0, 1), BuildingBlock: AJUNOK_clean_linker_0, # of connection points: 2
#     Edge 7, Type (0, 1), BuildingBlock: AJUNOK_clean_linker_0, # of connection points: 2
#     Edge 8, Type (0, 1), BuildingBlock: AJUNOK_clean_linker_0, # of connection points: 2
#     Edge 9, Type (0, 1), BuildingBlock: AJUNOK_clean_linker_0, # of connection points: 2
#     Edge 10, Type (0, 1), BuildingBlock: AJUNOK_clean_linker_0, # of connection points: 2
#     Edge 11, Type (0, 1), BuildingBlock: AJUNOK_clean_linker_0, # of connection points: 2
#     Edge 12, Type (0, 1), BuildingBlock: AJUNOK_clean_linker_0, # of connection points: 2
#     Edge 13, Type (0, 1), BuildingBlock: AJUNOK_clean_linker_0, # of connection points: 2
#     Edge 14, Type (0, 1), BuildingBlock: AJUNOK_clean_linker_0, # of connection points: 2
#     Edge 15, Type (0, 1), BuildingBlock: AJUNOK_clean_linker_0, # of connection points: 2
#     Edge 16, Type (0, 1), BuildingBlock: AJUNOK_clean_linker_0, # of connection points: 2
#     Edge 17, Type (0, 1), BuildingBlock: AJUNOK_clean_linker_0, # of connection points: 2
# Relax obj value: 0.059
# Max RMSD: 0.170
# Mean RMSD: 0.116
data_MOF--net-pth--node1-NAHDIM_clean_sbu_0--node2-MUDLON_clean_linker_0--edge1-AJUNOK_clean_linker_0
_symmetry_space_group_name_H-M    P1
_symmetry_Int_Tables_number       1
_symmetry_cell_setting            triclinic
loop_
_symmetry_equiv_pos_as_xyz
'x, y, z'
_cell_length_a     27.051829
_cell_length_b     27.205547
_cell_length_c     53.591929
_cell_angle_alpha  91.815415
_cell_angle_beta   89.950259
_cell_angle_gamma 120.60495
loop_
_atom_site_label
_atom_site_type_symbol
_atom_site_fract_x
_atom_site_fract_y
_atom_site_fract_z
_atom_type_partial_charge
C0 C 0.97768 0.92501 0.06034 0.0
O1 O 0.93055 0.9192 0.05041 0.0
O2 O 0.01305 0.07947 0.04796 0.0
Zn3 Zn 0.02242 0.01939 0.02916 0.0
O4 O 0.95822 0.97341 0.00423 0.0
C5 C 0.13424 0.11163 0.01705 0.0
O6 O 0.1318 0.12922 0.03989 0.0
O7 O 0.02593 0.96585 0.05354 0.0
C8 C 0.91784 0.98197 0.9983 0.0
O9 O 0.91502 0.02423 0.00937 0.0
C10 C 0.97604 0.07297 0.06413 0.0
O11 O 0.93552 0.02112 0.06948 0.0
O12 O 0.09435 0.06267 0.00921 0.0
C13 C 0.03234 0.10224 0.32492 0.0
O14 O 0.98822 0.04985 0.32296 0.0
O15 O 0.03225 0.9824 0.34091 0.0
Zn16 Zn 0.05006 0.0489 0.36432 0.0
O17 O 0.98258 0.03342 0.38561 0.0
C18 C 0.14921 0.04509 0.38163 0.0
O19 O 0.14261 0.01853 0.3599 0.0
O20 O 0.06816 0.1153 0.34284 0.0
C21 C 0.9757 0.0104 0.40658 0.0
O22 O 0.01107 0.99332 0.41331 0.0
C23 C 0.9941 0.93007 0.34255 0.0
O24 O 0.95978 0.91388 0.36175 0.0
O25 O 0.11644 0.06456 0.38697 0.0
C26 C 0.09218 0.01185 0.66147 0.0
O27 O 0.08157 0.05372 0.65997 0.0
O28 O 0.96755 0.00515 0.67969 0.0
Zn29 Zn 0.02208 0.99588 0.70196 0.0
O30 O 0.07244 0.06781 0.72245 0.0
C31 C 0.92524 0.89265 0.71985 0.0
O32 O 0.90624 0.88774 0.69682 0.0
O33 O 0.07163 0.97848 0.67959 0.0
C34 C 0.05136 0.08067 0.74098 0.0
O35 O 0.99653 0.04747 0.74563 0.0
C36 C 0.96403 0.0497 0.67783 0.0
O37 O 0.99739 0.09521 0.69196 0.0
O38 O 0.97529 0.93355 0.72569 0.0
H39 H 0.86223 0.6775 0.22002 0.0
N40 N 0.94243 0.66495 0.19713 0.0
H41 H 0.87435 0.73819 0.25712 0.0
H42 H 0.03914 0.72179 0.22729 0.0
H43 H 0.05093 0.78108 0.26437 0.0
H44 H 0.0373 0.76889 0.18736 0.0
H45 H 0.04672 0.82974 0.15298 0.0
H46 H 0.87224 0.63769 0.15796 0.0
H47 H 0.88254 0.69755 0.12282 0.0
H48 H 0.87859 0.55388 0.20411 0.0
H49 H 0.05103 0.68571 0.18765 0.0
H50 H 0.90869 0.48304 0.20317 0.0
H51 H 0.08242 0.61617 0.18799 0.0
H52 H 0.9706 0.288 0.2125 0.0
H53 H 0.96274 0.22507 0.24548 0.0
H54 H 0.14604 0.32575 0.25863 0.0
H55 H 0.15345 0.39032 0.22588 0.0
H56 H 0.13961 0.35596 0.1677 0.0
H57 H 0.11314 0.28715 0.13248 0.0
H58 H 0.93788 0.24962 0.13622 0.0
H59 H 0.96473 0.31871 0.17149 0.0
H60 H 0.99035 0.38237 0.22621 0.0
H61 H 0.96193 0.45315 0.22627 0.0
H62 H 0.07756 0.53748 0.16584 0.0
N63 N 0.07024 0.37722 0.19495 0.0
H64 H 0.10821 0.46726 0.16656 0.0
C65 C 0.94948 0.69498 0.22075 0.0
C66 C 0.90323 0.69935 0.22988 0.0
C67 C 0.91017 0.73383 0.25103 0.0
C68 C 0.96378 0.76482 0.26334 0.0
C69 C 0.00941 0.75835 0.25493 0.0
C70 C 0.0025 0.724 0.23378 0.0
C71 C 0.95324 0.69896 0.17548 0.0
C72 C 0.00339 0.75275 0.17335 0.0
C73 C 0.00894 0.78748 0.15359 0.0
C74 C 0.96475 0.76894 0.13555 0.0
C75 C 0.91651 0.71367 0.13686 0.0
C76 C 0.91075 0.67925 0.15674 0.0
C77 C 0.96236 0.6249 0.19613 0.0
C78 C 0.92306 0.56747 0.20047 0.0
C79 C 0.94056 0.52723 0.20014 0.0
C80 C 0.9982 0.54381 0.19571 0.0
C81 C 0.03758 0.60159 0.19117 0.0
C82 C 0.01978 0.64167 0.1912 0.0
C83 C 0.06287 0.34428 0.21673 0.0
C84 C 0.00908 0.29735 0.22268 0.0
C85 C 0.00467 0.26102 0.24142 0.0
C86 C 0.05398 0.26979 0.2542 0.0
C87 C 0.10735 0.31798 0.24905 0.0
C88 C 0.11165 0.35484 0.23042 0.0
C89 C 0.0544 0.34246 0.17218 0.0
C90 C 0.09583 0.33382 0.16052 0.0
C91 C 0.08065 0.29473 0.1404 0.0
C92 C 0.02352 0.26343 0.13154 0.0
C93 C 0.98219 0.27327 0.14272 0.0
C94 C 0.99752 0.31271 0.1628 0.0
C95 C 0.05175 0.41875 0.19612 0.0
C96 C 0.01001 0.41556 0.21285 0.0
C97 C 0.99324 0.45637 0.21282 0.0
C98 C 0.01703 0.50102 0.19595 0.0
C99 C 0.05878 0.50426 0.17935 0.0
C100 C 0.07609 0.46387 0.17959 0.0
H101 H 0.83973 0.15617 0.55463 0.0
N102 N 0.74193 0.07421 0.53408 0.0
H103 H 0.88942 0.1504 0.59167 0.0
H104 H 0.69718 0.98724 0.56743 0.0
H105 H 0.7456 0.9821 0.6046 0.0
H106 H 0.73577 0.97097 0.52643 0.0
H107 H 0.78349 0.94704 0.49365 0.0
H108 H 0.79813 0.13648 0.49557 0.0
H109 H 0.84777 0.11346 0.46309 0.0
H110 H 0.70153 0.14476 0.5358 0.0
H111 H 0.64733 0.96597 0.52904 0.0
H112 H 0.60135 0.12058 0.53364 0.0
H113 H 0.54751 0.94105 0.52857 0.0
H114 H 0.33693 0.06847 0.54522 0.0
H115 H 0.28199 0.07757 0.5791 0.0
H116 H 0.20157 0.89683 0.59121 0.0
H117 H 0.25867 0.88819 0.55748 0.0
H118 H 0.2422 0.89862 0.49664 0.0
H119 H 0.20725 0.92289 0.45947 0.0
H120 H 0.344 0.09856 0.46889 0.0
H121 H 0.37949 0.07382 0.50577 0.0
H122 H 0.41765 0.05924 0.55407 0.0
H123 H 0.51657 0.08245 0.556 0.0
H124 H 0.47577 0.9406 0.50453 0.0
N125 N 0.3287 0.96907 0.52696 0.0
H126 H 0.37535 0.91535 0.50398 0.0
C127 C 0.76487 0.07244 0.55811 0.0
C128 C 0.81859 0.11851 0.56575 0.0
C129 C 0.84681 0.11516 0.58687 0.0
C130 C 0.82169 0.06541 0.60073 0.0
C131 C 0.76645 0.02047 0.59391 0.0
C132 C 0.73843 0.02369 0.5727 0.0
C133 C 0.76334 0.05576 0.51339 0.0
C134 C 0.75888 0.00187 0.51238 0.0
C135 C 0.7868 0.98844 0.49379 0.0
C136 C 0.82014 0.02876 0.47608 0.0
C137 C 0.82226 0.08148 0.47646 0.0
C138 C 0.79409 0.09475 0.49496 0.0
C139 C 0.68214 0.05751 0.53281 0.0
C140 C 0.66789 0.10026 0.53412 0.0
C141 C 0.61054 0.08621 0.53311 0.0
C142 C 0.56592 0.0287 0.53111 0.0
C143 C 0.58046 0.98582 0.52974 0.0
C144 C 0.6379 4e-05 0.53031 0.0
C145 C 0.302 0.97736 0.54876 0.0
C146 C 0.30834 0.03081 0.5553 0.0
C147 C 0.27643 0.03594 0.57458 0.0
C148 C 0.2366 0.98767 0.5874 0.0
C149 C 0.23192 0.93472 0.58159 0.0
C150 C 0.26438 0.92971 0.56239 0.0
C151 C 0.31289 0.98427 0.50403 0.0
C152 C 0.265 0.94213 0.49045 0.0
C153 C 0.24525 0.95603 0.4693 0.0
C154 C 0.27279 0.01263 0.46155 0.0
C155 C 0.32178 0.05475 0.47472 0.0
C156 C 0.34198 0.04064 0.49574 0.0
C157 C 0.38822 0.98463 0.52904 0.0
C158 C 0.42925 0.03247 0.54337 0.0
C159 C 0.48657 0.04628 0.54425 0.0
C160 C 0.50462 0.01353 0.53042 0.0
C161 C 0.46356 0.96621 0.51588 0.0
C162 C 0.40611 0.95185 0.51538 0.0
H163 H 0.6837 0.85663 0.87009 0.0
N164 N 0.64455 0.74765 0.85759 0.0
H165 H 0.74729 0.91242 0.90544 0.0
H166 H 0.67758 0.70521 0.89609 0.0
H167 H 0.73881 0.75991 0.93166 0.0
H168 H 0.73007 0.72184 0.854 0.0
H169 H 0.79667 0.7447 0.81947 0.0
H170 H 0.64028 0.78884 0.814 0.0
H171 H 0.70756 0.81294 0.77956 0.0
H172 H 0.5381 0.72762 0.85936 0.0
H173 H 0.63607 0.64295 0.86057 0.0
H174 H 0.44944 0.63592 0.86334 0.0
H175 H 0.54856 0.55177 0.8662 0.0
H176 H 0.19874 0.34996 0.90951 0.0
H177 H 0.17685 0.29073 0.94608 0.0
H178 H 0.32045 0.26804 0.92994 0.0
H179 H 0.34349 0.32922 0.89381 0.0
H180 H 0.3006 0.29355 0.85437 0.0
H181 H 0.24797 0.22895 0.81917 0.0
H182 H 0.14419 0.30711 0.8131 0.0
H183 H 0.1973 0.37213 0.84874 0.0
H184 H 0.30626 0.47511 0.89539 0.0
H185 H 0.39623 0.56567 0.89172 0.0
H186 H 0.46445 0.47958 0.8468 0.0
N187 N 0.27959 0.37353 0.87631 0.0
H188 H 0.37603 0.38914 0.85205 0.0
C189 C 0.67565 0.77683 0.88031 0.0
C190 C 0.69508 0.83524 0.88367 0.0
C191 C 0.73123 0.86693 0.90384 0.0
C192 C 0.74866 0.84062 0.92106 0.0
C193 C 0.72711 0.78155 0.91834 0.0
C194 C 0.69141 0.75001 0.89806 0.0
C195 C 0.68023 0.75398 0.83655 0.0
C196 C 0.72409 0.74066 0.83765 0.0
C197 C 0.76245 0.75415 0.818 0.0
C198 C 0.75772 0.7813 0.79702 0.0
C199 C 0.71209 0.79184 0.79546 0.0
C200 C 0.67379 0.77831 0.81508 0.0
C201 C 0.59362 0.69241 0.85991 0.0
C202 C 0.54039 0.68919 0.86075 0.0
C203 C 0.48987 0.63673 0.86327 0.0
C204 C 0.49159 0.58615 0.86538 0.0
C205 C 0.54524 0.5895 0.86435 0.0
C206 C 0.59567 0.64196 0.86139 0.0
C207 C 0.27201 0.34327 0.89885 0.0
C208 C 0.226 0.33297 0.91413 0.0
C209 C 0.21368 0.29935 0.93493 0.0
C210 C 0.24686 0.27478 0.9406 0.0
C211 C 0.29413 0.28634 0.92575 0.0
C212 C 0.30709 0.32098 0.90512 0.0
C213 C 0.25304 0.33812 0.85416 0.0
C214 C 0.26733 0.29774 0.84534 0.0
C215 C 0.23735 0.26087 0.82507 0.0
C216 C 0.19244 0.26347 0.81329 0.0
C217 C 0.17877 0.30439 0.82185 0.0
C218 C 0.20905 0.34152 0.84206 0.0
C219 C 0.33386 0.42554 0.87376 0.0
C220 C 0.3409 0.476 0.88487 0.0
C221 C 0.39222 0.52777 0.88252 0.0
C222 C 0.43766 0.53039 0.86865 0.0
C223 C 0.4308 0.47937 0.85782 0.0
C224 C 0.37969 0.42737 0.86057 0.0
C225 C 0.9506 0.11538 0.10055 0.0
C226 C 0.98341 0.12331 0.07903 0.0
C227 C 0.962 0.16149 0.11682 0.0
C228 C 0.00665 0.21722 0.11219 0.0
H229 H 0.91731 0.07296 0.10547 0.0
H230 H 0.93745 0.15299 0.13375 0.0
S231 S 0.09973 0.26264 0.05677 0.0
N232 N 0.05857 0.19269 0.05268 0.0
N233 N 0.07977 0.27896 0.08338 0.0
C234 C 0.03755 0.22637 0.09008 0.0
C235 C 0.02593 0.17955 0.07345 0.0
C236 C 0.89343 0.02519 0.41615 0.0
C237 C 0.93232 0.00867 0.42412 0.0
C238 C 0.85599 0.02978 0.43287 0.0
C239 C 0.85576 0.01785 0.45821 0.0
H240 H 0.89267 0.03596 0.39692 0.0
H241 H 0.8276 0.04367 0.42598 0.0
S242 S 0.94811 0.97202 0.4887 0.0
N243 N 0.96698 0.97885 0.45915 0.0
N244 N 0.89719 0.98834 0.49053 0.0
C245 C 0.89319 -0.00023 0.46635 0.0
C246 C 0.93128 0.99496 0.44932 0.0
C247 C 0.82699 0.8194 0.73354 0.0
C248 C 0.88531 0.85765 0.73961 0.0
C249 C 0.78631 0.79278 0.75217 0.0
C250 C 0.80238 0.8029 0.77759 0.0
H251 H 0.812 0.81166 0.71429 0.0
H252 H 0.74162 0.7653 0.74667 0.0
S253 S 0.9499 0.89569 0.80357 0.0
N254 N 0.95747 0.90109 0.77304 0.0
N255 N 0.88079 0.85148 0.80793 0.0
C256 C 0.86085 0.83862 0.78393 0.0
C257 C 0.90235 0.86585 0.76498 0.0
C258 C 0.02093 0.87804 0.08449 0.0
C259 C 0.974 0.88534 0.07957 0.0
C260 C 0.01767 0.8401 0.10248 0.0
C261 C 0.96745 0.8083 0.11627 0.0
H262 H 0.06026 0.90129 0.07417 0.0
H263 H 0.05454 0.83524 0.10547 0.0
S264 S 0.8348 0.81635 0.1124 0.0
N265 N 0.877 0.86005 0.09109 0.0
N266 N 0.87146 0.78992 0.12511 0.0
C267 C 0.92077 0.81624 0.11193 0.0
C268 C 0.9239 0.85445 0.09355 0.0
C269 C 0.20831 0.00596 0.39795 0.0
C270 C 0.1875 0.04383 0.40109 0.0
C271 C 0.23767 0.99757 0.41732 0.0
C272 C 0.24822 0.02742 0.4404 0.0
H273 H 0.19981 0.98066 0.38077 0.0
H274 H 0.25109 0.96649 0.41444 0.0
S275 S 0.2069 0.13444 0.45778 0.0
N276 N 0.1826 0.11384 0.42882 0.0
N277 N 0.23826 0.09815 0.46511 0.0
C278 C 0.23022 0.06735 0.44347 0.0
C279 C 0.19974 0.07553 0.42385 0.0
C280 C 0.06348 0.14382 0.77823 0.0
C281 C 0.08822 0.13054 0.75791 0.0
C282 C 0.09736 0.18813 0.79556 0.0
C283 C 0.15733 0.22074 0.79333 0.0
H284 H 0.0176 0.11915 0.78113 0.0
H285 H 0.0766 0.1957 0.81128 0.0
S286 S 0.2433 0.20714 0.7426 0.0
N287 N 0.17658 0.15642 0.73583 0.0
N288 N 0.23996 0.23965 0.76853 0.0
C289 C 0.1826 0.20935 0.77276 0.0
C290 C 0.14813 0.16435 0.755 0.0
C291 C 0.91787 0.099 0.65802 0.0
C292 C 0.92504 0.05129 0.65881 0.0
C293 C 0.88352 0.10285 0.63949 0.0
C294 C 0.85488 0.05906 0.62111 0.0
H295 H 0.93933 0.13402 0.67166 0.0
H296 H 0.87954 0.14051 0.63948 0.0
S297 S 0.8605 0.92587 0.61424 0.0
N298 N 0.90064 0.95938 0.63924 0.0
N299 N 0.83694 0.96725 0.60437 0.0
C300 C 0.86129 0.01099 0.62173 0.0
C301 C 0.89613 0.00695 0.64058 0.0
C302 C 0.82579 0.94911 0.97449 0.0
C303 C 0.87484 0.94488 0.97878 0.0
C304 C 0.78493 0.915 0.95596 0.0
C305 C 0.79149 0.87531 0.94103 0.0
H306 H 0.81872 0.97893 0.98555 0.0
H307 H 0.74775 0.91953 0.95338 0.0
S308 S 0.91358 0.84965 0.94355 0.0
N309 N 0.92822 0.89862 0.96585 0.0
N310 N 0.8519 0.83547 0.9309 0.0
C311 C 0.84044 0.8709 0.94494 0.0
C312 C 0.88196 0.90543 0.96382 0.0
C313 C 0.94322 0.83075 0.3232 0.0
C314 C 0.98798 0.88818 0.32253 0.0
C315 C 0.93576 0.79087 0.30411 0.0
C316 C 0.97311 0.80681 0.2838 0.0
H317 H 0.9133 0.81644 0.33845 0.0
H318 H 0.90061 0.74721 0.30529 0.0
S319 S 0.09611 0.95162 0.27257 0.0
N320 N 0.0699 0.95873 0.29936 0.0
N321 N 0.05534 0.88381 0.26365 0.0
C322 C 0.01801 0.86385 0.28286 0.0
C323 C 0.02558 0.90451 0.30216 0.0
C324 C 0.15628 0.97489 0.64749 0.0
C325 C 0.12713 0.00404 0.64221 0.0
C326 C 0.19132 0.96924 0.62965 0.0
C327 C 0.1982 0.99236 0.60591 0.0
H328 H 0.15293 0.9573 0.66569 0.0
H329 H 0.21399 0.94757 0.63463 0.0
S330 S 0.12541 0.06604 0.58169 0.0
N331 N 0.104 0.05226 0.61079 0.0
N332 N 0.16884 0.04074 0.5773 0.0
C333 C 0.16767 0.01976 0.60013 0.0
C334 C 0.13241 0.02583 0.61826 0.0
C335 C 0.19625 0.21209 0.00393 0.0
C336 C 0.17349 0.15321 -0.00109 0.0
C337 C 0.22297 0.25182 0.98527 0.0
C338 C 0.229 0.23431 0.9611 0.0
H339 H 0.19023 0.22741 0.02192 0.0
H340 H 0.23689 0.29627 0.98948 0.0
S341 S 0.1833 0.08656 0.93902 0.0
N342 N 0.16345 0.08023 0.96846 0.0
N343 N 0.21451 0.15536 0.93353 0.0
C344 C 0.21027 0.17636 0.95626 0.0
C345 C 0.18232 0.13569 0.97515 0.0
C346 C 0.07099 0.20357 0.31274 0.0
C347 C 0.03958 0.14469 0.30647 0.0
C348 C 0.07594 0.24402 0.29572 0.0
C349 C 0.04987 0.22693 0.27185 0.0
H350 H 0.09087 0.21848 0.33108 0.0
H351 H 0.09942 0.28886 0.30145 0.0
S352 S 0.96939 0.0785 0.2452 0.0
N353 N 0.98598 0.07176 0.27402 0.0
N354 N 0.99626 0.14763 0.24202 0.0
C355 C 0.02019 0.16834 0.26508 0.0
C356 C 0.0148 0.12727 0.28239 0.0
loop_
_geom_bond_atom_site_label_1
_geom_bond_atom_site_label_2
_geom_bond_distance
_geom_bond_site_symmetry_2
_ccdc_geom_bond_type
C0 O1 1.160 . S
C0 O7 1.185 . S
O1 C0 1.160 . S
O2 Zn3 1.899 . S
O2 C10 1.284 1_455 S
Zn3 O2 1.899 . S
Zn3 O4 2.032 1_445 S
Zn3 O7 2.086 1_545 S
Zn3 O12 1.977 . S
O4 Zn3 2.032 1_665 S
O4 C8 1.244 1_554 S
C5 O6 1.203 . S
C5 O12 1.268 . S
O6 C5 1.203 . S
O7 C0 1.185 . S
O7 Zn3 2.086 1_565 S
C8 O4 1.244 1_556 S
C8 O9 1.236 1_565 S
O9 C8 1.236 1_545 S
C10 O2 1.284 1_655 S
C10 O11 1.273 . S
O11 C10 1.273 . S
O12 Zn3 1.977 . S
O12 C5 1.268 . S
C13 O14 1.160 . S
C13 O20 1.185 . S
O14 C13 1.160 . S
O15 Zn16 1.899 1_565 S
O15 C23 1.284 . S
Zn16 O15 1.899 1_545 S
Zn16 O17 2.032 1_455 S
Zn16 O20 2.086 . S
Zn16 O25 1.977 . S
O17 Zn16 2.032 1_655 S
O17 C21 1.278 . S
C18 O19 1.203 1_545 S
C18 O25 1.267 . S
O19 C18 1.203 1_565 S
O20 C13 1.185 . S
O20 Zn16 2.086 . S
C21 O17 1.278 . S
C21 O22 1.211 1_545 S
O22 C21 1.211 1_565 S
C23 O15 1.284 . S
C23 O24 1.273 1_455 S
O24 C23 1.273 1_655 S
O25 Zn16 1.977 . S
O25 C18 1.267 . S
C26 O27 1.160 1_565 S
C26 O33 1.185 . S
O27 C26 1.160 1_545 S
O28 Zn29 1.899 1_655 S
O28 C36 1.284 1_565 S
Zn29 O28 1.899 1_455 S
Zn29 O30 2.032 1_565 S
Zn29 O33 2.086 . S
Zn29 O38 1.977 1_455 S
O30 Zn29 2.032 1_545 S
O30 C34 1.278 . S
C31 O32 1.203 . S
C31 O38 1.267 . S
O32 C31 1.203 . S
O33 C26 1.185 . S
O33 Zn29 2.086 . S
C34 O30 1.278 . S
C34 O35 1.211 . S
O35 C34 1.211 . S
C36 O28 1.284 1_545 S
C36 O37 1.273 . S
O37 C36 1.273 . S
O38 Zn29 1.977 1_655 S
O38 C31 1.267 . S
H39 C66 0.929 . S
N40 C65 1.433 . S
N40 C71 1.435 . S
N40 C77 1.423 . S
H41 C67 0.930 . S
H42 C70 0.931 . S
H43 C69 0.929 . S
H44 C72 0.930 . S
H45 C73 0.932 . S
H46 C76 0.929 . S
H47 C75 0.931 . S
H48 C78 0.929 . S
H49 C82 0.939 . S
H50 C79 0.931 . S
H51 C81 0.929 1_455 S
H52 C84 0.929 . S
H53 C85 0.930 . S
H54 C87 0.929 . S
H55 C88 0.931 . S
H56 C90 0.930 . S
H57 C91 0.932 . S
H58 C93 0.931 . S
H59 C94 0.929 . S
H60 C96 0.929 . S
H61 C97 0.931 . S
H62 C99 0.929 1_455 S
N63 C83 1.433 . S
N63 C89 1.435 . S
N63 C95 1.423 . S
H64 C100 0.950 . S
C65 N40 1.433 . S
C65 C66 1.363 . S
C65 C70 1.370 1_655 S
C66 H39 0.929 . S
C66 C65 1.363 . S
C66 C67 1.385 . S
C67 H41 0.930 . S
C67 C66 1.385 . S
C67 C68 1.357 1_655 S
C68 C67 1.357 1_455 S
C68 C69 1.406 . S
C69 H43 0.929 . S
C69 C68 1.406 . S
C69 C70 1.391 . S
C70 H42 0.931 . S
C70 C65 1.370 1_455 S
C70 C69 1.391 . S
C71 N40 1.435 . S
C71 C72 1.358 1_655 S
C71 C76 1.371 . S
C72 H44 0.930 . S
C72 C71 1.358 1_455 S
C72 C73 1.405 . S
C73 H45 0.932 . S
C73 C72 1.405 . S
C73 C74 1.384 . S
C74 C73 1.384 . S
C74 C75 1.392 1_455 S
C75 H47 0.931 . S
C75 C74 1.392 1_655 S
C75 C76 1.382 . S
C76 H46 0.929 . S
C76 C71 1.371 . S
C76 C75 1.382 . S
C77 N40 1.423 . S
C77 C78 1.362 . S
C77 C82 1.372 1_655 S
C78 H48 0.929 . S
C78 C77 1.362 . S
C78 C79 1.376 . S
C79 H50 0.931 . S
C79 C78 1.376 . S
C79 C80 1.396 . S
C80 C79 1.396 . S
C80 C81 1.348 . S
C80 C98 1.472 . S
C81 H51 0.929 1_655 S
C81 C80 1.348 . S
C81 C82 1.453 1_655 S
C82 H49 0.939 . S
C82 C77 1.372 1_455 S
C82 C81 1.453 1_455 S
C83 N63 1.433 . S
C83 C84 1.363 . S
C83 C88 1.370 1_655 S
C84 H52 0.929 . S
C84 C83 1.363 . S
C84 C85 1.385 . S
C85 H53 0.930 . S
C85 C84 1.385 . S
C85 C86 1.357 1_655 S
C86 C85 1.357 1_455 S
C86 C87 1.406 . S
C87 H54 0.929 . S
C87 C86 1.406 . S
C87 C88 1.391 . S
C88 H55 0.931 . S
C88 C83 1.370 1_455 S
C88 C87 1.391 . S
C89 N63 1.435 . S
C89 C90 1.358 1_655 S
C89 C94 1.371 . S
C90 H56 0.930 . S
C90 C89 1.358 1_455 S
C90 C91 1.405 . S
C91 H57 0.932 . S
C91 C90 1.405 . S
C91 C92 1.383 . S
C92 C91 1.383 . S
C92 C93 1.394 1_455 S
C93 H58 0.931 . S
C93 C92 1.394 1_655 S
C93 C94 1.382 . S
C94 H59 0.929 . S
C94 C89 1.371 . S
C94 C93 1.382 . S
C95 N63 1.423 . S
C95 C96 1.362 . S
C95 C100 1.384 1_655 S
C96 H60 0.929 . S
C96 C95 1.362 . S
C96 C97 1.376 . S
C97 H61 0.931 . S
C97 C96 1.376 . S
C97 C98 1.396 . S
C98 C80 1.472 . S
C98 C97 1.396 . S
C98 C99 1.348 . S
C99 H62 0.929 1_655 S
C99 C98 1.348 . S
C99 C100 1.429 1_655 S
C100 H64 0.950 . S
C100 C95 1.384 1_455 S
C100 C99 1.429 1_455 S
H101 C128 0.929 . S
N102 C127 1.433 . S
N102 C133 1.435 . S
N102 C139 1.423 . S
H103 C129 0.930 . S
H104 C132 0.931 . S
H105 C131 0.929 . S
H106 C134 0.930 . S
H107 C135 0.932 . S
H108 C138 0.929 . S
H109 C137 0.931 . S
H110 C140 0.929 . S
H111 C144 0.932 1_565 S
H112 C141 0.931 . S
H113 C143 0.929 . S
H114 C146 0.929 . S
H115 C147 0.930 . S
H116 C149 0.929 . S
H117 C150 0.931 . S
H118 C152 0.930 . S
H119 C153 0.932 . S
H120 C155 0.931 . S
H121 C156 0.929 . S
H122 C158 0.929 . S
H123 C159 0.931 . S
H124 C161 0.929 . S
N125 C145 1.433 . S
N125 C151 1.435 . S
N125 C157 1.423 . S
H126 C162 0.932 1_565 S
C127 N102 1.433 . S
C127 C128 1.363 . S
C127 C132 1.370 1_545 S
C128 H101 0.929 . S
C128 C127 1.363 . S
C128 C129 1.385 . S
C129 H103 0.930 . S
C129 C128 1.385 . S
C129 C130 1.357 . S
C130 C129 1.357 . S
C130 C131 1.406 1_545 S
C131 H105 0.929 . S
C131 C130 1.406 1_565 S
C131 C132 1.391 . S
C132 H104 0.931 . S
C132 C127 1.370 1_565 S
C132 C131 1.391 . S
C133 N102 1.435 . S
C133 C134 1.358 1_545 S
C133 C138 1.371 . S
C134 H106 0.930 . S
C134 C133 1.358 1_565 S
C134 C135 1.405 . S
C135 H107 0.932 . S
C135 C134 1.405 . S
C135 C136 1.383 1_565 S
C136 C135 1.383 1_545 S
C136 C137 1.393 . S
C137 H109 0.931 . S
C137 C136 1.393 . S
C137 C138 1.382 . S
C138 H108 0.929 . S
C138 C133 1.371 . S
C138 C137 1.382 . S
C139 N102 1.423 . S
C139 C140 1.362 . S
C139 C144 1.388 . S
C140 H110 0.929 . S
C140 C139 1.362 . S
C140 C141 1.376 . S
C141 H112 0.931 . S
C141 C140 1.376 . S
C141 C142 1.396 . S
C142 C141 1.396 . S
C142 C143 1.348 . S
C142 C160 1.472 . S
C143 H113 0.929 . S
C143 C142 1.348 . S
C143 C144 1.443 . S
C144 H111 0.932 1_545 S
C144 C139 1.388 . S
C144 C143 1.443 . S
C145 N125 1.433 . S
C145 C146 1.363 . S
C145 C150 1.370 1_545 S
C146 H114 0.929 . S
C146 C145 1.363 . S
C146 C147 1.385 . S
C147 H115 0.930 . S
C147 C146 1.385 . S
C147 C148 1.357 . S
C148 C147 1.357 . S
C148 C149 1.406 1_545 S
C149 H116 0.929 . S
C149 C148 1.406 1_565 S
C149 C150 1.391 . S
C150 H117 0.931 . S
C150 C145 1.370 1_565 S
C150 C149 1.391 . S
C151 N125 1.435 . S
C151 C152 1.358 1_545 S
C151 C156 1.371 . S
C152 H118 0.930 . S
C152 C151 1.358 1_565 S
C152 C153 1.405 . S
C153 H119 0.932 . S
C153 C152 1.405 . S
C153 C154 1.383 1_565 S
C154 C153 1.383 1_545 S
C154 C155 1.393 . S
C155 H120 0.931 . S
C155 C154 1.393 . S
C155 C156 1.382 . S
C156 H121 0.929 . S
C156 C151 1.371 . S
C156 C155 1.382 . S
C157 N125 1.423 . S
C157 C158 1.362 . S
C157 C162 1.388 . S
C158 H122 0.929 . S
C158 C157 1.362 . S
C158 C159 1.376 . S
C159 H123 0.931 . S
C159 C158 1.376 . S
C159 C160 1.396 . S
C160 C142 1.472 . S
C160 C159 1.396 . S
C160 C161 1.348 . S
C161 H124 0.929 . S
C161 C160 1.348 . S
C161 C162 1.443 . S
C162 H126 0.932 1_545 S
C162 C157 1.388 . S
C162 C161 1.443 . S
H163 C190 0.929 . S
N164 C189 1.433 . S
N164 C195 1.435 . S
N164 C201 1.423 . S
H165 C191 0.930 . S
H166 C194 0.931 . S
H167 C193 0.929 . S
H168 C196 0.930 . S
H169 C197 0.932 . S
H170 C200 0.929 . S
H171 C199 0.931 . S
H172 C202 0.929 . S
H173 C206 0.932 . S
H174 C203 0.931 . S
H175 C205 0.929 . S
H176 C208 0.929 . S
H177 C209 0.930 . S
H178 C211 0.929 . S
H179 C212 0.931 . S
H180 C214 0.930 . S
H181 C215 0.932 . S
H182 C217 0.931 . S
H183 C218 0.929 . S
H184 C220 0.929 . S
H185 C221 0.931 . S
H186 C223 0.929 . S
N187 C207 1.433 . S
N187 C213 1.435 . S
N187 C219 1.423 . S
H188 C224 0.932 . S
C189 N164 1.433 . S
C189 C190 1.363 . S
C189 C194 1.370 . S
C190 H163 0.929 . S
C190 C189 1.363 . S
C190 C191 1.385 . S
C191 H165 0.930 . S
C191 C190 1.385 . S
C191 C192 1.357 . S
C192 C191 1.357 . S
C192 C193 1.406 . S
C193 H167 0.929 . S
C193 C192 1.406 . S
C193 C194 1.391 . S
C194 H166 0.931 . S
C194 C189 1.370 . S
C194 C193 1.391 . S
C195 N164 1.435 . S
C195 C196 1.358 . S
C195 C200 1.371 . S
C196 H168 0.930 . S
C196 C195 1.358 . S
C196 C197 1.405 . S
C197 H169 0.932 . S
C197 C196 1.405 . S
C197 C198 1.383 . S
C198 C197 1.383 . S
C198 C199 1.393 . S
C199 H171 0.931 . S
C199 C198 1.393 . S
C199 C200 1.382 . S
C200 H170 0.929 . S
C200 C195 1.371 . S
C200 C199 1.382 . S
C201 N164 1.423 . S
C201 C202 1.362 . S
C201 C206 1.388 . S
C202 H172 0.929 . S
C202 C201 1.362 . S
C202 C203 1.376 . S
C203 H174 0.931 . S
C203 C202 1.376 . S
C203 C204 1.396 . S
C204 C203 1.396 . S
C204 C205 1.348 . S
C204 C222 1.472 . S
C205 H175 0.929 . S
C205 C204 1.348 . S
C205 C206 1.443 . S
C206 H173 0.932 . S
C206 C201 1.388 . S
C206 C205 1.443 . S
C207 N187 1.433 . S
C207 C208 1.363 . S
C207 C212 1.370 . S
C208 H176 0.929 . S
C208 C207 1.363 . S
C208 C209 1.385 . S
C209 H177 0.930 . S
C209 C208 1.385 . S
C209 C210 1.357 . S
C210 C209 1.357 . S
C210 C211 1.406 . S
C211 H178 0.929 . S
C211 C210 1.406 . S
C211 C212 1.391 . S
C212 H179 0.931 . S
C212 C207 1.370 . S
C212 C211 1.391 . S
C213 N187 1.435 . S
C213 C214 1.358 . S
C213 C218 1.371 . S
C214 H180 0.930 . S
C214 C213 1.358 . S
C214 C215 1.405 . S
C215 H181 0.932 . S
C215 C214 1.405 . S
C215 C216 1.383 . S
C216 C215 1.383 . S
C216 C217 1.393 . S
C217 H182 0.931 . S
C217 C216 1.393 . S
C217 C218 1.382 . S
C218 H183 0.929 . S
C218 C213 1.371 . S
C218 C217 1.382 . S
C219 N187 1.423 . S
C219 C220 1.362 . S
C219 C224 1.388 . S
C220 H184 0.929 . S
C220 C219 1.362 . S
C220 C221 1.376 . S
C221 H185 0.931 . S
C221 C220 1.376 . S
C221 C222 1.396 . S
C222 C204 1.472 . S
C222 C221 1.396 . S
C222 C223 1.348 . S
C223 H186 0.929 . S
C223 C222 1.348 . S
C223 C224 1.443 . S
C224 H188 0.932 . S
C224 C219 1.388 . S
C224 C223 1.443 . S
C225 C226 1.369 . S
C225 C227 1.419 . S
C225 H229 0.930 . S
C226 C225 1.369 . S
C226 C235 1.429 1_655 S
C227 C225 1.419 . S
C227 C228 1.363 1_655 S
C227 H230 0.929 . S
C228 C227 1.363 1_455 S
C228 C234 1.428 . S
H229 C225 0.930 . S
H230 C227 0.929 . S
S231 N232 1.613 . S
S231 N233 1.610 . S
N232 S231 1.613 . S
N232 C235 1.350 . S
N233 S231 1.610 . S
N233 C234 1.351 . S
C234 C228 1.428 . S
C234 N233 1.351 . S
C234 C235 1.434 . S
C235 C226 1.429 1_455 S
C235 N232 1.350 . S
C235 C234 1.434 . S
C236 C237 1.369 . S
C236 C238 1.419 . S
C236 H240 0.930 . S
C237 C236 1.369 . S
C237 C246 1.429 1_545 S
C238 C236 1.419 . S
C238 C239 1.363 . S
C238 H241 0.929 . S
C239 C238 1.363 . S
C239 C245 1.428 1_545 S
H240 C236 0.930 . S
H241 C238 0.929 . S
S242 N243 1.613 . S
S242 N244 1.610 . S
N243 S242 1.613 . S
N243 C246 1.350 . S
N244 S242 1.610 . S
N244 C245 1.351 . S
C245 C239 1.428 1_565 S
C245 N244 1.351 . S
C245 C246 1.434 . S
C246 C237 1.429 1_565 S
C246 N243 1.350 . S
C246 C245 1.434 . S
C247 C248 1.369 . S
C247 C249 1.419 . S
C247 H251 0.930 . S
C248 C247 1.369 . S
C248 C257 1.429 . S
C249 C247 1.419 . S
C249 C250 1.363 . S
C249 H252 0.929 . S
C250 C249 1.363 . S
C250 C256 1.428 . S
H251 C247 0.930 . S
H252 C249 0.929 . S
S253 N254 1.613 . S
S253 N255 1.610 . S
N254 S253 1.613 . S
N254 C257 1.350 . S
N255 S253 1.610 . S
N255 C256 1.351 . S
C256 C250 1.428 . S
C256 N255 1.351 . S
C256 C257 1.434 . S
C257 C248 1.429 . S
C257 N254 1.350 . S
C257 C256 1.434 . S
C258 C259 1.369 . S
C258 C260 1.419 . S
C258 H262 0.930 . S
C259 C258 1.369 . S
C259 C268 1.429 1_455 S
C260 C258 1.419 . S
C260 C261 1.363 . S
C260 H263 0.929 . S
C261 C260 1.363 . S
C261 C267 1.428 1_455 S
H262 C258 0.930 . S
H263 C260 0.929 . S
S264 N265 1.613 . S
S264 N266 1.610 . S
N265 S264 1.613 . S
N265 C268 1.350 . S
N266 S264 1.610 . S
N266 C267 1.351 . S
C267 C261 1.428 1_655 S
C267 N266 1.351 . S
C267 C268 1.434 . S
C268 C259 1.429 1_655 S
C268 N265 1.350 . S
C268 C267 1.434 . S
C269 C270 1.369 1_565 S
C269 C271 1.419 . S
C269 H273 0.930 . S
C270 C269 1.369 1_545 S
C270 C279 1.429 . S
C271 C269 1.419 . S
C271 C272 1.363 1_565 S
C271 H274 0.929 . S
C272 C271 1.363 1_545 S
C272 C278 1.428 . S
H273 C269 0.930 . S
H274 C271 0.929 . S
S275 N276 1.613 . S
S275 N277 1.610 . S
N276 S275 1.613 . S
N276 C279 1.350 . S
N277 S275 1.610 . S
N277 C278 1.351 . S
C278 C272 1.428 . S
C278 N277 1.351 . S
C278 C279 1.434 . S
C279 C270 1.429 . S
C279 N276 1.350 . S
C279 C278 1.434 . S
C280 C281 1.369 . S
C280 C282 1.419 . S
C280 H284 0.930 . S
C281 C280 1.369 . S
C281 C290 1.429 . S
C282 C280 1.419 . S
C282 C283 1.363 . S
C282 H285 0.929 . S
C283 C282 1.363 . S
C283 C289 1.428 . S
H284 C280 0.930 . S
H285 C282 0.929 . S
S286 N287 1.613 . S
S286 N288 1.610 . S
N287 S286 1.613 . S
N287 C290 1.350 . S
N288 S286 1.610 . S
N288 C289 1.351 . S
C289 C283 1.428 . S
C289 N288 1.351 . S
C289 C290 1.434 . S
C290 C281 1.429 . S
C290 N287 1.350 . S
C290 C289 1.434 . S
C291 C292 1.369 . S
C291 C293 1.419 . S
C291 H295 0.930 . S
C292 C291 1.369 . S
C292 C301 1.429 1_545 S
C293 C291 1.419 . S
C293 C294 1.363 . S
C293 H296 0.929 . S
C294 C293 1.363 . S
C294 C300 1.428 1_545 S
H295 C291 0.930 . S
H296 C293 0.929 . S
S297 N298 1.613 . S
S297 N299 1.610 . S
N298 S297 1.613 . S
N298 C301 1.350 . S
N299 S297 1.610 . S
N299 C300 1.351 . S
C300 C294 1.428 1_565 S
C300 N299 1.351 . S
C300 C301 1.434 . S
C301 C292 1.429 1_565 S
C301 N298 1.350 . S
C301 C300 1.434 . S
C302 C303 1.369 . S
C302 C304 1.419 . S
C302 H306 0.930 . S
C303 C302 1.369 . S
C303 C312 1.429 . S
C304 C302 1.419 . S
C304 C305 1.363 . S
C304 H307 0.929 . S
C305 C304 1.363 . S
C305 C311 1.428 . S
H306 C302 0.930 . S
H307 C304 0.929 . S
S308 N309 1.613 1_556 S
S308 N310 1.610 . S
N309 S308 1.613 1_554 S
N309 C312 1.350 1_554 S
N310 S308 1.610 . S
N310 C311 1.351 . S
C311 C305 1.428 . S
C311 N310 1.351 . S
C311 C312 1.434 . S
C312 C303 1.429 . S
C312 N309 1.350 1_556 S
C312 C311 1.434 . S
C313 C314 1.369 1_655 S
C313 C315 1.419 . S
C313 H317 0.930 . S
C314 C313 1.369 1_455 S
C314 C323 1.429 . S
C315 C313 1.419 . S
C315 C316 1.363 1_655 S
C315 H318 0.929 . S
C316 C315 1.363 1_455 S
C316 C322 1.428 . S
H317 C313 0.930 . S
H318 C315 0.929 . S
S319 N320 1.613 . S
S319 N321 1.610 . S
N320 S319 1.613 . S
N320 C323 1.350 . S
N321 S319 1.610 . S
N321 C322 1.351 . S
C322 C316 1.428 . S
C322 N321 1.351 . S
C322 C323 1.434 . S
C323 C314 1.429 . S
C323 N320 1.350 . S
C323 C322 1.434 . S
C324 C325 1.369 . S
C324 C326 1.419 . S
C324 H328 0.930 . S
C325 C324 1.369 . S
C325 C334 1.429 1_565 S
C326 C324 1.419 . S
C326 C327 1.363 1_565 S
C326 H329 0.929 . S
C327 C326 1.363 1_545 S
C327 C333 1.428 . S
H328 C324 0.930 . S
H329 C326 0.929 . S
S330 N331 1.613 . S
S330 N332 1.610 . S
N331 S330 1.613 . S
N331 C334 1.350 . S
N332 S330 1.610 . S
N332 C333 1.351 . S
C333 C327 1.428 . S
C333 N332 1.351 . S
C333 C334 1.434 . S
C334 C325 1.429 1_545 S
C334 N331 1.350 . S
C334 C333 1.434 . S
C335 C336 1.369 . S
C335 C337 1.419 . S
C335 H339 0.930 1_556 S
C336 C335 1.369 . S
C336 C345 1.429 . S
C337 C335 1.419 . S
C337 C338 1.363 . S
C337 H340 0.929 . S
C338 C337 1.363 . S
C338 C344 1.428 . S
H339 C335 0.930 1_554 S
H340 C337 0.929 . S
S341 N342 1.613 . S
S341 N343 1.610 . S
N342 S341 1.613 . S
N342 C345 1.350 . S
N343 S341 1.610 . S
N343 C344 1.351 . S
C344 C338 1.428 . S
C344 N343 1.351 . S
C344 C345 1.434 . S
C345 C336 1.429 . S
C345 N342 1.350 . S
C345 C344 1.434 . S
C346 C347 1.369 . S
C346 C348 1.419 . S
C346 H350 0.930 . S
C347 C346 1.369 . S
C347 C356 1.429 . S
C348 C346 1.419 . S
C348 C349 1.363 . S
C348 H351 0.929 . S
C349 C348 1.363 . S
C349 C355 1.428 . S
H350 C346 0.930 . S
H351 C348 0.929 . S
S352 N353 1.613 . S
S352 N354 1.610 . S
N353 S352 1.613 . S
N353 C356 1.350 . S
N354 S352 1.610 . S
N354 C355 1.351 . S
C355 C349 1.428 . S
C355 N354 1.351 . S
C355 C356 1.434 . S
C356 C347 1.429 . S
C356 N353 1.350 . S
C356 C355 1.434 . S
C228 C92 1.339 . S
C226 C10 1.341 . S
C237 C21 1.338 . S
C239 C136 1.403 . S
C248 C31 1.333 . S
C250 C198 1.436 . S
C259 C0 1.300 . S
C261 C74 1.393 . S
C272 C154 1.390 . S
C270 C18 1.323 . S
C281 C34 1.313 . S
C283 C216 1.376 . S
C294 C130 1.489 . S
C292 C36 1.604 . S
C303 C8 1.649 . S
C305 C192 1.538 . S
C316 C68 1.508 . S
C314 C23 1.623 . S
C327 C148 1.490 . S
C325 C26 1.570 . S
C338 C210 1.596 . S
C336 C5 1.584 1_556 S
C347 C13 1.625 . S
C349 C86 1.556 . S
