# Generated by pormake.
# Topology pth, (4,4)-cn, num edge types: 1
# Building blocks:
#     Node 0, Type 0, BuildingBlock: UXUYUI_clean_sbu_0, # of connection points: 4
#     Node 1, Type 0, BuildingBlock: UXUYUI_clean_sbu_0, # of connection points: 4
#     Node 2, Type 0, BuildingBlock: UXUYUI_clean_sbu_0, # of connection points: 4
#     Node 3, Type 1, BuildingBlock: MUDLON_clean_linker_0, # of connection points: 4
#     Node 4, Type 1, BuildingBlock: MUDLON_clean_linker_0, # of connection points: 4
#     Node 5, Type 1, BuildingBlock: MUDLON_clean_linker_0, # of connection points: 4
#     Edge 6, Type (0, 1), BuildingBlock: XIVTED_clean_linker_0, # of connection points: 2
#     Edge 7, Type (0, 1), BuildingBlock: XIVTED_clean_linker_0, # of connection points: 2
#     Edge 8, Type (0, 1), BuildingBlock: XIVTED_clean_linker_0, # of connection points: 2
#     Edge 9, Type (0, 1), BuildingBlock: XIVTED_clean_linker_0, # of connection points: 2
#     Edge 10, Type (0, 1), BuildingBlock: XIVTED_clean_linker_0, # of connection points: 2
#     Edge 11, Type (0, 1), BuildingBlock: XIVTED_clean_linker_0, # of connection points: 2
#     Edge 12, Type (0, 1), BuildingBlock: XIVTED_clean_linker_0, # of connection points: 2
#     Edge 13, Type (0, 1), BuildingBlock: XIVTED_clean_linker_0, # of connection points: 2
#     Edge 14, Type (0, 1), BuildingBlock: XIVTED_clean_linker_0, # of connection points: 2
#     Edge 15, Type (0, 1), BuildingBlock: XIVTED_clean_linker_0, # of connection points: 2
#     Edge 16, Type (0, 1), BuildingBlock: XIVTED_clean_linker_0, # of connection points: 2
#     Edge 17, Type (0, 1), BuildingBlock: XIVTED_clean_linker_0, # of connection points: 2
# Relax obj value: 0.088
# Max RMSD: 0.213
# Mean RMSD: 0.143
data_MOF--net-pth--node1-UXUYUI_clean_sbu_0--node2-MUDLON_clean_linker_0--edge1-XIVTED_clean_linker_0
_symmetry_space_group_name_H-M    P1
_symmetry_Int_Tables_number       1
_symmetry_cell_setting            triclinic
loop_
_symmetry_equiv_pos_as_xyz
'x, y, z'
_cell_length_a     39.471187
_cell_length_b     39.456223
_cell_length_c     79.633472
_cell_angle_alpha  90.0647
_cell_angle_beta   90.035337
_cell_angle_gamma 119.98048
loop_
_atom_site_label
_atom_site_type_symbol
_atom_site_fract_x
_atom_site_fract_y
_atom_site_fract_z
_atom_type_partial_charge
Li0 Li 0.04587 0.03501 0.02745 0.0
Li1 Li 1e-05 0.02458 0.04851 0.0
Li2 Li 0.02444 0.97952 0.04619 0.0
Li3 Li 0.97642 0.97824 0.0253 0.0
C4 C 0.09434 0.05867 0.05256 0.0
N5 N 0.17488 0.10547 0.05215 0.0
C6 C 0.11214 0.09652 0.05927 0.0
C7 C 0.11761 0.04474 0.04567 0.0
C8 C 0.15287 0.1197 0.05894 0.0
C9 C 0.15823 0.06878 0.04557 0.0
C10 C 0.97733 0.05617 0.02382 0.0
C11 C 0.91968 0.06054 0.01798 0.0
N12 N 0.9392 0.0988 0.02271 0.0
C13 C 0.99693 0.09562 0.0285 0.0
C14 C 0.93846 0.0385 0.01843 0.0
C15 C 0.97709 0.11663 0.02791 0.0
C16 C 0.09883 0.0651 -8e-05 0.0
N17 N 0.08668 0.07439 0.01427 0.0
C18 C 0.12868 0.14262 0.00921 0.0
C19 C 0.10095 0.11221 0.01902 0.0
C20 C 0.1413 0.13415 0.9941 0.0
C21 C 0.12635 0.0947 0.98959 0.0
H22 H 0.08628 0.0348 0.99623 0.0
H23 H 0.09029 0.11884 0.03031 0.0
C24 C 0.0102 0.07141 0.07663 0.0
N25 N 0.98422 0.0508 0.06428 0.0
C26 C 0.00303 0.09467 0.08759 0.0
C27 C 0.94092 0.07272 0.0738 0.0
C28 C 0.94946 0.05003 0.06302 0.0
C29 C 0.96839 0.09617 0.08601 0.0
H30 H 0.03669 0.07005 0.07789 0.0
H31 H 0.92867 0.03249 0.05343 0.0
C32 C 0.03419 0.95027 0.0166 0.0
N33 N 0.04777 0.8903 0.00779 0.0
C34 C 0.00306 0.91188 0.01536 0.0
C35 C 0.07219 0.95822 0.01313 0.0
C36 C 0.01053 0.88195 0.01096 0.0
C37 C 0.07846 0.92749 0.00876 0.0
C38 C 0.94887 0.96048 0.06392 0.0
C39 C 0.967 0.96343 0.07936 0.0
C40 C 0.91033 0.95299 0.06349 0.0
C41 C 0.9462 0.95884 0.09417 0.0
C42 C 0.89052 0.94859 0.07859 0.0
N43 N 0.90872 0.95158 0.09348 0.0
C44 C 0.06729 0.95354 0.06712 0.0
C45 C 0.00519 0.90565 0.05686 0.0
C46 C 0.07104 0.92498 0.07597 0.0
N47 N 0.03478 0.94335 0.05773 0.0
C48 C 0.00768 0.87627 0.06546 0.0
C49 C 0.04085 0.88571 0.07526 0.0
H50 H 0.08991 0.98383 0.06812 0.0
H51 H 0.97908 0.89856 0.04979 0.0
C52 C 0.94235 0.9504 0.99376 0.0
N53 N 0.93585 0.94475 0.01054 0.0
C54 C 0.91564 0.92316 0.9824 0.0
C55 C 0.87549 0.88561 0.00583 0.0
C56 C 0.9031 0.91345 0.01674 0.0
C57 C 0.88202 0.88988 0.98842 0.0
H58 H 0.96898 0.97536 0.98925 0.0
H59 H 0.89928 0.90919 0.03015 0.0
O60 O 0.05441 0.03562 0.05239 0.0
O61 O 0.99618 0.03504 0.02426 0.0
O62 O 0.02746 0.97996 0.021 0.0
O63 O 0.96913 0.96588 0.04931 0.0
H64 H 0.09482 0.10833 0.06436 0.0
H65 H 0.10437 0.01564 0.04042 0.0
H66 H 0.16697 0.14909 0.06399 0.0
H67 H 0.1765 0.05829 0.04024 0.0
H68 H 0.88955 0.04721 0.0139 0.0
H69 H 0.0269 0.10969 0.03279 0.0
H70 H 0.92289 0.00804 0.01472 0.0
H71 H 0.99179 0.14708 0.03163 0.0
H72 H 0.13974 0.17248 0.01335 0.0
H73 H 0.13469 0.08675 0.97793 0.0
H74 H 0.02444 0.11144 0.09717 0.0
H75 H 0.91374 0.07287 0.07224 0.0
H76 H 0.97347 0.90509 0.018 0.0
H77 H 0.09662 0.9878 0.01371 0.0
H78 H 0.98672 0.85207 0.0101 0.0
H79 H 0.10773 0.93322 0.00609 0.0
H80 H 0.99697 0.96966 0.0799 0.0
H81 H 0.89608 0.95124 0.05165 0.0
H82 H 0.9599 0.96118 0.10621 0.0
H83 H 0.86076 0.94299 0.07846 0.0
H84 H 0.09709 0.93361 0.08341 0.0
H85 H 0.98317 0.84667 0.06491 0.0
H86 H 0.92161 0.92767 0.96907 0.0
H87 H 0.85029 0.86008 0.01099 0.0
Li88 Li 0.99425 0.96319 0.35751 0.0
Li89 Li 0.03723 0.00446 0.37977 0.0
Li90 Li 0.96567 0.98299 0.37929 0.0
Li91 Li 0.01075 0.03362 0.35986 0.0
C92 C 0.98592 0.91408 0.38213 0.0
N93 N 0.97606 0.83966 0.3816 0.0
C94 C 0.0174 0.90843 0.38577 0.0
C95 C 0.94932 0.88186 0.37843 0.0
C96 C 0.01184 0.87058 0.38539 0.0
C97 C 0.94497 0.84448 0.37815 0.0
C98 C 0.08282 0.03342 0.34878 0.0
C99 C 0.14079 0.09559 0.34348 0.0
N100 N 0.1574 0.07677 0.33571 0.0
C101 C 0.10027 0.01477 0.34051 0.0
C102 C 0.10307 0.07422 0.35008 0.0
C103 C 0.13806 0.03716 0.33409 0.0
C104 C 0.95556 0.90738 0.33157 0.0
N105 N 0.9864 0.92262 0.34235 0.0
C106 C 0.00808 0.88012 0.33162 0.0
C107 C 0.0125 0.9097 0.34255 0.0
C108 C 0.97654 0.86378 0.3203 0.0
C109 C 0.94997 0.87769 0.32041 0.0
H110 H 0.9355 0.91851 0.33153 0.0
H111 H 0.03679 0.92237 0.35124 0.0
C112 C 0.07498 0.01711 0.41072 0.0
N113 N 0.07995 0.01438 0.394 0.0
C114 C 0.1047 0.02368 0.42202 0.0
C115 C 0.14408 0.02428 0.39867 0.0
C116 C 0.11351 0.01752 0.38784 0.0
C117 C 0.13992 0.02742 0.41604 0.0
H118 H 0.04773 0.01394 0.41528 0.0
H119 H 0.11656 0.01447 0.37457 0.0
C120 C 0.92188 0.97694 0.35285 0.0
N121 N 0.84488 0.95916 0.35035 0.0
C122 C 0.91305 0.00621 0.34895 0.0
C123 C 0.89155 0.93855 0.35526 0.0
C124 C 0.87393 0.99665 0.34778 0.0
C125 C 0.85282 0.93018 0.35402 0.0
C126 C 0.02993 0.06923 0.39361 0.0
C127 C 0.00913 0.08005 0.40448 0.0
C128 C 0.07046 0.09311 0.39226 0.0
C129 C 0.02914 0.11494 0.41355 0.0
C130 C 0.08944 0.12773 0.40157 0.0
N131 N 0.06855 0.13788 0.41192 0.0
C132 C 0.9007 0.93768 0.40144 0.0
C133 C 0.90953 0.99832 0.39169 0.0
C134 C 0.86781 0.93114 0.41068 0.0
N135 N 0.92074 0.97094 0.39225 0.0
C136 C 0.87687 0.99292 0.40058 0.0
C137 C 0.85556 0.95905 0.41029 0.0
H138 H 0.91035 0.91641 0.40166 0.0
H139 H 0.92625 0.0246 0.38436 0.0
C140 C 0.02659 0.08229 0.33159 0.0
N141 N 0.01821 0.07877 0.34826 0.0
C142 C 0.02684 0.11245 0.32231 0.0
C143 C 0.0109 0.13529 0.34766 0.0
C144 C 0.01086 0.10468 0.35641 0.0
C145 C 0.01809 0.13898 0.3303 0.0
H146 H 0.03162 0.06078 0.32539 0.0
H147 H 0.00329 0.10068 0.36956 0.0
O148 O 0.99093 0.95096 0.38221 0.0
O149 O 0.04567 0.01185 0.35503 0.0
O150 O 0.96 0.9859 0.35438 0.0
O151 O 0.01068 0.03501 0.38469 0.0
H152 H 0.04589 0.93303 0.3887 0.0
H153 H 0.92462 0.88569 0.37569 0.0
H154 H 0.03599 0.86579 0.38808 0.0
H155 H 0.91688 0.81931 0.37519 0.0
H156 H 0.15679 0.12716 0.34447 0.0
H157 H 0.08494 0.98333 0.33912 0.0
H158 H 0.08974 0.08938 0.35592 0.0
H159 H 0.15199 0.02305 0.32778 0.0
H160 H 0.02899 0.86998 0.33211 0.0
H161 H 0.92557 0.86631 0.31173 0.0
H162 H 0.09982 0.02512 0.43532 0.0
H163 H 0.17077 0.02727 0.39346 0.0
H164 H 0.9361 0.03604 0.34696 0.0
H165 H 0.89785 0.91554 0.35824 0.0
H166 H 0.86668 0.01905 0.34488 0.0
H167 H 0.82906 0.90065 0.35599 0.0
H168 H 0.97785 0.06175 0.40591 0.0
H169 H 0.08727 0.08472 0.38438 0.0
H170 H 0.01335 0.12372 0.42194 0.0
H171 H 0.12081 0.14642 0.40064 0.0
H172 H 0.85211 0.90461 0.41799 0.0
H173 H 0.86903 0.01558 0.40018 0.0
H174 H 0.03195 0.11379 0.30891 0.0
H175 H 0.00436 0.15524 0.35436 0.0
Li176 Li 0.02662 0.98385 0.69264 0.0
Li177 Li 0.0249 0.02991 0.71262 0.0
Li178 Li 0.97764 0.95987 0.71402 0.0
Li179 Li 0.9746 0.00023 0.69163 0.0
C180 C 0.03773 0.96863 0.73117 0.0
N181 N 0.03916 0.93101 0.76017 0.0
C182 C 0.04469 0.98761 0.74668 0.0
C183 C 0.03172 0.93062 0.73039 0.0
C184 C 0.04528 0.96807 0.7612 0.0
C185 C 0.03246 0.91206 0.7452 0.0
C186 C 0.06069 0.0726 0.68611 0.0
C187 C 0.08566 0.14217 0.68785 0.0
N188 N 0.122 0.14868 0.684 0.0
C189 C 0.09827 0.07999 0.68213 0.0
C190 C 0.05427 0.10392 0.68894 0.0
C191 C 0.12887 0.11866 0.68112 0.0
C192 C 0.06274 0.98152 0.66268 0.0
N193 N 0.06088 0.97421 0.67942 0.0
C194 C 0.11247 0.95942 0.67731 0.0
C195 C 0.08478 0.96308 0.68684 0.0
C196 C 0.11556 0.96744 0.66001 0.0
C197 C 0.08985 0.97809 0.65267 0.0
H198 H 0.04391 0.99118 0.65721 0.0
H199 H 0.08304 0.95802 0.70022 0.0
C200 C 0.04003 0.09093 0.73559 0.0
N201 N 0.05669 0.07522 0.72568 0.0
C202 C 0.06336 0.12297 0.74587 0.0
C203 C 0.12049 0.12235 0.73532 0.0
C204 C 0.09604 0.09001 0.72544 0.0
C205 C 0.10413 0.13896 0.74584 0.0
H206 H 0.00861 0.0781 0.73577 0.0
H207 H 0.10834 0.07624 0.71776 0.0
C208 C 0.96918 0.92518 0.67696 0.0
N209 N 0.97195 0.88168 0.65034 0.0
C210 C 0.96084 0.93215 0.66069 0.0
C211 C 0.97874 0.89597 0.67971 0.0
C212 C 0.96241 0.90984 0.64739 0.0
C213 C 0.98008 0.87435 0.66607 0.0
C214 C 0.93598 0.0085 0.71647 0.0
C215 C 0.89919 0.976 0.71957 0.0
C216 C 0.93916 0.04471 0.713 0.0
C217 C 0.86612 0.98023 0.71904 0.0
C218 C 0.90538 0.04771 0.71255 0.0
N219 N 0.86987 0.01569 0.71555 0.0
C220 C 0.94328 0.9281 0.745 0.0
C221 C 0.92592 0.88093 0.72335 0.0
C222 C 0.91851 0.89931 0.75624 0.0
N223 N 0.94638 0.91848 0.72891 0.0
C224 C 0.9007 0.85113 0.73418 0.0
C225 C 0.89639 0.86027 0.75082 0.0
H226 H 0.95956 0.95835 0.74897 0.0
H227 H 0.92844 0.87426 0.71041 0.0
C228 C 0.95176 0.03993 0.66847 0.0
N229 N 0.93942 0.00665 0.67753 0.0
C230 C 0.92547 0.04451 0.65833 0.0
C231 C 0.87445 0.98031 0.66691 0.0
C232 C 0.90173 0.97696 0.67685 0.0
C233 C 0.88619 0.01446 0.65746 0.0
H234 H 0.98202 0.06281 0.66905 0.0
H235 H 0.89289 0.9507 0.68411 0.0
O236 O 0.03626 0.98695 0.71684 0.0
O237 O 0.03042 0.03493 0.68738 0.0
O238 O 0.96847 0.94715 0.6901 0.0
O239 O 0.96862 0.00478 0.71654 0.0
H240 H 0.04923 0.01695 0.74753 0.0
H241 H 0.02601 0.91541 0.7185 0.0
H242 H 0.05047 0.98233 0.7733 0.0
H243 H 0.02758 0.88254 0.7448 0.0
H244 H 0.08115 0.16666 0.69012 0.0
H245 H 0.1039 0.05618 0.68001 0.0
H246 H 0.02548 0.09877 0.69219 0.0
H247 H 0.15813 0.1248 0.67812 0.0
H248 H 0.13159 0.95093 0.68344 0.0
H249 H 0.09169 0.98528 0.63946 0.0
H250 H 0.04969 0.13498 0.75384 0.0
H251 H 0.15173 0.13339 0.73518 0.0
H252 H 0.95363 0.9548 0.65831 0.0
H253 H 0.98558 0.89041 0.6922 0.0
H254 H 0.95619 0.91502 0.63472 0.0
H255 H 0.98768 0.85183 0.668 0.0
H256 H 0.8961 0.94768 0.72214 0.0
H257 H 0.96737 0.0701 0.71047 0.0
H258 H 0.83745 0.95529 0.72133 0.0
H259 H 0.90739 0.07549 0.70976 0.0
H260 H 0.91648 0.9076 0.76901 0.0
H261 H 0.88381 0.82154 0.72941 0.0
H262 H 0.93598 0.07101 0.65102 0.0
H263 H 0.84443 0.95657 0.66676 0.0
H264 H 0.87983 0.61327 0.20177 0.0
N265 N 0.92838 0.58807 0.19301 0.0
H266 H 0.88684 0.65678 0.22507 0.0
H267 H 0.98603 0.61608 0.21689 0.0
H268 H 0.99308 0.65912 0.24041 0.0
H269 H 0.0071 0.63701 0.18854 0.0
H270 H 0.03779 0.68434 0.16576 0.0
H271 H 0.89423 0.59404 0.16536 0.0
H272 H 0.92464 0.64095 0.14243 0.0
H273 H 0.89516 0.5363 0.21801 0.0
H274 H 0.96832 0.55979 0.17417 0.0
H275 H 0.89629 0.47613 0.22268 0.0
H276 H 0.96761 0.4988 0.1784 0.0
H277 H 0.87497 0.27156 0.22786 0.0
H278 H 0.89695 0.24913 0.25192 0.0
H279 H 0.0137 0.3476 0.24588 0.0
H280 H 0.9915 0.36959 0.22181 0.0
H281 H 0.98622 0.33952 0.19469 0.0
H282 H 0.99186 0.30262 0.17147 0.0
H283 H 0.86701 0.24649 0.16324 0.0
H284 H 0.86157 0.28273 0.18709 0.0
H285 H 0.86378 0.34968 0.21388 0.0
H286 H 0.86848 0.41342 0.21076 0.0
H287 H 0.98902 0.46309 0.19517 0.0
N288 N 0.91812 0.33097 0.20768 0.0
H289 H 0.98319 0.39871 0.19752 0.0
C290 C 0.93227 0.61151 0.2076 0.0
C291 C 0.90438 0.62297 0.21028 0.0
C292 C 0.90839 0.64765 0.22363 0.0
C293 C 0.94054 0.66144 0.23461 0.0
C294 C 0.96826 0.64943 0.23206 0.0
C295 C 0.96421 0.62473 0.21867 0.0
C296 C 0.94819 0.6123 0.17868 0.0
C297 C 0.98899 0.63752 0.17846 0.0
C298 C 0.00648 0.6645 0.16544 0.0
C299 C 0.9836 0.66648 0.15236 0.0
C300 C 0.94313 0.63987 0.15222 0.0
C301 C 0.92566 0.61316 0.1653 0.0
C302 C 0.93268 0.55408 0.1961 0.0
C303 C 0.91203 0.52905 0.20952 0.0
C304 C 0.91218 0.49416 0.21205 0.0
C305 C 0.93196 0.48243 0.20089 0.0
C306 C 0.9527 0.50723 0.18745 0.0
C307 C 0.95299 0.54249 0.18502 0.0
C308 C 0.93139 0.32204 0.22301 0.0
C309 C 0.9051 0.28862 0.23196 0.0
C310 C 0.91773 0.27598 0.24571 0.0
C311 C 0.95714 0.29655 0.25077 0.0
C312 C 0.98326 0.33091 0.24216 0.0
C313 C 0.9705 0.34363 0.22842 0.0
C314 C 0.92326 0.31354 0.19272 0.0
C315 C 0.96009 0.31965 0.18782 0.0
C316 C 0.9633 0.29859 0.17441 0.0
C317 C 0.92983 0.27127 0.16553 0.0
C318 C 0.89329 0.26669 0.17 0.0
C319 C 0.89012 0.28757 0.18349 0.0
C320 C 0.92301 0.36946 0.20609 0.0
C321 C 0.89118 0.37444 0.20983 0.0
C322 C 0.89411 0.411 0.20817 0.0
C323 C 0.9293 0.44364 0.20286 0.0
C324 C 0.96139 0.43859 0.19915 0.0
C325 C 0.95823 0.40179 0.20066 0.0
H326 H 0.7327 0.10333 0.53944 0.0
N327 N 0.66023 0.05562 0.52911 0.0
H328 H 0.76525 0.09626 0.56423 0.0
H329 H 0.6256 -0.00015 0.55349 0.0
H330 H 0.65776 0.99259 0.57844 0.0
H331 H 0.63796 0.97786 0.52648 0.0
H332 H 0.65603 0.94781 0.50401 0.0
H333 H 0.69464 0.08808 0.50028 0.0
H334 H 0.71312 0.05832 0.47773 0.0
H335 H 0.65205 0.11539 0.53852 0.0
H336 H 0.5856 0.9944 0.52344 0.0
H337 H 0.59171 0.11735 0.54192 0.0
H338 H 0.52528 0.99668 0.52566 0.0
H339 H 0.41441 0.10222 0.57096 0.0
H340 H 0.36589 0.07484 0.59346 0.0
H341 H 0.30859 0.96357 0.56758 0.0
H342 H 0.35637 0.99145 0.54505 0.0
H343 H 0.38391 0.01213 0.51767 0.0
H344 H 0.34121 0.00873 0.49468 0.0
H345 H 0.35724 0.1213 0.50959 0.0
H346 H 0.39822 0.12324 0.53302 0.0
H347 H 0.48324 0.12329 0.53128 0.0
H348 H 0.54223 0.1192 0.527 0.0
H349 H 0.48076 0.99918 0.54418 0.0
N350 N 0.41422 0.06821 0.54216 0.0
H351 H 0.42151 0.00281 0.54726 0.0
C352 C 0.67698 0.05221 0.54464 0.0
C353 C 0.71615 0.07944 0.54806 0.0
C354 C 0.73456 0.07541 0.56225 0.0
C355 C 0.71406 0.04383 0.5733 0.0
C356 C 0.67441 0.01699 0.57007 0.0
C357 C 0.65595 0.02118 0.55587 0.0
C358 C 0.66529 0.03547 0.51508 0.0
C359 C 0.65383 0.99551 0.51579 0.0
C360 C 0.6643 0.97835 0.50295 0.0
C361 C 0.68625 0.00073 0.48915 0.0
C362 C 0.69585 0.04013 0.48809 0.0
C363 C 0.68548 0.05726 0.50096 0.0
C364 C 0.62359 0.05515 0.53051 0.0
C365 C 0.62438 0.08942 0.53571 0.0
C366 C 0.5898 0.0905 0.5375 0.0
C367 C 0.5534 0.05731 0.53385 0.0
C368 C 0.55262 0.02273 0.52874 0.0
C369 C 0.58732 0.0215 0.52726 0.0
C370 C 0.38913 0.04913 0.55634 0.0
C371 C 0.39182 0.07172 0.57037 0.0
C372 C 0.36413 0.05593 0.58322 0.0
C373 C 0.33312 0.01705 0.58225 0.0
C374 C 0.33169 0.9938 0.56858 0.0
C375 C 0.35926 0.00969 0.55571 0.0
C376 C 0.39371 0.0678 0.52715 0.0
C377 C 0.37831 0.03609 0.5159 0.0
C378 C 0.35415 0.03438 0.50268 0.0
C379 C 0.34531 0.06452 0.50039 0.0
C380 C 0.36259 0.09712 0.5112 0.0
C381 C 0.38634 0.09855 0.52448 0.0
C382 C 0.44805 0.06381 0.53982 0.0
C383 C 0.48257 0.09609 0.53403 0.0
C384 C 0.51636 0.09372 0.53175 0.0
C385 C 0.51664 0.059 0.53548 0.0
C386 C 0.48171 0.02632 0.54102 0.0
C387 C 0.44764 0.02852 0.54299 0.0
H388 H 0.63475 0.64748 0.88213 0.0
N389 N 0.64572 0.5866 0.87297 0.0
H390 H 0.67095 0.6963 0.9038 0.0
H391 H 0.69447 0.58505 0.89558 0.0
H392 H 0.73061 0.63366 0.91748 0.0
H393 H 0.70905 0.59068 0.85917 0.0
H394 H 0.74822 0.63279 0.83603 0.0
H395 H 0.62643 0.63098 0.853 0.0
H396 H 0.66477 0.67239 0.82968 0.0
H397 H 0.58987 0.57518 0.89703 0.0
H398 H 0.60391 0.54022 0.84714 0.0
H399 H 0.51978 0.53473 0.89442 0.0
H400 H 0.53324 0.49985 0.84462 0.0
H401 H 0.28987 0.40232 0.88369 0.0
H402 H 0.25876 0.3597 0.90783 0.0
H403 H 0.35498 0.33701 0.91102 0.0
H404 H 0.38491 0.37816 0.88663 0.0
H405 H 0.34304 0.34177 0.8602 0.0
H406 H 0.30311 0.29907 0.83749 0.0
H407 H 0.28272 0.39018 0.81905 0.0
H408 H 0.32248 0.43302 0.84217 0.0
H409 H 0.39337 0.48824 0.87802 0.0
H410 H 0.46443 0.5316 0.87887 0.0
H411 H 0.47988 0.44028 0.85663 0.0
N412 N 0.35396 0.41456 0.86765 0.0
H413 H 0.4093 0.39759 0.85564 0.0
C414 C 0.66193 0.61247 0.88727 0.0
C415 C 0.65522 0.64395 0.88992 0.0
C416 C 0.67576 0.67172 0.90239 0.0
C417 C 0.70378 0.66891 0.91226 0.0
C418 C 0.70948 0.63678 0.90994 0.0
C419 C 0.68869 0.60885 0.89757 0.0
C420 C 0.66499 0.60769 0.85785 0.0
C421 C 0.69901 0.60803 0.85257 0.0
C422 C 0.72123 0.632 0.83933 0.0
C423 C 0.70977 0.65619 0.83108 0.0
C424 C 0.67478 0.65466 0.83596 0.0
C425 C 0.65269 0.63081 0.84924 0.0
C426 C 0.6032 0.5634 0.87179 0.0
C427 C 0.57839 0.56009 0.88525 0.0
C428 C 0.53784 0.53654 0.88384 0.0
C429 C 0.52087 0.51472 0.86919 0.0
C430 C 0.54538 0.51653 0.85605 0.0
C431 C 0.58591 0.5401 0.85743 0.0
C432 C 0.33971 0.39376 0.88332 0.0
C433 C 0.30448 0.38863 0.88981 0.0
C434 C 0.28685 0.36435 0.90363 0.0
C435 C 0.30428 0.34473 0.91132 0.0
C436 C 0.34044 0.35115 0.90523 0.0
C437 C 0.3579 0.3752 0.89134 0.0
C438 C 0.33535 0.39065 0.85304 0.0
C439 C 0.3304 0.35291 0.85125 0.0
C440 C 0.30748 0.32841 0.83827 0.0
C441 C 0.28952 0.34123 0.82667 0.0
C442 C 0.29633 0.37967 0.82783 0.0
C443 C 0.31893 0.40408 0.84099 0.0
C444 C 0.39582 0.43986 0.86669 0.0
C445 C 0.41218 0.47787 0.87316 0.0
C446 C 0.45271 0.5024 0.87375 0.0
C447 C 0.47778 0.48931 0.86786 0.0
C448 C 0.46137 0.45142 0.86107 0.0
C449 C 0.42083 0.42689 0.86051 0.0
H450 H 0.02024 0.17225 0.09387 0.0
H451 H 0.8789 0.19356 0.15912 0.0
H452 H 0.90121 0.08098 0.10251 0.0
H453 H 0.98784 0.29126 0.14202 0.0
H454 H 0.88649 0.15165 0.13875 0.0
H455 H 0.00946 0.21576 0.11211 0.0
C456 C 0.99185 0.16135 0.09967 0.0
C457 C 0.96164 0.12287 0.09678 0.0
C458 C 0.90859 0.18232 0.13938 0.0
C459 C 0.94899 0.1726 0.11759 0.0
C460 C 0.90416 0.20641 0.15094 0.0
C461 C 0.93282 0.24612 0.15236 0.0
C462 C 0.94208 0.19787 0.12923 0.0
C463 C 0.96531 0.26074 0.14161 0.0
C464 C 0.98562 0.18628 0.10997 0.0
C465 C 0.92522 0.11048 0.10436 0.0
N466 N 0.96916 0.23658 0.13058 0.0
N467 N 0.91998 0.1352 0.11452 0.0
H468 H 0.79801 0.97503 0.40127 0.0
H469 H 0.71866 0.95464 0.49506 0.0
H470 H 0.83718 0.93295 0.44274 0.0
H471 H 0.6908 0.01004 0.4549 0.0
H472 H 0.75241 0.93511 0.47495 0.0
H473 H 0.7494 0.97685 0.41962 0.0
C474 C 0.79616 0.96587 0.41422 0.0
C475 C 0.82214 0.95443 0.42056 0.0
C476 C 0.73853 0.95114 0.47049 0.0
C477 C 0.76645 0.95634 0.44163 0.0
C478 C 0.71897 0.96206 0.48195 0.0
C479 C 0.70215 0.98433 0.47668 0.0
C480 C 0.74134 0.96257 0.45363 0.0
C481 C 0.70394 0.99349 0.45956 0.0
C482 C 0.76833 0.96681 0.42467 0.0
C483 C 0.81779 0.94197 0.43732 0.0
N484 N 0.72348 0.98285 0.44868 0.0
N485 N 0.79081 0.94372 0.44733 0.0
H486 H 0.84705 0.86629 0.77316 0.0
H487 H 0.75198 0.64578 0.80614 0.0
H488 H 0.88038 0.78436 0.75447 0.0
H489 H 0.72661 0.73183 0.82688 0.0
H490 H 0.79685 0.69478 0.78617 0.0
H491 H 0.80064 0.81608 0.79207 0.0
C492 C 0.84483 0.8378 0.77312 0.0
C493 C 0.86792 0.82966 0.76229 0.0
C494 C 0.78131 0.70284 0.79505 0.0
C495 C 0.81422 0.77166 0.7838 0.0
C496 C 0.75579 0.67493 0.80649 0.0
C497 C 0.73542 0.68466 0.81821 0.0
C498 C 0.78654 0.74076 0.79535 0.0
C499 C 0.74116 0.72276 0.81793 0.0
C500 C 0.81809 0.80902 0.78386 0.0
C501 C 0.86301 0.79186 0.76252 0.0
N502 N 0.76622 0.74937 0.80673 0.0
N503 N 0.83676 0.76427 0.77314 0.0
H504 H 0.06837 0.89164 0.10744 0.0
H505 H 0.97062 0.66114 0.11837 0.0
H506 H 0.01618 0.80951 0.06656 0.0
H507 H 0.03541 0.74413 0.15759 0.0
H508 H 0.99235 0.71525 0.09849 0.0
H509 H 0.06269 0.83869 0.1252 0.0
C510 C 0.05636 0.86263 0.10208 0.0
C511 C 0.04228 0.85498 0.08551 0.0
C512 C 0.00226 0.72163 0.1114 0.0
C513 C 0.03495 0.79396 0.10593 0.0
C514 C 0.98976 0.69075 0.12275 0.0
C515 C 0.00095 0.69818 0.13968 0.0
C516 C 0.02577 0.7603 0.11705 0.0
C517 C 0.02621 0.73705 0.14463 0.0
C518 C 0.05288 0.83231 0.11228 0.0
C519 C 0.02658 0.81663 0.07936 0.0
N520 N 0.03735 0.76668 0.13343 0.0
N521 N 0.02294 0.78751 0.08962 0.0
H522 H 0.18922 0.99704 0.41467 0.0
H523 H 0.28988 0.0867 0.50297 0.0
H524 H 0.16361 0.07307 0.44443 0.0
H525 H 0.3344 0.03389 0.46841 0.0
H526 H 0.24178 0.07959 0.48206 0.0
H527 H 0.24086 0.00782 0.43455 0.0
C528 C 0.19461 0.01626 0.42529 0.0
C529 C 0.17187 0.03411 0.42786 0.0
C530 C 0.2622 0.06974 0.479 0.0
C531 C 0.2306 0.04602 0.45082 0.0
C532 C 0.28993 0.07403 0.49091 0.0
C533 C 0.31654 0.0611 0.48746 0.0
C534 C 0.26062 0.05203 0.46351 0.0
C535 C 0.31427 0.04391 0.47172 0.0
C536 C 0.224 0.02223 0.43668 0.0
C537 C 0.17985 0.05814 0.44205 0.0
N538 N 0.28673 0.03977 0.46035 0.0
N539 N 0.20842 0.06326 0.453 0.0
H540 H 0.09252 0.14505 0.7792 0.0
H541 H 0.28669 0.35166 0.79272 0.0
H542 H 0.17321 0.2058 0.73885 0.0
H543 H 0.2287 0.26809 0.83243 0.0
H544 H 0.23987 0.30412 0.77248 0.0
H545 H 0.13652 0.19623 0.79866 0.0
C546 C 0.1193 0.16945 0.77441 0.0
C547 C 0.12935 0.17122 0.75742 0.0
C548 C 0.2375 0.29631 0.78563 0.0
C549 C 0.17984 0.22969 0.77959 0.0
C550 C 0.26403 0.32337 0.79714 0.0
C551 C 0.26165 0.31351 0.81419 0.0
C552 C 0.20808 0.25958 0.79133 0.0
C553 C 0.23183 0.27656 0.81934 0.0
C554 C 0.14451 0.19845 0.78553 0.0
C555 C 0.16463 0.20324 0.75191 0.0
N556 N 0.20614 0.25098 0.80797 0.0
N557 N 0.18866 0.23131 0.76297 0.0
H558 H 0.87946 0.07959 0.65222 0.0
H559 H 0.70867 0.97534 0.58396 0.0
H560 H 0.82834 0.9583 0.63772 0.0
H561 H 0.76713 0.09899 0.59494 0.0
H562 H 0.74737 0.96715 0.60584 0.0
H563 H 0.8345 0.08606 0.63316 0.0
C564 C 0.85884 0.05433 0.64501 0.0
C565 C 0.85789 0.01841 0.64651 0.0
C566 C 0.75158 0.99604 0.60354 0.0
C567 C 0.80597 0.0255 0.6248 0.0
C568 C 0.72926 0.00069 0.59114 0.0
C569 C 0.73481 0.03796 0.58755 0.0
C570 C 0.77968 0.02888 0.61245 0.0
C571 C 0.76232 0.06983 0.59711 0.0
C572 C 0.83301 0.05798 0.6342 0.0
C573 C 0.82994 0.98647 0.63711 0.0
N574 N 0.78384 0.0646 0.60906 0.0
N575 N 0.80524 0.99082 0.62661 0.0
H576 H 0.90197 0.85928 0.96199 0.0
H577 H 0.68189 0.70728 0.93477 0.0
H578 H 0.80165 0.84847 0.98844 0.0
H579 H 0.78281 0.70351 0.91644 0.0
H580 H 0.72482 0.76193 0.95321 0.0
H581 H 0.85823 0.80563 0.94357 0.0
C582 C 0.87068 0.84588 0.9638 0.0
C583 C 0.85542 0.85847 0.97673 0.0
C584 C 0.73749 0.74898 0.9452 0.0
C585 C 0.80511 0.79658 0.9558 0.0
C586 C 0.71305 0.71792 0.93465 0.0
C587 C 0.72881 0.70073 0.92412 0.0
C588 C 0.77799 0.76322 0.94505 0.0
C589 C 0.76935 0.7155 0.92453 0.0
C590 C 0.84572 0.81499 0.95338 0.0
C591 C 0.81463 0.83949 0.97869 0.0
N592 N 0.79252 0.74597 0.93475 0.0
N593 N 0.79085 0.80952 0.96831 0.0
H594 H 0.03353 0.85972 0.3023 0.0
H595 H 0.8845 0.66034 0.25536 0.0
H596 H 0.90889 0.79764 0.31086 0.0
H597 H 0.0083 0.72615 0.24495 0.0
H598 H 0.8932 0.70856 0.27671 0.0
H599 H 0.02524 0.8091 0.28235 0.0
C600 C 0.00443 0.83528 0.30008 0.0
C601 C 0.97185 0.83294 0.30827 0.0
C602 C 0.91848 0.71239 0.2698 0.0
C603 C 0.96209 0.77501 0.28529 0.0
C604 C 0.91352 0.68494 0.25755 0.0
C605 C 0.94569 0.68925 0.24829 0.0
C606 C 0.95591 0.74446 0.27282 0.0
C607 C 0.98271 0.72137 0.2519 0.0
C608 C -0.00031 0.80648 0.28861 0.0
C609 C 0.93477 0.8009 0.30468 0.0
N610 N 0.98677 0.7478 0.26382 0.0
N611 N 0.9309 0.7732 0.29345 0.0
H612 H 0.19216 0.99527 0.66879 0.0
H613 H 0.25467 0.97141 0.57615 0.0
H614 H 0.1107 0.93979 0.62797 0.0
H615 H 0.33719 0.02911 0.61644 0.0
H616 H 0.20118 0.95248 0.59592 0.0
H617 H 0.24486 0.00082 0.65084 0.0
C618 C 0.18522 0.98368 0.65613 0.0
C619 C 0.14697 0.9673 0.64983 0.0
C620 C 0.23097 0.96897 0.6005 0.0
C621 C 0.20733 0.97413 0.62913 0.0
C622 C 0.26162 0.97955 0.58922 0.0
C623 C 0.3006 0.00207 0.5946 0.0
C624 C 0.2392 0.98113 0.61731 0.0
C625 C 0.30762 0.0123 0.61167 0.0
C626 C 0.2154 0.98711 0.64585 0.0
C627 C 0.13986 0.95325 0.63326 0.0
N628 N 0.27722 0.002 0.62239 0.0
N629 N 0.16978 0.95723 0.62346 0.0
H630 H 0.20111 0.13858 0.97471 0.0
H631 H 0.26108 0.3495 0.93734 0.0
H632 H 0.14289 0.20313 0.98753 0.0
H633 H 0.30003 0.2739 0.91626 0.0
H634 H 0.22356 0.29942 0.95829 0.0
H635 H 0.24339 0.19113 0.95547 0.0
C636 C 0.19715 0.16371 0.97349 0.0
C637 C 0.16832 0.16632 0.98279 0.0
C638 C 0.24048 0.2939 0.94911 0.0
C639 C 0.21699 0.2268 0.96096 0.0
C640 C 0.26181 0.32243 0.93711 0.0
C641 C 0.28366 0.31592 0.92494 0.0
C642 C 0.24105 0.25859 0.94901 0.0
C643 C 0.28405 0.2805 0.92549 0.0
C644 C 0.22144 0.19379 0.96257 0.0
C645 C 0.16506 0.19999 0.98087 0.0
N646 N 0.26297 0.25314 0.93729 0.0
N647 N 0.18903 0.22883 0.97018 0.0
H648 H 0.96235 0.16032 0.33404 0.0
H649 H 0.0242 0.29207 0.25128 0.0
H650 H 0.06241 0.18376 0.30374 0.0
H651 H 0.92175 0.26395 0.28075 0.0
H652 H 0.04321 0.25921 0.27211 0.0
H653 H 0.95168 0.20455 0.31645 0.0
C654 C 0.98249 0.17523 0.32384 0.0
C655 C 0.01333 0.1682 0.32037 0.0
C656 C 0.01675 0.26052 0.2741 0.0
C657 C 0.00071 0.21848 0.2999 0.0
C658 C 0.00602 0.27954 0.26227 0.0
C659 C 0.97116 0.28053 0.26421 0.0
C660 C 0.99245 0.24232 0.28798 0.0
C661 C 0.94851 0.26333 0.2786 0.0
C662 C 0.97617 0.2003 0.3137 0.0
C663 C 0.03795 0.18786 0.30675 0.0
N664 N 0.95942 0.24475 0.28987 0.0
N665 N 0.03098 0.21194 0.29695 0.0
loop_
_geom_bond_atom_site_label_1
_geom_bond_atom_site_label_2
_geom_bond_distance
_geom_bond_site_symmetry_2
_ccdc_geom_bond_type
Li0 N17 1.990 . S
Li0 O60 1.956 . S
Li0 O61 1.970 1_455 S
Li0 O62 1.961 1_545 S
Li1 N25 1.990 . S
Li1 O60 1.970 1_655 S
Li1 O61 1.956 . S
Li1 O63 1.961 1_545 S
Li2 N47 1.990 . S
Li2 O60 1.961 1_565 S
Li2 O62 1.956 . S
Li2 O63 1.970 1_455 S
Li3 N53 1.990 . S
Li3 O61 1.961 1_565 S
Li3 O62 1.970 1_655 S
Li3 O63 1.956 . S
C4 C6 1.348 . S
C4 C7 1.356 . S
C4 O60 1.325 . S
N5 C8 1.314 . S
N5 C9 1.279 . S
C6 C4 1.348 . S
C6 C8 1.353 . S
C6 H64 0.929 . S
C7 C4 1.356 . S
C7 C9 1.358 . S
C7 H65 0.930 . S
C8 N5 1.314 . S
C8 C6 1.353 . S
C8 H66 0.930 . S
C9 N5 1.279 . S
C9 C7 1.358 . S
C9 H67 0.930 . S
C10 C13 1.348 1_655 S
C10 C14 1.356 . S
C10 O61 1.325 . S
C11 N12 1.279 1_554 S
C11 C14 1.358 . S
C11 H68 0.930 . S
N12 C11 1.279 1_556 S
N12 C15 1.322 . S
C13 C10 1.348 1_455 S
C13 C15 1.326 1_454 S
C13 H69 0.929 . S
C14 C10 1.356 . S
C14 C11 1.358 . S
C14 H70 0.930 . S
C15 N12 1.322 . S
C15 C13 1.326 1_656 S
C15 H71 0.954 1_655 S
C16 N17 1.314 1_556 S
C16 C21 1.353 . S
C16 H22 0.930 . S
N17 Li0 1.990 . S
N17 C16 1.314 1_554 S
N17 C19 1.279 . S
C18 C19 1.358 . S
C18 C20 1.356 1_554 S
C18 H72 0.930 . S
C19 N17 1.279 . S
C19 C18 1.358 . S
C19 H23 0.930 . S
C20 C18 1.356 1_556 S
C20 C21 1.348 . S
C21 C16 1.353 . S
C21 C20 1.348 . S
C21 H73 0.929 . S
H22 C16 0.930 . S
H23 C19 0.930 . S
C24 N25 1.314 . S
C24 C26 1.353 . S
C24 H30 0.930 . S
N25 Li1 1.990 . S
N25 C24 1.314 . S
N25 C28 1.279 . S
C26 C24 1.353 . S
C26 C29 1.348 . S
C26 H74 0.929 . S
C27 C28 1.358 . S
C27 C29 1.356 . S
C27 H75 0.930 . S
C28 N25 1.279 . S
C28 C27 1.358 . S
C28 H31 0.930 . S
C29 C26 1.348 . S
C29 C27 1.356 . S
H30 C24 0.930 . S
H31 C28 0.930 . S
C32 C34 1.348 1_455 S
C32 C35 1.356 . S
C32 O62 1.325 . S
N33 C36 1.322 . S
N33 C37 1.279 1_556 S
C34 C32 1.348 1_655 S
C34 C36 1.326 1_654 S
C34 H76 0.929 . S
C35 C32 1.356 . S
C35 C37 1.358 . S
C35 H77 0.930 . S
C36 N33 1.322 . S
C36 C34 1.326 1_456 S
C36 H78 0.954 1_455 S
C37 N33 1.279 1_554 S
C37 C35 1.358 . S
C37 H79 0.930 . S
C38 C39 1.348 . S
C38 C40 1.356 . S
C38 O63 1.325 . S
C39 C38 1.348 . S
C39 C41 1.353 . S
C39 H80 0.929 . S
C40 C38 1.356 . S
C40 C42 1.358 . S
C40 H81 0.930 . S
C41 C39 1.353 . S
C41 N43 1.314 . S
C41 H82 0.930 . S
C42 C40 1.358 . S
C42 N43 1.279 . S
C42 H83 0.930 . S
N43 C41 1.314 . S
N43 C42 1.279 . S
C44 C46 1.353 . S
C44 N47 1.314 . S
C44 H50 0.930 . S
C45 N47 1.279 . S
C45 C48 1.358 . S
C45 H51 0.930 . S
C46 C44 1.353 . S
C46 C49 1.348 . S
C46 H84 0.929 . S
N47 Li2 1.990 . S
N47 C44 1.314 . S
N47 C45 1.279 . S
C48 C45 1.358 . S
C48 C49 1.356 . S
C48 H85 0.930 . S
C49 C46 1.348 . S
C49 C48 1.356 . S
H50 C44 0.930 . S
H51 C45 0.930 . S
C52 N53 1.314 1_556 S
C52 C54 1.353 . S
C52 H58 0.930 . S
N53 Li3 1.990 . S
N53 C52 1.314 1_554 S
N53 C56 1.279 . S
C54 C52 1.353 . S
C54 C57 1.348 . S
C54 H86 0.929 . S
C55 C56 1.358 . S
C55 C57 1.356 1_554 S
C55 H87 0.930 . S
C56 N53 1.279 . S
C56 C55 1.358 . S
C56 H59 0.930 . S
C57 C54 1.348 . S
C57 C55 1.356 1_556 S
H58 C52 0.930 . S
H59 C56 0.930 . S
O60 Li0 1.956 . S
O60 Li1 1.970 1_455 S
O60 Li2 1.961 1_545 S
O60 C4 1.325 . S
O61 Li0 1.970 1_655 S
O61 Li1 1.956 . S
O61 Li3 1.961 1_545 S
O61 C10 1.325 . S
O62 Li0 1.961 1_565 S
O62 Li2 1.956 . S
O62 Li3 1.970 1_455 S
O62 C32 1.325 . S
O63 Li1 1.961 1_565 S
O63 Li2 1.970 1_655 S
O63 Li3 1.956 . S
O63 C38 1.325 . S
H64 C6 0.929 . S
H65 C7 0.930 . S
H66 C8 0.930 . S
H67 C9 0.930 . S
H68 C11 0.930 . S
H69 C13 0.929 . S
H70 C14 0.930 . S
H71 C15 0.954 1_455 S
H72 C18 0.930 . S
H73 C21 0.929 . S
H74 C26 0.929 . S
H75 C27 0.930 . S
H76 C34 0.929 . S
H77 C35 0.930 . S
H78 C36 0.954 1_655 S
H79 C37 0.930 . S
H80 C39 0.929 . S
H81 C40 0.930 . S
H82 C41 0.930 . S
H83 C42 0.930 . S
H84 C46 0.929 . S
H85 C48 0.930 . S
H86 C54 0.929 . S
H87 C55 0.930 . S
Li88 N105 1.990 . S
Li88 O148 1.956 . S
Li88 O149 1.970 1_665 S
Li88 O150 1.961 . S
Li89 N113 1.990 . S
Li89 O148 1.970 1_445 S
Li89 O149 1.956 . S
Li89 O151 1.961 . S
Li90 N135 1.990 . S
Li90 O148 1.961 . S
Li90 O150 1.956 . S
Li90 O151 1.970 1_665 S
Li91 N141 1.990 . S
Li91 O149 1.961 . S
Li91 O150 1.970 1_445 S
Li91 O151 1.956 . S
C92 C94 1.348 1_655 S
C92 C95 1.356 . S
C92 O148 1.325 . S
N93 C96 1.314 . S
N93 C97 1.279 . S
C94 C92 1.348 1_455 S
C94 C96 1.353 1_455 S
C94 H152 0.929 . S
C95 C92 1.356 . S
C95 C97 1.358 . S
C95 H153 0.930 . S
C96 N93 1.314 . S
C96 C94 1.353 1_655 S
C96 H154 0.930 1_655 S
C97 N93 1.279 . S
C97 C95 1.358 . S
C97 H155 0.930 . S
C98 C101 1.348 1_545 S
C98 C102 1.356 . S
C98 O149 1.325 . S
C99 N100 1.279 . S
C99 C102 1.358 . S
C99 H156 0.930 . S
N100 C99 1.279 . S
N100 C103 1.314 . S
C101 C98 1.348 1_565 S
C101 C103 1.353 1_565 S
C101 H157 0.929 . S
C102 C98 1.356 . S
C102 C99 1.358 . S
C102 H158 0.930 . S
C103 N100 1.314 . S
C103 C101 1.353 1_545 S
C103 H159 0.930 1_545 S
C104 N105 1.314 . S
C104 C109 1.353 . S
C104 H110 0.930 . S
N105 Li88 1.990 . S
N105 C104 1.314 . S
N105 C107 1.279 . S
C106 C107 1.358 . S
C106 C108 1.356 . S
C106 H160 0.930 . S
C107 N105 1.279 . S
C107 C106 1.358 . S
C107 H111 0.930 . S
C108 C106 1.356 . S
C108 C109 1.348 . S
C109 C104 1.353 . S
C109 C108 1.348 . S
C109 H161 0.929 . S
H110 C104 0.930 . S
H111 C107 0.930 . S
C112 N113 1.314 . S
C112 C114 1.353 . S
C112 H118 0.930 . S
N113 Li89 1.990 . S
N113 C112 1.314 . S
N113 C116 1.279 . S
C114 C112 1.353 . S
C114 C117 1.348 . S
C114 H162 0.929 . S
C115 C116 1.358 . S
C115 C117 1.356 . S
C115 H163 0.930 . S
C116 N113 1.279 . S
C116 C115 1.358 . S
C116 H119 0.930 . S
C117 C114 1.348 . S
C117 C115 1.356 . S
H118 C112 0.930 . S
H119 C116 0.930 . S
C120 C122 1.348 1_565 S
C120 C123 1.356 . S
C120 O150 1.325 . S
N121 C124 1.314 . S
N121 C125 1.279 . S
C122 C120 1.348 1_545 S
C122 C124 1.353 1_545 S
C122 H164 0.929 . S
C123 C120 1.356 . S
C123 C125 1.358 . S
C123 H165 0.930 . S
C124 N121 1.314 . S
C124 C122 1.353 1_565 S
C124 H166 0.930 1_565 S
C125 N121 1.279 . S
C125 C123 1.358 . S
C125 H167 0.930 . S
C126 C127 1.348 1_455 S
C126 C128 1.356 . S
C126 O151 1.325 . S
C127 C126 1.348 1_655 S
C127 C129 1.353 1_655 S
C127 H168 0.929 . S
C128 C126 1.356 . S
C128 C130 1.358 . S
C128 H169 0.930 . S
C129 C127 1.353 1_455 S
C129 N131 1.314 . S
C129 H170 0.930 1_455 S
C130 C128 1.358 . S
C130 N131 1.279 . S
C130 H171 0.930 . S
N131 C129 1.314 . S
N131 C130 1.279 . S
C132 C134 1.353 . S
C132 N135 1.314 . S
C132 H138 0.930 . S
C133 N135 1.279 . S
C133 C136 1.358 . S
C133 H139 0.930 . S
C134 C132 1.353 . S
C134 C137 1.348 . S
C134 H172 0.929 . S
N135 Li90 1.990 . S
N135 C132 1.314 . S
N135 C133 1.279 . S
C136 C133 1.358 . S
C136 C137 1.356 . S
C136 H173 0.930 . S
C137 C134 1.348 . S
C137 C136 1.356 . S
H138 C132 0.930 . S
H139 C133 0.930 . S
C140 N141 1.314 . S
C140 C142 1.353 . S
C140 H146 0.930 . S
N141 Li91 1.990 . S
N141 C140 1.314 . S
N141 C144 1.279 . S
C142 C140 1.353 . S
C142 C145 1.348 . S
C142 H174 0.929 . S
C143 C144 1.358 . S
C143 C145 1.356 . S
C143 H175 0.930 . S
C144 N141 1.279 . S
C144 C143 1.358 . S
C144 H147 0.930 . S
C145 C142 1.348 . S
C145 C143 1.356 . S
H146 C140 0.930 . S
H147 C144 0.930 . S
O148 Li88 1.956 . S
O148 Li89 1.970 1_665 S
O148 Li90 1.961 . S
O148 C92 1.325 . S
O149 Li88 1.970 1_445 S
O149 Li89 1.956 . S
O149 Li91 1.961 . S
O149 C98 1.325 . S
O150 Li88 1.961 . S
O150 Li90 1.956 . S
O150 Li91 1.970 1_665 S
O150 C120 1.325 . S
O151 Li89 1.961 . S
O151 Li90 1.970 1_445 S
O151 Li91 1.956 . S
O151 C126 1.325 . S
H152 C94 0.929 . S
H153 C95 0.930 . S
H154 C96 0.930 1_455 S
H155 C97 0.930 . S
H156 C99 0.930 . S
H157 C101 0.929 . S
H158 C102 0.930 . S
H159 C103 0.930 1_565 S
H160 C106 0.930 . S
H161 C109 0.929 . S
H162 C114 0.929 . S
H163 C115 0.930 . S
H164 C122 0.929 . S
H165 C123 0.930 . S
H166 C124 0.930 1_545 S
H167 C125 0.930 . S
H168 C127 0.929 . S
H169 C128 0.930 . S
H170 C129 0.930 1_655 S
H171 C130 0.930 . S
H172 C134 0.929 . S
H173 C136 0.930 . S
H174 C142 0.929 . S
H175 C143 0.930 . S
Li176 N193 1.990 . S
Li176 O236 1.956 . S
Li176 O237 1.970 1_565 S
Li176 O238 1.961 1_455 S
Li177 N201 1.990 . S
Li177 O236 1.970 1_545 S
Li177 O237 1.956 . S
Li177 O239 1.961 1_455 S
Li178 N223 1.990 . S
Li178 O236 1.961 1_655 S
Li178 O238 1.956 . S
Li178 O239 1.970 1_565 S
Li179 N229 1.990 . S
Li179 O237 1.961 1_655 S
Li179 O238 1.970 1_545 S
Li179 O239 1.956 . S
C180 C182 1.348 1_565 S
C180 C183 1.356 . S
C180 O236 1.325 . S
N181 C184 1.314 . S
N181 C185 1.279 . S
C182 C180 1.348 1_545 S
C182 C184 1.353 1_545 S
C182 H240 0.929 . S
C183 C180 1.356 . S
C183 C185 1.358 . S
C183 H241 0.930 . S
C184 N181 1.314 . S
C184 C182 1.353 1_565 S
C184 H242 0.930 1_565 S
C185 N181 1.279 . S
C185 C183 1.358 . S
C185 H243 0.930 . S
C186 C189 1.348 . S
C186 C190 1.356 . S
C186 O237 1.325 . S
C187 N188 1.279 . S
C187 C190 1.358 . S
C187 H244 0.930 . S
N188 C187 1.279 . S
N188 C191 1.314 . S
C189 C186 1.348 . S
C189 C191 1.353 . S
C189 H245 0.929 . S
C190 C186 1.356 . S
C190 C187 1.358 . S
C190 H246 0.930 . S
C191 N188 1.314 . S
C191 C189 1.353 . S
C191 H247 0.930 . S
C192 N193 1.314 . S
C192 C197 1.353 . S
C192 H198 0.930 . S
N193 Li176 1.990 . S
N193 C192 1.314 . S
N193 C195 1.279 . S
C194 C195 1.358 . S
C194 C196 1.356 . S
C194 H248 0.930 . S
C195 N193 1.279 . S
C195 C194 1.358 . S
C195 H199 0.930 . S
C196 C194 1.356 . S
C196 C197 1.348 . S
C197 C192 1.353 . S
C197 C196 1.348 . S
C197 H249 0.929 . S
H198 C192 0.930 . S
H199 C195 0.930 . S
C200 N201 1.314 . S
C200 C202 1.353 . S
C200 H206 0.930 . S
N201 Li177 1.990 . S
N201 C200 1.314 . S
N201 C204 1.279 . S
C202 C200 1.353 . S
C202 C205 1.348 . S
C202 H250 0.929 . S
C203 C204 1.358 . S
C203 C205 1.356 . S
C203 H251 0.930 . S
C204 N201 1.279 . S
C204 C203 1.358 . S
C204 H207 0.930 . S
C205 C202 1.348 . S
C205 C203 1.356 . S
H206 C200 0.930 . S
H207 C204 0.930 . S
C208 C210 1.348 . S
C208 C211 1.356 . S
C208 O238 1.325 . S
N209 C212 1.314 . S
N209 C213 1.279 . S
C210 C208 1.348 . S
C210 C212 1.353 . S
C210 H252 0.929 . S
C211 C208 1.356 . S
C211 C213 1.358 . S
C211 H253 0.930 . S
C212 N209 1.314 . S
C212 C210 1.353 . S
C212 H254 0.930 . S
C213 N209 1.279 . S
C213 C211 1.358 . S
C213 H255 0.930 . S
C214 C215 1.348 1_545 S
C214 C216 1.356 . S
C214 O239 1.325 . S
C215 C214 1.348 1_565 S
C215 C217 1.353 1_565 S
C215 H256 0.929 . S
C216 C214 1.356 . S
C216 C218 1.358 . S
C216 H257 0.930 . S
C217 C215 1.353 1_545 S
C217 N219 1.314 . S
C217 H258 0.930 1_545 S
C218 C216 1.358 . S
C218 N219 1.279 . S
C218 H259 0.930 . S
N219 C217 1.314 . S
N219 C218 1.279 . S
C220 C222 1.353 . S
C220 N223 1.314 . S
C220 H226 0.930 . S
C221 N223 1.279 . S
C221 C224 1.358 . S
C221 H227 0.930 . S
C222 C220 1.353 . S
C222 C225 1.348 . S
C222 H260 0.929 . S
N223 Li178 1.990 . S
N223 C220 1.314 . S
N223 C221 1.279 . S
C224 C221 1.358 . S
C224 C225 1.356 . S
C224 H261 0.930 . S
C225 C222 1.348 . S
C225 C224 1.356 . S
H226 C220 0.930 . S
H227 C221 0.930 . S
C228 N229 1.314 . S
C228 C230 1.353 . S
C228 H234 0.930 . S
N229 Li179 1.990 . S
N229 C228 1.314 . S
N229 C232 1.279 . S
C230 C228 1.353 . S
C230 C233 1.348 . S
C230 H262 0.929 . S
C231 C232 1.358 . S
C231 C233 1.356 . S
C231 H263 0.930 . S
C232 N229 1.279 . S
C232 C231 1.358 . S
C232 H235 0.930 . S
C233 C230 1.348 . S
C233 C231 1.356 . S
H234 C228 0.930 . S
H235 C232 0.930 . S
O236 Li176 1.956 . S
O236 Li177 1.970 1_565 S
O236 Li178 1.961 1_455 S
O236 C180 1.325 . S
O237 Li176 1.970 1_545 S
O237 Li177 1.956 . S
O237 Li179 1.961 1_455 S
O237 C186 1.325 . S
O238 Li176 1.961 1_655 S
O238 Li178 1.956 . S
O238 Li179 1.970 1_565 S
O238 C208 1.325 . S
O239 Li177 1.961 1_655 S
O239 Li178 1.970 1_545 S
O239 Li179 1.956 . S
O239 C214 1.325 . S
H240 C182 0.929 . S
H241 C183 0.930 . S
H242 C184 0.930 1_545 S
H243 C185 0.930 . S
H244 C187 0.930 . S
H245 C189 0.929 . S
H246 C190 0.930 . S
H247 C191 0.930 . S
H248 C194 0.930 . S
H249 C197 0.929 . S
H250 C202 0.929 . S
H251 C203 0.930 . S
H252 C210 0.929 . S
H253 C211 0.930 . S
H254 C212 0.930 . S
H255 C213 0.930 . S
H256 C215 0.929 . S
H257 C216 0.930 . S
H258 C217 0.930 1_565 S
H259 C218 0.930 . S
H260 C222 0.929 . S
H261 C224 0.930 . S
H262 C230 0.929 . S
H263 C231 0.930 . S
H264 C291 0.929 . S
N265 C290 1.433 . S
N265 C296 1.435 . S
N265 C302 1.423 . S
H266 C292 0.930 . S
H267 C295 0.931 . S
H268 C294 0.929 . S
H269 C297 0.930 . S
H270 C298 0.932 . S
H271 C301 0.929 . S
H272 C300 0.931 . S
H273 C303 0.929 . S
H274 C307 0.932 1_455 S
H275 C304 0.931 . S
H276 C306 0.929 1_455 S
H277 C309 0.929 . S
H278 C310 0.930 . S
H279 C312 0.929 . S
H280 C313 0.931 . S
H281 C315 0.930 . S
H282 C316 0.932 . S
H283 C318 0.931 . S
H284 C319 0.929 . S
H285 C321 0.929 . S
H286 C322 0.931 . S
H287 C324 0.929 1_455 S
N288 C308 1.433 . S
N288 C314 1.435 . S
N288 C320 1.423 . S
H289 C325 0.932 1_455 S
C290 N265 1.433 . S
C290 C291 1.363 . S
C290 C295 1.370 1_655 S
C291 H264 0.929 . S
C291 C290 1.363 . S
C291 C292 1.385 . S
C292 H266 0.930 . S
C292 C291 1.385 . S
C292 C293 1.357 . S
C293 C292 1.357 . S
C293 C294 1.406 1_655 S
C294 H268 0.929 . S
C294 C293 1.406 1_455 S
C294 C295 1.391 . S
C295 H267 0.931 . S
C295 C290 1.370 1_455 S
C295 C294 1.391 . S
C296 N265 1.435 . S
C296 C297 1.358 1_655 S
C296 C301 1.371 . S
C297 H269 0.930 . S
C297 C296 1.358 1_455 S
C297 C298 1.405 . S
C298 H270 0.932 . S
C298 C297 1.405 . S
C298 C299 1.383 1_455 S
C299 C298 1.383 1_655 S
C299 C300 1.393 . S
C300 H272 0.931 . S
C300 C299 1.393 . S
C300 C301 1.382 . S
C301 H271 0.929 . S
C301 C296 1.371 . S
C301 C300 1.382 . S
C302 N265 1.423 . S
C302 C303 1.362 . S
C302 C307 1.388 . S
C303 H273 0.929 . S
C303 C302 1.362 . S
C303 C304 1.376 . S
C304 H275 0.931 . S
C304 C303 1.376 . S
C304 C305 1.396 . S
C305 C304 1.396 . S
C305 C306 1.348 . S
C305 C323 1.472 . S
C306 H276 0.929 1_655 S
C306 C305 1.348 . S
C306 C307 1.443 . S
C307 H274 0.932 1_655 S
C307 C302 1.388 . S
C307 C306 1.443 . S
C308 N288 1.433 . S
C308 C309 1.363 . S
C308 C313 1.370 1_655 S
C309 H277 0.929 . S
C309 C308 1.363 . S
C309 C310 1.385 . S
C310 H278 0.930 . S
C310 C309 1.385 . S
C310 C311 1.357 . S
C311 C310 1.357 . S
C311 C312 1.406 1_655 S
C312 H279 0.929 . S
C312 C311 1.406 1_455 S
C312 C313 1.391 . S
C313 H280 0.931 . S
C313 C308 1.370 1_455 S
C313 C312 1.391 . S
C314 N288 1.435 . S
C314 C315 1.358 1_655 S
C314 C319 1.371 . S
C315 H281 0.930 . S
C315 C314 1.358 1_455 S
C315 C316 1.405 . S
C316 H282 0.932 . S
C316 C315 1.405 . S
C316 C317 1.383 1_455 S
C317 C316 1.383 1_655 S
C317 C318 1.393 . S
C318 H283 0.931 . S
C318 C317 1.393 . S
C318 C319 1.382 . S
C319 H284 0.929 . S
C319 C314 1.371 . S
C319 C318 1.382 . S
C320 N288 1.423 . S
C320 C321 1.362 . S
C320 C325 1.388 . S
C321 H285 0.929 . S
C321 C320 1.362 . S
C321 C322 1.376 . S
C322 H286 0.931 . S
C322 C321 1.376 . S
C322 C323 1.396 . S
C323 C305 1.472 . S
C323 C322 1.396 . S
C323 C324 1.348 . S
C324 H287 0.929 1_655 S
C324 C323 1.348 . S
C324 C325 1.443 . S
C325 H289 0.932 1_655 S
C325 C320 1.388 . S
C325 C324 1.443 . S
H326 C353 0.929 . S
N327 C352 1.433 . S
N327 C358 1.435 . S
N327 C364 1.423 . S
H328 C354 0.930 . S
H329 C357 0.931 . S
H330 C356 0.929 . S
H331 C359 0.930 . S
H332 C360 0.932 . S
H333 C363 0.929 . S
H334 C362 0.931 . S
H335 C365 0.929 . S
H336 C369 0.932 1_565 S
H337 C366 0.931 . S
H338 C368 0.929 1_565 S
H339 C371 0.929 . S
H340 C372 0.930 . S
H341 C374 0.929 . S
H342 C375 0.931 . S
H343 C377 0.930 . S
H344 C378 0.932 . S
H345 C380 0.931 . S
H346 C381 0.929 . S
H347 C383 0.929 . S
H348 C384 0.931 . S
H349 C386 0.929 1_565 S
N350 C370 1.433 . S
N350 C376 1.435 . S
N350 C382 1.423 . S
H351 C387 0.932 1_565 S
C352 N327 1.433 . S
C352 C353 1.363 . S
C352 C357 1.370 1_545 S
C353 H326 0.929 . S
C353 C352 1.363 . S
C353 C354 1.385 . S
C354 H328 0.930 . S
C354 C353 1.385 . S
C354 C355 1.357 . S
C355 C354 1.357 . S
C355 C356 1.406 1_545 S
C356 H330 0.929 . S
C356 C355 1.406 1_565 S
C356 C357 1.391 . S
C357 H329 0.931 . S
C357 C352 1.370 1_565 S
C357 C356 1.391 . S
C358 N327 1.435 . S
C358 C359 1.358 1_545 S
C358 C363 1.371 . S
C359 H331 0.930 . S
C359 C358 1.358 1_565 S
C359 C360 1.405 . S
C360 H332 0.932 . S
C360 C359 1.405 . S
C360 C361 1.383 1_565 S
C361 C360 1.383 1_545 S
C361 C362 1.393 . S
C362 H334 0.931 . S
C362 C361 1.393 . S
C362 C363 1.382 . S
C363 H333 0.929 . S
C363 C358 1.371 . S
C363 C362 1.382 . S
C364 N327 1.423 . S
C364 C365 1.362 . S
C364 C369 1.388 . S
C365 H335 0.929 . S
C365 C364 1.362 . S
C365 C366 1.376 . S
C366 H337 0.931 . S
C366 C365 1.376 . S
C366 C367 1.396 . S
C367 C366 1.396 . S
C367 C368 1.348 . S
C367 C385 1.472 . S
C368 H338 0.929 1_545 S
C368 C367 1.348 . S
C368 C369 1.443 . S
C369 H336 0.932 1_545 S
C369 C364 1.388 . S
C369 C368 1.443 . S
C370 N350 1.433 . S
C370 C371 1.363 . S
C370 C375 1.370 1_545 S
C371 H339 0.929 . S
C371 C370 1.363 . S
C371 C372 1.385 . S
C372 H340 0.930 . S
C372 C371 1.385 . S
C372 C373 1.357 . S
C373 C372 1.357 . S
C373 C374 1.406 1_545 S
C374 H341 0.929 . S
C374 C373 1.406 1_565 S
C374 C375 1.391 . S
C375 H342 0.931 . S
C375 C370 1.370 1_565 S
C375 C374 1.391 . S
C376 N350 1.435 . S
C376 C377 1.358 1_545 S
C376 C381 1.371 . S
C377 H343 0.930 . S
C377 C376 1.358 1_565 S
C377 C378 1.405 . S
C378 H344 0.932 . S
C378 C377 1.405 . S
C378 C379 1.383 1_565 S
C379 C378 1.383 1_545 S
C379 C380 1.393 . S
C380 H345 0.931 . S
C380 C379 1.393 . S
C380 C381 1.382 . S
C381 H346 0.929 . S
C381 C376 1.371 . S
C381 C380 1.382 . S
C382 N350 1.423 . S
C382 C383 1.362 . S
C382 C387 1.388 . S
C383 H347 0.929 . S
C383 C382 1.362 . S
C383 C384 1.376 . S
C384 H348 0.931 . S
C384 C383 1.376 . S
C384 C385 1.396 . S
C385 C367 1.472 . S
C385 C384 1.396 . S
C385 C386 1.348 . S
C386 H349 0.929 1_545 S
C386 C385 1.348 . S
C386 C387 1.443 . S
C387 H351 0.932 1_545 S
C387 C382 1.388 . S
C387 C386 1.443 . S
H388 C415 0.929 . S
N389 C414 1.433 . S
N389 C420 1.435 . S
N389 C426 1.423 . S
H390 C416 0.930 . S
H391 C419 0.931 . S
H392 C418 0.929 . S
H393 C421 0.930 . S
H394 C422 0.932 . S
H395 C425 0.929 . S
H396 C424 0.931 . S
H397 C427 0.929 . S
H398 C431 0.932 . S
H399 C428 0.931 . S
H400 C430 0.929 . S
H401 C433 0.929 . S
H402 C434 0.930 . S
H403 C436 0.929 . S
H404 C437 0.931 . S
H405 C439 0.930 . S
H406 C440 0.932 . S
H407 C442 0.931 . S
H408 C443 0.929 . S
H409 C445 0.929 . S
H410 C446 0.931 . S
H411 C448 0.929 . S
N412 C432 1.433 . S
N412 C438 1.435 . S
N412 C444 1.423 . S
H413 C449 0.932 . S
C414 N389 1.433 . S
C414 C415 1.363 . S
C414 C419 1.370 . S
C415 H388 0.929 . S
C415 C414 1.363 . S
C415 C416 1.385 . S
C416 H390 0.930 . S
C416 C415 1.385 . S
C416 C417 1.357 . S
C417 C416 1.357 . S
C417 C418 1.406 . S
C418 H392 0.929 . S
C418 C417 1.406 . S
C418 C419 1.391 . S
C419 H391 0.931 . S
C419 C414 1.370 . S
C419 C418 1.391 . S
C420 N389 1.435 . S
C420 C421 1.358 . S
C420 C425 1.371 . S
C421 H393 0.930 . S
C421 C420 1.358 . S
C421 C422 1.405 . S
C422 H394 0.932 . S
C422 C421 1.405 . S
C422 C423 1.383 . S
C423 C422 1.383 . S
C423 C424 1.393 . S
C424 H396 0.931 . S
C424 C423 1.393 . S
C424 C425 1.382 . S
C425 H395 0.929 . S
C425 C420 1.371 . S
C425 C424 1.382 . S
C426 N389 1.423 . S
C426 C427 1.362 . S
C426 C431 1.388 . S
C427 H397 0.929 . S
C427 C426 1.362 . S
C427 C428 1.376 . S
C428 H399 0.931 . S
C428 C427 1.376 . S
C428 C429 1.396 . S
C429 C428 1.396 . S
C429 C430 1.348 . S
C429 C447 1.472 . S
C430 H400 0.929 . S
C430 C429 1.348 . S
C430 C431 1.443 . S
C431 H398 0.932 . S
C431 C426 1.388 . S
C431 C430 1.443 . S
C432 N412 1.433 . S
C432 C433 1.363 . S
C432 C437 1.370 . S
C433 H401 0.929 . S
C433 C432 1.363 . S
C433 C434 1.385 . S
C434 H402 0.930 . S
C434 C433 1.385 . S
C434 C435 1.357 . S
C435 C434 1.357 . S
C435 C436 1.406 . S
C436 H403 0.929 . S
C436 C435 1.406 . S
C436 C437 1.391 . S
C437 H404 0.931 . S
C437 C432 1.370 . S
C437 C436 1.391 . S
C438 N412 1.435 . S
C438 C439 1.358 . S
C438 C443 1.371 . S
C439 H405 0.930 . S
C439 C438 1.358 . S
C439 C440 1.405 . S
C440 H406 0.932 . S
C440 C439 1.405 . S
C440 C441 1.383 . S
C441 C440 1.383 . S
C441 C442 1.393 . S
C442 H407 0.931 . S
C442 C441 1.393 . S
C442 C443 1.382 . S
C443 H408 0.929 . S
C443 C438 1.371 . S
C443 C442 1.382 . S
C444 N412 1.423 . S
C444 C445 1.362 . S
C444 C449 1.388 . S
C445 H409 0.929 . S
C445 C444 1.362 . S
C445 C446 1.376 . S
C446 H410 0.931 . S
C446 C445 1.376 . S
C446 C447 1.396 . S
C447 C429 1.472 . S
C447 C446 1.396 . S
C447 C448 1.348 . S
C448 H411 0.929 . S
C448 C447 1.348 . S
C448 C449 1.443 . S
C449 H413 0.932 . S
C449 C444 1.388 . S
C449 C448 1.443 . S
H450 C456 0.930 1_455 S
H451 C460 0.930 . S
H452 C465 0.929 . S
H453 C463 0.929 . S
H454 C458 0.929 . S
H455 C464 0.949 . S
C456 H450 0.930 1_655 S
C456 C457 1.367 . S
C456 C464 1.384 1_655 S
C457 C456 1.367 . S
C457 C465 1.433 . S
C458 H454 0.929 . S
C458 C460 1.378 . S
C458 C462 1.350 . S
C459 C462 1.463 . S
C459 C464 1.323 1_655 S
C459 N467 1.427 . S
C460 H451 0.930 . S
C460 C458 1.378 . S
C460 C461 1.367 . S
C461 C460 1.367 . S
C461 C463 1.433 1_655 S
C462 C458 1.350 . S
C462 C459 1.463 . S
C462 N466 1.427 1_655 S
C463 H453 0.929 . S
C463 C461 1.433 1_455 S
C463 N466 1.384 . S
C464 H455 0.949 . S
C464 C456 1.384 1_455 S
C464 C459 1.323 1_455 S
C465 H452 0.929 . S
C465 C457 1.433 . S
C465 N467 1.384 . S
N466 C462 1.427 1_455 S
N466 C463 1.384 . S
N467 C459 1.427 . S
N467 C465 1.384 . S
H468 C474 0.930 . S
H469 C478 0.930 . S
H470 C483 0.929 . S
H471 C481 0.929 . S
H472 C476 0.928 . S
H473 C482 0.929 . S
C474 H468 0.930 . S
C474 C475 1.367 . S
C474 C482 1.378 . S
C475 C474 1.367 . S
C475 C483 1.433 . S
C476 H472 0.928 . S
C476 C478 1.379 . S
C476 C480 1.349 1_545 S
C477 C480 1.463 . S
C477 C482 1.350 . S
C477 N485 1.427 . S
C478 H469 0.930 . S
C478 C476 1.379 . S
C478 C479 1.367 1_545 S
C479 C478 1.367 1_565 S
C479 C481 1.433 . S
C480 C476 1.349 1_565 S
C480 C477 1.463 . S
C480 N484 1.427 . S
C481 H471 0.929 . S
C481 C479 1.433 . S
C481 N484 1.384 . S
C482 H473 0.929 . S
C482 C474 1.378 . S
C482 C477 1.350 . S
C483 H470 0.929 . S
C483 C475 1.433 . S
C483 N485 1.384 . S
N484 C480 1.427 . S
N484 C481 1.384 . S
N485 C477 1.427 . S
N485 C483 1.384 . S
H486 C492 0.930 . S
H487 C496 0.930 . S
H488 C501 0.929 . S
H489 C499 0.929 . S
H490 C494 0.929 . S
H491 C500 0.929 . S
C492 H486 0.930 . S
C492 C493 1.367 . S
C492 C500 1.378 . S
C493 C492 1.367 . S
C493 C501 1.433 . S
C494 H490 0.929 . S
C494 C496 1.378 . S
C494 C498 1.350 . S
C495 C498 1.463 . S
C495 C500 1.350 . S
C495 N503 1.427 . S
C496 H487 0.930 . S
C496 C494 1.378 . S
C496 C497 1.367 . S
C497 C496 1.367 . S
C497 C499 1.433 . S
C498 C494 1.350 . S
C498 C495 1.463 . S
C498 N502 1.427 . S
C499 H489 0.929 . S
C499 C497 1.433 . S
C499 N502 1.384 . S
C500 H491 0.929 . S
C500 C492 1.378 . S
C500 C495 1.350 . S
C501 H488 0.929 . S
C501 C493 1.433 . S
C501 N503 1.384 . S
N502 C498 1.427 . S
N502 C499 1.384 . S
N503 C495 1.427 . S
N503 C501 1.384 . S
H504 C510 0.930 . S
H505 C514 0.923 . S
H506 C519 0.929 . S
H507 C517 0.929 . S
H508 C512 0.929 . S
H509 C518 0.929 . S
C510 H504 0.930 . S
C510 C511 1.367 . S
C510 C518 1.378 . S
C511 C510 1.367 . S
C511 C519 1.433 . S
C512 H508 0.929 . S
C512 C514 1.378 . S
C512 C516 1.350 . S
C513 C516 1.463 . S
C513 C518 1.350 . S
C513 N521 1.427 . S
C514 H505 0.923 . S
C514 C512 1.378 . S
C514 C515 1.367 . S
C515 C514 1.367 . S
C515 C517 1.433 . S
C516 C512 1.350 . S
C516 C513 1.463 . S
C516 N520 1.427 . S
C517 H507 0.929 . S
C517 C515 1.433 . S
C517 N520 1.384 . S
C518 H509 0.929 . S
C518 C510 1.378 . S
C518 C513 1.350 . S
C519 H506 0.929 . S
C519 C511 1.433 . S
C519 N521 1.384 . S
N520 C516 1.427 . S
N520 C517 1.384 . S
N521 C513 1.427 . S
N521 C519 1.384 . S
H522 C528 0.930 1_565 S
H523 C532 0.930 . S
H524 C537 0.929 . S
H525 C535 0.929 . S
H526 C530 0.929 . S
H527 C536 0.929 . S
C528 H522 0.930 1_545 S
C528 C529 1.367 . S
C528 C536 1.378 1_545 S
C529 C528 1.367 . S
C529 C537 1.433 . S
C530 H526 0.929 . S
C530 C532 1.378 . S
C530 C534 1.350 . S
C531 C534 1.463 . S
C531 C536 1.350 1_545 S
C531 N539 1.427 . S
C532 H523 0.930 . S
C532 C530 1.378 . S
C532 C533 1.367 . S
C533 C532 1.367 . S
C533 C535 1.433 1_545 S
C534 C530 1.350 . S
C534 C531 1.463 . S
C534 N538 1.427 1_545 S
C535 H525 0.929 . S
C535 C533 1.433 1_565 S
C535 N538 1.384 . S
C536 H527 0.929 . S
C536 C528 1.378 1_565 S
C536 C531 1.350 1_565 S
C537 H524 0.929 . S
C537 C529 1.433 . S
C537 N539 1.384 . S
N538 C534 1.427 1_565 S
N538 C535 1.384 . S
N539 C531 1.427 . S
N539 C537 1.384 . S
H540 C546 0.930 . S
H541 C550 0.930 . S
H542 C555 0.929 . S
H543 C553 0.929 . S
H544 C548 0.929 . S
H545 C554 0.929 . S
C546 H540 0.930 . S
C546 C547 1.367 . S
C546 C554 1.378 . S
C547 C546 1.367 . S
C547 C555 1.433 . S
C548 H544 0.929 . S
C548 C550 1.378 . S
C548 C552 1.350 . S
C549 C552 1.463 . S
C549 C554 1.350 . S
C549 N557 1.427 . S
C550 H541 0.930 . S
C550 C548 1.378 . S
C550 C551 1.367 . S
C551 C550 1.367 . S
C551 C553 1.433 . S
C552 C548 1.350 . S
C552 C549 1.463 . S
C552 N556 1.427 . S
C553 H543 0.929 . S
C553 C551 1.433 . S
C553 N556 1.384 . S
C554 H545 0.929 . S
C554 C546 1.378 . S
C554 C549 1.350 . S
C555 H542 0.929 . S
C555 C547 1.433 . S
C555 N557 1.384 . S
N556 C552 1.427 . S
N556 C553 1.384 . S
N557 C549 1.427 . S
N557 C555 1.384 . S
H558 C564 0.930 . S
H559 C568 0.930 . S
H560 C573 0.905 1_565 S
H561 C571 0.929 . S
H562 C566 0.929 . S
H563 C572 0.929 . S
C564 H558 0.930 . S
C564 C565 1.367 . S
C564 C572 1.378 . S
C565 C564 1.367 . S
C565 C573 1.451 . S
C566 H562 0.929 . S
C566 C568 1.378 . S
C566 C570 1.350 1_565 S
C567 C570 1.463 . S
C567 C572 1.350 . S
C567 N575 1.427 1_545 S
C568 H559 0.930 . S
C568 C566 1.378 . S
C568 C569 1.367 1_565 S
C569 C568 1.367 1_545 S
C569 C571 1.433 . S
C570 C566 1.350 1_545 S
C570 C567 1.463 . S
C570 N574 1.427 . S
C571 H561 0.929 . S
C571 C569 1.433 . S
C571 N574 1.384 . S
C572 H563 0.929 . S
C572 C564 1.378 . S
C572 C567 1.350 . S
C573 H560 0.905 1_545 S
C573 C565 1.451 . S
C573 N575 1.392 1_545 S
N574 C570 1.427 . S
N574 C571 1.384 . S
N575 C567 1.427 1_565 S
N575 C573 1.392 1_565 S
H576 C582 0.930 . S
H577 C586 0.930 . S
H578 C591 0.987 . S
H579 C589 0.929 . S
H580 C584 0.929 . S
H581 C590 0.929 . S
C582 H576 0.930 . S
C582 C583 1.367 . S
C582 C590 1.378 . S
C583 C582 1.367 . S
C583 C591 1.433 . S
C584 H580 0.929 . S
C584 C586 1.378 . S
C584 C588 1.350 . S
C585 C588 1.463 . S
C585 C590 1.350 . S
C585 N593 1.427 . S
C586 H577 0.930 . S
C586 C584 1.378 . S
C586 C587 1.367 . S
C587 C586 1.367 . S
C587 C589 1.433 . S
C588 C584 1.350 . S
C588 C585 1.463 . S
C588 N592 1.427 . S
C589 H579 0.929 . S
C589 C587 1.433 . S
C589 N592 1.384 . S
C590 H581 0.929 . S
C590 C582 1.378 . S
C590 C585 1.350 . S
C591 H578 0.987 . S
C591 C583 1.433 . S
C591 N593 1.384 . S
N592 C588 1.427 . S
N592 C589 1.384 . S
N593 C585 1.427 . S
N593 C591 1.384 . S
H594 C600 0.930 1_455 S
H595 C604 0.930 . S
H596 C609 0.929 . S
H597 C607 0.929 . S
H598 C602 0.929 . S
H599 C608 0.929 1_455 S
C600 H594 0.930 1_655 S
C600 C601 1.367 . S
C600 C608 1.378 . S
C601 C600 1.367 . S
C601 C609 1.433 . S
C602 H598 0.929 . S
C602 C604 1.378 . S
C602 C606 1.350 . S
C603 C606 1.463 . S
C603 C608 1.350 . S
C603 N611 1.427 . S
C604 H595 0.930 . S
C604 C602 1.378 . S
C604 C605 1.367 . S
C605 C604 1.367 . S
C605 C607 1.433 1_655 S
C606 C602 1.350 . S
C606 C603 1.463 . S
C606 N610 1.427 1_655 S
C607 H597 0.929 . S
C607 C605 1.433 1_455 S
C607 N610 1.384 . S
C608 H599 0.929 1_655 S
C608 C600 1.378 . S
C608 C603 1.350 . S
C609 H596 0.929 . S
C609 C601 1.433 . S
C609 N611 1.384 . S
N610 C606 1.427 1_455 S
N610 C607 1.384 . S
N611 C603 1.427 . S
N611 C609 1.384 . S
H612 C618 0.930 1_545 S
H613 C622 0.930 . S
H614 C627 0.929 . S
H615 C625 0.929 . S
H616 C620 0.929 . S
H617 C626 0.929 . S
C618 H612 0.930 1_565 S
C618 C619 1.367 . S
C618 C626 1.378 1_565 S
C619 C618 1.367 . S
C619 C627 1.433 . S
C620 H616 0.929 . S
C620 C622 1.378 . S
C620 C624 1.350 . S
C621 C624 1.463 . S
C621 C626 1.350 1_565 S
C621 N629 1.427 . S
C622 H613 0.930 . S
C622 C620 1.378 . S
C622 C623 1.367 . S
C623 C622 1.367 . S
C623 C625 1.433 1_565 S
C624 C620 1.350 . S
C624 C621 1.463 . S
C624 N628 1.427 1_565 S
C625 H615 0.929 . S
C625 C623 1.433 1_545 S
C625 N628 1.384 . S
C626 H617 0.929 . S
C626 C618 1.378 1_545 S
C626 C621 1.350 1_545 S
C627 H614 0.929 . S
C627 C619 1.433 . S
C627 N629 1.384 . S
N628 C624 1.427 1_545 S
N628 C625 1.384 . S
N629 C621 1.427 . S
N629 C627 1.384 . S
H630 C636 0.930 . S
H631 C640 0.930 . S
H632 C645 0.929 . S
H633 C643 0.929 . S
H634 C638 0.929 . S
H635 C644 0.929 . S
C636 H630 0.930 . S
C636 C637 1.367 . S
C636 C644 1.378 . S
C637 C636 1.367 . S
C637 C645 1.433 . S
C638 H634 0.929 . S
C638 C640 1.378 . S
C638 C642 1.350 . S
C639 C642 1.463 . S
C639 C644 1.350 . S
C639 N647 1.427 . S
C640 H631 0.930 . S
C640 C638 1.378 . S
C640 C641 1.367 . S
C641 C640 1.367 . S
C641 C643 1.433 . S
C642 C638 1.350 . S
C642 C639 1.463 . S
C642 N646 1.427 . S
C643 H633 0.929 . S
C643 C641 1.433 . S
C643 N646 1.384 . S
C644 H635 0.929 . S
C644 C636 1.378 . S
C644 C639 1.350 . S
C645 H632 0.929 . S
C645 C637 1.433 . S
C645 N647 1.384 . S
N646 C642 1.427 . S
N646 C643 1.384 . S
N647 C639 1.427 . S
N647 C645 1.384 . S
H648 C654 0.930 1_655 S
H649 C658 0.930 . S
H650 C663 0.929 . S
H651 C661 0.929 . S
H652 C656 0.929 . S
H653 C662 0.929 . S
C654 H648 0.930 1_455 S
C654 C655 1.367 . S
C654 C662 1.378 1_455 S
C655 C654 1.367 . S
C655 C663 1.433 . S
C656 H652 0.929 . S
C656 C658 1.378 . S
C656 C660 1.350 . S
C657 C660 1.463 . S
C657 C662 1.350 1_455 S
C657 N665 1.427 . S
C658 H649 0.930 . S
C658 C656 1.378 . S
C658 C659 1.367 . S
C659 C658 1.367 . S
C659 C661 1.433 1_455 S
C660 C656 1.350 . S
C660 C657 1.463 . S
C660 N664 1.427 1_455 S
C661 H651 0.929 . S
C661 C659 1.433 1_655 S
C661 N664 1.384 . S
C662 H653 0.929 . S
C662 C654 1.378 1_655 S
C662 C657 1.350 1_655 S
C663 H650 0.929 . S
C663 C655 1.433 . S
C663 N665 1.384 . S
N664 C660 1.427 1_655 S
N664 C661 1.384 . S
N665 C657 1.427 . S
N665 C663 1.384 . S
C461 C317 1.314 . S
C457 C29 1.307 . S
C475 C137 1.319 . S
C479 C361 1.327 1_565 S
C493 C225 1.310 . S
C497 C423 1.329 . S
C511 C49 1.315 . S
C515 C299 1.333 1_455 S
C533 C379 1.311 . S
C529 C117 1.307 . S
C547 C205 1.312 . S
C551 C441 1.315 . S
C569 C355 1.564 . S
C565 C233 1.668 . S
C583 C57 1.661 . S
C587 C417 1.568 . S
C605 C293 1.550 . S
C601 C108 1.660 . S
C623 C373 1.583 1_565 S
C619 C196 1.653 . S
C641 C435 1.590 . S
C637 C20 1.661 . S
C655 C145 1.656 . S
C659 C311 1.581 1_455 S
