# Generated by pormake.
# Topology ctn, (3,4)-cn, num edge types: 1
# Building blocks:
#     Node 0, Type 0, BuildingBlock: PAMTOO_clean_linker_0, # of connection points: 3
#     Node 1, Type 0, BuildingBlock: PAMTOO_clean_linker_0, # of connection points: 3
#     Node 2, Type 0, BuildingBlock: PAMTOO_clean_linker_0, # of connection points: 3
#     Node 3, Type 0, BuildingBlock: PAMTOO_clean_linker_0, # of connection points: 3
#     Node 4, Type 0, BuildingBlock: PAMTOO_clean_linker_0, # of connection points: 3
#     Node 5, Type 0, BuildingBlock: PAMTOO_clean_linker_0, # of connection points: 3
#     Node 6, Type 0, BuildingBlock: PAMTOO_clean_linker_0, # of connection points: 3
#     Node 7, Type 0, BuildingBlock: PAMTOO_clean_linker_0, # of connection points: 3
#     Node 8, Type 0, BuildingBlock: PAMTOO_clean_linker_0, # of connection points: 3
#     Node 9, Type 0, BuildingBlock: PAMTOO_clean_linker_0, # of connection points: 3
#     Node 10, Type 0, BuildingBlock: PAMTOO_clean_linker_0, # of connection points: 3
#     Node 11, Type 0, BuildingBlock: PAMTOO_clean_linker_0, # of connection points: 3
#     Node 12, Type 0, BuildingBlock: PAMTOO_clean_linker_0, # of connection points: 3
#     Node 13, Type 0, BuildingBlock: PAMTOO_clean_linker_0, # of connection points: 3
#     Node 14, Type 0, BuildingBlock: PAMTOO_clean_linker_0, # of connection points: 3
#     Node 15, Type 0, BuildingBlock: PAMTOO_clean_linker_0, # of connection points: 3
#     Node 16, Type 1, BuildingBlock: KUFVIS_clean_sbu_0, # of connection points: 4
#     Node 17, Type 1, BuildingBlock: KUFVIS_clean_sbu_0, # of connection points: 4
#     Node 18, Type 1, BuildingBlock: KUFVIS_clean_sbu_0, # of connection points: 4
#     Node 19, Type 1, BuildingBlock: KUFVIS_clean_sbu_0, # of connection points: 4
#     Node 20, Type 1, BuildingBlock: KUFVIS_clean_sbu_0, # of connection points: 4
#     Node 21, Type 1, BuildingBlock: KUFVIS_clean_sbu_0, # of connection points: 4
#     Node 22, Type 1, BuildingBlock: KUFVIS_clean_sbu_0, # of connection points: 4
#     Node 23, Type 1, BuildingBlock: KUFVIS_clean_sbu_0, # of connection points: 4
#     Node 24, Type 1, BuildingBlock: KUFVIS_clean_sbu_0, # of connection points: 4
#     Node 25, Type 1, BuildingBlock: KUFVIS_clean_sbu_0, # of connection points: 4
#     Node 26, Type 1, BuildingBlock: KUFVIS_clean_sbu_0, # of connection points: 4
#     Node 27, Type 1, BuildingBlock: KUFVIS_clean_sbu_0, # of connection points: 4
#     Edge 28, Type (0, 1), BuildingBlock: CIFDUS_clean_linker_0, # of connection points: 2
#     Edge 29, Type (0, 1), BuildingBlock: CIFDUS_clean_linker_0, # of connection points: 2
#     Edge 30, Type (0, 1), BuildingBlock: CIFDUS_clean_linker_0, # of connection points: 2
#     Edge 31, Type (0, 1), BuildingBlock: CIFDUS_clean_linker_0, # of connection points: 2
#     Edge 32, Type (0, 1), BuildingBlock: CIFDUS_clean_linker_0, # of connection points: 2
#     Edge 33, Type (0, 1), BuildingBlock: CIFDUS_clean_linker_0, # of connection points: 2
#     Edge 34, Type (0, 1), BuildingBlock: CIFDUS_clean_linker_0, # of connection points: 2
#     Edge 35, Type (0, 1), BuildingBlock: CIFDUS_clean_linker_0, # of connection points: 2
#     Edge 36, Type (0, 1), BuildingBlock: CIFDUS_clean_linker_0, # of connection points: 2
#     Edge 37, Type (0, 1), BuildingBlock: CIFDUS_clean_linker_0, # of connection points: 2
#     Edge 38, Type (0, 1), BuildingBlock: CIFDUS_clean_linker_0, # of connection points: 2
#     Edge 39, Type (0, 1), BuildingBlock: CIFDUS_clean_linker_0, # of connection points: 2
#     Edge 40, Type (0, 1), BuildingBlock: CIFDUS_clean_linker_0, # of connection points: 2
#     Edge 41, Type (0, 1), BuildingBlock: CIFDUS_clean_linker_0, # of connection points: 2
#     Edge 42, Type (0, 1), BuildingBlock: CIFDUS_clean_linker_0, # of connection points: 2
#     Edge 43, Type (0, 1), BuildingBlock: CIFDUS_clean_linker_0, # of connection points: 2
#     Edge 44, Type (0, 1), BuildingBlock: CIFDUS_clean_linker_0, # of connection points: 2
#     Edge 45, Type (0, 1), BuildingBlock: CIFDUS_clean_linker_0, # of connection points: 2
#     Edge 46, Type (0, 1), BuildingBlock: CIFDUS_clean_linker_0, # of connection points: 2
#     Edge 47, Type (0, 1), BuildingBlock: CIFDUS_clean_linker_0, # of connection points: 2
#     Edge 48, Type (0, 1), BuildingBlock: CIFDUS_clean_linker_0, # of connection points: 2
#     Edge 49, Type (0, 1), BuildingBlock: CIFDUS_clean_linker_0, # of connection points: 2
#     Edge 50, Type (0, 1), BuildingBlock: CIFDUS_clean_linker_0, # of connection points: 2
#     Edge 51, Type (0, 1), BuildingBlock: CIFDUS_clean_linker_0, # of connection points: 2
#     Edge 52, Type (0, 1), BuildingBlock: CIFDUS_clean_linker_0, # of connection points: 2
#     Edge 53, Type (0, 1), BuildingBlock: CIFDUS_clean_linker_0, # of connection points: 2
#     Edge 54, Type (0, 1), BuildingBlock: CIFDUS_clean_linker_0, # of connection points: 2
#     Edge 55, Type (0, 1), BuildingBlock: CIFDUS_clean_linker_0, # of connection points: 2
#     Edge 56, Type (0, 1), BuildingBlock: CIFDUS_clean_linker_0, # of connection points: 2
#     Edge 57, Type (0, 1), BuildingBlock: CIFDUS_clean_linker_0, # of connection points: 2
#     Edge 58, Type (0, 1), BuildingBlock: CIFDUS_clean_linker_0, # of connection points: 2
#     Edge 59, Type (0, 1), BuildingBlock: CIFDUS_clean_linker_0, # of connection points: 2
#     Edge 60, Type (0, 1), BuildingBlock: CIFDUS_clean_linker_0, # of connection points: 2
#     Edge 61, Type (0, 1), BuildingBlock: CIFDUS_clean_linker_0, # of connection points: 2
#     Edge 62, Type (0, 1), BuildingBlock: CIFDUS_clean_linker_0, # of connection points: 2
#     Edge 63, Type (0, 1), BuildingBlock: CIFDUS_clean_linker_0, # of connection points: 2
#     Edge 64, Type (0, 1), BuildingBlock: CIFDUS_clean_linker_0, # of connection points: 2
#     Edge 65, Type (0, 1), BuildingBlock: CIFDUS_clean_linker_0, # of connection points: 2
#     Edge 66, Type (0, 1), BuildingBlock: CIFDUS_clean_linker_0, # of connection points: 2
#     Edge 67, Type (0, 1), BuildingBlock: CIFDUS_clean_linker_0, # of connection points: 2
#     Edge 68, Type (0, 1), BuildingBlock: CIFDUS_clean_linker_0, # of connection points: 2
#     Edge 69, Type (0, 1), BuildingBlock: CIFDUS_clean_linker_0, # of connection points: 2
#     Edge 70, Type (0, 1), BuildingBlock: CIFDUS_clean_linker_0, # of connection points: 2
#     Edge 71, Type (0, 1), BuildingBlock: CIFDUS_clean_linker_0, # of connection points: 2
#     Edge 72, Type (0, 1), BuildingBlock: CIFDUS_clean_linker_0, # of connection points: 2
#     Edge 73, Type (0, 1), BuildingBlock: CIFDUS_clean_linker_0, # of connection points: 2
#     Edge 74, Type (0, 1), BuildingBlock: CIFDUS_clean_linker_0, # of connection points: 2
#     Edge 75, Type (0, 1), BuildingBlock: CIFDUS_clean_linker_0, # of connection points: 2
# Relax obj value: 0.076
# Max RMSD: 0.178
# Mean RMSD: 0.121
data_MOF--net-ctn--node1-KUFVIS_clean_sbu_0--node2-PAMTOO_clean_linker_0--edge1-CIFDUS_clean_linker_0
_symmetry_space_group_name_H-M    P1
_symmetry_Int_Tables_number       1
_symmetry_cell_setting            triclinic
loop_
_symmetry_equiv_pos_as_xyz
'x, y, z'
_cell_length_a     45.734951
_cell_length_b     45.895361
_cell_length_c     47.09168
_cell_angle_alpha  85.843726
_cell_angle_beta   92.430028
_cell_angle_gamma 98.856494
loop_
_atom_site_label
_atom_site_type_symbol
_atom_site_fract_x
_atom_site_fract_y
_atom_site_fract_z
_atom_type_partial_charge
H0 H 0.01239 0.09552 0.08349 0.0
H1 H 0.05973 0.02072 0.09284 0.0
H2 H 0.0725 0.08169 0.01973 0.0
H3 H 0.07216 0.01988 1.00846 0.0
C4 C 0.08152 0.01155 0.02914 0.0
O5 O 0.08916 0.03473 0.04646 0.0
H6 H 0.06417 0.9948 0.03927 0.0
C7 C 0.02749 0.08224 0.07558 0.0
C8 C 0.04088 0.09133 0.04938 0.0
C9 C 0.03374 0.05666 0.0917 0.0
C10 C 0.05463 0.04073 0.0814 0.0
C11 C 0.06879 0.05004 0.05577 0.0
C12 C 0.0619 0.07521 0.03984 0.0
H13 H 0.35774 0.67374 0.24776 0.0
H14 H 0.3096 0.71382 0.17877 0.0
H15 H 0.3922 0.75958 0.20949 0.0
H16 H 0.35532 0.80218 0.19128 0.0
C17 C 0.33676 0.78676 0.18212 0.0
O18 O 0.34759 0.76237 0.1736 0.0
H19 H 0.3202 0.77984 0.19896 0.0
C20 C 0.35603 0.69178 0.23195 0.0
C21 C 0.37799 0.71687 0.23143 0.0
C22 C 0.3313 0.69014 0.21294 0.0
C23 C 0.32886 0.71404 0.19301 0.0
C24 C 0.35081 0.73892 0.19194 0.0
C25 C 0.37548 0.74009 0.2107 0.0
H26 H 1.00263 0.55109 0.10072 0.0
H27 H 0.96376 0.50267 0.0297 0.0
H28 H 0.03829 0.47544 0.0759 0.0
H29 H 0.04064 0.48396 0.01202 0.0
C30 C 0.01858 0.47076 1.00756 0.0
O31 O 1.00258 0.46611 0.03222 0.0
H32 H 1.00653 0.48347 0.9912 0.0
C33 C 1.00176 0.53287 0.08722 0.0
C34 C 0.02302 0.51356 0.09175 0.0
C35 C 0.97976 0.52924 0.06516 0.0
C36 C 0.98034 0.50647 0.04666 0.0
C37 C 1.002 0.48779 0.05022 0.0
C38 C 0.02271 0.491 0.07293 0.0
H39 H 0.71193 0.86158 0.26115 0.0
H40 H 0.68669 0.77504 0.23035 0.0
H41 H 0.75364 0.83662 0.18801 0.0
H42 H 0.69671 0.80286 0.15597 0.0
C43 C 0.70215 0.78085 0.16411 0.0
O44 O 0.72201 0.78422 0.18704 0.0
H45 H 0.68137 0.7669 0.17126 0.0
C46 C 0.71438 0.84552 0.24599 0.0
C47 C 0.73541 0.85271 0.22462 0.0
C48 C 0.69693 0.81754 0.24858 0.0
C49 C 0.70012 0.79667 0.22891 0.0
C50 C 0.71998 0.80396 0.20667 0.0
C51 C 0.73768 0.83178 0.20469 0.0
H52 H 0.1076 0.9538 0.55 0.0
H53 H 0.03581 0.94141 0.48719 0.0
H54 H 0.10557 0.01429 0.4761 0.0
H55 H 0.04839 0.0295 0.45306 0.0
C56 C 0.03645 1.00666 0.4512 0.0
O57 O 0.05677 0.98715 0.45388 0.0
H58 H 0.02012 1.00157 0.4684 0.0
C59 C 0.09642 0.96096 0.53059 0.0
C60 C 0.10948 0.98641 0.5147 0.0
C61 C 0.06992 0.94407 0.52083 0.0
C62 C 0.05635 0.9536 0.4951 0.0
C63 C 0.06922 0.97894 0.47919 0.0
C64 C 0.09578 0.995 0.48883 0.0
H65 H 0.18256 0.76188 0.83267 0.0
H66 H 0.20812 0.69339 0.78548 0.0
H67 H 0.26018 0.72266 0.85862 0.0
H68 H 0.29701 0.71455 0.81611 0.0
C69 C 0.28197 0.70015 0.802 0.0
O70 O 0.25647 0.68866 0.81625 0.0
H71 H 0.27614 0.71389 0.78271 0.0
C72 C 0.19723 0.74591 0.83005 0.0
C73 C 0.22196 0.74474 0.84874 0.0
C74 C 0.19168 0.72713 0.80743 0.0
C75 C 0.21143 0.70727 0.80335 0.0
C76 C 0.23625 0.70607 0.82161 0.0
C77 C 0.24101 0.72416 0.84457 0.0
H78 H 0.93872 0.57391 0.52676 0.0
H79 H 0.96979 0.52213 0.46512 0.0
H80 H 0.02744 0.5967 0.49547 0.0
H81 H 0.01852 0.58678 0.42953 0.0
C82 C 0.01966 0.56266 0.43204 0.0
O83 O 0.02176 0.55377 0.46063 0.0
H84 H 0.99885 0.551 0.42243 0.0
C85 C 0.95631 0.56963 0.51368 0.0
C86 C 0.98406 0.58813 0.51411 0.0
C87 C 0.95076 0.54617 0.49563 0.0
C88 C 0.97365 0.54025 0.47903 0.0
C89 C 1.00109 0.55846 0.47886 0.0
C90 C 1.00631 0.58235 0.49634 0.0
H91 H 0.78594 0.82518 0.86769 0.0
H92 H 0.86219 0.79814 0.8321 0.0
H93 H 0.82209 0.86857 0.78986 0.0
H94 H 0.84745 0.83825 0.74732 0.0
C95 C 0.8573 0.82269 0.76273 0.0
O96 O 0.86437 0.83613 0.78798 0.0
H97 H 0.84025 0.80269 0.76604 0.0
C98 C 0.80281 0.82814 0.8518 0.0
C99 C 0.80165 0.84946 0.82886 0.0
C100 C 0.82463 0.80937 0.85317 0.0
C101 C 0.8455 0.81259 0.83163 0.0
C102 C 0.84477 0.83405 0.80907 0.0
C103 C 0.82299 0.85252 0.80781 0.0
H104 H 0.2811 0.3441 0.36597 0.0
H105 H 0.35017 0.29564 0.34477 0.0
H106 H 0.3284 0.36743 0.28869 0.0
H107 H 0.34797 0.32688 0.25587 0.0
C108 C 0.35536 0.3116 0.27317 0.0
O109 O 0.36301 0.32701 0.29721 0.0
H110 H 0.33634 0.29368 0.27739 0.0
C111 C 0.29835 0.34063 0.35209 0.0
C112 C 0.30233 0.35826 0.32646 0.0
C113 C 0.31521 0.31758 0.35907 0.0
C114 C 0.33739 0.31356 0.3405 0.0
C115 C 0.34237 0.3318 0.31543 0.0
C116 C 0.3249 0.35405 0.30852 0.0
H117 H 0.4802 0.04511 0.60323 0.0
H118 H 0.45897 0.99167 0.53133 0.0
H119 H 0.52347 0.96922 0.59332 0.0
H120 H 0.53851 0.95904 0.53534 0.0
C121 C 0.51582 0.95566 0.52546 0.0
O122 O 0.49543 0.95481 0.5465 0.0
H123 H 0.51369 0.97437 0.5095 0.0
C124 C 0.48363 0.02665 0.59144 0.0
C125 C 0.50531 1.00891 0.60137 0.0
C126 C 0.46588 0.02033 0.56658 0.0
C127 C 0.47128 0.99669 0.55097 0.0
C128 C 0.49221 0.97875 0.56063 0.0
C129 C 0.50857 0.98449 0.58584 0.0
H130 H 0.20137 0.36991 0.75105 0.0
H131 H 0.1605 0.28792 0.71785 0.0
H132 H 0.24206 0.33277 0.68395 0.0
H133 H 0.19869 0.31108 0.64205 0.0
C134 C 0.18904 0.28961 0.65289 0.0
O135 O 0.20103 0.28695 0.6802 0.0
H136 H 0.16473 0.28923 0.65411 0.0
C137 C 0.20164 0.3525 0.73674 0.0
C138 C 0.2247 0.35454 0.71745 0.0
C139 C 0.17839 0.32858 0.73723 0.0
C140 C 0.17816 0.3066 0.71781 0.0
C141 C 0.20109 0.30829 0.69862 0.0
C142 C 0.2243 0.33205 0.69863 0.0
H143 H 0.85944 0.17907 0.77411 0.0
H144 H 0.80025 0.20066 0.7048 0.0
H145 H 0.87816 0.26143 0.72338 0.0
H146 H 0.83003 0.29113 0.71138 0.0
C147 C 0.81481 0.27486 0.69925 0.0
O148 O 0.82994 0.25282 0.69182 0.0
H149 H 0.79621 0.26499 0.71313 0.0
C150 C 0.85403 0.19383 0.75633 0.0
C151 C 0.87218 0.22123 0.75108 0.0
C152 C 0.82823 0.18584 0.73949 0.0
C153 C 0.82066 0.2057 0.71724 0.0
C154 C 0.83861 0.23289 0.71173 0.0
C155 C 0.86458 0.24026 0.72808 0.0
H156 H 0.50857 0.60113 0.56547 0.0
H157 H 0.54376 0.51957 0.58438 0.0
H158 H 0.57423 0.57677 0.51259 0.0
H159 H 0.56624 0.51327 0.5047 0.0
C160 C 0.57403 0.50513 0.52611 0.0
O161 O 0.5811 0.52853 0.54325 0.0
H162 H 0.55569 0.48905 0.53552 0.0
C163 C 0.52261 0.58543 0.56032 0.0
C164 C 0.54059 0.592 0.53641 0.0
C165 C 0.52314 0.55926 0.57796 0.0
C166 C 0.54289 0.54003 0.57164 0.0
C167 C 0.56149 0.54668 0.54841 0.0
C168 C 0.56017 0.57242 0.53083 0.0
H169 H 0.60985 0.45837 0.04202 0.0
H170 H 0.53639 0.44574 0.98103 0.0
H171 H 0.60473 0.51998 0.96936 0.0
H172 H 0.54652 0.53372 0.94577 0.0
C173 C 0.53511 0.51053 0.94536 0.0
O174 O 0.55611 0.49176 0.94763 0.0
H175 H 0.51992 0.50587 0.96353 0.0
C176 C 0.59793 0.46562 0.0231 0.0
C177 C 0.61015 0.49147 1.00729 0.0
C178 C 0.57132 0.4485 0.0139 0.0
C179 C 0.55699 0.45809 0.98861 0.0
C180 C 0.56914 0.48374 0.97269 0.0
C181 C 0.59561 0.50024 0.98196 0.0
H182 H 0.65115 0.24226 0.34669 0.0
H183 H 0.68535 0.17337 0.30737 0.0
H184 H 0.73117 0.21148 0.38023 0.0
H185 H 0.77044 0.19988 0.33561 0.0
C186 C 0.75628 0.18081 0.32621 0.0
O187 O 0.7314 0.17274 0.34233 0.0
H188 H 0.74962 0.18769 0.30402 0.0
C189 C 0.66751 0.22754 0.34639 0.0
C190 C 0.69146 0.22974 0.36636 0.0
C191 C 0.6651 0.2073 0.32509 0.0
C192 C 0.68688 0.18902 0.32373 0.0
C193 C 0.71065 0.19067 0.34359 0.0
C194 C 0.71281 0.21081 0.36487 0.0
H195 H 0.45425 0.06792 0.03956 0.0
H196 H 0.47088 0.01343 0.97323 0.0
H197 H 0.53752 0.08459 0.99674 0.0
H198 H 0.51096 0.07138 0.9311 0.0
C199 C 0.51717 0.04877 0.93383 0.0
O200 O 0.52349 0.04166 0.96223 0.0
H201 H 0.49773 0.03317 0.92646 0.0
C202 C 0.46893 0.06237 0.02398 0.0
C203 C 0.49741 0.07897 0.02089 0.0
C204 C 0.45905 0.03898 1.00657 0.0
C205 C 0.47819 0.03151 0.98669 0.0
C206 C 0.50628 0.04801 0.983 0.0
C207 C 0.51587 0.07169 1.00005 0.0
Mn208 Mn 0.25826 0.89356 1.00096 0.0
Mn209 Mn 0.25421 0.91941 0.93221 0.0
C210 C 0.23514 0.86313 0.96677 0.0
C211 C 0.28296 0.87099 0.03878 0.0
C212 C 0.21585 0.93583 0.97798 0.0
O213 O 0.29002 0.93022 0.99941 0.0
O214 O 0.28774 0.94317 0.95236 0.0
C215 C 0.31048 0.90474 0.91243 0.0
N216 N 0.28043 0.90235 0.91004 0.0
C217 C 0.27881 0.87266 0.86976 0.0
C218 C 0.30975 0.87493 0.8717 0.0
C219 C 0.32563 0.89097 0.89318 0.0
C220 C 0.26492 0.88687 0.88952 0.0
H221 H 0.32278 0.91703 0.92891 0.0
C222 C 0.29949 0.94631 0.9774 0.0
O223 O 0.26328 0.88765 0.04307 0.0
O224 O 0.28877 0.86797 0.01251 0.0
N225 N 0.22301 0.89783 0.91033 0.0
C226 C 0.19317 0.89623 0.91247 0.0
C227 C 0.17404 0.88001 0.89321 0.0
C228 C 0.18576 0.86578 0.87186 0.0
C229 C 0.21653 0.86793 0.86994 0.0
C230 C 0.23451 0.88451 0.88964 0.0
H231 H 0.18403 0.90712 0.92883 0.0
O232 O 0.22896 0.85742 0.99343 0.0
O233 O 0.25443 0.88646 0.96102 0.0
O234 O 0.22529 0.91939 0.99823 0.0
O235 O 0.2258 0.93794 0.95284 0.0
C236 C 0.23005 0.85386 0.84953 0.0
C237 C 0.26117 0.85628 0.8494 0.0
H238 H 0.32151 0.86421 0.85699 0.0
H239 H 0.3495 0.8927 0.89491 0.0
H240 H 0.15031 0.87842 0.89486 0.0
H241 H 0.17092 0.8531 0.85719 0.0
H242 H 0.21671 0.84077 0.83411 0.0
H243 H 0.27129 0.84498 0.8339 0.0
Mn244 Mn 0.17117 0.51745 0.27379 0.0
Mn245 Mn 0.15514 0.58684 0.27211 0.0
C246 C 0.20355 0.55684 0.2537 0.0
C247 C 0.19389 0.47933 0.29681 0.0
C248 C 0.12388 0.53982 0.23425 0.0
O249 O 0.13859 0.51471 0.30339 0.0
O250 O 0.13616 0.56347 0.30522 0.0
C251 C 0.18745 0.60736 0.32457 0.0
N252 N 0.18228 0.61088 0.29594 0.0
C253 C 0.21815 0.65515 0.29245 0.0
C254 C 0.22339 0.65231 0.322 0.0
C255 C 0.20809 0.62821 0.3381 0.0
C256 C 0.19722 0.63375 0.28018 0.0
H257 H 0.17615 0.58861 0.3369 0.0
C258 C 0.12962 0.53638 0.31452 0.0
O259 O 0.17305 0.47399 0.27744 0.0
O260 O 0.20028 0.50639 0.30391 0.0
N261 N 0.173 0.61156 0.24103 0.0
C262 C 0.16731 0.60967 0.21252 0.0
C263 C 0.18198 0.63128 0.19326 0.0
C264 C 0.20221 0.65468 0.20348 0.0
C265 C 0.20766 0.65622 0.2329 0.0
C266 C 0.19226 0.63414 0.25109 0.0
H267 H 0.15174 0.59182 0.20449 0.0
O268 O 0.2048 0.53014 0.24706 0.0
O269 O 0.18348 0.55936 0.27151 0.0
O270 O 0.14062 0.52036 0.2408 0.0
O271 O 0.12618 0.56427 0.24617 0.0
C272 C 0.22828 0.67841 0.24484 0.0
C273 C 0.23356 0.67785 0.27459 0.0
H274 H 0.23948 0.66822 0.33247 0.0
H275 H 0.21233 0.62562 0.36085 0.0
H276 H 0.17774 0.62987 0.17058 0.0
H277 H 0.21368 0.67115 0.18855 0.0
H278 H 0.24064 0.69567 0.23129 0.0
H279 H 0.24993 0.69467 0.28346 0.0
Mn280 Mn 0.8005 0.6405 0.02806 0.0
Mn281 Mn 0.73779 0.659 0.99555 0.0
C282 C 0.75752 0.60597 0.0263 0.0
C283 C 0.8455 0.62163 0.02728 0.0
C284 C 0.76116 0.67967 0.05332 0.0
O285 O 0.81542 0.67846 1.00335 0.0
O286 O 0.77258 0.68495 0.9795 0.0
C287 C 0.74565 0.64192 0.93724 0.0
N288 N 0.72917 0.63963 0.96093 0.0
C289 C 0.68979 0.60708 0.93889 0.0
C290 C 0.70628 0.6092 0.91419 0.0
C291 C 0.73438 0.6266 0.91341 0.0
C292 C 0.70223 0.62273 0.962 0.0
H293 H 0.7672 0.65533 0.93656 0.0
C294 C 0.80046 0.69177 0.98425 0.0
O295 O 0.8403 0.63846 0.04688 0.0
O296 O 0.8252 0.61692 1.00733 0.0
N297 N 0.70225 0.63533 0.00898 0.0
C298 C 0.68982 0.63448 0.03488 0.0
C299 C 0.66193 0.61751 0.03943 0.0
C300 C 0.64693 0.60192 0.01721 0.0
C301 C 0.66003 0.60336 0.99066 0.0
C302 C 0.68786 0.62064 0.98739 0.0
H303 H 0.70109 0.64665 0.05196 0.0
O304 O 0.77816 0.60256 0.04546 0.0
O305 O 0.76262 0.62928 0.00894 0.0
O306 O 0.78263 0.6648 0.05601 0.0
O307 O 0.74404 0.6798 0.03117 0.0
C308 C 0.64675 0.588 0.96745 0.0
C309 C 0.66168 0.58972 0.94162 0.0
H310 H 0.69767 0.59742 0.89577 0.0
H311 H 0.74729 0.62826 0.89447 0.0
H312 H 0.65199 0.61648 0.05999 0.0
H313 H 0.62551 0.58871 0.02085 0.0
H314 H 0.62525 0.57446 0.96937 0.0
H315 H 0.65146 0.5774 0.92409 0.0
Mn316 Mn 0.88729 0.03399 0.26912 0.0
Mn317 Mn 0.90864 0.96663 0.26904 0.0
C318 C 0.85494 0.99416 0.25287 0.0
C319 C 0.86671 0.07049 0.29007 0.0
C320 C 0.92944 0.01734 0.2263 0.0
O321 O 0.9231 0.03686 0.29726 0.0
O322 O 0.93257 0.98997 0.29793 0.0
C323 C 0.88964 0.94228 0.32644 0.0
N324 N 0.88854 0.94027 0.29769 0.0
C325 C 0.85567 0.89398 0.30185 0.0
C326 C 0.85663 0.89546 0.33152 0.0
C327 C 0.87361 0.91976 0.34385 0.0
C328 C 0.8721 0.91708 0.28559 0.0
H329 H 0.9026 0.96094 0.33602 0.0
C330 C 0.93708 0.01595 0.30712 0.0
O331 O 0.88532 0.07684 0.26974 0.0
O332 O 0.86071 0.04287 0.29914 0.0
N333 N 0.88649 0.94167 0.24229 0.0
C334 C 0.8865 0.94445 0.21328 0.0
C335 C 0.86993 0.92233 0.19762 0.0
C336 C 0.85371 0.89751 0.21192 0.0
C337 C 0.85413 0.89507 0.24178 0.0
C338 C 0.87114 0.91774 0.25625 0.0
H339 H 0.89901 0.96341 0.20215 0.0
O340 O 0.85112 0.02098 0.24463 0.0
O341 O 0.87757 0.99166 0.26988 0.0
O342 O 0.91377 0.03523 0.23515 0.0
O343 O 0.93038 0.99157 0.23814 0.0
C344 C 0.83791 0.87128 0.25773 0.0
C345 C 0.8386 0.87079 0.28774 0.0
H346 H 0.84421 0.87819 0.34501 0.0
H347 H 0.87433 0.92114 0.36672 0.0
H348 H 0.86962 0.92443 0.17458 0.0
H349 H 0.84075 0.88062 0.19977 0.0
H350 H 0.82441 0.85352 0.24711 0.0
H351 H 0.82563 0.85264 0.29975 0.0
Mn352 Mn 0.29465 0.142 0.53141 0.0
Mn353 Mn 0.22961 0.15297 0.49821 0.0
C354 C 0.2533 0.1049 0.5327 0.0
C355 C 0.34101 0.1254 0.53401 0.0
C356 C 0.25072 0.17887 0.55404 0.0
O357 O 0.30789 0.17765 0.50296 0.0
O358 O 0.26279 0.18177 0.48342 0.0
C359 C 0.24298 0.1368 0.44093 0.0
N360 N 0.22503 0.13311 0.46367 0.0
C361 C 0.18919 0.09841 0.43981 0.0
C362 C 0.20724 0.10188 0.41609 0.0
C363 C 0.23433 0.12103 0.41673 0.0
C364 C 0.19918 0.11436 0.46348 0.0
H365 H 0.26366 0.15174 0.44123 0.0
C366 C 0.29072 0.1903 0.48548 0.0
O367 O 0.33481 0.14479 0.55062 0.0
O368 O 0.32096 0.11686 0.51477 0.0
N369 N 0.19513 0.12655 0.51012 0.0
C370 C 0.18059 0.12527 0.53495 0.0
C371 C 0.15311 0.10704 0.53785 0.0
C372 C 0.14059 0.0908 0.515 0.0
C373 C 0.15576 0.09282 0.48952 0.0
C374 C 0.18315 0.1112 0.48794 0.0
H375 H 0.18988 0.1381 0.5524 0.0
O376 O 0.27394 0.10506 0.55248 0.0
O377 O 0.25709 0.12647 0.51331 0.0
O378 O 0.27531 0.16881 0.55588 0.0
O379 O 0.23185 0.17382 0.53357 0.0
C380 C 0.1448 0.07733 0.4656 0.0
C381 C 0.16165 0.07981 0.44089 0.0
H382 H 0.20054 0.08992 0.3973 0.0
H383 H 0.24841 0.1238 0.39852 0.0
H384 H 0.14152 0.10563 0.55758 0.0
H385 H 0.1194 0.07673 0.51731 0.0
H386 H 0.12346 0.06343 0.466 0.0
H387 H 0.15316 0.06743 0.42281 0.0
Mn388 Mn 0.38872 0.52689 0.75889 0.0
Mn389 Mn 0.40851 0.45884 0.76404 0.0
C390 C 0.35615 0.48671 0.74379 0.0
C391 C 0.3674 0.56412 0.77778 0.0
C392 C 0.43302 0.50747 0.7203 0.0
O393 O 0.42374 0.53063 0.7879 0.0
O394 O 0.4309 0.48288 0.79335 0.0
C395 C 0.38538 0.43671 0.82063 0.0
N396 N 0.38596 0.43384 0.79209 0.0
C397 C 0.35106 0.38887 0.79562 0.0
C398 C 0.35026 0.39124 0.82509 0.0
C399 C 0.36745 0.4153 0.83762 0.0
C400 C 0.36946 0.41081 0.77979 0.0
H401 H 0.3984 0.45526 0.83034 0.0
C402 C 0.43611 0.50971 0.80042 0.0
O403 O 0.38623 0.56993 0.75752 0.0
O404 O 0.36185 0.53684 0.78788 0.0
N405 N 0.3875 0.43355 0.73692 0.0
C406 C 0.38913 0.43566 0.708 0.0
C407 C 0.37239 0.41388 0.69207 0.0
C408 C 0.35424 0.39012 0.70602 0.0
C409 C 0.35298 0.38837 0.7358 0.0
C410 C 0.37032 0.41062 0.75057 0.0
H411 H 0.40301 0.45387 0.69714 0.0
O412 O 0.3531 0.51328 0.73397 0.0
O413 O 0.37821 0.48471 0.76161 0.0
O414 O 0.41646 0.52605 0.72603 0.0
O415 O 0.43284 0.48244 0.73411 0.0
C416 C 0.33471 0.36578 0.75136 0.0
C417 C 0.33373 0.36603 0.78124 0.0
H418 H 0.3363 0.37489 0.83824 0.0
H419 H 0.3668 0.41738 0.86032 0.0
H420 H 0.37338 0.41545 0.66908 0.0
H421 H 0.34113 0.37353 0.69364 0.0
H422 H 0.32093 0.34837 0.7405 0.0
H423 H 0.31922 0.34882 0.79291 0.0
Mn424 Mn 0.75267 0.38532 0.51317 0.0
Mn425 Mn 0.75584 0.41308 0.44492 0.0
C426 C 0.73485 0.35547 0.47658 0.0
C427 C 0.77397 0.36235 0.55293 0.0
C428 C 0.71179 0.42737 0.48659 0.0
O429 O 0.78332 0.42265 0.51521 0.0
O430 O 0.78674 0.43669 0.4684 0.0
C431 C 0.81469 0.4002 0.43036 0.0
N432 N 0.78488 0.39718 0.42525 0.0
C433 C 0.78815 0.36787 0.38547 0.0
C434 C 0.81891 0.37083 0.39021 0.0
C435 C 0.83222 0.38703 0.41278 0.0
C436 C 0.77184 0.3817 0.40354 0.0
H437 H 0.82502 0.41252 0.44776 0.0
C438 C 0.79525 0.43931 0.49455 0.0
O439 O 0.75309 0.37815 0.55538 0.0
O440 O 0.78292 0.36044 0.52745 0.0
N441 N 0.72741 0.3915 0.42022 0.0
C442 C 0.69731 0.3889 0.41985 0.0
C443 C 0.68051 0.37228 0.3993 0.0
C444 C 0.69481 0.3586 0.3793 0.0
C445 C 0.72581 0.36169 0.38002 0.0
C446 C 0.7414 0.37869 0.40088 0.0
H447 H 0.68618 0.39924 0.43525 0.0
O448 O 0.72559 0.34882 0.50226 0.0
O449 O 0.75385 0.37946 0.47319 0.0
O450 O 0.71903 0.41022 0.50734 0.0
O451 O 0.72477 0.43057 0.46281 0.0
C452 C 0.74181 0.34802 0.36127 0.0
C453 C 0.77295 0.35113 0.36398 0.0
H454 H 0.83248 0.3605 0.37684 0.0
H455 H 0.85593 0.38929 0.41666 0.0
H456 H 0.65659 0.36988 0.39897 0.0
H457 H 0.68176 0.34553 0.36369 0.0
H458 H 0.73034 0.33466 0.345 0.0
H459 H 0.78497 0.34013 0.34972 0.0
Mn460 Mn 0.67119 1.00732 0.77545 0.0
Mn461 Mn 0.65373 0.07647 0.76773 0.0
C462 C 0.7028 0.04534 0.7524 0.0
C463 C 0.6946 0.9709 0.80098 0.0
C464 C 0.62435 0.02642 0.73252 0.0
O465 O 0.63897 1.00638 0.80496 0.0
O466 O 0.63348 0.05464 0.80099 0.0
C467 C 0.68323 0.10003 0.82032 0.0
N468 N 0.6793 0.1021 0.79146 0.0
C469 C 0.71385 0.14729 0.78744 0.0
C470 C 0.7178 0.14595 0.81716 0.0
C471 C 0.70258 0.1221 0.83365 0.0
C472 C 0.69428 0.12465 0.77535 0.0
H473 H 0.67186 0.08157 0.83302 0.0
C474 C 0.62825 0.02853 0.81312 0.0
O475 O 0.67335 0.96406 0.78234 0.0
O476 O 0.70094 0.99862 0.80597 0.0
N477 N 0.6725 0.10009 0.73646 0.0
C478 C 0.66795 0.09692 0.70799 0.0
C479 C 0.68279 0.11813 0.68847 0.0
C480 C 0.70193 0.14247 0.69839 0.0
C481 C 0.7061 0.14539 0.72777 0.0
C482 C 0.69064 0.12361 0.74622 0.0
H483 H 0.65318 0.07835 0.70021 0.0
O484 O 0.70426 0.01806 0.74796 0.0
O485 O 0.68297 0.04941 0.76996 0.0
O486 O 0.64036 1.0073 0.74238 0.0
O487 O 0.62641 0.05224 0.74163 0.0
C488 C 0.72537 0.16878 0.73947 0.0
C489 C 0.72922 0.16974 0.76928 0.0
H490 H 0.73286 0.16282 0.82751 0.0
H491 H 0.70583 0.12068 0.85658 0.0
H492 H 0.67948 0.1157 0.66582 0.0
H493 H 0.71349 0.15867 0.68326 0.0
H494 H 0.73773 0.18586 0.72573 0.0
H495 H 0.74455 0.18751 0.77801 0.0
Mn496 Mn 0.03513 0.27955 0.89657 0.0
Mn497 Mn 0.96528 0.2603 0.91917 0.0
C498 C 1.00018 0.24917 0.87068 0.0
C499 C 0.07186 0.30775 0.86905 0.0
C500 C 0.01695 0.23255 0.94513 0.0
O501 O 0.032 0.31172 0.92405 0.0
O502 O 0.98536 0.29568 0.93815 0.0
C503 C 0.94038 0.31287 0.89464 0.0
N504 N 0.93971 0.28301 0.89698 0.0
C505 C 0.89677 0.27577 0.86545 0.0
C506 C 0.89694 0.30642 0.86281 0.0
C507 C 0.91889 0.32504 0.87742 0.0
C508 C 0.91875 0.2649 0.88293 0.0
H509 H 0.9572 0.3273 0.90578 0.0
C510 C 1.00961 0.31395 0.93883 0.0
O511 O 0.07839 0.29215 0.89185 0.0
O512 O 0.04401 0.30904 0.86357 0.0
N513 N 0.94332 0.2268 0.90192 0.0
C514 C 0.94718 0.19788 0.90551 0.0
C515 C 0.9276 0.17646 0.89157 0.0
C516 C 0.90417 0.18494 0.87424 0.0
C517 C 0.90049 0.21478 0.87107 0.0
C518 C 0.9206 0.23513 0.88561 0.0
H519 H 0.96517 0.19123 0.91875 0.0
O520 O 0.02815 0.2479 0.86868 0.0
O521 O 0.99354 0.26732 0.8884 0.0
O522 O 0.03648 0.24846 0.9299 0.0
O523 O 0.9895 0.23499 0.94282 0.0
C524 C 0.87791 0.22517 0.85371 0.0
C525 C 0.87602 0.25564 0.85095 0.0
H526 H 0.88049 0.31591 0.84944 0.0
H527 H 0.91924 0.34873 0.87538 0.0
H528 H 0.93062 0.15348 0.89409 0.0
H529 H 0.88927 0.16838 0.86333 0.0
H530 H 0.86214 0.20998 0.84208 0.0
H531 H 0.85883 0.26342 0.83721 0.0
Mn532 Mn 0.53169 0.77636 0.38998 0.0
Mn533 Mn 0.46073 0.77146 0.40909 0.0
C534 C 0.49317 0.75682 0.3601 0.0
C535 C 0.57325 0.79994 0.36586 0.0
C536 C 0.50248 0.73037 0.43467 0.0
O537 O 0.53471 0.80609 0.42094 0.0
O538 O 0.48616 0.80226 0.43041 0.0
C539 C 0.44813 0.83038 0.38665 0.0
N540 N 0.44166 0.80036 0.38728 0.0
C541 C 0.40095 0.80299 0.35355 0.0
C542 C 0.40707 0.83392 0.3527 0.0
C543 C 0.43078 0.84766 0.36929 0.0
C544 C 0.41882 0.78691 0.37147 0.0
H545 H 0.46643 0.84106 0.39922 0.0
C546 C 0.51334 0.81397 0.43387 0.0
O547 O 0.57541 0.77984 0.38638 0.0
O548 O 0.54743 0.80796 0.36091 0.0
N549 N 0.43416 0.74286 0.38917 0.0
C550 C 0.43269 0.71291 0.39067 0.0
C551 C 0.411 0.69589 0.3743 0.0
C552 C 0.39103 0.7098 0.35663 0.0
C553 C 0.39291 0.74064 0.35551 0.0
C554 C 0.41486 0.75645 0.37245 0.0
H555 H 0.44812 0.7021 0.40404 0.0
O556 O 0.51929 0.74952 0.35841 0.0
O557 O 0.49024 0.77444 0.37977 0.0
O558 O 0.52472 0.74155 0.41998 0.0
O559 O 0.47776 0.74018 0.43245 0.0
C560 C 0.37434 0.75635 0.33771 0.0
C561 C 0.37833 0.7875 0.33676 0.0
H562 H 0.39391 0.84734 0.33914 0.0
H563 H 0.43574 0.87153 0.36862 0.0
H564 H 0.4098 0.67211 0.37517 0.0
H565 H 0.37455 0.69662 0.34379 0.0
H566 H 0.35724 0.74473 0.3243 0.0
H567 H 0.36421 0.79936 0.32266 0.0
Mn568 Mn 0.02794 0.75419 0.65039 0.0
Mn569 Mn 0.99339 0.68625 0.67252 0.0
C570 C 0.02991 0.71387 0.62372 0.0
C571 C 0.03036 0.80098 0.62676 0.0
C572 C 0.05136 0.71457 0.69885 0.0
O573 O 0.99861 0.76355 0.67874 0.0
O574 O 0.97679 0.71727 0.69141 0.0
C575 C 0.93395 0.6911 0.64681 0.0
N576 N 0.95794 0.67673 0.64993 0.0
C577 C 0.93507 0.63906 0.61964 0.0
C578 C 0.91006 0.65338 0.6162 0.0
C579 C 0.90956 0.67957 0.62976 0.0
C580 C 0.95877 0.65169 0.63674 0.0
H581 H 0.93344 0.71119 0.65725 0.0
C582 C 0.97969 0.74537 0.69288 0.0
O583 O 0.04781 0.79573 0.64826 0.0
O584 O 1.01088 0.77904 0.61895 0.0
N585 N 1.00673 0.65396 0.65593 0.0
C586 C 0.03297 0.64351 0.66052 0.0
C587 C 0.03732 0.61774 0.64794 0.0
C588 C 0.01455 0.6028 0.63109 0.0
C589 C 0.9876 0.61374 0.62701 0.0
C590 C 0.98451 0.63947 0.64013 0.0
H591 H 0.05051 0.65482 0.67354 0.0
O592 O 0.0502 0.73699 0.62148 0.0
O593 O 1.00924 0.71488 0.64158 0.0
O594 O 0.05323 0.73831 0.68289 0.0
O595 O 0.02993 0.69335 0.69687 0.0
C596 C 0.96379 0.60032 0.61015 0.0
C597 C 0.93755 0.61298 0.60645 0.0
H598 H 0.89121 0.64456 0.60307 0.0
H599 H 0.89039 0.69081 0.62713 0.0
H600 H 0.05819 0.60942 0.65121 0.0
H601 H 0.01807 0.58305 0.62127 0.0
H602 H 0.96559 0.58049 0.59959 0.0
H603 H 0.91959 0.60272 0.59308 0.0
Mn604 Mn 0.52898 0.25837 0.14466 0.0
Mn605 Mn 0.48882 0.1952 0.17171 0.0
C606 C 0.52321 0.21618 0.11934 0.0
C607 C 0.53389 0.30478 0.11998 0.0
C608 C 0.55042 0.21899 0.1938 0.0
O609 O 0.50448 0.27222 0.17509 0.0
O610 O 0.47557 0.2294 0.18834 0.0
C611 C 0.4297 0.20245 0.14668 0.0
N612 N 0.45249 0.18649 0.15027 0.0
C613 C 0.42668 0.14831 0.12209 0.0
C614 C 0.40285 0.16426 0.11821 0.0
C615 C 0.40441 0.19148 0.1305 0.0
C616 C 0.45126 0.16031 0.13848 0.0
H617 H 0.43083 0.22339 0.15607 0.0
C618 C 0.4832 0.25741 0.18924 0.0
O619 O 0.55273 0.29818 0.13979 0.0
O620 O 0.51179 0.28437 0.11429 0.0
N621 N 0.49925 0.16047 0.15705 0.0
C622 C 0.5248 0.1487 0.1614 0.0
C623 C 0.52721 0.12186 0.1498 0.0
C624 C 0.50329 0.10731 0.13401 0.0
C625 C 0.47715 0.11974 0.12998 0.0
C626 C 0.47597 0.14645 0.14219 0.0
H627 H 0.54325 0.15976 0.17354 0.0
O628 O 0.54525 0.23722 0.1144 0.0
O629 O 0.50536 0.22057 0.13882 0.0
O630 O 0.55513 0.24033 0.17502 0.0
O631 O 0.52592 0.20146 0.19548 0.0
C632 C 0.45244 0.10696 0.11385 0.0
C633 C 0.42724 0.12126 0.10987 0.0
H634 H 0.38337 0.15595 0.10564 0.0
H635 H 0.38617 0.20399 0.1275 0.0
H636 H 0.5475 0.11246 0.15292 0.0
H637 H 0.50535 0.08677 0.12484 0.0
H638 H 0.45278 0.0864 0.10401 0.0
H639 H 0.40857 0.11146 0.09705 0.0
H640 H 0.18351 0.76514 0.88302 0.0
H641 H 0.27639 0.77306 0.86517 0.0
H642 H 0.28842 0.80885 0.90113 0.0
H643 H 0.2727 0.8398 0.93611 0.0
H644 H 0.18026 0.83374 0.95351 0.0
H645 H 0.1678 0.79562 0.91905 0.0
C646 C 0.20636 0.77482 0.88684 0.0
C647 C 0.22897 0.76614 0.87137 0.0
C648 C 0.21318 0.79595 0.90729 0.0
C649 C 0.25852 0.77869 0.87705 0.0
C650 C 0.26546 0.79939 0.89751 0.0
C651 C 0.24981 0.83022 0.93213 0.0
C652 C 0.22726 0.8401 0.9464 0.0
C653 C 0.24299 0.80843 0.91248 0.0
C654 C 0.19783 0.8268 0.94215 0.0
C655 C 0.19077 0.80506 0.92252 0.0
H656 H 0.02266 0.51805 0.39678 0.0
H657 H 0.07536 0.5936 0.43246 0.0
H658 H 0.11601 0.58931 0.40161 0.0
H659 H 0.13357 0.56835 0.36052 0.0
H660 H 0.08148 0.49331 0.32357 0.0
H661 H 0.04358 0.49266 0.35922 0.0
C662 C 0.04327 0.53322 0.39804 0.0
C663 C 0.04594 0.55652 0.4164 0.0
C664 C 0.06641 0.53078 0.37995 0.0
C665 C 0.0728 0.5758 0.41822 0.0
C666 C 0.09594 0.57337 0.40056 0.0
C667 C 0.11422 0.55147 0.36057 0.0
C668 C 0.11016 0.53108 0.33929 0.0
C669 C 0.09257 0.55161 0.38072 0.0
C670 C 0.08513 0.50913 0.33982 0.0
C671 C 0.06337 0.50898 0.36003 0.0
H672 H 0.82458 0.81166 0.91114 0.0
H673 H 0.82402 0.75148 0.84486 0.0
H674 H 0.82151 0.70978 0.88039 0.0
H675 H 0.8149 0.68988 0.9299 0.0
H676 H 0.8149 0.74918 0.99658 0.0
H677 H 0.82312 0.79179 0.96167 0.0
C678 C 0.82406 0.7894 0.90461 0.0
C679 C 0.82425 0.78461 0.87542 0.0
C680 C 0.82294 0.76543 0.92528 0.0
C681 C 0.82392 0.75572 0.86719 0.0
C682 C 0.8225 0.73186 0.88749 0.0
C683 C 0.81777 0.71221 0.93682 0.0
C684 C 0.81498 0.71654 0.96573 0.0
C685 C 0.8216 0.73639 0.91654 0.0
C686 C 0.81787 0.74545 0.9745 0.0
C687 C 0.82204 0.76975 0.95446 0.0
H688 H 0.01695 0.05088 0.41667 0.0
H689 H 0.01686 0.95663 0.42335 0.0
H690 H 0.98812 0.95193 0.37865 0.0
H691 H 0.96196 0.97397 0.33879 0.0
H692 H 0.95867 0.06777 0.33245 0.0
H693 H 0.99012 0.07333 0.37579 0.0
C694 C 1.01088 0.02941 0.40808 0.0
C695 C 0.01977 1.00424 0.42287 0.0
C696 C 0.99379 0.02679 0.38252 0.0
C697 C 1.011 0.97641 0.41201 0.0
C698 C 0.99445 0.9737 0.38652 0.0
C699 C 0.96823 0.9958 0.34656 0.0
C700 C 0.95793 0.02046 0.33213 0.0
C701 C 0.98567 0.99869 0.37168 0.0
C702 C 0.96625 0.0484 0.34297 0.0
C703 C 0.98418 0.05157 0.36783 0.0
H704 H 0.2419 0.26938 0.64779 0.0
H705 H 0.15084 0.25635 0.61757 0.0
H706 H 0.16162 0.22037 0.58524 0.0
H707 H 0.19718 0.19437 0.56401 0.0
H708 H 0.28846 0.20666 0.59405 0.0
H709 H 0.27728 0.24081 0.62819 0.0
C710 C 0.22439 0.25822 0.63446 0.0
C711 C 0.1955 0.26513 0.6354 0.0
C712 C 0.2308 0.23756 0.61579 0.0
C713 C 0.17312 0.25106 0.61756 0.0
C714 C 0.1793 0.23059 0.59898 0.0
C715 C 0.21469 0.20437 0.57808 0.0
C716 C 0.2437 0.19803 0.57622 0.0
C717 C 0.20811 0.22393 0.59767 0.0
C718 C 0.26593 0.21107 0.59492 0.0
C719 C 0.25957 0.2307 0.61443 0.0
H720 H 0.53312 0.52921 0.62939 0.0
H721 H 0.46687 0.57256 0.58236 0.0
H722 H 0.4344 0.56215 0.62256 0.0
H723 H 0.42394 0.53982 0.67089 0.0
H724 H 0.48762 0.49175 0.71572 0.0
H725 H 0.52147 0.50425 0.67631 0.0
C726 C 0.51145 0.53605 0.62756 0.0
C727 C 0.50293 0.55206 0.60263 0.0
C728 C 0.4922 0.529 0.65045 0.0
C729 C 0.47472 0.56099 0.60133 0.0
C730 C 0.45584 0.55476 0.62429 0.0
C731 C 0.4453 0.5322 0.67205 0.0
C732 C 0.45337 0.51509 0.69629 0.0
C733 C 0.46433 0.5388 0.64897 0.0
C734 C 0.48088 0.50494 0.69729 0.0
C735 C 0.50027 0.51212 0.67477 0.0
H736 H 0.83945 0.28789 0.64663 0.0
H737 H 0.76444 0.29975 0.69466 0.0
H738 H 0.74575 0.3288 0.65426 0.0
H739 H 0.75052 0.35056 0.60522 0.0
H740 H 0.82454 0.33735 0.55639 0.0
H741 H 0.84379 0.30905 0.59707 0.0
C742 C 0.8188 0.29648 0.64806 0.0
C743 C 0.80288 0.291 0.67331 0.0
C744 C 0.80811 0.31305 0.62467 0.0
C745 C 0.77667 0.30309 0.67519 0.0
C746 C 0.76606 0.31981 0.65217 0.0
C747 C 0.77094 0.34162 0.60353 0.0
C748 C 0.78614 0.34615 0.57788 0.0
C749 C 0.78158 0.32493 0.62681 0.0
C750 C 0.81242 0.33418 0.57592 0.0
C751 C 0.82343 0.31797 0.59916 0.0
H752 H 0.56127 0.99552 0.61469 0.0
H753 H 0.49255 0.03642 0.64914 0.0
H754 H 0.52336 0.04629 0.69176 0.0
H755 H 0.5698 0.04261 0.72014 0.0
H756 H 0.63456 0.99531 0.68809 0.0
H757 H 0.60456 0.98744 0.64438 0.0
C758 C 0.55231 1.0059 0.6316 0.0
C759 C 0.52416 0.01509 0.62801 0.0
C760 C 0.56944 0.0101 0.65692 0.0
C761 C 0.51417 0.02955 0.65037 0.0
C762 C 0.5317 0.03492 0.67516 0.0
C763 C 0.57716 0.03037 0.70365 0.0
C764 C 0.60439 0.01953 0.7074 0.0
C765 C 0.55937 0.02523 0.67874 0.0
C766 C 0.61358 1.00361 0.6859 0.0
C767 C 0.59652 0.99928 0.66079 0.0
H768 H 0.91187 0.1884 0.77823 0.0
H769 H 0.88871 0.27651 0.76963 0.0
H770 H 0.92772 0.29293 0.80402 0.0
H771 H 0.96607 0.28193 0.83898 0.0
H772 H 0.98881 0.19414 0.84997 0.0
H773 H 0.95208 0.17776 0.81247 0.0
C774 C 0.91528 0.21117 0.78393 0.0
C775 C 0.89732 0.23115 0.77108 0.0
C776 C 0.93743 0.22044 0.80441 0.0
C777 C 0.90247 0.2607 0.77852 0.0
C778 C 0.92467 0.27014 0.79843 0.0
C779 C 0.96284 0.25916 0.83319 0.0
C780 C 0.97917 0.23891 0.84768 0.0
C781 C 0.94187 0.25012 0.81184 0.0
C782 C 0.97587 0.20984 0.83937 0.0
C783 C 0.95493 0.20056 0.818 0.0
H784 H 0.55711 0.92493 0.50629 0.0
H785 H 0.46284 0.92402 0.50887 0.0
H786 H 0.45406 0.87959 0.48222 0.0
H787 H 0.47293 0.84201 0.45727 0.0
H788 H 0.56723 0.84342 0.45231 0.0
H789 H 0.57622 0.88654 0.481 0.0
C790 C 0.53467 0.91473 0.50127 0.0
C791 C 0.51062 0.92729 0.51023 0.0
C792 C 0.5298 0.88937 0.4855 0.0
C793 C 0.48167 0.91438 0.50287 0.0
C794 C 0.47666 0.88906 0.48751 0.0
C795 C 0.49555 0.85146 0.46256 0.0
C796 C 0.51937 0.83922 0.4526 0.0
C797 C 0.50054 0.87644 0.47866 0.0
C798 C 0.54843 0.85221 0.45964 0.0
C799 C 0.55359 0.87694 0.47603 0.0
H800 H 0.18486 0.33576 0.7941 0.0
H801 H 0.11856 0.31684 0.7274 0.0
H802 H 0.07942 0.3126 0.76201 0.0
H803 H 0.06422 0.31138 0.81168 0.0
H804 H 0.13074 0.32624 0.87884 0.0
H805 H 0.16958 0.33574 0.84365 0.0
C806 C 0.16181 0.33101 0.78713 0.0
C807 C 0.15461 0.32658 0.75822 0.0
C808 C 0.13948 0.32812 0.80724 0.0
C809 C 0.12468 0.32004 0.74956 0.0
C810 C 0.1023 0.31779 0.76932 0.0
C811 C 0.08717 0.3174 0.81852 0.0
C812 C 0.09462 0.31854 0.84778 0.0
C813 C 0.10944 0.32148 0.79826 0.0
C814 C 0.12449 0.32553 0.85642 0.0
C815 C 0.14669 0.33074 0.83632 0.0
H816 H 0.49104 0.61593 0.51934 0.0
H817 H 0.58576 0.62925 0.51001 0.0
H818 H 0.58236 0.67271 0.47766 0.0
H819 H 0.55253 0.70712 0.45196 0.0
H820 H 0.45801 0.69453 0.46284 0.0
H821 H 0.46153 0.65109 0.495 0.0
C822 C 0.51105 0.62852 0.51059 0.0
C823 C 0.53862 0.6191 0.51719 0.0
C824 C 0.50902 0.65378 0.49226 0.0
C825 C 0.56416 0.63555 0.50507 0.0
C826 C 0.56227 0.66059 0.48667 0.0
C827 C 0.53267 0.69493 0.46135 0.0
C828 C 0.50504 0.70425 0.45483 0.0
C829 C 0.53481 0.66989 0.48004 0.0
C830 C 0.47962 0.68809 0.46743 0.0
C831 C 0.48157 0.66312 0.48583 0.0
H832 H 0.87719 0.76959 0.76971 0.0
H833 H 0.89825 0.85683 0.7287 0.0
H834 H 0.93962 0.84153 0.70499 0.0
H835 H 0.96724 0.80202 0.69308 0.0
H836 H 0.94463 0.71437 0.73357 0.0
H837 H 0.90666 0.73111 0.76022 0.0
C838 C 0.89103 0.78524 0.75572 0.0
C839 C 0.88448 0.81409 0.75049 0.0
C840 C 0.91439 0.77614 0.74189 0.0
C841 C 0.90275 0.83438 0.73271 0.0
C842 C 0.92632 0.82561 0.71914 0.0
C843 C 0.95427 0.78666 0.70798 0.0
C844 C 0.95876 0.75688 0.71103 0.0
C845 C 0.93199 0.79634 0.7231 0.0
C846 C 0.94159 0.73734 0.73048 0.0
C847 C 0.9198 0.74688 0.74581 0.0
H848 H 0.06836 0.93215 0.57854 0.0
H849 H 0.043 0.89228 0.49913 0.0
H850 H 0.02496 0.84549 0.52503 0.0
H851 H 0.02019 0.81444 0.57021 0.0
H852 H 0.05 0.85349 0.64891 0.0
H853 H 0.06262 0.90175 0.6234 0.0
C854 C 0.05907 0.91324 0.5668 0.0
C855 C 0.05725 0.91595 0.53683 0.0
C856 C 0.04956 0.88605 0.58178 0.0
C857 C 0.04442 0.89118 0.52218 0.0
C858 C 0.03427 0.86423 0.53699 0.0
C859 C 0.02897 0.83366 0.58174 0.0
C860 C 0.03411 0.83047 0.61137 0.0
C861 C 0.03715 0.86124 0.56678 0.0
C862 C 0.04591 0.85542 0.62607 0.0
C863 C 0.0532 0.88301 0.6115 0.0
H864 H 0.15062 0.68248 0.78871 0.0
H865 H 0.17575 0.77715 0.78069 0.0
H866 H 0.13451 0.78154 0.74675 0.0
H867 H 0.09186 0.7586 0.7189 0.0
H868 H 0.06534 0.66404 0.72755 0.0
H869 H 0.1065 0.6595 0.76169 0.0
C870 C 0.14703 0.70402 0.77943 0.0
C871 C 0.1662 0.72945 0.78718 0.0
C872 C 0.12306 0.70641 0.76008 0.0
C873 C 0.16115 0.75728 0.77527 0.0
C874 C 0.13766 0.75979 0.75578 0.0
C875 C 0.09503 0.73694 0.7282 0.0
C876 C 0.07558 0.71168 0.72045 0.0
C877 C 0.11853 0.73452 0.74798 0.0
C878 C 0.07991 0.68387 0.73308 0.0
C879 C 0.10351 0.68125 0.75257 0.0
H880 H 0.03441 0.60941 0.54456 0.0
H881 H 0.94533 0.62602 0.52372 0.0
H882 H 0.95224 0.66691 0.55473 0.0
H883 H 0.98253 0.69652 0.58977 0.0
H884 H 0.07207 0.68184 0.60953 0.0
H885 H 0.06636 0.64216 0.57647 0.0
C886 C 0.01662 0.62217 0.54649 0.0
C887 C 0.98918 0.61412 0.53209 0.0
C888 C 0.02083 0.64605 0.56421 0.0
C889 C 0.96642 0.63104 0.53503 0.0
C890 C 0.97043 0.65472 0.55255 0.0
C891 C 1.00075 0.68456 0.58677 0.0
C892 C 0.0273 0.69117 0.6027 0.0
C893 C 0.99731 0.66205 0.56765 0.0
C894 C 0.05121 0.67654 0.59788 0.0
C895 C 0.04792 0.65389 0.57903 0.0
H896 H 0.76065 0.881 0.27022 0.0
H897 H 0.75679 0.88885 0.17828 0.0
H898 H 0.7921 0.9347 0.17855 0.0
H899 H 0.82591 0.97169 0.20535 0.0
H900 H 0.82842 0.9626 0.29712 0.0
H901 H 0.79052 0.91901 0.29649 0.0
C902 C 0.76677 0.89303 0.25015 0.0
C903 C 0.75584 0.88139 0.22429 0.0
C904 C 0.78665 0.91944 0.25046 0.0
C905 C 0.76506 0.897 0.19856 0.0
C906 C 0.78506 0.9234 0.19868 0.0
C907 C 0.8178 0.9602 0.22508 0.0
C908 C 0.83028 0.96964 0.25123 0.0
C909 C 0.79628 0.9347 0.22453 0.0
C910 C 0.81947 0.95513 0.27676 0.0
C911 C 0.79781 0.93029 0.27642 0.0
H912 H 0.81384 0.18502 0.31362 0.0
H913 H 0.73769 0.12018 0.33395 0.0
H914 H 0.76622 0.08035 0.32755 0.0
H915 H 0.8121 0.06394 0.31301 0.0
H916 H 0.88681 0.1293 0.28929 0.0
H917 H 0.85987 0.16877 0.30054 0.0
C918 C 0.80369 0.16213 0.31711 0.0
C919 C 0.77396 0.15565 0.32494 0.0
C920 C 0.82001 0.13938 0.31271 0.0
C921 C 0.76075 0.12588 0.32857 0.0
C922 C 0.77703 0.10305 0.32477 0.0
C923 C 0.82261 0.0868 0.31083 0.0
C924 C 0.85146 0.09369 0.30046 0.0
C925 C 0.8066 0.10953 0.31651 0.0
C926 C 0.86464 0.12344 0.29724 0.0
C927 C 0.84922 0.14603 0.30358 0.0
H928 H 0.41963 0.03308 0.96263 0.0
H929 H 0.42949 0.01012 0.05245 0.0
H930 H 0.37982 0.98062 0.0521 0.0
H931 H 0.33503 0.9587 0.02509 0.0
H932 H 0.32616 0.9834 0.93511 0.0
H933 H 0.37378 0.01493 0.93683 0.0
C934 C 0.41079 0.02169 0.98215 0.0
C935 C 0.42818 0.02335 1.00743 0.0
C936 C 0.3824 1.00503 0.98175 0.0
C937 C 0.41642 0.00902 0.03272 0.0
C938 C 0.38811 0.99212 0.03247 0.0
C939 C 0.34332 0.97125 1.00593 0.0
C940 C 0.32691 0.96826 0.97996 0.0
C941 C 0.37106 0.98956 1.00695 0.0
C942 C 0.33814 0.98492 0.95542 0.0
C943 C 0.36552 1.00301 0.95629 0.0
H944 H 0.28385 0.40049 0.35667 0.0
H945 H 0.27255 0.36184 0.27542 0.0
H946 H 0.23604 0.39387 0.26006 0.0
H947 H 0.20795 0.43372 0.2692 0.0
H948 H 0.22192 0.47522 0.34887 0.0
H949 H 0.25619 0.44107 0.36556 0.0
C950 C 0.27335 0.39913 0.33563 0.0
C951 C 0.28105 0.3789 0.31717 0.0
C952 C 0.2526 0.41797 0.32675 0.0
C953 C 0.26735 0.37749 0.28989 0.0
C954 C 0.24629 0.39565 0.28116 0.0
C955 C 0.21816 0.43495 0.29039 0.0
C956 C 0.21209 0.45667 0.30795 0.0
C957 C 0.23875 0.41602 0.29937 0.0
C958 C 0.22606 0.45852 0.33506 0.0
C959 C 0.24577 0.43909 0.34454 0.0
H960 H 0.15877 1.00562 0.48462 0.0
H961 H 0.12276 1.00703 0.56751 0.0
H962 H 0.16648 0.04114 0.58229 0.0
H963 H 0.21241 0.07519 0.56944 0.0
H964 H 0.24649 0.07461 0.48562 0.0
H965 H 0.20672 0.03512 0.47364 0.0
C966 C 0.16067 0.01316 0.50603 0.0
C967 C 0.13745 1.00416 0.52482 0.0
C968 C 0.18567 0.03288 0.51423 0.0
C969 C 0.14037 0.0137 0.55264 0.0
C970 C 0.16533 0.03326 0.56108 0.0
C971 C 0.21128 0.06593 0.54881 0.0
C972 C 0.23168 0.07819 0.52811 0.0
C973 C 0.18777 0.04365 0.54179 0.0
C974 C 0.23048 0.06586 0.50159 0.0
C975 C 0.20779 0.04329 0.49474 0.0
H976 H 0.79911 0.14711 0.70266 0.0
H977 H 0.81144 0.16199 0.79217 0.0
H978 H 0.77556 0.11825 0.80387 0.0
H979 H 0.7375 0.07839 0.78861 0.0
H980 H 0.72399 0.06316 0.69957 0.0
H981 H 0.76337 0.10454 0.68758 0.0
C982 C 0.79395 0.14074 0.72472 0.0
C983 C 0.80794 0.1579 0.74647 0.0
C984 C 0.77289 0.11572 0.73132 0.0
C985 C 0.80138 0.14904 0.775 0.0
C986 C 0.7807 0.1241 0.78174 0.0
C987 C 0.74331 0.0842 0.7666 0.0
C988 C 0.72744 0.06873 0.74483 0.0
C989 C 0.76586 0.10774 0.76006 0.0
C990 C 0.73566 0.07542 0.7165 0.0
C991 C 0.7581 0.09898 0.70972 0.0
H992 H 0.46148 0.07934 0.5721 0.0
H993 H 0.41256 0.99909 0.54091 0.0
H994 H 0.37192 0.02517 0.52533 0.0
H995 H 0.3485 0.07 0.52229 0.0
H996 H 0.39411 0.14882 0.55821 0.0
H997 H 0.43726 0.12409 0.57037 0.0
C998 C 0.44191 0.06736 0.56215 0.0
C999 C 0.44081 0.03711 0.55743 0.0
C1000 C 0.41772 0.08232 0.55401 0.0
C1001 C 0.41497 0.02244 0.54417 0.0
C1002 C 0.39133 0.03731 0.53543 0.0
C1003 C 0.36806 0.08191 0.53241 0.0
C1004 C 0.36819 0.11135 0.539 0.0
C1005 C 0.39236 0.0672 0.54029 0.0
C1006 C 0.39347 0.12621 0.55273 0.0
C1007 C 0.41813 0.11201 0.55979 0.0
H1008 H 0.60815 0.50505 0.47974 0.0
H1009 H 0.59934 0.47086 0.56707 0.0
H1010 H 0.64125 0.44404 0.56298 0.0
H1011 H 0.67963 0.42946 0.53409 0.0
H1012 H 0.68781 0.46367 0.4464 0.0
H1013 H 0.64699 0.49115 0.45112 0.0
C1014 C 0.61549 0.49175 0.49785 0.0
C1015 C 0.60062 0.4897 0.52362 0.0
C1016 C 0.63943 0.4763 0.49525 0.0
C1017 C 0.61043 0.47259 0.54701 0.0
C1018 C 0.63433 0.45726 0.54464 0.0
C1019 C 0.67255 0.44292 0.51598 0.0
C1020 C 0.68695 0.44431 0.4899 0.0
C1021 C 0.64888 0.45876 0.51878 0.0
C1022 C 0.67733 0.46204 0.46676 0.0
C1023 C 0.65389 0.47784 0.4694 0.0
H1024 H 0.74217 0.26244 0.38634 0.0
H1025 H 0.64741 0.24791 0.3956 0.0
H1026 H 0.6522 0.28581 0.42997 0.0
H1027 H 0.68351 0.32325 0.45787 0.0
H1028 H 0.77818 0.33531 0.45029 0.0
H1029 H 0.77333 0.29761 0.41561 0.0
C1030 C 0.72254 0.26709 0.39618 0.0
C1031 C 0.69446 0.25219 0.38819 0.0
C1032 C 0.72545 0.28851 0.41639 0.0
C1033 C 0.66931 0.25924 0.40086 0.0
C1034 C 0.67201 0.2808 0.42075 0.0
C1035 C 0.70295 0.31757 0.44847 0.0
C1036 C 0.73106 0.33268 0.45567 0.0
C1037 C 0.69997 0.29564 0.42865 0.0
C1038 C 0.75624 0.32464 0.44417 0.0
C1039 C 0.7535 0.30295 0.42452 0.0
H1040 H 0.5298 1.0018 0.90602 0.0
H1041 H 0.56289 0.09261 0.92137 0.0
H1042 H 0.60144 0.09345 0.88675 0.0
H1043 H 0.6223 0.07017 0.84914 0.0
H1044 H 0.59075 0.97912 0.83332 0.0
H1045 H 0.55495 0.97642 0.87126 0.0
C1046 C 0.54575 0.02158 0.90196 0.0
C1047 C 0.54325 0.04736 0.91569 0.0
C1048 C 0.56779 0.02192 0.88184 0.0
C1049 C 0.56423 0.07272 0.91071 0.0
C1050 C 0.58616 0.07321 0.8909 0.0
C1051 C 0.60786 0.04956 0.85409 0.0
C1052 C 0.60896 0.02497 0.83812 0.0
C1053 C 0.58759 0.04823 0.87581 0.0
C1054 C 0.59031 0.99838 0.84521 0.0
C1055 C 0.56978 0.9969 0.86682 0.0
H1056 H 0.35225 0.28855 0.39552 0.0
H1057 H 0.26007 0.29676 0.37835 0.0
H1058 H 0.24582 0.26105 0.41743 0.0
H1059 H 0.2582 0.22593 0.45444 0.0
H1060 H 0.34886 0.2124 0.47106 0.0
H1061 H 0.36493 0.25185 0.43422 0.0
C1062 C 0.32905 0.28248 0.40028 0.0
C1063 C 0.3074 0.29601 0.384 0.0
C1064 C 0.32064 0.2609 0.42261 0.0
C1065 C 0.27746 0.28776 0.39077 0.0
C1066 C 0.26914 0.26696 0.41303 0.0
C1067 C 0.28162 0.23135 0.45024 0.0
C1068 C 0.30224 0.21581 0.46548 0.0
C1069 C 0.29044 0.25326 0.42883 0.0
C1070 C 0.33244 0.22388 0.45974 0.0
C1071 C 0.34158 0.24634 0.43855 0.0
H1072 H 0.51825 0.55255 0.90611 0.0
H1073 H 0.51012 0.45827 0.92451 0.0
H1074 H 0.48003 0.45 0.8809 0.0
H1075 H 0.45583 0.46926 0.83827 0.0
H1076 H 0.46121 0.56348 0.81998 0.0
H1077 H 0.49281 0.57212 0.86285 0.0
C1078 C 0.51001 0.53024 0.90038 0.0
C1079 C 0.51694 0.506 0.9181 0.0
C1080 C 0.49233 0.52567 0.8754 0.0
C1081 C 0.50557 0.47721 0.91087 0.0
C1082 C 0.48832 0.4725 0.88602 0.0
C1083 C 0.46398 0.49179 0.84338 0.0
C1084 C 0.4562 0.51569 0.82568 0.0
C1085 C 0.48162 0.49653 0.86816 0.0
C1086 C 0.46684 0.54464 0.8331 0.0
C1087 C 0.48489 0.54959 0.85765 0.0
H1088 H 0.73989 0.73877 0.16693 0.0
H1089 H 0.68922 0.78883 0.10767 0.0
H1090 H 0.70332 0.76263 0.06833 0.0
H1091 H 0.72847 0.7245 0.05089 0.0
H1092 H 0.7801 0.67455 0.10939 0.0
H1093 H 0.76756 0.70193 0.14875 0.0
C1094 C 0.73242 0.74429 0.14533 0.0
C1095 C 0.71405 0.76625 0.14015 0.0
C1096 C 0.74066 0.72907 0.12268 0.0
C1097 C 0.70386 0.7725 0.11213 0.0
C1098 C 0.71179 0.75742 0.08964 0.0
C1099 C 0.73709 0.71958 0.07222 0.0
C1100 C 0.75507 0.69731 0.07711 0.0
C1101 C 0.72995 0.7355 0.09469 0.0
C1102 C 0.76625 0.69158 0.10492 0.0
C1103 C 0.75901 0.70718 0.12749 0.0
H1104 H 0.97733 0.06269 0.10518 0.0
H1105 H 0.05466 0.02752 0.14002 0.0
H1106 H 0.02882 0.01064 0.18379 0.0
H1107 H 0.98441 1.00694 0.21305 0.0
H1108 H 0.91007 0.04771 0.17977 0.0
H1109 H 0.935 0.06209 0.13498 0.0
C1110 C 0.98901 0.05194 0.12242 0.0
C1111 C 0.01814 0.04655 0.11888 0.0
C1112 C 0.97452 0.04338 0.14808 0.0
C1113 C 0.03212 0.03162 0.14155 0.0
C1114 C 0.01743 0.02215 0.16685 0.0
C1115 C 0.97378 0.01899 0.19594 0.0
C1116 C 0.94547 0.02626 0.19967 0.0
C1117 C 0.98864 0.02798 0.17041 0.0
C1118 C 0.93197 0.04207 0.17747 0.0
C1119 C 0.94615 0.05021 0.15182 0.0
H1120 H 0.35475 0.79631 0.12685 0.0
H1121 H 0.28849 0.81486 0.18258 0.0
H1122 H 0.2667 0.84345 0.14365 0.0
H1123 H 0.26619 0.86282 0.09372 0.0
H1124 H 0.3314 0.84308 0.03736 0.0
H1125 H 0.35385 0.81527 0.07649 0.0
C1126 C 0.3353 0.8063 0.1303 0.0
C1127 C 0.32274 0.80284 0.15733 0.0
C1128 C 0.32281 0.8226 0.10777 0.0
C1129 C 0.29811 0.81666 0.16178 0.0
C1130 C 0.28574 0.83311 0.13958 0.0
C1131 C 0.28541 0.85256 0.09003 0.0
C1132 C 0.29718 0.8551 0.06271 0.0
C1133 C 0.29788 0.8362 0.11249 0.0
C1134 C 0.32192 0.84145 0.05821 0.0
C1135 C 0.33475 0.82552 0.08057 0.0
H1136 H 0.01619 0.53183 0.14513 0.0
H1137 H 0.08061 0.50235 0.09373 0.0
H1138 H 0.11609 0.50515 0.13377 0.0
H1139 H 0.12978 0.51728 0.18329 0.0
H1140 H 0.06752 0.552 0.23273 0.0
H1141 H 0.0306 0.54629 0.19355 0.0
C1142 C 0.0381 0.52643 0.14237 0.0
C1143 C 0.04528 0.51661 0.11617 0.0
C1144 C 0.05894 0.529 0.16531 0.0
C1145 C 0.07385 0.50928 0.11361 0.0
C1146 C 0.09441 0.5111 0.13653 0.0
C1147 C 0.108 0.52327 0.18552 0.0
C1148 C 0.10122 0.53469 0.21097 0.0
C1149 C 0.08723 0.5209 0.1625 0.0
C1150 C 0.07318 0.54304 0.21337 0.0
C1151 C 0.0521 0.53982 0.19096 0.0
H1152 H 0.40151 0.76621 0.25808 0.0
H1153 H 0.40842 0.67361 0.25594 0.0
H1154 H 0.4443 0.67747 0.2959 0.0
H1155 H 0.47318 0.70717 0.33237 0.0
H1156 H 0.46835 0.80022 0.33163 0.0
H1157 H 0.43296 0.79637 0.29132 0.0
C1158 C 0.41131 0.74695 0.26579 0.0
C1159 C 0.40205 0.71965 0.25392 0.0
C1160 C 0.43232 0.74939 0.28839 0.0
C1161 C 0.41466 0.69485 0.26488 0.0
C1162 C 0.43535 0.69704 0.28766 0.0
C1163 C 0.46424 0.72647 0.32329 0.0
C1164 C 0.47218 0.75365 0.33557 0.0
C1165 C 0.44414 0.72415 0.29979 0.0
C1166 C 0.46145 0.77881 0.32317 0.0
C1167 C 0.44145 0.77669 0.29999 0.0
H1168 H 0.98353 0.41599 0.01298 0.0
H1169 H 0.06261 0.4616 0.97364 0.0
H1170 H 0.06842 0.41705 0.95015 0.0
H1171 H 0.04947 0.3656 0.93882 0.0
H1172 H 0.97023 0.32058 0.97884 0.0
H1173 H 0.96649 0.364 1.00418 0.0
C1174 C 1.00235 0.41604 0.99971 0.0
C1175 C 0.02298 0.44197 0.99558 0.0
C1176 C 1.00554 0.39034 0.98623 0.0
C1177 C 0.04674 0.44176 0.97761 0.0
C1178 C 0.05002 0.41632 0.96408 0.0
C1179 C 0.03164 0.36512 0.95339 0.0
C1180 C 1.01012 0.33969 0.9566 0.0
C1181 C 0.02939 0.39048 0.968 0.0
C1182 C 0.98709 0.33974 0.97559 0.0
C1183 C 0.98483 0.36467 0.99018 0.0
H1184 H 0.65759 0.85103 0.2658 0.0
H1185 H 0.68933 0.76778 0.28463 0.0
H1186 H 0.65597 0.7564 0.32455 0.0
H1187 H 0.61677 0.76952 0.35326 0.0
H1188 H 0.58296 0.85139 0.33259 0.0
H1189 H 0.61868 0.86434 0.29474 0.0
C1190 C 0.65732 0.83048 0.27876 0.0
C1191 C 0.6759 0.81026 0.27224 0.0
C1192 C 0.63796 0.82402 0.30155 0.0
C1193 C 0.675 0.78354 0.28899 0.0
C1194 C 0.65611 0.77714 0.31195 0.0
C1195 C 0.61764 0.79045 0.34082 0.0
C1196 C 0.59754 0.80968 0.34594 0.0
C1197 C 0.63744 0.79719 0.3184 0.0
C1198 C 0.59839 0.83638 0.3292 0.0
C1199 C 0.61867 0.84368 0.30745 0.0
H1200 H 0.07648 0.13591 0.02006 0.0
H1201 H 0.98505 0.10438 0.03878 0.0
H1202 H 0.96975 0.1458 0.00951 0.0
H1203 H 0.98201 0.19016 0.97745 0.0
H1204 H 0.0734 0.22149 0.95804 0.0
H1205 H 0.08885 0.18103 0.98857 0.0
C1206 C 0.0532 0.13804 0.01763 0.0
C1207 C 0.03199 0.11702 0.0317 0.0
C1208 C 0.04447 0.16192 1.00061 0.0
C1209 C 1.00193 0.12038 0.02854 0.0
C1210 C 0.99311 0.14401 0.01167 0.0
C1211 C 1.00535 0.18835 0.98001 0.0
C1212 C 0.02642 0.209 0.96532 0.0
C1213 C 0.01416 0.16487 0.99751 0.0
C1214 C 0.05657 0.20603 0.96897 0.0
C1215 C 0.06549 0.18281 0.98643 0.0
H1216 H 0.40072 0.3383 0.2398 0.0
H1217 H 0.36791 0.25561 0.28519 0.0
H1218 H 0.40606 0.23212 0.26492 0.0
H1219 H 0.44572 0.23402 0.23114 0.0
H1220 H 0.47902 0.31663 0.18549 0.0
H1221 H 0.444 0.34129 0.20919 0.0
C1222 C 0.40225 0.31524 0.24542 0.0
C1223 C 0.38124 0.29849 0.26345 0.0
C1224 C 0.42417 0.30184 0.23352 0.0
C1225 C 0.3836 0.26876 0.27102 0.0
C1226 C 0.40536 0.25534 0.25939 0.0
C1227 C 0.44555 0.25749 0.2265 0.0
C1228 C 0.46481 0.27332 0.20626 0.0
C1229 C 0.42527 0.27148 0.24008 0.0
C1230 C 0.46448 0.30383 0.20091 0.0
C1231 C 0.44434 0.31794 0.21438 0.0
H1232 H 0.57282 0.43579 0.07161 0.0
H1233 H 0.54263 0.39697 0.99269 0.0
H1234 H 0.52508 0.35021 0.0188 0.0
H1235 H 0.52165 0.31884 0.0639 0.0
H1236 H 0.55697 0.35659 0.14167 0.0
H1237 H 0.56944 0.40491 0.11621 0.0
C1238 C 0.56268 0.41711 0.05997 0.0
C1239 C 0.55926 0.42021 0.03008 0.0
C1240 C 0.55358 0.38985 0.075 0.0
C1241 C 0.54527 0.39569 0.01567 0.0
C1242 C 0.53541 0.36871 0.03059 0.0
C1243 C 0.53168 0.3378 0.07524 0.0
C1244 C 0.5383 0.33426 0.10459 0.0
C1245 C 0.53981 0.36538 0.06023 0.0
C1246 C 0.55172 0.35882 0.11904 0.0
C1247 C 0.5589 0.38644 0.1045 0.0
H1248 H 0.66834 0.21496 0.26769 0.0
H1249 H 0.60612 0.19713 0.33522 0.0
H1250 H 0.56472 0.19666 0.30034 0.0
H1251 H 0.54635 0.2035 0.25055 0.0
H1252 H 0.60907 0.22575 0.18368 0.0
H1253 H 0.65008 0.2221 0.21813 0.0
C1254 C 0.64567 0.21071 0.27464 0.0
C1255 C 0.64015 0.20592 0.30385 0.0
C1256 C 0.6221 0.21132 0.25455 0.0
C1257 C 0.61078 0.20089 0.31277 0.0
C1258 C 0.58716 0.2006 0.29286 0.0
C1259 C 0.569 0.2072 0.24358 0.0
C1260 C 0.57473 0.21474 0.21466 0.0
C1261 C 0.59255 0.20605 0.26368 0.0
C1262 C 0.60417 0.21998 0.20588 0.0
C1263 C 0.62761 0.2179 0.22555 0.0
H1264 H 0.46638 0.122 0.03416 0.0
H1265 H 0.55136 0.09278 0.04808 0.0
H1266 H 0.56768 0.13354 0.0786 0.0
H1267 H 0.55704 0.17674 0.10293 0.0
H1268 H 0.47172 0.20498 0.08931 0.0
H1269 H 0.45643 0.16582 0.05682 0.0
C1270 C 0.48845 0.12448 0.04393 0.0
C1271 C 0.50754 0.10423 0.03893 0.0
C1272 C 0.49768 0.14796 0.06142 0.0
C1273 C 0.53626 0.10813 0.05141 0.0
C1274 C 0.54559 0.13141 0.06893 0.0
C1275 C 0.53518 0.17422 0.09272 0.0
C1276 C 0.51513 0.19297 0.09908 0.0
C1277 C 0.52643 0.15136 0.07427 0.0
C1278 C 0.48713 0.19015 0.08529 0.0
C1279 C 0.47845 0.16786 0.06664 0.0
H1280 H 0.25263 0.38117 0.76296 0.0
H1281 H 0.25187 0.38526 0.6711 0.0
H1282 H 0.29203 0.42713 0.67077 0.0
H1283 H 0.32776 0.46276 0.69689 0.0
H1284 H 0.32757 0.45813 0.78857 0.0
H1285 H 0.28662 0.41716 0.78866 0.0
C1286 C 0.26087 0.39147 0.74281 0.0
C1287 C 0.24913 0.38007 0.71712 0.0
C1288 C 0.28364 0.4157 0.74274 0.0
C1289 C 0.2607 0.39332 0.69125 0.0
C1290 C 0.2835 0.41745 0.691 0.0
C1291 C 0.31856 0.4527 0.71675 0.0
C1292 C 0.33093 0.46272 0.7427 0.0
C1293 C 0.29519 0.42884 0.71664 0.0
C1294 C 0.31869 0.45013 0.7684 0.0
C1295 C 0.29527 0.42681 0.76846 0.0
H1296 H 0.28811 0.64672 0.83073 0.0
H1297 H 0.31436 0.70108 0.75483 0.0
H1298 H 0.34427 0.66482 0.74141 0.0
H1299 H 0.36265 0.61754 0.75091 0.0
H1300 H 0.33524 0.5619 0.82576 0.0
H1301 H 0.30618 0.59869 0.83996 0.0
C1302 C 0.30003 0.65035 0.81105 0.0
C1303 C 0.29835 0.67616 0.79335 0.0
C1304 C 0.31717 0.62929 0.80341 0.0
C1305 C 0.31471 0.68103 0.76841 0.0
C1306 C 0.33196 0.66041 0.76082 0.0
C1307 C 0.35051 0.61355 0.77045 0.0
C1308 C 0.35127 0.5871 0.78734 0.0
C1309 C 0.33335 0.63447 0.77813 0.0
C1310 C 0.33509 0.58212 0.81241 0.0
C1311 C 0.31841 0.60312 0.82051 0.0
H1312 H 0.91309 0.51862 0.53657 0.0
H1313 H 0.92065 0.53643 0.44575 0.0
H1314 H 0.8724 0.50688 0.4377 0.0
H1315 H 0.82955 0.47405 0.45589 0.0
H1316 H 0.82154 0.45386 0.54649 0.0
H1317 H 0.86818 0.48653 0.55516 0.0
C1318 C 0.90395 0.51617 0.51509 0.0
C1319 C 0.92055 0.52939 0.49176 0.0
C1320 C 0.87616 0.49872 0.51055 0.0
C1321 C 0.90852 0.52605 0.46402 0.0
C1322 C 0.88088 0.50926 0.45939 0.0
C1323 C 0.8377 0.4769 0.47764 0.0
C1324 C 0.82191 0.46133 0.50046 0.0
C1325 C 0.86472 0.49516 0.48244 0.0
C1326 C 0.83313 0.46547 0.52843 0.0
C1327 C 0.85989 0.48411 0.53343 0.0
H1328 H 0.7947 0.89996 0.85326 0.0
H1329 H 0.75327 0.83751 0.79437 0.0
H1330 H 0.71443 0.86806 0.78251 0.0
H1331 H 0.69466 0.91458 0.78591 0.0
H1332 H 0.7373 0.97831 0.84331 0.0
H1333 H 0.77283 0.94531 0.85897 0.0
C1334 C 0.77683 0.89294 0.83823 0.0
C1335 C 0.7766 0.86654 0.82479 0.0
C1336 C 0.75486 0.91097 0.83113 0.0
C1337 C 0.75366 0.85771 0.80504 0.0
C1338 C 0.73155 0.87522 0.79821 0.0
C1339 C 0.71139 0.92105 0.80221 0.0
C1340 C 0.71326 0.94897 0.81334 0.0
C1341 C 0.73222 0.90219 0.8107 0.0
C1342 C 0.7353 0.95701 0.83431 0.0
C1343 C 0.75575 0.93816 0.84323 0.0
H1344 H 0.65818 0.51219 0.97587 0.0
H1345 H 0.62499 0.51071 0.06034 0.0
H1346 H 0.66942 0.54391 0.07497 0.0
H1347 H 0.71583 0.57702 0.06222 0.0
H1348 H 0.74751 0.57922 0.97714 0.0
H1349 H 0.7061 0.54161 0.96439 0.0
C1350 C 0.6608 0.51899 0.99753 0.0
C1351 C 0.63824 0.50932 0.01691 0.0
C1352 C 0.68624 0.53812 1.00568 0.0
C1353 C 0.6421 0.51789 0.04505 0.0
C1354 C 0.66745 0.5369 0.05339 0.0
C1355 C 0.71367 0.56892 0.04104 0.0
C1356 C 0.73392 0.58136 0.0203 0.0
C1357 C 0.68939 0.54769 0.03371 0.0
C1358 C 0.73154 0.57041 0.99312 0.0
C1359 C 0.70797 0.54889 0.98587 0.0
H1360 H 0.30915 0.66046 0.26118 0.0
H1361 H 0.29923 0.6617 0.16957 0.0
H1362 H 0.25948 0.61945 0.1737 0.0
H1363 H 0.22676 0.58246 0.20381 0.0
H1364 H 0.23808 0.58203 0.29513 0.0
H1365 H 0.27914 0.62268 0.29064 0.0
C1366 C 0.29886 0.65116 0.24202 0.0
C1367 C 0.30741 0.66417 0.21511 0.0
C1368 C 0.27647 0.62672 0.24452 0.0
C1369 C 0.29295 0.65231 0.1906 0.0
C1370 C 0.27039 0.62798 0.19292 0.0
C1371 C 0.23847 0.59129 0.22256 0.0
C1372 C 0.22918 0.58004 0.24974 0.0
C1373 C 0.26187 0.61505 0.2198 0.0
C1374 C 0.24461 0.59103 0.27403 0.0
C1375 C 0.26807 0.61416 0.27148 0.0
H1376 H 0.95057 0.54822 0.0162 0.0
H1377 H 0.95404 0.55379 0.10757 0.0
H1378 H 0.91545 0.58488 0.10344 0.0
H1379 H 0.87876 0.60888 0.07449 0.0
H1380 H 0.87124 0.59917 0.984 0.0
H1381 H 0.91282 0.57108 0.98733 0.0
C1382 C 0.9428 0.55588 0.03534 0.0
C1383 C 0.95586 0.54859 0.06217 0.0
C1384 C 0.91962 0.5731 0.033 0.0
C1385 C 0.94536 0.55941 0.08648 0.0
C1386 C 0.92292 0.57707 0.08422 0.0
C1387 C 0.88643 0.6009 0.05543 0.0
C1388 C 0.87205 0.60638 0.02898 0.0
C1389 C 0.90976 0.58396 0.05765 0.0
C1390 C 0.88196 0.59538 1.0046 0.0
C1391 C 0.90572 0.57925 1.00652 0.0
H1392 H 0.11172 0.01207 0.9801 0.0
H1393 H 0.1109 0.97854 0.06794 0.0
H1394 H 0.15276 0.95269 0.06035 0.0
H1395 H 0.1885 0.93844 0.02824 0.0
H1396 H 0.18858 0.97182 0.94006 0.0
H1397 H 0.1482 0.99879 0.9483 0.0
C1398 C 0.12083 0.99917 0.99756 0.0
C1399 C 0.10822 0.997 0.0245 0.0
C1400 C 0.14468 0.98424 0.99295 0.0
C1401 C 0.12027 0.98038 0.04702 0.0
C1402 C 0.14412 0.96559 0.04265 0.0
C1403 C 0.17979 0.95166 0.0108 0.0
C1404 C 0.19172 0.95291 0.98353 0.0
C1405 C 0.15635 0.96714 0.01563 0.0
C1406 C 0.18 0.9703 0.96129 0.0
C1407 C 0.15681 0.98579 0.96595 0.0
loop_
_geom_bond_atom_site_label_1
_geom_bond_atom_site_label_2
_geom_bond_distance
_geom_bond_site_symmetry_2
_ccdc_geom_bond_type
H0 C7 0.900 1_655 S
H1 C10 0.930 . S
H2 C12 0.929 1_556 S
H3 C4 0.969 . S
C4 H3 0.969 . S
C4 O5 1.550 1_565 S
C4 H6 0.973 . S
O5 C4 1.550 1_545 S
O5 C11 1.412 . S
H6 C4 0.973 . S
C7 H0 0.900 1_455 S
C7 C8 1.417 . S
C7 C9 1.375 . S
C8 C7 1.417 . S
C8 C12 1.377 . S
C9 C7 1.375 . S
C9 C10 1.374 . S
C10 H1 0.930 . S
C10 C9 1.374 . S
C10 C11 1.383 . S
C11 O5 1.412 . S
C11 C10 1.383 . S
C11 C12 1.394 . S
C12 H2 0.929 1_554 S
C12 C8 1.377 . S
C12 C11 1.394 . S
H13 C20 0.929 . S
H14 C23 0.930 . S
H15 C25 0.929 . S
H16 C17 0.969 . S
C17 H16 0.969 . S
C17 O18 1.550 . S
C17 H19 0.973 . S
O18 C17 1.550 . S
O18 C24 1.412 . S
H19 C17 0.973 . S
C20 H13 0.929 . S
C20 C21 1.400 . S
C20 C22 1.364 . S
C21 C20 1.400 . S
C21 C25 1.377 . S
C22 C20 1.364 . S
C22 C23 1.374 . S
C23 H14 0.930 . S
C23 C22 1.374 . S
C23 C24 1.383 . S
C24 O18 1.412 . S
C24 C23 1.383 . S
C24 C25 1.394 . S
C25 H15 0.929 . S
C25 C21 1.377 . S
C25 C24 1.394 . S
H26 C33 0.929 . S
H27 C36 0.930 . S
H28 C38 0.929 . S
H29 C30 0.969 1_556 S
C30 H29 0.969 1_554 S
C30 O31 1.550 . S
C30 H32 0.973 . S
O31 C30 1.550 . S
O31 C37 1.412 . S
H32 C30 0.973 . S
C33 H26 0.929 . S
C33 C34 1.400 . S
C33 C35 1.364 . S
C34 C33 1.400 . S
C34 C38 1.377 1_655 S
C35 C33 1.364 . S
C35 C36 1.374 . S
C36 H27 0.930 . S
C36 C35 1.374 . S
C36 C37 1.383 . S
C37 O31 1.412 . S
C37 C36 1.383 . S
C37 C38 1.394 1_655 S
C38 H28 0.929 . S
C38 C34 1.377 1_455 S
C38 C37 1.394 1_455 S
H39 C46 0.929 . S
H40 C49 0.930 . S
H41 C51 0.929 . S
H42 C43 0.969 . S
C43 H42 0.969 . S
C43 O44 1.550 . S
C43 H45 0.973 . S
O44 C43 1.550 . S
O44 C50 1.412 . S
H45 C43 0.973 . S
C46 H39 0.929 . S
C46 C47 1.400 . S
C46 C48 1.364 . S
C47 C46 1.400 . S
C47 C51 1.377 . S
C48 C46 1.364 . S
C48 C49 1.374 . S
C49 H40 0.930 . S
C49 C48 1.374 . S
C49 C50 1.383 . S
C50 O44 1.412 . S
C50 C49 1.383 . S
C50 C51 1.394 . S
C51 H41 0.929 . S
C51 C47 1.377 . S
C51 C50 1.394 . S
H52 C59 0.929 . S
H53 C62 0.930 . S
H54 C64 0.929 . S
H55 C56 0.948 1_655 S
C56 H55 0.948 1_455 S
C56 O57 1.582 . S
C56 H58 0.972 1_455 S
O57 C56 1.582 . S
O57 C63 1.412 . S
H58 C56 0.972 1_655 S
C59 H52 0.929 . S
C59 C60 1.400 . S
C59 C61 1.364 . S
C60 C59 1.400 . S
C60 C64 1.377 1_565 S
C61 C59 1.364 . S
C61 C62 1.374 . S
C62 H53 0.930 . S
C62 C61 1.374 . S
C62 C63 1.383 . S
C63 O57 1.412 . S
C63 C62 1.383 . S
C63 C64 1.394 1_565 S
C64 H54 0.929 . S
C64 C60 1.377 1_545 S
C64 C63 1.394 1_545 S
H65 C72 0.929 . S
H66 C75 0.930 . S
H67 C77 0.929 . S
H68 C69 0.969 . S
C69 H68 0.969 . S
C69 O70 1.550 . S
C69 H71 0.973 . S
O70 C69 1.550 . S
O70 C76 1.412 . S
H71 C69 0.973 . S
C72 H65 0.929 . S
C72 C73 1.400 . S
C72 C74 1.364 . S
C73 C72 1.400 . S
C73 C77 1.377 . S
C74 C72 1.364 . S
C74 C75 1.374 . S
C75 H66 0.930 . S
C75 C74 1.374 . S
C75 C76 1.383 . S
C76 O70 1.412 . S
C76 C75 1.383 . S
C76 C77 1.394 . S
C77 H67 0.929 . S
C77 C73 1.377 . S
C77 C76 1.394 . S
H78 C85 0.929 . S
H79 C88 0.930 . S
H80 C90 0.929 . S
H81 C82 0.969 . S
C82 H81 0.969 . S
C82 O83 1.550 . S
C82 H84 0.973 . S
O83 C82 1.550 . S
O83 C89 1.412 . S
H84 C82 0.973 . S
C85 H78 0.929 . S
C85 C86 1.400 . S
C85 C87 1.364 . S
C86 C85 1.400 . S
C86 C90 1.377 1_655 S
C87 C85 1.364 . S
C87 C88 1.374 . S
C88 H79 0.930 . S
C88 C87 1.374 . S
C88 C89 1.383 1_655 S
C89 O83 1.412 . S
C89 C88 1.383 1_455 S
C89 C90 1.394 . S
C90 H80 0.929 . S
C90 C86 1.377 1_455 S
C90 C89 1.394 . S
H91 C98 0.929 . S
H92 C101 0.930 . S
H93 C103 0.929 . S
H94 C95 0.969 . S
C95 H94 0.969 . S
C95 O96 1.550 . S
C95 H97 0.973 . S
O96 C95 1.550 . S
O96 C102 1.412 . S
H97 C95 0.973 . S
C98 H91 0.929 . S
C98 C99 1.400 . S
C98 C100 1.364 . S
C99 C98 1.400 . S
C99 C103 1.377 . S
C100 C98 1.364 . S
C100 C101 1.374 . S
C101 H92 0.930 . S
C101 C100 1.374 . S
C101 C102 1.383 . S
C102 O96 1.412 . S
C102 C101 1.383 . S
C102 C103 1.394 . S
C103 H93 0.929 . S
C103 C99 1.377 . S
C103 C102 1.394 . S
H104 C111 0.929 . S
H105 C114 0.930 . S
H106 C116 0.929 . S
H107 C108 0.969 . S
C108 H107 0.969 . S
C108 O109 1.550 . S
C108 H110 0.973 . S
O109 C108 1.550 . S
O109 C115 1.412 . S
H110 C108 0.973 . S
C111 H104 0.929 . S
C111 C112 1.400 . S
C111 C113 1.364 . S
C112 C111 1.400 . S
C112 C116 1.377 . S
C113 C111 1.364 . S
C113 C114 1.374 . S
C114 H105 0.930 . S
C114 C113 1.374 . S
C114 C115 1.383 . S
C115 O109 1.412 . S
C115 C114 1.383 . S
C115 C116 1.394 . S
C116 H106 0.929 . S
C116 C112 1.377 . S
C116 C115 1.394 . S
H117 C124 0.929 1_545 S
H118 C127 0.930 . S
H119 C129 0.929 . S
H120 C121 0.969 . S
C121 H120 0.969 . S
C121 O122 1.550 . S
C121 H123 0.973 . S
O122 C121 1.550 . S
O122 C128 1.412 . S
H123 C121 0.973 . S
C124 H117 0.929 1_565 S
C124 C125 1.400 . S
C124 C126 1.364 . S
C125 C124 1.400 . S
C125 C129 1.377 . S
C126 C124 1.364 . S
C126 C127 1.374 . S
C127 H118 0.930 . S
C127 C126 1.374 . S
C127 C128 1.383 . S
C128 O122 1.412 . S
C128 C127 1.383 . S
C128 C129 1.394 . S
C129 H119 0.929 . S
C129 C125 1.377 . S
C129 C128 1.394 . S
H130 C137 0.929 . S
H131 C140 0.930 . S
H132 C142 0.929 . S
H133 C134 0.969 . S
C134 H133 0.969 . S
C134 O135 1.550 . S
C134 H136 0.973 . S
O135 C134 1.550 . S
O135 C141 1.412 . S
H136 C134 0.973 . S
C137 H130 0.929 . S
C137 C138 1.400 . S
C137 C139 1.364 . S
C138 C137 1.400 . S
C138 C142 1.377 . S
C139 C137 1.364 . S
C139 C140 1.374 . S
C140 H131 0.930 . S
C140 C139 1.374 . S
C140 C141 1.383 . S
C141 O135 1.412 . S
C141 C140 1.383 . S
C141 C142 1.394 . S
C142 H132 0.929 . S
C142 C138 1.377 . S
C142 C141 1.394 . S
H143 C150 0.929 . S
H144 C153 0.930 . S
H145 C155 0.929 . S
H146 C147 0.969 . S
C147 H146 0.969 . S
C147 O148 1.550 . S
C147 H149 0.973 . S
O148 C147 1.550 . S
O148 C154 1.412 . S
H149 C147 0.973 . S
C150 H143 0.929 . S
C150 C151 1.400 . S
C150 C152 1.364 . S
C151 C150 1.400 . S
C151 C155 1.377 . S
C152 C150 1.364 . S
C152 C153 1.374 . S
C153 H144 0.930 . S
C153 C152 1.374 . S
C153 C154 1.383 . S
C154 O148 1.412 . S
C154 C153 1.383 . S
C154 C155 1.394 . S
C155 H145 0.929 . S
C155 C151 1.377 . S
C155 C154 1.394 . S
H156 C163 0.929 . S
H157 C166 0.930 . S
H158 C168 0.929 . S
H159 C160 0.969 . S
C160 H159 0.969 . S
C160 O161 1.550 . S
C160 H162 0.973 . S
O161 C160 1.550 . S
O161 C167 1.412 . S
H162 C160 0.973 . S
C163 H156 0.929 . S
C163 C164 1.400 . S
C163 C165 1.364 . S
C164 C163 1.400 . S
C164 C168 1.377 . S
C165 C163 1.364 . S
C165 C166 1.374 . S
C166 H157 0.930 . S
C166 C165 1.374 . S
C166 C167 1.383 . S
C167 O161 1.412 . S
C167 C166 1.383 . S
C167 C168 1.394 . S
C168 H158 0.929 . S
C168 C164 1.377 . S
C168 C167 1.394 . S
H169 C176 0.929 1_554 S
H170 C179 0.930 . S
H171 C181 0.929 . S
H172 C173 0.969 . S
C173 H172 0.969 . S
C173 O174 1.550 . S
C173 H175 0.973 . S
O174 C173 1.550 . S
O174 C180 1.412 . S
H175 C173 0.973 . S
C176 H169 0.929 1_556 S
C176 C177 1.400 . S
C176 C178 1.364 . S
C177 C176 1.400 . S
C177 C181 1.377 . S
C178 C176 1.364 . S
C178 C179 1.374 . S
C179 H170 0.930 . S
C179 C178 1.374 . S
C179 C180 1.383 . S
C180 O174 1.412 . S
C180 C179 1.383 . S
C180 C181 1.394 . S
C181 H171 0.929 . S
C181 C177 1.377 . S
C181 C180 1.394 . S
H182 C189 0.929 . S
H183 C192 0.930 . S
H184 C194 0.929 . S
H185 C186 0.969 . S
C186 H185 0.969 . S
C186 O187 1.550 . S
C186 H188 0.973 . S
O187 C186 1.550 . S
O187 C193 1.412 . S
H188 C186 0.973 . S
C189 H182 0.929 . S
C189 C190 1.400 . S
C189 C191 1.364 . S
C190 C189 1.400 . S
C190 C194 1.377 . S
C191 C189 1.364 . S
C191 C192 1.374 . S
C192 H183 0.930 . S
C192 C191 1.374 . S
C192 C193 1.383 . S
C193 O187 1.412 . S
C193 C192 1.383 . S
C193 C194 1.394 . S
C194 H184 0.929 . S
C194 C190 1.377 . S
C194 C193 1.394 . S
H195 C202 0.929 . S
H196 C205 0.930 . S
H197 C207 0.929 . S
H198 C199 0.969 . S
C199 H198 0.969 . S
C199 O200 1.550 . S
C199 H201 0.973 . S
O200 C199 1.550 . S
O200 C206 1.412 . S
H201 C199 0.973 . S
C202 H195 0.929 . S
C202 C203 1.400 . S
C202 C204 1.364 1_554 S
C203 C202 1.400 . S
C203 C207 1.377 1_554 S
C204 C202 1.364 1_556 S
C204 C205 1.374 . S
C205 H196 0.930 . S
C205 C204 1.374 . S
C205 C206 1.383 . S
C206 O200 1.412 . S
C206 C205 1.383 . S
C206 C207 1.394 . S
C207 H197 0.929 . S
C207 C203 1.377 1_556 S
C207 C206 1.394 . S
Mn208 O213 2.095 . S
Mn208 O223 2.162 . S
Mn208 O224 2.297 . S
Mn208 O232 2.385 1_554 S
Mn208 O233 2.209 1_554 S
Mn208 O234 2.094 . S
Mn209 O214 2.121 . S
Mn209 N216 2.257 . S
Mn209 N225 2.282 . S
Mn209 O233 2.215 . S
Mn209 O235 2.117 . S
C210 O232 1.234 . S
C210 O233 1.283 . S
C211 O223 1.281 . S
C211 O224 1.236 . S
C212 O234 1.240 1_556 S
C212 O235 1.264 . S
O213 Mn208 2.095 . S
O213 C222 1.250 1_554 S
O214 Mn209 2.121 . S
O214 C222 1.258 . S
C215 N216 1.326 . S
C215 C219 1.460 . S
C215 H221 0.929 . S
N216 Mn209 2.257 . S
N216 C215 1.326 . S
N216 C220 1.362 . S
C217 C218 1.258 . S
C217 C220 1.431 . S
C217 C237 1.449 . S
C218 C217 1.258 . S
C218 C219 1.477 . S
C218 H238 0.931 . S
C219 C215 1.460 . S
C219 C218 1.477 . S
C219 H239 0.930 . S
C220 N216 1.362 . S
C220 C217 1.431 . S
C220 C230 1.476 . S
H221 C215 0.929 . S
C222 O213 1.250 1_556 S
C222 O214 1.258 . S
O223 Mn208 2.162 . S
O223 C211 1.281 . S
O224 Mn208 2.297 . S
O224 C211 1.236 . S
N225 Mn209 2.282 . S
N225 C226 1.328 . S
N225 C230 1.318 . S
C226 N225 1.328 . S
C226 C227 1.457 . S
C226 H231 0.929 . S
C227 C226 1.457 . S
C227 C228 1.291 . S
C227 H240 0.931 . S
C228 C227 1.291 . S
C228 C229 1.373 . S
C228 H241 0.929 . S
C229 C228 1.373 . S
C229 C230 1.396 . S
C229 C236 1.403 . S
C230 C220 1.476 . S
C230 N225 1.318 . S
C230 C229 1.396 . S
H231 C226 0.929 . S
O232 Mn208 2.385 1_556 S
O232 C210 1.234 . S
O233 Mn208 2.209 1_556 S
O233 Mn209 2.215 . S
O233 C210 1.283 . S
O234 Mn208 2.094 . S
O234 C212 1.240 1_554 S
O235 Mn209 2.117 . S
O235 C212 1.264 . S
C236 C229 1.403 . S
C236 C237 1.399 . S
C236 H242 0.929 . S
C237 C217 1.449 . S
C237 C236 1.399 . S
C237 H243 0.930 . S
H238 C218 0.931 . S
H239 C219 0.930 . S
H240 C227 0.931 . S
H241 C228 0.929 . S
H242 C236 0.929 . S
H243 C237 0.930 . S
Mn244 O249 2.095 . S
Mn244 O259 2.162 . S
Mn244 O260 2.297 . S
Mn244 O268 2.385 . S
Mn244 O269 2.209 . S
Mn244 O270 2.094 . S
Mn245 O250 2.121 . S
Mn245 N252 2.257 . S
Mn245 N261 2.282 . S
Mn245 O269 2.215 . S
Mn245 O271 2.117 . S
C246 O268 1.234 . S
C246 O269 1.283 . S
C247 O259 1.281 . S
C247 O260 1.236 . S
C248 O270 1.240 . S
C248 O271 1.264 . S
O249 Mn244 2.095 . S
O249 C258 1.250 . S
O250 Mn245 2.121 . S
O250 C258 1.258 . S
C251 N252 1.326 . S
C251 C255 1.460 . S
C251 H257 0.929 . S
N252 Mn245 2.257 . S
N252 C251 1.326 . S
N252 C256 1.362 . S
C253 C254 1.258 . S
C253 C256 1.431 . S
C253 C273 1.449 . S
C254 C253 1.258 . S
C254 C255 1.477 . S
C254 H274 0.931 . S
C255 C251 1.460 . S
C255 C254 1.477 . S
C255 H275 0.930 . S
C256 N252 1.362 . S
C256 C253 1.431 . S
C256 C266 1.476 . S
H257 C251 0.929 . S
C258 O249 1.250 . S
C258 O250 1.258 . S
O259 Mn244 2.162 . S
O259 C247 1.281 . S
O260 Mn244 2.297 . S
O260 C247 1.236 . S
N261 Mn245 2.282 . S
N261 C262 1.328 . S
N261 C266 1.318 . S
C262 N261 1.328 . S
C262 C263 1.457 . S
C262 H267 0.929 . S
C263 C262 1.457 . S
C263 C264 1.291 . S
C263 H276 0.931 . S
C264 C263 1.291 . S
C264 C265 1.373 . S
C264 H277 0.929 . S
C265 C264 1.373 . S
C265 C266 1.396 . S
C265 C272 1.403 . S
C266 C256 1.476 . S
C266 N261 1.318 . S
C266 C265 1.396 . S
H267 C262 0.929 . S
O268 Mn244 2.385 . S
O268 C246 1.234 . S
O269 Mn244 2.209 . S
O269 Mn245 2.215 . S
O269 C246 1.283 . S
O270 Mn244 2.094 . S
O270 C248 1.240 . S
O271 Mn245 2.117 . S
O271 C248 1.264 . S
C272 C265 1.403 . S
C272 C273 1.399 . S
C272 H278 0.929 . S
C273 C253 1.449 . S
C273 C272 1.399 . S
C273 H279 0.930 . S
H274 C254 0.931 . S
H275 C255 0.930 . S
H276 C263 0.931 . S
H277 C264 0.929 . S
H278 C272 0.929 . S
H279 C273 0.930 . S
Mn280 O285 2.095 . S
Mn280 O295 2.162 . S
Mn280 O296 2.297 . S
Mn280 O304 2.385 . S
Mn280 O305 2.209 . S
Mn280 O306 2.094 . S
Mn281 O286 2.121 1_554 S
Mn281 N288 2.257 1_554 S
Mn281 N297 2.282 . S
Mn281 O305 2.215 . S
Mn281 O307 2.117 . S
C282 O304 1.234 . S
C282 O305 1.283 . S
C283 O295 1.281 . S
C283 O296 1.236 . S
C284 O306 1.240 . S
C284 O307 1.264 . S
O285 Mn280 2.095 . S
O285 C294 1.250 1_554 S
O286 Mn281 2.121 1_556 S
O286 C294 1.258 . S
C287 N288 1.326 . S
C287 C291 1.460 . S
C287 H293 0.929 . S
N288 Mn281 2.257 1_556 S
N288 C287 1.326 . S
N288 C292 1.362 . S
C289 C290 1.258 . S
C289 C292 1.431 . S
C289 C309 1.449 . S
C290 C289 1.258 . S
C290 C291 1.477 . S
C290 H310 0.931 . S
C291 C287 1.460 . S
C291 C290 1.477 . S
C291 H311 0.930 . S
C292 N288 1.362 . S
C292 C289 1.431 . S
C292 C302 1.438 1_556 S
H293 C287 0.929 . S
C294 O285 1.250 1_556 S
C294 O286 1.258 . S
O295 Mn280 2.162 . S
O295 C283 1.281 . S
O296 Mn280 2.297 . S
O296 C283 1.236 . S
N297 Mn281 2.282 . S
N297 C298 1.328 . S
N297 C302 1.347 . S
C298 N297 1.328 . S
C298 C299 1.457 . S
C298 H303 0.929 . S
C299 C298 1.457 . S
C299 C300 1.291 . S
C299 H312 0.931 . S
C300 C299 1.291 . S
C300 C301 1.373 . S
C300 H313 0.929 . S
C301 C300 1.373 . S
C301 C302 1.404 . S
C301 C308 1.403 1_554 S
C302 C292 1.438 1_554 S
C302 N297 1.347 . S
C302 C301 1.404 . S
H303 C298 0.929 . S
O304 Mn280 2.385 . S
O304 C282 1.234 . S
O305 Mn280 2.209 . S
O305 Mn281 2.215 . S
O305 C282 1.283 . S
O306 Mn280 2.094 . S
O306 C284 1.240 . S
O307 Mn281 2.117 . S
O307 C284 1.264 . S
C308 C301 1.403 1_556 S
C308 C309 1.399 . S
C308 H314 0.929 . S
C309 C289 1.449 . S
C309 C308 1.399 . S
C309 H315 0.930 . S
H310 C290 0.931 . S
H311 C291 0.930 . S
H312 C299 0.931 . S
H313 C300 0.929 . S
H314 C308 0.929 . S
H315 C309 0.930 . S
Mn316 O321 2.095 . S
Mn316 O331 2.162 . S
Mn316 O332 2.297 . S
Mn316 O340 2.385 . S
Mn316 O341 2.209 1_545 S
Mn316 O342 2.094 . S
Mn317 O322 2.121 . S
Mn317 N324 2.257 . S
Mn317 N333 2.282 . S
Mn317 O341 2.215 . S
Mn317 O343 2.128 . S
C318 O340 1.234 1_565 S
C318 O341 1.283 . S
C319 O331 1.281 . S
C319 O332 1.236 . S
C320 O342 1.240 . S
C320 O343 1.247 1_545 S
O321 Mn316 2.095 . S
O321 C330 1.250 . S
O322 Mn317 2.121 . S
O322 C330 1.258 1_565 S
C323 N324 1.326 . S
C323 C327 1.460 . S
C323 H329 0.929 . S
N324 Mn317 2.257 . S
N324 C323 1.326 . S
N324 C328 1.362 . S
C325 C326 1.258 . S
C325 C328 1.431 . S
C325 C345 1.449 . S
C326 C325 1.258 . S
C326 C327 1.477 . S
C326 H346 0.931 . S
C327 C323 1.460 . S
C327 C326 1.477 . S
C327 H347 0.930 . S
C328 N324 1.362 . S
C328 C325 1.431 . S
C328 C338 1.476 . S
H329 C323 0.929 . S
C330 O321 1.250 . S
C330 O322 1.258 1_545 S
O331 Mn316 2.162 . S
O331 C319 1.281 . S
O332 Mn316 2.297 . S
O332 C319 1.236 . S
N333 Mn317 2.282 . S
N333 C334 1.328 . S
N333 C338 1.318 . S
C334 N333 1.328 . S
C334 C335 1.457 . S
C334 H339 0.929 . S
C335 C334 1.457 . S
C335 C336 1.291 . S
C335 H348 0.931 . S
C336 C335 1.291 . S
C336 C337 1.373 . S
C336 H349 0.929 . S
C337 C336 1.373 . S
C337 C338 1.396 . S
C337 C344 1.403 . S
C338 C328 1.476 . S
C338 N333 1.318 . S
C338 C337 1.396 . S
H339 C334 0.929 . S
O340 Mn316 2.385 . S
O340 C318 1.234 1_545 S
O341 Mn316 2.209 1_565 S
O341 Mn317 2.215 . S
O341 C318 1.283 . S
O342 Mn316 2.094 . S
O342 C320 1.240 . S
O343 Mn317 2.128 . S
O343 C320 1.247 1_565 S
C344 C337 1.403 . S
C344 C345 1.399 . S
C344 H350 0.929 . S
C345 C325 1.449 . S
C345 C344 1.399 . S
C345 H351 0.930 . S
H346 C326 0.931 . S
H347 C327 0.930 . S
H348 C335 0.931 . S
H349 C336 0.929 . S
H350 C344 0.929 . S
H351 C345 0.930 . S
Mn352 O357 2.095 . S
Mn352 O367 2.162 . S
Mn352 O368 2.297 . S
Mn352 O376 2.385 . S
Mn352 O377 2.209 . S
Mn352 O378 2.094 . S
Mn353 O358 2.121 . S
Mn353 N360 2.257 . S
Mn353 N369 2.282 . S
Mn353 O377 2.215 . S
Mn353 O379 2.117 . S
C354 O376 1.234 . S
C354 O377 1.283 . S
C355 O367 1.281 . S
C355 O368 1.236 . S
C356 O378 1.240 . S
C356 O379 1.264 . S
O357 Mn352 2.095 . S
O357 C366 1.250 . S
O358 Mn353 2.121 . S
O358 C366 1.258 . S
C359 N360 1.326 . S
C359 C363 1.460 . S
C359 H365 0.929 . S
N360 Mn353 2.257 . S
N360 C359 1.326 . S
N360 C364 1.362 . S
C361 C362 1.258 . S
C361 C364 1.431 . S
C361 C381 1.449 . S
C362 C361 1.258 . S
C362 C363 1.477 . S
C362 H382 0.931 . S
C363 C359 1.460 . S
C363 C362 1.477 . S
C363 H383 0.930 . S
C364 N360 1.362 . S
C364 C361 1.431 . S
C364 C374 1.476 . S
H365 C359 0.929 . S
C366 O357 1.250 . S
C366 O358 1.258 . S
O367 Mn352 2.162 . S
O367 C355 1.281 . S
O368 Mn352 2.297 . S
O368 C355 1.236 . S
N369 Mn353 2.282 . S
N369 C370 1.328 . S
N369 C374 1.318 . S
C370 N369 1.328 . S
C370 C371 1.457 . S
C370 H375 0.929 . S
C371 C370 1.457 . S
C371 C372 1.291 . S
C371 H384 0.931 . S
C372 C371 1.291 . S
C372 C373 1.373 . S
C372 H385 0.929 . S
C373 C372 1.373 . S
C373 C374 1.396 . S
C373 C380 1.403 . S
C374 C364 1.476 . S
C374 N369 1.318 . S
C374 C373 1.396 . S
H375 C370 0.929 . S
O376 Mn352 2.385 . S
O376 C354 1.234 . S
O377 Mn352 2.209 . S
O377 Mn353 2.215 . S
O377 C354 1.283 . S
O378 Mn352 2.094 . S
O378 C356 1.240 . S
O379 Mn353 2.117 . S
O379 C356 1.264 . S
C380 C373 1.403 . S
C380 C381 1.399 . S
C380 H386 0.929 . S
C381 C361 1.449 . S
C381 C380 1.399 . S
C381 H387 0.930 . S
H382 C362 0.931 . S
H383 C363 0.930 . S
H384 C371 0.931 . S
H385 C372 0.929 . S
H386 C380 0.929 . S
H387 C381 0.930 . S
Mn388 O393 2.095 . S
Mn388 O403 2.162 . S
Mn388 O404 2.297 . S
Mn388 O412 2.385 . S
Mn388 O413 2.209 . S
Mn388 O414 2.094 . S
Mn389 O394 2.121 . S
Mn389 N396 2.257 . S
Mn389 N405 2.282 . S
Mn389 O413 2.215 . S
Mn389 O415 2.117 . S
C390 O412 1.234 . S
C390 O413 1.283 . S
C391 O403 1.281 . S
C391 O404 1.236 . S
C392 O414 1.240 . S
C392 O415 1.264 . S
O393 Mn388 2.095 . S
O393 C402 1.250 . S
O394 Mn389 2.121 . S
O394 C402 1.258 . S
C395 N396 1.326 . S
C395 C399 1.460 . S
C395 H401 0.929 . S
N396 Mn389 2.257 . S
N396 C395 1.326 . S
N396 C400 1.362 . S
C397 C398 1.258 . S
C397 C400 1.431 . S
C397 C417 1.449 . S
C398 C397 1.258 . S
C398 C399 1.477 . S
C398 H418 0.931 . S
C399 C395 1.460 . S
C399 C398 1.477 . S
C399 H419 0.930 . S
C400 N396 1.362 . S
C400 C397 1.431 . S
C400 C410 1.476 . S
H401 C395 0.929 . S
C402 O393 1.250 . S
C402 O394 1.258 . S
O403 Mn388 2.162 . S
O403 C391 1.281 . S
O404 Mn388 2.297 . S
O404 C391 1.236 . S
N405 Mn389 2.282 . S
N405 C406 1.328 . S
N405 C410 1.318 . S
C406 N405 1.328 . S
C406 C407 1.457 . S
C406 H411 0.929 . S
C407 C406 1.457 . S
C407 C408 1.291 . S
C407 H420 0.931 . S
C408 C407 1.291 . S
C408 C409 1.373 . S
C408 H421 0.929 . S
C409 C408 1.373 . S
C409 C410 1.396 . S
C409 C416 1.403 . S
C410 C400 1.476 . S
C410 N405 1.318 . S
C410 C409 1.396 . S
H411 C406 0.929 . S
O412 Mn388 2.385 . S
O412 C390 1.234 . S
O413 Mn388 2.209 . S
O413 Mn389 2.215 . S
O413 C390 1.283 . S
O414 Mn388 2.094 . S
O414 C392 1.240 . S
O415 Mn389 2.117 . S
O415 C392 1.264 . S
C416 C409 1.403 . S
C416 C417 1.399 . S
C416 H422 0.929 . S
C417 C397 1.449 . S
C417 C416 1.399 . S
C417 H423 0.930 . S
H418 C398 0.931 . S
H419 C399 0.930 . S
H420 C407 0.931 . S
H421 C408 0.929 . S
H422 C416 0.929 . S
H423 C417 0.930 . S
Mn424 O429 2.095 . S
Mn424 O439 2.162 . S
Mn424 O440 2.297 . S
Mn424 O448 2.385 . S
Mn424 O449 2.209 . S
Mn424 O450 2.094 . S
Mn425 O430 2.121 . S
Mn425 N432 2.257 . S
Mn425 N441 2.282 . S
Mn425 O449 2.215 . S
Mn425 O451 2.117 . S
C426 O448 1.234 . S
C426 O449 1.283 . S
C427 O439 1.281 . S
C427 O440 1.236 . S
C428 O450 1.240 . S
C428 O451 1.264 . S
O429 Mn424 2.095 . S
O429 C438 1.250 . S
O430 Mn425 2.121 . S
O430 C438 1.258 . S
C431 N432 1.326 . S
C431 C435 1.460 . S
C431 H437 0.929 . S
N432 Mn425 2.257 . S
N432 C431 1.326 . S
N432 C436 1.362 . S
C433 C434 1.258 . S
C433 C436 1.431 . S
C433 C453 1.449 . S
C434 C433 1.258 . S
C434 C435 1.477 . S
C434 H454 0.931 . S
C435 C431 1.460 . S
C435 C434 1.477 . S
C435 H455 0.930 . S
C436 N432 1.362 . S
C436 C433 1.431 . S
C436 C446 1.476 . S
H437 C431 0.929 . S
C438 O429 1.250 . S
C438 O430 1.258 . S
O439 Mn424 2.162 . S
O439 C427 1.281 . S
O440 Mn424 2.297 . S
O440 C427 1.236 . S
N441 Mn425 2.282 . S
N441 C442 1.328 . S
N441 C446 1.318 . S
C442 N441 1.328 . S
C442 C443 1.457 . S
C442 H447 0.929 . S
C443 C442 1.457 . S
C443 C444 1.291 . S
C443 H456 0.931 . S
C444 C443 1.291 . S
C444 C445 1.373 . S
C444 H457 0.929 . S
C445 C444 1.373 . S
C445 C446 1.396 . S
C445 C452 1.403 . S
C446 C436 1.476 . S
C446 N441 1.318 . S
C446 C445 1.396 . S
H447 C442 0.929 . S
O448 Mn424 2.385 . S
O448 C426 1.234 . S
O449 Mn424 2.209 . S
O449 Mn425 2.215 . S
O449 C426 1.283 . S
O450 Mn424 2.094 . S
O450 C428 1.240 . S
O451 Mn425 2.117 . S
O451 C428 1.264 . S
C452 C445 1.403 . S
C452 C453 1.399 . S
C452 H458 0.929 . S
C453 C433 1.449 . S
C453 C452 1.399 . S
C453 H459 0.930 . S
H454 C434 0.931 . S
H455 C435 0.930 . S
H456 C443 0.931 . S
H457 C444 0.929 . S
H458 C452 0.929 . S
H459 C453 0.930 . S
Mn460 O465 2.095 . S
Mn460 O475 2.162 . S
Mn460 O476 2.297 . S
Mn460 O484 2.385 1_565 S
Mn460 O485 2.209 1_565 S
Mn460 O486 2.094 . S
Mn461 O466 2.121 . S
Mn461 N468 2.257 . S
Mn461 N477 2.282 . S
Mn461 O485 2.215 . S
Mn461 O487 2.117 . S
C462 O484 1.234 . S
C462 O485 1.283 . S
C463 O475 1.281 . S
C463 O476 1.236 . S
C464 O486 1.240 . S
C464 O487 1.264 1_565 S
O465 Mn460 2.095 . S
O465 C474 1.250 1_565 S
O466 Mn461 2.121 . S
O466 C474 1.258 . S
C467 N468 1.326 . S
C467 C471 1.460 . S
C467 H473 0.929 . S
N468 Mn461 2.257 . S
N468 C467 1.326 . S
N468 C472 1.362 . S
C469 C470 1.258 . S
C469 C472 1.431 . S
C469 C489 1.449 . S
C470 C469 1.258 . S
C470 C471 1.477 . S
C470 H490 0.931 . S
C471 C467 1.460 . S
C471 C470 1.477 . S
C471 H491 0.930 . S
C472 N468 1.362 . S
C472 C469 1.431 . S
C472 C482 1.476 . S
H473 C467 0.929 . S
C474 O465 1.250 1_545 S
C474 O466 1.258 . S
O475 Mn460 2.162 . S
O475 C463 1.281 . S
O476 Mn460 2.297 . S
O476 C463 1.236 . S
N477 Mn461 2.282 . S
N477 C478 1.328 . S
N477 C482 1.318 . S
C478 N477 1.328 . S
C478 C479 1.457 . S
C478 H483 0.929 . S
C479 C478 1.457 . S
C479 C480 1.291 . S
C479 H492 0.931 . S
C480 C479 1.291 . S
C480 C481 1.373 . S
C480 H493 0.929 . S
C481 C480 1.373 . S
C481 C482 1.396 . S
C481 C488 1.403 . S
C482 C472 1.476 . S
C482 N477 1.318 . S
C482 C481 1.396 . S
H483 C478 0.929 . S
O484 Mn460 2.385 1_545 S
O484 C462 1.234 . S
O485 Mn460 2.209 1_545 S
O485 Mn461 2.215 . S
O485 C462 1.283 . S
O486 Mn460 2.094 . S
O486 C464 1.240 . S
O487 Mn461 2.117 . S
O487 C464 1.264 1_545 S
C488 C481 1.403 . S
C488 C489 1.399 . S
C488 H494 0.929 . S
C489 C469 1.449 . S
C489 C488 1.399 . S
C489 H495 0.930 . S
H490 C470 0.931 . S
H491 C471 0.930 . S
H492 C479 0.931 . S
H493 C480 0.929 . S
H494 C488 0.929 . S
H495 C489 0.930 . S
Mn496 O501 2.095 . S
Mn496 O511 2.162 . S
Mn496 O512 2.297 . S
Mn496 O520 2.385 1_455 S
Mn496 O521 2.209 1_455 S
Mn496 O522 2.094 . S
Mn497 O502 2.121 . S
Mn497 N504 2.257 . S
Mn497 N513 2.282 . S
Mn497 O521 2.215 . S
Mn497 O523 2.117 . S
C498 O520 1.234 . S
C498 O521 1.283 . S
C499 O511 1.281 . S
C499 O512 1.236 . S
C500 O522 1.240 1_655 S
C500 O523 1.264 . S
O501 Mn496 2.095 . S
O501 C510 1.250 1_455 S
O502 Mn497 2.121 . S
O502 C510 1.258 . S
C503 N504 1.326 . S
C503 C507 1.460 . S
C503 H509 0.929 . S
N504 Mn497 2.257 . S
N504 C503 1.326 . S
N504 C508 1.362 . S
C505 C506 1.258 . S
C505 C508 1.431 . S
C505 C525 1.449 . S
C506 C505 1.258 . S
C506 C507 1.477 . S
C506 H526 0.931 . S
C507 C503 1.460 . S
C507 C506 1.477 . S
C507 H527 0.930 . S
C508 N504 1.362 . S
C508 C505 1.431 . S
C508 C518 1.476 . S
H509 C503 0.929 . S
C510 O501 1.250 1_655 S
C510 O502 1.258 . S
O511 Mn496 2.162 . S
O511 C499 1.281 . S
O512 Mn496 2.297 . S
O512 C499 1.236 . S
N513 Mn497 2.282 . S
N513 C514 1.328 . S
N513 C518 1.318 . S
C514 N513 1.328 . S
C514 C515 1.457 . S
C514 H519 0.929 . S
C515 C514 1.457 . S
C515 C516 1.291 . S
C515 H528 0.931 . S
C516 C515 1.291 . S
C516 C517 1.373 . S
C516 H529 0.929 . S
C517 C516 1.373 . S
C517 C518 1.396 . S
C517 C524 1.403 . S
C518 C508 1.476 . S
C518 N513 1.318 . S
C518 C517 1.396 . S
H519 C514 0.929 . S
O520 Mn496 2.385 1_655 S
O520 C498 1.234 . S
O521 Mn496 2.209 1_655 S
O521 Mn497 2.215 . S
O521 C498 1.283 . S
O522 Mn496 2.094 . S
O522 C500 1.240 1_455 S
O523 Mn497 2.117 . S
O523 C500 1.264 . S
C524 C517 1.403 . S
C524 C525 1.399 . S
C524 H530 0.929 . S
C525 C505 1.449 . S
C525 C524 1.399 . S
C525 H531 0.930 . S
H526 C506 0.931 . S
H527 C507 0.930 . S
H528 C515 0.931 . S
H529 C516 0.929 . S
H530 C524 0.929 . S
H531 C525 0.930 . S
Mn532 O537 2.095 . S
Mn532 O547 2.162 . S
Mn532 O548 2.297 . S
Mn532 O556 2.385 . S
Mn532 O557 2.209 . S
Mn532 O558 2.094 . S
Mn533 O538 2.121 . S
Mn533 N540 2.257 . S
Mn533 N549 2.282 . S
Mn533 O557 2.215 . S
Mn533 O559 2.117 . S
C534 O556 1.234 . S
C534 O557 1.283 . S
C535 O547 1.281 . S
C535 O548 1.236 . S
C536 O558 1.240 . S
C536 O559 1.264 . S
O537 Mn532 2.095 . S
O537 C546 1.250 . S
O538 Mn533 2.121 . S
O538 C546 1.258 . S
C539 N540 1.326 . S
C539 C543 1.460 . S
C539 H545 0.929 . S
N540 Mn533 2.257 . S
N540 C539 1.326 . S
N540 C544 1.362 . S
C541 C542 1.258 . S
C541 C544 1.431 . S
C541 C561 1.449 . S
C542 C541 1.258 . S
C542 C543 1.477 . S
C542 H562 0.931 . S
C543 C539 1.460 . S
C543 C542 1.477 . S
C543 H563 0.930 . S
C544 N540 1.362 . S
C544 C541 1.431 . S
C544 C554 1.476 . S
H545 C539 0.929 . S
C546 O537 1.250 . S
C546 O538 1.258 . S
O547 Mn532 2.162 . S
O547 C535 1.281 . S
O548 Mn532 2.297 . S
O548 C535 1.236 . S
N549 Mn533 2.282 . S
N549 C550 1.328 . S
N549 C554 1.318 . S
C550 N549 1.328 . S
C550 C551 1.457 . S
C550 H555 0.929 . S
C551 C550 1.457 . S
C551 C552 1.291 . S
C551 H564 0.931 . S
C552 C551 1.291 . S
C552 C553 1.373 . S
C552 H565 0.929 . S
C553 C552 1.373 . S
C553 C554 1.396 . S
C553 C560 1.403 . S
C554 C544 1.476 . S
C554 N549 1.318 . S
C554 C553 1.396 . S
H555 C550 0.929 . S
O556 Mn532 2.385 . S
O556 C534 1.234 . S
O557 Mn532 2.209 . S
O557 Mn533 2.215 . S
O557 C534 1.283 . S
O558 Mn532 2.094 . S
O558 C536 1.240 . S
O559 Mn533 2.117 . S
O559 C536 1.264 . S
C560 C553 1.403 . S
C560 C561 1.399 . S
C560 H566 0.929 . S
C561 C541 1.449 . S
C561 C560 1.399 . S
C561 H567 0.930 . S
H562 C542 0.931 . S
H563 C543 0.930 . S
H564 C551 0.931 . S
H565 C552 0.929 . S
H566 C560 0.929 . S
H567 C561 0.930 . S
Mn568 O573 2.095 . S
Mn568 O583 2.162 . S
Mn568 O584 2.297 . S
Mn568 O592 2.385 . S
Mn568 O593 2.209 . S
Mn568 O594 2.094 . S
Mn569 O574 2.095 1_455 S
Mn569 N576 2.228 1_455 S
Mn569 N585 2.301 . S
Mn569 O593 2.216 . S
Mn569 O595 2.153 . S
C570 O592 1.234 . S
C570 O593 1.283 . S
C571 O583 1.281 . S
C571 O584 1.236 . S
C572 O594 1.240 . S
C572 O595 1.264 . S
O573 Mn568 2.095 . S
O573 C582 1.250 1_455 S
O574 Mn569 2.095 1_655 S
O574 C582 1.258 . S
C575 N576 1.326 . S
C575 C579 1.460 . S
C575 H581 0.929 . S
N576 Mn569 2.228 1_655 S
N576 C575 1.326 . S
N576 C580 1.362 . S
C577 C578 1.258 . S
C577 C580 1.431 . S
C577 C597 1.449 . S
C578 C577 1.258 . S
C578 C579 1.477 . S
C578 H598 0.931 . S
C579 C575 1.460 . S
C579 C578 1.477 . S
C579 H599 0.930 . S
C580 N576 1.362 . S
C580 C577 1.431 . S
C580 C590 1.476 . S
H581 C575 0.929 . S
C582 O573 1.250 1_655 S
C582 O574 1.258 . S
O583 Mn568 2.162 . S
O583 C571 1.281 . S
O584 Mn568 2.297 . S
O584 C571 1.236 . S
N585 Mn569 2.301 . S
N585 C586 1.328 . S
N585 C590 1.318 1_455 S
C586 N585 1.328 . S
C586 C587 1.457 . S
C586 H591 0.929 . S
C587 C586 1.457 . S
C587 C588 1.291 . S
C587 H600 0.931 . S
C588 C587 1.291 . S
C588 C589 1.372 . S
C588 H601 0.929 . S
C589 C588 1.372 . S
C589 C590 1.396 1_455 S
C589 C596 1.403 1_455 S
C590 C580 1.476 . S
C590 N585 1.318 1_655 S
C590 C589 1.396 1_655 S
H591 C586 0.929 . S
O592 Mn568 2.385 . S
O592 C570 1.234 . S
O593 Mn568 2.209 . S
O593 Mn569 2.216 . S
O593 C570 1.283 . S
O594 Mn568 2.094 . S
O594 C572 1.240 . S
O595 Mn569 2.153 . S
O595 C572 1.264 . S
C596 C589 1.403 1_655 S
C596 C597 1.399 . S
C596 H602 0.929 . S
C597 C577 1.449 . S
C597 C596 1.399 . S
C597 H603 0.930 . S
H598 C578 0.931 . S
H599 C579 0.930 . S
H600 C587 0.931 . S
H601 C588 0.929 . S
H602 C596 0.929 . S
H603 C597 0.930 . S
Mn604 O609 2.095 . S
Mn604 O619 2.162 . S
Mn604 O620 2.297 . S
Mn604 O628 2.385 . S
Mn604 O629 2.209 . S
Mn604 O630 2.094 . S
Mn605 O610 2.121 . S
Mn605 N612 2.257 . S
Mn605 N621 2.282 . S
Mn605 O629 2.215 . S
Mn605 O631 2.117 . S
C606 O628 1.234 . S
C606 O629 1.283 . S
C607 O619 1.281 . S
C607 O620 1.236 . S
C608 O630 1.240 . S
C608 O631 1.264 . S
O609 Mn604 2.095 . S
O609 C618 1.250 . S
O610 Mn605 2.121 . S
O610 C618 1.258 . S
C611 N612 1.326 . S
C611 C615 1.460 . S
C611 H617 0.929 . S
N612 Mn605 2.257 . S
N612 C611 1.326 . S
N612 C616 1.362 . S
C613 C614 1.258 . S
C613 C616 1.431 . S
C613 C633 1.449 . S
C614 C613 1.258 . S
C614 C615 1.477 . S
C614 H634 0.931 . S
C615 C611 1.460 . S
C615 C614 1.477 . S
C615 H635 0.930 . S
C616 N612 1.362 . S
C616 C613 1.431 . S
C616 C626 1.476 . S
H617 C611 0.929 . S
C618 O609 1.250 . S
C618 O610 1.258 . S
O619 Mn604 2.162 . S
O619 C607 1.281 . S
O620 Mn604 2.297 . S
O620 C607 1.236 . S
N621 Mn605 2.282 . S
N621 C622 1.328 . S
N621 C626 1.318 . S
C622 N621 1.328 . S
C622 C623 1.457 . S
C622 H627 0.929 . S
C623 C622 1.457 . S
C623 C624 1.291 . S
C623 H636 0.931 . S
C624 C623 1.291 . S
C624 C625 1.373 . S
C624 H637 0.929 . S
C625 C624 1.373 . S
C625 C626 1.396 . S
C625 C632 1.403 . S
C626 C616 1.476 . S
C626 N621 1.318 . S
C626 C625 1.396 . S
H627 C622 0.929 . S
O628 Mn604 2.385 . S
O628 C606 1.234 . S
O629 Mn604 2.209 . S
O629 Mn605 2.215 . S
O629 C606 1.283 . S
O630 Mn604 2.094 . S
O630 C608 1.240 . S
O631 Mn605 2.117 . S
O631 C608 1.264 . S
C632 C625 1.403 . S
C632 C633 1.399 . S
C632 H638 0.929 . S
C633 C613 1.449 . S
C633 C632 1.399 . S
C633 H639 0.930 . S
H634 C614 0.931 . S
H635 C615 0.930 . S
H636 C623 0.931 . S
H637 C624 0.929 . S
H638 C632 0.929 . S
H639 C633 0.930 . S
H640 C646 0.930 . S
H641 C649 0.930 . S
H642 C650 0.930 . S
H643 C651 0.930 . S
H644 C654 0.930 . S
H645 C655 0.930 . S
C646 H640 0.930 . S
C646 C647 1.355 . S
C646 C648 1.415 . S
C647 C646 1.355 . S
C647 C649 1.419 . S
C648 C646 1.415 . S
C648 C653 1.425 . S
C648 C655 1.409 . S
C649 H641 0.930 . S
C649 C647 1.419 . S
C649 C650 1.362 . S
C650 H642 0.930 . S
C650 C649 1.362 . S
C650 C653 1.409 . S
C651 H643 0.930 . S
C651 C652 1.355 . S
C651 C653 1.415 . S
C652 C651 1.355 . S
C652 C654 1.419 . S
C653 C648 1.425 . S
C653 C650 1.409 . S
C653 C651 1.415 . S
C654 H644 0.930 . S
C654 C652 1.419 . S
C654 C655 1.362 . S
C655 H645 0.930 . S
C655 C648 1.409 . S
C655 C654 1.362 . S
H656 C662 0.930 . S
H657 C665 0.930 . S
H658 C666 0.930 . S
H659 C667 0.930 . S
H660 C670 0.930 . S
H661 C671 0.930 . S
C662 H656 0.930 . S
C662 C663 1.355 . S
C662 C664 1.415 . S
C663 C662 1.355 . S
C663 C665 1.419 . S
C664 C662 1.415 . S
C664 C669 1.425 . S
C664 C671 1.409 . S
C665 H657 0.930 . S
C665 C663 1.419 . S
C665 C666 1.362 . S
C666 H658 0.930 . S
C666 C665 1.362 . S
C666 C669 1.409 . S
C667 H659 0.930 . S
C667 C668 1.355 . S
C667 C669 1.415 . S
C668 C667 1.355 . S
C668 C670 1.419 . S
C669 C664 1.425 . S
C669 C666 1.409 . S
C669 C667 1.415 . S
C670 H660 0.930 . S
C670 C668 1.419 . S
C670 C671 1.362 . S
C671 H661 0.930 . S
C671 C664 1.409 . S
C671 C670 1.362 . S
H672 C678 0.930 . S
H673 C681 0.930 . S
H674 C682 0.930 . S
H675 C683 0.930 . S
H676 C686 0.930 . S
H677 C687 0.930 . S
C678 H672 0.930 . S
C678 C679 1.355 . S
C678 C680 1.415 . S
C679 C678 1.355 . S
C679 C681 1.419 . S
C680 C678 1.415 . S
C680 C685 1.425 . S
C680 C687 1.409 . S
C681 H673 0.930 . S
C681 C679 1.419 . S
C681 C682 1.362 . S
C682 H674 0.930 . S
C682 C681 1.362 . S
C682 C685 1.409 . S
C683 H675 0.930 . S
C683 C684 1.355 . S
C683 C685 1.415 . S
C684 C683 1.355 . S
C684 C686 1.419 . S
C685 C680 1.425 . S
C685 C682 1.409 . S
C685 C683 1.415 . S
C686 H676 0.930 . S
C686 C684 1.419 . S
C686 C687 1.362 . S
C687 H677 0.930 . S
C687 C680 1.409 . S
C687 C686 1.362 . S
H688 C694 0.930 1_455 S
H689 C697 0.930 . S
H690 C698 0.943 . S
H691 C699 0.930 . S
H692 C702 0.930 . S
H693 C703 0.937 . S
C694 H688 0.930 1_655 S
C694 C695 1.355 . S
C694 C696 1.411 1_565 S
C695 C694 1.355 . S
C695 C697 1.419 . S
C696 C694 1.411 1_545 S
C696 C701 1.429 . S
C696 C703 1.409 . S
C697 H689 0.930 . S
C697 C695 1.419 . S
C697 C698 1.351 1_565 S
C698 H690 0.943 . S
C698 C697 1.351 1_545 S
C698 C701 1.409 . S
C699 H691 0.930 . S
C699 C700 1.355 . S
C699 C701 1.415 . S
C700 C699 1.355 . S
C700 C702 1.419 . S
C701 C696 1.429 . S
C701 C698 1.409 . S
C701 C699 1.415 . S
C702 H692 0.930 . S
C702 C700 1.419 . S
C702 C703 1.362 . S
C703 H693 0.937 . S
C703 C696 1.409 . S
C703 C702 1.362 . S
H704 C710 0.930 . S
H705 C713 0.930 . S
H706 C714 0.930 . S
H707 C715 0.930 . S
H708 C718 0.930 . S
H709 C719 0.930 . S
C710 H704 0.930 . S
C710 C711 1.355 . S
C710 C712 1.415 . S
C711 C710 1.355 . S
C711 C713 1.419 . S
C712 C710 1.415 . S
C712 C717 1.425 . S
C712 C719 1.409 . S
C713 H705 0.930 . S
C713 C711 1.419 . S
C713 C714 1.362 . S
C714 H706 0.930 . S
C714 C713 1.362 . S
C714 C717 1.409 . S
C715 H707 0.930 . S
C715 C716 1.355 . S
C715 C717 1.415 . S
C716 C715 1.355 . S
C716 C718 1.419 . S
C717 C712 1.425 . S
C717 C714 1.409 . S
C717 C715 1.415 . S
C718 H708 0.930 . S
C718 C716 1.419 . S
C718 C719 1.362 . S
C719 H709 0.930 . S
C719 C712 1.409 . S
C719 C718 1.362 . S
H720 C726 0.930 . S
H721 C729 0.930 . S
H722 C730 0.930 . S
H723 C731 0.930 . S
H724 C734 0.930 . S
H725 C735 0.930 . S
C726 H720 0.930 . S
C726 C727 1.355 . S
C726 C728 1.415 . S
C727 C726 1.355 . S
C727 C729 1.419 . S
C728 C726 1.415 . S
C728 C733 1.425 . S
C728 C735 1.409 . S
C729 H721 0.930 . S
C729 C727 1.419 . S
C729 C730 1.362 . S
C730 H722 0.930 . S
C730 C729 1.362 . S
C730 C733 1.409 . S
C731 H723 0.930 . S
C731 C732 1.355 . S
C731 C733 1.415 . S
C732 C731 1.355 . S
C732 C734 1.419 . S
C733 C728 1.425 . S
C733 C730 1.409 . S
C733 C731 1.415 . S
C734 H724 0.930 . S
C734 C732 1.419 . S
C734 C735 1.362 . S
C735 H725 0.930 . S
C735 C728 1.409 . S
C735 C734 1.362 . S
H736 C742 0.930 . S
H737 C745 0.930 . S
H738 C746 0.930 . S
H739 C747 0.930 . S
H740 C750 0.930 . S
H741 C751 0.930 . S
C742 H736 0.930 . S
C742 C743 1.355 . S
C742 C744 1.415 . S
C743 C742 1.355 . S
C743 C745 1.419 . S
C744 C742 1.415 . S
C744 C749 1.425 . S
C744 C751 1.409 . S
C745 H737 0.930 . S
C745 C743 1.419 . S
C745 C746 1.362 . S
C746 H738 0.930 . S
C746 C745 1.362 . S
C746 C749 1.409 . S
C747 H739 0.930 . S
C747 C748 1.355 . S
C747 C749 1.415 . S
C748 C747 1.355 . S
C748 C750 1.419 . S
C749 C744 1.425 . S
C749 C746 1.409 . S
C749 C747 1.415 . S
C750 H740 0.930 . S
C750 C748 1.419 . S
C750 C751 1.362 . S
C751 H741 0.930 . S
C751 C744 1.409 . S
C751 C750 1.362 . S
H752 C758 0.930 . S
H753 C761 0.930 . S
H754 C762 0.930 . S
H755 C763 0.930 . S
H756 C766 0.931 . S
H757 C767 0.930 . S
C758 H752 0.930 . S
C758 C759 1.355 . S
C758 C760 1.415 . S
C759 C758 1.355 . S
C759 C761 1.419 . S
C760 C758 1.415 . S
C760 C765 1.425 . S
C760 C767 1.409 . S
C761 H753 0.930 . S
C761 C759 1.419 . S
C761 C762 1.362 . S
C762 H754 0.930 . S
C762 C761 1.362 . S
C762 C765 1.409 . S
C763 H755 0.930 . S
C763 C764 1.355 . S
C763 C765 1.415 . S
C764 C763 1.355 . S
C764 C766 1.419 . S
C765 C760 1.425 . S
C765 C762 1.409 . S
C765 C763 1.415 . S
C766 H756 0.931 . S
C766 C764 1.419 . S
C766 C767 1.362 . S
C767 H757 0.930 . S
C767 C760 1.409 . S
C767 C766 1.362 . S
H768 C774 0.930 . S
H769 C777 0.930 . S
H770 C778 0.930 . S
H771 C779 0.930 . S
H772 C782 0.930 . S
H773 C783 0.930 . S
C774 H768 0.930 . S
C774 C775 1.355 . S
C774 C776 1.415 . S
C775 C774 1.355 . S
C775 C777 1.419 . S
C776 C774 1.415 . S
C776 C781 1.425 . S
C776 C783 1.409 . S
C777 H769 0.930 . S
C777 C775 1.419 . S
C777 C778 1.362 . S
C778 H770 0.930 . S
C778 C777 1.362 . S
C778 C781 1.409 . S
C779 H771 0.930 . S
C779 C780 1.355 . S
C779 C781 1.415 . S
C780 C779 1.355 . S
C780 C782 1.419 . S
C781 C776 1.425 . S
C781 C778 1.409 . S
C781 C779 1.415 . S
C782 H772 0.930 . S
C782 C780 1.419 . S
C782 C783 1.362 . S
C783 H773 0.930 . S
C783 C776 1.409 . S
C783 C782 1.362 . S
H784 C790 0.930 . S
H785 C793 0.930 . S
H786 C794 0.930 . S
H787 C795 0.930 . S
H788 C798 0.930 . S
H789 C799 0.930 . S
C790 H784 0.930 . S
C790 C791 1.355 . S
C790 C792 1.415 . S
C791 C790 1.355 . S
C791 C793 1.419 . S
C792 C790 1.415 . S
C792 C797 1.425 . S
C792 C799 1.409 . S
C793 H785 0.930 . S
C793 C791 1.419 . S
C793 C794 1.362 . S
C794 H786 0.930 . S
C794 C793 1.362 . S
C794 C797 1.409 . S
C795 H787 0.930 . S
C795 C796 1.355 . S
C795 C797 1.415 . S
C796 C795 1.355 . S
C796 C798 1.419 . S
C797 C792 1.425 . S
C797 C794 1.409 . S
C797 C795 1.415 . S
C798 H788 0.930 . S
C798 C796 1.419 . S
C798 C799 1.362 . S
C799 H789 0.930 . S
C799 C792 1.409 . S
C799 C798 1.362 . S
H800 C806 0.930 . S
H801 C809 0.930 . S
H802 C810 0.930 . S
H803 C811 0.930 . S
H804 C814 0.930 . S
H805 C815 0.930 . S
C806 H800 0.930 . S
C806 C807 1.355 . S
C806 C808 1.415 . S
C807 C806 1.355 . S
C807 C809 1.419 . S
C808 C806 1.415 . S
C808 C813 1.425 . S
C808 C815 1.409 . S
C809 H801 0.930 . S
C809 C807 1.419 . S
C809 C810 1.362 . S
C810 H802 0.930 . S
C810 C809 1.362 . S
C810 C813 1.409 . S
C811 H803 0.930 . S
C811 C812 1.355 . S
C811 C813 1.415 . S
C812 C811 1.355 . S
C812 C814 1.419 . S
C813 C808 1.425 . S
C813 C810 1.409 . S
C813 C811 1.415 . S
C814 H804 0.930 . S
C814 C812 1.419 . S
C814 C815 1.362 . S
C815 H805 0.930 . S
C815 C808 1.409 . S
C815 C814 1.362 . S
H816 C822 0.930 . S
H817 C825 0.930 . S
H818 C826 0.930 . S
H819 C827 0.930 . S
H820 C830 0.930 . S
H821 C831 0.930 . S
C822 H816 0.930 . S
C822 C823 1.355 . S
C822 C824 1.415 . S
C823 C822 1.355 . S
C823 C825 1.419 . S
C824 C822 1.415 . S
C824 C829 1.425 . S
C824 C831 1.409 . S
C825 H817 0.930 . S
C825 C823 1.419 . S
C825 C826 1.362 . S
C826 H818 0.930 . S
C826 C825 1.362 . S
C826 C829 1.409 . S
C827 H819 0.930 . S
C827 C828 1.355 . S
C827 C829 1.415 . S
C828 C827 1.355 . S
C828 C830 1.419 . S
C829 C824 1.425 . S
C829 C826 1.409 . S
C829 C827 1.415 . S
C830 H820 0.930 . S
C830 C828 1.419 . S
C830 C831 1.362 . S
C831 H821 0.930 . S
C831 C824 1.409 . S
C831 C830 1.362 . S
H832 C838 0.930 . S
H833 C841 0.930 . S
H834 C842 0.930 . S
H835 C843 0.930 . S
H836 C846 0.930 1_455 S
H837 C847 0.930 . S
C838 H832 0.930 . S
C838 C839 1.355 . S
C838 C840 1.415 . S
C839 C838 1.355 . S
C839 C841 1.419 . S
C840 C838 1.415 . S
C840 C845 1.425 . S
C840 C847 1.409 . S
C841 H833 0.930 . S
C841 C839 1.419 . S
C841 C842 1.362 . S
C842 H834 0.930 . S
C842 C841 1.362 . S
C842 C845 1.409 . S
C843 H835 0.930 . S
C843 C844 1.355 . S
C843 C845 1.415 . S
C844 C843 1.355 . S
C844 C846 1.419 . S
C845 C840 1.425 . S
C845 C842 1.409 . S
C845 C843 1.415 . S
C846 H836 0.930 1_655 S
C846 C844 1.419 . S
C846 C847 1.362 . S
C847 H837 0.930 . S
C847 C840 1.409 . S
C847 C846 1.362 . S
H848 C854 0.930 . S
H849 C857 0.930 . S
H850 C858 0.930 . S
H851 C859 0.930 . S
H852 C862 0.930 . S
H853 C863 0.930 . S
C854 H848 0.930 . S
C854 C855 1.355 . S
C854 C856 1.415 . S
C855 C854 1.355 . S
C855 C857 1.419 . S
C856 C854 1.415 . S
C856 C861 1.425 . S
C856 C863 1.409 . S
C857 H849 0.930 . S
C857 C855 1.419 . S
C857 C858 1.362 . S
C858 H850 0.930 . S
C858 C857 1.362 . S
C858 C861 1.409 . S
C859 H851 0.930 . S
C859 C860 1.355 . S
C859 C861 1.415 . S
C860 C859 1.355 . S
C860 C862 1.419 . S
C861 C856 1.425 . S
C861 C858 1.409 . S
C861 C859 1.415 . S
C862 H852 0.930 . S
C862 C860 1.419 . S
C862 C863 1.362 . S
C863 H853 0.930 . S
C863 C856 1.409 . S
C863 C862 1.362 . S
H864 C870 0.930 . S
H865 C873 0.930 . S
H866 C874 0.930 . S
H867 C875 0.930 . S
H868 C878 0.930 . S
H869 C879 0.930 . S
C870 H864 0.930 . S
C870 C871 1.355 . S
C870 C872 1.415 . S
C871 C870 1.355 . S
C871 C873 1.419 . S
C872 C870 1.415 . S
C872 C877 1.425 . S
C872 C879 1.409 . S
C873 H865 0.930 . S
C873 C871 1.419 . S
C873 C874 1.362 . S
C874 H866 0.930 . S
C874 C873 1.362 . S
C874 C877 1.409 . S
C875 H867 0.930 . S
C875 C876 1.355 . S
C875 C877 1.415 . S
C876 C875 1.355 . S
C876 C878 1.419 . S
C877 C872 1.425 . S
C877 C874 1.409 . S
C877 C875 1.415 . S
C878 H868 0.930 . S
C878 C876 1.419 . S
C878 C879 1.362 . S
C879 H869 0.930 . S
C879 C872 1.409 . S
C879 C878 1.362 . S
H880 C886 0.930 . S
H881 C889 0.930 . S
H882 C890 0.930 . S
H883 C891 0.930 . S
H884 C894 0.930 . S
H885 C895 0.930 . S
C886 H880 0.930 . S
C886 C887 1.355 1_455 S
C886 C888 1.415 . S
C887 C886 1.355 1_655 S
C887 C889 1.419 . S
C888 C886 1.415 . S
C888 C893 1.425 1_455 S
C888 C895 1.409 . S
C889 H881 0.930 . S
C889 C887 1.419 . S
C889 C890 1.362 . S
C890 H882 0.930 . S
C890 C889 1.362 . S
C890 C893 1.409 . S
C891 H883 0.930 . S
C891 C892 1.355 1_655 S
C891 C893 1.415 . S
C892 C891 1.355 1_455 S
C892 C894 1.419 . S
C893 C888 1.425 1_655 S
C893 C890 1.409 . S
C893 C891 1.415 . S
C894 H884 0.930 . S
C894 C892 1.419 . S
C894 C895 1.362 . S
C895 H885 0.930 . S
C895 C888 1.409 . S
C895 C894 1.362 . S
H896 C902 0.930 . S
H897 C905 0.930 . S
H898 C906 0.930 . S
H899 C907 0.930 . S
H900 C910 0.930 . S
H901 C911 0.930 . S
C902 H896 0.930 . S
C902 C903 1.355 . S
C902 C904 1.415 . S
C903 C902 1.355 . S
C903 C905 1.419 . S
C904 C902 1.415 . S
C904 C909 1.425 . S
C904 C911 1.409 . S
C905 H897 0.930 . S
C905 C903 1.419 . S
C905 C906 1.362 . S
C906 H898 0.930 . S
C906 C905 1.362 . S
C906 C909 1.409 . S
C907 H899 0.930 . S
C907 C908 1.355 . S
C907 C909 1.415 . S
C908 C907 1.355 . S
C908 C910 1.419 . S
C909 C904 1.425 . S
C909 C906 1.409 . S
C909 C907 1.415 . S
C910 H900 0.930 . S
C910 C908 1.419 . S
C910 C911 1.362 . S
C911 H901 0.930 . S
C911 C904 1.409 . S
C911 C910 1.362 . S
H912 C918 0.930 . S
H913 C921 0.930 . S
H914 C922 0.930 . S
H915 C923 0.930 . S
H916 C926 0.930 . S
H917 C927 0.930 . S
C918 H912 0.930 . S
C918 C919 1.355 . S
C918 C920 1.415 . S
C919 C918 1.355 . S
C919 C921 1.419 . S
C920 C918 1.415 . S
C920 C925 1.425 . S
C920 C927 1.409 . S
C921 H913 0.930 . S
C921 C919 1.419 . S
C921 C922 1.362 . S
C922 H914 0.930 . S
C922 C921 1.362 . S
C922 C925 1.409 . S
C923 H915 0.930 . S
C923 C924 1.355 . S
C923 C925 1.415 . S
C924 C923 1.355 . S
C924 C926 1.419 . S
C925 C920 1.425 . S
C925 C922 1.409 . S
C925 C923 1.415 . S
C926 H916 0.930 . S
C926 C924 1.419 . S
C926 C927 1.362 . S
C927 H917 0.930 . S
C927 C920 1.409 . S
C927 C926 1.362 . S
H928 C934 0.930 . S
H929 C937 0.930 . S
H930 C938 0.930 . S
H931 C939 0.930 . S
H932 C942 0.930 . S
H933 C943 0.930 . S
C934 H928 0.930 . S
C934 C935 1.374 . S
C934 C936 1.415 1_545 S
C935 C934 1.374 . S
C935 C937 1.396 1_556 S
C936 C934 1.415 1_565 S
C936 C941 1.425 1_556 S
C936 C943 1.409 . S
C937 H929 0.930 . S
C937 C935 1.396 1_554 S
C937 C938 1.362 1_545 S
C938 H930 0.930 . S
C938 C937 1.362 1_565 S
C938 C941 1.409 . S
C939 H931 0.930 . S
C939 C940 1.355 1_554 S
C939 C941 1.415 . S
C940 C939 1.355 1_556 S
C940 C942 1.419 . S
C941 C936 1.425 1_554 S
C941 C938 1.409 . S
C941 C939 1.415 . S
C942 H932 0.930 . S
C942 C940 1.419 . S
C942 C943 1.362 . S
C943 H933 0.930 . S
C943 C936 1.409 . S
C943 C942 1.362 . S
H944 C950 0.930 . S
H945 C953 0.930 . S
H946 C954 0.930 . S
H947 C955 0.930 . S
H948 C958 0.930 . S
H949 C959 0.930 . S
C950 H944 0.930 . S
C950 C951 1.355 . S
C950 C952 1.415 . S
C951 C950 1.355 . S
C951 C953 1.419 . S
C952 C950 1.415 . S
C952 C957 1.425 . S
C952 C959 1.409 . S
C953 H945 0.930 . S
C953 C951 1.419 . S
C953 C954 1.362 . S
C954 H946 0.930 . S
C954 C953 1.362 . S
C954 C957 1.409 . S
C955 H947 0.930 . S
C955 C956 1.355 . S
C955 C957 1.415 . S
C956 C955 1.355 . S
C956 C958 1.419 . S
C957 C952 1.425 . S
C957 C954 1.409 . S
C957 C955 1.415 . S
C958 H948 0.930 . S
C958 C956 1.419 . S
C958 C959 1.362 . S
C959 H949 0.930 . S
C959 C952 1.409 . S
C959 C958 1.362 . S
H960 C966 0.930 . S
H961 C969 0.930 1_565 S
H962 C970 0.930 . S
H963 C971 0.930 . S
H964 C974 0.930 . S
H965 C975 0.930 . S
C966 H960 0.930 . S
C966 C967 1.355 . S
C966 C968 1.415 . S
C967 C966 1.355 . S
C967 C969 1.419 . S
C968 C966 1.415 . S
C968 C973 1.425 . S
C968 C975 1.409 . S
C969 H961 0.930 1_545 S
C969 C967 1.419 . S
C969 C970 1.362 . S
C970 H962 0.930 . S
C970 C969 1.362 . S
C970 C973 1.409 . S
C971 H963 0.930 . S
C971 C972 1.355 . S
C971 C973 1.415 . S
C972 C971 1.355 . S
C972 C974 1.419 . S
C973 C968 1.425 . S
C973 C970 1.409 . S
C973 C971 1.415 . S
C974 H964 0.930 . S
C974 C972 1.419 . S
C974 C975 1.362 . S
C975 H965 0.930 . S
C975 C968 1.409 . S
C975 C974 1.362 . S
H976 C982 0.930 . S
H977 C985 0.930 . S
H978 C986 0.930 . S
H979 C987 0.930 . S
H980 C990 0.930 . S
H981 C991 0.930 . S
C982 H976 0.930 . S
C982 C983 1.355 . S
C982 C984 1.415 . S
C983 C982 1.355 . S
C983 C985 1.419 . S
C984 C982 1.415 . S
C984 C989 1.425 . S
C984 C991 1.409 . S
C985 H977 0.930 . S
C985 C983 1.419 . S
C985 C986 1.362 . S
C986 H978 0.930 . S
C986 C985 1.362 . S
C986 C989 1.409 . S
C987 H979 0.930 . S
C987 C988 1.355 . S
C987 C989 1.415 . S
C988 C987 1.355 . S
C988 C990 1.419 . S
C989 C984 1.425 . S
C989 C986 1.409 . S
C989 C987 1.415 . S
C990 H980 0.930 . S
C990 C988 1.419 . S
C990 C991 1.362 . S
C991 H981 0.930 . S
C991 C984 1.409 . S
C991 C990 1.362 . S
H992 C998 0.930 . S
H993 C1001 0.930 . S
H994 C1002 0.930 1_565 S
H995 C1003 0.930 . S
H996 C1006 0.930 . S
H997 C1007 0.930 . S
C998 H992 0.930 . S
C998 C999 1.355 . S
C998 C1000 1.415 . S
C999 C998 1.355 . S
C999 C1001 1.419 1_545 S
C1000 C998 1.415 . S
C1000 C1005 1.425 . S
C1000 C1007 1.409 . S
C1001 H993 0.930 . S
C1001 C999 1.419 1_565 S
C1001 C1002 1.362 1_565 S
C1002 H994 0.930 1_545 S
C1002 C1001 1.362 1_545 S
C1002 C1005 1.409 . S
C1003 H995 0.930 . S
C1003 C1004 1.355 . S
C1003 C1005 1.415 . S
C1004 C1003 1.355 . S
C1004 C1006 1.419 . S
C1005 C1000 1.425 . S
C1005 C1002 1.409 . S
C1005 C1003 1.415 . S
C1006 H996 0.930 . S
C1006 C1004 1.419 . S
C1006 C1007 1.362 . S
C1007 H997 0.930 . S
C1007 C1000 1.409 . S
C1007 C1006 1.362 . S
H1008 C1014 0.930 . S
H1009 C1017 0.930 . S
H1010 C1018 0.930 . S
H1011 C1019 0.930 . S
H1012 C1022 0.930 . S
H1013 C1023 0.930 . S
C1014 H1008 0.930 . S
C1014 C1015 1.355 . S
C1014 C1016 1.415 . S
C1015 C1014 1.355 . S
C1015 C1017 1.419 . S
C1016 C1014 1.415 . S
C1016 C1021 1.425 . S
C1016 C1023 1.409 . S
C1017 H1009 0.930 . S
C1017 C1015 1.419 . S
C1017 C1018 1.362 . S
C1018 H1010 0.930 . S
C1018 C1017 1.362 . S
C1018 C1021 1.409 . S
C1019 H1011 0.930 . S
C1019 C1020 1.355 . S
C1019 C1021 1.415 . S
C1020 C1019 1.355 . S
C1020 C1022 1.419 . S
C1021 C1016 1.425 . S
C1021 C1018 1.409 . S
C1021 C1019 1.415 . S
C1022 H1012 0.930 . S
C1022 C1020 1.419 . S
C1022 C1023 1.362 . S
C1023 H1013 0.930 . S
C1023 C1016 1.409 . S
C1023 C1022 1.362 . S
H1024 C1030 0.930 . S
H1025 C1033 0.930 . S
H1026 C1034 0.930 . S
H1027 C1035 0.930 . S
H1028 C1038 0.930 . S
H1029 C1039 0.930 . S
C1030 H1024 0.930 . S
C1030 C1031 1.355 . S
C1030 C1032 1.415 . S
C1031 C1030 1.355 . S
C1031 C1033 1.419 . S
C1032 C1030 1.415 . S
C1032 C1037 1.425 . S
C1032 C1039 1.409 . S
C1033 H1025 0.930 . S
C1033 C1031 1.419 . S
C1033 C1034 1.362 . S
C1034 H1026 0.930 . S
C1034 C1033 1.362 . S
C1034 C1037 1.409 . S
C1035 H1027 0.930 . S
C1035 C1036 1.355 . S
C1035 C1037 1.415 . S
C1036 C1035 1.355 . S
C1036 C1038 1.419 . S
C1037 C1032 1.425 . S
C1037 C1034 1.409 . S
C1037 C1035 1.415 . S
C1038 H1028 0.930 . S
C1038 C1036 1.419 . S
C1038 C1039 1.362 . S
C1039 H1029 0.930 . S
C1039 C1032 1.409 . S
C1039 C1038 1.362 . S
H1040 C1046 0.930 . S
H1041 C1049 0.930 . S
H1042 C1050 0.930 . S
H1043 C1051 0.930 . S
H1044 C1054 0.930 . S
H1045 C1055 0.930 . S
C1046 H1040 0.930 . S
C1046 C1047 1.355 . S
C1046 C1048 1.415 . S
C1047 C1046 1.355 . S
C1047 C1049 1.419 . S
C1048 C1046 1.415 . S
C1048 C1053 1.425 . S
C1048 C1055 1.409 . S
C1049 H1041 0.930 . S
C1049 C1047 1.419 . S
C1049 C1050 1.362 . S
C1050 H1042 0.930 . S
C1050 C1049 1.362 . S
C1050 C1053 1.409 . S
C1051 H1043 0.930 . S
C1051 C1052 1.355 . S
C1051 C1053 1.415 . S
C1052 C1051 1.355 . S
C1052 C1054 1.419 . S
C1053 C1048 1.425 . S
C1053 C1050 1.409 . S
C1053 C1051 1.415 . S
C1054 H1044 0.930 . S
C1054 C1052 1.419 . S
C1054 C1055 1.362 . S
C1055 H1045 0.930 . S
C1055 C1048 1.409 . S
C1055 C1054 1.362 . S
H1056 C1062 0.930 . S
H1057 C1065 0.930 . S
H1058 C1066 0.930 . S
H1059 C1067 0.930 . S
H1060 C1070 0.930 . S
H1061 C1071 0.930 . S
C1062 H1056 0.930 . S
C1062 C1063 1.355 . S
C1062 C1064 1.415 . S
C1063 C1062 1.355 . S
C1063 C1065 1.419 . S
C1064 C1062 1.415 . S
C1064 C1069 1.425 . S
C1064 C1071 1.409 . S
C1065 H1057 0.930 . S
C1065 C1063 1.419 . S
C1065 C1066 1.362 . S
C1066 H1058 0.930 . S
C1066 C1065 1.362 . S
C1066 C1069 1.409 . S
C1067 H1059 0.930 . S
C1067 C1068 1.355 . S
C1067 C1069 1.415 . S
C1068 C1067 1.355 . S
C1068 C1070 1.419 . S
C1069 C1064 1.425 . S
C1069 C1066 1.409 . S
C1069 C1067 1.415 . S
C1070 H1060 0.930 . S
C1070 C1068 1.419 . S
C1070 C1071 1.362 . S
C1071 H1061 0.930 . S
C1071 C1064 1.409 . S
C1071 C1070 1.362 . S
H1072 C1078 0.930 . S
H1073 C1081 0.930 . S
H1074 C1082 0.930 . S
H1075 C1083 0.930 . S
H1076 C1086 0.930 . S
H1077 C1087 0.930 . S
C1078 H1072 0.930 . S
C1078 C1079 1.355 . S
C1078 C1080 1.415 . S
C1079 C1078 1.355 . S
C1079 C1081 1.419 . S
C1080 C1078 1.415 . S
C1080 C1085 1.425 . S
C1080 C1087 1.409 . S
C1081 H1073 0.930 . S
C1081 C1079 1.419 . S
C1081 C1082 1.362 . S
C1082 H1074 0.930 . S
C1082 C1081 1.362 . S
C1082 C1085 1.409 . S
C1083 H1075 0.930 . S
C1083 C1084 1.355 . S
C1083 C1085 1.415 . S
C1084 C1083 1.355 . S
C1084 C1086 1.419 . S
C1085 C1080 1.425 . S
C1085 C1082 1.409 . S
C1085 C1083 1.415 . S
C1086 H1076 0.930 . S
C1086 C1084 1.419 . S
C1086 C1087 1.362 . S
C1087 H1077 0.930 . S
C1087 C1080 1.409 . S
C1087 C1086 1.362 . S
H1088 C1094 0.930 . S
H1089 C1097 0.930 . S
H1090 C1098 0.930 . S
H1091 C1099 0.930 . S
H1092 C1102 0.930 . S
H1093 C1103 0.930 . S
C1094 H1088 0.930 . S
C1094 C1095 1.355 . S
C1094 C1096 1.415 . S
C1095 C1094 1.355 . S
C1095 C1097 1.419 . S
C1096 C1094 1.415 . S
C1096 C1101 1.425 . S
C1096 C1103 1.409 . S
C1097 H1089 0.930 . S
C1097 C1095 1.419 . S
C1097 C1098 1.362 . S
C1098 H1090 0.930 . S
C1098 C1097 1.362 . S
C1098 C1101 1.409 . S
C1099 H1091 0.930 . S
C1099 C1100 1.355 . S
C1099 C1101 1.415 . S
C1100 C1099 1.355 . S
C1100 C1102 1.419 . S
C1101 C1096 1.425 . S
C1101 C1098 1.409 . S
C1101 C1099 1.415 . S
C1102 H1092 0.930 . S
C1102 C1100 1.419 . S
C1102 C1103 1.362 . S
C1103 H1093 0.930 . S
C1103 C1096 1.409 . S
C1103 C1102 1.362 . S
H1104 C1110 0.930 . S
H1105 C1113 0.930 . S
H1106 C1114 0.922 1_455 S
H1107 C1115 0.930 . S
H1108 C1118 0.930 . S
H1109 C1119 0.930 . S
C1110 H1104 0.930 . S
C1110 C1111 1.355 . S
C1110 C1112 1.415 . S
C1111 C1110 1.355 . S
C1111 C1113 1.419 1_655 S
C1112 C1110 1.415 . S
C1112 C1117 1.425 . S
C1112 C1119 1.409 . S
C1113 H1105 0.930 . S
C1113 C1111 1.419 1_455 S
C1113 C1114 1.357 1_455 S
C1114 H1106 0.922 1_655 S
C1114 C1113 1.357 1_655 S
C1114 C1117 1.423 . S
C1115 H1107 0.930 . S
C1115 C1116 1.355 . S
C1115 C1117 1.415 . S
C1116 C1115 1.355 . S
C1116 C1118 1.419 . S
C1117 C1112 1.425 . S
C1117 C1114 1.423 . S
C1117 C1115 1.415 . S
C1118 H1108 0.930 . S
C1118 C1116 1.419 . S
C1118 C1119 1.362 . S
C1119 H1109 0.930 . S
C1119 C1112 1.409 . S
C1119 C1118 1.362 . S
H1120 C1126 0.930 . S
H1121 C1129 0.930 . S
H1122 C1130 0.930 . S
H1123 C1131 0.930 . S
H1124 C1134 0.930 . S
H1125 C1135 0.930 . S
C1126 H1120 0.930 . S
C1126 C1127 1.355 . S
C1126 C1128 1.415 . S
C1127 C1126 1.355 . S
C1127 C1129 1.419 . S
C1128 C1126 1.415 . S
C1128 C1133 1.425 . S
C1128 C1135 1.409 . S
C1129 H1121 0.930 . S
C1129 C1127 1.419 . S
C1129 C1130 1.362 . S
C1130 H1122 0.930 . S
C1130 C1129 1.362 . S
C1130 C1133 1.409 . S
C1131 H1123 0.930 . S
C1131 C1132 1.355 . S
C1131 C1133 1.415 . S
C1132 C1131 1.355 . S
C1132 C1134 1.419 . S
C1133 C1128 1.425 . S
C1133 C1130 1.409 . S
C1133 C1131 1.415 . S
C1134 H1124 0.930 . S
C1134 C1132 1.419 . S
C1134 C1135 1.362 . S
C1135 H1125 0.930 . S
C1135 C1128 1.409 . S
C1135 C1134 1.362 . S
H1136 C1142 0.930 . S
H1137 C1145 0.930 . S
H1138 C1146 0.930 . S
H1139 C1147 0.930 . S
H1140 C1150 0.930 . S
H1141 C1151 0.930 . S
C1142 H1136 0.930 . S
C1142 C1143 1.355 . S
C1142 C1144 1.415 . S
C1143 C1142 1.355 . S
C1143 C1145 1.419 . S
C1144 C1142 1.415 . S
C1144 C1149 1.425 . S
C1144 C1151 1.409 . S
C1145 H1137 0.930 . S
C1145 C1143 1.419 . S
C1145 C1146 1.362 . S
C1146 H1138 0.930 . S
C1146 C1145 1.362 . S
C1146 C1149 1.409 . S
C1147 H1139 0.930 . S
C1147 C1148 1.355 . S
C1147 C1149 1.415 . S
C1148 C1147 1.355 . S
C1148 C1150 1.419 . S
C1149 C1144 1.425 . S
C1149 C1146 1.409 . S
C1149 C1147 1.415 . S
C1150 H1140 0.930 . S
C1150 C1148 1.419 . S
C1150 C1151 1.362 . S
C1151 H1141 0.930 . S
C1151 C1144 1.409 . S
C1151 C1150 1.362 . S
H1152 C1158 0.930 . S
H1153 C1161 0.930 . S
H1154 C1162 0.930 . S
H1155 C1163 0.930 . S
H1156 C1166 0.930 . S
H1157 C1167 0.930 . S
C1158 H1152 0.930 . S
C1158 C1159 1.355 . S
C1158 C1160 1.415 . S
C1159 C1158 1.355 . S
C1159 C1161 1.419 . S
C1160 C1158 1.415 . S
C1160 C1165 1.425 . S
C1160 C1167 1.409 . S
C1161 H1153 0.930 . S
C1161 C1159 1.419 . S
C1161 C1162 1.362 . S
C1162 H1154 0.930 . S
C1162 C1161 1.362 . S
C1162 C1165 1.409 . S
C1163 H1155 0.930 . S
C1163 C1164 1.355 . S
C1163 C1165 1.415 . S
C1164 C1163 1.355 . S
C1164 C1166 1.419 . S
C1165 C1160 1.425 . S
C1165 C1162 1.409 . S
C1165 C1163 1.415 . S
C1166 H1156 0.930 . S
C1166 C1164 1.419 . S
C1166 C1167 1.362 . S
C1167 H1157 0.930 . S
C1167 C1160 1.409 . S
C1167 C1166 1.362 . S
H1168 C1174 0.930 . S
H1169 C1177 0.930 . S
H1170 C1178 0.930 . S
H1171 C1179 0.930 . S
H1172 C1182 0.930 . S
H1173 C1183 0.930 . S
C1174 H1168 0.930 . S
C1174 C1175 1.355 . S
C1174 C1176 1.415 . S
C1175 C1174 1.355 . S
C1175 C1177 1.419 1_655 S
C1176 C1174 1.415 . S
C1176 C1181 1.425 1_655 S
C1176 C1183 1.409 . S
C1177 H1169 0.930 . S
C1177 C1175 1.419 1_455 S
C1177 C1178 1.362 . S
C1178 H1170 0.930 . S
C1178 C1177 1.362 . S
C1178 C1181 1.409 . S
C1179 H1171 0.930 . S
C1179 C1180 1.355 1_455 S
C1179 C1181 1.415 . S
C1180 C1179 1.355 1_655 S
C1180 C1182 1.419 . S
C1181 C1176 1.425 1_455 S
C1181 C1178 1.409 . S
C1181 C1179 1.415 . S
C1182 H1172 0.930 . S
C1182 C1180 1.419 . S
C1182 C1183 1.362 . S
C1183 H1173 0.930 . S
C1183 C1176 1.409 . S
C1183 C1182 1.362 . S
H1184 C1190 0.930 . S
H1185 C1193 0.930 . S
H1186 C1194 0.930 . S
H1187 C1195 0.930 . S
H1188 C1198 0.930 . S
H1189 C1199 0.930 . S
C1190 H1184 0.930 . S
C1190 C1191 1.355 . S
C1190 C1192 1.415 . S
C1191 C1190 1.355 . S
C1191 C1193 1.419 . S
C1192 C1190 1.415 . S
C1192 C1197 1.425 . S
C1192 C1199 1.409 . S
C1193 H1185 0.930 . S
C1193 C1191 1.419 . S
C1193 C1194 1.362 . S
C1194 H1186 0.930 . S
C1194 C1193 1.362 . S
C1194 C1197 1.409 . S
C1195 H1187 0.930 . S
C1195 C1196 1.355 . S
C1195 C1197 1.415 . S
C1196 C1195 1.355 . S
C1196 C1198 1.419 . S
C1197 C1192 1.425 . S
C1197 C1194 1.409 . S
C1197 C1195 1.415 . S
C1198 H1188 0.930 . S
C1198 C1196 1.419 . S
C1198 C1199 1.362 . S
C1199 H1189 0.930 . S
C1199 C1192 1.409 . S
C1199 C1198 1.362 . S
H1200 C1206 0.930 . S
H1201 C1209 0.930 . S
H1202 C1210 0.930 . S
H1203 C1211 0.930 . S
H1204 C1214 0.930 . S
H1205 C1215 0.930 . S
C1206 H1200 0.930 . S
C1206 C1207 1.355 . S
C1206 C1208 1.415 . S
C1207 C1206 1.355 . S
C1207 C1209 1.419 1_455 S
C1208 C1206 1.415 . S
C1208 C1213 1.425 1_455 S
C1208 C1215 1.409 . S
C1209 H1201 0.930 . S
C1209 C1207 1.419 1_655 S
C1209 C1210 1.362 . S
C1210 H1202 0.930 . S
C1210 C1209 1.362 . S
C1210 C1213 1.409 . S
C1211 H1203 0.930 . S
C1211 C1212 1.355 1_655 S
C1211 C1213 1.415 . S
C1212 C1211 1.355 1_455 S
C1212 C1214 1.419 . S
C1213 C1208 1.425 1_655 S
C1213 C1210 1.409 . S
C1213 C1211 1.415 . S
C1214 H1204 0.930 . S
C1214 C1212 1.419 . S
C1214 C1215 1.362 . S
C1215 H1205 0.930 . S
C1215 C1208 1.409 . S
C1215 C1214 1.362 . S
H1216 C1222 0.930 . S
H1217 C1225 0.930 . S
H1218 C1226 0.930 . S
H1219 C1227 0.930 . S
H1220 C1230 0.930 . S
H1221 C1231 0.930 . S
C1222 H1216 0.930 . S
C1222 C1223 1.355 . S
C1222 C1224 1.415 . S
C1223 C1222 1.355 . S
C1223 C1225 1.419 . S
C1224 C1222 1.415 . S
C1224 C1229 1.425 . S
C1224 C1231 1.409 . S
C1225 H1217 0.930 . S
C1225 C1223 1.419 . S
C1225 C1226 1.362 . S
C1226 H1218 0.930 . S
C1226 C1225 1.362 . S
C1226 C1229 1.409 . S
C1227 H1219 0.930 . S
C1227 C1228 1.355 . S
C1227 C1229 1.415 . S
C1228 C1227 1.355 . S
C1228 C1230 1.419 . S
C1229 C1224 1.425 . S
C1229 C1226 1.409 . S
C1229 C1227 1.415 . S
C1230 H1220 0.930 . S
C1230 C1228 1.419 . S
C1230 C1231 1.362 . S
C1231 H1221 0.930 . S
C1231 C1224 1.409 . S
C1231 C1230 1.362 . S
H1232 C1238 0.930 . S
H1233 C1241 0.930 . S
H1234 C1242 0.930 . S
H1235 C1243 0.930 . S
H1236 C1246 0.930 . S
H1237 C1247 0.930 . S
C1238 H1232 0.930 . S
C1238 C1239 1.355 . S
C1238 C1240 1.415 . S
C1239 C1238 1.355 . S
C1239 C1241 1.419 1_554 S
C1240 C1238 1.415 . S
C1240 C1245 1.425 . S
C1240 C1247 1.409 . S
C1241 H1233 0.930 . S
C1241 C1239 1.419 1_556 S
C1241 C1242 1.362 1_556 S
C1242 H1234 0.930 . S
C1242 C1241 1.362 1_554 S
C1242 C1245 1.409 . S
C1243 H1235 0.930 . S
C1243 C1244 1.355 . S
C1243 C1245 1.415 . S
C1244 C1243 1.355 . S
C1244 C1246 1.419 . S
C1245 C1240 1.425 . S
C1245 C1242 1.409 . S
C1245 C1243 1.415 . S
C1246 H1236 0.930 . S
C1246 C1244 1.419 . S
C1246 C1247 1.362 . S
C1247 H1237 0.930 . S
C1247 C1240 1.409 . S
C1247 C1246 1.362 . S
H1248 C1254 0.930 . S
H1249 C1257 0.930 . S
H1250 C1258 0.930 . S
H1251 C1259 0.930 . S
H1252 C1262 0.930 . S
H1253 C1263 0.930 . S
C1254 H1248 0.930 . S
C1254 C1255 1.355 . S
C1254 C1256 1.415 . S
C1255 C1254 1.355 . S
C1255 C1257 1.419 . S
C1256 C1254 1.415 . S
C1256 C1261 1.425 . S
C1256 C1263 1.409 . S
C1257 H1249 0.930 . S
C1257 C1255 1.419 . S
C1257 C1258 1.362 . S
C1258 H1250 0.930 . S
C1258 C1257 1.362 . S
C1258 C1261 1.409 . S
C1259 H1251 0.930 . S
C1259 C1260 1.355 . S
C1259 C1261 1.415 . S
C1260 C1259 1.355 . S
C1260 C1262 1.419 . S
C1261 C1256 1.425 . S
C1261 C1258 1.409 . S
C1261 C1259 1.415 . S
C1262 H1252 0.930 . S
C1262 C1260 1.419 . S
C1262 C1263 1.362 . S
C1263 H1253 0.930 . S
C1263 C1256 1.409 . S
C1263 C1262 1.362 . S
H1264 C1270 0.930 . S
H1265 C1273 0.930 . S
H1266 C1274 0.930 . S
H1267 C1275 0.930 . S
H1268 C1278 0.930 . S
H1269 C1279 0.930 . S
C1270 H1264 0.930 . S
C1270 C1271 1.355 . S
C1270 C1272 1.415 . S
C1271 C1270 1.355 . S
C1271 C1273 1.419 . S
C1272 C1270 1.415 . S
C1272 C1277 1.425 . S
C1272 C1279 1.409 . S
C1273 H1265 0.930 . S
C1273 C1271 1.419 . S
C1273 C1274 1.362 . S
C1274 H1266 0.930 . S
C1274 C1273 1.362 . S
C1274 C1277 1.409 . S
C1275 H1267 0.930 . S
C1275 C1276 1.355 . S
C1275 C1277 1.415 . S
C1276 C1275 1.355 . S
C1276 C1278 1.419 . S
C1277 C1272 1.425 . S
C1277 C1274 1.409 . S
C1277 C1275 1.415 . S
C1278 H1268 0.930 . S
C1278 C1276 1.419 . S
C1278 C1279 1.362 . S
C1279 H1269 0.930 . S
C1279 C1272 1.409 . S
C1279 C1278 1.362 . S
H1280 C1286 0.930 . S
H1281 C1289 0.930 . S
H1282 C1290 0.930 . S
H1283 C1291 0.930 . S
H1284 C1294 0.930 . S
H1285 C1295 0.930 . S
C1286 H1280 0.930 . S
C1286 C1287 1.355 . S
C1286 C1288 1.415 . S
C1287 C1286 1.355 . S
C1287 C1289 1.419 . S
C1288 C1286 1.415 . S
C1288 C1293 1.425 . S
C1288 C1295 1.409 . S
C1289 H1281 0.930 . S
C1289 C1287 1.419 . S
C1289 C1290 1.362 . S
C1290 H1282 0.930 . S
C1290 C1289 1.362 . S
C1290 C1293 1.409 . S
C1291 H1283 0.930 . S
C1291 C1292 1.355 . S
C1291 C1293 1.415 . S
C1292 C1291 1.355 . S
C1292 C1294 1.419 . S
C1293 C1288 1.425 . S
C1293 C1290 1.409 . S
C1293 C1291 1.415 . S
C1294 H1284 0.930 . S
C1294 C1292 1.419 . S
C1294 C1295 1.362 . S
C1295 H1285 0.930 . S
C1295 C1288 1.409 . S
C1295 C1294 1.362 . S
H1296 C1302 0.930 . S
H1297 C1305 0.930 . S
H1298 C1306 0.930 . S
H1299 C1307 0.930 . S
H1300 C1310 0.930 . S
H1301 C1311 0.930 . S
C1302 H1296 0.930 . S
C1302 C1303 1.355 . S
C1302 C1304 1.415 . S
C1303 C1302 1.355 . S
C1303 C1305 1.419 . S
C1304 C1302 1.415 . S
C1304 C1309 1.425 . S
C1304 C1311 1.409 . S
C1305 H1297 0.930 . S
C1305 C1303 1.419 . S
C1305 C1306 1.362 . S
C1306 H1298 0.930 . S
C1306 C1305 1.362 . S
C1306 C1309 1.409 . S
C1307 H1299 0.930 . S
C1307 C1308 1.355 . S
C1307 C1309 1.415 . S
C1308 C1307 1.355 . S
C1308 C1310 1.419 . S
C1309 C1304 1.425 . S
C1309 C1306 1.409 . S
C1309 C1307 1.415 . S
C1310 H1300 0.930 . S
C1310 C1308 1.419 . S
C1310 C1311 1.362 . S
C1311 H1301 0.930 . S
C1311 C1304 1.409 . S
C1311 C1310 1.362 . S
H1312 C1318 0.930 . S
H1313 C1321 0.930 . S
H1314 C1322 0.930 . S
H1315 C1323 0.930 . S
H1316 C1326 0.930 . S
H1317 C1327 0.930 . S
C1318 H1312 0.930 . S
C1318 C1319 1.355 . S
C1318 C1320 1.415 . S
C1319 C1318 1.355 . S
C1319 C1321 1.419 . S
C1320 C1318 1.415 . S
C1320 C1325 1.425 . S
C1320 C1327 1.409 . S
C1321 H1313 0.930 . S
C1321 C1319 1.419 . S
C1321 C1322 1.362 . S
C1322 H1314 0.930 . S
C1322 C1321 1.362 . S
C1322 C1325 1.409 . S
C1323 H1315 0.930 . S
C1323 C1324 1.355 . S
C1323 C1325 1.415 . S
C1324 C1323 1.355 . S
C1324 C1326 1.419 . S
C1325 C1320 1.425 . S
C1325 C1322 1.409 . S
C1325 C1323 1.415 . S
C1326 H1316 0.930 . S
C1326 C1324 1.419 . S
C1326 C1327 1.362 . S
C1327 H1317 0.930 . S
C1327 C1320 1.409 . S
C1327 C1326 1.362 . S
H1328 C1334 0.930 . S
H1329 C1337 0.930 . S
H1330 C1338 0.930 . S
H1331 C1339 0.930 . S
H1332 C1342 0.930 . S
H1333 C1343 0.930 . S
C1334 H1328 0.930 . S
C1334 C1335 1.355 . S
C1334 C1336 1.415 . S
C1335 C1334 1.355 . S
C1335 C1337 1.419 . S
C1336 C1334 1.415 . S
C1336 C1341 1.425 . S
C1336 C1343 1.409 . S
C1337 H1329 0.930 . S
C1337 C1335 1.419 . S
C1337 C1338 1.362 . S
C1338 H1330 0.930 . S
C1338 C1337 1.362 . S
C1338 C1341 1.409 . S
C1339 H1331 0.930 . S
C1339 C1340 1.355 . S
C1339 C1341 1.415 . S
C1340 C1339 1.355 . S
C1340 C1342 1.419 . S
C1341 C1336 1.425 . S
C1341 C1338 1.409 . S
C1341 C1339 1.415 . S
C1342 H1332 0.930 . S
C1342 C1340 1.419 . S
C1342 C1343 1.362 . S
C1343 H1333 0.930 . S
C1343 C1336 1.409 . S
C1343 C1342 1.362 . S
H1344 C1350 0.930 . S
H1345 C1353 0.930 . S
H1346 C1354 0.930 . S
H1347 C1355 0.930 . S
H1348 C1358 0.930 . S
H1349 C1359 0.930 . S
C1350 H1344 0.930 . S
C1350 C1351 1.355 . S
C1350 C1352 1.415 . S
C1351 C1350 1.355 . S
C1351 C1353 1.419 1_556 S
C1352 C1350 1.415 . S
C1352 C1357 1.425 1_556 S
C1352 C1359 1.409 . S
C1353 H1345 0.930 . S
C1353 C1351 1.419 1_554 S
C1353 C1354 1.362 . S
C1354 H1346 0.930 . S
C1354 C1353 1.362 . S
C1354 C1357 1.409 . S
C1355 H1347 0.930 . S
C1355 C1356 1.355 . S
C1355 C1357 1.415 . S
C1356 C1355 1.355 . S
C1356 C1358 1.419 1_554 S
C1357 C1352 1.425 1_554 S
C1357 C1354 1.409 . S
C1357 C1355 1.415 . S
C1358 H1348 0.930 . S
C1358 C1356 1.419 1_556 S
C1358 C1359 1.362 . S
C1359 H1349 0.930 . S
C1359 C1352 1.409 . S
C1359 C1358 1.362 . S
H1360 C1366 0.930 . S
H1361 C1369 0.930 . S
H1362 C1370 0.930 . S
H1363 C1371 0.930 . S
H1364 C1374 0.930 . S
H1365 C1375 0.930 . S
C1366 H1360 0.930 . S
C1366 C1367 1.355 . S
C1366 C1368 1.415 . S
C1367 C1366 1.355 . S
C1367 C1369 1.419 . S
C1368 C1366 1.415 . S
C1368 C1373 1.425 . S
C1368 C1375 1.409 . S
C1369 H1361 0.930 . S
C1369 C1367 1.419 . S
C1369 C1370 1.362 . S
C1370 H1362 0.930 . S
C1370 C1369 1.362 . S
C1370 C1373 1.409 . S
C1371 H1363 0.930 . S
C1371 C1372 1.355 . S
C1371 C1373 1.415 . S
C1372 C1371 1.355 . S
C1372 C1374 1.419 . S
C1373 C1368 1.425 . S
C1373 C1370 1.409 . S
C1373 C1371 1.415 . S
C1374 H1364 0.930 . S
C1374 C1372 1.419 . S
C1374 C1375 1.362 . S
C1375 H1365 0.930 . S
C1375 C1368 1.409 . S
C1375 C1374 1.362 . S
H1376 C1382 0.930 . S
H1377 C1385 0.930 . S
H1378 C1386 0.930 . S
H1379 C1387 0.930 . S
H1380 C1390 0.930 . S
H1381 C1391 0.930 . S
C1382 H1376 0.930 . S
C1382 C1383 1.355 . S
C1382 C1384 1.415 . S
C1383 C1382 1.355 . S
C1383 C1385 1.419 . S
C1384 C1382 1.415 . S
C1384 C1389 1.425 . S
C1384 C1391 1.409 . S
C1385 H1377 0.930 . S
C1385 C1383 1.419 . S
C1385 C1386 1.362 . S
C1386 H1378 0.930 . S
C1386 C1385 1.362 . S
C1386 C1389 1.409 . S
C1387 H1379 0.930 . S
C1387 C1388 1.355 . S
C1387 C1389 1.415 . S
C1388 C1387 1.355 . S
C1388 C1390 1.419 . S
C1389 C1384 1.425 . S
C1389 C1386 1.409 . S
C1389 C1387 1.415 . S
C1390 H1380 0.930 . S
C1390 C1388 1.419 . S
C1390 C1391 1.362 . S
C1391 H1381 0.930 . S
C1391 C1384 1.409 . S
C1391 C1390 1.362 . S
H1392 C1398 0.930 1_556 S
H1393 C1401 0.929 1_545 S
H1394 C1402 0.930 . S
H1395 C1403 0.930 . S
H1396 C1406 0.930 . S
H1397 C1407 0.930 . S
C1398 H1392 0.930 1_554 S
C1398 C1399 1.355 . S
C1398 C1400 1.415 . S
C1399 C1398 1.355 . S
C1399 C1401 1.419 . S
C1400 C1398 1.415 . S
C1400 C1405 1.425 . S
C1400 C1407 1.409 1_554 S
C1401 H1393 0.929 1_565 S
C1401 C1399 1.419 . S
C1401 C1402 1.362 . S
C1402 H1394 0.930 . S
C1402 C1401 1.362 . S
C1402 C1405 1.409 . S
C1403 H1395 0.930 . S
C1403 C1404 1.356 1_554 S
C1403 C1405 1.415 . S
C1404 C1403 1.356 1_556 S
C1404 C1406 1.418 . S
C1405 C1400 1.425 . S
C1405 C1402 1.409 . S
C1405 C1403 1.415 . S
C1406 H1396 0.930 . S
C1406 C1404 1.418 . S
C1406 C1407 1.362 . S
C1407 H1397 0.930 . S
C1407 C1400 1.409 1_556 S
C1407 C1406 1.362 . S
C652 C210 1.628 . S
C647 C73 1.640 . S
C668 C258 1.319 . S
C663 C82 1.373 . S
C679 C100 1.769 . S
C684 C294 1.618 . S
C700 C330 1.356 . S
C695 C56 1.378 1_655 S
C716 C356 1.349 . S
C711 C134 1.406 . S
C732 C392 1.697 . S
C727 C165 1.694 . S
C743 C147 1.151 . S
C748 C427 1.267 . S
C764 C464 1.837 . S
C759 C125 1.860 . S
C775 C151 1.323 . S
C780 C498 1.312 . S
C796 C546 1.445 . S
C791 C121 1.475 . S
C807 C139 1.675 . S
C812 C499 1.671 . S
C828 C536 1.453 . S
C823 C164 1.454 . S
C839 C95 1.320 . S
C844 C582 1.325 . S
C855 C61 1.553 . S
C860 C571 1.540 . S
C871 C74 1.380 . S
C876 C572 1.369 . S
C887 C86 1.813 . S
C892 C570 1.788 . S
C903 C47 1.356 . S
C908 C318 1.352 . S
C919 C186 1.260 . S
C924 C319 1.282 . S
C940 C222 1.597 . S
C935 C204 1.645 . S
C956 C247 1.833 . S
C951 C112 1.815 . S
C967 C60 1.508 1_545 S
C972 C354 1.513 . S
C988 C462 1.365 . S
C983 C152 1.359 . S
C1004 C355 1.862 . S
C999 C126 1.867 1_545 S
C1020 C428 1.412 . S
C1015 C160 1.396 . S
C1036 C426 1.657 . S
C1031 C190 1.661 . S
C1047 C199 1.391 . S
C1052 C474 1.320 . S
C1063 C113 1.754 . S
C1068 C366 1.656 . S
C1084 C402 1.402 . S
C1079 C173 1.446 . S
C1095 C43 1.391 . S
C1100 C284 1.399 . S
C1116 C320 1.677 . S
C1111 C9 1.686 1_655 S
C1132 C211 1.265 . S
C1127 C17 1.149 . S
C1148 C248 1.850 . S
C1143 C34 1.857 1_455 S
C1159 C21 1.365 . S
C1164 C534 1.362 . S
C1175 C30 1.510 1_556 S
C1180 C510 1.442 . S
C1191 C48 1.675 . S
C1196 C535 1.694 . S
C1207 C8 1.459 1_556 S
C1212 C500 1.458 1_455 S
C1228 C618 1.396 . S
C1223 C108 1.313 . S
C1244 C607 1.540 . S
C1239 C178 1.553 1_554 S
C1260 C608 1.398 . S
C1255 C191 1.395 . S
C1271 C203 1.810 . S
C1276 C606 1.809 . S
C1287 C138 1.356 . S
C1292 C390 1.356 . S
C1308 C391 1.281 . S
C1303 C69 1.235 . S
C1324 C438 1.630 . S
C1319 C87 1.632 . S
C1340 C463 1.822 . S
C1335 C99 1.818 . S
C1351 C177 1.508 . S
C1356 C282 1.512 . S
C1372 C246 1.407 . S
C1367 C22 1.404 . S
C1383 C35 1.861 . S
C1388 C283 1.865 . S
C1404 C212 1.411 . S
C1399 C4 1.398 . S
