# Generated by pormake.
# Topology zzz, (3,6)-cn, num edge types: 1
# Building blocks:
#     Node 0, Type 0, BuildingBlock: ESEHIV_clean_linker_0, # of connection points: 3
#     Node 1, Type 0, BuildingBlock: ESEHIV_clean_linker_0, # of connection points: 3
#     Node 2, Type 0, BuildingBlock: ESEHIV_clean_linker_0, # of connection points: 3
#     Node 3, Type 0, BuildingBlock: ESEHIV_clean_linker_0, # of connection points: 3
#     Node 4, Type 0, BuildingBlock: ESEHIV_clean_linker_0, # of connection points: 3
#     Node 5, Type 0, BuildingBlock: ESEHIV_clean_linker_0, # of connection points: 3
#     Node 6, Type 0, BuildingBlock: ESEHIV_clean_linker_0, # of connection points: 3
#     Node 7, Type 0, BuildingBlock: ESEHIV_clean_linker_0, # of connection points: 3
#     Node 8, Type 1, BuildingBlock: BETDAH_clean_sbu_0, # of connection points: 6
#     Node 9, Type 1, BuildingBlock: BETDAH_clean_sbu_0, # of connection points: 6
#     Node 10, Type 1, BuildingBlock: BETDAH_clean_sbu_0, # of connection points: 6
#     Node 11, Type 1, BuildingBlock: BETDAH_clean_sbu_0, # of connection points: 6
#     Edge 12, Type (0, 1), BuildingBlock: CIFDUS_clean_linker_0, # of connection points: 2
#     Edge 13, Type (0, 1), BuildingBlock: CIFDUS_clean_linker_0, # of connection points: 2
#     Edge 14, Type (0, 1), BuildingBlock: CIFDUS_clean_linker_0, # of connection points: 2
#     Edge 15, Type (0, 1), BuildingBlock: CIFDUS_clean_linker_0, # of connection points: 2
#     Edge 16, Type (0, 1), BuildingBlock: CIFDUS_clean_linker_0, # of connection points: 2
#     Edge 17, Type (0, 1), BuildingBlock: CIFDUS_clean_linker_0, # of connection points: 2
#     Edge 18, Type (0, 1), BuildingBlock: CIFDUS_clean_linker_0, # of connection points: 2
#     Edge 19, Type (0, 1), BuildingBlock: CIFDUS_clean_linker_0, # of connection points: 2
#     Edge 20, Type (0, 1), BuildingBlock: CIFDUS_clean_linker_0, # of connection points: 2
#     Edge 21, Type (0, 1), BuildingBlock: CIFDUS_clean_linker_0, # of connection points: 2
#     Edge 22, Type (0, 1), BuildingBlock: CIFDUS_clean_linker_0, # of connection points: 2
#     Edge 23, Type (0, 1), BuildingBlock: CIFDUS_clean_linker_0, # of connection points: 2
#     Edge 24, Type (0, 1), BuildingBlock: CIFDUS_clean_linker_0, # of connection points: 2
#     Edge 25, Type (0, 1), BuildingBlock: CIFDUS_clean_linker_0, # of connection points: 2
#     Edge 26, Type (0, 1), BuildingBlock: CIFDUS_clean_linker_0, # of connection points: 2
#     Edge 27, Type (0, 1), BuildingBlock: CIFDUS_clean_linker_0, # of connection points: 2
#     Edge 28, Type (0, 1), BuildingBlock: CIFDUS_clean_linker_0, # of connection points: 2
#     Edge 29, Type (0, 1), BuildingBlock: CIFDUS_clean_linker_0, # of connection points: 2
#     Edge 30, Type (0, 1), BuildingBlock: CIFDUS_clean_linker_0, # of connection points: 2
#     Edge 31, Type (0, 1), BuildingBlock: CIFDUS_clean_linker_0, # of connection points: 2
#     Edge 32, Type (0, 1), BuildingBlock: CIFDUS_clean_linker_0, # of connection points: 2
#     Edge 33, Type (0, 1), BuildingBlock: CIFDUS_clean_linker_0, # of connection points: 2
#     Edge 34, Type (0, 1), BuildingBlock: CIFDUS_clean_linker_0, # of connection points: 2
#     Edge 35, Type (0, 1), BuildingBlock: CIFDUS_clean_linker_0, # of connection points: 2
# Relax obj value: 0.548
# Max RMSD: 0.259
# Mean RMSD: 0.255
data_MOF--net-zzz--node1-BETDAH_clean_sbu_0--node2-ESEHIV_clean_linker_0--edge1-CIFDUS_clean_linker_0
_symmetry_space_group_name_H-M    P1
_symmetry_Int_Tables_number       1
_symmetry_cell_setting            triclinic
loop_
_symmetry_equiv_pos_as_xyz
'x, y, z'
_cell_length_a     39.601168
_cell_length_b     39.582594
_cell_length_c     12.499854
_cell_angle_alpha  89.69778
_cell_angle_beta   90.124399
_cell_angle_gamma 90.152179
loop_
_atom_site_label
_atom_site_type_symbol
_atom_site_fract_x
_atom_site_fract_y
_atom_site_fract_z
_atom_type_partial_charge
H0 H 0.79053 0.45435 0.39884 0.0
H1 H 0.70372 0.45311 0.1941 0.0
H2 H 0.72604 0.54152 0.38347 0.0
C3 C 0.76746 0.46619 0.3706 0.0
C4 C 0.76021 0.49908 0.40398 0.0
C5 C 0.74759 0.44979 0.29385 0.0
C6 C 0.71854 0.46575 0.25507 0.0
C7 C 0.70995 0.49873 0.28656 0.0
C8 C 0.7315 0.51578 0.36041 0.0
H9 H 0.08198 0.80546 0.36741 0.0
H10 H 0.07106 0.7128 0.19451 0.0
H11 H 0.98837 0.75039 0.38406 0.0
C12 C 0.06743 0.78298 0.3489 0.0
C13 C 0.03453 0.78023 0.38934 0.0
C14 C 0.08056 0.75915 0.27737 0.0
C15 C 0.06111 0.7308 0.25143 0.0
C16 C 0.02784 0.72709 0.28857 0.0
C17 C 0.01435 0.75219 0.35775 0.0
H18 H 0.73048 0.9457 0.44196 0.0
H19 H 0.81669 0.93701 0.2365 0.0
H20 H 0.78288 0.03489 0.33955 0.0
C21 C 0.7523 0.95686 0.40314 0.0
C22 C 0.7549 0.9921 0.40388 0.0
C23 C 0.7721 0.93717 0.33418 0.0
C24 C 0.80081 0.95214 0.28803 0.0
C25 C 0.80567 0.98737 0.29089 0.0
C26 C 0.78142 1.00761 0.3448 0.0
H27 H 0.43412 0.73235 0.32967 0.0
H28 H 0.52204 0.79631 0.34829 0.0
H29 H 0.43864 0.82335 0.14276 0.0
C30 C 0.44668 0.75596 0.31022 0.0
C31 C 0.43252 0.77727 0.23194 0.0
C32 C 0.47871 0.76229 0.35448 0.0
C33 C 0.49674 0.7915 0.31898 0.0
C34 C 0.48175 0.81415 0.24387 0.0
C35 C 0.44957 0.80686 0.20315 0.0
H36 H 0.22782 0.591 0.1217 0.0
H37 H 0.31942 0.58689 0.30497 0.0
H38 H 0.28746 0.50064 0.12018 0.0
C39 C 0.2508 0.57811 0.14512 0.0
C40 C 0.25577 0.5453 0.10726 0.0
C41 C 0.27311 0.59318 0.21823 0.0
C42 C 0.30203 0.57531 0.24911 0.0
C43 C 0.30762 0.5418 0.2166 0.0
C44 C 0.28396 0.52651 0.14546 0.0
H45 H 0.03062 0.22627 0.34097 0.0
H46 H 0.02957 0.32691 0.45899 0.0
H47 H 0.0239 0.31026 0.11846 0.0
C48 C 0.03059 0.25311 0.32351 0.0
C49 C 0.02798 0.26464 0.21679 0.0
C50 C 0.0302 0.27549 0.40972 0.0
C51 C 0.03087 0.31003 0.39088 0.0
C52 C 0.02916 0.3232 0.28697 0.0
C53 C 0.02713 0.3004 0.19876 0.0
H54 H 0.28822 0.95615 0.12929 0.0
H55 H 0.1977 0.95692 0.31737 0.0
H56 H 0.23081 0.04766 0.15517 0.0
C57 C 0.26544 0.96885 0.15505 0.0
C58 C 0.26154 1.00301 0.12782 0.0
C59 C 0.24337 0.95231 0.22607 0.0
C60 C 0.21485 0.96957 0.26258 0.0
C61 C 0.20971 1.00381 0.23738 0.0
C62 C 0.23367 0.02092 0.17148 0.0
H63 H 0.58361 0.30566 0.15014 0.0
H64 H 0.49487 0.24253 0.1608 0.0
H65 H 0.58217 0.2183 0.35371 0.0
C66 C 0.57111 0.28265 0.17633 0.0
C67 C 0.58687 0.26238 0.25392 0.0
C68 C 0.53803 0.27628 0.14133 0.0
C69 C 0.52069 0.24766 0.18448 0.0
C70 C 0.53715 0.2259 0.25938 0.0
C71 C 0.57006 0.23379 0.29296 0.0
Ho72 Ho 0.03901 1.01298 0.8574 0.0
Ho73 Ho 0.99264 0.03721 0.71258 0.0
C74 C 0.01406 0.96203 0.66968 0.0
C75 C 0.07431 0.98391 1.00618 0.0
C76 C 0.10072 0.95878 0.02503 0.0
C77 C 0.10593 0.94771 0.12992 0.0
C78 C 0.12955 0.92273 0.15205 0.0
C79 C 0.14786 0.90744 0.06892 0.0
C80 C 0.14363 0.91969 0.96371 0.0
C81 C 0.12026 0.9454 0.9419 0.0
C82 C 0.07187 0.04076 0.68499 0.0
C83 C 0.01806 0.0892 0.89056 0.0
C84 C 0.95192 0.07085 0.59225 0.0
C85 C 0.93127 0.09902 0.62941 0.0
C86 C 0.91986 0.12337 0.55677 0.0
C87 C 0.91298 0.15596 0.59261 0.0
C88 C 0.91908 0.16455 0.70028 0.0
C89 C 0.92469 0.13867 0.77516 0.0
C90 C 0.93062 0.10588 0.73972 0.0
C91 C 0.96169 1.00993 0.88954 0.0
O92 O 0.02502 0.9637 0.7699 0.0
O93 O 1.00449 0.99011 0.62139 0.0
O94 O 0.08344 1.01164 0.95761 0.0
O95 O 0.04493 0.97275 0.97408 0.0
O96 O 0.07885 0.04597 0.78444 0.0
O97 O 0.04596 0.0219 0.68032 0.0
O98 O 1.00986 0.08695 0.78865 0.0
O99 O 0.02436 0.06094 0.94305 0.0
O100 O 0.94421 0.0415 0.63292 0.0
O101 O 0.98439 0.07684 0.59569 0.0
O102 O 0.95285 1.00461 0.79183 0.0
O103 O 0.98707 0.02919 0.8892 0.0
H104 H 0.09096 0.95773 0.19484 0.0
H105 H 0.13132 0.91357 0.23367 0.0
H106 H 0.15707 0.9082 0.89794 0.0
H107 H 0.11653 0.95391 0.86021 0.0
H108 H 0.92006 0.1184 0.47161 0.0
H109 H 0.90865 0.17551 0.53314 0.0
H110 H 0.92962 0.14468 0.85824 0.0
H111 H 0.93906 0.0871 0.79718 0.0
Ho112 Ho 0.51592 0.03507 0.84471 0.0
Ho113 Ho 0.4989 1.00121 0.6516 0.0
C114 C 0.57507 0.01717 0.67876 0.0
C115 C 0.54641 0.04569 0.02293 0.0
C116 C 0.57456 0.02475 0.06451 0.0
C117 C 0.56827 0.99219 0.1063 0.0
C118 C 0.59439 0.96871 0.11667 0.0
C119 C 0.62748 0.97752 0.08749 0.0
C120 C 0.63418 1.01103 0.05526 0.0
C121 C 0.60804 0.03432 0.04359 0.0
C122 C 0.4988 0.08023 0.68736 0.0
C123 C 0.43752 0.02147 0.81762 0.0
C124 C 0.4758 0.97748 0.47345 0.0
C125 C 0.45186 0.95081 0.44386 0.0
C126 C 0.43865 0.95041 0.34025 0.0
C127 C 0.41455 0.92636 0.31173 0.0
C128 C 0.40266 0.90264 0.38725 0.0
C129 C 0.41689 0.90236 0.49042 0.0
C130 C 0.44146 0.92625 0.51845 0.0
C131 C 0.51681 0.95724 0.81182 0.0
O132 O 0.56612 0.01544 0.78044 0.0
O133 O 0.55103 0.01903 0.60624 0.0
O134 O 0.55292 0.06327 0.93646 0.0
O135 O 0.51713 0.03058 0.01722 0.0
O136 O 0.49171 0.08339 0.7882 0.0
O137 O 0.51629 0.05379 0.67512 0.0
O138 O 0.44628 1.00988 0.722 0.0
O139 O 0.46075 0.03232 0.88491 0.0
O140 O 0.50364 0.96712 0.51857 0.0
O141 O 0.46303 1.00393 0.52069 0.0
O142 O 0.52537 0.95443 0.71271 0.0
O143 O 0.49821 0.98289 0.82064 0.0
H144 H 0.54287 0.98417 0.1257 0.0
H145 H 0.58838 0.94334 0.14345 0.0
H146 H 0.65964 0.01918 0.03669 0.0
H147 H 0.61385 0.05929 1.01268 0.0
H148 H 0.44633 0.96928 0.28201 0.0
H149 H 0.40355 0.92793 0.23244 0.0
H150 H 0.4079 0.88472 0.55053 0.0
H151 H 0.45149 0.9263 0.59918 0.0
Ho152 Ho 0.47912 0.52193 0.81882 0.0
Ho153 Ho 0.53655 0.51701 0.68498 0.0
C154 C 0.50399 0.58986 0.68758 0.0
C155 C 0.43477 0.53852 0.96023 0.0
C156 C 0.41186 0.56686 0.98162 0.0
C157 C 0.41546 0.58372 0.07882 0.0
C158 C 0.39535 0.61138 0.10218 0.0
C159 C 0.37113 0.62296 0.02856 0.0
C160 C 0.36735 0.60623 0.93049 0.0
C161 C 0.38743 0.57805 0.9074 0.0
C162 C 0.46076 0.50634 0.61434 0.0
C163 C 0.5109 0.44866 0.81257 0.0
C164 C 0.58247 0.50004 0.54949 0.0
C165 C 0.6067 0.47217 0.54481 0.0
C166 C 0.62039 0.45776 0.63825 0.0
C167 C 0.63806 0.42725 0.63308 0.0
C168 C 0.64194 0.41064 0.53461 0.0
C169 C 0.63042 0.42683 0.44068 0.0
C170 C 0.61274 0.45711 0.44615 0.0
C171 C 0.55468 0.53167 0.89054 0.0
O172 O 0.48711 0.57761 0.77111 0.0
O173 O 0.52309 0.56952 0.63095 0.0
O174 O 0.42794 0.51931 0.87841 0.0
O175 O 0.467 0.54519 0.96958 0.0
O176 O 0.44866 0.49204 0.69943 0.0
O177 O 0.48317 0.52743 0.64257 0.0
O178 O 0.52829 0.46124 0.73064 0.0
O179 O 0.49156 0.4688 0.86914 0.0
O180 O 0.58736 0.52236 0.62441 0.0
O181 O 0.55079 0.49108 0.54034 0.0
O182 O 0.56653 0.54664 0.80635 0.0
O183 O 0.53237 0.51073 0.8608 0.0
H184 H 0.43444 0.57582 0.13612 0.0
H185 H 0.39971 0.62458 0.17674 0.0
H186 H 0.3496 0.61546 0.87119 0.0
H187 H 0.38447 0.56566 0.83089 0.0
H188 H 0.61569 0.46895 0.71572 0.0
H189 H 0.64659 0.41553 0.70678 0.0
H190 H 0.63208 0.41466 0.36349 0.0
H191 H 0.60164 0.46757 0.37405 0.0
Ho192 Ho 0.99482 0.50236 0.81507 0.0
Ho193 Ho 0.01576 0.5607 0.70128 0.0
C194 C 0.93895 0.53816 0.67307 0.0
C195 C 0.98006 0.45378 0.94587 0.0
C196 C 0.95342 0.4282 0.95563 0.0
C197 C 0.9357 0.41643 0.86586 0.0
C198 C 0.9055 0.39847 0.87918 0.0
C199 C 0.89224 0.39287 0.98236 0.0
C200 C 0.91224 0.40172 0.07154 0.0
C201 C 0.94246 0.41925 0.05799 0.0
C202 C 1.00557 0.48789 0.60429 0.0
C203 C 0.0736 0.52392 0.8396 0.0
C204 C 0.03729 0.61187 0.58976 0.0
C205 C 0.06839 0.62777 0.55215 0.0
C206 C 0.09938 0.61144 0.5645 0.0
C207 C 0.12883 0.62697 0.52832 0.0
C208 C 0.12779 0.65917 0.47951 0.0
C209 C 0.09669 0.67583 0.47002 0.0
C210 C 0.06716 0.66025 0.50675 0.0
C211 C 0.98783 0.57597 0.89603 0.0
O212 O 0.94336 0.52294 0.76654 0.0
O213 O 0.96553 0.55045 0.62251 0.0
O214 O 1.00127 0.45051 0.86671 0.0
O215 O 0.96988 0.48494 0.95835 0.0
O216 O 0.97978 0.47833 0.65987 0.0
O217 O 0.02436 0.50628 0.66279 0.0
O218 O 0.06794 0.54709 0.76497 0.0
O219 O 0.04869 0.50448 0.87384 0.0
O220 O 0.03303 0.6123 0.69293 0.0
O221 O 0.02894 0.58282 0.54771 0.0
O222 O 0.9787 0.58913 0.80574 0.0
O223 O 1.00858 0.55283 0.87543 0.0
H224 H 0.94395 0.42301 0.78582 0.0
H225 H 0.89129 0.39138 0.80866 0.0
H226 H 0.90318 0.39839 0.15253 0.0
H227 H 0.95584 0.42833 0.12783 0.0
H228 H 0.10072 0.58651 0.6004 0.0
H229 H 0.15225 0.61301 0.53446 0.0
H230 H 0.09522 0.70053 0.4328 0.0
H231 H 0.04329 0.67334 0.49832 0.0
H232 H 0.20941 0.03732 0.42675 0.0
H233 H 0.14408 1.00476 0.17252 0.0
H234 H 0.09432 0.01398 0.28613 0.0
H235 H 0.07006 0.0246 0.4679 0.0
H236 H 0.13671 0.06046 0.71657 0.0
H237 H 0.18463 0.05678 0.5964 0.0
C238 C 0.18419 0.03351 0.39488 0.0
C239 C 0.18044 0.02055 0.29081 0.0
C240 C 0.15577 0.03863 0.4613 0.0
C241 C 0.14757 0.01488 0.252 0.0
C242 C 0.11916 0.01983 0.31754 0.0
C243 C 0.09497 0.03209 0.49517 0.0
C244 C 0.09949 0.04225 0.60262 0.0
C245 C 0.12296 0.03054 0.42406 0.0
C246 C 0.13213 0.05216 0.63538 0.0
C247 C 0.15981 0.0501 0.56638 0.0
H248 H 0.50291 0.22217 0.44772 0.0
H249 H 0.54002 0.16082 0.19071 0.0
H250 H 0.53043 0.1096 0.29789 0.0
H251 H 0.5172 0.08259 0.47376 0.0
H252 H 0.47965 0.14478 0.72939 0.0
H253 H 0.48355 0.19472 0.615 0.0
C254 C 0.50759 0.19747 0.41372 0.0
C255 C 0.52127 0.19537 0.30987 0.0
C256 C 0.50269 0.1681 0.47714 0.0
C257 C 0.5285 0.16316 0.26883 0.0
C258 C 0.5235 0.13385 0.33102 0.0
C259 C 0.50951 0.10701 0.50396 0.0
C260 C 0.49851 0.10972 0.61117 0.0
C261 C 0.51153 0.13601 0.43669 0.0
C262 C 0.48844 0.1417 0.64804 0.0
C263 C 0.49064 0.17045 0.58237 0.0
H264 H 0.37177 0.56435 0.23842 0.0
H265 H 0.30846 0.4798 0.31964 0.0
H266 H 0.35191 0.45908 0.44441 0.0
H267 H 0.40505 0.46975 0.54812 0.0
H268 H 0.46715 0.55551 0.46288 0.0
H269 H 0.42707 0.57129 0.32382 0.0
C270 C 0.36801 0.54072 0.28007 0.0
C271 C 0.33689 0.52366 0.26813 0.0
C272 C 0.39275 0.52959 0.35319 0.0
C273 C 0.3322 0.49332 0.32537 0.0
C274 C 0.35695 0.48173 0.39805 0.0
C275 C 0.41022 0.49139 0.49716 0.0
C276 C 0.43921 0.51151 0.51703 0.0
C277 C 0.38691 0.50031 0.41536 0.0
C278 C 0.44532 0.53947 0.44998 0.0
C279 C 0.42232 0.54853 0.36982 0.0
H280 H 0.07386 0.37334 0.33477 0.0
H281 H 0.97034 0.35579 0.2449 0.0
H282 H 0.95387 0.40889 0.32891 0.0
H283 H 0.96729 0.45405 0.45883 0.0
H284 H 0.07079 0.47136 0.55114 0.0
H285 H 0.08895 0.42526 0.4346 0.0
C286 C 0.04803 0.38216 0.32799 0.0
C287 C 0.02344 0.36053 0.28222 0.0
C288 C 0.03857 0.41233 0.3802 0.0
C289 C 0.98991 0.37201 0.27713 0.0
C290 C 0.98037 0.40213 0.32761 0.0
C291 C 0.99395 0.44835 0.45112 0.0
C292 C 0.0176 0.46603 0.51483 0.0
C293 C 1.00419 0.42157 0.38412 0.0
C294 C 0.05203 0.45833 0.50339 0.0
C295 C 0.0624 0.43175 0.43699 0.0
H296 H 0.87384 0.97694 0.30162 0.0
H297 H 0.79754 0.02765 0.11511 0.0
H298 H 0.83898 0.03941 0.97415 0.0
H299 H 0.89602 0.03076 0.89647 0.0
H300 H 0.97332 0.98344 0.08771 0.0
H301 H 0.93276 0.97486 0.23378 0.0
C302 C 0.86657 0.99141 0.23139 0.0
C303 C 0.8326 1.00174 0.21966 0.0
C304 C 0.89068 0.99809 0.15046 0.0
C305 C 0.82352 0.02002 0.12736 0.0
C306 C 0.84718 0.02635 0.046 0.0
C307 C 0.90396 0.01874 0.97049 0.0
C308 C 0.93753 1.00715 0.98061 0.0
C309 C 0.88063 0.01476 0.05536 0.0
C310 C 0.94764 0.99229 0.07767 0.0
C311 C 0.9244 0.9874 0.16118 0.0
H312 H 0.5176 0.81715 0.0597 0.0
H313 H 0.48022 0.87921 0.31471 0.0
H314 H 0.48974 0.93008 0.20504 0.0
H315 H 0.49908 0.95577 0.02542 0.0
H316 H 0.5382 0.89327 0.77316 0.0
H317 H 0.53638 0.844 0.89101 0.0
C318 C 0.51279 0.84195 0.09285 0.0
C319 C 0.49891 0.84434 0.19635 0.0
C320 C 0.51701 0.871 0.0278 0.0
C321 C 0.49171 0.87664 0.2366 0.0
C322 C 0.49636 0.90568 0.17294 0.0
C323 C 0.50787 0.93152 0.99706 0.0
C324 C 0.51845 0.92838 0.88975 0.0
C325 C 0.5075 0.90306 0.06663 0.0
C326 C 0.52965 0.8966 0.85467 0.0
C327 C 0.5287 0.86827 0.92231 0.0
H328 H 0.64802 0.47107 0.25277 0.0
H329 H 0.70534 0.56153 0.19045 0.0
H330 H 0.66098 0.5814 0.06784 0.0
H331 H 0.60858 0.56958 0.96246 0.0
H332 H 0.55116 0.47939 0.03305 0.0
H333 H 0.59241 0.4632 0.16895 0.0
C334 C 0.65031 0.4957 0.21546 0.0
C335 C 0.68004 0.5148 0.23213 0.0
C336 C 0.62473 0.5068 0.14499 0.0
C337 C 0.68273 0.5464 0.18079 0.0
C338 C 0.65743 0.55759 0.10956 0.0
C339 C 0.60475 0.54674 1.00917 0.0
C340 C 0.57675 0.52561 0.98626 0.0
C341 C 0.62871 0.53754 0.08861 0.0
C342 C 0.57227 0.49617 0.04819 0.0
C343 C 0.59601 0.48679 0.12599 0.0
H344 H 0.04086 0.65953 0.29034 0.0
H345 H 0.97097 0.73297 0.1654 0.0
H346 H 0.94946 0.69133 0.03737 0.0
H347 H 0.95684 0.63653 0.94296 0.0
H348 H 0.02681 0.5634 0.07166 0.0
H349 H 0.0415 0.60199 0.21616 0.0
C350 C 0.01996 0.66602 0.23813 0.0
C351 C 1.00736 0.69938 0.23863 0.0
C352 C 1.00818 0.64205 0.16333 0.0
C353 C 0.98074 0.70745 0.16847 0.0
C354 C 0.96879 0.68369 0.09393 0.0
C355 C 0.97474 0.62873 1.00397 0.0
C356 C 0.99098 0.59707 0.99493 0.0
C357 C 0.98324 0.65129 0.08775 0.0
C358 C 0.014 0.58752 0.07551 0.0
C359 C 0.02255 0.6097 0.15834 0.0
H360 H 0.97294 0.29102 0.50925 0.0
H361 H 0.06294 0.23092 0.542 0.0
H362 H 0.03619 0.19766 0.68437 0.0
H363 H 0.98303 0.17574 0.75175 0.0
H364 H 0.89008 0.22728 0.67963 0.0
H365 H 0.92186 0.27521 0.60694 0.0
C366 C 0.98708 0.27154 0.55109 0.0
C367 C 0.01959 0.26299 0.51558 0.0
C368 C 0.97057 0.25098 0.62582 0.0
C369 C 0.0378 0.23758 0.56839 0.0
C370 C 0.02242 0.21859 0.64918 0.0
C371 C 0.96986 0.19835 0.72584 0.0
C372 C 0.9344 0.19795 0.71886 0.0
C373 C 0.98809 0.22353 0.67243 0.0
C374 C 0.91739 0.22714 0.68499 0.0
C375 C 0.9356 0.25413 0.64135 0.0
H376 H 0.27452 0.89686 0.14093 0.0
H377 H 0.24079 0.93826 0.44044 0.0
H378 H 0.28744 0.91151 0.53307 0.0
H379 H 0.34743 0.89927 0.51267 0.0
H380 H 0.3856 0.86639 0.20806 0.0
H381 H 0.32841 0.86625 0.13456 0.0
C382 C 0.27664 0.8987 0.22726 0.0
C383 C 0.2557 0.92144 0.28228 0.0
C384 C 0.30546 0.88585 0.27861 0.0
C385 C 0.25728 0.92203 0.39477 0.0
C386 C 0.28447 0.90714 0.44802 0.0
C387 C 0.34307 0.89021 0.43203 0.0
C388 C 0.37068 0.88452 0.36406 0.0
C389 C 0.31049 0.89245 0.3886 0.0
C390 C 0.36465 0.87205 0.2606 0.0
C391 C 0.33196 0.87229 0.21831 0.0
H392 H 0.59544 0.26884 0.46673 0.0
H393 H 0.64513 0.28781 0.16587 0.0
H394 H 0.67888 0.33252 0.24788 0.0
H395 H 0.67872 0.37677 0.38471 0.0
H396 H 0.62145 0.3614 0.67433 0.0
H397 H 0.60831 0.30409 0.62103 0.0
C398 C 0.61491 0.28151 0.42045 0.0
C399 C 0.61701 0.276 0.3097 0.0
C400 C 0.63259 0.30849 0.46647 0.0
C401 C 0.64256 0.29233 0.25087 0.0
C402 C 0.66163 0.31808 0.2976 0.0
C403 C 0.66441 0.36037 0.43781 0.0
C404 C 0.64963 0.37394 0.53039 0.0
C405 C 0.65453 0.32826 0.40245 0.0
C406 C 0.63256 0.35206 0.60119 0.0
C407 C 0.6245 0.31925 0.56987 0.0
H408 H 0.23547 0.64707 0.14542 0.0
H409 H 0.28648 0.60984 0.42847 0.0
H410 H 0.24954 0.64249 0.54006 0.0
H411 H 0.19135 0.66128 0.55879 0.0
H412 H 0.13306 0.68568 0.27754 0.0
H413 H 0.18306 0.67927 0.16612 0.0
C414 C 0.23884 0.64645 0.23152 0.0
C415 C 0.26231 0.62396 0.27777 0.0
C416 C 0.21507 0.66248 0.29676 0.0
C417 C 0.26812 0.6258 0.38897 0.0
C418 C 0.24652 0.64427 0.45398 0.0
C419 C 0.19003 0.66644 0.47351 0.0
C420 C 0.15846 0.67213 0.42556 0.0
C421 C 0.21798 0.65958 0.40915 0.0
C422 C 0.157 0.68032 0.31606 0.0
C423 C 0.18556 0.67618 0.25199 0.0
H424 H 0.14051 0.78714 0.34201 0.0
H425 H 0.08697 0.75344 0.06102 0.0
H426 H 0.11806 0.79327 0.95124 0.0
H427 H 0.14085 0.85046 0.95261 0.0
H428 H 0.18914 0.88863 0.23656 0.0
H429 H 0.18113 0.83426 0.32568 0.0
C430 C 0.13679 0.78757 0.25599 0.0
C431 C 0.11021 0.76872 0.2109 0.0
C432 C 0.15326 0.81222 0.19391 0.0
C433 C 0.10662 0.76826 0.09884 0.0
C434 C 0.12417 0.79148 0.03565 0.0
C435 C 0.15147 0.84637 0.03169 0.0
C436 C 0.16349 0.87404 0.09073 0.0
C437 C 0.14473 0.81578 0.0845 0.0
C438 C 0.17842 0.86794 0.19126 0.0
C439 C 0.17336 0.83696 0.2429 0.0
H440 H 0.77103 0.92246 0.11933 0.0
H441 H 0.73193 0.88395 0.41538 0.0
H442 H 0.67431 0.88964 0.34815 0.0
H443 H 0.6385 0.92819 0.23852 0.0
H444 H 0.67902 0.96965 0.94528 0.0
H445 H 0.73275 0.94184 0.97953 0.0
C446 C 0.75002 0.91386 0.16798 0.0
C447 C 0.75479 0.9085 0.27845 0.0
C448 C 0.71718 0.92026 0.1312 0.0
C449 C 0.72832 0.89202 0.3332 0.0
C450 C 0.69516 0.89628 0.29605 0.0
C451 C 0.65855 0.93012 0.1799 0.0
C452 C 0.65546 0.95259 0.09264 0.0
C453 C 0.68958 0.91421 0.20036 0.0
C454 C 0.68147 0.954 0.01618 0.0
C455 C 0.71211 0.93777 0.03497 0.0
H456 H 0.37467 0.7452 0.29488 0.0
H457 H 0.42833 0.77926 0.01417 0.0
H458 H 0.3998 0.73715 0.90651 0.0
H459 H 0.37806 0.67929 0.91062 0.0
H460 H 0.33173 0.64082 0.19739 0.0
H461 H 0.33723 0.69581 0.28216 0.0
C462 C 0.379 0.74422 0.20927 0.0
C463 C 0.40466 0.76422 0.16381 0.0
C464 C 0.3641 0.71839 0.14886 0.0
C465 C 0.4092 0.76373 0.05214 0.0
C466 C 0.39314 0.73926 0.99028 0.0
C467 C 0.36729 0.68364 0.98913 0.0
C468 C 0.35553 0.65605 0.04933 0.0
C469 C 0.37317 0.71456 0.04011 0.0
C470 C 0.34122 0.66178 0.15038 0.0
C471 C 0.34506 0.6931 0.1996 0.0
H472 H 0.75177 0.44074 0.08065 0.0
H473 H 0.77664 0.39293 0.38124 0.0
H474 H 0.82018 0.35948 0.2931 0.0
H475 H 0.86102 0.35806 0.14558 0.0
H476 H 0.83957 0.41385 0.85534 0.0
H477 H 0.78395 0.42743 0.92093 0.0
C478 C 0.76551 0.42181 0.12613 0.0
C479 C 0.76187 0.42012 0.23787 0.0
C480 C 0.79167 0.4042 0.0762 0.0
C481 C 0.7797 0.39527 0.29541 0.0
C482 C 0.80473 0.37631 0.24509 0.0
C483 C 0.84385 0.3725 0.09556 0.0
C484 C 0.85545 0.38645 0.99832 0.0
C485 C 0.81272 0.38279 0.1376 0.0
C486 C 0.83209 0.40329 0.93174 0.0
C487 C 0.80017 0.41164 0.96999 0.0
H488 H 0.99136 0.20583 0.22397 0.0
H489 H 0.05576 0.26293 1.01181 0.0
H490 H 0.05633 0.21512 0.88651 0.0
H491 H 0.04297 0.15396 0.84607 0.0
H492 H 0.98364 0.09719 0.07367 0.0
H493 H 0.97759 0.14727 0.18451 0.0
C494 C 1.00595 0.20802 0.15096 0.0
C495 C 0.02424 0.23815 0.12983 0.0
C496 C 1.00747 0.1799 0.0821 0.0
C497 C 0.0415 0.24037 0.03154 0.0
C498 C 0.0421 0.21274 0.96009 0.0
C499 C 0.02855 0.15273 0.91956 0.0
C500 C 0.01385 0.12153 0.95147 0.0
C501 C 0.02593 0.18189 0.98577 0.0
C502 C 0.99543 0.12053 0.04736 0.0
C503 C 0.99186 0.14929 0.11085 0.0
H504 H 0.28521 0.98503 0.9315 0.0
H505 H 0.30421 0.05404 0.18982 0.0
H506 H 0.36012 0.06705 0.11535 0.0
H507 H 0.40638 0.05372 0.98711 0.0
H508 H 0.38616 0.98492 0.72789 0.0
H509 H 0.32853 0.97697 0.79205 0.0
C510 C 0.30113 1.00381 0.96954 0.0
C511 C 0.29009 0.01886 0.06576 0.0
C512 C 0.3336 1.01062 0.92717 0.0
C513 C 0.31149 0.04264 0.11477 0.0
C514 C 0.3438 0.04964 0.07291 0.0
C515 C 0.38928 0.03727 0.94384 0.0
C516 C 0.40114 0.01974 0.85267 0.0
C517 C 0.35561 0.03298 0.98089 0.0
C518 C 0.37819 0.99878 0.79787 0.0
C519 C 0.34503 0.99415 0.83478 0.0
H520 H 0.56305 0.30345 0.95586 0.0
H521 H 0.47872 0.3109 0.17144 0.0
H522 H 0.46165 0.36405 0.08521 0.0
H523 H 0.47463 0.41193 0.96189 0.0
H524 H 0.55951 0.404 0.7475 0.0
H525 H 0.57235 0.34802 0.81979 0.0
C526 C 0.54039 0.31624 0.98228 0.0
C527 C 0.52216 0.30284 0.07037 0.0
C528 C 0.5312 0.34729 0.93368 0.0
C529 C 0.49298 0.32004 0.10329 0.0
C530 C 0.48351 0.35083 0.05477 0.0
C531 C 0.49572 0.39785 0.9299 0.0
C532 C 0.51616 0.41271 0.84923 0.0
C533 C 0.50304 0.36528 0.97207 0.0
C534 C 0.54324 0.39363 0.80908 0.0
C535 C 0.55069 0.36146 0.85077 0.0
H536 H 0.19885 0.50961 0.15624 0.0
H537 H 0.25102 0.55666 0.89323 0.0
H538 H 0.19955 0.55428 0.78413 0.0
H539 H 0.13735 0.54449 0.77041 0.0
H540 H 0.08615 0.49651 0.03538 0.0
H541 H 0.13884 0.49373 0.13523 0.0
C542 C 0.19933 0.51791 0.07342 0.0
C543 C 0.22923 0.53232 0.03216 0.0
C544 C 0.16923 0.51722 1.01187 0.0
C545 C 0.22882 0.54438 0.92597 0.0
C546 C 0.1991 0.5436 0.86411 0.0
C547 C 0.13778 0.53315 0.84954 0.0
C548 C 0.10735 0.52095 0.89474 0.0
C549 C 0.16875 0.53106 0.90723 0.0
C550 C 0.10883 0.50613 0.99751 0.0
C551 C 0.13914 0.50449 0.05531 0.0
H552 H 0.02348 0.84477 0.32493 0.0
H553 H 0.02121 0.78138 0.60534 0.0
H554 H 0.01502 0.83155 0.71908 0.0
H555 H 0.0144 0.89473 0.7393 0.0
H556 H 0.01594 0.95656 0.45374 0.0
H557 H 0.01851 0.90633 0.3432 0.0
C558 C 0.02063 0.84186 0.41079 0.0
C559 C 0.02212 0.80915 0.45609 0.0
C560 C 0.01766 0.8709 0.47554 0.0
C561 C 0.01927 0.80603 0.56788 0.0
C562 C 0.01623 0.83488 0.63309 0.0
C563 C 0.0152 0.89717 0.65294 0.0
C564 C 0.01512 0.92984 0.60581 0.0
C565 C 0.01614 0.86765 0.58813 0.0
C566 C 0.01587 0.93213 0.49327 0.0
C567 C 0.01734 0.90325 0.42934 0.0
H568 H 0.73196 0.99172 0.60955 0.0
H569 H 0.70826 0.02943 0.29471 0.0
H570 H 0.65024 0.04111 0.35129 0.0
H571 H 0.60425 0.03454 0.48552 0.0
H572 H 0.62875 0.9971 0.80104 0.0
H573 H 0.6879 0.99142 0.74937 0.0
C574 C 0.71447 1.00385 0.55468 0.0
C575 C 0.72491 1.01041 0.44843 0.0
C576 C 0.68079 1.00968 0.58733 0.0
C577 C 0.70146 0.02512 0.37759 0.0
C578 C 0.66796 0.03117 0.40956 0.0
C579 C 0.62255 0.02535 0.54327 0.0
C580 C 0.61164 0.01585 0.64701 0.0
C581 C 0.65699 0.02253 0.51331 0.0
C582 C 0.63605 1.00443 0.72072 0.0
C583 C 0.67006 1.0012 0.6912 0.0
H584 H 0.45004 0.73322 0.53172 0.0
H585 H 0.53899 0.72861 0.33469 0.0
H586 H 0.55563 0.67569 0.42313 0.0
H587 H 0.54171 0.62739 0.54398 0.0
H588 H 0.45298 0.63307 0.74278 0.0
H589 H 0.43959 0.68843 0.66658 0.0
C590 C 0.47354 0.72108 0.50986 0.0
C591 C 0.49328 0.73523 0.42639 0.0
C592 C 0.4827 0.69031 0.56037 0.0
C593 C 0.52353 0.71886 0.39926 0.0
C594 C 0.53281 0.68823 0.44909 0.0
C595 C 0.51963 0.64087 0.57169 0.0
C596 C 0.49829 0.62556 0.64909 0.0
C597 C 0.51212 0.67317 0.52774 0.0
C598 C 0.46997 0.64385 0.68389 0.0
C599 C 0.46219 0.67564 0.63989 0.0
H600 H 0.81413 0.53861 0.35223 0.0
H601 H 0.76518 0.49053 0.61961 0.0
H602 H 0.81557 0.49944 0.73042 0.0
H603 H 0.87644 0.51513 0.7449 0.0
H604 H 0.92487 0.56263 0.47375 0.0
H605 H 0.87248 0.5598 0.37256 0.0
C606 C 0.81401 0.53144 0.4361 0.0
C607 C 0.78539 0.51486 0.47827 0.0
C608 C 0.8436 0.53576 0.49851 0.0
C609 C 0.78633 0.50435 0.58601 0.0
C610 C 0.81546 0.50895 0.64895 0.0
C611 C 0.87545 0.52528 0.66424 0.0
C612 C 0.90511 0.53885 0.61767 0.0
C613 C 0.84474 0.52369 0.60522 0.0
C614 C 0.90289 0.55187 0.51262 0.0
C615 C 0.87273 0.5503 0.45404 0.0
loop_
_geom_bond_atom_site_label_1
_geom_bond_atom_site_label_2
_geom_bond_distance
_geom_bond_site_symmetry_2
_ccdc_geom_bond_type
H0 C3 0.931 . S
H1 C6 0.928 . S
H2 C8 0.930 . S
C3 H0 0.931 . S
C3 C4 1.413 . S
C3 C5 1.360 . S
C4 C3 1.413 . S
C4 C8 1.429 . S
C5 C3 1.360 . S
C5 C6 1.372 . S
C6 H1 0.928 . S
C6 C5 1.372 . S
C6 C7 1.404 . S
C7 C6 1.404 . S
C7 C8 1.391 . S
C8 H2 0.930 . S
C8 C4 1.429 . S
C8 C7 1.391 . S
H9 C12 0.931 . S
H10 C15 0.928 . S
H11 C17 0.930 . S
C12 H9 0.931 . S
C12 C13 1.413 . S
C12 C14 1.360 . S
C13 C12 1.413 . S
C13 C17 1.429 1_655 S
C14 C12 1.360 . S
C14 C15 1.372 . S
C15 H10 0.928 . S
C15 C14 1.372 . S
C15 C16 1.404 . S
C16 C15 1.404 . S
C16 C17 1.390 1_655 S
C17 H11 0.930 . S
C17 C13 1.429 1_455 S
C17 C16 1.390 1_455 S
H18 C21 0.931 . S
H19 C24 0.928 . S
H20 C26 0.930 . S
C21 H18 0.931 . S
C21 C22 1.413 . S
C21 C23 1.360 . S
C22 C21 1.413 . S
C22 C26 1.429 1_565 S
C23 C21 1.360 . S
C23 C24 1.372 . S
C24 H19 0.928 . S
C24 C23 1.372 . S
C24 C25 1.404 . S
C25 C24 1.404 . S
C25 C26 1.390 1_565 S
C26 H20 0.930 . S
C26 C22 1.429 1_545 S
C26 C25 1.390 1_545 S
H27 C30 0.931 . S
H28 C33 0.928 . S
H29 C35 0.930 . S
C30 H27 0.931 . S
C30 C31 1.413 . S
C30 C32 1.360 . S
C31 C30 1.413 . S
C31 C35 1.429 . S
C32 C30 1.360 . S
C32 C33 1.372 . S
C33 H28 0.928 . S
C33 C32 1.372 . S
C33 C34 1.404 . S
C34 C33 1.404 . S
C34 C35 1.391 . S
C35 H29 0.930 . S
C35 C31 1.429 . S
C35 C34 1.391 . S
H36 C39 0.931 . S
H37 C42 0.928 . S
H38 C44 0.930 . S
C39 H36 0.931 . S
C39 C40 1.413 1_554 S
C39 C41 1.360 . S
C40 C39 1.413 1_556 S
C40 C44 1.429 . S
C41 C39 1.360 . S
C41 C42 1.372 . S
C42 H37 0.928 . S
C42 C41 1.372 . S
C42 C43 1.404 . S
C43 C42 1.404 . S
C43 C44 1.391 1_554 S
C44 H38 0.930 . S
C44 C40 1.429 . S
C44 C43 1.391 1_556 S
H45 C48 0.931 . S
H46 C51 0.928 . S
H47 C53 0.930 . S
C48 H45 0.931 . S
C48 C49 1.413 1_554 S
C48 C50 1.360 . S
C49 C48 1.413 1_556 S
C49 C53 1.429 1_655 S
C50 C48 1.360 . S
C50 C51 1.372 . S
C51 H46 0.928 . S
C51 C50 1.372 . S
C51 C52 1.404 . S
C52 C51 1.404 . S
C52 C53 1.391 1_654 S
C53 H47 0.930 . S
C53 C49 1.429 1_455 S
C53 C52 1.391 1_456 S
H54 C57 0.931 . S
H55 C60 0.928 . S
H56 C62 0.930 . S
C57 H54 0.931 . S
C57 C58 1.413 1_554 S
C57 C59 1.360 . S
C58 C57 1.413 1_556 S
C58 C62 1.429 1_565 S
C59 C57 1.360 . S
C59 C60 1.372 . S
C60 H55 0.928 . S
C60 C59 1.372 . S
C60 C61 1.404 . S
C61 C60 1.404 . S
C61 C62 1.391 1_564 S
C62 H56 0.930 . S
C62 C58 1.429 1_545 S
C62 C61 1.391 1_546 S
H63 C66 0.931 1_556 S
H64 C69 0.928 . S
H65 C71 0.930 . S
C66 H63 0.931 1_554 S
C66 C67 1.413 . S
C66 C68 1.360 1_554 S
C67 C66 1.413 . S
C67 C71 1.429 . S
C68 C66 1.360 1_556 S
C68 C69 1.372 . S
C69 H64 0.928 . S
C69 C68 1.372 . S
C69 C70 1.404 1_556 S
C70 C69 1.404 1_554 S
C70 C71 1.391 . S
C71 H65 0.930 . S
C71 C67 1.429 . S
C71 C70 1.391 . S
Ho72 C75 2.811 . S
Ho72 O92 2.322 . S
Ho72 O94 2.378 . S
Ho72 O95 2.524 . S
Ho72 O96 2.381 . S
Ho72 O97 2.669 1_565 S
Ho72 O99 2.346 1_565 S
Ho72 O103 2.305 1_455 S
Ho73 C84 2.811 . S
Ho73 O93 2.346 1_545 S
Ho73 O97 2.305 1_655 S
Ho73 O98 2.322 . S
Ho73 O100 2.378 . S
Ho73 O101 2.524 . S
Ho73 O102 2.381 . S
Ho73 O103 2.669 1_545 S
C74 O92 1.259 1_655 S
C74 O93 1.268 . S
C75 Ho72 2.811 . S
C75 C76 1.488 1_556 S
C75 O94 1.215 . S
C75 O95 1.289 . S
C76 C75 1.488 1_554 S
C76 C77 1.348 . S
C76 C81 1.413 . S
C77 C76 1.348 . S
C77 C78 1.442 . S
C77 H104 0.930 1_455 S
C78 C77 1.442 . S
C78 C79 1.381 . S
C78 H105 0.931 . S
C79 C78 1.381 . S
C79 C80 1.321 . S
C80 C79 1.321 . S
C80 C81 1.403 . S
C80 H106 0.934 . S
C81 C76 1.413 . S
C81 C80 1.403 . S
C81 H107 0.930 1_554 S
C82 O96 1.275 . S
C82 O97 1.256 1_565 S
C83 O98 1.259 1_455 S
C83 O99 1.268 . S
C84 Ho73 2.811 . S
C84 C85 1.488 . S
C84 O100 1.215 . S
C84 O101 1.289 . S
C85 C84 1.488 . S
C85 C86 1.348 . S
C85 C90 1.413 . S
C86 C85 1.348 . S
C86 C87 1.442 . S
C86 H108 0.930 1_655 S
C87 C86 1.442 . S
C87 C88 1.381 . S
C87 H109 0.931 . S
C88 C87 1.381 . S
C88 C89 1.321 . S
C89 C88 1.321 . S
C89 C90 1.403 . S
C89 H110 0.934 . S
C90 C85 1.413 . S
C90 C89 1.403 . S
C90 H111 0.930 . S
C91 O102 1.275 . S
C91 O103 1.256 1_545 S
O92 Ho72 2.322 . S
O92 C74 1.259 1_455 S
O93 Ho73 2.346 1_565 S
O93 C74 1.268 . S
O94 Ho72 2.378 . S
O94 C75 1.215 . S
O95 Ho72 2.524 . S
O95 C75 1.289 . S
O96 Ho72 2.381 . S
O96 C82 1.275 . S
O97 Ho72 2.669 1_545 S
O97 Ho73 2.305 1_455 S
O97 C82 1.256 1_545 S
O98 Ho73 2.322 . S
O98 C83 1.259 1_655 S
O99 Ho72 2.346 1_545 S
O99 C83 1.268 . S
O100 Ho73 2.378 . S
O100 C84 1.215 . S
O101 Ho73 2.524 . S
O101 C84 1.289 . S
O102 Ho73 2.381 . S
O102 C91 1.275 . S
O103 Ho72 2.305 1_655 S
O103 Ho73 2.669 1_565 S
O103 C91 1.256 1_565 S
H104 C77 0.930 1_655 S
H105 C78 0.931 . S
H106 C80 0.934 . S
H107 C81 0.930 1_556 S
H108 C86 0.930 1_455 S
H109 C87 0.931 . S
H110 C89 0.934 . S
H111 C90 0.930 . S
Ho112 C115 2.811 . S
Ho112 O132 2.322 . S
Ho112 O134 2.378 . S
Ho112 O135 2.524 . S
Ho112 O136 2.381 . S
Ho112 O137 2.669 . S
Ho112 O139 2.346 . S
Ho112 O143 2.305 1_545 S
Ho113 C124 2.811 . S
Ho113 O133 2.346 . S
Ho113 O137 2.305 1_565 S
Ho113 O138 2.322 . S
Ho113 O140 2.378 . S
Ho113 O141 2.524 . S
Ho113 O142 2.381 . S
Ho113 O143 2.669 . S
C114 O132 1.259 1_565 S
C114 O133 1.268 . S
C115 Ho112 2.811 . S
C115 C116 1.488 1_556 S
C115 O134 1.215 . S
C115 O135 1.289 . S
C116 C115 1.488 1_554 S
C116 C117 1.348 . S
C116 C121 1.413 . S
C117 C116 1.348 . S
C117 C118 1.442 . S
C117 H144 0.930 1_545 S
C118 C117 1.442 . S
C118 C119 1.381 . S
C118 H145 0.931 . S
C119 C118 1.381 . S
C119 C120 1.321 . S
C120 C119 1.321 . S
C120 C121 1.403 . S
C120 H146 0.934 . S
C121 C116 1.413 . S
C121 C120 1.403 . S
C121 H147 0.930 1_554 S
C122 O136 1.275 . S
C122 O137 1.256 . S
C123 O138 1.259 1_545 S
C123 O139 1.268 . S
C124 Ho113 2.811 . S
C124 C125 1.488 . S
C124 O140 1.215 . S
C124 O141 1.289 . S
C125 C124 1.488 . S
C125 C126 1.348 . S
C125 C130 1.413 . S
C126 C125 1.348 . S
C126 C127 1.442 . S
C126 H148 0.930 1_565 S
C127 C126 1.442 . S
C127 C128 1.381 . S
C127 H149 0.931 . S
C128 C127 1.381 . S
C128 C129 1.321 . S
C129 C128 1.321 . S
C129 C130 1.403 . S
C129 H150 0.934 . S
C130 C125 1.413 . S
C130 C129 1.403 . S
C130 H151 0.930 . S
C131 O142 1.275 . S
C131 O143 1.256 . S
O132 Ho112 2.322 . S
O132 C114 1.259 1_545 S
O133 Ho113 2.346 . S
O133 C114 1.268 . S
O134 Ho112 2.378 . S
O134 C115 1.215 . S
O135 Ho112 2.524 . S
O135 C115 1.289 . S
O136 Ho112 2.381 . S
O136 C122 1.275 . S
O137 Ho112 2.669 . S
O137 Ho113 2.305 1_545 S
O137 C122 1.256 . S
O138 Ho113 2.322 . S
O138 C123 1.259 1_565 S
O139 Ho112 2.346 . S
O139 C123 1.268 . S
O140 Ho113 2.378 . S
O140 C124 1.215 . S
O141 Ho113 2.524 . S
O141 C124 1.289 . S
O142 Ho113 2.381 . S
O142 C131 1.275 . S
O143 Ho112 2.305 1_565 S
O143 Ho113 2.669 . S
O143 C131 1.256 . S
H144 C117 0.930 1_565 S
H145 C118 0.931 . S
H146 C120 0.934 . S
H147 C121 0.930 1_556 S
H148 C126 0.930 1_545 S
H149 C127 0.931 . S
H150 C129 0.934 . S
H151 C130 0.930 . S
Ho152 C155 2.811 . S
Ho152 O172 2.322 . S
Ho152 O174 2.378 . S
Ho152 O175 2.524 . S
Ho152 O176 2.381 . S
Ho152 O177 2.669 . S
Ho152 O179 2.346 . S
Ho152 O183 2.305 . S
Ho153 C164 2.811 . S
Ho153 O173 2.346 . S
Ho153 O177 2.305 . S
Ho153 O178 2.322 . S
Ho153 O180 2.378 . S
Ho153 O181 2.524 . S
Ho153 O182 2.381 . S
Ho153 O183 2.669 . S
C154 O172 1.259 . S
C154 O173 1.268 . S
C155 Ho152 2.811 . S
C155 C156 1.488 1_556 S
C155 O174 1.215 . S
C155 O175 1.289 . S
C156 C155 1.488 1_554 S
C156 C157 1.348 . S
C156 C161 1.413 . S
C157 C156 1.348 . S
C157 C158 1.442 . S
C157 H184 0.930 . S
C158 C157 1.442 . S
C158 C159 1.381 . S
C158 H185 0.931 . S
C159 C158 1.381 . S
C159 C160 1.321 . S
C160 C159 1.321 . S
C160 C161 1.403 . S
C160 H186 0.934 . S
C161 C156 1.413 . S
C161 C160 1.403 . S
C161 H187 0.930 1_554 S
C162 O176 1.275 . S
C162 O177 1.256 . S
C163 O178 1.259 . S
C163 O179 1.268 . S
C164 Ho153 2.811 . S
C164 C165 1.488 . S
C164 O180 1.215 . S
C164 O181 1.289 . S
C165 C164 1.488 . S
C165 C166 1.348 . S
C165 C170 1.413 . S
C166 C165 1.348 . S
C166 C167 1.442 . S
C166 H188 0.930 . S
C167 C166 1.442 . S
C167 C168 1.381 . S
C167 H189 0.931 . S
C168 C167 1.381 . S
C168 C169 1.321 . S
C169 C168 1.321 . S
C169 C170 1.403 . S
C169 H190 0.934 . S
C170 C165 1.413 . S
C170 C169 1.403 . S
C170 H191 0.930 . S
C171 O182 1.275 . S
C171 O183 1.256 . S
O172 Ho152 2.322 . S
O172 C154 1.259 . S
O173 Ho153 2.346 . S
O173 C154 1.268 . S
O174 Ho152 2.378 . S
O174 C155 1.215 . S
O175 Ho152 2.524 . S
O175 C155 1.289 . S
O176 Ho152 2.381 . S
O176 C162 1.275 . S
O177 Ho152 2.669 . S
O177 Ho153 2.305 . S
O177 C162 1.256 . S
O178 Ho153 2.322 . S
O178 C163 1.259 . S
O179 Ho152 2.346 . S
O179 C163 1.268 . S
O180 Ho153 2.378 . S
O180 C164 1.215 . S
O181 Ho153 2.524 . S
O181 C164 1.289 . S
O182 Ho153 2.381 . S
O182 C171 1.275 . S
O183 Ho152 2.305 . S
O183 Ho153 2.669 . S
O183 C171 1.256 . S
H184 C157 0.930 . S
H185 C158 0.931 . S
H186 C160 0.934 . S
H187 C161 0.930 1_556 S
H188 C166 0.930 . S
H189 C167 0.931 . S
H190 C169 0.934 . S
H191 C170 0.930 . S
Ho192 C195 2.811 . S
Ho192 O212 2.322 . S
Ho192 O214 2.378 . S
Ho192 O215 2.524 . S
Ho192 O216 2.381 . S
Ho192 O217 2.669 1_655 S
Ho192 O219 2.346 1_655 S
Ho192 O223 2.305 . S
Ho193 C204 2.811 . S
Ho193 O213 2.346 1_455 S
Ho193 O217 2.305 . S
Ho193 O218 2.322 . S
Ho193 O220 2.378 . S
Ho193 O221 2.524 . S
Ho193 O222 2.381 . S
Ho193 O223 2.669 1_455 S
C194 O212 1.259 . S
C194 O213 1.268 . S
C195 Ho192 2.811 . S
C195 C196 1.488 1_556 S
C195 O214 1.215 . S
C195 O215 1.289 . S
C196 C195 1.488 1_554 S
C196 C197 1.348 . S
C196 C201 1.413 . S
C197 C196 1.348 . S
C197 C198 1.442 . S
C197 H224 0.930 . S
C198 C197 1.442 . S
C198 C199 1.381 . S
C198 H225 0.931 . S
C199 C198 1.381 . S
C199 C200 1.321 . S
C200 C199 1.321 . S
C200 C201 1.403 . S
C200 H226 0.934 . S
C201 C196 1.413 . S
C201 C200 1.403 . S
C201 H227 0.930 1_554 S
C202 O216 1.277 . S
C202 O217 1.255 1_655 S
C203 O218 1.259 . S
C203 O219 1.268 . S
C204 Ho193 2.811 . S
C204 C205 1.488 . S
C204 O220 1.215 . S
C204 O221 1.289 . S
C205 C204 1.488 . S
C205 C206 1.348 . S
C205 C210 1.413 . S
C206 C205 1.348 . S
C206 C207 1.442 . S
C206 H228 0.930 . S
C207 C206 1.442 . S
C207 C208 1.381 . S
C207 H229 0.931 . S
C208 C207 1.381 . S
C208 C209 1.321 . S
C209 C208 1.321 . S
C209 C210 1.403 . S
C209 H230 0.934 . S
C210 C205 1.413 . S
C210 C209 1.403 . S
C210 H231 0.930 . S
C211 O222 1.281 . S
C211 O223 1.253 1_455 S
O212 Ho192 2.322 . S
O212 C194 1.259 . S
O213 Ho193 2.346 1_655 S
O213 C194 1.268 . S
O214 Ho192 2.378 . S
O214 C195 1.215 . S
O215 Ho192 2.524 . S
O215 C195 1.289 . S
O216 Ho192 2.381 . S
O216 C202 1.277 . S
O217 Ho192 2.669 1_455 S
O217 Ho193 2.305 . S
O217 C202 1.255 1_455 S
O218 Ho193 2.322 . S
O218 C203 1.259 . S
O219 Ho192 2.346 1_455 S
O219 C203 1.268 . S
O220 Ho193 2.378 . S
O220 C204 1.215 . S
O221 Ho193 2.524 . S
O221 C204 1.289 . S
O222 Ho193 2.381 . S
O222 C211 1.281 . S
O223 Ho192 2.305 . S
O223 Ho193 2.669 1_655 S
O223 C211 1.253 1_655 S
H224 C197 0.930 . S
H225 C198 0.931 . S
H226 C200 0.934 . S
H227 C201 0.930 1_556 S
H228 C206 0.930 . S
H229 C207 0.931 . S
H230 C209 0.934 . S
H231 C210 0.930 . S
H232 C238 0.930 . S
H233 C241 0.930 . S
H234 C242 0.930 . S
H235 C243 0.930 . S
H236 C246 0.930 . S
H237 C247 0.930 . S
C238 H232 0.930 . S
C238 C239 1.355 . S
C238 C240 1.415 . S
C239 C238 1.355 . S
C239 C241 1.419 1_545 S
C240 C238 1.415 . S
C240 C245 1.425 1_545 S
C240 C247 1.409 . S
C241 H233 0.930 . S
C241 C239 1.419 1_565 S
C241 C242 1.362 . S
C242 H234 0.930 . S
C242 C241 1.362 . S
C242 C245 1.409 . S
C243 H235 0.930 . S
C243 C244 1.353 1_565 S
C243 C245 1.415 . S
C244 C243 1.353 1_545 S
C244 C246 1.421 . S
C245 C240 1.425 1_565 S
C245 C242 1.409 . S
C245 C243 1.415 . S
C246 H236 0.930 . S
C246 C244 1.421 . S
C246 C247 1.362 . S
C247 H237 0.930 . S
C247 C240 1.409 . S
C247 C246 1.362 . S
H248 C254 0.930 . S
H249 C257 0.930 . S
H250 C258 0.930 . S
H251 C259 0.930 . S
H252 C262 0.930 . S
H253 C263 0.930 . S
C254 H248 0.930 . S
C254 C255 1.355 . S
C254 C256 1.415 . S
C255 C254 1.355 . S
C255 C257 1.419 . S
C256 C254 1.415 . S
C256 C261 1.425 . S
C256 C263 1.409 . S
C257 H249 0.930 . S
C257 C255 1.419 . S
C257 C258 1.362 . S
C258 H250 0.930 . S
C258 C257 1.362 . S
C258 C261 1.409 . S
C259 H251 0.930 . S
C259 C260 1.355 . S
C259 C261 1.415 . S
C260 C259 1.355 . S
C260 C262 1.419 . S
C261 C256 1.425 . S
C261 C258 1.409 . S
C261 C259 1.415 . S
C262 H252 0.930 . S
C262 C260 1.419 . S
C262 C263 1.362 . S
C263 H253 0.930 . S
C263 C256 1.409 . S
C263 C262 1.362 . S
H264 C270 0.930 . S
H265 C273 0.930 . S
H266 C274 0.930 . S
H267 C275 0.930 . S
H268 C278 0.930 . S
H269 C279 0.930 . S
C270 H264 0.930 . S
C270 C271 1.355 . S
C270 C272 1.415 . S
C271 C270 1.355 . S
C271 C273 1.419 . S
C272 C270 1.415 . S
C272 C277 1.425 . S
C272 C279 1.409 . S
C273 H265 0.930 . S
C273 C271 1.419 . S
C273 C274 1.362 . S
C274 H266 0.930 . S
C274 C273 1.362 . S
C274 C277 1.409 . S
C275 H267 0.930 . S
C275 C276 1.355 . S
C275 C277 1.415 . S
C276 C275 1.355 . S
C276 C278 1.419 . S
C277 C272 1.425 . S
C277 C274 1.409 . S
C277 C275 1.415 . S
C278 H268 0.930 . S
C278 C276 1.419 . S
C278 C279 1.362 . S
C279 H269 0.930 . S
C279 C272 1.409 . S
C279 C278 1.362 . S
H280 C286 0.930 . S
H281 C289 0.930 . S
H282 C290 0.930 . S
H283 C291 0.930 . S
H284 C294 0.930 . S
H285 C295 0.930 . S
C286 H280 0.930 . S
C286 C287 1.355 1_455 S
C286 C288 1.415 . S
C287 C286 1.355 1_655 S
C287 C289 1.419 . S
C288 C286 1.415 . S
C288 C293 1.425 1_455 S
C288 C295 1.409 . S
C289 H281 0.930 . S
C289 C287 1.419 . S
C289 C290 1.362 . S
C290 H282 0.930 . S
C290 C289 1.362 . S
C290 C293 1.409 . S
C291 H283 0.930 . S
C291 C292 1.355 1_655 S
C291 C293 1.415 . S
C292 C291 1.355 1_455 S
C292 C294 1.419 . S
C293 C288 1.425 1_655 S
C293 C290 1.409 . S
C293 C291 1.415 . S
C294 H284 0.930 . S
C294 C292 1.419 . S
C294 C295 1.362 . S
C295 H285 0.930 . S
C295 C288 1.409 . S
C295 C294 1.362 . S
H296 C302 0.930 . S
H297 C305 0.930 . S
H298 C306 0.930 . S
H299 C307 0.930 . S
H300 C310 0.930 . S
H301 C311 0.930 . S
C302 H296 0.930 . S
C302 C303 1.355 1_565 S
C302 C304 1.415 . S
C303 C302 1.355 1_545 S
C303 C305 1.419 . S
C304 C302 1.415 . S
C304 C309 1.425 1_565 S
C304 C311 1.409 . S
C305 H297 0.930 . S
C305 C303 1.419 . S
C305 C306 1.362 . S
C306 H298 0.930 . S
C306 C305 1.362 . S
C306 C309 1.409 . S
C307 H299 0.930 . S
C307 C308 1.355 1_544 S
C307 C309 1.415 . S
C308 C307 1.355 1_566 S
C308 C310 1.419 . S
C309 C304 1.425 1_545 S
C309 C306 1.409 . S
C309 C307 1.415 . S
C310 H300 0.930 . S
C310 C308 1.419 . S
C310 C311 1.362 1_556 S
C311 H301 0.930 . S
C311 C304 1.409 . S
C311 C310 1.362 1_554 S
H312 C318 0.930 . S
H313 C321 0.930 . S
H314 C322 0.930 . S
H315 C323 0.930 1_556 S
H316 C326 0.930 . S
H317 C327 0.930 . S
C318 H312 0.930 . S
C318 C319 1.355 . S
C318 C320 1.415 . S
C319 C318 1.355 . S
C319 C321 1.419 . S
C320 C318 1.415 . S
C320 C325 1.425 . S
C320 C327 1.409 . S
C321 H313 0.930 . S
C321 C319 1.419 . S
C321 C322 1.362 . S
C322 H314 0.930 . S
C322 C321 1.362 . S
C322 C325 1.409 . S
C323 H315 0.930 1_554 S
C323 C324 1.353 1_554 S
C323 C325 1.415 . S
C324 C323 1.353 1_556 S
C324 C326 1.415 1_556 S
C325 C320 1.425 . S
C325 C322 1.409 . S
C325 C323 1.415 . S
C326 H316 0.930 . S
C326 C324 1.415 1_554 S
C326 C327 1.362 . S
C327 H317 0.930 . S
C327 C320 1.409 . S
C327 C326 1.362 . S
H328 C334 0.930 . S
H329 C337 0.930 . S
H330 C338 0.930 . S
H331 C339 0.930 . S
H332 C342 0.930 . S
H333 C343 0.930 . S
C334 H328 0.930 . S
C334 C335 1.355 . S
C334 C336 1.415 . S
C335 C334 1.355 . S
C335 C337 1.419 . S
C336 C334 1.415 . S
C336 C341 1.425 . S
C336 C343 1.409 . S
C337 H329 0.930 . S
C337 C335 1.419 . S
C337 C338 1.362 . S
C338 H330 0.930 . S
C338 C337 1.362 . S
C338 C341 1.409 . S
C339 H331 0.930 . S
C339 C340 1.355 1_554 S
C339 C341 1.415 . S
C340 C339 1.355 1_556 S
C340 C342 1.419 . S
C341 C336 1.425 . S
C341 C338 1.409 . S
C341 C339 1.415 . S
C342 H332 0.930 . S
C342 C340 1.419 . S
C342 C343 1.362 1_556 S
C343 H333 0.930 . S
C343 C336 1.409 . S
C343 C342 1.362 1_554 S
H344 C350 0.930 . S
H345 C353 0.930 . S
H346 C354 0.930 . S
H347 C355 0.930 . S
H348 C358 0.930 . S
H349 C359 0.930 . S
C350 H344 0.930 . S
C350 C351 1.355 1_455 S
C350 C352 1.415 . S
C351 C350 1.355 1_655 S
C351 C353 1.419 . S
C352 C350 1.415 . S
C352 C357 1.425 1_455 S
C352 C359 1.409 . S
C353 H345 0.930 . S
C353 C351 1.419 . S
C353 C354 1.362 . S
C354 H346 0.930 . S
C354 C353 1.362 . S
C354 C357 1.409 . S
C355 H347 0.930 . S
C355 C356 1.355 1_554 S
C355 C357 1.415 . S
C356 C355 1.355 1_556 S
C356 C358 1.419 1_655 S
C357 C352 1.425 1_655 S
C357 C354 1.409 . S
C357 C355 1.415 . S
C358 H348 0.930 . S
C358 C356 1.419 1_455 S
C358 C359 1.362 1_556 S
C359 H349 0.930 . S
C359 C352 1.409 . S
C359 C358 1.362 1_554 S
H360 C366 0.930 . S
H361 C369 0.930 . S
H362 C370 0.930 . S
H363 C371 0.930 . S
H364 C374 0.930 . S
H365 C375 0.930 . S
C366 H360 0.930 . S
C366 C367 1.355 1_655 S
C366 C368 1.415 . S
C367 C366 1.355 1_455 S
C367 C369 1.419 . S
C368 C366 1.415 . S
C368 C373 1.425 . S
C368 C375 1.409 . S
C369 H361 0.930 . S
C369 C367 1.419 . S
C369 C370 1.362 . S
C370 H362 0.930 . S
C370 C369 1.362 . S
C370 C373 1.409 1_455 S
C371 H363 0.930 . S
C371 C372 1.355 . S
C371 C373 1.415 . S
C372 C371 1.355 . S
C372 C374 1.419 . S
C373 C368 1.425 . S
C373 C370 1.409 1_655 S
C373 C371 1.415 . S
C374 H364 0.930 . S
C374 C372 1.419 . S
C374 C375 1.362 . S
C375 H365 0.930 . S
C375 C368 1.409 . S
C375 C374 1.362 . S
H376 C382 0.930 . S
H377 C385 0.930 . S
H378 C386 0.930 . S
H379 C387 0.930 . S
H380 C390 0.930 . S
H381 C391 0.930 . S
C382 H376 0.930 . S
C382 C383 1.352 1_565 S
C382 C384 1.415 . S
C383 C382 1.352 1_545 S
C383 C385 1.417 1_545 S
C384 C382 1.415 . S
C384 C389 1.425 . S
C384 C391 1.409 . S
C385 H377 0.930 . S
C385 C383 1.417 1_565 S
C385 C386 1.362 . S
C386 H378 0.930 . S
C386 C385 1.362 . S
C386 C389 1.409 . S
C387 H379 0.930 . S
C387 C388 1.355 . S
C387 C389 1.415 . S
C388 C387 1.355 . S
C388 C390 1.419 . S
C389 C384 1.425 . S
C389 C386 1.409 . S
C389 C387 1.415 . S
C390 H380 0.930 . S
C390 C388 1.419 . S
C390 C391 1.362 . S
C391 H381 0.930 . S
C391 C384 1.409 . S
C391 C390 1.362 . S
H392 C398 0.930 . S
H393 C401 0.930 . S
H394 C402 0.930 . S
H395 C403 0.930 . S
H396 C406 0.930 . S
H397 C407 0.930 . S
C398 H392 0.930 . S
C398 C399 1.355 . S
C398 C400 1.415 . S
C399 C398 1.355 . S
C399 C401 1.419 . S
C400 C398 1.415 . S
C400 C405 1.425 . S
C400 C407 1.409 . S
C401 H393 0.930 . S
C401 C399 1.419 . S
C401 C402 1.362 . S
C402 H394 0.930 . S
C402 C401 1.362 . S
C402 C405 1.409 . S
C403 H395 0.930 . S
C403 C404 1.355 . S
C403 C405 1.415 . S
C404 C403 1.355 . S
C404 C406 1.419 . S
C405 C400 1.425 . S
C405 C402 1.409 . S
C405 C403 1.415 . S
C406 H396 0.930 . S
C406 C404 1.419 . S
C406 C407 1.362 . S
C407 H397 0.930 . S
C407 C400 1.409 . S
C407 C406 1.362 . S
H408 C414 0.930 . S
H409 C417 0.930 . S
H410 C418 0.930 . S
H411 C419 0.930 . S
H412 C422 0.930 . S
H413 C423 0.930 . S
C414 H408 0.930 . S
C414 C415 1.355 . S
C414 C416 1.415 . S
C415 C414 1.355 . S
C415 C417 1.419 . S
C416 C414 1.415 . S
C416 C421 1.425 . S
C416 C423 1.409 . S
C417 H409 0.930 . S
C417 C415 1.419 . S
C417 C418 1.362 . S
C418 H410 0.930 . S
C418 C417 1.362 . S
C418 C421 1.409 . S
C419 H411 0.930 . S
C419 C420 1.355 . S
C419 C421 1.415 . S
C420 C419 1.355 . S
C420 C422 1.419 . S
C421 C416 1.425 . S
C421 C418 1.409 . S
C421 C419 1.415 . S
C422 H412 0.930 . S
C422 C420 1.419 . S
C422 C423 1.362 . S
C423 H413 0.930 . S
C423 C416 1.409 . S
C423 C422 1.362 . S
H424 C430 0.930 . S
H425 C433 0.930 1_655 S
H426 C434 0.930 . S
H427 C435 0.930 . S
H428 C438 0.930 . S
H429 C439 0.930 . S
C430 H424 0.930 . S
C430 C431 1.355 1_455 S
C430 C432 1.415 . S
C431 C430 1.355 1_655 S
C431 C433 1.419 1_655 S
C432 C430 1.415 . S
C432 C437 1.425 . S
C432 C439 1.409 . S
C433 H425 0.930 1_455 S
C433 C431 1.419 1_455 S
C433 C434 1.362 . S
C434 H426 0.930 . S
C434 C433 1.362 . S
C434 C437 1.409 . S
C435 H427 0.930 . S
C435 C436 1.355 . S
C435 C437 1.415 . S
C436 C435 1.355 . S
C436 C438 1.419 . S
C437 C432 1.425 . S
C437 C434 1.409 . S
C437 C435 1.415 . S
C438 H428 0.930 . S
C438 C436 1.419 . S
C438 C439 1.362 . S
C439 H429 0.930 . S
C439 C432 1.409 . S
C439 C438 1.362 . S
H440 C446 0.930 . S
H441 C449 0.930 . S
H442 C450 0.930 . S
H443 C451 0.930 . S
H444 C454 0.930 . S
H445 C455 0.930 . S
C446 H440 0.930 . S
C446 C447 1.355 1_545 S
C446 C448 1.415 . S
C447 C446 1.355 1_565 S
C447 C449 1.419 . S
C448 C446 1.415 . S
C448 C453 1.425 . S
C448 C455 1.409 . S
C449 H441 0.930 . S
C449 C447 1.419 . S
C449 C450 1.362 . S
C450 H442 0.930 . S
C450 C449 1.362 . S
C450 C453 1.409 1_565 S
C451 H443 0.930 . S
C451 C452 1.355 . S
C451 C453 1.415 . S
C452 C451 1.355 . S
C452 C454 1.419 . S
C453 C448 1.425 . S
C453 C450 1.409 1_545 S
C453 C451 1.415 . S
C454 H444 0.930 . S
C454 C452 1.419 . S
C454 C455 1.362 . S
C455 H445 0.930 . S
C455 C448 1.409 . S
C455 C454 1.362 . S
H456 C462 0.930 . S
H457 C465 0.930 . S
H458 C466 0.930 . S
H459 C467 0.930 . S
H460 C470 0.930 . S
H461 C471 0.930 . S
C462 H456 0.930 . S
C462 C463 1.355 . S
C462 C464 1.415 . S
C463 C462 1.355 . S
C463 C465 1.419 . S
C464 C462 1.415 . S
C464 C469 1.425 . S
C464 C471 1.409 . S
C465 H457 0.930 . S
C465 C463 1.419 . S
C465 C466 1.362 . S
C466 H458 0.930 . S
C466 C465 1.362 . S
C466 C469 1.409 . S
C467 H459 0.930 . S
C467 C468 1.355 . S
C467 C469 1.415 . S
C468 C467 1.355 . S
C468 C470 1.419 . S
C469 C464 1.425 . S
C469 C466 1.409 . S
C469 C467 1.415 . S
C470 H460 0.930 . S
C470 C468 1.419 . S
C470 C471 1.362 . S
C471 H461 0.930 . S
C471 C464 1.409 . S
C471 C470 1.362 . S
H472 C478 0.930 . S
H473 C481 0.930 . S
H474 C482 0.930 . S
H475 C483 0.930 . S
H476 C486 0.930 . S
H477 C487 0.930 . S
C478 H472 0.930 . S
C478 C479 1.355 . S
C478 C480 1.415 . S
C479 C478 1.355 . S
C479 C481 1.419 . S
C480 C478 1.415 . S
C480 C485 1.425 . S
C480 C487 1.409 . S
C481 H473 0.930 . S
C481 C479 1.419 . S
C481 C482 1.362 . S
C482 H474 0.930 . S
C482 C481 1.362 . S
C482 C485 1.409 . S
C483 H475 0.930 . S
C483 C484 1.355 . S
C483 C485 1.415 . S
C484 C483 1.355 . S
C484 C486 1.419 . S
C485 C480 1.425 . S
C485 C482 1.409 . S
C485 C483 1.415 . S
C486 H476 0.930 . S
C486 C484 1.419 . S
C486 C487 1.362 . S
C487 H477 0.930 . S
C487 C480 1.409 . S
C487 C486 1.362 . S
H488 C494 0.921 1_655 S
H489 C497 0.930 . S
H490 C498 0.930 . S
H491 C499 0.930 . S
H492 C502 0.930 . S
H493 C503 0.930 1_554 S
C494 H488 0.921 1_455 S
C494 C495 1.360 . S
C494 C496 1.419 . S
C495 C494 1.360 . S
C495 C497 1.419 . S
C496 C494 1.419 . S
C496 C501 1.425 . S
C496 C503 1.409 1_455 S
C497 H489 0.930 . S
C497 C495 1.419 . S
C497 C498 1.362 . S
C498 H490 0.930 . S
C498 C497 1.362 . S
C498 C501 1.409 . S
C499 H491 0.930 . S
C499 C500 1.355 . S
C499 C501 1.415 . S
C500 C499 1.355 . S
C500 C502 1.419 . S
C501 C496 1.425 . S
C501 C498 1.409 . S
C501 C499 1.415 . S
C502 H492 0.930 . S
C502 C500 1.419 . S
C502 C503 1.362 1_455 S
C503 H493 0.930 1_556 S
C503 C496 1.409 1_655 S
C503 C502 1.362 1_655 S
H504 C510 0.930 . S
H505 C513 0.930 . S
H506 C514 0.930 . S
H507 C515 0.930 . S
H508 C518 0.930 . S
H509 C519 0.930 . S
C510 H504 0.930 . S
C510 C511 1.355 1_565 S
C510 C512 1.415 . S
C511 C510 1.355 1_545 S
C511 C513 1.419 . S
C512 C510 1.415 . S
C512 C517 1.425 1_565 S
C512 C519 1.409 . S
C513 H505 0.930 . S
C513 C511 1.419 . S
C513 C514 1.362 . S
C514 H506 0.930 . S
C514 C513 1.362 . S
C514 C517 1.409 . S
C515 H507 0.930 . S
C515 C516 1.355 . S
C515 C517 1.415 . S
C516 C515 1.355 . S
C516 C518 1.419 1_545 S
C517 C512 1.425 1_545 S
C517 C514 1.409 . S
C517 C515 1.415 . S
C518 H508 0.930 . S
C518 C516 1.419 1_565 S
C518 C519 1.362 . S
C519 H509 0.930 . S
C519 C512 1.409 . S
C519 C518 1.362 . S
H520 C526 0.930 . S
H521 C529 0.930 . S
H522 C530 0.930 . S
H523 C531 0.930 . S
H524 C534 0.930 . S
H525 C535 0.930 . S
C526 H520 0.930 . S
C526 C527 1.355 . S
C526 C528 1.415 . S
C527 C526 1.355 . S
C527 C529 1.419 . S
C528 C526 1.415 . S
C528 C533 1.425 . S
C528 C535 1.409 . S
C529 H521 0.930 . S
C529 C527 1.419 . S
C529 C530 1.362 . S
C530 H522 0.930 . S
C530 C529 1.362 . S
C530 C533 1.409 . S
C531 H523 0.930 . S
C531 C532 1.355 . S
C531 C533 1.415 . S
C532 C531 1.355 . S
C532 C534 1.419 . S
C533 C528 1.425 . S
C533 C530 1.409 . S
C533 C531 1.415 . S
C534 H524 0.930 . S
C534 C532 1.419 . S
C534 C535 1.362 . S
C535 H525 0.930 . S
C535 C528 1.409 . S
C535 C534 1.362 . S
H536 C542 0.930 . S
H537 C545 0.930 1_554 S
H538 C546 0.930 1_554 S
H539 C547 0.930 . S
H540 C550 0.930 . S
H541 C551 0.930 . S
C542 H536 0.930 . S
C542 C543 1.355 . S
C542 C544 1.415 . S
C543 C542 1.355 . S
C543 C545 1.419 . S
C544 C542 1.415 . S
C544 C549 1.425 . S
C544 C551 1.409 . S
C545 H537 0.930 1_556 S
C545 C543 1.419 . S
C545 C546 1.362 . S
C546 H538 0.930 1_556 S
C546 C545 1.362 . S
C546 C549 1.409 . S
C547 H539 0.930 . S
C547 C548 1.355 . S
C547 C549 1.415 . S
C548 C547 1.355 . S
C548 C550 1.419 . S
C549 C544 1.425 . S
C549 C546 1.409 . S
C549 C547 1.415 . S
C550 H540 0.930 . S
C550 C548 1.419 . S
C550 C551 1.362 . S
C551 H541 0.930 . S
C551 C544 1.409 . S
C551 C550 1.362 . S
H552 C558 0.930 . S
H553 C561 0.930 . S
H554 C562 0.930 . S
H555 C563 0.930 . S
H556 C566 0.930 . S
H557 C567 0.930 . S
C558 H552 0.930 . S
C558 C559 1.355 . S
C558 C560 1.415 . S
C559 C558 1.355 . S
C559 C561 1.419 1_655 S
C560 C558 1.415 . S
C560 C565 1.425 1_655 S
C560 C567 1.409 . S
C561 H553 0.930 . S
C561 C559 1.419 1_455 S
C561 C562 1.362 . S
C562 H554 0.930 . S
C562 C561 1.362 . S
C562 C565 1.409 . S
C563 H555 0.930 . S
C563 C564 1.355 1_455 S
C563 C565 1.415 . S
C564 C563 1.355 1_655 S
C564 C566 1.419 . S
C565 C560 1.425 1_455 S
C565 C562 1.409 . S
C565 C563 1.415 . S
C566 H556 0.930 . S
C566 C564 1.419 . S
C566 C567 1.362 . S
C567 H557 0.930 . S
C567 C560 1.409 . S
C567 C566 1.362 . S
H568 C574 0.930 . S
H569 C577 0.930 . S
H570 C578 0.930 . S
H571 C579 0.930 1_545 S
H572 C582 0.930 . S
H573 C583 0.930 . S
C574 H568 0.930 . S
C574 C575 1.355 . S
C574 C576 1.415 . S
C575 C574 1.355 . S
C575 C577 1.419 1_565 S
C576 C574 1.415 . S
C576 C581 1.425 . S
C576 C583 1.409 . S
C577 H569 0.930 . S
C577 C575 1.419 1_545 S
C577 C578 1.362 . S
C578 H570 0.930 . S
C578 C577 1.362 . S
C578 C581 1.409 1_545 S
C579 H571 0.930 1_565 S
C579 C580 1.355 . S
C579 C581 1.415 . S
C580 C579 1.355 . S
C580 C582 1.419 . S
C581 C576 1.425 . S
C581 C578 1.409 1_565 S
C581 C579 1.415 . S
C582 H572 0.930 . S
C582 C580 1.419 . S
C582 C583 1.362 . S
C583 H573 0.930 . S
C583 C576 1.409 . S
C583 C582 1.362 . S
H584 C590 0.930 . S
H585 C593 0.930 . S
H586 C594 0.930 . S
H587 C595 0.930 . S
H588 C598 0.930 . S
H589 C599 0.930 . S
C590 H584 0.930 . S
C590 C591 1.355 . S
C590 C592 1.415 . S
C591 C590 1.355 . S
C591 C593 1.419 . S
C592 C590 1.415 . S
C592 C597 1.425 . S
C592 C599 1.409 . S
C593 H585 0.930 . S
C593 C591 1.419 . S
C593 C594 1.362 . S
C594 H586 0.930 . S
C594 C593 1.362 . S
C594 C597 1.409 . S
C595 H587 0.930 . S
C595 C596 1.355 . S
C595 C597 1.415 . S
C596 C595 1.355 . S
C596 C598 1.419 . S
C597 C592 1.425 . S
C597 C594 1.409 . S
C597 C595 1.415 . S
C598 H588 0.930 . S
C598 C596 1.419 . S
C598 C599 1.362 . S
C599 H589 0.930 . S
C599 C592 1.409 . S
C599 C598 1.362 . S
H600 C606 0.930 . S
H601 C609 0.930 . S
H602 C610 0.930 . S
H603 C611 0.930 . S
H604 C614 0.930 . S
H605 C615 0.930 . S
C606 H600 0.930 . S
C606 C607 1.355 . S
C606 C608 1.415 . S
C607 C606 1.355 . S
C607 C609 1.419 . S
C608 C606 1.415 . S
C608 C613 1.425 . S
C608 C615 1.409 . S
C609 H601 0.930 . S
C609 C607 1.419 . S
C609 C610 1.362 . S
C610 H602 0.930 . S
C610 C609 1.362 . S
C610 C613 1.409 . S
C611 H603 0.930 . S
C611 C612 1.355 . S
C611 C613 1.415 . S
C612 C611 1.355 . S
C612 C614 1.419 . S
C613 C608 1.425 . S
C613 C610 1.409 . S
C613 C611 1.415 . S
C614 H604 0.930 . S
C614 C612 1.419 . S
C614 C615 1.362 . S
C615 H605 0.930 . S
C615 C608 1.409 . S
C615 C614 1.362 . S
C239 C61 1.825 1_545 S
C244 C82 2.045 1_545 S
C260 C122 2.081 . S
C255 C70 1.896 . S
C276 C162 2.070 . S
C271 C43 1.866 . S
C292 C202 2.069 1_455 S
C287 C52 1.852 . S
C308 C91 2.058 1_565 S
C303 C25 1.910 1_545 S
C319 C34 1.867 . S
C324 C131 2.080 . S
C335 C7 1.928 . S
C340 C171 2.073 . S
C351 C16 1.910 . S
C356 C211 2.058 1_655 S
C372 C88 0.737 . S
C367 C50 0.728 1_455 S
C388 C128 0.614 . S
C383 C59 0.646 1_545 S
C404 C168 0.572 . S
C399 C67 0.604 . S
C415 C41 0.665 . S
C420 C208 0.638 . S
C431 C14 0.706 . S
C436 C79 0.696 . S
C452 C119 0.752 . S
C447 C23 0.693 . S
C468 C159 0.758 . S
C463 C31 0.719 . S
C479 C5 0.601 . S
C484 C199 0.573 . S
C495 C49 2.177 1_455 S
C500 C83 2.392 . S
C511 C58 2.104 1_545 S
C516 C123 2.343 . S
C532 C163 2.328 . S
C527 C68 2.072 . S
C548 C203 2.404 . S
C543 C40 2.089 . S
C559 C13 2.105 . S
C564 C74 2.425 . S
C580 C114 2.369 . S
C575 C22 2.055 . S
C596 C154 2.349 . S
C591 C32 2.043 . S
C607 C4 2.134 . S
C612 C194 2.413 . S
