# Generated by pormake.
# Topology anh, (6,3)-cn, num edge types: 1
# Building blocks:
#     Node 0, Type 0, BuildingBlock: NUHQIS_clean_sbu_0, # of connection points: 6
#     Node 1, Type 0, BuildingBlock: NUHQIS_clean_sbu_0, # of connection points: 6
#     Node 2, Type 0, BuildingBlock: NUHQIS_clean_sbu_0, # of connection points: 6
#     Node 3, Type 1, BuildingBlock: PAMTOO_clean_linker_0, # of connection points: 3
#     Node 4, Type 1, BuildingBlock: PAMTOO_clean_linker_0, # of connection points: 3
#     Node 5, Type 1, BuildingBlock: PAMTOO_clean_linker_0, # of connection points: 3
#     Node 6, Type 1, BuildingBlock: PAMTOO_clean_linker_0, # of connection points: 3
#     Node 7, Type 1, BuildingBlock: PAMTOO_clean_linker_0, # of connection points: 3
#     Node 8, Type 1, BuildingBlock: PAMTOO_clean_linker_0, # of connection points: 3
#     Edge 9, Type (0, 1), BuildingBlock: TEMPAE_clean_linker_10, # of connection points: 2
#     Edge 10, Type (0, 1), BuildingBlock: TEMPAE_clean_linker_10, # of connection points: 2
#     Edge 11, Type (0, 1), BuildingBlock: TEMPAE_clean_linker_10, # of connection points: 2
#     Edge 12, Type (0, 1), BuildingBlock: TEMPAE_clean_linker_10, # of connection points: 2
#     Edge 13, Type (0, 1), BuildingBlock: TEMPAE_clean_linker_10, # of connection points: 2
#     Edge 14, Type (0, 1), BuildingBlock: TEMPAE_clean_linker_10, # of connection points: 2
#     Edge 15, Type (0, 1), BuildingBlock: TEMPAE_clean_linker_10, # of connection points: 2
#     Edge 16, Type (0, 1), BuildingBlock: TEMPAE_clean_linker_10, # of connection points: 2
#     Edge 17, Type (0, 1), BuildingBlock: TEMPAE_clean_linker_10, # of connection points: 2
#     Edge 18, Type (0, 1), BuildingBlock: TEMPAE_clean_linker_10, # of connection points: 2
#     Edge 19, Type (0, 1), BuildingBlock: TEMPAE_clean_linker_10, # of connection points: 2
#     Edge 20, Type (0, 1), BuildingBlock: TEMPAE_clean_linker_10, # of connection points: 2
#     Edge 21, Type (0, 1), BuildingBlock: TEMPAE_clean_linker_10, # of connection points: 2
#     Edge 22, Type (0, 1), BuildingBlock: TEMPAE_clean_linker_10, # of connection points: 2
#     Edge 23, Type (0, 1), BuildingBlock: TEMPAE_clean_linker_10, # of connection points: 2
#     Edge 24, Type (0, 1), BuildingBlock: TEMPAE_clean_linker_10, # of connection points: 2
#     Edge 25, Type (0, 1), BuildingBlock: TEMPAE_clean_linker_10, # of connection points: 2
#     Edge 26, Type (0, 1), BuildingBlock: TEMPAE_clean_linker_10, # of connection points: 2
# Relax obj value: 0.249
# Max RMSD: 0.144
# Mean RMSD: 0.118
data_MOF--net-anh--node1-NUHQIS_clean_sbu_0--node2-PAMTOO_clean_linker_0--edge1-TEMPAE_clean_linker_10
_symmetry_space_group_name_H-M    P1
_symmetry_Int_Tables_number       1
_symmetry_cell_setting            triclinic
loop_
_symmetry_equiv_pos_as_xyz
'x, y, z'
_cell_length_a     31.294241
_cell_length_b     31.36557
_cell_length_c     50.268508
_cell_angle_alpha  86.169221
_cell_angle_beta   94.252795
_cell_angle_gamma 119.9525
loop_
_atom_site_label
_atom_site_type_symbol
_atom_site_fract_x
_atom_site_fract_y
_atom_site_fract_z
_atom_type_partial_charge
Tb0 Tb 0.2004 0.59436 0.15994 0.0
Eu1 Eu 0.14281 0.65349 0.1432 0.0
C2 C 0.1581 0.62674 0.20256 0.0
C3 C 1.07974 0.53242 0.15199 0.0
C4 C 0.28343 0.54349 0.18854 0.0
C5 C 0.3147 0.49234 0.20996 0.0
C6 C 0.27511 0.49909 0.20124 0.0
C7 C 0.3319 0.58301 0.18708 0.0
C8 C 0.37173 0.5764 0.19602 0.0
C9 C 0.36355 0.53003 0.20616 0.0
C10 C 0.24154 0.54416 0.17369 0.0
O11 O 0.1814 0.58354 0.11702 0.0
O12 O 0.17779 0.65334 0.10599 0.0
O13 O 0.22309 0.71478 0.15322 0.0
O14 O 0.26419 0.67096 0.1558 0.0
C15 C 0.18213 0.6163 0.09901 0.0
O16 O 1.09665 0.67282 0.11646 0.0
O17 O 0.12457 0.7083 0.15446 0.0
O18 O 0.12402 0.62189 0.18456 0.0
O19 O 0.19916 0.6303 0.19541 0.0
O20 O 0.1212 0.53576 0.16292 0.0
O21 O 1.08078 0.572 0.1401 0.0
C22 C 0.26518 0.71387 0.15536 0.0
O23 O 0.20808 0.54467 0.18739 0.0
O24 O 0.25049 0.57157 0.15185 0.0
C25 C 1.04478 0.69042 0.13943 0.0
C26 C 0.9485 0.66941 0.14841 0.0
C27 C 0.98623 0.71837 0.14456 0.0
C28 C 1.03414 0.72879 0.14 0.0
C29 C 1.00764 0.64173 0.14446 0.0
C30 C 0.95982 0.63129 0.14877 0.0
C31 C 1.09449 0.70109 0.13367 0.0
H32 H 0.30666 0.45599 0.21739 0.0
H33 H 0.2379 0.46821 0.20257 0.0
H34 H 0.33907 0.61785 0.17758 0.0
H35 H 0.40888 0.60652 0.19329 0.0
H36 H 0.97823 0.74828 0.14402 0.0
H37 H 1.06261 0.76662 0.13642 0.0
H38 H 1.0154 0.6117 0.14454 0.0
H39 H 0.93136 0.59329 0.15189 0.0
Tb40 Tb 0.76753 0.12976 0.48835 0.0
Eu41 Eu 0.65054 0.07508 0.47714 0.0
C42 C 0.69526 0.08534 0.5347 0.0
C43 C 0.70871 1.00986 0.48469 0.0
C44 C 0.88985 0.22581 0.51069 0.0
C45 C 0.97042 0.29844 0.5161 0.0
C46 C 0.94134 0.24821 0.51127 0.0
C47 C 0.86775 0.25291 0.51713 0.0
C48 C 0.89655 0.30315 0.5214 0.0
C49 C 0.94818 0.32709 0.5197 0.0
C50 C 0.85904 0.17695 0.49967 0.0
O51 O 0.7547 0.11035 0.4462 0.0
O52 O 0.68447 0.11465 0.4389 0.0
O53 O 0.67131 0.15348 0.48892 0.0
O54 O 0.75381 0.19344 0.48172 0.0
C55 C 0.723 0.11578 0.42979 0.0
O56 O 0.58278 1.02566 0.45431 0.0
O57 O 0.58076 1.06746 0.48668 0.0
O58 O 0.66338 1.05257 0.51843 0.0
O59 O 0.7325 0.12583 0.52531 0.0
O60 O 0.74992 1.05127 0.49078 0.0
O61 O 0.66744 1.01084 0.47746 0.0
C62 C 0.71351 0.19528 0.48629 0.0
O63 O 0.82703 0.1434 0.51553 0.0
O64 O 0.83919 0.17741 0.47599 0.0
C65 C 0.50759 0.99286 0.47694 0.0
C66 C 0.40943 0.9277 0.49044 0.0
C67 C 0.42261 0.93601 0.46363 0.0
C68 C 0.47118 0.96828 0.45699 0.0
C69 C 0.49544 0.98225 0.50389 0.0
C70 C 0.44663 0.94995 0.51058 0.0
C71 C 0.55526 1.03435 0.46893 0.0
H72 H 1.01012 0.31536 0.51536 0.0
H73 H 0.95894 0.22758 0.50654 0.0
H74 H 0.82796 0.23598 0.51705 0.0
H75 H 0.87776 0.32363 0.52385 0.0
H76 H 0.39485 0.92018 0.44755 0.0
H77 H 0.47969 0.97626 0.43611 0.0
H78 H 0.52303 1.0007 0.51971 0.0
H79 H 0.43768 0.94389 0.53139 0.0
Tb80 Tb 0.73661 0.65175 0.82103 0.0
Eu81 Eu 0.67553 0.53363 0.81714 0.0
C82 C 0.70557 0.58161 0.87185 0.0
C83 C 0.79822 0.59213 0.82175 0.0
C84 C 0.76677 0.77545 0.83903 0.0
C85 C 0.78368 0.85775 0.84748 0.0
C86 C 0.80028 0.82577 0.84136 0.0
C87 C 0.71731 0.7568 0.84483 0.0
C88 C 0.70051 0.78867 0.85048 0.0
C89 C 0.73311 0.83984 0.8508 0.0
C90 C 0.78192 0.74316 0.82809 0.0
O91 O 0.74067 0.63922 0.77912 0.0
O92 O 0.67225 0.56308 0.77564 0.0
O93 O 0.6166 0.55478 0.82488 0.0
O94 O 0.65905 0.63788 0.81564 0.0
C95 C 0.70691 0.60334 0.76451 0.0
O96 O 0.6564 0.46504 0.79842 0.0
O97 O 0.61616 0.46425 0.83217 0.0
O98 O 0.70924 0.54983 0.85827 0.0
O99 O 0.70438 0.61912 0.85943 0.0
O100 O 0.79755 0.63369 0.82428 0.0
O101 O 0.75635 0.55018 0.81783 0.0
C102 C 0.61698 0.59717 0.82102 0.0
O103 O 0.78496 0.7112 0.84492 0.0
O104 O 0.75864 0.72313 0.80575 0.0
C105 C 0.61893 0.39122 0.82557 0.0
C106 C 0.59117 0.29291 0.84067 0.0
C107 C 0.60661 0.31163 0.81475 0.0
C108 C 0.62024 0.36015 0.80732 0.0
C109 C 0.60685 0.37385 0.85204 0.0
C110 C 0.5931 0.32504 0.85953 0.0
C111 C 0.62265 0.4381 0.81546 0.0
H112 H 0.80999 0.89678 0.84816 0.0
H113 H 0.83877 0.84061 0.83725 0.0
H114 H 0.69106 0.71788 0.84345 0.0
H115 H 0.66127 0.77328 0.85257 0.0
H116 H 0.6047 0.28791 0.79947 0.0
H117 H 0.62887 0.37243 0.78675 0.0
H118 H 0.60555 0.39706 0.86661 0.0
H119 H 0.58184 0.31188 0.87968 0.0
H120 H 0.78299 0.2176 0.22685 0.0
H121 H 0.65633 1.07252 0.22091 0.0
H122 H 0.71221 0.16348 0.14975 0.0
H123 H 0.58161 0.07948 0.1523 0.0
C124 C 0.58881 1.05945 0.16952 0.0
O125 O 0.63951 1.07348 0.1702 0.0
H126 H 0.58136 1.07312 0.1875 0.0
C127 C 0.75451 0.18896 0.21466 0.0
C128 C 0.75392 0.19754 0.18673 0.0
C129 C 0.71984 0.14467 0.22737 0.0
C130 C 0.68233 0.10733 0.21164 0.0
C131 C 0.67739 0.11326 0.18388 0.0
C132 C 0.71429 0.15865 0.17123 0.0
H133 H 0.70502 0.6921 0.56113 0.0
H134 H 0.71822 0.56336 0.55617 0.0
H135 H 0.72327 0.64956 0.48447 0.0
H136 H 0.66991 0.51649 0.48187 0.0
C137 C 0.69118 0.51707 0.50068 0.0
O138 O 0.72713 0.56684 0.50532 0.0
H139 H 0.66397 0.50323 0.51658 0.0
C140 C 0.70968 0.66777 0.54887 0.0
C141 C 0.71541 0.67874 0.52121 0.0
C142 C 0.71125 0.62725 0.56165 0.0
C143 C 0.71668 0.59443 0.54636 0.0
C144 C 0.7194 0.60015 0.51848 0.0
C145 C 0.71895 0.64309 0.50577 0.0
H146 H 0.1115 0.58579 0.89856 0.0
H147 H 0.25351 0.59845 0.89344 0.0
H148 H 0.1732 0.60683 0.8214 0.0
H149 H 0.25199 0.55338 0.82016 0.0
C150 C 0.27291 0.57365 0.83827 0.0
O151 O 0.25934 0.60957 0.84215 0.0
H152 H 0.25986 0.54579 0.85504 0.0
C153 C 0.14062 0.5906 0.88623 0.0
C154 C 0.13578 0.5975 0.85836 0.0
C155 C 0.18251 0.59139 0.89907 0.0
C156 C 0.22096 0.59732 0.88363 0.0
C157 C 0.21825 0.60132 0.85561 0.0
C158 C 0.17508 0.60155 0.84286 0.0
H159 H 1.04884 0.60163 0.39838 0.0
H160 H 1.1023 0.75463 0.37631 0.0
H161 H 1.06973 0.70384 0.4574 0.0
H162 H 1.04327 0.76718 0.4465 0.0
C163 C 1.07797 0.79772 0.43832 0.0
O164 O 1.1019 0.78056 0.42391 0.0
H165 H 1.06818 0.82176 0.42514 0.0
C166 C 1.05872 0.6386 0.40344 0.0
C167 C 1.05567 0.64796 0.42993 0.0
C168 C 1.07699 0.67692 0.38389 0.0
C169 C 1.08734 0.72406 0.39072 0.0
C170 C 1.08389 0.73355 0.41707 0.0
C171 C 1.06997 0.69591 0.4368 0.0
H172 H 0.59381 0.97994 0.73172 0.0
H173 H 0.49519 1.03371 0.70354 0.0
H174 H 0.50045 0.99083 0.78595 0.0
H175 H 0.40849 0.95803 0.76719 0.0
C176 C 0.41446 0.99553 0.7616 0.0
O177 O 0.45883 1.02471 0.74957 0.0
H178 H 0.38363 0.99128 0.74748 0.0
C179 C 0.56558 0.98904 0.73525 0.0
C180 C 0.54829 0.98197 0.76101 0.0
C181 C 0.5481 1.00922 0.71436 0.0
C182 C 0.50935 1.01787 0.71912 0.0
C183 C 0.49166 1.0105 0.74478 0.0
C184 C 0.51272 0.99462 0.76592 0.0
H185 H 0.6592 0.57058 0.07246 0.0
H186 H 0.53828 0.42543 0.05709 0.0
H187 H 0.55795 0.48774 0.13357 0.0
H188 H 0.54629 0.38323 0.12666 0.0
C189 C 0.50805 0.37738 0.1243 0.0
O190 O 0.50454 0.40926 0.10497 0.0
H191 H 0.48346 0.33891 0.11807 0.0
C192 C 0.62629 0.53787 0.07906 0.0
C193 C 0.61258 0.53337 0.10551 0.0
C194 C 0.59952 0.49966 0.06127 0.0
C195 C 0.55865 0.45594 0.07027 0.0
C196 C 0.54382 0.4515 0.09639 0.0
C197 C 0.56962 0.49099 0.11354 0.0
C198 C 0.40319 0.48135 0.22566 0.0
C199 C 0.40347 0.51717 0.20719 0.0
C200 C 0.42886 0.45661 0.22107 0.0
C201 C 0.45502 0.46798 0.19749 0.0
C202 C 0.46145 0.50905 0.18105 0.0
C203 C 0.43554 0.53311 0.18609 0.0
C204 C 0.42377 0.41512 0.23998 0.0
C205 C 0.49111 0.52407 0.15633 0.0
C206 C 0.52611 0.41467 0.16957 0.0
C207 C 0.49143 0.38535 0.1499 0.0
C208 C 0.51353 0.43809 0.18787 0.0
C209 C 0.46523 0.43143 0.18634 0.0
C210 C 0.42853 0.39608 0.16906 0.0
C211 C 0.4422 0.37346 0.15101 0.0
C212 C 0.5535 0.4739 0.20657 0.0
C213 C 0.3762 0.38692 0.16703 0.0
H214 H 0.37991 0.46998 0.2426 0.0
H215 H 0.43663 0.56099 0.17177 0.0
H216 H 0.39313 0.37975 0.23252 0.0
H217 H 0.45801 0.41259 0.24136 0.0
H218 H 0.4152 0.41985 0.26027 0.0
H219 H 0.49466 0.55841 0.1465 0.0
H220 H 0.52867 0.52999 0.16156 0.0
H221 H 0.47323 0.49429 0.14173 0.0
H222 H 0.56421 0.42346 0.16888 0.0
H223 H 0.41543 0.35037 0.1359 0.0
H224 H 0.53817 0.47955 0.22435 0.0
H225 H 0.57476 0.50994 0.19586 0.0
H226 H 0.57978 0.46083 0.21324 0.0
H227 H 0.35119 0.35454 0.1549 0.0
H228 H 0.37577 0.41974 0.15759 0.0
H229 H 0.36135 0.38078 0.18714 0.0
C230 C 1.01243 0.4039 0.49742 0.0
C231 C 0.97672 0.38175 0.51674 0.0
C232 C 1.03028 0.45303 0.48891 0.0
C233 C 1.01148 0.48053 0.4997 0.0
C234 C 0.97947 0.46022 0.52113 0.0
C235 C 0.96276 0.41108 0.52957 0.0
C236 C 1.06522 0.47364 0.46632 0.0
C237 C 0.95903 0.48852 0.5334 0.0
C238 C 1.07078 0.61283 0.47337 0.0
C239 C 1.04042 0.60778 0.45046 0.0
C240 C 1.0602 0.5723 0.49086 0.0
C241 C 1.01832 0.5261 0.48518 0.0
C242 C 0.98572 0.52194 0.46311 0.0
C243 C 0.99736 0.56283 0.44593 0.0
C244 C 1.09552 0.57824 0.51431 0.0
C245 C 0.94008 0.47351 0.45664 0.0
H246 H 1.02349 0.38194 0.48715 0.0
H247 H 0.93629 0.39479 0.54508 0.0
H248 H 1.04477 0.47535 0.44765 0.0
H249 H 1.09525 0.51161 0.47038 0.0
H250 H 1.08201 0.45062 0.46296 0.0
H251 H 0.94534 0.47316 0.55355 0.0
H252 H 0.98724 0.52801 0.53497 0.0
H253 H 0.92762 0.48617 0.52051 0.0
H254 H 1.10416 0.64772 0.47683 0.0
H255 H 0.97358 0.5593 0.42839 0.0
H256 H 0.11858 0.5622 0.50967 0.0
H257 H 1.07519 0.55828 0.53234 0.0
H258 H 0.12042 0.61758 0.5189 0.0
H259 H 0.95106 0.44722 0.45034 0.0
H260 H 0.9162 0.47766 0.4404 0.0
H261 H 0.9181 0.4571 0.4746 0.0
C262 C 0.66957 0.86126 0.86272 0.0
C263 C 0.71273 0.87387 0.84967 0.0
C264 C 0.64143 0.88399 0.85512 0.0
C265 C 0.65726 0.92035 0.83426 0.0
C266 C 0.70418 0.93802 0.82381 0.0
C267 C 0.73123 0.91435 0.83151 0.0
C268 C 0.5923 0.86518 0.86734 0.0
C269 C 0.72308 0.9777 0.80198 0.0
C270 C 0.56873 0.91842 0.77882 0.0
C271 C 0.5687 0.96215 0.78259 0.0
C272 C 0.5945 0.90252 0.79683 0.0
C273 C 0.62133 0.93147 0.81902 0.0
C274 C 0.61842 0.97383 0.824 0.0
C275 C 0.59192 0.98875 0.80563 0.0
C276 C 0.59571 0.85646 0.79102 0.0
C277 C 0.64587 1.00529 0.84758 0.0
H278 H 0.65582 0.83116 0.87747 0.0
H279 H 0.76449 0.92475 0.82126 0.0
H280 H 0.5842 0.89541 0.86938 0.0
H281 H 0.56266 0.83761 0.85416 0.0
H282 H 0.59111 0.84709 0.88726 0.0
H283 H 0.76308 0.99285 0.79924 0.0
H284 H 0.7026 0.96206 0.78286 0.0
H285 H 0.71691 1.00831 0.80644 0.0
H286 H 0.55001 0.89761 0.76115 0.0
H287 H 0.59167 1.02258 0.80851 0.0
H288 H 0.58646 0.83143 0.80896 0.0
H289 H 0.63347 0.86644 0.78571 0.0
H290 H 0.56951 0.83608 0.77429 0.0
H291 H 0.64603 0.9825 0.8654 0.0
H292 H 0.62952 1.02788 0.85266 0.0
H293 H 0.6848 1.03068 0.84261 0.0
C294 C 0.86129 0.62316 0.13171 0.0
C295 C 0.89654 0.65733 0.14935 0.0
C296 C 0.81191 0.61132 0.13138 0.0
C297 C 0.79705 0.63367 0.14954 0.0
C298 C 0.83243 0.66788 0.16772 0.0
C299 C 0.88213 0.67994 0.16712 0.0
C300 C 0.77579 0.57502 0.1113 0.0
C301 C 0.81846 0.69241 0.18751 0.0
C302 C 0.67953 0.61761 0.11777 0.0
C303 C 0.64889 0.56801 0.12532 0.0
C304 C 0.72761 0.64413 0.12906 0.0
C305 C 0.7443 0.62045 0.14856 0.0
C306 C 0.70974 0.57499 0.16042 0.0
C307 C 0.66215 0.54884 0.14846 0.0
C308 C 0.76264 0.69386 0.11692 0.0
C309 C 0.72525 0.55021 0.18267 0.0
H310 H 0.87268 0.60631 0.11772 0.0
H311 H 0.90958 0.70651 0.18074 0.0
H312 H 0.74658 0.54232 0.12182 0.0
H313 H 0.75757 0.59209 0.09849 0.0
H314 H 0.79388 0.56223 0.09817 0.0
H315 H 0.84389 0.70264 0.20554 0.0
H316 H 0.82139 0.72676 0.17815 0.0
H317 H 0.78005 0.66854 0.19379 0.0
H318 H 0.6684 0.63348 0.10071 0.0
H319 H 0.63824 0.51107 0.15511 0.0
H320 H 0.78482 0.6894 0.10224 0.0
H321 H 0.78851 0.71871 0.13244 0.0
H322 H 0.74253 0.71138 0.10641 0.0
H323 H 0.7419 0.53049 0.17406 0.0
H324 H 0.69312 0.52291 0.19411 0.0
H325 H 0.75331 0.57766 0.19653 0.0
C326 C 0.32287 0.86046 0.48165 0.0
C327 C 0.35638 0.90113 0.49651 0.0
C328 C 0.2722 0.84385 0.48108 0.0
C329 C 0.25459 0.86782 0.49635 0.0
C330 C 0.28744 0.90425 0.51424 0.0
C331 C 0.33825 0.92102 0.51388 0.0
C332 C 0.23837 0.80406 0.46201 0.0
C333 C 0.26986 0.92865 0.53204 0.0
C334 C 0.15409 0.87242 0.45366 0.0
C335 C 0.11414 0.8264 0.46036 0.0
C336 C 0.19963 0.89008 0.4678 0.0
C337 C 0.20471 0.86103 0.48929 0.0
C338 C 0.16229 0.81886 0.49887 0.0
C339 C 0.1173 0.80159 0.48403 0.0
C340 C 0.24371 0.93588 0.45715 0.0
C341 C 0.16546 0.78854 0.52269 0.0
H342 H 0.33666 0.84392 0.46889 0.0
H343 H 0.3638 0.9522 0.5257 0.0
H344 H 0.20642 0.77437 0.47251 0.0
H345 H 0.22369 0.81977 0.44583 0.0
H346 H 0.25753 0.78744 0.45276 0.0
H347 H 0.29415 0.94155 0.55043 0.0
H348 H 0.27111 0.9613 0.52131 0.0
H349 H 0.23134 0.90335 0.53779 0.0
H350 H 0.15152 0.89151 0.43534 0.0
H351 H 1.08617 0.76619 0.48943 0.0
H352 H 0.26738 0.92534 0.44714 0.0
H353 H 0.2663 0.9602 0.47364 0.0
H354 H 0.23262 0.95711 0.44248 0.0
H355 H 0.17348 0.76037 0.51598 0.0
H356 H 0.12987 0.76894 0.53279 0.0
H357 H 0.19529 0.8117 0.53731 0.0
C358 C 0.5819 0.21059 0.83374 0.0
C359 C 0.56606 0.23879 0.84601 0.0
C360 C 0.54948 0.16067 0.82927 0.0
C361 C 0.50081 0.1383 0.83826 0.0
C362 C 0.48826 0.16413 0.85522 0.0
C363 C 0.52075 0.21462 0.85851 0.0
C364 C 0.56535 0.13396 0.81193 0.0
C365 C 0.43858 0.14005 0.86744 0.0
C366 C 0.41636 1.06676 0.78144 0.0
C367 C 0.41638 1.02228 0.7857 0.0
C368 C 0.4393 0.10366 0.80015 0.0
C369 C 0.46142 0.09497 0.82402 0.0
C370 C 0.45421 1.04722 0.83024 0.0
C371 C 0.4324 1.01145 0.81071 0.0
C372 C 0.44565 0.1539 0.79256 0.0
C373 C 0.47371 1.03498 0.8562 0.0
H374 H 0.61789 0.2287 0.82521 0.0
H375 H 0.50843 0.23565 0.86869 0.0
H376 H 0.55846 0.09858 0.8218 0.0
H377 H 0.54345 0.12546 0.79266 0.0
H378 H 0.60512 0.15598 0.80764 0.0
H379 H 0.44095 0.15718 0.88654 0.0
H380 H 0.41193 0.14509 0.85368 0.0
H381 H 0.42397 0.09996 0.87116 0.0
H382 H 0.40384 0.07488 0.76206 0.0
H383 H 0.43182 0.97668 0.81418 0.0
H384 H 0.48526 0.18067 0.7897 0.0
H385 H 0.43348 0.16724 0.80867 0.0
H386 H 0.42432 0.15369 0.77384 0.0
H387 H 0.50866 1.03553 0.85292 0.0
H388 H 0.44709 0.99717 0.86345 0.0
H389 H 0.48071 1.06125 0.87191 0.0
C390 C 0.7505 0.95734 0.4802 0.0
C391 C 0.70897 0.96048 0.4867 0.0
C392 C 0.75173 0.91212 0.48233 0.0
C393 C 0.71142 0.86768 0.49254 0.0
C394 C 0.66949 0.87077 0.4993 0.0
C395 C 0.66837 0.91603 0.4958 0.0
C396 C 0.79676 0.91213 0.47354 0.0
C397 C 0.62594 0.82629 0.51117 0.0
C398 C 0.69647 0.73529 0.48677 0.0
C399 C 0.71882 0.72854 0.51099 0.0
C400 C 0.69492 0.78002 0.48011 0.0
C401 C 0.71476 0.81976 0.49818 0.0
C402 C 0.73822 0.8134 0.52221 0.0
C403 C 0.74116 0.7697 0.52775 0.0
C404 C 0.67125 0.78434 0.45364 0.0
C405 C 0.75931 0.85251 0.54287 0.0
H406 H 0.7823 0.99051 0.47296 0.0
H407 H 0.63596 0.91693 0.5012 0.0
H408 H 0.81869 0.90948 0.49126 0.0
H409 H 0.78573 0.87975 0.46128 0.0
H410 H 0.82081 0.94614 0.46177 0.0
H411 H 0.59661 0.83417 0.51612 0.0
H412 H 0.60991 0.79589 0.49699 0.0
H413 H 0.63826 0.81317 0.52962 0.0
H414 H 0.67901 0.70517 0.47318 0.0
H415 H 0.76066 0.76761 0.54605 0.0
H416 H 0.69409 0.82122 0.44403 0.0
H417 H 0.63465 0.78016 0.45682 0.0
H418 H 0.66593 0.75569 0.43983 0.0
H419 H 0.79062 0.88671 0.53476 0.0
H420 H 0.77263 0.84087 0.56152 0.0
H421 H 0.73089 0.86158 0.54792 0.0
C422 C 0.89227 0.63404 0.81546 0.0
C423 C 0.84808 0.59272 0.82397 0.0
C424 C 0.93883 0.6353 0.81759 0.0
C425 C 0.94344 0.5952 0.82973 0.0
C426 C 0.8989 0.55349 0.8385 0.0
C427 C 0.85245 0.55237 0.83506 0.0
C428 C 0.98342 0.68009 0.80672 0.0
C429 C 0.90046 0.51018 0.85243 0.0
C430 C 1.06059 0.57966 0.8246 0.0
C431 C 1.0897 0.60165 0.84791 0.0
C432 C 1.01439 0.57849 0.81797 0.0
C433 C 0.99472 0.59846 0.83518 0.0
C434 C 1.02462 0.62168 0.85823 0.0
C435 C 1.07112 0.62413 0.86372 0.0
C436 C 0.98618 0.55506 0.79251 0.0
C437 C 1.00676 0.64292 0.87794 0.0
H438 H 0.89044 0.6656 0.80663 0.0
H439 H 0.81946 0.5201 0.84198 0.0
H440 H 1.00851 0.70169 0.82344 0.0
H441 H 1.00431 0.66892 0.79467 0.0
H442 H 0.97316 0.70438 0.79412 0.0
H443 H 0.86347 0.48082 0.85857 0.0
H444 H 0.91517 0.49429 0.8391 0.0
H445 H 0.92583 0.5226 0.87043 0.0
H446 H 1.07315 0.56211 0.81178 0.0
H447 H 1.09277 0.64322 0.88127 0.0
H448 H 0.9728 0.57852 0.7817 0.0
H449 H 0.95336 0.51907 0.79729 0.0
H450 H 1.00904 0.5488 0.7791 0.0
H451 H 1.00293 0.67375 0.86831 0.0
H452 H 1.03222 0.65678 0.89585 0.0
H453 H 0.96976 0.61448 0.88453 0.0
C454 C 0.36128 0.7644 0.15916 0.0
C455 C 0.31515 0.76285 0.15746 0.0
C456 C 0.40757 0.80959 0.16107 0.0
C457 C 0.4096 0.85608 0.16144 0.0
C458 C 0.36317 0.85469 0.15977 0.0
C459 C 0.31746 0.80906 0.15781 0.0
C460 C 0.45474 0.80744 0.16268 0.0
C461 C 0.36162 0.90192 0.1601 0.0
C462 C 0.52596 0.97383 0.19037 0.0
C463 C 0.54943 1.00284 0.16754 0.0
C464 C 0.48217 0.92644 0.18873 0.0
C465 C 0.45953 0.90571 0.16358 0.0
C466 C 0.48423 0.93394 0.14048 0.0
C467 C 0.52794 0.98131 0.1427 0.0
C468 C 0.45885 0.8993 0.21422 0.0
C469 C 0.46328 0.91489 0.11306 0.0
H470 H 0.3614 0.72994 0.15897 0.0
H471 H 0.28312 0.80977 0.15658 0.0
H472 H 0.47786 0.82935 0.14581 0.0
H473 H 0.47632 0.82406 0.18137 0.0
H474 H 0.44785 0.76915 0.16214 0.0
H475 H 0.32328 0.89553 0.15877 0.0
H476 H 0.38043 0.9214 0.17872 0.0
H477 H 0.38185 0.92665 0.14313 0.0
H478 H 0.54062 0.98936 0.20979 0.0
H479 H 0.54413 1.00271 0.12469 0.0
H480 H 0.45253 0.86118 0.21451 0.0
H481 H 0.42229 0.89661 0.21528 0.0
H482 H 0.48196 0.91788 0.23222 0.0
H483 H 0.45687 0.87696 0.11168 0.0
H484 H 0.48799 0.93859 0.09709 0.0
H485 H 0.42701 0.91309 0.10944 0.0
C486 C 0.67182 0.24802 0.49083 0.0
C487 C 0.71525 0.24533 0.48862 0.0
C488 C 0.6723 0.29363 0.49297 0.0
C489 C 0.71738 0.33966 0.49326 0.0
C490 C 0.76149 0.33724 0.4913 0.0
C491 C 0.7599 0.29103 0.48888 0.0
C492 C 0.62385 0.29243 0.49485 0.0
C493 C 0.81095 0.38384 0.4917 0.0
C494 C 0.70954 0.45953 0.47416 0.0
C495 C 0.70933 0.47841 0.49893 0.0
C496 C 0.7137 0.41634 0.47208 0.0
C497 C 0.71783 0.38949 0.49527 0.0
C498 C 0.71977 0.40956 0.52034 0.0
C499 C 0.71537 0.45282 0.52185 0.0
C500 C 0.71151 0.39815 0.44474 0.0
C501 C 0.72461 0.38407 0.54592 0.0
H502 H 0.63674 0.21402 0.49074 0.0
H503 H 0.79415 0.29086 0.48731 0.0
H504 H 0.624 0.30924 0.51361 0.0
H505 H 0.61887 0.3146 0.47805 0.0
H506 H 0.59183 0.25441 0.49438 0.0
H507 H 0.84213 0.37631 0.49218 0.0
H508 H 0.81321 0.40721 0.4737 0.0
H509 H 0.81528 0.40533 0.50936 0.0
H510 H 0.70399 0.47735 0.45609 0.0
H511 H 0.71434 0.46535 0.54123 0.0
H512 H 0.67756 0.3619 0.44214 0.0
H513 H 0.74348 0.3927 0.44261 0.0
H514 H 0.71143 0.42403 0.42855 0.0
H515 H 0.6908 0.34765 0.54819 0.0
H516 H 0.73004 0.40577 0.5637 0.0
H517 H 0.75617 0.37741 0.54532 0.0
C518 C 0.56707 0.64318 0.82215 0.0
C519 C 0.56854 0.59868 0.82328 0.0
C520 C 0.52234 0.64453 0.82473 0.0
C521 C 0.47623 0.60035 0.8284 0.0
C522 C 0.47758 0.55544 0.8295 0.0
C523 C 0.52279 0.55517 0.82708 0.0
C524 C 0.5246 0.69376 0.82354 0.0
C525 C 0.43072 0.50696 0.83322 0.0
C526 C 0.36148 0.59715 0.85802 0.0
C527 C 0.32948 0.59171 0.8355 0.0
C528 C 0.40914 0.60171 0.856 0.0
C529 C 0.42685 0.6006 0.83079 0.0
C530 C 0.39548 0.59708 0.80792 0.0
C531 C 0.34813 0.59274 0.81052 0.0
C532 C 0.43992 0.60577 0.88123 0.0
C533 C 0.41104 0.59572 0.78047 0.0
H534 H 0.60125 0.67747 0.81938 0.0
H535 H 0.52207 0.52022 0.82812 0.0
H536 H 0.50122 0.69565 0.80631 0.0
H537 H 0.5096 0.6982 0.84183 0.0
H538 H 0.56283 0.72497 0.82157 0.0
H539 H 0.43704 0.47508 0.83367 0.0
H540 H 0.41432 0.50642 0.85215 0.0
H541 H 0.40328 0.5025 0.81677 0.0
H542 H 0.3482 0.5955 0.87758 0.0
H543 H 0.32443 0.58771 0.79278 0.0
H544 H 0.47793 0.63728 0.87934 0.0
H545 H 0.44284 0.57196 0.88453 0.0
H546 H 0.42389 0.61063 0.899 0.0
H547 H 0.44834 0.62754 0.77708 0.0
H548 H 0.38489 0.59636 0.76447 0.0
H549 H 0.41331 0.56179 0.77888 0.0
C550 C 1.0271 0.44302 0.17069 0.0
C551 C 1.03047 0.48292 0.15423 0.0
C552 C 0.98183 0.39743 0.17376 0.0
C553 C 0.93708 0.38933 0.15985 0.0
C554 C 0.94034 0.42918 0.14287 0.0
C555 C 0.98602 0.47478 0.14048 0.0
C556 C 0.98183 0.35787 0.19252 0.0
C557 C 0.89511 0.42376 0.12711 0.0
C558 C 0.82651 0.25228 0.15529 0.0
C559 C 0.79607 0.24774 0.17597 0.0
C560 C 0.87094 0.29764 0.1493 0.0
C561 C 0.88708 0.34079 0.1643 0.0
C562 C 0.85553 0.3367 0.1845 0.0
C563 C 0.81128 0.29148 0.18976 0.0
C564 C 0.90155 0.2989 0.1272 0.0
C565 C 0.86944 0.38001 0.20152 0.0
H566 H 1.06012 0.44759 0.18172 0.0
H567 H 0.9868 0.50427 0.12762 0.0
H568 H 0.95614 0.34954 0.20867 0.0
H569 H 0.96835 0.32344 0.18168 0.0
H570 H 1.01909 0.36873 0.20172 0.0
H571 H 0.90356 0.456 0.11341 0.0
H572 H 0.8784 0.39009 0.11523 0.0
H573 H 0.86705 0.41939 0.14093 0.0
H574 H 0.81676 0.21975 0.14438 0.0
H575 H 0.7889 0.29003 0.20561 0.0
H576 H 0.93707 0.30305 0.13578 0.0
H577 H 0.91039 0.33117 0.11348 0.0
H578 H 0.88249 0.26491 0.11552 0.0
H579 H 0.90501 0.39038 0.21271 0.0
H580 H 0.84105 0.37201 0.21604 0.0
H581 H 0.87482 0.41236 0.18873 0.0
C582 C 0.19751 0.5762 0.06166 0.0
C583 C 0.1853 0.61043 0.0701 0.0
C584 C 0.20006 0.57054 0.03429 0.0
C585 C 0.18951 0.59929 0.01482 0.0
C586 C 0.17722 0.63388 0.02326 0.0
C587 C 0.17557 0.63921 0.05066 0.0
C588 C 0.21389 0.5337 0.02621 0.0
C589 C 0.16509 0.66493 0.00329 0.0
C590 C 0.23051 0.62092 0.94306 0.0
C591 C 0.18652 0.5888 0.92902 0.0
C592 C 0.23274 0.62304 0.9711 0.0
C593 C 0.18987 0.59268 0.98556 0.0
C594 C 0.14603 0.55867 0.97162 0.0
C595 C 0.14501 0.55689 0.94367 0.0
C596 C 0.28044 0.65941 0.98511 0.0
C597 C 1.09937 0.52565 0.98609 0.0
H598 H 0.20532 0.55393 0.07645 0.0
H599 H 0.16588 0.66564 0.05682 0.0
H600 H 0.18306 0.50503 0.01408 0.0
H601 H 0.24635 0.55223 0.01355 0.0
H602 H 0.22272 0.51542 0.04371 0.0
H603 H 0.15645 0.69031 0.01306 0.0
H604 H 0.19662 0.68709 0.99034 0.0
H605 H 0.13288 0.64079 0.99016 0.0
H606 H 0.26275 0.646 0.93207 0.0
H607 H 1.11111 0.53115 0.93318 0.0
H608 H 0.28977 0.64115 0.0024 0.0
H609 H 0.27612 0.6892 -0.00703 0.0
H610 H 0.31173 0.67631 0.97159 0.0
H611 H 1.10673 0.50491 0.00281 0.0
H612 H 1.06934 0.49897 0.97269 0.0
H613 H 1.08628 0.54842 -0.00517 0.0
C614 C 0.72106 0.15686 0.38589 0.0
C615 C 0.72895 0.12163 0.40057 0.0
C616 C 0.72251 0.16081 0.3579 0.0
C617 C 0.72997 0.1273 0.34406 0.0
C618 C 0.7381 0.09162 0.35887 0.0
C619 C 0.73841 0.08982 0.387 0.0
C620 C 0.71548 0.20055 0.34313 0.0
C621 C 0.74442 1.05408 0.34498 0.0
C622 C 0.67967 0.11003 0.27165 0.0
C623 C 0.72272 0.13782 0.25732 0.0
C624 C 0.68175 0.10457 0.29968 0.0
C625 C 0.7278 0.12897 0.31413 0.0
C626 C 0.77141 0.15685 0.29995 0.0
C627 C 0.76846 0.16004 0.27186 0.0
C628 C 0.63438 1.07329 0.31387 0.0
C629 C 0.82119 0.18457 0.31449 0.0
H630 H 0.7138 0.18152 0.39639 0.0
H631 H 0.74376 1.06207 0.39833 0.0
H632 H 0.74594 0.22212 0.32942 0.0
H633 H 0.68051 0.18364 0.33075 0.0
H634 H 0.71428 0.22618 0.35689 0.0
H635 H 0.75136 1.02941 0.3593 0.0
H636 H 0.71064 1.03124 0.33246 0.0
H637 H 0.77554 1.0727 0.33145 0.0
H638 H 0.64391 0.09317 0.26109 0.0
H639 H 0.80234 0.18035 0.26136 0.0
H640 H 0.62626 0.09699 0.32554 0.0
H641 H 0.63823 1.04673 0.32816 0.0
H642 H 0.60242 1.05247 0.29976 0.0
H643 H 0.82108 0.21136 0.32779 0.0
H644 H 0.85165 0.20483 0.3006 0.0
H645 H 0.8289 0.15879 0.3273 0.0
C646 C 0.74023 0.65133 0.72136 0.0
C647 C 0.70817 0.60708 0.73476 0.0
C648 C 0.74123 0.65463 0.69326 0.0
C649 C 0.70979 0.6126 0.67811 0.0
C650 C 0.67769 0.5678 0.69155 0.0
C651 C 0.67712 0.56565 0.71957 0.0
C652 C 0.77571 0.70323 0.67974 0.0
C653 C 0.64381 0.52198 0.67632 0.0
C654 C 0.67676 0.62966 0.60502 0.0
C655 C 0.7092 0.62087 0.59147 0.0
C656 C 0.67684 0.62743 0.63308 0.0
C657 C 0.70973 0.61551 0.6482 0.0
C658 C 0.74186 0.60559 0.6347 0.0
C659 C 0.74132 0.60852 0.60658 0.0
C660 C 0.64185 0.63816 0.64656 0.0
C661 C 0.77718 0.59229 0.64999 0.0
H662 H 0.76434 0.68357 0.7328 0.0
H663 H 0.65235 0.53111 0.72958 0.0
H664 H 0.80118 0.69885 0.66743 0.0
H665 H 0.7542 0.71557 0.66607 0.0
H666 H 0.79797 0.73242 0.69427 0.0
H667 H 0.62174 0.48975 0.68973 0.0
H668 H 0.61809 0.52859 0.66261 0.0
H669 H 0.6657 0.51275 0.66386 0.0
H670 H 0.65117 0.6384 0.59364 0.0
H671 H 0.76697 0.60225 0.59645 0.0
H672 H 0.66296 0.66925 0.66013 0.0
H673 H 0.61678 0.6057 0.65895 0.0
H674 H 0.61912 0.64763 0.632 0.0
H675 H 0.80294 0.62276 0.66305 0.0
H676 H 0.79913 0.58474 0.63659 0.0
H677 H 0.75649 0.55923 0.66311 0.0
C678 C 0.66293 1.03202 0.57512 0.0
C679 C 0.6835 0.07908 0.56292 0.0
C680 C 0.64413 1.023 0.60057 0.0
C681 C 0.64456 1.06175 0.6137 0.0
C682 C 0.66656 0.10977 0.60174 0.0
C683 C 0.68647 0.11804 0.57652 0.0
C684 C 0.6224 0.97165 0.61299 0.0
C685 C 0.66672 0.15172 0.61491 0.0
C686 C 0.54558 1.01948 0.66421 0.0
C687 C 0.57269 1.024 0.6884 0.0
C688 C 0.56887 1.03339 0.63979 0.0
C689 C 0.6203 1.05121 0.6395 0.0
C690 C 0.64798 1.05636 0.66378 0.0
C691 C 0.62402 1.04343 0.6879 0.0
C692 C 0.53829 1.02821 0.61425 0.0
C693 C 0.70272 0.07442 0.66426 0.0
H694 H 0.66071 1.00196 0.56446 0.0
H695 H 0.70169 0.15425 0.56679 0.0
H696 H 0.63873 0.97282 0.63348 0.0
H697 H 0.58206 0.95565 0.61465 0.0
H698 H 0.62868 0.94679 0.60113 0.0
H699 H 0.68772 0.18734 0.60372 0.0
H700 H 0.62817 0.14379 0.61625 0.0
H701 H 0.68297 0.15554 0.63557 0.0
H702 H 0.50598 1.00431 0.66427 0.0
H703 H 0.64575 1.04866 0.70645 0.0
H704 H 0.53755 0.99969 0.602 0.0
H705 H 0.55512 1.06335 0.6023 0.0
H706 H 0.49967 1.01773 0.61803 0.0
H707 H 0.70943 1.04899 0.65323 0.0
H708 H 0.71906 0.07707 0.68489 0.0
H709 H 0.72232 0.11116 0.65404 0.0
C710 C 0.68909 0.60289 0.91564 0.0
C711 C 0.69416 0.57008 0.90033 0.0
C712 C 0.6743 0.59025 0.94204 0.0
C713 C 0.664 0.54361 0.95322 0.0
C714 C 0.66977 0.51067 0.938 0.0
C715 C 0.68504 0.5244 0.91179 0.0
C716 C 0.66903 0.62652 0.95785 0.0
C717 C 0.65885 0.4605 0.9492 0.0
C718 C 0.66561 0.52772 0.02857 0.0
C719 C 0.6153 0.5061 0.03351 0.0
C720 C 0.68193 0.53969 0.00251 0.0
C721 C 0.64702 0.52917 0.98085 0.0
C722 C 0.596 0.50549 0.98561 0.0
C723 C 0.58072 0.49428 0.01195 0.0
C724 C 0.73662 0.56477 -0.00179 0.0
C725 C 0.55771 0.49323 0.96292 0.0
H726 H 0.69609 0.63821 0.90691 0.0
H727 H 0.68863 0.49866 0.90009 0.0
H728 H 0.63022 0.61034 0.96354 0.0
H729 H 0.69237 0.63451 0.9766 0.0
H730 H 0.6797 0.66175 0.94648 0.0
H731 H 0.66558 0.43938 0.93479 0.0
H732 H 0.68208 0.46436 0.96765 0.0
H733 H 0.61975 0.43887 0.95473 0.0
H734 H 0.6924 0.53606 0.04519 0.0
H735 H 0.54187 0.47786 0.01572 0.0
H736 H 0.74903 0.6016 0.98843 0.0
H737 H 0.74437 0.54317 0.98469 0.0
H738 H 0.75882 0.56944 0.0172 0.0
H739 H 0.56322 0.52764 0.95229 0.0
H740 H 0.51945 0.47268 0.96992 0.0
H741 H 0.5619 0.47082 0.94825 0.0
C742 C 1.10211 0.60226 0.23983 0.0
C743 C 0.14986 0.63031 0.23054 0.0
C744 C 1.09143 0.60861 0.26534 0.0
C745 C 0.12918 0.64498 0.28161 0.0
C746 C 0.17782 0.67281 0.27251 0.0
C747 C 0.18777 0.66461 0.24711 0.0
C748 C 1.03951 0.5771 0.27462 0.0
C749 C 0.21875 0.71257 0.28911 0.0
C750 C 1.08469 0.69342 0.3342 0.0
C751 C 1.08979 0.66863 0.35744 0.0
C752 C 1.0987 0.68711 0.3095 0.0
C753 C 0.11718 0.65438 0.30787 0.0
C754 C 0.12222 0.62908 0.33114 0.0
C755 C 1.10921 0.63707 0.35565 0.0
C756 C 1.09346 0.71528 0.28511 0.0
C757 C 0.14085 0.59314 0.33012 0.0
H758 H 1.07287 0.57554 0.22696 0.0
H759 H 0.22455 0.68666 0.2397 0.0
H760 H 1.04007 0.55903 0.29428 0.0
H761 H 1.0229 0.6005 0.27725 0.0
H762 H 1.01539 0.54821 0.26028 0.0
H763 H 0.2548 0.72987 0.27952 0.0
H764 H 0.2094 0.74158 0.2923 0.0
H765 H 0.22272 0.69723 0.30907 0.0
H766 H 1.06944 0.71757 0.33523 0.0
H767 H 0.11487 0.61881 0.37349 0.0
H768 H 1.0659 0.68924 0.27054 0.0
H769 H 0.12911 0.73587 0.27517 0.0
H770 H 1.08162 0.74171 0.29004 0.0
H771 H 0.11658 0.56345 0.31625 0.0
H772 H 0.14217 0.57606 0.35002 0.0
H773 H 0.17842 0.61204 0.32229 0.0
loop_
_geom_bond_atom_site_label_1
_geom_bond_atom_site_label_2
_geom_bond_distance
_geom_bond_site_symmetry_2
_ccdc_geom_bond_type
Tb0 C10 2.825 . S
Tb0 O11 2.347 . S
Tb0 O14 2.366 . S
Tb0 O19 2.418 . S
Tb0 O20 2.384 1_455 S
Tb0 O23 2.479 . S
Tb0 O24 2.471 . S
Eu1 O12 2.418 . S
Eu1 O13 2.384 1_655 S
Eu1 O16 2.479 . S
Eu1 O17 2.471 . S
Eu1 O18 2.339 1_655 S
Eu1 O21 2.366 . S
Eu1 C31 2.825 . S
C2 O18 1.267 . S
C2 O19 1.265 . S
C3 O20 1.255 . S
C3 O21 1.265 . S
C4 C6 1.380 . S
C4 C7 1.374 . S
C4 C10 1.507 . S
C5 C6 1.384 . S
C5 C9 1.387 . S
C5 H32 0.930 . S
C6 C4 1.380 . S
C6 C5 1.384 . S
C6 H33 0.931 . S
C7 C4 1.374 . S
C7 C8 1.390 . S
C7 H34 0.930 . S
C8 C7 1.390 . S
C8 C9 1.391 . S
C8 H35 0.930 . S
C9 C5 1.387 . S
C9 C8 1.391 . S
C10 Tb0 2.825 . S
C10 C4 1.507 . S
C10 O23 1.238 . S
C10 O24 1.247 . S
O11 Tb0 2.347 . S
O11 C15 1.259 . S
O12 Eu1 2.418 . S
O12 C15 1.265 1_655 S
O13 Eu1 2.384 1_455 S
O13 C22 1.255 . S
O14 Tb0 2.366 . S
O14 C22 1.265 . S
C15 O11 1.259 . S
C15 O12 1.265 1_455 S
O16 Eu1 2.479 . S
O16 C31 1.238 . S
O17 Eu1 2.471 . S
O17 C31 1.247 . S
O18 Eu1 2.339 1_455 S
O18 C2 1.267 . S
O19 Tb0 2.418 . S
O19 C2 1.265 . S
O20 Tb0 2.384 1_655 S
O20 C3 1.255 . S
O21 Eu1 2.366 . S
O21 C3 1.265 . S
C22 O13 1.255 . S
C22 O14 1.265 . S
O23 Tb0 2.479 . S
O23 C10 1.238 . S
O24 Tb0 2.471 . S
O24 C10 1.247 . S
C25 C28 1.380 . S
C25 C29 1.374 . S
C25 C31 1.507 . S
C26 C27 1.387 . S
C26 C30 1.391 . S
C27 C26 1.387 . S
C27 C28 1.384 . S
C27 H36 0.930 . S
C28 C25 1.380 . S
C28 C27 1.384 . S
C28 H37 0.931 . S
C29 C25 1.374 . S
C29 C30 1.390 . S
C29 H38 0.930 . S
C30 C26 1.391 . S
C30 C29 1.390 . S
C30 H39 0.930 . S
C31 Eu1 2.825 . S
C31 O16 1.238 . S
C31 O17 1.247 . S
C31 C25 1.507 . S
H32 C5 0.930 . S
H33 C6 0.931 . S
H34 C7 0.930 . S
H35 C8 0.930 . S
H36 C27 0.930 . S
H37 C28 0.931 . S
H38 C29 0.930 . S
H39 C30 0.930 . S
Tb40 C50 2.825 . S
Tb40 O51 2.347 . S
Tb40 O54 2.366 . S
Tb40 O59 2.418 . S
Tb40 O60 2.384 1_545 S
Tb40 O63 2.479 . S
Tb40 O64 2.471 . S
Eu41 O52 2.418 . S
Eu41 O53 2.384 . S
Eu41 O56 2.479 1_545 S
Eu41 O57 2.471 1_545 S
Eu41 O58 2.347 . S
Eu41 O61 2.366 1_545 S
Eu41 C71 2.825 1_545 S
C42 O58 1.259 . S
C42 O59 1.265 . S
C43 O60 1.255 . S
C43 O61 1.265 . S
C44 C46 1.380 . S
C44 C47 1.374 . S
C44 C50 1.507 . S
C45 C46 1.384 . S
C45 C49 1.387 . S
C45 H72 0.930 . S
C46 C44 1.380 . S
C46 C45 1.384 . S
C46 H73 0.931 . S
C47 C44 1.374 . S
C47 C48 1.390 . S
C47 H74 0.930 . S
C48 C47 1.390 . S
C48 C49 1.391 . S
C48 H75 0.930 . S
C49 C45 1.387 . S
C49 C48 1.391 . S
C50 Tb40 2.825 . S
C50 C44 1.507 . S
C50 O63 1.238 . S
C50 O64 1.247 . S
O51 Tb40 2.347 . S
O51 C55 1.259 . S
O52 Eu41 2.418 . S
O52 C55 1.265 . S
O53 Eu41 2.384 . S
O53 C62 1.255 . S
O54 Tb40 2.366 . S
O54 C62 1.265 . S
C55 O51 1.259 . S
C55 O52 1.265 . S
O56 Eu41 2.479 1_565 S
O56 C71 1.238 . S
O57 Eu41 2.471 1_565 S
O57 C71 1.247 . S
O58 Eu41 2.347 . S
O58 C42 1.259 . S
O59 Tb40 2.418 . S
O59 C42 1.265 . S
O60 Tb40 2.384 1_565 S
O60 C43 1.255 . S
O61 Eu41 2.366 1_565 S
O61 C43 1.265 . S
C62 O53 1.255 . S
C62 O54 1.265 . S
O63 Tb40 2.479 . S
O63 C50 1.238 . S
O64 Tb40 2.471 . S
O64 C50 1.247 . S
C65 C68 1.380 . S
C65 C69 1.374 . S
C65 C71 1.507 . S
C66 C67 1.387 . S
C66 C70 1.391 . S
C67 C66 1.387 . S
C67 C68 1.384 . S
C67 H76 0.930 . S
C68 C65 1.380 . S
C68 C67 1.384 . S
C68 H77 0.931 . S
C69 C65 1.374 . S
C69 C70 1.390 . S
C69 H78 0.930 . S
C70 C66 1.391 . S
C70 C69 1.390 . S
C70 H79 0.930 . S
C71 Eu41 2.825 1_565 S
C71 O56 1.238 . S
C71 O57 1.247 . S
C71 C65 1.507 . S
H72 C45 0.930 . S
H73 C46 0.931 . S
H74 C47 0.930 . S
H75 C48 0.930 . S
H76 C67 0.930 . S
H77 C68 0.931 . S
H78 C69 0.930 . S
H79 C70 0.930 . S
Tb80 C90 2.825 . S
Tb80 O91 2.347 . S
Tb80 O94 2.366 . S
Tb80 O99 2.418 . S
Tb80 O100 2.384 . S
Tb80 O103 2.479 . S
Tb80 O104 2.471 . S
Eu81 O92 2.418 . S
Eu81 O93 2.384 . S
Eu81 O96 2.479 . S
Eu81 O97 2.471 . S
Eu81 O98 2.347 . S
Eu81 O101 2.366 . S
Eu81 C111 2.825 . S
C82 O98 1.259 . S
C82 O99 1.265 . S
C83 O100 1.255 . S
C83 O101 1.265 . S
C84 C86 1.380 . S
C84 C87 1.374 . S
C84 C90 1.507 . S
C85 C86 1.384 . S
C85 C89 1.387 . S
C85 H112 0.930 . S
C86 C84 1.380 . S
C86 C85 1.384 . S
C86 H113 0.931 . S
C87 C84 1.374 . S
C87 C88 1.390 . S
C87 H114 0.930 . S
C88 C87 1.390 . S
C88 C89 1.391 . S
C88 H115 0.930 . S
C89 C85 1.387 . S
C89 C88 1.391 . S
C90 Tb80 2.825 . S
C90 C84 1.507 . S
C90 O103 1.238 . S
C90 O104 1.247 . S
O91 Tb80 2.347 . S
O91 C95 1.259 . S
O92 Eu81 2.418 . S
O92 C95 1.265 . S
O93 Eu81 2.384 . S
O93 C102 1.255 . S
O94 Tb80 2.366 . S
O94 C102 1.265 . S
C95 O91 1.259 . S
C95 O92 1.265 . S
O96 Eu81 2.479 . S
O96 C111 1.238 . S
O97 Eu81 2.471 . S
O97 C111 1.247 . S
O98 Eu81 2.347 . S
O98 C82 1.259 . S
O99 Tb80 2.418 . S
O99 C82 1.265 . S
O100 Tb80 2.384 . S
O100 C83 1.255 . S
O101 Eu81 2.366 . S
O101 C83 1.265 . S
C102 O93 1.255 . S
C102 O94 1.265 . S
O103 Tb80 2.479 . S
O103 C90 1.238 . S
O104 Tb80 2.471 . S
O104 C90 1.247 . S
C105 C108 1.380 . S
C105 C109 1.374 . S
C105 C111 1.507 . S
C106 C107 1.387 . S
C106 C110 1.391 . S
C107 C106 1.387 . S
C107 C108 1.384 . S
C107 H116 0.930 . S
C108 C105 1.380 . S
C108 C107 1.384 . S
C108 H117 0.931 . S
C109 C105 1.374 . S
C109 C110 1.390 . S
C109 H118 0.930 . S
C110 C106 1.391 . S
C110 C109 1.390 . S
C110 H119 0.930 . S
C111 Eu81 2.825 . S
C111 O96 1.238 . S
C111 O97 1.247 . S
C111 C105 1.507 . S
H112 C85 0.930 . S
H113 C86 0.931 . S
H114 C87 0.930 . S
H115 C88 0.930 . S
H116 C107 0.930 . S
H117 C108 0.931 . S
H118 C109 0.930 . S
H119 C110 0.930 . S
H120 C127 0.929 . S
H121 C130 0.930 . S
H122 C132 0.929 . S
H123 C124 0.969 . S
C124 H123 0.969 . S
C124 O125 1.550 . S
C124 H126 0.973 . S
O125 C124 1.550 . S
O125 C131 1.430 . S
H126 C124 0.973 . S
C127 H120 0.929 . S
C127 C128 1.400 . S
C127 C129 1.364 . S
C128 C127 1.400 . S
C128 C132 1.377 . S
C129 C127 1.364 . S
C129 C130 1.374 1_545 S
C130 H121 0.930 . S
C130 C129 1.374 1_565 S
C130 C131 1.384 . S
C131 O125 1.430 . S
C131 C130 1.384 . S
C131 C132 1.383 1_565 S
C132 H122 0.929 . S
C132 C128 1.377 . S
C132 C131 1.383 1_545 S
H133 C140 0.929 . S
H134 C143 0.930 . S
H135 C145 0.929 . S
H136 C137 0.969 . S
C137 H136 0.969 . S
C137 O138 1.550 . S
C137 H139 0.973 . S
O138 C137 1.550 . S
O138 C144 1.412 . S
H139 C137 0.973 . S
C140 H133 0.929 . S
C140 C141 1.400 . S
C140 C142 1.364 . S
C141 C140 1.400 . S
C141 C145 1.377 . S
C142 C140 1.364 . S
C142 C143 1.374 . S
C143 H134 0.930 . S
C143 C142 1.374 . S
C143 C144 1.383 . S
C144 O138 1.412 . S
C144 C143 1.383 . S
C144 C145 1.394 . S
C145 H135 0.929 . S
C145 C141 1.377 . S
C145 C144 1.394 . S
H146 C153 0.929 1_655 S
H147 C156 0.930 . S
H148 C158 0.929 . S
H149 C150 0.969 . S
C150 H149 0.969 . S
C150 O151 1.550 . S
C150 H152 0.973 . S
O151 C150 1.550 . S
O151 C157 1.412 . S
H152 C150 0.973 . S
C153 H146 0.929 1_455 S
C153 C154 1.400 . S
C153 C155 1.364 . S
C154 C153 1.400 . S
C154 C158 1.377 . S
C155 C153 1.364 . S
C155 C156 1.374 . S
C156 H147 0.930 . S
C156 C155 1.374 . S
C156 C157 1.383 . S
C157 O151 1.412 . S
C157 C156 1.383 . S
C157 C158 1.394 . S
C158 H148 0.929 . S
C158 C154 1.377 . S
C158 C157 1.394 . S
H159 C166 0.929 . S
H160 C169 0.930 . S
H161 C171 0.929 . S
H162 C163 0.969 . S
C163 H162 0.969 . S
C163 O164 1.550 . S
C163 H165 0.973 . S
O164 C163 1.550 . S
O164 C170 1.412 . S
H165 C163 0.973 . S
C166 H159 0.929 . S
C166 C167 1.400 . S
C166 C168 1.364 1_655 S
C167 C166 1.400 . S
C167 C171 1.377 1_655 S
C168 C166 1.364 1_455 S
C168 C169 1.374 . S
C169 H160 0.930 . S
C169 C168 1.374 . S
C169 C170 1.383 . S
C170 O164 1.412 . S
C170 C169 1.383 . S
C170 C171 1.394 . S
C171 H161 0.929 . S
C171 C167 1.377 1_455 S
C171 C170 1.394 . S
H172 C179 0.929 . S
H173 C182 0.930 . S
H174 C184 0.929 . S
H175 C176 0.969 . S
C176 H175 0.969 . S
C176 O177 1.550 . S
C176 H178 0.973 . S
O177 C176 1.550 . S
O177 C183 1.412 . S
H178 C176 0.973 . S
C179 H172 0.929 . S
C179 C180 1.400 . S
C179 C181 1.364 1_565 S
C180 C179 1.400 . S
C180 C184 1.377 . S
C181 C179 1.364 1_545 S
C181 C182 1.374 . S
C182 H173 0.930 . S
C182 C181 1.374 . S
C182 C183 1.383 . S
C183 O177 1.412 . S
C183 C182 1.383 . S
C183 C184 1.394 1_545 S
C184 H174 0.929 . S
C184 C180 1.377 . S
C184 C183 1.394 1_565 S
H185 C192 0.929 . S
H186 C195 0.930 . S
H187 C197 0.929 . S
H188 C189 0.969 . S
C189 H188 0.969 . S
C189 O190 1.550 . S
C189 H191 0.973 . S
O190 C189 1.550 . S
O190 C196 1.412 . S
H191 C189 0.973 . S
C192 H185 0.929 . S
C192 C193 1.400 . S
C192 C194 1.364 . S
C193 C192 1.400 . S
C193 C197 1.377 . S
C194 C192 1.364 . S
C194 C195 1.374 . S
C195 H186 0.930 . S
C195 C194 1.374 . S
C195 C196 1.383 . S
C196 O190 1.412 . S
C196 C195 1.383 . S
C196 C197 1.394 . S
C197 H187 0.929 . S
C197 C193 1.377 . S
C197 C196 1.394 . S
C198 C199 1.391 . S
C198 C200 1.394 . S
C198 H214 0.931 . S
C199 C198 1.391 . S
C199 C203 1.376 . S
C200 C198 1.394 . S
C200 C201 1.369 . S
C200 C204 1.531 . S
C201 C200 1.369 . S
C201 C202 1.410 . S
C201 C209 1.503 . S
C202 C201 1.410 . S
C202 C203 1.392 . S
C202 C205 1.511 . S
C203 C199 1.376 . S
C203 C202 1.392 . S
C203 H215 0.929 . S
C204 C200 1.531 . S
C204 H216 0.960 . S
C204 H217 0.962 . S
C204 H218 0.960 . S
C205 C202 1.511 . S
C205 H219 0.961 . S
C205 H220 0.961 . S
C205 H221 0.961 . S
C206 C207 1.370 . S
C206 C208 1.363 . S
C206 H222 0.931 . S
C207 C206 1.370 . S
C207 C211 1.408 . S
C208 C206 1.363 . S
C208 C209 1.370 . S
C208 C212 1.524 . S
C209 C201 1.503 . S
C209 C208 1.370 . S
C209 C210 1.403 . S
C210 C209 1.403 . S
C210 C211 1.404 . S
C210 C213 1.539 . S
C211 C207 1.408 . S
C211 C210 1.404 . S
C211 H223 0.930 . S
C212 C208 1.524 . S
C212 H224 0.956 . S
C212 H225 0.961 . S
C212 H226 0.961 . S
C213 C210 1.539 . S
C213 H227 0.958 . S
C213 H228 0.961 . S
C213 H229 0.960 . S
H214 C198 0.931 . S
H215 C203 0.929 . S
H216 C204 0.960 . S
H217 C204 0.962 . S
H218 C204 0.960 . S
H219 C205 0.961 . S
H220 C205 0.961 . S
H221 C205 0.961 . S
H222 C206 0.931 . S
H223 C211 0.930 . S
H224 C212 0.956 . S
H225 C212 0.961 . S
H226 C212 0.961 . S
H227 C213 0.958 . S
H228 C213 0.961 . S
H229 C213 0.960 . S
C230 C231 1.391 . S
C230 C232 1.394 . S
C230 H246 0.931 . S
C231 C230 1.391 . S
C231 C235 1.376 . S
C232 C230 1.394 . S
C232 C233 1.369 . S
C232 C236 1.531 . S
C233 C232 1.369 . S
C233 C234 1.410 . S
C233 C241 1.503 . S
C234 C233 1.410 . S
C234 C235 1.392 . S
C234 C237 1.511 . S
C235 C231 1.376 . S
C235 C234 1.392 . S
C235 H247 0.929 . S
C236 C232 1.531 . S
C236 H248 0.960 . S
C236 H249 0.962 . S
C236 H250 0.960 . S
C237 C234 1.511 . S
C237 H251 0.961 . S
C237 H252 0.961 . S
C237 H253 0.961 . S
C238 C239 1.370 . S
C238 C240 1.363 . S
C238 H254 0.931 1_655 S
C239 C238 1.370 . S
C239 C243 1.408 . S
C240 C238 1.363 . S
C240 C241 1.370 . S
C240 C244 1.524 . S
C241 C233 1.503 . S
C241 C240 1.370 . S
C241 C242 1.403 . S
C242 C241 1.403 . S
C242 C243 1.404 . S
C242 C245 1.539 . S
C243 C239 1.408 . S
C243 C242 1.404 . S
C243 H255 0.930 . S
C244 C240 1.524 . S
C244 H256 0.956 . S
C244 H257 0.961 . S
C244 H258 0.961 . S
C245 C242 1.539 . S
C245 H259 0.958 . S
C245 H260 0.961 . S
C245 H261 0.960 . S
H246 C230 0.931 . S
H247 C235 0.929 . S
H248 C236 0.960 . S
H249 C236 0.962 . S
H250 C236 0.960 . S
H251 C237 0.961 . S
H252 C237 0.961 . S
H253 C237 0.961 . S
H254 C238 0.931 1_455 S
H255 C243 0.930 . S
H256 C244 0.956 . S
H257 C244 0.961 . S
H258 C244 0.961 . S
H259 C245 0.958 . S
H260 C245 0.961 . S
H261 C245 0.960 . S
C262 C263 1.391 . S
C262 C264 1.394 . S
C262 H278 0.931 . S
C263 C262 1.391 . S
C263 C267 1.376 . S
C264 C262 1.394 . S
C264 C265 1.369 . S
C264 C268 1.531 . S
C265 C264 1.369 . S
C265 C266 1.410 . S
C265 C273 1.503 . S
C266 C265 1.410 . S
C266 C267 1.392 . S
C266 C269 1.511 . S
C267 C263 1.376 . S
C267 C266 1.392 . S
C267 H279 0.929 . S
C268 C264 1.531 . S
C268 H280 0.960 . S
C268 H281 0.962 . S
C268 H282 0.960 . S
C269 C266 1.511 . S
C269 H283 0.961 . S
C269 H284 0.961 . S
C269 H285 0.961 . S
C270 C271 1.370 . S
C270 C272 1.363 . S
C270 H286 0.931 . S
C271 C270 1.370 . S
C271 C275 1.408 . S
C272 C270 1.363 . S
C272 C273 1.370 . S
C272 C276 1.524 . S
C273 C265 1.503 . S
C273 C272 1.370 . S
C273 C274 1.403 . S
C274 C273 1.403 . S
C274 C275 1.404 . S
C274 C277 1.539 . S
C275 C271 1.408 . S
C275 C274 1.404 . S
C275 H287 0.930 . S
C276 C272 1.524 . S
C276 H288 0.956 . S
C276 H289 0.961 . S
C276 H290 0.961 . S
C277 C274 1.539 . S
C277 H291 0.958 . S
C277 H292 0.961 . S
C277 H293 0.960 . S
H278 C262 0.931 . S
H279 C267 0.929 . S
H280 C268 0.960 . S
H281 C268 0.962 . S
H282 C268 0.960 . S
H283 C269 0.961 . S
H284 C269 0.961 . S
H285 C269 0.961 . S
H286 C270 0.931 . S
H287 C275 0.930 . S
H288 C276 0.956 . S
H289 C276 0.961 . S
H290 C276 0.961 . S
H291 C277 0.958 . S
H292 C277 0.961 . S
H293 C277 0.960 . S
C294 C295 1.391 . S
C294 C296 1.394 . S
C294 H310 0.931 . S
C295 C294 1.391 . S
C295 C299 1.376 . S
C296 C294 1.394 . S
C296 C297 1.369 . S
C296 C300 1.531 . S
C297 C296 1.369 . S
C297 C298 1.410 . S
C297 C305 1.503 . S
C298 C297 1.410 . S
C298 C299 1.392 . S
C298 C301 1.511 . S
C299 C295 1.376 . S
C299 C298 1.392 . S
C299 H311 0.929 . S
C300 C296 1.531 . S
C300 H312 0.960 . S
C300 H313 0.962 . S
C300 H314 0.960 . S
C301 C298 1.511 . S
C301 H315 0.961 . S
C301 H316 0.961 . S
C301 H317 0.961 . S
C302 C303 1.370 . S
C302 C304 1.363 . S
C302 H318 0.931 . S
C303 C302 1.370 . S
C303 C307 1.408 . S
C304 C302 1.363 . S
C304 C305 1.370 . S
C304 C308 1.524 . S
C305 C297 1.503 . S
C305 C304 1.370 . S
C305 C306 1.403 . S
C306 C305 1.403 . S
C306 C307 1.404 . S
C306 C309 1.539 . S
C307 C303 1.408 . S
C307 C306 1.404 . S
C307 H319 0.930 . S
C308 C304 1.524 . S
C308 H320 0.956 . S
C308 H321 0.961 . S
C308 H322 0.961 . S
C309 C306 1.539 . S
C309 H323 0.958 . S
C309 H324 0.961 . S
C309 H325 0.960 . S
H310 C294 0.931 . S
H311 C299 0.929 . S
H312 C300 0.960 . S
H313 C300 0.962 . S
H314 C300 0.960 . S
H315 C301 0.961 . S
H316 C301 0.961 . S
H317 C301 0.961 . S
H318 C302 0.931 . S
H319 C307 0.930 . S
H320 C308 0.956 . S
H321 C308 0.961 . S
H322 C308 0.961 . S
H323 C309 0.958 . S
H324 C309 0.961 . S
H325 C309 0.960 . S
C326 C327 1.391 . S
C326 C328 1.394 . S
C326 H342 0.931 . S
C327 C326 1.391 . S
C327 C331 1.376 . S
C328 C326 1.394 . S
C328 C329 1.369 . S
C328 C332 1.531 . S
C329 C328 1.369 . S
C329 C330 1.410 . S
C329 C337 1.503 . S
C330 C329 1.410 . S
C330 C331 1.392 . S
C330 C333 1.511 . S
C331 C327 1.376 . S
C331 C330 1.392 . S
C331 H343 0.929 . S
C332 C328 1.531 . S
C332 H344 0.960 . S
C332 H345 0.962 . S
C332 H346 0.960 . S
C333 C330 1.511 . S
C333 H347 0.961 . S
C333 H348 0.961 . S
C333 H349 0.961 . S
C334 C335 1.370 . S
C334 C336 1.363 . S
C334 H350 0.931 . S
C335 C334 1.370 . S
C335 C339 1.408 . S
C336 C334 1.363 . S
C336 C337 1.370 . S
C336 C340 1.524 . S
C337 C329 1.503 . S
C337 C336 1.370 . S
C337 C338 1.403 . S
C338 C337 1.403 . S
C338 C339 1.404 . S
C338 C341 1.539 . S
C339 C335 1.408 . S
C339 C338 1.404 . S
C339 H351 0.930 . S
C340 C336 1.524 . S
C340 H352 0.956 . S
C340 H353 0.961 . S
C340 H354 0.961 . S
C341 C338 1.539 . S
C341 H355 0.958 . S
C341 H356 0.961 . S
C341 H357 0.960 . S
H342 C326 0.931 . S
H343 C331 0.929 . S
H344 C332 0.960 . S
H345 C332 0.962 . S
H346 C332 0.960 . S
H347 C333 0.961 . S
H348 C333 0.961 . S
H349 C333 0.961 . S
H350 C334 0.931 . S
H351 C339 0.930 . S
H352 C340 0.956 . S
H353 C340 0.961 . S
H354 C340 0.961 . S
H355 C341 0.958 . S
H356 C341 0.961 . S
H357 C341 0.960 . S
C358 C359 1.391 . S
C358 C360 1.394 . S
C358 H374 0.931 . S
C359 C358 1.391 . S
C359 C363 1.376 . S
C360 C358 1.394 . S
C360 C361 1.369 . S
C360 C364 1.531 . S
C361 C360 1.369 . S
C361 C362 1.410 . S
C361 C369 1.503 . S
C362 C361 1.410 . S
C362 C363 1.392 . S
C362 C365 1.511 . S
C363 C359 1.376 . S
C363 C362 1.392 . S
C363 H375 0.929 . S
C364 C360 1.531 . S
C364 H376 0.960 . S
C364 H377 0.962 . S
C364 H378 0.960 . S
C365 C362 1.511 . S
C365 H379 0.961 . S
C365 H380 0.961 . S
C365 H381 0.961 . S
C366 C367 1.370 . S
C366 C368 1.363 . S
C366 H382 0.931 . S
C367 C366 1.370 . S
C367 C371 1.408 . S
C368 C366 1.363 . S
C368 C369 1.370 . S
C368 C372 1.524 . S
C369 C361 1.503 . S
C369 C368 1.370 . S
C369 C370 1.403 . S
C370 C369 1.403 . S
C370 C371 1.404 . S
C370 C373 1.539 . S
C371 C367 1.408 . S
C371 C370 1.404 . S
C371 H383 0.930 . S
C372 C368 1.524 . S
C372 H384 0.956 . S
C372 H385 0.961 . S
C372 H386 0.961 . S
C373 C370 1.539 . S
C373 H387 0.958 . S
C373 H388 0.961 . S
C373 H389 0.960 . S
H374 C358 0.931 . S
H375 C363 0.929 . S
H376 C364 0.960 . S
H377 C364 0.962 . S
H378 C364 0.960 . S
H379 C365 0.961 . S
H380 C365 0.961 . S
H381 C365 0.961 . S
H382 C366 0.931 . S
H383 C371 0.930 . S
H384 C372 0.956 . S
H385 C372 0.961 . S
H386 C372 0.961 . S
H387 C373 0.958 . S
H388 C373 0.961 . S
H389 C373 0.960 . S
C390 C391 1.391 . S
C390 C392 1.394 . S
C390 H406 0.931 . S
C391 C390 1.391 . S
C391 C395 1.376 . S
C392 C390 1.394 . S
C392 C393 1.369 . S
C392 C396 1.531 . S
C393 C392 1.369 . S
C393 C394 1.410 . S
C393 C401 1.503 . S
C394 C393 1.410 . S
C394 C395 1.392 . S
C394 C397 1.511 . S
C395 C391 1.376 . S
C395 C394 1.392 . S
C395 H407 0.929 . S
C396 C392 1.531 . S
C396 H408 0.960 . S
C396 H409 0.962 . S
C396 H410 0.960 . S
C397 C394 1.511 . S
C397 H411 0.961 . S
C397 H412 0.961 . S
C397 H413 0.961 . S
C398 C399 1.370 . S
C398 C400 1.363 . S
C398 H414 0.931 . S
C399 C398 1.370 . S
C399 C403 1.408 . S
C400 C398 1.363 . S
C400 C401 1.370 . S
C400 C404 1.524 . S
C401 C393 1.503 . S
C401 C400 1.370 . S
C401 C402 1.403 . S
C402 C401 1.403 . S
C402 C403 1.404 . S
C402 C405 1.539 . S
C403 C399 1.408 . S
C403 C402 1.404 . S
C403 H415 0.930 . S
C404 C400 1.524 . S
C404 H416 0.956 . S
C404 H417 0.961 . S
C404 H418 0.961 . S
C405 C402 1.539 . S
C405 H419 0.958 . S
C405 H420 0.961 . S
C405 H421 0.960 . S
H406 C390 0.931 . S
H407 C395 0.929 . S
H408 C396 0.960 . S
H409 C396 0.962 . S
H410 C396 0.960 . S
H411 C397 0.961 . S
H412 C397 0.961 . S
H413 C397 0.961 . S
H414 C398 0.931 . S
H415 C403 0.930 . S
H416 C404 0.956 . S
H417 C404 0.961 . S
H418 C404 0.961 . S
H419 C405 0.958 . S
H420 C405 0.961 . S
H421 C405 0.960 . S
C422 C423 1.391 . S
C422 C424 1.394 . S
C422 H438 0.931 . S
C423 C422 1.391 . S
C423 C427 1.376 . S
C424 C422 1.394 . S
C424 C425 1.369 . S
C424 C428 1.531 . S
C425 C424 1.369 . S
C425 C426 1.410 . S
C425 C433 1.503 . S
C426 C425 1.410 . S
C426 C427 1.392 . S
C426 C429 1.511 . S
C427 C423 1.376 . S
C427 C426 1.392 . S
C427 H439 0.929 . S
C428 C424 1.531 . S
C428 H440 0.960 . S
C428 H441 0.962 . S
C428 H442 0.960 . S
C429 C426 1.511 . S
C429 H443 0.961 . S
C429 H444 0.961 . S
C429 H445 0.961 . S
C430 C431 1.370 . S
C430 C432 1.363 . S
C430 H446 0.931 . S
C431 C430 1.370 . S
C431 C435 1.408 . S
C432 C430 1.363 . S
C432 C433 1.370 . S
C432 C436 1.524 . S
C433 C425 1.503 . S
C433 C432 1.370 . S
C433 C434 1.403 . S
C434 C433 1.403 . S
C434 C435 1.404 . S
C434 C437 1.539 . S
C435 C431 1.408 . S
C435 C434 1.404 . S
C435 H447 0.930 . S
C436 C432 1.524 . S
C436 H448 0.956 . S
C436 H449 0.961 . S
C436 H450 0.961 . S
C437 C434 1.539 . S
C437 H451 0.958 . S
C437 H452 0.961 . S
C437 H453 0.960 . S
H438 C422 0.931 . S
H439 C427 0.929 . S
H440 C428 0.960 . S
H441 C428 0.962 . S
H442 C428 0.960 . S
H443 C429 0.961 . S
H444 C429 0.961 . S
H445 C429 0.961 . S
H446 C430 0.931 . S
H447 C435 0.930 . S
H448 C436 0.956 . S
H449 C436 0.961 . S
H450 C436 0.961 . S
H451 C437 0.958 . S
H452 C437 0.961 . S
H453 C437 0.960 . S
C454 C455 1.391 . S
C454 C456 1.394 . S
C454 H470 0.931 . S
C455 C454 1.391 . S
C455 C459 1.376 . S
C456 C454 1.394 . S
C456 C457 1.369 . S
C456 C460 1.531 . S
C457 C456 1.369 . S
C457 C458 1.410 . S
C457 C465 1.503 . S
C458 C457 1.410 . S
C458 C459 1.392 . S
C458 C461 1.511 . S
C459 C455 1.376 . S
C459 C458 1.392 . S
C459 H471 0.929 . S
C460 C456 1.531 . S
C460 H472 0.960 . S
C460 H473 0.962 . S
C460 H474 0.960 . S
C461 C458 1.511 . S
C461 H475 0.961 . S
C461 H476 0.961 . S
C461 H477 0.961 . S
C462 C463 1.370 . S
C462 C464 1.363 . S
C462 H478 0.931 . S
C463 C462 1.370 . S
C463 C467 1.408 . S
C464 C462 1.363 . S
C464 C465 1.370 . S
C464 C468 1.524 . S
C465 C457 1.503 . S
C465 C464 1.370 . S
C465 C466 1.403 . S
C466 C465 1.403 . S
C466 C467 1.404 . S
C466 C469 1.539 . S
C467 C463 1.408 . S
C467 C466 1.404 . S
C467 H479 0.930 . S
C468 C464 1.524 . S
C468 H480 0.956 . S
C468 H481 0.961 . S
C468 H482 0.961 . S
C469 C466 1.539 . S
C469 H483 0.958 . S
C469 H484 0.961 . S
C469 H485 0.960 . S
H470 C454 0.931 . S
H471 C459 0.929 . S
H472 C460 0.960 . S
H473 C460 0.962 . S
H474 C460 0.960 . S
H475 C461 0.961 . S
H476 C461 0.961 . S
H477 C461 0.961 . S
H478 C462 0.931 . S
H479 C467 0.930 . S
H480 C468 0.956 . S
H481 C468 0.961 . S
H482 C468 0.961 . S
H483 C469 0.958 . S
H484 C469 0.961 . S
H485 C469 0.960 . S
C486 C487 1.391 . S
C486 C488 1.394 . S
C486 H502 0.931 . S
C487 C486 1.391 . S
C487 C491 1.376 . S
C488 C486 1.394 . S
C488 C489 1.369 . S
C488 C492 1.531 . S
C489 C488 1.369 . S
C489 C490 1.410 . S
C489 C497 1.503 . S
C490 C489 1.410 . S
C490 C491 1.392 . S
C490 C493 1.511 . S
C491 C487 1.376 . S
C491 C490 1.392 . S
C491 H503 0.929 . S
C492 C488 1.531 . S
C492 H504 0.960 . S
C492 H505 0.962 . S
C492 H506 0.960 . S
C493 C490 1.511 . S
C493 H507 0.961 . S
C493 H508 0.961 . S
C493 H509 0.961 . S
C494 C495 1.370 . S
C494 C496 1.363 . S
C494 H510 0.931 . S
C495 C494 1.370 . S
C495 C499 1.408 . S
C496 C494 1.363 . S
C496 C497 1.370 . S
C496 C500 1.524 . S
C497 C489 1.503 . S
C497 C496 1.370 . S
C497 C498 1.403 . S
C498 C497 1.403 . S
C498 C499 1.404 . S
C498 C501 1.539 . S
C499 C495 1.408 . S
C499 C498 1.404 . S
C499 H511 0.930 . S
C500 C496 1.524 . S
C500 H512 0.956 . S
C500 H513 0.961 . S
C500 H514 0.961 . S
C501 C498 1.539 . S
C501 H515 0.958 . S
C501 H516 0.961 . S
C501 H517 0.960 . S
H502 C486 0.931 . S
H503 C491 0.929 . S
H504 C492 0.960 . S
H505 C492 0.962 . S
H506 C492 0.960 . S
H507 C493 0.961 . S
H508 C493 0.961 . S
H509 C493 0.961 . S
H510 C494 0.931 . S
H511 C499 0.930 . S
H512 C500 0.956 . S
H513 C500 0.961 . S
H514 C500 0.961 . S
H515 C501 0.958 . S
H516 C501 0.961 . S
H517 C501 0.960 . S
C518 C519 1.391 . S
C518 C520 1.394 . S
C518 H534 0.931 . S
C519 C518 1.391 . S
C519 C523 1.376 . S
C520 C518 1.394 . S
C520 C521 1.369 . S
C520 C524 1.531 . S
C521 C520 1.369 . S
C521 C522 1.410 . S
C521 C529 1.503 . S
C522 C521 1.410 . S
C522 C523 1.392 . S
C522 C525 1.511 . S
C523 C519 1.376 . S
C523 C522 1.392 . S
C523 H535 0.929 . S
C524 C520 1.531 . S
C524 H536 0.960 . S
C524 H537 0.962 . S
C524 H538 0.960 . S
C525 C522 1.511 . S
C525 H539 0.961 . S
C525 H540 0.961 . S
C525 H541 0.961 . S
C526 C527 1.370 . S
C526 C528 1.363 . S
C526 H542 0.931 . S
C527 C526 1.370 . S
C527 C531 1.408 . S
C528 C526 1.363 . S
C528 C529 1.370 . S
C528 C532 1.524 . S
C529 C521 1.503 . S
C529 C528 1.370 . S
C529 C530 1.403 . S
C530 C529 1.403 . S
C530 C531 1.404 . S
C530 C533 1.539 . S
C531 C527 1.408 . S
C531 C530 1.404 . S
C531 H543 0.930 . S
C532 C528 1.524 . S
C532 H544 0.956 . S
C532 H545 0.961 . S
C532 H546 0.961 . S
C533 C530 1.539 . S
C533 H547 0.958 . S
C533 H548 0.961 . S
C533 H549 0.960 . S
H534 C518 0.931 . S
H535 C523 0.929 . S
H536 C524 0.960 . S
H537 C524 0.962 . S
H538 C524 0.960 . S
H539 C525 0.961 . S
H540 C525 0.961 . S
H541 C525 0.961 . S
H542 C526 0.931 . S
H543 C531 0.930 . S
H544 C532 0.956 . S
H545 C532 0.961 . S
H546 C532 0.961 . S
H547 C533 0.958 . S
H548 C533 0.961 . S
H549 C533 0.960 . S
C550 C551 1.391 . S
C550 C552 1.394 . S
C550 H566 0.931 . S
C551 C550 1.391 . S
C551 C555 1.376 . S
C552 C550 1.394 . S
C552 C553 1.369 . S
C552 C556 1.531 . S
C553 C552 1.369 . S
C553 C554 1.410 . S
C553 C561 1.503 . S
C554 C553 1.410 . S
C554 C555 1.392 . S
C554 C557 1.511 . S
C555 C551 1.376 . S
C555 C554 1.392 . S
C555 H567 0.929 . S
C556 C552 1.531 . S
C556 H568 0.960 . S
C556 H569 0.962 . S
C556 H570 0.960 . S
C557 C554 1.511 . S
C557 H571 0.961 . S
C557 H572 0.961 . S
C557 H573 0.961 . S
C558 C559 1.370 . S
C558 C560 1.363 . S
C558 H574 0.931 . S
C559 C558 1.370 . S
C559 C563 1.408 . S
C560 C558 1.363 . S
C560 C561 1.370 . S
C560 C564 1.524 . S
C561 C553 1.503 . S
C561 C560 1.370 . S
C561 C562 1.403 . S
C562 C561 1.403 . S
C562 C563 1.404 . S
C562 C565 1.539 . S
C563 C559 1.408 . S
C563 C562 1.404 . S
C563 H575 0.930 . S
C564 C560 1.524 . S
C564 H576 0.956 . S
C564 H577 0.961 . S
C564 H578 0.961 . S
C565 C562 1.539 . S
C565 H579 0.958 . S
C565 H580 0.961 . S
C565 H581 0.960 . S
H566 C550 0.931 . S
H567 C555 0.929 . S
H568 C556 0.960 . S
H569 C556 0.962 . S
H570 C556 0.960 . S
H571 C557 0.961 . S
H572 C557 0.961 . S
H573 C557 0.961 . S
H574 C558 0.931 . S
H575 C563 0.930 . S
H576 C564 0.956 . S
H577 C564 0.961 . S
H578 C564 0.961 . S
H579 C565 0.958 . S
H580 C565 0.961 . S
H581 C565 0.960 . S
C582 C583 1.391 . S
C582 C584 1.394 . S
C582 H598 0.931 . S
C583 C582 1.391 . S
C583 C587 1.376 1_455 S
C584 C582 1.394 . S
C584 C585 1.369 . S
C584 C588 1.531 . S
C585 C584 1.369 . S
C585 C586 1.410 1_455 S
C585 C593 1.503 1_554 S
C586 C585 1.410 1_655 S
C586 C587 1.392 . S
C586 C589 1.511 . S
C587 C583 1.376 1_655 S
C587 C586 1.392 . S
C587 H599 0.929 . S
C588 C584 1.531 . S
C588 H600 0.960 . S
C588 H601 0.962 . S
C588 H602 0.960 . S
C589 C586 1.511 . S
C589 H603 0.961 . S
C589 H604 0.961 . S
C589 H605 0.961 . S
C590 C591 1.370 . S
C590 C592 1.363 . S
C590 H606 0.931 . S
C591 C590 1.370 . S
C591 C595 1.408 1_455 S
C592 C590 1.363 . S
C592 C593 1.370 . S
C592 C596 1.524 1_556 S
C593 C585 1.503 1_556 S
C593 C592 1.370 . S
C593 C594 1.403 1_455 S
C594 C593 1.403 1_655 S
C594 C595 1.404 . S
C594 C597 1.539 . S
C595 C591 1.408 1_655 S
C595 C594 1.404 . S
C595 H607 0.930 . S
C596 C592 1.524 1_554 S
C596 H608 0.956 . S
C596 H609 0.961 . S
C596 H610 0.961 1_554 S
C597 C594 1.539 . S
C597 H611 0.958 . S
C597 H612 0.961 . S
C597 H613 0.960 1_556 S
H598 C582 0.931 . S
H599 C587 0.929 . S
H600 C588 0.960 . S
H601 C588 0.962 . S
H602 C588 0.960 . S
H603 C589 0.961 . S
H604 C589 0.961 . S
H605 C589 0.961 . S
H606 C590 0.931 . S
H607 C595 0.930 . S
H608 C596 0.956 . S
H609 C596 0.961 . S
H610 C596 0.961 1_556 S
H611 C597 0.958 . S
H612 C597 0.961 . S
H613 C597 0.960 1_554 S
C614 C615 1.391 . S
C614 C616 1.394 . S
C614 H630 0.931 . S
C615 C614 1.391 . S
C615 C619 1.376 . S
C616 C614 1.394 . S
C616 C617 1.369 . S
C616 C620 1.531 . S
C617 C616 1.369 . S
C617 C618 1.410 . S
C617 C625 1.503 . S
C618 C617 1.410 . S
C618 C619 1.392 . S
C618 C621 1.511 . S
C619 C615 1.376 . S
C619 C618 1.392 . S
C619 H631 0.929 . S
C620 C616 1.531 . S
C620 H632 0.960 . S
C620 H633 0.962 . S
C620 H634 0.960 . S
C621 C618 1.511 . S
C621 H635 0.961 1_545 S
C621 H636 0.961 1_545 S
C621 H637 0.961 . S
C622 C623 1.367 1_565 S
C622 C624 1.362 1_565 S
C622 H638 0.935 . S
C623 C622 1.367 1_545 S
C623 C627 1.408 . S
C624 C622 1.362 1_545 S
C624 C625 1.370 . S
C624 C628 1.524 1_545 S
C625 C617 1.503 . S
C625 C624 1.370 . S
C625 C626 1.403 . S
C626 C625 1.403 . S
C626 C627 1.404 . S
C626 C629 1.539 . S
C627 C623 1.408 . S
C627 C626 1.404 . S
C627 H639 0.930 . S
C628 C624 1.524 1_565 S
C628 H640 0.956 . S
C628 H641 0.961 . S
C628 H642 0.961 . S
C629 C626 1.539 . S
C629 H643 0.958 . S
C629 H644 0.961 . S
C629 H645 0.960 . S
H630 C614 0.931 . S
H631 C619 0.929 . S
H632 C620 0.960 . S
H633 C620 0.962 . S
H634 C620 0.960 . S
H635 C621 0.961 1_565 S
H636 C621 0.961 1_565 S
H637 C621 0.961 . S
H638 C622 0.935 . S
H639 C627 0.930 . S
H640 C628 0.956 . S
H641 C628 0.961 . S
H642 C628 0.961 . S
H643 C629 0.958 . S
H644 C629 0.961 . S
H645 C629 0.960 . S
C646 C647 1.391 . S
C646 C648 1.394 . S
C646 H662 0.931 . S
C647 C646 1.391 . S
C647 C651 1.376 . S
C648 C646 1.394 . S
C648 C649 1.369 . S
C648 C652 1.531 . S
C649 C648 1.369 . S
C649 C650 1.410 . S
C649 C657 1.503 . S
C650 C649 1.410 . S
C650 C651 1.392 . S
C650 C653 1.511 . S
C651 C647 1.376 . S
C651 C650 1.392 . S
C651 H663 0.929 . S
C652 C648 1.531 . S
C652 H664 0.960 . S
C652 H665 0.962 . S
C652 H666 0.960 . S
C653 C650 1.511 . S
C653 H667 0.961 . S
C653 H668 0.961 . S
C653 H669 0.961 . S
C654 C655 1.370 . S
C654 C656 1.363 . S
C654 H670 0.931 . S
C655 C654 1.370 . S
C655 C659 1.408 . S
C656 C654 1.363 . S
C656 C657 1.370 . S
C656 C660 1.524 . S
C657 C649 1.503 . S
C657 C656 1.370 . S
C657 C658 1.403 . S
C658 C657 1.403 . S
C658 C659 1.404 . S
C658 C661 1.539 . S
C659 C655 1.408 . S
C659 C658 1.404 . S
C659 H671 0.930 . S
C660 C656 1.524 . S
C660 H672 0.956 . S
C660 H673 0.961 . S
C660 H674 0.961 . S
C661 C658 1.539 . S
C661 H675 0.958 . S
C661 H676 0.961 . S
C661 H677 0.960 . S
H662 C646 0.931 . S
H663 C651 0.929 . S
H664 C652 0.960 . S
H665 C652 0.962 . S
H666 C652 0.960 . S
H667 C653 0.961 . S
H668 C653 0.961 . S
H669 C653 0.961 . S
H670 C654 0.931 . S
H671 C659 0.930 . S
H672 C660 0.956 . S
H673 C660 0.961 . S
H674 C660 0.961 . S
H675 C661 0.958 . S
H676 C661 0.961 . S
H677 C661 0.960 . S
C678 C679 1.391 1_565 S
C678 C680 1.394 . S
C678 H694 0.931 . S
C679 C678 1.391 1_545 S
C679 C683 1.376 . S
C680 C678 1.394 . S
C680 C681 1.369 1_565 S
C680 C684 1.531 . S
C681 C680 1.369 1_545 S
C681 C682 1.410 . S
C681 C689 1.503 . S
C682 C681 1.410 . S
C682 C683 1.392 . S
C682 C685 1.511 . S
C683 C679 1.376 . S
C683 C682 1.392 . S
C683 H695 0.929 . S
C684 C680 1.531 . S
C684 H696 0.960 . S
C684 H697 0.962 . S
C684 H698 0.960 . S
C685 C682 1.511 . S
C685 H699 0.961 . S
C685 H700 0.961 . S
C685 H701 0.961 . S
C686 C687 1.370 . S
C686 C688 1.363 . S
C686 H702 0.931 . S
C687 C686 1.370 . S
C687 C691 1.408 1_545 S
C688 C686 1.363 . S
C688 C689 1.370 . S
C688 C692 1.524 . S
C689 C681 1.503 . S
C689 C688 1.370 . S
C689 C690 1.403 1_545 S
C690 C689 1.403 1_565 S
C690 C691 1.404 . S
C690 C693 1.539 . S
C691 C687 1.408 1_565 S
C691 C690 1.404 . S
C691 H703 0.930 . S
C692 C688 1.524 . S
C692 H704 0.956 . S
C692 H705 0.961 . S
C692 H706 0.961 . S
C693 C690 1.539 . S
C693 H707 0.958 . S
C693 H708 0.961 . S
C693 H709 0.960 . S
H694 C678 0.931 . S
H695 C683 0.929 . S
H696 C684 0.960 . S
H697 C684 0.962 . S
H698 C684 0.960 . S
H699 C685 0.961 . S
H700 C685 0.961 . S
H701 C685 0.961 . S
H702 C686 0.931 . S
H703 C691 0.930 . S
H704 C692 0.956 . S
H705 C692 0.961 . S
H706 C692 0.961 . S
H707 C693 0.958 . S
H708 C693 0.961 . S
H709 C693 0.960 . S
C710 C711 1.391 . S
C710 C712 1.394 . S
C710 H726 0.931 . S
C711 C710 1.391 . S
C711 C715 1.376 . S
C712 C710 1.394 . S
C712 C713 1.369 . S
C712 C716 1.531 . S
C713 C712 1.369 . S
C713 C714 1.410 . S
C713 C721 1.503 . S
C714 C713 1.410 . S
C714 C715 1.392 . S
C714 C717 1.511 . S
C715 C711 1.376 . S
C715 C714 1.392 . S
C715 H727 0.929 . S
C716 C712 1.531 . S
C716 H728 0.960 . S
C716 H729 0.962 . S
C716 H730 0.960 . S
C717 C714 1.511 . S
C717 H731 0.961 . S
C717 H732 0.961 . S
C717 H733 0.961 . S
C718 C719 1.370 . S
C718 C720 1.363 . S
C718 H734 0.931 . S
C719 C718 1.370 . S
C719 C723 1.408 . S
C720 C718 1.363 . S
C720 C721 1.370 1_554 S
C720 C724 1.524 1_554 S
C721 C713 1.503 . S
C721 C720 1.370 1_556 S
C721 C722 1.403 1_556 S
C722 C721 1.403 1_554 S
C722 C723 1.404 . S
C722 C725 1.539 1_554 S
C723 C719 1.408 . S
C723 C722 1.404 . S
C723 H735 0.930 . S
C724 C720 1.524 1_556 S
C724 H736 0.956 . S
C724 H737 0.961 . S
C724 H738 0.961 1_556 S
C725 C722 1.539 1_556 S
C725 H739 0.957 . S
C725 H740 0.961 1_556 S
C725 H741 0.960 . S
H726 C710 0.931 . S
H727 C715 0.929 . S
H728 C716 0.960 . S
H729 C716 0.962 . S
H730 C716 0.960 . S
H731 C717 0.961 . S
H732 C717 0.961 . S
H733 C717 0.961 . S
H734 C718 0.931 . S
H735 C723 0.930 . S
H736 C724 0.956 . S
H737 C724 0.961 . S
H738 C724 0.961 1_554 S
H739 C725 0.957 . S
H740 C725 0.961 1_554 S
H741 C725 0.960 . S
C742 C743 1.391 1_655 S
C742 C744 1.394 . S
C742 H758 0.931 . S
C743 C742 1.391 1_455 S
C743 C747 1.376 . S
C744 C742 1.394 . S
C744 C745 1.369 1_655 S
C744 C748 1.531 . S
C745 C744 1.369 1_455 S
C745 C746 1.410 . S
C745 C753 1.503 . S
C746 C745 1.410 . S
C746 C747 1.392 . S
C746 C749 1.511 . S
C747 C743 1.376 . S
C747 C746 1.392 . S
C747 H759 0.929 . S
C748 C744 1.531 . S
C748 H760 0.960 . S
C748 H761 0.962 . S
C748 H762 0.960 . S
C749 C746 1.511 . S
C749 H763 0.961 . S
C749 H764 0.961 . S
C749 H765 0.961 . S
C750 C751 1.370 . S
C750 C752 1.363 . S
C750 H766 0.931 . S
C751 C750 1.370 . S
C751 C755 1.408 . S
C752 C750 1.363 . S
C752 C753 1.370 . S
C752 C756 1.524 . S
C753 C745 1.503 . S
C753 C752 1.370 . S
C753 C754 1.403 . S
C754 C753 1.403 . S
C754 C755 1.404 . S
C754 C757 1.549 1_455 S
C755 C751 1.408 . S
C755 C754 1.404 . S
C755 H767 0.930 . S
C756 C752 1.524 . S
C756 H768 0.956 . S
C756 H769 0.961 . S
C756 H770 0.961 . S
C757 C754 1.549 1_655 S
C757 H771 0.979 . S
C757 H772 0.946 1_655 S
C757 H773 0.946 1_655 S
H758 C742 0.931 . S
H759 C747 0.929 . S
H760 C748 0.960 . S
H761 C748 0.962 . S
H762 C748 0.960 . S
H763 C749 0.961 . S
H764 C749 0.961 . S
H765 C749 0.961 . S
H766 C750 0.931 . S
H767 C755 0.930 . S
H768 C756 0.956 . S
H769 C756 0.961 . S
H770 C756 0.961 . S
H771 C757 0.979 . S
H772 C757 0.946 1_455 S
H773 C757 0.946 1_455 S
C199 C9 0.434 . S
C207 C189 0.525 . S
C231 C49 0.202 . S
C239 C167 0.244 . S
C263 C89 0.238 . S
C271 C180 0.236 . S
C295 C26 0.408 . S
C303 C193 0.257 . S
C335 C163 0.585 . S
C327 C66 0.639 . S
C367 C176 0.601 . S
C359 C106 0.681 . S
C391 C43 2.894 . S
C399 C141 2.860 . S
C423 C83 2.988 . S
C431 C154 2.943 1_655 S
C455 C22 3.161 . S
C463 C124 2.956 . S
C495 C137 2.960 . S
C487 C62 3.168 . S
C527 C150 2.900 . S
C519 C102 3.076 . S
C551 C3 2.906 . S
C559 C128 2.879 . S
C591 C155 1.742 . S
C583 C15 1.704 . S
C615 C55 1.727 . S
C623 C129 1.775 . S
C647 C95 1.718 . S
C655 C142 1.778 . S
C687 C181 1.244 . S
C679 C42 1.236 . S
C719 C194 1.264 . S
C711 C82 1.230 . S
C743 C2 1.207 . S
C751 C168 1.234 . S
