# Generated by pormake.
# Topology ssa, (4,4)-cn, num edge types: 1
# Building blocks:
#     Node 0, Type 0, BuildingBlock: GIZVER_clean_linker_0, # of connection points: 4
#     Node 1, Type 0, BuildingBlock: GIZVER_clean_linker_0, # of connection points: 4
#     Node 2, Type 0, BuildingBlock: GIZVER_clean_linker_0, # of connection points: 4
#     Node 3, Type 0, BuildingBlock: GIZVER_clean_linker_0, # of connection points: 4
#     Node 4, Type 0, BuildingBlock: GIZVER_clean_linker_0, # of connection points: 4
#     Node 5, Type 0, BuildingBlock: GIZVER_clean_linker_0, # of connection points: 4
#     Node 6, Type 1, BuildingBlock: MUDLON_clean_sbu_0, # of connection points: 4
#     Node 7, Type 1, BuildingBlock: MUDLON_clean_sbu_0, # of connection points: 4
#     Node 8, Type 1, BuildingBlock: MUDLON_clean_sbu_0, # of connection points: 4
#     Node 9, Type 1, BuildingBlock: MUDLON_clean_sbu_0, # of connection points: 4
#     Node 10, Type 1, BuildingBlock: MUDLON_clean_sbu_0, # of connection points: 4
#     Node 11, Type 1, BuildingBlock: MUDLON_clean_sbu_0, # of connection points: 4
#     Edge 12, Type (0, 1), BuildingBlock: TEMPAE_clean_linker_10, # of connection points: 2
#     Edge 13, Type (0, 1), BuildingBlock: TEMPAE_clean_linker_10, # of connection points: 2
#     Edge 14, Type (0, 1), BuildingBlock: TEMPAE_clean_linker_10, # of connection points: 2
#     Edge 15, Type (0, 1), BuildingBlock: TEMPAE_clean_linker_10, # of connection points: 2
#     Edge 16, Type (0, 1), BuildingBlock: TEMPAE_clean_linker_10, # of connection points: 2
#     Edge 17, Type (0, 1), BuildingBlock: TEMPAE_clean_linker_10, # of connection points: 2
#     Edge 18, Type (0, 1), BuildingBlock: TEMPAE_clean_linker_10, # of connection points: 2
#     Edge 19, Type (0, 1), BuildingBlock: TEMPAE_clean_linker_10, # of connection points: 2
#     Edge 20, Type (0, 1), BuildingBlock: TEMPAE_clean_linker_10, # of connection points: 2
#     Edge 21, Type (0, 1), BuildingBlock: TEMPAE_clean_linker_10, # of connection points: 2
#     Edge 22, Type (0, 1), BuildingBlock: TEMPAE_clean_linker_10, # of connection points: 2
#     Edge 23, Type (0, 1), BuildingBlock: TEMPAE_clean_linker_10, # of connection points: 2
#     Edge 24, Type (0, 1), BuildingBlock: TEMPAE_clean_linker_10, # of connection points: 2
#     Edge 25, Type (0, 1), BuildingBlock: TEMPAE_clean_linker_10, # of connection points: 2
#     Edge 26, Type (0, 1), BuildingBlock: TEMPAE_clean_linker_10, # of connection points: 2
#     Edge 27, Type (0, 1), BuildingBlock: TEMPAE_clean_linker_10, # of connection points: 2
#     Edge 28, Type (0, 1), BuildingBlock: TEMPAE_clean_linker_10, # of connection points: 2
#     Edge 29, Type (0, 1), BuildingBlock: TEMPAE_clean_linker_10, # of connection points: 2
#     Edge 30, Type (0, 1), BuildingBlock: TEMPAE_clean_linker_10, # of connection points: 2
#     Edge 31, Type (0, 1), BuildingBlock: TEMPAE_clean_linker_10, # of connection points: 2
#     Edge 32, Type (0, 1), BuildingBlock: TEMPAE_clean_linker_10, # of connection points: 2
#     Edge 33, Type (0, 1), BuildingBlock: TEMPAE_clean_linker_10, # of connection points: 2
#     Edge 34, Type (0, 1), BuildingBlock: TEMPAE_clean_linker_10, # of connection points: 2
#     Edge 35, Type (0, 1), BuildingBlock: TEMPAE_clean_linker_10, # of connection points: 2
# Relax obj value: 0.001
# Max RMSD: 0.030
# Mean RMSD: 0.018
data_MOF--net-ssa--node1-MUDLON_clean_sbu_0--node2-GIZVER_clean_linker_0--edge1-TEMPAE_clean_linker_10
_symmetry_space_group_name_H-M    P1
_symmetry_Int_Tables_number       1
_symmetry_cell_setting            triclinic
loop_
_symmetry_equiv_pos_as_xyz
'x, y, z'
_cell_length_a     45.103795
_cell_length_b     45.147498
_cell_length_c     41.715888
_cell_angle_alpha  90.984869
_cell_angle_beta   88.554545
_cell_angle_gamma 120.33468
loop_
_atom_site_label
_atom_site_type_symbol
_atom_site_fract_x
_atom_site_fract_y
_atom_site_fract_z
_atom_type_partial_charge
H0 H 0.07224 0.59033 0.03822 0.0
H1 H 0.05979 0.48895 0.03521 0.0
H2 H 0.09553 0.55048 0.12044 0.0
H3 H 0.06306 0.56112 0.9878 0.0
H4 H 0.07137 0.52668 0.98509 0.0
H5 H 0.00482 0.55042 0.98639 0.0
H6 H 0.92769 0.45072 0.95417 0.0
H7 H 0.02328 0.46557 0.98835 0.0
C8 C 0.07209 0.56911 0.05013 0.0
C9 C 0.08439 0.57362 0.08154 0.0
C10 C 0.06223 0.53807 0.03329 0.0
C11 C 0.06501 0.5119 0.04842 0.0
C12 C 0.07641 0.51615 0.08006 0.0
C13 C 0.08527 0.54664 0.09648 0.0
C14 C 0.05505 0.53537 0.99772 0.0
C15 C 0.01784 0.51058 0.98955 0.0
C16 C 0.99578 0.52333 0.98313 0.0
C17 C 0.96291 0.50163 0.97075 0.0
C18 C 0.95206 0.4669 0.96566 0.0
C19 C 0.97315 0.45328 0.97232 0.0
C20 C 0.0062 0.47539 0.98428 0.0
H21 H 0.59339 0.00717 0.56527 0.0
H22 H 0.5102 0.02794 0.57275 0.0
H23 H 0.61052 0.10224 0.60596 0.0
H24 H 0.53148 0.96068 0.56435 0.0
H25 H 0.49855 0.97101 0.56148 0.0
H26 H 0.57471 0.97622 0.51546 0.0
H27 H 0.51909 0.94444 0.42769 0.0
H28 H 0.47333 0.96336 0.51111 0.0
C29 C 0.58422 0.02477 0.57064 0.0
C30 C 0.60618 0.05625 0.5857 0.0
C31 C 0.54985 0.01501 0.5644 0.0
C32 C 0.53726 0.03664 0.57498 0.0
C33 C 0.55878 0.06783 0.591 0.0
C34 C 0.59357 0.07808 0.59418 0.0
C35 C 0.52505 0.97877 0.55293 0.0
C36 C 0.52533 0.97355 0.51683 0.0
C37 C 0.5527 0.97157 0.50172 0.0
C38 C 0.55018 0.96037 0.4697 0.0
C39 C 0.5208 0.95262 0.45252 0.0
C40 C 0.49257 0.9526 0.46728 0.0
C41 C 0.49534 0.96409 0.49925 0.0
H42 H 0.56866 0.5504 0.09594 0.0
H43 H 0.47724 0.45139 0.10475 0.0
H44 H 0.4772 0.54168 0.13917 0.0
H45 H 0.56916 0.49481 0.09395 0.0
H46 H 0.53029 0.45528 0.08905 0.0
H47 H 0.59725 0.53468 0.04832 0.0
H48 H 0.5721 0.48645 0.95553 0.0
H49 H 0.50546 0.43601 0.03637 0.0
C50 C 0.54164 0.53511 0.10233 0.0
C51 C 0.5253 0.5503 0.11926 0.0
C52 C 0.52399 0.49956 0.09581 0.0
C53 C 0.48982 0.47901 0.10739 0.0
C54 C 0.47299 0.49379 0.12439 0.0
C55 C 0.49045 0.52968 0.128 0.0
C56 C 0.54368 0.48288 0.08236 0.0
C57 C 0.54946 0.48603 0.04623 0.0
C58 C 0.57942 0.51414 0.03288 0.0
C59 C 0.58792 0.51409 1.00017 0.0
C60 C 0.56531 0.48673 0.98063 0.0
C61 C 0.53572 0.45841 0.9933 0.0
C62 C 0.52773 0.45829 1.02616 0.0
H63 H 0.01349 0.56754 0.57657 0.0
H64 H 0.98343 0.46045 0.57802 0.0
H65 H 0.91682 0.4939 0.61909 0.0
H66 H 0.05651 0.54802 0.57269 0.0
H67 H 0.04294 0.5037 0.57015 0.0
H68 H 0.04721 0.57703 0.52469 0.0
H69 H 0.07221 0.54413 0.43601 0.0
H70 H 0.04352 0.47975 0.51905 0.0
C71 C 0.99437 0.54101 0.58132 0.0
C72 C 0.9634 0.5333 0.5971 0.0
C73 C 1.00148 0.51462 0.57347 0.0
C74 C 0.97741 0.48059 0.58242 0.0
C75 C 0.94671 0.47283 0.59893 0.0
C76 C 0.93966 0.49926 0.60521 0.0
C77 C 0.03707 0.52336 0.56162 0.0
C78 C 0.04221 0.52684 0.52546 0.0
C79 C 0.04867 0.55741 0.51057 0.0
C80 C 0.06019 0.56412 0.47844 0.0
C81 C 0.06373 0.53923 0.46091 0.0
C82 C 0.05834 0.50898 0.47527 0.0
C83 C 0.04672 0.5025 0.50744 0.0
H84 H 0.50109 0.96793 0.06943 0.0
H85 H 0.40999 0.97523 0.05985 0.0
H86 H 0.43365 0.94971 0.15058 0.0
H87 H 0.48263 0.97054 1.01752 0.0
H88 H 0.4397 0.96106 1.01316 0.0
H89 H 0.5302 0.02831 1.0097 0.0
H90 H 0.50697 0.09982 0.96673 0.0
H91 H 0.42585 0.00772 1.00916 0.0
C92 C 0.47909 0.96812 0.08025 0.0
C93 C 0.46991 0.95791 0.11238 0.0
C94 C 0.4581 0.97542 0.06116 0.0
C95 C 0.42771 0.97243 0.07479 0.0
C96 C 0.41862 0.96255 0.10694 0.0
C97 C 0.44071 0.9571 0.12571 0.0
C98 C 0.46422 0.97898 1.02515 0.0
C99 C 0.47686 0.01486 1.01273 0.0
C100 C 0.51197 0.03648 1.00464 0.0
C101 C 0.52319 0.06749 0.9882 0.0
C102 C 0.49899 0.07708 0.98103 0.0
C103 C 0.46398 0.05596 0.98864 0.0
C104 C 0.45304 0.02488 1.0046 0.0
H105 H 0.56892 0.54502 0.56274 0.0
H106 H 0.4716 0.45341 0.54582 0.0
H107 H 0.51556 0.47393 0.63926 0.0
H108 H 0.55161 0.52554 0.5087 0.0
H109 H 0.51415 0.48523 0.50123 0.0
H110 H 0.55065 0.57721 0.49933 0.0
H111 H 0.4576 0.56897 0.46548 0.0
H112 H 0.4554 0.48044 0.50369 0.0
C113 C 0.54636 0.52216 0.57173 0.0
C114 C 0.54503 0.51242 0.60383 0.0
C115 C 0.51955 0.50148 0.55069 0.0
C116 C 0.49129 0.47064 0.56216 0.0
C117 C 0.4894 0.46112 0.59438 0.0
C118 C 0.51603 0.48245 0.61499 0.0
C119 C 0.52385 0.5095 0.51519 0.0
C120 C 0.50483 0.52725 0.50471 0.0
C121 C 0.52307 0.56238 0.49641 0.0
C122 C 0.50604 0.5778 0.48254 0.0
C123 C 0.47056 0.55796 0.47795 0.0
C124 C 0.45214 0.52303 0.48545 0.0
C125 C 0.46931 0.50776 0.49904 0.0
Mg126 Mg 0.21245 0.41941 0.28412 0.0
C127 C 0.18411 0.42606 0.22509 0.0
O128 O 0.17557 0.39367 0.22697 0.0
C129 C 0.24958 0.43296 0.34355 0.0
O130 O 0.22227 0.40237 0.34702 0.0
C131 C 0.14335 0.40507 0.31201 0.0
O132 O 0.14338 0.41913 0.28474 0.0
O133 O 0.16642 0.39713 0.31621 0.0
O134 O 0.20238 0.44656 0.24721 0.0
O135 O 0.23229 0.39254 0.2539 0.0
C136 C 0.25905 0.39132 0.26074 0.0
O137 O 0.2697 0.39724 0.29041 0.0
O138 O 0.25337 0.44923 0.31767 0.0
Mg139 Mg 0.78875 0.22422 0.79814 0.0
C140 C 0.77848 0.16409 0.74958 0.0
O141 O 0.81173 0.17583 0.74904 0.0
C142 C 0.84192 0.24019 0.84993 0.0
O143 O 0.81531 0.2167 0.86623 0.0
C144 C 0.71889 0.19382 0.8317 0.0
O145 O 0.70895 0.18524 0.80196 0.0
O146 O 0.75088 0.21226 0.83708 0.0
O147 O 0.76612 0.17826 0.76782 0.0
O148 O 0.79872 0.26667 0.76617 0.0
C149 C 0.80878 0.2647 0.73777 0.0
O150 O 0.80967 0.23701 0.72945 0.0
O151 O 0.8386 0.2442 0.82036 0.0
Mg152 Mg 0.61049 0.81991 0.2753 0.0
C153 C 0.57572 0.8605 0.25769 0.0
O154 O 0.59008 0.87705 0.28426 0.0
C155 C 0.57052 0.75338 0.31344 0.0
O156 O 0.56538 0.73934 0.28476 0.0
C157 C 0.65697 0.86684 0.32665 0.0
O158 O 0.65203 0.8376 0.33777 0.0
O159 O 0.6487 0.86765 0.29785 0.0
O160 O 0.57789 0.8343 0.24979 0.0
O161 O 0.62514 0.79141 0.2414 0.0
C162 C 0.6105 0.7838 0.21431 0.0
O163 O 0.59243 0.79794 0.20654 0.0
O164 O 0.58594 0.78587 0.316 0.0
Mg165 Mg 0.79387 0.59687 0.79898 0.0
C166 C 0.74273 0.59267 0.75534 0.0
O167 O 0.76574 0.62542 0.75815 0.0
C168 C 0.82068 0.55202 0.82688 0.0
O169 O 0.82861 0.54954 0.79686 0.0
C170 C 0.79151 0.6334 0.85948 0.0
O171 O 0.81523 0.62655 0.86805 0.0
O172 O 0.78383 0.63047 0.82997 0.0
O173 O 0.74688 0.57117 0.77118 0.0
O174 O 0.83603 0.61558 0.76315 0.0
C175 C 0.82957 0.59245 0.74201 0.0
O176 O 0.79943 0.56417 0.74317 0.0
O177 O 0.80374 0.56697 0.83346 0.0
Mg178 Mg 0.21487 0.81119 0.29785 0.0
C179 C 0.18425 0.74471 0.25903 0.0
O180 O 0.16931 0.73176 0.28682 0.0
C181 C 0.28882 0.85156 0.3204 0.0
O182 O 0.29229 0.86836 0.29386 0.0
C183 C 0.17343 0.78523 0.35971 0.0
O184 O 0.20315 0.80805 0.37161 0.0
O185 O 0.16985 0.78392 0.32946 0.0
O186 O 0.20648 0.77654 0.25735 0.0
O187 O 0.22579 0.85882 0.27511 0.0
C188 C 0.21661 0.85809 0.24636 0.0
O189 O 0.19262 0.82871 0.23458 0.0
O190 O 0.25994 0.82504 0.32692 0.0
Mg191 Mg 0.44276 0.22342 0.77442 0.0
C192 C 0.48169 0.21276 0.71575 0.0
O193 O 0.48164 0.23896 0.70263 0.0
C194 C 0.44964 0.26698 0.82923 0.0
O195 O 0.41656 0.24717 0.82442 0.0
C196 C 0.43208 0.17219 0.81786 0.0
O197 O 0.46466 0.19048 0.8093 0.0
O198 O 0.41106 0.1796 0.80554 0.0
O199 O 0.46998 0.2039 0.74424 0.0
O200 O 0.42221 0.24638 0.74246 0.0
C201 C 0.44629 0.27656 0.73546 0.0
O202 O 0.4764 0.28761 0.74838 0.0
O203 O 0.47051 0.26336 0.81064 0.0
C204 C 0.11204 0.48862 0.08243 0.0
C205 C 0.08493 0.4921 0.09515 0.0
C206 C 0.12786 0.47503 0.10101 0.0
C207 C 0.11598 0.46453 0.13287 0.0
C208 C 0.08678 0.46545 0.14479 0.0
C209 C 0.07173 0.47946 0.12582 0.0
C210 C 0.1589 0.47445 0.08743 0.0
C211 C 0.0729 0.45391 0.1784 0.0
C212 C 0.1442 0.41189 0.1795 0.0
C213 C 0.16893 0.43675 0.19986 0.0
C214 C 0.12729 0.42064 0.15708 0.0
C215 C 0.13552 0.45516 0.15467 0.0
C216 C 0.16129 0.48061 0.17434 0.0
C217 C 0.17758 0.47107 0.19685 0.0
C218 C 0.09979 0.39275 0.13675 0.0
C219 C 0.17105 0.51782 0.17215 0.0
H220 H 0.12261 0.499 0.05891 0.0
H221 H 0.05095 0.48253 0.13568 0.0
H222 H 0.18229 0.49446 0.09951 0.0
H223 H 0.15689 0.44936 0.092 0.0
H224 H 0.16223 0.47938 0.06122 0.0
H225 H 0.04794 0.45278 0.18273 0.0
H226 H 0.06943 0.42821 0.18302 0.0
H227 H 0.09158 0.47204 0.19598 0.0
H228 H 0.1373 0.38526 0.18161 0.0
H229 H 0.19673 0.49041 0.21237 0.0
H230 H 0.10502 0.39961 0.111 0.0
H231 H 0.07452 0.39013 0.14301 0.0
H232 H 0.0979 0.36749 0.14014 0.0
H233 H 0.17803 0.52679 0.14702 0.0
H234 H 0.19298 0.53472 0.1877 0.0
H235 H 0.14876 0.52064 0.17939 0.0
C236 C 0.64171 0.04121 0.6194 0.0
C237 C 0.63993 0.06443 0.59873 0.0
C238 C 0.6687 0.05245 0.64117 0.0
C239 C 0.69407 0.08771 0.64247 0.0
C240 C 0.69468 0.11018 0.61883 0.0
C241 C 0.66774 0.09817 0.59706 0.0
C242 C 0.66786 0.02733 0.66506 0.0
C243 C 0.72136 0.14791 0.61899 0.0
C244 C 0.72134 0.13066 0.72376 0.0
C245 C 0.75599 0.13961 0.72462 0.0
C246 C 0.70074 0.11261 0.69772 0.0
C247 C 0.71478 0.10248 0.67195 0.0
C248 C 0.74899 0.10922 0.67363 0.0
C249 C 0.76933 0.128 0.69984 0.0
C250 C 0.66441 0.10609 0.69708 0.0
C251 C 0.7647 0.09812 0.64713 0.0
H252 H 0.62039 0.01504 0.62081 0.0
H253 H 0.6667 0.11606 0.58075 0.0
H254 H 0.6942 0.03263 0.66986 0.0
H255 H 0.6565 0.02995 0.68808 0.0
H256 H 0.65208 1.00042 0.65651 0.0
H257 H 0.72136 0.16075 0.59651 0.0
H258 H 0.71595 0.16065 0.63944 0.0
H259 H 0.74739 0.15173 0.62221 0.0
H260 H 0.71055 0.13912 0.74285 0.0
H261 H 0.79599 0.13458 0.70029 0.0
H262 H 0.64597 0.07832 0.69369 0.0
H263 H 0.66168 0.1198 0.67655 0.0
H264 H 0.65709 0.11474 0.71944 0.0
H265 H 0.74581 0.07237 0.63774 0.0
H266 H 0.78761 0.09751 0.65539 0.0
H267 H 0.77289 0.11653 0.627 0.0
C268 C 0.53684 0.59473 0.16168 0.0
C269 C 0.5448 0.58662 0.13115 0.0
C270 C 0.55262 0.62861 0.17298 0.0
C271 C 0.57814 0.65539 0.1539 0.0
C272 C 0.58801 0.64735 0.12392 0.0
C273 C 0.57098 0.61311 0.11272 0.0
C274 C 0.5409 0.63582 0.20494 0.0
C275 C 0.61589 0.67501 0.10332 0.0
C276 C 0.58279 0.74033 0.17072 0.0
C277 C 0.60741 0.75444 0.19487 0.0
C278 C 0.57451 0.70908 0.15579 0.0
C279 C 0.59187 0.69172 0.16451 0.0
C280 C 0.61878 0.70723 0.1869 0.0
C281 C 0.62593 0.73819 0.20217 0.0
C282 C 0.54517 0.69332 0.13259 0.0
C283 C 0.63875 0.69019 0.19606 0.0
H284 H 0.51779 0.57447 0.17685 0.0
H285 H 0.57763 0.60727 0.08926 0.0
H286 H 0.56299 0.64927 0.22117 0.0
H287 H 0.53025 0.65295 0.20148 0.0
H288 H 0.5209 0.61204 0.21695 0.0
H289 H 0.6243 0.66415 0.08339 0.0
H290 H 0.60631 0.69097 0.09288 0.0
H291 H 0.63848 0.69222 0.11799 0.0
H292 H 0.56835 0.75264 0.16471 0.0
H293 H 0.64523 0.74901 0.22054 0.0
H294 H 0.52322 0.67008 0.14348 0.0
H295 H 0.55288 0.68515 0.11023 0.0
H296 H 0.53625 0.71131 0.12627 0.0
H297 H 0.62283 0.6685 0.21245 0.0
H298 H 0.66287 0.70831 0.20844 0.0
H299 H 0.64519 0.67958 0.17455 0.0
C300 C 0.97212 0.57584 0.63963 0.0
C301 C 0.95704 0.56018 0.61054 0.0
C302 C 0.95723 0.59033 0.65973 0.0
C303 C 0.92675 0.58928 0.65026 0.0
C304 C 0.91421 0.5775 0.61902 0.0
C305 C 0.92922 0.5626 0.59969 0.0
C306 C 0.97156 0.60251 0.69274 0.0
C307 C 0.88237 0.5767 0.60753 0.0
C308 C 0.85538 0.56266 0.7126 0.0
C309 C 0.85636 0.59355 0.71993 0.0
C310 C 0.87879 0.56141 0.69077 0.0
C311 C 0.90362 0.59179 0.67508 0.0
C312 C 0.90521 0.62334 0.68266 0.0
C313 C 0.88171 0.62392 0.70537 0.0
C314 C 0.87647 0.52725 0.68419 0.0
C315 C 0.93084 0.65611 0.66605 0.0
H316 H 0.99336 0.57352 0.64821 0.0
H317 H 0.91738 0.5502 0.5773 0.0
H318 H 0.97022 0.62555 0.7 0.0
H319 H 0.956 0.58198 0.71036 0.0
H320 H 0.99865 0.60859 0.69396 0.0
H321 H 0.8803 0.574 0.58103 0.0
H322 H 0.85932 0.5545 0.61844 0.0
H323 H 0.8822 0.60033 0.61492 0.0
H324 H 0.83615 0.53916 0.72412 0.0
H325 H 0.88242 0.64782 0.7109 0.0
H326 H 0.90172 0.52934 0.68799 0.0
H327 H 0.86958 0.5196 0.65883 0.0
H328 H 0.85698 0.5065 0.6998 0.0
H329 H 0.9569 0.65931 0.66601 0.0
H330 H 0.9319 0.67902 0.67749 0.0
H331 H 0.92354 0.6549 0.64065 0.0
C332 C 0.36466 0.919 0.13362 0.0
C333 C 0.38387 0.95186 0.12036 0.0
C334 C 0.33451 0.90927 0.15145 0.0
C335 C 0.32268 0.93279 0.15578 0.0
C336 C 0.34058 0.96522 0.14047 0.0
C337 C 0.37124 0.97452 0.12298 0.0
C338 C 0.31638 0.87433 0.16709 0.0
C339 C 0.32842 0.99072 0.14376 0.0
C340 C 0.2331 0.88281 0.19106 0.0
C341 C 0.2403 0.88562 0.2239 0.0
C342 C 0.25917 0.9018 0.16824 0.0
C343 C 0.29324 0.92358 0.17851 0.0
C344 C 0.29962 0.92976 0.21174 0.0
C345 C 0.27296 0.91096 0.23405 0.0
C346 C 0.25093 0.89563 0.13309 0.0
C347 C 0.33545 0.95298 0.22386 0.0
H348 H 0.37413 0.90125 0.13109 0.0
H349 H 0.38602 0.9999 0.11262 0.0
H350 H 0.31656 0.87733 0.19357 0.0
H351 H 0.28916 0.85972 0.15978 0.0
H352 H 0.32861 0.85891 0.16074 0.0
H353 H 0.33913 0.01001 0.12424 0.0
H354 H 0.29996 0.97768 0.14359 0.0
H355 H 0.33706 0.00454 0.16696 0.0
H356 H 0.20775 0.8639 0.18294 0.0
H357 H 0.27869 0.91395 0.25937 0.0
H358 H 0.25797 0.87684 0.12359 0.0
H359 H 0.2659 0.9197 0.11923 0.0
H360 H 0.22311 0.88511 0.12905 0.0
H361 H 0.35071 0.94005 0.22049 0.0
H362 H 0.33534 0.9592 0.24973 0.0
H363 H 0.34857 0.97724 0.2101 0.0
C364 C 0.46399 0.39779 0.59341 0.0
C365 C 0.46366 0.42652 0.60619 0.0
C366 C 0.45113 0.36757 0.61142 0.0
C367 C 0.43763 0.36627 0.64277 0.0
C368 C 0.43256 0.39334 0.65353 0.0
C369 C 0.44594 0.42334 0.63519 0.0
C370 C 0.45653 0.33914 0.59872 0.0
C371 C 0.41738 0.3927 0.68632 0.0
C372 C 0.41171 0.28819 0.69588 0.0
C373 C 0.44234 0.2989 0.71228 0.0
C374 C 0.40931 0.30979 0.67327 0.0
C375 C 0.43831 0.34253 0.6668 0.0
C376 C 0.46908 0.35338 0.68355 0.0
C377 C 0.47062 0.33159 0.706 0.0
C378 C 0.37603 0.29734 0.65604 0.0
C379 C 0.50075 0.3881 0.67767 0.0
H380 H 0.47773 0.4002 0.571 0.0
H381 H 0.4455 0.44553 0.64499 0.0
H382 H 0.47984 0.34146 0.60957 0.0
H383 H 0.43447 0.31364 0.60525 0.0
H384 H 0.46017 0.34043 0.57223 0.0
H385 H 0.40794 0.41114 0.6881 0.0
H386 H 0.39587 0.36662 0.69215 0.0
H387 H 0.43741 0.3999 0.70459 0.0
H388 H 0.38976 0.26295 0.70053 0.0
H389 H 0.49442 0.34029 0.71851 0.0
H390 H 0.37894 0.29044 0.63098 0.0
H391 H 0.36936 0.31784 0.65504 0.0
H392 H 0.35441 0.27439 0.6677 0.0
H393 H 0.50885 0.39053 0.65205 0.0
H394 H 0.52272 0.39242 0.6925 0.0
H395 H 0.49495 0.4088 0.68317 0.0
C396 C 0.5624 0.91961 0.43958 0.0
C397 C 0.57513 0.95165 0.45469 0.0
C398 C 0.5838 0.91165 0.42117 0.0
C399 C 0.61929 0.93607 0.41818 0.0
C400 C 0.63288 0.9677 0.4351 0.0
C401 C 0.61052 0.97523 0.45312 0.0
C402 C 0.56798 0.87749 0.40381 0.0
C403 C 0.67063 0.99411 0.43319 0.0
C404 C 0.6623 0.88957 0.38276 0.0
C405 C 0.65923 0.89331 0.34985 0.0
C406 C 0.65351 0.90708 0.40582 0.0
C407 C 0.64088 0.92837 0.39572 0.0
C408 C 0.64196 0.93556 0.36264 0.0
C409 C 0.65153 0.91825 0.34012 0.0
C410 C 0.65415 0.89976 0.44087 0.0
C411 C 0.62902 0.95827 0.3507 0.0
H412 H 0.53516 0.90095 0.4414 0.0
H413 H 0.6205 0.99995 0.46491 0.0
H414 H 0.57188 0.88171 0.37753 0.0
H415 H 0.58066 0.86307 0.41086 0.0
H416 H 0.53998 0.86131 0.40894 0.0
H417 H 0.67827 0.01312 0.45307 0.0
H418 H 0.68654 0.98177 0.43382 0.0
H419 H 0.6764 0.00811 0.41018 0.0
H420 H 0.66901 0.87098 0.39065 0.0
H421 H 0.64991 0.92207 0.31479 0.0
H422 H 0.62791 0.88024 0.44908 0.0
H423 H 0.66236 0.92323 0.45562 0.0
H424 H 0.67164 0.88968 0.44519 0.0
H425 H 0.60053 0.9443 0.35259 0.0
H426 H 0.63665 0.96573 0.32526 0.0
H427 H 0.63882 0.98186 0.36556 0.0
C428 C 0.63478 0.57506 0.98819 0.0
C429 C 0.62209 0.53961 0.98636 0.0
C430 C 0.66501 0.59832 0.97117 0.0
C431 C 0.68261 0.58567 0.95184 0.0
C432 C 0.67067 0.55001 0.95139 0.0
C433 C 0.64089 0.52763 0.9688 0.0
C434 C 0.67722 0.63615 0.97288 0.0
C435 C 0.68852 0.53515 0.93139 0.0
C436 C 0.73344 0.62424 0.87526 0.0
C437 C 0.7664 0.63193 0.88421 0.0
C438 C 0.70627 0.61239 0.89791 0.0
C439 C 0.71226 0.60859 0.93036 0.0
C440 C 0.74632 0.62045 0.94014 0.0
C441 C 0.77295 0.63177 0.91693 0.0
C442 C 0.67047 0.60034 0.88636 0.0
C443 C 0.75413 0.61797 0.97461 0.0
H444 H 0.62039 0.58444 1.00183 0.0
H445 H 0.6316 0.5003 0.96791 0.0
H446 H 0.70561 0.65151 0.97464 0.0
H447 H 0.67008 0.64398 0.95065 0.0
H448 H 0.66547 0.64248 0.99364 0.0
H449 H 0.67627 0.50692 0.93419 0.0
H450 H 0.68805 0.54077 0.90567 0.0
H451 H 0.71583 0.54716 0.9382 0.0
H452 H 0.72805 0.62461 0.85014 0.0
H453 H 0.79843 0.63821 0.92424 0.0
H454 H 0.65673 0.609 0.90294 0.0
H455 H 0.6557 0.57185 0.88583 0.0
H456 H 0.67072 0.6098 0.86188 0.0
H457 H 0.73904 0.62507 0.99116 0.0
H458 H 0.78189 0.63477 0.97957 0.0
H459 H 0.74686 0.5911 0.97988 0.0
C460 C 0.05402 0.61555 0.46681 0.0
C461 C 0.07273 0.59848 0.46388 0.0
C462 C 0.0658 0.64751 0.4519 0.0
C463 C 0.09701 0.66268 0.4338 0.0
C464 C 0.11625 0.6458 0.43141 0.0
C465 C 0.104 0.61416 0.44655 0.0
C466 C 0.0447 0.66482 0.45512 0.0
C467 C 0.1498 0.66103 0.41262 0.0
C468 C 0.12162 0.72647 0.36619 0.0
C469 C 0.14809 0.75642 0.38017 0.0
C470 C 0.10261 0.69626 0.38415 0.0
C471 C 0.11007 0.69603 0.4169 0.0
C472 C 0.1345 0.72702 0.4318 0.0
C473 C 0.15327 0.7568 0.41326 0.0
C474 C 0.07671 0.66387 0.36728 0.0
C475 C 0.14301 0.72811 0.46672 0.0
H476 H 0.02989 0.60362 0.48022 0.0
H477 H 0.11911 0.60163 0.44487 0.0
H478 H 0.06067 0.69128 0.46458 0.0
H479 H 0.03578 0.66695 0.43119 0.0
H480 H 0.02192 0.65056 0.47125 0.0
H481 H 0.16161 0.6446 0.41314 0.0
H482 H 0.14555 0.66465 0.38725 0.0
H483 H 0.16834 0.68665 0.42249 0.0
H484 H 0.11719 0.72587 0.34071 0.0
H485 H 0.17337 0.77989 0.42441 0.0
H486 H 0.05289 0.64974 0.38208 0.0
H487 H 0.08755 0.64677 0.36363 0.0
H488 H 0.06997 0.66928 0.34351 0.0
H489 H 0.11927 0.71373 0.48158 0.0
H490 H 0.15786 0.75484 0.47598 0.0
H491 H 0.15861 0.71567 0.46968 0.0
C492 C 0.44614 0.09845 0.97636 0.0
C493 C 0.43942 0.06459 0.97445 0.0
C494 C 0.4332 0.11122 0.95353 0.0
C495 C 0.41294 0.08945 0.9284 0.0
C496 C 0.40137 0.05391 0.92973 0.0
C497 C 0.41502 0.04184 0.95268 0.0
C498 C 0.44548 0.14912 0.95366 0.0
C499 C 0.37825 0.02949 0.90442 0.0
C500 C 0.39346 0.13538 0.86325 0.0
C501 C 0.42224 0.14578 0.8429 0.0
C502 C 0.38846 0.11495 0.89037 0.0
C503 C 0.41305 0.10526 0.89725 0.0
C504 C 0.44081 0.11393 0.87546 0.0
C505 C 0.44482 0.13376 0.84859 0.0
C506 C 0.35797 0.10552 0.91236 0.0
C507 C 0.46774 0.10416 0.88145 0.0
H508 H 0.4645 0.11592 0.99362 0.0
H509 H 0.4094 0.0155 0.95128 0.0
H510 H 0.46612 0.16201 0.93517 0.0
H511 H 0.4243 0.15366 0.9477 0.0
H512 H 0.45592 0.16118 0.97728 0.0
H513 H 0.36463 1.00257 0.91306 0.0
H514 H 0.35903 0.03638 0.89705 0.0
H515 H 0.39393 0.031 0.88291 0.0
H516 H 0.37583 0.1445 0.85892 0.0
H517 H 0.46677 0.14113 0.83262 0.0
H518 H 0.36527 0.12568 0.93104 0.0
H519 H 0.34919 0.0807 0.92453 0.0
H520 H 0.3362 0.1039 0.89898 0.0
H521 H 0.48126 0.1163 0.90402 0.0
H522 H 0.48721 0.11226 0.86169 0.0
H523 H 0.45546 0.07598 0.88425 0.0
C524 C 0.39339 0.51408 0.47855 0.0
C525 C 0.41667 0.50244 0.47347 0.0
C526 C 0.36366 0.50123 0.46028 0.0
C527 C 0.35716 0.47616 0.43636 0.0
C528 C 0.37919 0.4624 0.4329 0.0
C529 C 0.40873 0.4757 0.45158 0.0
C530 C 0.34058 0.51624 0.46502 0.0
C531 C 0.37297 0.43544 0.40784 0.0
C532 C 0.2701 0.42818 0.39714 0.0
C533 C 0.27651 0.44595 0.36812 0.0
C534 C 0.29591 0.43804 0.41982 0.0
C535 C 0.32898 0.46632 0.41334 0.0
C536 C 0.33544 0.48492 0.38446 0.0
C537 C 0.30907 0.47455 0.36219 0.0
C538 C 0.28797 0.41774 0.45041 0.0
C539 C 0.37044 0.51534 0.37677 0.0
H540 H 0.39957 0.53479 0.49552 0.0
H541 H 0.42691 0.46697 0.44731 0.0
H542 H 0.34344 0.53237 0.44408 0.0
H543 H 0.31326 0.49557 0.46656 0.0
H544 H 0.34685 0.53237 0.48702 0.0
H545 H 0.39035 0.42491 0.41042 0.0
H546 H 0.34599 0.41399 0.4093 0.0
H547 H 0.37718 0.44682 0.3836 0.0
H548 H 0.24494 0.40613 0.40202 0.0
H549 H 0.31422 0.48833 0.33982 0.0
H550 H 0.29445 0.43505 0.47152 0.0
H551 H 0.304 0.40556 0.45135 0.0
H552 H 0.26051 0.39736 0.45247 0.0
H553 H 0.37824 0.53486 0.39615 0.0
H554 H 0.37104 0.52756 0.35369 0.0
H555 H 0.38981 0.50708 0.37542 0.0
C556 C 0.98219 0.40779 0.94543 0.0
C557 C 0.96092 0.41684 0.96295 0.0
C558 C 0.9683 0.37578 0.92962 0.0
C559 C 0.93228 0.35295 0.93049 0.0
C560 C 0.91127 0.36076 0.95048 0.0
C561 C 0.92599 0.39214 0.96704 0.0
C562 C 0.99192 0.36752 0.91026 0.0
C563 C 0.87272 0.33751 0.9521 0.0
C564 C 0.88571 0.30202 0.85676 0.0
C565 C 0.87107 0.26814 0.86756 0.0
C566 C 0.90729 0.32988 0.87641 0.0
C567 C 0.91565 0.32378 0.90721 0.0
C568 C 0.90371 0.28956 0.9169 0.0
C569 C 0.88083 0.2621 0.8973 0.0
C570 C 0.91861 0.36579 0.86524 0.0
C571 C 0.91345 0.28178 0.94869 0.0
H572 H 0.00927 0.42643 0.94228 0.0
H573 H 0.90955 0.39845 0.98141 0.0
H574 H 0.98343 0.33982 0.91188 0.0
H575 H 0.99148 0.37352 0.88467 0.0
H576 H 0.01885 0.38284 0.91845 0.0
H577 H 0.8602 0.34679 0.96959 0.0
H578 H 0.86186 0.33585 0.9281 0.0
H579 H 0.86599 0.3112 0.95893 0.0
H580 H 0.87814 0.30695 0.83391 0.0
H581 H 0.8698 0.23596 0.90569 0.0
H582 H 0.9469 0.38226 0.86665 0.0
H583 H 0.90701 0.37733 0.88117 0.0
H584 H 0.91098 0.36622 0.84021 0.0
H585 H 0.94008 0.30146 0.95503 0.0
H586 H 0.91127 0.25615 0.94836 0.0
H587 H 0.89586 0.28169 0.9678 0.0
C588 C 0.90514 0.49551 0.96289 0.0
C589 C 0.94102 0.51499 0.95883 0.0
C590 C 0.88336 0.50243 0.94508 0.0
C591 C 0.89778 0.52995 0.92308 0.0
C592 C 0.93395 0.5517 0.92113 0.0
C593 C 0.95517 0.54386 0.9389 0.0
C594 C 0.845 0.47856 0.94794 0.0
C595 C 0.95034 0.58179 0.8985 0.0
C596 C 0.8508 0.52222 0.84624 0.0
C597 C 0.83666 0.54313 0.85285 0.0
C598 C 0.86984 0.51698 0.86927 0.0
C599 C 0.87544 0.53353 0.89953 0.0
C600 C 0.86043 0.55392 0.90671 0.0
C601 C 0.84096 0.55823 0.88338 0.0
C602 C 0.88474 0.49439 0.86086 0.0
C603 C 0.86608 0.57228 0.93852 0.0
H604 H 0.89403 0.47348 0.97867 0.0
H605 H 0.9828 0.55897 0.93546 0.0
H606 H 0.83147 0.4933 0.95012 0.0
H607 H 0.83578 0.46258 0.92591 0.0
H608 H 0.83774 0.46122 0.9689 0.0
H609 H 0.97816 0.59887 0.90306 0.0
H610 H 0.94744 0.57226 0.87343 0.0
H611 H 0.93737 0.59709 0.90069 0.0
H612 H 0.84749 0.51037 0.82277 0.0
H613 H 0.83035 0.57466 0.88863 0.0
H614 H 0.87688 0.47415 0.87924 0.0
H615 H 0.91321 0.50992 0.86069 0.0
H616 H 0.87643 0.48188 0.83703 0.0
H617 H 0.85937 0.55403 0.95858 0.0
H618 H 0.85069 0.58517 0.94125 0.0
H619 H 0.89367 0.59193 0.9407 0.0
C620 C 0.43924 0.95205 0.44881 0.0
C621 C 0.45944 0.93657 0.44983 0.0
C622 C 0.40969 0.93802 0.42976 0.0
C623 C 0.40025 0.90792 0.41132 0.0
C624 C 0.41983 0.89154 0.41336 0.0
C625 C 0.44885 0.90584 0.43272 0.0
C626 C 0.38918 0.95596 0.42857 0.0
C627 C 0.41087 0.85947 0.39419 0.0
C628 C 0.31131 0.85392 0.37553 0.0
C629 C 0.31729 0.86536 0.34366 0.0
C630 C 0.33775 0.86825 0.3981 0.0
C631 C 0.37114 0.89432 0.3885 0.0
C632 C 0.37731 0.90587 0.35634 0.0
C633 C 0.35033 0.89145 0.33443 0.0
C634 C 0.33 0.8554 0.43218 0.0
C635 C 0.41261 0.93316 0.34491 0.0
H636 H 0.44714 0.97566 0.46205 0.0
H637 H 0.46374 0.89313 0.43405 0.0
H638 H 0.39146 0.96656 0.40425 0.0
H639 H 0.36155 0.93744 0.43326 0.0
H640 H 0.39804 0.97728 0.44629 0.0
H641 H 0.42804 0.8492 0.39933 0.0
H642 H 0.38396 0.83922 0.39945 0.0
H643 H 0.41285 0.86512 0.36819 0.0
H644 H 0.28579 0.83406 0.38301 0.0
H645 H 0.35522 0.90051 0.3099 0.0
H646 H 0.3376 0.87721 0.44907 0.0
H647 H 0.34525 0.84321 0.43802 0.0
H648 H 0.30235 0.8364 0.43628 0.0
H649 H 0.4218 0.95667 0.35979 0.0
H650 H 0.41299 0.94001 0.31939 0.0
H651 H 0.43109 0.92401 0.34765 0.0
C652 C 0.50821 0.43154 0.94112 0.0
C653 C 0.51652 0.42769 0.97238 0.0
C654 C 0.49633 0.40449 0.91877 0.0
C655 C 0.4927 0.37271 0.9278 0.0
C656 C 0.49961 0.36816 0.95975 0.0
C657 C 0.51138 0.39569 0.98168 0.0
C658 C 0.48882 0.41036 0.88514 0.0
C659 C 0.49593 0.33466 0.97039 0.0
C660 C 0.43694 0.29538 0.87523 0.0
C661 C 0.46138 0.29324 0.85525 0.0
C662 C 0.44679 0.32061 0.89924 0.0
C663 C 0.48204 0.34448 0.9036 0.0
C664 C 0.50696 0.34217 0.88396 0.0
C665 C 0.49635 0.31658 0.86001 0.0
C666 C 0.41938 0.32212 0.91955 0.0
C667 C 0.54483 0.36711 0.88791 0.0
H668 H 0.51212 0.45623 0.93385 0.0
H669 H 0.51827 0.39272 1.00563 0.0
H670 H 0.50668 0.40809 0.86785 0.0
H671 H 0.46234 0.39047 0.87864 0.0
H672 H 0.49152 0.43604 0.88234 0.0
H673 H 0.50039 0.33456 0.99645 0.0
H674 H 0.46988 0.31306 0.96499 0.0
H675 H 0.51464 0.32989 0.9569 0.0
H676 H 0.40982 0.27745 0.87193 0.0
H677 H 0.51541 0.31514 0.84478 0.0
H678 H 0.42038 0.34686 0.91561 0.0
H679 H 0.42406 0.32095 0.94535 0.0
H680 H 0.39314 0.30086 0.91399 0.0
H681 H 0.55053 0.39355 0.88285 0.0
H682 H 0.56101 0.36109 0.87167 0.0
H683 H 0.55219 0.36684 0.91303 0.0
C684 C 0.10029 0.50219 0.44014 0.0
C685 C 0.06877 0.48676 0.45708 0.0
C686 C 0.10959 0.48306 0.41976 0.0
C687 C 0.08702 0.44727 0.41626 0.0
C688 C 0.05603 0.43108 0.43476 0.0
C689 C 0.04723 0.45104 0.45498 0.0
C690 C 0.14297 0.50159 0.40078 0.0
C691 C 0.03151 0.39296 0.43218 0.0
C692 C 0.09834 0.41707 0.33389 0.0
C693 C 0.12274 0.40724 0.33952 0.0
C694 C 0.08446 0.42765 0.35906 0.0
C695 C 0.09485 0.42813 0.39092 0.0
C696 C 0.11699 0.41519 0.39715 0.0
C697 C 0.1308 0.40502 0.37138 0.0
C698 C 0.06099 0.44117 0.3511 0.0
C699 C 0.12818 0.4145 0.43076 0.0
H700 H 0.11752 0.52966 0.44227 0.0
H701 H 0.02294 0.4389 0.46812 0.0
H702 H 0.15861 0.48935 0.40452 0.0
H703 H 0.13752 0.49983 0.37481 0.0
H704 H 0.15846 0.52914 0.40751 0.0
H705 H 0.01151 0.3835 0.45154 0.0
H706 H 0.01854 0.38698 0.40875 0.0
H707 H 0.0456 0.37875 0.43316 0.0
H708 H 0.09156 0.41854 0.30946 0.0
H709 H 0.1495 0.39737 0.37612 0.0
H710 H 0.07482 0.46943 0.35463 0.0
H711 H 0.03812 0.43002 0.36735 0.0
H712 H 0.05223 0.43545 0.32593 0.0
H713 H 0.14784 0.44087 0.43805 0.0
H714 H 0.13948 0.39771 0.43251 0.0
H715 H 0.10621 0.40546 0.44801 0.0
C716 C 0.57509 0.12377 0.97282 0.0
C717 C 0.55856 0.08778 0.97387 0.0
C718 C 0.60405 0.14296 0.95289 0.0
C719 C 0.61728 0.12587 0.93381 0.0
C720 C 0.60253 0.08986 0.93683 0.0
C721 C 0.57328 0.07123 0.95671 0.0
C722 C 0.61886 0.18123 0.9505 0.0
C723 C 0.61615 0.07065 0.91737 0.0
C724 C 0.65812 0.16352 0.85252 0.0
C725 C 0.69333 0.17893 0.85857 0.0
C726 C 0.6333 0.14682 0.87694 0.0
C727 C 0.6438 0.14494 0.90821 0.0
C728 C 0.67933 0.16089 0.91464 0.0
C729 C 0.70368 0.17789 0.88981 0.0
C730 C 0.59573 0.13072 0.86909 0.0
C731 C 0.6916 0.15922 0.94753 0.0
H732 H 0.56421 0.13685 0.98637 0.0
H733 H 0.56066 0.04347 0.95709 0.0
H734 H 0.64725 0.19498 0.9521 0.0
H735 H 0.61262 0.18737 0.92685 0.0
H736 H 0.60847 0.19116 0.96957 0.0
H737 H 0.60506 0.04375 0.92558 0.0
H738 H 0.6097 0.0702 0.89181 0.0
H739 H 0.64455 0.08378 0.91875 0.0
H740 H 0.64986 0.16427 0.82853 0.0
H741 H 0.73081 0.18948 0.89468 0.0
H742 H 0.5832 0.141 0.88537 0.0
H743 H 0.58252 0.10259 0.87289 0.0
H744 H 0.59184 0.13549 0.84393 0.0
H745 H 0.68069 0.16933 0.96584 0.0
H746 H 0.72006 0.17401 0.94899 0.0
H747 H 0.68242 0.13209 0.95373 0.0
C748 C 0.55253 0.62083 0.44629 0.0
C749 C 0.5248 0.6124 0.4675 0.0
C750 C 0.56365 0.64804 0.4245 0.0
C751 C 0.54627 0.66684 0.42364 0.0
C752 C 0.52049 0.6605 0.44703 0.0
C753 C 0.51042 0.63369 0.46894 0.0
C754 C 0.59202 0.65469 0.40064 0.0
C755 C 0.50115 0.67974 0.44701 0.0
C756 C 0.58054 0.74604 0.37087 0.0
C757 C 0.5626 0.73187 0.34241 0.0
C758 C 0.57569 0.72529 0.39753 0.0
C759 C 0.55178 0.68966 0.39593 0.0
C760 C 0.53285 0.67543 0.36758 0.0
C761 C 0.5388 0.69662 0.34106 0.0
C762 C 0.59685 0.74133 0.42702 0.0
C763 C 0.50647 0.63769 0.36511 0.0
H764 H 0.56377 0.60454 0.44489 0.0
H765 H 0.48932 0.62762 0.48563 0.0
H766 H 0.5808 0.64446 0.37681 0.0
H767 H 0.61009 0.68265 0.39799 0.0
H768 H 0.60666 0.64221 0.40779 0.0
H769 H 0.48534 0.67517 0.46922 0.0
H770 H 0.51908 0.70771 0.44447 0.0
H771 H 0.48384 0.6712 0.42617 0.0
H772 H 0.59928 0.77323 0.37197 0.0
H773 H 0.52481 0.68555 0.31919 0.0
H774 H 0.6135 0.73024 0.43099 0.0
H775 H 0.5799 0.73545 0.44854 0.0
H776 H 0.61337 0.76963 0.42494 0.0
H777 H 0.51913 0.62223 0.36752 0.0
H778 H 0.49285 0.63096 0.34195 0.0
H779 H 0.48718 0.63022 0.38494 0.0
C780 C 0.55864 0.10368 0.63776 0.0
C781 C 0.54501 0.08808 0.60802 0.0
C782 C 0.54787 0.12422 0.65385 0.0
C783 C 0.52147 0.12823 0.64088 0.0
C784 C 0.50646 0.11155 0.61158 0.0
C785 C 0.51864 0.09197 0.59531 0.0
C786 C 0.56501 0.14178 0.68476 0.0
C787 C 0.47749 0.11434 0.59748 0.0
C788 C 0.47673 0.15612 0.70268 0.0
C789 C 0.49183 0.1913 0.69635 0.0
C790 C 0.48486 0.13501 0.68379 0.0
C791 C 0.50957 0.14957 0.65855 0.0
C792 C 0.52494 0.18512 0.65207 0.0
C793 C 0.51548 0.20543 0.67072 0.0
C794 C 0.4672 0.09713 0.69106 0.0
C795 C 0.55219 0.20191 0.6261 0.0
H796 H 0.5779 0.09981 0.64881 0.0
H797 H 0.50773 0.08004 0.57253 0.0
H798 H 0.57503 0.16978 0.68312 0.0
H799 H 0.54601 0.13192 0.70491 0.0
H800 H 0.58661 0.13774 0.6906 0.0
H801 H 0.46761 0.09876 0.57527 0.0
H802 H 0.45602 0.10574 0.61525 0.0
H803 H 0.48635 0.14151 0.59182 0.0
H804 H 0.458 0.1449 0.72212 0.0
H805 H 0.52718 0.23259 0.6657 0.0
H806 H 0.48613 0.09059 0.70002 0.0
H807 H 0.45625 0.08189 0.66888 0.0
H808 H 0.44626 0.08925 0.70935 0.0
H809 H 0.57474 0.19942 0.6318 0.0
H810 H 0.56088 0.22957 0.62339 0.0
H811 H 0.54232 0.18879 0.6028 0.0
C812 C 0.43251 0.48386 0.17104 0.0
C813 C 0.43895 0.47241 0.14148 0.0
C814 C 0.40071 0.46578 0.1872 0.0
C815 C 0.37464 0.43423 0.17458 0.0
C816 C 0.38122 0.42146 0.14558 0.0
C817 C 0.41308 0.44088 0.12916 0.0
C818 C 0.395 0.48081 0.2178 0.0
C819 C 0.35459 0.38738 0.13188 0.0
C820 C 0.30847 0.38515 0.24028 0.0
C821 C 0.28358 0.39428 0.23472 0.0
C822 C 0.33656 0.39492 0.21892 0.0
C823 C 0.34063 0.41549 0.19198 0.0
C824 C 0.31435 0.42281 0.18517 0.0
C825 C 0.28593 0.41167 0.20633 0.0
C826 C 0.36315 0.38531 0.22653 0.0
C827 C 0.31781 0.4453 0.1573 0.0
H828 H 0.45248 0.50721 0.18189 0.0
H829 H 0.4175 0.43147 0.10654 0.0
H830 H 0.37181 0.48322 0.21582 0.0
H831 H 0.39049 0.46351 0.23821 0.0
H832 H 0.4172 0.50651 0.22347 0.0
H833 H 0.36473 0.37945 0.11095 0.0
H834 H 0.34535 0.3672 0.1505 0.0
H835 H 0.33205 0.38892 0.12418 0.0
H836 H 0.30677 0.37158 0.26207 0.0
H837 H 0.26701 0.41914 0.20193 0.0
H838 H 0.38583 0.40775 0.23716 0.0
H839 H 0.372 0.37786 0.20439 0.0
H840 H 0.35304 0.36381 0.24388 0.0
H841 H 0.33803 0.47215 0.16253 0.0
H842 H 0.29346 0.44492 0.15276 0.0
H843 H 0.32586 0.43715 0.13514 0.0
C844 C 0.93868 0.42361 0.63238 0.0
C845 C 0.92421 0.43875 0.61411 0.0
C846 C 0.91795 0.39465 0.65139 0.0
C847 C 0.88181 0.38033 0.6521 0.0
C848 C 0.86695 0.39467 0.63273 0.0
C849 C 0.88831 0.42369 0.61402 0.0
C850 C 0.93484 0.3801 0.6716 0.0
C851 C 0.82856 0.37997 0.63248 0.0
C852 C 0.82957 0.28898 0.68305 0.0
C853 C 0.82338 0.29413 0.71527 0.0
C854 C 0.84748 0.31668 0.66199 0.0
C855 C 0.85974 0.35053 0.67336 0.0
C856 C 0.85238 0.35587 0.7055 0.0
C857 C 0.83417 0.32758 0.72607 0.0
C858 C 0.8544 0.30975 0.62788 0.0
C859 C 0.86493 0.39159 0.71851 0.0
H860 H 0.96638 0.4354 0.63305 0.0
H861 H 0.87696 0.4352 0.59986 0.0
H862 H 0.92945 0.38226 0.69737 0.0
H863 H 0.92402 0.35243 0.66614 0.0
H864 H 0.96312 0.39352 0.66763 0.0
H865 H 0.82093 0.39299 0.61489 0.0
H866 H 0.81534 0.35217 0.62666 0.0
H867 H 0.81932 0.38261 0.65667 0.0
H868 H 0.82111 0.2632 0.67438 0.0
H869 H 0.82961 0.3318 0.75092 0.0
H870 H 0.8824 0.32042 0.62398 0.0
H871 H 0.84621 0.3227 0.61082 0.0
H872 H 0.84092 0.28189 0.62211 0.0
H873 H 0.89344 0.40611 0.71847 0.0
H874 H 0.85534 0.39134 0.74335 0.0
H875 H 0.85664 0.40564 0.70293 0.0
C876 C 0.52332 0.95947 0.13203 0.0
C877 C 0.48742 0.94357 0.13127 0.0
C878 C 0.53927 0.94644 0.15139 0.0
C879 C 0.51881 0.91694 0.17044 0.0
C880 C 0.48261 0.90039 0.16907 0.0
C881 C 0.46746 0.91363 0.14933 0.0
C882 C 0.57797 0.96451 0.1519 0.0
C883 C 0.45974 0.86894 0.18893 0.0
C884 C 0.55374 0.8628 0.20366 0.0
C885 C 0.56055 0.87445 0.23553 0.0
C886 C 0.54122 0.87716 0.18193 0.0
C887 C 0.53486 0.90349 0.19239 0.0
C888 C 0.5416 0.91529 0.22454 0.0
C889 C 0.55455 0.9008 0.24563 0.0
C890 C 0.53462 0.86402 0.14782 0.0
C891 C 0.53459 0.94287 0.23682 0.0
H892 H 0.5389 0.98249 0.11808 0.0
H893 H 0.43968 0.90048 0.14817 0.0
H894 H 0.58701 0.97484 0.17628 0.0
H895 H 0.5868 0.94607 0.14622 0.0
H896 H 0.5902 0.986 0.13452 0.0
H897 H 0.43201 0.85905 0.18505 0.0
H898 H 0.46537 0.84821 0.18301 0.0
H899 H 0.46498 0.87507 0.21478 0.0
H900 H 0.55865 0.84272 0.1955 0.0
H901 H 0.55981 0.91003 0.27017 0.0
H902 H 0.54852 0.88566 0.13086 0.0
H903 H 0.50683 0.85191 0.14281 0.0
H904 H 0.54276 0.84487 0.14297 0.0
H905 H 0.54865 0.96618 0.22181 0.0
H906 H 0.54225 0.95001 0.26215 0.0
H907 H 0.50679 0.93386 0.23507 0.0
C908 C 0.57109 0.53589 0.65739 0.0
C909 C 0.57538 0.53014 0.62488 0.0
C910 C 0.59823 0.547 0.67888 0.0
C911 C 0.63049 0.55249 0.66762 0.0
C912 C 0.63538 0.54803 0.63458 0.0
C913 C 0.60779 0.53696 0.6136 0.0
C914 C 0.59205 0.55184 0.71381 0.0
C915 C 0.66941 0.55371 0.62161 0.0
C916 C 0.70929 0.60681 0.71791 0.0
C917 C 0.71345 0.58182 0.73349 0.0
C918 C 0.68242 0.59762 0.69656 0.0
C919 C 0.65901 0.56254 0.69046 0.0
C920 C 0.66287 0.53711 0.70619 0.0
C921 C 0.69002 0.54705 0.72757 0.0
C922 C 0.67915 0.62552 0.68044 0.0
C923 C 0.6384 0.49939 0.70029 0.0
H924 H 0.54612 0.53076 0.66619 0.0
H925 H 0.61114 0.53203 0.58864 0.0
H926 H 0.59508 0.53338 0.72859 0.0
H927 H 0.61135 0.57802 0.72192 0.0
H928 H 0.56596 0.54798 0.71846 0.0
H929 H 0.66948 0.55059 0.59513 0.0
H930 H 0.69034 0.57984 0.62798 0.0
H931 H 0.67532 0.53516 0.63268 0.0
H932 H 0.72717 0.63378 0.72232 0.0
H933 H 0.69305 0.52759 0.73944 0.0
H934 H 0.6536 0.62249 0.68613 0.0
H935 H 0.68099 0.62336 0.65402 0.0
H936 H 0.6993 0.65163 0.68798 0.0
H937 H 0.61174 0.49289 0.7066 0.0
H938 H 0.64482 0.48282 0.71441 0.0
H939 H 0.63891 0.49336 0.67445 0.0
C940 C 0.08157 0.62004 0.11292 0.0
C941 C 0.10111 0.60727 0.09825 0.0
C942 C 0.09616 0.64642 0.1361 0.0
C943 C 0.13085 0.6598 0.14496 0.0
C944 C 0.15121 0.64858 0.12838 0.0
C945 C 0.13611 0.62259 0.10517 0.0
C946 C 0.07377 0.65815 0.15275 0.0
C947 C 0.18813 0.66178 0.13708 0.0
C948 C 0.17723 0.73845 0.19928 0.0
C949 C 0.17224 0.72328 0.22954 0.0
C950 C 0.16338 0.71825 0.17157 0.0
C951 C 0.14466 0.68201 0.17407 0.0
C952 C 0.1401 0.66661 0.2045 0.0
C953 C 0.15363 0.6874 0.23184 0.0
C954 C 0.16842 0.73566 0.13969 0.0
C955 C 0.12097 0.62807 0.20823 0.0
H956 H 0.05442 0.60791 0.10783 0.0
H957 H 0.15111 0.61243 0.09395 0.0
H958 H 0.06729 0.64758 0.17739 0.0
H959 H 0.08763 0.68654 0.15486 0.0
H960 H 0.04945 0.64948 0.13986 0.0
H961 H 0.20149 0.65356 0.11948 0.0
H962 H 0.20251 0.6902 0.13857 0.0
H963 H 0.18892 0.65192 0.16104 0.0
H964 H 0.19122 0.76618 0.19734 0.0
H965 H 0.14967 0.67549 0.2551 0.0
H966 H 0.14308 0.7277 0.1292 0.0
H967 H 0.18232 0.72762 0.12262 0.0
H968 H 0.18309 0.76409 0.14184 0.0
H969 H 0.0943 0.61699 0.19973 0.0
H970 H 0.11994 0.62014 0.23348 0.0
H971 H 0.13357 0.61686 0.19323 0.0
loop_
_geom_bond_atom_site_label_1
_geom_bond_atom_site_label_2
_geom_bond_distance
_geom_bond_site_symmetry_2
_ccdc_geom_bond_type
H0 C8 0.930 . S
H1 C11 0.930 . S
H2 C13 0.930 . S
H3 C14 0.970 . S
H4 C14 0.970 . S
H5 C16 0.930 . S
H6 C18 0.930 . S
H7 C20 0.930 . S
C8 H0 0.930 . S
C8 C9 1.382 . S
C8 C10 1.426 . S
C9 C8 1.382 . S
C9 C13 1.389 . S
C10 C8 1.426 . S
C10 C11 1.375 . S
C10 C14 1.532 1_554 S
C11 H1 0.930 . S
C11 C10 1.375 . S
C11 C12 1.416 . S
C12 C11 1.416 . S
C12 C13 1.371 . S
C13 H2 0.930 . S
C13 C9 1.389 . S
C13 C12 1.371 . S
C14 H3 0.970 . S
C14 H4 0.970 . S
C14 C10 1.532 1_556 S
C14 C15 1.499 . S
C15 C14 1.499 . S
C15 C16 1.370 . S
C15 C20 1.415 . S
C16 H5 0.930 . S
C16 C15 1.370 . S
C16 C17 1.407 1_455 S
C17 C16 1.407 1_655 S
C17 C18 1.365 . S
C18 H6 0.930 . S
C18 C17 1.365 . S
C18 C19 1.393 . S
C19 C18 1.393 . S
C19 C20 1.387 1_655 S
C20 H7 0.930 . S
C20 C15 1.415 . S
C20 C19 1.387 1_455 S
H21 C29 0.930 . S
H22 C32 0.930 . S
H23 C34 0.930 . S
H24 C35 0.970 . S
H25 C35 0.970 . S
H26 C37 0.930 . S
H27 C39 0.930 . S
H28 C41 0.930 . S
C29 H21 0.930 . S
C29 C30 1.382 . S
C29 C31 1.426 . S
C30 C29 1.382 . S
C30 C34 1.389 . S
C31 C29 1.426 . S
C31 C32 1.375 . S
C31 C35 1.532 1_545 S
C32 H22 0.930 . S
C32 C31 1.375 . S
C32 C33 1.416 . S
C33 C32 1.416 . S
C33 C34 1.371 . S
C34 H23 0.930 . S
C34 C30 1.389 . S
C34 C33 1.371 . S
C35 H24 0.970 . S
C35 H25 0.970 . S
C35 C31 1.532 1_565 S
C35 C36 1.499 . S
C36 C35 1.499 . S
C36 C37 1.370 . S
C36 C41 1.415 . S
C37 H26 0.930 . S
C37 C36 1.370 . S
C37 C38 1.407 . S
C38 C37 1.407 . S
C38 C39 1.365 . S
C39 H27 0.930 . S
C39 C38 1.365 . S
C39 C40 1.393 . S
C40 C39 1.393 . S
C40 C41 1.387 . S
C41 H28 0.930 . S
C41 C36 1.415 . S
C41 C40 1.387 . S
H42 C50 0.930 . S
H43 C53 0.930 . S
H44 C55 0.930 . S
H45 C56 0.970 . S
H46 C56 0.970 . S
H47 C58 0.928 1_554 S
H48 C60 0.930 . S
H49 C62 0.921 1_554 S
C50 H42 0.930 . S
C50 C51 1.382 . S
C50 C52 1.426 . S
C51 C50 1.382 . S
C51 C55 1.389 . S
C52 C50 1.426 . S
C52 C53 1.375 . S
C52 C56 1.532 . S
C53 H43 0.930 . S
C53 C52 1.375 . S
C53 C54 1.416 . S
C54 C53 1.416 . S
C54 C55 1.371 . S
C55 H44 0.930 . S
C55 C51 1.389 . S
C55 C54 1.371 . S
C56 H45 0.970 . S
C56 H46 0.970 . S
C56 C52 1.532 . S
C56 C57 1.499 . S
C57 C56 1.499 . S
C57 C58 1.370 1_554 S
C57 C62 1.415 1_554 S
C58 H47 0.928 1_556 S
C58 C57 1.370 1_556 S
C58 C59 1.407 . S
C59 C58 1.407 . S
C59 C60 1.365 . S
C60 H48 0.930 . S
C60 C59 1.365 . S
C60 C61 1.393 . S
C61 C60 1.393 . S
C61 C62 1.387 . S
C62 H49 0.921 1_556 S
C62 C57 1.415 1_556 S
C62 C61 1.387 . S
H63 C71 0.930 1_455 S
H64 C74 0.930 1_455 S
H65 C76 0.930 . S
H66 C77 0.970 . S
H67 C77 0.970 . S
H68 C79 0.930 . S
H69 C81 0.930 . S
H70 C83 0.930 . S
C71 H63 0.930 1_655 S
C71 C72 1.382 . S
C71 C73 1.426 1_655 S
C72 C71 1.382 . S
C72 C76 1.389 . S
C73 C71 1.426 1_455 S
C73 C74 1.375 1_455 S
C73 C77 1.532 . S
C74 H64 0.930 1_655 S
C74 C73 1.375 1_655 S
C74 C75 1.416 . S
C75 C74 1.416 . S
C75 C76 1.371 . S
C76 H65 0.930 . S
C76 C72 1.389 . S
C76 C75 1.371 . S
C77 H66 0.970 . S
C77 H67 0.970 . S
C77 C73 1.532 . S
C77 C78 1.499 . S
C78 C77 1.499 . S
C78 C79 1.370 . S
C78 C83 1.415 . S
C79 H68 0.930 . S
C79 C78 1.370 . S
C79 C80 1.407 . S
C80 C79 1.407 . S
C80 C81 1.365 . S
C81 H69 0.930 . S
C81 C80 1.365 . S
C81 C82 1.393 . S
C82 C81 1.393 . S
C82 C83 1.387 . S
C83 H70 0.930 . S
C83 C78 1.415 . S
C83 C82 1.387 . S
H84 C92 0.930 . S
H85 C95 0.930 . S
H86 C97 0.930 . S
H87 C98 0.970 . S
H88 C98 0.970 . S
H89 C100 0.930 . S
H90 C102 0.930 . S
H91 C104 0.930 1_565 S
C92 H84 0.930 . S
C92 C93 1.382 . S
C92 C94 1.426 . S
C93 C92 1.382 . S
C93 C97 1.389 . S
C94 C92 1.426 . S
C94 C95 1.375 . S
C94 C98 1.532 1_554 S
C95 H85 0.930 . S
C95 C94 1.375 . S
C95 C96 1.416 . S
C96 C95 1.416 . S
C96 C97 1.371 . S
C97 H86 0.930 . S
C97 C93 1.389 . S
C97 C96 1.371 . S
C98 H87 0.970 . S
C98 H88 0.970 . S
C98 C94 1.532 1_556 S
C98 C99 1.499 . S
C99 C98 1.499 . S
C99 C100 1.370 1_565 S
C99 C104 1.415 1_565 S
C100 H89 0.930 . S
C100 C99 1.370 1_545 S
C100 C101 1.407 . S
C101 C100 1.407 . S
C101 C102 1.365 . S
C102 H90 0.930 . S
C102 C101 1.365 . S
C102 C103 1.393 . S
C103 C102 1.393 . S
C103 C104 1.387 . S
C104 H91 0.930 1_545 S
C104 C99 1.415 1_545 S
C104 C103 1.387 . S
H105 C113 0.930 . S
H106 C116 0.930 . S
H107 C118 0.930 . S
H108 C119 0.970 . S
H109 C119 0.970 . S
H110 C121 0.930 . S
H111 C123 0.930 . S
H112 C125 0.930 . S
C113 H105 0.930 . S
C113 C114 1.382 . S
C113 C115 1.426 . S
C114 C113 1.382 . S
C114 C118 1.389 . S
C115 C113 1.426 . S
C115 C116 1.375 . S
C115 C119 1.532 . S
C116 H106 0.930 . S
C116 C115 1.375 . S
C116 C117 1.416 . S
C117 C116 1.416 . S
C117 C118 1.371 . S
C118 H107 0.930 . S
C118 C114 1.389 . S
C118 C117 1.371 . S
C119 H108 0.970 . S
C119 H109 0.970 . S
C119 C115 1.532 . S
C119 C120 1.499 . S
C120 C119 1.499 . S
C120 C121 1.370 . S
C120 C125 1.415 . S
C121 H110 0.930 . S
C121 C120 1.370 . S
C121 C122 1.407 . S
C122 C121 1.407 . S
C122 C123 1.365 . S
C123 H111 0.930 . S
C123 C122 1.365 . S
C123 C124 1.393 . S
C124 C123 1.393 . S
C124 C125 1.387 . S
C125 H112 0.930 . S
C125 C120 1.415 . S
C125 C124 1.387 . S
Mg126 O133 2.141 . S
Mg126 O134 2.048 . S
Mg126 O135 2.048 . S
Mg126 O138 2.141 . S
C127 O128 1.313 . S
C127 O134 1.195 . S
O128 C127 1.313 . S
C129 O130 1.245 . S
C129 O138 1.289 . S
O130 C129 1.245 . S
C131 O132 1.245 . S
C131 O133 1.289 . S
O132 C131 1.245 . S
O133 Mg126 2.141 . S
O133 C131 1.289 . S
O134 Mg126 2.048 . S
O134 C127 1.195 . S
O135 Mg126 2.048 . S
O135 C136 1.195 . S
C136 O135 1.195 . S
C136 O137 1.313 . S
O137 C136 1.313 . S
O138 Mg126 2.141 . S
O138 C129 1.289 . S
Mg139 O146 2.141 . S
Mg139 O147 2.048 . S
Mg139 O148 2.048 . S
Mg139 O151 2.141 . S
C140 O141 1.313 . S
C140 O147 1.195 . S
O141 C140 1.313 . S
C142 O143 1.245 . S
C142 O151 1.289 . S
O143 C142 1.245 . S
C144 O145 1.245 . S
C144 O146 1.289 . S
O145 C144 1.245 . S
O146 Mg139 2.141 . S
O146 C144 1.289 . S
O147 Mg139 2.048 . S
O147 C140 1.195 . S
O148 Mg139 2.048 . S
O148 C149 1.195 . S
C149 O148 1.195 . S
C149 O150 1.313 . S
O150 C149 1.313 . S
O151 Mg139 2.141 . S
O151 C142 1.289 . S
Mg152 O159 2.141 . S
Mg152 O160 2.048 . S
Mg152 O161 2.048 . S
Mg152 O164 2.141 . S
C153 O154 1.313 . S
C153 O160 1.195 . S
O154 C153 1.313 . S
C155 O156 1.245 . S
C155 O164 1.289 . S
O156 C155 1.245 . S
C157 O158 1.245 . S
C157 O159 1.289 . S
O158 C157 1.245 . S
O159 Mg152 2.141 . S
O159 C157 1.289 . S
O160 Mg152 2.048 . S
O160 C153 1.195 . S
O161 Mg152 2.048 . S
O161 C162 1.195 . S
C162 O161 1.195 . S
C162 O163 1.313 . S
O163 C162 1.313 . S
O164 Mg152 2.141 . S
O164 C155 1.289 . S
Mg165 O172 2.141 . S
Mg165 O173 2.048 . S
Mg165 O174 2.048 . S
Mg165 O177 2.141 . S
C166 O167 1.313 . S
C166 O173 1.195 . S
O167 C166 1.313 . S
C168 O169 1.245 . S
C168 O177 1.289 . S
O169 C168 1.245 . S
C170 O171 1.245 . S
C170 O172 1.289 . S
O171 C170 1.245 . S
O172 Mg165 2.141 . S
O172 C170 1.289 . S
O173 Mg165 2.048 . S
O173 C166 1.195 . S
O174 Mg165 2.048 . S
O174 C175 1.195 . S
C175 O174 1.195 . S
C175 O176 1.313 . S
O176 C175 1.313 . S
O177 Mg165 2.141 . S
O177 C168 1.289 . S
Mg178 O185 2.141 . S
Mg178 O186 2.048 . S
Mg178 O187 2.048 . S
Mg178 O190 2.141 . S
C179 O180 1.313 . S
C179 O186 1.195 . S
O180 C179 1.313 . S
C181 O182 1.245 . S
C181 O190 1.289 . S
O182 C181 1.245 . S
C183 O184 1.245 . S
C183 O185 1.289 . S
O184 C183 1.245 . S
O185 Mg178 2.141 . S
O185 C183 1.289 . S
O186 Mg178 2.048 . S
O186 C179 1.195 . S
O187 Mg178 2.048 . S
O187 C188 1.195 . S
C188 O187 1.195 . S
C188 O189 1.313 . S
O189 C188 1.313 . S
O190 Mg178 2.141 . S
O190 C181 1.289 . S
Mg191 O198 2.141 . S
Mg191 O199 2.048 . S
Mg191 O200 2.048 . S
Mg191 O203 2.141 . S
C192 O193 1.313 . S
C192 O199 1.195 . S
O193 C192 1.313 . S
C194 O195 1.245 . S
C194 O203 1.289 . S
O195 C194 1.245 . S
C196 O197 1.245 . S
C196 O198 1.289 . S
O197 C196 1.245 . S
O198 Mg191 2.141 . S
O198 C196 1.289 . S
O199 Mg191 2.048 . S
O199 C192 1.195 . S
O200 Mg191 2.048 . S
O200 C201 1.195 . S
C201 O200 1.195 . S
C201 O202 1.313 . S
O202 C201 1.313 . S
O203 Mg191 2.141 . S
O203 C194 1.289 . S
C204 C205 1.391 . S
C204 C206 1.394 . S
C204 H220 0.931 . S
C205 C204 1.391 . S
C205 C209 1.376 . S
C206 C204 1.394 . S
C206 C207 1.369 . S
C206 C210 1.531 . S
C207 C206 1.369 . S
C207 C208 1.410 . S
C207 C215 1.503 . S
C208 C207 1.410 . S
C208 C209 1.392 . S
C208 C211 1.511 . S
C209 C205 1.376 . S
C209 C208 1.392 . S
C209 H221 0.929 . S
C210 C206 1.531 . S
C210 H222 0.960 . S
C210 H223 0.962 . S
C210 H224 0.960 . S
C211 C208 1.511 . S
C211 H225 0.961 . S
C211 H226 0.961 . S
C211 H227 0.961 . S
C212 C213 1.370 . S
C212 C214 1.363 . S
C212 H228 0.931 . S
C213 C212 1.370 . S
C213 C217 1.408 . S
C214 C212 1.363 . S
C214 C215 1.370 . S
C214 C218 1.524 . S
C215 C207 1.503 . S
C215 C214 1.370 . S
C215 C216 1.403 . S
C216 C215 1.403 . S
C216 C217 1.404 . S
C216 C219 1.539 . S
C217 C213 1.408 . S
C217 C216 1.404 . S
C217 H229 0.930 . S
C218 C214 1.524 . S
C218 H230 0.956 . S
C218 H231 0.961 . S
C218 H232 0.961 . S
C219 C216 1.539 . S
C219 H233 0.958 . S
C219 H234 0.961 . S
C219 H235 0.960 . S
H220 C204 0.931 . S
H221 C209 0.929 . S
H222 C210 0.960 . S
H223 C210 0.962 . S
H224 C210 0.960 . S
H225 C211 0.961 . S
H226 C211 0.961 . S
H227 C211 0.961 . S
H228 C212 0.931 . S
H229 C217 0.930 . S
H230 C218 0.956 . S
H231 C218 0.961 . S
H232 C218 0.961 . S
H233 C219 0.958 . S
H234 C219 0.961 . S
H235 C219 0.960 . S
C236 C237 1.391 . S
C236 C238 1.394 . S
C236 H252 0.931 . S
C237 C236 1.391 . S
C237 C241 1.376 . S
C238 C236 1.394 . S
C238 C239 1.369 . S
C238 C242 1.531 . S
C239 C238 1.369 . S
C239 C240 1.410 . S
C239 C247 1.503 . S
C240 C239 1.410 . S
C240 C241 1.392 . S
C240 C243 1.511 . S
C241 C237 1.376 . S
C241 C240 1.392 . S
C241 H253 0.929 . S
C242 C238 1.531 . S
C242 H254 0.960 . S
C242 H255 0.962 . S
C242 H256 0.960 . S
C243 C240 1.511 . S
C243 H257 0.961 . S
C243 H258 0.961 . S
C243 H259 0.961 . S
C244 C245 1.370 . S
C244 C246 1.363 . S
C244 H260 0.931 . S
C245 C244 1.370 . S
C245 C249 1.408 . S
C246 C244 1.363 . S
C246 C247 1.370 . S
C246 C250 1.524 . S
C247 C239 1.503 . S
C247 C246 1.370 . S
C247 C248 1.403 . S
C248 C247 1.403 . S
C248 C249 1.404 . S
C248 C251 1.539 . S
C249 C245 1.408 . S
C249 C248 1.404 . S
C249 H261 0.930 . S
C250 C246 1.524 . S
C250 H262 0.956 . S
C250 H263 0.961 . S
C250 H264 0.961 . S
C251 C248 1.539 . S
C251 H265 0.958 . S
C251 H266 0.961 . S
C251 H267 0.960 . S
H252 C236 0.931 . S
H253 C241 0.929 . S
H254 C242 0.960 . S
H255 C242 0.962 . S
H256 C242 0.960 . S
H257 C243 0.961 . S
H258 C243 0.961 . S
H259 C243 0.961 . S
H260 C244 0.931 . S
H261 C249 0.930 . S
H262 C250 0.956 . S
H263 C250 0.961 . S
H264 C250 0.961 . S
H265 C251 0.958 . S
H266 C251 0.961 . S
H267 C251 0.960 . S
C268 C269 1.391 . S
C268 C270 1.394 . S
C268 H284 0.931 . S
C269 C268 1.391 . S
C269 C273 1.376 . S
C270 C268 1.394 . S
C270 C271 1.369 . S
C270 C274 1.531 . S
C271 C270 1.369 . S
C271 C272 1.410 . S
C271 C279 1.503 . S
C272 C271 1.410 . S
C272 C273 1.392 . S
C272 C275 1.511 . S
C273 C269 1.376 . S
C273 C272 1.392 . S
C273 H285 0.929 . S
C274 C270 1.531 . S
C274 H286 0.960 . S
C274 H287 0.962 . S
C274 H288 0.960 . S
C275 C272 1.511 . S
C275 H289 0.961 . S
C275 H290 0.961 . S
C275 H291 0.961 . S
C276 C277 1.370 . S
C276 C278 1.363 . S
C276 H292 0.931 . S
C277 C276 1.370 . S
C277 C281 1.408 . S
C278 C276 1.363 . S
C278 C279 1.370 . S
C278 C282 1.524 . S
C279 C271 1.503 . S
C279 C278 1.370 . S
C279 C280 1.403 . S
C280 C279 1.403 . S
C280 C281 1.404 . S
C280 C283 1.539 . S
C281 C277 1.408 . S
C281 C280 1.404 . S
C281 H293 0.930 . S
C282 C278 1.524 . S
C282 H294 0.956 . S
C282 H295 0.961 . S
C282 H296 0.961 . S
C283 C280 1.539 . S
C283 H297 0.958 . S
C283 H298 0.961 . S
C283 H299 0.960 . S
H284 C268 0.931 . S
H285 C273 0.929 . S
H286 C274 0.960 . S
H287 C274 0.962 . S
H288 C274 0.960 . S
H289 C275 0.961 . S
H290 C275 0.961 . S
H291 C275 0.961 . S
H292 C276 0.931 . S
H293 C281 0.930 . S
H294 C282 0.956 . S
H295 C282 0.961 . S
H296 C282 0.961 . S
H297 C283 0.958 . S
H298 C283 0.961 . S
H299 C283 0.960 . S
C300 C301 1.391 . S
C300 C302 1.394 . S
C300 H316 0.931 . S
C301 C300 1.391 . S
C301 C305 1.376 . S
C302 C300 1.394 . S
C302 C303 1.369 . S
C302 C306 1.531 . S
C303 C302 1.369 . S
C303 C304 1.410 . S
C303 C311 1.503 . S
C304 C303 1.410 . S
C304 C305 1.392 . S
C304 C307 1.511 . S
C305 C301 1.376 . S
C305 C304 1.392 . S
C305 H317 0.929 . S
C306 C302 1.531 . S
C306 H318 0.960 . S
C306 H319 0.962 . S
C306 H320 0.960 . S
C307 C304 1.511 . S
C307 H321 0.961 . S
C307 H322 0.961 . S
C307 H323 0.961 . S
C308 C309 1.370 . S
C308 C310 1.363 . S
C308 H324 0.931 . S
C309 C308 1.370 . S
C309 C313 1.408 . S
C310 C308 1.363 . S
C310 C311 1.370 . S
C310 C314 1.524 . S
C311 C303 1.503 . S
C311 C310 1.370 . S
C311 C312 1.403 . S
C312 C311 1.403 . S
C312 C313 1.404 . S
C312 C315 1.539 . S
C313 C309 1.408 . S
C313 C312 1.404 . S
C313 H325 0.930 . S
C314 C310 1.524 . S
C314 H326 0.956 . S
C314 H327 0.961 . S
C314 H328 0.961 . S
C315 C312 1.539 . S
C315 H329 0.958 . S
C315 H330 0.961 . S
C315 H331 0.960 . S
H316 C300 0.931 . S
H317 C305 0.929 . S
H318 C306 0.960 . S
H319 C306 0.962 . S
H320 C306 0.960 . S
H321 C307 0.961 . S
H322 C307 0.961 . S
H323 C307 0.961 . S
H324 C308 0.931 . S
H325 C313 0.930 . S
H326 C314 0.956 . S
H327 C314 0.961 . S
H328 C314 0.961 . S
H329 C315 0.958 . S
H330 C315 0.961 . S
H331 C315 0.960 . S
C332 C333 1.391 . S
C332 C334 1.394 . S
C332 H348 0.931 . S
C333 C332 1.391 . S
C333 C337 1.376 . S
C334 C332 1.394 . S
C334 C335 1.369 . S
C334 C338 1.531 . S
C335 C334 1.369 . S
C335 C336 1.410 . S
C335 C343 1.503 . S
C336 C335 1.410 . S
C336 C337 1.392 . S
C336 C339 1.511 . S
C337 C333 1.376 . S
C337 C336 1.392 . S
C337 H349 0.929 . S
C338 C334 1.531 . S
C338 H350 0.960 . S
C338 H351 0.962 . S
C338 H352 0.960 . S
C339 C336 1.511 . S
C339 H353 0.961 . S
C339 H354 0.961 . S
C339 H355 0.961 . S
C340 C341 1.370 . S
C340 C342 1.363 . S
C340 H356 0.931 . S
C341 C340 1.370 . S
C341 C345 1.408 . S
C342 C340 1.363 . S
C342 C343 1.370 . S
C342 C346 1.524 . S
C343 C335 1.503 . S
C343 C342 1.370 . S
C343 C344 1.403 . S
C344 C343 1.403 . S
C344 C345 1.404 . S
C344 C347 1.539 . S
C345 C341 1.408 . S
C345 C344 1.404 . S
C345 H357 0.930 . S
C346 C342 1.524 . S
C346 H358 0.956 . S
C346 H359 0.961 . S
C346 H360 0.961 . S
C347 C344 1.539 . S
C347 H361 0.958 . S
C347 H362 0.961 . S
C347 H363 0.960 . S
H348 C332 0.931 . S
H349 C337 0.929 . S
H350 C338 0.960 . S
H351 C338 0.962 . S
H352 C338 0.960 . S
H353 C339 0.961 . S
H354 C339 0.961 . S
H355 C339 0.961 . S
H356 C340 0.931 . S
H357 C345 0.930 . S
H358 C346 0.956 . S
H359 C346 0.961 . S
H360 C346 0.961 . S
H361 C347 0.958 . S
H362 C347 0.961 . S
H363 C347 0.960 . S
C364 C365 1.391 . S
C364 C366 1.394 . S
C364 H380 0.931 . S
C365 C364 1.391 . S
C365 C369 1.376 . S
C366 C364 1.394 . S
C366 C367 1.369 . S
C366 C370 1.531 . S
C367 C366 1.369 . S
C367 C368 1.410 . S
C367 C375 1.503 . S
C368 C367 1.410 . S
C368 C369 1.392 . S
C368 C371 1.511 . S
C369 C365 1.376 . S
C369 C368 1.392 . S
C369 H381 0.929 . S
C370 C366 1.531 . S
C370 H382 0.960 . S
C370 H383 0.962 . S
C370 H384 0.960 . S
C371 C368 1.511 . S
C371 H385 0.961 . S
C371 H386 0.961 . S
C371 H387 0.961 . S
C372 C373 1.370 . S
C372 C374 1.363 . S
C372 H388 0.931 . S
C373 C372 1.370 . S
C373 C377 1.408 . S
C374 C372 1.363 . S
C374 C375 1.370 . S
C374 C378 1.524 . S
C375 C367 1.503 . S
C375 C374 1.370 . S
C375 C376 1.403 . S
C376 C375 1.403 . S
C376 C377 1.404 . S
C376 C379 1.539 . S
C377 C373 1.408 . S
C377 C376 1.404 . S
C377 H389 0.930 . S
C378 C374 1.524 . S
C378 H390 0.956 . S
C378 H391 0.961 . S
C378 H392 0.961 . S
C379 C376 1.539 . S
C379 H393 0.958 . S
C379 H394 0.961 . S
C379 H395 0.960 . S
H380 C364 0.931 . S
H381 C369 0.929 . S
H382 C370 0.960 . S
H383 C370 0.962 . S
H384 C370 0.960 . S
H385 C371 0.961 . S
H386 C371 0.961 . S
H387 C371 0.961 . S
H388 C372 0.931 . S
H389 C377 0.930 . S
H390 C378 0.956 . S
H391 C378 0.961 . S
H392 C378 0.961 . S
H393 C379 0.958 . S
H394 C379 0.961 . S
H395 C379 0.960 . S
C396 C397 1.391 . S
C396 C398 1.394 . S
C396 H412 0.931 . S
C397 C396 1.391 . S
C397 C401 1.376 . S
C398 C396 1.394 . S
C398 C399 1.369 . S
C398 C402 1.531 . S
C399 C398 1.369 . S
C399 C400 1.410 . S
C399 C407 1.503 . S
C400 C399 1.410 . S
C400 C401 1.392 . S
C400 C403 1.511 . S
C401 C397 1.376 . S
C401 C400 1.392 . S
C401 H413 0.929 . S
C402 C398 1.531 . S
C402 H414 0.960 . S
C402 H415 0.962 . S
C402 H416 0.960 . S
C403 C400 1.511 . S
C403 H417 0.961 . S
C403 H418 0.961 . S
C403 H419 0.961 . S
C404 C405 1.370 . S
C404 C406 1.363 . S
C404 H420 0.931 . S
C405 C404 1.370 . S
C405 C409 1.408 . S
C406 C404 1.363 . S
C406 C407 1.370 . S
C406 C410 1.524 . S
C407 C399 1.503 . S
C407 C406 1.370 . S
C407 C408 1.403 . S
C408 C407 1.403 . S
C408 C409 1.404 . S
C408 C411 1.539 . S
C409 C405 1.408 . S
C409 C408 1.404 . S
C409 H421 0.930 . S
C410 C406 1.524 . S
C410 H422 0.956 . S
C410 H423 0.961 . S
C410 H424 0.961 . S
C411 C408 1.539 . S
C411 H425 0.958 . S
C411 H426 0.961 . S
C411 H427 0.960 . S
H412 C396 0.931 . S
H413 C401 0.929 . S
H414 C402 0.960 . S
H415 C402 0.962 . S
H416 C402 0.960 . S
H417 C403 0.961 . S
H418 C403 0.961 . S
H419 C403 0.961 . S
H420 C404 0.931 . S
H421 C409 0.930 . S
H422 C410 0.956 . S
H423 C410 0.961 . S
H424 C410 0.961 . S
H425 C411 0.958 . S
H426 C411 0.961 . S
H427 C411 0.960 . S
C428 C429 1.391 . S
C428 C430 1.394 . S
C428 H444 0.931 . S
C429 C428 1.391 . S
C429 C433 1.376 . S
C430 C428 1.394 . S
C430 C431 1.369 . S
C430 C434 1.531 . S
C431 C430 1.369 . S
C431 C432 1.410 . S
C431 C439 1.503 . S
C432 C431 1.410 . S
C432 C433 1.392 . S
C432 C435 1.511 . S
C433 C429 1.376 . S
C433 C432 1.392 . S
C433 H445 0.929 . S
C434 C430 1.531 . S
C434 H446 0.960 . S
C434 H447 0.962 . S
C434 H448 0.960 . S
C435 C432 1.511 . S
C435 H449 0.961 . S
C435 H450 0.961 . S
C435 H451 0.961 . S
C436 C437 1.370 . S
C436 C438 1.363 . S
C436 H452 0.931 . S
C437 C436 1.370 . S
C437 C441 1.408 . S
C438 C436 1.363 . S
C438 C439 1.370 . S
C438 C442 1.524 . S
C439 C431 1.503 . S
C439 C438 1.370 . S
C439 C440 1.403 . S
C440 C439 1.403 . S
C440 C441 1.404 . S
C440 C443 1.539 . S
C441 C437 1.408 . S
C441 C440 1.404 . S
C441 H453 0.930 . S
C442 C438 1.524 . S
C442 H454 0.956 . S
C442 H455 0.961 . S
C442 H456 0.961 . S
C443 C440 1.539 . S
C443 H457 0.958 . S
C443 H458 0.961 . S
C443 H459 0.960 . S
H444 C428 0.931 . S
H445 C433 0.929 . S
H446 C434 0.960 . S
H447 C434 0.962 . S
H448 C434 0.960 . S
H449 C435 0.961 . S
H450 C435 0.961 . S
H451 C435 0.961 . S
H452 C436 0.931 . S
H453 C441 0.930 . S
H454 C442 0.956 . S
H455 C442 0.961 . S
H456 C442 0.961 . S
H457 C443 0.958 . S
H458 C443 0.961 . S
H459 C443 0.960 . S
C460 C461 1.391 . S
C460 C462 1.394 . S
C460 H476 0.931 . S
C461 C460 1.391 . S
C461 C465 1.376 . S
C462 C460 1.394 . S
C462 C463 1.369 . S
C462 C466 1.531 . S
C463 C462 1.369 . S
C463 C464 1.410 . S
C463 C471 1.503 . S
C464 C463 1.410 . S
C464 C465 1.392 . S
C464 C467 1.511 . S
C465 C461 1.376 . S
C465 C464 1.392 . S
C465 H477 0.929 . S
C466 C462 1.531 . S
C466 H478 0.960 . S
C466 H479 0.962 . S
C466 H480 0.960 . S
C467 C464 1.511 . S
C467 H481 0.961 . S
C467 H482 0.961 . S
C467 H483 0.961 . S
C468 C469 1.370 . S
C468 C470 1.363 . S
C468 H484 0.931 . S
C469 C468 1.370 . S
C469 C473 1.408 . S
C470 C468 1.363 . S
C470 C471 1.370 . S
C470 C474 1.524 . S
C471 C463 1.503 . S
C471 C470 1.370 . S
C471 C472 1.403 . S
C472 C471 1.403 . S
C472 C473 1.404 . S
C472 C475 1.539 . S
C473 C469 1.408 . S
C473 C472 1.404 . S
C473 H485 0.930 . S
C474 C470 1.524 . S
C474 H486 0.956 . S
C474 H487 0.961 . S
C474 H488 0.961 . S
C475 C472 1.539 . S
C475 H489 0.958 . S
C475 H490 0.961 . S
C475 H491 0.960 . S
H476 C460 0.931 . S
H477 C465 0.929 . S
H478 C466 0.960 . S
H479 C466 0.962 . S
H480 C466 0.960 . S
H481 C467 0.961 . S
H482 C467 0.961 . S
H483 C467 0.961 . S
H484 C468 0.931 . S
H485 C473 0.930 . S
H486 C474 0.956 . S
H487 C474 0.961 . S
H488 C474 0.961 . S
H489 C475 0.958 . S
H490 C475 0.961 . S
H491 C475 0.960 . S
C492 C493 1.391 . S
C492 C494 1.394 . S
C492 H508 0.931 . S
C493 C492 1.391 . S
C493 C497 1.376 . S
C494 C492 1.394 . S
C494 C495 1.369 . S
C494 C498 1.531 . S
C495 C494 1.369 . S
C495 C496 1.410 . S
C495 C503 1.503 . S
C496 C495 1.410 . S
C496 C497 1.392 . S
C496 C499 1.511 . S
C497 C493 1.376 . S
C497 C496 1.392 . S
C497 H509 0.929 . S
C498 C494 1.531 . S
C498 H510 0.960 . S
C498 H511 0.962 . S
C498 H512 0.960 . S
C499 C496 1.511 . S
C499 H513 0.961 . S
C499 H514 0.961 . S
C499 H515 0.961 . S
C500 C501 1.370 . S
C500 C502 1.363 . S
C500 H516 0.931 . S
C501 C500 1.370 . S
C501 C505 1.408 . S
C502 C500 1.363 . S
C502 C503 1.370 . S
C502 C506 1.524 . S
C503 C495 1.503 . S
C503 C502 1.370 . S
C503 C504 1.403 . S
C504 C503 1.403 . S
C504 C505 1.404 . S
C504 C507 1.539 . S
C505 C501 1.408 . S
C505 C504 1.404 . S
C505 H517 0.930 . S
C506 C502 1.524 . S
C506 H518 0.956 . S
C506 H519 0.961 . S
C506 H520 0.961 . S
C507 C504 1.539 . S
C507 H521 0.958 . S
C507 H522 0.961 . S
C507 H523 0.960 . S
H508 C492 0.931 . S
H509 C497 0.929 . S
H510 C498 0.960 . S
H511 C498 0.962 . S
H512 C498 0.960 . S
H513 C499 0.961 . S
H514 C499 0.961 . S
H515 C499 0.961 . S
H516 C500 0.931 . S
H517 C505 0.930 . S
H518 C506 0.956 . S
H519 C506 0.961 . S
H520 C506 0.961 . S
H521 C507 0.958 . S
H522 C507 0.961 . S
H523 C507 0.960 . S
C524 C525 1.391 . S
C524 C526 1.394 . S
C524 H540 0.931 . S
C525 C524 1.391 . S
C525 C529 1.376 . S
C526 C524 1.394 . S
C526 C527 1.369 . S
C526 C530 1.531 . S
C527 C526 1.369 . S
C527 C528 1.410 . S
C527 C535 1.503 . S
C528 C527 1.410 . S
C528 C529 1.392 . S
C528 C531 1.511 . S
C529 C525 1.376 . S
C529 C528 1.392 . S
C529 H541 0.929 . S
C530 C526 1.531 . S
C530 H542 0.960 . S
C530 H543 0.962 . S
C530 H544 0.960 . S
C531 C528 1.511 . S
C531 H545 0.961 . S
C531 H546 0.961 . S
C531 H547 0.961 . S
C532 C533 1.370 . S
C532 C534 1.363 . S
C532 H548 0.931 . S
C533 C532 1.370 . S
C533 C537 1.408 . S
C534 C532 1.363 . S
C534 C535 1.370 . S
C534 C538 1.524 . S
C535 C527 1.503 . S
C535 C534 1.370 . S
C535 C536 1.403 . S
C536 C535 1.403 . S
C536 C537 1.404 . S
C536 C539 1.539 . S
C537 C533 1.408 . S
C537 C536 1.404 . S
C537 H549 0.930 . S
C538 C534 1.524 . S
C538 H550 0.956 . S
C538 H551 0.961 . S
C538 H552 0.961 . S
C539 C536 1.539 . S
C539 H553 0.958 . S
C539 H554 0.961 . S
C539 H555 0.960 . S
H540 C524 0.931 . S
H541 C529 0.929 . S
H542 C530 0.960 . S
H543 C530 0.962 . S
H544 C530 0.960 . S
H545 C531 0.961 . S
H546 C531 0.961 . S
H547 C531 0.961 . S
H548 C532 0.931 . S
H549 C537 0.930 . S
H550 C538 0.956 . S
H551 C538 0.961 . S
H552 C538 0.961 . S
H553 C539 0.958 . S
H554 C539 0.961 . S
H555 C539 0.960 . S
C556 C557 1.391 . S
C556 C558 1.394 . S
C556 H572 0.931 . S
C557 C556 1.391 . S
C557 C561 1.376 . S
C558 C556 1.394 . S
C558 C559 1.369 . S
C558 C562 1.531 . S
C559 C558 1.369 . S
C559 C560 1.410 . S
C559 C567 1.503 . S
C560 C559 1.410 . S
C560 C561 1.392 . S
C560 C563 1.511 . S
C561 C557 1.376 . S
C561 C560 1.392 . S
C561 H573 0.929 . S
C562 C558 1.531 . S
C562 H574 0.960 . S
C562 H575 0.962 . S
C562 H576 0.960 . S
C563 C560 1.511 . S
C563 H577 0.961 . S
C563 H578 0.961 . S
C563 H579 0.961 . S
C564 C565 1.370 . S
C564 C566 1.363 . S
C564 H580 0.931 . S
C565 C564 1.370 . S
C565 C569 1.408 . S
C566 C564 1.363 . S
C566 C567 1.370 . S
C566 C570 1.524 . S
C567 C559 1.503 . S
C567 C566 1.370 . S
C567 C568 1.403 . S
C568 C567 1.403 . S
C568 C569 1.404 . S
C568 C571 1.539 . S
C569 C565 1.408 . S
C569 C568 1.404 . S
C569 H581 0.930 . S
C570 C566 1.524 . S
C570 H582 0.956 . S
C570 H583 0.961 . S
C570 H584 0.961 . S
C571 C568 1.539 . S
C571 H585 0.958 . S
C571 H586 0.961 . S
C571 H587 0.960 . S
H572 C556 0.931 . S
H573 C561 0.929 . S
H574 C562 0.960 . S
H575 C562 0.962 . S
H576 C562 0.960 . S
H577 C563 0.961 . S
H578 C563 0.961 . S
H579 C563 0.961 . S
H580 C564 0.931 . S
H581 C569 0.930 . S
H582 C570 0.956 . S
H583 C570 0.961 . S
H584 C570 0.961 . S
H585 C571 0.958 . S
H586 C571 0.961 . S
H587 C571 0.960 . S
C588 C589 1.391 . S
C588 C590 1.394 . S
C588 H604 0.931 . S
C589 C588 1.391 . S
C589 C593 1.376 . S
C590 C588 1.394 . S
C590 C591 1.369 . S
C590 C594 1.531 . S
C591 C590 1.369 . S
C591 C592 1.410 . S
C591 C599 1.503 . S
C592 C591 1.410 . S
C592 C593 1.392 . S
C592 C595 1.511 . S
C593 C589 1.376 . S
C593 C592 1.392 . S
C593 H605 0.929 . S
C594 C590 1.531 . S
C594 H606 0.960 . S
C594 H607 0.962 . S
C594 H608 0.960 . S
C595 C592 1.511 . S
C595 H609 0.961 . S
C595 H610 0.961 . S
C595 H611 0.961 . S
C596 C597 1.370 . S
C596 C598 1.363 . S
C596 H612 0.931 . S
C597 C596 1.370 . S
C597 C601 1.408 . S
C598 C596 1.363 . S
C598 C599 1.370 . S
C598 C602 1.524 . S
C599 C591 1.503 . S
C599 C598 1.370 . S
C599 C600 1.403 . S
C600 C599 1.403 . S
C600 C601 1.404 . S
C600 C603 1.539 . S
C601 C597 1.408 . S
C601 C600 1.404 . S
C601 H613 0.930 . S
C602 C598 1.524 . S
C602 H614 0.956 . S
C602 H615 0.961 . S
C602 H616 0.961 . S
C603 C600 1.539 . S
C603 H617 0.958 . S
C603 H618 0.961 . S
C603 H619 0.960 . S
H604 C588 0.931 . S
H605 C593 0.929 . S
H606 C594 0.960 . S
H607 C594 0.962 . S
H608 C594 0.960 . S
H609 C595 0.961 . S
H610 C595 0.961 . S
H611 C595 0.961 . S
H612 C596 0.931 . S
H613 C601 0.930 . S
H614 C602 0.956 . S
H615 C602 0.961 . S
H616 C602 0.961 . S
H617 C603 0.958 . S
H618 C603 0.961 . S
H619 C603 0.960 . S
C620 C621 1.391 . S
C620 C622 1.394 . S
C620 H636 0.931 . S
C621 C620 1.391 . S
C621 C625 1.376 . S
C622 C620 1.394 . S
C622 C623 1.369 . S
C622 C626 1.531 . S
C623 C622 1.369 . S
C623 C624 1.410 . S
C623 C631 1.503 . S
C624 C623 1.410 . S
C624 C625 1.392 . S
C624 C627 1.511 . S
C625 C621 1.376 . S
C625 C624 1.392 . S
C625 H637 0.929 . S
C626 C622 1.531 . S
C626 H638 0.960 . S
C626 H639 0.962 . S
C626 H640 0.960 . S
C627 C624 1.511 . S
C627 H641 0.961 . S
C627 H642 0.961 . S
C627 H643 0.961 . S
C628 C629 1.370 . S
C628 C630 1.363 . S
C628 H644 0.931 . S
C629 C628 1.370 . S
C629 C633 1.408 . S
C630 C628 1.363 . S
C630 C631 1.370 . S
C630 C634 1.524 . S
C631 C623 1.503 . S
C631 C630 1.370 . S
C631 C632 1.403 . S
C632 C631 1.403 . S
C632 C633 1.404 . S
C632 C635 1.539 . S
C633 C629 1.408 . S
C633 C632 1.404 . S
C633 H645 0.930 . S
C634 C630 1.524 . S
C634 H646 0.956 . S
C634 H647 0.961 . S
C634 H648 0.961 . S
C635 C632 1.539 . S
C635 H649 0.958 . S
C635 H650 0.961 . S
C635 H651 0.960 . S
H636 C620 0.931 . S
H637 C625 0.929 . S
H638 C626 0.960 . S
H639 C626 0.962 . S
H640 C626 0.960 . S
H641 C627 0.961 . S
H642 C627 0.961 . S
H643 C627 0.961 . S
H644 C628 0.931 . S
H645 C633 0.930 . S
H646 C634 0.956 . S
H647 C634 0.961 . S
H648 C634 0.961 . S
H649 C635 0.958 . S
H650 C635 0.961 . S
H651 C635 0.960 . S
C652 C653 1.391 . S
C652 C654 1.394 . S
C652 H668 0.931 . S
C653 C652 1.391 . S
C653 C657 1.376 . S
C654 C652 1.394 . S
C654 C655 1.369 . S
C654 C658 1.531 . S
C655 C654 1.369 . S
C655 C656 1.410 . S
C655 C663 1.503 . S
C656 C655 1.410 . S
C656 C657 1.392 . S
C656 C659 1.511 . S
C657 C653 1.376 . S
C657 C656 1.392 . S
C657 H669 0.929 . S
C658 C654 1.531 . S
C658 H670 0.960 . S
C658 H671 0.962 . S
C658 H672 0.960 . S
C659 C656 1.511 . S
C659 H673 0.961 . S
C659 H674 0.961 . S
C659 H675 0.961 . S
C660 C661 1.370 . S
C660 C662 1.363 . S
C660 H676 0.931 . S
C661 C660 1.370 . S
C661 C665 1.408 . S
C662 C660 1.363 . S
C662 C663 1.370 . S
C662 C666 1.524 . S
C663 C655 1.503 . S
C663 C662 1.370 . S
C663 C664 1.403 . S
C664 C663 1.403 . S
C664 C665 1.404 . S
C664 C667 1.539 . S
C665 C661 1.408 . S
C665 C664 1.404 . S
C665 H677 0.930 . S
C666 C662 1.524 . S
C666 H678 0.956 . S
C666 H679 0.961 . S
C666 H680 0.961 . S
C667 C664 1.539 . S
C667 H681 0.958 . S
C667 H682 0.961 . S
C667 H683 0.960 . S
H668 C652 0.931 . S
H669 C657 0.929 . S
H670 C658 0.960 . S
H671 C658 0.962 . S
H672 C658 0.960 . S
H673 C659 0.961 . S
H674 C659 0.961 . S
H675 C659 0.961 . S
H676 C660 0.931 . S
H677 C665 0.930 . S
H678 C666 0.956 . S
H679 C666 0.961 . S
H680 C666 0.961 . S
H681 C667 0.958 . S
H682 C667 0.961 . S
H683 C667 0.960 . S
C684 C685 1.391 . S
C684 C686 1.394 . S
C684 H700 0.931 . S
C685 C684 1.391 . S
C685 C689 1.376 . S
C686 C684 1.394 . S
C686 C687 1.369 . S
C686 C690 1.531 . S
C687 C686 1.369 . S
C687 C688 1.410 . S
C687 C695 1.503 . S
C688 C687 1.410 . S
C688 C689 1.392 . S
C688 C691 1.511 . S
C689 C685 1.376 . S
C689 C688 1.392 . S
C689 H701 0.929 . S
C690 C686 1.531 . S
C690 H702 0.960 . S
C690 H703 0.962 . S
C690 H704 0.960 . S
C691 C688 1.511 . S
C691 H705 0.961 . S
C691 H706 0.961 . S
C691 H707 0.961 . S
C692 C693 1.370 . S
C692 C694 1.363 . S
C692 H708 0.931 . S
C693 C692 1.370 . S
C693 C697 1.408 . S
C694 C692 1.363 . S
C694 C695 1.370 . S
C694 C698 1.524 . S
C695 C687 1.503 . S
C695 C694 1.370 . S
C695 C696 1.403 . S
C696 C695 1.403 . S
C696 C697 1.404 . S
C696 C699 1.539 . S
C697 C693 1.408 . S
C697 C696 1.404 . S
C697 H709 0.930 . S
C698 C694 1.524 . S
C698 H710 0.956 . S
C698 H711 0.961 . S
C698 H712 0.961 . S
C699 C696 1.539 . S
C699 H713 0.958 . S
C699 H714 0.961 . S
C699 H715 0.960 . S
H700 C684 0.931 . S
H701 C689 0.929 . S
H702 C690 0.960 . S
H703 C690 0.962 . S
H704 C690 0.960 . S
H705 C691 0.961 . S
H706 C691 0.961 . S
H707 C691 0.961 . S
H708 C692 0.931 . S
H709 C697 0.930 . S
H710 C698 0.956 . S
H711 C698 0.961 . S
H712 C698 0.961 . S
H713 C699 0.958 . S
H714 C699 0.961 . S
H715 C699 0.960 . S
C716 C717 1.391 . S
C716 C718 1.394 . S
C716 H732 0.931 . S
C717 C716 1.391 . S
C717 C721 1.376 . S
C718 C716 1.394 . S
C718 C719 1.369 . S
C718 C722 1.531 . S
C719 C718 1.369 . S
C719 C720 1.410 . S
C719 C727 1.503 . S
C720 C719 1.410 . S
C720 C721 1.392 . S
C720 C723 1.511 . S
C721 C717 1.376 . S
C721 C720 1.392 . S
C721 H733 0.929 . S
C722 C718 1.531 . S
C722 H734 0.960 . S
C722 H735 0.962 . S
C722 H736 0.960 . S
C723 C720 1.511 . S
C723 H737 0.961 . S
C723 H738 0.961 . S
C723 H739 0.961 . S
C724 C725 1.370 . S
C724 C726 1.363 . S
C724 H740 0.931 . S
C725 C724 1.370 . S
C725 C729 1.408 . S
C726 C724 1.363 . S
C726 C727 1.370 . S
C726 C730 1.524 . S
C727 C719 1.503 . S
C727 C726 1.370 . S
C727 C728 1.403 . S
C728 C727 1.403 . S
C728 C729 1.404 . S
C728 C731 1.539 . S
C729 C725 1.408 . S
C729 C728 1.404 . S
C729 H741 0.930 . S
C730 C726 1.524 . S
C730 H742 0.956 . S
C730 H743 0.961 . S
C730 H744 0.961 . S
C731 C728 1.539 . S
C731 H745 0.958 . S
C731 H746 0.961 . S
C731 H747 0.960 . S
H732 C716 0.931 . S
H733 C721 0.929 . S
H734 C722 0.960 . S
H735 C722 0.962 . S
H736 C722 0.960 . S
H737 C723 0.961 . S
H738 C723 0.961 . S
H739 C723 0.961 . S
H740 C724 0.931 . S
H741 C729 0.930 . S
H742 C730 0.956 . S
H743 C730 0.961 . S
H744 C730 0.961 . S
H745 C731 0.958 . S
H746 C731 0.961 . S
H747 C731 0.960 . S
C748 C749 1.391 . S
C748 C750 1.394 . S
C748 H764 0.931 . S
C749 C748 1.391 . S
C749 C753 1.376 . S
C750 C748 1.394 . S
C750 C751 1.369 . S
C750 C754 1.531 . S
C751 C750 1.369 . S
C751 C752 1.410 . S
C751 C759 1.503 . S
C752 C751 1.410 . S
C752 C753 1.392 . S
C752 C755 1.511 . S
C753 C749 1.376 . S
C753 C752 1.392 . S
C753 H765 0.929 . S
C754 C750 1.531 . S
C754 H766 0.960 . S
C754 H767 0.962 . S
C754 H768 0.960 . S
C755 C752 1.511 . S
C755 H769 0.961 . S
C755 H770 0.961 . S
C755 H771 0.961 . S
C756 C757 1.370 . S
C756 C758 1.363 . S
C756 H772 0.931 . S
C757 C756 1.370 . S
C757 C761 1.408 . S
C758 C756 1.363 . S
C758 C759 1.370 . S
C758 C762 1.524 . S
C759 C751 1.503 . S
C759 C758 1.370 . S
C759 C760 1.403 . S
C760 C759 1.403 . S
C760 C761 1.404 . S
C760 C763 1.539 . S
C761 C757 1.408 . S
C761 C760 1.404 . S
C761 H773 0.930 . S
C762 C758 1.524 . S
C762 H774 0.956 . S
C762 H775 0.961 . S
C762 H776 0.961 . S
C763 C760 1.539 . S
C763 H777 0.958 . S
C763 H778 0.961 . S
C763 H779 0.960 . S
H764 C748 0.931 . S
H765 C753 0.929 . S
H766 C754 0.960 . S
H767 C754 0.962 . S
H768 C754 0.960 . S
H769 C755 0.961 . S
H770 C755 0.961 . S
H771 C755 0.961 . S
H772 C756 0.931 . S
H773 C761 0.930 . S
H774 C762 0.956 . S
H775 C762 0.961 . S
H776 C762 0.961 . S
H777 C763 0.958 . S
H778 C763 0.961 . S
H779 C763 0.960 . S
C780 C781 1.391 . S
C780 C782 1.394 . S
C780 H796 0.931 . S
C781 C780 1.391 . S
C781 C785 1.376 . S
C782 C780 1.394 . S
C782 C783 1.369 . S
C782 C786 1.531 . S
C783 C782 1.369 . S
C783 C784 1.410 . S
C783 C791 1.503 . S
C784 C783 1.410 . S
C784 C785 1.392 . S
C784 C787 1.511 . S
C785 C781 1.376 . S
C785 C784 1.392 . S
C785 H797 0.929 . S
C786 C782 1.531 . S
C786 H798 0.960 . S
C786 H799 0.962 . S
C786 H800 0.960 . S
C787 C784 1.511 . S
C787 H801 0.961 . S
C787 H802 0.961 . S
C787 H803 0.961 . S
C788 C789 1.370 . S
C788 C790 1.363 . S
C788 H804 0.931 . S
C789 C788 1.370 . S
C789 C793 1.408 . S
C790 C788 1.363 . S
C790 C791 1.370 . S
C790 C794 1.524 . S
C791 C783 1.503 . S
C791 C790 1.370 . S
C791 C792 1.403 . S
C792 C791 1.403 . S
C792 C793 1.404 . S
C792 C795 1.539 . S
C793 C789 1.408 . S
C793 C792 1.404 . S
C793 H805 0.930 . S
C794 C790 1.524 . S
C794 H806 0.956 . S
C794 H807 0.961 . S
C794 H808 0.961 . S
C795 C792 1.539 . S
C795 H809 0.958 . S
C795 H810 0.961 . S
C795 H811 0.960 . S
H796 C780 0.931 . S
H797 C785 0.929 . S
H798 C786 0.960 . S
H799 C786 0.962 . S
H800 C786 0.960 . S
H801 C787 0.961 . S
H802 C787 0.961 . S
H803 C787 0.961 . S
H804 C788 0.931 . S
H805 C793 0.930 . S
H806 C794 0.956 . S
H807 C794 0.961 . S
H808 C794 0.961 . S
H809 C795 0.958 . S
H810 C795 0.961 . S
H811 C795 0.960 . S
C812 C813 1.391 . S
C812 C814 1.394 . S
C812 H828 0.931 . S
C813 C812 1.391 . S
C813 C817 1.376 . S
C814 C812 1.394 . S
C814 C815 1.369 . S
C814 C818 1.531 . S
C815 C814 1.369 . S
C815 C816 1.410 . S
C815 C823 1.503 . S
C816 C815 1.410 . S
C816 C817 1.392 . S
C816 C819 1.511 . S
C817 C813 1.376 . S
C817 C816 1.392 . S
C817 H829 0.929 . S
C818 C814 1.531 . S
C818 H830 0.960 . S
C818 H831 0.962 . S
C818 H832 0.960 . S
C819 C816 1.511 . S
C819 H833 0.961 . S
C819 H834 0.961 . S
C819 H835 0.961 . S
C820 C821 1.370 . S
C820 C822 1.363 . S
C820 H836 0.931 . S
C821 C820 1.370 . S
C821 C825 1.408 . S
C822 C820 1.363 . S
C822 C823 1.370 . S
C822 C826 1.524 . S
C823 C815 1.503 . S
C823 C822 1.370 . S
C823 C824 1.403 . S
C824 C823 1.403 . S
C824 C825 1.404 . S
C824 C827 1.539 . S
C825 C821 1.408 . S
C825 C824 1.404 . S
C825 H837 0.930 . S
C826 C822 1.524 . S
C826 H838 0.956 . S
C826 H839 0.961 . S
C826 H840 0.961 . S
C827 C824 1.539 . S
C827 H841 0.958 . S
C827 H842 0.961 . S
C827 H843 0.960 . S
H828 C812 0.931 . S
H829 C817 0.929 . S
H830 C818 0.960 . S
H831 C818 0.962 . S
H832 C818 0.960 . S
H833 C819 0.961 . S
H834 C819 0.961 . S
H835 C819 0.961 . S
H836 C820 0.931 . S
H837 C825 0.930 . S
H838 C826 0.956 . S
H839 C826 0.961 . S
H840 C826 0.961 . S
H841 C827 0.958 . S
H842 C827 0.961 . S
H843 C827 0.960 . S
C844 C845 1.391 . S
C844 C846 1.394 . S
C844 H860 0.931 . S
C845 C844 1.391 . S
C845 C849 1.376 . S
C846 C844 1.394 . S
C846 C847 1.369 . S
C846 C850 1.531 . S
C847 C846 1.369 . S
C847 C848 1.410 . S
C847 C855 1.503 . S
C848 C847 1.410 . S
C848 C849 1.392 . S
C848 C851 1.511 . S
C849 C845 1.376 . S
C849 C848 1.392 . S
C849 H861 0.929 . S
C850 C846 1.531 . S
C850 H862 0.960 . S
C850 H863 0.962 . S
C850 H864 0.960 . S
C851 C848 1.511 . S
C851 H865 0.961 . S
C851 H866 0.961 . S
C851 H867 0.961 . S
C852 C853 1.370 . S
C852 C854 1.363 . S
C852 H868 0.931 . S
C853 C852 1.370 . S
C853 C857 1.408 . S
C854 C852 1.363 . S
C854 C855 1.370 . S
C854 C858 1.524 . S
C855 C847 1.503 . S
C855 C854 1.370 . S
C855 C856 1.403 . S
C856 C855 1.403 . S
C856 C857 1.404 . S
C856 C859 1.539 . S
C857 C853 1.408 . S
C857 C856 1.404 . S
C857 H869 0.930 . S
C858 C854 1.524 . S
C858 H870 0.956 . S
C858 H871 0.961 . S
C858 H872 0.961 . S
C859 C856 1.539 . S
C859 H873 0.958 . S
C859 H874 0.961 . S
C859 H875 0.960 . S
H860 C844 0.931 . S
H861 C849 0.929 . S
H862 C850 0.960 . S
H863 C850 0.962 . S
H864 C850 0.960 . S
H865 C851 0.961 . S
H866 C851 0.961 . S
H867 C851 0.961 . S
H868 C852 0.931 . S
H869 C857 0.930 . S
H870 C858 0.956 . S
H871 C858 0.961 . S
H872 C858 0.961 . S
H873 C859 0.958 . S
H874 C859 0.961 . S
H875 C859 0.960 . S
C876 C877 1.391 . S
C876 C878 1.394 . S
C876 H892 0.931 . S
C877 C876 1.391 . S
C877 C881 1.376 . S
C878 C876 1.394 . S
C878 C879 1.369 . S
C878 C882 1.531 . S
C879 C878 1.369 . S
C879 C880 1.410 . S
C879 C887 1.503 . S
C880 C879 1.410 . S
C880 C881 1.392 . S
C880 C883 1.511 . S
C881 C877 1.376 . S
C881 C880 1.392 . S
C881 H893 0.929 . S
C882 C878 1.531 . S
C882 H894 0.960 . S
C882 H895 0.962 . S
C882 H896 0.960 . S
C883 C880 1.511 . S
C883 H897 0.961 . S
C883 H898 0.961 . S
C883 H899 0.961 . S
C884 C885 1.370 . S
C884 C886 1.363 . S
C884 H900 0.931 . S
C885 C884 1.370 . S
C885 C889 1.408 . S
C886 C884 1.363 . S
C886 C887 1.370 . S
C886 C890 1.524 . S
C887 C879 1.503 . S
C887 C886 1.370 . S
C887 C888 1.403 . S
C888 C887 1.403 . S
C888 C889 1.404 . S
C888 C891 1.539 . S
C889 C885 1.408 . S
C889 C888 1.404 . S
C889 H901 0.930 . S
C890 C886 1.524 . S
C890 H902 0.956 . S
C890 H903 0.961 . S
C890 H904 0.961 . S
C891 C888 1.539 . S
C891 H905 0.958 . S
C891 H906 0.961 . S
C891 H907 0.960 . S
H892 C876 0.931 . S
H893 C881 0.929 . S
H894 C882 0.960 . S
H895 C882 0.962 . S
H896 C882 0.960 . S
H897 C883 0.961 . S
H898 C883 0.961 . S
H899 C883 0.961 . S
H900 C884 0.931 . S
H901 C889 0.930 . S
H902 C890 0.956 . S
H903 C890 0.961 . S
H904 C890 0.961 . S
H905 C891 0.958 . S
H906 C891 0.961 . S
H907 C891 0.960 . S
C908 C909 1.391 . S
C908 C910 1.394 . S
C908 H924 0.931 . S
C909 C908 1.391 . S
C909 C913 1.376 . S
C910 C908 1.394 . S
C910 C911 1.369 . S
C910 C914 1.531 . S
C911 C910 1.369 . S
C911 C912 1.410 . S
C911 C919 1.503 . S
C912 C911 1.410 . S
C912 C913 1.392 . S
C912 C915 1.511 . S
C913 C909 1.376 . S
C913 C912 1.392 . S
C913 H925 0.929 . S
C914 C910 1.531 . S
C914 H926 0.960 . S
C914 H927 0.962 . S
C914 H928 0.960 . S
C915 C912 1.511 . S
C915 H929 0.961 . S
C915 H930 0.961 . S
C915 H931 0.961 . S
C916 C917 1.370 . S
C916 C918 1.363 . S
C916 H932 0.931 . S
C917 C916 1.370 . S
C917 C921 1.408 . S
C918 C916 1.363 . S
C918 C919 1.370 . S
C918 C922 1.524 . S
C919 C911 1.503 . S
C919 C918 1.370 . S
C919 C920 1.403 . S
C920 C919 1.403 . S
C920 C921 1.404 . S
C920 C923 1.539 . S
C921 C917 1.408 . S
C921 C920 1.404 . S
C921 H933 0.930 . S
C922 C918 1.524 . S
C922 H934 0.956 . S
C922 H935 0.961 . S
C922 H936 0.961 . S
C923 C920 1.539 . S
C923 H937 0.958 . S
C923 H938 0.961 . S
C923 H939 0.960 . S
H924 C908 0.931 . S
H925 C913 0.929 . S
H926 C914 0.960 . S
H927 C914 0.962 . S
H928 C914 0.960 . S
H929 C915 0.961 . S
H930 C915 0.961 . S
H931 C915 0.961 . S
H932 C916 0.931 . S
H933 C921 0.930 . S
H934 C922 0.956 . S
H935 C922 0.961 . S
H936 C922 0.961 . S
H937 C923 0.958 . S
H938 C923 0.961 . S
H939 C923 0.960 . S
C940 C941 1.391 . S
C940 C942 1.394 . S
C940 H956 0.931 . S
C941 C940 1.391 . S
C941 C945 1.376 . S
C942 C940 1.394 . S
C942 C943 1.369 . S
C942 C946 1.531 . S
C943 C942 1.369 . S
C943 C944 1.410 . S
C943 C951 1.503 . S
C944 C943 1.410 . S
C944 C945 1.392 . S
C944 C947 1.511 . S
C945 C941 1.376 . S
C945 C944 1.392 . S
C945 H957 0.929 . S
C946 C942 1.531 . S
C946 H958 0.960 . S
C946 H959 0.962 . S
C946 H960 0.960 . S
C947 C944 1.511 . S
C947 H961 0.961 . S
C947 H962 0.961 . S
C947 H963 0.961 . S
C948 C949 1.370 . S
C948 C950 1.363 . S
C948 H964 0.931 . S
C949 C948 1.370 . S
C949 C953 1.408 . S
C950 C948 1.363 . S
C950 C951 1.370 . S
C950 C954 1.524 . S
C951 C943 1.503 . S
C951 C950 1.370 . S
C951 C952 1.403 . S
C952 C951 1.403 . S
C952 C953 1.404 . S
C952 C955 1.539 . S
C953 C949 1.408 . S
C953 C952 1.404 . S
C953 H965 0.930 . S
C954 C950 1.524 . S
C954 H966 0.956 . S
C954 H967 0.961 . S
C954 H968 0.961 . S
C955 C952 1.539 . S
C955 H969 0.958 . S
C955 H970 0.961 . S
C955 H971 0.960 . S
H956 C940 0.931 . S
H957 C945 0.929 . S
H958 C946 0.960 . S
H959 C946 0.962 . S
H960 C946 0.960 . S
H961 C947 0.961 . S
H962 C947 0.961 . S
H963 C947 0.961 . S
H964 C948 0.931 . S
H965 C953 0.930 . S
H966 C954 0.956 . S
H967 C954 0.961 . S
H968 C954 0.961 . S
H969 C955 0.958 . S
H970 C955 0.961 . S
H971 C955 0.960 . S
C205 C12 1.445 . S
C213 C127 1.562 . S
C237 C30 1.482 . S
C245 C140 1.537 . S
C277 C162 1.538 . S
C269 C51 1.473 . S
C309 C175 1.512 . S
C301 C72 1.490 . S
C341 C188 1.540 . S
C333 C96 1.497 . S
C373 C201 1.511 . S
C365 C117 1.441 . S
C397 C38 1.492 . S
C405 C157 1.534 . S
C429 C59 1.416 . S
C437 C170 1.497 . S
C469 C183 1.513 . S
C461 C80 1.442 . S
C501 C196 1.479 . S
C493 C103 1.467 . S
C525 C124 1.442 . S
C533 C129 1.545 . S
C565 C142 1.531 . S
C557 C19 1.495 . S
C597 C168 1.535 . S
C589 C17 1.506 . S
C621 C40 1.463 . S
C629 C181 1.491 . S
C661 C194 1.502 . S
C653 C61 1.468 . S
C685 C82 1.450 . S
C693 C131 1.521 . S
C717 C101 1.494 . S
C725 C144 1.555 . S
C749 C122 1.420 . S
C757 C155 1.493 . S
C781 C33 1.489 . S
C789 C192 1.534 . S
C821 C136 1.543 . S
C813 C54 1.469 . S
C845 C75 1.423 . S
C853 C149 1.565 . S
C877 C93 1.451 . S
C885 C153 1.506 . S
C909 C114 1.459 . S
C917 C166 1.523 . S
C941 C9 1.447 . S
C949 C179 1.506 . S
