# Generated by pormake.
# Topology ptr, (4,4)-cn, num edge types: 1
# Building blocks:
#     Node 0, Type 0, BuildingBlock: KUFVIS_clean_sbu_0, # of connection points: 4
#     Node 1, Type 0, BuildingBlock: KUFVIS_clean_sbu_0, # of connection points: 4
#     Node 2, Type 0, BuildingBlock: KUFVIS_clean_sbu_0, # of connection points: 4
#     Node 3, Type 0, BuildingBlock: KUFVIS_clean_sbu_0, # of connection points: 4
#     Node 4, Type 0, BuildingBlock: KUFVIS_clean_sbu_0, # of connection points: 4
#     Node 5, Type 0, BuildingBlock: KUFVIS_clean_sbu_0, # of connection points: 4
#     Node 6, Type 0, BuildingBlock: KUFVIS_clean_sbu_0, # of connection points: 4
#     Node 7, Type 0, BuildingBlock: KUFVIS_clean_sbu_0, # of connection points: 4
#     Node 8, Type 0, BuildingBlock: KUFVIS_clean_sbu_0, # of connection points: 4
#     Node 9, Type 0, BuildingBlock: KUFVIS_clean_sbu_0, # of connection points: 4
#     Node 10, Type 0, BuildingBlock: KUFVIS_clean_sbu_0, # of connection points: 4
#     Node 11, Type 0, BuildingBlock: KUFVIS_clean_sbu_0, # of connection points: 4
#     Node 12, Type 0, BuildingBlock: KUFVIS_clean_sbu_0, # of connection points: 4
#     Node 13, Type 0, BuildingBlock: KUFVIS_clean_sbu_0, # of connection points: 4
#     Node 14, Type 0, BuildingBlock: KUFVIS_clean_sbu_0, # of connection points: 4
#     Node 15, Type 0, BuildingBlock: KUFVIS_clean_sbu_0, # of connection points: 4
#     Node 16, Type 0, BuildingBlock: KUFVIS_clean_sbu_0, # of connection points: 4
#     Node 17, Type 0, BuildingBlock: KUFVIS_clean_sbu_0, # of connection points: 4
#     Node 18, Type 1, BuildingBlock: KUFVIS_clean_linker_0, # of connection points: 4
#     Node 19, Type 1, BuildingBlock: KUFVIS_clean_linker_0, # of connection points: 4
#     Node 20, Type 1, BuildingBlock: KUFVIS_clean_linker_0, # of connection points: 4
#     Node 21, Type 1, BuildingBlock: KUFVIS_clean_linker_0, # of connection points: 4
#     Node 22, Type 1, BuildingBlock: KUFVIS_clean_linker_0, # of connection points: 4
#     Node 23, Type 1, BuildingBlock: KUFVIS_clean_linker_0, # of connection points: 4
#     Node 24, Type 1, BuildingBlock: KUFVIS_clean_linker_0, # of connection points: 4
#     Node 25, Type 1, BuildingBlock: KUFVIS_clean_linker_0, # of connection points: 4
#     Node 26, Type 1, BuildingBlock: KUFVIS_clean_linker_0, # of connection points: 4
#     Node 27, Type 1, BuildingBlock: KUFVIS_clean_linker_0, # of connection points: 4
#     Node 28, Type 1, BuildingBlock: KUFVIS_clean_linker_0, # of connection points: 4
#     Node 29, Type 1, BuildingBlock: KUFVIS_clean_linker_0, # of connection points: 4
#     Node 30, Type 1, BuildingBlock: KUFVIS_clean_linker_0, # of connection points: 4
#     Node 31, Type 1, BuildingBlock: KUFVIS_clean_linker_0, # of connection points: 4
#     Node 32, Type 1, BuildingBlock: KUFVIS_clean_linker_0, # of connection points: 4
#     Node 33, Type 1, BuildingBlock: KUFVIS_clean_linker_0, # of connection points: 4
#     Node 34, Type 1, BuildingBlock: KUFVIS_clean_linker_0, # of connection points: 4
#     Node 35, Type 1, BuildingBlock: KUFVIS_clean_linker_0, # of connection points: 4
#     Edge 36, Type (0, 1), BuildingBlock: CIFDUS_clean_linker_0, # of connection points: 2
#     Edge 37, Type (0, 1), BuildingBlock: CIFDUS_clean_linker_0, # of connection points: 2
#     Edge 38, Type (0, 1), BuildingBlock: CIFDUS_clean_linker_0, # of connection points: 2
#     Edge 39, Type (0, 1), BuildingBlock: CIFDUS_clean_linker_0, # of connection points: 2
#     Edge 40, Type (0, 1), BuildingBlock: CIFDUS_clean_linker_0, # of connection points: 2
#     Edge 41, Type (0, 1), BuildingBlock: CIFDUS_clean_linker_0, # of connection points: 2
#     Edge 42, Type (0, 1), BuildingBlock: CIFDUS_clean_linker_0, # of connection points: 2
#     Edge 43, Type (0, 1), BuildingBlock: CIFDUS_clean_linker_0, # of connection points: 2
#     Edge 44, Type (0, 1), BuildingBlock: CIFDUS_clean_linker_0, # of connection points: 2
#     Edge 45, Type (0, 1), BuildingBlock: CIFDUS_clean_linker_0, # of connection points: 2
#     Edge 46, Type (0, 1), BuildingBlock: CIFDUS_clean_linker_0, # of connection points: 2
#     Edge 47, Type (0, 1), BuildingBlock: CIFDUS_clean_linker_0, # of connection points: 2
#     Edge 48, Type (0, 1), BuildingBlock: CIFDUS_clean_linker_0, # of connection points: 2
#     Edge 49, Type (0, 1), BuildingBlock: CIFDUS_clean_linker_0, # of connection points: 2
#     Edge 50, Type (0, 1), BuildingBlock: CIFDUS_clean_linker_0, # of connection points: 2
#     Edge 51, Type (0, 1), BuildingBlock: CIFDUS_clean_linker_0, # of connection points: 2
#     Edge 52, Type (0, 1), BuildingBlock: CIFDUS_clean_linker_0, # of connection points: 2
#     Edge 53, Type (0, 1), BuildingBlock: CIFDUS_clean_linker_0, # of connection points: 2
#     Edge 54, Type (0, 1), BuildingBlock: CIFDUS_clean_linker_0, # of connection points: 2
#     Edge 55, Type (0, 1), BuildingBlock: CIFDUS_clean_linker_0, # of connection points: 2
#     Edge 56, Type (0, 1), BuildingBlock: CIFDUS_clean_linker_0, # of connection points: 2
#     Edge 57, Type (0, 1), BuildingBlock: CIFDUS_clean_linker_0, # of connection points: 2
#     Edge 58, Type (0, 1), BuildingBlock: CIFDUS_clean_linker_0, # of connection points: 2
#     Edge 59, Type (0, 1), BuildingBlock: CIFDUS_clean_linker_0, # of connection points: 2
#     Edge 60, Type (0, 1), BuildingBlock: CIFDUS_clean_linker_0, # of connection points: 2
#     Edge 61, Type (0, 1), BuildingBlock: CIFDUS_clean_linker_0, # of connection points: 2
#     Edge 62, Type (0, 1), BuildingBlock: CIFDUS_clean_linker_0, # of connection points: 2
#     Edge 63, Type (0, 1), BuildingBlock: CIFDUS_clean_linker_0, # of connection points: 2
#     Edge 64, Type (0, 1), BuildingBlock: CIFDUS_clean_linker_0, # of connection points: 2
#     Edge 65, Type (0, 1), BuildingBlock: CIFDUS_clean_linker_0, # of connection points: 2
#     Edge 66, Type (0, 1), BuildingBlock: CIFDUS_clean_linker_0, # of connection points: 2
#     Edge 67, Type (0, 1), BuildingBlock: CIFDUS_clean_linker_0, # of connection points: 2
#     Edge 68, Type (0, 1), BuildingBlock: CIFDUS_clean_linker_0, # of connection points: 2
#     Edge 69, Type (0, 1), BuildingBlock: CIFDUS_clean_linker_0, # of connection points: 2
#     Edge 70, Type (0, 1), BuildingBlock: CIFDUS_clean_linker_0, # of connection points: 2
#     Edge 71, Type (0, 1), BuildingBlock: CIFDUS_clean_linker_0, # of connection points: 2
#     Edge 72, Type (0, 1), BuildingBlock: CIFDUS_clean_linker_0, # of connection points: 2
#     Edge 73, Type (0, 1), BuildingBlock: CIFDUS_clean_linker_0, # of connection points: 2
#     Edge 74, Type (0, 1), BuildingBlock: CIFDUS_clean_linker_0, # of connection points: 2
#     Edge 75, Type (0, 1), BuildingBlock: CIFDUS_clean_linker_0, # of connection points: 2
#     Edge 76, Type (0, 1), BuildingBlock: CIFDUS_clean_linker_0, # of connection points: 2
#     Edge 77, Type (0, 1), BuildingBlock: CIFDUS_clean_linker_0, # of connection points: 2
#     Edge 78, Type (0, 1), BuildingBlock: CIFDUS_clean_linker_0, # of connection points: 2
#     Edge 79, Type (0, 1), BuildingBlock: CIFDUS_clean_linker_0, # of connection points: 2
#     Edge 80, Type (0, 1), BuildingBlock: CIFDUS_clean_linker_0, # of connection points: 2
#     Edge 81, Type (0, 1), BuildingBlock: CIFDUS_clean_linker_0, # of connection points: 2
#     Edge 82, Type (0, 1), BuildingBlock: CIFDUS_clean_linker_0, # of connection points: 2
#     Edge 83, Type (0, 1), BuildingBlock: CIFDUS_clean_linker_0, # of connection points: 2
#     Edge 84, Type (0, 1), BuildingBlock: CIFDUS_clean_linker_0, # of connection points: 2
#     Edge 85, Type (0, 1), BuildingBlock: CIFDUS_clean_linker_0, # of connection points: 2
#     Edge 86, Type (0, 1), BuildingBlock: CIFDUS_clean_linker_0, # of connection points: 2
#     Edge 87, Type (0, 1), BuildingBlock: CIFDUS_clean_linker_0, # of connection points: 2
#     Edge 88, Type (0, 1), BuildingBlock: CIFDUS_clean_linker_0, # of connection points: 2
#     Edge 89, Type (0, 1), BuildingBlock: CIFDUS_clean_linker_0, # of connection points: 2
#     Edge 90, Type (0, 1), BuildingBlock: CIFDUS_clean_linker_0, # of connection points: 2
#     Edge 91, Type (0, 1), BuildingBlock: CIFDUS_clean_linker_0, # of connection points: 2
#     Edge 92, Type (0, 1), BuildingBlock: CIFDUS_clean_linker_0, # of connection points: 2
#     Edge 93, Type (0, 1), BuildingBlock: CIFDUS_clean_linker_0, # of connection points: 2
#     Edge 94, Type (0, 1), BuildingBlock: CIFDUS_clean_linker_0, # of connection points: 2
#     Edge 95, Type (0, 1), BuildingBlock: CIFDUS_clean_linker_0, # of connection points: 2
#     Edge 96, Type (0, 1), BuildingBlock: CIFDUS_clean_linker_0, # of connection points: 2
#     Edge 97, Type (0, 1), BuildingBlock: CIFDUS_clean_linker_0, # of connection points: 2
#     Edge 98, Type (0, 1), BuildingBlock: CIFDUS_clean_linker_0, # of connection points: 2
#     Edge 99, Type (0, 1), BuildingBlock: CIFDUS_clean_linker_0, # of connection points: 2
#     Edge 100, Type (0, 1), BuildingBlock: CIFDUS_clean_linker_0, # of connection points: 2
#     Edge 101, Type (0, 1), BuildingBlock: CIFDUS_clean_linker_0, # of connection points: 2
#     Edge 102, Type (0, 1), BuildingBlock: CIFDUS_clean_linker_0, # of connection points: 2
#     Edge 103, Type (0, 1), BuildingBlock: CIFDUS_clean_linker_0, # of connection points: 2
#     Edge 104, Type (0, 1), BuildingBlock: CIFDUS_clean_linker_0, # of connection points: 2
#     Edge 105, Type (0, 1), BuildingBlock: CIFDUS_clean_linker_0, # of connection points: 2
#     Edge 106, Type (0, 1), BuildingBlock: CIFDUS_clean_linker_0, # of connection points: 2
#     Edge 107, Type (0, 1), BuildingBlock: CIFDUS_clean_linker_0, # of connection points: 2
# Relax obj value: 0.050
# Max RMSD: 0.134
# Mean RMSD: 0.089
data_MOF--net-ptr--node1-KUFVIS_clean_sbu_0--node2-KUFVIS_clean_linker_0--edge1-CIFDUS_clean_linker_0
_symmetry_space_group_name_H-M    P1
_symmetry_Int_Tables_number       1
_symmetry_cell_setting            triclinic
loop_
_symmetry_equiv_pos_as_xyz
'x, y, z'
_cell_length_a     67.319437
_cell_length_b     67.14164
_cell_length_c     44.1911
_cell_angle_alpha  89.811013
_cell_angle_beta   90.481949
_cell_angle_gamma 119.64657
loop_
_atom_site_label
_atom_site_type_symbol
_atom_site_fract_x
_atom_site_fract_y
_atom_site_fract_z
_atom_type_partial_charge
Mn0 Mn 1.02345 0.36251 0.98761 0.0
Mn1 Mn 0.07517 0.41047 0.98056 0.0
C2 C 0.02866 0.39038 0.95243 0.0
C3 C 0.99776 0.32419 0.97544 0.0
C4 C 0.04217 0.40316 0.03133 0.0
O5 O 0.04504 0.35406 0.0098 0.0
O6 O 0.07868 0.38569 -0.00016 0.0
C7 C 0.09553 0.393 0.9361 0.0
N8 N 0.08964 0.4089 0.94434 0.0
C9 C 0.1056 0.43052 0.89877 0.0
C10 C 0.112 0.41447 0.8899 0.0
C11 C 0.10686 0.39558 0.9086 0.0
C12 C 0.09433 0.42704 0.92641 0.0
H13 H 0.09158 0.37844 0.95039 0.0
C14 C 0.06688 0.36547 0.01071 0.0
O15 O 0.99583 0.33335 0.00025 0.0
O16 O 1.01485 0.3371 0.9581 0.0
N17 N 0.07471 0.43606 0.962 0.0
C18 C 0.06654 0.44947 0.97324 0.0
C19 C 0.06989 0.46888 0.95697 0.0
C20 C 0.08182 0.47447 0.92952 0.0
C21 C 0.09039 0.46062 0.91865 0.0
C22 C 0.08666 0.44158 0.93594 0.0
H23 H 0.05741 0.44533 -0.00566 0.0
O24 O 1.00828 0.37562 0.9614 0.0
O25 O 0.04532 0.38808 0.9636 0.0
O26 O 1.02609 0.38376 0.02232 0.0
O27 O 0.06141 0.41411 0.018 0.0
C28 C 0.10212 0.46473 0.89105 0.0
C29 C 0.10964 0.44965 0.88106 0.0
H30 H 0.1207 0.41637 0.86868 0.0
H31 H 0.11164 0.38305 0.90183 0.0
H32 H 0.06321 0.47948 0.96551 0.0
H33 H 0.08415 0.48931 0.91688 0.0
H34 H 0.10514 0.47925 0.87711 0.0
H35 H 0.11833 0.4528 0.85959 0.0
Mn36 Mn 0.66936 0.65838 0.00798 0.0
Mn37 Mn 0.67378 0.6107 0.01779 0.0
C38 C 0.64618 0.63078 0.04242 0.0
C39 C 0.6811 0.69662 0.01861 0.0
C40 C 0.65019 0.61815 0.96375 0.0
O41 O 0.69997 0.66681 -0.01109 0.0
O42 O 0.70266 0.63542 8e-05 0.0
C43 C 0.70988 0.62765 0.06508 0.0
N44 N 0.68842 0.6121 0.05559 0.0
C45 C 0.6809 0.59095 0.10214 0.0
C46 C 0.70298 0.60666 0.11234 0.0
C47 C 0.71751 0.62511 0.09375 0.0
C48 C 0.67429 0.59429 0.07329 0.0
H49 H 0.72108 0.64189 0.05089 0.0
C50 C 0.71088 0.65571 -0.01075 0.0
O51 O 0.67077 0.68722 -0.00661 0.0
O52 O 0.68483 0.68395 0.03752 0.0
N53 N 0.64721 0.5855 0.03507 0.0
C54 C 0.62592 0.57282 0.02274 0.0
C55 C 0.60903 0.55419 0.03896 0.0
C56 C 0.61423 0.54868 0.06754 0.0
C57 C 0.63631 0.56183 0.07963 0.0
C58 C 0.65249 0.58012 0.06235 0.0
H59 H 0.62181 0.577 0.00081 0.0
O60 O 0.64046 0.6453 0.03178 0.0
O61 O 0.66547 0.6331 0.033 0.0
O62 O 0.65251 0.63724 0.97255 0.0
O63 O 0.658 0.60708 0.9785 0.0
C64 C 0.64275 0.55786 0.10847 0.0
C65 C 0.66502 0.57242 0.11972 0.0
H66 H 0.70888 0.60484 0.13451 0.0
H67 H 0.73454 0.63737 0.10153 0.0
H68 H 0.59201 0.54417 0.02951 0.0
H69 H 0.60108 0.53446 0.08013 0.0
H70 H 0.63058 0.5439 0.1224 0.0
H71 H 0.66964 0.56942 0.14213 0.0
Mn72 Mn 0.38638 0.01942 0.00773 0.0
Mn73 Mn 0.43295 0.07204 0.01512 0.0
C74 C 0.41621 0.02422 0.03888 0.0
C75 C 0.34904 0.99299 0.02218 0.0
C76 C 0.42396 0.0412 0.96066 0.0
O77 O 0.3761 0.04105 -0.0101 0.0
O78 O 0.40637 0.07528 0.00189 0.0
C79 C 0.41835 0.08984 0.06647 0.0
N80 N 0.43378 0.08482 0.05397 0.0
C81 C 0.45889 0.10018 0.09712 0.0
C82 C 0.44333 0.10564 0.1104 0.0
C83 C 0.42294 0.10036 0.09505 0.0
C84 C 0.45338 0.08969 0.06861 0.0
H85 H 0.4027 0.08587 0.05469 0.0
C86 C 0.38599 0.0629 -0.00836 0.0
O87 O 0.35682 0.99163 -0.00405 0.0
O88 O 0.36276 1.00975 0.03969 0.0
N89 N 0.46003 0.07179 0.02807 0.0
C90 C 0.47244 0.06396 0.0131 0.0
C91 C 0.49284 0.0669 0.02607 0.0
C92 C 0.50044 0.07814 0.05404 0.0
C93 C 0.48756 0.08635 0.06881 0.0
C94 C 0.46736 0.0829 0.05481 0.0
H95 H 0.46677 0.0554 -0.00846 0.0
O96 O 0.4011 1.00398 0.02946 0.0
O97 O 0.41285 0.04104 0.03095 0.0
O98 O 0.40618 0.0236 0.97061 0.0
O99 O 0.4342 0.06038 0.97456 0.0
C100 C 0.49373 0.09739 0.09717 0.0
C101 C 0.47942 0.10433 0.1113 0.0
H102 H 0.44677 0.11369 0.13247 0.0
H103 H 0.4108 0.10443 0.10522 0.0
H104 H 0.50269 0.06052 0.01453 0.0
H105 H 0.51611 0.08025 0.06405 0.0
H106 H 0.50924 0.10027 0.10856 0.0
H107 H 0.48414 0.11243 0.13334 0.0
Mn108 Mn 1.02249 0.66281 0.98689 0.0
Mn109 Mn 0.07245 0.66344 0.97526 0.0
C110 C 1.02461 0.63914 0.95061 0.0
C111 C 0.99723 0.67657 0.97891 0.0
C112 C 0.04136 0.63946 0.02827 0.0
O113 O 0.04596 0.69248 0.00727 0.0
O114 O 0.07841 0.69238 -0.00454 0.0
C115 C 0.09275 0.70124 0.93069 0.0
N116 N 0.08595 0.67914 0.93843 0.0
C117 C 0.09901 0.67242 0.89104 0.0
C118 C 0.1063 0.69515 0.88264 0.0
C119 C 0.10308 0.70959 0.90252 0.0
C120 C 0.08885 0.66506 0.91942 0.0
H121 H 0.0903 0.71239 0.94589 0.0
C122 C 0.06773 0.70185 0.00705 0.0
O123 O 0.99666 0.66562 0.00338 0.0
O124 O 1.01287 0.68007 0.95921 0.0
N125 N 0.0696 0.63678 0.95555 0.0
C126 C 0.06045 0.61497 0.96633 0.0
C127 C 0.06173 0.59822 0.94884 0.0
C128 C 0.07258 0.60409 0.92061 0.0
C129 C 0.08208 0.62668 0.91013 0.0
C130 C 0.0804 0.64268 0.92863 0.0
H131 H 0.05205 0.61033 0.98796 0.0
O132 O 1.00502 0.63452 0.96176 0.0
O133 O 0.04236 0.6577 0.9605 0.0
O134 O 1.02585 0.64412 0.0207 0.0
O135 O 0.05978 0.64626 0.01338 0.0
C136 C 0.09268 0.63384 0.88174 0.0
C137 C 0.10108 0.65667 0.87217 0.0
H138 H 0.11421 0.70165 0.8609 0.0
H139 H 0.10856 0.72712 0.89613 0.0
H140 H 0.05428 0.5808 0.95704 0.0
H141 H 0.07329 0.59106 0.90703 0.0
H142 H 0.09412 0.62182 0.86688 0.0
H143 H 0.10888 0.66188 0.85011 0.0
Mn144 Mn 0.39072 0.38993 0.00027 0.0
Mn145 Mn 0.43716 0.38946 0.02934 0.0
C146 C 0.41466 0.41818 0.03381 0.0
C147 C 0.35211 0.37924 0.00178 0.0
C148 C 0.43689 0.40911 0.9678 0.0
O149 O 0.38425 0.35756 -0.01038 0.0
O150 O 0.41634 0.35996 0.00896 0.0
C151 C 0.41106 0.355 0.07642 0.0
N152 N 0.42844 0.3761 0.06871 0.0
C153 C 0.43881 0.38601 0.12102 0.0
C154 C 0.42111 0.36434 0.12949 0.0
C155 C 0.40714 0.3488 0.10709 0.0
C156 C 0.44169 0.39134 0.09013 0.0
H157 H 0.40019 0.34303 0.05932 0.0
C158 C 0.39722 0.34904 -0.00508 0.0
O159 O 0.36353 0.38609 0.97677 0.0
O160 O 0.36274 0.37752 0.02537 0.0
N161 N 0.4595 0.41635 0.05008 0.0
C162 C 0.4775 0.43532 0.03789 0.0
C163 C 0.49421 0.45189 0.05706 0.0
C164 C 0.4925 0.44862 0.08855 0.0
C165 C 0.47439 0.42852 0.10051 0.0
C166 C 0.4585 0.41243 0.08022 0.0
H167 H 0.47913 0.43776 0.01368 0.0
O168 O 0.40085 0.42128 0.01645 0.0
O169 O 0.4134 0.39822 0.03214 0.0
O170 O 0.41584 0.40377 0.96836 0.0
O171 O 0.44687 0.40444 -0.01074 0.0
C172 C 0.47177 0.4236 0.13172 0.0
C173 C 0.45382 0.40246 0.142 0.0
H174 H 0.41811 0.35944 0.1531 0.0
H175 H 0.39339 0.33206 0.11344 0.0
H176 H 0.50836 0.46717 0.0476 0.0
H177 H 0.5053 0.46152 0.10329 0.0
H178 H 0.48355 0.4359 0.14799 0.0
H179 H 0.45197 0.39888 0.16605 0.0
Mn180 Mn 0.6607 1.00726 0.9769 0.0
Mn181 Mn 0.60803 0.96037 0.96825 0.0
C182 C 0.63386 1.00835 0.9447 0.0
C183 C 0.69944 0.03086 0.96624 0.0
C184 C 0.62145 0.99218 0.02196 0.0
O185 O 0.66549 0.98142 -0.00636 0.0
O186 O 0.63005 0.95184 0.9854 0.0
C187 C 0.61953 0.93665 0.92093 0.0
N188 N 0.6063 0.94539 0.93084 0.0
C189 C 0.5818 0.93103 0.88699 0.0
C190 C 0.59511 0.92179 0.87635 0.0
C191 C 0.61413 0.92474 0.89331 0.0
C192 C 0.58816 0.94295 0.91448 0.0
H193 H 0.63402 0.93869 0.93405 0.0
C194 C 0.6508 0.96001 -0.0058 0.0
O195 O 0.69097 0.03144 -0.00783 0.0
O196 O 0.68563 1.01589 0.94661 0.0
N197 N 0.58458 0.96544 0.9516 0.0
C198 C 0.57418 0.97635 0.96431 0.0
C199 C 0.55529 0.97573 0.94965 0.0
C200 C 0.54697 0.96349 0.92246 0.0
C201 C 0.55763 0.95199 0.91015 0.0
C202 C 0.57649 0.95334 0.92567 0.0
H203 H 0.5803 0.98554 0.98541 0.0
O204 O 0.65067 0.02711 0.9556 0.0
O205 O 0.63332 0.98934 0.95225 0.0
O206 O 0.64179 1.00545 0.01335 0.0
O207 O 0.60731 0.97445 0.00715 0.0
C208 C 0.55051 0.93951 0.88285 0.0
C209 C 0.56262 0.92908 0.87124 0.0
H210 H 0.59095 0.91252 0.85511 0.0
H211 H 0.62452 0.91771 0.8852 0.0
H212 H 0.54711 0.98459 0.95935 0.0
H213 H 0.53244 0.96311 0.91117 0.0
H214 H 0.53601 0.9382 0.87032 0.0
H215 H 0.55724 0.9199 0.84996 0.0
Mn216 Mn 0.68994 0.70562 0.32531 0.0
Mn217 Mn 0.73637 0.75854 0.31746 0.0
C218 C 0.6887 0.7323 0.29288 0.0
C219 C 0.66784 0.66694 0.31211 0.0
C220 C 0.70366 0.74519 0.37006 0.0
O221 O 0.7157 0.70118 0.34325 0.0
O222 O 0.74495 0.73679 0.33558 0.0
C223 C 0.76108 0.74702 0.27179 0.0
N224 N 0.75206 0.76022 0.28088 0.0
C225 C 0.76738 0.7848 0.2375 0.0
C226 C 0.77693 0.77153 0.22773 0.0
C227 C 0.77364 0.75248 0.24486 0.0
C228 C 0.75485 0.77839 0.26436 0.0
H229 H 0.75879 0.7325 0.28505 0.0
C230 C 0.73699 0.71606 0.34438 0.0
O231 O 0.6658 0.67441 0.33827 0.0
O232 O 0.68325 0.68171 0.29406 0.0
N233 N 0.73138 0.78181 0.29987 0.0
C234 C 0.71971 0.79184 0.31126 0.0
C235 C 0.72044 0.81062 0.29613 0.0
C236 C 0.73349 0.81916 0.26976 0.0
C237 C 0.7456 0.80875 0.25866 0.0
C238 C 0.74411 0.79 0.2746 0.0
H239 H 0.70967 0.78538 0.33151 0.0
O240 O 0.67004 0.7152 0.30315 0.0
O241 O 0.70773 0.73314 0.30104 0.0
O242 O 0.69059 0.72442 0.36215 0.0
O243 O 0.72135 0.75911 0.35525 0.0
C244 C 0.75872 0.81595 0.23207 0.0
C245 C 0.76957 0.80395 0.22146 0.0
H246 H 0.78668 0.77572 0.20702 0.0
H247 H 0.7809 0.74212 0.23742 0.0
H248 H 0.71099 0.8185 0.30479 0.0
H249 H 0.73394 0.83358 0.25809 0.0
H250 H 0.76018 0.83039 0.21926 0.0
H251 H 0.77923 0.80937 0.20067 0.0
Mn252 Mn 0.34199 0.99996 0.34553 0.0
Mn253 Mn 0.34136 0.94995 0.358 0.0
C254 C 0.31723 0.97443 0.38059 0.0
C255 C 0.35748 0.03895 0.35429 0.0
C256 C 0.31955 0.95887 0.30306 0.0
O257 O 0.37164 1.00512 0.32712 0.0
O258 O 0.37136 0.97249 0.34009 0.0
C259 C 0.37711 0.96498 0.40561 0.0
N260 N 0.35525 0.95071 0.39618 0.0
C261 C 0.34589 0.93031 0.44348 0.0
C262 C 0.36836 0.94468 0.45362 0.0
C263 C 0.38401 0.96213 0.43462 0.0
C264 C 0.34004 0.93389 0.41429 0.0
H265 H 0.38918 0.97845 0.39112 0.0
C266 C 0.38108 0.99269 0.32868 0.0
O267 O 0.3466 0.02964 0.32933 0.0
O268 O 0.35941 0.02566 0.37411 0.0
N269 N 0.31361 0.92669 0.37567 0.0
C270 C 0.29219 0.9154 0.36335 0.0
C271 C 0.2743 0.89797 0.37992 0.0
C272 C 0.27861 0.89221 0.40888 0.0
C273 C 0.30082 0.90394 0.42099 0.0
C274 C 0.31801 0.92107 0.40335 0.0
H275 H 0.28872 0.9198 0.34118 0.0
O276 O 0.31341 0.99004 0.36902 0.0
O277 O 0.33569 0.97454 0.37176 0.0
O278 O 0.32374 0.97882 0.31082 0.0
O279 O 0.32605 0.94695 0.31847 0.0
C280 C 0.30645 0.89971 0.45019 0.0
C281 C 0.32896 0.91289 0.46143 0.0
H282 H 0.37371 0.94263 0.47604 0.0
H283 H 0.40134 0.97337 0.44235 0.0
H284 H 0.25719 0.88907 0.37047 0.0
H285 H 0.26471 0.87894 0.42173 0.0
H286 H 0.2935 0.88663 0.46439 0.0
H287 H 0.33299 0.90973 0.48411 0.0
Mn288 Mn 0.05164 0.34929 0.3378 0.0
Mn289 Mn 0.10311 0.39421 0.35732 0.0
C290 C 0.07318 0.34578 0.37646 0.0
C291 C 1.01196 0.32676 0.34179 0.0
C292 C 0.09569 0.36525 0.30147 0.0
O293 O 0.05021 0.37662 0.31949 0.0
O294 O 0.0844 0.40517 0.33555 0.0
C295 C 0.0874 0.41649 0.40142 0.0
N296 N 0.10064 0.407 0.39473 0.0
C297 C 0.11715 0.41497 0.44479 0.0
C298 C 0.10378 0.42494 0.45216 0.0
C299 C 0.08879 0.42563 0.4304 0.0
C300 C 0.11503 0.40613 0.41554 0.0
H301 H 0.07586 0.41707 0.38478 0.0
C302 C 0.06507 0.3979 0.32214 0.0
O303 O 1.02266 0.3265 0.31767 0.0
O304 O 1.02414 0.34102 0.36304 0.0
N305 N 0.12283 0.38612 0.37902 0.0
C306 C 0.13365 0.37485 0.36882 0.0
C307 C 0.14885 0.37216 0.3881 0.0
C308 C 0.15296 0.38127 0.41752 0.0
C309 C 0.14183 0.39301 0.4274 0.0
C310 C 0.12693 0.39523 0.40714 0.0
H311 H 0.13064 0.36788 0.34619 0.0
O312 O 0.05785 0.32772 0.3623 0.0
O313 O 0.07553 0.36527 0.36756 0.0
O314 O 0.07448 0.35169 0.30585 0.0
O315 O 0.10798 0.38211 0.31892 0.0
C316 C 0.14459 0.4022 0.45675 0.0
C317 C 0.13221 0.41311 0.46546 0.0
H318 H 0.10476 0.43196 0.47451 0.0
H319 H 0.07835 0.43321 0.43597 0.0
H320 H 0.15734 0.36303 0.38033 0.0
H321 H 0.16451 0.37895 0.43243 0.0
H322 H 0.1559 0.40063 0.47295 0.0
H323 H 0.1342 0.41979 0.48824 0.0
Mn324 Mn 0.70076 1.00561 0.31128 0.0
Mn325 Mn 0.74713 0.99948 0.29894 0.0
C326 C 0.69877 0.97806 0.27782 0.0
C327 C 0.67604 0.0202 0.30293 0.0
C328 C 0.71802 0.98167 0.35473 0.0
O329 O 0.7271 0.03608 0.32691 0.0
O330 O 0.75643 0.02992 0.31687 0.0
C331 C 0.7687 0.03472 0.25123 0.0
N332 N 0.76016 1.01269 0.26073 0.0
C333 C 0.77 1.00192 0.21367 0.0
C334 C 0.779 0.02453 0.20344 0.0
C335 C 0.77828 0.04098 0.22227 0.0
C336 C 0.76064 0.99669 0.24273 0.0
H337 H 0.76819 0.04742 0.26564 0.0
C338 C 0.74847 0.04251 0.32666 0.0
O339 O 0.67721 1.01163 0.32869 0.0
O340 O 0.69028 0.02161 0.28214 0.0
N341 N 0.74087 0.97092 0.28132 0.0
C342 C 0.73057 0.94966 0.29407 0.0
C343 C 0.72945 0.93115 0.27792 0.0
C344 C 0.73917 0.93472 0.24903 0.0
C345 C 0.74997 0.95681 0.23656 0.0
C346 C 0.75064 0.97462 0.25377 0.0
H347 H 0.72316 0.94682 0.31633 0.0
O348 O 0.68036 0.97575 0.29029 0.0
O349 O 0.71775 0.99634 0.28512 0.0
O350 O 0.70439 0.98877 0.34707 0.0
O351 O 0.73491 0.98473 0.33857 0.0
C352 C 0.75969 0.96177 0.20749 0.0
C353 C 0.76963 0.98429 0.19601 0.0
H354 H 0.78637 0.02942 0.1811 0.0
H355 H 0.78511 0.05844 0.21449 0.0
H356 H 0.72107 0.91415 0.2877 0.0
H357 H 0.73806 0.92035 0.23652 0.0
H358 H 0.7593 0.94832 0.19358 0.0
H359 H 0.77674 0.98783 0.17346 0.0
Mn360 Mn 0.04668 0.70841 0.33985 0.0
Mn361 Mn 0.09526 0.70619 0.35263 0.0
C362 C 0.0727 0.73173 0.37639 0.0
C363 C 1.0078 0.69496 0.34857 0.0
C364 C 0.08859 0.73052 0.29879 0.0
O365 O 0.0402 0.67845 0.31942 0.0
O366 O 0.0721 0.6774 0.33263 0.0
C367 C 0.07767 0.66884 0.3979 0.0
N368 N 0.09301 0.69074 0.38991 0.0
C369 C 0.11261 0.69761 0.43781 0.0
C370 C 0.0971 0.67507 0.44649 0.0
C371 C 0.07952 0.66065 0.42648 0.0
C372 C 0.10994 0.70479 0.40903 0.0
H373 H 0.06412 0.65771 0.38259 0.0
C374 C 0.05225 0.6685 0.32022 0.0
O375 O 1.01755 0.70598 0.32402 0.0
O376 O 1.02041 0.69138 0.36774 0.0
N377 N 0.11926 0.73275 0.37209 0.0
C378 C 0.13214 0.75432 0.36081 0.0
C379 C 0.15016 0.77104 0.37833 0.0
C380 C 0.15489 0.76535 0.40708 0.0
C381 C 0.14162 0.74296 0.41802 0.0
C382 C 0.12397 0.72699 0.39947 0.0
H383 H 0.12863 0.7588 0.33871 0.0
O384 O 0.05786 0.73676 0.36511 0.0
O385 O 0.07157 0.71298 0.36649 0.0
O386 O 0.06876 0.72691 0.30598 0.0
O387 O 0.09962 0.72296 0.31416 0.0
C388 C 0.14491 0.73597 0.44685 0.0
C389 C 0.13038 0.71333 0.45676 0.0
H390 H 0.09842 0.66872 0.46855 0.0
H391 H 0.06742 0.64327 0.43307 0.0
H392 H 0.16031 0.78828 0.36973 0.0
H393 H 0.16864 0.77835 0.42066 0.0
H394 H 0.15834 0.74798 0.46175 0.0
H395 H 0.13287 0.70826 0.47914 0.0
Mn396 Mn 0.34459 0.36108 0.32947 0.0
Mn397 Mn 0.29129 0.31784 0.31221 0.0
C398 C 0.32204 0.36645 0.29417 0.0
C399 C 0.38429 0.38269 0.32357 0.0
C400 C 0.30197 0.34695 0.36837 0.0
O401 O 0.34549 0.33289 0.34541 0.0
O402 O 0.30942 0.30603 0.3333 0.0
C403 C 0.30483 0.29411 0.26741 0.0
N404 N 0.29212 0.30404 0.27485 0.0
C405 C 0.27226 0.29339 0.22698 0.0
C406 C 0.28507 0.28297 0.21884 0.0
C407 C 0.30153 0.28346 0.23907 0.0
C408 C 0.27655 0.30403 0.25534 0.0
H409 H 0.31731 0.29424 0.28304 0.0
C410 C 0.32915 0.31213 0.34468 0.0
O411 O 0.37447 0.38265 0.34866 0.0
O412 O 0.3712 0.36921 0.30218 0.0
N413 N 0.27123 0.32599 0.29157 0.0
C414 C 0.26074 0.33735 0.30255 0.0
C415 C 0.24413 0.33887 0.28481 0.0
C416 C 0.23808 0.32825 0.25629 0.0
C417 C 0.24871 0.31619 0.24577 0.0
C418 C 0.26526 0.31539 0.26436 0.0
H419 H 0.26506 0.34527 0.32464 0.0
O420 O 0.33857 0.38384 0.308 0.0
O421 O 0.31922 0.34634 0.30088 0.0
O422 O 0.32339 0.35894 0.36376 0.0
O423 O 0.28832 0.33111 0.35049 0.0
C424 C 0.24367 0.30507 0.21745 0.0
C425 C 0.2555 0.29376 0.20802 0.0
H426 H 0.28248 0.27462 0.19708 0.0
H427 H 0.31152 0.27551 0.23292 0.0
H428 H 0.23592 0.34812 0.29316 0.0
H429 H 0.2253 0.3295 0.24264 0.0
H430 H 0.23101 0.30546 0.20255 0.0
H431 H 0.25176 0.28561 0.18599 0.0
Mn432 Mn 0.35267 0.04624 0.66217 0.0
Mn433 Mn 0.39897 0.09886 0.65224 0.0
C434 C 0.35065 0.0728 0.63024 0.0
C435 C 0.33049 1.00743 0.64909 0.0
C436 C 0.36885 0.08578 0.70768 0.0
O437 O 0.37901 0.04191 0.67809 0.0
O438 O 0.4084 0.07711 0.66817 0.0
C439 C 0.4217 0.08773 0.60331 0.0
N440 N 0.41272 0.10058 0.61396 0.0
C441 C 0.42476 0.12451 0.56965 0.0
C442 C 0.43422 0.11159 0.55825 0.0
C443 C 0.43256 0.09304 0.57508 0.0
C444 C 0.41399 0.1183 0.5978 0.0
H445 H 0.42064 0.07359 0.6163 0.0
C446 C 0.40042 0.05645 0.6774 0.0
O447 O 0.32893 1.01483 0.67556 0.0
O448 O 0.34525 0.02238 0.63059 0.0
N449 N 0.39268 0.12178 0.6365 0.0
C450 C 0.38145 0.13161 0.64984 0.0
C451 C 0.38055 0.14976 0.63523 0.0
C452 C 0.3915 0.15785 0.60733 0.0
C453 C 0.40322 0.14769 0.59425 0.0
C454 C 0.40345 0.12959 0.60979 0.0
H455 H 0.37312 0.12555 0.67136 0.0
O456 O 0.3322 0.05591 0.64135 0.0
O457 O 0.36972 0.07349 0.63762 0.0
O458 O 0.35477 0.06526 0.6996 0.0
O459 O 0.38608 0.09942 0.69191 0.0
C460 C 0.41443 0.1546 0.56621 0.0
C461 C 0.42524 0.14306 0.55395 0.0
H462 H 0.44262 0.11564 0.53649 0.0
H463 H 0.43975 0.08295 0.56638 0.0
H464 H 0.37148 0.15752 0.64548 0.0
H465 H 0.39071 0.17181 0.59609 0.0
H466 H 0.41452 0.16852 0.55365 0.0
H467 H 0.43347 0.14827 0.53214 0.0
Mn468 Mn 1.00042 0.32122 0.6806 0.0
Mn469 Mn 0.99465 0.26867 0.69044 0.0
C470 C 0.9711 0.29366 0.70982 0.0
C471 C 1.0118 0.35864 0.69556 0.0
C472 C 0.98075 0.28303 0.63281 0.0
O473 O 0.03243 0.32689 0.66953 0.0
O474 O 1.02597 0.29082 0.6766 0.0
C475 C 1.02681 0.2795 0.74199 0.0
N476 N 1.00542 0.2669 0.72999 0.0
C477 C 0.99153 0.24524 0.77603 0.0
C478 C 1.01345 0.25791 0.7888 0.0
C479 C 0.03115 0.27514 0.77171 0.0
C480 C 0.98827 0.25024 0.74622 0.0
H481 H 0.04046 0.29283 0.72902 0.0
C482 C 0.03906 0.31195 0.66964 0.0
O483 O 1.00694 0.35243 0.66749 0.0
O484 O 1.01229 0.34387 0.71412 0.0
N485 N 0.96517 0.24596 0.70448 0.0
C486 C 0.94469 0.23641 0.68961 0.0
C487 C 0.92503 0.21945 0.70402 0.0
C488 C 0.92664 0.21244 0.73349 0.0
C489 C 0.94792 0.22242 0.74826 0.0
C490 C 0.96696 0.23912 0.73269 0.0
H491 H 0.94332 0.24182 0.66702 0.0
O492 O 0.96883 0.30983 0.69704 0.0
O493 O 0.99 0.29369 0.70425 0.0
O494 O 0.98729 0.30346 0.64139 0.0
O495 O 0.98249 0.26836 0.64939 0.0
C496 C 0.9509 0.21682 0.77809 0.0
C497 C 0.97269 0.22822 0.79196 0.0
H498 H 1.01682 0.25472 0.8118 0.0
H499 H 0.04808 0.28507 0.78147 0.0
H500 H 0.90864 0.2119 0.69252 0.0
H501 H 0.91139 0.19955 0.74466 0.0
H502 H 0.93647 0.20404 0.79074 0.0
H503 H 0.97469 0.22403 0.81506 0.0
Mn504 Mn 0.71679 0.68901 0.66992 0.0
Mn505 Mn 0.76373 0.74099 0.6795 0.0
C506 C 0.74395 0.69382 0.70572 0.0
C507 C 0.67854 0.66358 0.6818 0.0
C508 C 0.75715 0.70933 0.62676 0.0
O509 O 0.70855 0.71101 0.64855 0.0
O510 O 0.73867 0.745 0.66207 0.0
C511 C 0.74701 0.76007 0.7268 0.0
N512 N 0.76257 0.75414 0.71726 0.0
C513 C 0.78402 0.76751 0.76375 0.0
C514 C 0.7683 0.77389 0.77399 0.0
C515 C 0.74969 0.7701 0.75546 0.0
C516 C 0.78051 0.75766 0.73493 0.0
H517 H 0.73265 0.75713 0.71265 0.0
C518 C 0.71886 0.73291 0.64999 0.0
O519 O 0.68743 0.66138 0.65692 0.0
O520 O 0.69166 0.68069 0.69916 0.0
N521 N 0.78922 0.73957 0.69664 0.0
C522 C 0.80212 0.73128 0.68412 0.0
C523 C 0.82105 0.73311 0.70017 0.0
C524 C 0.82665 0.7436 0.72878 0.0
C525 C 0.81329 0.75224 0.74106 0.0
C526 C 0.79471 0.75006 0.72394 0.0
H527 H 0.79796 0.72322 0.66213 0.0
O528 O 0.72948 0.67346 0.69595 0.0
O529 O 0.74175 0.71058 0.69475 0.0
O530 O 0.73861 0.69206 0.63566 0.0
O531 O 0.7669 0.72869 0.64032 0.0
C532 C 0.81741 0.76251 0.76988 0.0
C533 C 0.80276 0.7701 0.78124 0.0
H534 H 0.77024 0.78152 0.79615 0.0
H535 H 0.73742 0.77487 0.76328 0.0
H536 H 0.83125 0.72636 0.69056 0.0
H537 H 0.84111 0.74475 0.74123 0.0
H538 H 0.83158 0.76432 0.7837 0.0
H539 H 0.8059 0.77765 0.80362 0.0
Mn540 Mn 0.35752 0.32119 0.65716 0.0
Mn541 Mn 0.40807 0.32178 0.65136 0.0
C542 C 0.36084 0.29604 0.62463 0.0
C543 C 0.33318 0.33526 0.64308 0.0
C544 C 0.37488 0.29902 0.70301 0.0
O545 O 0.38033 0.35169 0.67667 0.0
O546 O 0.41301 0.35119 0.66829 0.0
C547 C 0.43031 0.35803 0.60504 0.0
N548 N 0.42336 0.33632 0.61479 0.0
C549 C 0.44133 0.32909 0.57267 0.0
C550 C 0.44877 0.35141 0.56221 0.0
C551 C 0.44312 0.36589 0.57838 0.0
C552 C 0.42846 0.32215 0.59923 0.0
H553 H 0.42621 0.36928 0.61759 0.0
C554 C 0.40211 0.36112 0.67744 0.0
O555 O 0.33089 0.325 0.6688 0.0
O556 O 0.34972 0.33764 0.62581 0.0
N557 N 0.4065 0.29467 0.63503 0.0
C558 C 0.39663 0.27315 0.64696 0.0
C559 C 0.39964 0.25621 0.63262 0.0
C560 C 0.41314 0.26166 0.60655 0.0
C561 C 0.42342 0.284 0.59495 0.0
C562 C 0.41967 0.30012 0.61007 0.0
H563 H 0.38638 0.2689 0.66712 0.0
O564 O 0.34092 0.29208 0.63364 0.0
O565 O 0.37835 0.31505 0.63394 0.0
O566 O 0.35938 0.30333 0.69381 0.0
O567 O 0.3938 0.30594 0.68934 0.0
C568 C 0.43691 0.2908 0.56866 0.0
C569 C 0.44586 0.31333 0.55754 0.0
H570 H 0.45869 0.35755 0.54169 0.0
H571 H 0.44875 0.38311 0.5704 0.0
H572 H 0.39164 0.239 0.64171 0.0
H573 H 0.41537 0.24852 0.59552 0.0
H574 H 0.44012 0.27871 0.5565 0.0
H575 H 0.45583 0.31823 0.53699 0.0
Mn576 Mn 0.71207 0.0503 0.6622 0.0
Mn577 Mn 0.76359 0.05337 0.67092 0.0
C578 C 0.74067 0.07876 0.6918 0.0
C579 C 0.67495 0.03951 0.67746 0.0
C580 C 0.75026 0.07055 0.61524 0.0
O581 O 0.70486 1.01796 0.64932 0.0
O582 O 0.74025 0.0228 0.65585 0.0
C583 C 0.75172 0.01954 0.72044 0.0
N584 N 0.76534 0.04097 0.70922 0.0
C585 C 0.79018 0.05159 0.75283 0.0
C586 C 0.77654 0.02955 0.7647 0.0
C587 C 0.75715 1.01352 0.74852 0.0
C588 C 0.78387 0.05663 0.72479 0.0
H589 H 0.73684 1.00713 0.70807 0.0
C590 C 0.71905 1.01045 0.6489 0.0
O591 O 0.68117 0.04506 0.6496 0.0
O592 O 0.68958 0.03836 0.69566 0.0
N593 N 0.78784 0.08185 0.68603 0.0
C594 C 0.79806 0.10289 0.67267 0.0
C595 C 0.81693 0.12127 0.68688 0.0
C596 C 0.82527 0.11778 0.71446 0.0
C597 C 0.81461 0.09594 0.72765 0.0
C598 C 0.79582 0.07828 0.71248 0.0
H599 H 0.7917 0.10569 0.65152 0.0
O600 O 0.72467 0.08177 0.67997 0.0
O601 O 0.7397 0.05938 0.68588 0.0
O602 O 0.72982 0.06412 0.62318 0.0
O603 O 0.76417 0.06722 0.63133 0.0
C604 C 0.82162 0.09109 0.75552 0.0
C605 C 0.80946 0.0689 0.76805 0.0
H606 H 0.78064 0.02486 0.78639 0.0
H607 H 0.74645 0.99653 0.75764 0.0
H608 H 0.82501 0.13809 0.67661 0.0
H609 H 0.83977 0.13202 0.72542 0.0
H610 H 0.83609 0.10439 0.76777 0.0
H611 H 0.81476 0.0655 0.78977 0.0
Mn612 Mn 1.00422 0.68538 0.65356 0.0
Mn613 Mn 0.95755 0.63289 0.64381 0.0
C614 C 0.97493 0.6813 0.62193 0.0
C615 C 0.04184 0.7123 0.64135 0.0
C616 C 0.96547 0.66265 0.69891 0.0
O617 O 1.01419 0.66347 0.6709 0.0
O618 O 0.98365 0.62952 0.65868 0.0
C619 C 0.97396 0.61598 0.59344 0.0
N620 N 0.95801 0.62061 0.60508 0.0
C621 C 0.93373 0.60467 0.5613 0.0
C622 C 0.94985 0.59963 0.54888 0.0
C623 C 0.9701 0.60542 0.56496 0.0
C624 C 0.93858 0.61532 0.58968 0.0
H625 H 0.98945 0.62027 0.60587 0.0
C626 C 1.00393 0.64161 0.66932 0.0
O627 O 0.03327 0.71277 0.66734 0.0
O628 O 0.02871 0.69615 0.62263 0.0
N629 N 0.93072 0.633 0.62935 0.0
C630 C 0.9177 0.64044 0.64357 0.0
C631 C 0.89735 0.63698 0.6298 0.0
C632 C 0.89038 0.62552 0.60189 0.0
C633 C 0.90385 0.61766 0.58794 0.0
C634 C 0.92403 0.62173 0.60265 0.0
H635 H 0.92285 0.64906 0.66516 0.0
O636 O 0.98987 0.7013 0.63225 0.0
O637 O 0.97814 0.66425 0.62914 0.0
O638 O 0.98379 0.68015 0.69012 0.0
O639 O 0.95492 0.64393 0.6841 0.0
C640 C 0.8983 0.60636 0.55975 0.0
C641 C 0.91323 0.59986 0.54643 0.0
H642 H 0.94694 0.59148 0.52692 0.0
H643 H 0.98265 0.60166 0.55548 0.0
H644 H 0.88703 0.64307 0.64073 0.0
H645 H 0.87472 0.62296 0.59129 0.0
H646 H 0.88281 0.60299 0.54783 0.0
H647 H 0.90898 0.59158 0.52448 0.0
H648 H 0.27868 0.36578 0.11241 0.0
H649 H 0.21877 0.36153 0.07342 0.0
H650 H 0.22515 0.35747 0.17112 0.0
H651 H 0.19947 0.36652 0.17605 0.0
H652 H 0.1367 0.35634 0.13839 0.0
H653 H 0.18401 0.35074 0.08048 0.0
C654 C 0.26196 0.36414 0.11558 0.0
C655 C 0.2534 0.3622 0.14467 0.0
C656 C 0.24903 0.36288 0.09021 0.0
C657 C 0.22773 0.3616 0.09378 0.0
C658 C 0.21858 0.36035 0.12316 0.0
C659 C 0.23172 0.36011 0.14841 0.0
C660 C 0.19545 0.35874 0.12756 0.0
C661 C 0.18845 0.36221 0.15646 0.0
C662 C 0.16682 0.36017 0.16065 0.0
C663 C 0.1526 0.35617 0.13554 0.0
C664 C 0.159 0.35324 0.10666 0.0
C665 C 0.18007 0.35397 0.1029 0.0
H666 H 0.68693 0.91516 0.1205 0.0
H667 H 0.69409 0.86417 0.07312 0.0
H668 H 0.68656 0.8606 0.17102 0.0
H669 H 0.69878 0.83685 0.17032 0.0
H670 H 0.68975 0.77769 0.12309 0.0
H671 H 0.68229 0.82823 0.07387 0.0
C672 C 0.68863 0.89992 0.12144 0.0
C673 C 0.68819 0.88983 0.14929 0.0
C674 C 0.69102 0.89085 0.0944 0.0
C675 C 0.69177 0.87036 0.09456 0.0
C676 C 0.68984 0.85853 0.12209 0.0
C677 C 0.68803 0.86873 0.14945 0.0
C678 C 0.68996 0.83597 0.12225 0.0
C679 C 0.6945 0.82734 0.14938 0.0
C680 C 0.69442 0.80638 0.1496 0.0
C681 C 0.69019 0.79409 0.12282 0.0
C682 C 0.68704 0.80249 0.09548 0.0
C683 C 0.686 0.82289 0.09523 0.0
H684 H 0.27403 0.91462 0.13437 0.0
H685 H 0.22088 0.86224 0.08037 0.0
H686 H 0.21689 0.86118 0.17865 0.0
H687 H 0.19411 0.82661 0.17674 0.0
H688 H 0.1343 0.77797 0.13059 0.0
H689 H 0.18616 0.83398 0.08031 0.0
C690 C 0.25758 0.89904 0.13291 0.0
C691 C 0.2466 0.888 0.15938 0.0
C692 C 0.24792 0.89034 0.10451 0.0
C693 C 0.22743 0.86906 0.1026 0.0
C694 C 0.2157 0.85731 0.12936 0.0
C695 C 0.22548 0.86789 0.15751 0.0
C696 C 0.19335 0.83463 0.12877 0.0
C697 C 0.18456 0.82176 0.15583 0.0
C698 C 0.16292 0.80215 0.1568 0.0
C699 C 0.15046 0.7939 0.13006 0.0
C700 C 0.15904 0.80499 0.10245 0.0
C701 C 0.18028 0.82548 0.10182 0.0
H702 H 0.36298 0.12604 0.87807 0.0
H703 H 0.35033 0.17203 0.93114 0.0
H704 H 0.36195 0.18203 0.83444 0.0
H705 H 0.33986 0.19597 0.83543 0.0
H706 H 0.34126 0.25285 0.87934 0.0
H707 H 0.3586 0.20909 0.93054 0.0
C708 C 0.36024 0.14064 0.87939 0.0
C709 C 0.36152 0.15261 0.85303 0.0
C710 C 0.35674 0.14778 0.90759 0.0
C711 C 0.35369 0.16711 0.90932 0.0
C712 C 0.35453 0.1795 0.88277 0.0
C713 C 0.3596 0.17242 0.85501 0.0
C714 C 0.3498 0.19935 0.88315 0.0
C715 C 0.34298 0.2057 0.85605 0.0
C716 C 0.34073 0.2253 0.85443 0.0
C717 C 0.34262 0.23743 0.88074 0.0
C718 C 0.3485 0.23137 0.90834 0.0
C719 C 0.35272 0.21271 0.90947 0.0
H720 H 0.7796 0.1104 0.87017 0.0
H721 H 0.83154 0.16468 0.92269 0.0
H722 H 0.83776 0.1621 0.82488 0.0
H723 H 0.85806 0.1977 0.82546 0.0
H724 H 0.91294 0.25226 0.87331 0.0
H725 H 0.86719 0.19198 0.92208 0.0
C726 C 0.79609 0.12598 0.87118 0.0
C727 C 0.80783 0.13539 0.84454 0.0
C728 C 0.80532 0.13545 0.89932 0.0
C729 C 0.82547 0.15696 0.90071 0.0
C730 C 0.8374 0.16795 0.87367 0.0
C731 C 0.82858 0.15604 0.84582 0.0
C732 C 0.8588 0.1914 0.87397 0.0
C733 C 0.86695 0.20414 0.84664 0.0
C734 C 0.8872 0.22538 0.84592 0.0
C735 C 0.89816 0.23517 0.87322 0.0
C736 C 0.8914 0.22308 0.90038 0.0
C737 C 0.87173 0.20122 0.90092 0.0
H738 H 0.79393 0.68588 0.8657 0.0
H739 H 0.84765 0.68291 0.91457 0.0
H740 H 0.85529 0.70085 0.81952 0.0
H741 H 0.87128 0.67877 0.81925 0.0
H742 H 0.93589 0.69517 0.858 0.0
H743 H 0.88749 0.70323 0.91175 0.0
C744 C 0.81114 0.68843 0.86615 0.0
C745 C 0.82351 0.69343 0.83931 0.0
C746 C 0.82006 0.68556 0.8935 0.0
C747 C 0.84139 0.6864 0.89371 0.0
C748 C 0.85427 0.69143 0.86678 0.0
C749 C 0.84535 0.69577 0.84008 0.0
C750 C 0.87657 0.69155 0.86552 0.0
C751 C 0.88296 0.68519 0.83834 0.0
C752 C 0.90435 0.68672 0.83545 0.0
C753 C 0.91928 0.69396 0.86016 0.0
C754 C 0.91323 0.69964 0.88768 0.0
C755 C 0.89183 0.69838 0.89052 0.0
H756 H 0.92536 0.67781 0.45187 0.0
H757 H 0.87315 0.68652 0.40873 0.0
H758 H 0.86743 0.66655 0.50344 0.0
H759 H 0.84887 0.68519 0.50833 0.0
H760 H 0.78809 0.67922 0.46883 0.0
H761 H 0.83568 0.67271 0.41182 0.0
C762 C 0.90882 0.67688 0.45307 0.0
C763 C 0.89733 0.67162 0.48051 0.0
C764 C 0.89976 0.68111 0.42696 0.0
C765 C 0.87933 0.68206 0.42884 0.0
C766 C 0.86728 0.67729 0.45673 0.0
C767 C 0.87647 0.67153 0.48222 0.0
C768 C 0.84528 0.6781 0.45971 0.0
C769 C 0.83821 0.68176 0.48843 0.0
C770 C 0.81758 0.68199 0.49171 0.0
C771 C 0.8039 0.67876 0.46635 0.0
C772 C 0.81051 0.67576 0.43767 0.0
C773 C 0.83111 0.67537 0.43423 0.0
H774 H 0.37421 0.26186 0.45293 0.0
H775 H 0.35699 0.20014 0.40597 0.0
H776 H 0.37801 0.20829 0.50056 0.0
H777 H 0.3611 0.17143 0.50189 0.0
H778 H 0.35604 0.11518 0.45094 0.0
H779 H 0.37036 0.17641 0.40425 0.0
C780 C 0.37309 0.24517 0.45303 0.0
C781 C 0.37657 0.23633 0.4799 0.0
C782 C 0.3667 0.23243 0.42648 0.0
C783 C 0.3633 0.21008 0.42653 0.0
C784 C 0.36758 0.20076 0.4531 0.0
C785 C 0.3743 0.21436 0.47978 0.0
C786 C 0.36481 0.17703 0.4529 0.0
C787 C 0.36163 0.16441 0.48016 0.0
C788 C 0.35968 0.14256 0.4796 0.0
C789 C 0.3588 0.13253 0.45171 0.0
C790 C 0.36312 0.14482 0.42485 0.0
C791 C 0.36621 0.16701 0.4253 0.0
H792 H 0.93644 0.25697 0.45695 0.0
H793 H 0.87398 0.21781 0.4071 0.0
H794 H 0.88329 0.19558 0.49578 0.0
H795 H 0.84704 0.18302 0.49945 0.0
H796 H 0.79134 0.1286 0.45177 0.0
H797 H 0.84847 0.17897 0.4017 0.0
C798 C 0.91942 0.24217 0.45546 0.0
C799 C 0.91083 0.22716 0.47993 0.0
C800 C 0.90635 0.23887 0.42928 0.0
C801 C 0.88422 0.21975 0.42705 0.0
C802 C 0.87526 0.20381 0.45122 0.0
C803 C 0.88926 0.20754 0.47713 0.0
C804 C 0.85121 0.18385 0.45059 0.0
C805 C 0.83959 0.17474 0.47812 0.0
C806 C 0.81844 0.15446 0.47885 0.0
C807 C 0.80748 0.14456 0.45156 0.0
C808 C 0.81784 0.15374 0.42381 0.0
C809 C 0.84 0.17298 0.42323 0.0
H810 H 0.03231 0.44773 0.19594 0.0
H811 H 0.02842 0.50009 0.24607 0.0
H812 H 0.04534 0.50889 0.15049 0.0
H813 H 0.03107 0.53038 0.14842 0.0
H814 H 0.03835 0.58959 0.19301 0.0
H815 H 0.03926 0.53662 0.24619 0.0
C816 C 0.03288 0.46417 0.19634 0.0
C817 C 0.0379 0.47704 0.1699 0.0
C818 C 0.03015 0.47273 0.22376 0.0
C819 C 0.03121 0.49421 0.22464 0.0
C820 C 0.03572 0.50757 0.19793 0.0
C821 C 0.04015 0.49892 0.17102 0.0
C822 C 0.03577 0.53019 0.19743 0.0
C823 C 0.03393 0.53957 0.16943 0.0
C824 C 0.03545 0.56108 0.16773 0.0
C825 C 0.03683 0.57275 0.19435 0.0
C826 C 0.03732 0.56363 0.22266 0.0
C827 C 0.03761 0.54275 0.2242 0.0
H828 H 0.4592 0.44448 0.20846 0.0
H829 H 0.51965 0.49378 0.25436 0.0
H830 H 0.49984 0.51089 0.16886 0.0
H831 H 0.53795 0.52543 0.16009 0.0
H832 H 0.59179 0.58542 0.20212 0.0
H833 H 0.54034 0.53344 0.2576 0.0
C834 C 0.47372 0.46167 0.20924 0.0
C835 C 0.47721 0.47704 0.18574 0.0
C836 C 0.48823 0.46781 0.23438 0.0
C837 C 0.50809 0.48946 0.23523 0.0
C838 C 0.51322 0.5049 0.2107 0.0
C839 C 0.49703 0.49874 0.18673 0.0
C840 C 0.53558 0.52699 0.209 0.0
C841 C 0.54571 0.53537 0.18037 0.0
C842 C 0.56619 0.55626 0.17768 0.0
C843 C 0.57664 0.56869 0.20394 0.0
C844 C 0.56826 0.56014 0.23272 0.0
C845 C 0.5473 0.53954 0.23532 0.0
H846 H 0.46469 0.02669 0.21114 0.0
H847 H 0.51571 1.0141 0.25098 0.0
H848 H 0.5217 0.03654 0.15788 0.0
H849 H 0.53291 1.00876 0.15504 0.0
H850 H 0.59741 0.01916 0.18772 0.0
H851 H 0.55759 0.03778 0.24408 0.0
C852 C 0.48099 0.02718 0.20935 0.0
C853 C 0.49232 0.03271 0.18165 0.0
C854 C 0.48947 0.02097 0.23449 0.0
C855 C 0.5096 0.0197 0.2318 0.0
C856 C 0.52144 0.0252 0.20406 0.0
C857 C 0.51269 0.03191 0.1792 0.0
C858 C 0.54237 0.02312 0.2003 0.0
C859 C 0.54569 1.01441 0.17288 0.0
C860 C 0.56577 1.01355 0.16797 0.0
C861 C 0.58212 0.02044 0.19107 0.0
C862 C 0.57955 0.02947 0.21821 0.0
C863 C 0.55948 0.03054 0.22316 0.0
H864 H 0.58491 1.0078 0.77495 0.0
H865 H 0.53669 0.02459 0.73571 0.0
H866 H 0.52748 0.99723 0.82706 0.0
H867 H 0.51085 1.01768 0.83422 0.0
H868 H 0.45136 1.0156 0.79619 0.0
H869 H 0.49814 1.00916 0.73732 0.0
C870 C 0.56899 1.00814 0.77663 0.0
C871 C 0.55714 1.00204 0.80378 0.0
C872 C 0.56182 1.01623 0.75217 0.0
C873 C 0.54163 1.01755 0.75449 0.0
C874 C 0.52868 1.01076 0.78164 0.0
C875 C 0.53681 1.00288 0.80608 0.0
C876 C 0.50729 1.01247 0.78527 0.0
C877 C 0.50038 1.01542 0.81443 0.0
C878 C 0.48022 1.0164 0.81836 0.0
C879 C 0.46687 1.01466 0.79319 0.0
C880 C 0.47338 1.01236 0.76411 0.0
C881 C 0.49354 1.01124 0.76001 0.0
H882 H 1.02016 0.58049 0.79089 0.0
H883 H 0.03024 0.53062 0.74458 0.0
H884 H 1.02231 0.52773 0.84226 0.0
H885 H 0.03696 0.50623 0.84243 0.0
H886 H 1.02599 0.44494 0.79918 0.0
H887 H 1.01846 0.49423 0.74689 0.0
C888 C 1.0228 0.56583 0.79197 0.0
C889 C 1.0226 0.55607 0.81998 0.0
C890 C 1.02572 0.55686 0.76503 0.0
C891 C 1.02759 0.53693 0.76576 0.0
C892 C 1.02631 0.52569 0.79356 0.0
C893 C 1.02366 0.53565 0.82056 0.0
C894 C 1.02741 0.50367 0.79455 0.0
C895 C 0.03231 0.49594 0.82215 0.0
C896 C 0.03148 0.47466 0.82409 0.0
C897 C 1.02698 0.46154 0.79792 0.0
C898 C 1.02284 0.46874 0.77014 0.0
C899 C 1.02283 0.48966 0.76838 0.0
H900 H 0.60919 0.57941 0.78918 0.0
H901 H 0.54827 0.53435 0.73934 0.0
H902 H 0.55683 0.52014 0.83291 0.0
H903 H 0.52048 0.50827 0.83531 0.0
H904 H 0.46369 0.45189 0.79284 0.0
H905 H 0.52269 0.49539 0.73959 0.0
C906 C 0.59254 0.56403 0.78822 0.0
C907 C 0.58391 0.55077 0.81422 0.0
C908 C 0.58005 0.55801 0.76108 0.0
C909 C 0.55823 0.53828 0.76003 0.0
C910 C 0.5491 0.52448 0.78622 0.0
C911 C 0.5628 0.53057 0.81274 0.0
C912 C 0.52502 0.50467 0.78713 0.0
C913 C 0.51304 0.49845 0.81488 0.0
C914 C 0.49114 0.47942 0.81685 0.0
C915 C 0.48038 0.46708 0.79081 0.0
C916 C 0.49135 0.47291 0.76276 0.0
C917 C 0.51388 0.49153 0.76102 0.0
H918 H 0.68904 0.78936 0.52956 0.0
H919 H 0.6942 0.84615 0.58016 0.0
H920 H 0.6829 0.84183 0.48317 0.0
H921 H 0.70615 0.87859 0.48573 0.0
H922 H 0.6973 0.93149 0.52546 0.0
H923 H 0.67914 0.87046 0.57648 0.0
C924 C 0.68773 0.80482 0.53032 0.0
C925 C 0.68605 0.81461 0.50326 0.0
C926 C 0.68986 0.8156 0.55819 0.0
C927 C 0.69106 0.83719 0.55881 0.0
C928 C 0.68895 0.84732 0.53169 0.0
C929 C 0.68547 0.83516 0.50426 0.0
C930 C 0.69177 0.87098 0.53103 0.0
C931 C 0.7005 0.88459 0.5047 0.0
C932 C 0.70164 0.90591 0.5021 0.0
C933 C 0.6955 0.91453 0.52681 0.0
C934 C 0.6876 0.90201 0.55358 0.0
C935 C 0.68567 0.88018 0.55582 0.0
H936 H 0.11996 0.79005 0.53623 0.0
H937 H 0.17263 0.84328 0.58894 0.0
H938 H 0.17961 0.84 0.49146 0.0
H939 H 0.20335 0.87445 0.49171 0.0
H940 H 0.25695 0.92913 0.54063 0.0
H941 H 0.20719 0.87136 0.58992 0.0
C942 C 0.13678 0.80516 0.53717 0.0
C943 C 0.14884 0.81425 0.51055 0.0
C944 C 0.14594 0.81474 0.56535 0.0
C945 C 0.16665 0.8357 0.56689 0.0
C946 C 0.17922 0.84623 0.54012 0.0
C947 C 0.17021 0.83434 0.51224 0.0
C948 C 0.20139 0.86921 0.54078 0.0
C949 C 0.21123 0.88111 0.51334 0.0
C950 C 0.23184 0.90202 0.51306 0.0
C951 C 0.24193 0.9122 0.54055 0.0
C952 C 0.23346 0.9011 0.56807 0.0
C953 C 0.21317 0.87966 0.56832 0.0
H954 H 0.11595 0.33683 0.54776 0.0
H955 H 0.17874 0.35308 0.59273 0.0
H956 H 0.16865 0.3346 0.49763 0.0
H957 H 0.20455 0.35533 0.49452 0.0
H958 H 0.25936 0.34911 0.53292 0.0
H959 H 0.20539 0.34203 0.59061 0.0
C960 C 0.13311 0.33932 0.54657 0.0
C961 C 0.14141 0.33649 0.51902 0.0
C962 C 0.14642 0.34533 0.57291 0.0
C963 C 0.16852 0.34795 0.57223 0.0
C964 C 0.17723 0.34435 0.5449 0.0
C965 C 0.16299 0.33805 0.51871 0.0
C966 C 0.20102 0.34742 0.5428 0.0
C967 C 0.21192 0.3519 0.51429 0.0
C968 C 0.23253 0.35191 0.51047 0.0
C969 C 0.24369 0.34972 0.53586 0.0
C970 C 0.23469 0.34737 0.56495 0.0
C971 C 0.21289 0.34533 0.56833 0.0
H972 H 0.06813 0.44714 0.05145 0.0
H973 H 1.0068 0.38342 0.07128 0.0
H974 H 0.99967 0.40111 0.11483 0.0
H975 H 1.01098 0.43436 0.14766 0.0
H976 H 0.07227 0.49802 0.12846 0.0
H977 H 0.07898 0.48077 0.08376 0.0
C978 C 0.05322 0.43706 0.06529 0.0
C979 C 0.0381 0.4139 0.05808 0.0
C980 C 0.04909 0.44738 0.09023 0.0
C981 C 1.01877 0.40124 0.07623 0.0
C982 C 1.01464 0.41135 0.10115 0.0
C983 C 1.02583 0.44445 0.1337 0.0
C984 C 0.04117 0.46739 0.14141 0.0
C985 C 0.0297 0.43435 0.10838 0.0
C986 C 0.06012 0.48039 0.12285 0.0
C987 C 0.06405 0.47047 0.09746 0.0
H988 H 0.60045 0.60194 0.0488 0.0
H989 H 0.66511 0.62966 0.09568 0.0
H990 H 0.64617 0.60666 0.14023 0.0
H991 H 0.61163 0.57899 0.16562 0.0
H992 H 0.54586 0.55475 0.12245 0.0
H993 H 0.56488 0.57478 0.07586 0.0
C994 C 0.61026 0.60272 0.0688 0.0
C995 C 0.63419 0.61661 0.06875 0.0
C996 C 0.59913 0.58976 0.09461 0.0
C997 C 0.64678 0.6183 0.09496 0.0
C998 C 0.63596 0.60528 0.12042 0.0
C999 C 0.60129 0.57829 0.14627 0.0
C1000 C 0.57727 0.56572 0.14792 0.0
C1001 C 0.61219 0.5909 0.12041 0.0
C1002 C 0.56436 0.56423 0.12195 0.0
C1003 C 0.57522 0.57594 0.09541 0.0
H1004 H 0.42591 0.04534 0.09306 0.0
H1005 H 0.44448 1.00646 0.03402 0.0
H1006 H 0.47171 1.00738 0.07201 0.0
H1007 H 0.48824 1.01725 0.12349 0.0
H1008 H 0.47128 0.05857 0.18077 0.0
H1009 H 0.4457 0.05904 0.14187 0.0
C1010 C 0.43644 0.03768 0.08827 0.0
C1011 C 0.4339 0.02655 0.06058 0.0
C1012 C 0.45221 0.03859 0.10997 0.0
C1013 C 0.44664 1.01556 0.05508 0.0
C1014 C 0.46218 1.01611 0.07673 0.0
C1015 C 0.47952 0.02695 0.12711 0.0
C1016 C 0.48135 0.03745 0.1553 0.0
C1017 C 0.46499 0.02745 0.10439 0.0
C1018 C 0.46976 0.04985 0.15958 0.0
C1019 C 0.4551 0.05013 0.13736 0.0
H1020 H 0.43549 1.00911 0.94589 0.0
H1021 H 0.43637 0.06998 0.9128 0.0
H1022 H 0.45523 0.06848 0.86642 0.0
H1023 H 0.47079 0.04944 0.83499 0.0
H1024 H 0.47202 0.98977 0.86867 0.0
H1025 H 0.45358 0.99145 0.91557 0.0
C1026 C 0.43965 0.02185 0.9283 0.0
C1027 C 0.43417 0.03934 0.93223 0.0
C1028 C 0.45118 0.02129 0.90218 0.0
C1029 C 0.4402 0.05622 0.9099 0.0
C1030 C 0.45106 0.05542 0.88353 0.0
C1031 C 0.46722 0.03698 0.8528 0.0
C1032 C 0.47263 0.01947 0.84851 0.0
C1033 C 0.45662 0.03804 0.87944 0.0
C1034 C 0.46813 1.00349 0.87169 0.0
C1035 C 0.4574 1.00432 0.8983 0.0
H1036 H 1.01383 0.42127 0.94768 0.0
H1037 H 0.04952 0.39275 0.89989 0.0
H1038 H 0.05654 0.41898 0.85769 0.0
H1039 H 0.05292 0.45002 0.83484 0.0
H1040 H 1.0135 0.47602 0.87922 0.0
H1041 H 1.00929 0.45228 0.92354 0.0
C1042 C 1.02313 0.42093 0.92794 0.0
C1043 C 0.03185 0.40578 0.92703 0.0
C1044 C 1.02707 0.43608 0.90375 0.0
C1045 C 0.04332 0.40485 0.90123 0.0
C1046 C 0.04731 0.4198 0.87719 0.0
C1047 C 0.04325 0.45045 0.85409 0.0
C1048 C 0.0332 0.46452 0.85338 0.0
C1049 C 0.03949 0.43563 0.87839 0.0
C1050 C 1.02154 0.46548 0.87911 0.0
C1051 C 1.01874 0.45157 0.90425 0.0
H1052 H 0.63381 0.57473 0.94171 0.0
H1053 H 0.63897 0.64002 0.92057 0.0
H1054 H 0.61913 0.62478 0.87274 0.0
H1055 H 0.60027 0.59319 0.83693 0.0
H1056 H 0.59421 0.52758 0.8573 0.0
H1057 H 0.6143 0.54263 0.90563 0.0
C1058 C 0.63065 0.58564 0.92662 0.0
C1059 C 0.63795 0.60853 0.9348 0.0
C1060 C 0.61905 0.57673 0.89907 0.0
C1061 C 0.63351 0.62234 0.91501 0.0
C1062 C 0.62219 0.61367 0.88757 0.0
C1063 C 0.60357 0.58225 0.85182 0.0
C1064 C 0.59607 0.55943 0.84348 0.0
C1065 C 0.61494 0.59095 0.87938 0.0
C1066 C 0.59989 0.54524 0.86329 0.0
C1067 C 0.6114 0.55385 0.89082 0.0
H1068 H 1.00587 0.59295 0.94428 0.0
H1069 H 0.04411 0.65704 0.89709 0.0
H1070 H 0.04771 0.63699 0.85327 0.0
H1071 H 0.04214 0.60193 0.82995 0.0
H1072 H 1.00043 0.53678 0.87388 0.0
H1073 H 0.99739 0.5567 0.91836 0.0
C1074 C 1.01494 0.60238 0.9243 0.0
C1075 C 1.02558 0.62644 0.92414 0.0
C1076 C 1.01684 0.59067 0.89909 0.0
C1077 C 0.03661 0.63857 0.89796 0.0
C1078 C 0.03857 0.62712 0.87293 0.0
C1079 C 0.03184 0.59185 0.84882 0.0
C1080 C 1.02131 0.56774 0.84812 0.0
C1081 C 0.02915 0.60325 0.87352 0.0
C1082 C 1.00897 0.55532 0.87365 0.0
C1083 C 1.00695 0.56669 0.899 0.0
H1084 H 0.4241 0.42871 0.92354 0.0
H1085 H 0.48107 0.42092 0.95377 0.0
H1086 H 0.50388 0.44441 0.91145 0.0
H1087 H 0.50697 0.46567 0.86434 0.0
H1088 H 0.44952 0.47229 0.83396 0.0
H1089 H 0.42767 0.45112 0.87831 0.0
C1090 C 0.44147 0.43201 0.92092 0.0
C1091 C 0.4507 0.42276 0.9417 0.0
C1092 C 0.45451 0.4456 0.89671 0.0
C1093 C 0.4734 0.42761 0.93802 0.0
C1094 C 0.48652 0.44114 0.91389 0.0
C1095 C 0.48987 0.4629 0.86794 0.0
C1096 C 0.47985 0.47065 0.84626 0.0
C1097 C 0.4772 0.45013 0.89301 0.0
C1098 C 0.45753 0.4666 0.85062 0.0
C1099 C 0.44502 0.45436 0.87577 0.0
H1100 H 0.62234 0.98678 0.89108 0.0
H1101 H 0.61197 0.03322 0.94686 0.0
H1102 H 0.58522 0.03381 0.90919 0.0
H1103 H 0.56518 0.02119 0.85986 0.0
H1104 H 0.57478 0.97334 0.80564 0.0
H1105 H 0.60121 0.97293 0.84334 0.0
C1106 C 0.61395 0.99677 0.89505 0.0
C1107 C 0.61834 1.0093 0.92192 0.0
C1108 C 0.59842 0.99667 0.87365 0.0
C1109 C 0.60835 0.02309 0.92643 0.0
C1110 C 0.59302 0.02331 0.90503 0.0
C1111 C 0.57248 1.01011 0.85684 0.0
C1112 C 0.56802 0.9973 0.83004 0.0
C1113 C 0.58772 1.00994 0.87868 0.0
C1114 C 0.57799 0.98337 0.82609 0.0
C1115 C 0.59327 0.9833 0.84746 0.0
H1116 H 0.57885 0.97063 0.0477 0.0
H1117 H 0.64686 0.02879 0.05845 0.0
H1118 H 0.63472 0.04117 0.10252 0.0
H1119 H 0.60548 0.03575 0.13824 0.0
H1120 H 0.53789 0.977 0.13111 0.0
H1121 H 0.54898 0.96505 0.08466 0.0
C1122 C 0.59103 0.98593 0.05978 0.0
C1123 C 0.61379 0.99864 0.04969 0.0
C1124 C 0.58398 0.99305 0.08547 0.0
C1125 C 0.62928 1.01854 0.06559 0.0
C1126 C 0.62236 0.02575 0.09081 0.0
C1127 C 0.59317 0.02019 0.12669 0.0
C1128 C 0.57104 1.00705 0.13831 0.0
C1129 C 0.59984 1.01315 0.10092 0.0
C1130 C 0.55506 0.98739 0.12256 0.0
C1131 C 0.56146 0.98047 0.09622 0.0
H1132 H 0.06164 0.61422 0.04355 0.0
H1133 H 1.01177 0.63224 0.07408 0.0
H1134 H 1.00438 0.60829 0.11872 0.0
H1135 H 1.01265 0.58302 0.14983 0.0
H1136 H 0.06222 0.56462 0.11971 0.0
H1137 H 0.06864 0.58737 0.07373 0.0
C1138 C 0.04918 0.61293 0.05998 0.0
C1139 C 0.03738 0.62512 0.0555 0.0
C1140 C 0.04474 0.59884 0.08549 0.0
C1141 C 1.02111 0.62305 0.07691 0.0
C1142 C 1.01683 0.60934 0.10246 0.0
C1143 C 1.02478 0.58393 0.1331 0.0
C1144 C 0.03702 0.57228 0.13817 0.0
C1145 C 0.02859 0.59723 0.10703 0.0
C1146 C 0.05244 0.57329 0.11616 0.0
C1147 C 0.05629 0.58647 0.09004 0.0
H1148 H 0.40358 0.41341 0.09226 0.0
H1149 H 0.45192 0.4608 0.02856 0.0
H1150 H 0.47504 0.48607 0.07027 0.0
H1151 H 0.48444 0.48993 0.12526 0.0
H1152 H 0.43083 0.44712 0.18757 0.0
H1153 H 0.40695 0.42446 0.14582 0.0
C1154 C 0.41913 0.42937 0.08763 0.0
C1155 C 0.42712 0.4347 0.05797 0.0
C1156 C 0.43155 0.44419 0.11138 0.0
C1157 C 0.44625 0.45603 0.05166 0.0
C1158 C 0.45931 0.47048 0.07541 0.0
C1159 C 0.46729 0.47624 0.12991 0.0
C1160 C 0.4604 0.46914 0.15995 0.0
C1161 C 0.45268 0.4641 0.10555 0.0
C1162 C 0.43759 0.45183 0.16493 0.0
C1163 C 0.42364 0.43896 0.14101 0.0
H1164 H 0.7197 0.78984 0.38464 0.0
H1165 H 0.67271 0.72108 0.41454 0.0
H1166 H 0.66136 0.7365 0.45692 0.0
H1167 H 0.66567 0.76962 0.4862 0.0
H1168 H 0.71262 0.83812 0.45543 0.0
H1169 H 0.72226 0.82257 0.41177 0.0
C1170 C 0.70694 0.77813 0.40032 0.0
C1171 C 0.69721 0.7543 0.39645 0.0
C1172 C 0.70015 0.78707 0.42416 0.0
C1173 C 0.68058 0.73949 0.41702 0.0
C1174 C 0.67401 0.74829 0.44119 0.0
C1175 C 0.67786 0.78112 0.46976 0.0
C1176 C 0.68843 0.805 0.47415 0.0
C1177 C 0.68374 0.77207 0.44502 0.0
C1178 C 0.70397 0.81969 0.45245 0.0
C1179 C 0.70976 0.81082 0.42768 0.0
H1180 H 0.27104 0.94946 0.38605 0.0
H1181 H 0.3343 0.9719 0.43475 0.0
H1182 H 0.31336 0.95019 0.47919 0.0
H1183 H 0.27752 0.9242 0.50337 0.0
H1184 H 0.21346 0.9049 0.45789 0.0
H1185 H 0.23425 0.92493 0.41227 0.0
C1186 C 0.28009 0.94941 0.40645 0.0
C1187 C 0.30412 0.96129 0.40695 0.0
C1188 C 0.26785 0.93717 0.43211 0.0
C1189 C 0.31582 0.96199 0.43364 0.0
C1190 C 0.30386 0.94974 0.45903 0.0
C1191 C 0.26794 0.9247 0.48381 0.0
C1192 C 0.24387 0.91326 0.48442 0.0
C1193 C 0.27992 0.9371 0.45837 0.0
C1194 C 0.23194 0.91338 0.45818 0.0
C1195 C 0.24384 0.92505 0.43216 0.0
H1196 H 0.09551 0.32203 0.38869 0.0
H1197 H 0.07042 0.36342 0.42957 0.0
H1198 H 0.08834 0.36315 0.47768 0.0
H1199 H 0.11457 0.35516 0.50582 0.0
H1200 H 0.1382 0.31153 0.46739 0.0
H1201 H 0.11842 0.30972 0.42 0.0
C1202 C 0.09392 0.33079 0.4083 0.0
C1203 C 0.08256 0.34352 0.40556 0.0
C1204 C 0.10444 0.33068 0.43593 0.0
C1205 C 0.07985 0.35424 0.43111 0.0
C1206 C 0.09 0.35401 0.45857 0.0
C1207 C 0.11489 0.34452 0.48766 0.0
C1208 C 0.12802 0.33352 0.49055 0.0
C1209 C 0.10291 0.3429 0.46094 0.0
C1210 C 0.12871 0.32062 0.4659 0.0
C1211 C 0.11715 0.31934 0.4388 0.0
H1212 H 0.14052 0.3894 0.28339 0.0
H1213 H 0.07535 0.33057 0.2603 0.0
H1214 H 0.09238 0.32277 0.21695 0.0
H1215 H 0.125 0.3332 0.18426 0.0
H1216 H 0.18995 0.39277 0.20468 0.0
H1217 H 0.17397 0.39924 0.25089 0.0
C1218 C 0.13003 0.37487 0.26889 0.0
C1219 C 0.10656 0.36076 0.27514 0.0
C1220 C 0.13993 0.37045 0.24365 0.0
C1221 C 0.09336 0.34189 0.25612 0.0
C1222 C 0.1031 0.33732 0.23128 0.0
C1223 C 0.13571 0.34762 0.19884 0.0
C1224 C 0.15856 0.36261 0.19085 0.0
C1225 C 0.12625 0.35159 0.22468 0.0
C1226 C 0.17234 0.38089 0.21035 0.0
C1227 C 0.16312 0.38472 0.2366 0.0
H1228 H 0.71153 0.74479 0.24062 0.0
H1229 H 0.66217 0.75253 0.29295 0.0
H1230 H 0.66083 0.77828 0.25434 0.0
H1231 H 0.67348 0.79796 0.20467 0.0
H1232 H 0.72508 0.79171 0.15514 0.0
H1233 H 0.72607 0.7663 0.19375 0.0
C1234 C 0.70082 0.75249 0.24374 0.0
C1235 C 0.68761 0.74758 0.26984 0.0
C1236 C 0.70061 0.76758 0.22197 0.0
C1237 C 0.67285 0.75658 0.27314 0.0
C1238 C 0.67219 0.77135 0.2512 0.0
C1239 C 0.68546 0.79164 0.20297 0.0
C1240 C 0.69906 0.79655 0.17704 0.0
C1241 C 0.68617 0.77714 0.22556 0.0
C1242 C 0.71433 0.78801 0.17484 0.0
C1243 C 0.71478 0.77333 0.19674 0.0
H1244 H 0.29705 0.91401 0.28595 0.0
H1245 H 0.31165 0.98145 0.25722 0.0
H1246 H 0.28945 0.9653 0.21101 0.0
H1247 H 0.26652 0.93221 0.17825 0.0
H1248 H 0.25164 0.86476 0.20682 0.0
H1249 H 0.2729 0.88068 0.25397 0.0
C1250 C 0.29542 0.92519 0.26958 0.0
C1251 C 0.30613 0.94893 0.27501 0.0
C1252 C 0.28241 0.91578 0.24316 0.0
C1253 C 0.30361 0.96312 0.25366 0.0
C1254 C 0.2909 0.95391 0.2272 0.0
C1255 C 0.26795 0.92102 0.19484 0.0
C1256 C 0.25767 0.8974 0.18906 0.0
C1257 C 0.28032 0.9303 0.22168 0.0
C1258 C 0.25929 0.883 0.2109 0.0
C1259 C 0.27158 0.89211 0.23772 0.0
H1260 H 0.67674 0.93121 0.27334 0.0
H1261 H 0.71654 0.9936 0.22313 0.0
H1262 H 0.71776 0.97174 0.17997 0.0
H1263 H 0.71042 0.93579 0.15837 0.0
H1264 H 0.6668 0.87211 0.20435 0.0
H1265 H 0.66576 0.89368 0.24845 0.0
C1266 C 0.68552 0.93984 0.2528 0.0
C1267 C 0.69732 0.96396 0.2516 0.0
C1268 C 0.68611 0.92706 0.22789 0.0
C1269 C 0.70805 0.97509 0.22475 0.0
C1270 C 0.70871 0.96261 0.20011 0.0
C1271 C 0.70001 0.92636 0.17752 0.0
C1272 C 0.68832 0.9022 0.1775 0.0
C1273 C 0.6983 0.9387 0.20176 0.0
C1274 C 0.6761 0.89064 0.20355 0.0
C1275 C 0.67522 0.90298 0.22865 0.0
H1276 H 0.13268 0.74756 0.28023 0.0
H1277 H 0.06912 0.7448 0.25551 0.0
H1278 H 0.08679 0.76719 0.21018 0.0
H1279 H 0.11999 0.7871 0.17713 0.0
H1280 H 0.18351 0.78984 0.20124 0.0
H1281 H 0.16621 0.7682 0.24752 0.0
C1282 C 0.12264 0.7518 0.26494 0.0
C1283 C 0.09951 0.74434 0.27133 0.0
C1284 C 0.13293 0.76479 0.23888 0.0
C1285 C 0.08691 0.75024 0.25128 0.0
C1286 C 0.097 0.76306 0.22529 0.0
C1287 C 0.13002 0.78288 0.19247 0.0
C1288 C 0.15296 0.78997 0.18569 0.0
C1289 C 0.11994 0.77033 0.21882 0.0
C1290 C 0.16588 0.78474 0.20604 0.0
C1291 C 0.15595 0.77224 0.23239 0.0
H1292 H 0.31665 0.34876 0.23872 0.0
H1293 H 0.30187 0.39311 0.29247 0.0
H1294 H 0.2792 0.39614 0.25061 0.0
H1295 H 0.26179 0.384 0.1995 0.0
H1296 H 0.27588 0.33799 0.14775 0.0
H1297 H 0.30079 0.33798 0.18779 0.0
C1298 C 0.30842 0.35907 0.24115 0.0
C1299 C 0.31004 0.37 0.26868 0.0
C1300 C 0.29537 0.36047 0.21731 0.0
C1301 C 0.30028 0.38414 0.27147 0.0
C1302 C 0.2873 0.38579 0.24765 0.0
C1303 C 0.27012 0.3738 0.19722 0.0
C1304 C 0.26705 0.36114 0.17057 0.0
C1305 C 0.28425 0.37352 0.22069 0.0
C1306 C 0.27823 0.34823 0.16776 0.0
C1307 C 0.2925 0.34817 0.19065 0.0
H1308 H 0.25705 0.33005 0.38224 0.0
H1309 H 0.3254 0.3754 0.41562 0.0
H1310 H 0.30979 0.38299 0.46089 0.0
H1311 H 0.27691 0.37518 0.49231 0.0
H1312 H 0.20865 0.32866 0.46003 0.0
H1313 H 0.22409 0.32382 0.41255 0.0
C1314 C 0.26858 0.34161 0.39937 0.0
C1315 C 0.2924 0.3519 0.39558 0.0
C1316 C 0.25951 0.34592 0.42542 0.0
C1317 C 0.30701 0.36709 0.41792 0.0
C1318 C 0.2981 0.3715 0.44384 0.0
C1319 C 0.2654 0.36405 0.47482 0.0
C1320 C 0.24167 0.35214 0.47987 0.0
C1321 C 0.27441 0.36078 0.448 0.0
C1322 C 0.22697 0.33818 0.4567 0.0
C1323 C 0.2358 0.33518 0.42967 0.0
H1324 H 0.73973 0.95959 0.3788 0.0
H1325 H 0.68495 0.97419 0.39533 0.0
H1326 H 0.67506 0.95168 0.44125 0.0
H1327 H 0.68108 0.92744 0.47636 0.0
H1328 H 0.73629 0.9133 0.46275 0.0
H1329 H 0.74647 0.93557 0.41568 0.0
C1330 C 0.72573 0.95795 0.39254 0.0
C1331 C 0.71316 0.96863 0.38341 0.0
C1332 C 0.72 0.94488 0.41931 0.0
C1333 C 0.69499 0.96621 0.40155 0.0
C1334 C 0.68922 0.95327 0.42792 0.0
C1335 C 0.69559 0.92947 0.46339 0.0
C1336 C 0.70804 0.91893 0.47323 0.0
C1337 C 0.70154 0.94252 0.43692 0.0
C1338 C 0.72633 0.92116 0.4556 0.0
C1339 C 0.73225 0.93401 0.42881 0.0
H1340 H 0.10124 0.77764 0.38253 0.0
H1341 H 0.07343 0.71351 0.43043 0.0
H1342 H 0.09621 0.73321 0.4752 0.0
H1343 H 0.12434 0.76826 0.50018 0.0
H1344 H 0.14994 0.83335 0.45479 0.0
H1345 H 0.12896 0.81357 0.40883 0.0
C1346 C 0.10032 0.76811 0.40284 0.0
C1347 C 0.08642 0.74414 0.40307 0.0
C1348 C 0.11343 0.77963 0.42856 0.0
C1349 C 0.08467 0.7319 0.42959 0.0
C1350 C 0.09761 0.74315 0.45515 0.0
C1351 C 0.12516 0.77828 0.48045 0.0
C1352 C 0.13849 0.80237 0.48128 0.0
C1353 C 0.1122 0.76695 0.45476 0.0
C1354 C 0.13997 0.81482 0.4549 0.0
C1355 C 0.12771 0.80353 0.42871 0.0
H1356 H 0.38982 0.13012 0.72715 0.0
H1357 H 0.33832 0.06163 0.75242 0.0
H1358 H 0.33117 0.07649 0.79893 0.0
H1359 H 0.33958 0.1088 0.8325 0.0
H1360 H 0.39106 0.17721 0.80749 0.0
H1361 H 0.39782 0.1625 0.76038 0.0
C1362 C 0.37706 0.11836 0.74283 0.0
C1363 C 0.36472 0.09471 0.73625 0.0
C1364 C 0.37289 0.12704 0.76943 0.0
C1365 C 0.34812 0.07987 0.75682 0.0
C1366 C 0.34399 0.08836 0.78344 0.0
C1367 C 0.35236 0.12049 0.81679 0.0
C1368 C 0.36488 0.14406 0.82357 0.0
C1369 C 0.35628 0.11189 0.78997 0.0
C1370 C 0.38106 0.15904 0.80272 0.0
C1371 C 0.38505 0.1506 0.77591 0.0
H1372 H 0.92444 0.27013 0.71653 0.0
H1373 H 0.98822 0.29299 0.7643 0.0
H1374 H 0.96782 0.27313 0.80974 0.0
H1375 H 0.93258 0.24796 0.83489 0.0
H1376 H 0.86776 0.22779 0.79109 0.0
H1377 H 0.88782 0.24682 0.74448 0.0
C1378 C 0.9337 0.27067 0.73699 0.0
C1379 C 0.95775 0.28212 0.73689 0.0
C1380 C 0.92175 0.25939 0.76342 0.0
C1381 C 0.9697 0.28348 0.76364 0.0
C1382 C 0.95807 0.27225 0.78964 0.0
C1383 C 0.92262 0.24819 0.81561 0.0
C1384 C 0.89859 0.23674 0.81697 0.0
C1385 C 0.93417 0.25992 0.78962 0.0
C1386 C 0.88624 0.23637 0.79088 0.0
C1387 C 0.89773 0.24744 0.76427 0.0
H1388 H 0.77504 0.67972 0.71192 0.0
H1389 H 0.74346 0.71274 0.75907 0.0
H1390 H 0.76684 0.71737 0.80401 0.0
H1391 H 0.79617 0.7121 0.82958 0.0
H1392 H 0.82617 0.67671 0.78387 0.0
H1393 H 0.80454 0.67415 0.73803 0.0
C1394 C 0.77348 0.68799 0.73209 0.0
C1395 C 0.75826 0.69656 0.73221 0.0
C1396 C 0.78696 0.69057 0.75775 0.0
C1397 C 0.75569 0.70669 0.75846 0.0
C1398 C 0.76895 0.70926 0.78408 0.0
C1399 C 0.79789 0.70366 0.80969 0.0
C1400 C 0.81265 0.69445 0.81034 0.0
C1401 C 0.78473 0.70138 0.7839 0.0
C1402 C 0.81514 0.6842 0.78399 0.0
C1403 C 0.80253 0.68242 0.75787 0.0
H1404 H 0.76951 0.67715 0.61577 0.0
H1405 H 0.77135 0.73733 0.57814 0.0
H1406 H 0.79189 0.73522 0.53393 0.0
H1407 H 0.80833 0.71564 0.50536 0.0
H1408 H 0.80847 0.65659 0.54342 0.0
H1409 H 0.78874 0.65912 0.58853 0.0
C1410 C 0.77428 0.68962 0.59768 0.0
C1411 C 0.76856 0.70709 0.5997 0.0
C1412 C 0.78676 0.68871 0.57279 0.0
C1413 C 0.77536 0.7236 0.57673 0.0
C1414 C 0.78718 0.72246 0.55159 0.0
C1415 C 0.80434 0.70357 0.52381 0.0
C1416 C 0.8098 0.68597 0.52123 0.0
C1417 C 0.79293 0.70509 0.54937 0.0
C1418 C 0.80462 0.67041 0.54516 0.0
C1419 C 0.79312 0.67172 0.57072 0.0
H1420 H 0.37091 0.08007 0.5767 0.0
H1421 H 0.326 0.09531 0.62787 0.0
H1422 H 0.32491 0.11913 0.58606 0.0
H1423 H 0.33749 0.13589 0.53445 0.0
H1424 H 0.38524 0.12208 0.48694 0.0
H1425 H 0.3843 0.09738 0.52749 0.0
C1426 C 0.36111 0.08886 0.57878 0.0
C1427 C 0.34924 0.08674 0.60546 0.0
C1428 C 0.36095 0.10266 0.55513 0.0
C1429 C 0.33569 0.09722 0.60757 0.0
C1430 C 0.33515 0.11086 0.58376 0.0
C1431 C 0.34796 0.12779 0.53331 0.0
C1432 C 0.36093 0.13043 0.50723 0.0
C1433 C 0.34798 0.11394 0.55746 0.0
C1434 C 0.37448 0.11981 0.50622 0.0
C1435 C 0.37406 0.10569 0.52946 0.0
H1436 H 0.96 0.24011 0.60726 0.0
H1437 H 0.97637 0.31005 0.59019 0.0
H1438 H 0.95633 0.29869 0.54196 0.0
H1439 H 0.93306 0.26915 0.50559 0.0
H1440 H 0.91708 0.19923 0.52042 0.0
H1441 H 0.93769 0.21033 0.56893 0.0
C1442 C 0.95935 0.25291 0.59289 0.0
C1443 C 0.96969 0.27593 0.60257 0.0
C1444 C 0.94768 0.24627 0.56494 0.0
C1445 C 0.96856 0.29221 0.58358 0.0
C1446 C 0.95706 0.28575 0.55591 0.0
C1447 C 0.93441 0.25633 0.51905 0.0
C1448 C 0.9237 0.23342 0.50915 0.0
C1449 C 0.94644 0.26285 0.54651 0.0
C1450 C 0.92505 0.21697 0.52752 0.0
C1451 C 0.93694 0.22334 0.55518 0.0
H1452 H 0.38521 0.30969 0.57363 0.0
H1453 H 0.33894 0.24943 0.62346 0.0
H1454 H 0.34149 0.22494 0.58428 0.0
H1455 H 0.35588 0.22111 0.53452 0.0
H1456 H 0.40507 0.2821 0.48783 0.0
H1457 H 0.40265 0.30596 0.52728 0.0
C1458 C 0.37615 0.2912 0.57617 0.0
C1459 C 0.36258 0.28128 0.60163 0.0
C1460 C 0.37823 0.27744 0.55414 0.0
C1461 C 0.34987 0.25733 0.60413 0.0
C1462 C 0.35143 0.2434 0.58188 0.0
C1463 C 0.36672 0.23957 0.5336 0.0
C1464 C 0.38031 0.24981 0.508 0.0
C1465 C 0.36563 0.25329 0.55677 0.0
C1466 C 0.39413 0.2738 0.50703 0.0
C1467 C 0.39269 0.28749 0.52948 0.0
H1468 H 0.79459 0.09584 0.59809 0.0
H1469 H 0.72595 0.07744 0.57027 0.0
H1470 H 0.74107 0.10314 0.52683 0.0
H1471 H 0.77382 0.13093 0.4969 0.0
H1472 H 0.84225 0.14886 0.52514 0.0
H1473 H 0.82709 0.12397 0.56908 0.0
C1474 C 0.78284 0.09729 0.58252 0.0
C1475 C 0.75912 0.08458 0.58747 0.0
C1476 C 0.79163 0.11242 0.55801 0.0
C1477 C 0.74427 0.08692 0.56702 0.0
C1478 C 0.75291 0.10171 0.54225 0.0
C1479 C 0.78542 0.12943 0.5127 0.0
C1480 C 0.80916 0.14182 0.50766 0.0
C1481 C 0.77657 0.11462 0.53761 0.0
C1482 C 0.82395 0.13989 0.52865 0.0
C1483 C 0.81528 0.12539 0.55359 0.0
H1484 H 0.96496 0.66039 0.56777 0.0
H1485 H 0.94722 0.6998 0.62699 0.0
H1486 H 0.91958 0.6987 0.58949 0.0
H1487 H 0.90206 0.688 0.53836 0.0
H1488 H 0.91773 0.64533 0.48185 0.0
H1489 H 0.94435 0.64596 0.51983 0.0
C1490 C 0.95454 0.66815 0.57271 0.0
C1491 C 0.95739 0.67943 0.6003 0.0
C1492 C 0.93843 0.66696 0.55146 0.0
C1493 C 0.94482 0.69058 0.60598 0.0
C1494 C 0.92902 0.68989 0.58463 0.0
C1495 C 0.91071 0.67821 0.53483 0.0
C1496 C 0.9083 0.66711 0.507 0.0
C1497 C 0.92571 0.67815 0.55719 0.0
C1498 C 0.9197 0.65452 0.50278 0.0
C1499 C 0.93498 0.65488 0.52444 0.0
H1500 H 0.94224 0.68519 0.70598 0.0
H1501 H 0.96444 0.64333 0.75315 0.0
H1502 H 0.94596 0.64578 0.79956 0.0
H1503 H 0.92442 0.66076 0.82671 0.0
H1504 H 0.90155 0.70209 0.77926 0.0
H1505 H 0.91872 0.69839 0.73253 0.0
C1506 C 0.94303 0.67674 0.72657 0.0
C1507 C 0.95488 0.66447 0.72673 0.0
C1508 C 0.93202 0.67788 0.75278 0.0
C1509 C 0.95556 0.65309 0.75299 0.0
C1510 C 0.94495 0.65442 0.77934 0.0
C1511 C 0.92313 0.66885 0.80606 0.0
C1512 C 0.91191 0.68181 0.80639 0.0
C1513 C 0.93325 0.66687 0.7795 0.0
C1514 C 0.90998 0.69191 0.77945 0.0
C1515 C 0.91998 0.68998 0.75285 0.0
H1516 H 0.33943 0.28373 0.74319 0.0
H1517 H 0.40045 0.28036 0.72305 0.0
H1518 H 0.39338 0.25504 0.76581 0.0
H1519 H 0.37121 0.23526 0.81031 0.0
H1520 H 0.31175 0.24014 0.83353 0.0
H1521 H 0.31663 0.26312 0.78797 0.0
C1522 C 0.35117 0.27746 0.74815 0.0
C1523 C 0.37049 0.28412 0.72985 0.0
C1524 C 0.34718 0.26298 0.77319 0.0
C1525 C 0.38551 0.27576 0.73672 0.0
C1526 C 0.38146 0.26113 0.76115 0.0
C1527 C 0.35901 0.24091 0.80497 0.0
C1528 C 0.34095 0.23577 0.82483 0.0
C1529 C 0.36246 0.25474 0.77958 0.0
C1530 C 0.32563 0.24373 0.81826 0.0
C1531 C 0.32853 0.25698 0.79239 0.0
H1532 H 0.74788 0.06454 0.74484 0.0
H1533 H 0.7639 0.12576 0.69497 0.0
H1534 H 0.78778 0.14944 0.7374 0.0
H1535 H 0.80344 0.15214 0.78951 0.0
H1536 H 0.78953 0.08974 0.83555 0.0
H1537 H 0.76552 0.06706 0.79376 0.0
C1538 C 0.75698 0.08308 0.74305 0.0
C1539 C 0.75492 0.09349 0.71668 0.0
C1540 C 0.77096 0.09631 0.7669 0.0
C1541 C 0.76573 0.11748 0.71505 0.0
C1542 C 0.77941 0.13095 0.73917 0.0
C1543 C 0.79567 0.13363 0.78993 0.0
C1544 C 0.79785 0.12266 0.81593 0.0
C1545 C 0.78229 0.12051 0.76521 0.0
C1546 C 0.78765 0.09862 0.81616 0.0
C1547 C 0.7739 0.08558 0.79229 0.0
H1548 H 0.11141 0.37789 0.00306 0.0
H1549 H 0.05139 0.33115 0.05316 0.0
H1550 H 0.07453 0.32001 0.0843 0.0
H1551 H 0.11257 0.32774 0.10167 0.0
H1552 H 0.17258 0.37635 0.05317 0.0
H1553 H 0.14858 0.38196 0.01635 0.0
C1554 C 0.10329 0.36506 0.02057 0.0
C1555 C 0.07976 0.35573 0.02621 0.0
C1556 C 0.11672 0.35905 0.03863 0.0
C1557 C 0.06947 0.33874 0.0485 0.0
C1558 C 0.08272 0.33243 0.06638 0.0
C1559 C 0.12035 0.33928 0.08273 0.0
C1560 C 0.14437 0.3519 0.08045 0.0
C1561 C 0.10648 0.34309 0.06232 0.0
C1562 C 0.15419 0.36638 0.05545 0.0
C1563 C 0.14047 0.36982 0.03459 0.0
H1564 H 0.65574 0.71779 0.01237 0.0
H1565 H 0.72149 0.72859 0.04218 0.0
H1566 H 0.7316 0.76671 0.06084 0.0
H1567 H 0.71937 0.7937 0.07625 0.0
H1568 H 0.65127 0.78022 0.05538 0.0
H1569 H 0.64464 0.74713 0.02436 0.0
C1570 C 0.67243 0.72878 0.02241 0.0
C1571 C 0.6879 0.72053 0.02607 0.0
C1572 C 0.67764 0.75024 0.03451 0.0
C1573 C 0.70934 0.73463 0.0394 0.0
C1574 C 0.71511 0.7564 0.04997 0.0
C1575 C 0.70338 0.78396 0.06393 0.0
C1576 C 0.68581 0.78928 0.06802 0.0
C1577 C 0.6991 0.76399 0.04863 0.0
C1578 C 0.66509 0.77656 0.05228 0.0
C1579 C 0.66119 0.75739 0.03507 0.0
H1580 H 0.32554 0.94672 0.01182 0.0
H1581 H 0.32101 1.00132 0.05654 0.0
H1582 H 0.28538 0.97352 0.08043 0.0
H1583 H 0.25907 0.93403 0.0947 0.0
H1584 H 0.26576 0.87888 0.05609 0.0
H1585 H 0.29628 0.90622 0.02286 0.0
C1586 C 0.31641 0.95245 0.02629 0.0
C1587 C 0.32589 0.97602 0.03257 0.0
C1588 C 0.29631 0.9362 0.04103 0.0
C1589 C 0.31412 0.98328 0.0516 0.0
C1590 C 0.29374 0.96739 0.06522 0.0
C1591 C 0.26677 0.92793 0.07832 0.0
C1592 C 0.26027 0.90453 0.07785 0.0
C1593 C 0.28514 0.94385 0.06094 0.0
C1594 C 0.27034 0.89678 0.05665 0.0
C1595 C 0.28804 0.91249 0.03804 0.0
H1596 H 0.39816 0.10794 -0.0009 0.0
H1597 H 0.34626 0.0449 0.95844 0.0
H1598 H 0.32916 0.06555 0.93408 0.0
H1599 H 0.33254 0.10216 0.91812 0.0
H1600 H 0.38572 0.16541 0.95595 0.0
H1601 H 0.39814 0.14399 -0.0114 0.0
C1602 C 0.38296 0.09862 0.98517 0.0
C1603 C 0.37385 0.0749 0.98011 0.0
C1604 C 0.37333 0.11066 0.97091 0.0
C1605 C 0.35385 0.06314 0.96249 0.0
C1606 C 0.34403 0.07495 0.94854 0.0
C1607 C 0.34634 0.11116 0.93432 0.0
C1608 C 0.35831 0.13532 0.93453 0.0
C1609 C 0.35407 0.0988 0.95178 0.0
C1610 C 0.37614 0.14685 0.95555 0.0
C1611 C 0.38349 0.13459 0.97381 0.0
H1612 H 0.95265 0.29998 -0.00911 0.0
H1613 H 1.00421 0.29584 0.93834 0.0
H1614 H 0.97521 0.25965 0.91632 0.0
H1615 H 0.93496 0.233 0.90557 0.0
H1616 H 0.88267 0.23954 0.95234 0.0
H1617 H 0.91193 0.2702 0.98401 0.0
C1618 C 0.95754 0.29085 0.97513 0.0
C1619 C 0.98053 0.30066 0.96605 0.0
C1620 C 0.94055 0.27038 0.96162 0.0
C1621 C 0.98663 0.28877 0.94545 0.0
C1622 C 0.97005 0.26804 0.93289 0.0
C1623 C 0.92998 0.24054 0.92359 0.0
C1624 C 0.90675 0.234 0.9268 0.0
C1625 C 0.94692 0.25915 0.93996 0.0
C1626 C 0.90041 0.24406 0.94979 0.0
C1627 C 0.9172 0.2619 0.96746 0.0
H1628 H 0.73935 0.63765 0.98417 0.0
H1629 H 0.73492 0.69842 0.96419 0.0
H1630 H 0.77125 0.7149 0.9378 0.0
H1631 H 0.80159 0.71013 0.91497 0.0
H1632 H 0.80505 0.64865 0.9315 0.0
H1633 H 0.77229 0.63474 0.96567 0.0
C1634 C 0.74638 0.6546 0.97431 0.0
C1635 C 0.73406 0.66654 0.97574 0.0
C1636 C 0.76724 0.66393 0.95874 0.0
C1637 C 0.74373 0.68863 0.96313 0.0
C1638 C 0.76459 0.69814 0.94807 0.0
C1639 C 0.7955 0.69395 0.92674 0.0
C1640 C 0.80555 0.68034 0.92068 0.0
C1641 C 0.77612 0.68568 0.94503 0.0
C1642 C 0.79767 0.65947 0.93602 0.0
C1643 C 0.77874 0.6514 0.95516 0.0
H1644 H 1.00132 0.71315 0.94736 0.0
H1645 H 0.95286 0.65302 -0.0041 0.0
H1646 H 0.92141 0.65811 0.97709 0.0
H1647 H 0.90757 0.67539 0.9389 0.0
H1648 H 0.95612 0.73586 0.89124 0.0
H1649 H 0.98768 0.73561 0.91858 0.0
C1650 C 0.9839 0.7015 0.95429 0.0
C1651 C 0.97927 0.68248 0.97234 0.0
C1652 C 0.96594 0.70469 0.94367 0.0
C1653 C 0.95676 0.6677 0.98175 0.0
C1654 C 0.93876 0.67057 0.97097 0.0
C1655 C 0.92498 0.68914 0.93573 0.0
C1656 C 0.92963 0.70548 0.913 0.0
C1657 C 0.94307 0.68845 0.9509 0.0
C1658 C 0.95225 0.72316 0.90876 0.0
C1659 C 0.9703 0.72278 0.92399 0.0
H1660 H 0.35441 0.31296 0.98245 0.0
H1661 H 0.42595 0.3328 0.98177 0.0
H1662 H 0.41681 0.29595 0.96005 0.0
H1663 H 0.38896 0.25974 0.93564 0.0
H1664 H 0.31754 0.23964 0.93605 0.0
H1665 H 0.32598 0.27431 0.9642 0.0
C1666 C 0.36795 0.30913 0.97771 0.0
C1667 C 0.39084 0.32583 0.98336 0.0
C1668 C 0.36257 0.28764 0.96544 0.0
C1669 C 0.40816 0.32038 0.97755 0.0
C1670 C 0.40298 0.29924 0.96512 0.0
C1671 C 0.37521 0.26252 0.94307 0.0
C1672 C 0.35266 0.24708 0.93411 0.0
C1673 C 0.3803 0.28289 0.95841 0.0
C1674 C 0.335 0.25116 0.94316 0.0
C1675 C 0.33987 0.27117 0.95881 0.0
H1676 H 0.72191 0.07612 0.98005 0.0
H1677 H 0.73002 0.0237 0.93515 0.0
H1678 H 0.76829 0.05249 0.9187 0.0
H1679 H 0.79635 0.09266 0.91042 0.0
H1680 H 0.78472 0.1457 0.94561 0.0
H1681 H 0.75176 0.11691 0.97417 0.0
C1682 C 0.7323 0.07104 0.9671 0.0
C1683 C 0.72327 0.04787 0.95871 0.0
C1684 C 0.75377 0.0879 0.95636 0.0
C1685 C 0.73662 0.04144 0.94162 0.0
C1686 C 0.75849 0.05788 0.93237 0.0
C1687 C 0.78705 0.09796 0.92528 0.0
C1688 C 0.79288 0.12123 0.92589 0.0
C1689 C 0.76689 0.08119 0.93879 0.0
C1690 C 0.78072 0.12797 0.945 0.0
C1691 C 0.76158 0.11141 0.96075 0.0
H1692 H 0.69246 0.96806 0.01649 0.0
H1693 H 0.62374 0.91362 -0.00245 0.0
H1694 H 0.63217 0.88598 0.02105 0.0
H1695 H 0.65686 0.87804 0.05397 0.0
H1696 H 0.72485 0.93206 0.07511 0.0
H1697 H 0.71927 0.9587 0.043 0.0
C1698 C 0.67942 0.95013 0.01718 0.0
C1699 C 0.65734 0.94322 0.00589 0.0
C1700 C 0.68431 0.93405 0.03095 0.0
C1701 C 0.64079 0.91973 0.00658 0.0
C1702 C 0.64558 0.90374 0.01992 0.0
C1703 C 0.67077 0.89535 0.05031 0.0
C1704 C 0.69127 0.90308 0.06647 0.0
C1705 C 0.66701 0.91079 0.03303 0.0
C1706 C 0.70905 0.92571 0.06233 0.0
C1707 C 0.70569 0.94103 0.04445 0.0
H1708 H 0.11372 0.73068 0.00269 0.0
H1709 H 0.05297 0.72457 0.04386 0.0
H1710 H 0.07627 0.75976 0.07238 0.0
H1711 H 0.11403 0.7888 0.0911 0.0
H1712 H 0.17479 0.79351 0.05258 0.0
H1713 H 0.15138 0.76299 0.01659 0.0
C1714 C 0.10551 0.73711 0.0177 0.0
C1715 C 0.08161 0.72462 0.02162 0.0
C1716 C 0.11905 0.75727 0.03431 0.0
C1717 C 0.0713 0.73359 0.04065 0.0
C1718 C 0.08463 0.75376 0.05697 0.0
C1719 C 0.12213 0.78357 0.07419 0.0
C1720 C 0.14606 0.79317 0.07466 0.0
C1721 C 0.10853 0.76529 0.05471 0.0
C1722 C 0.15643 0.78646 0.05255 0.0
C1723 C 0.14301 0.76873 0.03234 0.0
H1724 H 0.31108 0.34181 0.01378 0.0
H1725 H 0.34418 0.41469 -0.00056 0.0
H1726 H 0.31108 0.41574 0.02002 0.0
H1727 H 0.27677 0.39694 0.05218 0.0
H1728 H 0.24321 0.32392 0.06514 0.0
H1729 H 0.27177 0.32158 0.03395 0.0
C1730 C 0.31057 0.3577 0.01413 0.0
C1731 C 0.32991 0.37816 0.00536 0.0
C1732 C 0.29139 0.35812 0.0258 0.0
C1733 C 0.32931 0.39874 0.00597 0.0
C1734 C 0.31046 0.39937 0.01791 0.0
C1735 C 0.27502 0.38042 0.04663 0.0
C1736 C 0.25797 0.36063 0.06079 0.0
C1737 C 0.29187 0.37932 0.02923 0.0
C1738 C 0.25605 0.33931 0.05405 0.0
C1739 C 0.27265 0.33804 0.03671 0.0
H1740 H 0.72937 0.67475 0.36799 0.0
H1741 H 0.78333 0.74298 0.346 0.0
H1742 H 0.81159 0.7345 0.36726 0.0
H1743 H 0.82084 0.70974 0.39796 0.0
H1744 H 0.76749 0.64241 0.4227 0.0
H1745 H 0.73949 0.64814 0.39379 0.0
C1746 C 0.74731 0.68769 0.36763 0.0
C1747 C 0.75394 0.70963 0.3559 0.0
C1748 C 0.76378 0.68278 0.38014 0.0
C1749 C 0.77743 0.72605 0.35532 0.0
C1750 C 0.79378 0.72122 0.36736 0.0
C1751 C 0.80328 0.69599 0.39584 0.0
C1752 C 0.79626 0.67558 0.41191 0.0
C1753 C 0.78714 0.69988 0.38049 0.0
C1754 C 0.77331 0.6581 0.4099 0.0
C1755 C 0.75724 0.66155 0.39383 0.0
H1756 H 0.33855 0.0649 0.33791 0.0
H1757 H 0.39577 0.06734 0.38585 0.0
H1758 H 0.40701 0.10573 0.40443 0.0
H1759 H 0.39597 0.13443 0.41539 0.0
H1760 H 0.33502 0.12896 0.37524 0.0
H1761 H 0.33032 0.09673 0.34399 0.0
C1762 C 0.35379 0.07416 0.3518 0.0
C1763 C 0.36624 0.06337 0.36085 0.0
C1764 C 0.35944 0.09576 0.36365 0.0
C1765 C 0.38583 0.0753 0.37899 0.0
C1766 C 0.39227 0.09724 0.38953 0.0
C1767 C 0.38227 0.12677 0.39873 0.0
C1768 C 0.36583 0.13386 0.3975 0.0
C1769 C 0.37861 0.10713 0.38313 0.0
C1770 C 0.34796 0.12384 0.37626 0.0
C1771 C 0.34505 0.10513 0.35891 0.0
H1772 H 0.98045 0.32987 0.37668 0.0
H1773 H 0.98972 0.28363 0.31875 0.0
H1774 H 0.9537 0.25156 0.3362 0.0
H1775 H 0.92381 0.23586 0.37549 0.0
H1776 H 0.91415 0.28227 0.43233 0.0
H1777 H 0.94541 0.31508 0.40708 0.0
C1778 C 0.97423 0.31287 0.36731 0.0
C1779 C 0.98789 0.30903 0.34693 0.0
C1780 C 0.95337 0.2945 0.37727 0.0
C1781 C 0.97955 0.287 0.33461 0.0
C1782 C 0.95898 0.26861 0.34468 0.0
C1783 C 0.92781 0.25316 0.38116 0.0
C1784 C 0.91679 0.25671 0.40568 0.0
C1785 C 0.94624 0.27198 0.36699 0.0
C1786 C 0.92232 0.27921 0.41328 0.0
C1787 C 0.94046 0.29796 0.3992 0.0
H1788 H 1.02459 0.39219 0.29871 0.0
H1789 H 0.0945 0.44384 0.31765 0.0
H1790 H 0.08786 0.473 0.29497 0.0
H1791 H 0.06399 0.48313 0.26369 0.0
H1792 H 0.99496 0.43177 0.24195 0.0
H1793 H 0.9991 0.40357 0.27266 0.0
C1794 C 0.03833 0.40983 0.29803 0.0
C1795 C 0.06013 0.41556 0.30942 0.0
C1796 C 0.03445 0.42676 0.2848 0.0
C1797 C 0.07759 0.43868 0.30877 0.0
C1798 C 0.07382 0.45552 0.29588 0.0
C1799 C 0.04955 0.46605 0.26693 0.0
C1800 C 0.02911 0.45957 0.25111 0.0
C1801 C 0.05252 0.44969 0.2832 0.0
C1802 C 1.01069 0.4372 0.25456 0.0
C1803 C 1.01323 0.42098 0.2716 0.0
H1804 H 0.62236 0.64069 0.32374 0.0
H1805 H 0.67825 0.64034 0.27727 0.0
H1806 H 0.65185 0.60335 0.25437 0.0
H1807 H 0.61279 0.57442 0.24167 0.0
H1808 H 0.55607 0.57737 0.28127 0.0
H1809 H 0.58264 0.60932 0.31379 0.0
C1810 C 0.62873 0.6322 0.30912 0.0
C1811 C 0.6522 0.64316 0.30213 0.0
C1812 C 0.61323 0.61138 0.29486 0.0
C1813 C 0.66027 0.63224 0.28283 0.0
C1814 C 0.64518 0.61111 0.26977 0.0
C1815 C 0.60622 0.5817 0.25802 0.0
C1816 C 0.58254 0.57371 0.25893 0.0
C1817 C 0.6216 0.60096 0.27481 0.0
C1818 C 0.57419 0.58313 0.28027 0.0
C1819 C 0.58944 0.60164 0.29847 0.0
H1820 H 0.405 0.97027 0.31747 0.0
H1821 H 0.41047 0.03715 0.31382 0.0
H1822 H 0.44789 0.05297 0.29068 0.0
H1823 H 0.47639 0.04688 0.26509 0.0
H1824 H 0.46988 0.9798 0.26399 0.0
H1825 H 0.4362 0.96521 0.29659 0.0
C1826 C 0.41448 0.98835 0.31191 0.0
C1827 C 0.40463 1.00235 0.31682 0.0
C1828 C 0.43597 0.99737 0.29805 0.0
C1829 C 0.41732 0.02581 0.30974 0.0
C1830 C 0.43884 0.03496 0.29666 0.0
C1831 C 0.468 0.02925 0.27292 0.0
C1832 C 0.47544 1.01438 0.2622 0.0
C1833 C 0.44799 0.02078 0.28991 0.0
C1834 C 0.46454 0.99157 0.27225 0.0
C1835 C 0.44505 0.98317 0.2904 0.0
H1836 H 0.67495 0.05126 0.26368 0.0
H1837 H 0.63394 0.99843 0.32771 0.0
H1838 H 0.59993 0.99977 0.31139 0.0
H1839 H 0.58089 1.0113 0.27269 0.0
H1840 H 0.62201 0.06525 0.21028 0.0
H1841 H 0.65687 0.0688 0.23283 0.0
C1842 C 0.65865 0.04042 0.27444 0.0
C1843 C 0.65688 0.02449 0.29642 0.0
C1844 C 0.63912 0.04155 0.26531 0.0
C1845 C 0.63573 1.01077 0.31057 0.0
C1846 C 0.61622 1.01147 0.30122 0.0
C1847 C 0.59752 0.02458 0.26512 0.0
C1848 C 0.59894 0.03793 0.23987 0.0
C1849 C 0.61754 0.02621 0.27784 0.0
C1850 C 0.62059 0.05489 0.22989 0.0
C1851 C 0.64051 0.05666 0.24243 0.0
H1852 H 0.07117 0.64063 0.321 0.0
H1853 H 1.01351 0.64513 0.28545 0.0
H1854 H 1.00155 0.61019 0.25621 0.0
H1855 H 1.01005 0.58126 0.23604 0.0
H1856 H 0.06877 0.57792 0.26894 0.0
H1857 H 0.07731 0.60905 0.30473 0.0
C1858 C 0.05585 0.63392 0.30707 0.0
C1859 C 0.04351 0.64587 0.30508 0.0
C1860 C 0.04921 0.61393 0.28997 0.0
C1861 C 1.02351 0.63656 0.28725 0.0
C1862 C 1.01664 0.61653 0.2705 0.0
C1863 C 1.02443 0.58703 0.25156 0.0
C1864 C 0.03889 0.57746 0.24972 0.0
C1865 C 0.02971 0.60548 0.27105 0.0
C1866 C 0.05734 0.58491 0.27005 0.0
C1867 C 0.06237 0.60292 0.29019 0.0
H1868 H 0.41586 0.37867 0.28945 0.0
H1869 H 0.40664 0.42607 0.34503 0.0
H1870 H 0.44302 0.45763 0.32776 0.0
H1871 H 0.47299 0.47252 0.28878 0.0
H1872 H 0.48323 0.42513 0.23489 0.0
H1873 H 0.45176 0.3928 0.26056 0.0
C1874 C 0.42216 0.39582 0.29832 0.0
C1875 C 0.4084 0.40014 0.31795 0.0
C1876 C 0.44339 0.41391 0.28871 0.0
C1877 C 0.41687 0.42234 0.32972 0.0
C1878 C 0.43768 0.44045 0.3198 0.0
C1879 C 0.46921 0.45514 0.28399 0.0
C1880 C 0.48021 0.4512 0.25976 0.0
C1881 C 0.4506 0.4366 0.29829 0.0
C1882 C 0.47504 0.42856 0.25358 0.0
C1883 C 0.45667 0.41005 0.26779 0.0
H1884 H 0.36833 0.3093 0.34699 0.0
H1885 H 0.29691 0.273 0.3707 0.0
H1886 H 0.30121 0.24198 0.39245 0.0
H1887 H 0.32605 0.22712 0.40976 0.0
H1888 H 0.39751 0.26333 0.38765 0.0
H1889 H 0.39235 0.29187 0.35923 0.0
C1890 C 0.35377 0.29458 0.35693 0.0
C1891 C 0.33245 0.29365 0.35769 0.0
C1892 C 0.35626 0.27653 0.36913 0.0
C1893 C 0.31357 0.27423 0.37003 0.0
C1894 C 0.31596 0.2564 0.38238 0.0
C1895 C 0.3402 0.24068 0.39746 0.0
C1896 C 0.36198 0.24297 0.40013 0.0
C1897 C 0.33727 0.25751 0.38246 0.0
C1898 C 0.38046 0.261 0.38511 0.0
C1899 C 0.37759 0.27755 0.36944 0.0
H1900 H 0.74143 0.07764 0.34505 0.0
H1901 H 0.79418 0.05927 0.33524 0.0
H1902 H 0.82187 0.09498 0.35886 0.0
H1903 H 0.8301 0.12898 0.38871 0.0
H1904 H 0.77762 0.14709 0.40047 0.0
H1905 H 0.75125 0.1146 0.36899 0.0
C1906 C 0.75901 0.08153 0.34782 0.0
C1907 C 0.76542 0.06542 0.33884 0.0
C1908 C 0.7751 0.10229 0.36159 0.0
C1909 C 0.78848 0.07105 0.34223 0.0
C1910 C 0.80448 0.0916 0.35571 0.0
C1911 C 0.81323 0.12634 0.38319 0.0
C1912 C 0.80584 0.14045 0.39649 0.0
C1913 C 0.79788 0.10707 0.36621 0.0
C1914 C 0.78372 0.13658 0.38997 0.0
C1915 C 0.76854 0.11779 0.37241 0.0
H1916 H 0.98596 0.72002 0.34675 0.0
H1917 H 0.97571 0.65263 0.36598 0.0
H1918 H 0.93703 0.64037 0.38365 0.0
H1919 H 0.90916 0.65063 0.40165 0.0
H1920 H 0.92183 0.7197 0.39165 0.0
H1921 H 0.95574 0.72935 0.36107 0.0
C1922 C 0.97497 0.70254 0.3542 0.0
C1923 C 0.98354 0.68717 0.3551 0.0
C1924 C 0.9531 0.69597 0.36584 0.0
C1925 C 0.96942 0.66469 0.36523 0.0
C1926 C 0.94733 0.6577 0.37527 0.0
C1927 C 0.91885 0.66754 0.39166 0.0
C1928 C 0.91299 0.68441 0.39879 0.0
C1929 C 0.93932 0.67341 0.37669 0.0
C1930 C 0.9258 0.70635 0.38615 0.0
C1931 C 0.94548 0.71196 0.36923 0.0
H1932 H 0.3928 1.01431 0.69731 0.0
H1933 H 0.44678 0.08347 0.67991 0.0
H1934 H 0.47497 0.07416 0.69937 0.0
H1935 H 0.48405 0.0481 0.72742 0.0
H1936 H 0.43059 0.97969 0.74736 0.0
H1937 H 0.40277 0.98665 0.72005 0.0
C1938 C 0.41073 0.02729 0.69756 0.0
C1939 C 0.4174 0.04969 0.68765 0.0
C1940 C 0.42713 0.02188 0.70897 0.0
C1941 C 0.44087 0.06615 0.68778 0.0
C1942 C 0.45717 0.06086 0.69881 0.0
C1943 C 0.46651 0.03445 0.72455 0.0
C1944 C 0.45939 1.01333 0.73882 0.0
C1945 C 0.45047 0.03898 0.71013 0.0
C1946 C 0.43648 0.99593 0.73591 0.0
C1947 C 0.42052 1.00006 0.72078 0.0
H1948 H 0.0359 0.40463 0.68071 0.0
H1949 H 0.98161 0.35509 0.73665 0.0
H1950 H 0.97573 0.3851 0.75813 0.0
H1951 H 0.9889 0.42544 0.76596 0.0
H1952 H 0.04744 0.4764 0.71791 0.0
H1953 H 0.04816 0.44625 0.68725 0.0
C1954 C 1.02281 0.40058 0.69754 0.0
C1955 C 1.00944 0.37782 0.70757 0.0
C1956 C 1.02007 0.41821 0.7108 0.0
C1957 C 0.9924 0.3726 0.72917 0.0
C1958 C 0.98888 0.38969 0.74123 0.0
C1959 C 1.00132 0.42995 0.74801 0.0
C1960 C 1.01805 0.45302 0.74413 0.0
C1961 C 1.00293 0.41256 0.73277 0.0
C1962 C 0.0342 0.45876 0.72104 0.0
C1963 C 0.0349 0.44146 0.70401 0.0
H1964 H 0.65328 0.61817 0.66644 0.0
H1965 H 0.65167 0.67092 0.72008 0.0
H1966 H 0.61684 0.64236 0.74467 0.0
H1967 H 0.59114 0.60222 0.75738 0.0
H1968 H 0.59429 0.54882 0.7078 0.0
H1969 H 0.62354 0.57754 0.67453 0.0
C1970 C 0.64493 0.62341 0.68294 0.0
C1971 C 0.65519 0.64661 0.69169 0.0
C1972 C 0.62517 0.60669 0.69781 0.0
C1973 C 0.64427 0.65316 0.71322 0.0
C1974 C 0.62433 0.63683 0.72731 0.0
C1975 C 0.59764 0.59689 0.73851 0.0
C1976 C 0.59062 0.57352 0.73493 0.0
C1977 C 0.6152 0.61351 0.72069 0.0
C1978 C 0.59927 0.56671 0.71071 0.0
C1979 C 0.61625 0.58318 0.69204 0.0
H1980 H 0.73489 0.77904 0.64974 0.0
H1981 H 0.67743 0.71471 0.62074 0.0
H1982 H 0.6608 0.73532 0.59513 0.0
H1983 H 0.66506 0.77137 0.57552 0.0
H1984 H 0.72403 0.83551 0.60061 0.0
H1985 H 0.73705 0.81524 0.63442 0.0
C1986 C 0.71863 0.76944 0.63804 0.0
C1987 C 0.7077 0.74529 0.63669 0.0
C1988 C 0.70932 0.7814 0.62293 0.0
C1989 C 0.68644 0.73325 0.62181 0.0
C1990 C 0.67686 0.74503 0.60722 0.0
C1991 C 0.68048 0.78094 0.589 0.0
C1992 C 0.69372 0.80485 0.58535 0.0
C1993 C 0.68848 0.76907 0.60691 0.0
C1994 C 0.71349 0.81713 0.60313 0.0
C1995 C 0.72112 0.80548 0.62206 0.0
H1996 H 0.28513 0.97984 0.66112 0.0
H1997 H 0.34199 0.98159 0.61453 0.0
H1998 H 0.31651 0.94434 0.59163 0.0
H1999 H 0.27777 0.91488 0.57823 0.0
H2000 H 0.22004 0.91583 0.6178 0.0
H2001 H 0.24585 0.94756 0.65111 0.0
C2002 C 0.29192 0.97173 0.64651 0.0
C2003 C 0.31539 0.98342 0.63942 0.0
C2004 C 0.27691 0.95071 0.63223 0.0
C2005 C 0.32399 0.97296 0.62014 0.0
C2006 C 0.30943 0.95166 0.60708 0.0
C2007 C 0.27083 0.92154 0.59495 0.0
C2008 C 0.24706 0.91309 0.59553 0.0
C2009 C 0.2858 0.94083 0.61207 0.0
C2010 C 0.23823 0.92187 0.61712 0.0
C2011 C 0.25306 0.94031 0.63573 0.0
H2012 H 0.07224 0.35251 0.64465 0.0
H2013 H 0.0597 0.28594 0.67454 0.0
H2014 H 0.09561 0.29302 0.65308 0.0
H2015 H 0.12711 0.31496 0.61809 0.0
H2016 H 0.13957 0.38078 0.58654 0.0
H2017 H 0.10797 0.37759 0.6171 0.0
C2018 C 0.07755 0.33973 0.64695 0.0
C2019 C 0.06278 0.31846 0.66047 0.0
C2020 C 0.09844 0.34382 0.63432 0.0
C2021 C 0.07026 0.30227 0.66359 0.0
C2022 C 0.09095 0.3063 0.65142 0.0
C2023 C 0.12361 0.32908 0.61922 0.0
C2024 C 0.13574 0.34815 0.60045 0.0
C2025 C 0.10476 0.32661 0.63573 0.0
C2026 C 0.13069 0.36612 0.60134 0.0
C2027 C 0.11232 0.36408 0.61834 0.0
H2028 H 0.2871 0.31494 0.65216 0.0
H2029 H 0.34395 0.37363 0.61121 0.0
H2030 H 0.31798 0.3854 0.58923 0.0
H2031 H 0.27923 0.37635 0.57603 0.0
H2032 H 0.22166 0.31487 0.61007 0.0
H2033 H 0.24752 0.30729 0.64143 0.0
C2034 C 0.29374 0.33051 0.63887 0.0
C2035 C 0.31739 0.34341 0.63317 0.0
C2036 C 0.27851 0.33665 0.62515 0.0
C2037 C 0.32582 0.36339 0.61567 0.0
C2038 C 0.31098 0.37013 0.60316 0.0
C2039 C 0.2723 0.36152 0.59083 0.0
C2040 C 0.2486 0.34607 0.5905 0.0
C2041 C 0.2873 0.35652 0.60696 0.0
C2042 C 0.2398 0.32708 0.61 0.0
C2043 C 0.25465 0.32259 0.62755 0.0
H2044 H 0.68031 0.9798 0.61733 0.0
H2045 H 0.74095 0.98652 0.66115 0.0
H2046 H 0.73306 0.94978 0.64109 0.0
H2047 H 0.7131 0.91917 0.60389 0.0
H2048 H 0.65377 0.91281 0.55762 0.0
H2049 H 0.65641 0.94513 0.58644 0.0
C2050 C 0.69152 0.97301 0.62294 0.0
C2051 C 0.71151 0.98634 0.6401 0.0
C2052 C 0.68708 0.95172 0.6109 0.0
C2053 C 0.72571 0.97705 0.64739 0.0
C2054 C 0.7212 0.95588 0.63603 0.0
C2055 C 0.70013 0.92419 0.60128 0.0
C2056 C 0.6832 0.9136 0.57895 0.0
C2057 C 0.70247 0.94349 0.6168 0.0
C2058 C 0.66676 0.92057 0.57511 0.0
C2059 C 0.66854 0.93932 0.59118 0.0
H2060 H 0.0638 0.75851 0.651 0.0
H2061 H 0.07227 0.7044 0.61209 0.0
H2062 H 0.10943 0.73254 0.59204 0.0
H2063 H 0.13623 0.77211 0.5788 0.0
H2064 H 0.12525 0.82657 0.60981 0.0
H2065 H 0.09308 0.79914 0.64085 0.0
C2066 C 0.07408 0.75299 0.63864 0.0
C2067 C 0.06539 0.72947 0.63288 0.0
C2068 C 0.09503 0.76942 0.6259 0.0
C2069 C 0.0786 0.72242 0.61655 0.0
C2070 C 0.09985 0.7385 0.60517 0.0
C2071 C 0.12725 0.77806 0.59324 0.0
C2072 C 0.13305 0.80126 0.59213 0.0
C2073 C 0.10783 0.762 0.60883 0.0
C2074 C 0.12126 0.80884 0.61061 0.0
C2075 C 0.10261 0.79306 0.62787 0.0
H2076 H 0.98973 0.59595 0.66514 0.0
H2077 H 0.0437 0.65933 0.70241 0.0
H2078 H 0.05863 0.63813 0.73038 0.0
H2079 H 0.05238 0.60148 0.75084 0.0
H2080 H 0.99687 0.53812 0.71673 0.0
H2081 H 0.98702 0.55938 0.68006 0.0
C2082 C 1.00495 0.60521 0.67905 0.0
C2083 C 1.01521 0.62922 0.6822 0.0
C2084 C 1.01321 0.59287 0.69556 0.0
C2085 C 0.03522 0.64088 0.69984 0.0
C2086 C 0.04379 0.62876 0.71588 0.0
C2087 C 0.03862 0.59235 0.73461 0.0
C2088 C 1.0252 0.56834 0.73656 0.0
C2089 C 0.03239 0.60473 0.71482 0.0
C2090 C 1.00747 0.55659 0.7155 0.0
C2091 C 1.00163 0.56878 0.69491 0.0
H2092 H 0.4485 0.38772 0.67778 0.0
H2093 H 0.38693 0.38812 0.70372 0.0
H2094 H 0.40998 0.42578 0.727 0.0
H2095 H 0.44724 0.45613 0.74523 0.0
H2096 H 0.50842 0.45393 0.72322 0.0
H2097 H 0.48593 0.41995 0.69184 0.0
C2098 C 0.44001 0.39601 0.68837 0.0
C2099 C 0.41591 0.38477 0.68953 0.0
C2100 C 0.45335 0.4175 0.70209 0.0
C2101 C 0.40538 0.39613 0.70284 0.0
C2102 C 0.41857 0.41772 0.71609 0.0
C2103 C 0.4557 0.44844 0.73305 0.0
C2104 C 0.47942 0.45732 0.73689 0.0
C2105 C 0.44251 0.42823 0.71655 0.0
C2106 C 0.49024 0.44751 0.72058 0.0
C2107 C 0.47731 0.42785 0.70305 0.0
H2108 H 0.62976 1.01531 0.65935 0.0
H2109 H 0.67597 0.06615 0.72275 0.0
H2110 H 0.64437 0.06861 0.74535 0.0
H2111 H 0.60354 0.05266 0.75201 0.0
H2112 H 0.55609 0.99678 0.69596 0.0
H2113 H 0.58775 1.00059 0.66452 0.0
C2114 C 0.63275 0.02695 0.67798 0.0
C2115 C 0.65504 0.04029 0.68977 0.0
C2116 C 0.61421 0.0276 0.69181 0.0
C2117 C 0.65886 0.05541 0.7138 0.0
C2118 C 0.64085 0.05698 0.72653 0.0
C2119 C 0.60011 0.04201 0.73206 0.0
C2120 C 0.57758 0.02466 0.72607 0.0
C2121 C 0.61843 0.04277 0.71627 0.0
C2122 C 0.57326 1.01056 0.70065 0.0
C2123 C 0.59144 1.01239 0.68317 0.0
loop_
_geom_bond_atom_site_label_1
_geom_bond_atom_site_label_2
_geom_bond_distance
_geom_bond_site_symmetry_2
_ccdc_geom_bond_type
Mn0 O5 2.095 1_655 S
Mn0 O15 2.162 . S
Mn0 O16 2.297 1_554 S
Mn0 O24 2.385 1_554 S
Mn0 O25 2.209 1_654 S
Mn0 O26 2.094 . S
Mn1 O6 2.121 . S
Mn1 N8 2.257 1_554 S
Mn1 N17 2.282 1_554 S
Mn1 O25 2.215 1_554 S
Mn1 O27 2.117 . S
C2 O24 1.234 1_455 S
C2 O25 1.283 . S
C3 O15 1.281 1_556 S
C3 O16 1.236 . S
C4 O26 1.230 1_455 S
C4 O27 1.290 . S
O5 Mn0 2.095 1_455 S
O5 C14 1.250 . S
O6 Mn1 2.121 . S
O6 C14 1.258 . S
C7 N8 1.326 . S
C7 C11 1.460 . S
C7 H13 0.929 . S
N8 Mn1 2.257 1_556 S
N8 C7 1.326 . S
N8 C12 1.362 . S
C9 C10 1.258 . S
C9 C12 1.431 . S
C9 C29 1.449 . S
C10 C9 1.258 . S
C10 C11 1.477 . S
C10 H30 0.931 . S
C11 C7 1.460 . S
C11 C10 1.477 . S
C11 H31 0.930 . S
C12 N8 1.362 . S
C12 C9 1.431 . S
C12 C22 1.476 . S
H13 C7 0.929 . S
C14 O5 1.250 . S
C14 O6 1.258 . S
O15 Mn0 2.162 . S
O15 C3 1.281 1_554 S
O16 Mn0 2.297 1_556 S
O16 C3 1.236 . S
N17 Mn1 2.282 1_556 S
N17 C18 1.328 1_556 S
N17 C22 1.318 . S
C18 N17 1.328 1_554 S
C18 C19 1.457 1_554 S
C18 H23 0.929 . S
C19 C18 1.457 1_556 S
C19 C20 1.291 . S
C19 H32 0.931 . S
C20 C19 1.291 . S
C20 C21 1.373 . S
C20 H33 0.929 . S
C21 C20 1.373 . S
C21 C22 1.396 . S
C21 C28 1.403 . S
C22 C12 1.476 . S
C22 N17 1.318 . S
C22 C21 1.396 . S
H23 C18 0.929 . S
O24 Mn0 2.385 1_556 S
O24 C2 1.234 1_655 S
O25 Mn0 2.209 1_456 S
O25 Mn1 2.215 1_556 S
O25 C2 1.283 . S
O26 Mn0 2.094 . S
O26 C4 1.230 1_655 S
O27 Mn1 2.117 . S
O27 C4 1.290 . S
C28 C21 1.403 . S
C28 C29 1.399 . S
C28 H34 0.929 . S
C29 C9 1.449 . S
C29 C28 1.399 . S
C29 H35 0.930 . S
H30 C10 0.931 . S
H31 C11 0.930 . S
H32 C19 0.931 . S
H33 C20 0.929 . S
H34 C28 0.929 . S
H35 C29 0.930 . S
Mn36 O41 2.095 1_554 S
Mn36 O51 2.162 . S
Mn36 O52 2.297 . S
Mn36 O60 2.385 . S
Mn36 O61 2.209 . S
Mn36 O62 2.094 1_554 S
Mn37 O42 2.121 . S
Mn37 N44 2.257 1_556 S
Mn37 N53 2.282 1_556 S
Mn37 O61 2.215 1_556 S
Mn37 O63 2.117 . S
C38 O60 1.234 . S
C38 O61 1.283 . S
C39 O51 1.281 . S
C39 O52 1.236 . S
C40 O62 1.240 . S
C40 O63 1.264 . S
O41 Mn36 2.095 1_556 S
O41 C50 1.250 . S
O42 Mn37 2.121 . S
O42 C50 1.258 . S
C43 N44 1.326 . S
C43 C47 1.460 . S
C43 H49 0.929 . S
N44 Mn37 2.257 1_554 S
N44 C43 1.326 . S
N44 C48 1.362 . S
C45 C46 1.258 . S
C45 C48 1.431 . S
C45 C65 1.449 . S
C46 C45 1.258 . S
C46 C47 1.477 . S
C46 H66 0.931 . S
C47 C43 1.460 . S
C47 C46 1.477 . S
C47 H67 0.930 . S
C48 N44 1.362 . S
C48 C45 1.431 . S
C48 C58 1.476 . S
H49 C43 0.929 . S
C50 O41 1.250 . S
C50 O42 1.258 . S
O51 Mn36 2.162 . S
O51 C39 1.281 . S
O52 Mn36 2.297 . S
O52 C39 1.236 . S
N53 Mn37 2.282 1_554 S
N53 C54 1.328 . S
N53 C58 1.318 . S
C54 N53 1.328 . S
C54 C55 1.457 . S
C54 H59 0.929 1_554 S
C55 C54 1.457 . S
C55 C56 1.291 . S
C55 H68 0.931 . S
C56 C55 1.291 . S
C56 C57 1.373 . S
C56 H69 0.929 . S
C57 C56 1.373 . S
C57 C58 1.396 . S
C57 C64 1.403 . S
C58 C48 1.476 . S
C58 N53 1.318 . S
C58 C57 1.396 . S
H59 C54 0.929 1_556 S
O60 Mn36 2.385 . S
O60 C38 1.234 . S
O61 Mn36 2.209 . S
O61 Mn37 2.215 1_554 S
O61 C38 1.283 . S
O62 Mn36 2.094 1_556 S
O62 C40 1.240 . S
O63 Mn37 2.117 . S
O63 C40 1.264 . S
C64 C57 1.403 . S
C64 C65 1.399 . S
C64 H70 0.929 . S
C65 C45 1.449 . S
C65 C64 1.399 . S
C65 H71 0.930 . S
H66 C46 0.931 . S
H67 C47 0.930 . S
H68 C55 0.931 . S
H69 C56 0.929 . S
H70 C64 0.929 . S
H71 C65 0.930 . S
Mn72 O77 2.095 1_564 S
Mn72 O87 2.162 . S
Mn72 O88 2.297 . S
Mn72 O96 2.385 . S
Mn72 O97 2.209 1_565 S
Mn72 O98 2.094 1_554 S
Mn73 O78 2.121 1_554 S
Mn73 N80 2.257 . S
Mn73 N89 2.282 . S
Mn73 O97 2.215 . S
Mn73 O99 2.117 1_554 S
C74 O96 1.199 1_545 S
C74 O97 1.320 . S
C75 O87 1.281 . S
C75 O88 1.236 . S
C76 O98 1.253 . S
C76 O99 1.235 1_565 S
O77 Mn72 2.095 1_546 S
O77 C86 1.250 . S
O78 Mn73 2.121 1_556 S
O78 C86 1.258 . S
C79 N80 1.326 . S
C79 C83 1.460 . S
C79 H85 0.929 . S
N80 Mn73 2.257 . S
N80 C79 1.326 . S
N80 C84 1.362 . S
C81 C82 1.258 . S
C81 C84 1.431 . S
C81 C101 1.449 . S
C82 C81 1.258 . S
C82 C83 1.477 . S
C82 H102 0.931 . S
C83 C79 1.460 . S
C83 C82 1.477 . S
C83 H103 0.930 . S
C84 N80 1.362 . S
C84 C81 1.431 . S
C84 C94 1.476 . S
H85 C79 0.929 . S
C86 O77 1.250 . S
C86 O78 1.258 . S
O87 Mn72 2.162 . S
O87 C75 1.281 . S
O88 Mn72 2.297 . S
O88 C75 1.236 . S
N89 Mn73 2.282 . S
N89 C90 1.328 . S
N89 C94 1.318 . S
C90 N89 1.328 . S
C90 C91 1.457 . S
C90 H95 0.950 . S
C91 C90 1.457 . S
C91 C92 1.291 . S
C91 H104 0.931 . S
C92 C91 1.291 . S
C92 C93 1.373 . S
C92 H105 0.929 . S
C93 C92 1.373 . S
C93 C94 1.396 . S
C93 C100 1.403 . S
C94 C84 1.476 . S
C94 N89 1.318 . S
C94 C93 1.396 . S
H95 C90 0.950 . S
O96 Mn72 2.385 . S
O96 C74 1.199 1_565 S
O97 Mn72 2.209 1_545 S
O97 Mn73 2.215 . S
O97 C74 1.320 . S
O98 Mn72 2.094 1_556 S
O98 C76 1.253 . S
O99 Mn73 2.117 1_556 S
O99 C76 1.235 1_545 S
C100 C93 1.403 . S
C100 C101 1.399 . S
C100 H106 0.929 . S
C101 C81 1.449 . S
C101 C100 1.399 . S
C101 H107 0.930 . S
H102 C82 0.931 . S
H103 C83 0.930 . S
H104 C91 0.931 . S
H105 C92 0.929 . S
H106 C100 0.929 . S
H107 C101 0.930 . S
Mn108 O113 2.095 1_655 S
Mn108 O123 2.162 . S
Mn108 O124 2.297 1_554 S
Mn108 O132 2.385 1_554 S
Mn108 O133 2.209 1_654 S
Mn108 O134 2.094 . S
Mn109 O114 2.121 . S
Mn109 N116 2.257 1_554 S
Mn109 N125 2.282 1_554 S
Mn109 O133 2.215 1_554 S
Mn109 O135 2.117 . S
C110 O132 1.234 1_455 S
C110 O133 1.283 . S
C111 O123 1.281 1_556 S
C111 O124 1.236 . S
C112 O134 1.239 1_455 S
C112 O135 1.265 . S
O113 Mn108 2.095 1_455 S
O113 C122 1.250 . S
O114 Mn109 2.121 . S
O114 C122 1.258 . S
C115 N116 1.326 . S
C115 C119 1.460 . S
C115 H121 0.929 . S
N116 Mn109 2.257 1_556 S
N116 C115 1.326 . S
N116 C120 1.362 . S
C117 C118 1.258 . S
C117 C120 1.431 . S
C117 C137 1.449 . S
C118 C117 1.258 . S
C118 C119 1.477 . S
C118 H138 0.931 . S
C119 C115 1.460 . S
C119 C118 1.477 . S
C119 H139 0.930 . S
C120 N116 1.362 . S
C120 C117 1.431 . S
C120 C130 1.476 . S
H121 C115 0.929 . S
C122 O113 1.250 . S
C122 O114 1.258 . S
O123 Mn108 2.162 . S
O123 C111 1.281 1_554 S
O124 Mn108 2.297 1_556 S
O124 C111 1.236 . S
N125 Mn109 2.282 1_556 S
N125 C126 1.328 1_556 S
N125 C130 1.318 . S
C126 N125 1.328 1_554 S
C126 C127 1.457 1_554 S
C126 H131 0.929 . S
C127 C126 1.457 1_556 S
C127 C128 1.291 . S
C127 H140 0.931 . S
C128 C127 1.291 . S
C128 C129 1.373 . S
C128 H141 0.929 . S
C129 C128 1.373 . S
C129 C130 1.396 . S
C129 C136 1.403 . S
C130 C120 1.476 . S
C130 N125 1.318 . S
C130 C129 1.396 . S
H131 C126 0.929 . S
O132 Mn108 2.385 1_556 S
O132 C110 1.234 1_655 S
O133 Mn108 2.209 1_456 S
O133 Mn109 2.215 1_556 S
O133 C110 1.283 . S
O134 Mn108 2.094 . S
O134 C112 1.239 1_655 S
O135 Mn109 2.117 . S
O135 C112 1.265 . S
C136 C129 1.403 . S
C136 C137 1.399 . S
C136 H142 0.929 . S
C137 C117 1.449 . S
C137 C136 1.399 . S
C137 H143 0.930 . S
H138 C118 0.931 . S
H139 C119 0.930 . S
H140 C127 0.931 . S
H141 C128 0.929 . S
H142 C136 0.929 . S
H143 C137 0.930 . S
Mn144 O149 2.095 1_554 S
Mn144 O159 2.162 . S
Mn144 O160 2.297 . S
Mn144 O168 2.385 . S
Mn144 O169 2.209 . S
Mn144 O170 2.094 1_554 S
Mn145 O150 2.120 1_554 S
Mn145 N152 2.263 . S
Mn145 N161 2.285 . S
Mn145 O169 2.221 . S
Mn145 O171 2.112 1_554 S
C146 O168 1.234 . S
C146 O169 1.283 . S
C147 O159 1.281 . S
C147 O160 1.236 . S
C148 O170 1.240 . S
C148 O171 1.264 . S
O149 Mn144 2.095 1_556 S
O149 C158 1.250 . S
O150 Mn145 2.120 1_556 S
O150 C158 1.258 . S
C151 N152 1.326 . S
C151 C155 1.460 . S
C151 H157 0.929 . S
N152 Mn145 2.263 . S
N152 C151 1.326 . S
N152 C156 1.362 . S
C153 C154 1.258 . S
C153 C156 1.431 . S
C153 C173 1.449 . S
C154 C153 1.258 . S
C154 C155 1.477 . S
C154 H174 0.931 . S
C155 C151 1.460 . S
C155 C154 1.477 . S
C155 H175 0.930 . S
C156 N152 1.362 . S
C156 C153 1.431 . S
C156 C166 1.476 . S
H157 C151 0.929 . S
C158 O149 1.250 . S
C158 O150 1.258 . S
O159 Mn144 2.162 . S
O159 C147 1.281 . S
O160 Mn144 2.297 . S
O160 C147 1.236 . S
N161 Mn145 2.285 . S
N161 C162 1.328 . S
N161 C166 1.318 . S
C162 N161 1.328 . S
C162 C163 1.457 . S
C162 H167 0.929 1_554 S
C163 C162 1.457 . S
C163 C164 1.291 . S
C163 H176 0.931 . S
C164 C163 1.291 . S
C164 C165 1.373 . S
C164 H177 0.929 . S
C165 C164 1.373 . S
C165 C166 1.396 . S
C165 C172 1.403 . S
C166 C156 1.476 . S
C166 N161 1.318 . S
C166 C165 1.396 . S
H167 C162 0.929 1_556 S
O168 Mn144 2.385 . S
O168 C146 1.234 . S
O169 Mn144 2.209 . S
O169 Mn145 2.221 . S
O169 C146 1.283 . S
O170 Mn144 2.094 1_556 S
O170 C148 1.240 . S
O171 Mn145 2.112 1_556 S
O171 C148 1.264 . S
C172 C165 1.403 . S
C172 C173 1.399 . S
C172 H178 0.929 . S
C173 C153 1.449 . S
C173 C172 1.399 . S
C173 H179 0.930 . S
H174 C154 0.931 . S
H175 C155 0.930 . S
H176 C163 0.931 . S
H177 C164 0.929 . S
H178 C172 0.929 . S
H179 C173 0.930 . S
Mn180 O185 2.095 1_545 S
Mn180 O195 2.162 . S
Mn180 O196 2.297 1_554 S
Mn180 O204 2.385 1_554 S
Mn180 O205 2.209 1_544 S
Mn180 O206 2.094 . S
Mn181 O186 2.121 . S
Mn181 N188 2.257 1_554 S
Mn181 N197 2.282 1_554 S
Mn181 O205 2.215 1_554 S
Mn181 O207 2.117 . S
C182 O204 1.253 . S
C182 O205 1.264 1_545 S
C183 O195 1.281 1_556 S
C183 O196 1.236 . S
C184 O206 1.240 . S
C184 O207 1.264 1_545 S
O185 Mn180 2.095 1_565 S
O185 C194 1.250 . S
O186 Mn181 2.121 . S
O186 C194 1.258 . S
C187 N188 1.326 . S
C187 C191 1.460 . S
C187 H193 0.929 . S
N188 Mn181 2.257 1_556 S
N188 C187 1.326 . S
N188 C192 1.362 . S
C189 C190 1.258 . S
C189 C192 1.431 . S
C189 C209 1.449 . S
C190 C189 1.258 . S
C190 C191 1.477 . S
C190 H210 0.931 . S
C191 C187 1.460 . S
C191 C190 1.477 . S
C191 H211 0.930 . S
C192 N188 1.362 . S
C192 C189 1.431 . S
C192 C202 1.476 . S
H193 C187 0.929 . S
C194 O185 1.250 . S
C194 O186 1.258 . S
O195 Mn180 2.162 . S
O195 C183 1.281 1_554 S
O196 Mn180 2.297 1_556 S
O196 C183 1.236 . S
N197 Mn181 2.282 1_556 S
N197 C198 1.328 1_556 S
N197 C202 1.318 . S
C198 N197 1.328 1_554 S
C198 C199 1.457 1_554 S
C198 H203 0.929 . S
C199 C198 1.457 1_556 S
C199 C200 1.291 . S
C199 H212 0.931 . S
C200 C199 1.291 . S
C200 C201 1.373 . S
C200 H213 0.929 . S
C201 C200 1.373 . S
C201 C202 1.396 . S
C201 C208 1.403 . S
C202 C192 1.476 . S
C202 N197 1.318 . S
C202 C201 1.396 . S
H203 C198 0.929 . S
O204 Mn180 2.385 1_556 S
O204 C182 1.253 . S
O205 Mn180 2.209 1_566 S
O205 Mn181 2.215 1_556 S
O205 C182 1.264 1_565 S
O206 Mn180 2.094 . S
O206 C184 1.240 . S
O207 Mn181 2.117 . S
O207 C184 1.264 1_565 S
C208 C201 1.403 . S
C208 C209 1.399 . S
C208 H214 0.929 . S
C209 C189 1.449 . S
C209 C208 1.399 . S
C209 H215 0.930 . S
H210 C190 0.931 . S
H211 C191 0.930 . S
H212 C199 0.931 . S
H213 C200 0.929 . S
H214 C208 0.929 . S
H215 C209 0.930 . S
Mn216 O221 2.095 . S
Mn216 O231 2.162 . S
Mn216 O232 2.297 . S
Mn216 O240 2.385 . S
Mn216 O241 2.209 . S
Mn216 O242 2.094 . S
Mn217 O222 2.121 . S
Mn217 N224 2.257 . S
Mn217 N233 2.282 . S
Mn217 O241 2.215 . S
Mn217 O243 2.117 . S
C218 O240 1.234 . S
C218 O241 1.283 . S
C219 O231 1.281 . S
C219 O232 1.236 . S
C220 O242 1.240 . S
C220 O243 1.264 . S
O221 Mn216 2.095 . S
O221 C230 1.250 . S
O222 Mn217 2.121 . S
O222 C230 1.258 . S
C223 N224 1.326 . S
C223 C227 1.460 . S
C223 H229 0.929 . S
N224 Mn217 2.257 . S
N224 C223 1.326 . S
N224 C228 1.362 . S
C225 C226 1.258 . S
C225 C228 1.431 . S
C225 C245 1.449 . S
C226 C225 1.258 . S
C226 C227 1.477 . S
C226 H246 0.931 . S
C227 C223 1.460 . S
C227 C226 1.477 . S
C227 H247 0.930 . S
C228 N224 1.362 . S
C228 C225 1.431 . S
C228 C238 1.476 . S
H229 C223 0.929 . S
C230 O221 1.250 . S
C230 O222 1.258 . S
O231 Mn216 2.162 . S
O231 C219 1.281 . S
O232 Mn216 2.297 . S
O232 C219 1.236 . S
N233 Mn217 2.282 . S
N233 C234 1.328 . S
N233 C238 1.318 . S
C234 N233 1.328 . S
C234 C235 1.457 . S
C234 H239 0.929 . S
C235 C234 1.457 . S
C235 C236 1.291 . S
C235 H248 0.931 . S
C236 C235 1.291 . S
C236 C237 1.373 . S
C236 H249 0.929 . S
C237 C236 1.373 . S
C237 C238 1.396 . S
C237 C244 1.403 . S
C238 C228 1.476 . S
C238 N233 1.318 . S
C238 C237 1.396 . S
H239 C234 0.929 . S
O240 Mn216 2.385 . S
O240 C218 1.234 . S
O241 Mn216 2.209 . S
O241 Mn217 2.215 . S
O241 C218 1.283 . S
O242 Mn216 2.094 . S
O242 C220 1.240 . S
O243 Mn217 2.117 . S
O243 C220 1.264 . S
C244 C237 1.403 . S
C244 C245 1.399 . S
C244 H250 0.929 . S
C245 C225 1.449 . S
C245 C244 1.399 . S
C245 H251 0.930 . S
H246 C226 0.931 . S
H247 C227 0.930 . S
H248 C235 0.931 . S
H249 C236 0.929 . S
H250 C244 0.929 . S
H251 C245 0.930 . S
Mn252 O257 2.095 . S
Mn252 O267 2.162 1_565 S
Mn252 O268 2.297 1_565 S
Mn252 O276 2.385 . S
Mn252 O277 2.209 . S
Mn252 O278 2.094 . S
Mn253 O258 2.121 . S
Mn253 N260 2.257 . S
Mn253 N269 2.282 . S
Mn253 O277 2.215 . S
Mn253 O279 2.117 . S
C254 O276 1.234 . S
C254 O277 1.283 . S
C255 O267 1.281 . S
C255 O268 1.236 . S
C256 O278 1.240 . S
C256 O279 1.264 . S
O257 Mn252 2.095 . S
O257 C266 1.250 . S
O258 Mn253 2.121 . S
O258 C266 1.258 . S
C259 N260 1.326 . S
C259 C263 1.460 . S
C259 H265 0.929 . S
N260 Mn253 2.257 . S
N260 C259 1.326 . S
N260 C264 1.362 . S
C261 C262 1.258 . S
C261 C264 1.431 . S
C261 C281 1.449 . S
C262 C261 1.258 . S
C262 C263 1.477 . S
C262 H282 0.931 . S
C263 C259 1.460 . S
C263 C262 1.477 . S
C263 H283 0.930 . S
C264 N260 1.362 . S
C264 C261 1.431 . S
C264 C274 1.476 . S
H265 C259 0.929 . S
C266 O257 1.250 . S
C266 O258 1.258 . S
O267 Mn252 2.162 1_545 S
O267 C255 1.281 . S
O268 Mn252 2.297 1_545 S
O268 C255 1.236 . S
N269 Mn253 2.282 . S
N269 C270 1.328 . S
N269 C274 1.318 . S
C270 N269 1.328 . S
C270 C271 1.457 . S
C270 H275 0.929 . S
C271 C270 1.457 . S
C271 C272 1.291 . S
C271 H284 0.931 . S
C272 C271 1.291 . S
C272 C273 1.373 . S
C272 H285 0.929 . S
C273 C272 1.373 . S
C273 C274 1.396 . S
C273 C280 1.403 . S
C274 C264 1.476 . S
C274 N269 1.318 . S
C274 C273 1.396 . S
H275 C270 0.929 . S
O276 Mn252 2.385 . S
O276 C254 1.234 . S
O277 Mn252 2.209 . S
O277 Mn253 2.215 . S
O277 C254 1.283 . S
O278 Mn252 2.094 . S
O278 C256 1.240 . S
O279 Mn253 2.117 . S
O279 C256 1.264 . S
C280 C273 1.403 . S
C280 C281 1.399 . S
C280 H286 0.929 . S
C281 C261 1.449 . S
C281 C280 1.399 . S
C281 H287 0.930 . S
H282 C262 0.931 . S
H283 C263 0.930 . S
H284 C271 0.931 . S
H285 C272 0.929 . S
H286 C280 0.929 . S
H287 C281 0.930 . S
Mn288 O293 2.095 . S
Mn288 O303 2.162 1_455 S
Mn288 O304 2.297 1_455 S
Mn288 O312 2.385 . S
Mn288 O313 2.209 . S
Mn288 O314 2.094 . S
Mn289 O294 2.121 . S
Mn289 N296 2.257 . S
Mn289 N305 2.282 . S
Mn289 O313 2.215 . S
Mn289 O315 2.117 . S
C290 O312 1.234 . S
C290 O313 1.283 . S
C291 O303 1.281 . S
C291 O304 1.236 . S
C292 O314 1.240 . S
C292 O315 1.264 . S
O293 Mn288 2.095 . S
O293 C302 1.250 . S
O294 Mn289 2.121 . S
O294 C302 1.258 . S
C295 N296 1.326 . S
C295 C299 1.460 . S
C295 H301 0.929 . S
N296 Mn289 2.257 . S
N296 C295 1.326 . S
N296 C300 1.362 . S
C297 C298 1.258 . S
C297 C300 1.431 . S
C297 C317 1.449 . S
C298 C297 1.258 . S
C298 C299 1.477 . S
C298 H318 0.931 . S
C299 C295 1.460 . S
C299 C298 1.477 . S
C299 H319 0.930 . S
C300 N296 1.362 . S
C300 C297 1.431 . S
C300 C310 1.476 . S
H301 C295 0.929 . S
C302 O293 1.250 . S
C302 O294 1.258 . S
O303 Mn288 2.162 1_655 S
O303 C291 1.281 . S
O304 Mn288 2.297 1_655 S
O304 C291 1.236 . S
N305 Mn289 2.282 . S
N305 C306 1.328 . S
N305 C310 1.318 . S
C306 N305 1.328 . S
C306 C307 1.457 . S
C306 H311 0.929 . S
C307 C306 1.457 . S
C307 C308 1.291 . S
C307 H320 0.931 . S
C308 C307 1.291 . S
C308 C309 1.373 . S
C308 H321 0.929 . S
C309 C308 1.373 . S
C309 C310 1.396 . S
C309 C316 1.403 . S
C310 C300 1.476 . S
C310 N305 1.318 . S
C310 C309 1.396 . S
H311 C306 0.929 . S
O312 Mn288 2.385 . S
O312 C290 1.234 . S
O313 Mn288 2.209 . S
O313 Mn289 2.215 . S
O313 C290 1.283 . S
O314 Mn288 2.094 . S
O314 C292 1.240 . S
O315 Mn289 2.117 . S
O315 C292 1.264 . S
C316 C309 1.403 . S
C316 C317 1.399 . S
C316 H322 0.929 . S
C317 C297 1.449 . S
C317 C316 1.399 . S
C317 H323 0.930 . S
H318 C298 0.931 . S
H319 C299 0.930 . S
H320 C307 0.931 . S
H321 C308 0.929 . S
H322 C316 0.929 . S
H323 C317 0.930 . S
Mn324 O329 2.095 1_565 S
Mn324 O339 2.162 . S
Mn324 O340 2.297 . S
Mn324 O348 2.385 . S
Mn324 O349 2.209 . S
Mn324 O350 2.094 . S
Mn325 O330 2.121 1_565 S
Mn325 N332 2.257 . S
Mn325 N341 2.282 . S
Mn325 O349 2.215 . S
Mn325 O351 2.117 . S
C326 O348 1.234 . S
C326 O349 1.283 . S
C327 O339 1.281 . S
C327 O340 1.236 . S
C328 O350 1.240 . S
C328 O351 1.264 . S
O329 Mn324 2.095 1_545 S
O329 C338 1.250 . S
O330 Mn325 2.121 1_545 S
O330 C338 1.258 . S
C331 N332 1.326 1_545 S
C331 C335 1.460 . S
C331 H337 0.929 . S
N332 Mn325 2.257 . S
N332 C331 1.326 1_565 S
N332 C336 1.362 . S
C333 C334 1.230 1_565 S
C333 C336 1.431 . S
C333 C353 1.449 . S
C334 C333 1.230 1_545 S
C334 C335 1.513 . S
C334 H354 0.923 . S
C335 C331 1.460 . S
C335 C334 1.513 . S
C335 H355 0.930 . S
C336 N332 1.362 . S
C336 C333 1.431 . S
C336 C346 1.476 . S
H337 C331 0.929 . S
C338 O329 1.250 . S
C338 O330 1.258 . S
O339 Mn324 2.162 . S
O339 C327 1.281 . S
O340 Mn324 2.297 . S
O340 C327 1.236 . S
N341 Mn325 2.282 . S
N341 C342 1.328 . S
N341 C346 1.318 . S
C342 N341 1.328 . S
C342 C343 1.457 . S
C342 H347 0.929 . S
C343 C342 1.457 . S
C343 C344 1.291 . S
C343 H356 0.931 . S
C344 C343 1.291 . S
C344 C345 1.373 . S
C344 H357 0.929 . S
C345 C344 1.373 . S
C345 C346 1.396 . S
C345 C352 1.403 . S
C346 C336 1.476 . S
C346 N341 1.318 . S
C346 C345 1.396 . S
H347 C342 0.929 . S
O348 Mn324 2.385 . S
O348 C326 1.234 . S
O349 Mn324 2.209 . S
O349 Mn325 2.215 . S
O349 C326 1.283 . S
O350 Mn324 2.094 . S
O350 C328 1.240 . S
O351 Mn325 2.117 . S
O351 C328 1.264 . S
C352 C345 1.403 . S
C352 C353 1.399 . S
C352 H358 0.929 . S
C353 C333 1.449 . S
C353 C352 1.399 . S
C353 H359 0.930 . S
H354 C334 0.923 . S
H355 C335 0.930 . S
H356 C343 0.931 . S
H357 C344 0.929 . S
H358 C352 0.929 . S
H359 C353 0.930 . S
Mn360 O365 2.095 . S
Mn360 O375 2.162 1_455 S
Mn360 O376 2.297 1_455 S
Mn360 O384 2.385 . S
Mn360 O385 2.209 . S
Mn360 O386 2.094 . S
Mn361 O366 2.121 . S
Mn361 N368 2.257 . S
Mn361 N377 2.282 . S
Mn361 O385 2.215 . S
Mn361 O387 2.117 . S
C362 O384 1.234 . S
C362 O385 1.283 . S
C363 O375 1.281 . S
C363 O376 1.236 . S
C364 O386 1.240 . S
C364 O387 1.264 . S
O365 Mn360 2.095 . S
O365 C374 1.250 . S
O366 Mn361 2.121 . S
O366 C374 1.258 . S
C367 N368 1.326 . S
C367 C371 1.460 . S
C367 H373 0.929 . S
N368 Mn361 2.257 . S
N368 C367 1.326 . S
N368 C372 1.362 . S
C369 C370 1.258 . S
C369 C372 1.431 . S
C369 C389 1.449 . S
C370 C369 1.258 . S
C370 C371 1.477 . S
C370 H390 0.931 . S
C371 C367 1.460 . S
C371 C370 1.477 . S
C371 H391 0.930 . S
C372 N368 1.362 . S
C372 C369 1.431 . S
C372 C382 1.476 . S
H373 C367 0.929 . S
C374 O365 1.250 . S
C374 O366 1.258 . S
O375 Mn360 2.162 1_655 S
O375 C363 1.281 . S
O376 Mn360 2.297 1_655 S
O376 C363 1.236 . S
N377 Mn361 2.282 . S
N377 C378 1.328 . S
N377 C382 1.318 . S
C378 N377 1.328 . S
C378 C379 1.457 . S
C378 H383 0.929 . S
C379 C378 1.457 . S
C379 C380 1.291 . S
C379 H392 0.931 . S
C380 C379 1.291 . S
C380 C381 1.373 . S
C380 H393 0.929 . S
C381 C380 1.373 . S
C381 C382 1.396 . S
C381 C388 1.403 . S
C382 C372 1.476 . S
C382 N377 1.318 . S
C382 C381 1.396 . S
H383 C378 0.929 . S
O384 Mn360 2.385 . S
O384 C362 1.234 . S
O385 Mn360 2.209 . S
O385 Mn361 2.215 . S
O385 C362 1.283 . S
O386 Mn360 2.094 . S
O386 C364 1.240 . S
O387 Mn361 2.117 . S
O387 C364 1.264 . S
C388 C381 1.403 . S
C388 C389 1.399 . S
C388 H394 0.929 . S
C389 C369 1.449 . S
C389 C388 1.399 . S
C389 H395 0.930 . S
H390 C370 0.931 . S
H391 C371 0.930 . S
H392 C379 0.931 . S
H393 C380 0.929 . S
H394 C388 0.929 . S
H395 C389 0.930 . S
Mn396 O401 2.095 . S
Mn396 O411 2.162 . S
Mn396 O412 2.297 . S
Mn396 O420 2.385 . S
Mn396 O421 2.209 . S
Mn396 O422 2.094 . S
Mn397 O402 2.121 . S
Mn397 N404 2.257 . S
Mn397 N413 2.282 . S
Mn397 O421 2.215 . S
Mn397 O423 2.117 . S
C398 O420 1.234 . S
C398 O421 1.283 . S
C399 O411 1.281 . S
C399 O412 1.236 . S
C400 O422 1.240 . S
C400 O423 1.264 . S
O401 Mn396 2.095 . S
O401 C410 1.250 . S
O402 Mn397 2.121 . S
O402 C410 1.258 . S
C403 N404 1.326 . S
C403 C407 1.460 . S
C403 H409 0.929 . S
N404 Mn397 2.257 . S
N404 C403 1.326 . S
N404 C408 1.362 . S
C405 C406 1.258 . S
C405 C408 1.431 . S
C405 C425 1.449 . S
C406 C405 1.258 . S
C406 C407 1.477 . S
C406 H426 0.931 . S
C407 C403 1.460 . S
C407 C406 1.477 . S
C407 H427 0.930 . S
C408 N404 1.362 . S
C408 C405 1.431 . S
C408 C418 1.476 . S
H409 C403 0.929 . S
C410 O401 1.250 . S
C410 O402 1.258 . S
O411 Mn396 2.162 . S
O411 C399 1.281 . S
O412 Mn396 2.297 . S
O412 C399 1.236 . S
N413 Mn397 2.282 . S
N413 C414 1.328 . S
N413 C418 1.318 . S
C414 N413 1.328 . S
C414 C415 1.457 . S
C414 H419 0.929 . S
C415 C414 1.457 . S
C415 C416 1.291 . S
C415 H428 0.931 . S
C416 C415 1.291 . S
C416 C417 1.373 . S
C416 H429 0.929 . S
C417 C416 1.373 . S
C417 C418 1.396 . S
C417 C424 1.403 . S
C418 C408 1.476 . S
C418 N413 1.318 . S
C418 C417 1.396 . S
H419 C414 0.929 . S
O420 Mn396 2.385 . S
O420 C398 1.234 . S
O421 Mn396 2.209 . S
O421 Mn397 2.215 . S
O421 C398 1.283 . S
O422 Mn396 2.094 . S
O422 C400 1.240 . S
O423 Mn397 2.117 . S
O423 C400 1.264 . S
C424 C417 1.403 . S
C424 C425 1.399 . S
C424 H430 0.929 . S
C425 C405 1.449 . S
C425 C424 1.399 . S
C425 H431 0.930 . S
H426 C406 0.931 . S
H427 C407 0.930 . S
H428 C415 0.931 . S
H429 C416 0.929 . S
H430 C424 0.929 . S
H431 C425 0.930 . S
Mn432 O437 2.095 . S
Mn432 O447 2.162 1_545 S
Mn432 O448 2.297 1_545 S
Mn432 O456 2.385 . S
Mn432 O457 2.209 . S
Mn432 O458 2.094 . S
Mn433 O438 2.121 . S
Mn433 N440 2.257 . S
Mn433 N449 2.282 . S
Mn433 O457 2.215 . S
Mn433 O459 2.117 . S
C434 O456 1.234 . S
C434 O457 1.283 . S
C435 O447 1.281 . S
C435 O448 1.236 . S
C436 O458 1.240 . S
C436 O459 1.264 . S
O437 Mn432 2.095 . S
O437 C446 1.250 . S
O438 Mn433 2.121 . S
O438 C446 1.258 . S
C439 N440 1.326 . S
C439 C443 1.460 . S
C439 H445 0.929 . S
N440 Mn433 2.257 . S
N440 C439 1.326 . S
N440 C444 1.362 . S
C441 C442 1.258 . S
C441 C444 1.431 . S
C441 C461 1.449 . S
C442 C441 1.258 . S
C442 C443 1.477 . S
C442 H462 0.931 . S
C443 C439 1.460 . S
C443 C442 1.477 . S
C443 H463 0.930 . S
C444 N440 1.362 . S
C444 C441 1.431 . S
C444 C454 1.476 . S
H445 C439 0.929 . S
C446 O437 1.250 . S
C446 O438 1.258 . S
O447 Mn432 2.162 1_565 S
O447 C435 1.281 . S
O448 Mn432 2.297 1_565 S
O448 C435 1.236 . S
N449 Mn433 2.282 . S
N449 C450 1.328 . S
N449 C454 1.318 . S
C450 N449 1.328 . S
C450 C451 1.457 . S
C450 H455 0.929 . S
C451 C450 1.457 . S
C451 C452 1.291 . S
C451 H464 0.931 . S
C452 C451 1.291 . S
C452 C453 1.373 . S
C452 H465 0.929 . S
C453 C452 1.373 . S
C453 C454 1.396 . S
C453 C460 1.403 . S
C454 C444 1.476 . S
C454 N449 1.318 . S
C454 C453 1.396 . S
H455 C450 0.929 . S
O456 Mn432 2.385 . S
O456 C434 1.234 . S
O457 Mn432 2.209 . S
O457 Mn433 2.215 . S
O457 C434 1.283 . S
O458 Mn432 2.094 . S
O458 C436 1.240 . S
O459 Mn433 2.117 . S
O459 C436 1.264 . S
C460 C453 1.403 . S
C460 C461 1.399 . S
C460 H466 0.929 . S
C461 C441 1.449 . S
C461 C460 1.399 . S
C461 H467 0.930 . S
H462 C442 0.931 . S
H463 C443 0.930 . S
H464 C451 0.931 . S
H465 C452 0.929 . S
H466 C460 0.929 . S
H467 C461 0.930 . S
Mn468 O473 2.095 1_655 S
Mn468 O483 2.162 . S
Mn468 O484 2.297 . S
Mn468 O492 2.385 . S
Mn468 O493 2.209 . S
Mn468 O494 2.094 . S
Mn469 O474 2.121 1_655 S
Mn469 N476 2.257 . S
Mn469 N485 2.282 . S
Mn469 O493 2.215 . S
Mn469 O495 2.117 . S
C470 O492 1.234 . S
C470 O493 1.283 . S
C471 O483 1.281 . S
C471 O484 1.236 . S
C472 O494 1.240 . S
C472 O495 1.264 . S
O473 Mn468 2.095 1_455 S
O473 C482 1.250 . S
O474 Mn469 2.121 1_455 S
O474 C482 1.258 . S
C475 N476 1.326 1_455 S
C475 C479 1.460 . S
C475 H481 0.929 . S
N476 Mn469 2.257 . S
N476 C475 1.326 1_655 S
N476 C480 1.362 . S
C477 C478 1.238 1_655 S
C477 C480 1.431 . S
C477 C497 1.449 . S
C478 C477 1.238 1_455 S
C478 C479 1.485 . S
C478 H498 0.942 . S
C479 C475 1.460 . S
C479 C478 1.485 . S
C479 H499 0.930 . S
C480 N476 1.362 . S
C480 C477 1.431 . S
C480 C490 1.476 . S
H481 C475 0.929 . S
C482 O473 1.250 . S
C482 O474 1.258 . S
O483 Mn468 2.162 . S
O483 C471 1.281 . S
O484 Mn468 2.297 . S
O484 C471 1.236 . S
N485 Mn469 2.282 . S
N485 C486 1.328 . S
N485 C490 1.318 . S
C486 N485 1.328 . S
C486 C487 1.457 . S
C486 H491 0.929 . S
C487 C486 1.457 . S
C487 C488 1.291 . S
C487 H500 0.931 . S
C488 C487 1.291 . S
C488 C489 1.373 . S
C488 H501 0.929 . S
C489 C488 1.373 . S
C489 C490 1.396 . S
C489 C496 1.403 . S
C490 C480 1.476 . S
C490 N485 1.318 . S
C490 C489 1.396 . S
H491 C486 0.929 . S
O492 Mn468 2.385 . S
O492 C470 1.234 . S
O493 Mn468 2.209 . S
O493 Mn469 2.215 . S
O493 C470 1.283 . S
O494 Mn468 2.094 . S
O494 C472 1.240 . S
O495 Mn469 2.117 . S
O495 C472 1.264 . S
C496 C489 1.403 . S
C496 C497 1.399 . S
C496 H502 0.929 . S
C497 C477 1.449 . S
C497 C496 1.399 . S
C497 H503 0.930 . S
H498 C478 0.942 . S
H499 C479 0.930 . S
H500 C487 0.931 . S
H501 C488 0.929 . S
H502 C496 0.929 . S
H503 C497 0.930 . S
Mn504 O509 2.095 . S
Mn504 O519 2.162 . S
Mn504 O520 2.297 . S
Mn504 O528 2.385 . S
Mn504 O529 2.209 . S
Mn504 O530 2.094 . S
Mn505 O510 2.121 . S
Mn505 N512 2.257 . S
Mn505 N521 2.282 . S
Mn505 O529 2.215 . S
Mn505 O531 2.117 . S
C506 O528 1.234 . S
C506 O529 1.283 . S
C507 O519 1.281 . S
C507 O520 1.236 . S
C508 O530 1.240 . S
C508 O531 1.264 . S
O509 Mn504 2.095 . S
O509 C518 1.250 . S
O510 Mn505 2.121 . S
O510 C518 1.258 . S
C511 N512 1.326 . S
C511 C515 1.460 . S
C511 H517 0.929 . S
N512 Mn505 2.257 . S
N512 C511 1.326 . S
N512 C516 1.362 . S
C513 C514 1.258 . S
C513 C516 1.431 . S
C513 C533 1.449 . S
C514 C513 1.258 . S
C514 C515 1.477 . S
C514 H534 0.931 . S
C515 C511 1.460 . S
C515 C514 1.477 . S
C515 H535 0.930 . S
C516 N512 1.362 . S
C516 C513 1.431 . S
C516 C526 1.476 . S
H517 C511 0.929 . S
C518 O509 1.250 . S
C518 O510 1.258 . S
O519 Mn504 2.162 . S
O519 C507 1.281 . S
O520 Mn504 2.297 . S
O520 C507 1.236 . S
N521 Mn505 2.282 . S
N521 C522 1.328 . S
N521 C526 1.318 . S
C522 N521 1.328 . S
C522 C523 1.457 . S
C522 H527 0.929 . S
C523 C522 1.457 . S
C523 C524 1.291 . S
C523 H536 0.931 . S
C524 C523 1.291 . S
C524 C525 1.373 . S
C524 H537 0.929 . S
C525 C524 1.373 . S
C525 C526 1.396 . S
C525 C532 1.403 . S
C526 C516 1.476 . S
C526 N521 1.318 . S
C526 C525 1.396 . S
H527 C522 0.929 . S
O528 Mn504 2.385 . S
O528 C506 1.234 . S
O529 Mn504 2.209 . S
O529 Mn505 2.215 . S
O529 C506 1.283 . S
O530 Mn504 2.094 . S
O530 C508 1.240 . S
O531 Mn505 2.117 . S
O531 C508 1.264 . S
C532 C525 1.403 . S
C532 C533 1.399 . S
C532 H538 0.929 . S
C533 C513 1.449 . S
C533 C532 1.399 . S
C533 H539 0.930 . S
H534 C514 0.931 . S
H535 C515 0.930 . S
H536 C523 0.931 . S
H537 C524 0.929 . S
H538 C532 0.929 . S
H539 C533 0.930 . S
Mn540 O545 2.095 . S
Mn540 O555 2.162 . S
Mn540 O556 2.297 . S
Mn540 O564 2.385 . S
Mn540 O565 2.209 . S
Mn540 O566 2.094 . S
Mn541 O546 2.121 . S
Mn541 N548 2.257 . S
Mn541 N557 2.282 . S
Mn541 O565 2.215 . S
Mn541 O567 2.117 . S
C542 O564 1.234 . S
C542 O565 1.283 . S
C543 O555 1.281 . S
C543 O556 1.236 . S
C544 O566 1.240 . S
C544 O567 1.264 . S
O545 Mn540 2.095 . S
O545 C554 1.250 . S
O546 Mn541 2.121 . S
O546 C554 1.258 . S
C547 N548 1.326 . S
C547 C551 1.460 . S
C547 H553 0.929 . S
N548 Mn541 2.257 . S
N548 C547 1.326 . S
N548 C552 1.362 . S
C549 C550 1.258 . S
C549 C552 1.431 . S
C549 C569 1.449 . S
C550 C549 1.258 . S
C550 C551 1.477 . S
C550 H570 0.931 . S
C551 C547 1.460 . S
C551 C550 1.477 . S
C551 H571 0.930 . S
C552 N548 1.362 . S
C552 C549 1.431 . S
C552 C562 1.476 . S
H553 C547 0.929 . S
C554 O545 1.250 . S
C554 O546 1.258 . S
O555 Mn540 2.162 . S
O555 C543 1.281 . S
O556 Mn540 2.297 . S
O556 C543 1.236 . S
N557 Mn541 2.282 . S
N557 C558 1.328 . S
N557 C562 1.318 . S
C558 N557 1.328 . S
C558 C559 1.457 . S
C558 H563 0.929 . S
C559 C558 1.457 . S
C559 C560 1.291 . S
C559 H572 0.931 . S
C560 C559 1.291 . S
C560 C561 1.373 . S
C560 H573 0.929 . S
C561 C560 1.373 . S
C561 C562 1.396 . S
C561 C568 1.403 . S
C562 C552 1.476 . S
C562 N557 1.318 . S
C562 C561 1.396 . S
H563 C558 0.929 . S
O564 Mn540 2.385 . S
O564 C542 1.234 . S
O565 Mn540 2.209 . S
O565 Mn541 2.215 . S
O565 C542 1.283 . S
O566 Mn540 2.094 . S
O566 C544 1.240 . S
O567 Mn541 2.117 . S
O567 C544 1.264 . S
C568 C561 1.403 . S
C568 C569 1.399 . S
C568 H574 0.929 . S
C569 C549 1.449 . S
C569 C568 1.399 . S
C569 H575 0.930 . S
H570 C550 0.931 . S
H571 C551 0.930 . S
H572 C559 0.931 . S
H573 C560 0.929 . S
H574 C568 0.929 . S
H575 C569 0.930 . S
Mn576 O581 2.095 1_545 S
Mn576 O591 2.162 . S
Mn576 O592 2.297 . S
Mn576 O600 2.385 . S
Mn576 O601 2.209 . S
Mn576 O602 2.094 . S
Mn577 O582 2.121 1_545 S
Mn577 N584 2.257 . S
Mn577 N593 2.282 . S
Mn577 O601 2.215 . S
Mn577 O603 2.117 . S
C578 O600 1.234 . S
C578 O601 1.283 . S
C579 O591 1.281 . S
C579 O592 1.236 . S
C580 O602 1.240 . S
C580 O603 1.264 . S
O581 Mn576 2.095 1_565 S
O581 C590 1.250 . S
O582 Mn577 2.121 1_565 S
O582 C590 1.258 . S
C583 N584 1.326 1_565 S
C583 C587 1.460 . S
C583 H589 0.929 . S
N584 Mn577 2.257 . S
N584 C583 1.326 1_545 S
N584 C588 1.362 . S
C585 C586 1.258 1_545 S
C585 C588 1.431 . S
C585 C605 1.449 . S
C586 C585 1.258 1_565 S
C586 C587 1.477 . S
C586 H606 0.931 . S
C587 C583 1.460 . S
C587 C586 1.477 . S
C587 H607 0.930 . S
C588 N584 1.362 . S
C588 C585 1.431 . S
C588 C598 1.476 . S
H589 C583 0.929 . S
C590 O581 1.250 . S
C590 O582 1.258 . S
O591 Mn576 2.162 . S
O591 C579 1.281 . S
O592 Mn576 2.297 . S
O592 C579 1.236 . S
N593 Mn577 2.282 . S
N593 C594 1.328 . S
N593 C598 1.318 . S
C594 N593 1.328 . S
C594 C595 1.457 . S
C594 H599 0.929 . S
C595 C594 1.457 . S
C595 C596 1.291 . S
C595 H608 0.931 . S
C596 C595 1.291 . S
C596 C597 1.373 . S
C596 H609 0.929 . S
C597 C596 1.373 . S
C597 C598 1.396 . S
C597 C604 1.403 . S
C598 C588 1.476 . S
C598 N593 1.318 . S
C598 C597 1.396 . S
H599 C594 0.929 . S
O600 Mn576 2.385 . S
O600 C578 1.234 . S
O601 Mn576 2.209 . S
O601 Mn577 2.215 . S
O601 C578 1.283 . S
O602 Mn576 2.094 . S
O602 C580 1.240 . S
O603 Mn577 2.117 . S
O603 C580 1.264 . S
C604 C597 1.403 . S
C604 C605 1.399 . S
C604 H610 0.929 . S
C605 C585 1.449 . S
C605 C604 1.399 . S
C605 H611 0.930 . S
H606 C586 0.931 . S
H607 C587 0.930 . S
H608 C595 0.931 . S
H609 C596 0.929 . S
H610 C604 0.929 . S
H611 C605 0.930 . S
Mn612 O617 2.095 . S
Mn612 O627 2.162 1_655 S
Mn612 O628 2.297 1_655 S
Mn612 O636 2.385 . S
Mn612 O637 2.209 . S
Mn612 O638 2.094 . S
Mn613 O618 2.121 . S
Mn613 N620 2.257 . S
Mn613 N629 2.282 . S
Mn613 O637 2.215 . S
Mn613 O639 2.117 . S
C614 O636 1.234 . S
C614 O637 1.283 . S
C615 O627 1.281 . S
C615 O628 1.236 . S
C616 O638 1.240 . S
C616 O639 1.264 . S
O617 Mn612 2.095 . S
O617 C626 1.250 . S
O618 Mn613 2.121 . S
O618 C626 1.258 . S
C619 N620 1.326 . S
C619 C623 1.460 . S
C619 H625 0.929 . S
N620 Mn613 2.257 . S
N620 C619 1.326 . S
N620 C624 1.362 . S
C621 C622 1.258 . S
C621 C624 1.431 . S
C621 C641 1.449 . S
C622 C621 1.258 . S
C622 C623 1.477 . S
C622 H642 0.931 . S
C623 C619 1.460 . S
C623 C622 1.477 . S
C623 H643 0.930 . S
C624 N620 1.362 . S
C624 C621 1.431 . S
C624 C634 1.476 . S
H625 C619 0.929 . S
C626 O617 1.250 . S
C626 O618 1.258 . S
O627 Mn612 2.162 1_455 S
O627 C615 1.281 . S
O628 Mn612 2.297 1_455 S
O628 C615 1.236 . S
N629 Mn613 2.282 . S
N629 C630 1.328 . S
N629 C634 1.318 . S
C630 N629 1.328 . S
C630 C631 1.457 . S
C630 H635 0.929 . S
C631 C630 1.457 . S
C631 C632 1.291 . S
C631 H644 0.931 . S
C632 C631 1.291 . S
C632 C633 1.373 . S
C632 H645 0.929 . S
C633 C632 1.373 . S
C633 C634 1.396 . S
C633 C640 1.403 . S
C634 C624 1.476 . S
C634 N629 1.318 . S
C634 C633 1.396 . S
H635 C630 0.929 . S
O636 Mn612 2.385 . S
O636 C614 1.234 . S
O637 Mn612 2.209 . S
O637 Mn613 2.215 . S
O637 C614 1.283 . S
O638 Mn612 2.094 . S
O638 C616 1.240 . S
O639 Mn613 2.117 . S
O639 C616 1.264 . S
C640 C633 1.403 . S
C640 C641 1.399 . S
C640 H646 0.929 . S
C641 C621 1.449 . S
C641 C640 1.399 . S
C641 H647 0.930 . S
H642 C622 0.931 . S
H643 C623 0.930 . S
H644 C631 0.931 . S
H645 C632 0.929 . S
H646 C640 0.929 . S
H647 C641 0.930 . S
H648 C654 0.930 . S
H649 C657 0.931 . S
H650 C659 0.931 . S
H651 C661 0.930 . S
H652 C663 0.930 . S
H653 C665 0.931 . S
C654 H648 0.930 . S
C654 C655 1.380 . S
C654 C656 1.394 . S
C655 C654 1.380 . S
C655 C659 1.382 . S
C656 C654 1.394 . S
C656 C657 1.400 . S
C657 H649 0.931 . S
C657 C656 1.400 . S
C657 C658 1.375 . S
C658 C657 1.375 . S
C658 C659 1.415 . S
C658 C660 1.501 . S
C659 H650 0.931 . S
C659 C655 1.382 . S
C659 C658 1.415 . S
C660 C658 1.501 . S
C660 C661 1.384 . S
C660 C665 1.408 . S
C661 H651 0.930 . S
C661 C660 1.384 . S
C661 C662 1.389 . S
C662 C661 1.389 . S
C662 C663 1.405 . S
C663 H652 0.930 . S
C663 C662 1.405 . S
C663 C664 1.364 . S
C664 C663 1.364 . S
C664 C665 1.400 . S
C665 H653 0.931 . S
C665 C660 1.408 . S
C665 C664 1.400 . S
H666 C672 0.930 . S
H667 C675 0.931 . S
H668 C677 0.931 . S
H669 C679 0.930 . S
H670 C681 0.930 . S
H671 C683 0.931 . S
C672 H666 0.930 . S
C672 C673 1.380 . S
C672 C674 1.394 . S
C673 C672 1.380 . S
C673 C677 1.382 . S
C674 C672 1.394 . S
C674 C675 1.400 . S
C675 H667 0.931 . S
C675 C674 1.400 . S
C675 C676 1.375 . S
C676 C675 1.375 . S
C676 C677 1.415 . S
C676 C678 1.501 . S
C677 H668 0.931 . S
C677 C673 1.382 . S
C677 C676 1.415 . S
C678 C676 1.501 . S
C678 C679 1.384 . S
C678 C683 1.408 . S
C679 H669 0.930 . S
C679 C678 1.384 . S
C679 C680 1.389 . S
C680 C679 1.389 . S
C680 C681 1.405 . S
C681 H670 0.930 . S
C681 C680 1.405 . S
C681 C682 1.364 . S
C682 C681 1.364 . S
C682 C683 1.400 . S
C683 H671 0.931 . S
C683 C678 1.408 . S
C683 C682 1.400 . S
H684 C690 0.930 . S
H685 C693 0.931 . S
H686 C695 0.931 . S
H687 C697 0.930 . S
H688 C699 0.930 . S
H689 C701 0.931 . S
C690 H684 0.930 . S
C690 C691 1.380 . S
C690 C692 1.394 . S
C691 C690 1.380 . S
C691 C695 1.382 . S
C692 C690 1.394 . S
C692 C693 1.400 . S
C693 H685 0.931 . S
C693 C692 1.400 . S
C693 C694 1.375 . S
C694 C693 1.375 . S
C694 C695 1.415 . S
C694 C696 1.501 . S
C695 H686 0.931 . S
C695 C691 1.382 . S
C695 C694 1.415 . S
C696 C694 1.501 . S
C696 C697 1.384 . S
C696 C701 1.408 . S
C697 H687 0.930 . S
C697 C696 1.384 . S
C697 C698 1.389 . S
C698 C697 1.389 . S
C698 C699 1.405 . S
C699 H688 0.930 . S
C699 C698 1.405 . S
C699 C700 1.364 . S
C700 C699 1.364 . S
C700 C701 1.400 . S
C701 H689 0.931 . S
C701 C696 1.408 . S
C701 C700 1.400 . S
H702 C708 0.930 . S
H703 C711 0.931 . S
H704 C713 0.931 . S
H705 C715 0.930 . S
H706 C717 0.930 . S
H707 C719 0.931 . S
C708 H702 0.930 . S
C708 C709 1.380 . S
C708 C710 1.394 . S
C709 C708 1.380 . S
C709 C713 1.382 . S
C710 C708 1.394 . S
C710 C711 1.400 . S
C711 H703 0.931 . S
C711 C710 1.400 . S
C711 C712 1.375 . S
C712 C711 1.375 . S
C712 C713 1.415 . S
C712 C714 1.501 . S
C713 H704 0.931 . S
C713 C709 1.382 . S
C713 C712 1.415 . S
C714 C712 1.501 . S
C714 C715 1.384 . S
C714 C719 1.408 . S
C715 H705 0.930 . S
C715 C714 1.384 . S
C715 C716 1.389 . S
C716 C715 1.389 . S
C716 C717 1.405 . S
C717 H706 0.930 . S
C717 C716 1.405 . S
C717 C718 1.364 . S
C718 C717 1.364 . S
C718 C719 1.400 . S
C719 H707 0.931 . S
C719 C714 1.408 . S
C719 C718 1.400 . S
H720 C726 0.930 . S
H721 C729 0.931 . S
H722 C731 0.931 . S
H723 C733 0.930 . S
H724 C735 0.930 . S
H725 C737 0.931 . S
C726 H720 0.930 . S
C726 C727 1.380 . S
C726 C728 1.394 . S
C727 C726 1.380 . S
C727 C731 1.382 . S
C728 C726 1.394 . S
C728 C729 1.400 . S
C729 H721 0.931 . S
C729 C728 1.400 . S
C729 C730 1.375 . S
C730 C729 1.375 . S
C730 C731 1.415 . S
C730 C732 1.501 . S
C731 H722 0.931 . S
C731 C727 1.382 . S
C731 C730 1.415 . S
C732 C730 1.501 . S
C732 C733 1.384 . S
C732 C737 1.408 . S
C733 H723 0.930 . S
C733 C732 1.384 . S
C733 C734 1.389 . S
C734 C733 1.389 . S
C734 C735 1.405 . S
C735 H724 0.930 . S
C735 C734 1.405 . S
C735 C736 1.364 . S
C736 C735 1.364 . S
C736 C737 1.400 . S
C737 H725 0.931 . S
C737 C732 1.408 . S
C737 C736 1.400 . S
H738 C744 0.930 . S
H739 C747 0.931 . S
H740 C749 0.931 . S
H741 C751 0.930 . S
H742 C753 0.930 . S
H743 C755 0.931 . S
C744 H738 0.930 . S
C744 C745 1.380 . S
C744 C746 1.394 . S
C745 C744 1.380 . S
C745 C749 1.382 . S
C746 C744 1.394 . S
C746 C747 1.400 . S
C747 H739 0.931 . S
C747 C746 1.400 . S
C747 C748 1.375 . S
C748 C747 1.375 . S
C748 C749 1.415 . S
C748 C750 1.501 . S
C749 H740 0.931 . S
C749 C745 1.382 . S
C749 C748 1.415 . S
C750 C748 1.501 . S
C750 C751 1.384 . S
C750 C755 1.408 . S
C751 H741 0.930 . S
C751 C750 1.384 . S
C751 C752 1.389 . S
C752 C751 1.389 . S
C752 C753 1.405 . S
C753 H742 0.930 . S
C753 C752 1.405 . S
C753 C754 1.364 . S
C754 C753 1.364 . S
C754 C755 1.400 . S
C755 H743 0.931 . S
C755 C750 1.408 . S
C755 C754 1.400 . S
H756 C762 0.930 . S
H757 C765 0.931 . S
H758 C767 0.931 . S
H759 C769 0.930 . S
H760 C771 0.930 . S
H761 C773 0.931 . S
C762 H756 0.930 . S
C762 C763 1.380 . S
C762 C764 1.394 . S
C763 C762 1.380 . S
C763 C767 1.382 . S
C764 C762 1.394 . S
C764 C765 1.400 . S
C765 H757 0.931 . S
C765 C764 1.400 . S
C765 C766 1.375 . S
C766 C765 1.375 . S
C766 C767 1.415 . S
C766 C768 1.501 . S
C767 H758 0.931 . S
C767 C763 1.382 . S
C767 C766 1.415 . S
C768 C766 1.501 . S
C768 C769 1.384 . S
C768 C773 1.408 . S
C769 H759 0.930 . S
C769 C768 1.384 . S
C769 C770 1.389 . S
C770 C769 1.389 . S
C770 C771 1.405 . S
C771 H760 0.930 . S
C771 C770 1.405 . S
C771 C772 1.364 . S
C772 C771 1.364 . S
C772 C773 1.400 . S
C773 H761 0.931 . S
C773 C768 1.408 . S
C773 C772 1.400 . S
H774 C780 0.930 . S
H775 C783 0.931 . S
H776 C785 0.931 . S
H777 C787 0.930 . S
H778 C789 0.930 . S
H779 C791 0.931 . S
C780 H774 0.930 . S
C780 C781 1.380 . S
C780 C782 1.394 . S
C781 C780 1.380 . S
C781 C785 1.382 . S
C782 C780 1.394 . S
C782 C783 1.400 . S
C783 H775 0.931 . S
C783 C782 1.400 . S
C783 C784 1.375 . S
C784 C783 1.375 . S
C784 C785 1.415 . S
C784 C786 1.501 . S
C785 H776 0.931 . S
C785 C781 1.382 . S
C785 C784 1.415 . S
C786 C784 1.501 . S
C786 C787 1.384 . S
C786 C791 1.408 . S
C787 H777 0.930 . S
C787 C786 1.384 . S
C787 C788 1.389 . S
C788 C787 1.389 . S
C788 C789 1.405 . S
C789 H778 0.930 . S
C789 C788 1.405 . S
C789 C790 1.364 . S
C790 C789 1.364 . S
C790 C791 1.400 . S
C791 H779 0.931 . S
C791 C786 1.408 . S
C791 C790 1.400 . S
H792 C798 0.930 . S
H793 C801 0.931 . S
H794 C803 0.931 . S
H795 C805 0.930 . S
H796 C807 0.930 . S
H797 C809 0.931 . S
C798 H792 0.930 . S
C798 C799 1.380 . S
C798 C800 1.394 . S
C799 C798 1.380 . S
C799 C803 1.382 . S
C800 C798 1.394 . S
C800 C801 1.400 . S
C801 H793 0.931 . S
C801 C800 1.400 . S
C801 C802 1.375 . S
C802 C801 1.375 . S
C802 C803 1.415 . S
C802 C804 1.501 . S
C803 H794 0.931 . S
C803 C799 1.382 . S
C803 C802 1.415 . S
C804 C802 1.501 . S
C804 C805 1.384 . S
C804 C809 1.408 . S
C805 H795 0.930 . S
C805 C804 1.384 . S
C805 C806 1.389 . S
C806 C805 1.389 . S
C806 C807 1.405 . S
C807 H796 0.930 . S
C807 C806 1.405 . S
C807 C808 1.364 . S
C808 C807 1.364 . S
C808 C809 1.400 . S
C809 H797 0.931 . S
C809 C804 1.408 . S
C809 C808 1.400 . S
H810 C816 0.915 . S
H811 C819 0.931 . S
H812 C821 0.931 . S
H813 C823 0.930 . S
H814 C825 0.930 . S
H815 C827 0.940 1_655 S
C816 H810 0.915 . S
C816 C817 1.393 . S
C816 C818 1.397 1_655 S
C817 C816 1.393 . S
C817 C821 1.382 . S
C818 C816 1.397 1_455 S
C818 C819 1.400 . S
C819 H811 0.931 . S
C819 C818 1.400 . S
C819 C820 1.375 . S
C820 C819 1.375 . S
C820 C821 1.415 1_455 S
C820 C822 1.501 . S
C821 H812 0.931 . S
C821 C817 1.382 . S
C821 C820 1.415 1_655 S
C822 C820 1.501 . S
C822 C823 1.384 . S
C822 C827 1.420 . S
C823 H813 0.930 . S
C823 C822 1.384 . S
C823 C824 1.389 . S
C824 C823 1.389 . S
C824 C825 1.405 . S
C825 H814 0.930 . S
C825 C824 1.405 . S
C825 C826 1.359 . S
C826 C825 1.359 . S
C826 C827 1.396 . S
C827 H815 0.940 1_455 S
C827 C822 1.420 . S
C827 C826 1.396 . S
H828 C834 0.930 . S
H829 C837 0.931 . S
H830 C839 0.931 . S
H831 C841 0.930 . S
H832 C843 0.930 . S
H833 C845 0.931 . S
C834 H828 0.930 . S
C834 C835 1.380 . S
C834 C836 1.394 . S
C835 C834 1.380 . S
C835 C839 1.382 . S
C836 C834 1.394 . S
C836 C837 1.400 . S
C837 H829 0.931 . S
C837 C836 1.400 . S
C837 C838 1.375 . S
C838 C837 1.375 . S
C838 C839 1.415 . S
C838 C840 1.501 . S
C839 H830 0.931 . S
C839 C835 1.382 . S
C839 C838 1.415 . S
C840 C838 1.501 . S
C840 C841 1.384 . S
C840 C845 1.408 . S
C841 H831 0.930 . S
C841 C840 1.384 . S
C841 C842 1.389 . S
C842 C841 1.389 . S
C842 C843 1.405 . S
C843 H832 0.930 . S
C843 C842 1.405 . S
C843 C844 1.364 . S
C844 C843 1.364 . S
C844 C845 1.400 . S
C845 H833 0.931 . S
C845 C840 1.408 . S
C845 C844 1.400 . S
H846 C852 0.943 . S
H847 C855 0.931 . S
H848 C857 0.931 . S
H849 C859 0.930 . S
H850 C861 0.930 . S
H851 C863 0.921 1_545 S
C852 H846 0.943 . S
C852 C853 1.377 . S
C852 C854 1.385 1_545 S
C853 C852 1.377 . S
C853 C857 1.382 . S
C854 C852 1.385 1_565 S
C854 C855 1.400 . S
C855 H847 0.931 . S
C855 C854 1.400 . S
C855 C856 1.375 . S
C856 C855 1.375 . S
C856 C857 1.415 1_565 S
C856 C858 1.501 . S
C857 H848 0.931 . S
C857 C853 1.382 . S
C857 C856 1.415 1_545 S
C858 C856 1.501 . S
C858 C859 1.384 . S
C858 C863 1.400 . S
C859 H849 0.930 . S
C859 C858 1.384 . S
C859 C860 1.389 . S
C860 C859 1.389 . S
C860 C861 1.405 . S
C861 H850 0.930 . S
C861 C860 1.405 . S
C861 C862 1.373 . S
C862 C861 1.373 . S
C862 C863 1.407 . S
C863 H851 0.921 1_565 S
C863 C858 1.400 . S
C863 C862 1.407 . S
H864 C870 0.913 . S
H865 C873 0.931 . S
H866 C875 0.927 1_545 S
H867 C877 0.930 . S
H868 C879 0.930 . S
H869 C881 0.931 . S
C870 H864 0.913 . S
C870 C871 1.383 . S
C870 C872 1.415 1_545 S
C871 C870 1.383 . S
C871 C875 1.402 1_545 S
C872 C870 1.415 1_565 S
C872 C873 1.377 . S
C873 H865 0.931 . S
C873 C872 1.377 . S
C873 C874 1.375 . S
C874 C873 1.375 . S
C874 C875 1.412 . S
C874 C876 1.501 . S
C875 H866 0.927 1_565 S
C875 C871 1.402 1_565 S
C875 C874 1.412 . S
C876 C874 1.501 . S
C876 C877 1.384 . S
C876 C881 1.408 1_565 S
C877 H867 0.930 . S
C877 C876 1.384 . S
C877 C878 1.389 . S
C878 C877 1.389 . S
C878 C879 1.405 . S
C879 H868 0.930 . S
C879 C878 1.405 . S
C879 C880 1.364 1_565 S
C880 C879 1.364 1_545 S
C880 C881 1.400 . S
C881 H869 0.931 . S
C881 C876 1.408 1_545 S
C881 C880 1.400 . S
H882 C888 0.948 . S
H883 C891 0.931 . S
H884 C893 0.936 . S
H885 C895 0.930 . S
H886 C897 0.930 . S
H887 C899 0.931 . S
C888 H882 0.948 . S
C888 C889 1.375 . S
C888 C890 1.371 1_655 S
C889 C888 1.375 . S
C889 C893 1.363 1_655 S
C890 C888 1.371 1_455 S
C890 C891 1.430 . S
C891 H883 0.931 . S
C891 C890 1.430 . S
C891 C892 1.375 . S
C892 C891 1.375 . S
C892 C893 1.423 . S
C892 C894 1.501 . S
C893 H884 0.936 . S
C893 C889 1.363 1_455 S
C893 C892 1.423 . S
C894 C892 1.501 . S
C894 C895 1.384 . S
C894 C899 1.408 1_455 S
C895 H885 0.930 . S
C895 C894 1.384 . S
C895 C896 1.389 . S
C896 C895 1.389 . S
C896 C897 1.405 . S
C897 H886 0.930 . S
C897 C896 1.405 . S
C897 C898 1.364 1_455 S
C898 C897 1.364 1_655 S
C898 C899 1.400 . S
C899 H887 0.931 . S
C899 C894 1.408 1_655 S
C899 C898 1.400 . S
H900 C906 0.930 . S
H901 C909 0.931 . S
H902 C911 0.931 . S
H903 C913 0.930 . S
H904 C915 0.930 . S
H905 C917 0.931 . S
C906 H900 0.930 . S
C906 C907 1.380 . S
C906 C908 1.394 . S
C907 C906 1.380 . S
C907 C911 1.382 . S
C908 C906 1.394 . S
C908 C909 1.400 . S
C909 H901 0.931 . S
C909 C908 1.400 . S
C909 C910 1.375 . S
C910 C909 1.375 . S
C910 C911 1.415 . S
C910 C912 1.501 . S
C911 H902 0.931 . S
C911 C907 1.382 . S
C911 C910 1.415 . S
C912 C910 1.501 . S
C912 C913 1.384 . S
C912 C917 1.408 . S
C913 H903 0.930 . S
C913 C912 1.384 . S
C913 C914 1.389 . S
C914 C913 1.389 . S
C914 C915 1.405 . S
C915 H904 0.930 . S
C915 C914 1.405 . S
C915 C916 1.364 . S
C916 C915 1.364 . S
C916 C917 1.400 . S
C917 H905 0.931 . S
C917 C912 1.408 . S
C917 C916 1.400 . S
H918 C924 0.930 . S
H919 C927 0.931 . S
H920 C929 0.931 . S
H921 C931 0.930 . S
H922 C933 0.930 . S
H923 C935 0.931 . S
C924 H918 0.930 . S
C924 C925 1.380 . S
C924 C926 1.394 . S
C925 C924 1.380 . S
C925 C929 1.382 . S
C926 C924 1.394 . S
C926 C927 1.400 . S
C927 H919 0.931 . S
C927 C926 1.400 . S
C927 C928 1.375 . S
C928 C927 1.375 . S
C928 C929 1.415 . S
C928 C930 1.501 . S
C929 H920 0.931 . S
C929 C925 1.382 . S
C929 C928 1.415 . S
C930 C928 1.501 . S
C930 C931 1.384 . S
C930 C935 1.408 . S
C931 H921 0.930 . S
C931 C930 1.384 . S
C931 C932 1.389 . S
C932 C931 1.389 . S
C932 C933 1.405 . S
C933 H922 0.930 . S
C933 C932 1.405 . S
C933 C934 1.364 . S
C934 C933 1.364 . S
C934 C935 1.400 . S
C935 H923 0.931 . S
C935 C930 1.408 . S
C935 C934 1.400 . S
H936 C942 0.930 . S
H937 C945 0.931 . S
H938 C947 0.931 . S
H939 C949 0.930 . S
H940 C951 0.930 . S
H941 C953 0.931 . S
C942 H936 0.930 . S
C942 C943 1.380 . S
C942 C944 1.394 . S
C943 C942 1.380 . S
C943 C947 1.382 . S
C944 C942 1.394 . S
C944 C945 1.400 . S
C945 H937 0.931 . S
C945 C944 1.400 . S
C945 C946 1.375 . S
C946 C945 1.375 . S
C946 C947 1.415 . S
C946 C948 1.501 . S
C947 H938 0.931 . S
C947 C943 1.382 . S
C947 C946 1.415 . S
C948 C946 1.501 . S
C948 C949 1.384 . S
C948 C953 1.408 . S
C949 H939 0.930 . S
C949 C948 1.384 . S
C949 C950 1.389 . S
C950 C949 1.389 . S
C950 C951 1.405 . S
C951 H940 0.930 . S
C951 C950 1.405 . S
C951 C952 1.364 . S
C952 C951 1.364 . S
C952 C953 1.400 . S
C953 H941 0.931 . S
C953 C948 1.408 . S
C953 C952 1.400 . S
H954 C960 0.930 . S
H955 C963 0.931 . S
H956 C965 0.931 . S
H957 C967 0.930 . S
H958 C969 0.930 . S
H959 C971 0.931 . S
C960 H954 0.930 . S
C960 C961 1.380 . S
C960 C962 1.394 . S
C961 C960 1.380 . S
C961 C965 1.382 . S
C962 C960 1.394 . S
C962 C963 1.400 . S
C963 H955 0.931 . S
C963 C962 1.400 . S
C963 C964 1.375 . S
C964 C963 1.375 . S
C964 C965 1.415 . S
C964 C966 1.501 . S
C965 H956 0.931 . S
C965 C961 1.382 . S
C965 C964 1.415 . S
C966 C964 1.501 . S
C966 C967 1.384 . S
C966 C971 1.408 . S
C967 H957 0.930 . S
C967 C966 1.384 . S
C967 C968 1.389 . S
C968 C967 1.389 . S
C968 C969 1.405 . S
C969 H958 0.930 . S
C969 C968 1.405 . S
C969 C970 1.364 . S
C970 C969 1.364 . S
C970 C971 1.400 . S
C971 H959 0.931 . S
C971 C966 1.408 . S
C971 C970 1.400 . S
H972 C978 0.930 . S
H973 C981 0.930 . S
H974 C982 0.930 . S
H975 C983 0.930 . S
H976 C986 0.930 . S
H977 C987 0.930 . S
C978 H972 0.930 . S
C978 C979 1.355 1_455 S
C978 C980 1.415 . S
C979 C978 1.355 1_655 S
C979 C981 1.419 . S
C980 C978 1.415 . S
C980 C985 1.425 1_455 S
C980 C987 1.409 . S
C981 H973 0.930 . S
C981 C979 1.419 . S
C981 C982 1.362 . S
C982 H974 0.930 . S
C982 C981 1.362 . S
C982 C985 1.409 . S
C983 H975 0.930 . S
C983 C984 1.355 . S
C983 C985 1.415 . S
C984 C983 1.355 . S
C984 C986 1.419 1_655 S
C985 C980 1.425 1_655 S
C985 C982 1.409 . S
C985 C983 1.415 . S
C986 H976 0.930 . S
C986 C984 1.419 1_455 S
C986 C987 1.362 . S
C987 H977 0.930 . S
C987 C980 1.409 . S
C987 C986 1.362 . S
H988 C994 0.930 . S
H989 C997 0.930 . S
H990 C998 0.930 . S
H991 C999 0.930 . S
H992 C1002 0.930 . S
H993 C1003 0.930 . S
C994 H988 0.930 . S
C994 C995 1.355 . S
C994 C996 1.415 . S
C995 C994 1.355 . S
C995 C997 1.419 . S
C996 C994 1.415 . S
C996 C1001 1.425 . S
C996 C1003 1.409 . S
C997 H989 0.930 . S
C997 C995 1.419 . S
C997 C998 1.362 . S
C998 H990 0.930 . S
C998 C997 1.362 . S
C998 C1001 1.409 . S
C999 H991 0.930 . S
C999 C1000 1.355 . S
C999 C1001 1.415 . S
C1000 C999 1.355 . S
C1000 C1002 1.419 . S
C1001 C996 1.425 . S
C1001 C998 1.409 . S
C1001 C999 1.415 . S
C1002 H992 0.930 . S
C1002 C1000 1.419 . S
C1002 C1003 1.362 . S
C1003 H993 0.930 . S
C1003 C996 1.409 . S
C1003 C1002 1.362 . S
H1004 C1010 0.930 . S
H1005 C1013 0.930 . S
H1006 C1014 0.930 . S
H1007 C1015 0.963 . S
H1008 C1018 0.930 . S
H1009 C1019 0.930 . S
C1010 H1004 0.930 . S
C1010 C1011 1.355 . S
C1010 C1012 1.415 . S
C1011 C1010 1.355 . S
C1011 C1013 1.419 1_545 S
C1012 C1010 1.415 . S
C1012 C1017 1.466 . S
C1012 C1019 1.409 . S
C1013 H1005 0.930 . S
C1013 C1011 1.419 1_565 S
C1013 C1014 1.362 . S
C1014 H1006 0.930 . S
C1014 C1013 1.362 . S
C1014 C1017 1.399 1_565 S
C1015 H1007 0.963 . S
C1015 C1016 1.345 1_565 S
C1015 C1017 1.369 1_565 S
C1016 C1015 1.345 1_545 S
C1016 C1018 1.419 . S
C1017 C1012 1.466 . S
C1017 C1014 1.399 1_545 S
C1017 C1015 1.369 1_545 S
C1018 H1008 0.930 . S
C1018 C1016 1.419 . S
C1018 C1019 1.362 . S
C1019 H1009 0.930 . S
C1019 C1012 1.409 . S
C1019 C1018 1.362 . S
H1020 C1026 0.930 . S
H1021 C1029 0.930 . S
H1022 C1030 0.930 . S
H1023 C1031 0.930 . S
H1024 C1034 0.930 . S
H1025 C1035 0.930 . S
C1026 H1020 0.930 . S
C1026 C1027 1.355 . S
C1026 C1028 1.415 . S
C1027 C1026 1.355 . S
C1027 C1029 1.419 1_565 S
C1028 C1026 1.415 . S
C1028 C1033 1.425 1_565 S
C1028 C1035 1.409 . S
C1029 H1021 0.930 . S
C1029 C1027 1.419 1_545 S
C1029 C1030 1.362 . S
C1030 H1022 0.930 . S
C1030 C1029 1.362 . S
C1030 C1033 1.409 . S
C1031 H1023 0.930 . S
C1031 C1032 1.355 1_545 S
C1031 C1033 1.415 . S
C1032 C1031 1.355 1_565 S
C1032 C1034 1.419 . S
C1033 C1028 1.425 1_545 S
C1033 C1030 1.409 . S
C1033 C1031 1.415 . S
C1034 H1024 0.930 . S
C1034 C1032 1.419 . S
C1034 C1035 1.362 . S
C1035 H1025 0.930 . S
C1035 C1028 1.409 . S
C1035 C1034 1.362 . S
H1036 C1042 0.930 . S
H1037 C1045 0.948 1_655 S
H1038 C1046 0.930 . S
H1039 C1047 0.930 . S
H1040 C1050 0.930 . S
H1041 C1051 0.930 . S
C1042 H1036 0.930 . S
C1042 C1043 1.355 . S
C1042 C1044 1.415 . S
C1043 C1042 1.355 . S
C1043 C1045 1.420 . S
C1044 C1042 1.415 . S
C1044 C1049 1.425 . S
C1044 C1051 1.409 . S
C1045 H1037 0.948 1_455 S
C1045 C1043 1.420 . S
C1045 C1046 1.346 1_455 S
C1046 H1038 0.930 . S
C1046 C1045 1.346 1_655 S
C1046 C1049 1.410 1_655 S
C1047 H1039 0.930 . S
C1047 C1048 1.355 . S
C1047 C1049 1.415 . S
C1048 C1047 1.355 . S
C1048 C1050 1.419 . S
C1049 C1044 1.425 . S
C1049 C1046 1.410 1_455 S
C1049 C1047 1.415 . S
C1050 H1040 0.930 . S
C1050 C1048 1.419 . S
C1050 C1051 1.362 . S
C1051 H1041 0.930 . S
C1051 C1044 1.409 . S
C1051 C1050 1.362 . S
H1052 C1058 0.930 . S
H1053 C1061 0.930 . S
H1054 C1062 0.930 . S
H1055 C1063 0.930 . S
H1056 C1066 0.930 . S
H1057 C1067 0.930 . S
C1058 H1052 0.930 . S
C1058 C1059 1.355 . S
C1058 C1060 1.415 . S
C1059 C1058 1.355 . S
C1059 C1061 1.419 . S
C1060 C1058 1.415 . S
C1060 C1065 1.425 . S
C1060 C1067 1.409 . S
C1061 H1053 0.930 . S
C1061 C1059 1.419 . S
C1061 C1062 1.362 . S
C1062 H1054 0.930 . S
C1062 C1061 1.362 . S
C1062 C1065 1.409 . S
C1063 H1055 0.930 . S
C1063 C1064 1.355 . S
C1063 C1065 1.415 . S
C1064 C1063 1.355 . S
C1064 C1066 1.419 . S
C1065 C1060 1.425 . S
C1065 C1062 1.409 . S
C1065 C1063 1.415 . S
C1066 H1056 0.930 . S
C1066 C1064 1.419 . S
C1066 C1067 1.362 . S
C1067 H1057 0.930 . S
C1067 C1060 1.409 . S
C1067 C1066 1.362 . S
H1068 C1074 0.930 . S
H1069 C1077 0.930 . S
H1070 C1078 0.930 . S
H1071 C1079 0.926 . S
H1072 C1082 0.914 . S
H1073 C1083 0.934 1_655 S
C1074 H1068 0.930 . S
C1074 C1075 1.355 . S
C1074 C1076 1.415 . S
C1075 C1074 1.355 . S
C1075 C1077 1.419 . S
C1076 C1074 1.415 . S
C1076 C1081 1.425 . S
C1076 C1083 1.402 . S
C1077 H1069 0.930 . S
C1077 C1075 1.419 . S
C1077 C1078 1.362 . S
C1078 H1070 0.930 . S
C1078 C1077 1.362 . S
C1078 C1081 1.409 . S
C1079 H1071 0.926 . S
C1079 C1080 1.384 1_455 S
C1079 C1081 1.404 . S
C1080 C1079 1.384 1_655 S
C1080 C1082 1.421 . S
C1081 C1076 1.425 . S
C1081 C1078 1.409 . S
C1081 C1079 1.404 . S
C1082 H1072 0.914 . S
C1082 C1080 1.421 . S
C1082 C1083 1.379 1_655 S
C1083 H1073 0.934 1_455 S
C1083 C1076 1.402 . S
C1083 C1082 1.379 1_455 S
H1084 C1090 0.930 . S
H1085 C1093 0.930 . S
H1086 C1094 0.930 . S
H1087 C1095 0.930 . S
H1088 C1098 0.930 . S
H1089 C1099 0.930 . S
C1090 H1084 0.930 . S
C1090 C1091 1.355 . S
C1090 C1092 1.415 . S
C1091 C1090 1.355 . S
C1091 C1093 1.419 . S
C1092 C1090 1.415 . S
C1092 C1097 1.425 . S
C1092 C1099 1.409 . S
C1093 H1085 0.930 . S
C1093 C1091 1.419 . S
C1093 C1094 1.362 . S
C1094 H1086 0.930 . S
C1094 C1093 1.362 . S
C1094 C1097 1.409 . S
C1095 H1087 0.930 . S
C1095 C1096 1.355 . S
C1095 C1097 1.415 . S
C1096 C1095 1.355 . S
C1096 C1098 1.419 . S
C1097 C1092 1.425 . S
C1097 C1094 1.409 . S
C1097 C1095 1.415 . S
C1098 H1088 0.930 . S
C1098 C1096 1.419 . S
C1098 C1099 1.362 . S
C1099 H1089 0.930 . S
C1099 C1092 1.409 . S
C1099 C1098 1.362 . S
H1100 C1106 0.930 . S
H1101 C1109 0.930 . S
H1102 C1110 0.945 . S
H1103 C1111 0.921 1_545 S
H1104 C1114 0.930 . S
H1105 C1115 0.930 . S
C1106 H1100 0.930 . S
C1106 C1107 1.355 . S
C1106 C1108 1.415 . S
C1107 C1106 1.355 . S
C1107 C1109 1.432 . S
C1108 C1106 1.415 . S
C1108 C1113 1.439 . S
C1108 C1115 1.409 . S
C1109 H1101 0.930 . S
C1109 C1107 1.432 . S
C1109 C1110 1.337 1_565 S
C1110 H1102 0.945 . S
C1110 C1109 1.337 1_545 S
C1110 C1113 1.409 1_545 S
C1111 H1103 0.921 1_565 S
C1111 C1112 1.355 . S
C1111 C1113 1.405 . S
C1112 C1111 1.355 . S
C1112 C1114 1.433 . S
C1113 C1108 1.439 . S
C1113 C1110 1.409 1_565 S
C1113 C1111 1.405 . S
C1114 H1104 0.930 . S
C1114 C1112 1.433 . S
C1114 C1115 1.362 . S
C1115 H1105 0.930 . S
C1115 C1108 1.409 . S
C1115 C1114 1.362 . S
H1116 C1122 0.930 . S
H1117 C1125 0.930 . S
H1118 C1126 0.930 . S
H1119 C1127 0.930 . S
H1120 C1130 0.930 . S
H1121 C1131 0.930 . S
C1122 H1116 0.930 . S
C1122 C1123 1.355 1_565 S
C1122 C1124 1.415 . S
C1123 C1122 1.355 1_545 S
C1123 C1125 1.419 . S
C1124 C1122 1.415 . S
C1124 C1129 1.425 1_565 S
C1124 C1131 1.409 . S
C1125 H1117 0.930 . S
C1125 C1123 1.419 . S
C1125 C1126 1.362 . S
C1126 H1118 0.930 . S
C1126 C1125 1.362 . S
C1126 C1129 1.409 . S
C1127 H1119 0.930 . S
C1127 C1128 1.355 1_545 S
C1127 C1129 1.415 . S
C1128 C1127 1.355 1_565 S
C1128 C1130 1.419 . S
C1129 C1124 1.425 1_545 S
C1129 C1126 1.409 . S
C1129 C1127 1.415 . S
C1130 H1120 0.930 . S
C1130 C1128 1.419 . S
C1130 C1131 1.362 . S
C1131 H1121 0.930 . S
C1131 C1124 1.409 . S
C1131 C1130 1.362 . S
H1132 C1138 0.930 . S
H1133 C1141 0.930 . S
H1134 C1142 0.930 . S
H1135 C1143 0.930 . S
H1136 C1146 0.930 . S
H1137 C1147 0.930 . S
C1138 H1132 0.930 . S
C1138 C1139 1.355 1_455 S
C1138 C1140 1.415 . S
C1139 C1138 1.355 1_655 S
C1139 C1141 1.419 . S
C1140 C1138 1.415 . S
C1140 C1145 1.425 1_455 S
C1140 C1147 1.409 . S
C1141 H1133 0.930 . S
C1141 C1139 1.419 . S
C1141 C1142 1.362 . S
C1142 H1134 0.930 . S
C1142 C1141 1.362 . S
C1142 C1145 1.409 . S
C1143 H1135 0.930 . S
C1143 C1144 1.355 1_655 S
C1143 C1145 1.415 . S
C1144 C1143 1.355 1_455 S
C1144 C1146 1.419 . S
C1145 C1140 1.425 1_655 S
C1145 C1142 1.409 . S
C1145 C1143 1.415 . S
C1146 H1136 0.930 . S
C1146 C1144 1.419 . S
C1146 C1147 1.362 . S
C1147 H1137 0.930 . S
C1147 C1140 1.409 . S
C1147 C1146 1.362 . S
H1148 C1154 0.930 . S
H1149 C1157 0.930 . S
H1150 C1158 0.930 . S
H1151 C1159 0.930 . S
H1152 C1162 0.930 . S
H1153 C1163 0.930 . S
C1154 H1148 0.930 . S
C1154 C1155 1.355 . S
C1154 C1156 1.415 . S
C1155 C1154 1.355 . S
C1155 C1157 1.419 . S
C1156 C1154 1.415 . S
C1156 C1161 1.425 . S
C1156 C1163 1.409 . S
C1157 H1149 0.930 . S
C1157 C1155 1.419 . S
C1157 C1158 1.362 . S
C1158 H1150 0.930 . S
C1158 C1157 1.362 . S
C1158 C1161 1.409 . S
C1159 H1151 0.930 . S
C1159 C1160 1.355 . S
C1159 C1161 1.415 . S
C1160 C1159 1.355 . S
C1160 C1162 1.419 . S
C1161 C1156 1.425 . S
C1161 C1158 1.409 . S
C1161 C1159 1.415 . S
C1162 H1152 0.930 . S
C1162 C1160 1.419 . S
C1162 C1163 1.362 . S
C1163 H1153 0.930 . S
C1163 C1156 1.409 . S
C1163 C1162 1.362 . S
H1164 C1170 0.930 . S
H1165 C1173 0.930 . S
H1166 C1174 0.930 . S
H1167 C1175 0.930 . S
H1168 C1178 0.930 . S
H1169 C1179 0.930 . S
C1170 H1164 0.930 . S
C1170 C1171 1.355 . S
C1170 C1172 1.415 . S
C1171 C1170 1.355 . S
C1171 C1173 1.419 . S
C1172 C1170 1.415 . S
C1172 C1177 1.425 . S
C1172 C1179 1.409 . S
C1173 H1165 0.930 . S
C1173 C1171 1.419 . S
C1173 C1174 1.362 . S
C1174 H1166 0.930 . S
C1174 C1173 1.362 . S
C1174 C1177 1.409 . S
C1175 H1167 0.930 . S
C1175 C1176 1.355 . S
C1175 C1177 1.415 . S
C1176 C1175 1.355 . S
C1176 C1178 1.419 . S
C1177 C1172 1.425 . S
C1177 C1174 1.409 . S
C1177 C1175 1.415 . S
C1178 H1168 0.930 . S
C1178 C1176 1.419 . S
C1178 C1179 1.362 . S
C1179 H1169 0.930 . S
C1179 C1172 1.409 . S
C1179 C1178 1.362 . S
H1180 C1186 0.930 . S
H1181 C1189 0.930 . S
H1182 C1190 0.930 . S
H1183 C1191 0.930 . S
H1184 C1194 0.930 . S
H1185 C1195 0.930 . S
C1186 H1180 0.930 . S
C1186 C1187 1.355 . S
C1186 C1188 1.415 . S
C1187 C1186 1.355 . S
C1187 C1189 1.419 . S
C1188 C1186 1.415 . S
C1188 C1193 1.425 . S
C1188 C1195 1.409 . S
C1189 H1181 0.930 . S
C1189 C1187 1.419 . S
C1189 C1190 1.362 . S
C1190 H1182 0.930 . S
C1190 C1189 1.362 . S
C1190 C1193 1.409 . S
C1191 H1183 0.930 . S
C1191 C1192 1.355 . S
C1191 C1193 1.415 . S
C1192 C1191 1.355 . S
C1192 C1194 1.419 . S
C1193 C1188 1.425 . S
C1193 C1190 1.409 . S
C1193 C1191 1.415 . S
C1194 H1184 0.930 . S
C1194 C1192 1.419 . S
C1194 C1195 1.362 . S
C1195 H1185 0.930 . S
C1195 C1188 1.409 . S
C1195 C1194 1.362 . S
H1196 C1202 0.930 . S
H1197 C1205 0.930 . S
H1198 C1206 0.930 . S
H1199 C1207 0.930 . S
H1200 C1210 0.930 . S
H1201 C1211 0.930 . S
C1202 H1196 0.930 . S
C1202 C1203 1.355 . S
C1202 C1204 1.415 . S
C1203 C1202 1.355 . S
C1203 C1205 1.419 . S
C1204 C1202 1.415 . S
C1204 C1209 1.425 . S
C1204 C1211 1.409 . S
C1205 H1197 0.930 . S
C1205 C1203 1.419 . S
C1205 C1206 1.362 . S
C1206 H1198 0.930 . S
C1206 C1205 1.362 . S
C1206 C1209 1.409 . S
C1207 H1199 0.930 . S
C1207 C1208 1.355 . S
C1207 C1209 1.415 . S
C1208 C1207 1.355 . S
C1208 C1210 1.419 . S
C1209 C1204 1.425 . S
C1209 C1206 1.409 . S
C1209 C1207 1.415 . S
C1210 H1200 0.930 . S
C1210 C1208 1.419 . S
C1210 C1211 1.362 . S
C1211 H1201 0.930 . S
C1211 C1204 1.409 . S
C1211 C1210 1.362 . S
H1212 C1218 0.930 . S
H1213 C1221 0.930 . S
H1214 C1222 0.930 . S
H1215 C1223 0.930 . S
H1216 C1226 0.930 . S
H1217 C1227 0.930 . S
C1218 H1212 0.930 . S
C1218 C1219 1.355 . S
C1218 C1220 1.415 . S
C1219 C1218 1.355 . S
C1219 C1221 1.419 . S
C1220 C1218 1.415 . S
C1220 C1225 1.425 . S
C1220 C1227 1.409 . S
C1221 H1213 0.930 . S
C1221 C1219 1.419 . S
C1221 C1222 1.362 . S
C1222 H1214 0.930 . S
C1222 C1221 1.362 . S
C1222 C1225 1.409 . S
C1223 H1215 0.930 . S
C1223 C1224 1.355 . S
C1223 C1225 1.415 . S
C1224 C1223 1.355 . S
C1224 C1226 1.419 . S
C1225 C1220 1.425 . S
C1225 C1222 1.409 . S
C1225 C1223 1.415 . S
C1226 H1216 0.930 . S
C1226 C1224 1.419 . S
C1226 C1227 1.362 . S
C1227 H1217 0.930 . S
C1227 C1220 1.409 . S
C1227 C1226 1.362 . S
H1228 C1234 0.930 . S
H1229 C1237 0.930 . S
H1230 C1238 0.930 . S
H1231 C1239 0.930 . S
H1232 C1242 0.930 . S
H1233 C1243 0.930 . S
C1234 H1228 0.930 . S
C1234 C1235 1.355 . S
C1234 C1236 1.415 . S
C1235 C1234 1.355 . S
C1235 C1237 1.419 . S
C1236 C1234 1.415 . S
C1236 C1241 1.425 . S
C1236 C1243 1.409 . S
C1237 H1229 0.930 . S
C1237 C1235 1.419 . S
C1237 C1238 1.362 . S
C1238 H1230 0.930 . S
C1238 C1237 1.362 . S
C1238 C1241 1.409 . S
C1239 H1231 0.930 . S
C1239 C1240 1.355 . S
C1239 C1241 1.415 . S
C1240 C1239 1.355 . S
C1240 C1242 1.419 . S
C1241 C1236 1.425 . S
C1241 C1238 1.409 . S
C1241 C1239 1.415 . S
C1242 H1232 0.930 . S
C1242 C1240 1.419 . S
C1242 C1243 1.362 . S
C1243 H1233 0.930 . S
C1243 C1236 1.409 . S
C1243 C1242 1.362 . S
H1244 C1250 0.930 . S
H1245 C1253 0.930 . S
H1246 C1254 0.930 . S
H1247 C1255 0.930 . S
H1248 C1258 0.930 . S
H1249 C1259 0.930 . S
C1250 H1244 0.930 . S
C1250 C1251 1.355 . S
C1250 C1252 1.415 . S
C1251 C1250 1.355 . S
C1251 C1253 1.419 . S
C1252 C1250 1.415 . S
C1252 C1257 1.425 . S
C1252 C1259 1.409 . S
C1253 H1245 0.930 . S
C1253 C1251 1.419 . S
C1253 C1254 1.362 . S
C1254 H1246 0.930 . S
C1254 C1253 1.362 . S
C1254 C1257 1.409 . S
C1255 H1247 0.930 . S
C1255 C1256 1.355 . S
C1255 C1257 1.415 . S
C1256 C1255 1.355 . S
C1256 C1258 1.419 . S
C1257 C1252 1.425 . S
C1257 C1254 1.409 . S
C1257 C1255 1.415 . S
C1258 H1248 0.930 . S
C1258 C1256 1.419 . S
C1258 C1259 1.362 . S
C1259 H1249 0.930 . S
C1259 C1252 1.409 . S
C1259 C1258 1.362 . S
H1260 C1266 0.930 . S
H1261 C1269 0.930 . S
H1262 C1270 0.930 . S
H1263 C1271 0.930 . S
H1264 C1274 0.930 . S
H1265 C1275 0.930 . S
C1266 H1260 0.930 . S
C1266 C1267 1.355 . S
C1266 C1268 1.415 . S
C1267 C1266 1.355 . S
C1267 C1269 1.419 . S
C1268 C1266 1.415 . S
C1268 C1273 1.425 . S
C1268 C1275 1.409 . S
C1269 H1261 0.930 . S
C1269 C1267 1.419 . S
C1269 C1270 1.362 . S
C1270 H1262 0.930 . S
C1270 C1269 1.362 . S
C1270 C1273 1.409 . S
C1271 H1263 0.930 . S
C1271 C1272 1.355 . S
C1271 C1273 1.415 . S
C1272 C1271 1.355 . S
C1272 C1274 1.419 . S
C1273 C1268 1.425 . S
C1273 C1270 1.409 . S
C1273 C1271 1.415 . S
C1274 H1264 0.930 . S
C1274 C1272 1.419 . S
C1274 C1275 1.362 . S
C1275 H1265 0.930 . S
C1275 C1268 1.409 . S
C1275 C1274 1.362 . S
H1276 C1282 0.930 . S
H1277 C1285 0.930 . S
H1278 C1286 0.930 . S
H1279 C1287 0.930 . S
H1280 C1290 0.930 . S
H1281 C1291 0.930 . S
C1282 H1276 0.930 . S
C1282 C1283 1.355 . S
C1282 C1284 1.415 . S
C1283 C1282 1.355 . S
C1283 C1285 1.419 . S
C1284 C1282 1.415 . S
C1284 C1289 1.425 . S
C1284 C1291 1.409 . S
C1285 H1277 0.930 . S
C1285 C1283 1.419 . S
C1285 C1286 1.362 . S
C1286 H1278 0.930 . S
C1286 C1285 1.362 . S
C1286 C1289 1.409 . S
C1287 H1279 0.930 . S
C1287 C1288 1.355 . S
C1287 C1289 1.415 . S
C1288 C1287 1.355 . S
C1288 C1290 1.419 . S
C1289 C1284 1.425 . S
C1289 C1286 1.409 . S
C1289 C1287 1.415 . S
C1290 H1280 0.930 . S
C1290 C1288 1.419 . S
C1290 C1291 1.362 . S
C1291 H1281 0.930 . S
C1291 C1284 1.409 . S
C1291 C1290 1.362 . S
H1292 C1298 0.930 . S
H1293 C1301 0.930 . S
H1294 C1302 0.930 . S
H1295 C1303 0.930 . S
H1296 C1306 0.930 . S
H1297 C1307 0.930 . S
C1298 H1292 0.930 . S
C1298 C1299 1.355 . S
C1298 C1300 1.415 . S
C1299 C1298 1.355 . S
C1299 C1301 1.419 . S
C1300 C1298 1.415 . S
C1300 C1305 1.425 . S
C1300 C1307 1.409 . S
C1301 H1293 0.930 . S
C1301 C1299 1.419 . S
C1301 C1302 1.362 . S
C1302 H1294 0.930 . S
C1302 C1301 1.362 . S
C1302 C1305 1.409 . S
C1303 H1295 0.930 . S
C1303 C1304 1.355 . S
C1303 C1305 1.415 . S
C1304 C1303 1.355 . S
C1304 C1306 1.419 . S
C1305 C1300 1.425 . S
C1305 C1302 1.409 . S
C1305 C1303 1.415 . S
C1306 H1296 0.930 . S
C1306 C1304 1.419 . S
C1306 C1307 1.362 . S
C1307 H1297 0.930 . S
C1307 C1300 1.409 . S
C1307 C1306 1.362 . S
H1308 C1314 0.930 . S
H1309 C1317 0.930 . S
H1310 C1318 0.930 . S
H1311 C1319 0.930 . S
H1312 C1322 0.930 . S
H1313 C1323 0.930 . S
C1314 H1308 0.930 . S
C1314 C1315 1.355 . S
C1314 C1316 1.415 . S
C1315 C1314 1.355 . S
C1315 C1317 1.419 . S
C1316 C1314 1.415 . S
C1316 C1321 1.425 . S
C1316 C1323 1.409 . S
C1317 H1309 0.930 . S
C1317 C1315 1.419 . S
C1317 C1318 1.362 . S
C1318 H1310 0.930 . S
C1318 C1317 1.362 . S
C1318 C1321 1.409 . S
C1319 H1311 0.930 . S
C1319 C1320 1.355 . S
C1319 C1321 1.415 . S
C1320 C1319 1.355 . S
C1320 C1322 1.419 . S
C1321 C1316 1.425 . S
C1321 C1318 1.409 . S
C1321 C1319 1.415 . S
C1322 H1312 0.930 . S
C1322 C1320 1.419 . S
C1322 C1323 1.362 . S
C1323 H1313 0.930 . S
C1323 C1316 1.409 . S
C1323 C1322 1.362 . S
H1324 C1330 0.930 . S
H1325 C1333 0.930 . S
H1326 C1334 0.930 . S
H1327 C1335 0.930 . S
H1328 C1338 0.930 . S
H1329 C1339 0.930 . S
C1330 H1324 0.930 . S
C1330 C1331 1.355 . S
C1330 C1332 1.415 . S
C1331 C1330 1.355 . S
C1331 C1333 1.419 . S
C1332 C1330 1.415 . S
C1332 C1337 1.425 . S
C1332 C1339 1.409 . S
C1333 H1325 0.930 . S
C1333 C1331 1.419 . S
C1333 C1334 1.362 . S
C1334 H1326 0.930 . S
C1334 C1333 1.362 . S
C1334 C1337 1.409 . S
C1335 H1327 0.930 . S
C1335 C1336 1.355 . S
C1335 C1337 1.415 . S
C1336 C1335 1.355 . S
C1336 C1338 1.419 . S
C1337 C1332 1.425 . S
C1337 C1334 1.409 . S
C1337 C1335 1.415 . S
C1338 H1328 0.930 . S
C1338 C1336 1.419 . S
C1338 C1339 1.362 . S
C1339 H1329 0.930 . S
C1339 C1332 1.409 . S
C1339 C1338 1.362 . S
H1340 C1346 0.930 . S
H1341 C1349 0.930 . S
H1342 C1350 0.930 . S
H1343 C1351 0.930 . S
H1344 C1354 0.930 . S
H1345 C1355 0.930 . S
C1346 H1340 0.930 . S
C1346 C1347 1.355 . S
C1346 C1348 1.415 . S
C1347 C1346 1.355 . S
C1347 C1349 1.419 . S
C1348 C1346 1.415 . S
C1348 C1353 1.425 . S
C1348 C1355 1.409 . S
C1349 H1341 0.930 . S
C1349 C1347 1.419 . S
C1349 C1350 1.362 . S
C1350 H1342 0.930 . S
C1350 C1349 1.362 . S
C1350 C1353 1.409 . S
C1351 H1343 0.930 . S
C1351 C1352 1.355 . S
C1351 C1353 1.415 . S
C1352 C1351 1.355 . S
C1352 C1354 1.419 . S
C1353 C1348 1.425 . S
C1353 C1350 1.409 . S
C1353 C1351 1.415 . S
C1354 H1344 0.930 . S
C1354 C1352 1.419 . S
C1354 C1355 1.362 . S
C1355 H1345 0.930 . S
C1355 C1348 1.409 . S
C1355 C1354 1.362 . S
H1356 C1362 0.930 . S
H1357 C1365 0.930 . S
H1358 C1366 0.930 . S
H1359 C1367 0.930 . S
H1360 C1370 0.930 . S
H1361 C1371 0.930 . S
C1362 H1356 0.930 . S
C1362 C1363 1.355 . S
C1362 C1364 1.415 . S
C1363 C1362 1.355 . S
C1363 C1365 1.419 . S
C1364 C1362 1.415 . S
C1364 C1369 1.425 . S
C1364 C1371 1.409 . S
C1365 H1357 0.930 . S
C1365 C1363 1.419 . S
C1365 C1366 1.362 . S
C1366 H1358 0.930 . S
C1366 C1365 1.362 . S
C1366 C1369 1.409 . S
C1367 H1359 0.930 . S
C1367 C1368 1.355 . S
C1367 C1369 1.415 . S
C1368 C1367 1.355 . S
C1368 C1370 1.419 . S
C1369 C1364 1.425 . S
C1369 C1366 1.409 . S
C1369 C1367 1.415 . S
C1370 H1360 0.930 . S
C1370 C1368 1.419 . S
C1370 C1371 1.362 . S
C1371 H1361 0.930 . S
C1371 C1364 1.409 . S
C1371 C1370 1.362 . S
H1372 C1378 0.930 . S
H1373 C1381 0.930 . S
H1374 C1382 0.930 . S
H1375 C1383 0.930 . S
H1376 C1386 0.930 . S
H1377 C1387 0.930 . S
C1378 H1372 0.930 . S
C1378 C1379 1.355 . S
C1378 C1380 1.415 . S
C1379 C1378 1.355 . S
C1379 C1381 1.419 . S
C1380 C1378 1.415 . S
C1380 C1385 1.425 . S
C1380 C1387 1.409 . S
C1381 H1373 0.930 . S
C1381 C1379 1.419 . S
C1381 C1382 1.362 . S
C1382 H1374 0.930 . S
C1382 C1381 1.362 . S
C1382 C1385 1.409 . S
C1383 H1375 0.930 . S
C1383 C1384 1.355 . S
C1383 C1385 1.415 . S
C1384 C1383 1.355 . S
C1384 C1386 1.419 . S
C1385 C1380 1.425 . S
C1385 C1382 1.409 . S
C1385 C1383 1.415 . S
C1386 H1376 0.930 . S
C1386 C1384 1.419 . S
C1386 C1387 1.362 . S
C1387 H1377 0.930 . S
C1387 C1380 1.409 . S
C1387 C1386 1.362 . S
H1388 C1394 0.930 . S
H1389 C1397 0.930 . S
H1390 C1398 0.930 . S
H1391 C1399 0.930 . S
H1392 C1402 0.930 . S
H1393 C1403 0.930 . S
C1394 H1388 0.930 . S
C1394 C1395 1.355 . S
C1394 C1396 1.415 . S
C1395 C1394 1.355 . S
C1395 C1397 1.419 . S
C1396 C1394 1.415 . S
C1396 C1401 1.425 . S
C1396 C1403 1.409 . S
C1397 H1389 0.930 . S
C1397 C1395 1.419 . S
C1397 C1398 1.362 . S
C1398 H1390 0.930 . S
C1398 C1397 1.362 . S
C1398 C1401 1.409 . S
C1399 H1391 0.930 . S
C1399 C1400 1.355 . S
C1399 C1401 1.415 . S
C1400 C1399 1.355 . S
C1400 C1402 1.419 . S
C1401 C1396 1.425 . S
C1401 C1398 1.409 . S
C1401 C1399 1.415 . S
C1402 H1392 0.930 . S
C1402 C1400 1.419 . S
C1402 C1403 1.362 . S
C1403 H1393 0.930 . S
C1403 C1396 1.409 . S
C1403 C1402 1.362 . S
H1404 C1410 0.930 . S
H1405 C1413 0.930 . S
H1406 C1414 0.930 . S
H1407 C1415 0.930 . S
H1408 C1418 0.930 . S
H1409 C1419 0.930 . S
C1410 H1404 0.930 . S
C1410 C1411 1.355 . S
C1410 C1412 1.415 . S
C1411 C1410 1.355 . S
C1411 C1413 1.419 . S
C1412 C1410 1.415 . S
C1412 C1417 1.425 . S
C1412 C1419 1.409 . S
C1413 H1405 0.930 . S
C1413 C1411 1.419 . S
C1413 C1414 1.362 . S
C1414 H1406 0.930 . S
C1414 C1413 1.362 . S
C1414 C1417 1.409 . S
C1415 H1407 0.930 . S
C1415 C1416 1.355 . S
C1415 C1417 1.415 . S
C1416 C1415 1.355 . S
C1416 C1418 1.419 . S
C1417 C1412 1.425 . S
C1417 C1414 1.409 . S
C1417 C1415 1.415 . S
C1418 H1408 0.930 . S
C1418 C1416 1.419 . S
C1418 C1419 1.362 . S
C1419 H1409 0.930 . S
C1419 C1412 1.409 . S
C1419 C1418 1.362 . S
H1420 C1426 0.930 . S
H1421 C1429 0.930 . S
H1422 C1430 0.930 . S
H1423 C1431 0.930 . S
H1424 C1434 0.930 . S
H1425 C1435 0.930 . S
C1426 H1420 0.930 . S
C1426 C1427 1.355 . S
C1426 C1428 1.415 . S
C1427 C1426 1.355 . S
C1427 C1429 1.419 . S
C1428 C1426 1.415 . S
C1428 C1433 1.425 . S
C1428 C1435 1.409 . S
C1429 H1421 0.930 . S
C1429 C1427 1.419 . S
C1429 C1430 1.362 . S
C1430 H1422 0.930 . S
C1430 C1429 1.362 . S
C1430 C1433 1.409 . S
C1431 H1423 0.930 . S
C1431 C1432 1.355 . S
C1431 C1433 1.415 . S
C1432 C1431 1.355 . S
C1432 C1434 1.419 . S
C1433 C1428 1.425 . S
C1433 C1430 1.409 . S
C1433 C1431 1.415 . S
C1434 H1424 0.930 . S
C1434 C1432 1.419 . S
C1434 C1435 1.362 . S
C1435 H1425 0.930 . S
C1435 C1428 1.409 . S
C1435 C1434 1.362 . S
H1436 C1442 0.930 . S
H1437 C1445 0.930 . S
H1438 C1446 0.930 . S
H1439 C1447 0.930 . S
H1440 C1450 0.930 . S
H1441 C1451 0.930 . S
C1442 H1436 0.930 . S
C1442 C1443 1.355 . S
C1442 C1444 1.415 . S
C1443 C1442 1.355 . S
C1443 C1445 1.419 . S
C1444 C1442 1.415 . S
C1444 C1449 1.425 . S
C1444 C1451 1.409 . S
C1445 H1437 0.930 . S
C1445 C1443 1.419 . S
C1445 C1446 1.362 . S
C1446 H1438 0.930 . S
C1446 C1445 1.362 . S
C1446 C1449 1.409 . S
C1447 H1439 0.930 . S
C1447 C1448 1.355 . S
C1447 C1449 1.415 . S
C1448 C1447 1.355 . S
C1448 C1450 1.419 . S
C1449 C1444 1.425 . S
C1449 C1446 1.409 . S
C1449 C1447 1.415 . S
C1450 H1440 0.930 . S
C1450 C1448 1.419 . S
C1450 C1451 1.362 . S
C1451 H1441 0.930 . S
C1451 C1444 1.409 . S
C1451 C1450 1.362 . S
H1452 C1458 0.930 . S
H1453 C1461 0.930 . S
H1454 C1462 0.930 . S
H1455 C1463 0.930 . S
H1456 C1466 0.930 . S
H1457 C1467 0.930 . S
C1458 H1452 0.930 . S
C1458 C1459 1.355 . S
C1458 C1460 1.415 . S
C1459 C1458 1.355 . S
C1459 C1461 1.419 . S
C1460 C1458 1.415 . S
C1460 C1465 1.425 . S
C1460 C1467 1.409 . S
C1461 H1453 0.930 . S
C1461 C1459 1.419 . S
C1461 C1462 1.362 . S
C1462 H1454 0.930 . S
C1462 C1461 1.362 . S
C1462 C1465 1.409 . S
C1463 H1455 0.930 . S
C1463 C1464 1.355 . S
C1463 C1465 1.415 . S
C1464 C1463 1.355 . S
C1464 C1466 1.419 . S
C1465 C1460 1.425 . S
C1465 C1462 1.409 . S
C1465 C1463 1.415 . S
C1466 H1456 0.930 . S
C1466 C1464 1.419 . S
C1466 C1467 1.362 . S
C1467 H1457 0.930 . S
C1467 C1460 1.409 . S
C1467 C1466 1.362 . S
H1468 C1474 0.930 . S
H1469 C1477 0.930 . S
H1470 C1478 0.930 . S
H1471 C1479 0.930 . S
H1472 C1482 0.930 . S
H1473 C1483 0.930 . S
C1474 H1468 0.930 . S
C1474 C1475 1.355 . S
C1474 C1476 1.415 . S
C1475 C1474 1.355 . S
C1475 C1477 1.419 . S
C1476 C1474 1.415 . S
C1476 C1481 1.425 . S
C1476 C1483 1.409 . S
C1477 H1469 0.930 . S
C1477 C1475 1.419 . S
C1477 C1478 1.362 . S
C1478 H1470 0.930 . S
C1478 C1477 1.362 . S
C1478 C1481 1.409 . S
C1479 H1471 0.930 . S
C1479 C1480 1.355 . S
C1479 C1481 1.415 . S
C1480 C1479 1.355 . S
C1480 C1482 1.419 . S
C1481 C1476 1.425 . S
C1481 C1478 1.409 . S
C1481 C1479 1.415 . S
C1482 H1472 0.930 . S
C1482 C1480 1.419 . S
C1482 C1483 1.362 . S
C1483 H1473 0.930 . S
C1483 C1476 1.409 . S
C1483 C1482 1.362 . S
H1484 C1490 0.930 . S
H1485 C1493 0.930 . S
H1486 C1494 0.930 . S
H1487 C1495 0.930 . S
H1488 C1498 0.930 . S
H1489 C1499 0.930 . S
C1490 H1484 0.930 . S
C1490 C1491 1.355 . S
C1490 C1492 1.415 . S
C1491 C1490 1.355 . S
C1491 C1493 1.419 . S
C1492 C1490 1.415 . S
C1492 C1497 1.425 . S
C1492 C1499 1.409 . S
C1493 H1485 0.930 . S
C1493 C1491 1.419 . S
C1493 C1494 1.362 . S
C1494 H1486 0.930 . S
C1494 C1493 1.362 . S
C1494 C1497 1.409 . S
C1495 H1487 0.930 . S
C1495 C1496 1.355 . S
C1495 C1497 1.415 . S
C1496 C1495 1.355 . S
C1496 C1498 1.419 . S
C1497 C1492 1.425 . S
C1497 C1494 1.409 . S
C1497 C1495 1.415 . S
C1498 H1488 0.930 . S
C1498 C1496 1.419 . S
C1498 C1499 1.362 . S
C1499 H1489 0.930 . S
C1499 C1492 1.409 . S
C1499 C1498 1.362 . S
H1500 C1506 0.930 . S
H1501 C1509 0.930 . S
H1502 C1510 0.930 . S
H1503 C1511 0.930 . S
H1504 C1514 0.930 . S
H1505 C1515 0.930 . S
C1506 H1500 0.930 . S
C1506 C1507 1.355 . S
C1506 C1508 1.415 . S
C1507 C1506 1.355 . S
C1507 C1509 1.419 . S
C1508 C1506 1.415 . S
C1508 C1513 1.425 . S
C1508 C1515 1.409 . S
C1509 H1501 0.930 . S
C1509 C1507 1.419 . S
C1509 C1510 1.362 . S
C1510 H1502 0.930 . S
C1510 C1509 1.362 . S
C1510 C1513 1.409 . S
C1511 H1503 0.930 . S
C1511 C1512 1.355 . S
C1511 C1513 1.415 . S
C1512 C1511 1.355 . S
C1512 C1514 1.419 . S
C1513 C1508 1.425 . S
C1513 C1510 1.409 . S
C1513 C1511 1.415 . S
C1514 H1504 0.930 . S
C1514 C1512 1.419 . S
C1514 C1515 1.362 . S
C1515 H1505 0.930 . S
C1515 C1508 1.409 . S
C1515 C1514 1.362 . S
H1516 C1522 0.930 . S
H1517 C1525 0.930 . S
H1518 C1526 0.930 . S
H1519 C1527 0.930 . S
H1520 C1530 0.930 . S
H1521 C1531 0.930 . S
C1522 H1516 0.930 . S
C1522 C1523 1.355 . S
C1522 C1524 1.415 . S
C1523 C1522 1.355 . S
C1523 C1525 1.419 . S
C1524 C1522 1.415 . S
C1524 C1529 1.425 . S
C1524 C1531 1.409 . S
C1525 H1517 0.930 . S
C1525 C1523 1.419 . S
C1525 C1526 1.362 . S
C1526 H1518 0.930 . S
C1526 C1525 1.362 . S
C1526 C1529 1.409 . S
C1527 H1519 0.930 . S
C1527 C1528 1.355 . S
C1527 C1529 1.415 . S
C1528 C1527 1.355 . S
C1528 C1530 1.419 . S
C1529 C1524 1.425 . S
C1529 C1526 1.409 . S
C1529 C1527 1.415 . S
C1530 H1520 0.930 . S
C1530 C1528 1.419 . S
C1530 C1531 1.362 . S
C1531 H1521 0.930 . S
C1531 C1524 1.409 . S
C1531 C1530 1.362 . S
H1532 C1538 0.930 . S
H1533 C1541 0.930 . S
H1534 C1542 0.930 . S
H1535 C1543 0.930 . S
H1536 C1546 0.930 . S
H1537 C1547 0.930 . S
C1538 H1532 0.930 . S
C1538 C1539 1.355 . S
C1538 C1540 1.415 . S
C1539 C1538 1.355 . S
C1539 C1541 1.419 . S
C1540 C1538 1.415 . S
C1540 C1545 1.425 . S
C1540 C1547 1.409 . S
C1541 H1533 0.930 . S
C1541 C1539 1.419 . S
C1541 C1542 1.362 . S
C1542 H1534 0.930 . S
C1542 C1541 1.362 . S
C1542 C1545 1.409 . S
C1543 H1535 0.930 . S
C1543 C1544 1.355 . S
C1543 C1545 1.415 . S
C1544 C1543 1.355 . S
C1544 C1546 1.419 . S
C1545 C1540 1.425 . S
C1545 C1542 1.409 . S
C1545 C1543 1.415 . S
C1546 H1536 0.930 . S
C1546 C1544 1.419 . S
C1546 C1547 1.362 . S
C1547 H1537 0.930 . S
C1547 C1540 1.409 . S
C1547 C1546 1.362 . S
H1548 C1554 0.930 . S
H1549 C1557 0.930 . S
H1550 C1558 0.930 . S
H1551 C1559 0.930 . S
H1552 C1562 0.930 . S
H1553 C1563 0.930 . S
C1554 H1548 0.930 . S
C1554 C1555 1.355 . S
C1554 C1556 1.415 . S
C1555 C1554 1.355 . S
C1555 C1557 1.419 . S
C1556 C1554 1.415 . S
C1556 C1561 1.425 . S
C1556 C1563 1.409 . S
C1557 H1549 0.930 . S
C1557 C1555 1.419 . S
C1557 C1558 1.362 . S
C1558 H1550 0.930 . S
C1558 C1557 1.362 . S
C1558 C1561 1.409 . S
C1559 H1551 0.930 . S
C1559 C1560 1.355 . S
C1559 C1561 1.415 . S
C1560 C1559 1.355 . S
C1560 C1562 1.419 . S
C1561 C1556 1.425 . S
C1561 C1558 1.409 . S
C1561 C1559 1.415 . S
C1562 H1552 0.930 . S
C1562 C1560 1.419 . S
C1562 C1563 1.362 . S
C1563 H1553 0.930 . S
C1563 C1556 1.409 . S
C1563 C1562 1.362 . S
H1564 C1570 0.930 . S
H1565 C1573 0.930 . S
H1566 C1574 0.930 . S
H1567 C1575 0.930 . S
H1568 C1578 0.930 . S
H1569 C1579 0.930 . S
C1570 H1564 0.930 . S
C1570 C1571 1.355 . S
C1570 C1572 1.415 . S
C1571 C1570 1.355 . S
C1571 C1573 1.419 . S
C1572 C1570 1.415 . S
C1572 C1577 1.425 . S
C1572 C1579 1.409 . S
C1573 H1565 0.930 . S
C1573 C1571 1.419 . S
C1573 C1574 1.362 . S
C1574 H1566 0.930 . S
C1574 C1573 1.362 . S
C1574 C1577 1.409 . S
C1575 H1567 0.930 . S
C1575 C1576 1.355 . S
C1575 C1577 1.415 . S
C1576 C1575 1.355 . S
C1576 C1578 1.419 . S
C1577 C1572 1.425 . S
C1577 C1574 1.409 . S
C1577 C1575 1.415 . S
C1578 H1568 0.930 . S
C1578 C1576 1.419 . S
C1578 C1579 1.362 . S
C1579 H1569 0.930 . S
C1579 C1572 1.409 . S
C1579 C1578 1.362 . S
H1580 C1586 0.930 . S
H1581 C1589 0.930 . S
H1582 C1590 0.930 . S
H1583 C1591 0.930 . S
H1584 C1594 0.930 . S
H1585 C1595 0.930 . S
C1586 H1580 0.930 . S
C1586 C1587 1.355 . S
C1586 C1588 1.415 . S
C1587 C1586 1.355 . S
C1587 C1589 1.419 . S
C1588 C1586 1.415 . S
C1588 C1593 1.425 . S
C1588 C1595 1.409 . S
C1589 H1581 0.930 . S
C1589 C1587 1.419 . S
C1589 C1590 1.362 . S
C1590 H1582 0.930 . S
C1590 C1589 1.362 . S
C1590 C1593 1.409 . S
C1591 H1583 0.930 . S
C1591 C1592 1.355 . S
C1591 C1593 1.415 . S
C1592 C1591 1.355 . S
C1592 C1594 1.419 . S
C1593 C1588 1.425 . S
C1593 C1590 1.409 . S
C1593 C1591 1.415 . S
C1594 H1584 0.930 . S
C1594 C1592 1.419 . S
C1594 C1595 1.362 . S
C1595 H1585 0.930 . S
C1595 C1588 1.409 . S
C1595 C1594 1.362 . S
H1596 C1602 0.930 . S
H1597 C1605 0.930 . S
H1598 C1606 0.930 . S
H1599 C1607 0.930 . S
H1600 C1610 0.930 . S
H1601 C1611 0.930 . S
C1602 H1596 0.930 . S
C1602 C1603 1.355 . S
C1602 C1604 1.415 . S
C1603 C1602 1.355 . S
C1603 C1605 1.419 . S
C1604 C1602 1.415 . S
C1604 C1609 1.425 . S
C1604 C1611 1.409 . S
C1605 H1597 0.930 . S
C1605 C1603 1.419 . S
C1605 C1606 1.362 . S
C1606 H1598 0.930 . S
C1606 C1605 1.362 . S
C1606 C1609 1.409 . S
C1607 H1599 0.930 . S
C1607 C1608 1.355 . S
C1607 C1609 1.415 . S
C1608 C1607 1.355 . S
C1608 C1610 1.419 . S
C1609 C1604 1.425 . S
C1609 C1606 1.409 . S
C1609 C1607 1.415 . S
C1610 H1600 0.930 . S
C1610 C1608 1.419 . S
C1610 C1611 1.362 . S
C1611 H1601 0.930 . S
C1611 C1604 1.409 . S
C1611 C1610 1.362 . S
H1612 C1618 0.930 . S
H1613 C1621 0.930 . S
H1614 C1622 0.930 . S
H1615 C1623 0.930 . S
H1616 C1626 0.930 . S
H1617 C1627 0.930 . S
C1618 H1612 0.930 . S
C1618 C1619 1.355 . S
C1618 C1620 1.415 . S
C1619 C1618 1.355 . S
C1619 C1621 1.419 . S
C1620 C1618 1.415 . S
C1620 C1625 1.425 . S
C1620 C1627 1.409 . S
C1621 H1613 0.930 . S
C1621 C1619 1.419 . S
C1621 C1622 1.362 . S
C1622 H1614 0.930 . S
C1622 C1621 1.362 . S
C1622 C1625 1.409 . S
C1623 H1615 0.930 . S
C1623 C1624 1.355 . S
C1623 C1625 1.415 . S
C1624 C1623 1.355 . S
C1624 C1626 1.419 . S
C1625 C1620 1.425 . S
C1625 C1622 1.409 . S
C1625 C1623 1.415 . S
C1626 H1616 0.930 . S
C1626 C1624 1.419 . S
C1626 C1627 1.362 . S
C1627 H1617 0.930 . S
C1627 C1620 1.409 . S
C1627 C1626 1.362 . S
H1628 C1634 0.930 . S
H1629 C1637 0.930 . S
H1630 C1638 0.930 . S
H1631 C1639 0.930 . S
H1632 C1642 0.930 . S
H1633 C1643 0.930 . S
C1634 H1628 0.930 . S
C1634 C1635 1.355 . S
C1634 C1636 1.415 . S
C1635 C1634 1.355 . S
C1635 C1637 1.419 . S
C1636 C1634 1.415 . S
C1636 C1641 1.425 . S
C1636 C1643 1.409 . S
C1637 H1629 0.930 . S
C1637 C1635 1.419 . S
C1637 C1638 1.362 . S
C1638 H1630 0.930 . S
C1638 C1637 1.362 . S
C1638 C1641 1.409 . S
C1639 H1631 0.930 . S
C1639 C1640 1.355 . S
C1639 C1641 1.415 . S
C1640 C1639 1.355 . S
C1640 C1642 1.419 . S
C1641 C1636 1.425 . S
C1641 C1638 1.409 . S
C1641 C1639 1.415 . S
C1642 H1632 0.930 . S
C1642 C1640 1.419 . S
C1642 C1643 1.362 . S
C1643 H1633 0.930 . S
C1643 C1636 1.409 . S
C1643 C1642 1.362 . S
H1644 C1650 0.930 . S
H1645 C1653 0.930 1_554 S
H1646 C1654 0.930 . S
H1647 C1655 0.930 . S
H1648 C1658 0.930 . S
H1649 C1659 0.930 . S
C1650 H1644 0.930 . S
C1650 C1651 1.355 . S
C1650 C1652 1.415 . S
C1651 C1650 1.355 . S
C1651 C1653 1.419 . S
C1652 C1650 1.415 . S
C1652 C1657 1.425 . S
C1652 C1659 1.409 . S
C1653 H1645 0.930 1_556 S
C1653 C1651 1.419 . S
C1653 C1654 1.362 . S
C1654 H1646 0.930 . S
C1654 C1653 1.362 . S
C1654 C1657 1.409 . S
C1655 H1647 0.930 . S
C1655 C1656 1.355 . S
C1655 C1657 1.415 . S
C1656 C1655 1.355 . S
C1656 C1658 1.419 . S
C1657 C1652 1.425 . S
C1657 C1654 1.409 . S
C1657 C1655 1.415 . S
C1658 H1648 0.930 . S
C1658 C1656 1.419 . S
C1658 C1659 1.362 . S
C1659 H1649 0.930 . S
C1659 C1652 1.409 . S
C1659 C1658 1.362 . S
H1660 C1666 0.930 . S
H1661 C1669 0.930 . S
H1662 C1670 0.930 . S
H1663 C1671 0.930 . S
H1664 C1674 0.930 . S
H1665 C1675 0.930 . S
C1666 H1660 0.930 . S
C1666 C1667 1.355 . S
C1666 C1668 1.415 . S
C1667 C1666 1.355 . S
C1667 C1669 1.419 . S
C1668 C1666 1.415 . S
C1668 C1673 1.425 . S
C1668 C1675 1.409 . S
C1669 H1661 0.930 . S
C1669 C1667 1.419 . S
C1669 C1670 1.362 . S
C1670 H1662 0.930 . S
C1670 C1669 1.362 . S
C1670 C1673 1.409 . S
C1671 H1663 0.930 . S
C1671 C1672 1.355 . S
C1671 C1673 1.415 . S
C1672 C1671 1.355 . S
C1672 C1674 1.419 . S
C1673 C1668 1.425 . S
C1673 C1670 1.409 . S
C1673 C1671 1.415 . S
C1674 H1664 0.930 . S
C1674 C1672 1.419 . S
C1674 C1675 1.362 . S
C1675 H1665 0.930 . S
C1675 C1668 1.409 . S
C1675 C1674 1.362 . S
H1676 C1682 0.930 . S
H1677 C1685 0.930 . S
H1678 C1686 0.930 . S
H1679 C1687 0.930 . S
H1680 C1690 0.930 . S
H1681 C1691 0.930 . S
C1682 H1676 0.930 . S
C1682 C1683 1.355 . S
C1682 C1684 1.415 . S
C1683 C1682 1.355 . S
C1683 C1685 1.419 . S
C1684 C1682 1.415 . S
C1684 C1689 1.425 . S
C1684 C1691 1.409 . S
C1685 H1677 0.930 . S
C1685 C1683 1.419 . S
C1685 C1686 1.362 . S
C1686 H1678 0.930 . S
C1686 C1685 1.362 . S
C1686 C1689 1.409 . S
C1687 H1679 0.930 . S
C1687 C1688 1.355 . S
C1687 C1689 1.415 . S
C1688 C1687 1.355 . S
C1688 C1690 1.419 . S
C1689 C1684 1.425 . S
C1689 C1686 1.409 . S
C1689 C1687 1.415 . S
C1690 H1680 0.930 . S
C1690 C1688 1.419 . S
C1690 C1691 1.362 . S
C1691 H1681 0.930 . S
C1691 C1684 1.409 . S
C1691 C1690 1.362 . S
H1692 C1698 0.930 . S
H1693 C1701 0.930 . S
H1694 C1702 0.930 . S
H1695 C1703 0.930 . S
H1696 C1706 0.930 . S
H1697 C1707 0.930 . S
C1698 H1692 0.930 . S
C1698 C1699 1.355 . S
C1698 C1700 1.415 . S
C1699 C1698 1.355 . S
C1699 C1701 1.419 . S
C1700 C1698 1.415 . S
C1700 C1705 1.425 . S
C1700 C1707 1.409 . S
C1701 H1693 0.930 . S
C1701 C1699 1.419 . S
C1701 C1702 1.362 . S
C1702 H1694 0.930 . S
C1702 C1701 1.362 . S
C1702 C1705 1.409 . S
C1703 H1695 0.930 . S
C1703 C1704 1.355 . S
C1703 C1705 1.415 . S
C1704 C1703 1.355 . S
C1704 C1706 1.419 . S
C1705 C1700 1.425 . S
C1705 C1702 1.409 . S
C1705 C1703 1.415 . S
C1706 H1696 0.930 . S
C1706 C1704 1.419 . S
C1706 C1707 1.362 . S
C1707 H1697 0.930 . S
C1707 C1700 1.409 . S
C1707 C1706 1.362 . S
H1708 C1714 0.930 . S
H1709 C1717 0.930 . S
H1710 C1718 0.930 . S
H1711 C1719 0.930 . S
H1712 C1722 0.930 . S
H1713 C1723 0.930 . S
C1714 H1708 0.930 . S
C1714 C1715 1.355 . S
C1714 C1716 1.415 . S
C1715 C1714 1.355 . S
C1715 C1717 1.419 . S
C1716 C1714 1.415 . S
C1716 C1721 1.425 . S
C1716 C1723 1.409 . S
C1717 H1709 0.930 . S
C1717 C1715 1.419 . S
C1717 C1718 1.362 . S
C1718 H1710 0.930 . S
C1718 C1717 1.362 . S
C1718 C1721 1.409 . S
C1719 H1711 0.930 . S
C1719 C1720 1.355 . S
C1719 C1721 1.415 . S
C1720 C1719 1.355 . S
C1720 C1722 1.419 . S
C1721 C1716 1.425 . S
C1721 C1718 1.409 . S
C1721 C1719 1.415 . S
C1722 H1712 0.930 . S
C1722 C1720 1.419 . S
C1722 C1723 1.362 . S
C1723 H1713 0.930 . S
C1723 C1716 1.409 . S
C1723 C1722 1.362 . S
H1724 C1730 0.930 . S
H1725 C1733 0.930 . S
H1726 C1734 0.930 . S
H1727 C1735 0.930 . S
H1728 C1738 0.930 . S
H1729 C1739 0.930 . S
C1730 H1724 0.930 . S
C1730 C1731 1.355 . S
C1730 C1732 1.415 . S
C1731 C1730 1.355 . S
C1731 C1733 1.419 . S
C1732 C1730 1.415 . S
C1732 C1737 1.425 . S
C1732 C1739 1.409 . S
C1733 H1725 0.930 . S
C1733 C1731 1.419 . S
C1733 C1734 1.362 . S
C1734 H1726 0.930 . S
C1734 C1733 1.362 . S
C1734 C1737 1.409 . S
C1735 H1727 0.930 . S
C1735 C1736 1.355 . S
C1735 C1737 1.415 . S
C1736 C1735 1.355 . S
C1736 C1738 1.419 . S
C1737 C1732 1.425 . S
C1737 C1734 1.409 . S
C1737 C1735 1.415 . S
C1738 H1728 0.930 . S
C1738 C1736 1.419 . S
C1738 C1739 1.362 . S
C1739 H1729 0.930 . S
C1739 C1732 1.409 . S
C1739 C1738 1.362 . S
H1740 C1746 0.930 . S
H1741 C1749 0.930 . S
H1742 C1750 0.930 . S
H1743 C1751 0.930 . S
H1744 C1754 0.930 . S
H1745 C1755 0.930 . S
C1746 H1740 0.930 . S
C1746 C1747 1.355 . S
C1746 C1748 1.415 . S
C1747 C1746 1.355 . S
C1747 C1749 1.419 . S
C1748 C1746 1.415 . S
C1748 C1753 1.425 . S
C1748 C1755 1.409 . S
C1749 H1741 0.930 . S
C1749 C1747 1.419 . S
C1749 C1750 1.362 . S
C1750 H1742 0.930 . S
C1750 C1749 1.362 . S
C1750 C1753 1.409 . S
C1751 H1743 0.930 . S
C1751 C1752 1.355 . S
C1751 C1753 1.415 . S
C1752 C1751 1.355 . S
C1752 C1754 1.419 . S
C1753 C1748 1.425 . S
C1753 C1750 1.409 . S
C1753 C1751 1.415 . S
C1754 H1744 0.930 . S
C1754 C1752 1.419 . S
C1754 C1755 1.362 . S
C1755 H1745 0.930 . S
C1755 C1748 1.409 . S
C1755 C1754 1.362 . S
H1756 C1762 0.930 . S
H1757 C1765 0.930 . S
H1758 C1766 0.930 . S
H1759 C1767 0.930 . S
H1760 C1770 0.930 . S
H1761 C1771 0.930 . S
C1762 H1756 0.930 . S
C1762 C1763 1.355 . S
C1762 C1764 1.415 . S
C1763 C1762 1.355 . S
C1763 C1765 1.419 . S
C1764 C1762 1.415 . S
C1764 C1769 1.425 . S
C1764 C1771 1.409 . S
C1765 H1757 0.930 . S
C1765 C1763 1.419 . S
C1765 C1766 1.362 . S
C1766 H1758 0.930 . S
C1766 C1765 1.362 . S
C1766 C1769 1.409 . S
C1767 H1759 0.930 . S
C1767 C1768 1.355 . S
C1767 C1769 1.415 . S
C1768 C1767 1.355 . S
C1768 C1770 1.419 . S
C1769 C1764 1.425 . S
C1769 C1766 1.409 . S
C1769 C1767 1.415 . S
C1770 H1760 0.930 . S
C1770 C1768 1.419 . S
C1770 C1771 1.362 . S
C1771 H1761 0.930 . S
C1771 C1764 1.409 . S
C1771 C1770 1.362 . S
H1772 C1778 0.930 . S
H1773 C1781 0.930 . S
H1774 C1782 0.930 . S
H1775 C1783 0.930 . S
H1776 C1786 0.930 . S
H1777 C1787 0.930 . S
C1778 H1772 0.930 . S
C1778 C1779 1.355 . S
C1778 C1780 1.415 . S
C1779 C1778 1.355 . S
C1779 C1781 1.419 . S
C1780 C1778 1.415 . S
C1780 C1785 1.425 . S
C1780 C1787 1.409 . S
C1781 H1773 0.930 . S
C1781 C1779 1.419 . S
C1781 C1782 1.362 . S
C1782 H1774 0.930 . S
C1782 C1781 1.362 . S
C1782 C1785 1.409 . S
C1783 H1775 0.930 . S
C1783 C1784 1.355 . S
C1783 C1785 1.415 . S
C1784 C1783 1.355 . S
C1784 C1786 1.419 . S
C1785 C1780 1.425 . S
C1785 C1782 1.409 . S
C1785 C1783 1.415 . S
C1786 H1776 0.930 . S
C1786 C1784 1.419 . S
C1786 C1787 1.362 . S
C1787 H1777 0.930 . S
C1787 C1780 1.409 . S
C1787 C1786 1.362 . S
H1788 C1794 0.930 . S
H1789 C1797 0.930 . S
H1790 C1798 0.930 . S
H1791 C1799 0.930 . S
H1792 C1802 0.930 . S
H1793 C1803 0.930 . S
C1794 H1788 0.930 . S
C1794 C1795 1.355 1_655 S
C1794 C1796 1.415 . S
C1795 C1794 1.355 1_455 S
C1795 C1797 1.419 . S
C1796 C1794 1.415 . S
C1796 C1801 1.425 1_655 S
C1796 C1803 1.409 . S
C1797 H1789 0.930 . S
C1797 C1795 1.419 . S
C1797 C1798 1.362 . S
C1798 H1790 0.930 . S
C1798 C1797 1.362 . S
C1798 C1801 1.409 . S
C1799 H1791 0.930 . S
C1799 C1800 1.355 . S
C1799 C1801 1.415 . S
C1800 C1799 1.355 . S
C1800 C1802 1.419 1_455 S
C1801 C1796 1.425 1_455 S
C1801 C1798 1.409 . S
C1801 C1799 1.415 . S
C1802 H1792 0.930 . S
C1802 C1800 1.419 1_655 S
C1802 C1803 1.362 . S
C1803 H1793 0.930 . S
C1803 C1796 1.409 . S
C1803 C1802 1.362 . S
H1804 C1810 0.930 . S
H1805 C1813 0.930 . S
H1806 C1814 0.930 . S
H1807 C1815 0.930 . S
H1808 C1818 0.930 . S
H1809 C1819 0.930 . S
C1810 H1804 0.930 . S
C1810 C1811 1.355 . S
C1810 C1812 1.415 . S
C1811 C1810 1.355 . S
C1811 C1813 1.419 . S
C1812 C1810 1.415 . S
C1812 C1817 1.425 . S
C1812 C1819 1.409 . S
C1813 H1805 0.930 . S
C1813 C1811 1.419 . S
C1813 C1814 1.362 . S
C1814 H1806 0.930 . S
C1814 C1813 1.362 . S
C1814 C1817 1.409 . S
C1815 H1807 0.930 . S
C1815 C1816 1.355 . S
C1815 C1817 1.415 . S
C1816 C1815 1.355 . S
C1816 C1818 1.419 . S
C1817 C1812 1.425 . S
C1817 C1814 1.409 . S
C1817 C1815 1.415 . S
C1818 H1808 0.930 . S
C1818 C1816 1.419 . S
C1818 C1819 1.362 . S
C1819 H1809 0.930 . S
C1819 C1812 1.409 . S
C1819 C1818 1.362 . S
H1820 C1826 0.930 . S
H1821 C1829 0.930 1_545 S
H1822 C1830 0.937 . S
H1823 C1831 0.925 1_545 S
H1824 C1834 0.930 . S
H1825 C1835 0.930 . S
C1826 H1820 0.930 . S
C1826 C1827 1.355 . S
C1826 C1828 1.415 . S
C1827 C1826 1.355 . S
C1827 C1829 1.419 . S
C1828 C1826 1.415 . S
C1828 C1833 1.425 . S
C1828 C1835 1.409 . S
C1829 H1821 0.930 1_565 S
C1829 C1827 1.419 . S
C1829 C1830 1.369 1_565 S
C1830 H1822 0.937 . S
C1830 C1829 1.369 1_545 S
C1830 C1833 1.396 1_545 S
C1831 H1823 0.925 1_565 S
C1831 C1832 1.355 . S
C1831 C1833 1.415 . S
C1832 C1831 1.355 . S
C1832 C1834 1.419 . S
C1833 C1828 1.425 . S
C1833 C1830 1.396 1_565 S
C1833 C1831 1.415 . S
C1834 H1824 0.930 . S
C1834 C1832 1.419 . S
C1834 C1835 1.362 . S
C1835 H1825 0.930 . S
C1835 C1828 1.409 . S
C1835 C1834 1.362 . S
H1836 C1842 0.935 1_545 S
H1837 C1845 0.930 . S
H1838 C1846 0.930 . S
H1839 C1847 0.930 . S
H1840 C1850 0.930 . S
H1841 C1851 0.930 . S
C1842 H1836 0.935 1_565 S
C1842 C1843 1.355 . S
C1842 C1844 1.415 . S
C1843 C1842 1.355 . S
C1843 C1845 1.419 . S
C1844 C1842 1.415 . S
C1844 C1849 1.425 . S
C1844 C1851 1.409 1_565 S
C1845 H1837 0.930 . S
C1845 C1843 1.419 . S
C1845 C1846 1.362 . S
C1846 H1838 0.930 . S
C1846 C1845 1.362 . S
C1846 C1849 1.409 . S
C1847 H1839 0.930 . S
C1847 C1848 1.368 . S
C1847 C1849 1.415 . S
C1848 C1847 1.368 . S
C1848 C1850 1.426 1_565 S
C1849 C1844 1.425 . S
C1849 C1846 1.409 . S
C1849 C1847 1.415 . S
C1850 H1840 0.930 . S
C1850 C1848 1.426 1_545 S
C1850 C1851 1.362 . S
C1851 H1841 0.930 . S
C1851 C1844 1.409 1_545 S
C1851 C1850 1.362 . S
H1852 C1858 0.930 . S
H1853 C1861 0.930 . S
H1854 C1862 0.930 . S
H1855 C1863 0.930 . S
H1856 C1866 0.930 . S
H1857 C1867 0.930 . S
C1858 H1852 0.930 . S
C1858 C1859 1.355 . S
C1858 C1860 1.415 . S
C1859 C1858 1.355 . S
C1859 C1861 1.419 1_455 S
C1860 C1858 1.415 . S
C1860 C1865 1.425 1_455 S
C1860 C1867 1.409 . S
C1861 H1853 0.930 . S
C1861 C1859 1.419 1_655 S
C1861 C1862 1.362 . S
C1862 H1854 0.930 . S
C1862 C1861 1.362 . S
C1862 C1865 1.409 . S
C1863 H1855 0.930 . S
C1863 C1864 1.355 1_655 S
C1863 C1865 1.415 . S
C1864 C1863 1.355 1_455 S
C1864 C1866 1.419 . S
C1865 C1860 1.425 1_655 S
C1865 C1862 1.409 . S
C1865 C1863 1.415 . S
C1866 H1856 0.930 . S
C1866 C1864 1.419 . S
C1866 C1867 1.362 . S
C1867 H1857 0.930 . S
C1867 C1860 1.409 . S
C1867 C1866 1.362 . S
H1868 C1874 0.930 . S
H1869 C1877 0.930 . S
H1870 C1878 0.930 . S
H1871 C1879 0.930 . S
H1872 C1882 0.930 . S
H1873 C1883 0.930 . S
C1874 H1868 0.930 . S
C1874 C1875 1.355 . S
C1874 C1876 1.415 . S
C1875 C1874 1.355 . S
C1875 C1877 1.419 . S
C1876 C1874 1.415 . S
C1876 C1881 1.425 . S
C1876 C1883 1.409 . S
C1877 H1869 0.930 . S
C1877 C1875 1.419 . S
C1877 C1878 1.362 . S
C1878 H1870 0.930 . S
C1878 C1877 1.362 . S
C1878 C1881 1.409 . S
C1879 H1871 0.930 . S
C1879 C1880 1.355 . S
C1879 C1881 1.415 . S
C1880 C1879 1.355 . S
C1880 C1882 1.419 . S
C1881 C1876 1.425 . S
C1881 C1878 1.409 . S
C1881 C1879 1.415 . S
C1882 H1872 0.930 . S
C1882 C1880 1.419 . S
C1882 C1883 1.362 . S
C1883 H1873 0.930 . S
C1883 C1876 1.409 . S
C1883 C1882 1.362 . S
H1884 C1890 0.930 . S
H1885 C1893 0.930 . S
H1886 C1894 0.930 . S
H1887 C1895 0.930 . S
H1888 C1898 0.930 . S
H1889 C1899 0.930 . S
C1890 H1884 0.930 . S
C1890 C1891 1.355 . S
C1890 C1892 1.415 . S
C1891 C1890 1.355 . S
C1891 C1893 1.419 . S
C1892 C1890 1.415 . S
C1892 C1897 1.425 . S
C1892 C1899 1.409 . S
C1893 H1885 0.930 . S
C1893 C1891 1.419 . S
C1893 C1894 1.362 . S
C1894 H1886 0.930 . S
C1894 C1893 1.362 . S
C1894 C1897 1.409 . S
C1895 H1887 0.930 . S
C1895 C1896 1.355 . S
C1895 C1897 1.415 . S
C1896 C1895 1.355 . S
C1896 C1898 1.419 . S
C1897 C1892 1.425 . S
C1897 C1894 1.409 . S
C1897 C1895 1.415 . S
C1898 H1888 0.930 . S
C1898 C1896 1.419 . S
C1898 C1899 1.362 . S
C1899 H1889 0.930 . S
C1899 C1892 1.409 . S
C1899 C1898 1.362 . S
H1900 C1906 0.930 . S
H1901 C1909 0.930 . S
H1902 C1910 0.930 . S
H1903 C1911 0.930 . S
H1904 C1914 0.930 . S
H1905 C1915 0.930 . S
C1906 H1900 0.930 . S
C1906 C1907 1.355 . S
C1906 C1908 1.415 . S
C1907 C1906 1.355 . S
C1907 C1909 1.419 . S
C1908 C1906 1.415 . S
C1908 C1913 1.425 . S
C1908 C1915 1.409 . S
C1909 H1901 0.930 . S
C1909 C1907 1.419 . S
C1909 C1910 1.362 . S
C1910 H1902 0.930 . S
C1910 C1909 1.362 . S
C1910 C1913 1.409 . S
C1911 H1903 0.930 . S
C1911 C1912 1.355 . S
C1911 C1913 1.415 . S
C1912 C1911 1.355 . S
C1912 C1914 1.419 . S
C1913 C1908 1.425 . S
C1913 C1910 1.409 . S
C1913 C1911 1.415 . S
C1914 H1904 0.930 . S
C1914 C1912 1.419 . S
C1914 C1915 1.362 . S
C1915 H1905 0.930 . S
C1915 C1908 1.409 . S
C1915 C1914 1.362 . S
H1916 C1922 0.930 . S
H1917 C1925 0.930 . S
H1918 C1926 0.930 . S
H1919 C1927 0.930 . S
H1920 C1930 0.930 . S
H1921 C1931 0.930 . S
C1922 H1916 0.930 . S
C1922 C1923 1.355 . S
C1922 C1924 1.415 . S
C1923 C1922 1.355 . S
C1923 C1925 1.419 . S
C1924 C1922 1.415 . S
C1924 C1929 1.425 . S
C1924 C1931 1.409 . S
C1925 H1917 0.930 . S
C1925 C1923 1.419 . S
C1925 C1926 1.362 . S
C1926 H1918 0.930 . S
C1926 C1925 1.362 . S
C1926 C1929 1.409 . S
C1927 H1919 0.930 . S
C1927 C1928 1.355 . S
C1927 C1929 1.415 . S
C1928 C1927 1.355 . S
C1928 C1930 1.419 . S
C1929 C1924 1.425 . S
C1929 C1926 1.409 . S
C1929 C1927 1.415 . S
C1930 H1920 0.930 . S
C1930 C1928 1.419 . S
C1930 C1931 1.362 . S
C1931 H1921 0.930 . S
C1931 C1924 1.409 . S
C1931 C1930 1.362 . S
H1932 C1938 0.921 1_565 S
H1933 C1941 0.930 . S
H1934 C1942 0.930 . S
H1935 C1943 0.930 . S
H1936 C1946 0.930 . S
H1937 C1947 0.930 . S
C1938 H1932 0.921 1_545 S
C1938 C1939 1.369 . S
C1938 C1940 1.408 . S
C1939 C1938 1.369 . S
C1939 C1941 1.419 . S
C1940 C1938 1.408 . S
C1940 C1945 1.425 . S
C1940 C1947 1.409 1_545 S
C1941 H1933 0.930 . S
C1941 C1939 1.419 . S
C1941 C1942 1.362 . S
C1942 H1934 0.930 . S
C1942 C1941 1.362 . S
C1942 C1945 1.409 . S
C1943 H1935 0.930 . S
C1943 C1944 1.355 . S
C1943 C1945 1.415 . S
C1944 C1943 1.355 . S
C1944 C1946 1.419 1_545 S
C1945 C1940 1.425 . S
C1945 C1942 1.409 . S
C1945 C1943 1.415 . S
C1946 H1936 0.930 . S
C1946 C1944 1.419 1_565 S
C1946 C1947 1.362 . S
C1947 H1937 0.930 . S
C1947 C1940 1.409 1_565 S
C1947 C1946 1.362 . S
H1948 C1954 0.930 . S
H1949 C1957 0.930 . S
H1950 C1958 0.930 1_455 S
H1951 C1959 0.944 . S
H1952 C1962 0.930 . S
H1953 C1963 0.930 . S
C1954 H1948 0.930 . S
C1954 C1955 1.355 . S
C1954 C1956 1.415 . S
C1955 C1954 1.355 . S
C1955 C1957 1.419 . S
C1956 C1954 1.415 . S
C1956 C1961 1.425 . S
C1956 C1963 1.409 . S
C1957 H1949 0.930 . S
C1957 C1955 1.419 . S
C1957 C1958 1.362 . S
C1958 H1950 0.930 1_655 S
C1958 C1957 1.362 . S
C1958 C1961 1.409 . S
C1959 H1951 0.944 . S
C1959 C1960 1.355 . S
C1959 C1961 1.415 . S
C1960 C1959 1.355 . S
C1960 C1962 1.419 . S
C1961 C1956 1.425 . S
C1961 C1958 1.409 . S
C1961 C1959 1.415 . S
C1962 H1952 0.930 . S
C1962 C1960 1.419 . S
C1962 C1963 1.362 . S
C1963 H1953 0.930 . S
C1963 C1956 1.409 . S
C1963 C1962 1.362 . S
H1964 C1970 0.930 . S
H1965 C1973 0.930 . S
H1966 C1974 0.930 . S
H1967 C1975 0.930 . S
H1968 C1978 0.930 . S
H1969 C1979 0.930 . S
C1970 H1964 0.930 . S
C1970 C1971 1.355 . S
C1970 C1972 1.415 . S
C1971 C1970 1.355 . S
C1971 C1973 1.419 . S
C1972 C1970 1.415 . S
C1972 C1977 1.425 . S
C1972 C1979 1.409 . S
C1973 H1965 0.930 . S
C1973 C1971 1.419 . S
C1973 C1974 1.362 . S
C1974 H1966 0.930 . S
C1974 C1973 1.362 . S
C1974 C1977 1.409 . S
C1975 H1967 0.930 . S
C1975 C1976 1.355 . S
C1975 C1977 1.415 . S
C1976 C1975 1.355 . S
C1976 C1978 1.419 . S
C1977 C1972 1.425 . S
C1977 C1974 1.409 . S
C1977 C1975 1.415 . S
C1978 H1968 0.930 . S
C1978 C1976 1.419 . S
C1978 C1979 1.362 . S
C1979 H1969 0.930 . S
C1979 C1972 1.409 . S
C1979 C1978 1.362 . S
H1980 C1986 0.930 . S
H1981 C1989 0.930 . S
H1982 C1990 0.930 . S
H1983 C1991 0.930 . S
H1984 C1994 0.930 . S
H1985 C1995 0.930 . S
C1986 H1980 0.930 . S
C1986 C1987 1.355 . S
C1986 C1988 1.415 . S
C1987 C1986 1.355 . S
C1987 C1989 1.419 . S
C1988 C1986 1.415 . S
C1988 C1993 1.425 . S
C1988 C1995 1.409 . S
C1989 H1981 0.930 . S
C1989 C1987 1.419 . S
C1989 C1990 1.362 . S
C1990 H1982 0.930 . S
C1990 C1989 1.362 . S
C1990 C1993 1.409 . S
C1991 H1983 0.930 . S
C1991 C1992 1.355 . S
C1991 C1993 1.415 . S
C1992 C1991 1.355 . S
C1992 C1994 1.419 . S
C1993 C1988 1.425 . S
C1993 C1990 1.409 . S
C1993 C1991 1.415 . S
C1994 H1984 0.930 . S
C1994 C1992 1.419 . S
C1994 C1995 1.362 . S
C1995 H1985 0.930 . S
C1995 C1988 1.409 . S
C1995 C1994 1.362 . S
H1996 C2002 0.930 . S
H1997 C2005 0.930 . S
H1998 C2006 0.930 . S
H1999 C2007 0.930 . S
H2000 C2010 0.930 . S
H2001 C2011 0.930 . S
C2002 H1996 0.930 . S
C2002 C2003 1.355 . S
C2002 C2004 1.415 . S
C2003 C2002 1.355 . S
C2003 C2005 1.419 . S
C2004 C2002 1.415 . S
C2004 C2009 1.425 . S
C2004 C2011 1.409 . S
C2005 H1997 0.930 . S
C2005 C2003 1.419 . S
C2005 C2006 1.362 . S
C2006 H1998 0.930 . S
C2006 C2005 1.362 . S
C2006 C2009 1.409 . S
C2007 H1999 0.930 . S
C2007 C2008 1.355 . S
C2007 C2009 1.415 . S
C2008 C2007 1.355 . S
C2008 C2010 1.419 . S
C2009 C2004 1.425 . S
C2009 C2006 1.409 . S
C2009 C2007 1.415 . S
C2010 H2000 0.930 . S
C2010 C2008 1.419 . S
C2010 C2011 1.362 . S
C2011 H2001 0.930 . S
C2011 C2004 1.409 . S
C2011 C2010 1.362 . S
H2012 C2018 0.930 . S
H2013 C2021 0.930 . S
H2014 C2022 0.930 . S
H2015 C2023 0.930 . S
H2016 C2026 0.930 . S
H2017 C2027 0.930 . S
C2018 H2012 0.930 . S
C2018 C2019 1.355 . S
C2018 C2020 1.415 . S
C2019 C2018 1.355 . S
C2019 C2021 1.419 . S
C2020 C2018 1.415 . S
C2020 C2025 1.425 . S
C2020 C2027 1.409 . S
C2021 H2013 0.930 . S
C2021 C2019 1.419 . S
C2021 C2022 1.362 . S
C2022 H2014 0.930 . S
C2022 C2021 1.362 . S
C2022 C2025 1.409 . S
C2023 H2015 0.930 . S
C2023 C2024 1.355 . S
C2023 C2025 1.415 . S
C2024 C2023 1.355 . S
C2024 C2026 1.419 . S
C2025 C2020 1.425 . S
C2025 C2022 1.409 . S
C2025 C2023 1.415 . S
C2026 H2016 0.930 . S
C2026 C2024 1.419 . S
C2026 C2027 1.362 . S
C2027 H2017 0.930 . S
C2027 C2020 1.409 . S
C2027 C2026 1.362 . S
H2028 C2034 0.930 . S
H2029 C2037 0.930 . S
H2030 C2038 0.930 . S
H2031 C2039 0.930 . S
H2032 C2042 0.930 . S
H2033 C2043 0.930 . S
C2034 H2028 0.930 . S
C2034 C2035 1.355 . S
C2034 C2036 1.415 . S
C2035 C2034 1.355 . S
C2035 C2037 1.419 . S
C2036 C2034 1.415 . S
C2036 C2041 1.425 . S
C2036 C2043 1.409 . S
C2037 H2029 0.930 . S
C2037 C2035 1.419 . S
C2037 C2038 1.362 . S
C2038 H2030 0.930 . S
C2038 C2037 1.362 . S
C2038 C2041 1.409 . S
C2039 H2031 0.930 . S
C2039 C2040 1.355 . S
C2039 C2041 1.415 . S
C2040 C2039 1.355 . S
C2040 C2042 1.419 . S
C2041 C2036 1.425 . S
C2041 C2038 1.409 . S
C2041 C2039 1.415 . S
C2042 H2032 0.930 . S
C2042 C2040 1.419 . S
C2042 C2043 1.362 . S
C2043 H2033 0.930 . S
C2043 C2036 1.409 . S
C2043 C2042 1.362 . S
H2044 C2050 0.930 . S
H2045 C2053 0.930 . S
H2046 C2054 0.930 . S
H2047 C2055 0.930 . S
H2048 C2058 0.930 . S
H2049 C2059 0.930 . S
C2050 H2044 0.930 . S
C2050 C2051 1.355 . S
C2050 C2052 1.415 . S
C2051 C2050 1.355 . S
C2051 C2053 1.419 . S
C2052 C2050 1.415 . S
C2052 C2057 1.425 . S
C2052 C2059 1.409 . S
C2053 H2045 0.930 . S
C2053 C2051 1.419 . S
C2053 C2054 1.362 . S
C2054 H2046 0.930 . S
C2054 C2053 1.362 . S
C2054 C2057 1.409 . S
C2055 H2047 0.930 . S
C2055 C2056 1.355 . S
C2055 C2057 1.415 . S
C2056 C2055 1.355 . S
C2056 C2058 1.419 . S
C2057 C2052 1.425 . S
C2057 C2054 1.409 . S
C2057 C2055 1.415 . S
C2058 H2048 0.930 . S
C2058 C2056 1.419 . S
C2058 C2059 1.362 . S
C2059 H2049 0.930 . S
C2059 C2052 1.409 . S
C2059 C2058 1.362 . S
H2060 C2066 0.930 . S
H2061 C2069 0.930 . S
H2062 C2070 0.930 . S
H2063 C2071 0.930 . S
H2064 C2074 0.930 . S
H2065 C2075 0.930 . S
C2066 H2060 0.930 . S
C2066 C2067 1.355 . S
C2066 C2068 1.415 . S
C2067 C2066 1.355 . S
C2067 C2069 1.419 . S
C2068 C2066 1.415 . S
C2068 C2073 1.425 . S
C2068 C2075 1.409 . S
C2069 H2061 0.930 . S
C2069 C2067 1.419 . S
C2069 C2070 1.362 . S
C2070 H2062 0.930 . S
C2070 C2069 1.362 . S
C2070 C2073 1.409 . S
C2071 H2063 0.930 . S
C2071 C2072 1.355 . S
C2071 C2073 1.415 . S
C2072 C2071 1.355 . S
C2072 C2074 1.419 . S
C2073 C2068 1.425 . S
C2073 C2070 1.409 . S
C2073 C2071 1.415 . S
C2074 H2064 0.930 . S
C2074 C2072 1.419 . S
C2074 C2075 1.362 . S
C2075 H2065 0.930 . S
C2075 C2068 1.409 . S
C2075 C2074 1.362 . S
H2076 C2082 0.930 . S
H2077 C2085 0.930 . S
H2078 C2086 0.930 . S
H2079 C2087 0.930 . S
H2080 C2090 0.930 . S
H2081 C2091 0.930 . S
C2082 H2076 0.930 . S
C2082 C2083 1.355 . S
C2082 C2084 1.415 . S
C2083 C2082 1.355 . S
C2083 C2085 1.419 1_655 S
C2084 C2082 1.415 . S
C2084 C2089 1.425 1_655 S
C2084 C2091 1.409 . S
C2085 H2077 0.930 . S
C2085 C2083 1.419 1_455 S
C2085 C2086 1.362 . S
C2086 H2078 0.930 . S
C2086 C2085 1.362 . S
C2086 C2089 1.409 . S
C2087 H2079 0.930 . S
C2087 C2088 1.355 1_455 S
C2087 C2089 1.415 . S
C2088 C2087 1.355 1_655 S
C2088 C2090 1.419 . S
C2089 C2084 1.425 1_455 S
C2089 C2086 1.409 . S
C2089 C2087 1.415 . S
C2090 H2080 0.930 . S
C2090 C2088 1.419 . S
C2090 C2091 1.362 . S
C2091 H2081 0.930 . S
C2091 C2084 1.409 . S
C2091 C2090 1.362 . S
H2092 C2098 0.930 . S
H2093 C2101 0.930 . S
H2094 C2102 0.930 . S
H2095 C2103 0.930 . S
H2096 C2106 0.930 . S
H2097 C2107 0.930 . S
C2098 H2092 0.930 . S
C2098 C2099 1.355 . S
C2098 C2100 1.415 . S
C2099 C2098 1.355 . S
C2099 C2101 1.419 . S
C2100 C2098 1.415 . S
C2100 C2105 1.425 . S
C2100 C2107 1.409 . S
C2101 H2093 0.930 . S
C2101 C2099 1.419 . S
C2101 C2102 1.362 . S
C2102 H2094 0.930 . S
C2102 C2101 1.362 . S
C2102 C2105 1.409 . S
C2103 H2095 0.930 . S
C2103 C2104 1.355 . S
C2103 C2105 1.415 . S
C2104 C2103 1.355 . S
C2104 C2106 1.419 . S
C2105 C2100 1.425 . S
C2105 C2102 1.409 . S
C2105 C2103 1.415 . S
C2106 H2096 0.930 . S
C2106 C2104 1.419 . S
C2106 C2107 1.362 . S
C2107 H2097 0.930 . S
C2107 C2100 1.409 . S
C2107 C2106 1.362 . S
H2108 C2114 0.930 . S
H2109 C2117 0.930 . S
H2110 C2118 0.930 . S
H2111 C2119 0.930 . S
H2112 C2122 0.930 . S
H2113 C2123 0.930 . S
C2114 H2108 0.930 . S
C2114 C2115 1.355 1_565 S
C2114 C2116 1.438 . S
C2115 C2114 1.355 1_545 S
C2115 C2117 1.419 . S
C2116 C2114 1.438 . S
C2116 C2121 1.395 1_565 S
C2116 C2123 1.416 . S
C2117 H2109 0.930 . S
C2117 C2115 1.419 . S
C2117 C2118 1.362 . S
C2118 H2110 0.930 . S
C2118 C2117 1.362 . S
C2118 C2121 1.409 . S
C2119 H2111 0.930 . S
C2119 C2120 1.354 . S
C2119 C2121 1.415 . S
C2120 C2119 1.354 . S
C2120 C2122 1.422 1_545 S
C2121 C2116 1.395 1_545 S
C2121 C2118 1.409 . S
C2121 C2119 1.415 . S
C2122 H2112 0.930 . S
C2122 C2120 1.422 1_565 S
C2122 C2123 1.362 . S
C2123 H2113 0.930 . S
C2123 C2116 1.416 . S
C2123 C2122 1.362 . S
C979 C4 1.477 1_655 S
C984 C817 1.462 . S
C995 C38 1.673 . S
C1000 C842 1.678 . S
C1016 C853 1.485 . S
C1011 C74 1.483 . S
C1027 C76 1.479 . S
C1032 C878 1.463 . S
C1043 C2 1.600 . S
C1048 C896 1.627 . S
C1059 C40 1.533 . S
C1064 C907 1.483 . S
C1075 C110 1.583 . S
C1080 C889 1.584 . S
C1096 C914 1.497 . S
C1091 C148 1.498 . S
C1112 C871 1.514 1_565 S
C1107 C182 1.528 1_565 S
C1123 C184 1.534 . S
C1128 C860 1.519 . S
C1144 C824 1.479 . S
C1139 C112 1.488 1_655 S
C1155 C146 1.565 . S
C1160 C835 1.554 . S
C1171 C220 1.571 . S
C1176 C925 1.521 . S
C1187 C254 1.725 . S
C1192 C950 1.690 . S
C1208 C961 1.594 . S
C1203 C290 1.615 . S
C1219 C292 1.553 . S
C1224 C662 1.524 . S
C1235 C218 1.635 . S
C1240 C680 1.634 . S
C1251 C256 1.547 . S
C1256 C691 1.497 . S
C1267 C326 1.628 . S
C1272 C673 1.624 . S
C1283 C364 1.519 . S
C1288 C698 1.486 . S
C1304 C655 1.619 . S
C1299 C398 1.600 . S
C1320 C968 1.582 . S
C1315 C400 1.597 . S
C1336 C932 1.464 . S
C1331 C328 1.489 . S
C1352 C943 1.620 . S
C1347 C362 1.638 . S
C1363 C436 1.561 . S
C1368 C709 1.515 . S
C1379 C470 1.711 . S
C1384 C734 1.674 . S
C1395 C506 1.605 . S
C1400 C745 1.603 . S
C1411 C508 1.579 . S
C1416 C770 1.573 . S
C1432 C788 1.619 . S
C1427 C434 1.652 . S
C1448 C799 1.549 . S
C1443 C472 1.562 . S
C1464 C781 1.619 . S
C1459 C542 1.624 . S
C1480 C806 1.505 . S
C1475 C580 1.532 . S
C1491 C614 1.571 . S
C1496 C763 1.575 . S
C1512 C752 1.531 . S
C1507 C616 1.519 . S
C1523 C544 1.459 . S
C1528 C716 1.460 . S
C1544 C727 1.579 . S
C1539 C578 1.574 . S
C1560 C664 1.470 . S
C1555 C14 1.503 . S
C1571 C39 1.470 . S
C1576 C682 1.388 . S
C1592 C692 1.354 . S
C1587 C75 1.456 . S
C1608 C710 1.353 . S
C1603 C86 1.388 . S
C1624 C736 1.441 . S
C1619 C3 1.495 . S
C1640 C746 1.411 . S
C1635 C50 1.470 . S
C1651 C111 1.519 . S
C1656 C754 1.388 . S
C1667 C158 1.411 . S
C1672 C718 1.380 . S
C1683 C183 1.583 . S
C1688 C728 1.512 . S
C1699 C194 1.479 . S
C1704 C674 1.501 . S
C1720 C700 1.381 . S
C1715 C122 1.462 . S
C1731 C147 1.446 . S
C1736 C656 1.341 . S
C1752 C772 1.474 . S
C1747 C230 1.462 . S
C1763 C255 1.535 . S
C1768 C790 1.468 . S
C1779 C291 1.475 . S
C1784 C800 1.368 . S
C1800 C818 1.288 . S
C1795 C302 1.283 . S
C1811 C219 1.489 . S
C1816 C844 1.392 . S
C1827 C266 1.408 . S
C1832 C854 1.438 . S
C1843 C327 1.407 . S
C1848 C862 1.276 . S
C1859 C374 1.399 . S
C1864 C826 1.375 . S
C1880 C836 1.478 . S
C1875 C399 1.578 . S
C1891 C410 1.495 . S
C1896 C782 1.437 . S
C1907 C338 1.470 . S
C1912 C808 1.394 . S
C1928 C764 1.386 . S
C1923 C363 1.498 . S
C1944 C880 1.427 . S
C1939 C446 1.372 . S
C1955 C471 1.459 . S
C1960 C898 1.425 . S
C1971 C507 1.440 . S
C1976 C908 1.336 . S
C1992 C926 1.309 . S
C1987 C518 1.402 . S
C2008 C952 1.430 . S
C2003 C435 1.532 . S
C2019 C482 1.449 . S
C2024 C962 1.492 . S
C2035 C543 1.502 . S
C2040 C970 1.438 . S
C2051 C590 1.461 . S
C2056 C934 1.413 . S
C2072 C944 1.495 . S
C2067 C615 1.605 . S
C2088 C890 1.381 1_655 S
C2083 C626 1.445 . S
C2104 C916 1.409 . S
C2099 C554 1.477 . S
C2115 C579 1.405 . S
C2120 C872 1.323 1_545 S
