# Generated by pormake.
# Topology pth, (4,4)-cn, num edge types: 1
# Building blocks:
#     Node 0, Type 0, BuildingBlock: UXUYUI_clean_sbu_0, # of connection points: 4
#     Node 1, Type 0, BuildingBlock: UXUYUI_clean_sbu_0, # of connection points: 4
#     Node 2, Type 0, BuildingBlock: UXUYUI_clean_sbu_0, # of connection points: 4
#     Node 3, Type 1, BuildingBlock: AZAVOO_clean_linker_0, # of connection points: 4
#     Node 4, Type 1, BuildingBlock: AZAVOO_clean_linker_0, # of connection points: 4
#     Node 5, Type 1, BuildingBlock: AZAVOO_clean_linker_0, # of connection points: 4
#     Edge 6, Type (0, 1), BuildingBlock: EZIPEK_clean_linker_0, # of connection points: 2
#     Edge 7, Type (0, 1), BuildingBlock: EZIPEK_clean_linker_0, # of connection points: 2
#     Edge 8, Type (0, 1), BuildingBlock: EZIPEK_clean_linker_0, # of connection points: 2
#     Edge 9, Type (0, 1), BuildingBlock: EZIPEK_clean_linker_0, # of connection points: 2
#     Edge 10, Type (0, 1), BuildingBlock: EZIPEK_clean_linker_0, # of connection points: 2
#     Edge 11, Type (0, 1), BuildingBlock: EZIPEK_clean_linker_0, # of connection points: 2
#     Edge 12, Type (0, 1), BuildingBlock: EZIPEK_clean_linker_0, # of connection points: 2
#     Edge 13, Type (0, 1), BuildingBlock: EZIPEK_clean_linker_0, # of connection points: 2
#     Edge 14, Type (0, 1), BuildingBlock: EZIPEK_clean_linker_0, # of connection points: 2
#     Edge 15, Type (0, 1), BuildingBlock: EZIPEK_clean_linker_0, # of connection points: 2
#     Edge 16, Type (0, 1), BuildingBlock: EZIPEK_clean_linker_0, # of connection points: 2
#     Edge 17, Type (0, 1), BuildingBlock: EZIPEK_clean_linker_0, # of connection points: 2
# Relax obj value: 0.184
# Max RMSD: 0.234
# Mean RMSD: 0.228
data_MOF--net-pth--node1-UXUYUI_clean_sbu_0--node2-AZAVOO_clean_linker_0--edge1-EZIPEK_clean_linker_0
_symmetry_space_group_name_H-M    P1
_symmetry_Int_Tables_number       1
_symmetry_cell_setting            triclinic
loop_
_symmetry_equiv_pos_as_xyz
'x, y, z'
_cell_length_a     25.459003
_cell_length_b     25.474399
_cell_length_c     68.577822
_cell_angle_alpha  91.211978
_cell_angle_beta   88.974371
_cell_angle_gamma 119.994
loop_
_atom_site_label
_atom_site_type_symbol
_atom_site_fract_x
_atom_site_fract_y
_atom_site_fract_z
_atom_type_partial_charge
Li0 Li 0.12396 0.09978 0.06229 0.0
Li1 Li 0.04361 0.0761 0.08659 0.0
Li2 Li 0.07578 0.00369 0.08017 0.0
Li3 Li 0.01967 0.02717 0.05605 0.0
C4 C 0.16296 0.13757 0.10085 0.0
N5 N 0.23811 0.24154 0.12191 0.0
C6 C 0.16644 0.19252 0.09635 0.0
C7 C 0.19755 0.13547 0.11609 0.0
C8 C 0.20483 0.24459 0.10714 0.0
C9 C 0.23528 0.18853 0.12656 0.0
C10 C 0.02821 0.13359 0.04787 0.0
C11 C 0.93807 0.12554 0.03389 0.0
N12 N 0.97305 0.16877 0.02076 0.0
C13 C 0.06326 0.17886 0.0345 0.0
C14 C 0.96515 0.10764 0.04781 0.0
C15 C 0.03455 0.19568 0.02082 0.0
C16 C 0.18809 0.15651 0.0297 0.0
N17 N 0.19605 0.15547 0.04918 0.0
C18 C 0.30152 0.22816 0.04599 0.0
C19 C 0.25157 0.18925 0.05747 0.0
C20 C 0.29348 0.23187 0.02598 0.0
C21 C 0.23625 0.1951 0.01779 0.0
H22 H 0.14386 0.12751 0.02347 0.0
H23 H 0.25734 0.1858 0.07286 0.0
C24 C 0.03246 0.09287 0.12616 0.0
N25 N 0.02356 0.10962 0.10838 0.0
C26 C 0.02947 0.12288 0.14299 0.0
C27 C 0.00511 0.18477 0.12293 0.0
C28 C 0.00888 0.15368 0.10643 0.0
C29 C 0.0171 0.17029 0.14135 0.0
H30 H 0.04495 0.05822 0.12714 0.0
H31 H 0.00305 0.16656 0.09205 0.0
C32 C 0.13746 0.00702 0.04575 0.0
N33 N 0.23087 0.98836 0.03349 0.0
C34 C 0.13409 0.97868 0.02778 0.0
C35 C 0.18844 0.02612 0.05747 0.0
C36 C 0.18176 0.96957 0.02185 0.0
C37 C 0.23515 0.0162 0.05101 0.0
C38 C 0.94876 0.97055 0.09637 0.0
C39 C 0.94512 0.93021 0.11055 0.0
C40 C 0.90862 0.993 0.0973 0.0
C41 C 0.90296 0.91472 0.12578 0.0
C42 C 0.86719 0.97659 0.11278 0.0
N43 N 0.8653 0.93818 0.1266 0.0
C44 C 0.095 0.95622 0.11249 0.0
C45 C 0.09519 0.90159 0.08404 0.0
C46 C 0.10269 0.91693 0.12427 0.0
N47 N 0.09028 0.94731 0.09287 0.0
C48 C 0.10474 0.86198 0.0953 0.0
C49 C 0.10724 0.86896 0.1157 0.0
H50 H 0.09094 0.99305 0.11902 0.0
H51 H 0.09133 0.89565 0.06837 0.0
C52 C 0.99465 0.00791 0.01669 0.0
N53 N 0.9673 0.99393 0.03453 0.0
C54 C 0.96168 0.97892 -2e-05 0.0
C55 C 0.87225 0.92396 0.02028 0.0
C56 C 0.90711 0.95384 0.03665 0.0
C57 C 0.90019 0.93541 0.00181 0.0
H58 H 0.04275 0.03965 0.01557 0.0
H59 H 0.88691 0.94337 0.05108 0.0
O60 O 0.12543 0.08576 0.09062 0.0
O61 O 0.05573 0.11656 0.06137 0.0
O62 O 0.09149 0.017 0.05157 0.0
O63 O 0.99024 0.98656 0.08142 0.0
H64 H 0.13997 0.19507 0.08464 0.0
H65 H 0.19531 0.09328 0.11976 0.0
H66 H 0.208 0.28742 0.10383 0.0
H67 H 0.26233 0.18758 0.13839 0.0
H68 H 0.88925 0.10508 0.03353 0.0
H69 H 0.11217 0.20158 0.03484 0.0
H70 H 0.93725 0.0733 0.05817 0.0
H71 H 0.06121 0.23041 0.01033 0.0
H72 H 0.34562 0.25538 0.05259 0.0
H73 H 0.22897 0.19641 0.00233 0.0
H74 H 0.03963 0.11134 0.157 0.0
H75 H 0.99615 0.22176 0.12128 0.0
H76 H 0.09505 0.96395 0.01851 0.0
H77 H 0.19205 0.04845 0.07137 0.0
H78 H 0.17975 0.94764 0.00798 0.0
H79 H 0.27483 0.0307 0.05992 0.0
H80 H 0.97391 0.91035 0.10972 0.0
H81 H 0.91004 0.02361 0.08642 0.0
H82 H 0.89999 0.88381 0.13689 0.0
H83 H 0.83656 0.99442 0.1138 0.0
H84 H 0.10465 0.9236 0.13996 0.0
H85 H 0.1086 0.82553 0.0883 0.0
H86 H 0.98445 0.98809 0.98593 0.0
H87 H 0.82489 0.89003 0.02208 0.0
Li88 Li 0.05082 0.97905 0.39732 0.0
Li89 Li 0.12604 0.06497 0.41809 0.0
Li90 Li 0.02073 0.02627 0.42264 0.0
Li91 Li 0.06727 0.08581 0.39436 0.0
C92 C 0.03129 0.94179 0.43995 0.0
N93 N 0.96062 0.86428 0.4692 0.0
C94 C 0.05595 0.94547 0.45831 0.0
C95 C 0.97088 0.89801 0.43639 0.0
C96 C 0.01944 0.90607 0.47293 0.0
C97 C 0.93585 0.85941 0.45138 0.0
C98 C 0.17431 0.05884 0.38018 0.0
C99 C 0.26028 0.10768 0.35839 0.0
N100 N 0.27441 0.06392 0.36203 0.0
C101 C 0.18957 0.01429 0.38372 0.0
C102 C 0.20974 0.10583 0.36739 0.0
C103 C 0.24039 0.01767 0.37438 0.0
C104 C 0.05083 0.91463 0.36361 0.0
N105 N 0.03762 0.90878 0.383 0.0
C106 C 0.01485 0.80559 0.38193 0.0
C107 C 0.01994 0.8557 0.39227 0.0
C108 C 0.03003 0.81104 0.36206 0.0
C109 C 0.04769 0.8661 0.3528 0.0
H110 H 0.06538 0.95757 0.35667 0.0
H111 H 0.01119 0.85243 0.40775 0.0
C112 C 0.18983 0.0964 0.45164 0.0
N113 N 0.1993 0.09586 0.43211 0.0
C114 C 0.2362 0.10889 0.46459 0.0
C115 C 0.30343 0.12635 0.43704 0.0
C116 C 0.25516 0.11238 0.42456 0.0
C117 C 0.29322 0.12232 0.45729 0.0
H118 H 0.14526 0.08469 0.45714 0.0
H119 H 0.26209 0.11324 0.40898 0.0
C120 C 0.93386 0.99826 0.39412 0.0
N121 N 0.81831 0.98156 0.39191 0.0
C122 C 0.92372 0.04635 0.39841 0.0
C123 C 0.88544 0.94179 0.38862 0.0
C124 C 0.86489 0.03695 0.39723 0.0
C125 C 0.82729 0.93424 0.38761 0.0
C126 C 0.12639 0.17267 0.4235 0.0
C127 C 0.11858 0.20949 0.43727 0.0
C128 C 0.17745 0.19783 0.41127 0.0
C129 C 0.16188 0.27106 0.43851 0.0
C130 C 0.21974 0.25959 0.41297 0.0
N131 N 0.21114 0.29463 0.42643 0.0
C132 C 0.99085 0.05052 0.45906 0.0
C133 C 0.90375 0.97496 0.44257 0.0
C134 C 0.95556 0.04944 0.47496 0.0
N135 N 0.96454 0.0145 0.44317 0.0
C136 C 0.8667 0.97207 0.45825 0.0
C137 C 0.89275 0.0105 0.47447 0.0
H138 H 0.03937 0.08081 0.45924 0.0
H139 H 0.88392 0.94576 0.43001 0.0
C140 C 0.06212 0.12526 0.35679 0.0
N141 N 0.06644 0.14088 0.37602 0.0
C142 C 0.05912 0.16266 0.34274 0.0
C143 C 0.06629 0.23207 0.36853 0.0
C144 C 0.06765 0.19269 0.38208 0.0
C145 C 0.06169 0.21703 0.34861 0.0
H146 H 0.0604 0.08338 0.3524 0.0
H147 H 0.06896 0.20336 0.39743 0.0
O148 O 0.06593 0.98066 0.4255 0.0
O149 O 0.12452 0.05628 0.38897 0.0
O150 O 0.99083 0.00614 0.39536 0.0
O151 O 0.08448 0.1122 0.42233 0.0
H152 H 0.10288 0.97793 0.46127 0.0
H153 H 0.95095 0.89465 0.42228 0.0
H154 H 0.03793 0.90861 0.48722 0.0
H155 H 0.88889 0.8258 0.44887 0.0
H156 H 0.28821 0.14386 0.34848 0.0
H157 H 0.16265 0.97774 0.39364 0.0
H158 H 0.19826 0.14049 0.36446 0.0
H159 H 0.25284 0.98358 0.37698 0.0
H160 H 0.00095 0.7636 0.38945 0.0
H161 H 0.05955 0.87158 0.33743 0.0
H162 H 0.22719 0.10621 0.48014 0.0
H163 H 0.34737 0.13748 0.43103 0.0
H164 H 0.96075 0.0902 0.40283 0.0
H165 H 0.89274 0.90416 0.38528 0.0
H166 H 0.85623 0.07363 0.4006 0.0
H167 H 0.7893 0.89073 0.38344 0.0
H168 H 0.07936 0.19069 0.44687 0.0
H169 H 0.18445 0.17014 0.40059 0.0
H170 H 0.15634 0.30011 0.44907 0.0
H171 H 0.25942 0.27966 0.40359 0.0
H172 H 0.97676 0.0796 0.48731 0.0
H173 H 0.81818 0.94149 0.45756 0.0
H174 H 0.05513 0.14958 0.32747 0.0
H175 H 0.06787 0.27345 0.37354 0.0
Li176 Li 0.15669 0.06687 0.7311 0.0
Li177 Li 0.14132 0.13639 0.75038 0.0
Li178 Li 0.06976 0.03225 0.75425 0.0
Li179 Li 0.06905 0.08754 0.72449 0.0
C180 C 0.17102 0.03097 0.76733 0.0
N181 N 0.19957 0.94686 0.78097 0.0
C182 C 0.20341 0.04217 0.78466 0.0
C183 C 0.15357 0.977 0.75693 0.0
C184 C 0.21728 0.99909 0.79132 0.0
C185 C 0.1683 0.93505 0.76406 0.0
C186 C 0.20354 0.1971 0.71741 0.0
C187 C 0.23972 0.29356 0.70201 0.0
N188 N 0.2966 0.31181 0.70848 0.0
C189 C 0.26237 0.21667 0.72383 0.0
C190 C 0.19205 0.23567 0.70635 0.0
C191 C 0.30879 0.27489 0.7192 0.0
C192 C 0.21647 0.03698 0.70056 0.0
N193 N 0.21938 0.05644 0.71935 0.0
C194 C 0.32104 0.07603 0.72216 0.0
C195 C 0.27025 0.07563 0.73015 0.0
C196 C 0.32004 0.05803 0.70269 0.0
C197 C 0.2669 0.03749 0.69183 0.0
H198 H 0.17582 0.02301 0.6922 0.0
H199 H 0.27231 0.09285 0.74481 0.0
C200 C 0.21348 0.20663 0.78088 0.0
N201 N 0.18829 0.21172 0.76426 0.0
C202 C 0.25595 0.25813 0.79092 0.0
C203 C 0.24365 0.31998 0.7672 0.0
C204 C 0.20089 0.26691 0.75763 0.0
C205 C 0.27251 0.31542 0.78377 0.0
H206 H 0.20159 0.16243 0.7861 0.0
H207 H 0.17928 0.2699 0.74462 0.0
C208 C 0.02511 0.95147 0.72073 0.0
N209 N 0.93595 0.83599 0.70997 0.0
C210 C 0.96408 0.93566 0.72152 0.0
C211 C 0.04084 0.90876 0.71415 0.0
C212 C 0.91966 0.877 0.71612 0.0
C213 C 0.99511 0.85056 0.70886 0.0
C214 C 0.04886 0.14148 0.76327 0.0
C215 C 0.05166 0.13918 0.78353 0.0
C216 C 0.04514 0.18886 0.75477 0.0
C217 C 0.05126 0.18493 0.79502 0.0
C218 C 0.04478 0.2337 0.76677 0.0
N219 N 0.0479 0.23086 0.78647 0.0
C220 C 0.02531 0.9408 0.78474 0.0
C221 C 0.9548 0.96281 0.77027 0.0
C222 C 0.98032 0.89941 0.79722 0.0
N223 N 0.01184 0.97125 0.77145 0.0
C224 C 0.90846 0.92182 0.78244 0.0
C225 C 0.92126 0.88978 0.7961 0.0
H226 H 0.07082 0.94895 0.78606 0.0
H227 H 0.94546 0.98875 0.76005 0.0
C228 C 0.03322 0.10509 0.68692 0.0
N229 N 0.01636 0.09055 0.70585 0.0
C230 C 0.99213 0.10503 0.67361 0.0
C231 C 0.91726 0.07427 0.69953 0.0
C232 C 0.95996 0.07591 0.71236 0.0
C233 C 0.93323 0.08895 0.67992 0.0
H234 H 0.07839 0.11645 0.68216 0.0
H235 H 0.94795 0.06477 0.72753 0.0
O236 O 0.15876 0.07374 0.76034 0.0
O237 O 0.1574 0.14032 0.72177 0.0
O238 O 0.06944 0.00882 0.72585 0.0
O239 O 0.05115 0.09823 0.75177 0.0
H240 H 0.21805 0.08375 0.79289 0.0
H241 H 0.12914 0.96759 0.7435 0.0
H242 H 0.2423 0.00728 0.80469 0.0
H243 H 0.15492 0.89314 0.75613 0.0
H244 H 0.23149 0.32401 0.69353 0.0
H245 H 0.27189 0.18763 0.73256 0.0
H246 H 0.14671 0.22119 0.7013 0.0
H247 H 0.35446 0.29081 0.72418 0.0
H248 H 0.36161 0.0925 0.73082 0.0
H249 H 0.2651 0.02356 0.67671 0.0
H250 H 0.27687 0.25338 0.80388 0.0
H251 H 0.25505 0.36384 0.76155 0.0
H252 H 0.95108 0.96824 0.72628 0.0
H253 H 0.08791 0.92047 0.71301 0.0
H254 H 0.87223 0.86413 0.71677 0.0
H255 H 0.00666 0.81704 0.70381 0.0
H256 H 0.05481 0.10281 0.79028 0.0
H257 H 0.04331 0.19133 0.73907 0.0
H258 H 0.0538 0.18403 0.81073 0.0
H259 H 0.0423 0.27089 0.76041 0.0
H260 H 0.99156 0.87566 0.8078 0.0
H261 H 0.86331 0.91567 0.78139 0.0
H262 H 0.00579 0.11675 0.65855 0.0
H263 H 0.87223 0.0618 0.70484 0.0
H264 H 0.04702 0.4751 0.10913 0.0
H265 H 0.17079 0.93574 0.26605 0.0
H266 H 0.96531 0.41296 0.21296 0.0
H267 H 0.95406 0.32513 0.19426 0.0
H268 H 0.1231 0.3538 0.21734 0.0
H269 H 0.13591 0.44406 0.23538 0.0
H270 H 0.9942 0.51869 0.18929 0.0
H271 H -0.00025 0.49851 0.15448 0.0
H272 H 0.17346 0.51107 0.16332 0.0
H273 H 0.16689 0.53037 0.19815 0.0
H274 H 0.01201 0.63935 0.21206 0.0
H275 H 0.02518 0.70622 0.18496 0.0
H276 H 0.19653 0.71875 0.17022 0.0
H277 H 0.18518 0.65492 0.19817 0.0
H278 H 0.99612 0.63601 0.25518 0.0
H279 H 0.00678 0.73446 0.26406 0.0
H280 H 0.19817 0.82166 0.25012 0.0
H281 H 0.18674 0.72302 0.24105 0.0
H282 H 0.97422 0.51545 0.28068 0.0
H283 H 0.95667 0.55971 0.31056 0.0
H284 H 0.14196 0.70634 0.30828 0.0
H285 H 0.16069 0.65968 0.27945 0.0
H286 H 0.97163 0.39708 0.25828 0.0
H287 H 0.96889 0.32346 0.28145 0.0
H288 H 0.14422 0.45793 0.30313 0.0
H289 H 0.14854 0.53042 0.27927 0.0
O290 O 0.04565 0.483 0.12294 0.0
O291 O 0.13384 0.48788 0.1284 0.0
O292 O 0.06678 0.84907 0.26971 0.0
O293 O 0.1652 0.8964 0.26237 0.0
C294 C 0.0658 0.49693 0.23164 0.0
C295 C 0.07769 0.54042 0.21719 0.0
C296 C 0.08732 0.59823 0.22255 0.0
C297 C 0.08413 0.61252 0.24232 0.0
C298 C 0.07397 0.56975 0.25695 0.0
C299 C 0.06578 0.51207 0.25164 0.0
C300 C 0.05193 0.4354 0.22521 0.0
C301 C 0.99921 0.39946 0.21439 0.0
C302 C 0.99274 0.3494 0.20376 0.0
C303 C 0.03828 0.33383 0.20418 0.0
C304 C 0.08778 0.36562 0.21677 0.0
C305 C 0.09501 0.41682 0.22706 0.0
C306 C 0.07994 0.52554 0.19622 0.0
C307 C 0.03317 0.5166 0.18367 0.0
C308 C 0.03654 0.50523 0.16381 0.0
C309 C 0.08695 0.5029 0.15613 0.0
C310 C 0.13388 0.51226 0.16877 0.0
C311 C 0.13017 0.52306 0.18867 0.0
C312 C 0.09779 0.64262 0.20714 0.0
C313 C 0.05312 0.65777 0.20332 0.0
C314 C 0.06038 0.69537 0.1878 0.0
C315 C 0.11178 0.71723 0.17564 0.0
C316 C 0.15674 0.70244 0.17952 0.0
C317 C 0.1502 0.66612 0.19538 0.0
C318 C 0.09072 0.67243 0.24761 0.0
C319 C 0.0403 0.67645 0.25409 0.0
C320 C 0.04654 0.73268 0.25917 0.0
C321 C 0.10345 0.78586 0.25797 0.0
C322 C 0.15377 0.78161 0.25129 0.0
C323 C 0.14739 0.72538 0.24609 0.0
C324 C 0.06836 0.58524 0.27762 0.0
C325 C 0.01174 0.55557 0.28714 0.0
C326 C 0.00159 0.58105 0.30405 0.0
C327 C 0.0474 0.63743 0.31114 0.0
C328 C 0.10567 0.66345 0.3028 0.0
C329 C 0.11636 0.63687 0.28638 0.0
C330 C 0.06058 0.46906 0.26692 0.0
C331 C 0.00957 0.41065 0.26797 0.0
C332 C 0.00786 0.36881 0.28121 0.0
C333 C 0.05646 0.38528 0.29393 0.0
C334 C 0.10637 0.44437 0.2934 0.0
C335 C 0.10864 0.48573 0.27989 0.0
C336 C 0.09046 0.49084 0.13501 0.0
C337 C 0.11044 0.84553 0.2637 0.0
H338 H 0.58331 0.03144 0.44668 0.0
H339 H 0.31791 0.19496 0.61812 0.0
H340 H 0.61476 0.96788 0.55912 0.0
H341 H 0.68106 0.94484 0.53859 0.0
H342 H 0.81572 0.13485 0.53795 0.0
H343 H 0.74936 0.15783 0.55839 0.0
H344 H 0.52727 0.99556 0.53009 0.0
H345 H 0.53679 0.99315 0.49454 0.0
H346 H 0.69205 0.1744 0.49657 0.0
H347 H 0.68196 0.17607 0.53212 0.0
H348 H 0.43056 0.02421 0.55297 0.0
H349 H 0.37327 0.0378 0.52704 0.0
H350 H 0.52927 0.21057 0.51319 0.0
H351 H 0.58573 0.19813 0.5397 0.0
H352 H 0.42799 0.01124 0.59688 0.0
H353 H 0.34629 0.02595 0.61011 0.0
H354 H 0.45222 0.21703 0.59731 0.0
H355 H 0.53392 0.20173 0.58436 0.0
H356 H 0.50886 0.98766 0.61719 0.0
H357 H 0.46558 0.98218 0.64887 0.0
H358 H 0.55934 0.17893 0.6516 0.0
H359 H 0.60163 0.18203 0.62004 0.0
H360 H 0.60881 0.98785 0.61147 0.0
H361 H 0.6837 0.98909 0.63402 0.0
H362 H 0.81137 0.17272 0.61759 0.0
H363 H 0.73587 0.17223 0.5957 0.0
O364 O 0.58063 0.0332 0.46075 0.0
O365 O 0.66095 0.12595 0.46261 0.0
O366 O 0.29731 0.08948 0.61953 0.0
O367 O 0.34945 0.18784 0.61293 0.0
C368 C 0.63201 0.0792 0.56814 0.0
C369 C 0.59545 0.08849 0.55502 0.0
C370 C 0.54907 0.09885 0.56215 0.0
C371 C 0.53715 0.0967 0.58235 0.0
C372 C 0.57384 0.0874 0.59551 0.0
C373 C 0.6226 0.08059 0.58844 0.0
C374 C 0.67756 0.06443 0.56025 0.0
C375 C 0.65953 0.00417 0.55516 0.0
C376 C 0.69716 0.99107 0.5435 0.0
C377 C 0.75306 0.03821 0.53687 0.0
C378 C 0.7729 0.09799 0.54313 0.0
C379 C 0.73525 0.11105 0.55478 0.0
C380 C 0.60428 0.08572 0.53364 0.0
C381 C 0.56364 0.03441 0.52282 0.0
C382 C 0.56903 0.0333 0.50252 0.0
C383 C 0.6151 0.08365 0.4927 0.0
C384 C 0.65601 0.13491 0.50367 0.0
C385 C 0.65068 0.13582 0.52397 0.0
C386 C 0.51218 0.1102 0.54819 0.0
C387 C 0.45183 0.06565 0.54469 0.0
C388 C 0.41943 0.07323 0.52987 0.0
C389 C 0.44727 0.12512 0.51826 0.0
C390 C 0.50714 0.1704 0.52208 0.0
C391 C 0.53918 0.16326 0.53711 0.0
C392 C 0.48691 0.10549 0.58979 0.0
C393 C 0.4335 0.05625 0.59701 0.0
C394 C 0.38688 0.06477 0.60452 0.0
C395 C 0.39278 0.12274 0.60481 0.0
C396 C 0.44623 0.17185 0.59734 0.0
C397 C 0.4929 0.16326 0.5899 0.0
C398 C 0.56041 0.08521 0.61665 0.0
C399 C 0.52293 0.02941 0.62536 0.0
C400 C 0.49866 0.02675 0.64396 0.0
C401 C 0.51257 0.08005 0.65485 0.0
C402 C 0.5506 0.13607 0.64554 0.0
C403 C 0.57482 0.13848 0.62694 0.0
C404 C 0.66684 0.08011 0.60209 0.0
C405 C 0.65265 0.0285 0.61292 0.0
C406 C 0.69536 0.02909 0.62564 0.0
C407 C 0.75299 0.081 0.62741 0.0
C408 C 0.76718 0.13231 0.61641 0.0
C409 C 0.72426 0.13198 0.60395 0.0
C410 C 0.62046 0.08246 0.47113 0.0
C411 C 0.34352 0.13209 0.61287 0.0
H412 H 0.62737 0.63431 0.03347 0.0
H413 H 0.29339 0.17345 0.87877 0.0
H414 H 0.6098 0.69741 0.92861 0.0
H415 H 0.68404 0.78534 0.94748 0.0
H416 H 0.82644 0.75313 0.92659 0.0
H417 H 0.75136 0.66324 0.90829 0.0
H418 H 0.53803 0.59766 0.9535 0.0
H419 H 0.56162 0.61637 0.98829 0.0
H420 H 0.71276 0.58575 0.97912 0.0
H421 H 0.6895 0.56867 0.94427 0.0
H422 H 0.43395 0.47337 0.93328 0.0
H423 H 0.38004 0.40435 0.96023 0.0
H424 H 0.53459 0.38152 0.96948 0.0
H425 H 0.58763 0.44872 0.94193 0.0
H426 H 0.41819 0.47315 0.89015 0.0
H427 H 0.32998 0.37449 0.8822 0.0
H428 H 0.43635 0.28819 0.89198 0.0
H429 H 0.52399 0.38702 0.90005 0.0
H430 H 0.51881 0.59971 0.86547 0.0
H431 H 0.45505 0.56146 0.83633 0.0
H432 H 0.48796 0.4111 0.83267 0.0
H433 H 0.55472 0.45135 0.861 0.0
H434 H 0.62375 0.70464 0.88018 0.0
H435 H 0.69614 0.7763 0.85624 0.0
H436 H 0.76615 0.65535 0.84494 0.0
H437 H 0.69308 0.5834 0.86846 0.0
O438 O 0.61886 0.62683 0.01968 0.0
O439 O 0.69667 0.61173 0.01412 0.0
O440 O 0.27525 0.25979 0.8766 0.0
O441 O 0.32743 0.21293 0.88196 0.0
C442 C 0.62811 0.61195 0.91108 0.0
C443 C 0.59619 0.56821 0.92552 0.0
C444 C 0.5483 0.5105 0.92023 0.0
C445 C 0.53067 0.49691 0.90057 0.0
C446 C 0.5631 0.54034 0.88597 0.0
C447 C 0.61323 0.59716 0.89122 0.0
C448 C 0.67519 0.67364 0.91732 0.0
C449 C 0.65729 0.7104 0.92761 0.0
C450 C 0.69954 0.7605 0.93833 0.0
C451 C 0.76039 0.77505 0.9386 0.0
C452 C 0.77953 0.74231 0.92656 0.0
C453 C 0.73689 0.69127 0.91612 0.0
C454 C 0.61252 0.58254 0.94641 0.0
C455 C 0.5766 0.5957 0.95904 0.0
C456 C 0.59003 0.60609 0.97889 0.0
C457 C 0.63925 0.6028 0.98647 0.0
C458 C 0.67467 0.58884 0.97375 0.0
C459 C 0.66174 0.5794 0.95384 0.0
C460 C 0.51443 0.46563 0.93562 0.0
C461 C 0.4557 0.45258 0.94087 0.0
C462 C 0.42526 0.41369 0.95626 0.0
C463 C 0.4535 0.38802 0.96674 0.0
C464 C 0.51219 0.40085 0.96146 0.0
C465 C 0.54226 0.439 0.94584 0.0
C466 C 0.47748 0.43716 0.89549 0.0
C467 C 0.42234 0.43287 0.89046 0.0
C468 C 0.3721 0.37652 0.88594 0.0
C469 C 0.37626 0.32352 0.8863 0.0
C470 C 0.43163 0.32809 0.89148 0.0
C471 C 0.48174 0.38443 0.89609 0.0
C472 C 0.54049 0.52765 0.86559 0.0
C473 C 0.5146 0.5601 0.85787 0.0
C474 C 0.47788 0.53809 0.84136 0.0
C475 C 0.46542 0.48254 0.83279 0.0
C476 C 0.4963 0.45354 0.8393 0.0
C477 C 0.53432 0.47645 0.85544 0.0
C478 C 0.6532 0.6389 0.87594 0.0
C479 C 0.65424 0.69342 0.87234 0.0
C480 C 0.69541 0.73411 0.85878 0.0
C481 C 0.73647 0.72102 0.84893 0.0
C482 C 0.73476 0.6661 0.8524 0.0
C483 C 0.69314 0.62517 0.86573 0.0
C484 C 0.6535 0.61398 0.00757 0.0
C485 C 0.32316 0.26365 0.88133 0.0
C486 C 0.07646 0.26866 0.15927 0.0
C487 C 0.0247 0.20989 0.15846 0.0
C488 C 0.99034 0.22811 0.19018 0.0
C489 C 0.03721 0.28964 0.1895 0.0
N490 N 0.11963 0.37105 0.17167 0.0
N491 N 0.92923 0.13428 0.17212 0.0
C492 C 0.07919 0.3106 0.17365 0.0
C493 C 0.98085 0.1895 0.17371 0.0
N494 N 0.12376 0.28403 0.14654 0.0
N495 N 0.95574 0.20657 0.20669 0.0
H496 H 0.92104 0.10481 0.1603 0.0
H497 H 0.89261 0.11957 0.18175 0.0
H498 H 0.9622 0.23377 0.21903 0.0
H499 H 0.92459 0.16091 0.20883 0.0
H500 H 0.16532 0.32396 0.14783 0.0
H501 H 0.12376 0.25434 0.13584 0.0
H502 H 0.14573 0.38934 0.15913 0.0
H503 H 0.12363 0.40386 0.18178 0.0
C504 C 0.8193 0.04178 0.48676 0.0
C505 C 0.85411 0.01363 0.49031 0.0
C506 C 0.82373 0.00206 0.52481 0.0
C507 C 0.78604 0.02674 0.52088 0.0
N508 N 0.73646 0.05637 0.49744 0.0
N509 N 0.88182 0.95738 0.51157 0.0
C510 C 0.78032 0.0424 0.50162 0.0
C511 C 0.85408 0.99085 0.50904 0.0
N512 N 0.82541 0.07035 0.4695 0.0
N513 N 0.83174 0.99099 0.54362 0.0
H514 H 0.90424 0.94825 0.50028 0.0
H515 H 0.87842 0.93452 0.52436 0.0
H516 H 0.80926 0.99775 0.55543 0.0
H517 H 0.8636 0.97913 0.54769 0.0
H518 H 0.80637 0.0975 0.46703 0.0
H519 H 0.85394 0.0716 0.45819 0.0
H520 H 0.72597 0.06186 0.48329 0.0
H521 H 0.70642 0.05652 0.50794 0.0
C522 C 0.82753 0.78972 0.80247 0.0
C523 C 0.87309 0.8471 0.80954 0.0
C524 C 0.83123 0.82052 0.84265 0.0
C525 C 0.78259 0.76534 0.83528 0.0
N526 N 0.72809 0.70207 0.80773 0.0
N527 N 0.91218 0.92209 0.83546 0.0
C528 C 0.77891 0.75124 0.81503 0.0
C529 C 0.87313 0.864 0.82938 0.0
N530 N 0.83178 0.7712 0.78394 0.0
N531 N 0.83893 0.83035 0.86234 0.0
H532 H 0.94364 0.95524 0.82617 0.0
H533 H 0.90978 0.93885 0.84923 0.0
H534 H 0.80979 0.79932 0.87259 0.0
H535 H 0.87718 0.86675 0.86854 0.0
H536 H 0.80374 0.72727 0.77869 0.0
H537 H 0.86664 0.79822 0.77427 0.0
H538 H 0.72009 0.69297 0.79287 0.0
H539 H 0.69121 0.67325 0.81646 0.0
C540 C 0.16473 0.8497 0.14103 0.0
C541 C 0.11395 0.82648 0.12852 0.0
C542 C 0.07256 0.7272 0.14358 0.0
C543 C 0.11673 0.75375 0.15843 0.0
N544 N 0.20148 0.84294 0.17261 0.0
N545 N 0.01468 0.74427 0.11956 0.0
C546 C 0.16246 0.81564 0.15744 0.0
C547 C 0.06674 0.76525 0.13004 0.0
N548 N 0.21514 0.90418 0.13715 0.0
N549 N 0.03657 0.66561 0.14232 0.0
H550 H 0.0074 0.77087 0.10986 0.0
H551 H 0.97646 0.70197 0.12182 0.0
H552 H 0.04055 0.63631 0.15181 0.0
H553 H 0.00743 0.64362 0.1307 0.0
H554 H 0.25551 0.92083 0.14481 0.0
H555 H 0.21852 0.92966 0.12498 0.0
H556 H 0.23128 0.88951 0.17348 0.0
H557 H 0.20049 0.82011 0.18517 0.0
C558 C 0.35732 0.0833 0.47155 0.0
C559 C 0.34033 0.12856 0.47108 0.0
C560 C 0.39506 0.17329 0.50147 0.0
C561 C 0.41446 0.12988 0.50135 0.0
N562 N 0.42842 0.05497 0.48355 0.0
N563 N 0.35509 0.22491 0.4827 0.0
C564 C 0.40024 0.08856 0.48547 0.0
C565 C 0.36324 0.17635 0.48513 0.0
N566 N 0.32996 0.0334 0.45955 0.0
N567 N 0.40435 0.20953 0.51752 0.0
H568 H 0.33263 0.22876 0.47071 0.0
H569 H 0.3756 0.26378 0.49148 0.0
H570 H 0.4269 0.20822 0.52989 0.0
H571 H 0.38535 0.23729 0.51923 0.0
H572 H 0.3359 0.99603 0.46089 0.0
H573 H 0.29707 0.02658 0.4494 0.0
H574 H 0.42415 0.02853 0.47123 0.0
H575 H 0.4609 0.05836 0.49335 0.0
C576 C 0.38198 0.39551 0.78737 0.0
C577 C 0.32091 0.36972 0.79386 0.0
C578 C 0.35404 0.42486 0.82491 0.0
C579 C 0.41544 0.45068 0.81853 0.0
N580 N 0.48719 0.47299 0.79226 0.0
N581 N 0.24775 0.37177 0.81602 0.0
C582 C 0.42913 0.44009 0.79922 0.0
C583 C 0.30671 0.38876 0.8117 0.0
N584 N 0.39502 0.37522 0.77037 0.0
N585 N 0.34077 0.4312 0.84391 0.0
H586 H 0.21215 0.34489 0.8066 0.0
H587 H 0.23487 0.38896 0.82793 0.0
H588 H 0.37357 0.45687 0.85424 0.0
H589 H 0.29733 0.40717 0.8499 0.0
H590 H 0.43882 0.38672 0.76601 0.0
H591 H 0.36155 0.34395 0.76105 0.0
H592 H 0.49933 0.4714 0.77778 0.0
H593 H 0.52241 0.50619 0.80065 0.0
C594 C 0.86512 0.04365 0.65077 0.0
C595 C 0.888 0.08749 0.66612 0.0
C596 C 0.81672 0.12136 0.65752 0.0
C597 C 0.7987 0.08224 0.64091 0.0
N598 N 0.81428 0.01453 0.61959 0.0
N599 N 0.89427 0.17632 0.68168 0.0
C600 C 0.82532 0.04569 0.63691 0.0
C601 C 0.86627 0.12876 0.66881 0.0
N602 N 0.87947 0.99862 0.64982 0.0
N603 N 0.78522 0.14988 0.66291 0.0
H604 H 0.93161 0.18413 0.68992 0.0
H605 H 0.88429 0.21127 0.68277 0.0
H606 H 0.74786 0.14471 0.65524 0.0
H607 H 0.79241 0.17391 0.67601 0.0
H608 H 0.85898 0.96185 0.64017 0.0
H609 H 0.90761 0.99483 0.65987 0.0
H610 H 0.8375 0.99237 0.61504 0.0
H611 H 0.786 0.01542 0.60895 0.0
C612 C 0.84851 0.91859 0.96939 0.0
C613 C 0.86744 0.89603 0.98489 0.0
C614 C 0.81667 0.79478 0.97 0.0
C615 C 0.80104 0.81787 0.95378 0.0
N616 N 0.81082 0.9033 0.93626 0.0
N617 N 0.88277 0.81699 0.99754 0.0
C618 C 0.81967 0.8804 0.95293 0.0
C619 C 0.85556 0.83543 0.98445 0.0
N620 N 0.85633 0.97567 0.97072 0.0
N621 N 0.792 0.7337 0.97218 0.0
H622 H 0.91219 0.8455 0.00832 0.0
H623 H 0.88089 0.77522 0.99652 0.0
H624 H 0.76309 0.7019 0.96202 0.0
H625 H 0.79584 0.71429 0.98491 0.0
H626 H 0.8379 0.99251 0.96088 0.0
H627 H 0.87754 0.00481 0.98253 0.0
H628 H 0.82845 0.94942 0.93399 0.0
H629 H 0.79015 0.87639 0.92396 0.0
C630 C 0.06928 0.73912 0.35489 0.0
C631 C 0.028 0.75956 0.3508 0.0
C632 C 0.99496 0.69565 0.32139 0.0
C633 C 0.03415 0.67291 0.32595 0.0
N634 N 0.09556 0.66059 0.3497 0.0
N635 N 0.93969 0.74424 0.33352 0.0
C636 C 0.06695 0.69055 0.34364 0.0
C637 C 0.98688 0.73344 0.33514 0.0
N638 N 0.11301 0.76818 0.3687 0.0
N639 N 0.96833 0.68463 0.3035 0.0
H640 H 0.93195 0.7711 0.34354 0.0
H641 H 0.9049 0.7216 0.32348 0.0
H642 H 0.97345 0.65828 0.29267 0.0
H643 H 0.94542 0.70624 0.29874 0.0
H644 H 0.14815 0.75915 0.37076 0.0
H645 H 0.1176 0.80509 0.37693 0.0
H646 H 0.11554 0.66773 0.36335 0.0
H647 H 0.09381 0.62418 0.34185 0.0
C648 C 0.42567 0.12288 0.68966 0.0
C649 C 0.37613 0.06423 0.69362 0.0
C650 C 0.43763 0.02016 0.68224 0.0
C651 C 0.4793 0.07657 0.67389 0.0
N652 N 0.53427 0.17952 0.68561 0.0
N653 N 0.33714 0.95639 0.6958 0.0
C654 C 0.48023 0.12831 0.68214 0.0
C655 C 0.38292 0.01253 0.69075 0.0
N656 N 0.42051 0.17334 0.69249 0.0
N657 N 0.45428 0.97736 0.68428 0.0
H658 H 0.2975 0.94945 0.70282 0.0
H659 H 0.33732 0.91663 0.69206 0.0
H660 H 0.49768 0.98611 0.68025 0.0
H661 H 0.4285 0.93725 0.69187 0.0
H662 H 0.45425 0.21622 0.68809 0.0
H663 H 0.38097 0.17168 0.6977 0.0
H664 H 0.53779 0.21699 0.69324 0.0
H665 H 0.57531 0.18037 0.68314 0.0
C666 C 0.36492 0.24888 0.99828 0.0
C667 C 0.34419 0.27367 0.01318 0.0
C668 C 0.40988 0.37527 0.00037 0.0
C669 C 0.42149 0.34904 0.9836 0.0
N670 N 0.40602 0.26001 0.96556 0.0
N671 N 0.34239 0.36011 0.02764 0.0
C672 C 0.39861 0.28561 0.98234 0.0
C673 C 0.36601 0.33696 0.01422 0.0
N674 N 0.35245 0.19025 -0.00055 0.0
N675 N 0.44119 0.43677 0.0031 0.0
H676 H 0.30995 0.33369 0.03803 0.0
H677 H 0.35152 0.40478 0.02752 0.0
H678 H 0.47417 0.46607 0.99329 0.0
H679 H 0.4388 0.45812 0.01594 0.0
H680 H 0.37104 0.17126 0.98997 0.0
H681 H 0.32825 0.16244 0.0111 0.0
H682 H 0.3844 0.21337 0.96306 0.0
H683 H 0.42991 0.28522 0.95344 0.0
C684 C 0.01006 0.27003 0.33463 0.0
C685 C 0.05893 0.25809 0.33402 0.0
C686 C 0.10007 0.32175 0.30516 0.0
C687 C 0.05613 0.34023 0.30749 0.0
N688 N 0.97571 0.34006 0.32674 0.0
N689 N 0.15702 0.28209 0.32087 0.0
C690 C 0.01276 0.31657 0.32286 0.0
C691 C 0.10579 0.28648 0.31985 0.0
N692 N 0.96014 0.23565 0.34597 0.0
N693 N 0.13513 0.33625 0.28864 0.0
H694 H 0.16394 0.25818 0.33172 0.0
H695 H 0.19511 0.30708 0.3121 0.0
H696 H 0.13126 0.36071 0.27729 0.0
H697 H 0.16358 0.31879 0.28534 0.0
H698 H 0.92078 0.23854 0.3455 0.0
H699 H 0.95562 0.19993 0.35437 0.0
H700 H 0.94773 0.32881 0.33904 0.0
H701 H 0.97709 0.37508 0.31873 0.0
loop_
_geom_bond_atom_site_label_1
_geom_bond_atom_site_label_2
_geom_bond_distance
_geom_bond_site_symmetry_2
_ccdc_geom_bond_type
Li0 N17 1.990 . S
Li0 O60 1.956 . S
Li0 O61 1.970 . S
Li0 O62 1.961 . S
Li1 N25 1.990 . S
Li1 O60 1.970 . S
Li1 O61 1.956 . S
Li1 O63 1.961 . S
Li2 N47 1.990 1_545 S
Li2 O60 1.961 . S
Li2 O62 1.956 . S
Li2 O63 1.970 . S
Li3 N53 1.990 1_445 S
Li3 O61 1.961 . S
Li3 O62 1.970 . S
Li3 O63 1.956 . S
C4 C6 1.348 . S
C4 C7 1.356 . S
C4 O60 1.325 . S
N5 C8 1.314 . S
N5 C9 1.279 . S
C6 C4 1.348 . S
C6 C8 1.353 . S
C6 H64 0.929 . S
C7 C4 1.356 . S
C7 C9 1.358 . S
C7 H65 0.930 . S
C8 N5 1.314 . S
C8 C6 1.353 . S
C8 H66 0.930 . S
C9 N5 1.279 . S
C9 C7 1.358 . S
C9 H67 0.930 . S
C10 C13 1.348 . S
C10 C14 1.356 1_455 S
C10 O61 1.325 . S
C11 N12 1.279 1_655 S
C11 C14 1.358 . S
C11 H68 0.930 . S
N12 C11 1.279 1_455 S
N12 C15 1.314 . S
C13 C10 1.348 . S
C13 C15 1.353 . S
C13 H69 0.929 . S
C14 C10 1.356 1_655 S
C14 C11 1.358 . S
C14 H70 0.930 . S
C15 N12 1.314 . S
C15 C13 1.353 . S
C15 H71 0.930 . S
C16 N17 1.314 . S
C16 C21 1.353 . S
C16 H22 0.930 . S
N17 Li0 1.990 . S
N17 C16 1.314 . S
N17 C19 1.279 . S
C18 C19 1.358 . S
C18 C20 1.356 . S
C18 H72 0.930 . S
C19 N17 1.279 . S
C19 C18 1.358 . S
C19 H23 0.930 . S
C20 C18 1.356 . S
C20 C21 1.348 . S
C21 C16 1.353 . S
C21 C20 1.348 . S
C21 H73 0.929 . S
H22 C16 0.930 . S
H23 C19 0.930 . S
C24 N25 1.314 . S
C24 C26 1.353 . S
C24 H30 0.930 . S
N25 Li1 1.990 . S
N25 C24 1.314 . S
N25 C28 1.279 . S
C26 C24 1.353 . S
C26 C29 1.348 . S
C26 H74 0.929 1_455 S
C27 C28 1.358 . S
C27 C29 1.356 . S
C27 H75 0.930 . S
C28 N25 1.279 . S
C28 C27 1.358 . S
C28 H31 0.930 . S
C29 C26 1.348 . S
C29 C27 1.356 . S
H30 C24 0.930 . S
H31 C28 0.930 . S
C32 C34 1.348 . S
C32 C35 1.356 . S
C32 O62 1.325 1_565 S
N33 C36 1.314 . S
N33 C37 1.279 . S
C34 C32 1.348 . S
C34 C36 1.353 . S
C34 H76 0.929 . S
C35 C32 1.356 . S
C35 C37 1.358 . S
C35 H77 0.930 1_565 S
C36 N33 1.314 . S
C36 C34 1.353 . S
C36 H78 0.930 . S
C37 N33 1.279 . S
C37 C35 1.358 . S
C37 H79 0.930 . S
C38 C39 1.348 . S
C38 C40 1.356 . S
C38 O63 1.325 1_665 S
C39 C38 1.348 . S
C39 C41 1.353 . S
C39 H80 0.929 . S
C40 C38 1.356 . S
C40 C42 1.358 . S
C40 H81 0.930 1_565 S
C41 C39 1.353 . S
C41 N43 1.314 . S
C41 H82 0.930 . S
C42 C40 1.358 . S
C42 N43 1.279 . S
C42 H83 0.930 . S
N43 C41 1.314 . S
N43 C42 1.279 . S
C44 C46 1.353 . S
C44 N47 1.314 . S
C44 H50 0.930 1_565 S
C45 N47 1.279 . S
C45 C48 1.358 . S
C45 H51 0.930 . S
C46 C44 1.353 . S
C46 C49 1.348 . S
C46 H84 0.929 . S
N47 Li2 1.990 1_565 S
N47 C44 1.314 . S
N47 C45 1.279 . S
C48 C45 1.358 . S
C48 C49 1.356 . S
C48 H85 0.930 . S
C49 C46 1.348 . S
C49 C48 1.356 . S
H50 C44 0.930 1_545 S
H51 C45 0.930 . S
C52 N53 1.314 . S
C52 C54 1.353 . S
C52 H58 0.930 1_565 S
N53 Li3 1.990 1_665 S
N53 C52 1.314 . S
N53 C56 1.279 . S
C54 C52 1.353 . S
C54 C57 1.348 . S
C54 H86 0.929 . S
C55 C56 1.358 . S
C55 C57 1.356 . S
C55 H87 0.930 . S
C56 N53 1.279 . S
C56 C55 1.358 . S
C56 H59 0.930 . S
C57 C54 1.348 . S
C57 C55 1.356 . S
H58 C52 0.930 1_545 S
H59 C56 0.930 . S
O60 Li0 1.956 . S
O60 Li1 1.970 . S
O60 Li2 1.961 . S
O60 C4 1.325 . S
O61 Li0 1.970 . S
O61 Li1 1.956 . S
O61 Li3 1.961 . S
O61 C10 1.325 . S
O62 Li0 1.961 . S
O62 Li2 1.956 . S
O62 Li3 1.970 . S
O62 C32 1.325 1_545 S
O63 Li1 1.961 . S
O63 Li2 1.970 . S
O63 Li3 1.956 . S
O63 C38 1.325 1_445 S
H64 C6 0.929 . S
H65 C7 0.930 . S
H66 C8 0.930 . S
H67 C9 0.930 . S
H68 C11 0.930 . S
H69 C13 0.929 . S
H70 C14 0.930 . S
H71 C15 0.930 . S
H72 C18 0.930 . S
H73 C21 0.929 . S
H74 C26 0.929 1_655 S
H75 C27 0.930 . S
H76 C34 0.929 . S
H77 C35 0.930 1_545 S
H78 C36 0.930 . S
H79 C37 0.930 . S
H80 C39 0.929 . S
H81 C40 0.930 1_545 S
H82 C41 0.930 . S
H83 C42 0.930 . S
H84 C46 0.929 . S
H85 C48 0.930 . S
H86 C54 0.929 . S
H87 C55 0.930 . S
Li88 N105 1.990 . S
Li88 O148 1.956 . S
Li88 O149 1.970 1_565 S
Li88 O150 1.977 1_565 S
Li89 N113 1.990 . S
Li89 O148 1.970 1_545 S
Li89 O149 1.956 . S
Li89 O151 1.961 . S
Li90 N135 1.990 1_445 S
Li90 O148 1.961 1_545 S
Li90 O150 1.957 . S
Li90 O151 1.970 . S
Li91 N141 1.990 . S
Li91 O149 1.961 . S
Li91 O150 1.980 . S
Li91 O151 1.956 . S
C92 C94 1.348 . S
C92 C95 1.356 1_455 S
C92 O148 1.325 . S
N93 C96 1.314 . S
N93 C97 1.279 1_455 S
C94 C92 1.348 . S
C94 C96 1.353 . S
C94 H152 0.929 . S
C95 C92 1.356 1_655 S
C95 C97 1.358 . S
C95 H153 0.930 . S
C96 N93 1.314 . S
C96 C94 1.353 . S
C96 H154 0.930 . S
C97 N93 1.279 1_655 S
C97 C95 1.358 . S
C97 H155 0.930 . S
C98 C101 1.348 . S
C98 C102 1.356 . S
C98 O149 1.325 . S
C99 N100 1.279 . S
C99 C102 1.358 . S
C99 H156 0.930 . S
N100 C99 1.279 . S
N100 C103 1.314 . S
C101 C98 1.348 . S
C101 C103 1.353 . S
C101 H157 0.929 1_545 S
C102 C98 1.356 . S
C102 C99 1.358 . S
C102 H158 0.930 . S
C103 N100 1.314 . S
C103 C101 1.353 . S
C103 H159 0.930 1_545 S
C104 N105 1.314 . S
C104 C109 1.353 1_455 S
C104 H110 0.930 . S
N105 Li88 1.990 . S
N105 C104 1.314 . S
N105 C107 1.279 . S
C106 C107 1.358 . S
C106 C108 1.356 1_455 S
C106 H160 0.930 . S
C107 N105 1.279 . S
C107 C106 1.358 . S
C107 H111 0.930 . S
C108 C106 1.356 1_655 S
C108 C109 1.348 . S
C109 C104 1.353 1_655 S
C109 C108 1.348 . S
C109 H161 0.929 . S
H110 C104 0.930 . S
H111 C107 0.930 . S
C112 N113 1.314 . S
C112 C114 1.353 . S
C112 H118 0.930 . S
N113 Li89 1.990 . S
N113 C112 1.314 . S
N113 C116 1.279 . S
C114 C112 1.353 . S
C114 C117 1.348 . S
C114 H162 0.929 . S
C115 C116 1.358 . S
C115 C117 1.356 . S
C115 H163 0.930 . S
C116 N113 1.279 . S
C116 C115 1.358 . S
C116 H119 0.930 . S
C117 C114 1.348 . S
C117 C115 1.356 . S
H118 C112 0.930 . S
H119 C116 0.930 . S
C120 C122 1.348 1_565 S
C120 C123 1.356 . S
C120 O150 1.309 1_665 S
N121 C124 1.314 1_565 S
N121 C125 1.279 . S
C122 C120 1.348 1_545 S
C122 C124 1.353 . S
C122 H164 0.929 . S
C123 C120 1.356 . S
C123 C125 1.358 . S
C123 H165 0.930 . S
C124 N121 1.314 1_545 S
C124 C122 1.353 . S
C124 H166 0.930 . S
C125 N121 1.279 . S
C125 C123 1.358 . S
C125 H167 0.930 . S
C126 C127 1.348 . S
C126 C128 1.356 . S
C126 O151 1.325 . S
C127 C126 1.348 . S
C127 C129 1.353 . S
C127 H168 0.929 . S
C128 C126 1.356 . S
C128 C130 1.358 . S
C128 H169 0.930 . S
C129 C127 1.353 . S
C129 N131 1.314 . S
C129 H170 0.930 . S
C130 C128 1.358 . S
C130 N131 1.279 . S
C130 H171 0.930 . S
N131 C129 1.314 . S
N131 C130 1.279 . S
C132 C134 1.353 . S
C132 N135 1.314 . S
C132 H138 0.930 . S
C133 N135 1.279 . S
C133 C136 1.358 . S
C133 H139 0.930 . S
C134 C132 1.353 . S
C134 C137 1.348 . S
C134 H172 0.929 . S
N135 Li90 1.990 1_665 S
N135 C132 1.314 . S
N135 C133 1.279 . S
C136 C133 1.358 . S
C136 C137 1.356 . S
C136 H173 0.930 . S
C137 C134 1.348 . S
C137 C136 1.356 . S
H138 C132 0.930 . S
H139 C133 0.930 . S
C140 N141 1.314 . S
C140 C142 1.353 . S
C140 H146 0.930 . S
N141 Li91 1.990 . S
N141 C140 1.314 . S
N141 C144 1.279 . S
C142 C140 1.353 . S
C142 C145 1.348 . S
C142 H174 0.929 . S
C143 C144 1.358 . S
C143 C145 1.356 . S
C143 H175 0.930 . S
C144 N141 1.279 . S
C144 C143 1.358 . S
C144 H147 0.930 . S
C145 C142 1.348 . S
C145 C143 1.356 . S
H146 C140 0.930 . S
H147 C144 0.930 . S
O148 Li88 1.956 . S
O148 Li89 1.970 1_565 S
O148 Li90 1.961 1_565 S
O148 C92 1.325 . S
O149 Li88 1.970 1_545 S
O149 Li89 1.956 . S
O149 Li91 1.961 . S
O149 C98 1.325 . S
O150 Li88 1.977 1_545 S
O150 Li90 1.957 . S
O150 Li91 1.980 . S
O150 C120 1.309 1_445 S
O151 Li89 1.961 . S
O151 Li90 1.970 . S
O151 Li91 1.956 . S
O151 C126 1.325 . S
H152 C94 0.929 . S
H153 C95 0.930 . S
H154 C96 0.930 . S
H155 C97 0.930 . S
H156 C99 0.930 . S
H157 C101 0.929 1_565 S
H158 C102 0.930 . S
H159 C103 0.930 1_565 S
H160 C106 0.930 . S
H161 C109 0.929 . S
H162 C114 0.929 . S
H163 C115 0.930 . S
H164 C122 0.929 . S
H165 C123 0.930 . S
H166 C124 0.930 . S
H167 C125 0.930 . S
H168 C127 0.929 . S
H169 C128 0.930 . S
H170 C129 0.930 . S
H171 C130 0.930 . S
H172 C134 0.929 . S
H173 C136 0.930 . S
H174 C142 0.929 . S
H175 C143 0.930 . S
Li176 N193 1.990 . S
Li176 O236 1.956 . S
Li176 O237 1.970 . S
Li176 O238 1.961 . S
Li177 N201 1.990 . S
Li177 O236 1.970 . S
Li177 O237 1.956 . S
Li177 O239 1.961 . S
Li178 N223 1.990 1_545 S
Li178 O236 1.961 . S
Li178 O238 1.956 . S
Li178 O239 1.970 . S
Li179 N229 1.990 . S
Li179 O237 1.961 . S
Li179 O238 1.970 . S
Li179 O239 1.956 . S
C180 C182 1.348 . S
C180 C183 1.356 . S
C180 O236 1.325 . S
N181 C184 1.314 . S
N181 C185 1.280 1_545 S
C182 C180 1.348 . S
C182 C184 1.353 . S
C182 H240 0.929 . S
C183 C180 1.356 . S
C183 C185 1.359 1_545 S
C183 H241 0.930 1_545 S
C184 N181 1.314 . S
C184 C182 1.353 . S
C184 H242 0.930 . S
C185 N181 1.280 1_565 S
C185 C183 1.359 1_565 S
C185 H243 0.929 . S
C186 C189 1.348 . S
C186 C190 1.356 . S
C186 O237 1.325 . S
C187 N188 1.279 . S
C187 C190 1.358 . S
C187 H244 0.930 . S
N188 C187 1.279 . S
N188 C191 1.314 . S
C189 C186 1.348 . S
C189 C191 1.353 . S
C189 H245 0.929 . S
C190 C186 1.356 . S
C190 C187 1.358 . S
C190 H246 0.930 . S
C191 N188 1.314 . S
C191 C189 1.353 . S
C191 H247 0.930 . S
C192 N193 1.314 . S
C192 C197 1.353 . S
C192 H198 0.930 . S
N193 Li176 1.990 . S
N193 C192 1.314 . S
N193 C195 1.279 . S
C194 C195 1.358 . S
C194 C196 1.356 . S
C194 H248 0.930 . S
C195 N193 1.279 . S
C195 C194 1.358 . S
C195 H199 0.930 . S
C196 C194 1.356 . S
C196 C197 1.348 . S
C197 C192 1.353 . S
C197 C196 1.348 . S
C197 H249 0.929 . S
H198 C192 0.930 . S
H199 C195 0.930 . S
C200 N201 1.314 . S
C200 C202 1.353 . S
C200 H206 0.930 . S
N201 Li177 1.990 . S
N201 C200 1.314 . S
N201 C204 1.279 . S
C202 C200 1.353 . S
C202 C205 1.348 . S
C202 H250 0.929 . S
C203 C204 1.358 . S
C203 C205 1.356 . S
C203 H251 0.930 . S
C204 N201 1.279 . S
C204 C203 1.358 . S
C204 H207 0.930 . S
C205 C202 1.348 . S
C205 C203 1.356 . S
H206 C200 0.930 . S
H207 C204 0.930 . S
C208 C210 1.348 . S
C208 C211 1.356 . S
C208 O238 1.325 1_565 S
N209 C212 1.314 . S
N209 C213 1.279 1_655 S
C210 C208 1.348 . S
C210 C212 1.353 1_455 S
C210 H252 0.929 1_465 S
C211 C208 1.356 . S
C211 C213 1.358 . S
C211 H253 0.930 . S
C212 N209 1.314 . S
C212 C210 1.353 1_655 S
C212 H254 0.930 . S
C213 N209 1.279 1_455 S
C213 C211 1.358 . S
C213 H255 0.930 . S
C214 C215 1.348 . S
C214 C216 1.356 . S
C214 O239 1.325 . S
C215 C214 1.348 . S
C215 C217 1.353 1_455 S
C215 H256 0.929 1_455 S
C216 C214 1.356 . S
C216 C218 1.358 . S
C216 H257 0.930 . S
C217 C215 1.353 1_655 S
C217 N219 1.314 . S
C217 H258 0.930 . S
C218 C216 1.358 . S
C218 N219 1.279 1_455 S
C218 H259 0.930 . S
N219 C217 1.314 . S
N219 C218 1.279 1_655 S
C220 C222 1.353 . S
C220 N223 1.314 . S
C220 H226 0.930 . S
C221 N223 1.279 1_655 S
C221 C224 1.358 . S
C221 H227 0.930 . S
C222 C220 1.353 . S
C222 C225 1.348 1_455 S
C222 H260 0.929 . S
N223 Li178 1.990 1_565 S
N223 C220 1.314 . S
N223 C221 1.279 1_455 S
C224 C221 1.358 . S
C224 C225 1.356 . S
C224 H261 0.930 . S
C225 C222 1.348 1_655 S
C225 C224 1.356 . S
H226 C220 0.930 . S
H227 C221 0.930 . S
C228 N229 1.314 . S
C228 C230 1.353 . S
C228 H234 0.930 . S
N229 Li179 1.990 . S
N229 C228 1.314 . S
N229 C232 1.279 1_455 S
C230 C228 1.353 . S
C230 C233 1.348 1_455 S
C230 H262 0.929 . S
C231 C232 1.358 . S
C231 C233 1.356 . S
C231 H263 0.930 . S
C232 N229 1.279 1_655 S
C232 C231 1.358 . S
C232 H235 0.930 . S
C233 C230 1.348 1_655 S
C233 C231 1.356 . S
H234 C228 0.930 . S
H235 C232 0.930 . S
O236 Li176 1.956 . S
O236 Li177 1.970 . S
O236 Li178 1.961 . S
O236 C180 1.325 . S
O237 Li176 1.970 . S
O237 Li177 1.956 . S
O237 Li179 1.961 . S
O237 C186 1.325 . S
O238 Li176 1.961 . S
O238 Li178 1.956 . S
O238 Li179 1.970 . S
O238 C208 1.325 1_545 S
O239 Li177 1.961 . S
O239 Li178 1.970 . S
O239 Li179 1.956 . S
O239 C214 1.325 . S
H240 C182 0.929 . S
H241 C183 0.930 1_565 S
H242 C184 0.930 . S
H243 C185 0.929 . S
H244 C187 0.930 . S
H245 C189 0.929 . S
H246 C190 0.930 . S
H247 C191 0.930 . S
H248 C194 0.930 . S
H249 C197 0.929 . S
H250 C202 0.929 . S
H251 C203 0.930 . S
H252 C210 0.929 1_645 S
H253 C211 0.930 . S
H254 C212 0.930 . S
H255 C213 0.930 . S
H256 C215 0.929 1_655 S
H257 C216 0.930 . S
H258 C217 0.930 . S
H259 C218 0.930 . S
H260 C222 0.929 . S
H261 C224 0.930 . S
H262 C230 0.929 . S
H263 C231 0.930 . S
H264 O290 0.856 . S
H265 O293 0.854 . S
H266 C301 0.930 1_655 S
H267 C302 0.922 1_655 S
H268 C304 0.930 . S
H269 C305 0.930 . S
H270 C307 0.931 . S
H271 C308 0.930 . S
H272 C310 0.930 . S
H273 C311 0.929 . S
H274 C313 0.930 1_655 S
H275 C314 0.931 . S
H276 C316 0.930 . S
H277 C317 0.929 . S
H278 C319 0.931 1_655 S
H279 C320 0.930 1_655 S
H280 C322 0.930 . S
H281 C323 0.932 . S
H282 C325 0.930 1_655 S
H283 C326 0.931 . S
H284 C328 0.931 . S
H285 C329 0.930 . S
H286 C331 0.929 1_655 S
H287 C332 0.931 1_655 S
H288 C334 0.930 . S
H289 C335 0.929 . S
O290 H264 0.856 . S
O290 C336 1.300 . S
O291 C336 1.209 . S
O292 C337 1.199 . S
O293 H265 0.854 . S
O293 C337 1.297 . S
C294 C295 1.404 . S
C294 C299 1.397 . S
C294 C300 1.492 . S
C295 C294 1.404 . S
C295 C296 1.396 . S
C295 C306 1.492 . S
C296 C295 1.396 . S
C296 C297 1.397 . S
C296 C312 1.509 . S
C297 C296 1.397 . S
C297 C298 1.412 . S
C297 C318 1.485 . S
C298 C297 1.412 . S
C298 C299 1.388 . S
C298 C324 1.490 . S
C299 C294 1.397 . S
C299 C298 1.388 . S
C299 C330 1.519 . S
C300 C294 1.492 . S
C300 C301 1.363 . S
C300 C305 1.390 . S
C301 H266 0.930 1_455 S
C301 C300 1.363 . S
C301 C302 1.368 . S
C302 H267 0.922 1_455 S
C302 C301 1.368 . S
C302 C303 1.395 . S
C303 C302 1.395 . S
C303 C304 1.395 . S
C304 H268 0.930 . S
C304 C303 1.395 . S
C304 C305 1.362 . S
C305 H269 0.930 . S
C305 C300 1.390 . S
C305 C304 1.362 . S
C306 C295 1.492 . S
C306 C307 1.377 . S
C306 C311 1.397 . S
C307 H270 0.931 . S
C307 C306 1.377 . S
C307 C308 1.376 . S
C308 H271 0.930 . S
C308 C307 1.376 . S
C308 C309 1.376 . S
C309 C308 1.376 . S
C309 C310 1.378 . S
C309 C336 1.486 . S
C310 H272 0.930 . S
C310 C309 1.378 . S
C310 C311 1.376 . S
C311 H273 0.929 . S
C311 C306 1.397 . S
C311 C310 1.376 . S
C312 C296 1.509 . S
C312 C313 1.391 . S
C312 C317 1.386 . S
C313 H274 0.930 1_455 S
C313 C312 1.391 . S
C313 C314 1.375 . S
C314 H275 0.931 . S
C314 C313 1.375 . S
C314 C315 1.375 . S
C315 C314 1.375 . S
C315 C316 1.361 . S
C316 H276 0.930 . S
C316 C315 1.361 . S
C316 C317 1.399 . S
C317 H277 0.929 . S
C317 C312 1.386 . S
C317 C316 1.399 . S
C318 C297 1.485 . S
C318 C319 1.394 . S
C318 C323 1.360 . S
C319 H278 0.931 1_455 S
C319 C318 1.394 . S
C319 C320 1.372 . S
C320 H279 0.930 1_455 S
C320 C319 1.372 . S
C320 C321 1.397 . S
C321 C320 1.397 . S
C321 C322 1.390 . S
C321 C337 1.476 . S
C322 H280 0.930 . S
C322 C321 1.390 . S
C322 C323 1.366 . S
C323 H281 0.932 . S
C323 C318 1.360 . S
C323 C322 1.366 . S
C324 C298 1.490 . S
C324 C325 1.380 . S
C324 C329 1.386 . S
C325 H282 0.930 1_455 S
C325 C324 1.380 . S
C325 C326 1.380 1_455 S
C326 H283 0.931 . S
C326 C325 1.380 1_655 S
C326 C327 1.370 1_655 S
C327 C326 1.370 1_455 S
C327 C328 1.380 . S
C328 H284 0.931 . S
C328 C327 1.380 . S
C328 C329 1.387 . S
C329 H285 0.930 . S
C329 C324 1.386 . S
C329 C328 1.387 . S
C330 C299 1.519 . S
C330 C331 1.377 . S
C330 C335 1.361 . S
C331 H286 0.929 1_455 S
C331 C330 1.377 . S
C331 C332 1.386 . S
C332 H287 0.931 1_455 S
C332 C331 1.386 . S
C332 C333 1.363 . S
C333 C332 1.363 . S
C333 C334 1.385 . S
C334 H288 0.930 . S
C334 C333 1.385 . S
C334 C335 1.396 . S
C335 H289 0.929 . S
C335 C330 1.361 . S
C335 C334 1.396 . S
C336 O290 1.300 . S
C336 O291 1.209 . S
C336 C309 1.486 . S
C337 O292 1.199 . S
C337 O293 1.297 . S
C337 C321 1.476 . S
H338 O364 0.856 . S
H339 O367 0.854 . S
H340 C375 0.930 1_565 S
H341 C376 0.930 1_565 S
H342 C378 0.930 . S
H343 C379 0.930 . S
H344 C381 0.931 1_565 S
H345 C382 0.930 1_565 S
H346 C384 0.930 . S
H347 C385 0.929 . S
H348 C387 0.925 1_565 S
H349 C388 0.931 . S
H350 C390 0.930 . S
H351 C391 0.929 . S
H352 C393 0.931 . S
H353 C394 0.930 . S
H354 C396 0.930 . S
H355 C397 0.932 . S
H356 C399 0.930 1_565 S
H357 C400 0.929 1_565 S
H358 C402 0.931 . S
H359 C403 0.930 . S
H360 C405 0.941 . S
H361 C406 0.931 . S
H362 C408 0.930 . S
H363 C409 0.929 . S
O364 H338 0.856 . S
O364 C410 1.300 . S
O365 C410 1.209 . S
O366 C411 1.199 . S
O367 H339 0.854 . S
O367 C411 1.297 . S
C368 C369 1.404 . S
C368 C373 1.397 . S
C368 C374 1.492 . S
C369 C368 1.404 . S
C369 C370 1.396 . S
C369 C380 1.492 . S
C370 C369 1.396 . S
C370 C371 1.397 . S
C370 C386 1.509 . S
C371 C370 1.397 . S
C371 C372 1.412 . S
C371 C392 1.485 . S
C372 C371 1.412 . S
C372 C373 1.388 . S
C372 C398 1.490 . S
C373 C368 1.397 . S
C373 C372 1.388 . S
C373 C404 1.519 . S
C374 C368 1.492 . S
C374 C375 1.363 . S
C374 C379 1.390 . S
C375 H340 0.930 1_545 S
C375 C374 1.363 . S
C375 C376 1.372 . S
C376 H341 0.930 1_545 S
C376 C375 1.372 . S
C376 C377 1.383 . S
C377 C376 1.383 . S
C377 C378 1.395 . S
C378 H342 0.930 . S
C378 C377 1.395 . S
C378 C379 1.362 . S
C379 H343 0.930 . S
C379 C374 1.390 . S
C379 C378 1.362 . S
C380 C369 1.492 . S
C380 C381 1.377 . S
C380 C385 1.397 . S
C381 H344 0.931 1_545 S
C381 C380 1.377 . S
C381 C382 1.376 . S
C382 H345 0.930 1_545 S
C382 C381 1.376 . S
C382 C383 1.376 . S
C383 C382 1.376 . S
C383 C384 1.378 . S
C383 C410 1.486 . S
C384 H346 0.930 . S
C384 C383 1.378 . S
C384 C385 1.376 . S
C385 H347 0.929 . S
C385 C380 1.397 . S
C385 C384 1.376 . S
C386 C370 1.509 . S
C386 C387 1.391 . S
C386 C391 1.386 . S
C387 H348 0.925 1_545 S
C387 C386 1.391 . S
C387 C388 1.375 . S
C388 H349 0.931 . S
C388 C387 1.375 . S
C388 C389 1.375 . S
C389 C388 1.375 . S
C389 C390 1.361 . S
C390 H350 0.930 . S
C390 C389 1.361 . S
C390 C391 1.399 . S
C391 H351 0.929 . S
C391 C386 1.386 . S
C391 C390 1.399 . S
C392 C371 1.485 . S
C392 C393 1.394 . S
C392 C397 1.360 . S
C393 H352 0.931 . S
C393 C392 1.394 . S
C393 C394 1.372 . S
C394 H353 0.930 . S
C394 C393 1.372 . S
C394 C395 1.397 . S
C395 C394 1.397 . S
C395 C396 1.390 . S
C395 C411 1.476 . S
C396 H354 0.930 . S
C396 C395 1.390 . S
C396 C397 1.366 . S
C397 H355 0.932 . S
C397 C392 1.360 . S
C397 C396 1.366 . S
C398 C372 1.490 . S
C398 C399 1.380 . S
C398 C403 1.386 . S
C399 H356 0.930 1_545 S
C399 C398 1.380 . S
C399 C400 1.381 . S
C400 H357 0.929 1_545 S
C400 C399 1.381 . S
C400 C401 1.371 . S
C401 C400 1.371 . S
C401 C402 1.380 . S
C402 H358 0.931 . S
C402 C401 1.380 . S
C402 C403 1.387 . S
C403 H359 0.930 . S
C403 C398 1.386 . S
C403 C402 1.387 . S
C404 C373 1.519 . S
C404 C405 1.377 . S
C404 C409 1.361 . S
C405 H360 0.941 . S
C405 C404 1.377 . S
C405 C406 1.386 . S
C406 H361 0.931 . S
C406 C405 1.386 . S
C406 C407 1.363 . S
C407 C406 1.363 . S
C407 C408 1.385 . S
C408 H362 0.930 . S
C408 C407 1.385 . S
C408 C409 1.396 . S
C409 H363 0.929 . S
C409 C404 1.361 . S
C409 C408 1.396 . S
C410 O364 1.300 . S
C410 O365 1.209 . S
C410 C383 1.486 . S
C411 O366 1.199 . S
C411 O367 1.297 . S
C411 C395 1.476 . S
H412 O438 0.856 . S
H413 O441 0.854 . S
H414 C449 0.930 . S
H415 C450 0.930 . S
H416 C452 0.930 . S
H417 C453 0.930 . S
H418 C455 0.931 . S
H419 C456 0.930 1_554 S
H420 C458 0.930 . S
H421 C459 0.929 . S
H422 C461 0.930 . S
H423 C462 0.931 . S
H424 C464 0.930 . S
H425 C465 0.929 . S
H426 C467 0.931 . S
H427 C468 0.930 . S
H428 C470 0.930 . S
H429 C471 0.932 . S
H430 C473 0.930 . S
H431 C474 0.929 . S
H432 C476 0.931 . S
H433 C477 0.930 . S
H434 C479 0.929 . S
H435 C480 0.931 . S
H436 C482 0.930 . S
H437 C483 0.929 . S
O438 H412 0.856 . S
O438 C484 1.300 . S
O439 C484 1.209 . S
O440 C485 1.199 . S
O441 H413 0.854 . S
O441 C485 1.297 . S
C442 C443 1.404 . S
C442 C447 1.397 . S
C442 C448 1.492 . S
C443 C442 1.404 . S
C443 C444 1.396 . S
C443 C454 1.492 . S
C444 C443 1.396 . S
C444 C445 1.397 . S
C444 C460 1.509 . S
C445 C444 1.397 . S
C445 C446 1.412 . S
C445 C466 1.485 . S
C446 C445 1.412 . S
C446 C447 1.388 . S
C446 C472 1.490 . S
C447 C442 1.397 . S
C447 C446 1.388 . S
C447 C478 1.519 . S
C448 C442 1.492 . S
C448 C449 1.363 . S
C448 C453 1.390 . S
C449 H414 0.930 . S
C449 C448 1.363 . S
C449 C450 1.372 . S
C450 H415 0.930 . S
C450 C449 1.372 . S
C450 C451 1.383 . S
C451 C450 1.383 . S
C451 C452 1.395 . S
C452 H416 0.930 . S
C452 C451 1.395 . S
C452 C453 1.362 . S
C453 H417 0.930 . S
C453 C448 1.390 . S
C453 C452 1.362 . S
C454 C443 1.492 . S
C454 C455 1.377 . S
C454 C459 1.397 . S
C455 H418 0.931 . S
C455 C454 1.377 . S
C455 C456 1.376 . S
C456 H419 0.930 1_556 S
C456 C455 1.376 . S
C456 C457 1.376 1_556 S
C457 C456 1.376 1_554 S
C457 C458 1.378 1_554 S
C457 C484 1.486 . S
C458 H420 0.930 . S
C458 C457 1.378 1_556 S
C458 C459 1.376 . S
C459 H421 0.929 . S
C459 C454 1.397 . S
C459 C458 1.376 . S
C460 C444 1.509 . S
C460 C461 1.391 . S
C460 C465 1.386 . S
C461 H422 0.930 . S
C461 C460 1.391 . S
C461 C462 1.375 . S
C462 H423 0.931 . S
C462 C461 1.375 . S
C462 C463 1.375 . S
C463 C462 1.375 . S
C463 C464 1.361 . S
C464 H424 0.930 . S
C464 C463 1.361 . S
C464 C465 1.399 . S
C465 H425 0.929 . S
C465 C460 1.386 . S
C465 C464 1.399 . S
C466 C445 1.485 . S
C466 C467 1.394 . S
C466 C471 1.360 . S
C467 H426 0.931 . S
C467 C466 1.394 . S
C467 C468 1.372 . S
C468 H427 0.930 . S
C468 C467 1.372 . S
C468 C469 1.397 . S
C469 C468 1.397 . S
C469 C470 1.390 . S
C469 C485 1.476 . S
C470 H428 0.930 . S
C470 C469 1.390 . S
C470 C471 1.366 . S
C471 H429 0.932 . S
C471 C466 1.360 . S
C471 C470 1.366 . S
C472 C446 1.490 . S
C472 C473 1.380 . S
C472 C477 1.386 . S
C473 H430 0.930 . S
C473 C472 1.380 . S
C473 C474 1.381 . S
C474 H431 0.929 . S
C474 C473 1.381 . S
C474 C475 1.371 . S
C475 C474 1.371 . S
C475 C476 1.380 . S
C476 H432 0.931 . S
C476 C475 1.380 . S
C476 C477 1.387 . S
C477 H433 0.930 . S
C477 C472 1.386 . S
C477 C476 1.387 . S
C478 C447 1.519 . S
C478 C479 1.377 . S
C478 C483 1.361 . S
C479 H434 0.929 . S
C479 C478 1.377 . S
C479 C480 1.386 . S
C480 H435 0.931 . S
C480 C479 1.386 . S
C480 C481 1.363 . S
C481 C480 1.363 . S
C481 C482 1.385 . S
C482 H436 0.930 . S
C482 C481 1.385 . S
C482 C483 1.396 . S
C483 H437 0.929 . S
C483 C478 1.361 . S
C483 C482 1.396 . S
C484 O438 1.300 . S
C484 O439 1.209 . S
C484 C457 1.486 . S
C485 O440 1.199 . S
C485 O441 1.297 . S
C485 C469 1.476 . S
C486 C487 1.363 . S
C486 C492 1.379 . S
C486 N494 1.356 . S
C487 C486 1.363 . S
C487 C493 1.363 1_455 S
C488 C489 1.363 1_655 S
C488 C493 1.379 . S
C488 N495 1.356 . S
C489 C488 1.363 1_455 S
C489 C492 1.363 . S
N490 C492 1.356 . S
N490 H502 0.984 . S
N490 H503 0.985 . S
N491 C493 1.356 . S
N491 H496 0.984 . S
N491 H497 0.985 . S
C492 C486 1.379 . S
C492 C489 1.363 . S
C492 N490 1.356 . S
C493 C487 1.363 1_655 S
C493 C488 1.379 . S
C493 N491 1.356 . S
N494 C486 1.356 . S
N494 H500 0.984 . S
N494 H501 0.984 . S
N495 C488 1.356 . S
N495 H498 0.984 . S
N495 H499 0.985 . S
H496 N491 0.984 . S
H497 N491 0.985 . S
H498 N495 0.984 . S
H499 N495 0.985 . S
H500 N494 0.984 . S
H501 N494 0.984 . S
H502 N490 0.984 . S
H503 N490 0.985 . S
C504 C505 1.363 1_545 S
C504 C510 1.379 . S
C504 N512 1.356 . S
C505 C504 1.363 1_565 S
C505 C511 1.363 . S
C506 C507 1.363 1_565 S
C506 C511 1.379 . S
C506 N513 1.356 . S
C507 C506 1.363 1_545 S
C507 C510 1.363 . S
N508 C510 1.356 . S
N508 H520 0.984 . S
N508 H521 0.985 . S
N509 C511 1.356 . S
N509 H514 0.984 . S
N509 H515 0.985 . S
C510 C504 1.379 . S
C510 C507 1.363 . S
C510 N508 1.356 . S
C511 C505 1.363 . S
C511 C506 1.379 . S
C511 N509 1.356 . S
N512 C504 1.356 . S
N512 H518 0.984 . S
N512 H519 0.984 1_545 S
N513 C506 1.356 . S
N513 H516 0.984 1_565 S
N513 H517 0.985 . S
H514 N509 0.984 . S
H515 N509 0.985 . S
H516 N513 0.984 1_545 S
H517 N513 0.985 . S
H518 N512 0.984 . S
H519 N512 0.984 1_565 S
H520 N508 0.984 . S
H521 N508 0.985 . S
C522 C523 1.363 . S
C522 C528 1.379 . S
C522 N530 1.356 . S
C523 C522 1.363 . S
C523 C529 1.363 . S
C524 C525 1.363 . S
C524 C529 1.379 . S
C524 N531 1.356 . S
C525 C524 1.363 . S
C525 C528 1.363 . S
N526 C528 1.356 . S
N526 H538 0.984 . S
N526 H539 0.985 . S
N527 C529 1.356 . S
N527 H532 0.984 . S
N527 H533 0.985 . S
C528 C522 1.379 . S
C528 C525 1.363 . S
C528 N526 1.356 . S
C529 C523 1.363 . S
C529 C524 1.379 . S
C529 N527 1.356 . S
N530 C522 1.356 . S
N530 H536 0.984 . S
N530 H537 0.984 . S
N531 C524 1.356 . S
N531 H534 0.984 . S
N531 H535 0.985 . S
H532 N527 0.984 . S
H533 N527 0.985 . S
H534 N531 0.984 . S
H535 N531 0.985 . S
H536 N530 0.984 . S
H537 N530 0.984 . S
H538 N526 0.984 . S
H539 N526 0.985 . S
C540 C541 1.363 . S
C540 C546 1.379 . S
C540 N548 1.356 . S
C541 C540 1.363 . S
C541 C547 1.363 . S
C542 C543 1.363 . S
C542 C547 1.379 . S
C542 N549 1.356 . S
C543 C542 1.363 . S
C543 C546 1.363 . S
N544 C546 1.356 . S
N544 H556 0.984 . S
N544 H557 0.985 . S
N545 C547 1.356 . S
N545 H550 0.984 . S
N545 H551 0.990 . S
C546 C540 1.379 . S
C546 C543 1.363 . S
C546 N544 1.356 . S
C547 C541 1.363 . S
C547 C542 1.379 . S
C547 N545 1.356 . S
N548 C540 1.356 . S
N548 H554 0.984 . S
N548 H555 0.984 . S
N549 C542 1.356 . S
N549 H552 0.984 . S
N549 H553 0.985 1_455 S
H550 N545 0.984 . S
H551 N545 0.990 . S
H552 N549 0.984 . S
H553 N549 0.985 1_655 S
H554 N548 0.984 . S
H555 N548 0.984 . S
H556 N544 0.984 . S
H557 N544 0.985 . S
C558 C559 1.363 . S
C558 C564 1.379 . S
C558 N566 1.356 . S
C559 C558 1.363 . S
C559 C565 1.363 . S
C560 C561 1.363 . S
C560 C565 1.379 . S
C560 N567 1.356 . S
C561 C560 1.363 . S
C561 C564 1.363 . S
N562 C564 1.356 . S
N562 H574 0.984 1_545 S
N562 H575 0.985 . S
N563 C565 1.356 . S
N563 H568 0.984 . S
N563 H569 0.985 . S
C564 C558 1.379 . S
C564 C561 1.363 . S
C564 N562 1.356 . S
C565 C559 1.363 . S
C565 C560 1.379 . S
C565 N563 1.356 . S
N566 C558 1.356 . S
N566 H572 0.984 1_545 S
N566 H573 0.984 . S
N567 C560 1.356 . S
N567 H570 0.984 . S
N567 H571 0.985 . S
H568 N563 0.984 . S
H569 N563 0.985 . S
H570 N567 0.984 . S
H571 N567 0.985 . S
H572 N566 0.984 1_565 S
H573 N566 0.984 . S
H574 N562 0.984 1_565 S
H575 N562 0.985 . S
C576 C577 1.363 . S
C576 C582 1.379 . S
C576 N584 1.356 . S
C577 C576 1.363 . S
C577 C583 1.363 . S
C578 C579 1.363 . S
C578 C583 1.379 . S
C578 N585 1.356 . S
C579 C578 1.363 . S
C579 C582 1.363 . S
N580 C582 1.356 . S
N580 H592 0.984 . S
N580 H593 0.985 . S
N581 C583 1.356 . S
N581 H586 0.984 . S
N581 H587 0.985 . S
C582 C576 1.379 . S
C582 C579 1.363 . S
C582 N580 1.356 . S
C583 C577 1.363 . S
C583 C578 1.379 . S
C583 N581 1.356 . S
N584 C576 1.356 . S
N584 H590 0.984 . S
N584 H591 0.984 . S
N585 C578 1.356 . S
N585 H588 0.984 . S
N585 H589 0.985 . S
H586 N581 0.984 . S
H587 N581 0.985 . S
H588 N585 0.984 . S
H589 N585 0.985 . S
H590 N584 0.984 . S
H591 N584 0.984 . S
H592 N580 0.984 . S
H593 N580 0.985 . S
C594 C595 1.363 . S
C594 C600 1.379 . S
C594 N602 1.356 . S
C595 C594 1.363 . S
C595 C601 1.363 . S
C596 C597 1.363 . S
C596 C601 1.379 . S
C596 N603 1.356 . S
C597 C596 1.363 . S
C597 C600 1.363 . S
N598 C600 1.356 . S
N598 H610 0.984 . S
N598 H611 0.985 . S
N599 C601 1.356 . S
N599 H604 0.984 . S
N599 H605 0.985 . S
C600 C594 1.379 . S
C600 C597 1.363 . S
C600 N598 1.356 . S
C601 C595 1.363 . S
C601 C596 1.379 . S
C601 N599 1.356 . S
N602 C594 1.356 . S
N602 H608 0.984 . S
N602 H609 0.984 . S
N603 C596 1.356 . S
N603 H606 0.984 . S
N603 H607 0.985 . S
H604 N599 0.984 . S
H605 N599 0.985 . S
H606 N603 0.984 . S
H607 N603 0.985 . S
H608 N602 0.984 . S
H609 N602 0.984 . S
H610 N598 0.984 . S
H611 N598 0.985 . S
C612 C613 1.359 . S
C612 C618 1.379 . S
C612 N620 1.356 . S
C613 C612 1.359 . S
C613 C619 1.362 . S
C614 C615 1.363 . S
C614 C619 1.379 . S
C614 N621 1.356 . S
C615 C614 1.363 . S
C615 C618 1.363 . S
N616 C618 1.356 . S
N616 H628 0.984 . S
N616 H629 0.985 . S
N617 C619 1.356 1_554 S
N617 H622 0.984 . S
N617 H623 0.985 . S
C618 C612 1.379 . S
C618 C615 1.363 . S
C618 N616 1.356 . S
C619 C613 1.362 . S
C619 C614 1.379 . S
C619 N617 1.356 1_556 S
N620 C612 1.356 . S
N620 H626 0.984 . S
N620 H627 0.984 1_556 S
N621 C614 1.356 . S
N621 H624 0.984 . S
N621 H625 0.985 . S
H622 N617 0.984 . S
H623 N617 0.985 . S
H624 N621 0.984 . S
H625 N621 0.985 . S
H626 N620 0.984 . S
H627 N620 0.984 1_554 S
H628 N616 0.984 . S
H629 N616 0.985 . S
C630 C631 1.349 1_455 S
C630 C636 1.379 . S
C630 N638 1.356 . S
C631 C630 1.349 1_655 S
C631 C637 1.367 . S
C632 C633 1.363 1_655 S
C632 C637 1.379 . S
C632 N639 1.356 . S
C633 C632 1.363 1_455 S
C633 C636 1.363 . S
N634 C636 1.356 . S
N634 H646 0.984 . S
N634 H647 0.985 . S
N635 C637 1.356 . S
N635 H640 0.984 . S
N635 H641 0.985 . S
C636 C630 1.379 . S
C636 C633 1.363 . S
C636 N634 1.356 . S
C637 C631 1.367 . S
C637 C632 1.379 . S
C637 N635 1.356 . S
N638 C630 1.356 . S
N638 H644 0.984 . S
N638 H645 0.984 . S
N639 C632 1.356 . S
N639 H642 0.984 . S
N639 H643 0.985 . S
H640 N635 0.984 . S
H641 N635 0.985 . S
H642 N639 0.984 . S
H643 N639 0.985 . S
H644 N638 0.984 . S
H645 N638 0.984 . S
H646 N634 0.984 . S
H647 N634 0.985 . S
C648 C649 1.363 . S
C648 C654 1.379 . S
C648 N656 1.356 . S
C649 C648 1.363 . S
C649 C655 1.363 1_545 S
C650 C651 1.363 . S
C650 C655 1.379 1_545 S
C650 N657 1.356 1_545 S
C651 C650 1.363 . S
C651 C654 1.363 . S
N652 C654 1.356 . S
N652 H664 0.984 . S
N652 H665 0.985 . S
N653 C655 1.356 . S
N653 H658 0.984 . S
N653 H659 0.985 . S
C654 C648 1.379 . S
C654 C651 1.363 . S
C654 N652 1.356 . S
C655 C649 1.363 1_565 S
C655 C650 1.379 1_565 S
C655 N653 1.356 . S
N656 C648 1.356 . S
N656 H662 0.984 . S
N656 H663 0.984 . S
N657 C650 1.356 1_565 S
N657 H660 0.984 . S
N657 H661 0.985 . S
H658 N653 0.984 . S
H659 N653 0.985 . S
H660 N657 0.984 . S
H661 N657 0.985 . S
H662 N656 0.984 . S
H663 N656 0.984 . S
H664 N652 0.984 . S
H665 N652 0.985 . S
C666 C667 1.388 . S
C666 C672 1.357 1_554 S
C666 N674 1.362 . S
C667 C666 1.388 . S
C667 C673 1.363 . S
C668 C669 1.363 1_554 S
C668 C673 1.379 . S
C668 N675 1.356 . S
C669 C668 1.363 1_556 S
C669 C672 1.363 . S
N670 C672 1.356 . S
N670 H682 0.984 . S
N670 H683 0.985 . S
N671 C673 1.356 . S
N671 H676 0.984 . S
N671 H677 0.985 . S
C672 C666 1.357 1_556 S
C672 C669 1.363 . S
C672 N670 1.356 . S
C673 C667 1.363 . S
C673 C668 1.379 . S
C673 N671 1.356 . S
N674 C666 1.362 . S
N674 H680 0.984 1_554 S
N674 H681 0.984 . S
N675 C668 1.356 . S
N675 H678 0.984 1_554 S
N675 H679 0.985 . S
H676 N671 0.984 . S
H677 N671 0.985 . S
H678 N675 0.984 1_556 S
H679 N675 0.985 . S
H680 N674 0.984 1_556 S
H681 N674 0.984 . S
H682 N670 0.984 . S
H683 N670 0.985 . S
C684 C685 1.363 . S
C684 C690 1.379 . S
C684 N692 1.356 . S
C685 C684 1.363 . S
C685 C691 1.363 . S
C686 C687 1.363 . S
C686 C691 1.379 . S
C686 N693 1.356 . S
C687 C686 1.363 . S
C687 C690 1.363 . S
N688 C690 1.356 . S
N688 H700 0.984 1_455 S
N688 H701 0.985 . S
N689 C691 1.356 . S
N689 H694 0.984 . S
N689 H695 0.985 . S
C690 C684 1.379 . S
C690 C687 1.363 . S
C690 N688 1.356 . S
C691 C685 1.363 . S
C691 C686 1.379 . S
C691 N689 1.356 . S
N692 C684 1.356 . S
N692 H698 0.984 1_455 S
N692 H699 0.984 . S
N693 C686 1.356 . S
N693 H696 0.984 . S
N693 H697 0.985 . S
H694 N689 0.984 . S
H695 N689 0.985 . S
H696 N693 0.984 . S
H697 N693 0.985 . S
H698 N692 0.984 1_655 S
H699 N692 0.984 . S
H700 N688 0.984 1_655 S
H701 N688 0.985 . S
C489 C303 1.512 . S
C487 C29 1.598 . S
C505 C137 1.621 . S
C507 C377 1.552 . S
C523 C225 2.116 . S
C525 C481 2.154 . S
C541 C49 0.820 . S
C543 C315 0.826 . S
C561 C389 0.775 . S
C559 C117 0.774 . S
C577 C205 1.523 . S
C579 C475 1.426 . S
C597 C407 2.160 . S
C595 C233 2.121 . S
C613 C57 1.606 1_556 S
C615 C451 1.515 . S
C633 C327 1.470 . S
C631 C108 1.557 . S
C651 C401 1.436 . S
C649 C196 1.535 . S
C669 C463 0.830 . S
C667 C20 0.823 . S
C685 C145 2.112 . S
C687 C333 2.138 . S
