# Generated by pormake.
# Topology ptr, (4,4)-cn, num edge types: 1
# Building blocks:
#     Node 0, Type 0, BuildingBlock: AZAVOO_clean_sbu_0, # of connection points: 4
#     Node 1, Type 0, BuildingBlock: AZAVOO_clean_sbu_0, # of connection points: 4
#     Node 2, Type 0, BuildingBlock: AZAVOO_clean_sbu_0, # of connection points: 4
#     Node 3, Type 0, BuildingBlock: AZAVOO_clean_sbu_0, # of connection points: 4
#     Node 4, Type 0, BuildingBlock: AZAVOO_clean_sbu_0, # of connection points: 4
#     Node 5, Type 0, BuildingBlock: AZAVOO_clean_sbu_0, # of connection points: 4
#     Node 6, Type 0, BuildingBlock: AZAVOO_clean_sbu_0, # of connection points: 4
#     Node 7, Type 0, BuildingBlock: AZAVOO_clean_sbu_0, # of connection points: 4
#     Node 8, Type 0, BuildingBlock: AZAVOO_clean_sbu_0, # of connection points: 4
#     Node 9, Type 0, BuildingBlock: AZAVOO_clean_sbu_0, # of connection points: 4
#     Node 10, Type 0, BuildingBlock: AZAVOO_clean_sbu_0, # of connection points: 4
#     Node 11, Type 0, BuildingBlock: AZAVOO_clean_sbu_0, # of connection points: 4
#     Node 12, Type 0, BuildingBlock: AZAVOO_clean_sbu_0, # of connection points: 4
#     Node 13, Type 0, BuildingBlock: AZAVOO_clean_sbu_0, # of connection points: 4
#     Node 14, Type 0, BuildingBlock: AZAVOO_clean_sbu_0, # of connection points: 4
#     Node 15, Type 0, BuildingBlock: AZAVOO_clean_sbu_0, # of connection points: 4
#     Node 16, Type 0, BuildingBlock: AZAVOO_clean_sbu_0, # of connection points: 4
#     Node 17, Type 0, BuildingBlock: AZAVOO_clean_sbu_0, # of connection points: 4
#     Node 18, Type 1, BuildingBlock: AZAVOO_clean_linker_0, # of connection points: 4
#     Node 19, Type 1, BuildingBlock: AZAVOO_clean_linker_0, # of connection points: 4
#     Node 20, Type 1, BuildingBlock: AZAVOO_clean_linker_0, # of connection points: 4
#     Node 21, Type 1, BuildingBlock: AZAVOO_clean_linker_0, # of connection points: 4
#     Node 22, Type 1, BuildingBlock: AZAVOO_clean_linker_0, # of connection points: 4
#     Node 23, Type 1, BuildingBlock: AZAVOO_clean_linker_0, # of connection points: 4
#     Node 24, Type 1, BuildingBlock: AZAVOO_clean_linker_0, # of connection points: 4
#     Node 25, Type 1, BuildingBlock: AZAVOO_clean_linker_0, # of connection points: 4
#     Node 26, Type 1, BuildingBlock: AZAVOO_clean_linker_0, # of connection points: 4
#     Node 27, Type 1, BuildingBlock: AZAVOO_clean_linker_0, # of connection points: 4
#     Node 28, Type 1, BuildingBlock: AZAVOO_clean_linker_0, # of connection points: 4
#     Node 29, Type 1, BuildingBlock: AZAVOO_clean_linker_0, # of connection points: 4
#     Node 30, Type 1, BuildingBlock: AZAVOO_clean_linker_0, # of connection points: 4
#     Node 31, Type 1, BuildingBlock: AZAVOO_clean_linker_0, # of connection points: 4
#     Node 32, Type 1, BuildingBlock: AZAVOO_clean_linker_0, # of connection points: 4
#     Node 33, Type 1, BuildingBlock: AZAVOO_clean_linker_0, # of connection points: 4
#     Node 34, Type 1, BuildingBlock: AZAVOO_clean_linker_0, # of connection points: 4
#     Node 35, Type 1, BuildingBlock: AZAVOO_clean_linker_0, # of connection points: 4
#     Edge 36, Type (0, 1), BuildingBlock: UVAHIK_clean_linker_0, # of connection points: 2
#     Edge 37, Type (0, 1), BuildingBlock: UVAHIK_clean_linker_0, # of connection points: 2
#     Edge 38, Type (0, 1), BuildingBlock: UVAHIK_clean_linker_0, # of connection points: 2
#     Edge 39, Type (0, 1), BuildingBlock: UVAHIK_clean_linker_0, # of connection points: 2
#     Edge 40, Type (0, 1), BuildingBlock: UVAHIK_clean_linker_0, # of connection points: 2
#     Edge 41, Type (0, 1), BuildingBlock: UVAHIK_clean_linker_0, # of connection points: 2
#     Edge 42, Type (0, 1), BuildingBlock: UVAHIK_clean_linker_0, # of connection points: 2
#     Edge 43, Type (0, 1), BuildingBlock: UVAHIK_clean_linker_0, # of connection points: 2
#     Edge 44, Type (0, 1), BuildingBlock: UVAHIK_clean_linker_0, # of connection points: 2
#     Edge 45, Type (0, 1), BuildingBlock: UVAHIK_clean_linker_0, # of connection points: 2
#     Edge 46, Type (0, 1), BuildingBlock: UVAHIK_clean_linker_0, # of connection points: 2
#     Edge 47, Type (0, 1), BuildingBlock: UVAHIK_clean_linker_0, # of connection points: 2
#     Edge 48, Type (0, 1), BuildingBlock: UVAHIK_clean_linker_0, # of connection points: 2
#     Edge 49, Type (0, 1), BuildingBlock: UVAHIK_clean_linker_0, # of connection points: 2
#     Edge 50, Type (0, 1), BuildingBlock: UVAHIK_clean_linker_0, # of connection points: 2
#     Edge 51, Type (0, 1), BuildingBlock: UVAHIK_clean_linker_0, # of connection points: 2
#     Edge 52, Type (0, 1), BuildingBlock: UVAHIK_clean_linker_0, # of connection points: 2
#     Edge 53, Type (0, 1), BuildingBlock: UVAHIK_clean_linker_0, # of connection points: 2
#     Edge 54, Type (0, 1), BuildingBlock: UVAHIK_clean_linker_0, # of connection points: 2
#     Edge 55, Type (0, 1), BuildingBlock: UVAHIK_clean_linker_0, # of connection points: 2
#     Edge 56, Type (0, 1), BuildingBlock: UVAHIK_clean_linker_0, # of connection points: 2
#     Edge 57, Type (0, 1), BuildingBlock: UVAHIK_clean_linker_0, # of connection points: 2
#     Edge 58, Type (0, 1), BuildingBlock: UVAHIK_clean_linker_0, # of connection points: 2
#     Edge 59, Type (0, 1), BuildingBlock: UVAHIK_clean_linker_0, # of connection points: 2
#     Edge 60, Type (0, 1), BuildingBlock: UVAHIK_clean_linker_0, # of connection points: 2
#     Edge 61, Type (0, 1), BuildingBlock: UVAHIK_clean_linker_0, # of connection points: 2
#     Edge 62, Type (0, 1), BuildingBlock: UVAHIK_clean_linker_0, # of connection points: 2
#     Edge 63, Type (0, 1), BuildingBlock: UVAHIK_clean_linker_0, # of connection points: 2
#     Edge 64, Type (0, 1), BuildingBlock: UVAHIK_clean_linker_0, # of connection points: 2
#     Edge 65, Type (0, 1), BuildingBlock: UVAHIK_clean_linker_0, # of connection points: 2
#     Edge 66, Type (0, 1), BuildingBlock: UVAHIK_clean_linker_0, # of connection points: 2
#     Edge 67, Type (0, 1), BuildingBlock: UVAHIK_clean_linker_0, # of connection points: 2
#     Edge 68, Type (0, 1), BuildingBlock: UVAHIK_clean_linker_0, # of connection points: 2
#     Edge 69, Type (0, 1), BuildingBlock: UVAHIK_clean_linker_0, # of connection points: 2
#     Edge 70, Type (0, 1), BuildingBlock: UVAHIK_clean_linker_0, # of connection points: 2
#     Edge 71, Type (0, 1), BuildingBlock: UVAHIK_clean_linker_0, # of connection points: 2
#     Edge 72, Type (0, 1), BuildingBlock: UVAHIK_clean_linker_0, # of connection points: 2
#     Edge 73, Type (0, 1), BuildingBlock: UVAHIK_clean_linker_0, # of connection points: 2
#     Edge 74, Type (0, 1), BuildingBlock: UVAHIK_clean_linker_0, # of connection points: 2
#     Edge 75, Type (0, 1), BuildingBlock: UVAHIK_clean_linker_0, # of connection points: 2
#     Edge 76, Type (0, 1), BuildingBlock: UVAHIK_clean_linker_0, # of connection points: 2
#     Edge 77, Type (0, 1), BuildingBlock: UVAHIK_clean_linker_0, # of connection points: 2
#     Edge 78, Type (0, 1), BuildingBlock: UVAHIK_clean_linker_0, # of connection points: 2
#     Edge 79, Type (0, 1), BuildingBlock: UVAHIK_clean_linker_0, # of connection points: 2
#     Edge 80, Type (0, 1), BuildingBlock: UVAHIK_clean_linker_0, # of connection points: 2
#     Edge 81, Type (0, 1), BuildingBlock: UVAHIK_clean_linker_0, # of connection points: 2
#     Edge 82, Type (0, 1), BuildingBlock: UVAHIK_clean_linker_0, # of connection points: 2
#     Edge 83, Type (0, 1), BuildingBlock: UVAHIK_clean_linker_0, # of connection points: 2
#     Edge 84, Type (0, 1), BuildingBlock: UVAHIK_clean_linker_0, # of connection points: 2
#     Edge 85, Type (0, 1), BuildingBlock: UVAHIK_clean_linker_0, # of connection points: 2
#     Edge 86, Type (0, 1), BuildingBlock: UVAHIK_clean_linker_0, # of connection points: 2
#     Edge 87, Type (0, 1), BuildingBlock: UVAHIK_clean_linker_0, # of connection points: 2
#     Edge 88, Type (0, 1), BuildingBlock: UVAHIK_clean_linker_0, # of connection points: 2
#     Edge 89, Type (0, 1), BuildingBlock: UVAHIK_clean_linker_0, # of connection points: 2
#     Edge 90, Type (0, 1), BuildingBlock: UVAHIK_clean_linker_0, # of connection points: 2
#     Edge 91, Type (0, 1), BuildingBlock: UVAHIK_clean_linker_0, # of connection points: 2
#     Edge 92, Type (0, 1), BuildingBlock: UVAHIK_clean_linker_0, # of connection points: 2
#     Edge 93, Type (0, 1), BuildingBlock: UVAHIK_clean_linker_0, # of connection points: 2
#     Edge 94, Type (0, 1), BuildingBlock: UVAHIK_clean_linker_0, # of connection points: 2
#     Edge 95, Type (0, 1), BuildingBlock: UVAHIK_clean_linker_0, # of connection points: 2
#     Edge 96, Type (0, 1), BuildingBlock: UVAHIK_clean_linker_0, # of connection points: 2
#     Edge 97, Type (0, 1), BuildingBlock: UVAHIK_clean_linker_0, # of connection points: 2
#     Edge 98, Type (0, 1), BuildingBlock: UVAHIK_clean_linker_0, # of connection points: 2
#     Edge 99, Type (0, 1), BuildingBlock: UVAHIK_clean_linker_0, # of connection points: 2
#     Edge 100, Type (0, 1), BuildingBlock: UVAHIK_clean_linker_0, # of connection points: 2
#     Edge 101, Type (0, 1), BuildingBlock: UVAHIK_clean_linker_0, # of connection points: 2
#     Edge 102, Type (0, 1), BuildingBlock: UVAHIK_clean_linker_0, # of connection points: 2
#     Edge 103, Type (0, 1), BuildingBlock: UVAHIK_clean_linker_0, # of connection points: 2
#     Edge 104, Type (0, 1), BuildingBlock: UVAHIK_clean_linker_0, # of connection points: 2
#     Edge 105, Type (0, 1), BuildingBlock: UVAHIK_clean_linker_0, # of connection points: 2
#     Edge 106, Type (0, 1), BuildingBlock: UVAHIK_clean_linker_0, # of connection points: 2
#     Edge 107, Type (0, 1), BuildingBlock: UVAHIK_clean_linker_0, # of connection points: 2
# Relax obj value: 0.119
# Max RMSD: 0.323
# Mean RMSD: 0.192
data_MOF--net-ptr--node1-AZAVOO_clean_sbu_0--node2-AZAVOO_clean_linker_0--edge1-UVAHIK_clean_linker_0
_symmetry_space_group_name_H-M    P1
_symmetry_Int_Tables_number       1
_symmetry_cell_setting            triclinic
loop_
_symmetry_equiv_pos_as_xyz
'x, y, z'
_cell_length_a     102.5349
_cell_length_b     99.585215
_cell_length_c     83.274533
_cell_angle_alpha  93.247067
_cell_angle_beta   93.213787
_cell_angle_gamma 120.18965
loop_
_atom_site_label
_atom_site_type_symbol
_atom_site_fract_x
_atom_site_fract_y
_atom_site_fract_z
_atom_type_partial_charge
Mg0 Mg 0.02039 0.36113 0.99589 0.0
O1 O 0.01046 0.36926 0.01572 0.0
O2 O 0.99047 0.36973 0.00418 0.0
Mg3 Mg 0.98825 0.36299 0.97704 0.0
C4 C -0.00062 0.37167 0.01656 0.0
C5 C 0.03467 0.34369 0.01161 0.0
O6 O 0.02858 0.33552 0.99752 0.0
O7 O 0.00043 0.33615 0.99446 0.0
O8 O 0.98174 0.33795 0.98164 0.0
O9 O 0.03547 0.38609 0.99123 0.0
O10 O 0.01256 0.37052 0.97882 0.0
C11 C 0.98682 0.3299 0.98801 0.0
C12 C 0.02438 0.38425 0.98128 0.0
O13 O 0.03354 0.35567 0.01495 0.0
Mg14 Mg 0.63808 0.63299 0.0768 0.0
O15 O 0.62031 0.6278 0.0557 0.0
O16 O 0.59954 0.62516 0.06587 0.0
Mg17 Mg 0.60421 0.62896 0.09344 0.0
C18 C 0.60675 0.62518 0.05386 0.0
C19 C 0.66783 0.63931 0.06355 0.0
O20 O 0.66828 0.63311 0.07694 0.0
O21 O 0.64298 0.65782 0.08119 0.0
O22 O 0.62234 0.65478 0.0921 0.0
O23 O 0.62864 0.60746 0.07819 0.0
O24 O 0.62121 0.62171 0.09184 0.0
C25 C 0.63547 0.66346 0.08745 0.0
C26 C 0.61967 0.60824 0.08808 0.0
O27 O 0.65636 0.64055 0.05962 0.0
Mg28 Mg 0.36816 0.99228 0.00354 0.0
O29 O 0.38575 0.00103 0.02552 0.0
O30 O 0.40719 0.02143 0.01921 0.0
Mg31 Mg 0.40334 0.02525 0.99288 0.0
C32 C 0.3995 0.01188 0.02923 0.0
C33 C 0.33675 0.96728 0.01372 0.0
O34 O 0.33494 0.962 0.99845 0.0
O35 O 0.36532 0.01325 0.00791 0.0
O36 O 0.38621 0.03275 0.99954 0.0
O37 O 0.3756 0.97593 0.99436 0.0
O38 O 0.38547 0.00038 0.98853 0.0
C39 C 0.37329 0.02745 0.00502 0.0
C40 C 0.3857 0.98754 0.98744 0.0
O41 O 0.34934 0.97905 0.01942 0.0
Mg42 Mg 0.98442 0.64626 0.06647 0.0
O43 O 0.99514 0.63974 0.0461 0.0
O44 O 0.01383 0.63703 0.05756 0.0
Mg45 Mg 0.0149 0.64144 0.08498 0.0
C46 C 0.00583 0.63674 0.04507 0.0
C47 C 0.96708 0.64815 0.03444 0.0
O48 O 0.96722 0.63552 0.02927 0.0
O49 O 0.00482 0.67079 0.07069 0.0
O50 O 0.02271 0.66739 0.08303 0.0
O51 O 0.96797 0.62103 0.06837 0.0
O52 O 0.99072 0.6344 0.08188 0.0
C53 C 0.01816 0.67624 0.07759 0.0
C54 C 0.97841 0.62123 0.07806 0.0
O55 O 0.9729 0.65458 0.04864 0.0
Mg56 Mg 0.36751 0.37877 0.98472 0.0
O57 O 0.38632 0.38361 0.00448 0.0
O58 O 0.407 0.38867 0.99228 0.0
Mg59 Mg 0.40144 0.38704 0.96494 0.0
C60 C 0.40017 0.38712 0.00502 0.0
C61 C 0.33613 0.35883 0.99663 0.0
O62 O 0.33309 0.35549 0.98089 0.0
O63 O 0.36433 0.35494 0.97753 0.0
O64 O 0.38431 0.36056 0.96382 0.0
O65 O 0.37493 0.40417 0.98584 0.0
O66 O 0.38382 0.3926 0.97012 0.0
C67 C 0.37181 0.35069 0.96899 0.0
C68 C 0.38438 0.40523 0.97562 0.0
O69 O 0.34969 0.36842 0.0024 0.0
Mg70 Mg 0.63963 0.01999 0.06291 0.0
O71 O 0.62234 0.00982 0.04053 0.0
O72 O 0.60174 0.9883 0.04649 0.0
Mg73 Mg 0.60587 0.98501 0.07285 0.0
C74 C 0.60904 0.99816 0.03657 0.0
C75 C 0.66844 0.04822 0.04958 0.0
O76 O 0.66827 0.05687 0.06197 0.0
O77 O 0.64491 0.00066 0.05944 0.0
O78 O 0.62439 0.97952 0.0662 0.0
O79 O 0.62968 0.03431 0.07125 0.0
O80 O 0.62226 0.01043 0.0777 0.0
C81 C 0.63771 0.98621 0.06153 0.0
C82 C 0.62045 0.02234 0.07842 0.0
O83 O 0.65817 0.03393 0.04707 0.0
Mg84 Mg 0.68054 0.69661 0.3333 0.0
O85 O 0.66859 0.7037 0.35166 0.0
O86 O 0.65182 0.70783 0.33786 0.0
Mg87 Mg 0.65289 0.70326 0.31087 0.0
C88 C 0.65837 0.70746 0.3512 0.0
C89 C 0.70422 0.69462 0.35669 0.0
O90 O 0.71326 0.70646 0.34888 0.0
O91 O 0.65958 0.67238 0.32808 0.0
O92 O 0.64366 0.67717 0.31351 0.0
O93 O 0.69787 0.72179 0.33204 0.0
O94 O 0.67648 0.70883 0.31612 0.0
C95 C 0.64688 0.66769 0.3199 0.0
C96 C 0.68873 0.72185 0.3207 0.0
O97 O 0.68997 0.68815 0.35329 0.0
Mg98 Mg 0.30213 0.96725 0.41645 0.0
O99 O 0.28468 0.9609 0.39464 0.0
O100 O 0.26343 0.95827 0.40348 0.0
Mg101 Mg 0.26746 0.96317 0.43101 0.0
C102 C 0.27107 0.95799 0.39201 0.0
C103 C 0.31904 0.96415 0.38806 0.0
O104 O 0.30636 0.95059 0.38572 0.0
O105 O 0.30646 0.99193 0.4191 0.0
O106 O 0.28532 0.98895 0.42874 0.0
O107 O 0.29353 0.94225 0.41926 0.0
O108 O 0.28476 0.95611 0.4312 0.0
C109 C 0.29856 0.99756 0.4243 0.0
C110 C 0.28397 0.94284 0.42838 0.0
O111 O 0.32072 0.97385 0.39972 0.0
Mg112 Mg 0.04525 0.31975 0.33867 0.0
O113 O 0.06268 0.32865 0.36103 0.0
O114 O 0.08491 0.34671 0.35337 0.0
Mg115 Mg 0.0819 0.34899 0.32649 0.0
C116 C 0.07679 0.33873 0.36417 0.0
C117 C 0.01385 0.30938 0.34882 0.0
O118 O 0.01385 0.31494 0.33488 0.0
O119 O 0.04512 0.34238 0.34072 0.0
O120 O 0.06713 0.35979 0.33216 0.0
O121 O 0.05026 0.30099 0.33133 0.0
O122 O 0.06235 0.32496 0.32393 0.0
C123 C 0.05437 0.35614 0.33735 0.0
C124 C 0.06095 0.31135 0.32375 0.0
O125 O 0.0256 0.30919 0.35421 0.0
Mg126 Mg 0.65331 0.96898 0.39796 0.0
O127 O 0.6665 0.96246 0.38076 0.0
O128 O 0.68331 0.95922 0.39573 0.0
Mg129 Mg 0.68136 0.96424 0.4223 0.0
C130 C 0.67705 0.95919 0.38203 0.0
C131 C 0.63348 0.9656 0.36641 0.0
O132 O 0.62907 0.95086 0.36772 0.0
O133 O 0.6735 0.99374 0.40313 0.0
O134 O 0.68982 0.98992 0.41832 0.0
O135 O 0.63673 0.94369 0.3995 0.0
O136 O 0.65761 0.95765 0.41604 0.0
C137 C 0.68625 0.99892 0.41141 0.0
C138 C 0.6458 0.94428 0.41134 0.0
O139 O 0.64359 0.97598 0.37683 0.0
Mg140 Mg 0.03723 0.71555 0.32513 0.0
O141 O 0.05494 0.72121 0.34651 0.0
O142 O 0.07625 0.72528 0.33643 0.0
Mg143 Mg 0.07231 0.72281 0.30885 0.0
C144 C 0.06871 0.72444 0.34841 0.0
C145 C 0.0066 0.70676 0.33724 0.0
O146 O 0.00649 0.7134 0.32408 0.0
O147 O 0.03412 0.6915 0.31978 0.0
O148 O 0.05529 0.69643 0.30879 0.0
O149 O 0.04489 0.74079 0.32485 0.0
O150 O 0.05432 0.72867 0.31086 0.0
C151 C 0.04227 0.68688 0.31314 0.0
C152 C 0.05466 0.74148 0.31522 0.0
O153 O 0.01826 0.70599 0.3416 0.0
Mg154 Mg 0.29509 0.35218 0.39007 0.0
O155 O 0.2762 0.33957 0.36935 0.0
O156 O 0.25652 0.31939 0.37877 0.0
Mg157 Mg 0.26307 0.31915 0.40547 0.0
C158 C 0.26279 0.32772 0.36733 0.0
C159 C 0.32597 0.37035 0.37798 0.0
O160 O 0.32889 0.36929 0.39328 0.0
O161 O 0.30024 0.33272 0.38775 0.0
O162 O 0.28127 0.31313 0.39859 0.0
O163 O 0.28588 0.36733 0.39812 0.0
O164 O 0.2794 0.34447 0.40687 0.0
C165 C 0.29378 0.31894 0.39212 0.0
C166 C 0.27777 0.35647 0.40712 0.0
O167 O 0.31227 0.36485 0.37239 0.0
Mg168 Mg 0.35037 0.03325 0.66682 0.0
O169 O 0.33801 0.04041 0.68453 0.0
O170 O 0.32024 0.04264 0.67013 0.0
Mg171 Mg 0.32122 0.03695 0.64337 0.0
C172 C 0.32724 0.04338 0.68363 0.0
C173 C 0.37537 0.03325 0.68937 0.0
O174 O 0.3834 0.04329 0.67928 0.0
O175 O 0.33011 0.00848 0.66296 0.0
O176 O 0.31328 0.01142 0.64767 0.0
O177 O 0.36697 0.05829 0.66419 0.0
O178 O 0.34522 0.04416 0.64897 0.0
C179 C 0.31722 0.00281 0.65484 0.0
C180 C 0.35729 0.05751 0.65296 0.0
O181 O 0.36102 0.02685 0.6876 0.0
Mg182 Mg 0.96814 0.2912 0.73859 0.0
O183 O 0.95088 0.28558 0.71673 0.0
O184 O 0.92891 0.28019 0.72612 0.0
Mg185 Mg 0.93204 0.28215 0.75371 0.0
C186 C 0.93696 0.28179 0.71442 0.0
C187 C -7e-05 0.30247 0.72778 0.0
O188 O 0.00055 0.29648 0.74126 0.0
O189 O 0.97019 0.31475 0.74419 0.0
O190 O 0.94839 0.3087 0.75437 0.0
O191 O 0.9614 0.26608 0.73871 0.0
O192 O 0.95062 0.27723 0.75189 0.0
C193 C 0.96144 0.31874 0.75051 0.0
C194 C 0.95099 0.26479 0.74769 0.0
O195 O 0.98767 0.30187 0.72289 0.0
Mg196 Mg 0.71256 0.65327 0.67371 0.0
O197 O 0.73089 0.66542 0.695 0.0
O198 O 0.75091 0.68577 0.68624 0.0
Mg199 Mg 0.74612 0.68507 0.65887 0.0
C200 C 0.74418 0.67743 0.69751 0.0
C201 C 0.68189 0.62958 0.68558 0.0
O202 O 0.68003 0.62361 0.67057 0.0
O203 O 0.70844 0.67359 0.67443 0.0
O204 O 0.72806 0.69188 0.66306 0.0
O205 O 0.72073 0.63686 0.66721 0.0
O206 O 0.72922 0.65996 0.65804 0.0
C207 C 0.71541 0.68694 0.66907 0.0
C208 C 0.72999 0.64749 0.65866 0.0
O209 O 0.69448 0.64157 0.69084 0.0
Mg210 Mg 0.31928 0.30769 0.72738 0.0
O211 O 0.33331 0.30117 0.71144 0.0
O212 O 0.34791 0.29608 0.728 0.0
Mg213 Mg 0.34416 0.30032 0.75412 0.0
C214 C 0.34315 0.29701 0.71384 0.0
C215 C 0.2975 0.31001 0.70222 0.0
O216 O 0.28822 0.29825 0.70997 0.0
O217 O 0.33992 0.33193 0.73445 0.0
O218 O 0.3538 0.32639 0.75148 0.0
O219 O 0.30167 0.28228 0.7272 0.0
O220 O 0.32134 0.29506 0.74547 0.0
C221 C 0.35162 0.33621 0.74431 0.0
C222 C 0.30961 0.28205 0.73972 0.0
O223 O 0.31168 0.31648 0.70611 0.0
Mg224 Mg 0.70531 0.04217 0.6516 0.0
O225 O 0.72338 0.04798 0.67263 0.0
O226 O 0.74365 0.04943 0.66233 0.0
Mg227 Mg 0.73868 0.04493 0.63482 0.0
C228 C 0.7368 0.05019 0.67438 0.0
C229 C 0.68152 0.04441 0.67113 0.0
O230 O 0.68618 0.05677 0.66312 0.0
O231 O 0.7 0.01706 0.64828 0.0
O232 O 0.72026 0.01943 0.63703 0.0
O233 O 0.71485 0.06751 0.64892 0.0
O234 O 0.722 0.05268 0.63599 0.0
C235 C 0.70725 0.01107 0.64207 0.0
C236 C 0.72358 0.06627 0.63904 0.0
O237 O 0.6874 0.03591 0.66922 0.0
Mg238 Mg 0.9592 0.68706 0.72145 0.0
O239 O 0.94091 0.67737 0.69997 0.0
O240 O 0.91979 0.65779 0.70793 0.0
Mg241 Mg 0.9244 0.65554 0.73454 0.0
C242 C 0.92708 0.66645 0.69711 0.0
C243 C 0.991 0.70382 0.71149 0.0
O244 O 0.99278 0.70225 0.72689 0.0
O245 O 0.96142 0.66568 0.71802 0.0
O246 O 0.9406 0.64694 0.72736 0.0
O247 O 0.95242 0.70409 0.73029 0.0
O248 O 0.94288 0.68014 0.73743 0.0
C249 C 0.95325 0.65166 0.72139 0.0
C250 C 0.94301 0.69315 0.73846 0.0
O251 O 0.97774 0.69918 0.70498 0.0
H252 H 0.16497 0.32014 0.04214 0.0
H253 H 0.24635 0.27738 0.16818 0.0
H254 H 0.15951 0.32142 0.13007 0.0
H255 H 0.14007 0.32599 0.11784 0.0
H256 H 0.10693 0.27694 0.11746 0.0
H257 H 0.12666 0.27246 0.12961 0.0
H258 H 0.18341 0.32126 0.11019 0.0
H259 H 0.17926 0.32526 0.08207 0.0
H260 H 0.14148 0.27785 0.07401 0.0
H261 H 0.14587 0.27395 0.10212 0.0
H262 H 0.20803 0.32005 0.13214 0.0
H263 H 0.22811 0.32538 0.1147 0.0
H264 H 0.19929 0.28051 0.08736 0.0
H265 H 0.17912 0.27534 0.10492 0.0
H266 H 0.20679 0.31394 0.16733 0.0
H267 H 0.22935 0.31316 0.17701 0.0
H268 H 0.21184 0.26865 0.14888 0.0
H269 H 0.18924 0.26949 0.13946 0.0
H270 H 0.17798 0.31276 0.18272 0.0
H271 H 0.1858 0.31315 0.21113 0.0
H272 H 0.18281 0.26869 0.20076 0.0
H273 H 0.17407 0.26786 0.17242 0.0
H274 H 0.15406 0.31473 0.16318 0.0
H275 H 0.13995 0.31491 0.18576 0.0
H276 H 0.12701 0.26706 0.19166 0.0
H277 H 0.14069 0.2668 0.16858 0.0
O278 O 0.16647 0.31827 0.05319 0.0
O279 O 0.14711 0.29383 0.04969 0.0
O280 O 0.24601 0.30085 0.17887 0.0
O281 O 0.23754 0.27799 0.16455 0.0
C282 C 0.15688 0.29386 0.13619 0.0
C283 C 0.16736 0.29494 0.12527 0.0
C284 C 0.18027 0.29425 0.13075 0.0
C285 C 0.18255 0.29211 0.14707 0.0
C286 C 0.17199 0.29083 0.15799 0.0
C287 C 0.15904 0.29155 0.15248 0.0
C288 C 0.14447 0.29661 0.13069 0.0
C289 C 0.14799 0.3117 0.12757 0.0
C290 C 0.13685 0.3143 0.12066 0.0
C291 C 0.12194 0.30182 0.11666 0.0
C292 C 0.11834 0.28676 0.12028 0.0
C293 C 0.12953 0.28419 0.12731 0.0
C294 C 0.16501 0.29728 0.10813 0.0
C295 C 0.17433 0.31172 0.10229 0.0
C296 C 0.17189 0.31399 0.08624 0.0
C297 C 0.16004 0.30187 0.07578 0.0
C298 C 0.15071 0.28742 0.08173 0.0
C299 C 0.15319 0.28516 0.09777 0.0
C300 C 0.19219 0.29728 0.11984 0.0
C301 C 0.20609 0.31135 0.12242 0.0
C302 C 0.21756 0.31433 0.1125 0.0
C303 C 0.21534 0.30329 0.09975 0.0
C304 C 0.2013 0.28926 0.09704 0.0
C305 C 0.18981 0.28626 0.10705 0.0
C306 C 0.19635 0.29172 0.15279 0.0
C307 C 0.20782 0.304 0.16334 0.0
C308 C 0.22071 0.30354 0.16881 0.0
C309 C 0.22239 0.29082 0.16373 0.0
C310 C 0.2109 0.2786 0.15304 0.0
C311 C 0.198 0.27906 0.14762 0.0
C312 C 0.17533 0.29023 0.17548 0.0
C313 C 0.17851 0.30285 0.18664 0.0
C314 C 0.18304 0.30311 0.20283 0.0
C315 C 0.18487 0.29094 0.20803 0.0
C316 C 0.18145 0.27818 0.19696 0.0
C317 C 0.1765 0.27772 0.18084 0.0
C318 C 0.14833 0.29073 0.16417 0.0
C319 C 0.14776 0.30412 0.16898 0.0
C320 C 0.1399 0.30428 0.18206 0.0
C321 C 0.13257 0.29107 0.19065 0.0
C322 C 0.13247 0.27739 0.18524 0.0
C323 C 0.14028 0.27722 0.17208 0.0
C324 C 0.15744 0.30435 0.05877 0.0
C325 C 0.23604 0.29025 0.16954 0.0
H326 H 0.69812 0.83293 0.07601 0.0
H327 H 0.73722 0.98099 0.19514 0.0
H328 H 0.69332 0.84356 0.17825 0.0
H329 H 0.68472 0.81664 0.16862 0.0
H330 H 0.72686 0.8317 0.14733 0.0
H331 H 0.73585 0.85861 0.15816 0.0
H332 H 0.69376 0.85263 0.14202 0.0
H333 H 0.69117 0.84096 0.11453 0.0
H334 H 0.7378 0.87551 0.10954 0.0
H335 H 0.74028 0.88694 0.13715 0.0
H336 H 0.69262 0.88125 0.14354 0.0
H337 H 0.68651 0.89209 0.12086 0.0
H338 H 0.73352 0.92876 0.12313 0.0
H339 H 0.73943 0.91788 0.14635 0.0
H340 H 0.69782 0.90487 0.17024 0.0
H341 H 0.69895 0.92996 0.17457 0.0
H342 H 0.74614 0.95177 0.193 0.0
H343 H 0.74489 0.92662 0.18844 0.0
H344 H 0.69536 0.88981 0.1995 0.0
H345 H 0.69223 0.90021 0.22527 0.0
H346 H 0.73864 0.91526 0.24211 0.0
H347 H 0.74153 0.9044 0.21619 0.0
H348 H 0.69647 0.86244 0.20664 0.0
H349 H 0.69405 0.84585 0.22815 0.0
H350 H 0.73817 0.85229 0.22086 0.0
H351 H 0.74065 0.86925 0.19959 0.0
O352 O 0.69941 0.83769 0.08688 0.0
O353 O 0.7234 0.85576 0.0849 0.0
O354 O 0.71221 0.95918 0.18356 0.0
O355 O 0.73648 0.97094 0.19321 0.0
C356 C 0.71879 0.86949 0.17183 0.0
C357 C 0.71886 0.87758 0.15836 0.0
C358 C 0.71954 0.89206 0.16066 0.0
C359 C 0.72062 0.89875 0.17641 0.0
C360 C 0.72038 0.89064 0.18989 0.0
C361 C 0.71964 0.87609 0.18764 0.0
C362 C 0.71524 0.85308 0.16897 0.0
C363 C 0.70098 0.841 0.17213 0.0
C364 C 0.69595 0.82563 0.16629 0.0
C365 C 0.70493 0.82204 0.15681 0.0
C366 C 0.71965 0.83402 0.1546 0.0
C367 C 0.72481 0.84942 0.16075 0.0
C368 C 0.71726 0.8705 0.14163 0.0
C369 C 0.70343 0.85758 0.13501 0.0
C370 C 0.70197 0.85098 0.11928 0.0
C371 C 0.71429 0.85728 0.10984 0.0
C372 C 0.7281 0.87034 0.11649 0.0
C373 C 0.72955 0.8769 0.13224 0.0
C374 C 0.71645 0.89877 0.14651 0.0
C375 C 0.70163 0.89154 0.13903 0.0
C376 C 0.6982 0.89769 0.12596 0.0
C377 C 0.70956 0.91121 0.12 0.0
C378 C 0.7245 0.91838 0.12746 0.0
C379 C 0.72792 0.91219 0.14067 0.0
C380 C 0.72133 0.914 0.17884 0.0
C381 C 0.70843 0.91512 0.17505 0.0
C382 C 0.70909 0.92944 0.17761 0.0
C383 C 0.72266 0.94289 0.1841 0.0
C384 C 0.73553 0.94167 0.18795 0.0
C385 C 0.73486 0.92733 0.18535 0.0
C386 C 0.71869 0.89644 0.20599 0.0
C387 C 0.70484 0.89532 0.20878 0.0
C388 C 0.70312 0.90137 0.22347 0.0
C389 C 0.71525 0.90876 0.23569 0.0
C390 C 0.72906 0.90958 0.23298 0.0
C391 C 0.73076 0.90344 0.21821 0.0
C392 C 0.71881 0.8672 0.20167 0.0
C393 C 0.70576 0.86058 0.20995 0.0
C394 C 0.70432 0.85095 0.22209 0.0
C395 C 0.71589 0.8477 0.22615 0.0
C396 C 0.72914 0.8547 0.21813 0.0
C397 C 0.73055 0.86433 0.20595 0.0
C398 C 0.71271 0.85025 0.09313 0.0
C399 C 0.72341 0.95812 0.18691 0.0
H400 H 0.13486 0.85916 0.06025 0.0
H401 H 0.27168 0.96409 0.17874 0.0
H402 H 0.13365 0.87228 0.14371 0.0
H403 H 0.11109 0.84743 0.13308 0.0
H404 H 0.12896 0.82249 0.15819 0.0
H405 H 0.15169 0.84724 0.16824 0.0
H406 H 0.1602 0.89569 0.12314 0.0
H407 H 0.14945 0.8842 0.09544 0.0
H408 H 0.15115 0.84297 0.10562 0.0
H409 H 0.1621 0.85469 0.13319 0.0
H410 H 0.19444 0.92429 0.13798 0.0
H411 H 0.21229 0.93412 0.11724 0.0
H412 H 0.21099 0.89005 0.11181 0.0
H413 H 0.19348 0.88046 0.13266 0.0
H414 H 0.19663 0.93209 0.17728 0.0
H415 H 0.22211 0.95497 0.18286 0.0
H416 H 0.2413 0.92677 0.16809 0.0
H417 H 0.21577 0.90396 0.16273 0.0
H418 H 0.17273 0.9109 0.202 0.0
H419 H 0.18448 0.92077 0.22982 0.0
H420 H 0.21494 0.90341 0.22196 0.0
H421 H 0.2033 0.89387 0.19425 0.0
H422 H 0.13938 0.8802 0.18535 0.0
H423 H 0.12554 0.86722 0.20818 0.0
H424 H 0.15902 0.85429 0.22037 0.0
H425 H 0.17263 0.86711 0.19758 0.0
O426 O 0.13925 0.86354 0.0712 0.0
O427 O 0.14021 0.84254 0.07712 0.0
O428 O 0.25104 0.96919 0.18422 0.0
O429 O 0.26147 0.95522 0.17666 0.0
C430 C 0.15933 0.87618 0.16012 0.0
C431 C 0.16803 0.8829 0.14711 0.0
C432 C 0.18284 0.89594 0.15018 0.0
C433 C 0.18885 0.90258 0.16621 0.0
C434 C 0.18027 0.89579 0.17922 0.0
C435 C 0.16554 0.88252 0.17619 0.0
C436 C 0.14433 0.86159 0.15674 0.0
C437 C 0.13253 0.86146 0.14719 0.0
C438 C 0.11972 0.8473 0.14109 0.0
C439 C 0.11837 0.83309 0.14478 0.0
C440 C 0.12968 0.83329 0.15529 0.0
C441 C 0.14262 0.84742 0.16111 0.0
C442 C 0.16182 0.87598 0.13019 0.0
C443 C 0.1583 0.88421 0.11933 0.0
C444 C 0.15213 0.8776 0.10353 0.0
C445 C 0.14938 0.86264 0.09833 0.0
C446 C 0.15307 0.85449 0.10924 0.0
C447 C 0.1593 0.86114 0.12501 0.0
C448 C 0.19263 0.90165 0.13676 0.0
C449 C 0.19795 0.91675 0.1322 0.0
C450 C 0.20813 0.92234 0.12042 0.0
C451 C 0.21296 0.91281 0.1129 0.0
C452 C 0.20729 0.89756 0.11722 0.0
C453 C 0.1973 0.89207 0.12912 0.0
C454 C 0.20436 0.91642 0.1695 0.0
C455 C 0.20636 0.93089 0.17527 0.0
C456 C 0.22092 0.94393 0.17843 0.0
C457 C 0.23375 0.94271 0.17588 0.0
C458 C 0.23168 0.92814 0.17015 0.0
C459 C 0.21711 0.9151 0.16703 0.0
C460 C 0.18727 0.90182 0.19609 0.0
C461 C 0.18197 0.9093 0.20633 0.0
C462 C 0.18864 0.91485 0.22222 0.0
C463 C 0.20073 0.91298 0.22809 0.0
C464 C 0.20588 0.90535 0.21775 0.0
C465 C 0.19922 0.89983 0.20193 0.0
C466 C 0.15707 0.87471 0.18993 0.0
C467 C 0.14369 0.87457 0.19299 0.0
C468 C 0.13582 0.86716 0.206 0.0
C469 C 0.14129 0.85989 0.21615 0.0
C470 C 0.1547 0.86007 0.21297 0.0
C471 C 0.16246 0.86734 0.19994 0.0
C472 C 0.14268 0.85558 0.0816 0.0
C473 C 0.24924 0.95653 0.17919 0.0
H474 H 0.28437 0.16433 0.98811 0.0
H475 H 0.30817 0.04963 0.88564 0.0
H476 H 0.27293 0.15355 0.90202 0.0
H477 H 0.27928 0.18053 0.90922 0.0
H478 H 0.32366 0.19712 0.89275 0.0
H479 H 0.31708 0.17032 0.88534 0.0
H480 H 0.27091 0.12698 0.92615 0.0
H481 H 0.27227 0.13931 0.95296 0.0
H482 H 0.31808 0.1758 0.94768 0.0
H483 H 0.31663 0.16325 0.92101 0.0
H484 H 0.27309 0.09502 0.91524 0.0
H485 H 0.27842 0.08303 0.93772 0.0
H486 H 0.32334 0.12358 0.94731 0.0
H487 H 0.31799 0.13534 0.92485 0.0
H488 H 0.26963 0.08675 0.87606 0.0
H489 H 0.27056 0.06265 0.87314 0.0
H490 H 0.31722 0.08795 0.89402 0.0
H491 H 0.31618 0.11198 0.89668 0.0
H492 H 0.26973 0.1069 0.84893 0.0
H493 H 0.27243 0.09519 0.82347 0.0
H494 H 0.31979 0.11347 0.83891 0.0
H495 H 0.31689 0.1248 0.86425 0.0
H496 H 0.26677 0.13819 0.86371 0.0
H497 H 0.26503 0.15151 0.8406 0.0
H498 H 0.31139 0.16574 0.83273 0.0
H499 H 0.31282 0.15202 0.85559 0.0
O500 O 0.28409 0.15963 0.97751 0.0
O501 O 0.30755 0.17818 0.97413 0.0
O502 O 0.28352 0.04654 0.87587 0.0
O503 O 0.30749 0.05899 0.88663 0.0
C504 C 0.292 0.14394 0.89131 0.0
C505 C 0.29264 0.13679 0.90529 0.0
C506 C 0.29274 0.12265 0.90379 0.0
C507 C 0.29217 0.11565 0.88831 0.0
C508 C 0.2915 0.1228 0.87435 0.0
C509 C 0.29107 0.13675 0.87583 0.0
C510 C 0.29452 0.16001 0.89309 0.0
C511 C 0.28386 0.16308 0.89962 0.0
C512 C 0.28758 0.17848 0.90387 0.0
C513 C 0.30202 0.19102 0.90166 0.0
C514 C 0.31236 0.18783 0.89439 0.0
C515 C 0.30862 0.17249 0.89013 0.0
C516 C 0.29361 0.1443 0.9216 0.0
C517 C 0.28123 0.13763 0.93083 0.0
C518 C 0.28204 0.1447 0.94612 0.0
C519 C 0.29527 0.15857 0.95245 0.0
C520 C 0.3077 0.16516 0.94316 0.0
C521 C 0.30689 0.15805 0.9279 0.0
C522 C 0.29513 0.11606 0.91846 0.0
C523 C 0.28398 0.10137 0.92238 0.0
C524 C 0.28705 0.09455 0.93517 0.0
C525 C 0.30129 0.10239 0.94429 0.0
C526 C 0.31219 0.11737 0.9407 0.0
C527 C 0.30916 0.12409 0.92786 0.0
C528 C 0.2928 0.10106 0.88668 0.0
C529 C 0.28004 0.08704 0.87998 0.0
C530 C 0.2806 0.07331 0.87834 0.0
C531 C 0.29396 0.07337 0.88339 0.0
C532 C 0.30675 0.08748 0.89005 0.0
C533 C 0.30618 0.10121 0.89163 0.0
C534 C 0.29309 0.11658 0.85843 0.0
C535 C 0.28068 0.10842 0.8467 0.0
C536 C 0.28226 0.10179 0.83218 0.0
C537 C 0.29629 0.10325 0.82924 0.0
C538 C 0.30876 0.11183 0.84092 0.0
C539 C 0.30716 0.1184 0.85535 0.0
C540 C 0.28989 0.14409 0.86124 0.0
C541 C 0.27647 0.14405 0.85685 0.0
C542 C 0.27554 0.15175 0.84371 0.0
C543 C 0.28808 0.15974 0.8348 0.0
C544 C 0.30143 0.1595 0.83912 0.0
C545 C 0.30231 0.15173 0.85222 0.0
C546 C 0.29607 0.16609 0.96867 0.0
C547 C 0.29461 0.0588 0.88171 0.0
H548 H 0.84729 0.15013 0.00717 0.0
H549 H 0.74886 0.02365 0.87282 0.0
H550 H 0.84672 0.15497 0.92102 0.0
H551 H 0.86822 0.17883 0.93481 0.0
H552 H 0.89819 0.16173 0.92348 0.0
H553 H 0.87636 0.13743 0.90999 0.0
H554 H 0.8243 0.13377 0.93883 0.0
H555 H 0.83085 0.14205 0.96777 0.0
H556 H 0.86335 0.12647 0.96832 0.0
H557 H 0.85653 0.11803 0.93938 0.0
H558 H 0.7981 0.11148 0.91378 0.0
H559 H 0.77962 0.10401 0.93369 0.0
H560 H 0.79999 0.08084 0.9579 0.0
H561 H 0.81865 0.08848 0.93783 0.0
H562 H 0.7948 0.101 0.87919 0.0
H563 H 0.77056 0.07785 0.86906 0.0
H564 H 0.78497 0.04871 0.89149 0.0
H565 H 0.80923 0.07196 0.90138 0.0
H566 H 0.82164 0.12596 0.86448 0.0
H567 H 0.81222 0.11769 0.836 0.0
H568 H 0.81706 0.07722 0.83933 0.0
H569 H 0.82638 0.08558 0.86797 0.0
H570 H 0.84827 0.15319 0.88573 0.0
H571 H 0.86216 0.16876 0.86444 0.0
H572 H 0.873 0.13355 0.84932 0.0
H573 H 0.85943 0.11824 0.87113 0.0
O574 O 0.84478 0.14665 0.99575 0.0
O575 O 0.86138 0.1385 0.99537 0.0
O576 O 0.75151 0.0485 0.86531 0.0
O577 O 0.75836 0.03301 0.87666 0.0
C578 C 0.8464 0.1292 0.9085 0.0
C579 C 0.83602 0.12026 0.91941 0.0
C580 C 0.8219 0.10713 0.91351 0.0
C581 C 0.81862 0.10214 0.89684 0.0
C582 C 0.82912 0.11082 0.88591 0.0
C583 C 0.84293 0.12452 0.89172 0.0
C584 C 0.85996 0.14438 0.91474 0.0
C585 C 0.85792 0.15636 0.92146 0.0
C586 C 0.87017 0.16993 0.92936 0.0
C587 C 0.88477 0.17194 0.93041 0.0
C588 C 0.88699 0.16035 0.92288 0.0
C589 C 0.87461 0.14656 0.91516 0.0
C590 C 0.83979 0.12509 0.93707 0.0
C591 C 0.83269 0.13197 0.94526 0.0
C592 C 0.83652 0.13678 0.96178 0.0
C593 C 0.8476 0.13489 0.97038 0.0
C594 C 0.85474 0.12806 0.96208 0.0
C595 C 0.85086 0.12322 0.94556 0.0
C596 C 0.80964 0.10046 0.92436 0.0
C597 C 0.79841 0.10454 0.9232 0.0
C598 C 0.78799 0.10042 0.93465 0.0
C599 C 0.78854 0.09202 0.94738 0.0
C600 C 0.79937 0.08732 0.94815 0.0
C601 C 0.80996 0.09161 0.93674 0.0
C602 C 0.80382 0.08812 0.89085 0.0
C603 C 0.79273 0.0896 0.88179 0.0
C604 C 0.77888 0.07636 0.87608 0.0
C605 C 0.77584 0.06141 0.87943 0.0
C606 C 0.78695 0.06003 0.88866 0.0
C607 C 0.80081 0.07328 0.89433 0.0
C608 C 0.8248 0.10643 0.86825 0.0
C609 C 0.82094 0.11547 0.85897 0.0
C610 C 0.81556 0.11072 0.84269 0.0
C611 C 0.81387 0.09678 0.83537 0.0
C612 C 0.81806 0.08791 0.84465 0.0
C613 C 0.82348 0.09271 0.86096 0.0
C614 C 0.85295 0.13466 0.88006 0.0
C615 C 0.85395 0.14902 0.87809 0.0
C616 C 0.8617 0.15777 0.86576 0.0
C617 C 0.8685 0.15227 0.85506 0.0
C618 C 0.86794 0.13812 0.85741 0.0
C619 C 0.8602 0.12937 0.86983 0.0
C620 C 0.85171 0.1401 0.98791 0.0
C621 C 0.76116 0.0473 0.87335 0.0
H622 H 0.87464 0.72864 0.0288 0.0
H623 H 0.74734 0.70485 0.90791 0.0
H624 H 0.881 0.73828 0.94446 0.0
H625 H 0.90112 0.73326 0.95379 0.0
H626 H 0.87507 0.68636 0.92993 0.0
H627 H 0.8553 0.69161 0.92049 0.0
H628 H 0.85487 0.73973 0.9662 0.0
H629 H 0.86394 0.73942 0.99392 0.0
H630 H 0.85544 0.69269 0.98198 0.0
H631 H 0.84621 0.69307 0.95438 0.0
H632 H 0.82078 0.73471 0.95246 0.0
H633 H 0.80028 0.72625 0.97025 0.0
H634 H 0.79725 0.68135 0.97019 0.0
H635 H 0.81711 0.6896 0.95198 0.0
H636 H 0.82292 0.7413 0.91283 0.0
H637 H 0.79944 0.74168 0.90703 0.0
H638 H 0.77351 0.69375 0.91807 0.0
H639 H 0.79704 0.69347 0.92363 0.0
H640 H 0.84628 0.73832 0.88658 0.0
H641 H 0.83648 0.73471 0.8582 0.0
H642 H 0.79838 0.68985 0.86614 0.0
H643 H 0.80888 0.69307 0.89392 0.0
H644 H 0.87565 0.73985 0.90461 0.0
H645 H 0.88898 0.7385 0.88155 0.0
H646 H 0.8522 0.69152 0.86684 0.0
H647 H 0.83926 0.69284 0.8901 0.0
O648 O 0.87092 0.72847 0.0178 0.0
O649 O 0.86645 0.7045 0.01101 0.0
O650 O 0.77065 0.72963 0.9045 0.0
O651 O 0.7568 0.70502 0.91011 0.0
C652 C 0.85337 0.71722 0.92854 0.0
C653 C 0.84479 0.71692 0.94138 0.0
C654 C 0.83094 0.71656 0.93817 0.0
C655 C 0.82603 0.71732 0.92221 0.0
C656 C 0.83453 0.71754 0.90935 0.0
C657 C 0.84817 0.7174 0.91253 0.0
C658 C 0.86672 0.71532 0.93177 0.0
C659 C 0.87986 0.72707 0.94094 0.0
C660 C 0.89126 0.72412 0.94637 0.0
C661 C 0.88967 0.70936 0.94273 0.0
C662 C 0.87681 0.69793 0.93279 0.0
C663 C 0.86547 0.70089 0.92737 0.0
C664 C 0.85005 0.7165 0.95825 0.0
C665 C 0.85496 0.72943 0.96962 0.0
C666 C 0.86015 0.72923 0.98543 0.0
C667 C 0.86048 0.71606 0.99015 0.0
C668 C 0.8554 0.70305 0.97873 0.0
C669 C 0.85017 0.70325 0.96295 0.0
C670 C 0.82042 0.71276 0.95094 0.0
C671 C 0.8158 0.72314 0.95651 0.0
C672 C 0.80414 0.7183 0.96668 0.0
C673 C 0.79701 0.70305 0.97143 0.0
C674 C 0.80228 0.69304 0.96648 0.0
C675 C 0.81379 0.69782 0.95626 0.0
C676 C 0.81169 0.71743 0.91881 0.0
C677 C 0.81215 0.73091 0.91399 0.0
C678 C 0.79873 0.73109 0.9107 0.0
C679 C 0.7846 0.71775 0.91214 0.0
C680 C 0.7842 0.70423 0.91689 0.0
C681 C 0.79762 0.70406 0.92014 0.0
C682 C 0.82823 0.71602 0.89237 0.0
C683 C 0.83584 0.72772 0.88211 0.0
C684 C 0.83015 0.72567 0.86593 0.0
C685 C 0.81664 0.71195 0.85978 0.0
C686 C 0.80896 0.70042 0.87026 0.0
C687 C 0.8148 0.70236 0.88628 0.0
C688 C 0.8565 0.71647 0.89894 0.0
C689 C 0.87058 0.72926 0.89643 0.0
C690 C 0.87808 0.72851 0.88321 0.0
C691 C 0.87162 0.71492 0.87237 0.0
C692 C 0.85756 0.70209 0.87507 0.0
C693 C 0.85011 0.70285 0.88827 0.0
C694 C 0.86611 0.71593 0.00692 0.0
C695 C 0.77031 0.71789 0.90867 0.0
H696 H 0.80175 0.64124 0.37159 0.0
H697 H 0.91117 0.61652 0.49323 0.0
H698 H 0.81718 0.65509 0.47138 0.0
H699 H 0.79704 0.65981 0.46204 0.0
H700 H 0.76959 0.61147 0.44269 0.0
H701 H 0.78997 0.60685 0.45222 0.0
H702 H 0.82607 0.65236 0.43933 0.0
H703 H 0.81676 0.65219 0.41158 0.0
H704 H 0.80635 0.60455 0.40142 0.0
H705 H 0.8155 0.60483 0.4293 0.0
H706 H 0.85475 0.65458 0.44116 0.0
H707 H 0.87392 0.66085 0.42231 0.0
H708 H 0.86888 0.61526 0.42474 0.0
H709 H 0.84938 0.60894 0.44354 0.0
H710 H 0.87391 0.65294 0.47265 0.0
H711 H 0.89792 0.65364 0.4786 0.0
H712 H 0.87315 0.60485 0.48694 0.0
H713 H 0.84924 0.6043 0.48083 0.0
H714 H 0.8566 0.65524 0.50293 0.0
H715 H 0.86764 0.65911 0.53078 0.0
H716 H 0.84274 0.60918 0.53333 0.0
H717 H 0.83147 0.6055 0.50546 0.0
H718 H 0.82615 0.65411 0.49859 0.0
H719 H 0.81463 0.6554 0.52302 0.0
H720 H 0.79198 0.6051 0.52213 0.0
H721 H 0.80281 0.60397 0.497 0.0
O722 O 0.80536 0.64105 0.38253 0.0
O723 O 0.8003 0.6166 0.37789 0.0
O724 O 0.91406 0.64164 0.48637 0.0
O725 O 0.90185 0.61658 0.49081 0.0
C726 C 0.81824 0.62865 0.46612 0.0
C727 C 0.82667 0.62851 0.45328 0.0
C728 C 0.84036 0.62854 0.45655 0.0
C729 C 0.84533 0.62811 0.47258 0.0
C730 C 0.83686 0.62811 0.48533 0.0
C731 C 0.82334 0.62837 0.48213 0.0
C732 C 0.80493 0.63056 0.46278 0.0
C733 C 0.8066 0.64537 0.46569 0.0
C734 C 0.79508 0.64806 0.46025 0.0
C735 C 0.78167 0.63601 0.45163 0.0
C736 C 0.77981 0.62101 0.4492 0.0
C737 C 0.79136 0.61831 0.45474 0.0
C738 C 0.82129 0.62855 0.43635 0.0
C739 C 0.82165 0.64186 0.43113 0.0
C740 C 0.81639 0.64175 0.41525 0.0
C741 C 0.81077 0.62834 0.40429 0.0
C742 C 0.81057 0.61506 0.40956 0.0
C743 C 0.81581 0.61519 0.42545 0.0
C744 C 0.85058 0.63126 0.44361 0.0
C745 C 0.85747 0.64577 0.43729 0.0
C746 C 0.86844 0.64934 0.42655 0.0
C747 C 0.87288 0.63853 0.42204 0.0
C748 C 0.86572 0.62383 0.42809 0.0
C749 C 0.85457 0.62019 0.43874 0.0
C750 C 0.85988 0.62855 0.47624 0.0
C751 C 0.87372 0.64242 0.47571 0.0
C752 C 0.8874 0.64278 0.47914 0.0
C753 C 0.88745 0.62929 0.48323 0.0
C754 C 0.87352 0.61544 0.48382 0.0
C755 C 0.85985 0.61509 0.48036 0.0
C756 C 0.84331 0.63011 0.50225 0.0
C757 C 0.85354 0.64516 0.50954 0.0
C758 C 0.85988 0.64732 0.5254 0.0
C759 C 0.85615 0.63444 0.53424 0.0
C760 C 0.84574 0.61934 0.52689 0.0
C761 C 0.83937 0.6172 0.51099 0.0
C762 C 0.81498 0.62893 0.49583 0.0
C763 C 0.81829 0.64336 0.5034 0.0
C764 C 0.81194 0.64406 0.51757 0.0
C765 C 0.80246 0.63035 0.5247 0.0
C766 C 0.79902 0.61587 0.5169 0.0
C767 C 0.8052 0.61518 0.50255 0.0
C768 C 0.80515 0.62825 0.38744 0.0
C769 C 0.90195 0.62961 0.48689 0.0
H770 H 0.34639 0.18506 0.40412 0.0
H771 H 0.40932 0.32017 0.53405 0.0
H772 H 0.3483 0.1815 0.49513 0.0
H773 H 0.3395 0.15507 0.48337 0.0
H774 H 0.38605 0.16609 0.48303 0.0
H775 H 0.39464 0.19233 0.49587 0.0
H776 H 0.35121 0.20653 0.47222 0.0
H777 H 0.34498 0.19705 0.44348 0.0
H778 H 0.38901 0.20136 0.44186 0.0
H779 H 0.39514 0.21097 0.47057 0.0
H780 H 0.35869 0.23827 0.49463 0.0
H781 H 0.3541 0.25273 0.47453 0.0
H782 H 0.39176 0.25694 0.44997 0.0
H783 H 0.39689 0.24309 0.47074 0.0
H784 H 0.36503 0.24267 0.52939 0.0
H785 H 0.36979 0.26866 0.53855 0.0
H786 H 0.41228 0.28941 0.51702 0.0
H787 H 0.40748 0.26333 0.50814 0.0
H788 H 0.36103 0.21174 0.54466 0.0
H789 H 0.361 0.22157 0.57222 0.0
H790 H 0.40648 0.26001 0.57043 0.0
H791 H 0.40686 0.2496 0.54309 0.0
H792 H 0.355 0.18351 0.52597 0.0
H793 H 0.35362 0.1656 0.54539 0.0
H794 H 0.40162 0.19549 0.55981 0.0
H795 H 0.40302 0.21279 0.53938 0.0
O796 O 0.3491 0.18887 0.41546 0.0
O797 O 0.37184 0.19123 0.41529 0.0
O798 O 0.3853 0.29849 0.54162 0.0
O799 O 0.40717 0.30974 0.53061 0.0
C800 C 0.37708 0.20508 0.50227 0.0
C801 C 0.37737 0.21517 0.49088 0.0
C802 C 0.38025 0.23022 0.49614 0.0
C803 C 0.38319 0.23532 0.51283 0.0
C804 C 0.38291 0.2252 0.5243 0.0
C805 C 0.37991 0.21006 0.51898 0.0
C806 C 0.37206 0.1887 0.49651 0.0
C807 C 0.35656 0.17806 0.4928 0.0
C808 C 0.35159 0.16304 0.48582 0.0
C809 C 0.36205 0.15843 0.48197 0.0
C810 C 0.37765 0.16912 0.48596 0.0
C811 C 0.3826 0.18413 0.49327 0.0
C812 C 0.37364 0.20948 0.47342 0.0
C813 C 0.35951 0.20547 0.4656 0.0
C814 C 0.35597 0.20003 0.4492 0.0
C815 C 0.3665 0.19845 0.44037 0.0
C816 C 0.38065 0.20244 0.4483 0.0
C817 C 0.38417 0.20792 0.46469 0.0
C818 C 0.37826 0.23982 0.4843 0.0
C819 C 0.36622 0.24265 0.48518 0.0
C820 C 0.36355 0.25081 0.47367 0.0
C821 C 0.37263 0.25594 0.46083 0.0
C822 C 0.38465 0.25307 0.45983 0.0
C823 C 0.38757 0.24521 0.47163 0.0
C824 C 0.38599 0.25112 0.51825 0.0
C825 C 0.37541 0.25284 0.52677 0.0
C826 C 0.37813 0.2677 0.53193 0.0
C827 C 0.39144 0.28112 0.52855 0.0
C828 C 0.40194 0.27933 0.51986 0.0
C829 C 0.39922 0.26446 0.51476 0.0
C830 C 0.38398 0.22988 0.54184 0.0
C831 C 0.37123 0.22192 0.5504 0.0
C832 C 0.37117 0.22759 0.56609 0.0
C833 C 0.38372 0.24153 0.57333 0.0
C834 C 0.39669 0.24923 0.56503 0.0
C835 C 0.39691 0.2433 0.54948 0.0
C836 C 0.37918 0.19925 0.53095 0.0
C837 C 0.36529 0.186 0.53304 0.0
C838 C 0.36448 0.17593 0.54442 0.0
C839 C 0.3775 0.17908 0.55428 0.0
C840 C 0.3914 0.19253 0.55228 0.0
C841 C 0.39223 0.20249 0.54069 0.0
C842 C 0.3627 0.19264 0.42296 0.0
C843 C 0.3944 0.29694 0.53401 0.0
H844 H 0.80986 0.19359 0.3804 0.0
H845 H 0.9336 0.30589 0.50796 0.0
H846 H 0.80118 0.19791 0.4643 0.0
H847 H 0.78121 0.17141 0.45402 0.0
H848 H 0.80583 0.15285 0.47916 0.0
H849 H 0.82607 0.17926 0.48835 0.0
H850 H 0.82717 0.22651 0.44536 0.0
H851 H 0.81907 0.21615 0.41696 0.0
H852 H 0.82781 0.17886 0.42575 0.0
H853 H 0.83605 0.18945 0.45406 0.0
H854 H 0.85993 0.25718 0.46013 0.0
H855 H 0.88061 0.26984 0.4427 0.0
H856 H 0.88599 0.22947 0.44118 0.0
H857 H 0.86567 0.21712 0.45869 0.0
H858 H 0.85799 0.26307 0.5004 0.0
H859 H 0.88128 0.28821 0.50776 0.0
H860 H 0.90781 0.26709 0.49535 0.0
H861 H 0.88445 0.24202 0.48823 0.0
H862 H 0.83667 0.23851 0.52557 0.0
H863 H 0.84798 0.24794 0.55364 0.0
H864 H 0.88252 0.23659 0.54406 0.0
H865 H 0.87131 0.22747 0.5162 0.0
H866 H 0.80543 0.20494 0.5066 0.0
H867 H 0.79162 0.18763 0.52708 0.0
H868 H 0.82975 0.18137 0.53851 0.0
H869 H 0.84323 0.19827 0.51784 0.0
O870 O 0.81315 0.19752 0.39166 0.0
O871 O 0.81777 0.17855 0.39683 0.0
O872 O 0.91005 0.30637 0.51141 0.0
O873 O 0.92421 0.29609 0.50514 0.0
C874 C 0.82828 0.20655 0.4814 0.0
C875 C 0.83689 0.21502 0.46902 0.0
C876 C 0.85059 0.22931 0.47304 0.0
C877 C 0.85532 0.23557 0.48935 0.0
C878 C 0.84688 0.22706 0.50173 0.0
C879 C 0.83339 0.21252 0.49779 0.0
C880 C 0.81505 0.19054 0.47716 0.0
C881 C 0.80214 0.18807 0.46769 0.0
C882 C 0.79071 0.17291 0.46188 0.0
C883 C 0.79197 0.15996 0.46559 0.0
C884 C 0.80462 0.16252 0.47573 0.0
C885 C 0.8161 0.17763 0.48128 0.0
C886 C 0.83202 0.20864 0.45179 0.0
C887 C 0.82733 0.21611 0.44111 0.0
C888 C 0.8227 0.21016 0.4249 0.0
C889 C 0.82273 0.19664 0.41909 0.0
C890 C 0.82758 0.18925 0.42984 0.0
C891 C 0.83224 0.19524 0.44602 0.0
C892 C 0.86131 0.23623 0.46062 0.0
C893 C 0.86543 0.25101 0.45577 0.0
C894 C 0.87719 0.25819 0.44584 0.0
C895 C 0.88499 0.25069 0.44078 0.0
C896 C 0.88033 0.23561 0.44511 0.0
C897 C 0.86862 0.22847 0.45495 0.0
C898 C 0.86954 0.25079 0.49362 0.0
C899 C 0.86885 0.26393 0.49927 0.0
C900 C 0.88216 0.27825 0.50345 0.0
C901 C 0.89641 0.27967 0.50209 0.0
C902 C 0.89703 0.26643 0.49649 0.0
C903 C 0.88371 0.2521 0.49235 0.0
C904 C 0.85329 0.2325 0.51884 0.0
C905 C 0.84668 0.2381 0.5296 0.0
C906 C 0.85312 0.24341 0.54561 0.0
C907 C 0.86626 0.24318 0.55103 0.0
C908 C 0.87263 0.23728 0.5402 0.0
C909 C 0.86621 0.23201 0.52429 0.0
C910 C 0.82535 0.20292 0.51083 0.0
C911 C 0.8108 0.1999 0.51365 0.0
C912 C 0.80299 0.1901 0.52537 0.0
C913 C 0.8096 0.18312 0.53436 0.0
C914 C 0.8243 0.18644 0.53167 0.0
C915 C 0.83207 0.19621 0.51999 0.0
C916 C 0.81775 0.19031 0.40188 0.0
C917 C 0.91059 0.29487 0.50651 0.0
H918 H 0.9893 0.50901 0.32657 0.0
H919 H 0.00437 0.39588 0.21025 0.0
H920 H 0.96582 0.49291 0.24193 0.0
H921 H 0.96831 0.51768 0.25256 0.0
H922 H 0.01026 0.54295 0.23074 0.0
H923 H 0.00805 0.51825 0.22076 0.0
H924 H 0.9706 0.4716 0.26397 0.0
H925 H 0.97442 0.4838 0.2915 0.0
H926 H 0.01816 0.52149 0.28165 0.0
H927 H 0.01427 0.50904 0.25423 0.0
H928 H 0.97116 0.44388 0.2531 0.0
H929 H 0.97763 0.43282 0.27562 0.0
H930 H 0.02509 0.46715 0.27425 0.0
H931 H 0.01829 0.47856 0.25254 0.0
H932 H 0.96547 0.43315 0.21062 0.0
H933 H 0.96606 0.40903 0.20541 0.0
H934 H 0.01415 0.43417 0.2206 0.0
H935 H 0.01342 0.45821 0.22555 0.0
H936 H 0.96381 0.45551 0.18376 0.0
H937 H 0.96444 0.44454 0.15695 0.0
H938 H 0.01122 0.4579 0.16956 0.0
H939 H 0.01073 0.46981 0.19562 0.0
H940 H 0.95878 0.479 0.19896 0.0
H941 H 0.95446 0.49229 0.17733 0.0
H942 H 0.00263 0.5174 0.17221 0.0
H943 H 0.00649 0.50307 0.19296 0.0
O944 O 0.98807 0.50432 0.31567 0.0
O945 O 0.01041 0.5235 0.30994 0.0
O946 O 0.97909 0.39287 0.20446 0.0
O947 O 0.00381 0.40524 0.21222 0.0
C948 C 0.98697 0.48912 0.2272 0.0
C949 C 0.98968 0.48216 0.24034 0.0
C950 C 0.99052 0.46856 0.23749 0.0
C951 C 0.9889 0.46197 0.22154 0.0
C952 C 0.98681 0.46925 0.20833 0.0
C953 C 0.98554 0.48266 0.21119 0.0
C954 C 0.98669 0.50378 0.23045 0.0
C955 C 0.97535 0.5038 0.23913 0.0
C956 C 0.97682 0.5179 0.24525 0.0
C957 C 0.98948 0.53216 0.24247 0.0
C958 C 0.00031 0.5321 0.23289 0.0
C959 C 0.999 0.51801 0.22707 0.0
C960 C 0.99215 0.48945 0.25714 0.0
C961 C 0.98103 0.48243 0.26783 0.0
C962 C 0.98323 0.48946 0.28353 0.0
C963 C 0.99658 0.50364 0.28877 0.0
C964 C 0.00774 0.51058 0.278 0.0
C965 C 0.00555 0.50351 0.26234 0.0
C966 C 0.99428 0.46192 0.25123 0.0
C967 C 0.98291 0.44903 0.25785 0.0
C968 C 0.98667 0.44271 0.27064 0.0
C969 C 0.00192 0.44905 0.27681 0.0
C970 C 0.01322 0.46213 0.27014 0.0
C971 C 0.0094 0.46858 0.25759 0.0
C972 C 0.98936 0.44737 0.21863 0.0
C973 C 0.9761 0.4334 0.21284 0.0
C974 C 0.97648 0.41965 0.20988 0.0
C975 C 0.99015 0.41966 0.21265 0.0
C976 C 0.00342 0.43373 0.2184 0.0
C977 C 0.00303 0.44747 0.22133 0.0
C978 C 0.98723 0.46346 0.19164 0.0
C979 C 0.97426 0.45634 0.18053 0.0
C980 C 0.97461 0.44988 0.16529 0.0
C981 C 0.98787 0.45021 0.161 0.0
C982 C 0.00088 0.45763 0.17217 0.0
C983 C 0.00059 0.46432 0.18721 0.0
C984 C 0.98293 0.49013 0.19749 0.0
C985 C 0.96832 0.48722 0.19294 0.0
C986 C 0.96594 0.49499 0.18069 0.0
C987 C 0.9782 0.50613 0.17302 0.0
C988 C 0.99283 0.50876 0.17754 0.0
C989 C 0.99512 0.50069 0.18952 0.0
C990 C 0.99883 0.51113 0.30541 0.0
C991 C 0.99062 0.40509 0.20951 0.0
H992 H 0.49481 0.47867 0.33687 0.0
H993 H 0.41561 0.35442 0.1964 0.0
H994 H 0.50192 0.48809 0.25221 0.0
H995 H 0.522 0.51321 0.26543 0.0
H996 H 0.55523 0.50001 0.25584 0.0
H997 H 0.53492 0.47469 0.24267 0.0
H998 H 0.4776 0.46325 0.26725 0.0
H999 H 0.48129 0.47052 0.2964 0.0
H1000 H 0.51864 0.46191 0.30035 0.0
H1001 H 0.5147 0.45448 0.2712 0.0
H1002 H 0.45353 0.43811 0.23999 0.0
H1003 H 0.43297 0.42549 0.25712 0.0
H1004 H 0.45883 0.40958 0.28449 0.0
H1005 H 0.47951 0.42238 0.26714 0.0
H1006 H 0.45547 0.43233 0.20536 0.0
H1007 H 0.43321 0.40805 0.19327 0.0
H1008 H 0.44944 0.38159 0.21832 0.0
H1009 H 0.47175 0.40597 0.23016 0.0
H1010 H 0.48392 0.4609 0.19298 0.0
H1011 H 0.4765 0.45277 0.16407 0.0
H1012 H 0.48055 0.41217 0.16965 0.0
H1013 H 0.48888 0.42083 0.1985 0.0
H1014 H 0.50471 0.48708 0.21577 0.0
H1015 H 0.52019 0.50474 0.19669 0.0
H1016 H 0.5394 0.4755 0.18668 0.0
H1017 H 0.5233 0.45753 0.20547 0.0
O1018 O 0.4935 0.47566 0.32538 0.0
O1019 O 0.51266 0.47114 0.32674 0.0
O1020 O 0.41652 0.37835 0.18833 0.0
O1021 O 0.42431 0.36421 0.20101 0.0
C1022 C 0.50444 0.46396 0.23949 0.0
C1023 C 0.49365 0.45386 0.24943 0.0
C1024 C 0.48069 0.43996 0.24244 0.0
C1025 C 0.47894 0.43564 0.22567 0.0
C1026 C 0.48985 0.44558 0.21571 0.0
C1027 C 0.5025 0.45986 0.22263 0.0
C1028 C 0.51695 0.4795 0.24666 0.0
C1029 C 0.51353 0.49059 0.25302 0.0
C1030 C 0.525 0.5049 0.26061 0.0
C1031 C 0.54016 0.5085 0.26185 0.0
C1032 C 0.54364 0.49755 0.25504 0.0
C1033 C 0.53209 0.48312 0.24755 0.0
C1034 C 0.49578 0.45818 0.26715 0.0
C1035 C 0.48648 0.4628 0.27446 0.0
C1036 C 0.48866 0.46702 0.2911 0.0
C1037 C 0.50024 0.46677 0.30072 0.0
C1038 C 0.50959 0.4622 0.29331 0.0
C1039 C 0.50737 0.45795 0.27667 0.0
C1040 C 0.46794 0.43106 0.25227 0.0
C1041 C 0.45464 0.43166 0.2495 0.0
C1042 C 0.4429 0.42441 0.25928 0.0
C1043 C 0.44424 0.41647 0.27211 0.0
C1044 C 0.45752 0.41569 0.27474 0.0
C1045 C 0.46928 0.42291 0.26484 0.0
C1046 C 0.46529 0.42089 0.21851 0.0
C1047 C 0.45424 0.42127 0.20814 0.0
C1048 C 0.44152 0.40739 0.20129 0.0
C1049 C 0.43957 0.39287 0.2048 0.0
C1050 C 0.4506 0.39256 0.21534 0.0
C1051 C 0.46335 0.40646 0.22214 0.0
C1052 C 0.48715 0.44159 0.19787 0.0
C1053 C 0.48378 0.45057 0.1879 0.0
C1054 C 0.47943 0.44587 0.17143 0.0
C1055 C 0.47797 0.43188 0.16473 0.0
C1056 C 0.48162 0.42302 0.1746 0.0
C1057 C 0.48638 0.42795 0.19101 0.0
C1058 C 0.51297 0.4711 0.21204 0.0
C1059 C 0.51241 0.48462 0.2096 0.0
C1060 C 0.52133 0.49472 0.19871 0.0
C1061 C 0.53112 0.4916 0.19015 0.0
C1062 C 0.53185 0.47816 0.19289 0.0
C1063 C 0.52278 0.46795 0.20371 0.0
C1064 C 0.50255 0.47131 0.31839 0.0
C1065 C 0.42609 0.37808 0.19752 0.0
H1066 H 0.50975 -0.00023 0.35202 0.0
H1067 H 0.39303 0.9897 0.2258 0.0
H1068 H 0.52372 0.0241 0.27279 0.0
H1069 H 0.54488 0.02101 0.28247 0.0
H1070 H 0.52715 0.97909 0.24967 0.0
H1071 H 0.50559 0.98188 0.24073 0.0
H1072 H 0.49683 0.02072 0.29209 0.0
H1073 H 0.50291 0.01608 0.31931 0.0
H1074 H 0.49568 0.97121 0.30052 0.0
H1075 H 0.48945 0.97593 0.27341 0.0
H1076 H 0.46947 0.023 0.27464 0.0
H1077 H 0.45002 0.01819 0.29291 0.0
H1078 H 0.43887 0.97013 0.29266 0.0
H1079 H 0.45806 0.97498 0.27399 0.0
H1080 H 0.46863 0.02853 0.2376 0.0
H1081 H 0.44503 0.02842 0.23079 0.0
H1082 H 0.41945 0.97896 0.23603 0.0
H1083 H 0.44314 0.97922 0.24263 0.0
H1084 H 0.49369 0.03209 0.21652 0.0
H1085 H 0.48566 0.0346 0.18904 0.0
H1086 H 0.45153 0.98557 0.18392 0.0
H1087 H 0.45971 0.98318 0.21125 0.0
H1088 H 0.52297 0.03099 0.23317 0.0
H1089 H 0.53872 0.03486 0.21081 0.0
H1090 H 0.50514 0.98915 0.18803 0.0
H1091 H 0.48981 0.98525 0.21062 0.0
O1092 O 0.50724 0.00134 0.34117 0.0
O1093 O 0.50345 0.97842 0.33088 0.0
O1094 O 0.41621 0.01549 0.2258 0.0
O1095 O 0.40253 0.99008 0.22842 0.0
C1096 C 0.49905 0.00376 0.25218 0.0
C1097 C 0.48916 0.00158 0.26427 0.0
C1098 C 0.47568 0.00184 0.26053 0.0
C1099 C 0.47193 0.00401 0.24469 0.0
C1100 C 0.48167 0.00597 0.2326 0.0
C1101 C 0.49525 0.00592 0.23634 0.0
C1102 C 0.51307 0.00318 0.25612 0.0
C1103 C 0.52451 0.01435 0.26758 0.0
C1104 C 0.53667 0.01261 0.27301 0.0
C1105 C 0.5377 -0.00028 0.26694 0.0
C1106 C 0.52659 0.98899 0.25483 0.0
C1107 C 0.51435 0.99066 0.24954 0.0
C1108 C 0.49273 0.99868 0.2808 0.0
C1109 C 0.4965 0.00988 0.29391 0.0
C1110 C 0.50001 0.0072 0.30943 0.0
C1111 C 0.4998 0.99328 0.31209 0.0
C1112 C 0.49596 0.98206 0.29889 0.0
C1113 C 0.49242 0.98474 0.28339 0.0
C1114 C 0.46513 0.99933 0.27301 0.0
C1115 C 0.46292 0.01149 0.27869 0.0
C1116 C 0.45187 0.00873 0.28917 0.0
C1117 C 0.44286 0.99376 0.29417 0.0
C1118 C 0.44548 0.98173 0.28885 0.0
C1119 C 0.45652 0.9845 0.27833 0.0
C1120 C 0.45757 0.0039 0.24063 0.0
C1121 C 0.45791 0.01769 0.23722 0.0
C1122 C 0.44442 0.01759 0.23337 0.0
C1123 C 0.43035 0.00367 0.23288 0.0
C1124 C 0.43008 0.98987 0.23631 0.0
C1125 C 0.44358 0.98999 0.24012 0.0
C1126 C 0.47725 0.00747 0.21582 0.0
C1127 C 0.48455 0.02191 0.20938 0.0
C1128 C 0.47991 0.02333 0.19377 0.0
C1129 C 0.46798 0.01027 0.18435 0.0
C1130 C 0.46087 0.99578 0.19081 0.0
C1131 C 0.46544 0.99441 0.20642 0.0
C1132 C 0.50528 0.00786 0.22346 0.0
C1133 C 0.51916 0.02178 0.22342 0.0
C1134 C 0.52804 0.02402 0.21058 0.0
C1135 C 0.52315 0.01234 0.19761 0.0
C1136 C 0.50933 0.9983 0.1979 0.0
C1137 C 0.50051 0.99607 0.21074 0.0
C1138 C 0.5036 0.99051 0.32858 0.0
C1139 C 0.41598 0.0035 0.22882 0.0
H1140 H 0.50277 0.0197 0.71933 0.0
H1141 H 0.59605 0.97992 0.83377 0.0
H1142 H 0.50228 0.01856 0.80838 0.0
H1143 H 0.48111 0.02147 0.79825 0.0
H1144 H 0.45127 0.97147 0.79557 0.0
H1145 H 0.47269 0.96869 0.80574 0.0
H1146 H 0.52571 0.0206 0.78554 0.0
H1147 H 0.51945 0.02481 0.75819 0.0
H1148 H 0.48411 0.97625 0.74997 0.0
H1149 H 0.4906 0.97219 0.7773 0.0
H1150 H 0.552 0.02062 0.80291 0.0
H1151 H 0.57115 0.02641 0.78399 0.0
H1152 H 0.54351 0.97992 0.7596 0.0
H1153 H 0.52438 0.97421 0.77875 0.0
H1154 H 0.55436 0.014 0.83844 0.0
H1155 H 0.57802 0.01437 0.84563 0.0
H1156 H 0.55986 0.96947 0.81808 0.0
H1157 H 0.5362 0.96918 0.81115 0.0
H1158 H 0.52836 0.01144 0.85724 0.0
H1159 H 0.53824 0.01115 0.88458 0.0
H1160 H 0.53046 0.96486 0.87174 0.0
H1161 H 0.52034 0.96516 0.84446 0.0
H1162 H 0.50057 0.01175 0.84111 0.0
H1163 H 0.48524 0.00974 0.86327 0.0
H1164 H 0.47379 0.96184 0.86603 0.0
H1165 H 0.48866 0.96382 0.84334 0.0
O1166 O 0.50514 0.01775 0.73006 0.0
O1167 O 0.4871 0.9927 0.72645 0.0
O1168 O 0.59557 0.00309 0.84522 0.0
O1169 O 0.5868 0.98006 0.83115 0.0
C1170 C 0.50233 0.99179 0.81194 0.0
C1171 C 0.51225 0.99363 0.80004 0.0
C1172 C 0.52573 0.99354 0.80415 0.0
C1173 C 0.52919 0.9913 0.82005 0.0
C1174 C 0.51923 0.98932 0.83193 0.0
C1175 C 0.50575 0.98951 0.82787 0.0
C1176 C 0.48898 0.99343 0.8078 0.0
C1177 C 0.49111 0.00827 0.80589 0.0
C1178 C 0.47899 0.0099 0.80016 0.0
C1179 C 0.46452 0.9967 0.79611 0.0
C1180 C 0.46232 0.98184 0.79851 0.0
C1181 C 0.47447 0.98023 0.80439 0.0
C1182 C 0.50867 0.99608 0.78333 0.0
C1183 C 0.51671 0.01087 0.77776 0.0
C1184 C 0.51307 0.01325 0.76216 0.0
C1185 C 0.50128 0.00087 0.75189 0.0
C1186 C 0.49326 0.98604 0.75755 0.0
C1187 C 0.49694 0.98368 0.77314 0.0
C1188 C 0.53688 0.99701 0.79216 0.0
C1189 C 0.55007 0.01173 0.79343 0.0
C1190 C 0.56093 0.01503 0.78257 0.0
C1191 C 0.55879 0.00362 0.77031 0.0
C1192 C 0.54548 0.98888 0.76901 0.0
C1193 C 0.53455 0.98563 0.77984 0.0
C1194 C 0.54356 0.99152 0.82436 0.0
C1195 C 0.5555 0.00422 0.83405 0.0
C1196 C 0.569 0.00442 0.8381 0.0
C1197 C 0.57082 0.99193 0.83244 0.0
C1198 C 0.55883 0.97926 0.82265 0.0
C1199 C 0.54532 0.97907 0.81865 0.0
C1200 C 0.52362 0.98831 0.84891 0.0
C1201 C 0.52854 0.00113 0.86043 0.0
C1202 C 0.53431 0.001 0.87597 0.0
C1203 C 0.53523 0.98803 0.88025 0.0
C1204 C 0.52978 0.97497 0.86883 0.0
C1205 C 0.52405 0.97513 0.85326 0.0
C1206 C 0.49559 0.98789 0.84053 0.0
C1207 C 0.4945 0.00074 0.8463 0.0
C1208 C 0.48591 -0.00038 0.85911 0.0
C1209 C 0.47839 0.98566 0.86651 0.0
C1210 C 0.47931 0.97271 0.8605 0.0
C1211 C 0.48784 0.97382 0.8476 0.0
C1212 C 0.49737 0.00346 0.73536 0.0
C1213 C 0.58516 0.99209 0.83669 0.0
H1214 H 0.98344 0.47726 0.74001 0.0
H1215 H 0.02756 0.62739 0.84887 0.0
H1216 H 0.99091 0.48895 0.83907 0.0
H1217 H 0.98736 0.46345 0.82969 0.0
H1218 H 0.03135 0.48629 0.81154 0.0
H1219 H 0.03509 0.51177 0.82151 0.0
H1220 H 0.9853 0.50327 0.80544 0.0
H1221 H 0.97994 0.48983 0.77825 0.0
H1222 H 0.02775 0.51585 0.77182 0.0
H1223 H 0.03292 0.52915 0.79906 0.0
H1224 H 0.98712 0.53968 0.81511 0.0
H1225 H 0.98219 0.55178 0.79275 0.0
H1226 H 0.02662 0.56571 0.77766 0.0
H1227 H 0.03176 0.55445 0.80085 0.0
H1228 H 0.9915 0.54991 0.84933 0.0
H1229 H 0.99176 0.57453 0.85397 0.0
H1230 H 0.03731 0.59945 0.83963 0.0
H1231 H 0.03696 0.57474 0.83523 0.0
H1232 H 0.99191 0.52977 0.87084 0.0
H1233 H 0.99184 0.54293 0.8965 0.0
H1234 H 0.03996 0.57501 0.89675 0.0
H1235 H 0.03992 0.56154 0.87112 0.0
H1236 H 0.99384 0.50565 0.86884 0.0
H1237 H 0.99605 0.49078 0.89015 0.0
H1238 H 0.04312 0.50883 0.88243 0.0
H1239 H 0.04087 0.52403 0.86145 0.0
O1240 O 0.9858 0.48276 0.75068 0.0
O1241 O 0.01049 0.49646 0.74796 0.0
O1242 O 0.0038 0.60414 0.85458 0.0
O1243 O 0.02718 0.61749 0.84719 0.0
C1244 C 0.0142 0.51747 0.83403 0.0
C1245 C 0.01261 0.52495 0.82078 0.0
C1246 C 0.01267 0.53908 0.82345 0.0
C1247 C 0.01414 0.54567 0.83938 0.0
C1248 C 0.01538 0.53801 0.85266 0.0
C1249 C 0.01556 0.52399 0.84999 0.0
C1250 C 0.01325 0.50218 0.83096 0.0
C1251 C -2e-05 0.48843 0.83356 0.0
C1252 C 0.99794 0.47391 0.82814 0.0
C1253 C 0.00905 0.47298 0.81981 0.0
C1254 C 0.0226 0.48675 0.81784 0.0
C1255 C 0.02475 0.50124 0.82354 0.0
C1256 C 0.00947 0.5172 0.80413 0.0
C1257 C 0.99457 0.50607 0.79809 0.0
C1258 C 0.99156 0.49841 0.78258 0.0
C1259 C 0.00341 0.50177 0.77285 0.0
C1260 C 0.01835 0.513 0.77898 0.0
C1261 C 0.02134 0.52064 0.7945 0.0
C1262 C 0.00978 0.54622 0.80958 0.0
C1263 C 0.99579 0.54542 0.807 0.0
C1264 C 0.99294 0.55216 0.79405 0.0
C1265 C 0.00395 0.55962 0.78324 0.0
C1266 C 0.01793 0.56021 0.7858 0.0
C1267 C 0.02085 0.55367 0.79894 0.0
C1268 C 0.01427 0.56059 0.84212 0.0
C1269 C 0.00157 0.56072 0.84734 0.0
C1270 C 0.00172 0.57478 0.84991 0.0
C1271 C 0.01458 0.58897 0.8472 0.0
C1272 C 0.02725 0.58875 0.84186 0.0
C1273 C 0.02708 0.57467 0.83933 0.0
C1274 C 0.01595 0.54458 0.86927 0.0
C1275 C 0.0025 0.53937 0.87666 0.0
C1276 C 0.00245 0.54704 0.89119 0.0
C1277 C 0.01588 0.56009 0.89858 0.0
C1278 C 0.02947 0.56492 0.89142 0.0
C1279 C 0.02949 0.55725 0.87682 0.0
C1280 C 0.01725 0.51605 0.86378 0.0
C1281 C 0.00471 0.50666 0.87203 0.0
C1282 C 0.00595 0.49803 0.88405 0.0
C1283 C 0.01976 0.49858 0.88795 0.0
C1284 C 0.03239 0.50831 0.87987 0.0
C1285 C 0.03113 0.51694 0.86785 0.0
C1286 C 0.00018 0.49355 0.75642 0.0
C1287 C 0.0148 0.60395 0.8499 0.0
H1288 H 0.47652 0.52566 0.72144 0.0
H1289 H 0.60872 0.62672 0.84775 0.0
H1290 H 0.46988 0.53329 0.8081 0.0
H1291 H 0.44762 0.50777 0.79858 0.0
H1292 H 0.47144 0.48514 0.81624 0.0
H1293 H 0.49324 0.51048 0.82593 0.0
H1294 H 0.49787 0.55916 0.78611 0.0
H1295 H 0.48846 0.54881 0.75788 0.0
H1296 H 0.49312 0.50886 0.76605 0.0
H1297 H 0.5027 0.51944 0.79417 0.0
H1298 H 0.53364 0.5882 0.80139 0.0
H1299 H 0.55307 0.59836 0.78225 0.0
H1300 H 0.55158 0.55416 0.77784 0.0
H1301 H 0.53255 0.54428 0.79711 0.0
H1302 H 0.53358 0.59558 0.83962 0.0
H1303 H 0.55897 0.61827 0.84675 0.0
H1304 H 0.57853 0.58955 0.83587 0.0
H1305 H 0.55308 0.56694 0.82894 0.0
H1306 H 0.5107 0.5769 0.86216 0.0
H1307 H 0.5207 0.58631 0.89058 0.0
H1308 H 0.54631 0.56271 0.8881 0.0
H1309 H 0.53626 0.55338 0.85979 0.0
H1310 H 0.47993 0.54749 0.85124 0.0
H1311 H 0.46621 0.5343 0.874 0.0
H1312 H 0.4917 0.51049 0.87674 0.0
H1313 H 0.50573 0.5243 0.85465 0.0
O1314 O 0.48032 0.52957 0.73262 0.0
O1315 O 0.48287 0.50923 0.73748 0.0
O1316 O 0.58791 0.63217 0.85055 0.0
O1317 O 0.59854 0.61793 0.84504 0.0
C1318 C 0.49725 0.53893 0.82184 0.0
C1319 C 0.50637 0.54631 0.80936 0.0
C1320 C 0.52097 0.55957 0.81321 0.0
C1321 C 0.5261 0.56596 0.82946 0.0
C1322 C 0.51683 0.55877 0.84186 0.0
C1323 C 0.50253 0.54515 0.83808 0.0
C1324 C 0.48305 0.52369 0.81793 0.0
C1325 C 0.47007 0.52275 0.81021 0.0
C1326 C 0.45746 0.50819 0.80464 0.0
C1327 C 0.45769 0.49437 0.80666 0.0
C1328 C 0.47066 0.49546 0.81478 0.0
C1329 C 0.48317 0.50995 0.82036 0.0
C1330 C 0.50079 0.53997 0.79222 0.0
C1331 C 0.49685 0.54818 0.78176 0.0
C1332 C 0.49147 0.54223 0.76565 0.0
C1333 C 0.48997 0.52797 0.75972 0.0
C1334 C 0.49407 0.51984 0.77024 0.0
C1335 C 0.49947 0.52582 0.78633 0.0
C1336 C 0.53161 0.56547 0.80053 0.0
C1337 C 0.53744 0.58071 0.79615 0.0
C1338 C 0.54853 0.58648 0.78529 0.0
C1339 C 0.55376 0.57701 0.77852 0.0
C1340 C 0.54759 0.56164 0.78265 0.0
C1341 C 0.5367 0.55597 0.79363 0.0
C1342 C 0.54152 0.57968 0.83369 0.0
C1343 C 0.54337 0.59423 0.83881 0.0
C1344 C 0.55788 0.60716 0.84285 0.0
C1345 C 0.57079 0.60573 0.84184 0.0
C1346 C 0.56885 0.59107 0.83675 0.0
C1347 C 0.55434 0.57815 0.83275 0.0
C1348 C 0.52282 0.56452 0.85899 0.0
C1349 C 0.51848 0.5738 0.86781 0.0
C1350 C 0.52423 0.57919 0.88396 0.0
C1351 C 0.53426 0.57521 0.89155 0.0
C1352 C 0.53847 0.56582 0.88263 0.0
C1353 C 0.53283 0.56056 0.86648 0.0
C1354 C 0.49371 0.53673 0.85131 0.0
C1355 C 0.48248 0.5394 0.85682 0.0
C1356 C 0.47464 0.53182 0.86977 0.0
C1357 C 0.47788 0.52136 0.8773 0.0
C1358 C 0.48911 0.5187 0.87154 0.0
C1359 C 0.49702 0.52641 0.85877 0.0
C1360 C 0.48419 0.52164 0.74262 0.0
C1361 C 0.58623 0.61943 0.84609 0.0
H1362 H 0.6187 0.81932 0.66269 0.0
H1363 H 0.6372 0.7061 0.55307 0.0
H1364 H 0.60839 0.81375 0.57855 0.0
H1365 H 0.61691 0.84075 0.58865 0.0
H1366 H 0.65862 0.8562 0.56636 0.0
H1367 H 0.65051 0.82925 0.55741 0.0
H1368 H 0.60412 0.78466 0.59889 0.0
H1369 H 0.60594 0.79585 0.62643 0.0
H1370 H 0.65206 0.83198 0.62176 0.0
H1371 H 0.65014 0.82055 0.59433 0.0
H1372 H 0.60521 0.75233 0.58544 0.0
H1373 H 0.61084 0.73846 0.60568 0.0
H1374 H 0.65595 0.77848 0.61647 0.0
H1375 H 0.65037 0.79203 0.59616 0.0
H1376 H 0.60131 0.74616 0.54615 0.0
H1377 H 0.60117 0.72155 0.54197 0.0
H1378 H 0.64779 0.74471 0.56282 0.0
H1379 H 0.64783 0.76926 0.56671 0.0
H1380 H 0.60283 0.76818 0.52019 0.0
H1381 H 0.60543 0.75723 0.49417 0.0
H1382 H 0.65232 0.77341 0.50988 0.0
H1383 H 0.64951 0.78397 0.53576 0.0
H1384 H 0.60165 0.80085 0.53744 0.0
H1385 H 0.60127 0.81582 0.51528 0.0
H1386 H 0.64667 0.82683 0.50671 0.0
H1387 H 0.64673 0.81152 0.5286 0.0
O1388 O 0.61825 0.81504 0.65181 0.0
O1389 O 0.64189 0.8334 0.64877 0.0
O1390 O 0.61309 0.70439 0.54361 0.0
O1391 O 0.63697 0.71569 0.55447 0.0
C1392 C 0.62555 0.80316 0.56442 0.0
C1393 C 0.62567 0.79505 0.57781 0.0
C1394 C 0.62515 0.78064 0.57533 0.0
C1395 C 0.62448 0.77429 0.55947 0.0
C1396 C 0.62437 0.78237 0.54611 0.0
C1397 C 0.62458 0.79663 0.54854 0.0
C1398 C 0.62885 0.8195 0.56729 0.0
C1399 C 0.61925 0.82303 0.57564 0.0
C1400 C 0.62413 0.83848 0.58136 0.0
C1401 C 0.63859 0.85063 0.5786 0.0
C1402 C 0.6476 0.8471 0.5691 0.0
C1403 C 0.64285 0.8317 0.56368 0.0
C1404 C 0.62693 0.80187 0.59457 0.0
C1405 C 0.6146 0.79497 0.60386 0.0
C1406 C 0.61568 0.80141 0.61957 0.0
C1407 C 0.62913 0.81485 0.62628 0.0
C1408 C 0.64152 0.82166 0.61695 0.0
C1409 C 0.64044 0.81518 0.60127 0.0
C1410 C 0.62738 0.77319 0.58936 0.0
C1411 C 0.61618 0.75818 0.59245 0.0
C1412 C 0.61941 0.7503 0.60396 0.0
C1413 C 0.63382 0.75741 0.61266 0.0
C1414 C 0.64466 0.7728 0.61018 0.0
C1415 C 0.6415 0.78056 0.59856 0.0
C1416 C 0.62453 0.75944 0.55683 0.0
C1417 C 0.61148 0.74588 0.54976 0.0
C1418 C 0.61144 0.73185 0.54742 0.0
C1419 C 0.62447 0.73115 0.55212 0.0
C1420 C 0.63756 0.74482 0.5591 0.0
C1421 C 0.6376 0.75885 0.56138 0.0
C1422 C 0.62596 0.77675 0.52985 0.0
C1423 C 0.61366 0.76941 0.51789 0.0
C1424 C 0.61519 0.76322 0.50306 0.0
C1425 C 0.62904 0.76429 0.50002 0.0
C1426 C 0.64141 0.77207 0.51194 0.0
C1427 C 0.63987 0.77821 0.52669 0.0
C1428 C 0.62417 0.80503 0.53454 0.0
C1429 C 0.61143 0.80637 0.53063 0.0
C1430 C 0.61129 0.81501 0.51804 0.0
C1431 C 0.62396 0.82257 0.50921 0.0
C1432 C 0.63662 0.82096 0.51305 0.0
C1433 C 0.63671 0.81225 0.52558 0.0
C1434 C 0.6302 0.8217 0.64295 0.0
C1435 C 0.62444 0.71625 0.54978 0.0
H1436 H 0.16793 0.80609 0.6828 0.0
H1437 H 0.08766 0.68929 0.53663 0.0
H1438 H 0.17459 0.8204 0.5997 0.0
H1439 H 0.19509 0.84535 0.61265 0.0
H1440 H 0.22784 0.83292 0.59841 0.0
H1441 H 0.20707 0.80772 0.58552 0.0
H1442 H 0.15024 0.79516 0.61319 0.0
H1443 H 0.1542 0.80064 0.64261 0.0
H1444 H 0.19088 0.79095 0.64356 0.0
H1445 H 0.18667 0.78532 0.61412 0.0
H1446 H 0.12615 0.77256 0.58418 0.0
H1447 H 0.10484 0.75916 0.60014 0.0
H1448 H 0.12865 0.74024 0.6261 0.0
H1449 H 0.15011 0.75372 0.60976 0.0
H1450 H 0.12642 0.76696 0.55093 0.0
H1451 H 0.10414 0.74308 0.53817 0.0
H1452 H 0.12189 0.71574 0.55832 0.0
H1453 H 0.14423 0.73974 0.57083 0.0
H1454 H 0.15326 0.79659 0.54094 0.0
H1455 H 0.1437 0.79044 0.51235 0.0
H1456 H 0.15138 0.75154 0.50984 0.0
H1457 H 0.16118 0.75794 0.53851 0.0
H1458 H 0.17971 0.8234 0.56463 0.0
H1459 H 0.19553 0.84203 0.54628 0.0
H1460 H 0.20736 0.80885 0.52689 0.0
H1461 H 0.19198 0.79043 0.54582 0.0
O1462 O 0.16651 0.8038 0.67117 0.0
O1463 O 0.18531 0.79875 0.67099 0.0
O1464 O 0.08778 0.71352 0.53138 0.0
O1465 O 0.09637 0.69892 0.54151 0.0
C1466 C 0.17658 0.79702 0.58407 0.0
C1467 C 0.16575 0.78641 0.59366 0.0
C1468 C 0.15258 0.77297 0.5862 0.0
C1469 C 0.15068 0.76957 0.56927 0.0
C1470 C 0.16143 0.78016 0.55963 0.0
C1471 C 0.17434 0.79395 0.56702 0.0
C1472 C 0.18932 0.81214 0.59187 0.0
C1473 C 0.18617 0.82295 0.59957 0.0
C1474 C 0.1979 0.83719 0.60698 0.0
C1475 C 0.21308 0.84103 0.60671 0.0
C1476 C 0.21625 0.83028 0.59879 0.0
C1477 C 0.20444 0.8159 0.59147 0.0
C1478 C 0.16806 0.78967 0.61155 0.0
C1479 C 0.15903 0.79408 0.61979 0.0
C1480 C 0.16136 0.79728 0.63659 0.0
C1481 C 0.17283 0.7962 0.64545 0.0
C1482 C 0.18192 0.79186 0.63711 0.0
C1483 C 0.17955 0.78863 0.62031 0.0
C1484 C 0.13959 0.76396 0.59568 0.0
C1485 C 0.12668 0.76529 0.5931 0.0
C1486 C 0.1145 0.75761 0.60221 0.0
C1487 C 0.11502 0.74852 0.61425 0.0
C1488 C 0.12798 0.74718 0.61689 0.0
C1489 C 0.14018 0.7548 0.60758 0.0
C1490 C 0.13703 0.75508 0.56162 0.0
C1491 C 0.12554 0.75581 0.55245 0.0
C1492 C 0.11279 0.74215 0.54524 0.0
C1493 C 0.11126 0.72749 0.54718 0.0
C1494 C 0.12273 0.72682 0.55654 0.0
C1495 C 0.1355 0.74051 0.56371 0.0
C1496 C 0.15793 0.77772 0.54178 0.0
C1497 C 0.15323 0.78697 0.53413 0.0
C1498 C 0.14763 0.78335 0.51786 0.0
C1499 C 0.14664 0.77041 0.50893 0.0
C1500 C 0.15209 0.76162 0.51641 0.0
C1501 C 0.15765 0.76524 0.53275 0.0
C1502 C 0.18485 0.80564 0.55673 0.0
C1503 C 0.18604 0.8203 0.55676 0.0
C1504 C 0.195 0.83088 0.54624 0.0
C1505 C 0.20263 0.82683 0.53524 0.0
C1506 C 0.20153 0.81219 0.53526 0.0
C1507 C 0.19281 0.80172 0.54604 0.0
C1508 C 0.17531 0.79965 0.6633 0.0
C1509 C 0.09774 0.71294 0.53953 0.0
H1510 H 0.20928 0.39627 0.69601 0.0
H1511 H 0.07789 0.36275 0.57596 0.0
H1512 H 0.21318 0.40187 0.61164 0.0
H1513 H 0.23392 0.39795 0.6214 0.0
H1514 H 0.20947 0.35084 0.598 0.0
H1515 H 0.18888 0.35484 0.58841 0.0
H1516 H 0.18766 0.40393 0.6326 0.0
H1517 H 0.19744 0.40508 0.66045 0.0
H1518 H 0.18974 0.35838 0.65081 0.0
H1519 H 0.17978 0.35731 0.62308 0.0
H1520 H 0.15453 0.39952 0.61745 0.0
H1521 H 0.13561 0.39423 0.63672 0.0
H1522 H 0.13133 0.34933 0.64217 0.0
H1523 H 0.14998 0.35458 0.62286 0.0
H1524 H 0.15342 0.4016 0.57844 0.0
H1525 H 0.12928 0.40062 0.57257 0.0
H1526 H 0.10542 0.35364 0.58677 0.0
H1527 H 0.12962 0.35472 0.59239 0.0
H1528 H 0.17543 0.39963 0.55398 0.0
H1529 H 0.1646 0.39518 0.52577 0.0
H1530 H 0.1313 0.34786 0.53346 0.0
H1531 H 0.14228 0.35235 0.56144 0.0
H1532 H 0.20679 0.40195 0.57062 0.0
H1533 H 0.21998 0.40028 0.54756 0.0
H1534 H 0.18466 0.35216 0.53539 0.0
H1535 H 0.17187 0.35384 0.55864 0.0
O1536 O 0.20528 0.39553 0.68498 0.0
O1537 O 0.20122 0.37155 0.67936 0.0
O1538 O 0.1004 0.38756 0.57085 0.0
O1539 O 0.0876 0.36343 0.57812 0.0
C1540 C 0.18578 0.37985 0.59594 0.0
C1541 C 0.17745 0.38011 0.60884 0.0
C1542 C 0.16346 0.37949 0.6056 0.0
C1543 C 0.15797 0.379 0.58949 0.0
C1544 C 0.16624 0.37868 0.57664 0.0
C1545 C 0.18013 0.37911 0.57984 0.0
C1546 C 0.19953 0.37865 0.59931 0.0
C1547 C 0.2125 0.39084 0.60833 0.0
C1548 C 0.22428 0.38855 0.61396 0.0
C1549 C 0.2233 0.37405 0.61055 0.0
C1550 C 0.21068 0.3622 0.60067 0.0
C1551 C 0.19889 0.36447 0.59516 0.0
C1552 C 0.18314 0.3806 0.6258 0.0
C1553 C 0.18806 0.39395 0.63655 0.0
C1554 C 0.19366 0.39459 0.65244 0.0
C1555 C 0.19443 0.38185 0.65784 0.0
C1556 C 0.18935 0.36842 0.64703 0.0
C1557 C 0.1837 0.36779 0.63118 0.0
C1558 C 0.15367 0.37746 0.61882 0.0
C1559 C 0.14965 0.38865 0.62302 0.0
C1560 C 0.13882 0.38559 0.63393 0.0
C1561 C 0.13201 0.37137 0.64094 0.0
C1562 C 0.13654 0.36048 0.63717 0.0
C1563 C 0.14721 0.36347 0.62615 0.0
C1564 C 0.14326 0.37828 0.58595 0.0
C1565 C 0.14296 0.39111 0.58025 0.0
C1566 C 0.12916 0.39052 0.57693 0.0
C1567 C 0.11541 0.37706 0.57925 0.0
C1568 C 0.11578 0.3642 0.58489 0.0
C1569 C 0.12959 0.36479 0.58816 0.0
C1570 C 0.15958 0.37633 0.55971 0.0
C1571 C 0.16578 0.38834 0.54952 0.0
C1572 C 0.15956 0.3858 0.53349 0.0
C1573 C 0.14714 0.37115 0.52742 0.0
C1574 C 0.14097 0.3592 0.53774 0.0
C1575 C 0.14713 0.36177 0.55373 0.0
C1576 C 0.18838 0.37803 0.56623 0.0
C1577 C 0.202 0.39105 0.56299 0.0
C1578 C 0.20942 0.39011 0.54976 0.0
C1579 C 0.20334 0.37609 0.53964 0.0
C1580 C 0.18973 0.36306 0.54305 0.0
C1581 C 0.18235 0.36401 0.55625 0.0
C1582 C 0.2005 0.3826 0.67469 0.0
C1583 C 0.10073 0.3764 0.5758 0.0
C1584 C 0.01003 0.3875 0.04337 0.0
C1585 C 0.99742 0.37804 0.03212 0.0
C1586 C 0.00848 0.39491 0.05729 0.0
C1587 C 0.98298 0.39312 0.08616 0.0
H1588 H 0.00613 0.43837 0.09089 0.0
C1589 C 0.97524 0.42848 0.13832 0.0
C1590 C 0.9881 0.44241 0.14525 0.0
C1591 C 0.9758 0.42069 0.1241 0.0
C1592 C -0.00023 0.42575 0.08998 0.0
H1593 H 0.97322 0.36839 0.02693 0.0
H1594 H 0.97045 0.38093 0.05165 0.0
H1595 H 0.00864 0.42405 0.06772 0.0
H1596 H 0.0115 0.45931 0.14208 0.0
H1597 H 0.01277 0.4453 0.11811 0.0
H1598 H 0.97459 0.39461 0.10869 0.0
C1599 C 0.98153 0.38276 0.04949 0.0
C1600 C 0.00116 0.41757 0.07663 0.0
C1601 C 0.98313 0.37564 0.03538 0.0
C1602 C 0.00143 0.44846 0.13737 0.0
C1603 C 0.00208 0.44051 0.12335 0.0
C1604 C 0.98183 0.40127 0.09973 0.0
C1605 C 0.99424 0.39269 0.06038 0.0
C1606 C 0.99278 0.40122 0.07461 0.0
C1607 C 0.98931 0.42645 0.11654 0.0
C1608 C 0.99022 0.41772 0.10186 0.0
H1609 H 0.02119 0.38965 0.04113 0.0
H1610 H 0.01842 0.40249 0.06558 0.0
H1611 H 0.97646 0.38048 0.08484 0.0
H1612 H 0.9648 0.42332 0.14407 0.0
H1613 H 0.96561 0.41009 0.1191 0.0
C1614 C 0.60578 0.57938 0.09048 0.0
C1615 C 0.60829 0.59433 0.09523 0.0
C1616 C 0.59589 0.56654 0.09836 0.0
C1617 C 0.56586 0.55403 0.12675 0.0
H1618 H 0.57927 0.52546 0.13853 0.0
C1619 C 0.54614 0.51837 0.18099 0.0
C1620 C 0.54015 0.50218 0.17813 0.0
C1621 C 0.55358 0.52823 0.16924 0.0
C1622 C 0.57532 0.53326 0.13515 0.0
H1623 H 0.60226 0.60749 0.1118 0.0
H1624 H 0.58542 0.58537 0.12565 0.0
H1625 H 0.59334 0.54514 0.12025 0.0
H1626 H 0.53771 0.48376 0.16074 0.0
H1627 H 0.5513 0.50122 0.14044 0.0
H1628 H 0.54831 0.54263 0.14234 0.0
C1629 C 0.59072 0.58336 0.11563 0.0
C1630 C 0.58331 0.54447 0.12463 0.0
C1631 C 0.60047 0.59612 0.10771 0.0
C1632 C 0.54232 0.49618 0.16344 0.0
C1633 C 0.55001 0.50613 0.15177 0.0
C1634 C 0.55804 0.543 0.13743 0.0
C1635 C 0.5884 0.56843 0.11118 0.0
C1636 C 0.57886 0.55523 0.1206 0.0
C1637 C 0.55544 0.52219 0.15448 0.0
C1638 C 0.56289 0.53275 0.14197 0.0
H1639 H 0.61163 0.57765 0.08086 0.0
H1640 H 0.59423 0.55517 0.09451 0.0
H1641 H 0.56188 0.56186 0.1236 0.0
H1642 H 0.54504 0.52347 0.1923 0.0
H1643 H 0.55794 0.54064 0.17171 0.0
C1644 C 0.3984 0.00364 0.05726 0.0
C1645 C 0.40689 0.01303 0.04548 0.0
C1646 C 0.40546 0.00414 0.0723 0.0
C1647 C 0.44057 0.02788 0.09994 0.0
H1648 H 0.42739 0.98859 0.1182 0.0
C1649 C 0.46019 0.02415 0.16526 0.0
C1650 C 0.46262 0.01175 0.16799 0.0
C1651 C 0.45412 0.02491 0.15011 0.0
C1652 C 0.43133 -0.00035 0.11321 0.0
H1653 H 0.42949 0.03053 0.04043 0.0
H1654 H 0.44182 0.03121 0.06658 0.0
H1655 H 0.41538 0.98882 0.09229 0.0
H1656 H 0.46125 0.99082 0.15685 0.0
H1657 H 0.45086 0.99225 0.13036 0.0
H1658 H 0.45679 0.03864 0.12072 0.0
C1659 C 0.42965 0.02361 0.06426 0.0
C1660 C 0.42428 -0.00019 0.09845 0.0
C1661 C 0.42258 0.02316 0.04922 0.0
C1662 C 0.45927 0.00038 0.15516 0.0
C1663 C 0.45328 0.00118 0.14001 0.0
C1664 C 0.44767 0.02771 0.11471 0.0
C1665 C 0.42119 0.01399 0.07592 0.0
C1666 C 0.42877 0.01392 0.09165 0.0
C1667 C 0.45041 0.01333 0.13736 0.0
C1668 C 0.44312 0.01359 0.12153 0.0
H1669 H 0.38627 0.99579 0.05485 0.0
H1670 H 0.39855 0.9968 0.08111 0.0
H1671 H 0.44423 0.03896 0.09511 0.0
H1672 H 0.46251 0.03299 0.17498 0.0
H1673 H 0.45189 0.03432 0.14856 0.0
C1674 C 0.41106 0.9993 0.9769 0.0
C1675 C 0.39689 0.98611 0.97827 0.0
C1676 C 0.42094 0.99846 0.9666 0.0
C1677 C 0.42807 0.97118 0.94129 0.0
H1678 H 0.44776 0.00684 0.91646 0.0
C1679 C 0.45586 0.97136 0.88229 0.0
C1680 C 0.46987 0.98478 0.88064 0.0
C1681 C 0.44767 0.97086 0.89534 0.0
C1682 C 0.44249 0.99687 0.92342 0.0
H1683 H 0.38218 0.96148 0.97063 0.0
H1684 H 0.39924 0.96006 0.95216 0.0
H1685 H 0.43234 0.00709 0.93742 0.0
H1686 H 0.48657 0.00787 0.89186 0.0
H1687 H 0.47214 0.00708 0.91441 0.0
H1688 H 0.43798 0.96084 0.92674 0.0
C1689 C 0.40287 0.97102 0.95924 0.0
C1690 C 0.43369 0.99702 0.9355 0.0
C1691 C 0.39307 0.97183 0.96978 0.0
C1692 C 0.47565 0.99751 0.89254 0.0
C1693 C 0.46743 0.99704 0.9055 0.0
C1694 C 0.43681 0.97098 0.92904 0.0
C1695 C 0.41676 0.98445 0.95721 0.0
C1696 C 0.4264 0.98422 0.94464 0.0
C1697 C 0.45328 0.9838 0.90692 0.0
C1698 C 0.44413 0.98386 0.92004 0.0
H1699 H 0.41449 0.01035 0.98364 0.0
H1700 H 0.43174 0.0089 0.96575 0.0
H1701 H 0.42273 0.96118 0.94818 0.0
H1702 H 0.45103 0.9614 0.87327 0.0
H1703 H 0.43672 0.96055 0.89608 0.0
C1704 C 0.01286 0.39477 0.96223 0.0
C1705 C 0.02478 0.39749 0.97362 0.0
C1706 C 0.01298 0.40709 0.95496 0.0
C1707 C 0.03807 0.44654 0.94415 0.0
H1708 H 0.00056 0.44708 0.93803 0.0
C1709 C 0.03358 0.49395 0.91094 0.0
C1710 C 0.02073 0.48842 0.89978 0.0
C1711 C 0.0346 0.48412 0.92166 0.0
C1712 C 0.0111 0.44705 0.93956 0.0
H1713 H 0.04634 0.41531 0.9861 0.0
H1714 H 0.04659 0.43695 0.97321 0.0
H1715 H 0.00154 0.42765 0.95375 0.0
H1716 H 0.999 0.46814 0.89095 0.0
H1717 H 0.00076 0.45106 0.90957 0.0
H1718 H 0.04752 0.46572 0.92959 0.0
C1719 C 0.03713 0.42522 0.97002 0.0
C1720 C 0.01167 0.43594 0.94859 0.0
C1721 C 0.03696 0.41284 0.97741 0.0
C1722 C 0.00891 0.47288 0.89962 0.0
C1723 C 0.00992 0.46307 0.91031 0.0
C1724 C 0.03749 0.45766 0.93506 0.0
C1725 C 0.02507 0.42245 0.95878 0.0
C1726 C 0.02506 0.43534 0.95069 0.0
C1727 C 0.02278 0.46855 0.92143 0.0
C1728 C 0.0239 0.45782 0.93238 0.0
H1729 H 0.00345 0.38309 0.95876 0.0
H1730 H 0.00368 0.40453 0.9461 0.0
H1731 H 0.04852 0.4463 0.94548 0.0
H1732 H 0.04281 0.50592 0.91146 0.0
H1733 H 0.04458 0.48873 0.93019 0.0
C1734 C 0.58344 0.61654 0.03488 0.0
C1735 C 0.59897 0.62155 0.03728 0.0
C1736 C 0.57594 0.61241 0.0193 0.0
C1737 C 0.58221 0.617 0.97627 0.0
H1738 H 0.54347 0.57838 0.9687 0.0
C1739 C 0.54618 0.5966 0.91435 0.0
C1740 C 0.54045 0.5809 0.90866 0.0
C1741 C 0.55269 0.60209 0.93028 0.0
C1742 C 0.55428 0.58919 0.97063 0.0
H1743 H 0.61885 0.62647 0.02507 0.0
H1744 H 0.60574 0.61926 0.99792 0.0
H1745 H 0.55637 0.58728 0.996 0.0
H1746 H 0.5366 0.55854 0.91529 0.0
H1747 H 0.54798 0.56812 0.94309 0.0
H1748 H 0.58025 0.61874 0.95083 0.0
C1749 C 0.5994 0.6186 0.00811 0.0
C1750 C 0.5616 0.59436 0.98628 0.0
C1751 C 0.60689 0.62264 0.02369 0.0
C1752 C 0.54106 0.57073 0.91931 0.0
C1753 C 0.54744 0.57619 0.93526 0.0
C1754 C 0.57483 0.61188 0.96063 0.0
C1755 C 0.58381 0.61329 0.00575 0.0
C1756 C 0.57571 0.60824 0.98925 0.0
C1757 C 0.55346 0.59196 0.94088 0.0
C1758 C 0.56087 0.59784 0.95761 0.0
H1759 H 0.57698 0.61558 0.04505 0.0
H1760 H 0.56396 0.60852 0.01785 0.0
H1761 H 0.59301 0.62781 0.97821 0.0
H1762 H 0.54595 0.60472 0.90637 0.0
H1763 H 0.55712 0.61427 0.93431 0.0
C1764 C 0.02019 0.62849 0.02754 0.0
C1765 C 0.00834 0.6316 0.02904 0.0
C1766 C 0.02171 0.62219 0.01282 0.0
C1767 C 0.99898 0.59837 0.97565 0.0
H1768 H 0.03798 0.61111 0.95975 0.0
C1769 C 0.00385 0.57252 0.91417 0.0
C1770 C 0.01549 0.56904 0.91324 0.0
C1771 C 0.00339 0.58095 0.92788 0.0
C1772 C 0.02702 0.6073 0.96412 0.0
H1773 H 0.98916 0.63109 0.01596 0.0
H1774 H 0.99184 0.62012 0.99028 0.0
H1775 H 0.03664 0.62492 0.98421 0.0
H1776 H 0.0358 0.57169 0.92595 0.0
H1777 H 0.0349 0.58626 0.95006 0.0
H1778 H 0.98934 0.5806 0.9558 0.0
C1779 C -0.00016 0.62239 0.00059 0.0
C1780 C 0.02625 0.61525 0.9781 0.0
C1781 C 0.99837 0.62877 0.01529 0.0
C1782 C 0.02675 0.57429 0.92628 0.0
C1783 C 0.02625 0.58268 0.94006 0.0
C1784 C -0.00026 0.59039 0.96172 0.0
C1785 C 0.01138 0.6188 0.99926 0.0
C1786 C 0.01222 0.61085 0.98404 0.0
C1787 C 0.01453 0.58607 0.94105 0.0
C1788 C 0.01377 0.59473 0.95579 0.0
H1789 H 0.02812 0.63054 0.03785 0.0
H1790 H 0.03065 0.61944 0.01223 0.0
H1791 H 0.98802 0.5945 0.98007 0.0
H1792 H 0.99519 0.5689 0.90417 0.0
H1793 H 0.99437 0.58361 0.92808 0.0
C1794 C 0.39097 0.43053 0.96501 0.0
C1795 C 0.39554 0.42031 0.9704 0.0
C1796 C 0.40101 0.44367 0.95763 0.0
C1797 C 0.43612 0.45795 0.93674 0.0
H1798 H 0.43316 0.49519 0.93514 0.0
C1799 C 0.47681 0.50967 0.9035 0.0
C1800 C 0.46944 0.51296 0.89088 0.0
C1801 C 0.46863 0.50033 0.91531 0.0
C1802 C 0.4341 0.48484 0.93556 0.0
H1803 H 0.41435 0.41634 0.97377 0.0
H1804 H 0.43218 0.4397 0.96188 0.0
H1805 H 0.41787 0.47547 0.95288 0.0
H1806 H 0.44773 0.50959 0.88136 0.0
H1807 H 0.43356 0.49366 0.90237 0.0
H1808 H 0.45256 0.46753 0.91966 0.0
C1809 C 0.42068 0.43727 0.96243 0.0
C1810 C 0.42529 0.47349 0.94562 0.0
C1811 C 0.41052 0.42393 0.96938 0.0
C1812 C 0.45382 0.50743 0.89094 0.0
C1813 C 0.44568 0.49828 0.90294 0.0
C1814 C 0.44511 0.46942 0.927 0.0
C1815 C 0.41591 0.447 0.95586 0.0
C1816 C 0.42605 0.45978 0.9462 0.0
C1817 C 0.45296 0.49434 0.91496 0.0
C1818 C 0.44406 0.48286 0.92618 0.0
H1819 H 0.3794 0.42788 0.96565 0.0
H1820 H 0.39681 0.45073 0.95263 0.0
H1821 H 0.43679 0.44744 0.9364 0.0
H1822 H 0.48889 0.51408 0.90412 0.0
H1823 H 0.4745 0.49755 0.92458 0.0
C1824 C 0.58768 0.98279 0.01477 0.0
C1825 C 0.60169 0.99623 0.02008 0.0
C1826 C 0.58053 0.9812 0.99942 0.0
C1827 C 0.58763 0.99688 0.95944 0.0
H1828 H 0.54409 0.97955 0.95468 0.0
C1829 C 0.55621 0.00182 0.90259 0.0
C1830 C 0.54252 0.98845 0.89631 0.0
C1831 C 0.56335 0.0022 0.91753 0.0
C1832 C 0.55623 0.98425 0.95578 0.0
H1833 H 0.61918 0.01852 0.01331 0.0
H1834 H 0.60658 0.01587 0.98671 0.0
H1835 H 0.55681 0.98126 0.981 0.0
H1836 H 0.52551 0.96505 0.90081 0.0
H1837 H 0.53803 0.96571 0.92699 0.0
H1838 H 0.58705 0.0001 0.93427 0.0
C1839 C 0.60124 0.00642 0.99429 0.0
C1840 C 0.56353 0.98521 0.97086 0.0
C1841 C 0.60843 0.00797 0.00961 0.0
C1842 C 0.53609 0.97548 0.90532 0.0
C1843 C 0.54319 0.9759 0.92034 0.0
C1844 C 0.58034 0.99599 0.94441 0.0
C1845 C 0.58716 0.99305 0.98903 0.0
C1846 C 0.57933 0.99161 0.97289 0.0
C1847 C 0.55693 0.98925 0.92656 0.0
C1848 C 0.56458 0.98975 0.94243 0.0
H1849 H 0.5822 0.97346 0.02248 0.0
H1850 H 0.56981 0.97064 0.99567 0.0
H1851 H 0.59978 0.0016 0.9605 0.0
H1852 H 0.56154 0.01192 0.89584 0.0
H1853 H 0.57385 0.01271 0.92207 0.0
C1854 C 0.59833 0.00891 0.09451 0.0
C1855 C 0.60835 0.02229 0.08731 0.0
C1856 C 0.58762 0.00903 0.10397 0.0
C1857 C 0.58131 0.03523 0.13015 0.0
H1858 H 0.54123 0.99872 0.12964 0.0
C1859 C 0.53934 0.02919 0.17713 0.0
C1860 C 0.5323 0.01476 0.18372 0.0
C1861 C 0.54762 0.03125 0.16377 0.0
C1862 C 0.55239 0.00899 0.12994 0.0
H1863 H 0.61479 0.04626 0.08418 0.0
H1864 H 0.59602 0.0465 0.10098 0.0
H1865 H 0.55716 0.00036 0.10829 0.0
H1866 H 0.52876 0.99132 0.18172 0.0
H1867 H 0.54311 0.99489 0.15846 0.0
H1868 H 0.5767 0.04363 0.15211 0.0
C1869 C 0.59652 0.03592 0.09919 0.0
C1870 C 0.56148 0.00995 0.11771 0.0
C1871 C 0.6072 0.03575 0.08954 0.0
C1872 C 0.5338 0.00249 0.17675 0.0
C1873 C 0.542 0.00452 0.1634 0.0
C1874 C 0.57219 0.03428 0.14241 0.0
C1875 C 0.58671 0.02258 0.1066 0.0
C1876 C 0.5762 0.02285 0.11795 0.0
C1877 C 0.54894 0.01889 0.15672 0.0
C1878 C 0.55782 0.02093 0.14268 0.0
H1879 H 0.59898 0.9984 0.09325 0.0
H1880 H 0.58041 0.99866 0.10976 0.0
H1881 H 0.59265 0.04527 0.13071 0.0
H1882 H 0.53823 0.03881 0.18211 0.0
H1883 H 0.55278 0.04243 0.15882 0.0
C1884 C 0.96216 0.59583 0.08912 0.0
C1885 C 0.97633 0.60688 0.08452 0.0
C1886 C 0.96056 0.58307 0.09689 0.0
C1887 C 0.97567 0.55759 0.10299 0.0
H1888 H 0.96524 0.55715 0.14705 0.0
C1889 C 0.98513 0.52073 0.14816 0.0
C1890 C 0.97589 0.51543 0.16092 0.0
C1891 C 0.98369 0.53042 0.13759 0.0
C1892 C 0.9678 0.55676 0.13467 0.0
H1893 H -0.00035 0.61276 0.08335 0.0
H1894 H 0.99674 0.59019 0.09652 0.0
H1895 H 0.96483 0.57607 0.13014 0.0
H1896 H 0.9575 0.51601 0.17212 0.0
H1897 H 0.95425 0.53178 0.15309 0.0
H1898 H 0.97831 0.53809 0.10721 0.0
C1899 C 0.98699 0.59159 0.0944 0.0
C1900 C 0.96765 0.56771 0.12503 0.0
C1901 C 0.98867 0.60455 0.08701 0.0
C1902 C 0.96475 0.51961 0.16238 0.0
C1903 C 0.96307 0.529 0.15158 0.0
C1904 C 0.97549 0.54637 0.1125 0.0
C1905 C 0.97301 0.58095 0.09971 0.0
C1906 C 0.9718 0.56836 0.10922 0.0
C1907 C 0.97273 0.53482 0.13923 0.0
C1908 C 0.97181 0.54596 0.12859 0.0
H1909 H 0.95249 0.59742 0.08734 0.0
H1910 H 0.94968 0.57497 0.10089 0.0
H1911 H 0.97886 0.55788 0.09077 0.0
H1912 H 0.99364 0.51754 0.14636 0.0
H1913 H 0.9915 0.53476 0.1284 0.0
C1914 C 0.42468 0.40013 0.02274 0.0
C1915 C 0.40883 0.39026 0.02096 0.0
C1916 C 0.43282 0.40394 0.03794 0.0
C1917 C 0.43292 0.39094 0.07768 0.0
H1918 H 0.45693 0.43486 0.09316 0.0
C1919 C 0.45816 0.4116 0.14421 0.0
C1920 C 0.47157 0.42605 0.14778 0.0
C1921 C 0.45119 0.4067 0.1284 0.0
C1922 C 0.45059 0.42255 0.08898 0.0
H1923 H 0.38917 0.37625 0.03363 0.0
H1924 H 0.40354 0.38257 0.0602 0.0
H1925 H 0.44365 0.42706 0.06613 0.0
H1926 H 0.4886 0.44649 0.13773 0.0
H1927 H 0.47698 0.43766 0.10994 0.0
H1928 H 0.44014 0.38632 0.10021 0.0
C1929 C 0.40956 0.38747 0.0498 0.0
C1930 C 0.44288 0.41811 0.0735 0.0
C1931 C 0.40136 0.38392 0.03464 0.0
C1932 C 0.4782 0.43532 0.13522 0.0
C1933 C 0.47142 0.43029 0.11934 0.0
C1934 C 0.44089 0.39538 0.09306 0.0
C1935 C 0.42532 0.39768 0.0516 0.0
C1936 C 0.43388 0.40228 0.06778 0.0
C1937 C 0.45764 0.41605 0.11573 0.0
C1938 C 0.44973 0.41126 0.09901 0.0
H1939 H 0.43076 0.40527 0.01244 0.0
H1940 H 0.44498 0.41181 0.03905 0.0
H1941 H 0.42613 0.37865 0.07345 0.0
H1942 H 0.45275 0.40436 0.15378 0.0
H1943 H 0.44048 0.39583 0.12627 0.0
C1944 C 0.64435 0.7179 0.36638 0.0
C1945 C 0.65427 0.71201 0.36656 0.0
C1946 C 0.64093 0.72278 0.38081 0.0
C1947 C 0.65564 0.73576 0.42381 0.0
H1948 H 0.61522 0.72836 0.42876 0.0
C1949 C 0.63895 0.74938 0.48481 0.0
C1950 C 0.63068 0.75714 0.48465 0.0
C1951 C 0.64119 0.74328 0.47041 0.0
C1952 C 0.62659 0.73063 0.4275 0.0
H1953 H 0.66812 0.70633 0.38217 0.0
H1954 H 0.66196 0.71458 0.40731 0.0
H1955 H 0.62027 0.71857 0.40373 0.0
H1956 H 0.61801 0.7643 0.46919 0.0
H1957 H 0.62185 0.75352 0.44397 0.0
H1958 H 0.66194 0.74776 0.44758 0.0
C1959 C 0.65704 0.71571 0.39598 0.0
C1960 C 0.6295 0.72503 0.41316 0.0
C1961 C 0.6605 0.71089 0.38155 0.0
C1962 C 0.62433 0.75829 0.46974 0.0
C1963 C 0.62654 0.75212 0.4553 0.0
C1964 C 0.65271 0.74129 0.43816 0.0
C1965 C 0.6473 0.72184 0.39579 0.0
C1966 C 0.64407 0.72754 0.41113 0.0
C1967 C 0.63516 0.74472 0.45548 0.0
C1968 C 0.63816 0.73879 0.44017 0.0
H1969 H 0.63937 0.719 0.35507 0.0
H1970 H 0.63356 0.72762 0.38018 0.0
H1971 H 0.66706 0.73819 0.42257 0.0
H1972 H 0.6437 0.74797 0.4961 0.0
H1973 H 0.64762 0.73737 0.47098 0.0
C1974 C 0.26118 0.92876 0.44359 0.0
C1975 C 0.27323 0.92902 0.43613 0.0
C1976 C 0.2522 0.9165 0.45259 0.0
C1977 C 0.24373 0.87696 0.46268 0.0
H1978 H 0.23268 0.88937 0.50223 0.0
C1979 C 0.20804 0.83258 0.50677 0.0
C1980 C 0.21114 0.83765 0.52334 0.0
C1981 C 0.21519 0.84313 0.49541 0.0
C1982 C 0.23584 0.88571 0.49134 0.0
H1983 H 0.28501 0.91637 0.43175 0.0
H1984 H 0.26978 0.89535 0.44792 0.0
H1985 H 0.24542 0.90845 0.48336 0.0
H1986 H 0.22451 0.85742 0.54115 0.0
H1987 H 0.23751 0.87575 0.52143 0.0
H1988 H 0.23488 0.85441 0.47118 0.0
C1989 C 0.26695 0.90435 0.44654 0.0
C1990 C 0.24289 0.89662 0.48032 0.0
C1991 C 0.27575 0.91647 0.43731 0.0
C1992 C 0.22184 0.8533 0.52841 0.0
C1993 C 0.22917 0.86379 0.51709 0.0
C1994 C 0.23685 0.86609 0.47384 0.0
C1995 C 0.25526 0.90438 0.45459 0.0
C1996 C 0.24699 0.89243 0.46585 0.0
C1997 C 0.22574 0.85892 0.50042 0.0
C1998 C 0.2329 0.87035 0.48837 0.0
H1999 H 0.25885 0.93816 0.44278 0.0
H2000 H 0.24304 0.91672 0.45824 0.0
H2001 H 0.24654 0.87324 0.45159 0.0
H2002 H 0.19969 0.82057 0.50259 0.0
H2003 H 0.2121 0.83897 0.48271 0.0
C2004 C 0.07524 0.33481 0.3937 0.0
C2005 C 0.084 0.34159 0.3809 0.0
C2006 C 0.08208 0.33801 0.40954 0.0
C2007 C 0.1169 0.36682 0.43531 0.0
H2008 H 0.10355 0.33402 0.46405 0.0
C2009 C 0.13777 0.37917 0.5034 0.0
C2010 C 0.14056 0.36824 0.5104 0.0
C2011 C 0.13096 0.37605 0.48756 0.0
C2012 C 0.10751 0.34329 0.45614 0.0
H2013 H 0.10689 0.35684 0.37474 0.0
H2014 H 0.11878 0.36215 0.40221 0.0
H2015 H 0.09159 0.32807 0.43646 0.0
H2016 H 0.13894 0.34575 0.50613 0.0
H2017 H 0.12726 0.34038 0.47846 0.0
H2018 H 0.13309 0.38195 0.45484 0.0
C2019 C 0.10659 0.35462 0.40009 0.0
C2020 C 0.10051 0.33992 0.44038 0.0
C2021 C 0.09976 0.35148 0.38429 0.0
C2022 C 0.13668 0.35428 0.50114 0.0
C2023 C 0.12996 0.35119 0.48531 0.0
C2024 C 0.12393 0.37018 0.45105 0.0
C2025 C 0.09783 0.34802 0.41292 0.0
C2026 C 0.10514 0.35163 0.42976 0.0
C2027 C 0.12688 0.36197 0.47836 0.0
C2028 C 0.11934 0.35845 0.46164 0.0
H2029 H 0.06307 0.32719 0.39154 0.0
H2030 H 0.07498 0.33286 0.41916 0.0
H2031 H 0.12062 0.37617 0.42751 0.0
H2032 H 0.14049 0.38996 0.5103 0.0
H2033 H 0.12859 0.38453 0.48265 0.0
C2034 C 0.06459 0.29252 0.30631 0.0
C2035 C 0.07054 0.30754 0.31424 0.0
C2036 C 0.07253 0.28972 0.29471 0.0
C2037 C 0.10069 0.31187 0.2668 0.0
H2038 H 0.09985 0.27296 0.25656 0.0
C2039 C 0.13382 0.30538 0.21689 0.0
C2040 C 0.12599 0.29199 0.20581 0.0
C2041 C 0.12774 0.30649 0.2311 0.0
C2042 C 0.10008 0.28385 0.25926 0.0
H2043 H 0.09009 0.33093 0.31766 0.0
H2044 H 0.10414 0.32599 0.2979 0.0
H2045 H 0.08866 0.27627 0.28061 0.0
H2046 H 0.10577 0.26909 0.20116 0.0
H2047 H 0.09508 0.27106 0.22615 0.0
H2048 H 0.112 0.31946 0.24552 0.0
C2049 C 0.09309 0.31652 0.30005 0.0
C2050 C 0.09369 0.28576 0.27301 0.0
C2051 C 0.08507 0.31935 0.31142 0.0
C2052 C 0.11208 0.27954 0.20949 0.0
C2053 C 0.10599 0.28064 0.22379 0.0
C2054 C 0.10711 0.31001 0.25318 0.0
C2055 C 0.08663 0.30187 0.29104 0.0
C2056 C 0.09394 0.29982 0.27694 0.0
C2057 C 0.11369 0.29423 0.23463 0.0
C2058 C 0.10689 0.296 0.24925 0.0
H2059 H 0.05338 0.28321 0.30826 0.0
H2060 H 0.0672 0.27831 0.28799 0.0
H2061 H 0.1007 0.32269 0.26916 0.0
H2062 H 0.14476 0.31499 0.21463 0.0
H2063 H 0.13406 0.31698 0.23938 0.0
C2064 C 0.70558 0.7505 0.31813 0.0
C2065 C 0.69201 0.73635 0.31344 0.0
C2066 C 0.70884 0.76397 0.31069 0.0
C2067 C 0.69071 0.78145 0.28701 0.0
H2068 H 0.72967 0.80509 0.27007 0.0
C2069 C 0.69981 0.82237 0.23765 0.0
C2070 C 0.71375 0.83637 0.23806 0.0
C2071 C 0.69776 0.81143 0.24848 0.0
C2072 C 0.71883 0.7988 0.27496 0.0
H2073 H 0.67131 0.72531 0.29717 0.0
H2074 H 0.67686 0.74873 0.2845 0.0
H2075 H 0.72503 0.78381 0.28648 0.0
H2076 H 0.73644 0.84996 0.25032 0.0
H2077 H 0.73283 0.83086 0.26941 0.0
H2078 H 0.68441 0.79626 0.27546 0.0
C2079 C 0.68492 0.74947 0.29401 0.0
C2080 C 0.71618 0.78661 0.28435 0.0
C2081 C 0.68174 0.73601 0.3013 0.0
C2082 C 0.7256 0.83922 0.24962 0.0
C2083 C 0.72354 0.82827 0.26053 0.0
C2084 C 0.69338 0.79367 0.27773 0.0
C2085 C 0.69852 0.76358 0.29855 0.0
C2086 C 0.70197 0.77759 0.29016 0.0
C2087 C 0.70958 0.81423 0.26007 0.0
C2088 C 0.70735 0.80227 0.27127 0.0
H2089 H 0.71376 0.75113 0.32741 0.0
H2090 H 0.7194 0.77471 0.31446 0.0
H2091 H 0.67974 0.77487 0.29157 0.0
H2092 H 0.69055 0.81967 0.22867 0.0
H2093 H 0.68698 0.8006 0.24751 0.0
C2094 C 0.27239 0.95515 0.36209 0.0
C2095 C 0.26389 0.95405 0.37514 0.0
C2096 C 0.26558 0.95128 0.34621 0.0
C2097 C 0.23173 0.94541 0.32104 0.0
H2098 H 0.24308 0.92298 0.29068 0.0
C2099 C 0.19913 0.91714 0.25785 0.0
C2100 C 0.20794 0.91883 0.24493 0.0
C2101 C 0.20594 0.922 0.27374 0.0
C2102 C 0.2399 0.92938 0.29897 0.0
H2103 H 0.2415 0.94799 0.38165 0.0
H2104 H 0.22959 0.94097 0.35401 0.0
H2105 H 0.25494 0.93023 0.31836 0.0
H2106 H 0.2309 0.92758 0.23856 0.0
H2107 H 0.2427 0.9359 0.26626 0.0
H2108 H 0.2165 0.94432 0.3016 0.0
C2109 C 0.24159 0.9451 0.35602 0.0
C2110 C 0.24672 0.93357 0.31484 0.0
C2111 C 0.24842 0.94904 0.37191 0.0
C2112 C 0.22373 0.9258 0.24825 0.0
C2113 C 0.23051 0.93058 0.26412 0.0
C2114 C 0.22483 0.94113 0.30516 0.0
C2115 C 0.25008 0.94613 0.34297 0.0
C2116 C 0.24276 0.94168 0.32607 0.0
C2117 C 0.22168 0.92861 0.27706 0.0
C2118 C 0.22889 0.93312 0.29395 0.0
H2119 H 0.28436 0.95905 0.36411 0.0
H2120 H 0.27253 0.95246 0.33645 0.0
H2121 H 0.22856 0.95184 0.32929 0.0
H2122 H 0.18692 0.91166 0.25573 0.0
H2123 H 0.19882 0.9202 0.28348 0.0
C2124 C 0.67661 0.95622 0.35179 0.0
C2125 C 0.68211 0.95503 0.36718 0.0
C2126 C 0.68132 0.95214 0.33784 0.0
C2127 C 0.69686 0.92816 0.32288 0.0
H2128 H 0.70731 0.95407 0.28729 0.0
C2129 C 0.71924 0.91399 0.26603 0.0
C2130 C 0.71336 0.91563 0.25109 0.0
C2131 C 0.71665 0.91974 0.28049 0.0
C2132 C 0.70429 0.94662 0.29706 0.0
H2133 H 0.69696 0.94862 0.37989 0.0
H2134 H 0.70511 0.94149 0.35557 0.0
H2135 H 0.70005 0.96206 0.31184 0.0
H2136 H 0.70071 0.9252 0.23963 0.0
H2137 H 0.69581 0.93475 0.26473 0.0
H2138 H 0.70077 0.91254 0.30804 0.0
C2139 C 0.69709 0.94551 0.35432 0.0
C2140 C 0.70014 0.95122 0.31112 0.0
C2141 C 0.69246 0.94969 0.36826 0.0
C2142 C 0.70518 0.9235 0.25093 0.0
C2143 C 0.70255 0.92918 0.26535 0.0
C2144 C 0.70092 0.92351 0.30878 0.0
C2145 C 0.69156 0.94667 0.33896 0.0
C2146 C 0.6963 0.94199 0.32415 0.0
C2147 C 0.70812 0.92725 0.28032 0.0
C2148 C 0.70459 0.93263 0.29565 0.0
H2149 H 0.66862 0.96029 0.3505 0.0
H2150 H 0.67674 0.95301 0.32616 0.0
H2151 H 0.69378 0.92071 0.33265 0.0
H2152 H 0.72552 0.90793 0.26658 0.0
H2153 H 0.72128 0.91824 0.2918 0.0
C2154 C 0.06515 0.77003 0.31294 0.0
C2155 C 0.06557 0.75633 0.30908 0.0
C2156 C 0.07449 0.78367 0.30585 0.0
C2157 C 0.10856 0.80253 0.28353 0.0
H2158 H 0.08904 0.82323 0.26406 0.0
C2159 C 0.14065 0.85293 0.24466 0.0
C2160 C 0.13285 0.85157 0.22967 0.0
C2161 C 0.13296 0.84378 0.25682 0.0
C2162 C 0.09466 0.81759 0.26947 0.0
H2163 H 0.07639 0.74635 0.29506 0.0
H2164 H 0.09265 0.77004 0.28282 0.0
H2165 H 0.07513 0.8023 0.28111 0.0
H2166 H 0.1108 0.84001 0.21589 0.0
H2167 H 0.09736 0.82393 0.23706 0.0
H2168 H 0.12781 0.81725 0.27133 0.0
C2169 C 0.08523 0.77032 0.29143 0.0
C2170 C 0.08675 0.80573 0.27937 0.0
C2171 C 0.07585 0.7567 0.29842 0.0
C2172 C 0.11708 0.84141 0.22736 0.0
C2173 C 0.10939 0.83222 0.23952 0.0
C2174 C 0.11646 0.81439 0.27367 0.0
C2175 C 0.0845 0.78389 0.29487 0.0
C2176 C 0.09351 0.79782 0.28618 0.0
C2177 C 0.1173 0.83304 0.25424 0.0
C2178 C 0.10949 0.82182 0.26624 0.0
H2179 H 0.05734 0.77013 0.32112 0.0
H2180 H 0.07377 0.794 0.30883 0.0
H2181 H 0.11412 0.79676 0.28876 0.0
H2182 H 0.15277 0.86089 0.24688 0.0
H2183 H 0.13933 0.84489 0.26813 0.0
C2184 C 0.26215 0.32694 0.33724 0.0
C2185 C 0.25434 0.32337 0.35113 0.0
C2186 C 0.25421 0.32256 0.32189 0.0
C2187 C 0.21537 0.29689 0.30041 0.0
H2188 H 0.23354 0.32296 0.26592 0.0
C2189 C 0.18482 0.29465 0.23799 0.0
C2190 C 0.19149 0.29229 0.22465 0.0
C2191 C 0.19188 0.29726 0.25364 0.0
C2192 C 0.2284 0.31557 0.27546 0.0
H2193 H 0.23213 0.31269 0.35991 0.0
H2194 H 0.21825 0.30581 0.33321 0.0
H2195 H 0.247 0.3305 0.29287 0.0
H2196 H 0.2106 0.29078 0.21704 0.0
H2197 H 0.2232 0.29587 0.24446 0.0
H2198 H 0.19641 0.28242 0.28287 0.0
C2199 C 0.23048 0.31143 0.33403 0.0
C2200 C 0.23613 0.31979 0.2909 0.0
C2201 C 0.23844 0.31549 0.34938 0.0
C2202 C 0.2052 0.29241 0.22719 0.0
C2203 C 0.21242 0.29539 0.24279 0.0
C2204 C 0.20749 0.29289 0.28502 0.0
C2205 C 0.23825 0.31484 0.32003 0.0
C2206 C 0.22981 0.31045 0.3036 0.0
C2207 C 0.20586 0.29794 0.2561 0.0
C2208 C 0.21402 0.30213 0.27242 0.0
H2209 H 0.27442 0.33284 0.33822 0.0
H2210 H 0.26065 0.32508 0.31149 0.0
H2211 H 0.2102 0.28922 0.30971 0.0
H2212 H 0.17427 0.29465 0.23626 0.0
H2213 H 0.18669 0.29929 0.26377 0.0
C2214 C 0.26747 0.3721 0.42013 0.0
C2215 C 0.26786 0.35819 0.41827 0.0
C2216 C 0.25986 0.3745 0.43242 0.0
C2217 C 0.24872 0.36191 0.47241 0.0
H2218 H 0.22332 0.38029 0.4679 0.0
C2219 C 0.21215 0.36156 0.52211 0.0
C2220 C 0.21114 0.37495 0.52559 0.0
C2221 C 0.21918 0.36023 0.50875 0.0
C2222 C 0.23055 0.37533 0.46938 0.0
H2223 H 0.25989 0.33558 0.4273 0.0
H2224 H 0.24653 0.33967 0.44841 0.0
H2225 H 0.23478 0.37636 0.4444 0.0
H2226 H 0.21669 0.39747 0.51774 0.0
H2227 H 0.22929 0.39528 0.49449 0.0
H2228 H 0.24463 0.3609 0.4973 0.0
C2229 C 0.25231 0.34884 0.44061 0.0
C2230 C 0.23706 0.37305 0.45592 0.0
C2231 C 0.25987 0.34645 0.42838 0.0
C2232 C 0.21741 0.38706 0.51545 0.0
C2233 C 0.22447 0.38573 0.50204 0.0
C2234 C 0.24227 0.36422 0.48581 0.0
C2235 C 0.25258 0.36305 0.44306 0.0
C2236 C 0.24603 0.3661 0.45727 0.0
C2237 C 0.22544 0.3723 0.49857 0.0
C2238 C 0.23294 0.37075 0.48442 0.0
H2239 H 0.27353 0.38138 0.41253 0.0
H2240 H 0.26027 0.38558 0.43404 0.0
H2241 H 0.25589 0.35689 0.47392 0.0
H2242 H 0.20757 0.35209 0.52978 0.0
H2243 H 0.21957 0.34965 0.50631 0.0
C2244 C 0.65308 0.93109 0.43172 0.0
C2245 C 0.643 0.93009 0.41893 0.0
C2246 C 0.65029 0.91786 0.43927 0.0
C2247 C 0.61963 0.88001 0.4481 0.0
H2248 H 0.65241 0.87256 0.46002 0.0
C2249 C 0.61813 0.84239 0.49891 0.0
C2250 C 0.62426 0.83265 0.49655 0.0
C2251 C 0.61921 0.85258 0.48752 0.0
C2252 C 0.64308 0.87436 0.45661 0.0
H2253 H 0.62202 0.91438 0.40405 0.0
H2254 H 0.61705 0.89123 0.41744 0.0
H2255 H 0.6569 0.89356 0.4433 0.0
H2256 H 0.63583 0.82561 0.48 0.0
H2257 H 0.63794 0.84364 0.46023 0.0
H2258 H 0.6059 0.86099 0.4617 0.0
C2259 C 0.62716 0.90229 0.42153 0.0
C2260 C 0.6457 0.88646 0.44717 0.0
C2261 C 0.63004 0.91553 0.41384 0.0
C2262 C 0.63122 0.83313 0.48234 0.0
C2263 C 0.63239 0.84342 0.47099 0.0
C2264 C 0.61705 0.86797 0.45767 0.0
C2265 C 0.63726 0.90335 0.43433 0.0
C2266 C 0.63406 0.88957 0.44303 0.0
C2267 C 0.62654 0.85336 0.47355 0.0
C2268 C 0.62881 0.86517 0.46221 0.0
H2269 H 0.66304 0.94212 0.43614 0.0
H2270 H 0.65814 0.91909 0.44929 0.0
H2271 H 0.61048 0.8822 0.44517 0.0
H2272 H 0.61292 0.84253 0.50983 0.0
H2273 H 0.6148 0.86027 0.48995 0.0
C2274 C 0.09083 0.72958 0.36763 0.0
C2275 C 0.0764 0.72793 0.365 0.0
C2276 C 0.09842 0.73362 0.38317 0.0
C2277 C 0.10055 0.75355 0.42241 0.0
H2278 H 0.12121 0.73275 0.43875 0.0
C2279 C 0.12515 0.76494 0.48877 0.0
C2280 C 0.13901 0.76553 0.49224 0.0
C2281 C 0.11771 0.76017 0.47318 0.0
C2282 C 0.11568 0.73884 0.4343 0.0
H2283 H 0.05853 0.72899 0.37677 0.0
H2284 H 0.07182 0.73611 0.40386 0.0
H2285 H 0.10768 0.72448 0.41171 0.0
H2286 H 0.15595 0.7616 0.48213 0.0
H2287 H 0.14309 0.75354 0.45472 0.0
H2288 H 0.10869 0.76808 0.44478 0.0
C2289 C 0.07728 0.73435 0.39385 0.0
C2290 C 0.10789 0.73405 0.41883 0.0
C2291 C 0.06963 0.73017 0.37834 0.0
C2292 C 0.14524 0.76118 0.4798 0.0
C2293 C 0.13784 0.75651 0.46413 0.0
C2294 C 0.10843 0.75842 0.4378 0.0
C2295 C 0.0918 0.73623 0.39641 0.0
C2296 C 0.10016 0.7413 0.41277 0.0
C2297 C 0.12398 0.75597 0.46063 0.0
C2298 C 0.11601 0.75105 0.44401 0.0
H2299 H 0.09637 0.7279 0.35766 0.0
H2300 H 0.10964 0.73509 0.38476 0.0
H2301 H 0.09493 0.75955 0.41796 0.0
H2302 H 0.11991 0.7679 0.49819 0.0
H2303 H 0.1069 0.75957 0.47106 0.0
C2304 C 0.32953 0.04807 0.71389 0.0
C2305 C 0.32298 0.04826 0.69867 0.0
C2306 C 0.32587 0.05318 0.728 0.0
C2307 C 0.29746 0.06167 0.74417 0.0
H2308 H 0.32992 0.0866 0.77802 0.0
C2309 C 0.29133 0.096 0.79914 0.0
C2310 C 0.29803 0.09572 0.81423 0.0
C2311 C 0.29367 0.08952 0.785 0.0
C2312 C 0.32069 0.07951 0.76875 0.0
H2313 H 0.30731 0.05389 0.68645 0.0
H2314 H 0.30117 0.06302 0.71101 0.0
H2315 H 0.33535 0.07657 0.75353 0.0
H2316 H 0.31179 0.08771 0.82635 0.0
H2317 H 0.31593 0.07656 0.80175 0.0
H2318 H 0.28285 0.06485 0.75941 0.0
C2319 C 0.30894 0.05868 0.71206 0.0
C2320 C 0.3238 0.07373 0.75472 0.0
C2321 C 0.31254 0.05351 0.69795 0.0
C2322 C 0.30676 0.08846 0.81489 0.0
C2323 C 0.30913 0.08205 0.8008 0.0
C2324 C 0.29436 0.06753 0.7582 0.0
C2325 C 0.31564 0.05867 0.72727 0.0
C2326 C 0.31222 0.0647 0.74225 0.0
C2327 C 0.30276 0.08266 0.78567 0.0
C2328 C 0.30594 0.07647 0.77067 0.0
H2329 H 0.33753 0.04402 0.71492 0.0
H2330 H 0.33105 0.05276 0.73952 0.0
H2331 H 0.28823 0.05459 0.73491 0.0
H2332 H 0.28464 0.10161 0.7982 0.0
H2333 H 0.2887 0.09027 0.7735 0.0
C2334 C 0.92583 0.24657 0.75685 0.0
C2335 C 0.94036 0.24983 0.75367 0.0
C2336 C 0.91665 0.23375 0.76504 0.0
C2337 C 0.91273 0.19776 0.781 0.0
H2338 H 0.89301 0.20809 0.81389 0.0
C2339 C 0.88956 0.16325 0.83687 0.0
C2340 C 0.87562 0.16108 0.8412 0.0
C2341 C 0.89656 0.17238 0.82437 0.0
C2342 C 0.89828 0.20493 0.80464 0.0
H2343 H 0.95641 0.24178 0.75558 0.0
H2344 H 0.94059 0.21958 0.77041 0.0
H2345 H 0.90652 0.22678 0.79489 0.0
H2346 H 0.8576 0.16588 0.83513 0.0
H2347 H 0.86988 0.18192 0.81354 0.0
H2348 H 0.90477 0.176 0.79133 0.0
C2349 C 0.93612 0.22675 0.76636 0.0
C2350 C 0.90598 0.21562 0.79367 0.0
C2351 C 0.94521 0.23948 0.7579 0.0
C2352 C 0.86854 0.16769 0.83237 0.0
C2353 C 0.87553 0.17681 0.81997 0.0
C2354 C 0.90508 0.18705 0.79212 0.0
C2355 C 0.92194 0.22406 0.77051 0.0
C2356 C 0.91328 0.21219 0.78167 0.0
C2357 C 0.88974 0.17951 0.81604 0.0
C2358 C 0.89775 0.19055 0.80402 0.0
H2359 H 0.92165 0.25412 0.75334 0.0
H2360 H 0.90558 0.23172 0.76754 0.0
H2361 H 0.91815 0.1947 0.77185 0.0
H2362 H 0.8953 0.15833 0.84348 0.0
H2363 H 0.90756 0.17436 0.82165 0.0
C2364 C 0.76371 0.69711 0.71891 0.0
C2365 C 0.75206 0.68173 0.71402 0.0
C2366 C 0.771 0.70116 0.7346 0.0
C2367 C 0.76671 0.68657 0.77543 0.0
H2368 H 0.80952 0.7176 0.78329 0.0
C2369 C 0.80302 0.69441 0.83423 0.0
C2370 C 0.8105 0.70948 0.84253 0.0
C2371 C 0.79634 0.69179 0.81845 0.0
C2372 C 0.79754 0.70899 0.78122 0.0
H2373 H 0.73915 0.65845 0.72159 0.0
H2374 H 0.75225 0.66527 0.74861 0.0
H2375 H 0.79691 0.71127 0.75586 0.0
H2376 H 0.81719 0.7337 0.84034 0.0
H2377 H 0.806 0.72911 0.81242 0.0
H2378 H 0.76761 0.68389 0.80074 0.0
C2379 C 0.75544 0.67441 0.74062 0.0
C2380 C 0.79026 0.7054 0.76555 0.0
C2381 C 0.74798 0.67044 0.72505 0.0
C2382 C 0.81167 0.72197 0.83433 0.0
C2383 C 0.8052 0.71937 0.81838 0.0
C2384 C 0.77406 0.68995 0.79099 0.0
C2385 C 0.76698 0.68986 0.74568 0.0
C2386 C 0.77474 0.69406 0.76242 0.0
C2387 C 0.79726 0.70421 0.81044 0.0
C2388 C 0.78953 0.70113 0.79401 0.0
H2389 H 0.76704 0.70609 0.71069 0.0
H2390 H 0.77963 0.71322 0.73807 0.0
H2391 H 0.75469 0.6781 0.77365 0.0
H2392 H 0.80226 0.68456 0.83992 0.0
H2393 H 0.79046 0.68003 0.81246 0.0
C2394 C 0.75406 0.65774 0.64555 0.0
C2395 C 0.74031 0.64501 0.64897 0.0
C2396 C 0.7627 0.65573 0.63433 0.0
C2397 C 0.76568 0.62546 0.60844 0.0
H2398 H 0.78374 0.65905 0.58077 0.0
C2399 C 0.78192 0.61977 0.54363 0.0
C2400 C 0.79653 0.63127 0.5404 0.0
C2401 C 0.77631 0.62093 0.55825 0.0
C2402 C 0.77887 0.64964 0.5885 0.0
H2403 H 0.72507 0.62008 0.64399 0.0
H2404 H 0.7397 0.61659 0.62384 0.0
H2405 H 0.77196 0.66209 0.60412 0.0
H2406 H 0.81691 0.65262 0.55049 0.0
H2407 H 0.80679 0.65493 0.5756 0.0
H2408 H 0.77198 0.61276 0.592 0.0
C2409 C 0.74415 0.6281 0.63008 0.0
C2410 C 0.77221 0.6514 0.602 0.0
C2411 C 0.7357 0.63008 0.6416 0.0
C2412 C 0.80546 0.64377 0.5523 0.0
C2413 C 0.79975 0.64505 0.56676 0.0
C2414 C 0.77211 0.6236 0.59471 0.0
C2415 C 0.75756 0.64099 0.62595 0.0
C2416 C 0.76547 0.63933 0.61216 0.0
C2417 C 0.7851 0.6337 0.56981 0.0
C2418 C 0.77872 0.63568 0.58463 0.0
H2419 H 0.75801 0.66933 0.65131 0.0
H2420 H 0.77321 0.66584 0.63192 0.0
H2421 H 0.76084 0.616 0.61607 0.0
H2422 H 0.77464 0.61007 0.53472 0.0
H2423 H 0.7649 0.61211 0.56029 0.0
C2424 C 0.37467 0.08295 0.64252 0.0
C2425 C 0.35991 0.07147 0.64514 0.0
C2426 C 0.37708 0.09554 0.63389 0.0
C2427 C 0.35624 0.10722 0.60517 0.0
H2428 H 0.39266 0.14797 0.61346 0.0
C2429 C 0.36347 0.16068 0.57479 0.0
C2430 C 0.37649 0.16829 0.56648 0.0
C2431 C 0.36198 0.14972 0.58537 0.0
C2432 C 0.38247 0.13661 0.61102 0.0
H2433 H 0.33623 0.06473 0.64189 0.0
H2434 H 0.34037 0.08686 0.62749 0.0
H2435 H 0.38882 0.12737 0.63058 0.0
H2436 H 0.39838 0.17058 0.56328 0.0
H2437 H 0.39591 0.15176 0.58223 0.0
H2438 H 0.34977 0.11666 0.58588 0.0
C2439 C 0.35009 0.08587 0.63134 0.0
C2440 C 0.38028 0.12477 0.62075 0.0
C2441 C 0.34768 0.07316 0.63967 0.0
C2442 C 0.38826 0.1651 0.56957 0.0
C2443 C 0.38686 0.15429 0.58037 0.0
C2444 C 0.35833 0.11911 0.59566 0.0
C2445 C 0.36478 0.09706 0.62799 0.0
C2446 C 0.36713 0.10988 0.61793 0.0
C2447 C 0.37358 0.14631 0.58812 0.0
C2448 C 0.37146 0.13389 0.59847 0.0
H2449 H 0.3843 0.08189 0.6466 0.0
H2450 H 0.38854 0.10378 0.63144 0.0
H2451 H 0.34617 0.09584 0.60229 0.0
H2452 H 0.35434 0.16311 0.57309 0.0
H2453 H 0.35171 0.14385 0.59138 0.0
C2454 C 0.91408 0.27263 0.69463 0.0
C2455 C 0.92982 0.27894 0.69764 0.0
C2456 C 0.90725 0.2696 0.67883 0.0
C2457 C 0.91366 0.26316 0.63651 0.0
H2458 H 0.8803 0.27017 0.62634 0.0
C2459 C 0.88926 0.25757 0.57105 0.0
C2460 C 0.87338 0.24893 0.56791 0.0
C2461 C 0.89609 0.26204 0.5869 0.0
C2462 C 0.88953 0.26805 0.62904 0.0
H2463 H 0.95075 0.28729 0.68632 0.0
H2464 H 0.93889 0.28228 0.65879 0.0
H2465 H 0.89253 0.27659 0.65393 0.0
H2466 H 0.85223 0.23859 0.57899 0.0
H2467 H 0.86421 0.24657 0.60676 0.0
H2468 H 0.91071 0.25471 0.61161 0.0
C2469 C 0.93177 0.27937 0.66865 0.0
C2470 C 0.89653 0.2717 0.64484 0.0
C2471 C 0.93859 0.28232 0.68445 0.0
C2472 C 0.86448 0.24535 0.581 0.0
C2473 C 0.87134 0.24989 0.5969 0.0
C2474 C 0.90673 0.25961 0.62072 0.0
C2475 C 0.916 0.27288 0.66563 0.0
C2476 C 0.90867 0.26927 0.64878 0.0
C2477 C 0.88723 0.25806 0.6 0.0
C2478 C 0.89459 0.262 0.6168 0.0
H2479 H 0.90694 0.2698 0.70448 0.0
H2480 H 0.89506 0.26438 0.67696 0.0
H2481 H 0.92276 0.26083 0.63915 0.0
H2482 H 0.89644 0.26083 0.56123 0.0
H2483 H 0.90836 0.2686 0.5889 0.0
C2484 C 0.34849 0.29806 0.68472 0.0
C2485 C 0.34882 0.29248 0.6998 0.0
C2486 C 0.35364 0.29345 0.67147 0.0
C2487 C 0.3569 0.26133 0.65434 0.0
H2488 H 0.38827 0.29118 0.63015 0.0
C2489 C 0.37892 0.24022 0.60244 0.0
C2490 C 0.38259 0.24863 0.58884 0.0
C2491 C 0.37625 0.2463 0.6166 0.0
C2492 C 0.37933 0.28266 0.63659 0.0
H2493 H 0.35468 0.27764 0.71275 0.0
H2494 H 0.36321 0.26927 0.68946 0.0
H2495 H 0.38022 0.30046 0.65321 0.0
H2496 H 0.38643 0.26991 0.57921 0.0
H2497 H 0.38114 0.2803 0.60359 0.0
H2498 H 0.35535 0.24353 0.6375 0.0
C2499 C 0.35918 0.27736 0.68801 0.0
C2500 C 0.3748 0.28801 0.64984 0.0
C2501 C 0.35436 0.28221 0.70133 0.0
C2502 C 0.38383 0.26333 0.58967 0.0
C2503 C 0.38084 0.26928 0.6037 0.0
C2504 C 0.36118 0.25598 0.64092 0.0
C2505 C 0.35886 0.28292 0.67298 0.0
C2506 C 0.3636 0.27738 0.65885 0.0
C2507 C 0.37679 0.26075 0.61731 0.0
C2508 C 0.37251 0.26655 0.63186 0.0
H2509 H 0.34432 0.30601 0.6832 0.0
H2510 H 0.35323 0.29782 0.65994 0.0
H2511 H 0.34811 0.25292 0.66104 0.0
H2512 H 0.37795 0.22885 0.60204 0.0
H2513 H 0.37358 0.23954 0.62691 0.0
C2514 C 0.7348 0.09404 0.63273 0.0
C2515 C 0.73439 0.07971 0.63083 0.0
C2516 C 0.7436 0.10607 0.62334 0.0
C2517 C 0.75993 0.11147 0.58434 0.0
H2518 H 0.78259 0.15537 0.60015 0.0
C2519 C 0.80126 0.1579 0.54631 0.0
C2520 C 0.80104 0.17188 0.54602 0.0
C2521 C 0.79321 0.14719 0.55715 0.0
C2522 C 0.77617 0.14316 0.59555 0.0
H2523 H 0.74348 0.06707 0.61816 0.0
H2524 H 0.75905 0.08808 0.60217 0.0
H2525 H 0.76898 0.13586 0.61879 0.0
H2526 H 0.79229 0.18565 0.55694 0.0
H2527 H 0.77803 0.16675 0.57591 0.0
H2528 H 0.76709 0.11868 0.56117 0.0
C2529 C 0.75231 0.08993 0.61062 0.0
C2530 C 0.76841 0.132 0.60621 0.0
C2531 C 0.74349 0.07792 0.61992 0.0
C2532 C 0.79259 0.17492 0.55684 0.0
C2533 C 0.78456 0.16419 0.56778 0.0
C2534 C 0.76769 0.12258 0.57374 0.0
C2535 C 0.75217 0.10399 0.61191 0.0
C2536 C 0.76032 0.11601 0.60074 0.0
C2537 C 0.78473 0.15018 0.56797 0.0
C2538 C 0.77601 0.13853 0.57924 0.0
H2539 H 0.72789 0.09578 0.64102 0.0
H2540 H 0.7432 0.11674 0.62458 0.0
H2541 H 0.75349 0.09928 0.57964 0.0
H2542 H 0.80752 0.15514 0.53799 0.0
H2543 H 0.7937 0.13657 0.55712 0.0
C2544 C 0.90408 0.6516 0.67708 0.0
C2545 C 0.91938 0.66336 0.68057 0.0
C2546 C 0.897 0.64822 0.66137 0.0
C2547 C 0.90546 0.65183 0.61893 0.0
H2548 H 0.86456 0.64423 0.61097 0.0
C2549 C 0.87866 0.64796 0.55496 0.0
C2550 C 0.86323 0.63686 0.551 0.0
C2551 C 0.8853 0.65066 0.57078 0.0
C2552 C 0.87591 0.6461 0.613 0.0
H2553 H 0.93914 0.68096 0.67022 0.0
H2554 H 0.92673 0.67511 0.64285 0.0
H2555 H 0.87653 0.65029 0.63862 0.0
H2556 H 0.84269 0.61979 0.56057 0.0
H2557 H 0.85438 0.62426 0.58819 0.0
H2558 H 0.90486 0.64762 0.59336 0.0
C2559 C 0.92028 0.66839 0.65226 0.0
C2560 C 0.88277 0.64961 0.62884 0.0
C2561 C 0.92736 0.6718 0.66799 0.0
C2562 C 0.85463 0.62834 0.56321 0.0
C2563 C 0.86129 0.63103 0.57906 0.0
C2564 C 0.89859 0.64828 0.60311 0.0
C2565 C 0.90505 0.65649 0.64876 0.0
C2566 C 0.89766 0.6526 0.63197 0.0
C2567 C 0.87669 0.64228 0.58304 0.0
C2568 C 0.88377 0.64547 0.59994 0.0
H2569 H 0.89758 0.64484 0.68646 0.0
H2570 H 0.88529 0.6389 0.65902 0.0
H2571 H 0.91684 0.65379 0.62097 0.0
H2572 H 0.88566 0.65458 0.5458 0.0
H2573 H 0.89715 0.65952 0.57345 0.0
C2574 C 0.93499 0.71051 0.75229 0.0
C2575 C 0.93365 0.69578 0.74965 0.0
C2576 C 0.92791 0.71352 0.76476 0.0
C2577 C 0.91577 0.70031 0.80409 0.0
H2578 H 0.89286 0.72152 0.80116 0.0
C2579 C 0.87974 0.70028 0.85406 0.0
C2580 C 0.87948 0.71398 0.85831 0.0
C2581 C 0.88677 0.69913 0.84063 0.0
C2582 C 0.89942 0.71578 0.80221 0.0
H2583 H 0.92314 0.67242 0.7574 0.0
H2584 H 0.91078 0.67763 0.77887 0.0
H2585 H 0.90377 0.71738 0.77725 0.0
H2586 H 0.88638 0.73725 0.85177 0.0
H2587 H 0.89899 0.73536 0.8284 0.0
H2588 H 0.91159 0.69872 0.82893 0.0
C2589 C 0.91746 0.68692 0.77152 0.0
C2590 C 0.90561 0.71338 0.78853 0.0
C2591 C 0.92446 0.68391 0.7591 0.0
C2592 C 0.88653 0.72659 0.84888 0.0
C2593 C 0.89359 0.72544 0.8354 0.0
C2594 C 0.90969 0.70277 0.81772 0.0
C2595 C 0.91949 0.70186 0.77479 0.0
C2596 C 0.91359 0.70534 0.7893 0.0
C2597 C 0.89379 0.71169 0.83115 0.0
C2598 C 0.9012 0.71026 0.81688 0.0
H2599 H 0.942 0.71989 0.7452 0.0
H2600 H 0.92963 0.72515 0.76704 0.0
H2601 H 0.9222 0.69441 0.80513 0.0
H2602 H 0.87456 0.69042 0.86117 0.0
H2603 H 0.88654 0.68829 0.83757 0.0
C2604 C 0.29363 0.25291 0.74007 0.0
C2605 C 0.30595 0.26737 0.74675 0.0
C2606 C 0.2903 0.23916 0.74699 0.0
C2607 C 0.30786 0.22257 0.77264 0.0
H2608 H 0.26755 0.19529 0.78504 0.0
C2609 C 0.2804 0.17783 0.82337 0.0
C2610 C 0.28753 0.16898 0.82162 0.0
C2611 C 0.28092 0.18751 0.81162 0.0
C2612 C 0.27883 0.20276 0.78155 0.0
H2613 H 0.32411 0.27869 0.76624 0.0
H2614 H 0.31858 0.25485 0.77791 0.0
H2615 H 0.27213 0.21698 0.76917 0.0
H2616 H 0.30013 0.16278 0.8057 0.0
H2617 H 0.30126 0.17993 0.78532 0.0
H2618 H 0.31475 0.2088 0.78542 0.0
C2619 C 0.3116 0.25409 0.76724 0.0
C2620 C 0.28141 0.21506 0.77237 0.0
C2621 C 0.31478 0.26778 0.7605 0.0
C2622 C 0.29477 0.16966 0.80757 0.0
C2623 C 0.29536 0.17943 0.79587 0.0
C2624 C 0.30526 0.21022 0.78165 0.0
C2625 C 0.29937 0.23965 0.76056 0.0
C2626 C 0.29605 0.22533 0.76822 0.0
C2627 C 0.28866 0.18865 0.7979 0.0
C2628 C 0.29081 0.2004 0.78655 0.0
H2629 H 0.28655 0.25222 0.72953 0.0
H2630 H 0.28077 0.22815 0.74165 0.0
H2631 H 0.31923 0.23025 0.76947 0.0
H2632 H 0.27493 0.17779 0.83413 0.0
H2633 H 0.27585 0.19465 0.81365 0.0
C2634 C 0.75924 0.05564 0.6933 0.0
C2635 C 0.74479 0.054 0.69088 0.0
C2636 C 0.76693 0.05957 0.70877 0.0
C2637 C 0.76108 0.06034 0.75226 0.0
H2638 H 0.80431 0.09005 0.75756 0.0
C2639 C 0.81079 0.1018 0.80654 0.0
C2640 C 0.80711 0.09122 0.81834 0.0
C2641 C 0.80366 0.09674 0.79081 0.0
C2642 C 0.79222 0.0818 0.75631 0.0
H2643 H 0.72711 0.05515 0.70296 0.0
H2644 H 0.74062 0.06222 0.72987 0.0
H2645 H 0.79068 0.08241 0.73066 0.0
H2646 H 0.79315 0.06694 0.82274 0.0
H2647 H 0.781 0.05804 0.79519 0.0
H2648 H 0.76253 0.0601 0.77796 0.0
C2649 C 0.74591 0.06023 0.71982 0.0
C2650 C 0.78443 0.07727 0.74085 0.0
C2651 C 0.73819 0.05626 0.70435 0.0
C2652 C 0.79638 0.07538 0.81392 0.0
C2653 C 0.78925 0.07031 0.79817 0.0
C2654 C 0.76886 0.06489 0.76772 0.0
C2655 C 0.7604 0.06199 0.72222 0.0
C2656 C 0.76875 0.06654 0.73864 0.0
C2657 C 0.79268 0.08096 0.78647 0.0
C2658 C 0.78452 0.07573 0.76995 0.0
H2659 H 0.76465 0.05391 0.68323 0.0
H2660 H 0.77797 0.06059 0.7102 0.0
H2661 H 0.74904 0.05191 0.75099 0.0
H2662 H 0.81913 0.11405 0.8095 0.0
H2663 H 0.80648 0.10528 0.78215 0.0
C2664 C 0.04266 0.32493 0.01983 0.0
C2665 C 0.04258 0.33886 0.0233 0.0
C2666 C 0.05021 0.32031 0.03065 0.0
C2667 C 0.06625 0.32671 0.07327 0.0
H2668 H 0.08922 0.30913 0.05554 0.0
C2669 C 0.10975 0.31791 0.11184 0.0
C2670 C 0.1106 0.30449 0.10775 0.0
C2671 C 0.10029 0.3213 0.10234 0.0
C2672 C 0.08268 0.3138 0.06069 0.0
H2673 H 0.05028 0.35882 0.04099 0.0
H2674 H 0.0637 0.35088 0.05981 0.0
H2675 H 0.07533 0.31692 0.0374 0.0
H2676 H 0.10182 0.28387 0.09074 0.0
H2677 H 0.08513 0.28966 0.07431 0.0
H2678 H 0.07385 0.32376 0.09661 0.0
C2679 C 0.05773 0.34341 0.04879 0.0
C2680 C 0.07472 0.31829 0.05028 0.0
C2681 C 0.05012 0.34802 0.03795 0.0
C2682 C 0.10135 0.29424 0.0943 0.0
C2683 C 0.09192 0.29766 0.08477 0.0
C2684 C 0.07427 0.32225 0.0837 0.0
C2685 C 0.05794 0.32954 0.04521 0.0
C2686 C 0.06639 0.32479 0.05642 0.0
C2687 C 0.0915 0.31138 0.0885 0.0
C2688 C 0.08257 0.31573 0.07753 0.0
H2689 H 0.03686 0.31752 0.00872 0.0
H2690 H 0.04989 0.30942 0.02763 0.0
H2691 H 0.05979 0.33149 0.07839 0.0
H2692 H 0.11663 0.32595 0.12224 0.0
H2693 H 0.1003 0.332 0.10551 0.0
C2694 C 0.6586 0.69009 0.09212 0.0
C2695 C 0.64273 0.68057 0.09083 0.0
C2696 C 0.66558 0.70593 0.09753 0.0
C2697 C 0.65758 0.73297 0.12144 0.0
H2698 H 0.69576 0.76483 0.108 0.0
C2699 C 0.68316 0.79803 0.14166 0.0
C2700 C 0.6984 0.80616 0.14827 0.0
C2701 C 0.67678 0.78308 0.13373 0.0
C2702 C 0.68514 0.75599 0.11191 0.0
H2703 H 0.6217 0.68042 0.09305 0.0
H2704 H 0.6338 0.70815 0.10185 0.0
H2705 H 0.68343 0.73821 0.09473 0.0
H2706 H 0.71897 0.80502 0.15129 0.0
H2707 H 0.70778 0.77886 0.13705 0.0
H2708 H 0.65918 0.75082 0.13839 0.0
C2709 C 0.64092 0.70329 0.09931 0.0
C2710 C 0.67808 0.74076 0.10434 0.0
C2711 C 0.63396 0.68741 0.09414 0.0
C2712 C 0.70722 0.79912 0.14631 0.0
C2713 C 0.70084 0.78416 0.13817 0.0
C2714 C 0.66453 0.7482 0.12882 0.0
C2715 C 0.65683 0.71265 0.10157 0.0
C2716 C 0.6642 0.72904 0.10904 0.0
C2717 C 0.68551 0.77597 0.132 0.0
C2718 C 0.67837 0.75984 0.12415 0.0
H2719 H 0.66569 0.68516 0.08971 0.0
H2720 H 0.67784 0.71271 0.09924 0.0
H2721 H 0.64713 0.72422 0.12571 0.0
H2722 H 0.67614 0.80326 0.14245 0.0
H2723 H 0.66499 0.77711 0.12883 0.0
C2724 C 0.32505 0.96834 0.03895 0.0
C2725 C 0.32387 0.9607 0.02375 0.0
C2726 C 0.31258 0.96293 0.04793 0.0
C2727 C 0.27623 0.92852 0.05363 0.0
H2728 H 0.26687 0.95892 0.07228 0.0
C2729 C 0.22277 0.9098 0.08687 0.0
C2730 C 0.2245 0.91892 0.10121 0.0
C2731 C 0.23425 0.91501 0.07651 0.0
C2732 C 0.26941 0.9503 0.06731 0.0
H2733 H 0.30879 0.94111 0.00628 0.0
H2734 H 0.28699 0.93154 0.02213 0.0
H2735 H 0.28845 0.96744 0.05636 0.0
H2736 H 0.23951 0.94067 0.11591 0.0
H2737 H 0.25967 0.94969 0.09799 0.0
H2738 H 0.25744 0.91142 0.06486 0.0
C2739 C 0.29759 0.94175 0.02702 0.0
C2740 C 0.28175 0.95518 0.05817 0.0
C2741 C 0.31006 0.94726 0.01794 0.0
C2742 C 0.23779 0.9335 0.10481 0.0
C2743 C 0.24933 0.93866 0.09453 0.0
C2744 C 0.26395 0.92364 0.06289 0.0
C2745 C 0.29868 0.94968 0.04199 0.0
C2746 C 0.28534 0.94436 0.05133 0.0
C2747 C 0.24778 0.92939 0.08034 0.0
C2748 C 0.26044 0.93449 0.06992 0.0
H2749 H 0.33554 0.97872 0.0438 0.0
H2750 H 0.31379 0.96913 0.05955 0.0
H2751 H 0.27883 0.91996 0.04861 0.0
H2752 H 0.21255 0.89858 0.08372 0.0
H2753 H 0.23256 0.90772 0.06554 0.0
C2754 C 0.37304 0.05174 0.99931 0.0
C2755 C 0.36658 0.03757 0.00638 0.0
C2756 C 0.36536 0.05995 0.99804 0.0
C2757 C 0.32622 0.05199 0.99503 0.0
H2758 H 0.3463 0.09652 0.99156 0.0
C2759 C 0.31393 0.1027 0.97114 0.0
C2760 C 0.30541 0.0945 0.95645 0.0
C2761 C 0.3197 0.09593 0.98148 0.0
C2762 C 0.34041 0.08411 0.99278 0.0
H2763 H 0.34761 0.02165 0.01897 0.0
H2764 H 0.33438 0.03618 0.01707 0.0
H2765 H 0.36057 0.08539 0.00329 0.0
H2766 H 0.2958 0.0726 0.94135 0.0
H2767 H 0.30592 0.06087 0.95919 0.0
H2768 H 0.30609 0.05069 0.98443 0.0
C2769 C 0.34518 0.0407 0.01208 0.0
C2770 C 0.34866 0.0777 0.99932 0.0
C2771 C 0.35281 0.03241 0.01324 0.0
C2772 C 0.30214 0.07913 0.95269 0.0
C2773 C 0.30795 0.0724 0.96297 0.0
C2774 C 0.31795 0.05841 0.98861 0.0
C2775 C 0.3511 0.05427 0.00394 0.0
C2776 C 0.34181 0.06148 -3e-05 0.0
C2777 C 0.31711 0.08085 0.97729 0.0
C2778 C 0.32507 0.07446 0.98685 0.0
H2779 H 0.38364 0.05607 0.99392 0.0
H2780 H 0.37022 0.07025 0.99155 0.0
H2781 H 0.32055 0.03944 0.99523 0.0
H2782 H 0.31647 0.11451 0.97443 0.0
H2783 H 0.3265 0.10266 0.99255 0.0
C2784 C 0.98264 0.30297 0.99048 0.0
C2785 C 0.97685 0.31269 0.98669 0.0
C2786 C 0.97351 0.28672 0.98746 0.0
C2787 C 0.93342 0.25484 0.97842 0.0
H2788 H 0.9505 0.23285 0.95624 0.0
C2789 C 0.89578 0.19028 0.95551 0.0
C2790 C 0.8974 0.18606 0.93969 0.0
C2791 C 0.90676 0.20452 0.96374 0.0
C2792 C 0.94556 0.23883 0.96241 0.0
H2793 H 0.95674 0.31288 0.97737 0.0
H2794 H 0.94101 0.28477 0.97204 0.0
H2795 H 0.96685 0.26029 0.96638 0.0
H2796 H 0.91198 0.19297 0.9203 0.0
H2797 H 0.93105 0.21817 0.93447 0.0
H2798 H 0.91203 0.23379 0.97372 0.0
C2799 C 0.95252 0.28961 0.97745 0.0
C2800 C 0.95496 0.2545 0.96841 0.0
C2801 C 0.96161 0.30578 0.98042 0.0
C2802 C 0.91054 0.19598 0.93251 0.0
C2803 C 0.92146 0.21037 0.94068 0.0
C2804 C 0.92403 0.23924 0.97238 0.0
C2805 C 0.9584 0.27988 0.98069 0.0
C2806 C 0.94892 0.26277 0.97616 0.0
C2807 C 0.9195 0.21498 0.95624 0.0
C2808 C 0.92991 0.2311 0.96404 0.0
H2809 H 0.99433 0.3079 0.99533 0.0
H2810 H 0.97832 0.27952 0.99025 0.0
H2811 H 0.92844 0.26081 0.98453 0.0
H2812 H 0.88583 0.18267 0.96138 0.0
H2813 H 0.90505 0.20749 0.97584 0.0
C2814 C 0.69325 0.64362 0.05771 0.0
C2815 C 0.68085 0.64557 0.05373 0.0
C2816 C 0.70582 0.65004 0.04882 0.0
C2817 C 0.72585 0.68087 0.02215 0.0
H2818 H 0.74402 0.65633 0.00966 0.0
C2819 C 0.78309 0.70644 0.99381 0.0
C2820 C 0.78362 0.69716 0.98079 0.0
C2821 C 0.77052 0.70051 0.00277 0.0
C2822 C 0.73903 0.6633 0.01301 0.0
H2823 H 0.67186 0.65571 0.03721 0.0
H2824 H 0.69382 0.66687 0.02166 0.0
H2825 H 0.72191 0.64499 0.02494 0.0
H2826 H 0.77107 0.67469 0.96647 0.0
H2827 H 0.7493 0.66438 0.98215 0.0
H2828 H 0.74291 0.69913 0.01003 0.0
C2829 C 0.69385 0.66049 0.03176 0.0
C2830 C 0.72647 0.65686 0.02188 0.0
C2831 C 0.68124 0.65399 0.04059 0.0
C2832 C 0.77119 0.682 0.9767 0.0
C2833 C 0.75871 0.67609 0.98566 0.0
C2834 C 0.73849 0.68736 0.01335 0.0
C2835 C 0.70629 0.65861 0.03581 0.0
C2836 C 0.7197 0.66555 0.02649 0.0
C2837 C 0.75829 0.68521 0.99887 0.0
C2838 C 0.74515 0.67859 0.00861 0.0
H2839 H 0.69332 0.63722 0.06777 0.0
H2840 H 0.7153 0.64852 0.05231 0.0
H2841 H 0.72096 0.68789 0.02569 0.0
H2842 H 0.79252 0.71813 0.99729 0.0
H2843 H 0.77053 0.70777 0.01297 0.0
C2844 C 0.95566 0.64934 0.00746 0.0
C2845 C 0.96043 0.65506 0.02381 0.0
C2846 C 0.94952 0.65602 0.99747 0.0
C2847 C 0.9466 0.69163 0.9949 0.0
H2848 H 0.9117 0.66459 0.96437 0.0
C2849 C 0.90628 0.71041 0.96667 0.0
C2850 C 0.90059 0.70535 0.95035 0.0
C2851 C 0.91522 0.70531 0.97441 0.0
C2852 C 0.92158 0.67232 0.97266 0.0
H2853 H 0.96239 0.67224 0.04251 0.0
H2854 H 0.95138 0.6836 0.02525 0.0
H2855 H 0.92388 0.6534 0.98029 0.0
H2856 H 0.90049 0.69153 0.92919 0.0
H2857 H 0.91594 0.68245 0.94282 0.0
H2858 H 0.94397 0.71048 0.98756 0.0
C2859 C 0.95268 0.67419 0.02 0.0
C2860 C 0.92858 0.66592 0.98179 0.0
C2861 C 0.9589 0.66758 0.02995 0.0
C2862 C 0.90448 0.69546 0.94183 0.0
C2863 C 0.91333 0.69027 0.94962 0.0
C2864 C 0.93953 0.69801 0.98584 0.0
C2865 C 0.94793 0.66853 0.00362 0.0
C2866 C 0.94106 0.67546 0.99318 0.0
C2867 C 0.9186 0.69495 0.96606 0.0
C2868 C 0.92685 0.68841 0.97476 0.0
H2869 H 0.95677 0.63976 0.00233 0.0
H2870 H 0.94615 0.65148 0.98487 0.0
H2871 H 0.95638 0.69938 0.0033 0.0
H2872 H 0.9033 0.71779 0.9737 0.0
H2873 H 0.91895 0.70898 0.98714 0.0
C2874 C 0.35275 0.3225 0.97099 0.0
C2875 C 0.3651 0.33389 0.96368 0.0
C2876 C 0.34544 0.3068 0.96485 0.0
C2877 C 0.33728 0.28253 0.92714 0.0
H2878 H 0.32855 0.24887 0.95381 0.0
C2879 C 0.3165 0.21995 0.8996 0.0
C2880 C 0.30685 0.20729 0.90797 0.0
C2881 C 0.32254 0.23528 0.90643 0.0
C2882 C 0.33062 0.25808 0.94621 0.0
H2883 H 0.37967 0.33762 0.94444 0.0
H2884 H 0.36675 0.31025 0.93365 0.0
H2885 H 0.34158 0.27577 0.9662 0.0
H2886 H 0.29557 0.20093 0.92992 0.0
H2887 H 0.3055 0.22766 0.94146 0.0
H2888 H 0.32609 0.26501 0.90721 0.0
C2889 C 0.36276 0.31352 0.94412 0.0
C2890 C 0.33818 0.27349 0.95332 0.0
C2891 C 0.37022 0.32916 0.95039 0.0
C2892 C 0.30284 0.21038 0.92303 0.0
C2893 C 0.30876 0.22573 0.9298 0.0
C2894 C 0.32953 0.26714 0.92006 0.0
C2895 C 0.35018 0.30224 0.95115 0.0
C2896 C 0.34175 0.28586 0.94381 0.0
C2897 C 0.31894 0.23838 0.92173 0.0
C2898 C 0.32627 0.25471 0.92946 0.0
H2899 H 0.34854 0.32575 0.98127 0.0
H2900 H 0.33574 0.29831 0.97047 0.0
H2901 H 0.33968 0.29187 0.91958 0.0
H2902 H 0.31966 0.21802 0.88787 0.0
H2903 H 0.33044 0.24466 0.89989 0.0
C2904 C 0.6834 0.04378 0.02956 0.0
C2905 C 0.68139 0.05428 0.03964 0.0
C2906 C 0.69609 0.04909 0.02097 0.0
C2907 C 0.72437 0.08236 0.00286 0.0
H2908 H 0.74728 0.06107 0.0052 0.0
C2909 C 0.77646 0.10073 0.96743 0.0
C2910 C 0.77804 0.08868 0.96001 0.0
C2911 C 0.76592 0.09755 0.97866 0.0
C2912 C 0.74093 0.06704 0.00427 0.0
H2913 H 0.69093 0.07866 0.04828 0.0
H2914 H 0.71308 0.08803 0.03279 0.0
H2915 H 0.72621 0.05376 0.02168 0.0
H2916 H 0.77012 0.06396 0.95861 0.0
H2917 H 0.75132 0.05822 0.97788 0.0
H2918 H 0.73857 0.09519 0.98496 0.0
C2919 C 0.70482 0.07566 0.03178 0.0
C2920 C 0.72893 0.06291 0.01378 0.0
C2921 C 0.69219 0.0703 0.04062 0.0
C2922 C 0.76915 0.07344 0.96427 0.0
C2923 C 0.75845 0.07021 0.97536 0.0
C2924 C 0.73626 0.08638 0.99318 0.0
C2925 C 0.70696 0.06504 0.02207 0.0
C2926 C 0.72043 0.07039 0.013 0.0
C2927 C 0.75658 0.08221 0.98257 0.0
C2928 C 0.74458 0.07863 0.99362 0.0
H2929 H 0.67533 0.03135 0.02853 0.0
H2930 H 0.69738 0.04071 0.01339 0.0
H2931 H 0.71789 0.0882 0.00196 0.0
H2932 H 0.78338 0.11263 0.9645 0.0
H2933 H 0.76505 0.10713 0.98423 0.0
C2934 C 0.66152 0.98515 0.06262 0.0
C2935 C 0.64564 0.97733 0.06003 0.0
C2936 C 0.66904 0.97677 0.06359 0.0
C2937 C 0.68402 0.95743 0.06265 0.0
H2938 H 0.66317 0.92031 0.08513 0.0
C2939 C 0.694 0.90857 0.09437 0.0
C2940 C 0.70537 0.91821 0.10683 0.0
C2941 C 0.68785 0.91484 0.08389 0.0
C2942 C 0.66906 0.93049 0.07858 0.0
H2943 H 0.62524 0.95466 0.05503 0.0
H2944 H 0.63838 0.93998 0.05581 0.0
H2945 H 0.64955 0.93279 0.07554 0.0
H2946 H 0.72007 0.9422 0.11707 0.0
H2947 H 0.70958 0.95317 0.09841 0.0
H2948 H 0.70391 0.95564 0.06711 0.0
C2949 C 0.64504 0.95258 0.05786 0.0
C2950 C 0.66123 0.93765 0.07296 0.0
C2951 C 0.63749 0.96098 0.05729 0.0
C2952 C 0.71141 0.93444 0.10758 0.0
C2953 C 0.70539 0.94074 0.09692 0.0
C2954 C 0.69194 0.95043 0.06862 0.0
C2955 C 0.66088 0.96034 0.06164 0.0
C2956 C 0.66867 0.95145 0.06526 0.0
C2957 C 0.69315 0.9309 0.08543 0.0
C2958 C 0.68457 0.93708 0.0769 0.0
H2959 H 0.66813 0.99776 0.06483 0.0
H2960 H 0.68118 0.98324 0.06676 0.0
H2961 H 0.69007 0.96779 0.05642 0.0
H2962 H 0.68938 0.89606 0.09317 0.0
H2963 H 0.6785 0.90706 0.07501 0.0
C2964 C 0.02216 0.70328 0.08029 0.0
C2965 C 0.02823 0.69338 0.08073 0.0
C2966 C 0.03128 0.71921 0.08526 0.0
C2967 C 0.07057 0.7517 0.09242 0.0
H2968 H 0.05576 0.76778 0.12592 0.0
C2969 C 0.09764 0.80534 0.14534 0.0
C2970 C 0.10603 0.8181 0.13653 0.0
C2971 C 0.08703 0.79078 0.13733 0.0
C2972 C 0.05999 0.76345 0.11652 0.0
H2973 H 0.04881 0.6926 0.08591 0.0
H2974 H 0.06476 0.7205 0.09429 0.0
H2975 H 0.03961 0.74108 0.11319 0.0
H2976 H 0.10988 0.82577 0.11251 0.0
H2977 H 0.09144 0.80021 0.09848 0.0
H2978 H 0.09102 0.77402 0.09589 0.0
C2979 C 0.05292 0.71588 0.09022 0.0
C2980 C 0.05073 0.74825 0.10917 0.0
C2981 C 0.04377 0.6999 0.08548 0.0
C2982 C 0.10342 0.81614 0.11958 0.0
C2983 C 0.09299 0.80152 0.11156 0.0
C2984 C 0.07974 0.76699 0.0996 0.0
C2985 C 0.04668 0.72561 0.0905 0.0
C2986 C 0.05602 0.74216 0.09723 0.0
C2987 C 0.08482 0.78867 0.12036 0.0
C2988 C 0.07462 0.77292 0.11189 0.0
H2989 H 0.01023 0.69864 0.07672 0.0
H2990 H 0.02623 0.72651 0.08525 0.0
H2991 H 0.07489 0.74729 0.08321 0.0
H2992 H 0.09948 0.80658 0.15841 0.0
H2993 H 0.08096 0.78102 0.14439 0.0
C2994 C 0.32724 0.3544 0.02428 0.0
C2995 C 0.3239 0.35172 0.00741 0.0
C2996 C 0.31563 0.34795 0.03445 0.0
C2997 C 0.2753 0.31739 0.03525 0.0
H2998 H 0.27764 0.34361 0.07285 0.0
C2999 C 0.22456 0.3034 0.07241 0.0
C3000 C 0.22767 0.30664 0.08928 0.0
C3001 C 0.23637 0.3077 0.06255 0.0
C3002 C 0.27691 0.33606 0.06251 0.0
H3003 H 0.30575 0.34003 0.98797 0.0
H3004 H 0.28549 0.32904 0.00569 0.0
H3005 H 0.29816 0.35349 0.05544 0.0
H3006 H 0.2455 0.31612 0.10909 0.0
H3007 H 0.26609 0.32367 0.09189 0.0
H3008 H 0.25385 0.30007 0.04226 0.0
C3009 C 0.2971 0.33591 0.01109 0.0
C3010 C 0.28868 0.34172 0.05254 0.0
C3011 C 0.30871 0.3423 0.00092 0.0
C3012 C 0.24277 0.31377 0.09611 0.0
C3013 C 0.25456 0.31808 0.08627 0.0
C3014 C 0.26347 0.31175 0.04521 0.0
C3015 C 0.30041 0.33873 0.02797 0.0
C3016 C 0.28801 0.33247 0.03877 0.0
C3017 C 0.25151 0.31533 0.06938 0.0
C3018 C 0.26415 0.32104 0.05894 0.0
H3019 H 0.33884 0.36151 0.02967 0.0
H3020 H 0.3186 0.35015 0.0474 0.0
H3021 H 0.27452 0.30989 0.02486 0.0
H3022 H 0.21305 0.29805 0.06679 0.0
H3023 H 0.23369 0.30555 0.04955 0.0
C3024 C 0.70107 0.67481 0.37583 0.0
C3025 C 0.71059 0.68841 0.36859 0.0
C3026 C 0.70721 0.66854 0.38642 0.0
C3027 C 0.74207 0.67839 0.41214 0.0
H3028 H 0.72663 0.63381 0.40658 0.0
C3029 C 0.76683 0.64982 0.45236 0.0
C3030 C 0.77039 0.63955 0.4441 0.0
C3031 C 0.75774 0.65471 0.44454 0.0
C3032 C 0.73106 0.64627 0.40828 0.0
H3033 H 0.73401 0.70624 0.36707 0.0
H3034 H 0.74468 0.69529 0.38544 0.0
H3035 H 0.71459 0.64498 0.3903 0.0
H3036 H 0.76678 0.62599 0.42126 0.0
H3037 H 0.75086 0.63443 0.40766 0.0
H3038 H 0.75884 0.67978 0.42972 0.0
C3039 C 0.73247 0.68953 0.38305 0.0
C3040 C 0.72407 0.65266 0.39907 0.0
C3041 C 0.72635 0.69576 0.37243 0.0
C3042 C 0.76408 0.63373 0.42805 0.0
C3043 C 0.75497 0.6386 0.42024 0.0
C3044 C 0.74901 0.672 0.42139 0.0
C3045 C 0.72299 0.67578 0.39006 0.0
C3046 C 0.72965 0.66882 0.40072 0.0
C3047 C 0.75197 0.64941 0.42828 0.0
C3048 C 0.74373 0.6559 0.41941 0.0
H3049 H 0.68888 0.66887 0.37316 0.0
H3050 H 0.6996 0.65803 0.39175 0.0
H3051 H 0.74654 0.69086 0.41383 0.0
H3052 H 0.77132 0.65433 0.4648 0.0
H3053 H 0.75541 0.66283 0.45116 0.0
C3054 C 0.32121 0.02436 0.42978 0.0
C3055 C 0.30543 0.01468 0.42656 0.0
C3056 C 0.32765 0.04039 0.43382 0.0
C3057 C 0.31699 0.06907 0.44911 0.0
H3058 H 0.35807 0.09911 0.44086 0.0
C3059 C 0.3437 0.13565 0.46227 0.0
C3060 C 0.3566 0.14264 0.47361 0.0
C3061 C 0.33791 0.12047 0.45517 0.0
C3062 C 0.3466 0.09079 0.44322 0.0
H3063 H 0.28409 0.01426 0.42405 0.0
H3064 H 0.29533 0.04232 0.43018 0.0
H3065 H 0.34668 0.07187 0.42987 0.0
H3066 H 0.37379 0.13915 0.48584 0.0
H3067 H 0.36393 0.11277 0.47281 0.0
H3068 H 0.31686 0.08823 0.46202 0.0
C3069 C 0.30274 0.03752 0.43033 0.0
C3070 C 0.34006 0.07517 0.43703 0.0
C3071 C 0.29628 0.02144 0.42667 0.0
C3072 C 0.36394 0.13425 0.47708 0.0
C3073 C 0.35829 0.11914 0.46969 0.0
C3074 C 0.32341 0.08472 0.45497 0.0
C3075 C 0.31849 0.04718 0.4344 0.0
C3076 C 0.32521 0.06404 0.44004 0.0
C3077 C 0.34508 0.11206 0.45892 0.0
C3078 C 0.33829 0.09565 0.4522 0.0
H3079 H 0.32855 0.01946 0.42991 0.0
H3080 H 0.33976 0.0473 0.43709 0.0
H3081 H 0.3057 0.06089 0.45208 0.0
H3082 H 0.33799 0.14187 0.45888 0.0
H3083 H 0.32778 0.11525 0.44674 0.0
C3084 C 0.98818 0.30543 0.35263 0.0
C3085 C 0.0006 0.30406 0.35825 0.0
C3086 C 0.97577 0.30077 0.36164 0.0
C3087 C 0.96443 0.29272 0.40295 0.0
H3088 H 0.92367 0.26987 0.38118 0.0
C3089 C 0.91163 0.2583 0.43649 0.0
C3090 C 0.89849 0.25872 0.43176 0.0
C3091 C 0.92423 0.26521 0.42775 0.0
C3092 C 0.93499 0.27645 0.3874 0.0
H3093 H 0.00971 0.29662 0.37769 0.0
H3094 H 0.98793 0.28825 0.39331 0.0
H3095 H 0.94537 0.27884 0.36535 0.0
H3096 H 0.8883 0.26699 0.41439 0.0
H3097 H 0.91047 0.27918 0.39899 0.0
H3098 H 0.95402 0.29007 0.42502 0.0
C3099 C 0.9879 0.29317 0.38205 0.0
C3100 C 0.94742 0.28157 0.37835 0.0
C3101 C 0.00033 0.29786 0.37305 0.0
C3102 C 0.8983 0.26652 0.41829 0.0
C3103 C 0.91092 0.27337 0.40944 0.0
C3104 C 0.952 0.28756 0.412 0.0
C3105 C 0.97549 0.29461 0.37646 0.0
C3106 C 0.96228 0.28963 0.38603 0.0
C3107 C 0.92398 0.27269 0.41404 0.0
C3108 C 0.93715 0.27922 0.40434 0.0
H3109 H 0.98806 0.31023 0.34131 0.0
H3110 H 0.96649 0.30221 0.35709 0.0
H3111 H 0.97573 0.29917 0.40921 0.0
H3112 H 0.91215 0.25255 0.44697 0.0
H3113 H 0.93406 0.26436 0.43151 0.0
C3114 C 0.03407 0.36298 0.33658 0.0
C3115 C 0.04956 0.36785 0.33815 0.0
C3116 C 0.02937 0.37382 0.33511 0.0
C3117 C 0.0438 0.41349 0.32236 0.0
H3118 H 0.00373 0.40482 0.3314 0.0
C3119 C 0.01891 0.45057 0.30076 0.0
C3120 C 0.00621 0.44156 0.28941 0.0
C3121 C 0.02422 0.44338 0.31104 0.0
C3122 C 0.01501 0.40746 0.329 0.0
H3123 H 0.0723 0.38796 0.34074 0.0
H3124 H 0.06414 0.40703 0.33901 0.0
H3125 H 0.01386 0.38939 0.3426 0.0
H3126 H 0.98869 0.41783 0.28072 0.0
H3127 H 0.99763 0.40541 0.29913 0.0
H3128 H 0.04486 0.43158 0.30879 0.0
C3129 C 0.05557 0.39477 0.33819 0.0
C3130 C 0.02079 0.39856 0.33526 0.0
C3131 C 0.06028 0.38387 0.33929 0.0
C3132 C 0.99836 0.42521 0.2894 0.0
C3133 C 0.00349 0.41805 0.29991 0.0
C3134 C 0.03816 0.42259 0.31644 0.0
C3135 C 0.04006 0.38986 0.33551 0.0
C3136 C 0.03503 0.40106 0.3315 0.0
C3137 C 0.0167 0.42706 0.31046 0.0
C3138 C 0.02354 0.41931 0.31927 0.0
H3139 H 0.02553 0.35069 0.33561 0.0
H3140 H 0.01734 0.36945 0.3328 0.0
H3141 H 0.05468 0.41569 0.31892 0.0
H3142 H 0.02502 0.4632 0.30145 0.0
H3143 H 0.0344 0.45053 0.31916 0.0
C3144 C 0.62165 0.64534 0.30819 0.0
C3145 C 0.63581 0.6507 0.31691 0.0
C3146 C 0.61159 0.6294 0.30429 0.0
C3147 C 0.61047 0.59195 0.29822 0.0
H3148 H 0.56715 0.57485 0.29833 0.0
C3149 C 0.5658 0.53281 0.26338 0.0
C3150 C 0.55219 0.52368 0.27024 0.0
C3151 C 0.57656 0.54765 0.27073 0.0
C3152 C 0.57921 0.57935 0.29841 0.0
H3153 H 0.65028 0.64335 0.32872 0.0
H3154 H 0.63259 0.61545 0.32198 0.0
H3155 H 0.58453 0.60187 0.3088 0.0
H3156 H 0.53956 0.52252 0.29066 0.0
H3157 H 0.55836 0.5483 0.30357 0.0
H3158 H 0.6051 0.56935 0.28787 0.0
C3159 C 0.6294 0.62367 0.31801 0.0
C3160 C 0.58918 0.59491 0.30424 0.0
C3161 C 0.63949 0.63966 0.32196 0.0
C3162 C 0.54982 0.52943 0.28492 0.0
C3163 C 0.56058 0.5442 0.2923 0.0
C3164 C 0.60048 0.57634 0.29238 0.0
C3165 C 0.61539 0.61837 0.309 0.0
C3166 C 0.60491 0.60147 0.30401 0.0
C3167 C 0.57396 0.55363 0.28515 0.0
C3168 C 0.58472 0.56991 0.29224 0.0
H3169 H 0.61841 0.65347 0.30408 0.0
H3170 H 0.60098 0.62574 0.29715 0.0
H3171 H 0.62252 0.59667 0.29775 0.0
H3172 H 0.56789 0.52872 0.25202 0.0
H3173 H 0.58666 0.55465 0.2648 0.0
C3174 C 0.34544 0.98177 0.38101 0.0
C3175 C 0.33148 0.96773 0.3778 0.0
C3176 C 0.35743 0.98482 0.3718 0.0
C3177 C 0.36639 0.97343 0.33289 0.0
H3178 H 0.4065 0.99031 0.35527 0.0
C3179 C 0.41616 0.97684 0.30083 0.0
C3180 C 0.43035 0.99055 0.3043 0.0
C3181 C 0.40415 0.97409 0.30987 0.0
C3182 C 0.39541 0.98576 0.34882 0.0
H3183 H 0.31908 0.94604 0.36219 0.0
H3184 H 0.34006 0.95135 0.34617 0.0
H3185 H 0.38531 0.98572 0.37064 0.0
H3186 H 0.44314 0.012 0.3202 0.0
H3187 H 0.42208 0.00734 0.33584 0.0
H3188 H 0.37648 0.97349 0.31108 0.0
C3189 C 0.34168 0.96003 0.35575 0.0
C3190 C 0.38327 0.98314 0.35762 0.0
C3191 C 0.32969 0.95696 0.36498 0.0
C3192 C 0.43231 0.00139 0.31714 0.0
C3193 C 0.42029 0.99864 0.3262 0.0
C3194 C 0.37853 0.97608 0.32409 0.0
C3195 C 0.35572 0.97393 0.35916 0.0
C3196 C 0.36863 0.97693 0.34975 0.0
C3197 C 0.40605 0.98501 0.3226 0.0
C3198 C 0.39317 0.98224 0.33196 0.0
H3199 H 0.34717 0.99035 0.39076 0.0
H3200 H 0.36805 0.99573 0.37457 0.0
H3201 H 0.35528 0.96883 0.32647 0.0
H3202 H 0.41423 0.96835 0.29088 0.0
H3203 H 0.39337 0.96339 0.30692 0.0
C3204 C 0.63131 0.98566 0.35142 0.0
C3205 C 0.62601 0.96992 0.35365 0.0
C3206 C 0.62363 0.98971 0.34006 0.0
C3207 C 0.59407 0.97327 0.30485 0.0
H3208 H 0.58885 0.00811 0.31809 0.0
C3209 C 0.54629 0.98173 0.27673 0.0
C3210 C 0.54971 0.99695 0.27404 0.0
C3211 C 0.55713 0.97917 0.28457 0.0
C3212 C 0.59039 0.9985 0.31409 0.0
H3213 H 0.60865 0.94607 0.34543 0.0
H3214 H 0.59508 0.9531 0.32597 0.0
H3215 H 0.60499 0.00229 0.33531 0.0
H3216 H 0.56753 0.02132 0.27695 0.0
H3217 H 0.58635 0.01682 0.29095 0.0
H3218 H 0.57896 0.96918 0.28389 0.0
C3219 C 0.60534 0.96235 0.33273 0.0
C3220 C 0.59968 0.99517 0.32396 0.0
C3221 C 0.61307 0.95831 0.344 0.0
C3222 C 0.5644 0.00948 0.27905 0.0
C3223 C 0.57521 0.00691 0.28704 0.0
C3224 C 0.58468 0.97653 0.29505 0.0
C3225 C 0.6104 0.97811 0.33074 0.0
C3226 C 0.60149 0.98238 0.31958 0.0
C3227 C 0.57162 0.99175 0.29005 0.0
C3228 C 0.58259 0.98906 0.29967 0.0
H3229 H 0.64132 0.99489 0.35857 0.0
H3230 H 0.62802 0.00196 0.33866 0.0
H3231 H 0.59542 0.96353 0.30092 0.0
H3232 H 0.53503 0.97182 0.27333 0.0
H3233 H 0.55395 0.96737 0.28691 0.0
C3234 C 0.02024 0.65951 0.30851 0.0
C3235 C 0.03596 0.66993 0.30918 0.0
C3236 C 0.01405 0.6438 0.30295 0.0
C3237 C 0.02262 0.61251 0.29621 0.0
H3238 H 0.99086 0.59657 0.26068 0.0
C3239 C 0.99608 0.55998 0.24206 0.0
C3240 C 0.99222 0.547 0.25072 0.0
C3241 C -5e-05 0.57436 0.25016 0.0
C3242 C -0.00033 0.60086 0.27063 0.0
H3243 H 0.05757 0.67186 0.30533 0.0
H3244 H 0.04674 0.64431 0.29592 0.0
H3245 H 0.00068 0.62287 0.27397 0.0
H3246 H 0.98931 0.53876 0.27453 0.0
H3247 H 0.99629 0.56402 0.28873 0.0
H3248 H 0.02168 0.59054 0.29277 0.0
C3249 C 0.03924 0.64838 0.29957 0.0
C3250 C 0.00521 0.61583 0.27829 0.0
C3251 C 0.04541 0.66414 0.30489 0.0
C3252 C 0.99207 0.54857 0.26757 0.0
C3253 C 0.99618 0.56301 0.27569 0.0
C3254 C 0.0169 0.59744 0.28871 0.0
C3255 C 0.02348 0.63814 0.29822 0.0
C3256 C 0.01687 0.62186 0.291 0.0
C3257 C 0.00027 0.57606 0.26707 0.0
C3258 C 0.00553 0.59157 0.27571 0.0
H3259 H 0.01263 0.66358 0.3117 0.0
H3260 H 0.00187 0.63609 0.30213 0.0
H3261 H 0.03158 0.61689 0.30601 0.0
H3262 H 0.9963 0.55904 0.22907 0.0
H3263 H 0.00317 0.58429 0.24326 0.0
C3264 C 0.35341 0.3827 0.37362 0.0
C3265 C 0.33827 0.37627 0.36719 0.0
C3266 C 0.36495 0.38708 0.36341 0.0
C3267 C 0.37398 0.39618 0.32157 0.0
H3268 H 0.4052 0.38604 0.33197 0.0
C3269 C 0.41676 0.40208 0.2768 0.0
C3270 C 0.43206 0.40977 0.28307 0.0
C3271 C 0.40529 0.39732 0.28713 0.0
C3272 C 0.39662 0.38904 0.32899 0.0
H3273 H 0.32339 0.36969 0.34503 0.0
H3274 H 0.34351 0.37717 0.3272 0.0
H3275 H 0.38528 0.37971 0.3499 0.0
H3276 H 0.44731 0.41807 0.30511 0.0
H3277 H 0.42723 0.4096 0.32319 0.0
H3278 H 0.38528 0.40541 0.3006 0.0
C3279 C 0.3465 0.37901 0.34014 0.0
C3280 C 0.38524 0.38547 0.33927 0.0
C3281 C 0.33496 0.37468 0.35036 0.0
C3282 C 0.43562 0.41202 0.29992 0.0
C3283 C 0.42413 0.4072 0.31026 0.0
C3284 C 0.38532 0.39968 0.31126 0.0
C3285 C 0.36161 0.38508 0.34655 0.0
C3286 C 0.37379 0.38901 0.33568 0.0
C3287 C 0.40887 0.4001 0.30396 0.0
C3288 C 0.39675 0.39614 0.31485 0.0
H3289 H 0.35635 0.38415 0.38655 0.0
H3290 H 0.3765 0.39201 0.36875 0.0
H3291 H 0.36548 0.39928 0.31858 0.0
H3292 H 0.41365 0.39993 0.26387 0.0
H3293 H 0.39361 0.39158 0.28193 0.0
C3294 C 0.29646 0.29601 0.39816 0.0
C3295 C 0.30192 0.31019 0.39121 0.0
C3296 C 0.30545 0.28922 0.39989 0.0
C3297 C 0.34548 0.30205 0.40645 0.0
H3298 H 0.33047 0.2578 0.40743 0.0
C3299 C 0.36496 0.25724 0.43221 0.0
C3300 C 0.36903 0.26381 0.44835 0.0
C3301 C 0.35907 0.26325 0.42099 0.0
C3302 C 0.33494 0.27018 0.40691 0.0
H3303 H 0.32058 0.32757 0.37926 0.0
H3304 H 0.33619 0.31567 0.38227 0.0
H3305 H 0.31448 0.26641 0.39409 0.0
H3306 H 0.37105 0.28218 0.46532 0.0
H3307 H 0.36106 0.29288 0.44574 0.0
H3308 H 0.36565 0.30583 0.4199 0.0
C3309 C 0.32506 0.30997 0.38663 0.0
C3310 C 0.32574 0.27511 0.39942 0.0
C3311 C 0.31608 0.31676 0.38489 0.0
C3312 C 0.36799 0.27698 0.45291 0.0
C3313 C 0.36236 0.28312 0.44168 0.0
C3314 C 0.35463 0.29713 0.414 0.0
C3315 C 0.32008 0.29645 0.39468 0.0
C3316 C 0.33072 0.2911 0.39961 0.0
C3317 C 0.35745 0.27606 0.42573 0.0
C3318 C 0.34923 0.28117 0.41481 0.0
H3319 H 0.28558 0.29057 0.40307 0.0
H3320 H 0.30132 0.27885 0.40625 0.0
H3321 H 0.34963 0.31446 0.40693 0.0
H3322 H 0.36557 0.24698 0.42851 0.0
H3323 H 0.35539 0.25763 0.40876 0.0
C3324 C 0.69185 0.0266 0.41327 0.0
C3325 C 0.697 0.01594 0.41398 0.0
C3326 C 0.70184 0.04255 0.41764 0.0
C3327 C 0.73887 0.0689 0.4415 0.0
H3328 H 0.73573 0.10165 0.42177 0.0
C3329 C 0.78523 0.1333 0.45366 0.0
C3330 C 0.78055 0.14388 0.45845 0.0
C3331 C 0.77464 0.11802 0.44752 0.0
C3332 C 0.73663 0.09258 0.42743 0.0
H3333 H 0.7168 0.01372 0.41874 0.0
H3334 H 0.73428 0.04146 0.42566 0.0
H3335 H 0.71825 0.07431 0.41166 0.0
H3336 H 0.76097 0.14667 0.46002 0.0
H3337 H 0.74245 0.11993 0.44885 0.0
H3338 H 0.75745 0.08717 0.45698 0.0
C3339 C 0.72245 0.03754 0.42241 0.0
C3340 C 0.72662 0.07693 0.42169 0.0
C3341 C 0.71244 0.02162 0.41831 0.0
C3342 C 0.765 0.13889 0.45638 0.0
C3343 C 0.75439 0.12359 0.45001 0.0
C3344 C 0.74895 0.08448 0.44706 0.0
C3345 C 0.71722 0.04818 0.42259 0.0
C3346 C 0.72769 0.06489 0.4286 0.0
C3347 C 0.75912 0.11297 0.44577 0.0
C3348 C 0.748 0.09648 0.44004 0.0
H3349 H 0.67998 0.02255 0.41003 0.0
H3350 H 0.69737 0.05035 0.41772 0.0
H3351 H 0.73978 0.05999 0.44747 0.0
H3352 H 0.79712 0.13682 0.45459 0.0
H3353 H 0.77861 0.11013 0.44408 0.0
C3354 C 0.98042 0.70099 0.34164 0.0
C3355 C 0.99307 0.69966 0.34633 0.0
C3356 C 0.96742 0.69389 0.3498 0.0
C3357 C 0.94702 0.66231 0.37563 0.0
H3358 H 0.92613 0.68473 0.38538 0.0
C3359 C 0.89743 0.64036 0.41626 0.0
C3360 C 0.8856 0.64311 0.41187 0.0
C3361 C 0.91032 0.64639 0.40781 0.0
C3362 C 0.9317 0.67822 0.38255 0.0
H3363 H 0.00202 0.68989 0.36336 0.0
H3364 H 0.97928 0.67754 0.3777 0.0
H3365 H 0.94934 0.69738 0.37205 0.0
H3366 H 0.87757 0.6535 0.39466 0.0
H3367 H 0.89995 0.66385 0.3798 0.0
H3368 H 0.92933 0.64312 0.38616 0.0
C3369 C 0.97941 0.68398 0.36759 0.0
C3370 C 0.94503 0.68549 0.37495 0.0
C3371 C 0.99246 0.69114 0.35945 0.0
C3372 C 0.88662 0.65141 0.39845 0.0
C3373 C 0.89946 0.65738 0.39 0.0
C3374 C 0.93365 0.65501 0.38324 0.0
C3375 C 0.96674 0.68526 0.36283 0.0
C3376 C 0.9528 0.6776 0.37133 0.0
C3377 C 0.9116 0.65525 0.3948 0.0
C3378 C 0.9258 0.66286 0.3867 0.0
H3379 H 0.9805 0.70744 0.33156 0.0
H3380 H 0.95779 0.69494 0.34572 0.0
H3381 H 0.95267 0.65587 0.37283 0.0
H3382 H 0.89703 0.63416 0.42666 0.0
H3383 H 0.91952 0.64464 0.41189 0.0
C3384 C 0.39888 0.03663 0.70422 0.0
C3385 C 0.38299 0.02929 0.70233 0.0
C3386 C 0.40617 0.03276 0.71618 0.0
C3387 C 0.40008 0.00138 0.74154 0.0
H3388 H 0.43802 0.03372 0.76452 0.0
C3389 C 0.44339 0.98882 0.77435 0.0
C3390 C 0.45217 0.99849 0.78831 0.0
C3391 C 0.43316 0.99179 0.76572 0.0
C3392 C 0.42733 0.02454 0.75841 0.0
H3393 H 0.36229 0.0122 0.71165 0.0
H3394 H 0.37507 0.00548 0.73263 0.0
H3395 H 0.42373 0.04088 0.74616 0.0
H3396 H 0.45642 0.01822 0.80477 0.0
H3397 H 0.43844 0.02331 0.78982 0.0
H3398 H 0.40372 0.98504 0.75383 0.0
C3399 C 0.38186 0.01414 0.72474 0.0
C3400 C 0.41923 0.02864 0.74771 0.0
C3401 C 0.37455 0.01805 0.71277 0.0
C3402 C 0.44997 0.01071 0.79391 0.0
C3403 C 0.4397 0.01365 0.78532 0.0
C3404 C 0.4082 0.99727 0.75226 0.0
C3405 C 0.39776 0.02144 0.72655 0.0
C3406 C 0.40565 0.0171 0.73893 0.0
C3407 C 0.43146 0.00447 0.77089 0.0
C3408 C 0.42204 0.00879 0.76064 0.0
H3409 H 0.40574 0.04532 0.69638 0.0
H3410 H 0.41842 0.03843 0.71707 0.0
H3411 H 0.3897 0.9922 0.7349 0.0
H3412 H 0.44497 0.97943 0.76962 0.0
H3413 H 0.42715 0.98459 0.75456 0.0
C3414 C 0.9827 0.34637 0.75656 0.0
C3415 C 0.96704 0.3355 0.75469 0.0
C3416 C 0.98809 0.36189 0.76231 0.0
C3417 C 0.97808 0.39215 0.7671 0.0
H3418 H 0.00711 0.40818 0.80522 0.0
C3419 C 0.00731 0.45614 0.79549 0.0
C3420 C 0.00594 0.45782 0.81207 0.0
C3421 C 0.00334 0.44158 0.7878 0.0
C3422 C 0.99904 0.40384 0.79456 0.0
H3423 H 0.94476 0.33257 0.75661 0.0
H3424 H 0.95423 0.35983 0.76631 0.0
H3425 H 0.99861 0.38209 0.79211 0.0
H3426 H -0.00033 0.44582 0.8337 0.0
H3427 H 0.99304 0.42032 0.82029 0.0
H3428 H 0.97852 0.41393 0.76957 0.0
C3429 C 0.96228 0.35624 0.76347 0.0
C3430 C 0.99427 0.38901 0.78701 0.0
C3431 C 0.95688 0.34065 0.75799 0.0
C3432 C 0.00083 0.44478 0.82091 0.0
C3433 C 0.99711 0.43027 0.81327 0.0
C3434 C 0.98306 0.4071 0.77449 0.0
C3435 C 0.97794 0.3669 0.76601 0.0
C3436 C 0.98364 0.38298 0.77332 0.0
C3437 C 0.99815 0.42852 0.79661 0.0
C3438 C 0.99345 0.413 0.78838 0.0
H3439 H 0.99082 0.34277 0.75417 0.0
H3440 H 0.00022 0.36995 0.76407 0.0
H3441 H 0.9699 0.38775 0.75654 0.0
H3442 H 0.01107 0.46601 0.78839 0.0
H3443 H 0.00428 0.44051 0.77495 0.0
C3444 C 0.65524 0.60983 0.69014 0.0
C3445 C 0.66903 0.62344 0.69565 0.0
C3446 C 0.64274 0.6047 0.6991 0.0
C3447 C 0.62663 0.61914 0.729 0.0
H3448 H 0.60136 0.57548 0.73562 0.0
C3449 C 0.57942 0.5977 0.77224 0.0
C3450 C 0.56617 0.58323 0.76784 0.0
C3451 C 0.59175 0.60285 0.76303 0.0
C3452 C 0.60816 0.58768 0.73367 0.0
H3453 H 0.6806 0.64213 0.71508 0.0
H3454 H 0.65876 0.63315 0.73068 0.0
H3455 H 0.6235 0.58366 0.72066 0.0
H3456 H 0.55513 0.56314 0.74997 0.0
H3457 H 0.57652 0.57225 0.73367 0.0
H3458 H 0.61124 0.62319 0.74184 0.0
C3459 C 0.65761 0.62654 0.71936 0.0
C3460 C 0.62087 0.59236 0.72516 0.0
C3461 C 0.67014 0.63161 0.71048 0.0
C3462 C 0.56529 0.57426 0.75374 0.0
C3463 C 0.57757 0.57945 0.74447 0.0
C3464 C 0.61386 0.61446 0.73742 0.0
C3465 C 0.64374 0.61313 0.71369 0.0
C3466 C 0.63026 0.60814 0.72277 0.0
C3467 C 0.59105 0.59367 0.74915 0.0
C3468 C 0.60448 0.59867 0.73989 0.0
H3469 H 0.65402 0.60327 0.67877 0.0
H3470 H 0.63216 0.59437 0.69438 0.0
H3471 H 0.63355 0.63136 0.72713 0.0
H3472 H 0.58047 0.60476 0.78317 0.0
H3473 H 0.60202 0.61377 0.7671 0.0
C3474 C 0.69386 0.69116 0.67469 0.0
C3475 C 0.70779 0.69621 0.66817 0.0
C3476 C 0.68547 0.69844 0.67154 0.0
C3477 C 0.67303 0.72072 0.66682 0.0
H3478 H 0.66839 0.72432 0.62097 0.0
C3479 C 0.64742 0.75513 0.63742 0.0
C3480 C 0.63838 0.74834 0.62265 0.0
C3481 C 0.65424 0.74779 0.64517 0.0
C3482 C 0.66947 0.72326 0.63379 0.0
H3483 H 0.72432 0.71362 0.65424 0.0
H3484 H 0.70963 0.72619 0.64872 0.0
H3485 H 0.6848 0.71489 0.63092 0.0
H3486 H 0.62864 0.72813 0.60491 0.0
H3487 H 0.64045 0.71531 0.61849 0.0
H3488 H 0.6577 0.72929 0.66959 0.0
C3489 C 0.70516 0.7165 0.65611 0.0
C3490 C 0.67902 0.71807 0.63951 0.0
C3491 C 0.71359 0.70933 0.65934 0.0
C3492 C 0.63545 0.7336 0.61634 0.0
C3493 C 0.64233 0.72633 0.62402 0.0
C3494 C 0.66358 0.72615 0.6611 0.0
C3495 C 0.69082 0.71081 0.66175 0.0
C3496 C 0.68092 0.71677 0.65606 0.0
C3497 C 0.65221 0.73362 0.63818 0.0
C3498 C 0.66167 0.72738 0.6445 0.0
H3499 H 0.6891 0.68116 0.68164 0.0
H3500 H 0.67444 0.69382 0.67602 0.0
H3501 H 0.67431 0.7198 0.67964 0.0
H3502 H 0.64977 0.76645 0.64259 0.0
H3503 H 0.66182 0.75367 0.65606 0.0
C3504 C 0.29209 0.97928 0.64498 0.0
C3505 C 0.30674 0.98566 0.65293 0.0
C3506 C 0.28251 0.96314 0.64213 0.0
C3507 C 0.28313 0.92661 0.63727 0.0
H3508 H 0.24001 0.90779 0.64093 0.0
C3509 C 0.23819 0.86562 0.60625 0.0
C3510 C 0.22542 0.85641 0.61436 0.0
C3511 C 0.24899 0.88079 0.61275 0.0
C3512 C 0.25204 0.91279 0.64003 0.0
H3513 H 0.32263 0.97997 0.66443 0.0
H3514 H 0.30581 0.95171 0.65948 0.0
H3515 H 0.25688 0.93541 0.64953 0.0
H3516 H 0.21446 0.85545 0.63613 0.0
H3517 H 0.23331 0.88183 0.64752 0.0
H3518 H 0.27823 0.90394 0.6277 0.0
C3519 C 0.30185 0.95928 0.65534 0.0
C3520 C 0.26169 0.92867 0.64479 0.0
C3521 C 0.31144 0.97547 0.65827 0.0
C3522 C 0.22403 0.8624 0.62945 0.0
C3523 C 0.23482 0.87751 0.63596 0.0
C3524 C 0.27345 0.9107 0.63245 0.0
C3525 C 0.28732 0.95295 0.64713 0.0
C3526 C 0.27731 0.93582 0.64327 0.0
C3527 C 0.24724 0.88701 0.62753 0.0
C3528 C 0.25777 0.90365 0.63361 0.0
H3529 H 0.28807 0.98675 0.64069 0.0
H3530 H 0.27146 0.95866 0.6356 0.0
H3531 H 0.29509 0.9318 0.63583 0.0
H3532 H 0.2395 0.86137 0.59454 0.0
H3533 H 0.25835 0.88785 0.60587 0.0
C3534 C 0.02685 0.31051 0.72402 0.0
C3535 C 0.0135 0.31037 0.71885 0.0
C3536 C 0.03983 0.31834 0.71592 0.0
C3537 C 0.05264 0.33391 0.67699 0.0
H3538 H 0.09204 0.35697 0.70176 0.0
C3539 C 0.10753 0.36974 0.64657 0.0
C3540 C 0.1195 0.36732 0.65131 0.0
C3541 C 0.09489 0.36433 0.65536 0.0
C3542 C 0.08112 0.35052 0.69468 0.0
H3543 H 0.00329 0.31831 0.70106 0.0
H3544 H 0.026 0.33213 0.68704 0.0
H3545 H 0.0692 0.34421 0.7158 0.0
H3546 H 0.12797 0.358 0.66936 0.0
H3547 H 0.10589 0.34847 0.68467 0.0
H3548 H 0.06459 0.34014 0.65587 0.0
C3549 C 0.02638 0.32602 0.69724 0.0
C3550 C 0.06803 0.34317 0.70271 0.0
C3551 C 0.01338 0.31815 0.70532 0.0
C3552 C 0.11885 0.35992 0.66536 0.0
C3553 C 0.10626 0.35458 0.67419 0.0
C3554 C 0.06572 0.3413 0.66896 0.0
C3555 C 0.03978 0.32626 0.70249 0.0
C3556 C 0.05364 0.33463 0.69396 0.0
C3557 C 0.09402 0.35647 0.66912 0.0
C3558 C 0.08011 0.34955 0.67771 0.0
H3559 H 0.02731 0.30458 0.73435 0.0
H3560 H 0.04987 0.31805 0.72011 0.0
H3561 H 0.04176 0.32727 0.66987 0.0
H3562 H 0.10765 0.37528 0.63571 0.0
H3563 H 0.08571 0.3661 0.65126 0.0
C3564 C 0.301 0.33016 0.68332 0.0
C3565 C 0.29136 0.31651 0.69041 0.0
C3566 C 0.29497 0.33706 0.67346 0.0
C3567 C 0.26068 0.33972 0.66738 0.0
H3568 H 0.27605 0.35688 0.62735 0.0
C3569 C 0.2391 0.37511 0.63517 0.0
C3570 C 0.23447 0.37062 0.61858 0.0
C3571 C 0.24782 0.37003 0.64338 0.0
C3572 C 0.27165 0.35213 0.63851 0.0
H3573 H 0.26783 0.29898 0.69202 0.0
H3574 H 0.2574 0.31095 0.67485 0.0
H3575 H 0.28736 0.34406 0.6422 0.0
H3576 H 0.23613 0.35805 0.59742 0.0
H3577 H 0.25129 0.34903 0.61183 0.0
H3578 H 0.24486 0.3475 0.66369 0.0
C3579 C 0.2696 0.31647 0.67711 0.0
C3580 C 0.27818 0.34489 0.64705 0.0
C3581 C 0.2756 0.30957 0.6869 0.0
C3582 C 0.23941 0.36158 0.61024 0.0
C3583 C 0.24819 0.35652 0.61846 0.0
C3584 C 0.25426 0.34702 0.65894 0.0
C3585 C 0.2792 0.33047 0.67057 0.0
C3586 C 0.27265 0.33847 0.6615 0.0
C3587 C 0.25213 0.36034 0.63521 0.0
C3588 C 0.2596 0.35326 0.64438 0.0
H3589 H 0.3132 0.33578 0.68576 0.0
H3590 H 0.30265 0.34787 0.66861 0.0
H3591 H 0.2563 0.33509 0.67859 0.0
H3592 H 0.23537 0.38193 0.642 0.0
H3593 H 0.25086 0.37334 0.65625 0.0
C3594 C 0.70854 0.9869 0.63613 0.0
C3595 C 0.69986 0.99389 0.63922 0.0
C3596 C 0.70149 0.97094 0.63134 0.0
C3597 C 0.66442 0.93347 0.62734 0.0
H3598 H 0.68307 0.92255 0.59368 0.0
C3599 C 0.63566 0.87341 0.58819 0.0
C3600 C 0.64484 0.86673 0.58649 0.0
C3601 C 0.64182 0.88863 0.59559 0.0
C3602 C 0.67779 0.92541 0.60315 0.0
H3603 H 0.67697 0.98949 0.64038 0.0
H3604 H 0.66465 0.96173 0.63156 0.0
H3605 H 0.69495 0.94947 0.60533 0.0
H3606 H 0.6675 0.8706 0.59204 0.0
H3607 H 0.67822 0.89715 0.60439 0.0
H3608 H 0.64701 0.90928 0.62467 0.0
C3609 C 0.67691 0.96849 0.63311 0.0
C3610 C 0.68464 0.94083 0.60993 0.0
C3611 C 0.68398 0.98444 0.63813 0.0
C3612 C 0.66019 0.87551 0.59264 0.0
C3613 C 0.66634 0.8907 0.59984 0.0
C3614 C 0.65746 0.91802 0.62039 0.0
C3615 C 0.68558 0.96162 0.62927 0.0
C3616 C 0.67815 0.94507 0.62223 0.0
C3617 C 0.65727 0.89746 0.60128 0.0
C3618 C 0.66417 0.91385 0.60833 0.0
H3619 H 0.7208 0.99383 0.63707 0.0
H3620 H 0.70855 0.96598 0.62896 0.0
H3621 H 0.65916 0.93627 0.63687 0.0
H3622 H 0.62382 0.86701 0.58355 0.0
H3623 H 0.63461 0.89363 0.59649 0.0
C3624 C 0.01866 0.71484 0.70908 0.0
C3625 C 0.00399 0.70932 0.70165 0.0
C3626 C 0.03078 0.71886 0.69977 0.0
C3627 C 0.04272 0.72875 0.65891 0.0
H3628 H 0.07188 0.71632 0.67131 0.0
C3629 C 0.08724 0.73394 0.61722 0.0
C3630 C 0.10224 0.74119 0.62437 0.0
C3631 C 0.0752 0.72903 0.62677 0.0
C3632 C 0.06388 0.71994 0.66777 0.0
H3633 H 0.99055 0.70394 0.67863 0.0
H3634 H 0.01166 0.71077 0.66236 0.0
H3635 H 0.05102 0.71048 0.68778 0.0
H3636 H 0.11637 0.74831 0.64712 0.0
H3637 H 0.09525 0.7396 0.6639 0.0
H3638 H 0.05551 0.73813 0.63887 0.0
C3639 C 0.01385 0.71219 0.6754 0.0
C3640 C 0.05197 0.71666 0.67722 0.0
C3641 C 0.00174 0.70824 0.68472 0.0
C3642 C 0.10491 0.74265 0.64129 0.0
C3643 C 0.09283 0.7377 0.65088 0.0
C3644 C 0.05457 0.73196 0.64944 0.0
C3645 C 0.02849 0.71739 0.68281 0.0
C3646 C 0.04125 0.72102 0.67289 0.0
C3647 C 0.0779 0.73123 0.6437 0.0
C3648 C 0.06526 0.72757 0.65375 0.0
H3649 H 0.02078 0.71589 0.72211 0.0
H3650 H 0.04196 0.72311 0.70587 0.0
H3651 H 0.03482 0.73251 0.65538 0.0
H3652 H 0.08484 0.73242 0.60419 0.0
H3653 H 0.06379 0.72377 0.62091 0.0
C3654 C 0.95023 0.62513 0.72216 0.0
C3655 C 0.95927 0.64096 0.7197 0.0
C3656 C 0.95658 0.61561 0.72298 0.0
C3657 C 0.99209 0.61946 0.73729 0.0
H3658 H 0.97275 0.57555 0.72209 0.0
C3659 C 0.01261 0.58173 0.76566 0.0
C3660 C 0.00102 0.56737 0.7699 0.0
C3661 C 0.00938 0.58999 0.75466 0.0
C3662 C 0.97829 0.58779 0.72647 0.0
H3663 H 0.98182 0.65892 0.71497 0.0
H3664 H 0.99289 0.64231 0.71668 0.0
H3665 H 0.96302 0.59145 0.71119 0.0
H3666 H 0.9772 0.5498 0.76471 0.0
H3667 H 0.97138 0.56457 0.74644 0.0
H3668 H 0.0066 0.6158 0.75342 0.0
C3669 C 0.98092 0.63732 0.718 0.0
C3670 C 0.97276 0.59688 0.72015 0.0
C3671 C 0.97455 0.6468 0.71701 0.0
C3672 C 0.98633 0.56103 0.76209 0.0
C3673 C 0.98305 0.56941 0.75133 0.0
C3674 C 0.99747 0.61036 0.74378 0.0
C3675 C 0.9721 0.62178 0.72149 0.0
C3676 C 0.97938 0.6127 0.72583 0.0
C3677 C 0.99444 0.58423 0.74785 0.0
C3678 C 0.99037 0.5943 0.73881 0.0
H3679 H 0.9384 0.62023 0.72412 0.0
H3680 H 0.94955 0.60369 0.7258 0.0
H3681 H 0.99729 0.63158 0.74205 0.0
H3682 H 0.02407 0.58702 0.7714 0.0
H3683 H 0.01852 0.60119 0.75198 0.0
C3684 C 0.37414 0.35786 0.76116 0.0
C3685 C 0.36274 0.35307 0.74834 0.0
C3686 C 0.3842 0.37365 0.76575 0.0
C3687 C 0.38895 0.41283 0.76335 0.0
H3688 H 0.43006 0.42592 0.78024 0.0
C3689 C 0.43752 0.47708 0.78423 0.0
C3690 C 0.44496 0.47887 0.79962 0.0
C3691 C 0.42678 0.4622 0.77689 0.0
C3692 C 0.4186 0.4224 0.77556 0.0
H3693 H 0.35318 0.36123 0.73008 0.0
H3694 H 0.37111 0.38896 0.73788 0.0
H3695 H 0.4134 0.39922 0.76827 0.0
H3696 H 0.44614 0.46647 0.81976 0.0
H3697 H 0.42782 0.44059 0.80671 0.0
H3698 H 0.39448 0.43632 0.77052 0.0
C3699 C 0.37203 0.38042 0.74457 0.0
C3700 C 0.40902 0.4071 0.76877 0.0
C3701 C 0.36182 0.36453 0.74003 0.0
C3702 C 0.44093 0.46552 0.80775 0.0
C3703 C 0.43041 0.4507 0.80033 0.0
C3704 C 0.39867 0.42827 0.76995 0.0
C3705 C 0.38331 0.38516 0.75755 0.0
C3706 C 0.39393 0.40197 0.76297 0.0
C3707 C 0.42347 0.44889 0.78473 0.0
C3708 C 0.41345 0.43304 0.77647 0.0
H3709 H 0.37514 0.34941 0.76796 0.0
H3710 H 0.39247 0.37681 0.77604 0.0
H3711 H 0.37739 0.40927 0.75911 0.0
H3712 H 0.44044 0.48707 0.77754 0.0
H3713 H 0.42157 0.46106 0.76483 0.0
C3714 C 0.66304 0.02608 0.68902 0.0
C3715 C 0.66921 0.04016 0.68176 0.0
C3716 C 0.65108 0.02188 0.69864 0.0
C3717 C 0.63235 0.03825 0.7226 0.0
H3718 H 0.59795 0.99597 0.71671 0.0
C3719 C 0.57767 0.02142 0.75248 0.0
C3720 C 0.57064 0.00708 0.75919 0.0
C3721 C 0.58946 0.02511 0.74276 0.0
C3722 C 0.60755 0.00777 0.71864 0.0
H3723 H 0.66775 0.06092 0.67906 0.0
H3724 H 0.6469 0.05358 0.69584 0.0
H3725 H 0.61934 0.00317 0.70069 0.0
H3726 H 0.57035 0.9853 0.76092 0.0
H3727 H 0.59107 0.99179 0.74405 0.0
H3728 H 0.62068 0.04286 0.74061 0.0
C3729 C 0.65138 0.04584 0.69416 0.0
C3730 C 0.61979 0.01189 0.70946 0.0
C3731 C 0.66327 0.05001 0.68448 0.0
C3732 C 0.57545 0.99637 0.75575 0.0
C3733 C 0.58731 9e-05 0.74608 0.0
C3734 C 0.62015 0.03412 0.73182 0.0
C3735 C 0.6451 0.0317 0.70128 0.0
C3736 C 0.63228 0.02719 0.7113 0.0
C3737 C 0.59455 0.01458 0.73962 0.0
C3738 C 0.60757 0.01886 0.72989 0.0
H3739 H 0.66737 0.01824 0.68718 0.0
H3740 H 0.64658 0.01099 0.70411 0.0
H3741 H 0.64192 0.05007 0.72446 0.0
H3742 H 0.57403 0.0298 0.75474 0.0
H3743 H 0.59457 0.03623 0.7377 0.0
loop_
_geom_bond_atom_site_label_1
_geom_bond_atom_site_label_2
_geom_bond_distance
_geom_bond_site_symmetry_2
_ccdc_geom_bond_type
Mg0 O1 2.028 . S
Mg0 O7 1.986 1_455 S
Mg0 O9 2.114 . S
Mg0 O10 2.251 1_554 S
Mg0 O13 2.010 . S
O1 Mg0 2.028 . S
O1 C4 1.335 . S
O2 Mg3 2.028 . S
O2 C4 1.178 1_655 S
Mg3 O2 2.028 . S
Mg3 O8 2.032 . S
Mg3 O10 2.079 1_654 S
C4 O1 1.335 . S
C4 O2 1.178 1_455 S
C5 O6 1.264 . S
C5 O13 1.249 . S
O6 C5 1.264 . S
O7 Mg0 1.986 1_655 S
O7 C11 1.246 . S
O8 Mg3 2.032 . S
O8 C11 1.259 . S
O9 Mg0 2.114 . S
O9 C12 1.252 1_554 S
O10 Mg0 2.251 1_556 S
O10 Mg3 2.079 1_456 S
O10 C12 1.273 . S
C11 O7 1.246 . S
C11 O8 1.259 . S
C12 O9 1.252 1_556 S
C12 O10 1.273 . S
O13 Mg0 2.010 . S
O13 C5 1.249 . S
Mg14 O15 2.028 . S
Mg14 O21 1.986 . S
Mg14 O23 2.114 . S
Mg14 O24 2.251 . S
Mg14 O27 2.010 . S
O15 Mg14 2.028 . S
O15 C18 1.250 . S
O16 Mg17 2.028 . S
O16 C18 1.248 . S
Mg17 O16 2.028 . S
Mg17 O22 2.032 . S
Mg17 O24 2.079 . S
C18 O15 1.250 . S
C18 O16 1.248 . S
C19 O20 1.264 . S
C19 O27 1.249 . S
O20 C19 1.264 . S
O21 Mg14 1.986 . S
O21 C25 1.246 . S
O22 Mg17 2.032 . S
O22 C25 1.259 . S
O23 Mg14 2.114 . S
O23 C26 1.252 . S
O24 Mg14 2.251 . S
O24 Mg17 2.079 . S
O24 C26 1.273 . S
C25 O21 1.246 . S
C25 O22 1.259 . S
C26 O23 1.252 . S
C26 O24 1.273 . S
O27 Mg14 2.010 . S
O27 C19 1.249 . S
Mg28 O29 2.028 1_565 S
Mg28 O35 1.986 1_565 S
Mg28 O37 2.114 . S
Mg28 O38 2.253 1_564 S
Mg28 O41 2.010 . S
O29 Mg28 2.028 1_545 S
O29 C32 1.250 . S
O30 Mg31 2.028 . S
O30 C32 1.248 . S
Mg31 O30 2.028 . S
Mg31 O36 2.032 . S
Mg31 O38 2.079 1_554 S
C32 O29 1.250 . S
C32 O30 1.248 . S
C33 O34 1.264 . S
C33 O41 1.249 . S
O34 C33 1.264 . S
O35 Mg28 1.986 1_545 S
O35 C39 1.246 . S
O36 Mg31 2.032 . S
O36 C39 1.259 . S
O37 Mg28 2.114 . S
O37 C40 1.252 1_554 S
O38 Mg28 2.253 1_546 S
O38 Mg31 2.079 1_556 S
O38 C40 1.273 1_545 S
C39 O35 1.246 . S
C39 O36 1.259 . S
C40 O37 1.252 1_556 S
C40 O38 1.273 1_565 S
O41 Mg28 2.010 . S
O41 C33 1.249 . S
Mg42 O43 2.018 1_655 S
Mg42 O49 1.986 1_655 S
Mg42 O51 2.114 . S
Mg42 O52 2.251 1_655 S
Mg42 O55 2.010 . S
O43 Mg42 2.018 1_455 S
O43 C46 1.272 . S
O44 Mg45 2.028 . S
O44 C46 1.248 . S
Mg45 O44 2.028 . S
Mg45 O50 2.032 . S
Mg45 O52 2.079 . S
C46 O43 1.272 . S
C46 O44 1.248 . S
C47 O48 1.264 . S
C47 O55 1.249 . S
O48 C47 1.264 . S
O49 Mg42 1.986 1_455 S
O49 C53 1.246 . S
O50 Mg45 2.032 . S
O50 C53 1.259 . S
O51 Mg42 2.114 . S
O51 C54 1.252 . S
O52 Mg42 2.251 1_455 S
O52 Mg45 2.079 . S
O52 C54 1.273 1_455 S
C53 O49 1.246 . S
C53 O50 1.259 . S
C54 O51 1.252 . S
C54 O52 1.273 1_655 S
O55 Mg42 2.010 . S
O55 C47 1.249 . S
Mg56 O57 2.028 1_556 S
Mg56 O63 1.986 . S
Mg56 O65 2.114 . S
Mg56 O66 2.251 . S
Mg56 O69 2.010 1_556 S
O57 Mg56 2.028 1_554 S
O57 C60 1.250 . S
O58 Mg59 2.028 1_554 S
O58 C60 1.248 . S
Mg59 O58 2.028 1_556 S
Mg59 O64 2.032 . S
Mg59 O66 2.079 . S
C60 O57 1.250 . S
C60 O58 1.248 . S
C61 O62 1.264 . S
C61 O69 1.249 . S
O62 C61 1.264 . S
O63 Mg56 1.986 . S
O63 C67 1.246 . S
O64 Mg59 2.032 . S
O64 C67 1.259 . S
O65 Mg56 2.114 . S
O65 C68 1.252 . S
O66 Mg56 2.251 . S
O66 Mg59 2.079 . S
O66 C68 1.273 . S
C67 O63 1.246 . S
C67 O64 1.259 . S
C68 O65 1.252 . S
C68 O66 1.273 . S
O69 Mg56 2.010 1_554 S
O69 C61 1.249 . S
Mg70 O71 2.028 . S
Mg70 O77 2.051 . S
Mg70 O79 2.114 . S
Mg70 O80 2.251 . S
Mg70 O83 2.010 . S
O71 Mg70 2.028 . S
O71 C74 1.250 . S
O72 Mg73 2.028 . S
O72 C74 1.248 1_565 S
Mg73 O72 2.028 . S
Mg73 O78 2.032 . S
Mg73 O80 2.079 1_565 S
C74 O71 1.250 . S
C74 O72 1.248 1_545 S
C75 O76 1.264 . S
C75 O83 1.249 . S
O76 C75 1.264 . S
O77 Mg70 2.051 . S
O77 C81 1.199 1_545 S
O78 Mg73 2.032 . S
O78 C81 1.259 . S
O79 Mg70 2.114 . S
O79 C82 1.252 . S
O80 Mg70 2.251 . S
O80 Mg73 2.079 1_545 S
O80 C82 1.273 . S
C81 O77 1.199 1_565 S
C81 O78 1.259 . S
C82 O79 1.252 . S
C82 O80 1.273 . S
O83 Mg70 2.010 . S
O83 C75 1.249 . S
Mg84 O85 2.028 . S
Mg84 O91 1.986 . S
Mg84 O93 2.114 . S
Mg84 O94 2.251 . S
Mg84 O97 2.010 . S
O85 Mg84 2.028 . S
O85 C88 1.250 . S
O86 Mg87 2.028 . S
O86 C88 1.248 . S
Mg87 O86 2.028 . S
Mg87 O92 2.032 . S
Mg87 O94 2.079 . S
C88 O85 1.250 . S
C88 O86 1.248 . S
C89 O90 1.264 . S
C89 O97 1.249 . S
O90 C89 1.264 . S
O91 Mg84 1.986 . S
O91 C95 1.246 . S
O92 Mg87 2.032 . S
O92 C95 1.259 . S
O93 Mg84 2.114 . S
O93 C96 1.252 . S
O94 Mg84 2.251 . S
O94 Mg87 2.079 . S
O94 C96 1.273 . S
C95 O91 1.246 . S
C95 O92 1.259 . S
C96 O93 1.252 . S
C96 O94 1.273 . S
O97 Mg84 2.010 . S
O97 C89 1.249 . S
Mg98 O99 2.028 . S
Mg98 O105 1.986 . S
Mg98 O107 2.114 . S
Mg98 O108 2.251 . S
Mg98 O111 2.010 . S
O99 Mg98 2.028 . S
O99 C102 1.250 . S
O100 Mg101 2.028 . S
O100 C102 1.248 . S
Mg101 O100 2.028 . S
Mg101 O106 2.032 . S
Mg101 O108 2.079 . S
C102 O99 1.250 . S
C102 O100 1.248 . S
C103 O104 1.264 . S
C103 O111 1.249 . S
O104 C103 1.264 . S
O105 Mg98 1.986 . S
O105 C109 1.246 . S
O106 Mg101 2.032 . S
O106 C109 1.259 . S
O107 Mg98 2.114 . S
O107 C110 1.252 . S
O108 Mg98 2.251 . S
O108 Mg101 2.079 . S
O108 C110 1.273 . S
C109 O105 1.246 . S
C109 O106 1.259 . S
C110 O107 1.252 . S
C110 O108 1.273 . S
O111 Mg98 2.010 . S
O111 C103 1.249 . S
Mg112 O113 2.028 . S
Mg112 O119 1.986 . S
Mg112 O121 2.114 . S
Mg112 O122 2.251 . S
Mg112 O125 2.010 . S
O113 Mg112 2.028 . S
O113 C116 1.250 . S
O114 Mg115 2.028 . S
O114 C116 1.248 . S
Mg115 O114 2.028 . S
Mg115 O120 2.032 . S
Mg115 O122 2.079 . S
C116 O113 1.250 . S
C116 O114 1.248 . S
C117 O118 1.264 1_455 S
C117 O125 1.249 . S
O118 C117 1.264 1_655 S
O119 Mg112 1.986 . S
O119 C123 1.246 . S
O120 Mg115 2.032 . S
O120 C123 1.259 . S
O121 Mg112 2.114 . S
O121 C124 1.252 . S
O122 Mg112 2.251 . S
O122 Mg115 2.079 . S
O122 C124 1.273 . S
C123 O119 1.246 . S
C123 O120 1.259 . S
C124 O121 1.252 . S
C124 O122 1.273 . S
O125 Mg112 2.010 . S
O125 C117 1.249 . S
Mg126 O127 2.028 . S
Mg126 O133 1.986 . S
Mg126 O135 2.114 . S
Mg126 O136 2.251 . S
Mg126 O139 2.010 . S
O127 Mg126 2.028 . S
O127 C130 1.250 . S
O128 Mg129 2.028 . S
O128 C130 1.248 . S
Mg129 O128 2.028 . S
Mg129 O134 2.032 . S
Mg129 O136 2.079 . S
C130 O127 1.250 . S
C130 O128 1.248 . S
C131 O132 1.264 . S
C131 O139 1.249 . S
O132 C131 1.264 . S
O133 Mg126 1.986 . S
O133 C137 1.246 . S
O134 Mg129 2.032 . S
O134 C137 1.259 . S
O135 Mg126 2.114 . S
O135 C138 1.252 . S
O136 Mg126 2.251 . S
O136 Mg129 2.079 . S
O136 C138 1.273 . S
C137 O133 1.246 . S
C137 O134 1.259 . S
C138 O135 1.252 . S
C138 O136 1.273 . S
O139 Mg126 2.010 . S
O139 C131 1.249 . S
Mg140 O141 2.028 . S
Mg140 O147 1.986 . S
Mg140 O149 2.114 . S
Mg140 O150 2.251 . S
Mg140 O153 2.010 . S
O141 Mg140 2.028 . S
O141 C144 1.250 . S
O142 Mg143 2.028 . S
O142 C144 1.248 . S
Mg143 O142 2.028 . S
Mg143 O148 2.032 . S
Mg143 O150 2.079 . S
C144 O141 1.250 . S
C144 O142 1.248 . S
C145 O146 1.264 1_455 S
C145 O153 1.249 . S
O146 C145 1.264 1_655 S
O147 Mg140 1.986 . S
O147 C151 1.246 . S
O148 Mg143 2.032 . S
O148 C151 1.259 . S
O149 Mg140 2.114 . S
O149 C152 1.252 . S
O150 Mg140 2.251 . S
O150 Mg143 2.079 . S
O150 C152 1.273 . S
C151 O147 1.246 . S
C151 O148 1.259 . S
C152 O149 1.252 . S
C152 O150 1.273 . S
O153 Mg140 2.010 . S
O153 C145 1.249 . S
Mg154 O155 2.028 . S
Mg154 O161 1.986 . S
Mg154 O163 2.114 . S
Mg154 O164 2.251 . S
Mg154 O167 2.010 . S
O155 Mg154 2.028 . S
O155 C158 1.250 . S
O156 Mg157 2.028 . S
O156 C158 1.248 . S
Mg157 O156 2.028 . S
Mg157 O162 2.032 . S
Mg157 O164 2.079 . S
C158 O155 1.250 . S
C158 O156 1.248 . S
C159 O160 1.264 . S
C159 O167 1.249 . S
O160 C159 1.264 . S
O161 Mg154 1.986 . S
O161 C165 1.246 . S
O162 Mg157 2.032 . S
O162 C165 1.259 . S
O163 Mg154 2.114 . S
O163 C166 1.252 . S
O164 Mg154 2.251 . S
O164 Mg157 2.079 . S
O164 C166 1.273 . S
C165 O161 1.246 . S
C165 O162 1.259 . S
C166 O163 1.252 . S
C166 O164 1.273 . S
O167 Mg154 2.010 . S
O167 C159 1.249 . S
Mg168 O169 2.028 . S
Mg168 O175 1.986 . S
Mg168 O177 2.114 . S
Mg168 O178 2.251 . S
Mg168 O181 2.010 . S
O169 Mg168 2.028 . S
O169 C172 1.250 . S
O170 Mg171 2.028 . S
O170 C172 1.248 . S
Mg171 O170 2.028 . S
Mg171 O176 2.032 . S
Mg171 O178 2.079 . S
C172 O169 1.250 . S
C172 O170 1.248 . S
C173 O174 1.264 . S
C173 O181 1.249 . S
O174 C173 1.264 . S
O175 Mg168 1.986 . S
O175 C179 1.246 . S
O176 Mg171 2.032 . S
O176 C179 1.259 . S
O177 Mg168 2.114 . S
O177 C180 1.252 . S
O178 Mg168 2.251 . S
O178 Mg171 2.079 . S
O178 C180 1.273 . S
C179 O175 1.246 . S
C179 O176 1.259 . S
C180 O177 1.252 . S
C180 O178 1.273 . S
O181 Mg168 2.010 . S
O181 C173 1.249 . S
Mg182 O183 2.028 . S
Mg182 O189 1.986 . S
Mg182 O191 2.114 . S
Mg182 O192 2.251 . S
Mg182 O195 2.010 . S
O183 Mg182 2.028 . S
O183 C186 1.250 . S
O184 Mg185 2.028 . S
O184 C186 1.248 . S
Mg185 O184 2.028 . S
Mg185 O190 2.032 . S
Mg185 O192 2.079 . S
C186 O183 1.250 . S
C186 O184 1.248 . S
C187 O188 1.264 . S
C187 O195 1.249 1_455 S
O188 C187 1.264 . S
O189 Mg182 1.986 . S
O189 C193 1.246 . S
O190 Mg185 2.032 . S
O190 C193 1.259 . S
O191 Mg182 2.114 . S
O191 C194 1.252 . S
O192 Mg182 2.251 . S
O192 Mg185 2.079 . S
O192 C194 1.273 . S
C193 O189 1.246 . S
C193 O190 1.259 . S
C194 O191 1.252 . S
C194 O192 1.273 . S
O195 Mg182 2.010 . S
O195 C187 1.249 1_655 S
Mg196 O197 2.028 . S
Mg196 O203 1.986 . S
Mg196 O205 2.114 . S
Mg196 O206 2.251 . S
Mg196 O209 2.010 . S
O197 Mg196 2.028 . S
O197 C200 1.250 . S
O198 Mg199 2.028 . S
O198 C200 1.248 . S
Mg199 O198 2.028 . S
Mg199 O204 2.032 . S
Mg199 O206 2.079 . S
C200 O197 1.250 . S
C200 O198 1.248 . S
C201 O202 1.264 . S
C201 O209 1.249 . S
O202 C201 1.264 . S
O203 Mg196 1.986 . S
O203 C207 1.246 . S
O204 Mg199 2.032 . S
O204 C207 1.259 . S
O205 Mg196 2.114 . S
O205 C208 1.252 . S
O206 Mg196 2.251 . S
O206 Mg199 2.079 . S
O206 C208 1.273 . S
C207 O203 1.246 . S
C207 O204 1.259 . S
C208 O205 1.252 . S
C208 O206 1.273 . S
O209 Mg196 2.010 . S
O209 C201 1.249 . S
Mg210 O211 2.028 . S
Mg210 O217 1.986 . S
Mg210 O219 2.114 . S
Mg210 O220 2.251 . S
Mg210 O223 2.010 . S
O211 Mg210 2.028 . S
O211 C214 1.250 . S
O212 Mg213 2.028 . S
O212 C214 1.248 . S
Mg213 O212 2.028 . S
Mg213 O218 2.032 . S
Mg213 O220 2.079 . S
C214 O211 1.250 . S
C214 O212 1.248 . S
C215 O216 1.264 . S
C215 O223 1.249 . S
O216 C215 1.264 . S
O217 Mg210 1.986 . S
O217 C221 1.246 . S
O218 Mg213 2.032 . S
O218 C221 1.259 . S
O219 Mg210 2.114 . S
O219 C222 1.252 . S
O220 Mg210 2.251 . S
O220 Mg213 2.079 . S
O220 C222 1.273 . S
C221 O217 1.246 . S
C221 O218 1.259 . S
C222 O219 1.252 . S
C222 O220 1.273 . S
O223 Mg210 2.010 . S
O223 C215 1.249 . S
Mg224 O225 2.028 . S
Mg224 O231 1.986 . S
Mg224 O233 2.114 . S
Mg224 O234 2.251 . S
Mg224 O237 2.010 . S
O225 Mg224 2.028 . S
O225 C228 1.250 . S
O226 Mg227 2.028 . S
O226 C228 1.248 . S
Mg227 O226 2.028 . S
Mg227 O232 2.032 . S
Mg227 O234 2.079 . S
C228 O225 1.250 . S
C228 O226 1.248 . S
C229 O230 1.264 . S
C229 O237 1.249 . S
O230 C229 1.264 . S
O231 Mg224 1.986 . S
O231 C235 1.246 . S
O232 Mg227 2.032 . S
O232 C235 1.259 . S
O233 Mg224 2.114 . S
O233 C236 1.252 . S
O234 Mg224 2.251 . S
O234 Mg227 2.079 . S
O234 C236 1.273 . S
C235 O231 1.246 . S
C235 O232 1.259 . S
C236 O233 1.252 . S
C236 O234 1.273 . S
O237 Mg224 2.010 . S
O237 C229 1.249 . S
Mg238 O239 2.028 . S
Mg238 O245 1.986 . S
Mg238 O247 2.114 . S
Mg238 O248 2.251 . S
Mg238 O251 2.010 . S
O239 Mg238 2.028 . S
O239 C242 1.250 . S
O240 Mg241 2.028 . S
O240 C242 1.248 . S
Mg241 O240 2.028 . S
Mg241 O246 2.032 . S
Mg241 O248 2.079 . S
C242 O239 1.250 . S
C242 O240 1.248 . S
C243 O244 1.291 . S
C243 O251 1.228 1_455 S
O244 C243 1.291 . S
O245 Mg238 1.986 . S
O245 C249 1.246 . S
O246 Mg241 2.032 . S
O246 C249 1.259 . S
O247 Mg238 2.114 . S
O247 C250 1.252 . S
O248 Mg238 2.251 . S
O248 Mg241 2.079 . S
O248 C250 1.273 . S
C249 O245 1.246 . S
C249 O246 1.259 . S
C250 O247 1.252 . S
C250 O248 1.273 . S
O251 Mg238 2.010 . S
O251 C243 1.228 1_655 S
H252 O278 0.856 . S
H253 O281 0.854 . S
H254 C289 0.930 . S
H255 C290 0.930 . S
H256 C292 0.930 . S
H257 C293 0.930 . S
H258 C295 0.931 . S
H259 C296 0.930 . S
H260 C298 0.930 . S
H261 C299 0.929 . S
H262 C301 0.930 . S
H263 C302 0.931 . S
H264 C304 0.930 . S
H265 C305 0.929 . S
H266 C307 0.931 . S
H267 C308 0.930 . S
H268 C310 0.930 . S
H269 C311 0.932 . S
H270 C313 0.930 . S
H271 C314 0.929 . S
H272 C316 0.931 . S
H273 C317 0.930 . S
H274 C319 0.929 . S
H275 C320 0.931 . S
H276 C322 0.930 . S
H277 C323 0.929 . S
O278 H252 0.856 . S
O278 C324 1.300 . S
O279 C324 1.209 . S
O280 C325 1.199 . S
O281 H253 0.854 . S
O281 C325 1.297 . S
C282 C283 1.404 . S
C282 C287 1.397 . S
C282 C288 1.492 . S
C283 C282 1.404 . S
C283 C284 1.396 . S
C283 C294 1.492 . S
C284 C283 1.396 . S
C284 C285 1.397 . S
C284 C300 1.509 . S
C285 C284 1.397 . S
C285 C286 1.412 . S
C285 C306 1.485 . S
C286 C285 1.412 . S
C286 C287 1.388 . S
C286 C312 1.490 . S
C287 C282 1.397 . S
C287 C286 1.388 . S
C287 C318 1.519 . S
C288 C282 1.492 . S
C288 C289 1.363 . S
C288 C293 1.390 . S
C289 H254 0.930 . S
C289 C288 1.363 . S
C289 C290 1.372 . S
C290 H255 0.930 . S
C290 C289 1.372 . S
C290 C291 1.383 . S
C291 C290 1.383 . S
C291 C292 1.395 . S
C292 H256 0.930 . S
C292 C291 1.395 . S
C292 C293 1.362 . S
C293 H257 0.930 . S
C293 C288 1.390 . S
C293 C292 1.362 . S
C294 C283 1.492 . S
C294 C295 1.377 . S
C294 C299 1.397 . S
C295 H258 0.931 . S
C295 C294 1.377 . S
C295 C296 1.376 . S
C296 H259 0.930 . S
C296 C295 1.376 . S
C296 C297 1.376 . S
C297 C296 1.376 . S
C297 C298 1.378 . S
C297 C324 1.486 . S
C298 H260 0.930 . S
C298 C297 1.378 . S
C298 C299 1.376 . S
C299 H261 0.929 . S
C299 C294 1.397 . S
C299 C298 1.376 . S
C300 C284 1.509 . S
C300 C301 1.391 . S
C300 C305 1.386 . S
C301 H262 0.930 . S
C301 C300 1.391 . S
C301 C302 1.375 . S
C302 H263 0.931 . S
C302 C301 1.375 . S
C302 C303 1.375 . S
C303 C302 1.375 . S
C303 C304 1.361 . S
C304 H264 0.930 . S
C304 C303 1.361 . S
C304 C305 1.399 . S
C305 H265 0.929 . S
C305 C300 1.386 . S
C305 C304 1.399 . S
C306 C285 1.485 . S
C306 C307 1.394 . S
C306 C311 1.360 . S
C307 H266 0.931 . S
C307 C306 1.394 . S
C307 C308 1.372 . S
C308 H267 0.930 . S
C308 C307 1.372 . S
C308 C309 1.397 . S
C309 C308 1.397 . S
C309 C310 1.390 . S
C309 C325 1.476 . S
C310 H268 0.930 . S
C310 C309 1.390 . S
C310 C311 1.366 . S
C311 H269 0.932 . S
C311 C306 1.360 . S
C311 C310 1.366 . S
C312 C286 1.490 . S
C312 C313 1.380 . S
C312 C317 1.386 . S
C313 H270 0.930 . S
C313 C312 1.380 . S
C313 C314 1.381 . S
C314 H271 0.929 . S
C314 C313 1.381 . S
C314 C315 1.371 . S
C315 C314 1.371 . S
C315 C316 1.380 . S
C316 H272 0.931 . S
C316 C315 1.380 . S
C316 C317 1.387 . S
C317 H273 0.930 . S
C317 C312 1.386 . S
C317 C316 1.387 . S
C318 C287 1.519 . S
C318 C319 1.377 . S
C318 C323 1.361 . S
C319 H274 0.929 . S
C319 C318 1.377 . S
C319 C320 1.386 . S
C320 H275 0.931 . S
C320 C319 1.386 . S
C320 C321 1.363 . S
C321 C320 1.363 . S
C321 C322 1.385 . S
C322 H276 0.930 . S
C322 C321 1.385 . S
C322 C323 1.396 . S
C323 H277 0.929 . S
C323 C318 1.361 . S
C323 C322 1.396 . S
C324 O278 1.300 . S
C324 O279 1.209 . S
C324 C297 1.486 . S
C325 O280 1.199 . S
C325 O281 1.297 . S
C325 C309 1.476 . S
H326 O352 0.856 . S
H327 O355 0.854 . S
H328 C363 0.930 . S
H329 C364 0.930 . S
H330 C366 0.930 . S
H331 C367 0.930 . S
H332 C369 0.931 . S
H333 C370 0.930 . S
H334 C372 0.930 . S
H335 C373 0.929 . S
H336 C375 0.930 . S
H337 C376 0.931 . S
H338 C378 0.930 . S
H339 C379 0.929 . S
H340 C381 0.931 . S
H341 C382 0.930 . S
H342 C384 0.930 . S
H343 C385 0.932 . S
H344 C387 0.930 . S
H345 C388 0.929 . S
H346 C390 0.931 . S
H347 C391 0.930 . S
H348 C393 0.929 . S
H349 C394 0.931 . S
H350 C396 0.930 . S
H351 C397 0.929 . S
O352 H326 0.856 . S
O352 C398 1.300 . S
O353 C398 1.209 . S
O354 C399 1.199 . S
O355 H327 0.854 . S
O355 C399 1.297 . S
C356 C357 1.404 . S
C356 C361 1.397 . S
C356 C362 1.492 . S
C357 C356 1.404 . S
C357 C358 1.396 . S
C357 C368 1.492 . S
C358 C357 1.396 . S
C358 C359 1.397 . S
C358 C374 1.509 . S
C359 C358 1.397 . S
C359 C360 1.412 . S
C359 C380 1.485 . S
C360 C359 1.412 . S
C360 C361 1.388 . S
C360 C386 1.490 . S
C361 C356 1.397 . S
C361 C360 1.388 . S
C361 C392 1.519 . S
C362 C356 1.492 . S
C362 C363 1.363 . S
C362 C367 1.390 . S
C363 H328 0.930 . S
C363 C362 1.363 . S
C363 C364 1.372 . S
C364 H329 0.930 . S
C364 C363 1.372 . S
C364 C365 1.383 . S
C365 C364 1.383 . S
C365 C366 1.395 . S
C366 H330 0.930 . S
C366 C365 1.395 . S
C366 C367 1.362 . S
C367 H331 0.930 . S
C367 C362 1.390 . S
C367 C366 1.362 . S
C368 C357 1.492 . S
C368 C369 1.377 . S
C368 C373 1.397 . S
C369 H332 0.931 . S
C369 C368 1.377 . S
C369 C370 1.376 . S
C370 H333 0.930 . S
C370 C369 1.376 . S
C370 C371 1.376 . S
C371 C370 1.376 . S
C371 C372 1.378 . S
C371 C398 1.486 . S
C372 H334 0.930 . S
C372 C371 1.378 . S
C372 C373 1.376 . S
C373 H335 0.929 . S
C373 C368 1.397 . S
C373 C372 1.376 . S
C374 C358 1.509 . S
C374 C375 1.391 . S
C374 C379 1.386 . S
C375 H336 0.930 . S
C375 C374 1.391 . S
C375 C376 1.375 . S
C376 H337 0.931 . S
C376 C375 1.375 . S
C376 C377 1.375 . S
C377 C376 1.375 . S
C377 C378 1.361 . S
C378 H338 0.930 . S
C378 C377 1.361 . S
C378 C379 1.399 . S
C379 H339 0.929 . S
C379 C374 1.386 . S
C379 C378 1.399 . S
C380 C359 1.485 . S
C380 C381 1.394 . S
C380 C385 1.360 . S
C381 H340 0.931 . S
C381 C380 1.394 . S
C381 C382 1.372 . S
C382 H341 0.930 . S
C382 C381 1.372 . S
C382 C383 1.397 . S
C383 C382 1.397 . S
C383 C384 1.390 . S
C383 C399 1.476 . S
C384 H342 0.930 . S
C384 C383 1.390 . S
C384 C385 1.366 . S
C385 H343 0.932 . S
C385 C380 1.360 . S
C385 C384 1.366 . S
C386 C360 1.490 . S
C386 C387 1.380 . S
C386 C391 1.386 . S
C387 H344 0.930 . S
C387 C386 1.380 . S
C387 C388 1.381 . S
C388 H345 0.929 . S
C388 C387 1.381 . S
C388 C389 1.371 . S
C389 C388 1.371 . S
C389 C390 1.380 . S
C390 H346 0.931 . S
C390 C389 1.380 . S
C390 C391 1.387 . S
C391 H347 0.930 . S
C391 C386 1.386 . S
C391 C390 1.387 . S
C392 C361 1.519 . S
C392 C393 1.377 . S
C392 C397 1.361 . S
C393 H348 0.929 . S
C393 C392 1.377 . S
C393 C394 1.386 . S
C394 H349 0.931 . S
C394 C393 1.386 . S
C394 C395 1.363 . S
C395 C394 1.363 . S
C395 C396 1.385 . S
C396 H350 0.930 . S
C396 C395 1.385 . S
C396 C397 1.396 . S
C397 H351 0.929 . S
C397 C392 1.361 . S
C397 C396 1.396 . S
C398 O352 1.300 . S
C398 O353 1.209 . S
C398 C371 1.486 . S
C399 O354 1.199 . S
C399 O355 1.297 . S
C399 C383 1.476 . S
H400 O426 0.856 . S
H401 O429 0.854 . S
H402 C437 0.930 . S
H403 C438 0.930 . S
H404 C440 0.930 . S
H405 C441 0.930 . S
H406 C443 0.931 . S
H407 C444 0.930 . S
H408 C446 0.930 . S
H409 C447 0.929 . S
H410 C449 0.930 . S
H411 C450 0.931 . S
H412 C452 0.930 . S
H413 C453 0.929 . S
H414 C455 0.931 . S
H415 C456 0.930 . S
H416 C458 0.930 . S
H417 C459 0.932 . S
H418 C461 0.930 . S
H419 C462 0.929 . S
H420 C464 0.931 . S
H421 C465 0.930 . S
H422 C467 0.929 . S
H423 C468 0.931 . S
H424 C470 0.930 . S
H425 C471 0.929 . S
O426 H400 0.856 . S
O426 C472 1.300 . S
O427 C472 1.209 . S
O428 C473 1.199 . S
O429 H401 0.854 . S
O429 C473 1.297 . S
C430 C431 1.404 . S
C430 C435 1.397 . S
C430 C436 1.492 . S
C431 C430 1.404 . S
C431 C432 1.396 . S
C431 C442 1.492 . S
C432 C431 1.396 . S
C432 C433 1.397 . S
C432 C448 1.509 . S
C433 C432 1.397 . S
C433 C434 1.412 . S
C433 C454 1.485 . S
C434 C433 1.412 . S
C434 C435 1.388 . S
C434 C460 1.490 . S
C435 C430 1.397 . S
C435 C434 1.388 . S
C435 C466 1.519 . S
C436 C430 1.492 . S
C436 C437 1.363 . S
C436 C441 1.390 . S
C437 H402 0.930 . S
C437 C436 1.363 . S
C437 C438 1.372 . S
C438 H403 0.930 . S
C438 C437 1.372 . S
C438 C439 1.383 . S
C439 C438 1.383 . S
C439 C440 1.395 . S
C440 H404 0.930 . S
C440 C439 1.395 . S
C440 C441 1.362 . S
C441 H405 0.930 . S
C441 C436 1.390 . S
C441 C440 1.362 . S
C442 C431 1.492 . S
C442 C443 1.377 . S
C442 C447 1.397 . S
C443 H406 0.931 . S
C443 C442 1.377 . S
C443 C444 1.376 . S
C444 H407 0.930 . S
C444 C443 1.376 . S
C444 C445 1.376 . S
C445 C444 1.376 . S
C445 C446 1.378 . S
C445 C472 1.486 . S
C446 H408 0.930 . S
C446 C445 1.378 . S
C446 C447 1.376 . S
C447 H409 0.929 . S
C447 C442 1.397 . S
C447 C446 1.376 . S
C448 C432 1.509 . S
C448 C449 1.391 . S
C448 C453 1.386 . S
C449 H410 0.930 . S
C449 C448 1.391 . S
C449 C450 1.375 . S
C450 H411 0.931 . S
C450 C449 1.375 . S
C450 C451 1.375 . S
C451 C450 1.375 . S
C451 C452 1.361 . S
C452 H412 0.930 . S
C452 C451 1.361 . S
C452 C453 1.399 . S
C453 H413 0.929 . S
C453 C448 1.386 . S
C453 C452 1.399 . S
C454 C433 1.485 . S
C454 C455 1.394 . S
C454 C459 1.360 . S
C455 H414 0.931 . S
C455 C454 1.394 . S
C455 C456 1.372 . S
C456 H415 0.930 . S
C456 C455 1.372 . S
C456 C457 1.397 . S
C457 C456 1.397 . S
C457 C458 1.390 . S
C457 C473 1.476 . S
C458 H416 0.930 . S
C458 C457 1.390 . S
C458 C459 1.366 . S
C459 H417 0.932 . S
C459 C454 1.360 . S
C459 C458 1.366 . S
C460 C434 1.490 . S
C460 C461 1.380 . S
C460 C465 1.386 . S
C461 H418 0.930 . S
C461 C460 1.380 . S
C461 C462 1.381 . S
C462 H419 0.929 . S
C462 C461 1.381 . S
C462 C463 1.371 . S
C463 C462 1.371 . S
C463 C464 1.380 . S
C464 H420 0.931 . S
C464 C463 1.380 . S
C464 C465 1.387 . S
C465 H421 0.930 . S
C465 C460 1.386 . S
C465 C464 1.387 . S
C466 C435 1.519 . S
C466 C467 1.377 . S
C466 C471 1.361 . S
C467 H422 0.929 . S
C467 C466 1.377 . S
C467 C468 1.386 . S
C468 H423 0.931 . S
C468 C467 1.386 . S
C468 C469 1.363 . S
C469 C468 1.363 . S
C469 C470 1.385 . S
C470 H424 0.930 . S
C470 C469 1.385 . S
C470 C471 1.396 . S
C471 H425 0.929 . S
C471 C466 1.361 . S
C471 C470 1.396 . S
C472 O426 1.300 . S
C472 O427 1.209 . S
C472 C445 1.486 . S
C473 O428 1.199 . S
C473 O429 1.297 . S
C473 C457 1.476 . S
H474 O500 0.856 . S
H475 O503 0.854 . S
H476 C511 0.930 . S
H477 C512 0.930 . S
H478 C514 0.930 . S
H479 C515 0.930 . S
H480 C517 0.931 . S
H481 C518 0.930 . S
H482 C520 0.930 . S
H483 C521 0.929 . S
H484 C523 0.930 . S
H485 C524 0.931 . S
H486 C526 0.930 . S
H487 C527 0.929 . S
H488 C529 0.931 . S
H489 C530 0.930 . S
H490 C532 0.930 . S
H491 C533 0.932 . S
H492 C535 0.930 . S
H493 C536 0.929 . S
H494 C538 0.931 . S
H495 C539 0.930 . S
H496 C541 0.929 . S
H497 C542 0.931 . S
H498 C544 0.930 . S
H499 C545 0.929 . S
O500 H474 0.856 . S
O500 C546 1.300 . S
O501 C546 1.209 . S
O502 C547 1.199 . S
O503 H475 0.854 . S
O503 C547 1.297 . S
C504 C505 1.404 . S
C504 C509 1.397 . S
C504 C510 1.492 . S
C505 C504 1.404 . S
C505 C506 1.396 . S
C505 C516 1.492 . S
C506 C505 1.396 . S
C506 C507 1.397 . S
C506 C522 1.509 . S
C507 C506 1.397 . S
C507 C508 1.412 . S
C507 C528 1.485 . S
C508 C507 1.412 . S
C508 C509 1.388 . S
C508 C534 1.490 . S
C509 C504 1.397 . S
C509 C508 1.388 . S
C509 C540 1.519 . S
C510 C504 1.492 . S
C510 C511 1.363 . S
C510 C515 1.390 . S
C511 H476 0.930 . S
C511 C510 1.363 . S
C511 C512 1.372 . S
C512 H477 0.930 . S
C512 C511 1.372 . S
C512 C513 1.383 . S
C513 C512 1.383 . S
C513 C514 1.395 . S
C514 H478 0.930 . S
C514 C513 1.395 . S
C514 C515 1.362 . S
C515 H479 0.930 . S
C515 C510 1.390 . S
C515 C514 1.362 . S
C516 C505 1.492 . S
C516 C517 1.377 . S
C516 C521 1.397 . S
C517 H480 0.931 . S
C517 C516 1.377 . S
C517 C518 1.376 . S
C518 H481 0.930 . S
C518 C517 1.376 . S
C518 C519 1.376 . S
C519 C518 1.376 . S
C519 C520 1.378 . S
C519 C546 1.486 . S
C520 H482 0.930 . S
C520 C519 1.378 . S
C520 C521 1.376 . S
C521 H483 0.929 . S
C521 C516 1.397 . S
C521 C520 1.376 . S
C522 C506 1.509 . S
C522 C523 1.391 . S
C522 C527 1.386 . S
C523 H484 0.930 . S
C523 C522 1.391 . S
C523 C524 1.375 . S
C524 H485 0.931 . S
C524 C523 1.375 . S
C524 C525 1.375 . S
C525 C524 1.375 . S
C525 C526 1.361 . S
C526 H486 0.930 . S
C526 C525 1.361 . S
C526 C527 1.399 . S
C527 H487 0.929 . S
C527 C522 1.386 . S
C527 C526 1.399 . S
C528 C507 1.485 . S
C528 C529 1.394 . S
C528 C533 1.360 . S
C529 H488 0.931 . S
C529 C528 1.394 . S
C529 C530 1.372 . S
C530 H489 0.930 . S
C530 C529 1.372 . S
C530 C531 1.397 . S
C531 C530 1.397 . S
C531 C532 1.390 . S
C531 C547 1.476 . S
C532 H490 0.930 . S
C532 C531 1.390 . S
C532 C533 1.366 . S
C533 H491 0.932 . S
C533 C528 1.360 . S
C533 C532 1.366 . S
C534 C508 1.490 . S
C534 C535 1.380 . S
C534 C539 1.386 . S
C535 H492 0.930 . S
C535 C534 1.380 . S
C535 C536 1.381 . S
C536 H493 0.929 . S
C536 C535 1.381 . S
C536 C537 1.371 . S
C537 C536 1.371 . S
C537 C538 1.380 . S
C538 H494 0.931 . S
C538 C537 1.380 . S
C538 C539 1.387 . S
C539 H495 0.930 . S
C539 C534 1.386 . S
C539 C538 1.387 . S
C540 C509 1.519 . S
C540 C541 1.377 . S
C540 C545 1.361 . S
C541 H496 0.929 . S
C541 C540 1.377 . S
C541 C542 1.386 . S
C542 H497 0.931 . S
C542 C541 1.386 . S
C542 C543 1.363 . S
C543 C542 1.363 . S
C543 C544 1.385 . S
C544 H498 0.930 . S
C544 C543 1.385 . S
C544 C545 1.396 . S
C545 H499 0.929 . S
C545 C540 1.361 . S
C545 C544 1.396 . S
C546 O500 1.300 . S
C546 O501 1.209 . S
C546 C519 1.486 . S
C547 O502 1.199 . S
C547 O503 1.297 . S
C547 C531 1.476 . S
H548 O574 0.856 1_554 S
H549 O577 0.854 . S
H550 C585 0.930 . S
H551 C586 0.930 . S
H552 C588 0.930 . S
H553 C589 0.930 . S
H554 C591 0.931 . S
H555 C592 0.930 . S
H556 C594 0.930 . S
H557 C595 0.929 . S
H558 C597 0.930 . S
H559 C598 0.931 . S
H560 C600 0.930 . S
H561 C601 0.929 . S
H562 C603 0.931 . S
H563 C604 0.930 . S
H564 C606 0.930 . S
H565 C607 0.932 . S
H566 C609 0.930 . S
H567 C610 0.929 . S
H568 C612 0.931 . S
H569 C613 0.930 . S
H570 C615 0.929 . S
H571 C616 0.931 . S
H572 C618 0.930 . S
H573 C619 0.929 . S
O574 H548 0.856 1_556 S
O574 C620 1.300 . S
O575 C620 1.209 . S
O576 C621 1.199 . S
O577 H549 0.854 . S
O577 C621 1.297 . S
C578 C579 1.404 . S
C578 C583 1.397 . S
C578 C584 1.492 . S
C579 C578 1.404 . S
C579 C580 1.396 . S
C579 C590 1.492 . S
C580 C579 1.396 . S
C580 C581 1.397 . S
C580 C596 1.509 . S
C581 C580 1.397 . S
C581 C582 1.412 . S
C581 C602 1.485 . S
C582 C581 1.412 . S
C582 C583 1.388 . S
C582 C608 1.490 . S
C583 C578 1.397 . S
C583 C582 1.388 . S
C583 C614 1.519 . S
C584 C578 1.492 . S
C584 C585 1.363 . S
C584 C589 1.390 . S
C585 H550 0.930 . S
C585 C584 1.363 . S
C585 C586 1.372 . S
C586 H551 0.930 . S
C586 C585 1.372 . S
C586 C587 1.383 . S
C587 C586 1.383 . S
C587 C588 1.395 . S
C588 H552 0.930 . S
C588 C587 1.395 . S
C588 C589 1.362 . S
C589 H553 0.930 . S
C589 C584 1.390 . S
C589 C588 1.362 . S
C590 C579 1.492 . S
C590 C591 1.377 . S
C590 C595 1.397 . S
C591 H554 0.931 . S
C591 C590 1.377 . S
C591 C592 1.376 . S
C592 H555 0.930 . S
C592 C591 1.376 . S
C592 C593 1.376 . S
C593 C592 1.376 . S
C593 C594 1.378 . S
C593 C620 1.486 . S
C594 H556 0.930 . S
C594 C593 1.378 . S
C594 C595 1.376 . S
C595 H557 0.929 . S
C595 C590 1.397 . S
C595 C594 1.376 . S
C596 C580 1.509 . S
C596 C597 1.391 . S
C596 C601 1.386 . S
C597 H558 0.930 . S
C597 C596 1.391 . S
C597 C598 1.375 . S
C598 H559 0.931 . S
C598 C597 1.375 . S
C598 C599 1.375 . S
C599 C598 1.375 . S
C599 C600 1.361 . S
C600 H560 0.930 . S
C600 C599 1.361 . S
C600 C601 1.399 . S
C601 H561 0.929 . S
C601 C596 1.386 . S
C601 C600 1.399 . S
C602 C581 1.485 . S
C602 C603 1.394 . S
C602 C607 1.360 . S
C603 H562 0.931 . S
C603 C602 1.394 . S
C603 C604 1.372 . S
C604 H563 0.930 . S
C604 C603 1.372 . S
C604 C605 1.397 . S
C605 C604 1.397 . S
C605 C606 1.390 . S
C605 C621 1.476 . S
C606 H564 0.930 . S
C606 C605 1.390 . S
C606 C607 1.366 . S
C607 H565 0.932 . S
C607 C602 1.360 . S
C607 C606 1.366 . S
C608 C582 1.490 . S
C608 C609 1.380 . S
C608 C613 1.386 . S
C609 H566 0.930 . S
C609 C608 1.380 . S
C609 C610 1.381 . S
C610 H567 0.929 . S
C610 C609 1.381 . S
C610 C611 1.371 . S
C611 C610 1.371 . S
C611 C612 1.380 . S
C612 H568 0.931 . S
C612 C611 1.380 . S
C612 C613 1.387 . S
C613 H569 0.930 . S
C613 C608 1.386 . S
C613 C612 1.387 . S
C614 C583 1.519 . S
C614 C615 1.377 . S
C614 C619 1.361 . S
C615 H570 0.929 . S
C615 C614 1.377 . S
C615 C616 1.386 . S
C616 H571 0.931 . S
C616 C615 1.386 . S
C616 C617 1.363 . S
C617 C616 1.363 . S
C617 C618 1.385 . S
C618 H572 0.930 . S
C618 C617 1.385 . S
C618 C619 1.396 . S
C619 H573 0.929 . S
C619 C614 1.361 . S
C619 C618 1.396 . S
C620 O574 1.300 . S
C620 O575 1.209 . S
C620 C593 1.486 . S
C621 O576 1.199 . S
C621 O577 1.297 . S
C621 C605 1.476 . S
H622 O648 0.856 . S
H623 O651 0.854 . S
H624 C659 0.930 . S
H625 C660 0.930 . S
H626 C662 0.930 . S
H627 C663 0.930 . S
H628 C665 0.931 . S
H629 C666 0.930 . S
H630 C668 0.930 . S
H631 C669 0.929 . S
H632 C671 0.930 . S
H633 C672 0.931 . S
H634 C674 0.930 . S
H635 C675 0.929 . S
H636 C677 0.931 . S
H637 C678 0.930 . S
H638 C680 0.930 . S
H639 C681 0.932 . S
H640 C683 0.930 . S
H641 C684 0.929 . S
H642 C686 0.931 . S
H643 C687 0.930 . S
H644 C689 0.929 . S
H645 C690 0.931 . S
H646 C692 0.930 . S
H647 C693 0.929 . S
O648 H622 0.856 . S
O648 C694 1.300 1_554 S
O649 C694 1.209 . S
O650 C695 1.199 . S
O651 H623 0.854 . S
O651 C695 1.297 . S
C652 C653 1.404 . S
C652 C657 1.397 . S
C652 C658 1.492 . S
C653 C652 1.404 . S
C653 C654 1.396 . S
C653 C664 1.492 . S
C654 C653 1.396 . S
C654 C655 1.397 . S
C654 C670 1.509 . S
C655 C654 1.397 . S
C655 C656 1.412 . S
C655 C676 1.485 . S
C656 C655 1.412 . S
C656 C657 1.388 . S
C656 C682 1.490 . S
C657 C652 1.397 . S
C657 C656 1.388 . S
C657 C688 1.519 . S
C658 C652 1.492 . S
C658 C659 1.363 . S
C658 C663 1.390 . S
C659 H624 0.930 . S
C659 C658 1.363 . S
C659 C660 1.372 . S
C660 H625 0.930 . S
C660 C659 1.372 . S
C660 C661 1.383 . S
C661 C660 1.383 . S
C661 C662 1.395 . S
C662 H626 0.930 . S
C662 C661 1.395 . S
C662 C663 1.362 . S
C663 H627 0.930 . S
C663 C658 1.390 . S
C663 C662 1.362 . S
C664 C653 1.492 . S
C664 C665 1.377 . S
C664 C669 1.397 . S
C665 H628 0.931 . S
C665 C664 1.377 . S
C665 C666 1.376 . S
C666 H629 0.930 . S
C666 C665 1.376 . S
C666 C667 1.376 . S
C667 C666 1.376 . S
C667 C668 1.378 . S
C667 C694 1.486 . S
C668 H630 0.930 . S
C668 C667 1.378 . S
C668 C669 1.376 . S
C669 H631 0.929 . S
C669 C664 1.397 . S
C669 C668 1.376 . S
C670 C654 1.509 . S
C670 C671 1.391 . S
C670 C675 1.386 . S
C671 H632 0.930 . S
C671 C670 1.391 . S
C671 C672 1.375 . S
C672 H633 0.931 . S
C672 C671 1.375 . S
C672 C673 1.375 . S
C673 C672 1.375 . S
C673 C674 1.361 . S
C674 H634 0.930 . S
C674 C673 1.361 . S
C674 C675 1.399 . S
C675 H635 0.929 . S
C675 C670 1.386 . S
C675 C674 1.399 . S
C676 C655 1.485 . S
C676 C677 1.394 . S
C676 C681 1.360 . S
C677 H636 0.931 . S
C677 C676 1.394 . S
C677 C678 1.372 . S
C678 H637 0.930 . S
C678 C677 1.372 . S
C678 C679 1.397 . S
C679 C678 1.397 . S
C679 C680 1.390 . S
C679 C695 1.476 . S
C680 H638 0.930 . S
C680 C679 1.390 . S
C680 C681 1.366 . S
C681 H639 0.932 . S
C681 C676 1.360 . S
C681 C680 1.366 . S
C682 C656 1.490 . S
C682 C683 1.380 . S
C682 C687 1.386 . S
C683 H640 0.930 . S
C683 C682 1.380 . S
C683 C684 1.381 . S
C684 H641 0.929 . S
C684 C683 1.381 . S
C684 C685 1.371 . S
C685 C684 1.371 . S
C685 C686 1.380 . S
C686 H642 0.931 . S
C686 C685 1.380 . S
C686 C687 1.387 . S
C687 H643 0.930 . S
C687 C682 1.386 . S
C687 C686 1.387 . S
C688 C657 1.519 . S
C688 C689 1.377 . S
C688 C693 1.361 . S
C689 H644 0.929 . S
C689 C688 1.377 . S
C689 C690 1.386 . S
C690 H645 0.931 . S
C690 C689 1.386 . S
C690 C691 1.363 . S
C691 C690 1.363 . S
C691 C692 1.385 . S
C692 H646 0.930 . S
C692 C691 1.385 . S
C692 C693 1.396 . S
C693 H647 0.929 . S
C693 C688 1.361 . S
C693 C692 1.396 . S
C694 O648 1.300 1_556 S
C694 O649 1.209 . S
C694 C667 1.486 . S
C695 O650 1.199 . S
C695 O651 1.297 . S
C695 C679 1.476 . S
H696 O722 0.856 . S
H697 O725 0.854 . S
H698 C733 0.930 . S
H699 C734 0.930 . S
H700 C736 0.930 . S
H701 C737 0.930 . S
H702 C739 0.931 . S
H703 C740 0.930 . S
H704 C742 0.930 . S
H705 C743 0.929 . S
H706 C745 0.930 . S
H707 C746 0.931 . S
H708 C748 0.930 . S
H709 C749 0.929 . S
H710 C751 0.931 . S
H711 C752 0.930 . S
H712 C754 0.930 . S
H713 C755 0.932 . S
H714 C757 0.930 . S
H715 C758 0.929 . S
H716 C760 0.931 . S
H717 C761 0.930 . S
H718 C763 0.929 . S
H719 C764 0.931 . S
H720 C766 0.930 . S
H721 C767 0.929 . S
O722 H696 0.856 . S
O722 C768 1.300 . S
O723 C768 1.209 . S
O724 C769 1.199 . S
O725 H697 0.854 . S
O725 C769 1.297 . S
C726 C727 1.404 . S
C726 C731 1.397 . S
C726 C732 1.492 . S
C727 C726 1.404 . S
C727 C728 1.396 . S
C727 C738 1.492 . S
C728 C727 1.396 . S
C728 C729 1.397 . S
C728 C744 1.509 . S
C729 C728 1.397 . S
C729 C730 1.412 . S
C729 C750 1.485 . S
C730 C729 1.412 . S
C730 C731 1.388 . S
C730 C756 1.490 . S
C731 C726 1.397 . S
C731 C730 1.388 . S
C731 C762 1.519 . S
C732 C726 1.492 . S
C732 C733 1.363 . S
C732 C737 1.390 . S
C733 H698 0.930 . S
C733 C732 1.363 . S
C733 C734 1.372 . S
C734 H699 0.930 . S
C734 C733 1.372 . S
C734 C735 1.383 . S
C735 C734 1.383 . S
C735 C736 1.395 . S
C736 H700 0.930 . S
C736 C735 1.395 . S
C736 C737 1.362 . S
C737 H701 0.930 . S
C737 C732 1.390 . S
C737 C736 1.362 . S
C738 C727 1.492 . S
C738 C739 1.377 . S
C738 C743 1.397 . S
C739 H702 0.931 . S
C739 C738 1.377 . S
C739 C740 1.376 . S
C740 H703 0.930 . S
C740 C739 1.376 . S
C740 C741 1.376 . S
C741 C740 1.376 . S
C741 C742 1.378 . S
C741 C768 1.486 . S
C742 H704 0.930 . S
C742 C741 1.378 . S
C742 C743 1.376 . S
C743 H705 0.929 . S
C743 C738 1.397 . S
C743 C742 1.376 . S
C744 C728 1.509 . S
C744 C745 1.391 . S
C744 C749 1.386 . S
C745 H706 0.930 . S
C745 C744 1.391 . S
C745 C746 1.375 . S
C746 H707 0.931 . S
C746 C745 1.375 . S
C746 C747 1.375 . S
C747 C746 1.375 . S
C747 C748 1.361 . S
C748 H708 0.930 . S
C748 C747 1.361 . S
C748 C749 1.399 . S
C749 H709 0.929 . S
C749 C744 1.386 . S
C749 C748 1.399 . S
C750 C729 1.485 . S
C750 C751 1.394 . S
C750 C755 1.360 . S
C751 H710 0.931 . S
C751 C750 1.394 . S
C751 C752 1.372 . S
C752 H711 0.930 . S
C752 C751 1.372 . S
C752 C753 1.397 . S
C753 C752 1.397 . S
C753 C754 1.390 . S
C753 C769 1.476 . S
C754 H712 0.930 . S
C754 C753 1.390 . S
C754 C755 1.366 . S
C755 H713 0.932 . S
C755 C750 1.360 . S
C755 C754 1.366 . S
C756 C730 1.490 . S
C756 C757 1.380 . S
C756 C761 1.386 . S
C757 H714 0.930 . S
C757 C756 1.380 . S
C757 C758 1.381 . S
C758 H715 0.929 . S
C758 C757 1.381 . S
C758 C759 1.371 . S
C759 C758 1.371 . S
C759 C760 1.380 . S
C760 H716 0.931 . S
C760 C759 1.380 . S
C760 C761 1.387 . S
C761 H717 0.930 . S
C761 C756 1.386 . S
C761 C760 1.387 . S
C762 C731 1.519 . S
C762 C763 1.377 . S
C762 C767 1.361 . S
C763 H718 0.929 . S
C763 C762 1.377 . S
C763 C764 1.386 . S
C764 H719 0.931 . S
C764 C763 1.386 . S
C764 C765 1.363 . S
C765 C764 1.363 . S
C765 C766 1.385 . S
C766 H720 0.930 . S
C766 C765 1.385 . S
C766 C767 1.396 . S
C767 H721 0.929 . S
C767 C762 1.361 . S
C767 C766 1.396 . S
C768 O722 1.300 . S
C768 O723 1.209 . S
C768 C741 1.486 . S
C769 O724 1.199 . S
C769 O725 1.297 . S
C769 C753 1.476 . S
H770 O796 0.856 . S
H771 O799 0.854 . S
H772 C807 0.930 . S
H773 C808 0.930 . S
H774 C810 0.930 . S
H775 C811 0.930 . S
H776 C813 0.931 . S
H777 C814 0.930 . S
H778 C816 0.930 . S
H779 C817 0.929 . S
H780 C819 0.930 . S
H781 C820 0.931 . S
H782 C822 0.930 . S
H783 C823 0.929 . S
H784 C825 0.931 . S
H785 C826 0.930 . S
H786 C828 0.930 . S
H787 C829 0.932 . S
H788 C831 0.930 . S
H789 C832 0.929 . S
H790 C834 0.931 . S
H791 C835 0.930 . S
H792 C837 0.929 . S
H793 C838 0.931 . S
H794 C840 0.930 . S
H795 C841 0.929 . S
O796 H770 0.856 . S
O796 C842 1.300 . S
O797 C842 1.209 . S
O798 C843 1.199 . S
O799 H771 0.854 . S
O799 C843 1.297 . S
C800 C801 1.404 . S
C800 C805 1.397 . S
C800 C806 1.492 . S
C801 C800 1.404 . S
C801 C802 1.396 . S
C801 C812 1.492 . S
C802 C801 1.396 . S
C802 C803 1.397 . S
C802 C818 1.509 . S
C803 C802 1.397 . S
C803 C804 1.412 . S
C803 C824 1.485 . S
C804 C803 1.412 . S
C804 C805 1.388 . S
C804 C830 1.490 . S
C805 C800 1.397 . S
C805 C804 1.388 . S
C805 C836 1.519 . S
C806 C800 1.492 . S
C806 C807 1.363 . S
C806 C811 1.390 . S
C807 H772 0.930 . S
C807 C806 1.363 . S
C807 C808 1.372 . S
C808 H773 0.930 . S
C808 C807 1.372 . S
C808 C809 1.383 . S
C809 C808 1.383 . S
C809 C810 1.395 . S
C810 H774 0.930 . S
C810 C809 1.395 . S
C810 C811 1.362 . S
C811 H775 0.930 . S
C811 C806 1.390 . S
C811 C810 1.362 . S
C812 C801 1.492 . S
C812 C813 1.377 . S
C812 C817 1.397 . S
C813 H776 0.931 . S
C813 C812 1.377 . S
C813 C814 1.376 . S
C814 H777 0.930 . S
C814 C813 1.376 . S
C814 C815 1.376 . S
C815 C814 1.376 . S
C815 C816 1.378 . S
C815 C842 1.486 . S
C816 H778 0.930 . S
C816 C815 1.378 . S
C816 C817 1.376 . S
C817 H779 0.929 . S
C817 C812 1.397 . S
C817 C816 1.376 . S
C818 C802 1.509 . S
C818 C819 1.391 . S
C818 C823 1.386 . S
C819 H780 0.930 . S
C819 C818 1.391 . S
C819 C820 1.375 . S
C820 H781 0.931 . S
C820 C819 1.375 . S
C820 C821 1.375 . S
C821 C820 1.375 . S
C821 C822 1.361 . S
C822 H782 0.930 . S
C822 C821 1.361 . S
C822 C823 1.399 . S
C823 H783 0.929 . S
C823 C818 1.386 . S
C823 C822 1.399 . S
C824 C803 1.485 . S
C824 C825 1.394 . S
C824 C829 1.360 . S
C825 H784 0.931 . S
C825 C824 1.394 . S
C825 C826 1.372 . S
C826 H785 0.930 . S
C826 C825 1.372 . S
C826 C827 1.397 . S
C827 C826 1.397 . S
C827 C828 1.390 . S
C827 C843 1.476 . S
C828 H786 0.930 . S
C828 C827 1.390 . S
C828 C829 1.366 . S
C829 H787 0.932 . S
C829 C824 1.360 . S
C829 C828 1.366 . S
C830 C804 1.490 . S
C830 C831 1.380 . S
C830 C835 1.386 . S
C831 H788 0.930 . S
C831 C830 1.380 . S
C831 C832 1.381 . S
C832 H789 0.929 . S
C832 C831 1.381 . S
C832 C833 1.371 . S
C833 C832 1.371 . S
C833 C834 1.380 . S
C834 H790 0.931 . S
C834 C833 1.380 . S
C834 C835 1.387 . S
C835 H791 0.930 . S
C835 C830 1.386 . S
C835 C834 1.387 . S
C836 C805 1.519 . S
C836 C837 1.377 . S
C836 C841 1.361 . S
C837 H792 0.929 . S
C837 C836 1.377 . S
C837 C838 1.386 . S
C838 H793 0.931 . S
C838 C837 1.386 . S
C838 C839 1.363 . S
C839 C838 1.363 . S
C839 C840 1.385 . S
C840 H794 0.930 . S
C840 C839 1.385 . S
C840 C841 1.396 . S
C841 H795 0.929 . S
C841 C836 1.361 . S
C841 C840 1.396 . S
C842 O796 1.300 . S
C842 O797 1.209 . S
C842 C815 1.486 . S
C843 O798 1.199 . S
C843 O799 1.297 . S
C843 C827 1.476 . S
H844 O870 0.856 . S
H845 O873 0.854 . S
H846 C881 0.930 . S
H847 C882 0.930 . S
H848 C884 0.930 . S
H849 C885 0.930 . S
H850 C887 0.931 . S
H851 C888 0.930 . S
H852 C890 0.930 . S
H853 C891 0.929 . S
H854 C893 0.930 . S
H855 C894 0.931 . S
H856 C896 0.930 . S
H857 C897 0.929 . S
H858 C899 0.931 . S
H859 C900 0.930 . S
H860 C902 0.930 . S
H861 C903 0.932 . S
H862 C905 0.930 . S
H863 C906 0.929 . S
H864 C908 0.931 . S
H865 C909 0.930 . S
H866 C911 0.929 . S
H867 C912 0.931 . S
H868 C914 0.930 . S
H869 C915 0.929 . S
O870 H844 0.856 . S
O870 C916 1.300 . S
O871 C916 1.209 . S
O872 C917 1.199 . S
O873 H845 0.854 . S
O873 C917 1.297 . S
C874 C875 1.404 . S
C874 C879 1.397 . S
C874 C880 1.492 . S
C875 C874 1.404 . S
C875 C876 1.396 . S
C875 C886 1.492 . S
C876 C875 1.396 . S
C876 C877 1.397 . S
C876 C892 1.509 . S
C877 C876 1.397 . S
C877 C878 1.412 . S
C877 C898 1.485 . S
C878 C877 1.412 . S
C878 C879 1.388 . S
C878 C904 1.490 . S
C879 C874 1.397 . S
C879 C878 1.388 . S
C879 C910 1.519 . S
C880 C874 1.492 . S
C880 C881 1.363 . S
C880 C885 1.390 . S
C881 H846 0.930 . S
C881 C880 1.363 . S
C881 C882 1.372 . S
C882 H847 0.930 . S
C882 C881 1.372 . S
C882 C883 1.383 . S
C883 C882 1.383 . S
C883 C884 1.395 . S
C884 H848 0.930 . S
C884 C883 1.395 . S
C884 C885 1.362 . S
C885 H849 0.930 . S
C885 C880 1.390 . S
C885 C884 1.362 . S
C886 C875 1.492 . S
C886 C887 1.377 . S
C886 C891 1.397 . S
C887 H850 0.931 . S
C887 C886 1.377 . S
C887 C888 1.376 . S
C888 H851 0.930 . S
C888 C887 1.376 . S
C888 C889 1.376 . S
C889 C888 1.376 . S
C889 C890 1.378 . S
C889 C916 1.486 . S
C890 H852 0.930 . S
C890 C889 1.378 . S
C890 C891 1.376 . S
C891 H853 0.929 . S
C891 C886 1.397 . S
C891 C890 1.376 . S
C892 C876 1.509 . S
C892 C893 1.391 . S
C892 C897 1.386 . S
C893 H854 0.930 . S
C893 C892 1.391 . S
C893 C894 1.375 . S
C894 H855 0.931 . S
C894 C893 1.375 . S
C894 C895 1.375 . S
C895 C894 1.375 . S
C895 C896 1.361 . S
C896 H856 0.930 . S
C896 C895 1.361 . S
C896 C897 1.399 . S
C897 H857 0.929 . S
C897 C892 1.386 . S
C897 C896 1.399 . S
C898 C877 1.485 . S
C898 C899 1.394 . S
C898 C903 1.360 . S
C899 H858 0.931 . S
C899 C898 1.394 . S
C899 C900 1.372 . S
C900 H859 0.930 . S
C900 C899 1.372 . S
C900 C901 1.397 . S
C901 C900 1.397 . S
C901 C902 1.390 . S
C901 C917 1.476 . S
C902 H860 0.930 . S
C902 C901 1.390 . S
C902 C903 1.366 . S
C903 H861 0.932 . S
C903 C898 1.360 . S
C903 C902 1.366 . S
C904 C878 1.490 . S
C904 C905 1.380 . S
C904 C909 1.386 . S
C905 H862 0.930 . S
C905 C904 1.380 . S
C905 C906 1.381 . S
C906 H863 0.929 . S
C906 C905 1.381 . S
C906 C907 1.371 . S
C907 C906 1.371 . S
C907 C908 1.380 . S
C908 H864 0.931 . S
C908 C907 1.380 . S
C908 C909 1.387 . S
C909 H865 0.930 . S
C909 C904 1.386 . S
C909 C908 1.387 . S
C910 C879 1.519 . S
C910 C911 1.377 . S
C910 C915 1.361 . S
C911 H866 0.929 . S
C911 C910 1.377 . S
C911 C912 1.386 . S
C912 H867 0.931 . S
C912 C911 1.386 . S
C912 C913 1.363 . S
C913 C912 1.363 . S
C913 C914 1.385 . S
C914 H868 0.930 . S
C914 C913 1.385 . S
C914 C915 1.396 . S
C915 H869 0.929 . S
C915 C910 1.361 . S
C915 C914 1.396 . S
C916 O870 1.300 . S
C916 O871 1.209 . S
C916 C889 1.486 . S
C917 O872 1.199 . S
C917 O873 1.297 . S
C917 C901 1.476 . S
H918 O944 0.856 . S
H919 O947 0.854 . S
H920 C955 0.930 . S
H921 C956 0.930 . S
H922 C958 0.930 . S
H923 C959 0.930 . S
H924 C961 0.931 . S
H925 C962 0.943 . S
H926 C964 0.930 . S
H927 C965 0.929 . S
H928 C967 0.930 . S
H929 C968 0.940 . S
H930 C970 0.930 . S
H931 C971 0.929 . S
H932 C973 0.931 . S
H933 C974 0.930 . S
H934 C976 0.930 . S
H935 C977 0.932 . S
H936 C979 0.930 . S
H937 C980 0.929 . S
H938 C982 0.931 . S
H939 C983 0.930 . S
H940 C985 0.929 . S
H941 C986 0.931 . S
H942 C988 0.930 . S
H943 C989 0.929 . S
O944 H918 0.856 . S
O944 C990 1.300 . S
O945 C990 1.209 . S
O946 C991 1.199 1_655 S
O947 H919 0.854 . S
O947 C991 1.297 . S
C948 C949 1.404 . S
C948 C953 1.393 . S
C948 C954 1.492 . S
C949 C948 1.404 . S
C949 C950 1.396 . S
C949 C960 1.492 . S
C950 C949 1.396 . S
C950 C951 1.397 . S
C950 C966 1.509 . S
C951 C950 1.397 . S
C951 C952 1.428 . S
C951 C972 1.485 . S
C952 C951 1.428 . S
C952 C953 1.398 . S
C952 C978 1.491 1_455 S
C953 C948 1.393 . S
C953 C952 1.398 . S
C953 C984 1.499 1_455 S
C954 C948 1.492 . S
C954 C955 1.363 1_455 S
C954 C959 1.390 . S
C955 H920 0.930 . S
C955 C954 1.363 1_655 S
C955 C956 1.372 . S
C956 H921 0.930 . S
C956 C955 1.372 . S
C956 C957 1.383 . S
C957 C956 1.383 . S
C957 C958 1.395 1_655 S
C958 H922 0.930 . S
C958 C957 1.395 1_455 S
C958 C959 1.362 . S
C959 H923 0.930 . S
C959 C954 1.390 . S
C959 C958 1.362 . S
C960 C949 1.492 . S
C960 C961 1.377 1_455 S
C960 C965 1.397 . S
C961 H924 0.931 . S
C961 C960 1.377 1_655 S
C961 C962 1.373 . S
C962 H925 0.943 . S
C962 C961 1.373 . S
C962 C963 1.366 1_655 S
C963 C962 1.366 1_455 S
C963 C964 1.378 . S
C963 C990 1.486 . S
C964 H926 0.930 . S
C964 C963 1.378 . S
C964 C965 1.376 . S
C965 H927 0.929 . S
C965 C960 1.397 . S
C965 C964 1.376 . S
C966 C950 1.509 . S
C966 C967 1.391 1_455 S
C966 C971 1.386 . S
C967 H928 0.930 . S
C967 C966 1.391 1_655 S
C967 C968 1.387 . S
C968 H929 0.940 . S
C968 C967 1.387 . S
C968 C969 1.354 1_655 S
C969 C968 1.354 1_455 S
C969 C970 1.361 . S
C970 H930 0.930 . S
C970 C969 1.361 . S
C970 C971 1.399 . S
C971 H931 0.929 . S
C971 C966 1.386 . S
C971 C970 1.399 . S
C972 C951 1.485 . S
C972 C973 1.394 1_455 S
C972 C977 1.360 . S
C973 H932 0.931 . S
C973 C972 1.394 1_655 S
C973 C974 1.372 . S
C974 H933 0.930 . S
C974 C973 1.372 . S
C974 C975 1.397 1_655 S
C975 C974 1.397 1_455 S
C975 C976 1.390 . S
C975 C991 1.476 . S
C976 H934 0.930 . S
C976 C975 1.390 . S
C976 C977 1.366 . S
C977 H935 0.932 . S
C977 C972 1.360 . S
C977 C976 1.366 . S
C978 C952 1.491 1_655 S
C978 C979 1.380 . S
C978 C983 1.386 1_655 S
C979 H936 0.930 . S
C979 C978 1.380 . S
C979 C980 1.381 . S
C980 H937 0.929 . S
C980 C979 1.381 . S
C980 C981 1.371 . S
C981 C980 1.371 . S
C981 C982 1.380 1_655 S
C982 H938 0.931 . S
C982 C981 1.380 1_455 S
C982 C983 1.387 . S
C983 H939 0.930 . S
C983 C978 1.386 1_455 S
C983 C982 1.387 . S
C984 C953 1.499 1_655 S
C984 C985 1.384 . S
C984 C989 1.356 1_655 S
C985 H940 0.929 . S
C985 C984 1.384 . S
C985 C986 1.386 . S
C986 H941 0.931 . S
C986 C985 1.386 . S
C986 C987 1.349 1_655 S
C987 C986 1.349 1_455 S
C987 C988 1.406 . S
C988 H942 0.930 . S
C988 C987 1.406 . S
C988 C989 1.396 . S
C989 H943 0.929 . S
C989 C984 1.356 1_455 S
C989 C988 1.396 . S
C990 O944 1.300 . S
C990 O945 1.209 . S
C990 C963 1.486 . S
C991 O946 1.199 1_455 S
C991 O947 1.297 . S
C991 C975 1.476 . S
H992 O1018 0.856 . S
H993 O1021 0.854 . S
H994 C1029 0.930 . S
H995 C1030 0.930 . S
H996 C1032 0.930 . S
H997 C1033 0.930 . S
H998 C1035 0.931 . S
H999 C1036 0.930 . S
H1000 C1038 0.930 . S
H1001 C1039 0.929 . S
H1002 C1041 0.930 . S
H1003 C1042 0.931 . S
H1004 C1044 0.930 . S
H1005 C1045 0.929 . S
H1006 C1047 0.931 . S
H1007 C1048 0.930 . S
H1008 C1050 0.930 . S
H1009 C1051 0.932 . S
H1010 C1053 0.930 . S
H1011 C1054 0.929 . S
H1012 C1056 0.931 . S
H1013 C1057 0.930 . S
H1014 C1059 0.929 . S
H1015 C1060 0.931 . S
H1016 C1062 0.930 . S
H1017 C1063 0.929 . S
O1018 H992 0.856 . S
O1018 C1064 1.300 . S
O1019 C1064 1.209 . S
O1020 C1065 1.199 . S
O1021 H993 0.854 . S
O1021 C1065 1.297 . S
C1022 C1023 1.404 . S
C1022 C1027 1.397 . S
C1022 C1028 1.492 . S
C1023 C1022 1.404 . S
C1023 C1024 1.396 . S
C1023 C1034 1.492 . S
C1024 C1023 1.396 . S
C1024 C1025 1.397 . S
C1024 C1040 1.509 . S
C1025 C1024 1.397 . S
C1025 C1026 1.412 . S
C1025 C1046 1.485 . S
C1026 C1025 1.412 . S
C1026 C1027 1.388 . S
C1026 C1052 1.490 . S
C1027 C1022 1.397 . S
C1027 C1026 1.388 . S
C1027 C1058 1.519 . S
C1028 C1022 1.492 . S
C1028 C1029 1.363 . S
C1028 C1033 1.390 . S
C1029 H994 0.930 . S
C1029 C1028 1.363 . S
C1029 C1030 1.372 . S
C1030 H995 0.930 . S
C1030 C1029 1.372 . S
C1030 C1031 1.383 . S
C1031 C1030 1.383 . S
C1031 C1032 1.395 . S
C1032 H996 0.930 . S
C1032 C1031 1.395 . S
C1032 C1033 1.362 . S
C1033 H997 0.930 . S
C1033 C1028 1.390 . S
C1033 C1032 1.362 . S
C1034 C1023 1.492 . S
C1034 C1035 1.377 . S
C1034 C1039 1.397 . S
C1035 H998 0.931 . S
C1035 C1034 1.377 . S
C1035 C1036 1.376 . S
C1036 H999 0.930 . S
C1036 C1035 1.376 . S
C1036 C1037 1.376 . S
C1037 C1036 1.376 . S
C1037 C1038 1.378 . S
C1037 C1064 1.486 . S
C1038 H1000 0.930 . S
C1038 C1037 1.378 . S
C1038 C1039 1.376 . S
C1039 H1001 0.929 . S
C1039 C1034 1.397 . S
C1039 C1038 1.376 . S
C1040 C1024 1.509 . S
C1040 C1041 1.391 . S
C1040 C1045 1.386 . S
C1041 H1002 0.930 . S
C1041 C1040 1.391 . S
C1041 C1042 1.375 . S
C1042 H1003 0.931 . S
C1042 C1041 1.375 . S
C1042 C1043 1.375 . S
C1043 C1042 1.375 . S
C1043 C1044 1.361 . S
C1044 H1004 0.930 . S
C1044 C1043 1.361 . S
C1044 C1045 1.399 . S
C1045 H1005 0.929 . S
C1045 C1040 1.386 . S
C1045 C1044 1.399 . S
C1046 C1025 1.485 . S
C1046 C1047 1.394 . S
C1046 C1051 1.360 . S
C1047 H1006 0.931 . S
C1047 C1046 1.394 . S
C1047 C1048 1.372 . S
C1048 H1007 0.930 . S
C1048 C1047 1.372 . S
C1048 C1049 1.397 . S
C1049 C1048 1.397 . S
C1049 C1050 1.390 . S
C1049 C1065 1.476 . S
C1050 H1008 0.930 . S
C1050 C1049 1.390 . S
C1050 C1051 1.366 . S
C1051 H1009 0.932 . S
C1051 C1046 1.360 . S
C1051 C1050 1.366 . S
C1052 C1026 1.490 . S
C1052 C1053 1.380 . S
C1052 C1057 1.386 . S
C1053 H1010 0.930 . S
C1053 C1052 1.380 . S
C1053 C1054 1.381 . S
C1054 H1011 0.929 . S
C1054 C1053 1.381 . S
C1054 C1055 1.371 . S
C1055 C1054 1.371 . S
C1055 C1056 1.380 . S
C1056 H1012 0.931 . S
C1056 C1055 1.380 . S
C1056 C1057 1.387 . S
C1057 H1013 0.930 . S
C1057 C1052 1.386 . S
C1057 C1056 1.387 . S
C1058 C1027 1.519 . S
C1058 C1059 1.377 . S
C1058 C1063 1.361 . S
C1059 H1014 0.929 . S
C1059 C1058 1.377 . S
C1059 C1060 1.386 . S
C1060 H1015 0.931 . S
C1060 C1059 1.386 . S
C1060 C1061 1.363 . S
C1061 C1060 1.363 . S
C1061 C1062 1.385 . S
C1062 H1016 0.930 . S
C1062 C1061 1.385 . S
C1062 C1063 1.396 . S
C1063 H1017 0.929 . S
C1063 C1058 1.361 . S
C1063 C1062 1.396 . S
C1064 O1018 1.300 . S
C1064 O1019 1.209 . S
C1064 C1037 1.486 . S
C1065 O1020 1.199 . S
C1065 O1021 1.297 . S
C1065 C1049 1.476 . S
H1066 O1092 0.856 . S
H1067 O1095 0.854 . S
H1068 C1103 0.930 . S
H1069 C1104 0.930 . S
H1070 C1106 0.930 . S
H1071 C1107 0.930 . S
H1072 C1109 0.931 . S
H1073 C1110 0.938 . S
H1074 C1112 0.930 . S
H1075 C1113 0.929 . S
H1076 C1115 0.930 . S
H1077 C1116 0.958 . S
H1078 C1118 0.930 . S
H1079 C1119 0.929 . S
H1080 C1121 0.931 . S
H1081 C1122 0.930 . S
H1082 C1124 0.930 . S
H1083 C1125 0.932 . S
H1084 C1127 0.930 . S
H1085 C1128 0.929 . S
H1086 C1130 0.931 . S
H1087 C1131 0.930 . S
H1088 C1133 0.929 . S
H1089 C1134 0.931 . S
H1090 C1136 0.930 . S
H1091 C1137 0.929 . S
O1092 H1066 0.856 . S
O1092 C1138 1.300 . S
O1093 C1138 1.209 . S
O1094 C1139 1.199 1_545 S
O1095 H1067 0.854 . S
O1095 C1139 1.297 . S
C1096 C1097 1.404 . S
C1096 C1101 1.414 . S
C1096 C1102 1.492 . S
C1097 C1096 1.404 . S
C1097 C1098 1.396 . S
C1097 C1108 1.492 . S
C1098 C1097 1.396 . S
C1098 C1099 1.397 . S
C1098 C1114 1.509 . S
C1099 C1098 1.397 . S
C1099 C1100 1.408 . S
C1099 C1120 1.485 . S
C1100 C1099 1.408 . S
C1100 C1101 1.376 . S
C1100 C1126 1.481 1_565 S
C1101 C1096 1.414 . S
C1101 C1100 1.376 . S
C1101 C1132 1.536 1_565 S
C1102 C1096 1.492 . S
C1102 C1103 1.363 1_565 S
C1102 C1107 1.390 . S
C1103 H1068 0.930 . S
C1103 C1102 1.363 1_545 S
C1103 C1104 1.372 . S
C1104 H1069 0.930 . S
C1104 C1103 1.372 . S
C1104 C1105 1.383 . S
C1105 C1104 1.383 . S
C1105 C1106 1.395 1_545 S
C1106 H1070 0.930 . S
C1106 C1105 1.395 1_565 S
C1106 C1107 1.362 . S
C1107 H1071 0.930 . S
C1107 C1102 1.390 . S
C1107 C1106 1.362 . S
C1108 C1097 1.492 . S
C1108 C1109 1.377 1_565 S
C1108 C1113 1.397 . S
C1109 H1072 0.931 . S
C1109 C1108 1.377 1_545 S
C1109 C1110 1.380 . S
C1110 H1073 0.938 . S
C1110 C1109 1.380 . S
C1110 C1111 1.363 1_545 S
C1111 C1110 1.363 1_565 S
C1111 C1112 1.378 . S
C1111 C1138 1.486 . S
C1112 H1074 0.930 . S
C1112 C1111 1.378 . S
C1112 C1113 1.376 . S
C1113 H1075 0.929 . S
C1113 C1108 1.397 . S
C1113 C1112 1.376 . S
C1114 C1098 1.509 . S
C1114 C1115 1.391 1_565 S
C1114 C1119 1.386 . S
C1115 H1076 0.930 . S
C1115 C1114 1.391 1_545 S
C1115 C1116 1.371 . S
C1116 H1077 0.958 . S
C1116 C1115 1.371 . S
C1116 C1117 1.353 1_545 S
C1117 C1116 1.353 1_565 S
C1117 C1118 1.361 . S
C1118 H1078 0.930 . S
C1118 C1117 1.361 . S
C1118 C1119 1.399 . S
C1119 H1079 0.929 . S
C1119 C1114 1.386 . S
C1119 C1118 1.399 . S
C1120 C1099 1.485 . S
C1120 C1121 1.394 1_565 S
C1120 C1125 1.360 . S
C1121 H1080 0.931 . S
C1121 C1120 1.394 1_545 S
C1121 C1122 1.372 . S
C1122 H1081 0.930 . S
C1122 C1121 1.372 . S
C1122 C1123 1.397 1_545 S
C1123 C1122 1.397 1_565 S
C1123 C1124 1.390 . S
C1123 C1139 1.476 . S
C1124 H1082 0.930 . S
C1124 C1123 1.390 . S
C1124 C1125 1.366 . S
C1125 H1083 0.932 . S
C1125 C1120 1.360 . S
C1125 C1124 1.366 . S
C1126 C1100 1.481 1_545 S
C1126 C1127 1.380 . S
C1126 C1131 1.386 1_545 S
C1127 H1084 0.930 . S
C1127 C1126 1.380 . S
C1127 C1128 1.381 . S
C1128 H1085 0.929 . S
C1128 C1127 1.381 . S
C1128 C1129 1.371 . S
C1129 C1128 1.371 . S
C1129 C1130 1.380 1_545 S
C1130 H1086 0.931 . S
C1130 C1129 1.380 1_565 S
C1130 C1131 1.387 . S
C1131 H1087 0.930 . S
C1131 C1126 1.386 1_565 S
C1131 C1130 1.387 . S
C1132 C1101 1.536 1_545 S
C1132 C1133 1.380 . S
C1132 C1137 1.356 1_545 S
C1133 H1088 0.929 . S
C1133 C1132 1.380 . S
C1133 C1134 1.386 . S
C1134 H1089 0.931 . S
C1134 C1133 1.386 . S
C1134 C1135 1.347 1_545 S
C1135 C1134 1.347 1_565 S
C1135 C1136 1.394 . S
C1136 H1090 0.930 . S
C1136 C1135 1.394 . S
C1136 C1137 1.396 . S
C1137 H1091 0.929 . S
C1137 C1132 1.356 1_565 S
C1137 C1136 1.396 . S
C1138 O1092 1.300 . S
C1138 O1093 1.209 . S
C1138 C1111 1.486 . S
C1139 O1094 1.199 1_565 S
C1139 O1095 1.297 . S
C1139 C1123 1.476 . S
H1140 O1166 0.856 . S
H1141 O1169 0.854 . S
H1142 C1177 0.930 . S
H1143 C1178 0.930 . S
H1144 C1180 0.930 . S
H1145 C1181 0.930 . S
H1146 C1183 0.931 . S
H1147 C1184 0.930 . S
H1148 C1186 0.930 . S
H1149 C1187 0.929 . S
H1150 C1189 0.930 . S
H1151 C1190 0.931 . S
H1152 C1192 0.930 . S
H1153 C1193 0.929 . S
H1154 C1195 0.931 . S
H1155 C1196 0.930 . S
H1156 C1198 0.930 . S
H1157 C1199 0.932 . S
H1158 C1201 0.930 . S
H1159 C1202 0.929 . S
H1160 C1204 0.931 . S
H1161 C1205 0.930 . S
H1162 C1207 0.929 . S
H1163 C1208 0.931 . S
H1164 C1210 0.930 . S
H1165 C1211 0.929 . S
O1166 H1140 0.856 . S
O1166 C1212 1.300 . S
O1167 C1212 1.209 1_565 S
O1168 C1213 1.199 1_545 S
O1169 H1141 0.854 . S
O1169 C1213 1.297 . S
C1170 C1171 1.383 . S
C1170 C1175 1.381 1_545 S
C1170 C1176 1.537 . S
C1171 C1170 1.383 . S
C1171 C1172 1.419 . S
C1171 C1182 1.492 . S
C1172 C1171 1.419 . S
C1172 C1173 1.386 1_545 S
C1172 C1188 1.501 . S
C1173 C1172 1.386 1_565 S
C1173 C1174 1.414 . S
C1173 C1194 1.447 . S
C1174 C1173 1.414 . S
C1174 C1175 1.377 . S
C1174 C1200 1.494 . S
C1175 C1170 1.381 1_565 S
C1175 C1174 1.377 . S
C1175 C1206 1.520 . S
C1176 C1170 1.537 . S
C1176 C1177 1.363 . S
C1176 C1181 1.390 1_545 S
C1177 H1142 0.930 . S
C1177 C1176 1.363 . S
C1177 C1178 1.372 . S
C1178 H1143 0.930 . S
C1178 C1177 1.372 . S
C1178 C1179 1.383 . S
C1179 C1178 1.383 . S
C1179 C1180 1.395 1_545 S
C1180 H1144 0.930 . S
C1180 C1179 1.395 1_565 S
C1180 C1181 1.362 . S
C1181 H1145 0.930 . S
C1181 C1176 1.390 1_565 S
C1181 C1180 1.362 . S
C1182 C1171 1.492 . S
C1182 C1183 1.377 . S
C1182 C1187 1.397 1_545 S
C1183 H1146 0.931 . S
C1183 C1182 1.377 . S
C1183 C1184 1.376 . S
C1184 H1147 0.930 . S
C1184 C1183 1.376 . S
C1184 C1185 1.376 . S
C1185 C1184 1.376 . S
C1185 C1186 1.378 1_545 S
C1185 C1212 1.486 . S
C1186 H1148 0.930 . S
C1186 C1185 1.378 1_565 S
C1186 C1187 1.376 . S
C1187 H1149 0.929 . S
C1187 C1182 1.397 1_565 S
C1187 C1186 1.376 . S
C1188 C1172 1.501 . S
C1188 C1189 1.399 . S
C1188 C1193 1.374 1_545 S
C1189 H1150 0.930 . S
C1189 C1188 1.399 . S
C1189 C1190 1.375 . S
C1190 H1151 0.931 . S
C1190 C1189 1.375 . S
C1190 C1191 1.364 1_545 S
C1191 C1190 1.364 1_565 S
C1191 C1192 1.368 . S
C1192 H1152 0.930 . S
C1192 C1191 1.368 . S
C1192 C1193 1.399 . S
C1193 H1153 0.929 . S
C1193 C1188 1.374 1_565 S
C1193 C1192 1.399 . S
C1194 C1173 1.447 . S
C1194 C1195 1.363 1_565 S
C1194 C1199 1.441 . S
C1195 H1154 0.931 . S
C1195 C1194 1.363 1_545 S
C1195 C1196 1.372 . S
C1196 H1155 0.930 . S
C1196 C1195 1.372 . S
C1196 C1197 1.397 1_545 S
C1197 C1196 1.397 1_565 S
C1197 C1198 1.390 . S
C1197 C1213 1.476 . S
C1198 H1156 0.930 . S
C1198 C1197 1.390 . S
C1198 C1199 1.366 . S
C1199 H1157 0.932 . S
C1199 C1194 1.441 . S
C1199 C1198 1.366 . S
C1200 C1174 1.494 . S
C1200 C1201 1.381 1_565 S
C1200 C1205 1.385 . S
C1201 H1158 0.930 . S
C1201 C1200 1.381 1_545 S
C1201 C1202 1.381 . S
C1202 H1159 0.929 . S
C1202 C1201 1.381 . S
C1202 C1203 1.371 . S
C1203 C1202 1.371 . S
C1203 C1204 1.380 1_545 S
C1204 H1160 0.931 . S
C1204 C1203 1.380 1_565 S
C1204 C1205 1.387 . S
C1205 H1161 0.930 . S
C1205 C1200 1.385 . S
C1205 C1204 1.387 . S
C1206 C1175 1.520 . S
C1206 C1207 1.377 1_565 S
C1206 C1211 1.361 . S
C1207 H1162 0.929 . S
C1207 C1206 1.377 1_545 S
C1207 C1208 1.386 . S
C1208 H1163 0.931 . S
C1208 C1207 1.386 . S
C1208 C1209 1.363 1_545 S
C1209 C1208 1.363 1_565 S
C1209 C1210 1.385 . S
C1210 H1164 0.930 . S
C1210 C1209 1.385 . S
C1210 C1211 1.396 . S
C1211 H1165 0.929 . S
C1211 C1206 1.361 . S
C1211 C1210 1.396 . S
C1212 O1166 1.300 . S
C1212 O1167 1.209 1_545 S
C1212 C1185 1.486 . S
C1213 O1168 1.199 1_565 S
C1213 O1169 1.297 . S
C1213 C1197 1.476 . S
H1214 O1240 0.856 . S
H1215 O1243 0.854 . S
H1216 C1251 0.930 . S
H1217 C1252 0.930 . S
H1218 C1254 0.930 . S
H1219 C1255 0.930 . S
H1220 C1257 0.931 . S
H1221 C1258 0.930 . S
H1222 C1260 0.930 . S
H1223 C1261 0.929 . S
H1224 C1263 0.930 . S
H1225 C1264 0.931 . S
H1226 C1266 0.930 . S
H1227 C1267 0.929 . S
H1228 C1269 0.931 . S
H1229 C1270 0.930 . S
H1230 C1272 0.930 . S
H1231 C1273 0.932 . S
H1232 C1275 0.930 . S
H1233 C1276 0.929 . S
H1234 C1278 0.931 . S
H1235 C1279 0.930 . S
H1236 C1281 0.929 . S
H1237 C1282 0.931 . S
H1238 C1284 0.930 . S
H1239 C1285 0.929 . S
O1240 H1214 0.856 . S
O1240 C1286 1.300 . S
O1241 C1286 1.209 1_455 S
O1242 C1287 1.199 1_655 S
O1243 H1215 0.854 . S
O1243 C1287 1.297 . S
C1244 C1245 1.404 . S
C1244 C1249 1.398 . S
C1244 C1250 1.492 . S
C1245 C1244 1.404 . S
C1245 C1246 1.396 . S
C1245 C1256 1.492 . S
C1246 C1245 1.396 . S
C1246 C1247 1.397 . S
C1246 C1262 1.509 . S
C1247 C1246 1.397 . S
C1247 C1248 1.402 1_655 S
C1247 C1268 1.520 1_655 S
C1248 C1247 1.402 1_455 S
C1248 C1249 1.400 1_455 S
C1248 C1274 1.500 . S
C1249 C1244 1.398 . S
C1249 C1248 1.400 1_655 S
C1249 C1280 1.523 1_655 S
C1250 C1244 1.492 . S
C1250 C1251 1.363 . S
C1250 C1255 1.390 1_655 S
C1251 H1216 0.930 . S
C1251 C1250 1.363 . S
C1251 C1252 1.372 . S
C1252 H1217 0.930 . S
C1252 C1251 1.372 . S
C1252 C1253 1.383 . S
C1253 C1252 1.383 . S
C1253 C1254 1.395 1_655 S
C1254 H1218 0.930 . S
C1254 C1253 1.395 1_455 S
C1254 C1255 1.362 . S
C1255 H1219 0.930 . S
C1255 C1250 1.390 1_455 S
C1255 C1254 1.362 . S
C1256 C1245 1.492 . S
C1256 C1257 1.377 . S
C1256 C1261 1.397 1_655 S
C1257 H1220 0.931 . S
C1257 C1256 1.377 . S
C1257 C1258 1.376 . S
C1258 H1221 0.930 . S
C1258 C1257 1.376 . S
C1258 C1259 1.376 . S
C1259 C1258 1.376 . S
C1259 C1260 1.378 1_655 S
C1259 C1286 1.486 . S
C1260 H1222 0.930 . S
C1260 C1259 1.378 1_455 S
C1260 C1261 1.376 . S
C1261 H1223 0.929 . S
C1261 C1256 1.397 1_455 S
C1261 C1260 1.376 . S
C1262 C1246 1.509 . S
C1262 C1263 1.391 . S
C1262 C1267 1.386 1_655 S
C1263 H1224 0.930 . S
C1263 C1262 1.391 . S
C1263 C1264 1.375 . S
C1264 H1225 0.931 . S
C1264 C1263 1.375 . S
C1264 C1265 1.375 . S
C1265 C1264 1.375 . S
C1265 C1266 1.361 1_655 S
C1266 H1226 0.930 . S
C1266 C1265 1.361 1_455 S
C1266 C1267 1.399 . S
C1267 H1227 0.929 . S
C1267 C1262 1.386 1_455 S
C1267 C1266 1.399 . S
C1268 C1247 1.520 1_455 S
C1268 C1269 1.331 1_455 S
C1268 C1273 1.390 . S
C1269 H1228 0.931 . S
C1269 C1268 1.331 1_655 S
C1269 C1270 1.372 . S
C1270 H1229 0.930 . S
C1270 C1269 1.372 . S
C1270 C1271 1.397 1_655 S
C1271 C1270 1.397 1_455 S
C1271 C1272 1.390 . S
C1271 C1287 1.476 . S
C1272 H1230 0.930 . S
C1272 C1271 1.390 . S
C1272 C1273 1.366 . S
C1273 H1231 0.932 . S
C1273 C1268 1.390 . S
C1273 C1272 1.366 . S
C1274 C1248 1.500 . S
C1274 C1275 1.330 1_455 S
C1274 C1279 1.423 . S
C1275 H1232 0.930 . S
C1275 C1274 1.330 1_655 S
C1275 C1276 1.381 . S
C1276 H1233 0.929 . S
C1276 C1275 1.381 . S
C1276 C1277 1.340 1_655 S
C1277 C1276 1.340 1_455 S
C1277 C1278 1.431 . S
C1278 H1234 0.931 . S
C1278 C1277 1.431 . S
C1278 C1279 1.387 . S
C1279 H1235 0.930 . S
C1279 C1274 1.423 . S
C1279 C1278 1.387 . S
C1280 C1249 1.523 1_455 S
C1280 C1281 1.377 1_455 S
C1280 C1285 1.361 . S
C1281 H1236 0.929 . S
C1281 C1280 1.377 1_655 S
C1281 C1282 1.386 . S
C1282 H1237 0.931 . S
C1282 C1281 1.386 . S
C1282 C1283 1.363 1_655 S
C1283 C1282 1.363 1_455 S
C1283 C1284 1.385 . S
C1284 H1238 0.930 . S
C1284 C1283 1.385 . S
C1284 C1285 1.396 . S
C1285 H1239 0.929 . S
C1285 C1280 1.361 . S
C1285 C1284 1.396 . S
C1286 O1240 1.300 . S
C1286 O1241 1.209 1_655 S
C1286 C1259 1.486 . S
C1287 O1242 1.199 1_455 S
C1287 O1243 1.297 . S
C1287 C1271 1.476 . S
H1288 O1314 0.856 . S
H1289 O1317 0.854 . S
H1290 C1325 0.930 . S
H1291 C1326 0.930 . S
H1292 C1328 0.930 . S
H1293 C1329 0.930 . S
H1294 C1331 0.931 . S
H1295 C1332 0.930 . S
H1296 C1334 0.930 . S
H1297 C1335 0.929 . S
H1298 C1337 0.930 . S
H1299 C1338 0.931 . S
H1300 C1340 0.930 . S
H1301 C1341 0.929 . S
H1302 C1343 0.931 . S
H1303 C1344 0.930 . S
H1304 C1346 0.930 . S
H1305 C1347 0.932 . S
H1306 C1349 0.930 . S
H1307 C1350 0.929 . S
H1308 C1352 0.931 . S
H1309 C1353 0.930 . S
H1310 C1355 0.929 . S
H1311 C1356 0.931 . S
H1312 C1358 0.930 . S
H1313 C1359 0.929 . S
O1314 H1288 0.856 . S
O1314 C1360 1.300 . S
O1315 C1360 1.209 . S
O1316 C1361 1.199 . S
O1317 H1289 0.854 . S
O1317 C1361 1.297 . S
C1318 C1319 1.404 . S
C1318 C1323 1.397 . S
C1318 C1324 1.492 . S
C1319 C1318 1.404 . S
C1319 C1320 1.396 . S
C1319 C1330 1.492 . S
C1320 C1319 1.396 . S
C1320 C1321 1.397 . S
C1320 C1336 1.509 . S
C1321 C1320 1.397 . S
C1321 C1322 1.412 . S
C1321 C1342 1.485 . S
C1322 C1321 1.412 . S
C1322 C1323 1.388 . S
C1322 C1348 1.490 . S
C1323 C1318 1.397 . S
C1323 C1322 1.388 . S
C1323 C1354 1.519 . S
C1324 C1318 1.492 . S
C1324 C1325 1.363 . S
C1324 C1329 1.390 . S
C1325 H1290 0.930 . S
C1325 C1324 1.363 . S
C1325 C1326 1.372 . S
C1326 H1291 0.930 . S
C1326 C1325 1.372 . S
C1326 C1327 1.383 . S
C1327 C1326 1.383 . S
C1327 C1328 1.395 . S
C1328 H1292 0.930 . S
C1328 C1327 1.395 . S
C1328 C1329 1.362 . S
C1329 H1293 0.930 . S
C1329 C1324 1.390 . S
C1329 C1328 1.362 . S
C1330 C1319 1.492 . S
C1330 C1331 1.377 . S
C1330 C1335 1.397 . S
C1331 H1294 0.931 . S
C1331 C1330 1.377 . S
C1331 C1332 1.376 . S
C1332 H1295 0.930 . S
C1332 C1331 1.376 . S
C1332 C1333 1.376 . S
C1333 C1332 1.376 . S
C1333 C1334 1.378 . S
C1333 C1360 1.486 . S
C1334 H1296 0.930 . S
C1334 C1333 1.378 . S
C1334 C1335 1.376 . S
C1335 H1297 0.929 . S
C1335 C1330 1.397 . S
C1335 C1334 1.376 . S
C1336 C1320 1.509 . S
C1336 C1337 1.391 . S
C1336 C1341 1.386 . S
C1337 H1298 0.930 . S
C1337 C1336 1.391 . S
C1337 C1338 1.375 . S
C1338 H1299 0.931 . S
C1338 C1337 1.375 . S
C1338 C1339 1.375 . S
C1339 C1338 1.375 . S
C1339 C1340 1.361 . S
C1340 H1300 0.930 . S
C1340 C1339 1.361 . S
C1340 C1341 1.399 . S
C1341 H1301 0.929 . S
C1341 C1336 1.386 . S
C1341 C1340 1.399 . S
C1342 C1321 1.485 . S
C1342 C1343 1.394 . S
C1342 C1347 1.360 . S
C1343 H1302 0.931 . S
C1343 C1342 1.394 . S
C1343 C1344 1.372 . S
C1344 H1303 0.930 . S
C1344 C1343 1.372 . S
C1344 C1345 1.397 . S
C1345 C1344 1.397 . S
C1345 C1346 1.390 . S
C1345 C1361 1.476 . S
C1346 H1304 0.930 . S
C1346 C1345 1.390 . S
C1346 C1347 1.366 . S
C1347 H1305 0.932 . S
C1347 C1342 1.360 . S
C1347 C1346 1.366 . S
C1348 C1322 1.490 . S
C1348 C1349 1.380 . S
C1348 C1353 1.386 . S
C1349 H1306 0.930 . S
C1349 C1348 1.380 . S
C1349 C1350 1.381 . S
C1350 H1307 0.929 . S
C1350 C1349 1.381 . S
C1350 C1351 1.371 . S
C1351 C1350 1.371 . S
C1351 C1352 1.380 . S
C1352 H1308 0.931 . S
C1352 C1351 1.380 . S
C1352 C1353 1.387 . S
C1353 H1309 0.930 . S
C1353 C1348 1.386 . S
C1353 C1352 1.387 . S
C1354 C1323 1.519 . S
C1354 C1355 1.377 . S
C1354 C1359 1.361 . S
C1355 H1310 0.929 . S
C1355 C1354 1.377 . S
C1355 C1356 1.386 . S
C1356 H1311 0.931 . S
C1356 C1355 1.386 . S
C1356 C1357 1.363 . S
C1357 C1356 1.363 . S
C1357 C1358 1.385 . S
C1358 H1312 0.930 . S
C1358 C1357 1.385 . S
C1358 C1359 1.396 . S
C1359 H1313 0.929 . S
C1359 C1354 1.361 . S
C1359 C1358 1.396 . S
C1360 O1314 1.300 . S
C1360 O1315 1.209 . S
C1360 C1333 1.486 . S
C1361 O1316 1.199 . S
C1361 O1317 1.297 . S
C1361 C1345 1.476 . S
H1362 O1388 0.856 . S
H1363 O1391 0.854 . S
H1364 C1399 0.930 . S
H1365 C1400 0.930 . S
H1366 C1402 0.930 . S
H1367 C1403 0.930 . S
H1368 C1405 0.931 . S
H1369 C1406 0.930 . S
H1370 C1408 0.930 . S
H1371 C1409 0.929 . S
H1372 C1411 0.930 . S
H1373 C1412 0.931 . S
H1374 C1414 0.930 . S
H1375 C1415 0.929 . S
H1376 C1417 0.931 . S
H1377 C1418 0.930 . S
H1378 C1420 0.930 . S
H1379 C1421 0.932 . S
H1380 C1423 0.930 . S
H1381 C1424 0.929 . S
H1382 C1426 0.931 . S
H1383 C1427 0.930 . S
H1384 C1429 0.929 . S
H1385 C1430 0.931 . S
H1386 C1432 0.930 . S
H1387 C1433 0.929 . S
O1388 H1362 0.856 . S
O1388 C1434 1.300 . S
O1389 C1434 1.209 . S
O1390 C1435 1.199 . S
O1391 H1363 0.854 . S
O1391 C1435 1.297 . S
C1392 C1393 1.404 . S
C1392 C1397 1.397 . S
C1392 C1398 1.492 . S
C1393 C1392 1.404 . S
C1393 C1394 1.396 . S
C1393 C1404 1.492 . S
C1394 C1393 1.396 . S
C1394 C1395 1.397 . S
C1394 C1410 1.509 . S
C1395 C1394 1.397 . S
C1395 C1396 1.412 . S
C1395 C1416 1.485 . S
C1396 C1395 1.412 . S
C1396 C1397 1.388 . S
C1396 C1422 1.490 . S
C1397 C1392 1.397 . S
C1397 C1396 1.388 . S
C1397 C1428 1.519 . S
C1398 C1392 1.492 . S
C1398 C1399 1.363 . S
C1398 C1403 1.390 . S
C1399 H1364 0.930 . S
C1399 C1398 1.363 . S
C1399 C1400 1.372 . S
C1400 H1365 0.930 . S
C1400 C1399 1.372 . S
C1400 C1401 1.383 . S
C1401 C1400 1.383 . S
C1401 C1402 1.395 . S
C1402 H1366 0.930 . S
C1402 C1401 1.395 . S
C1402 C1403 1.362 . S
C1403 H1367 0.930 . S
C1403 C1398 1.390 . S
C1403 C1402 1.362 . S
C1404 C1393 1.492 . S
C1404 C1405 1.377 . S
C1404 C1409 1.397 . S
C1405 H1368 0.931 . S
C1405 C1404 1.377 . S
C1405 C1406 1.376 . S
C1406 H1369 0.930 . S
C1406 C1405 1.376 . S
C1406 C1407 1.376 . S
C1407 C1406 1.376 . S
C1407 C1408 1.378 . S
C1407 C1434 1.486 . S
C1408 H1370 0.930 . S
C1408 C1407 1.378 . S
C1408 C1409 1.376 . S
C1409 H1371 0.929 . S
C1409 C1404 1.397 . S
C1409 C1408 1.376 . S
C1410 C1394 1.509 . S
C1410 C1411 1.391 . S
C1410 C1415 1.386 . S
C1411 H1372 0.930 . S
C1411 C1410 1.391 . S
C1411 C1412 1.375 . S
C1412 H1373 0.931 . S
C1412 C1411 1.375 . S
C1412 C1413 1.375 . S
C1413 C1412 1.375 . S
C1413 C1414 1.361 . S
C1414 H1374 0.930 . S
C1414 C1413 1.361 . S
C1414 C1415 1.399 . S
C1415 H1375 0.929 . S
C1415 C1410 1.386 . S
C1415 C1414 1.399 . S
C1416 C1395 1.485 . S
C1416 C1417 1.394 . S
C1416 C1421 1.360 . S
C1417 H1376 0.931 . S
C1417 C1416 1.394 . S
C1417 C1418 1.372 . S
C1418 H1377 0.930 . S
C1418 C1417 1.372 . S
C1418 C1419 1.397 . S
C1419 C1418 1.397 . S
C1419 C1420 1.390 . S
C1419 C1435 1.476 . S
C1420 H1378 0.930 . S
C1420 C1419 1.390 . S
C1420 C1421 1.366 . S
C1421 H1379 0.932 . S
C1421 C1416 1.360 . S
C1421 C1420 1.366 . S
C1422 C1396 1.490 . S
C1422 C1423 1.380 . S
C1422 C1427 1.386 . S
C1423 H1380 0.930 . S
C1423 C1422 1.380 . S
C1423 C1424 1.381 . S
C1424 H1381 0.929 . S
C1424 C1423 1.381 . S
C1424 C1425 1.371 . S
C1425 C1424 1.371 . S
C1425 C1426 1.380 . S
C1426 H1382 0.931 . S
C1426 C1425 1.380 . S
C1426 C1427 1.387 . S
C1427 H1383 0.930 . S
C1427 C1422 1.386 . S
C1427 C1426 1.387 . S
C1428 C1397 1.519 . S
C1428 C1429 1.377 . S
C1428 C1433 1.361 . S
C1429 H1384 0.929 . S
C1429 C1428 1.377 . S
C1429 C1430 1.386 . S
C1430 H1385 0.931 . S
C1430 C1429 1.386 . S
C1430 C1431 1.363 . S
C1431 C1430 1.363 . S
C1431 C1432 1.385 . S
C1432 H1386 0.930 . S
C1432 C1431 1.385 . S
C1432 C1433 1.396 . S
C1433 H1387 0.929 . S
C1433 C1428 1.361 . S
C1433 C1432 1.396 . S
C1434 O1388 1.300 . S
C1434 O1389 1.209 . S
C1434 C1407 1.486 . S
C1435 O1390 1.199 . S
C1435 O1391 1.297 . S
C1435 C1419 1.476 . S
H1436 O1462 0.856 . S
H1437 O1465 0.854 . S
H1438 C1473 0.930 . S
H1439 C1474 0.930 . S
H1440 C1476 0.930 . S
H1441 C1477 0.930 . S
H1442 C1479 0.931 . S
H1443 C1480 0.930 . S
H1444 C1482 0.930 . S
H1445 C1483 0.929 . S
H1446 C1485 0.930 . S
H1447 C1486 0.931 . S
H1448 C1488 0.930 . S
H1449 C1489 0.929 . S
H1450 C1491 0.931 . S
H1451 C1492 0.930 . S
H1452 C1494 0.930 . S
H1453 C1495 0.932 . S
H1454 C1497 0.930 . S
H1455 C1498 0.929 . S
H1456 C1500 0.931 . S
H1457 C1501 0.930 . S
H1458 C1503 0.929 . S
H1459 C1504 0.931 . S
H1460 C1506 0.930 . S
H1461 C1507 0.929 . S
O1462 H1436 0.856 . S
O1462 C1508 1.300 . S
O1463 C1508 1.209 . S
O1464 C1509 1.199 . S
O1465 H1437 0.854 . S
O1465 C1509 1.297 . S
C1466 C1467 1.404 . S
C1466 C1471 1.397 . S
C1466 C1472 1.492 . S
C1467 C1466 1.404 . S
C1467 C1468 1.396 . S
C1467 C1478 1.492 . S
C1468 C1467 1.396 . S
C1468 C1469 1.397 . S
C1468 C1484 1.509 . S
C1469 C1468 1.397 . S
C1469 C1470 1.412 . S
C1469 C1490 1.485 . S
C1470 C1469 1.412 . S
C1470 C1471 1.388 . S
C1470 C1496 1.490 . S
C1471 C1466 1.397 . S
C1471 C1470 1.388 . S
C1471 C1502 1.519 . S
C1472 C1466 1.492 . S
C1472 C1473 1.363 . S
C1472 C1477 1.390 . S
C1473 H1438 0.930 . S
C1473 C1472 1.363 . S
C1473 C1474 1.372 . S
C1474 H1439 0.930 . S
C1474 C1473 1.372 . S
C1474 C1475 1.383 . S
C1475 C1474 1.383 . S
C1475 C1476 1.395 . S
C1476 H1440 0.930 . S
C1476 C1475 1.395 . S
C1476 C1477 1.362 . S
C1477 H1441 0.930 . S
C1477 C1472 1.390 . S
C1477 C1476 1.362 . S
C1478 C1467 1.492 . S
C1478 C1479 1.377 . S
C1478 C1483 1.397 . S
C1479 H1442 0.931 . S
C1479 C1478 1.377 . S
C1479 C1480 1.376 . S
C1480 H1443 0.930 . S
C1480 C1479 1.376 . S
C1480 C1481 1.376 . S
C1481 C1480 1.376 . S
C1481 C1482 1.378 . S
C1481 C1508 1.486 . S
C1482 H1444 0.930 . S
C1482 C1481 1.378 . S
C1482 C1483 1.376 . S
C1483 H1445 0.929 . S
C1483 C1478 1.397 . S
C1483 C1482 1.376 . S
C1484 C1468 1.509 . S
C1484 C1485 1.391 . S
C1484 C1489 1.386 . S
C1485 H1446 0.930 . S
C1485 C1484 1.391 . S
C1485 C1486 1.375 . S
C1486 H1447 0.931 . S
C1486 C1485 1.375 . S
C1486 C1487 1.375 . S
C1487 C1486 1.375 . S
C1487 C1488 1.361 . S
C1488 H1448 0.930 . S
C1488 C1487 1.361 . S
C1488 C1489 1.399 . S
C1489 H1449 0.929 . S
C1489 C1484 1.386 . S
C1489 C1488 1.399 . S
C1490 C1469 1.485 . S
C1490 C1491 1.394 . S
C1490 C1495 1.360 . S
C1491 H1450 0.931 . S
C1491 C1490 1.394 . S
C1491 C1492 1.372 . S
C1492 H1451 0.930 . S
C1492 C1491 1.372 . S
C1492 C1493 1.397 . S
C1493 C1492 1.397 . S
C1493 C1494 1.390 . S
C1493 C1509 1.476 . S
C1494 H1452 0.930 . S
C1494 C1493 1.390 . S
C1494 C1495 1.366 . S
C1495 H1453 0.932 . S
C1495 C1490 1.360 . S
C1495 C1494 1.366 . S
C1496 C1470 1.490 . S
C1496 C1497 1.380 . S
C1496 C1501 1.386 . S
C1497 H1454 0.930 . S
C1497 C1496 1.380 . S
C1497 C1498 1.381 . S
C1498 H1455 0.929 . S
C1498 C1497 1.381 . S
C1498 C1499 1.371 . S
C1499 C1498 1.371 . S
C1499 C1500 1.380 . S
C1500 H1456 0.931 . S
C1500 C1499 1.380 . S
C1500 C1501 1.387 . S
C1501 H1457 0.930 . S
C1501 C1496 1.386 . S
C1501 C1500 1.387 . S
C1502 C1471 1.519 . S
C1502 C1503 1.377 . S
C1502 C1507 1.361 . S
C1503 H1458 0.929 . S
C1503 C1502 1.377 . S
C1503 C1504 1.386 . S
C1504 H1459 0.931 . S
C1504 C1503 1.386 . S
C1504 C1505 1.363 . S
C1505 C1504 1.363 . S
C1505 C1506 1.385 . S
C1506 H1460 0.930 . S
C1506 C1505 1.385 . S
C1506 C1507 1.396 . S
C1507 H1461 0.929 . S
C1507 C1502 1.361 . S
C1507 C1506 1.396 . S
C1508 O1462 1.300 . S
C1508 O1463 1.209 . S
C1508 C1481 1.486 . S
C1509 O1464 1.199 . S
C1509 O1465 1.297 . S
C1509 C1493 1.476 . S
H1510 O1536 0.856 . S
H1511 O1539 0.854 . S
H1512 C1547 0.930 . S
H1513 C1548 0.930 . S
H1514 C1550 0.930 . S
H1515 C1551 0.930 . S
H1516 C1553 0.931 . S
H1517 C1554 0.930 . S
H1518 C1556 0.930 . S
H1519 C1557 0.929 . S
H1520 C1559 0.930 . S
H1521 C1560 0.931 . S
H1522 C1562 0.930 . S
H1523 C1563 0.929 . S
H1524 C1565 0.931 . S
H1525 C1566 0.930 . S
H1526 C1568 0.930 . S
H1527 C1569 0.932 . S
H1528 C1571 0.930 . S
H1529 C1572 0.929 . S
H1530 C1574 0.931 . S
H1531 C1575 0.930 . S
H1532 C1577 0.929 . S
H1533 C1578 0.931 . S
H1534 C1580 0.930 . S
H1535 C1581 0.929 . S
O1536 H1510 0.856 . S
O1536 C1582 1.300 . S
O1537 C1582 1.209 . S
O1538 C1583 1.199 . S
O1539 H1511 0.854 . S
O1539 C1583 1.297 . S
C1540 C1541 1.404 . S
C1540 C1545 1.397 . S
C1540 C1546 1.492 . S
C1541 C1540 1.404 . S
C1541 C1542 1.396 . S
C1541 C1552 1.492 . S
C1542 C1541 1.396 . S
C1542 C1543 1.397 . S
C1542 C1558 1.509 . S
C1543 C1542 1.397 . S
C1543 C1544 1.412 . S
C1543 C1564 1.485 . S
C1544 C1543 1.412 . S
C1544 C1545 1.388 . S
C1544 C1570 1.490 . S
C1545 C1540 1.397 . S
C1545 C1544 1.388 . S
C1545 C1576 1.519 . S
C1546 C1540 1.492 . S
C1546 C1547 1.363 . S
C1546 C1551 1.390 . S
C1547 H1512 0.930 . S
C1547 C1546 1.363 . S
C1547 C1548 1.372 . S
C1548 H1513 0.930 . S
C1548 C1547 1.372 . S
C1548 C1549 1.383 . S
C1549 C1548 1.383 . S
C1549 C1550 1.395 . S
C1550 H1514 0.930 . S
C1550 C1549 1.395 . S
C1550 C1551 1.362 . S
C1551 H1515 0.930 . S
C1551 C1546 1.390 . S
C1551 C1550 1.362 . S
C1552 C1541 1.492 . S
C1552 C1553 1.377 . S
C1552 C1557 1.397 . S
C1553 H1516 0.931 . S
C1553 C1552 1.377 . S
C1553 C1554 1.376 . S
C1554 H1517 0.930 . S
C1554 C1553 1.376 . S
C1554 C1555 1.376 . S
C1555 C1554 1.376 . S
C1555 C1556 1.378 . S
C1555 C1582 1.486 . S
C1556 H1518 0.930 . S
C1556 C1555 1.378 . S
C1556 C1557 1.376 . S
C1557 H1519 0.929 . S
C1557 C1552 1.397 . S
C1557 C1556 1.376 . S
C1558 C1542 1.509 . S
C1558 C1559 1.391 . S
C1558 C1563 1.386 . S
C1559 H1520 0.930 . S
C1559 C1558 1.391 . S
C1559 C1560 1.375 . S
C1560 H1521 0.931 . S
C1560 C1559 1.375 . S
C1560 C1561 1.375 . S
C1561 C1560 1.375 . S
C1561 C1562 1.361 . S
C1562 H1522 0.930 . S
C1562 C1561 1.361 . S
C1562 C1563 1.399 . S
C1563 H1523 0.929 . S
C1563 C1558 1.386 . S
C1563 C1562 1.399 . S
C1564 C1543 1.485 . S
C1564 C1565 1.394 . S
C1564 C1569 1.360 . S
C1565 H1524 0.931 . S
C1565 C1564 1.394 . S
C1565 C1566 1.372 . S
C1566 H1525 0.930 . S
C1566 C1565 1.372 . S
C1566 C1567 1.397 . S
C1567 C1566 1.397 . S
C1567 C1568 1.390 . S
C1567 C1583 1.476 . S
C1568 H1526 0.930 . S
C1568 C1567 1.390 . S
C1568 C1569 1.366 . S
C1569 H1527 0.932 . S
C1569 C1564 1.360 . S
C1569 C1568 1.366 . S
C1570 C1544 1.490 . S
C1570 C1571 1.380 . S
C1570 C1575 1.386 . S
C1571 H1528 0.930 . S
C1571 C1570 1.380 . S
C1571 C1572 1.381 . S
C1572 H1529 0.929 . S
C1572 C1571 1.381 . S
C1572 C1573 1.371 . S
C1573 C1572 1.371 . S
C1573 C1574 1.380 . S
C1574 H1530 0.931 . S
C1574 C1573 1.380 . S
C1574 C1575 1.387 . S
C1575 H1531 0.930 . S
C1575 C1570 1.386 . S
C1575 C1574 1.387 . S
C1576 C1545 1.519 . S
C1576 C1577 1.377 . S
C1576 C1581 1.361 . S
C1577 H1532 0.929 . S
C1577 C1576 1.377 . S
C1577 C1578 1.386 . S
C1578 H1533 0.931 . S
C1578 C1577 1.386 . S
C1578 C1579 1.363 . S
C1579 C1578 1.363 . S
C1579 C1580 1.385 . S
C1580 H1534 0.930 . S
C1580 C1579 1.385 . S
C1580 C1581 1.396 . S
C1581 H1535 0.929 . S
C1581 C1576 1.361 . S
C1581 C1580 1.396 . S
C1582 O1536 1.300 . S
C1582 O1537 1.209 . S
C1582 C1555 1.486 . S
C1583 O1538 1.199 . S
C1583 O1539 1.297 . S
C1583 C1567 1.476 . S
C1584 C1585 1.349 . S
C1584 C1586 1.327 . S
C1584 H1609 0.950 . S
C1585 C1584 1.349 . S
C1585 C1601 1.349 1_455 S
C1586 C1584 1.327 . S
C1586 C1605 1.429 1_455 S
C1586 H1610 0.950 . S
C1587 C1604 1.574 . S
C1587 C1606 1.368 . S
C1587 H1611 0.949 . S
H1588 C1592 0.949 1_455 S
C1589 C1590 1.349 . S
C1589 C1591 1.327 . S
C1589 H1612 0.950 . S
C1590 C1589 1.349 . S
C1590 C1602 1.349 . S
C1591 C1589 1.327 . S
C1591 C1607 1.429 . S
C1591 H1613 0.950 . S
C1592 H1588 0.949 1_655 S
C1592 C1600 1.553 1_655 S
C1592 C1608 1.368 . S
H1593 C1601 0.950 . S
H1594 C1599 0.950 . S
H1595 C1600 0.962 . S
H1596 C1602 0.950 . S
H1597 C1603 0.950 . S
H1598 C1604 0.949 . S
C1599 H1594 0.950 . S
C1599 C1601 1.327 . S
C1599 C1605 1.429 . S
C1600 C1592 1.553 1_455 S
C1600 H1595 0.962 . S
C1600 C1606 1.377 1_455 S
C1601 C1585 1.349 1_655 S
C1601 H1593 0.950 . S
C1601 C1599 1.327 . S
C1602 C1590 1.349 . S
C1602 H1596 0.950 . S
C1602 C1603 1.327 . S
C1603 H1597 0.950 . S
C1603 C1602 1.327 . S
C1603 C1607 1.429 . S
C1604 C1587 1.574 . S
C1604 H1598 0.949 . S
C1604 C1608 1.368 . S
C1605 C1586 1.429 1_655 S
C1605 C1599 1.429 . S
C1605 C1606 1.523 . S
C1606 C1587 1.368 . S
C1606 C1600 1.377 1_655 S
C1606 C1605 1.523 . S
C1607 C1591 1.429 . S
C1607 C1603 1.429 . S
C1607 C1608 1.523 . S
C1608 C1592 1.368 . S
C1608 C1604 1.368 . S
C1608 C1607 1.523 . S
H1609 C1584 0.950 . S
H1610 C1586 0.950 . S
H1611 C1587 0.949 . S
H1612 C1589 0.950 . S
H1613 C1591 0.950 . S
C1614 C1615 1.349 . S
C1614 C1616 1.327 . S
C1614 H1639 0.950 . S
C1615 C1614 1.349 . S
C1615 C1631 1.349 . S
C1616 C1614 1.327 . S
C1616 C1635 1.429 . S
C1616 H1640 0.950 . S
C1617 C1634 1.574 . S
C1617 C1636 1.368 . S
C1617 H1641 0.949 . S
H1618 C1622 0.949 . S
C1619 C1620 1.349 . S
C1619 C1621 1.327 . S
C1619 H1642 0.950 . S
C1620 C1619 1.349 . S
C1620 C1632 1.349 . S
C1621 C1619 1.327 . S
C1621 C1637 1.429 . S
C1621 H1643 0.950 . S
C1622 H1618 0.949 . S
C1622 C1630 1.574 . S
C1622 C1638 1.368 . S
H1623 C1631 0.950 . S
H1624 C1629 0.950 . S
H1625 C1630 0.949 . S
H1626 C1632 0.950 . S
H1627 C1633 0.950 . S
H1628 C1634 0.949 . S
C1629 H1624 0.950 . S
C1629 C1631 1.327 . S
C1629 C1635 1.429 . S
C1630 C1622 1.574 . S
C1630 H1625 0.949 . S
C1630 C1636 1.368 . S
C1631 C1615 1.349 . S
C1631 H1623 0.950 . S
C1631 C1629 1.327 . S
C1632 C1620 1.349 . S
C1632 H1626 0.950 . S
C1632 C1633 1.327 . S
C1633 H1627 0.950 . S
C1633 C1632 1.327 . S
C1633 C1637 1.429 . S
C1634 C1617 1.574 . S
C1634 H1628 0.949 . S
C1634 C1638 1.368 . S
C1635 C1616 1.429 . S
C1635 C1629 1.429 . S
C1635 C1636 1.523 . S
C1636 C1617 1.368 . S
C1636 C1630 1.368 . S
C1636 C1635 1.523 . S
C1637 C1621 1.429 . S
C1637 C1633 1.429 . S
C1637 C1638 1.523 . S
C1638 C1622 1.368 . S
C1638 C1634 1.368 . S
C1638 C1637 1.523 . S
H1639 C1614 0.950 . S
H1640 C1616 0.950 . S
H1641 C1617 0.949 . S
H1642 C1619 0.950 . S
H1643 C1621 0.950 . S
C1644 C1645 1.317 1_565 S
C1644 C1646 1.322 . S
C1644 H1669 0.970 . S
C1645 C1644 1.317 1_545 S
C1645 C1661 1.349 . S
C1646 C1644 1.322 . S
C1646 C1665 1.403 1_565 S
C1646 H1670 0.994 . S
C1647 C1664 1.574 . S
C1647 C1666 1.368 . S
C1647 H1671 0.949 . S
H1648 C1652 0.995 . S
C1649 C1650 1.349 . S
C1649 C1651 1.327 . S
C1649 H1672 0.950 . S
C1650 C1649 1.349 . S
C1650 C1662 1.402 . S
C1651 C1649 1.327 . S
C1651 C1667 1.429 . S
C1651 H1673 0.950 . S
C1652 H1648 0.995 . S
C1652 C1660 1.582 . S
C1652 C1668 1.335 1_565 S
H1653 C1661 0.950 . S
H1654 C1659 0.950 . S
H1655 C1660 0.990 . S
H1656 C1662 0.868 1_565 S
H1657 C1663 0.927 1_565 S
H1658 C1664 0.949 . S
C1659 H1654 0.950 . S
C1659 C1661 1.327 . S
C1659 C1665 1.429 . S
C1660 C1652 1.582 . S
C1660 H1655 0.990 . S
C1660 C1666 1.300 1_565 S
C1661 C1645 1.349 . S
C1661 H1653 0.950 . S
C1661 C1659 1.327 . S
C1662 C1650 1.402 . S
C1662 H1656 0.868 1_545 S
C1662 C1663 1.345 . S
C1663 H1657 0.927 1_545 S
C1663 C1662 1.345 . S
C1663 C1667 1.462 . S
C1664 C1647 1.574 . S
C1664 H1658 0.949 . S
C1664 C1668 1.368 . S
C1665 C1646 1.403 1_545 S
C1665 C1659 1.429 . S
C1665 C1666 1.523 . S
C1666 C1647 1.368 . S
C1666 C1660 1.300 1_545 S
C1666 C1665 1.523 . S
C1667 C1651 1.429 . S
C1667 C1663 1.462 . S
C1667 C1668 1.523 . S
C1668 C1652 1.335 1_545 S
C1668 C1664 1.368 . S
C1668 C1667 1.523 . S
H1669 C1644 0.970 . S
H1670 C1646 0.994 . S
H1671 C1647 0.949 . S
H1672 C1649 0.950 . S
H1673 C1651 0.950 . S
C1674 C1675 1.361 . S
C1674 C1676 1.338 1_565 S
C1674 H1699 0.929 1_565 S
C1675 C1674 1.361 . S
C1675 C1691 1.349 . S
C1676 C1674 1.338 1_545 S
C1676 C1695 1.428 1_545 S
C1676 H1700 0.950 . S
C1677 C1694 1.574 . S
C1677 C1696 1.368 . S
C1677 H1701 0.949 . S
H1678 C1682 0.949 . S
C1679 C1680 1.349 . S
C1679 C1681 1.327 . S
C1679 H1702 0.950 . S
C1680 C1679 1.349 . S
C1680 C1692 1.349 1_565 S
C1681 C1679 1.327 . S
C1681 C1697 1.429 . S
C1681 H1703 0.950 . S
C1682 H1678 0.949 . S
C1682 C1690 1.574 . S
C1682 C1698 1.368 1_545 S
H1683 C1691 0.950 . S
H1684 C1689 0.950 . S
H1685 C1690 0.949 . S
H1686 C1692 0.950 . S
H1687 C1693 0.950 . S
H1688 C1694 0.949 . S
C1689 H1684 0.950 . S
C1689 C1691 1.327 . S
C1689 C1695 1.429 . S
C1690 C1682 1.574 . S
C1690 H1685 0.949 . S
C1690 C1696 1.368 1_545 S
C1691 C1675 1.349 . S
C1691 H1683 0.950 . S
C1691 C1689 1.327 . S
C1692 C1680 1.349 1_545 S
C1692 H1686 0.950 . S
C1692 C1693 1.327 . S
C1693 H1687 0.950 . S
C1693 C1692 1.327 . S
C1693 C1697 1.429 1_545 S
C1694 C1677 1.574 . S
C1694 H1688 0.949 . S
C1694 C1698 1.368 . S
C1695 C1676 1.428 1_565 S
C1695 C1689 1.429 . S
C1695 C1696 1.523 . S
C1696 C1677 1.368 . S
C1696 C1690 1.368 1_565 S
C1696 C1695 1.523 . S
C1697 C1681 1.429 . S
C1697 C1693 1.429 1_565 S
C1697 C1698 1.523 . S
C1698 C1682 1.368 1_565 S
C1698 C1694 1.368 . S
C1698 C1697 1.523 . S
H1699 C1674 0.929 1_545 S
H1700 C1676 0.950 . S
H1701 C1677 0.949 . S
H1702 C1679 0.950 . S
H1703 C1681 0.950 . S
C1704 C1705 1.349 . S
C1704 C1706 1.327 . S
C1704 H1729 0.950 . S
C1705 C1704 1.349 . S
C1705 C1721 1.349 . S
C1706 C1704 1.327 . S
C1706 C1725 1.429 . S
C1706 H1730 0.950 . S
C1707 C1724 1.574 . S
C1707 C1726 1.368 . S
C1707 H1731 0.949 . S
H1708 C1712 0.946 1_655 S
C1709 C1710 1.349 . S
C1709 C1711 1.327 . S
C1709 H1732 0.950 . S
C1710 C1709 1.349 . S
C1710 C1722 1.349 . S
C1711 C1709 1.327 . S
C1711 C1727 1.429 . S
C1711 H1733 0.950 . S
C1712 H1708 0.946 1_455 S
C1712 C1720 1.574 . S
C1712 C1728 1.368 . S
H1713 C1721 0.950 . S
H1714 C1719 0.950 . S
H1715 C1720 0.949 . S
H1716 C1722 0.950 1_655 S
H1717 C1723 0.950 1_655 S
H1718 C1724 0.949 . S
C1719 H1714 0.950 . S
C1719 C1721 1.327 . S
C1719 C1725 1.429 . S
C1720 C1712 1.574 . S
C1720 H1715 0.949 . S
C1720 C1726 1.368 . S
C1721 C1705 1.349 . S
C1721 H1713 0.950 . S
C1721 C1719 1.327 . S
C1722 C1710 1.349 . S
C1722 H1716 0.950 1_455 S
C1722 C1723 1.327 . S
C1723 H1717 0.950 1_455 S
C1723 C1722 1.327 . S
C1723 C1727 1.429 . S
C1724 C1707 1.574 . S
C1724 H1718 0.949 . S
C1724 C1728 1.368 . S
C1725 C1706 1.429 . S
C1725 C1719 1.429 . S
C1725 C1726 1.523 . S
C1726 C1707 1.368 . S
C1726 C1720 1.368 . S
C1726 C1725 1.523 . S
C1727 C1711 1.429 . S
C1727 C1723 1.429 . S
C1727 C1728 1.523 . S
C1728 C1712 1.368 . S
C1728 C1724 1.368 . S
C1728 C1727 1.523 . S
H1729 C1704 0.950 . S
H1730 C1706 0.950 . S
H1731 C1707 0.949 . S
H1732 C1709 0.950 . S
H1733 C1711 0.950 . S
C1734 C1735 1.349 . S
C1734 C1736 1.327 . S
C1734 H1759 0.950 . S
C1735 C1734 1.349 . S
C1735 C1751 1.349 . S
C1736 C1734 1.327 . S
C1736 C1755 1.429 1_554 S
C1736 H1760 0.950 . S
C1737 C1754 1.574 . S
C1737 C1756 1.368 . S
C1737 H1761 0.949 . S
H1738 C1742 0.949 . S
C1739 C1740 1.349 . S
C1739 C1741 1.327 . S
C1739 H1762 0.950 . S
C1740 C1739 1.349 . S
C1740 C1752 1.349 . S
C1741 C1739 1.327 . S
C1741 C1757 1.429 . S
C1741 H1763 0.950 . S
C1742 H1738 0.949 . S
C1742 C1750 1.574 . S
C1742 C1758 1.368 . S
H1743 C1751 0.950 . S
H1744 C1749 0.950 . S
H1745 C1750 0.949 . S
H1746 C1752 0.950 . S
H1747 C1753 0.950 . S
H1748 C1754 0.949 . S
C1749 H1744 0.950 . S
C1749 C1751 1.327 1_556 S
C1749 C1755 1.429 . S
C1750 C1742 1.574 . S
C1750 H1745 0.949 . S
C1750 C1756 1.368 . S
C1751 C1735 1.349 . S
C1751 H1743 0.950 . S
C1751 C1749 1.327 1_554 S
C1752 C1740 1.349 . S
C1752 H1746 0.950 . S
C1752 C1753 1.327 . S
C1753 H1747 0.950 . S
C1753 C1752 1.327 . S
C1753 C1757 1.429 . S
C1754 C1737 1.574 . S
C1754 H1748 0.949 . S
C1754 C1758 1.368 . S
C1755 C1736 1.429 1_556 S
C1755 C1749 1.429 . S
C1755 C1756 1.523 . S
C1756 C1737 1.368 . S
C1756 C1750 1.368 . S
C1756 C1755 1.523 . S
C1757 C1741 1.429 . S
C1757 C1753 1.429 . S
C1757 C1758 1.523 . S
C1758 C1742 1.368 . S
C1758 C1754 1.368 . S
C1758 C1757 1.523 . S
H1759 C1734 0.950 . S
H1760 C1736 0.950 . S
H1761 C1737 0.949 . S
H1762 C1739 0.950 . S
H1763 C1741 0.950 . S
C1764 C1765 1.349 . S
C1764 C1766 1.327 1_554 S
C1764 H1789 0.950 . S
C1765 C1764 1.349 . S
C1765 C1781 1.349 1_455 S
C1766 C1764 1.327 1_556 S
C1766 C1785 1.429 . S
C1766 H1790 0.950 . S
C1767 C1784 1.574 . S
C1767 C1786 1.368 1_655 S
C1767 H1791 0.949 . S
H1768 C1772 0.949 . S
C1769 C1770 1.284 1_655 S
C1769 C1771 1.327 . S
C1769 H1792 0.950 . S
C1770 C1769 1.284 1_455 S
C1770 C1782 1.389 . S
C1771 C1769 1.327 . S
C1771 C1787 1.429 1_655 S
C1771 H1793 0.950 . S
C1772 H1768 0.949 . S
C1772 C1780 1.574 . S
C1772 C1788 1.368 . S
H1773 C1781 0.950 . S
H1774 C1779 0.950 . S
H1775 C1780 0.949 . S
H1776 C1782 0.950 . S
H1777 C1783 0.950 . S
H1778 C1784 0.949 . S
C1779 H1774 0.950 . S
C1779 C1781 1.327 1_556 S
C1779 C1785 1.429 1_655 S
C1780 C1772 1.574 . S
C1780 H1775 0.949 . S
C1780 C1786 1.368 . S
C1781 C1765 1.349 1_655 S
C1781 H1773 0.950 . S
C1781 C1779 1.327 1_554 S
C1782 C1770 1.389 . S
C1782 H1776 0.950 . S
C1782 C1783 1.327 . S
C1783 H1777 0.950 . S
C1783 C1782 1.327 . S
C1783 C1787 1.429 . S
C1784 C1767 1.574 . S
C1784 H1778 0.949 . S
C1784 C1788 1.368 1_655 S
C1785 C1766 1.429 . S
C1785 C1779 1.429 1_455 S
C1785 C1786 1.523 . S
C1786 C1767 1.368 1_455 S
C1786 C1780 1.368 . S
C1786 C1785 1.523 . S
C1787 C1771 1.429 1_455 S
C1787 C1783 1.429 . S
C1787 C1788 1.523 . S
C1788 C1772 1.368 . S
C1788 C1784 1.368 1_455 S
C1788 C1787 1.523 . S
H1789 C1764 0.950 . S
H1790 C1766 0.950 . S
H1791 C1767 0.949 . S
H1792 C1769 0.950 . S
H1793 C1771 0.950 . S
C1794 C1795 1.349 . S
C1794 C1796 1.327 . S
C1794 H1819 0.950 . S
C1795 C1794 1.349 . S
C1795 C1811 1.349 . S
C1796 C1794 1.327 . S
C1796 C1815 1.429 . S
C1796 H1820 0.950 . S
C1797 C1814 1.574 . S
C1797 C1816 1.368 . S
C1797 H1821 0.949 . S
H1798 C1802 0.949 . S
C1799 C1800 1.349 . S
C1799 C1801 1.327 . S
C1799 H1822 0.950 . S
C1800 C1799 1.349 . S
C1800 C1812 1.349 . S
C1801 C1799 1.327 . S
C1801 C1817 1.429 . S
C1801 H1823 0.950 . S
C1802 H1798 0.949 . S
C1802 C1810 1.574 . S
C1802 C1818 1.368 . S
H1803 C1811 0.950 . S
H1804 C1809 0.950 . S
H1805 C1810 0.949 . S
H1806 C1812 0.950 . S
H1807 C1813 0.950 . S
H1808 C1814 0.949 . S
C1809 H1804 0.950 . S
C1809 C1811 1.327 . S
C1809 C1815 1.429 . S
C1810 C1802 1.574 . S
C1810 H1805 0.949 . S
C1810 C1816 1.368 . S
C1811 C1795 1.349 . S
C1811 H1803 0.950 . S
C1811 C1809 1.327 . S
C1812 C1800 1.349 . S
C1812 H1806 0.950 . S
C1812 C1813 1.327 . S
C1813 H1807 0.950 . S
C1813 C1812 1.327 . S
C1813 C1817 1.429 . S
C1814 C1797 1.574 . S
C1814 H1808 0.949 . S
C1814 C1818 1.368 . S
C1815 C1796 1.429 . S
C1815 C1809 1.429 . S
C1815 C1816 1.523 . S
C1816 C1797 1.368 . S
C1816 C1810 1.368 . S
C1816 C1815 1.523 . S
C1817 C1801 1.429 . S
C1817 C1813 1.429 . S
C1817 C1818 1.523 . S
C1818 C1802 1.368 . S
C1818 C1814 1.368 . S
C1818 C1817 1.523 . S
H1819 C1794 0.950 . S
H1820 C1796 0.950 . S
H1821 C1797 0.949 . S
H1822 C1799 0.950 . S
H1823 C1801 0.950 . S
C1824 C1825 1.349 1_565 S
C1824 C1826 1.301 1_554 S
C1824 H1849 0.950 . S
C1825 C1824 1.349 1_545 S
C1825 C1841 1.349 . S
C1826 C1824 1.301 1_556 S
C1826 C1845 1.454 1_565 S
C1826 H1850 0.951 . S
C1827 C1844 1.574 . S
C1827 C1846 1.368 . S
C1827 H1851 0.949 . S
H1828 C1832 0.949 . S
C1829 C1830 1.349 . S
C1829 C1831 1.327 . S
C1829 H1852 0.950 . S
C1830 C1829 1.349 . S
C1830 C1842 1.349 1_545 S
C1831 C1829 1.327 . S
C1831 C1847 1.429 . S
C1831 H1853 0.950 . S
C1832 H1828 0.949 . S
C1832 C1840 1.574 . S
C1832 C1848 1.368 1_565 S
H1833 C1841 0.950 . S
H1834 C1839 0.950 . S
H1835 C1840 0.949 . S
H1836 C1842 0.950 . S
H1837 C1843 0.950 . S
H1838 C1844 0.949 . S
C1839 H1834 0.950 . S
C1839 C1841 1.327 1_556 S
C1839 C1845 1.429 . S
C1840 C1832 1.574 . S
C1840 H1835 0.949 . S
C1840 C1846 1.368 1_565 S
C1841 C1825 1.349 . S
C1841 H1833 0.950 . S
C1841 C1839 1.327 1_554 S
C1842 C1830 1.349 1_565 S
C1842 H1836 0.950 . S
C1842 C1843 1.327 . S
C1843 H1837 0.950 . S
C1843 C1842 1.327 . S
C1843 C1847 1.429 1_565 S
C1844 C1827 1.574 . S
C1844 H1838 0.949 . S
C1844 C1848 1.368 . S
C1845 C1826 1.454 1_545 S
C1845 C1839 1.429 . S
C1845 C1846 1.523 . S
C1846 C1827 1.368 . S
C1846 C1840 1.368 1_545 S
C1846 C1845 1.523 . S
C1847 C1831 1.429 . S
C1847 C1843 1.429 1_545 S
C1847 C1848 1.523 . S
C1848 C1832 1.368 1_545 S
C1848 C1844 1.368 . S
C1848 C1847 1.523 . S
H1849 C1824 0.950 . S
H1850 C1826 0.951 . S
H1851 C1827 0.949 . S
H1852 C1829 0.950 . S
H1853 C1831 0.950 . S
C1854 C1855 1.349 . S
C1854 C1856 1.327 . S
C1854 H1879 0.950 . S
C1855 C1854 1.349 . S
C1855 C1871 1.349 . S
C1856 C1854 1.327 . S
C1856 C1875 1.429 . S
C1856 H1880 0.950 1_545 S
C1857 C1874 1.574 . S
C1857 C1876 1.368 . S
C1857 H1881 0.949 . S
H1858 C1862 0.949 . S
C1859 C1860 1.349 . S
C1859 C1861 1.327 . S
C1859 H1882 0.950 . S
C1860 C1859 1.349 . S
C1860 C1872 1.349 1_545 S
C1861 C1859 1.327 . S
C1861 C1877 1.429 . S
C1861 H1883 0.950 . S
C1862 H1858 0.949 . S
C1862 C1870 1.574 1_565 S
C1862 C1878 1.368 1_565 S
H1863 C1871 0.950 . S
H1864 C1869 0.950 . S
H1865 C1870 0.949 1_565 S
H1866 C1872 0.950 . S
H1867 C1873 0.950 . S
H1868 C1874 0.949 . S
C1869 H1864 0.950 . S
C1869 C1871 1.327 . S
C1869 C1875 1.429 . S
C1870 C1862 1.574 1_545 S
C1870 H1865 0.949 1_545 S
C1870 C1876 1.368 . S
C1871 C1855 1.349 . S
C1871 H1863 0.950 . S
C1871 C1869 1.327 . S
C1872 C1860 1.349 1_565 S
C1872 H1866 0.950 . S
C1872 C1873 1.327 . S
C1873 H1867 0.950 . S
C1873 C1872 1.327 . S
C1873 C1877 1.429 1_565 S
C1874 C1857 1.574 . S
C1874 H1868 0.949 . S
C1874 C1878 1.368 . S
C1875 C1856 1.429 . S
C1875 C1869 1.429 . S
C1875 C1876 1.523 . S
C1876 C1857 1.368 . S
C1876 C1870 1.368 . S
C1876 C1875 1.523 . S
C1877 C1861 1.429 . S
C1877 C1873 1.429 1_545 S
C1877 C1878 1.523 . S
C1878 C1862 1.368 1_545 S
C1878 C1874 1.368 . S
C1878 C1877 1.523 . S
H1879 C1854 0.950 . S
H1880 C1856 0.950 1_565 S
H1881 C1857 0.949 . S
H1882 C1859 0.950 . S
H1883 C1861 0.950 . S
C1884 C1885 1.349 . S
C1884 C1886 1.327 . S
C1884 H1909 0.950 . S
C1885 C1884 1.349 . S
C1885 C1901 1.349 . S
C1886 C1884 1.327 . S
C1886 C1905 1.429 . S
C1886 H1910 0.950 . S
C1887 C1904 1.589 . S
C1887 C1906 1.368 . S
C1887 H1911 0.951 . S
H1888 C1892 0.949 . S
C1889 C1890 1.350 . S
C1889 C1891 1.327 . S
C1889 H1912 0.950 . S
C1890 C1889 1.350 . S
C1890 C1902 1.345 1_455 S
C1891 C1889 1.327 . S
C1891 C1907 1.429 1_455 S
C1891 H1913 0.950 . S
C1892 H1888 0.949 . S
C1892 C1900 1.574 . S
C1892 C1908 1.368 . S
H1893 C1901 0.950 . S
H1894 C1899 0.950 . S
H1895 C1900 0.949 . S
H1896 C1902 0.950 . S
H1897 C1903 0.950 . S
H1898 C1904 0.923 1_455 S
C1899 H1894 0.950 . S
C1899 C1901 1.327 . S
C1899 C1905 1.429 . S
C1900 C1892 1.574 . S
C1900 H1895 0.949 . S
C1900 C1906 1.368 . S
C1901 C1885 1.349 . S
C1901 H1893 0.950 . S
C1901 C1899 1.327 . S
C1902 C1890 1.345 1_655 S
C1902 H1896 0.950 . S
C1902 C1903 1.327 . S
C1903 H1897 0.950 . S
C1903 C1902 1.327 . S
C1903 C1907 1.429 . S
C1904 C1887 1.589 . S
C1904 H1898 0.923 1_655 S
C1904 C1908 1.383 . S
C1905 C1886 1.429 . S
C1905 C1899 1.429 . S
C1905 C1906 1.523 . S
C1906 C1887 1.368 . S
C1906 C1900 1.368 . S
C1906 C1905 1.523 . S
C1907 C1891 1.429 1_655 S
C1907 C1903 1.429 . S
C1907 C1908 1.523 . S
C1908 C1892 1.368 . S
C1908 C1904 1.383 . S
C1908 C1907 1.523 . S
H1909 C1884 0.950 . S
H1910 C1886 0.950 . S
H1911 C1887 0.951 . S
H1912 C1889 0.950 . S
H1913 C1891 0.950 . S
C1914 C1915 1.349 . S
C1914 C1916 1.327 . S
C1914 H1939 0.950 . S
C1915 C1914 1.349 . S
C1915 C1931 1.349 . S
C1916 C1914 1.327 . S
C1916 C1935 1.429 . S
C1916 H1940 0.950 . S
C1917 C1934 1.574 . S
C1917 C1936 1.368 . S
C1917 H1941 0.949 . S
H1918 C1922 0.949 . S
C1919 C1920 1.349 . S
C1919 C1921 1.327 . S
C1919 H1942 0.950 . S
C1920 C1919 1.349 . S
C1920 C1932 1.349 . S
C1921 C1919 1.327 . S
C1921 C1937 1.429 . S
C1921 H1943 0.950 . S
C1922 H1918 0.949 . S
C1922 C1930 1.574 . S
C1922 C1938 1.368 . S
H1923 C1931 0.950 . S
H1924 C1929 0.950 . S
H1925 C1930 0.949 . S
H1926 C1932 0.950 . S
H1927 C1933 0.950 . S
H1928 C1934 0.949 . S
C1929 H1924 0.950 . S
C1929 C1931 1.327 . S
C1929 C1935 1.429 . S
C1930 C1922 1.574 . S
C1930 H1925 0.949 . S
C1930 C1936 1.368 . S
C1931 C1915 1.349 . S
C1931 H1923 0.950 . S
C1931 C1929 1.327 . S
C1932 C1920 1.349 . S
C1932 H1926 0.950 . S
C1932 C1933 1.327 . S
C1933 H1927 0.950 . S
C1933 C1932 1.327 . S
C1933 C1937 1.429 . S
C1934 C1917 1.574 . S
C1934 H1928 0.949 . S
C1934 C1938 1.368 . S
C1935 C1916 1.429 . S
C1935 C1929 1.429 . S
C1935 C1936 1.523 . S
C1936 C1917 1.368 . S
C1936 C1930 1.368 . S
C1936 C1935 1.523 . S
C1937 C1921 1.429 . S
C1937 C1933 1.429 . S
C1937 C1938 1.523 . S
C1938 C1922 1.368 . S
C1938 C1934 1.368 . S
C1938 C1937 1.523 . S
H1939 C1914 0.950 . S
H1940 C1916 0.950 . S
H1941 C1917 0.949 . S
H1942 C1919 0.950 . S
H1943 C1921 0.950 . S
C1944 C1945 1.349 . S
C1944 C1946 1.327 . S
C1944 H1969 0.950 . S
C1945 C1944 1.349 . S
C1945 C1961 1.349 . S
C1946 C1944 1.327 . S
C1946 C1965 1.429 . S
C1946 H1970 0.950 . S
C1947 C1964 1.574 . S
C1947 C1966 1.368 . S
C1947 H1971 0.949 . S
H1948 C1952 0.949 . S
C1949 C1950 1.349 . S
C1949 C1951 1.327 . S
C1949 H1972 0.950 . S
C1950 C1949 1.349 . S
C1950 C1962 1.349 . S
C1951 C1949 1.327 . S
C1951 C1967 1.429 . S
C1951 H1973 0.950 . S
C1952 H1948 0.949 . S
C1952 C1960 1.574 . S
C1952 C1968 1.368 . S
H1953 C1961 0.950 . S
H1954 C1959 0.950 . S
H1955 C1960 0.949 . S
H1956 C1962 0.950 . S
H1957 C1963 0.950 . S
H1958 C1964 0.949 . S
C1959 H1954 0.950 . S
C1959 C1961 1.327 . S
C1959 C1965 1.429 . S
C1960 C1952 1.574 . S
C1960 H1955 0.949 . S
C1960 C1966 1.368 . S
C1961 C1945 1.349 . S
C1961 H1953 0.950 . S
C1961 C1959 1.327 . S
C1962 C1950 1.349 . S
C1962 H1956 0.950 . S
C1962 C1963 1.327 . S
C1963 H1957 0.950 . S
C1963 C1962 1.327 . S
C1963 C1967 1.429 . S
C1964 C1947 1.574 . S
C1964 H1958 0.949 . S
C1964 C1968 1.368 . S
C1965 C1946 1.429 . S
C1965 C1959 1.429 . S
C1965 C1966 1.523 . S
C1966 C1947 1.368 . S
C1966 C1960 1.368 . S
C1966 C1965 1.523 . S
C1967 C1951 1.429 . S
C1967 C1963 1.429 . S
C1967 C1968 1.523 . S
C1968 C1952 1.368 . S
C1968 C1964 1.368 . S
C1968 C1967 1.523 . S
H1969 C1944 0.950 . S
H1970 C1946 0.950 . S
H1971 C1947 0.949 . S
H1972 C1949 0.950 . S
H1973 C1951 0.950 . S
C1974 C1975 1.349 . S
C1974 C1976 1.327 . S
C1974 H1999 0.950 . S
C1975 C1974 1.349 . S
C1975 C1991 1.349 . S
C1976 C1974 1.327 . S
C1976 C1995 1.429 . S
C1976 H2000 0.950 . S
C1977 C1994 1.574 . S
C1977 C1996 1.368 . S
C1977 H2001 0.949 . S
H1978 C1982 0.949 . S
C1979 C1980 1.349 . S
C1979 C1981 1.327 . S
C1979 H2002 0.950 . S
C1980 C1979 1.349 . S
C1980 C1992 1.349 . S
C1981 C1979 1.327 . S
C1981 C1997 1.429 . S
C1981 H2003 0.950 . S
C1982 H1978 0.949 . S
C1982 C1990 1.574 . S
C1982 C1998 1.368 . S
H1983 C1991 0.950 . S
H1984 C1989 0.950 . S
H1985 C1990 0.949 . S
H1986 C1992 0.950 . S
H1987 C1993 0.950 . S
H1988 C1994 0.949 . S
C1989 H1984 0.950 . S
C1989 C1991 1.327 . S
C1989 C1995 1.429 . S
C1990 C1982 1.574 . S
C1990 H1985 0.949 . S
C1990 C1996 1.368 . S
C1991 C1975 1.349 . S
C1991 H1983 0.950 . S
C1991 C1989 1.327 . S
C1992 C1980 1.349 . S
C1992 H1986 0.950 . S
C1992 C1993 1.327 . S
C1993 H1987 0.950 . S
C1993 C1992 1.327 . S
C1993 C1997 1.429 . S
C1994 C1977 1.574 . S
C1994 H1988 0.949 . S
C1994 C1998 1.368 . S
C1995 C1976 1.429 . S
C1995 C1989 1.429 . S
C1995 C1996 1.523 . S
C1996 C1977 1.368 . S
C1996 C1990 1.368 . S
C1996 C1995 1.523 . S
C1997 C1981 1.429 . S
C1997 C1993 1.429 . S
C1997 C1998 1.523 . S
C1998 C1982 1.368 . S
C1998 C1994 1.368 . S
C1998 C1997 1.523 . S
H1999 C1974 0.950 . S
H2000 C1976 0.950 . S
H2001 C1977 0.949 . S
H2002 C1979 0.950 . S
H2003 C1981 0.950 . S
C2004 C2005 1.349 . S
C2004 C2006 1.327 . S
C2004 H2029 0.950 . S
C2005 C2004 1.349 . S
C2005 C2021 1.349 . S
C2006 C2004 1.327 . S
C2006 C2025 1.429 . S
C2006 H2030 0.950 . S
C2007 C2024 1.574 . S
C2007 C2026 1.368 . S
C2007 H2031 0.949 . S
H2008 C2012 0.949 . S
C2009 C2010 1.349 . S
C2009 C2011 1.327 . S
C2009 H2032 0.950 . S
C2010 C2009 1.349 . S
C2010 C2022 1.349 . S
C2011 C2009 1.327 . S
C2011 C2027 1.429 . S
C2011 H2033 0.950 . S
C2012 H2008 0.949 . S
C2012 C2020 1.574 . S
C2012 C2028 1.368 . S
H2013 C2021 0.950 . S
H2014 C2019 0.950 . S
H2015 C2020 0.949 . S
H2016 C2022 0.950 . S
H2017 C2023 0.950 . S
H2018 C2024 0.949 . S
C2019 H2014 0.950 . S
C2019 C2021 1.327 . S
C2019 C2025 1.429 . S
C2020 C2012 1.574 . S
C2020 H2015 0.949 . S
C2020 C2026 1.368 . S
C2021 C2005 1.349 . S
C2021 H2013 0.950 . S
C2021 C2019 1.327 . S
C2022 C2010 1.349 . S
C2022 H2016 0.950 . S
C2022 C2023 1.327 . S
C2023 H2017 0.950 . S
C2023 C2022 1.327 . S
C2023 C2027 1.429 . S
C2024 C2007 1.574 . S
C2024 H2018 0.949 . S
C2024 C2028 1.368 . S
C2025 C2006 1.429 . S
C2025 C2019 1.429 . S
C2025 C2026 1.523 . S
C2026 C2007 1.368 . S
C2026 C2020 1.368 . S
C2026 C2025 1.523 . S
C2027 C2011 1.429 . S
C2027 C2023 1.429 . S
C2027 C2028 1.523 . S
C2028 C2012 1.368 . S
C2028 C2024 1.368 . S
C2028 C2027 1.523 . S
H2029 C2004 0.950 . S
H2030 C2006 0.950 . S
H2031 C2007 0.949 . S
H2032 C2009 0.950 . S
H2033 C2011 0.950 . S
C2034 C2035 1.349 . S
C2034 C2036 1.327 . S
C2034 H2059 0.950 . S
C2035 C2034 1.349 . S
C2035 C2051 1.349 . S
C2036 C2034 1.327 . S
C2036 C2055 1.429 . S
C2036 H2060 0.950 . S
C2037 C2054 1.574 . S
C2037 C2056 1.368 . S
C2037 H2061 0.949 . S
H2038 C2042 0.949 . S
C2039 C2040 1.349 . S
C2039 C2041 1.327 . S
C2039 H2062 0.950 . S
C2040 C2039 1.349 . S
C2040 C2052 1.349 . S
C2041 C2039 1.327 . S
C2041 C2057 1.429 . S
C2041 H2063 0.950 . S
C2042 H2038 0.949 . S
C2042 C2050 1.574 . S
C2042 C2058 1.368 . S
H2043 C2051 0.950 . S
H2044 C2049 0.950 . S
H2045 C2050 0.949 . S
H2046 C2052 0.950 . S
H2047 C2053 0.950 . S
H2048 C2054 0.949 . S
C2049 H2044 0.950 . S
C2049 C2051 1.327 . S
C2049 C2055 1.429 . S
C2050 C2042 1.574 . S
C2050 H2045 0.949 . S
C2050 C2056 1.368 . S
C2051 C2035 1.349 . S
C2051 H2043 0.950 . S
C2051 C2049 1.327 . S
C2052 C2040 1.349 . S
C2052 H2046 0.950 . S
C2052 C2053 1.327 . S
C2053 H2047 0.950 . S
C2053 C2052 1.327 . S
C2053 C2057 1.429 . S
C2054 C2037 1.574 . S
C2054 H2048 0.949 . S
C2054 C2058 1.368 . S
C2055 C2036 1.429 . S
C2055 C2049 1.429 . S
C2055 C2056 1.523 . S
C2056 C2037 1.368 . S
C2056 C2050 1.368 . S
C2056 C2055 1.523 . S
C2057 C2041 1.429 . S
C2057 C2053 1.429 . S
C2057 C2058 1.523 . S
C2058 C2042 1.368 . S
C2058 C2054 1.368 . S
C2058 C2057 1.523 . S
H2059 C2034 0.950 . S
H2060 C2036 0.950 . S
H2061 C2037 0.949 . S
H2062 C2039 0.950 . S
H2063 C2041 0.950 . S
C2064 C2065 1.349 . S
C2064 C2066 1.327 . S
C2064 H2089 0.950 . S
C2065 C2064 1.349 . S
C2065 C2081 1.349 . S
C2066 C2064 1.327 . S
C2066 C2085 1.429 . S
C2066 H2090 0.950 . S
C2067 C2084 1.574 . S
C2067 C2086 1.368 . S
C2067 H2091 0.949 . S
H2068 C2072 0.949 . S
C2069 C2070 1.349 . S
C2069 C2071 1.327 . S
C2069 H2092 0.950 . S
C2070 C2069 1.349 . S
C2070 C2082 1.349 . S
C2071 C2069 1.327 . S
C2071 C2087 1.429 . S
C2071 H2093 0.950 . S
C2072 H2068 0.949 . S
C2072 C2080 1.574 . S
C2072 C2088 1.368 . S
H2073 C2081 0.950 . S
H2074 C2079 0.950 . S
H2075 C2080 0.949 . S
H2076 C2082 0.950 . S
H2077 C2083 0.950 . S
H2078 C2084 0.949 . S
C2079 H2074 0.950 . S
C2079 C2081 1.327 . S
C2079 C2085 1.429 . S
C2080 C2072 1.574 . S
C2080 H2075 0.949 . S
C2080 C2086 1.368 . S
C2081 C2065 1.349 . S
C2081 H2073 0.950 . S
C2081 C2079 1.327 . S
C2082 C2070 1.349 . S
C2082 H2076 0.950 . S
C2082 C2083 1.327 . S
C2083 H2077 0.950 . S
C2083 C2082 1.327 . S
C2083 C2087 1.429 . S
C2084 C2067 1.574 . S
C2084 H2078 0.949 . S
C2084 C2088 1.368 . S
C2085 C2066 1.429 . S
C2085 C2079 1.429 . S
C2085 C2086 1.523 . S
C2086 C2067 1.368 . S
C2086 C2080 1.368 . S
C2086 C2085 1.523 . S
C2087 C2071 1.429 . S
C2087 C2083 1.429 . S
C2087 C2088 1.523 . S
C2088 C2072 1.368 . S
C2088 C2084 1.368 . S
C2088 C2087 1.523 . S
H2089 C2064 0.950 . S
H2090 C2066 0.950 . S
H2091 C2067 0.949 . S
H2092 C2069 0.950 . S
H2093 C2071 0.950 . S
C2094 C2095 1.349 . S
C2094 C2096 1.327 . S
C2094 H2119 0.950 . S
C2095 C2094 1.349 . S
C2095 C2111 1.349 . S
C2096 C2094 1.327 . S
C2096 C2115 1.429 . S
C2096 H2120 0.950 . S
C2097 C2114 1.574 . S
C2097 C2116 1.368 . S
C2097 H2121 0.949 . S
H2098 C2102 0.949 . S
C2099 C2100 1.349 . S
C2099 C2101 1.327 . S
C2099 H2122 0.950 . S
C2100 C2099 1.349 . S
C2100 C2112 1.349 . S
C2101 C2099 1.327 . S
C2101 C2117 1.429 . S
C2101 H2123 0.950 . S
C2102 H2098 0.949 . S
C2102 C2110 1.574 . S
C2102 C2118 1.368 . S
H2103 C2111 0.950 . S
H2104 C2109 0.950 . S
H2105 C2110 0.949 . S
H2106 C2112 0.950 . S
H2107 C2113 0.950 . S
H2108 C2114 0.949 . S
C2109 H2104 0.950 . S
C2109 C2111 1.327 . S
C2109 C2115 1.429 . S
C2110 C2102 1.574 . S
C2110 H2105 0.949 . S
C2110 C2116 1.368 . S
C2111 C2095 1.349 . S
C2111 H2103 0.950 . S
C2111 C2109 1.327 . S
C2112 C2100 1.349 . S
C2112 H2106 0.950 . S
C2112 C2113 1.327 . S
C2113 H2107 0.950 . S
C2113 C2112 1.327 . S
C2113 C2117 1.429 . S
C2114 C2097 1.574 . S
C2114 H2108 0.949 . S
C2114 C2118 1.368 . S
C2115 C2096 1.429 . S
C2115 C2109 1.429 . S
C2115 C2116 1.523 . S
C2116 C2097 1.368 . S
C2116 C2110 1.368 . S
C2116 C2115 1.523 . S
C2117 C2101 1.429 . S
C2117 C2113 1.429 . S
C2117 C2118 1.523 . S
C2118 C2102 1.368 . S
C2118 C2114 1.368 . S
C2118 C2117 1.523 . S
H2119 C2094 0.950 . S
H2120 C2096 0.950 . S
H2121 C2097 0.949 . S
H2122 C2099 0.950 . S
H2123 C2101 0.950 . S
C2124 C2125 1.349 . S
C2124 C2126 1.327 . S
C2124 H2149 0.950 . S
C2125 C2124 1.349 . S
C2125 C2141 1.349 . S
C2126 C2124 1.327 . S
C2126 C2145 1.429 . S
C2126 H2150 0.950 . S
C2127 C2144 1.574 . S
C2127 C2146 1.368 . S
C2127 H2151 0.949 . S
H2128 C2132 0.949 . S
C2129 C2130 1.349 . S
C2129 C2131 1.327 . S
C2129 H2152 0.950 . S
C2130 C2129 1.349 . S
C2130 C2142 1.349 . S
C2131 C2129 1.327 . S
C2131 C2147 1.429 . S
C2131 H2153 0.950 . S
C2132 H2128 0.949 . S
C2132 C2140 1.574 . S
C2132 C2148 1.368 . S
H2133 C2141 0.950 . S
H2134 C2139 0.950 . S
H2135 C2140 0.949 . S
H2136 C2142 0.950 . S
H2137 C2143 0.950 . S
H2138 C2144 0.949 . S
C2139 H2134 0.950 . S
C2139 C2141 1.327 . S
C2139 C2145 1.429 . S
C2140 C2132 1.574 . S
C2140 H2135 0.949 . S
C2140 C2146 1.368 . S
C2141 C2125 1.349 . S
C2141 H2133 0.950 . S
C2141 C2139 1.327 . S
C2142 C2130 1.349 . S
C2142 H2136 0.950 . S
C2142 C2143 1.327 . S
C2143 H2137 0.950 . S
C2143 C2142 1.327 . S
C2143 C2147 1.429 . S
C2144 C2127 1.574 . S
C2144 H2138 0.949 . S
C2144 C2148 1.368 . S
C2145 C2126 1.429 . S
C2145 C2139 1.429 . S
C2145 C2146 1.523 . S
C2146 C2127 1.368 . S
C2146 C2140 1.368 . S
C2146 C2145 1.523 . S
C2147 C2131 1.429 . S
C2147 C2143 1.429 . S
C2147 C2148 1.523 . S
C2148 C2132 1.368 . S
C2148 C2144 1.368 . S
C2148 C2147 1.523 . S
H2149 C2124 0.950 . S
H2150 C2126 0.950 . S
H2151 C2127 0.949 . S
H2152 C2129 0.950 . S
H2153 C2131 0.950 . S
C2154 C2155 1.349 . S
C2154 C2156 1.327 . S
C2154 H2179 0.950 . S
C2155 C2154 1.349 . S
C2155 C2171 1.349 . S
C2156 C2154 1.327 . S
C2156 C2175 1.429 . S
C2156 H2180 0.950 . S
C2157 C2174 1.574 . S
C2157 C2176 1.368 . S
C2157 H2181 0.949 . S
H2158 C2162 0.949 . S
C2159 C2160 1.349 . S
C2159 C2161 1.327 . S
C2159 H2182 0.950 . S
C2160 C2159 1.349 . S
C2160 C2172 1.349 . S
C2161 C2159 1.327 . S
C2161 C2177 1.429 . S
C2161 H2183 0.950 . S
C2162 H2158 0.949 . S
C2162 C2170 1.574 . S
C2162 C2178 1.368 . S
H2163 C2171 0.950 . S
H2164 C2169 0.950 . S
H2165 C2170 0.949 . S
H2166 C2172 0.950 . S
H2167 C2173 0.950 . S
H2168 C2174 0.949 . S
C2169 H2164 0.950 . S
C2169 C2171 1.327 . S
C2169 C2175 1.429 . S
C2170 C2162 1.574 . S
C2170 H2165 0.949 . S
C2170 C2176 1.368 . S
C2171 C2155 1.349 . S
C2171 H2163 0.950 . S
C2171 C2169 1.327 . S
C2172 C2160 1.349 . S
C2172 H2166 0.950 . S
C2172 C2173 1.327 . S
C2173 H2167 0.950 . S
C2173 C2172 1.327 . S
C2173 C2177 1.429 . S
C2174 C2157 1.574 . S
C2174 H2168 0.949 . S
C2174 C2178 1.368 . S
C2175 C2156 1.429 . S
C2175 C2169 1.429 . S
C2175 C2176 1.523 . S
C2176 C2157 1.368 . S
C2176 C2170 1.368 . S
C2176 C2175 1.523 . S
C2177 C2161 1.429 . S
C2177 C2173 1.429 . S
C2177 C2178 1.523 . S
C2178 C2162 1.368 . S
C2178 C2174 1.368 . S
C2178 C2177 1.523 . S
H2179 C2154 0.950 . S
H2180 C2156 0.950 . S
H2181 C2157 0.949 . S
H2182 C2159 0.950 . S
H2183 C2161 0.950 . S
C2184 C2185 1.349 . S
C2184 C2186 1.327 . S
C2184 H2209 0.950 . S
C2185 C2184 1.349 . S
C2185 C2201 1.349 . S
C2186 C2184 1.327 . S
C2186 C2205 1.429 . S
C2186 H2210 0.950 . S
C2187 C2204 1.574 . S
C2187 C2206 1.368 . S
C2187 H2211 0.949 . S
H2188 C2192 0.949 . S
C2189 C2190 1.349 . S
C2189 C2191 1.327 . S
C2189 H2212 0.950 . S
C2190 C2189 1.349 . S
C2190 C2202 1.349 . S
C2191 C2189 1.327 . S
C2191 C2207 1.429 . S
C2191 H2213 0.950 . S
C2192 H2188 0.949 . S
C2192 C2200 1.574 . S
C2192 C2208 1.368 . S
H2193 C2201 0.950 . S
H2194 C2199 0.950 . S
H2195 C2200 0.949 . S
H2196 C2202 0.950 . S
H2197 C2203 0.950 . S
H2198 C2204 0.949 . S
C2199 H2194 0.950 . S
C2199 C2201 1.327 . S
C2199 C2205 1.429 . S
C2200 C2192 1.574 . S
C2200 H2195 0.949 . S
C2200 C2206 1.368 . S
C2201 C2185 1.349 . S
C2201 H2193 0.950 . S
C2201 C2199 1.327 . S
C2202 C2190 1.349 . S
C2202 H2196 0.950 . S
C2202 C2203 1.327 . S
C2203 H2197 0.950 . S
C2203 C2202 1.327 . S
C2203 C2207 1.429 . S
C2204 C2187 1.574 . S
C2204 H2198 0.949 . S
C2204 C2208 1.368 . S
C2205 C2186 1.429 . S
C2205 C2199 1.429 . S
C2205 C2206 1.523 . S
C2206 C2187 1.368 . S
C2206 C2200 1.368 . S
C2206 C2205 1.523 . S
C2207 C2191 1.429 . S
C2207 C2203 1.429 . S
C2207 C2208 1.523 . S
C2208 C2192 1.368 . S
C2208 C2204 1.368 . S
C2208 C2207 1.523 . S
H2209 C2184 0.950 . S
H2210 C2186 0.950 . S
H2211 C2187 0.949 . S
H2212 C2189 0.950 . S
H2213 C2191 0.950 . S
C2214 C2215 1.349 . S
C2214 C2216 1.327 . S
C2214 H2239 0.950 . S
C2215 C2214 1.349 . S
C2215 C2231 1.349 . S
C2216 C2214 1.327 . S
C2216 C2235 1.429 . S
C2216 H2240 0.950 . S
C2217 C2234 1.574 . S
C2217 C2236 1.368 . S
C2217 H2241 0.949 . S
H2218 C2222 0.949 . S
C2219 C2220 1.349 . S
C2219 C2221 1.327 . S
C2219 H2242 0.950 . S
C2220 C2219 1.349 . S
C2220 C2232 1.349 . S
C2221 C2219 1.327 . S
C2221 C2237 1.429 . S
C2221 H2243 0.950 . S
C2222 H2218 0.949 . S
C2222 C2230 1.574 . S
C2222 C2238 1.368 . S
H2223 C2231 0.950 . S
H2224 C2229 0.950 . S
H2225 C2230 0.949 . S
H2226 C2232 0.950 . S
H2227 C2233 0.950 . S
H2228 C2234 0.949 . S
C2229 H2224 0.950 . S
C2229 C2231 1.327 . S
C2229 C2235 1.429 . S
C2230 C2222 1.574 . S
C2230 H2225 0.949 . S
C2230 C2236 1.368 . S
C2231 C2215 1.349 . S
C2231 H2223 0.950 . S
C2231 C2229 1.327 . S
C2232 C2220 1.349 . S
C2232 H2226 0.950 . S
C2232 C2233 1.327 . S
C2233 H2227 0.950 . S
C2233 C2232 1.327 . S
C2233 C2237 1.429 . S
C2234 C2217 1.574 . S
C2234 H2228 0.949 . S
C2234 C2238 1.368 . S
C2235 C2216 1.429 . S
C2235 C2229 1.429 . S
C2235 C2236 1.523 . S
C2236 C2217 1.368 . S
C2236 C2230 1.368 . S
C2236 C2235 1.523 . S
C2237 C2221 1.429 . S
C2237 C2233 1.429 . S
C2237 C2238 1.523 . S
C2238 C2222 1.368 . S
C2238 C2234 1.368 . S
C2238 C2237 1.523 . S
H2239 C2214 0.950 . S
H2240 C2216 0.950 . S
H2241 C2217 0.949 . S
H2242 C2219 0.950 . S
H2243 C2221 0.950 . S
C2244 C2245 1.349 . S
C2244 C2246 1.327 . S
C2244 H2269 0.950 . S
C2245 C2244 1.349 . S
C2245 C2261 1.349 . S
C2246 C2244 1.327 . S
C2246 C2265 1.429 . S
C2246 H2270 0.950 . S
C2247 C2264 1.574 . S
C2247 C2266 1.368 . S
C2247 H2271 0.949 . S
H2248 C2252 0.949 . S
C2249 C2250 1.349 . S
C2249 C2251 1.327 . S
C2249 H2272 0.950 . S
C2250 C2249 1.349 . S
C2250 C2262 1.349 . S
C2251 C2249 1.327 . S
C2251 C2267 1.429 . S
C2251 H2273 0.950 . S
C2252 H2248 0.949 . S
C2252 C2260 1.574 . S
C2252 C2268 1.368 . S
H2253 C2261 0.950 . S
H2254 C2259 0.950 . S
H2255 C2260 0.949 . S
H2256 C2262 0.950 . S
H2257 C2263 0.950 . S
H2258 C2264 0.949 . S
C2259 H2254 0.950 . S
C2259 C2261 1.327 . S
C2259 C2265 1.429 . S
C2260 C2252 1.574 . S
C2260 H2255 0.949 . S
C2260 C2266 1.368 . S
C2261 C2245 1.349 . S
C2261 H2253 0.950 . S
C2261 C2259 1.327 . S
C2262 C2250 1.349 . S
C2262 H2256 0.950 . S
C2262 C2263 1.327 . S
C2263 H2257 0.950 . S
C2263 C2262 1.327 . S
C2263 C2267 1.429 . S
C2264 C2247 1.574 . S
C2264 H2258 0.949 . S
C2264 C2268 1.368 . S
C2265 C2246 1.429 . S
C2265 C2259 1.429 . S
C2265 C2266 1.523 . S
C2266 C2247 1.368 . S
C2266 C2260 1.368 . S
C2266 C2265 1.523 . S
C2267 C2251 1.429 . S
C2267 C2263 1.429 . S
C2267 C2268 1.523 . S
C2268 C2252 1.368 . S
C2268 C2264 1.368 . S
C2268 C2267 1.523 . S
H2269 C2244 0.950 . S
H2270 C2246 0.950 . S
H2271 C2247 0.949 . S
H2272 C2249 0.950 . S
H2273 C2251 0.950 . S
C2274 C2275 1.349 . S
C2274 C2276 1.327 . S
C2274 H2299 0.950 . S
C2275 C2274 1.349 . S
C2275 C2291 1.349 . S
C2276 C2274 1.327 . S
C2276 C2295 1.429 . S
C2276 H2300 0.950 . S
C2277 C2294 1.574 . S
C2277 C2296 1.368 . S
C2277 H2301 0.949 . S
H2278 C2282 0.949 . S
C2279 C2280 1.349 . S
C2279 C2281 1.327 . S
C2279 H2302 0.950 . S
C2280 C2279 1.349 . S
C2280 C2292 1.349 . S
C2281 C2279 1.327 . S
C2281 C2297 1.429 . S
C2281 H2303 0.950 . S
C2282 H2278 0.949 . S
C2282 C2290 1.574 . S
C2282 C2298 1.368 . S
H2283 C2291 0.950 . S
H2284 C2289 0.950 . S
H2285 C2290 0.949 . S
H2286 C2292 0.950 . S
H2287 C2293 0.950 . S
H2288 C2294 0.949 . S
C2289 H2284 0.950 . S
C2289 C2291 1.327 . S
C2289 C2295 1.429 . S
C2290 C2282 1.574 . S
C2290 H2285 0.949 . S
C2290 C2296 1.368 . S
C2291 C2275 1.349 . S
C2291 H2283 0.950 . S
C2291 C2289 1.327 . S
C2292 C2280 1.349 . S
C2292 H2286 0.950 . S
C2292 C2293 1.327 . S
C2293 H2287 0.950 . S
C2293 C2292 1.327 . S
C2293 C2297 1.429 . S
C2294 C2277 1.574 . S
C2294 H2288 0.949 . S
C2294 C2298 1.368 . S
C2295 C2276 1.429 . S
C2295 C2289 1.429 . S
C2295 C2296 1.523 . S
C2296 C2277 1.368 . S
C2296 C2290 1.368 . S
C2296 C2295 1.523 . S
C2297 C2281 1.429 . S
C2297 C2293 1.429 . S
C2297 C2298 1.523 . S
C2298 C2282 1.368 . S
C2298 C2294 1.368 . S
C2298 C2297 1.523 . S
H2299 C2274 0.950 . S
H2300 C2276 0.950 . S
H2301 C2277 0.949 . S
H2302 C2279 0.950 . S
H2303 C2281 0.950 . S
C2304 C2305 1.349 . S
C2304 C2306 1.327 . S
C2304 H2329 0.950 . S
C2305 C2304 1.349 . S
C2305 C2321 1.349 . S
C2306 C2304 1.327 . S
C2306 C2325 1.429 . S
C2306 H2330 0.950 . S
C2307 C2324 1.574 . S
C2307 C2326 1.368 . S
C2307 H2331 0.949 . S
H2308 C2312 0.949 . S
C2309 C2310 1.349 . S
C2309 C2311 1.327 . S
C2309 H2332 0.950 . S
C2310 C2309 1.349 . S
C2310 C2322 1.349 . S
C2311 C2309 1.327 . S
C2311 C2327 1.429 . S
C2311 H2333 0.950 . S
C2312 H2308 0.949 . S
C2312 C2320 1.574 . S
C2312 C2328 1.368 . S
H2313 C2321 0.950 . S
H2314 C2319 0.950 . S
H2315 C2320 0.949 . S
H2316 C2322 0.950 . S
H2317 C2323 0.950 . S
H2318 C2324 0.949 . S
C2319 H2314 0.950 . S
C2319 C2321 1.327 . S
C2319 C2325 1.429 . S
C2320 C2312 1.574 . S
C2320 H2315 0.949 . S
C2320 C2326 1.368 . S
C2321 C2305 1.349 . S
C2321 H2313 0.950 . S
C2321 C2319 1.327 . S
C2322 C2310 1.349 . S
C2322 H2316 0.950 . S
C2322 C2323 1.327 . S
C2323 H2317 0.950 . S
C2323 C2322 1.327 . S
C2323 C2327 1.429 . S
C2324 C2307 1.574 . S
C2324 H2318 0.949 . S
C2324 C2328 1.368 . S
C2325 C2306 1.429 . S
C2325 C2319 1.429 . S
C2325 C2326 1.523 . S
C2326 C2307 1.368 . S
C2326 C2320 1.368 . S
C2326 C2325 1.523 . S
C2327 C2311 1.429 . S
C2327 C2323 1.429 . S
C2327 C2328 1.523 . S
C2328 C2312 1.368 . S
C2328 C2324 1.368 . S
C2328 C2327 1.523 . S
H2329 C2304 0.950 . S
H2330 C2306 0.950 . S
H2331 C2307 0.949 . S
H2332 C2309 0.950 . S
H2333 C2311 0.950 . S
C2334 C2335 1.349 . S
C2334 C2336 1.327 . S
C2334 H2359 0.950 . S
C2335 C2334 1.349 . S
C2335 C2351 1.349 . S
C2336 C2334 1.327 . S
C2336 C2355 1.429 . S
C2336 H2360 0.950 . S
C2337 C2354 1.574 . S
C2337 C2356 1.368 . S
C2337 H2361 0.949 . S
H2338 C2342 0.949 . S
C2339 C2340 1.349 . S
C2339 C2341 1.327 . S
C2339 H2362 0.950 . S
C2340 C2339 1.349 . S
C2340 C2352 1.349 . S
C2341 C2339 1.327 . S
C2341 C2357 1.429 . S
C2341 H2363 0.950 . S
C2342 H2338 0.949 . S
C2342 C2350 1.574 . S
C2342 C2358 1.368 . S
H2343 C2351 0.950 . S
H2344 C2349 0.950 . S
H2345 C2350 0.949 . S
H2346 C2352 0.950 . S
H2347 C2353 0.950 . S
H2348 C2354 0.949 . S
C2349 H2344 0.950 . S
C2349 C2351 1.327 . S
C2349 C2355 1.429 . S
C2350 C2342 1.574 . S
C2350 H2345 0.949 . S
C2350 C2356 1.368 . S
C2351 C2335 1.349 . S
C2351 H2343 0.950 . S
C2351 C2349 1.327 . S
C2352 C2340 1.349 . S
C2352 H2346 0.950 . S
C2352 C2353 1.327 . S
C2353 H2347 0.950 . S
C2353 C2352 1.327 . S
C2353 C2357 1.429 . S
C2354 C2337 1.574 . S
C2354 H2348 0.949 . S
C2354 C2358 1.368 . S
C2355 C2336 1.429 . S
C2355 C2349 1.429 . S
C2355 C2356 1.523 . S
C2356 C2337 1.368 . S
C2356 C2350 1.368 . S
C2356 C2355 1.523 . S
C2357 C2341 1.429 . S
C2357 C2353 1.429 . S
C2357 C2358 1.523 . S
C2358 C2342 1.368 . S
C2358 C2354 1.368 . S
C2358 C2357 1.523 . S
H2359 C2334 0.950 . S
H2360 C2336 0.950 . S
H2361 C2337 0.949 . S
H2362 C2339 0.950 . S
H2363 C2341 0.950 . S
C2364 C2365 1.349 . S
C2364 C2366 1.327 . S
C2364 H2389 0.950 . S
C2365 C2364 1.349 . S
C2365 C2381 1.349 . S
C2366 C2364 1.327 . S
C2366 C2385 1.429 . S
C2366 H2390 0.950 . S
C2367 C2384 1.574 . S
C2367 C2386 1.368 . S
C2367 H2391 0.949 . S
H2368 C2372 0.949 . S
C2369 C2370 1.349 . S
C2369 C2371 1.327 . S
C2369 H2392 0.950 . S
C2370 C2369 1.349 . S
C2370 C2382 1.349 . S
C2371 C2369 1.327 . S
C2371 C2387 1.429 . S
C2371 H2393 0.950 . S
C2372 H2368 0.949 . S
C2372 C2380 1.574 . S
C2372 C2388 1.368 . S
H2373 C2381 0.950 . S
H2374 C2379 0.950 . S
H2375 C2380 0.949 . S
H2376 C2382 0.950 . S
H2377 C2383 0.950 . S
H2378 C2384 0.949 . S
C2379 H2374 0.950 . S
C2379 C2381 1.327 . S
C2379 C2385 1.429 . S
C2380 C2372 1.574 . S
C2380 H2375 0.949 . S
C2380 C2386 1.368 . S
C2381 C2365 1.349 . S
C2381 H2373 0.950 . S
C2381 C2379 1.327 . S
C2382 C2370 1.349 . S
C2382 H2376 0.950 . S
C2382 C2383 1.327 . S
C2383 H2377 0.950 . S
C2383 C2382 1.327 . S
C2383 C2387 1.429 . S
C2384 C2367 1.574 . S
C2384 H2378 0.949 . S
C2384 C2388 1.368 . S
C2385 C2366 1.429 . S
C2385 C2379 1.429 . S
C2385 C2386 1.523 . S
C2386 C2367 1.368 . S
C2386 C2380 1.368 . S
C2386 C2385 1.523 . S
C2387 C2371 1.429 . S
C2387 C2383 1.429 . S
C2387 C2388 1.523 . S
C2388 C2372 1.368 . S
C2388 C2384 1.368 . S
C2388 C2387 1.523 . S
H2389 C2364 0.950 . S
H2390 C2366 0.950 . S
H2391 C2367 0.949 . S
H2392 C2369 0.950 . S
H2393 C2371 0.950 . S
C2394 C2395 1.349 . S
C2394 C2396 1.327 . S
C2394 H2419 0.950 . S
C2395 C2394 1.349 . S
C2395 C2411 1.349 . S
C2396 C2394 1.327 . S
C2396 C2415 1.429 . S
C2396 H2420 0.950 . S
C2397 C2414 1.574 . S
C2397 C2416 1.368 . S
C2397 H2421 0.949 . S
H2398 C2402 0.949 . S
C2399 C2400 1.349 . S
C2399 C2401 1.327 . S
C2399 H2422 0.950 . S
C2400 C2399 1.349 . S
C2400 C2412 1.349 . S
C2401 C2399 1.327 . S
C2401 C2417 1.429 . S
C2401 H2423 0.950 . S
C2402 H2398 0.949 . S
C2402 C2410 1.574 . S
C2402 C2418 1.368 . S
H2403 C2411 0.950 . S
H2404 C2409 0.950 . S
H2405 C2410 0.949 . S
H2406 C2412 0.950 . S
H2407 C2413 0.950 . S
H2408 C2414 0.949 . S
C2409 H2404 0.950 . S
C2409 C2411 1.327 . S
C2409 C2415 1.429 . S
C2410 C2402 1.574 . S
C2410 H2405 0.949 . S
C2410 C2416 1.368 . S
C2411 C2395 1.349 . S
C2411 H2403 0.950 . S
C2411 C2409 1.327 . S
C2412 C2400 1.349 . S
C2412 H2406 0.950 . S
C2412 C2413 1.327 . S
C2413 H2407 0.950 . S
C2413 C2412 1.327 . S
C2413 C2417 1.429 . S
C2414 C2397 1.574 . S
C2414 H2408 0.949 . S
C2414 C2418 1.368 . S
C2415 C2396 1.429 . S
C2415 C2409 1.429 . S
C2415 C2416 1.523 . S
C2416 C2397 1.368 . S
C2416 C2410 1.368 . S
C2416 C2415 1.523 . S
C2417 C2401 1.429 . S
C2417 C2413 1.429 . S
C2417 C2418 1.523 . S
C2418 C2402 1.368 . S
C2418 C2414 1.368 . S
C2418 C2417 1.523 . S
H2419 C2394 0.950 . S
H2420 C2396 0.950 . S
H2421 C2397 0.949 . S
H2422 C2399 0.950 . S
H2423 C2401 0.950 . S
C2424 C2425 1.349 . S
C2424 C2426 1.327 . S
C2424 H2449 0.950 . S
C2425 C2424 1.349 . S
C2425 C2441 1.349 . S
C2426 C2424 1.327 . S
C2426 C2445 1.429 . S
C2426 H2450 0.950 . S
C2427 C2444 1.574 . S
C2427 C2446 1.368 . S
C2427 H2451 0.949 . S
H2428 C2432 0.949 . S
C2429 C2430 1.349 . S
C2429 C2431 1.327 . S
C2429 H2452 0.950 . S
C2430 C2429 1.349 . S
C2430 C2442 1.349 . S
C2431 C2429 1.327 . S
C2431 C2447 1.429 . S
C2431 H2453 0.950 . S
C2432 H2428 0.949 . S
C2432 C2440 1.574 . S
C2432 C2448 1.368 . S
H2433 C2441 0.950 . S
H2434 C2439 0.950 . S
H2435 C2440 0.949 . S
H2436 C2442 0.950 . S
H2437 C2443 0.950 . S
H2438 C2444 0.949 . S
C2439 H2434 0.950 . S
C2439 C2441 1.327 . S
C2439 C2445 1.429 . S
C2440 C2432 1.574 . S
C2440 H2435 0.949 . S
C2440 C2446 1.368 . S
C2441 C2425 1.349 . S
C2441 H2433 0.950 . S
C2441 C2439 1.327 . S
C2442 C2430 1.349 . S
C2442 H2436 0.950 . S
C2442 C2443 1.327 . S
C2443 H2437 0.950 . S
C2443 C2442 1.327 . S
C2443 C2447 1.429 . S
C2444 C2427 1.574 . S
C2444 H2438 0.949 . S
C2444 C2448 1.368 . S
C2445 C2426 1.429 . S
C2445 C2439 1.429 . S
C2445 C2446 1.523 . S
C2446 C2427 1.368 . S
C2446 C2440 1.368 . S
C2446 C2445 1.523 . S
C2447 C2431 1.429 . S
C2447 C2443 1.429 . S
C2447 C2448 1.523 . S
C2448 C2432 1.368 . S
C2448 C2444 1.368 . S
C2448 C2447 1.523 . S
H2449 C2424 0.950 . S
H2450 C2426 0.950 . S
H2451 C2427 0.949 . S
H2452 C2429 0.950 . S
H2453 C2431 0.950 . S
C2454 C2455 1.349 . S
C2454 C2456 1.327 . S
C2454 H2479 0.950 . S
C2455 C2454 1.349 . S
C2455 C2471 1.349 . S
C2456 C2454 1.327 . S
C2456 C2475 1.429 . S
C2456 H2480 0.950 . S
C2457 C2474 1.574 . S
C2457 C2476 1.368 . S
C2457 H2481 0.949 . S
H2458 C2462 0.949 . S
C2459 C2460 1.349 . S
C2459 C2461 1.327 . S
C2459 H2482 0.950 . S
C2460 C2459 1.349 . S
C2460 C2472 1.349 . S
C2461 C2459 1.327 . S
C2461 C2477 1.429 . S
C2461 H2483 0.950 . S
C2462 H2458 0.949 . S
C2462 C2470 1.574 . S
C2462 C2478 1.368 . S
H2463 C2471 0.950 . S
H2464 C2469 0.950 . S
H2465 C2470 0.949 . S
H2466 C2472 0.950 . S
H2467 C2473 0.950 . S
H2468 C2474 0.949 . S
C2469 H2464 0.950 . S
C2469 C2471 1.327 . S
C2469 C2475 1.429 . S
C2470 C2462 1.574 . S
C2470 H2465 0.949 . S
C2470 C2476 1.368 . S
C2471 C2455 1.349 . S
C2471 H2463 0.950 . S
C2471 C2469 1.327 . S
C2472 C2460 1.349 . S
C2472 H2466 0.950 . S
C2472 C2473 1.327 . S
C2473 H2467 0.950 . S
C2473 C2472 1.327 . S
C2473 C2477 1.429 . S
C2474 C2457 1.574 . S
C2474 H2468 0.949 . S
C2474 C2478 1.368 . S
C2475 C2456 1.429 . S
C2475 C2469 1.429 . S
C2475 C2476 1.523 . S
C2476 C2457 1.368 . S
C2476 C2470 1.368 . S
C2476 C2475 1.523 . S
C2477 C2461 1.429 . S
C2477 C2473 1.429 . S
C2477 C2478 1.523 . S
C2478 C2462 1.368 . S
C2478 C2474 1.368 . S
C2478 C2477 1.523 . S
H2479 C2454 0.950 . S
H2480 C2456 0.950 . S
H2481 C2457 0.949 . S
H2482 C2459 0.950 . S
H2483 C2461 0.950 . S
C2484 C2485 1.349 . S
C2484 C2486 1.327 . S
C2484 H2509 0.950 . S
C2485 C2484 1.349 . S
C2485 C2501 1.349 . S
C2486 C2484 1.327 . S
C2486 C2505 1.429 . S
C2486 H2510 0.950 . S
C2487 C2504 1.574 . S
C2487 C2506 1.368 . S
C2487 H2511 0.949 . S
H2488 C2492 0.949 . S
C2489 C2490 1.349 . S
C2489 C2491 1.327 . S
C2489 H2512 0.950 . S
C2490 C2489 1.349 . S
C2490 C2502 1.349 . S
C2491 C2489 1.327 . S
C2491 C2507 1.429 . S
C2491 H2513 0.950 . S
C2492 H2488 0.949 . S
C2492 C2500 1.574 . S
C2492 C2508 1.368 . S
H2493 C2501 0.950 . S
H2494 C2499 0.950 . S
H2495 C2500 0.949 . S
H2496 C2502 0.950 . S
H2497 C2503 0.950 . S
H2498 C2504 0.949 . S
C2499 H2494 0.950 . S
C2499 C2501 1.327 . S
C2499 C2505 1.429 . S
C2500 C2492 1.574 . S
C2500 H2495 0.949 . S
C2500 C2506 1.368 . S
C2501 C2485 1.349 . S
C2501 H2493 0.950 . S
C2501 C2499 1.327 . S
C2502 C2490 1.349 . S
C2502 H2496 0.950 . S
C2502 C2503 1.327 . S
C2503 H2497 0.950 . S
C2503 C2502 1.327 . S
C2503 C2507 1.429 . S
C2504 C2487 1.574 . S
C2504 H2498 0.949 . S
C2504 C2508 1.368 . S
C2505 C2486 1.429 . S
C2505 C2499 1.429 . S
C2505 C2506 1.523 . S
C2506 C2487 1.368 . S
C2506 C2500 1.368 . S
C2506 C2505 1.523 . S
C2507 C2491 1.429 . S
C2507 C2503 1.429 . S
C2507 C2508 1.523 . S
C2508 C2492 1.368 . S
C2508 C2504 1.368 . S
C2508 C2507 1.523 . S
H2509 C2484 0.950 . S
H2510 C2486 0.950 . S
H2511 C2487 0.949 . S
H2512 C2489 0.950 . S
H2513 C2491 0.950 . S
C2514 C2515 1.349 . S
C2514 C2516 1.327 . S
C2514 H2539 0.950 . S
C2515 C2514 1.349 . S
C2515 C2531 1.349 . S
C2516 C2514 1.327 . S
C2516 C2535 1.429 . S
C2516 H2540 0.950 . S
C2517 C2534 1.574 . S
C2517 C2536 1.368 . S
C2517 H2541 0.949 . S
H2518 C2522 0.949 . S
C2519 C2520 1.349 . S
C2519 C2521 1.327 . S
C2519 H2542 0.950 . S
C2520 C2519 1.349 . S
C2520 C2532 1.349 . S
C2521 C2519 1.327 . S
C2521 C2537 1.429 . S
C2521 H2543 0.950 . S
C2522 H2518 0.949 . S
C2522 C2530 1.574 . S
C2522 C2538 1.368 . S
H2523 C2531 0.950 . S
H2524 C2529 0.950 . S
H2525 C2530 0.949 . S
H2526 C2532 0.950 . S
H2527 C2533 0.950 . S
H2528 C2534 0.949 . S
C2529 H2524 0.950 . S
C2529 C2531 1.327 . S
C2529 C2535 1.429 . S
C2530 C2522 1.574 . S
C2530 H2525 0.949 . S
C2530 C2536 1.368 . S
C2531 C2515 1.349 . S
C2531 H2523 0.950 . S
C2531 C2529 1.327 . S
C2532 C2520 1.349 . S
C2532 H2526 0.950 . S
C2532 C2533 1.327 . S
C2533 H2527 0.950 . S
C2533 C2532 1.327 . S
C2533 C2537 1.429 . S
C2534 C2517 1.574 . S
C2534 H2528 0.949 . S
C2534 C2538 1.368 . S
C2535 C2516 1.429 . S
C2535 C2529 1.429 . S
C2535 C2536 1.523 . S
C2536 C2517 1.368 . S
C2536 C2530 1.368 . S
C2536 C2535 1.523 . S
C2537 C2521 1.429 . S
C2537 C2533 1.429 . S
C2537 C2538 1.523 . S
C2538 C2522 1.368 . S
C2538 C2534 1.368 . S
C2538 C2537 1.523 . S
H2539 C2514 0.950 . S
H2540 C2516 0.950 . S
H2541 C2517 0.949 . S
H2542 C2519 0.950 . S
H2543 C2521 0.950 . S
C2544 C2545 1.349 . S
C2544 C2546 1.327 . S
C2544 H2569 0.950 . S
C2545 C2544 1.349 . S
C2545 C2561 1.349 . S
C2546 C2544 1.327 . S
C2546 C2565 1.429 . S
C2546 H2570 0.950 . S
C2547 C2564 1.574 . S
C2547 C2566 1.368 . S
C2547 H2571 0.949 . S
H2548 C2552 0.949 . S
C2549 C2550 1.349 . S
C2549 C2551 1.327 . S
C2549 H2572 0.950 . S
C2550 C2549 1.349 . S
C2550 C2562 1.349 . S
C2551 C2549 1.327 . S
C2551 C2567 1.429 . S
C2551 H2573 0.950 . S
C2552 H2548 0.949 . S
C2552 C2560 1.574 . S
C2552 C2568 1.368 . S
H2553 C2561 0.950 . S
H2554 C2559 0.950 . S
H2555 C2560 0.949 . S
H2556 C2562 0.950 . S
H2557 C2563 0.950 . S
H2558 C2564 0.949 . S
C2559 H2554 0.950 . S
C2559 C2561 1.327 . S
C2559 C2565 1.429 . S
C2560 C2552 1.574 . S
C2560 H2555 0.949 . S
C2560 C2566 1.368 . S
C2561 C2545 1.349 . S
C2561 H2553 0.950 . S
C2561 C2559 1.327 . S
C2562 C2550 1.349 . S
C2562 H2556 0.950 . S
C2562 C2563 1.327 . S
C2563 H2557 0.950 . S
C2563 C2562 1.327 . S
C2563 C2567 1.429 . S
C2564 C2547 1.574 . S
C2564 H2558 0.949 . S
C2564 C2568 1.368 . S
C2565 C2546 1.429 . S
C2565 C2559 1.429 . S
C2565 C2566 1.523 . S
C2566 C2547 1.368 . S
C2566 C2560 1.368 . S
C2566 C2565 1.523 . S
C2567 C2551 1.429 . S
C2567 C2563 1.429 . S
C2567 C2568 1.523 . S
C2568 C2552 1.368 . S
C2568 C2564 1.368 . S
C2568 C2567 1.523 . S
H2569 C2544 0.950 . S
H2570 C2546 0.950 . S
H2571 C2547 0.949 . S
H2572 C2549 0.950 . S
H2573 C2551 0.950 . S
C2574 C2575 1.349 . S
C2574 C2576 1.327 . S
C2574 H2599 0.950 . S
C2575 C2574 1.349 . S
C2575 C2591 1.349 . S
C2576 C2574 1.327 . S
C2576 C2595 1.429 . S
C2576 H2600 0.950 . S
C2577 C2594 1.574 . S
C2577 C2596 1.368 . S
C2577 H2601 0.949 . S
H2578 C2582 0.949 . S
C2579 C2580 1.349 . S
C2579 C2581 1.327 . S
C2579 H2602 0.950 . S
C2580 C2579 1.349 . S
C2580 C2592 1.349 . S
C2581 C2579 1.327 . S
C2581 C2597 1.429 . S
C2581 H2603 0.950 . S
C2582 H2578 0.949 . S
C2582 C2590 1.574 . S
C2582 C2598 1.368 . S
H2583 C2591 0.950 . S
H2584 C2589 0.950 . S
H2585 C2590 0.949 . S
H2586 C2592 0.950 . S
H2587 C2593 0.950 . S
H2588 C2594 0.949 . S
C2589 H2584 0.950 . S
C2589 C2591 1.327 . S
C2589 C2595 1.429 . S
C2590 C2582 1.574 . S
C2590 H2585 0.949 . S
C2590 C2596 1.368 . S
C2591 C2575 1.349 . S
C2591 H2583 0.950 . S
C2591 C2589 1.327 . S
C2592 C2580 1.349 . S
C2592 H2586 0.950 . S
C2592 C2593 1.327 . S
C2593 H2587 0.950 . S
C2593 C2592 1.327 . S
C2593 C2597 1.429 . S
C2594 C2577 1.574 . S
C2594 H2588 0.949 . S
C2594 C2598 1.368 . S
C2595 C2576 1.429 . S
C2595 C2589 1.429 . S
C2595 C2596 1.523 . S
C2596 C2577 1.368 . S
C2596 C2590 1.368 . S
C2596 C2595 1.523 . S
C2597 C2581 1.429 . S
C2597 C2593 1.429 . S
C2597 C2598 1.523 . S
C2598 C2582 1.368 . S
C2598 C2594 1.368 . S
C2598 C2597 1.523 . S
H2599 C2574 0.950 . S
H2600 C2576 0.950 . S
H2601 C2577 0.949 . S
H2602 C2579 0.950 . S
H2603 C2581 0.950 . S
C2604 C2605 1.349 . S
C2604 C2606 1.327 . S
C2604 H2629 0.950 . S
C2605 C2604 1.349 . S
C2605 C2621 1.349 . S
C2606 C2604 1.327 . S
C2606 C2625 1.429 . S
C2606 H2630 0.950 . S
C2607 C2624 1.574 . S
C2607 C2626 1.368 . S
C2607 H2631 0.949 . S
H2608 C2612 0.949 . S
C2609 C2610 1.349 . S
C2609 C2611 1.327 . S
C2609 H2632 0.950 . S
C2610 C2609 1.349 . S
C2610 C2622 1.349 . S
C2611 C2609 1.327 . S
C2611 C2627 1.429 . S
C2611 H2633 0.950 . S
C2612 H2608 0.949 . S
C2612 C2620 1.574 . S
C2612 C2628 1.368 . S
H2613 C2621 0.950 . S
H2614 C2619 0.950 . S
H2615 C2620 0.949 . S
H2616 C2622 0.950 . S
H2617 C2623 0.950 . S
H2618 C2624 0.949 . S
C2619 H2614 0.950 . S
C2619 C2621 1.327 . S
C2619 C2625 1.429 . S
C2620 C2612 1.574 . S
C2620 H2615 0.949 . S
C2620 C2626 1.368 . S
C2621 C2605 1.349 . S
C2621 H2613 0.950 . S
C2621 C2619 1.327 . S
C2622 C2610 1.349 . S
C2622 H2616 0.950 . S
C2622 C2623 1.327 . S
C2623 H2617 0.950 . S
C2623 C2622 1.327 . S
C2623 C2627 1.429 . S
C2624 C2607 1.574 . S
C2624 H2618 0.949 . S
C2624 C2628 1.368 . S
C2625 C2606 1.429 . S
C2625 C2619 1.429 . S
C2625 C2626 1.523 . S
C2626 C2607 1.368 . S
C2626 C2620 1.368 . S
C2626 C2625 1.523 . S
C2627 C2611 1.429 . S
C2627 C2623 1.429 . S
C2627 C2628 1.523 . S
C2628 C2612 1.368 . S
C2628 C2624 1.368 . S
C2628 C2627 1.523 . S
H2629 C2604 0.950 . S
H2630 C2606 0.950 . S
H2631 C2607 0.949 . S
H2632 C2609 0.950 . S
H2633 C2611 0.950 . S
C2634 C2635 1.349 . S
C2634 C2636 1.327 . S
C2634 H2659 0.950 . S
C2635 C2634 1.349 . S
C2635 C2651 1.349 . S
C2636 C2634 1.327 . S
C2636 C2655 1.429 . S
C2636 H2660 0.950 . S
C2637 C2654 1.574 . S
C2637 C2656 1.368 . S
C2637 H2661 0.949 . S
H2638 C2642 0.949 . S
C2639 C2640 1.349 . S
C2639 C2641 1.327 . S
C2639 H2662 0.950 . S
C2640 C2639 1.349 . S
C2640 C2652 1.349 . S
C2641 C2639 1.327 . S
C2641 C2657 1.429 . S
C2641 H2663 0.950 . S
C2642 H2638 0.949 . S
C2642 C2650 1.574 . S
C2642 C2658 1.368 . S
H2643 C2651 0.950 . S
H2644 C2649 0.950 . S
H2645 C2650 0.949 . S
H2646 C2652 0.950 . S
H2647 C2653 0.950 . S
H2648 C2654 0.949 . S
C2649 H2644 0.950 . S
C2649 C2651 1.327 . S
C2649 C2655 1.429 . S
C2650 C2642 1.574 . S
C2650 H2645 0.949 . S
C2650 C2656 1.368 . S
C2651 C2635 1.349 . S
C2651 H2643 0.950 . S
C2651 C2649 1.327 . S
C2652 C2640 1.349 . S
C2652 H2646 0.950 . S
C2652 C2653 1.327 . S
C2653 H2647 0.950 . S
C2653 C2652 1.327 . S
C2653 C2657 1.429 . S
C2654 C2637 1.574 . S
C2654 H2648 0.949 . S
C2654 C2658 1.368 . S
C2655 C2636 1.429 . S
C2655 C2649 1.429 . S
C2655 C2656 1.523 . S
C2656 C2637 1.368 . S
C2656 C2650 1.368 . S
C2656 C2655 1.523 . S
C2657 C2641 1.429 . S
C2657 C2653 1.429 . S
C2657 C2658 1.523 . S
C2658 C2642 1.368 . S
C2658 C2654 1.368 . S
C2658 C2657 1.523 . S
H2659 C2634 0.950 . S
H2660 C2636 0.950 . S
H2661 C2637 0.949 . S
H2662 C2639 0.950 . S
H2663 C2641 0.950 . S
C2664 C2665 1.349 . S
C2664 C2666 1.327 . S
C2664 H2689 0.950 . S
C2665 C2664 1.349 . S
C2665 C2681 1.349 . S
C2666 C2664 1.327 . S
C2666 C2685 1.429 . S
C2666 H2690 0.950 . S
C2667 C2684 1.574 . S
C2667 C2686 1.368 . S
C2667 H2691 0.949 . S
H2668 C2672 0.949 . S
C2669 C2670 1.349 . S
C2669 C2671 1.327 . S
C2669 H2692 0.950 . S
C2670 C2669 1.349 . S
C2670 C2682 1.349 . S
C2671 C2669 1.327 . S
C2671 C2687 1.429 . S
C2671 H2693 0.950 . S
C2672 H2668 0.949 . S
C2672 C2680 1.574 . S
C2672 C2688 1.368 . S
H2673 C2681 0.950 . S
H2674 C2679 0.950 . S
H2675 C2680 0.949 . S
H2676 C2682 0.950 . S
H2677 C2683 0.950 . S
H2678 C2684 0.949 . S
C2679 H2674 0.950 . S
C2679 C2681 1.327 . S
C2679 C2685 1.429 . S
C2680 C2672 1.574 . S
C2680 H2675 0.949 . S
C2680 C2686 1.368 . S
C2681 C2665 1.349 . S
C2681 H2673 0.950 . S
C2681 C2679 1.327 . S
C2682 C2670 1.349 . S
C2682 H2676 0.950 . S
C2682 C2683 1.327 . S
C2683 H2677 0.950 . S
C2683 C2682 1.327 . S
C2683 C2687 1.429 . S
C2684 C2667 1.574 . S
C2684 H2678 0.949 . S
C2684 C2688 1.368 . S
C2685 C2666 1.429 . S
C2685 C2679 1.429 . S
C2685 C2686 1.523 . S
C2686 C2667 1.368 . S
C2686 C2680 1.368 . S
C2686 C2685 1.523 . S
C2687 C2671 1.429 . S
C2687 C2683 1.429 . S
C2687 C2688 1.523 . S
C2688 C2672 1.368 . S
C2688 C2684 1.368 . S
C2688 C2687 1.523 . S
H2689 C2664 0.950 . S
H2690 C2666 0.950 . S
H2691 C2667 0.949 . S
H2692 C2669 0.950 . S
H2693 C2671 0.950 . S
C2694 C2695 1.349 . S
C2694 C2696 1.327 . S
C2694 H2719 0.950 . S
C2695 C2694 1.349 . S
C2695 C2711 1.349 . S
C2696 C2694 1.327 . S
C2696 C2715 1.429 . S
C2696 H2720 0.950 . S
C2697 C2714 1.574 . S
C2697 C2716 1.368 . S
C2697 H2721 0.949 . S
H2698 C2702 0.949 . S
C2699 C2700 1.349 . S
C2699 C2701 1.327 . S
C2699 H2722 0.950 . S
C2700 C2699 1.349 . S
C2700 C2712 1.349 . S
C2701 C2699 1.327 . S
C2701 C2717 1.429 . S
C2701 H2723 0.950 . S
C2702 H2698 0.949 . S
C2702 C2710 1.574 . S
C2702 C2718 1.368 . S
H2703 C2711 0.950 . S
H2704 C2709 0.950 . S
H2705 C2710 0.949 . S
H2706 C2712 0.950 . S
H2707 C2713 0.950 . S
H2708 C2714 0.949 . S
C2709 H2704 0.950 . S
C2709 C2711 1.327 . S
C2709 C2715 1.429 . S
C2710 C2702 1.574 . S
C2710 H2705 0.949 . S
C2710 C2716 1.368 . S
C2711 C2695 1.349 . S
C2711 H2703 0.950 . S
C2711 C2709 1.327 . S
C2712 C2700 1.349 . S
C2712 H2706 0.950 . S
C2712 C2713 1.327 . S
C2713 H2707 0.950 . S
C2713 C2712 1.327 . S
C2713 C2717 1.429 . S
C2714 C2697 1.574 . S
C2714 H2708 0.949 . S
C2714 C2718 1.368 . S
C2715 C2696 1.429 . S
C2715 C2709 1.429 . S
C2715 C2716 1.523 . S
C2716 C2697 1.368 . S
C2716 C2710 1.368 . S
C2716 C2715 1.523 . S
C2717 C2701 1.429 . S
C2717 C2713 1.429 . S
C2717 C2718 1.523 . S
C2718 C2702 1.368 . S
C2718 C2714 1.368 . S
C2718 C2717 1.523 . S
H2719 C2694 0.950 . S
H2720 C2696 0.950 . S
H2721 C2697 0.949 . S
H2722 C2699 0.950 . S
H2723 C2701 0.950 . S
C2724 C2725 1.349 . S
C2724 C2726 1.327 . S
C2724 H2749 0.950 . S
C2725 C2724 1.349 . S
C2725 C2741 1.349 . S
C2726 C2724 1.327 . S
C2726 C2745 1.429 . S
C2726 H2750 0.950 . S
C2727 C2744 1.574 . S
C2727 C2746 1.368 . S
C2727 H2751 0.949 . S
H2728 C2732 0.949 . S
C2729 C2730 1.349 . S
C2729 C2731 1.327 . S
C2729 H2752 0.950 . S
C2730 C2729 1.349 . S
C2730 C2742 1.349 . S
C2731 C2729 1.327 . S
C2731 C2747 1.429 . S
C2731 H2753 0.950 . S
C2732 H2728 0.949 . S
C2732 C2740 1.574 . S
C2732 C2748 1.368 . S
H2733 C2741 0.950 . S
H2734 C2739 0.950 . S
H2735 C2740 0.949 . S
H2736 C2742 0.950 . S
H2737 C2743 0.950 . S
H2738 C2744 0.949 . S
C2739 H2734 0.950 . S
C2739 C2741 1.327 . S
C2739 C2745 1.429 . S
C2740 C2732 1.574 . S
C2740 H2735 0.949 . S
C2740 C2746 1.368 . S
C2741 C2725 1.349 . S
C2741 H2733 0.950 . S
C2741 C2739 1.327 . S
C2742 C2730 1.349 . S
C2742 H2736 0.950 . S
C2742 C2743 1.327 . S
C2743 H2737 0.950 . S
C2743 C2742 1.327 . S
C2743 C2747 1.429 . S
C2744 C2727 1.574 . S
C2744 H2738 0.949 . S
C2744 C2748 1.368 . S
C2745 C2726 1.429 . S
C2745 C2739 1.429 . S
C2745 C2746 1.523 . S
C2746 C2727 1.368 . S
C2746 C2740 1.368 . S
C2746 C2745 1.523 . S
C2747 C2731 1.429 . S
C2747 C2743 1.429 . S
C2747 C2748 1.523 . S
C2748 C2732 1.368 . S
C2748 C2744 1.368 . S
C2748 C2747 1.523 . S
H2749 C2724 0.950 . S
H2750 C2726 0.950 . S
H2751 C2727 0.949 . S
H2752 C2729 0.950 . S
H2753 C2731 0.950 . S
C2754 C2755 1.349 1_556 S
C2754 C2756 1.327 . S
C2754 H2779 0.950 . S
C2755 C2754 1.349 1_554 S
C2755 C2771 1.349 . S
C2756 C2754 1.327 . S
C2756 C2775 1.429 . S
C2756 H2780 0.950 . S
C2757 C2774 1.574 . S
C2757 C2776 1.368 . S
C2757 H2781 0.949 1_556 S
H2758 C2762 0.949 . S
C2759 C2760 1.349 . S
C2759 C2761 1.327 . S
C2759 H2782 0.950 . S
C2760 C2759 1.349 . S
C2760 C2772 1.349 . S
C2761 C2759 1.327 . S
C2761 C2777 1.429 . S
C2761 H2783 0.950 . S
C2762 H2758 0.949 . S
C2762 C2770 1.574 . S
C2762 C2778 1.368 . S
H2763 C2771 0.950 . S
H2764 C2769 0.950 . S
H2765 C2770 0.949 . S
H2766 C2772 0.950 . S
H2767 C2773 0.950 . S
H2768 C2774 0.949 . S
C2769 H2764 0.950 . S
C2769 C2771 1.327 . S
C2769 C2775 1.429 1_554 S
C2770 C2762 1.574 . S
C2770 H2765 0.949 . S
C2770 C2776 1.368 . S
C2771 C2755 1.349 . S
C2771 H2763 0.950 . S
C2771 C2769 1.327 . S
C2772 C2760 1.349 . S
C2772 H2766 0.950 . S
C2772 C2773 1.327 . S
C2773 H2767 0.950 . S
C2773 C2772 1.327 . S
C2773 C2777 1.429 . S
C2774 C2757 1.574 . S
C2774 H2768 0.949 . S
C2774 C2778 1.368 . S
C2775 C2756 1.429 . S
C2775 C2769 1.429 1_556 S
C2775 C2776 1.523 . S
C2776 C2757 1.368 . S
C2776 C2770 1.368 . S
C2776 C2775 1.523 . S
C2777 C2761 1.429 . S
C2777 C2773 1.429 . S
C2777 C2778 1.523 . S
C2778 C2762 1.368 . S
C2778 C2774 1.368 . S
C2778 C2777 1.523 . S
H2779 C2754 0.950 . S
H2780 C2756 0.950 . S
H2781 C2757 0.949 1_554 S
H2782 C2759 0.950 . S
H2783 C2761 0.950 . S
C2784 C2785 1.349 . S
C2784 C2786 1.327 . S
C2784 H2809 0.950 . S
C2785 C2784 1.349 . S
C2785 C2801 1.349 1_556 S
C2786 C2784 1.327 . S
C2786 C2805 1.429 . S
C2786 H2810 0.950 . S
C2787 C2804 1.574 . S
C2787 C2806 1.368 . S
C2787 H2811 0.949 . S
H2788 C2792 0.949 . S
C2789 C2790 1.349 . S
C2789 C2791 1.327 . S
C2789 H2812 0.950 . S
C2790 C2789 1.349 . S
C2790 C2802 1.349 . S
C2791 C2789 1.327 . S
C2791 C2807 1.429 . S
C2791 H2813 0.950 . S
C2792 H2788 0.949 . S
C2792 C2800 1.574 . S
C2792 C2808 1.368 . S
H2793 C2801 0.950 . S
H2794 C2799 0.956 . S
H2795 C2800 0.949 . S
H2796 C2802 0.950 . S
H2797 C2803 0.950 . S
H2798 C2804 0.949 . S
C2799 H2794 0.956 . S
C2799 C2801 1.327 1_556 S
C2799 C2805 1.429 . S
C2800 C2792 1.574 . S
C2800 H2795 0.949 . S
C2800 C2806 1.368 . S
C2801 C2785 1.349 1_554 S
C2801 H2793 0.950 . S
C2801 C2799 1.327 1_554 S
C2802 C2790 1.349 . S
C2802 H2796 0.950 . S
C2802 C2803 1.327 . S
C2803 H2797 0.950 . S
C2803 C2802 1.327 . S
C2803 C2807 1.429 . S
C2804 C2787 1.574 . S
C2804 H2798 0.949 . S
C2804 C2808 1.368 . S
C2805 C2786 1.429 . S
C2805 C2799 1.429 . S
C2805 C2806 1.523 . S
C2806 C2787 1.368 . S
C2806 C2800 1.368 . S
C2806 C2805 1.523 . S
C2807 C2791 1.429 . S
C2807 C2803 1.429 . S
C2807 C2808 1.523 . S
C2808 C2792 1.368 . S
C2808 C2804 1.368 . S
C2808 C2807 1.523 . S
H2809 C2784 0.950 . S
H2810 C2786 0.950 . S
H2811 C2787 0.949 . S
H2812 C2789 0.950 . S
H2813 C2791 0.950 . S
C2814 C2815 1.349 . S
C2814 C2816 1.327 . S
C2814 H2839 0.950 . S
C2815 C2814 1.349 . S
C2815 C2831 1.349 . S
C2816 C2814 1.327 . S
C2816 C2835 1.429 . S
C2816 H2840 0.950 . S
C2817 C2834 1.577 . S
C2817 C2836 1.368 . S
C2817 H2841 0.949 . S
H2818 C2822 0.949 . S
C2819 C2820 1.349 . S
C2819 C2821 1.327 . S
C2819 H2842 0.950 . S
C2820 C2819 1.349 . S
C2820 C2832 1.349 . S
C2821 C2819 1.327 . S
C2821 C2837 1.429 . S
C2821 H2843 0.950 . S
C2822 H2818 0.949 . S
C2822 C2830 1.574 1_556 S
C2822 C2838 1.368 . S
H2823 C2831 0.950 . S
H2824 C2829 0.950 . S
H2825 C2830 0.949 . S
H2826 C2832 0.950 . S
H2827 C2833 0.950 . S
H2828 C2834 0.948 1_556 S
C2829 H2824 0.950 . S
C2829 C2831 1.327 . S
C2829 C2835 1.429 . S
C2830 C2822 1.574 1_554 S
C2830 H2825 0.949 . S
C2830 C2836 1.368 . S
C2831 C2815 1.349 . S
C2831 H2823 0.950 . S
C2831 C2829 1.327 . S
C2832 C2820 1.349 . S
C2832 H2826 0.950 . S
C2832 C2833 1.327 . S
C2833 H2827 0.950 . S
C2833 C2832 1.327 . S
C2833 C2837 1.429 . S
C2834 C2817 1.577 . S
C2834 H2828 0.948 1_554 S
C2834 C2838 1.366 1_554 S
C2835 C2816 1.429 . S
C2835 C2829 1.429 . S
C2835 C2836 1.523 . S
C2836 C2817 1.368 . S
C2836 C2830 1.368 . S
C2836 C2835 1.523 . S
C2837 C2821 1.429 . S
C2837 C2833 1.429 . S
C2837 C2838 1.523 . S
C2838 C2822 1.368 . S
C2838 C2834 1.366 1_556 S
C2838 C2837 1.523 . S
H2839 C2814 0.950 . S
H2840 C2816 0.950 . S
H2841 C2817 0.949 . S
H2842 C2819 0.950 . S
H2843 C2821 0.950 . S
C2844 C2845 1.398 . S
C2844 C2846 1.298 1_554 S
C2844 H2869 0.931 1_554 S
C2845 C2844 1.398 . S
C2845 C2861 1.349 . S
C2846 C2844 1.298 1_556 S
C2846 C2865 1.429 . S
C2846 H2870 0.950 . S
C2847 C2864 1.574 . S
C2847 C2866 1.368 . S
C2847 H2871 0.949 1_556 S
H2848 C2852 0.949 . S
C2849 C2850 1.349 . S
C2849 C2851 1.327 . S
C2849 H2872 0.950 . S
C2850 C2849 1.349 . S
C2850 C2862 1.349 . S
C2851 C2849 1.327 . S
C2851 C2867 1.429 . S
C2851 H2873 0.950 . S
C2852 H2848 0.949 . S
C2852 C2860 1.574 . S
C2852 C2868 1.368 . S
H2853 C2861 0.950 . S
H2854 C2859 0.950 . S
H2855 C2860 0.949 . S
H2856 C2862 0.950 . S
H2857 C2863 0.950 . S
H2858 C2864 0.949 . S
C2859 H2854 0.950 . S
C2859 C2861 1.327 . S
C2859 C2865 1.429 1_554 S
C2860 C2852 1.574 . S
C2860 H2855 0.949 . S
C2860 C2866 1.368 . S
C2861 C2845 1.349 . S
C2861 H2853 0.950 . S
C2861 C2859 1.327 . S
C2862 C2850 1.349 . S
C2862 H2856 0.950 . S
C2862 C2863 1.327 . S
C2863 H2857 0.950 . S
C2863 C2862 1.327 . S
C2863 C2867 1.429 . S
C2864 C2847 1.574 . S
C2864 H2858 0.949 . S
C2864 C2868 1.368 . S
C2865 C2846 1.429 . S
C2865 C2859 1.429 1_556 S
C2865 C2866 1.523 . S
C2866 C2847 1.368 . S
C2866 C2860 1.368 . S
C2866 C2865 1.523 . S
C2867 C2851 1.429 . S
C2867 C2863 1.429 . S
C2867 C2868 1.523 . S
C2868 C2852 1.368 . S
C2868 C2864 1.368 . S
C2868 C2867 1.523 . S
H2869 C2844 0.931 1_556 S
H2870 C2846 0.950 . S
H2871 C2847 0.949 1_554 S
H2872 C2849 0.950 . S
H2873 C2851 0.950 . S
C2874 C2875 1.349 . S
C2874 C2876 1.327 . S
C2874 H2899 0.950 1_556 S
C2875 C2874 1.349 . S
C2875 C2891 1.349 . S
C2876 C2874 1.327 . S
C2876 C2895 1.429 . S
C2876 H2900 0.950 . S
C2877 C2894 1.574 . S
C2877 C2896 1.368 . S
C2877 H2901 0.949 . S
H2878 C2882 0.949 . S
C2879 C2880 1.349 . S
C2879 C2881 1.327 . S
C2879 H2902 0.950 . S
C2880 C2879 1.349 . S
C2880 C2892 1.349 . S
C2881 C2879 1.327 . S
C2881 C2897 1.429 . S
C2881 H2903 0.950 . S
C2882 H2878 0.949 . S
C2882 C2890 1.574 . S
C2882 C2898 1.368 . S
H2883 C2891 0.950 . S
H2884 C2889 0.950 . S
H2885 C2890 0.949 . S
H2886 C2892 0.950 . S
H2887 C2893 0.950 . S
H2888 C2894 0.949 . S
C2889 H2884 0.950 . S
C2889 C2891 1.327 . S
C2889 C2895 1.429 . S
C2890 C2882 1.574 . S
C2890 H2885 0.949 . S
C2890 C2896 1.368 . S
C2891 C2875 1.349 . S
C2891 H2883 0.950 . S
C2891 C2889 1.327 . S
C2892 C2880 1.349 . S
C2892 H2886 0.950 . S
C2892 C2893 1.327 . S
C2893 H2887 0.950 . S
C2893 C2892 1.327 . S
C2893 C2897 1.429 . S
C2894 C2877 1.574 . S
C2894 H2888 0.949 . S
C2894 C2898 1.368 . S
C2895 C2876 1.429 . S
C2895 C2889 1.429 . S
C2895 C2896 1.523 . S
C2896 C2877 1.368 . S
C2896 C2890 1.368 . S
C2896 C2895 1.523 . S
C2897 C2881 1.429 . S
C2897 C2893 1.429 . S
C2897 C2898 1.523 . S
C2898 C2882 1.368 . S
C2898 C2894 1.368 . S
C2898 C2897 1.523 . S
H2899 C2874 0.950 1_554 S
H2900 C2876 0.950 . S
H2901 C2877 0.949 . S
H2902 C2879 0.950 . S
H2903 C2881 0.950 . S
C2904 C2905 1.349 . S
C2904 C2906 1.327 . S
C2904 H2929 0.950 . S
C2905 C2904 1.349 . S
C2905 C2921 1.349 . S
C2906 C2904 1.327 . S
C2906 C2925 1.429 . S
C2906 H2930 0.950 . S
C2907 C2924 1.574 . S
C2907 C2926 1.368 1_556 S
C2907 H2931 0.949 . S
H2908 C2912 0.949 . S
C2909 C2910 1.349 . S
C2909 C2911 1.327 . S
C2909 H2932 0.950 . S
C2910 C2909 1.349 . S
C2910 C2922 1.349 . S
C2911 C2909 1.327 . S
C2911 C2927 1.429 . S
C2911 H2933 0.950 . S
C2912 H2908 0.949 . S
C2912 C2920 1.574 1_556 S
C2912 C2928 1.368 . S
H2913 C2921 0.950 . S
H2914 C2919 0.950 . S
H2915 C2920 0.949 . S
H2916 C2922 0.950 . S
H2917 C2923 0.950 . S
H2918 C2924 0.949 . S
C2919 H2914 0.950 . S
C2919 C2921 1.327 . S
C2919 C2925 1.429 . S
C2920 C2912 1.574 1_554 S
C2920 H2915 0.949 . S
C2920 C2926 1.368 . S
C2921 C2905 1.349 . S
C2921 H2913 0.950 . S
C2921 C2919 1.327 . S
C2922 C2910 1.349 . S
C2922 H2916 0.950 . S
C2922 C2923 1.327 . S
C2923 H2917 0.950 . S
C2923 C2922 1.327 . S
C2923 C2927 1.429 . S
C2924 C2907 1.574 . S
C2924 H2918 0.949 . S
C2924 C2928 1.368 . S
C2925 C2906 1.429 . S
C2925 C2919 1.429 . S
C2925 C2926 1.523 . S
C2926 C2907 1.368 1_554 S
C2926 C2920 1.368 . S
C2926 C2925 1.523 . S
C2927 C2911 1.429 . S
C2927 C2923 1.429 . S
C2927 C2928 1.523 . S
C2928 C2912 1.368 . S
C2928 C2924 1.368 . S
C2928 C2927 1.523 . S
H2929 C2904 0.950 . S
H2930 C2906 0.950 . S
H2931 C2907 0.949 . S
H2932 C2909 0.950 . S
H2933 C2911 0.950 . S
C2934 C2935 1.349 . S
C2934 C2936 1.327 . S
C2934 H2959 0.950 . S
C2935 C2934 1.349 . S
C2935 C2951 1.349 . S
C2936 C2934 1.327 . S
C2936 C2955 1.429 . S
C2936 H2960 0.950 . S
C2937 C2954 1.574 . S
C2937 C2956 1.368 . S
C2937 H2961 0.949 . S
H2938 C2942 0.949 . S
C2939 C2940 1.349 . S
C2939 C2941 1.327 . S
C2939 H2962 0.950 . S
C2940 C2939 1.349 . S
C2940 C2952 1.349 . S
C2941 C2939 1.327 . S
C2941 C2957 1.429 . S
C2941 H2963 0.950 . S
C2942 H2938 0.949 . S
C2942 C2950 1.574 . S
C2942 C2958 1.368 . S
H2943 C2951 0.950 . S
H2944 C2949 0.950 . S
H2945 C2950 0.949 . S
H2946 C2952 0.950 . S
H2947 C2953 0.950 . S
H2948 C2954 0.949 . S
C2949 H2944 0.950 . S
C2949 C2951 1.327 . S
C2949 C2955 1.429 . S
C2950 C2942 1.574 . S
C2950 H2945 0.949 . S
C2950 C2956 1.368 . S
C2951 C2935 1.349 . S
C2951 H2943 0.950 . S
C2951 C2949 1.327 . S
C2952 C2940 1.349 . S
C2952 H2946 0.950 . S
C2952 C2953 1.327 . S
C2953 H2947 0.950 . S
C2953 C2952 1.327 . S
C2953 C2957 1.429 . S
C2954 C2937 1.574 . S
C2954 H2948 0.949 . S
C2954 C2958 1.368 . S
C2955 C2936 1.429 . S
C2955 C2949 1.429 . S
C2955 C2956 1.523 . S
C2956 C2937 1.368 . S
C2956 C2950 1.368 . S
C2956 C2955 1.523 . S
C2957 C2941 1.429 . S
C2957 C2953 1.429 . S
C2957 C2958 1.523 . S
C2958 C2942 1.368 . S
C2958 C2954 1.368 . S
C2958 C2957 1.523 . S
H2959 C2934 0.950 . S
H2960 C2936 0.950 . S
H2961 C2937 0.949 . S
H2962 C2939 0.950 . S
H2963 C2941 0.950 . S
C2964 C2965 1.349 . S
C2964 C2966 1.327 . S
C2964 H2989 0.950 . S
C2965 C2964 1.349 . S
C2965 C2981 1.349 . S
C2966 C2964 1.327 . S
C2966 C2985 1.429 . S
C2966 H2990 0.950 . S
C2967 C2984 1.574 . S
C2967 C2986 1.368 . S
C2967 H2991 0.949 . S
H2968 C2972 0.949 . S
C2969 C2970 1.349 . S
C2969 C2971 1.327 . S
C2969 H2992 0.950 . S
C2970 C2969 1.349 . S
C2970 C2982 1.349 . S
C2971 C2969 1.327 . S
C2971 C2987 1.429 . S
C2971 H2993 0.950 . S
C2972 H2968 0.949 . S
C2972 C2980 1.574 . S
C2972 C2988 1.368 . S
H2973 C2981 0.950 . S
H2974 C2979 0.950 . S
H2975 C2980 0.949 . S
H2976 C2982 0.950 . S
H2977 C2983 0.950 . S
H2978 C2984 0.949 . S
C2979 H2974 0.950 . S
C2979 C2981 1.327 . S
C2979 C2985 1.429 . S
C2980 C2972 1.574 . S
C2980 H2975 0.949 . S
C2980 C2986 1.368 . S
C2981 C2965 1.349 . S
C2981 H2973 0.950 . S
C2981 C2979 1.327 . S
C2982 C2970 1.349 . S
C2982 H2976 0.950 . S
C2982 C2983 1.327 . S
C2983 H2977 0.950 . S
C2983 C2982 1.327 . S
C2983 C2987 1.429 . S
C2984 C2967 1.574 . S
C2984 H2978 0.949 . S
C2984 C2988 1.368 . S
C2985 C2966 1.429 . S
C2985 C2979 1.429 . S
C2985 C2986 1.523 . S
C2986 C2967 1.368 . S
C2986 C2980 1.368 . S
C2986 C2985 1.523 . S
C2987 C2971 1.429 . S
C2987 C2983 1.429 . S
C2987 C2988 1.523 . S
C2988 C2972 1.368 . S
C2988 C2984 1.368 . S
C2988 C2987 1.523 . S
H2989 C2964 0.950 . S
H2990 C2966 0.950 . S
H2991 C2967 0.949 . S
H2992 C2969 0.950 . S
H2993 C2971 0.950 . S
C2994 C2995 1.349 . S
C2994 C2996 1.327 . S
C2994 H3019 0.950 . S
C2995 C2994 1.349 . S
C2995 C3011 1.349 . S
C2996 C2994 1.327 . S
C2996 C3015 1.429 . S
C2996 H3020 0.950 . S
C2997 C3014 1.574 . S
C2997 C3016 1.368 . S
C2997 H3021 0.949 . S
H2998 C3002 0.949 . S
C2999 C3000 1.349 . S
C2999 C3001 1.327 . S
C2999 H3022 0.950 . S
C3000 C2999 1.349 . S
C3000 C3012 1.349 . S
C3001 C2999 1.327 . S
C3001 C3017 1.429 . S
C3001 H3023 0.950 . S
C3002 H2998 0.949 . S
C3002 C3010 1.574 . S
C3002 C3018 1.368 . S
H3003 C3011 0.950 . S
H3004 C3009 0.950 . S
H3005 C3010 0.949 . S
H3006 C3012 0.950 . S
H3007 C3013 0.950 . S
H3008 C3014 0.949 . S
C3009 H3004 0.950 . S
C3009 C3011 1.327 . S
C3009 C3015 1.429 . S
C3010 C3002 1.574 . S
C3010 H3005 0.949 . S
C3010 C3016 1.368 . S
C3011 C2995 1.349 . S
C3011 H3003 0.950 . S
C3011 C3009 1.327 . S
C3012 C3000 1.349 . S
C3012 H3006 0.950 . S
C3012 C3013 1.327 . S
C3013 H3007 0.950 . S
C3013 C3012 1.327 . S
C3013 C3017 1.429 . S
C3014 C2997 1.574 . S
C3014 H3008 0.949 . S
C3014 C3018 1.368 . S
C3015 C2996 1.429 . S
C3015 C3009 1.429 . S
C3015 C3016 1.523 . S
C3016 C2997 1.368 . S
C3016 C3010 1.368 . S
C3016 C3015 1.523 . S
C3017 C3001 1.429 . S
C3017 C3013 1.429 . S
C3017 C3018 1.523 . S
C3018 C3002 1.368 . S
C3018 C3014 1.368 . S
C3018 C3017 1.523 . S
H3019 C2994 0.950 . S
H3020 C2996 0.950 . S
H3021 C2997 0.949 . S
H3022 C2999 0.950 . S
H3023 C3001 0.950 . S
C3024 C3025 1.349 . S
C3024 C3026 1.327 . S
C3024 H3049 0.950 . S
C3025 C3024 1.349 . S
C3025 C3041 1.349 . S
C3026 C3024 1.327 . S
C3026 C3045 1.429 . S
C3026 H3050 0.950 . S
C3027 C3044 1.574 . S
C3027 C3046 1.368 . S
C3027 H3051 0.949 . S
H3028 C3032 0.949 . S
C3029 C3030 1.349 . S
C3029 C3031 1.327 . S
C3029 H3052 0.950 . S
C3030 C3029 1.349 . S
C3030 C3042 1.349 . S
C3031 C3029 1.327 . S
C3031 C3047 1.429 . S
C3031 H3053 0.950 . S
C3032 H3028 0.949 . S
C3032 C3040 1.574 . S
C3032 C3048 1.368 . S
H3033 C3041 0.950 . S
H3034 C3039 0.950 . S
H3035 C3040 0.949 . S
H3036 C3042 0.950 . S
H3037 C3043 0.950 . S
H3038 C3044 0.949 . S
C3039 H3034 0.950 . S
C3039 C3041 1.327 . S
C3039 C3045 1.429 . S
C3040 C3032 1.574 . S
C3040 H3035 0.949 . S
C3040 C3046 1.368 . S
C3041 C3025 1.349 . S
C3041 H3033 0.950 . S
C3041 C3039 1.327 . S
C3042 C3030 1.349 . S
C3042 H3036 0.950 . S
C3042 C3043 1.327 . S
C3043 H3037 0.950 . S
C3043 C3042 1.327 . S
C3043 C3047 1.429 . S
C3044 C3027 1.574 . S
C3044 H3038 0.949 . S
C3044 C3048 1.368 . S
C3045 C3026 1.429 . S
C3045 C3039 1.429 . S
C3045 C3046 1.523 . S
C3046 C3027 1.368 . S
C3046 C3040 1.368 . S
C3046 C3045 1.523 . S
C3047 C3031 1.429 . S
C3047 C3043 1.429 . S
C3047 C3048 1.523 . S
C3048 C3032 1.368 . S
C3048 C3044 1.368 . S
C3048 C3047 1.523 . S
H3049 C3024 0.950 . S
H3050 C3026 0.950 . S
H3051 C3027 0.949 . S
H3052 C3029 0.950 . S
H3053 C3031 0.950 . S
C3054 C3055 1.349 . S
C3054 C3056 1.327 . S
C3054 H3079 0.950 . S
C3055 C3054 1.349 . S
C3055 C3071 1.349 . S
C3056 C3054 1.327 . S
C3056 C3075 1.429 . S
C3056 H3080 0.950 . S
C3057 C3074 1.574 . S
C3057 C3076 1.368 . S
C3057 H3081 0.949 . S
H3058 C3062 0.949 . S
C3059 C3060 1.349 . S
C3059 C3061 1.327 . S
C3059 H3082 0.950 . S
C3060 C3059 1.349 . S
C3060 C3072 1.349 . S
C3061 C3059 1.327 . S
C3061 C3077 1.429 . S
C3061 H3083 0.950 . S
C3062 H3058 0.949 . S
C3062 C3070 1.574 . S
C3062 C3078 1.368 . S
H3063 C3071 0.950 . S
H3064 C3069 0.950 . S
H3065 C3070 0.949 . S
H3066 C3072 0.950 . S
H3067 C3073 0.950 . S
H3068 C3074 0.949 . S
C3069 H3064 0.950 . S
C3069 C3071 1.327 . S
C3069 C3075 1.429 . S
C3070 C3062 1.574 . S
C3070 H3065 0.949 . S
C3070 C3076 1.368 . S
C3071 C3055 1.349 . S
C3071 H3063 0.950 . S
C3071 C3069 1.327 . S
C3072 C3060 1.349 . S
C3072 H3066 0.950 . S
C3072 C3073 1.327 . S
C3073 H3067 0.950 . S
C3073 C3072 1.327 . S
C3073 C3077 1.429 . S
C3074 C3057 1.574 . S
C3074 H3068 0.949 . S
C3074 C3078 1.368 . S
C3075 C3056 1.429 . S
C3075 C3069 1.429 . S
C3075 C3076 1.523 . S
C3076 C3057 1.368 . S
C3076 C3070 1.368 . S
C3076 C3075 1.523 . S
C3077 C3061 1.429 . S
C3077 C3073 1.429 . S
C3077 C3078 1.523 . S
C3078 C3062 1.368 . S
C3078 C3074 1.368 . S
C3078 C3077 1.523 . S
H3079 C3054 0.950 . S
H3080 C3056 0.950 . S
H3081 C3057 0.949 . S
H3082 C3059 0.950 . S
H3083 C3061 0.950 . S
C3084 C3085 1.349 . S
C3084 C3086 1.327 . S
C3084 H3109 0.950 . S
C3085 C3084 1.349 . S
C3085 C3101 1.349 . S
C3086 C3084 1.327 . S
C3086 C3105 1.429 . S
C3086 H3110 0.950 . S
C3087 C3104 1.574 . S
C3087 C3106 1.368 . S
C3087 H3111 0.949 . S
H3088 C3092 0.949 . S
C3089 C3090 1.349 . S
C3089 C3091 1.327 . S
C3089 H3112 0.950 . S
C3090 C3089 1.349 . S
C3090 C3102 1.349 . S
C3091 C3089 1.327 . S
C3091 C3107 1.429 . S
C3091 H3113 0.950 . S
C3092 H3088 0.949 . S
C3092 C3100 1.574 . S
C3092 C3108 1.368 . S
H3093 C3101 0.950 1_455 S
H3094 C3099 0.950 . S
H3095 C3100 0.949 . S
H3096 C3102 0.950 . S
H3097 C3103 0.950 . S
H3098 C3104 0.949 . S
C3099 H3094 0.950 . S
C3099 C3101 1.327 . S
C3099 C3105 1.429 . S
C3100 C3092 1.574 . S
C3100 H3095 0.949 . S
C3100 C3106 1.368 . S
C3101 C3085 1.349 . S
C3101 H3093 0.950 1_655 S
C3101 C3099 1.327 . S
C3102 C3090 1.349 . S
C3102 H3096 0.950 . S
C3102 C3103 1.327 . S
C3103 H3097 0.950 . S
C3103 C3102 1.327 . S
C3103 C3107 1.429 . S
C3104 C3087 1.574 . S
C3104 H3098 0.949 . S
C3104 C3108 1.368 . S
C3105 C3086 1.429 . S
C3105 C3099 1.429 . S
C3105 C3106 1.523 . S
C3106 C3087 1.368 . S
C3106 C3100 1.368 . S
C3106 C3105 1.523 . S
C3107 C3091 1.429 . S
C3107 C3103 1.429 . S
C3107 C3108 1.523 . S
C3108 C3092 1.368 . S
C3108 C3104 1.368 . S
C3108 C3107 1.523 . S
H3109 C3084 0.950 . S
H3110 C3086 0.950 . S
H3111 C3087 0.949 . S
H3112 C3089 0.950 . S
H3113 C3091 0.950 . S
C3114 C3115 1.349 . S
C3114 C3116 1.327 . S
C3114 H3139 0.950 . S
C3115 C3114 1.349 . S
C3115 C3131 1.349 . S
C3116 C3114 1.327 . S
C3116 C3135 1.429 . S
C3116 H3140 0.950 . S
C3117 C3134 1.574 . S
C3117 C3136 1.368 . S
C3117 H3141 0.949 . S
H3118 C3122 0.949 . S
C3119 C3120 1.349 . S
C3119 C3121 1.327 . S
C3119 H3142 0.950 . S
C3120 C3119 1.349 . S
C3120 C3132 1.349 . S
C3121 C3119 1.327 . S
C3121 C3137 1.429 . S
C3121 H3143 0.950 . S
C3122 H3118 0.949 . S
C3122 C3130 1.574 . S
C3122 C3138 1.368 . S
H3123 C3131 0.950 . S
H3124 C3129 0.950 . S
H3125 C3130 0.949 . S
H3126 C3132 0.950 . S
H3127 C3133 0.950 . S
H3128 C3134 0.949 . S
C3129 H3124 0.950 . S
C3129 C3131 1.327 . S
C3129 C3135 1.429 . S
C3130 C3122 1.574 . S
C3130 H3125 0.949 . S
C3130 C3136 1.368 . S
C3131 C3115 1.349 . S
C3131 H3123 0.950 . S
C3131 C3129 1.327 . S
C3132 C3120 1.349 . S
C3132 H3126 0.950 . S
C3132 C3133 1.327 . S
C3133 H3127 0.950 . S
C3133 C3132 1.327 . S
C3133 C3137 1.429 . S
C3134 C3117 1.574 . S
C3134 H3128 0.949 . S
C3134 C3138 1.368 . S
C3135 C3116 1.429 . S
C3135 C3129 1.429 . S
C3135 C3136 1.523 . S
C3136 C3117 1.368 . S
C3136 C3130 1.368 . S
C3136 C3135 1.523 . S
C3137 C3121 1.429 . S
C3137 C3133 1.429 . S
C3137 C3138 1.523 . S
C3138 C3122 1.368 . S
C3138 C3134 1.368 . S
C3138 C3137 1.523 . S
H3139 C3114 0.950 . S
H3140 C3116 0.950 . S
H3141 C3117 0.949 . S
H3142 C3119 0.950 . S
H3143 C3121 0.950 . S
C3144 C3145 1.349 . S
C3144 C3146 1.327 . S
C3144 H3169 0.950 . S
C3145 C3144 1.349 . S
C3145 C3161 1.349 . S
C3146 C3144 1.327 . S
C3146 C3165 1.429 . S
C3146 H3170 0.950 . S
C3147 C3164 1.574 . S
C3147 C3166 1.368 . S
C3147 H3171 0.949 . S
H3148 C3152 0.949 . S
C3149 C3150 1.349 . S
C3149 C3151 1.327 . S
C3149 H3172 0.950 . S
C3150 C3149 1.349 . S
C3150 C3162 1.349 . S
C3151 C3149 1.327 . S
C3151 C3167 1.429 . S
C3151 H3173 0.950 . S
C3152 H3148 0.949 . S
C3152 C3160 1.574 . S
C3152 C3168 1.368 . S
H3153 C3161 0.950 . S
H3154 C3159 0.950 . S
H3155 C3160 0.949 . S
H3156 C3162 0.950 . S
H3157 C3163 0.950 . S
H3158 C3164 0.949 . S
C3159 H3154 0.950 . S
C3159 C3161 1.327 . S
C3159 C3165 1.429 . S
C3160 C3152 1.574 . S
C3160 H3155 0.949 . S
C3160 C3166 1.368 . S
C3161 C3145 1.349 . S
C3161 H3153 0.950 . S
C3161 C3159 1.327 . S
C3162 C3150 1.349 . S
C3162 H3156 0.950 . S
C3162 C3163 1.327 . S
C3163 H3157 0.950 . S
C3163 C3162 1.327 . S
C3163 C3167 1.429 . S
C3164 C3147 1.574 . S
C3164 H3158 0.949 . S
C3164 C3168 1.368 . S
C3165 C3146 1.429 . S
C3165 C3159 1.429 . S
C3165 C3166 1.523 . S
C3166 C3147 1.368 . S
C3166 C3160 1.368 . S
C3166 C3165 1.523 . S
C3167 C3151 1.429 . S
C3167 C3163 1.429 . S
C3167 C3168 1.523 . S
C3168 C3152 1.368 . S
C3168 C3164 1.368 . S
C3168 C3167 1.523 . S
H3169 C3144 0.950 . S
H3170 C3146 0.950 . S
H3171 C3147 0.949 . S
H3172 C3149 0.950 . S
H3173 C3151 0.950 . S
C3174 C3175 1.349 . S
C3174 C3176 1.327 . S
C3174 H3199 0.950 . S
C3175 C3174 1.349 . S
C3175 C3191 1.349 . S
C3176 C3174 1.327 . S
C3176 C3195 1.429 . S
C3176 H3200 0.950 . S
C3177 C3194 1.574 . S
C3177 C3196 1.368 . S
C3177 H3201 0.949 . S
H3178 C3182 0.949 . S
C3179 C3180 1.349 . S
C3179 C3181 1.327 . S
C3179 H3202 0.950 . S
C3180 C3179 1.349 . S
C3180 C3192 1.349 . S
C3181 C3179 1.327 . S
C3181 C3197 1.429 . S
C3181 H3203 0.950 . S
C3182 H3178 0.949 . S
C3182 C3190 1.574 . S
C3182 C3198 1.368 . S
H3183 C3191 0.950 . S
H3184 C3189 0.950 . S
H3185 C3190 0.949 . S
H3186 C3192 0.941 1_545 S
H3187 C3193 0.950 . S
H3188 C3194 0.949 . S
C3189 H3184 0.950 . S
C3189 C3191 1.327 . S
C3189 C3195 1.429 . S
C3190 C3182 1.574 . S
C3190 H3185 0.949 . S
C3190 C3196 1.368 . S
C3191 C3175 1.349 . S
C3191 H3183 0.950 . S
C3191 C3189 1.327 . S
C3192 C3180 1.349 . S
C3192 H3186 0.941 1_565 S
C3192 C3193 1.327 . S
C3193 H3187 0.950 . S
C3193 C3192 1.327 . S
C3193 C3197 1.429 . S
C3194 C3177 1.574 . S
C3194 H3188 0.949 . S
C3194 C3198 1.368 . S
C3195 C3176 1.429 . S
C3195 C3189 1.429 . S
C3195 C3196 1.523 . S
C3196 C3177 1.368 . S
C3196 C3190 1.368 . S
C3196 C3195 1.523 . S
C3197 C3181 1.429 . S
C3197 C3193 1.429 . S
C3197 C3198 1.523 . S
C3198 C3182 1.368 . S
C3198 C3194 1.368 . S
C3198 C3197 1.523 . S
H3199 C3174 0.950 . S
H3200 C3176 0.950 . S
H3201 C3177 0.949 . S
H3202 C3179 0.950 . S
H3203 C3181 0.950 . S
C3204 C3205 1.349 . S
C3204 C3206 1.327 . S
C3204 H3229 0.950 . S
C3205 C3204 1.349 . S
C3205 C3221 1.349 . S
C3206 C3204 1.327 . S
C3206 C3225 1.429 . S
C3206 H3230 0.950 . S
C3207 C3224 1.574 . S
C3207 C3226 1.368 . S
C3207 H3231 0.949 . S
H3208 C3212 1.003 . S
C3209 C3210 1.296 1_565 S
C3209 C3211 1.327 . S
C3209 H3232 0.950 . S
C3210 C3209 1.296 1_545 S
C3210 C3222 1.362 . S
C3211 C3209 1.327 . S
C3211 C3227 1.429 . S
C3211 H3233 0.950 . S
C3212 H3208 1.003 . S
C3212 C3220 1.534 1_545 S
C3212 C3228 1.351 1_545 S
H3213 C3221 0.950 . S
H3214 C3219 0.950 . S
H3215 C3220 0.949 1_545 S
H3216 C3222 0.950 . S
H3217 C3223 0.950 . S
H3218 C3224 0.949 . S
C3219 H3214 0.950 . S
C3219 C3221 1.327 . S
C3219 C3225 1.429 . S
C3220 C3212 1.534 1_565 S
C3220 H3215 0.949 1_565 S
C3220 C3226 1.368 . S
C3221 C3205 1.349 . S
C3221 H3213 0.950 . S
C3221 C3219 1.327 . S
C3222 C3210 1.362 . S
C3222 H3216 0.950 . S
C3222 C3223 1.327 . S
C3223 H3217 0.950 . S
C3223 C3222 1.327 . S
C3223 C3227 1.429 1_545 S
C3224 C3207 1.574 . S
C3224 H3218 0.949 . S
C3224 C3228 1.368 . S
C3225 C3206 1.429 . S
C3225 C3219 1.429 . S
C3225 C3226 1.523 . S
C3226 C3207 1.368 . S
C3226 C3220 1.368 . S
C3226 C3225 1.523 . S
C3227 C3211 1.429 . S
C3227 C3223 1.429 1_565 S
C3227 C3228 1.523 . S
C3228 C3212 1.351 1_565 S
C3228 C3224 1.368 . S
C3228 C3227 1.523 . S
H3229 C3204 0.950 . S
H3230 C3206 0.950 . S
H3231 C3207 0.949 . S
H3232 C3209 0.950 . S
H3233 C3211 0.950 . S
C3234 C3235 1.349 . S
C3234 C3236 1.327 . S
C3234 H3259 0.950 . S
C3235 C3234 1.349 . S
C3235 C3251 1.349 . S
C3236 C3234 1.327 . S
C3236 C3255 1.429 . S
C3236 H3260 0.950 . S
C3237 C3254 1.574 . S
C3237 C3256 1.368 . S
C3237 H3261 0.949 . S
H3238 C3242 0.949 1_655 S
C3239 C3240 1.349 1_455 S
C3239 C3241 1.327 . S
C3239 H3262 0.950 . S
C3240 C3239 1.349 1_655 S
C3240 C3252 1.349 . S
C3241 C3239 1.327 . S
C3241 C3257 1.429 . S
C3241 H3263 0.950 . S
C3242 H3238 0.949 1_455 S
C3242 C3250 1.574 . S
C3242 C3258 1.368 . S
H3243 C3251 0.950 . S
H3244 C3249 0.950 . S
H3245 C3250 0.949 . S
H3246 C3252 0.950 . S
H3247 C3253 0.950 . S
H3248 C3254 0.949 . S
C3249 H3244 0.950 . S
C3249 C3251 1.327 . S
C3249 C3255 1.429 . S
C3250 C3242 1.574 . S
C3250 H3245 0.949 . S
C3250 C3256 1.368 . S
C3251 C3235 1.349 . S
C3251 H3243 0.950 . S
C3251 C3249 1.327 . S
C3252 C3240 1.349 . S
C3252 H3246 0.950 . S
C3252 C3253 1.327 . S
C3253 H3247 0.950 . S
C3253 C3252 1.327 . S
C3253 C3257 1.429 1_655 S
C3254 C3237 1.574 . S
C3254 H3248 0.949 . S
C3254 C3258 1.368 . S
C3255 C3236 1.429 . S
C3255 C3249 1.429 . S
C3255 C3256 1.523 . S
C3256 C3237 1.368 . S
C3256 C3250 1.368 . S
C3256 C3255 1.523 . S
C3257 C3241 1.429 . S
C3257 C3253 1.429 1_455 S
C3257 C3258 1.523 . S
C3258 C3242 1.368 . S
C3258 C3254 1.368 . S
C3258 C3257 1.523 . S
H3259 C3234 0.950 . S
H3260 C3236 0.950 . S
H3261 C3237 0.949 . S
H3262 C3239 0.950 . S
H3263 C3241 0.950 . S
C3264 C3265 1.349 . S
C3264 C3266 1.327 . S
C3264 H3289 0.950 . S
C3265 C3264 1.349 . S
C3265 C3281 1.349 . S
C3266 C3264 1.327 . S
C3266 C3285 1.429 . S
C3266 H3290 0.950 . S
C3267 C3284 1.574 . S
C3267 C3286 1.368 . S
C3267 H3291 0.949 . S
H3268 C3272 0.949 . S
C3269 C3270 1.349 . S
C3269 C3271 1.327 . S
C3269 H3292 0.950 . S
C3270 C3269 1.349 . S
C3270 C3282 1.349 . S
C3271 C3269 1.327 . S
C3271 C3287 1.429 . S
C3271 H3293 0.950 . S
C3272 H3268 0.949 . S
C3272 C3280 1.574 . S
C3272 C3288 1.368 . S
H3273 C3281 0.950 . S
H3274 C3279 0.950 . S
H3275 C3280 0.949 . S
H3276 C3282 0.950 . S
H3277 C3283 0.950 . S
H3278 C3284 0.949 . S
C3279 H3274 0.950 . S
C3279 C3281 1.327 . S
C3279 C3285 1.429 . S
C3280 C3272 1.574 . S
C3280 H3275 0.949 . S
C3280 C3286 1.368 . S
C3281 C3265 1.349 . S
C3281 H3273 0.950 . S
C3281 C3279 1.327 . S
C3282 C3270 1.349 . S
C3282 H3276 0.950 . S
C3282 C3283 1.327 . S
C3283 H3277 0.950 . S
C3283 C3282 1.327 . S
C3283 C3287 1.429 . S
C3284 C3267 1.574 . S
C3284 H3278 0.949 . S
C3284 C3288 1.368 . S
C3285 C3266 1.429 . S
C3285 C3279 1.429 . S
C3285 C3286 1.523 . S
C3286 C3267 1.368 . S
C3286 C3280 1.368 . S
C3286 C3285 1.523 . S
C3287 C3271 1.429 . S
C3287 C3283 1.429 . S
C3287 C3288 1.523 . S
C3288 C3272 1.368 . S
C3288 C3284 1.368 . S
C3288 C3287 1.523 . S
H3289 C3264 0.950 . S
H3290 C3266 0.950 . S
H3291 C3267 0.949 . S
H3292 C3269 0.950 . S
H3293 C3271 0.950 . S
C3294 C3295 1.349 . S
C3294 C3296 1.327 . S
C3294 H3319 0.950 . S
C3295 C3294 1.349 . S
C3295 C3311 1.349 . S
C3296 C3294 1.327 . S
C3296 C3315 1.429 . S
C3296 H3320 0.950 . S
C3297 C3314 1.574 . S
C3297 C3316 1.368 . S
C3297 H3321 0.949 . S
H3298 C3302 0.949 . S
C3299 C3300 1.349 . S
C3299 C3301 1.327 . S
C3299 H3322 0.950 . S
C3300 C3299 1.349 . S
C3300 C3312 1.349 . S
C3301 C3299 1.327 . S
C3301 C3317 1.429 . S
C3301 H3323 0.950 . S
C3302 H3298 0.949 . S
C3302 C3310 1.574 . S
C3302 C3318 1.368 . S
H3303 C3311 0.950 . S
H3304 C3309 0.950 . S
H3305 C3310 0.949 . S
H3306 C3312 0.950 . S
H3307 C3313 0.950 . S
H3308 C3314 0.949 . S
C3309 H3304 0.950 . S
C3309 C3311 1.327 . S
C3309 C3315 1.429 . S
C3310 C3302 1.574 . S
C3310 H3305 0.949 . S
C3310 C3316 1.368 . S
C3311 C3295 1.349 . S
C3311 H3303 0.950 . S
C3311 C3309 1.327 . S
C3312 C3300 1.349 . S
C3312 H3306 0.950 . S
C3312 C3313 1.327 . S
C3313 H3307 0.950 . S
C3313 C3312 1.327 . S
C3313 C3317 1.429 . S
C3314 C3297 1.574 . S
C3314 H3308 0.949 . S
C3314 C3318 1.368 . S
C3315 C3296 1.429 . S
C3315 C3309 1.429 . S
C3315 C3316 1.523 . S
C3316 C3297 1.368 . S
C3316 C3310 1.368 . S
C3316 C3315 1.523 . S
C3317 C3301 1.429 . S
C3317 C3313 1.429 . S
C3317 C3318 1.523 . S
C3318 C3302 1.368 . S
C3318 C3314 1.368 . S
C3318 C3317 1.523 . S
H3319 C3294 0.950 . S
H3320 C3296 0.950 . S
H3321 C3297 0.949 . S
H3322 C3299 0.950 . S
H3323 C3301 0.950 . S
C3324 C3325 1.349 . S
C3324 C3326 1.327 . S
C3324 H3349 0.950 . S
C3325 C3324 1.349 . S
C3325 C3341 1.349 . S
C3326 C3324 1.327 . S
C3326 C3345 1.429 . S
C3326 H3350 0.950 . S
C3327 C3344 1.574 . S
C3327 C3346 1.368 . S
C3327 H3351 0.949 . S
H3328 C3332 0.949 . S
C3329 C3330 1.349 . S
C3329 C3331 1.327 . S
C3329 H3352 0.950 . S
C3330 C3329 1.349 . S
C3330 C3342 1.349 . S
C3331 C3329 1.327 . S
C3331 C3347 1.429 . S
C3331 H3353 0.950 . S
C3332 H3328 0.949 . S
C3332 C3340 1.574 . S
C3332 C3348 1.368 . S
H3333 C3341 0.950 . S
H3334 C3339 0.950 . S
H3335 C3340 0.949 . S
H3336 C3342 0.950 . S
H3337 C3343 0.950 . S
H3338 C3344 0.949 . S
C3339 H3334 0.950 . S
C3339 C3341 1.327 . S
C3339 C3345 1.429 . S
C3340 C3332 1.574 . S
C3340 H3335 0.949 . S
C3340 C3346 1.368 . S
C3341 C3325 1.349 . S
C3341 H3333 0.950 . S
C3341 C3339 1.327 . S
C3342 C3330 1.349 . S
C3342 H3336 0.950 . S
C3342 C3343 1.327 . S
C3343 H3337 0.950 . S
C3343 C3342 1.327 . S
C3343 C3347 1.429 . S
C3344 C3327 1.574 . S
C3344 H3338 0.949 . S
C3344 C3348 1.368 . S
C3345 C3326 1.429 . S
C3345 C3339 1.429 . S
C3345 C3346 1.523 . S
C3346 C3327 1.368 . S
C3346 C3340 1.368 . S
C3346 C3345 1.523 . S
C3347 C3331 1.429 . S
C3347 C3343 1.429 . S
C3347 C3348 1.523 . S
C3348 C3332 1.368 . S
C3348 C3344 1.368 . S
C3348 C3347 1.523 . S
H3349 C3324 0.950 . S
H3350 C3326 0.950 . S
H3351 C3327 0.949 . S
H3352 C3329 0.950 . S
H3353 C3331 0.950 . S
C3354 C3355 1.349 . S
C3354 C3356 1.327 . S
C3354 H3379 0.950 . S
C3355 C3354 1.349 . S
C3355 C3371 1.349 . S
C3356 C3354 1.327 . S
C3356 C3375 1.429 . S
C3356 H3380 0.950 . S
C3357 C3374 1.574 . S
C3357 C3376 1.368 . S
C3357 H3381 0.949 . S
H3358 C3362 0.949 . S
C3359 C3360 1.349 . S
C3359 C3361 1.327 . S
C3359 H3382 0.950 . S
C3360 C3359 1.349 . S
C3360 C3372 1.349 . S
C3361 C3359 1.327 . S
C3361 C3377 1.429 . S
C3361 H3383 0.950 . S
C3362 H3358 0.949 . S
C3362 C3370 1.574 . S
C3362 C3378 1.368 . S
H3363 C3371 0.950 . S
H3364 C3369 0.950 . S
H3365 C3370 0.949 . S
H3366 C3372 0.950 . S
H3367 C3373 0.950 . S
H3368 C3374 0.949 . S
C3369 H3364 0.950 . S
C3369 C3371 1.327 . S
C3369 C3375 1.429 . S
C3370 C3362 1.574 . S
C3370 H3365 0.949 . S
C3370 C3376 1.368 . S
C3371 C3355 1.349 . S
C3371 H3363 0.950 . S
C3371 C3369 1.327 . S
C3372 C3360 1.349 . S
C3372 H3366 0.950 . S
C3372 C3373 1.327 . S
C3373 H3367 0.950 . S
C3373 C3372 1.327 . S
C3373 C3377 1.429 . S
C3374 C3357 1.574 . S
C3374 H3368 0.949 . S
C3374 C3378 1.368 . S
C3375 C3356 1.429 . S
C3375 C3369 1.429 . S
C3375 C3376 1.523 . S
C3376 C3357 1.368 . S
C3376 C3370 1.368 . S
C3376 C3375 1.523 . S
C3377 C3361 1.429 . S
C3377 C3373 1.429 . S
C3377 C3378 1.523 . S
C3378 C3362 1.368 . S
C3378 C3374 1.368 . S
C3378 C3377 1.523 . S
H3379 C3354 0.950 . S
H3380 C3356 0.950 . S
H3381 C3357 0.949 . S
H3382 C3359 0.950 . S
H3383 C3361 0.950 . S
C3384 C3385 1.349 . S
C3384 C3386 1.327 . S
C3384 H3409 0.950 . S
C3385 C3384 1.349 . S
C3385 C3401 1.349 . S
C3386 C3384 1.327 . S
C3386 C3405 1.429 . S
C3386 H3410 0.950 . S
C3387 C3404 1.574 . S
C3387 C3406 1.368 . S
C3387 H3411 0.949 . S
H3388 C3392 0.949 . S
C3389 C3390 1.349 1_565 S
C3389 C3391 1.327 1_565 S
C3389 H3412 0.950 . S
C3390 C3389 1.349 1_545 S
C3390 C3402 1.349 . S
C3391 C3389 1.327 1_545 S
C3391 C3407 1.429 . S
C3391 H3413 0.950 1_545 S
C3392 H3388 0.949 . S
C3392 C3400 1.574 . S
C3392 C3408 1.368 . S
H3393 C3401 0.950 . S
H3394 C3399 0.950 . S
H3395 C3400 0.949 . S
H3396 C3402 0.950 . S
H3397 C3403 0.950 . S
H3398 C3404 0.949 1_565 S
C3399 H3394 0.950 . S
C3399 C3401 1.327 . S
C3399 C3405 1.429 . S
C3400 C3392 1.574 . S
C3400 H3395 0.949 . S
C3400 C3406 1.368 . S
C3401 C3385 1.349 . S
C3401 H3393 0.950 . S
C3401 C3399 1.327 . S
C3402 C3390 1.349 . S
C3402 H3396 0.950 . S
C3402 C3403 1.327 . S
C3403 H3397 0.950 . S
C3403 C3402 1.327 . S
C3403 C3407 1.429 . S
C3404 C3387 1.574 . S
C3404 H3398 0.949 1_545 S
C3404 C3408 1.368 . S
C3405 C3386 1.429 . S
C3405 C3399 1.429 . S
C3405 C3406 1.523 . S
C3406 C3387 1.368 . S
C3406 C3400 1.368 . S
C3406 C3405 1.523 . S
C3407 C3391 1.429 . S
C3407 C3403 1.429 . S
C3407 C3408 1.523 . S
C3408 C3392 1.368 . S
C3408 C3404 1.368 . S
C3408 C3407 1.523 . S
H3409 C3384 0.950 . S
H3410 C3386 0.950 . S
H3411 C3387 0.949 . S
H3412 C3389 0.950 . S
H3413 C3391 0.950 1_565 S
C3414 C3415 1.349 . S
C3414 C3416 1.327 . S
C3414 H3439 0.950 . S
C3415 C3414 1.349 . S
C3415 C3431 1.349 . S
C3416 C3414 1.327 . S
C3416 C3435 1.429 . S
C3416 H3440 0.950 . S
C3417 C3434 1.574 . S
C3417 C3436 1.368 . S
C3417 H3441 0.949 . S
H3418 C3422 0.949 . S
C3419 C3420 1.349 . S
C3419 C3421 1.327 . S
C3419 H3442 0.950 . S
C3420 C3419 1.349 . S
C3420 C3432 1.349 . S
C3421 C3419 1.327 . S
C3421 C3437 1.429 . S
C3421 H3443 0.950 . S
C3422 H3418 0.949 . S
C3422 C3430 1.574 . S
C3422 C3438 1.368 . S
H3423 C3431 0.950 . S
H3424 C3429 0.950 . S
H3425 C3430 0.949 . S
H3426 C3432 0.950 . S
H3427 C3433 0.950 . S
H3428 C3434 0.949 . S
C3429 H3424 0.950 . S
C3429 C3431 1.327 . S
C3429 C3435 1.429 . S
C3430 C3422 1.574 . S
C3430 H3425 0.949 . S
C3430 C3436 1.368 . S
C3431 C3415 1.349 . S
C3431 H3423 0.950 . S
C3431 C3429 1.327 . S
C3432 C3420 1.349 . S
C3432 H3426 0.950 . S
C3432 C3433 1.327 . S
C3433 H3427 0.950 . S
C3433 C3432 1.327 . S
C3433 C3437 1.429 . S
C3434 C3417 1.574 . S
C3434 H3428 0.949 . S
C3434 C3438 1.368 . S
C3435 C3416 1.429 . S
C3435 C3429 1.429 . S
C3435 C3436 1.523 . S
C3436 C3417 1.368 . S
C3436 C3430 1.368 . S
C3436 C3435 1.523 . S
C3437 C3421 1.429 . S
C3437 C3433 1.429 . S
C3437 C3438 1.523 . S
C3438 C3422 1.368 . S
C3438 C3434 1.368 . S
C3438 C3437 1.523 . S
H3439 C3414 0.950 . S
H3440 C3416 0.950 . S
H3441 C3417 0.949 . S
H3442 C3419 0.950 . S
H3443 C3421 0.950 . S
C3444 C3445 1.349 . S
C3444 C3446 1.327 . S
C3444 H3469 0.950 . S
C3445 C3444 1.349 . S
C3445 C3461 1.349 . S
C3446 C3444 1.327 . S
C3446 C3465 1.429 . S
C3446 H3470 0.950 . S
C3447 C3464 1.574 . S
C3447 C3466 1.368 . S
C3447 H3471 0.949 . S
H3448 C3452 0.949 . S
C3449 C3450 1.349 . S
C3449 C3451 1.327 . S
C3449 H3472 0.950 . S
C3450 C3449 1.349 . S
C3450 C3462 1.349 . S
C3451 C3449 1.327 . S
C3451 C3467 1.429 . S
C3451 H3473 0.950 . S
C3452 H3448 0.949 . S
C3452 C3460 1.574 . S
C3452 C3468 1.368 . S
H3453 C3461 0.950 . S
H3454 C3459 0.950 . S
H3455 C3460 0.949 . S
H3456 C3462 0.950 . S
H3457 C3463 0.950 . S
H3458 C3464 0.949 . S
C3459 H3454 0.950 . S
C3459 C3461 1.327 . S
C3459 C3465 1.429 . S
C3460 C3452 1.574 . S
C3460 H3455 0.949 . S
C3460 C3466 1.368 . S
C3461 C3445 1.349 . S
C3461 H3453 0.950 . S
C3461 C3459 1.327 . S
C3462 C3450 1.349 . S
C3462 H3456 0.950 . S
C3462 C3463 1.327 . S
C3463 H3457 0.950 . S
C3463 C3462 1.327 . S
C3463 C3467 1.429 . S
C3464 C3447 1.574 . S
C3464 H3458 0.949 . S
C3464 C3468 1.368 . S
C3465 C3446 1.429 . S
C3465 C3459 1.429 . S
C3465 C3466 1.523 . S
C3466 C3447 1.368 . S
C3466 C3460 1.368 . S
C3466 C3465 1.523 . S
C3467 C3451 1.429 . S
C3467 C3463 1.429 . S
C3467 C3468 1.523 . S
C3468 C3452 1.368 . S
C3468 C3464 1.368 . S
C3468 C3467 1.523 . S
H3469 C3444 0.950 . S
H3470 C3446 0.950 . S
H3471 C3447 0.949 . S
H3472 C3449 0.950 . S
H3473 C3451 0.950 . S
C3474 C3475 1.349 . S
C3474 C3476 1.327 . S
C3474 H3499 0.950 . S
C3475 C3474 1.349 . S
C3475 C3491 1.349 . S
C3476 C3474 1.327 . S
C3476 C3495 1.429 . S
C3476 H3500 0.950 . S
C3477 C3494 1.574 . S
C3477 C3496 1.368 . S
C3477 H3501 0.949 . S
H3478 C3482 0.949 . S
C3479 C3480 1.349 . S
C3479 C3481 1.327 . S
C3479 H3502 0.950 . S
C3480 C3479 1.349 . S
C3480 C3492 1.349 . S
C3481 C3479 1.327 . S
C3481 C3497 1.429 . S
C3481 H3503 0.950 . S
C3482 H3478 0.949 . S
C3482 C3490 1.574 . S
C3482 C3498 1.368 . S
H3483 C3491 0.950 . S
H3484 C3489 0.950 . S
H3485 C3490 0.949 . S
H3486 C3492 0.950 . S
H3487 C3493 0.950 . S
H3488 C3494 0.949 . S
C3489 H3484 0.950 . S
C3489 C3491 1.327 . S
C3489 C3495 1.429 . S
C3490 C3482 1.574 . S
C3490 H3485 0.949 . S
C3490 C3496 1.368 . S
C3491 C3475 1.349 . S
C3491 H3483 0.950 . S
C3491 C3489 1.327 . S
C3492 C3480 1.349 . S
C3492 H3486 0.950 . S
C3492 C3493 1.327 . S
C3493 H3487 0.950 . S
C3493 C3492 1.327 . S
C3493 C3497 1.429 . S
C3494 C3477 1.574 . S
C3494 H3488 0.949 . S
C3494 C3498 1.368 . S
C3495 C3476 1.429 . S
C3495 C3489 1.429 . S
C3495 C3496 1.523 . S
C3496 C3477 1.368 . S
C3496 C3490 1.368 . S
C3496 C3495 1.523 . S
C3497 C3481 1.429 . S
C3497 C3493 1.429 . S
C3497 C3498 1.523 . S
C3498 C3482 1.368 . S
C3498 C3494 1.368 . S
C3498 C3497 1.523 . S
H3499 C3474 0.950 . S
H3500 C3476 0.950 . S
H3501 C3477 0.949 . S
H3502 C3479 0.950 . S
H3503 C3481 0.950 . S
C3504 C3505 1.349 . S
C3504 C3506 1.327 . S
C3504 H3529 0.950 . S
C3505 C3504 1.349 . S
C3505 C3521 1.349 . S
C3506 C3504 1.327 . S
C3506 C3525 1.429 . S
C3506 H3530 0.950 . S
C3507 C3524 1.574 . S
C3507 C3526 1.368 . S
C3507 H3531 0.949 . S
H3508 C3512 0.949 . S
C3509 C3510 1.349 . S
C3509 C3511 1.327 . S
C3509 H3532 0.950 . S
C3510 C3509 1.349 . S
C3510 C3522 1.349 . S
C3511 C3509 1.327 . S
C3511 C3527 1.429 . S
C3511 H3533 0.950 . S
C3512 H3508 0.949 . S
C3512 C3520 1.574 . S
C3512 C3528 1.368 . S
H3513 C3521 0.950 . S
H3514 C3519 0.950 . S
H3515 C3520 0.949 . S
H3516 C3522 0.950 . S
H3517 C3523 0.950 . S
H3518 C3524 0.949 . S
C3519 H3514 0.950 . S
C3519 C3521 1.327 . S
C3519 C3525 1.429 . S
C3520 C3512 1.574 . S
C3520 H3515 0.949 . S
C3520 C3526 1.368 . S
C3521 C3505 1.349 . S
C3521 H3513 0.950 . S
C3521 C3519 1.327 . S
C3522 C3510 1.349 . S
C3522 H3516 0.950 . S
C3522 C3523 1.327 . S
C3523 H3517 0.950 . S
C3523 C3522 1.327 . S
C3523 C3527 1.429 . S
C3524 C3507 1.574 . S
C3524 H3518 0.949 . S
C3524 C3528 1.368 . S
C3525 C3506 1.429 . S
C3525 C3519 1.429 . S
C3525 C3526 1.523 . S
C3526 C3507 1.368 . S
C3526 C3520 1.368 . S
C3526 C3525 1.523 . S
C3527 C3511 1.429 . S
C3527 C3523 1.429 . S
C3527 C3528 1.523 . S
C3528 C3512 1.368 . S
C3528 C3524 1.368 . S
C3528 C3527 1.523 . S
H3529 C3504 0.950 . S
H3530 C3506 0.950 . S
H3531 C3507 0.949 . S
H3532 C3509 0.950 . S
H3533 C3511 0.950 . S
C3534 C3535 1.349 . S
C3534 C3536 1.327 . S
C3534 H3559 0.950 . S
C3535 C3534 1.349 . S
C3535 C3551 1.349 . S
C3536 C3534 1.327 . S
C3536 C3555 1.429 . S
C3536 H3560 0.950 . S
C3537 C3554 1.574 . S
C3537 C3556 1.368 . S
C3537 H3561 0.949 . S
H3538 C3542 0.949 . S
C3539 C3540 1.349 . S
C3539 C3541 1.327 . S
C3539 H3562 0.950 . S
C3540 C3539 1.349 . S
C3540 C3552 1.349 . S
C3541 C3539 1.327 . S
C3541 C3557 1.429 . S
C3541 H3563 0.950 . S
C3542 H3538 0.949 . S
C3542 C3550 1.574 . S
C3542 C3558 1.368 . S
H3543 C3551 0.950 . S
H3544 C3549 0.950 . S
H3545 C3550 0.949 . S
H3546 C3552 0.950 . S
H3547 C3553 0.950 . S
H3548 C3554 0.949 . S
C3549 H3544 0.950 . S
C3549 C3551 1.327 . S
C3549 C3555 1.429 . S
C3550 C3542 1.574 . S
C3550 H3545 0.949 . S
C3550 C3556 1.368 . S
C3551 C3535 1.349 . S
C3551 H3543 0.950 . S
C3551 C3549 1.327 . S
C3552 C3540 1.349 . S
C3552 H3546 0.950 . S
C3552 C3553 1.327 . S
C3553 H3547 0.950 . S
C3553 C3552 1.327 . S
C3553 C3557 1.429 . S
C3554 C3537 1.574 . S
C3554 H3548 0.949 . S
C3554 C3558 1.368 . S
C3555 C3536 1.429 . S
C3555 C3549 1.429 . S
C3555 C3556 1.523 . S
C3556 C3537 1.368 . S
C3556 C3550 1.368 . S
C3556 C3555 1.523 . S
C3557 C3541 1.429 . S
C3557 C3553 1.429 . S
C3557 C3558 1.523 . S
C3558 C3542 1.368 . S
C3558 C3554 1.368 . S
C3558 C3557 1.523 . S
H3559 C3534 0.950 . S
H3560 C3536 0.950 . S
H3561 C3537 0.949 . S
H3562 C3539 0.950 . S
H3563 C3541 0.950 . S
C3564 C3565 1.349 . S
C3564 C3566 1.327 . S
C3564 H3589 0.950 . S
C3565 C3564 1.349 . S
C3565 C3581 1.349 . S
C3566 C3564 1.327 . S
C3566 C3585 1.429 . S
C3566 H3590 0.950 . S
C3567 C3584 1.574 . S
C3567 C3586 1.368 . S
C3567 H3591 0.949 . S
H3568 C3572 0.949 . S
C3569 C3570 1.349 . S
C3569 C3571 1.327 . S
C3569 H3592 0.950 . S
C3570 C3569 1.349 . S
C3570 C3582 1.349 . S
C3571 C3569 1.327 . S
C3571 C3587 1.429 . S
C3571 H3593 0.950 . S
C3572 H3568 0.949 . S
C3572 C3580 1.574 . S
C3572 C3588 1.368 . S
H3573 C3581 0.950 . S
H3574 C3579 0.950 . S
H3575 C3580 0.949 . S
H3576 C3582 0.950 . S
H3577 C3583 0.950 . S
H3578 C3584 0.949 . S
C3579 H3574 0.950 . S
C3579 C3581 1.327 . S
C3579 C3585 1.429 . S
C3580 C3572 1.574 . S
C3580 H3575 0.949 . S
C3580 C3586 1.368 . S
C3581 C3565 1.349 . S
C3581 H3573 0.950 . S
C3581 C3579 1.327 . S
C3582 C3570 1.349 . S
C3582 H3576 0.950 . S
C3582 C3583 1.327 . S
C3583 H3577 0.950 . S
C3583 C3582 1.327 . S
C3583 C3587 1.429 . S
C3584 C3567 1.574 . S
C3584 H3578 0.949 . S
C3584 C3588 1.368 . S
C3585 C3566 1.429 . S
C3585 C3579 1.429 . S
C3585 C3586 1.523 . S
C3586 C3567 1.368 . S
C3586 C3580 1.368 . S
C3586 C3585 1.523 . S
C3587 C3571 1.429 . S
C3587 C3583 1.429 . S
C3587 C3588 1.523 . S
C3588 C3572 1.368 . S
C3588 C3584 1.368 . S
C3588 C3587 1.523 . S
H3589 C3564 0.950 . S
H3590 C3566 0.950 . S
H3591 C3567 0.949 . S
H3592 C3569 0.950 . S
H3593 C3571 0.950 . S
C3594 C3595 1.349 . S
C3594 C3596 1.327 . S
C3594 H3619 0.950 . S
C3595 C3594 1.349 . S
C3595 C3611 1.349 . S
C3596 C3594 1.327 . S
C3596 C3615 1.429 . S
C3596 H3620 0.950 . S
C3597 C3614 1.574 . S
C3597 C3616 1.368 . S
C3597 H3621 0.949 . S
H3598 C3602 0.949 . S
C3599 C3600 1.349 . S
C3599 C3601 1.327 . S
C3599 H3622 0.950 . S
C3600 C3599 1.349 . S
C3600 C3612 1.349 . S
C3601 C3599 1.327 . S
C3601 C3617 1.429 . S
C3601 H3623 0.950 . S
C3602 H3598 0.949 . S
C3602 C3610 1.574 . S
C3602 C3618 1.368 . S
H3603 C3611 0.950 . S
H3604 C3609 0.950 . S
H3605 C3610 0.949 . S
H3606 C3612 0.950 . S
H3607 C3613 0.950 . S
H3608 C3614 0.949 . S
C3609 H3604 0.950 . S
C3609 C3611 1.327 . S
C3609 C3615 1.429 . S
C3610 C3602 1.574 . S
C3610 H3605 0.949 . S
C3610 C3616 1.368 . S
C3611 C3595 1.349 . S
C3611 H3603 0.950 . S
C3611 C3609 1.327 . S
C3612 C3600 1.349 . S
C3612 H3606 0.950 . S
C3612 C3613 1.327 . S
C3613 H3607 0.950 . S
C3613 C3612 1.327 . S
C3613 C3617 1.429 . S
C3614 C3597 1.574 . S
C3614 H3608 0.949 . S
C3614 C3618 1.368 . S
C3615 C3596 1.429 . S
C3615 C3609 1.429 . S
C3615 C3616 1.523 . S
C3616 C3597 1.368 . S
C3616 C3610 1.368 . S
C3616 C3615 1.523 . S
C3617 C3601 1.429 . S
C3617 C3613 1.429 . S
C3617 C3618 1.523 . S
C3618 C3602 1.368 . S
C3618 C3614 1.368 . S
C3618 C3617 1.523 . S
H3619 C3594 0.950 . S
H3620 C3596 0.950 . S
H3621 C3597 0.949 . S
H3622 C3599 0.950 . S
H3623 C3601 0.950 . S
C3624 C3625 1.349 . S
C3624 C3626 1.327 . S
C3624 H3649 0.950 . S
C3625 C3624 1.349 . S
C3625 C3641 1.349 . S
C3626 C3624 1.327 . S
C3626 C3645 1.429 . S
C3626 H3650 0.950 . S
C3627 C3644 1.574 . S
C3627 C3646 1.368 . S
C3627 H3651 0.949 . S
H3628 C3632 0.949 . S
C3629 C3630 1.349 . S
C3629 C3631 1.327 . S
C3629 H3652 0.950 . S
C3630 C3629 1.349 . S
C3630 C3642 1.349 . S
C3631 C3629 1.327 . S
C3631 C3647 1.429 . S
C3631 H3653 0.950 . S
C3632 H3628 0.949 . S
C3632 C3640 1.574 . S
C3632 C3648 1.368 . S
H3633 C3641 0.950 1_655 S
H3634 C3639 0.950 . S
H3635 C3640 0.949 . S
H3636 C3642 0.950 . S
H3637 C3643 0.950 . S
H3638 C3644 0.949 . S
C3639 H3634 0.950 . S
C3639 C3641 1.327 . S
C3639 C3645 1.429 . S
C3640 C3632 1.574 . S
C3640 H3635 0.949 . S
C3640 C3646 1.368 . S
C3641 C3625 1.349 . S
C3641 H3633 0.950 1_455 S
C3641 C3639 1.327 . S
C3642 C3630 1.349 . S
C3642 H3636 0.950 . S
C3642 C3643 1.327 . S
C3643 H3637 0.950 . S
C3643 C3642 1.327 . S
C3643 C3647 1.429 . S
C3644 C3627 1.574 . S
C3644 H3638 0.949 . S
C3644 C3648 1.368 . S
C3645 C3626 1.429 . S
C3645 C3639 1.429 . S
C3645 C3646 1.523 . S
C3646 C3627 1.368 . S
C3646 C3640 1.368 . S
C3646 C3645 1.523 . S
C3647 C3631 1.429 . S
C3647 C3643 1.429 . S
C3647 C3648 1.523 . S
C3648 C3632 1.368 . S
C3648 C3644 1.368 . S
C3648 C3647 1.523 . S
H3649 C3624 0.950 . S
H3650 C3626 0.950 . S
H3651 C3627 0.949 . S
H3652 C3629 0.950 . S
H3653 C3631 0.950 . S
C3654 C3655 1.349 . S
C3654 C3656 1.327 . S
C3654 H3679 0.950 . S
C3655 C3654 1.349 . S
C3655 C3671 1.349 . S
C3656 C3654 1.327 . S
C3656 C3675 1.429 . S
C3656 H3680 0.950 . S
C3657 C3674 1.574 . S
C3657 C3676 1.368 . S
C3657 H3681 0.949 . S
H3658 C3662 0.949 . S
C3659 C3660 1.349 1_455 S
C3659 C3661 1.327 1_455 S
C3659 H3682 0.950 . S
C3660 C3659 1.349 1_655 S
C3660 C3672 1.349 . S
C3661 C3659 1.327 1_655 S
C3661 C3677 1.429 . S
C3661 H3683 0.962 1_655 S
C3662 H3658 0.949 . S
C3662 C3670 1.574 . S
C3662 C3678 1.368 . S
H3663 C3671 0.950 . S
H3664 C3669 0.950 . S
H3665 C3670 0.949 . S
H3666 C3672 0.950 . S
H3667 C3673 0.950 . S
H3668 C3674 0.949 . S
C3669 H3664 0.950 . S
C3669 C3671 1.327 . S
C3669 C3675 1.429 . S
C3670 C3662 1.574 . S
C3670 H3665 0.949 . S
C3670 C3676 1.368 . S
C3671 C3655 1.349 . S
C3671 H3663 0.950 . S
C3671 C3669 1.327 . S
C3672 C3660 1.349 . S
C3672 H3666 0.950 . S
C3672 C3673 1.327 . S
C3673 H3667 0.950 . S
C3673 C3672 1.327 . S
C3673 C3677 1.429 . S
C3674 C3657 1.574 . S
C3674 H3668 0.949 . S
C3674 C3678 1.368 . S
C3675 C3656 1.429 . S
C3675 C3669 1.429 . S
C3675 C3676 1.523 . S
C3676 C3657 1.368 . S
C3676 C3670 1.368 . S
C3676 C3675 1.523 . S
C3677 C3661 1.429 . S
C3677 C3673 1.429 . S
C3677 C3678 1.523 . S
C3678 C3662 1.368 . S
C3678 C3674 1.368 . S
C3678 C3677 1.523 . S
H3679 C3654 0.950 . S
H3680 C3656 0.950 . S
H3681 C3657 0.949 . S
H3682 C3659 0.950 . S
H3683 C3661 0.962 1_455 S
C3684 C3685 1.349 . S
C3684 C3686 1.327 . S
C3684 H3709 0.950 . S
C3685 C3684 1.349 . S
C3685 C3701 1.349 . S
C3686 C3684 1.327 . S
C3686 C3705 1.429 . S
C3686 H3710 0.950 . S
C3687 C3704 1.574 . S
C3687 C3706 1.368 . S
C3687 H3711 0.949 . S
H3688 C3692 0.949 . S
C3689 C3690 1.349 . S
C3689 C3691 1.327 . S
C3689 H3712 0.950 . S
C3690 C3689 1.349 . S
C3690 C3702 1.349 . S
C3691 C3689 1.327 . S
C3691 C3707 1.429 . S
C3691 H3713 0.950 . S
C3692 H3688 0.949 . S
C3692 C3700 1.574 . S
C3692 C3708 1.368 . S
H3693 C3701 0.950 . S
H3694 C3699 0.950 . S
H3695 C3700 0.949 . S
H3696 C3702 0.950 . S
H3697 C3703 0.950 . S
H3698 C3704 0.949 . S
C3699 H3694 0.950 . S
C3699 C3701 1.327 . S
C3699 C3705 1.429 . S
C3700 C3692 1.574 . S
C3700 H3695 0.949 . S
C3700 C3706 1.368 . S
C3701 C3685 1.349 . S
C3701 H3693 0.950 . S
C3701 C3699 1.327 . S
C3702 C3690 1.349 . S
C3702 H3696 0.950 . S
C3702 C3703 1.327 . S
C3703 H3697 0.950 . S
C3703 C3702 1.327 . S
C3703 C3707 1.429 . S
C3704 C3687 1.574 . S
C3704 H3698 0.949 . S
C3704 C3708 1.368 . S
C3705 C3686 1.429 . S
C3705 C3699 1.429 . S
C3705 C3706 1.523 . S
C3706 C3687 1.368 . S
C3706 C3700 1.368 . S
C3706 C3705 1.523 . S
C3707 C3691 1.429 . S
C3707 C3703 1.429 . S
C3707 C3708 1.523 . S
C3708 C3692 1.368 . S
C3708 C3704 1.368 . S
C3708 C3707 1.523 . S
H3709 C3684 0.950 . S
H3710 C3686 0.950 . S
H3711 C3687 0.949 . S
H3712 C3689 0.950 . S
H3713 C3691 0.950 . S
C3714 C3715 1.349 . S
C3714 C3716 1.327 . S
C3714 H3739 0.950 . S
C3715 C3714 1.349 . S
C3715 C3731 1.349 . S
C3716 C3714 1.327 . S
C3716 C3735 1.429 . S
C3716 H3740 0.950 . S
C3717 C3734 1.574 . S
C3717 C3736 1.368 . S
C3717 H3741 0.949 . S
H3718 C3722 0.949 1_565 S
C3719 C3720 1.349 . S
C3719 C3721 1.327 . S
C3719 H3742 0.950 . S
C3720 C3719 1.349 . S
C3720 C3732 1.349 1_545 S
C3721 C3719 1.327 . S
C3721 C3737 1.429 . S
C3721 H3743 0.950 . S
C3722 H3718 0.949 1_545 S
C3722 C3730 1.574 . S
C3722 C3738 1.368 . S
H3723 C3731 0.950 . S
H3724 C3729 0.950 . S
H3725 C3730 0.876 1_565 S
H3726 C3732 0.950 . S
H3727 C3733 0.950 . S
H3728 C3734 0.949 . S
C3729 H3724 0.950 . S
C3729 C3731 1.327 . S
C3729 C3735 1.429 . S
C3730 C3722 1.574 . S
C3730 H3725 0.876 1_545 S
C3730 C3736 1.368 . S
C3731 C3715 1.349 . S
C3731 H3723 0.950 . S
C3731 C3729 1.327 . S
C3732 C3720 1.349 1_565 S
C3732 H3726 0.950 . S
C3732 C3733 1.327 . S
C3733 H3727 0.950 . S
C3733 C3732 1.327 . S
C3733 C3737 1.429 1_565 S
C3734 C3717 1.574 . S
C3734 H3728 0.949 . S
C3734 C3738 1.368 . S
C3735 C3716 1.429 . S
C3735 C3729 1.429 . S
C3735 C3736 1.523 . S
C3736 C3717 1.368 . S
C3736 C3730 1.368 . S
C3736 C3735 1.523 . S
C3737 C3721 1.429 . S
C3737 C3733 1.429 1_545 S
C3737 C3738 1.523 . S
C3738 C3722 1.368 . S
C3738 C3734 1.368 . S
C3738 C3737 1.523 . S
H3739 C3714 0.950 . S
H3740 C3716 0.950 . S
H3741 C3717 0.949 . S
H3742 C3719 0.950 . S
H3743 C3721 0.950 . S
C1585 C4 1.045 . S
C1590 C981 1.050 . S
C1615 C26 1.564 . S
C1620 C1061 1.535 . S
C1650 C1129 1.169 . S
C1645 C32 1.187 . S
C1675 C40 1.631 . S
C1680 C1209 1.641 . S
C1705 C12 1.437 . S
C1710 C1283 1.449 . S
C1735 C18 1.482 . S
C1740 C1351 1.443 . S
C1765 C46 0.975 . S
C1770 C1277 0.963 . S
C1800 C1357 1.432 . S
C1795 C68 1.424 . S
C1830 C1203 1.214 . S
C1825 C74 1.221 . S
C1855 C82 1.601 . S
C1860 C1135 1.636 1_545 S
C1890 C987 1.460 . S
C1885 C54 1.452 . S
C1915 C60 1.339 . S
C1920 C1055 1.336 . S
C1945 C88 1.298 . S
C1950 C1425 1.257 . S
C1975 C110 1.595 . S
C1980 C1505 1.551 . S
C2010 C1573 1.465 . S
C2005 C116 1.517 . S
C2035 C124 1.747 . S
C2040 C321 1.722 . S
C2065 C96 1.626 . S
C2070 C395 1.594 . S
C2095 C102 1.501 . S
C2100 C463 1.452 . S
C2125 C130 1.007 . S
C2130 C389 1.005 . S
C2155 C152 1.514 . S
C2160 C469 1.518 . S
C2190 C315 1.359 . S
C2185 C158 1.364 . S
C2220 C1579 1.749 . S
C2215 C166 1.740 . S
C2250 C1431 1.444 . S
C2245 C138 1.443 . S
C2280 C1499 1.399 . S
C2275 C144 1.399 . S
C2305 C172 1.207 . S
C2310 C537 1.168 . S
C2335 C194 1.643 . S
C2340 C617 1.600 . S
C2365 C200 1.536 . S
C2370 C685 1.482 . S
C2395 C208 1.826 . S
C2400 C765 1.797 . S
C2430 C839 1.570 . S
C2425 C180 1.604 . S
C2460 C907 1.508 . S
C2455 C186 1.552 . S
C2490 C833 1.155 . S
C2485 C214 1.155 . S
C2520 C913 1.474 . S
C2515 C236 1.474 . S
C2545 C242 1.298 . S
C2550 C759 1.296 . S
C2580 C691 1.623 . S
C2575 C250 1.612 . S
C2605 C222 1.508 . S
C2610 C543 1.512 . S
C2640 C611 1.363 . S
C2635 C228 1.367 . S
C2670 C291 1.892 . S
C2665 C5 1.720 . S
C2695 C25 1.316 . S
C2700 C365 1.306 . S
C2730 C451 1.442 . S
C2725 C33 1.268 . S
C2760 C525 0.963 . S
C2755 C39 0.962 . S
C2790 C587 1.472 . S
C2785 C11 1.480 1_556 S
C2820 C673 1.426 . S
C2815 C19 1.246 . S
C2845 C47 1.897 . S
C2850 C661 2.046 . S
C2875 C67 1.512 . S
C2880 C513 1.439 . S
C2905 C75 1.454 . S
C2910 C599 1.627 . S
C2935 C81 1.258 . S
C2940 C377 1.209 . S
C2970 C439 1.593 . S
C2965 C53 1.667 . S
C2995 C61 1.399 . S
C3000 C303 1.583 . S
C3030 C735 1.828 . S
C3025 C89 1.632 . S
C3055 C109 1.464 1_545 S
C3060 C809 1.456 . S
C3085 C117 1.260 1_655 S
C3090 C895 1.452 . S
C3120 C969 0.790 . S
C3115 C123 0.783 . S
C3145 C95 1.353 . S
C3150 C1031 1.347 . S
C3175 C103 1.109 . S
C3180 C1117 1.238 . S
C3205 C131 1.505 . S
C3210 C1105 1.684 . S
C3235 C151 1.210 . S
C3240 C957 1.189 . S
C3270 C1043 1.491 . S
C3265 C159 1.309 . S
C3295 C165 1.244 . S
C3300 C821 1.191 . S
C3325 C137 1.693 1_545 S
C3330 C883 1.623 . S
C3360 C747 1.678 . S
C3355 C145 1.487 1_655 S
C3390 C1179 1.656 . S
C3385 C173 1.492 . S
C3415 C193 1.064 . S
C3420 C1253 1.071 . S
C3445 C201 1.134 . S
C3450 C1339 1.302 . S
C3480 C1413 0.959 . S
C3475 C207 0.971 . S
C3510 C1475 1.516 . S
C3505 C179 1.522 1_565 S
C3535 C187 1.338 . S
C3540 C1561 1.527 . S
C3565 C215 1.816 . S
C3570 C1549 1.979 . S
C3595 C235 1.644 1_565 S
C3600 C1401 1.572 . S
C3630 C1487 1.606 . S
C3625 C243 1.436 . S
C3660 C1265 0.824 . S
C3655 C249 0.822 . S
C3690 C1327 1.491 . S
C3685 C221 1.553 . S
C3715 C229 1.182 . S
C3720 C1191 1.340 1_545 S
