# Generated by pormake.
# Topology nom, (4,4)-cn, num edge types: 1
# Building blocks:
#     Node 0, Type 0, BuildingBlock: MUDLON_clean_linker_0, # of connection points: 4
#     Node 1, Type 0, BuildingBlock: MUDLON_clean_linker_0, # of connection points: 4
#     Node 2, Type 0, BuildingBlock: MUDLON_clean_linker_0, # of connection points: 4
#     Node 3, Type 0, BuildingBlock: MUDLON_clean_linker_0, # of connection points: 4
#     Node 4, Type 0, BuildingBlock: MUDLON_clean_linker_0, # of connection points: 4
#     Node 5, Type 0, BuildingBlock: MUDLON_clean_linker_0, # of connection points: 4
#     Node 6, Type 1, BuildingBlock: CEKHIL_clean_sbu_0, # of connection points: 4
#     Node 7, Type 1, BuildingBlock: CEKHIL_clean_sbu_0, # of connection points: 4
#     Node 8, Type 1, BuildingBlock: CEKHIL_clean_sbu_0, # of connection points: 4
#     Node 9, Type 1, BuildingBlock: CEKHIL_clean_sbu_0, # of connection points: 4
#     Node 10, Type 1, BuildingBlock: CEKHIL_clean_sbu_0, # of connection points: 4
#     Node 11, Type 1, BuildingBlock: CEKHIL_clean_sbu_0, # of connection points: 4
#     Edge 12, Type (0, 1), BuildingBlock: UVAHIK_clean_linker_0, # of connection points: 2
#     Edge 13, Type (0, 1), BuildingBlock: UVAHIK_clean_linker_0, # of connection points: 2
#     Edge 14, Type (0, 1), BuildingBlock: UVAHIK_clean_linker_0, # of connection points: 2
#     Edge 15, Type (0, 1), BuildingBlock: UVAHIK_clean_linker_0, # of connection points: 2
#     Edge 16, Type (0, 1), BuildingBlock: UVAHIK_clean_linker_0, # of connection points: 2
#     Edge 17, Type (0, 1), BuildingBlock: UVAHIK_clean_linker_0, # of connection points: 2
#     Edge 18, Type (0, 1), BuildingBlock: UVAHIK_clean_linker_0, # of connection points: 2
#     Edge 19, Type (0, 1), BuildingBlock: UVAHIK_clean_linker_0, # of connection points: 2
#     Edge 20, Type (0, 1), BuildingBlock: UVAHIK_clean_linker_0, # of connection points: 2
#     Edge 21, Type (0, 1), BuildingBlock: UVAHIK_clean_linker_0, # of connection points: 2
#     Edge 22, Type (0, 1), BuildingBlock: UVAHIK_clean_linker_0, # of connection points: 2
#     Edge 23, Type (0, 1), BuildingBlock: UVAHIK_clean_linker_0, # of connection points: 2
#     Edge 24, Type (0, 1), BuildingBlock: UVAHIK_clean_linker_0, # of connection points: 2
#     Edge 25, Type (0, 1), BuildingBlock: UVAHIK_clean_linker_0, # of connection points: 2
#     Edge 26, Type (0, 1), BuildingBlock: UVAHIK_clean_linker_0, # of connection points: 2
#     Edge 27, Type (0, 1), BuildingBlock: UVAHIK_clean_linker_0, # of connection points: 2
#     Edge 28, Type (0, 1), BuildingBlock: UVAHIK_clean_linker_0, # of connection points: 2
#     Edge 29, Type (0, 1), BuildingBlock: UVAHIK_clean_linker_0, # of connection points: 2
#     Edge 30, Type (0, 1), BuildingBlock: UVAHIK_clean_linker_0, # of connection points: 2
#     Edge 31, Type (0, 1), BuildingBlock: UVAHIK_clean_linker_0, # of connection points: 2
#     Edge 32, Type (0, 1), BuildingBlock: UVAHIK_clean_linker_0, # of connection points: 2
#     Edge 33, Type (0, 1), BuildingBlock: UVAHIK_clean_linker_0, # of connection points: 2
#     Edge 34, Type (0, 1), BuildingBlock: UVAHIK_clean_linker_0, # of connection points: 2
#     Edge 35, Type (0, 1), BuildingBlock: UVAHIK_clean_linker_0, # of connection points: 2
# Relax obj value: 0.007
# Max RMSD: 0.104
# Mean RMSD: 0.066
data_MOF--net-nom--node1-CEKHIL_clean_sbu_0--node2-MUDLON_clean_linker_0--edge1-UVAHIK_clean_linker_0
_symmetry_space_group_name_H-M    P1
_symmetry_Int_Tables_number       1
_symmetry_cell_setting            triclinic
loop_
_symmetry_equiv_pos_as_xyz
'x, y, z'
_cell_length_a     74.11359
_cell_length_b     74.472413
_cell_length_c     74.165808
_cell_angle_alpha  90.334464
_cell_angle_beta   89.826615
_cell_angle_gamma 121.41918
loop_
_atom_site_label
_atom_site_type_symbol
_atom_site_fract_x
_atom_site_fract_y
_atom_site_fract_z
_atom_type_partial_charge
H0 H 0.10689 0.55235 0.32815 0.0
N1 N 0.08698 0.57321 0.33802 0.0
H2 H 0.13688 0.56522 0.30768 0.0
H3 H 0.10285 0.60688 0.31711 0.0
H4 H 0.13338 0.62034 0.297 0.0
H5 H 0.10537 0.60556 0.36049 0.0
H6 H 0.12201 0.60755 0.38939 0.0
H7 H 0.08532 0.5401 0.35545 0.0
H8 H 0.10183 0.54179 0.38458 0.0
H9 H 0.07074 0.53575 0.31944 0.0
H10 H 0.054 0.57585 0.34755 0.0
H11 H 0.03402 0.51219 0.311 0.0
H12 H 0.01683 0.55156 0.34023 0.0
H13 H 0.91918 0.44147 0.28086 0.0
H14 H 0.90742 0.43759 0.24954 0.0
H15 H 0.93288 0.50456 0.24691 0.0
H16 H 0.94428 0.50822 0.27815 0.0
H17 H 0.92106 0.50244 0.30311 0.0
H18 H 0.88918 0.49553 0.31882 0.0
H19 H 0.88082 0.43749 0.33933 0.0
H20 H 0.91292 0.44455 0.32343 0.0
H21 H 0.96358 0.46452 0.30977 0.0
H22 H 0.99997 0.48694 0.32036 0.0
H23 H 0.99355 0.54127 0.31611 0.0
N24 N 0.93634 0.47592 0.30105 0.0
H25 H 0.95706 0.51864 0.30684 0.0
C26 C 0.10259 0.57871 0.32411 0.0
C27 C 0.11222 0.56693 0.32108 0.0
C28 C 0.12953 0.57442 0.30948 0.0
C29 C 0.13771 0.59393 0.30083 0.0
C30 C 0.12738 0.60515 0.30325 0.0
C31 C 0.10999 0.59756 0.31477 0.0
C32 C 0.09416 0.57278 0.35592 0.0
C33 C 0.10424 0.59152 0.36587 0.0
C34 C 0.11367 0.59257 0.38238 0.0
C35 C 0.11323 0.57481 0.38931 0.0
C36 C 0.1026 0.55579 0.37952 0.0
C37 C 0.09307 0.55475 0.36295 0.0
C38 C 0.06523 0.55791 0.33385 0.0
C39 C 0.05919 0.53945 0.32396 0.0
C40 C 0.03799 0.52578 0.31929 0.0
C41 C 0.02233 0.53 0.32474 0.0
C42 C 0.02842 0.54803 0.33532 0.0
C43 C 0.04963 0.56185 0.33969 0.0
C44 C 0.93259 0.47502 0.28192 0.0
C45 C 0.92258 0.45533 0.27338 0.0
C46 C 0.91593 0.45319 0.25548 0.0
C47 C 0.91914 0.47078 0.24576 0.0
C48 C 0.92994 0.49068 0.25412 0.0
C49 C 0.93662 0.4928 0.27202 0.0
C50 C 0.91945 0.47397 0.31216 0.0
C51 C 0.91278 0.48851 0.31132 0.0
C52 C 0.89447 0.48453 0.32034 0.0
C53 C 0.88242 0.4659 0.33021 0.0
C54 C 0.88965 0.45186 0.33165 0.0
C55 C 0.90801 0.45592 0.32272 0.0
C56 C 0.95764 0.48982 0.3073 0.0
C57 C 0.9701 0.48128 0.31125 0.0
C58 C 0.99095 0.49417 0.31716 0.0
C59 C 0.99988 0.51603 0.31903 0.0
C60 C 0.98722 0.52451 0.31513 0.0
C61 C 0.96628 0.51154 0.30952 0.0
H62 H 0.46953 0.91842 0.46255 0.0
N63 N 0.44941 0.93899 0.45252 0.0
H64 H 0.45541 0.88797 0.4821 0.0
H65 H 0.41481 0.92305 0.47273 0.0
H66 H 0.40006 0.8919 0.49196 0.0
H67 H 0.41753 0.92572 0.42967 0.0
H68 H 0.41239 0.90671 0.40139 0.0
H69 H 0.47986 0.93546 0.43483 0.0
H70 H 0.47438 0.91504 0.40725 0.0
H71 H 0.48648 0.95339 0.47162 0.0
H72 H 0.44959 0.97309 0.44233 0.0
H73 H 0.51132 0.98949 0.4803 0.0
H74 H 0.47533 0.0097 0.44992 0.0
H75 H 0.58467 0.10261 0.51444 0.0
H76 H 0.58675 0.1129 0.54606 0.0
H77 H 0.51924 0.08682 0.5466 0.0
H78 H 0.51737 0.07694 0.51503 0.0
H79 H 0.52592 0.10333 0.49196 0.0
H80 H 0.53452 0.13628 0.47788 0.0
H81 H 0.59281 0.14389 0.45765 0.0
H82 H 0.58399 0.11059 0.47184 0.0
H83 H 0.56142 0.0585 0.48392 0.0
H84 H 0.53827 0.02301 0.47189 0.0
H85 H 0.48553 0.0326 0.47432 0.0
N86 N 0.55126 0.08657 0.493 0.0
H87 H 0.50897 0.0682 0.48503 0.0
C88 C 0.44323 0.92316 0.46622 0.0
C89 C 0.45464 0.91316 0.46924 0.0
C90 C 0.44641 0.89553 0.48032 0.0
C91 C 0.42647 0.8873 0.48842 0.0
C92 C 0.41555 0.89792 0.48608 0.0
C93 C 0.42391 0.9157 0.47509 0.0
C94 C 0.4488 0.93154 0.43447 0.0
C95 C 0.43018 0.92389 0.42453 0.0
C96 C 0.4272 0.91278 0.40852 0.0
C97 C 0.44269 0.9087 0.40229 0.0
C98 C 0.46205 0.91776 0.41163 0.0
C99 C 0.46516 0.92928 0.42752 0.0
C100 C 0.46576 0.96037 0.45656 0.0
C101 C 0.48376 0.96542 0.46682 0.0
C102 C 0.49823 0.98631 0.47165 0.0
C103 C 0.49531 0.00266 0.46602 0.0
C104 C 0.47785 0.99757 0.45498 0.0
C105 C 0.46321 0.97667 0.45045 0.0
C106 C 0.55099 0.08904 0.51228 0.0
C107 C 0.57028 0.09871 0.52153 0.0
C108 C 0.5714 0.10452 0.53961 0.0
C109 C 0.55315 0.10077 0.54883 0.0
C110 C 0.53362 0.09017 0.53979 0.0
C111 C 0.53253 0.08436 0.52169 0.0
C112 C 0.5543 0.10435 0.48282 0.0
C113 C 0.54025 0.11166 0.4841 0.0
C114 C 0.54522 0.13061 0.47606 0.0
C115 C 0.56438 0.14272 0.46673 0.0
C116 C 0.57802 0.13499 0.46491 0.0
C117 C 0.57296 0.11595 0.47286 0.0
C118 C 0.53701 0.06596 0.48561 0.0
C119 C 0.54487 0.05289 0.48169 0.0
C120 C 0.53154 0.03255 0.47495 0.0
C121 C 0.50989 0.02474 0.47221 0.0
C122 C 0.50212 0.03806 0.47596 0.0
C123 C 0.51555 0.0585 0.4824 0.0
H124 H 0.46498 0.55216 0.66031 0.0
N125 N 0.44592 0.51008 0.66769 0.0
H126 H 0.45093 0.56843 0.64114 0.0
H127 H 0.41323 0.49066 0.64537 0.0
H128 H 0.39836 0.50683 0.62676 0.0
H129 H 0.412 0.49459 0.68856 0.0
H130 H 0.4086 0.50846 0.71744 0.0
H131 H 0.47849 0.54159 0.68725 0.0
H132 H 0.47552 0.5551 0.71647 0.0
H133 H 0.48447 0.53708 0.65162 0.0
H134 H 0.4462 0.47554 0.6751 0.0
H135 H 0.5122 0.52981 0.64526 0.0
H136 H 0.47442 0.46844 0.66956 0.0
H137 H 0.59993 0.49546 0.62744 0.0
H138 H 0.60947 0.49099 0.59688 0.0
H139 H 0.54547 0.46802 0.5794 0.0
H140 H 0.53588 0.47176 0.60979 0.0
H141 H 0.54004 0.44095 0.62698 0.0
H142 H 0.54168 0.41144 0.6389 0.0
H143 H 0.57997 0.45019 0.6833 0.0
H144 H 0.57852 0.48005 0.67112 0.0
H145 H 0.56623 0.51777 0.65118 0.0
H146 H 0.5387 0.52543 0.65868 0.0
H147 H 0.49086 0.46109 0.64579 0.0
N148 N 0.56125 0.48147 0.64006 0.0
H149 H 0.51826 0.45348 0.6391 0.0
C150 C 0.44019 0.52007 0.65416 0.0
C151 C 0.45085 0.5421 0.65257 0.0
C152 C 0.44259 0.55142 0.64177 0.0
C153 C 0.42332 0.53897 0.6326 0.0
C154 C 0.41333 0.51693 0.63346 0.0
C155 C 0.42175 0.50763 0.64412 0.0
C156 C 0.44541 0.51692 0.6858 0.0
C157 C 0.42595 0.50758 0.69478 0.0
C158 C 0.4241 0.51551 0.71132 0.0
C159 C 0.44179 0.53297 0.7193 0.0
C160 C 0.46151 0.54185 0.71059 0.0
C161 C 0.4633 0.53399 0.69394 0.0
C162 C 0.46293 0.50662 0.66361 0.0
C163 C 0.48193 0.52198 0.65545 0.0
C164 C 0.49801 0.51787 0.65198 0.0
C165 C 0.49559 0.49848 0.65682 0.0
C166 C 0.47671 0.48337 0.66528 0.0
C167 C 0.46059 0.48741 0.66856 0.0
C168 C 0.5672 0.48377 0.6212 0.0
C169 C 0.58814 0.49005 0.61689 0.0
C170 C 0.59356 0.48751 0.59939 0.0
C171 C 0.5781 0.47874 0.58579 0.0
C172 C 0.55762 0.47434 0.5897 0.0
C173 C 0.55215 0.47668 0.6072 0.0
C174 C 0.55942 0.46293 0.64809 0.0
C175 C 0.54859 0.44316 0.63939 0.0
C176 C 0.54957 0.42627 0.64618 0.0
C177 C 0.56112 0.42862 0.6619 0.0
C178 C 0.5709 0.44796 0.67117 0.0
C179 C 0.57012 0.46499 0.66425 0.0
C180 C 0.54446 0.48514 0.64465 0.0
C181 C 0.54978 0.50534 0.65013 0.0
C182 C 0.53401 0.5097 0.65425 0.0
C183 C 0.5125 0.49388 0.65283 0.0
C184 C 0.50721 0.47358 0.64738 0.0
C185 C 0.52297 0.46921 0.64345 0.0
H186 H 0.12684 0.57699 0.8047 0.0
N187 N 0.0918 0.54171 0.79559 0.0
H188 H 0.15584 0.58101 0.82323 0.0
H189 H 0.09212 0.51019 0.81413 0.0
H190 H 0.12066 0.51404 0.83344 0.0
H191 H 0.09671 0.51141 0.77949 0.0
H192 H 0.1088 0.51225 0.74851 0.0
H193 H 0.09654 0.56829 0.76986 0.0
H194 H 0.10872 0.56943 0.73902 0.0
H195 H 0.07336 0.56057 0.81016 0.0
H196 H 0.06161 0.4998 0.79383 0.0
H197 H 0.03645 0.54467 0.8193 0.0
H198 H 0.02463 0.4835 0.80337 0.0
H199 H 0.91964 0.49652 0.848 0.0
H200 H 0.90289 0.48464 0.87745 0.0
H201 H 0.92885 0.44458 0.88184 0.0
H202 H 0.94492 0.45609 0.85203 0.0
H203 H 0.92574 0.44055 0.82385 0.0
H204 H 0.89334 0.41545 0.80782 0.0
H205 H 0.88499 0.46638 0.79188 0.0
H206 H 0.91728 0.49132 0.80822 0.0
H207 H 0.97469 0.50956 0.84827 0.0
H208 H 0.01153 0.52218 0.84154 0.0
H209 H 0.99248 0.48239 0.79421 0.0
N210 N 0.94034 0.48234 0.82934 0.0
H211 H 0.95577 0.46929 0.80109 0.0
C212 C 0.10735 0.54343 0.80817 0.0
C213 C 0.12535 0.56327 0.81116 0.0
C214 C 0.14183 0.5655 0.82186 0.0
C215 C 0.14061 0.54786 0.82998 0.0
C216 C 0.12226 0.52794 0.82727 0.0
C217 C 0.10581 0.52572 0.81637 0.0
C218 C 0.09585 0.53991 0.7769 0.0
C219 C 0.09891 0.52386 0.77059 0.0
C220 C 0.10593 0.52443 0.75294 0.0
C221 C 0.10979 0.54094 0.74131 0.0
C222 C 0.10563 0.55632 0.74749 0.0
C223 C 0.09875 0.55578 0.76511 0.0
C224 C 0.07016 0.53141 0.80139 0.0
C225 C 0.06278 0.54372 0.80876 0.0
C226 C 0.04173 0.53456 0.81408 0.0
C227 C 0.02757 0.51275 0.81218 0.0
C228 C 0.03507 0.50035 0.80488 0.0
C229 C 0.05622 0.5096 0.79953 0.0
C230 C 0.9335 0.47726 0.84785 0.0
C231 C 0.92198 0.48545 0.8555 0.0
C232 C 0.91249 0.47868 0.87237 0.0
C233 C 0.91442 0.46356 0.88204 0.0
C234 C 0.92673 0.45597 0.87465 0.0
C235 C 0.93609 0.46266 0.85767 0.0
C236 C 0.92386 0.46784 0.81723 0.0
C237 C 0.91714 0.44634 0.81663 0.0
C238 C 0.89868 0.43203 0.80739 0.0
C239 C 0.88652 0.43894 0.79876 0.0
C240 C 0.89389 0.46057 0.79861 0.0
C241 C 0.91239 0.47485 0.80777 0.0
C242 C 0.96194 0.48782 0.82573 0.0
C243 C 0.9783 0.50306 0.83669 0.0
C244 C 0.99946 0.5105 0.83269 0.0
C245 C 0.00499 0.5033 0.81733 0.0
C246 C 0.98877 0.48797 0.80636 0.0
C247 C 0.96754 0.48042 0.81039 0.0
H248 H 0.53709 0.11296 0.9781 0.0
N249 N 0.54168 0.08424 0.96112 0.0
H250 H 0.56376 0.14308 0.99558 0.0
H251 H 0.57995 0.09065 0.97171 0.0
H252 H 0.60685 0.12083 0.98913 0.0
H253 H 0.5749 0.0906 0.93994 0.0
H254 H 0.58348 0.10634 0.91007 0.0
H255 H 0.51793 0.09284 0.9406 0.0
H256 H 0.52676 0.10916 0.91066 0.0
H257 H 0.50711 0.0613 0.98039 0.0
H258 H 0.55663 0.05824 0.95268 0.0
H259 H 0.49113 0.02461 0.98935 0.0
H260 H 0.54028 0.02131 0.96075 0.0
H261 H 0.44521 0.92469 0.02531 0.0
H262 H 0.44557 0.9137 0.05618 0.0
H263 H 0.50931 0.92723 0.04821 0.0
H264 H 0.50837 0.93734 0.01722 0.0
H265 H 0.5027 0.92498 0.98687 0.0
H266 H 0.49388 0.89155 0.97284 0.0
H267 H 0.42772 0.87182 0.9734 0.0
H268 H 0.43673 0.905 0.98804 0.0
H269 H 0.45542 0.95409 0.98844 0.0
H270 H 0.47197 0.99018 0.97751 0.0
H271 H 0.53362 0.99829 0.98535 0.0
N272 N 0.47428 0.93453 0.00015 0.0
H273 H 0.51677 0.96184 0.99527 0.0
C274 C 0.55658 0.09974 0.97355 0.0
C275 C 0.55214 0.11439 0.98083 0.0
C276 C 0.56737 0.13152 0.99083 0.0
C277 C 0.58745 0.13437 0.99365 0.0
C278 C 0.59159 0.11914 0.987 0.0
C279 C 0.57623 0.10188 0.97708 0.0
C280 C 0.5455 0.09022 0.94244 0.0
C281 C 0.56384 0.09381 0.93347 0.0
C282 C 0.56882 0.10293 0.91638 0.0
C283 C 0.5558 0.109 0.90811 0.0
C284 C 0.5371 0.10469 0.91679 0.0
C285 C 0.53197 0.09528 0.93377 0.0
C286 C 0.53284 0.06248 0.96571 0.0
C287 C 0.51437 0.05259 0.97607 0.0
C288 C 0.5052 0.03157 0.98104 0.0
C289 C 0.51425 0.01984 0.97559 0.0
C290 C 0.53294 0.02986 0.96529 0.0
C291 C 0.54224 0.05103 0.96049 0.0
C292 C 0.47669 0.9319 0.019 0.0
C293 C 0.4594 0.92572 0.03042 0.0
C294 C 0.45971 0.91953 0.04808 0.0
C295 C 0.47747 0.91949 0.0547 0.0
C296 C 0.49528 0.92679 0.04348 0.0
C297 C 0.49486 0.93284 0.02575 0.0
C298 C 0.47026 0.91729 0.98862 0.0
C299 C 0.48637 0.9136 0.9837 0.0
C300 C 0.48128 0.89449 0.97561 0.0
C301 C 0.46004 0.87887 0.97229 0.0
C302 C 0.44418 0.88331 0.97615 0.0
C303 C 0.44928 0.90232 0.98429 0.0
C304 C 0.4848 0.95541 0.99289 0.0
C305 C 0.47249 0.96368 0.98761 0.0
C306 C 0.48202 0.98436 0.98154 0.0
C307 C 0.50419 0.99734 0.98082 0.0
C308 C 0.51653 0.98876 0.98563 0.0
C309 C 0.50691 0.96792 0.99152 0.0
H310 H 0.54695 0.43644 0.13919 0.0
N311 N 0.55245 0.46965 0.15728 0.0
H312 H 0.5735 0.43347 0.12208 0.0
H313 H 0.59144 0.50248 0.14779 0.0
H314 H 0.61815 0.49985 0.13048 0.0
H315 H 0.5834 0.49851 0.17953 0.0
H316 H 0.59107 0.49194 0.21005 0.0
H317 H 0.52904 0.43557 0.17693 0.0
H318 H 0.53617 0.42896 0.2076 0.0
H319 H 0.51305 0.45124 0.14566 0.0
H320 H 0.56719 0.51173 0.15922 0.0
H321 H 0.49255 0.46765 0.13939 0.0
H322 H 0.54709 0.52856 0.15243 0.0
H323 H 0.4283 0.52039 0.11611 0.0
H324 H 0.42324 0.53101 0.08635 0.0
H325 H 0.49102 0.56713 0.07866 0.0
H326 H 0.49584 0.55696 0.1087 0.0
H327 H 0.49682 0.57426 0.13707 0.0
H328 H 0.49401 0.60213 0.15198 0.0
H329 H 0.43118 0.55595 0.17015 0.0
H330 H 0.43409 0.52818 0.15511 0.0
H331 H 0.46645 0.50366 0.11388 0.0
H332 H 0.48933 0.48978 0.11839 0.0
H333 H 0.51784 0.53101 0.16431 0.0
N334 N 0.46461 0.53321 0.13306 0.0
H335 H 0.49555 0.54543 0.15954 0.0
C336 C 0.56721 0.46957 0.14474 0.0
C337 C 0.56232 0.45041 0.13692 0.0
C338 C 0.57752 0.4488 0.12712 0.0
C339 C 0.59803 0.46642 0.12497 0.0
C340 C 0.60259 0.48593 0.13209 0.0
C341 C 0.58729 0.4875 0.14189 0.0
C342 C 0.55571 0.46738 0.17599 0.0
C343 C 0.5729 0.48341 0.18566 0.0
C344 C 0.57722 0.47965 0.20313 0.0
C345 C 0.56439 0.45983 0.21114 0.0
C346 C 0.5466 0.44425 0.20167 0.0
C347 C 0.54237 0.44801 0.18426 0.0
C348 C 0.54156 0.48025 0.15273 0.0
C349 C 0.52055 0.46815 0.147 0.0
C350 C 0.50894 0.4776 0.14335 0.0
C351 C 0.5182 0.49949 0.14528 0.0
C352 C 0.53942 0.51166 0.15094 0.0
C353 C 0.55102 0.5021 0.15467 0.0
C354 C 0.46234 0.53782 0.1146 0.0
C355 C 0.442 0.53036 0.10785 0.0
C356 C 0.43918 0.53639 0.09081 0.0
C357 C 0.45673 0.54999 0.08009 0.0
C358 C 0.47716 0.55692 0.08666 0.0
C359 C 0.47995 0.551 0.10378 0.0
C360 C 0.46557 0.54909 0.14499 0.0
C361 C 0.48268 0.57007 0.14466 0.0
C362 C 0.48108 0.58597 0.15323 0.0
C363 C 0.46229 0.5812 0.16205 0.0
C364 C 0.44577 0.56008 0.1633 0.0
C365 C 0.44745 0.5442 0.15487 0.0
C366 C 0.47953 0.52634 0.13575 0.0
C367 C 0.47795 0.51016 0.12468 0.0
C368 C 0.49091 0.502 0.12742 0.0
C369 C 0.50551 0.50932 0.14169 0.0
C370 C 0.5071 0.52535 0.15293 0.0
C371 C 0.4942 0.53366 0.15012 0.0
Co372 Co 0.63928 0.38434 0.39911 0.0
O373 O 0.65645 0.38243 0.38062 0.0
O374 O 0.66657 0.41014 0.39832 0.0
C375 C 0.62828 0.3524 0.41093 0.0
O376 O 0.6268 0.39194 0.42022 0.0
Co377 Co 0.59087 0.35342 0.40122 0.0
O378 O 0.59356 0.36561 0.42555 0.0
C379 C 0.60854 0.38796 0.37457 0.0
C380 C 0.67129 0.40112 0.38565 0.0
C381 C 0.6099 0.38311 0.4299 0.0
O382 O 0.62722 0.39559 0.38115 0.0
O383 O 0.59241 0.37075 0.38001 0.0
O384 O 0.64649 0.36858 0.41542 0.0
O385 O 0.61798 0.35569 0.39869 0.0
Co386 Co 0.28417 0.64328 0.56643 0.0
O387 O 0.30355 0.64288 0.58337 0.0
O388 O 0.28484 0.61785 0.56328 0.0
C389 C 0.30615 0.67681 0.55756 0.0
O390 O 0.26337 0.63839 0.54629 0.0
Co391 Co 0.26787 0.67398 0.57061 0.0
O392 O 0.25617 0.66419 0.54613 0.0
C393 C 0.24898 0.63515 0.59256 0.0
C394 C 0.29894 0.6251 0.57604 0.0
C395 C 0.25458 0.64771 0.53924 0.0
O396 O 0.26032 0.62908 0.58448 0.0
O397 O 0.2506 0.65286 0.58961 0.0
O398 O 0.30771 0.66164 0.55059 0.0
O399 O 0.29256 0.67151 0.57043 0.0
Co400 Co 0.64284 0.27125 0.72489 0.0
O401 O 0.64203 0.28942 0.70693 0.0
O402 O 0.61668 0.27088 0.7268 0.0
C403 C 0.67597 0.2942 0.73452 0.0
O404 O 0.63796 0.2516 0.74576 0.0
Co405 Co 0.67466 0.2561 0.72357 0.0
O406 O 0.66527 0.24673 0.74865 0.0
C407 C 0.63686 0.23606 0.69989 0.0
C408 C 0.62379 0.28437 0.71369 0.0
C409 C 0.64797 0.24447 0.75434 0.0
O410 O 0.62983 0.24685 0.70742 0.0
O411 O 0.65485 0.23847 0.70369 0.0
O412 O 0.66015 0.29544 0.74045 0.0
O413 O 0.67157 0.2803 0.72207 0.0
Co414 Co 0.38258 0.63747 0.90009 0.0
O415 O 0.36187 0.63783 0.88478 0.0
O416 O 0.35616 0.61079 0.90151 0.0
C417 C 0.39424 0.66937 0.91257 0.0
O418 O 0.39923 0.6314 0.91823 0.0
Co419 Co 0.43055 0.67024 0.89667 0.0
O420 O 0.43275 0.65858 0.91999 0.0
C421 C 0.40941 0.63582 0.86989 0.0
C422 C 0.34876 0.61889 0.89045 0.0
C423 C 0.41764 0.64094 0.92562 0.0
O424 O 0.3925 0.62683 0.87956 0.0
O425 O 0.42548 0.65396 0.87365 0.0
O426 O 0.37725 0.65286 0.91866 0.0
O427 O 0.40266 0.66631 0.89854 0.0
Co428 Co 0.7526 0.37762 0.06629 0.0
O429 O 0.73343 0.37809 0.08361 0.0
O430 O 0.75231 0.4033 0.0639 0.0
C431 C 0.73037 0.34428 0.05688 0.0
O432 O 0.7731 0.38256 0.04586 0.0
Co433 Co 0.76871 0.34673 0.06893 0.0
O434 O 0.77862 0.3557 0.0439 0.0
C435 C 0.78729 0.38465 0.09238 0.0
C436 C 0.73826 0.39604 0.0767 0.0
C437 C 0.78069 0.3726 0.03773 0.0
O438 O 0.77654 0.39129 0.08426 0.0
O439 O 0.7853 0.36682 0.08896 0.0
O440 O 0.72888 0.35963 0.05039 0.0
O441 O 0.74406 0.34931 0.0696 0.0
Co442 Co 0.38199 0.74058 0.2225 0.0
O443 O 0.38304 0.72292 0.20404 0.0
O444 O 0.40788 0.74038 0.2246 0.0
C445 C 0.34833 0.71755 0.23078 0.0
O446 O 0.38626 0.75953 0.24403 0.0
Co447 Co 0.35068 0.75634 0.22094 0.0
O448 O 0.35849 0.76376 0.24662 0.0
C449 C 0.38975 0.77718 0.19885 0.0
C450 C 0.40098 0.72739 0.211 0.0
C451 C 0.37556 0.76592 0.25271 0.0
O452 O 0.39602 0.76563 0.20597 0.0
O453 O 0.37178 0.77505 0.20231 0.0
O454 O 0.36371 0.71585 0.23707 0.0
O455 O 0.35355 0.73205 0.21888 0.0
C456 C 0.16111 0.61535 0.27506 0.0
C457 C 0.15794 0.60343 0.29068 0.0
C458 C 0.18092 0.62611 0.26672 0.0
C459 C 0.23262 0.62977 0.26399 0.0
H460 H 0.25407 0.6883 0.25271 0.0
C461 C 0.32109 0.68897 0.25042 0.0
C462 C 0.32624 0.70394 0.23683 0.0
C463 C 0.30009 0.67589 0.25588 0.0
C464 C 0.24824 0.67191 0.25552 0.0
H465 H 0.17311 0.5932 0.30954 0.0
H466 H 0.20747 0.61173 0.29488 0.0
H467 H 0.21786 0.66616 0.26331 0.0
H468 H 0.3135 0.71689 0.21821 0.0
H469 H 0.27689 0.69392 0.22753 0.0
H470 H 0.26306 0.63556 0.25631 0.0
C471 C 0.19459 0.61259 0.28898 0.0
C472 C 0.22747 0.65921 0.26158 0.0
C473 C 0.17484 0.60191 0.29736 0.0
C474 C 0.31003 0.70558 0.22879 0.0
C475 C 0.28905 0.69247 0.23419 0.0
C476 C 0.25339 0.64246 0.25786 0.0
C477 C 0.19796 0.62512 0.27378 0.0
C478 C 0.21949 0.63807 0.26605 0.0
C479 C 0.28382 0.67747 0.24781 0.0
C480 C 0.26151 0.66374 0.25372 0.0
H481 H 0.14834 0.61658 0.26941 0.0
H482 H 0.18298 0.63541 0.25486 0.0
H483 H 0.22682 0.61346 0.26714 0.0
H484 H 0.33327 0.68738 0.25688 0.0
H485 H 0.29665 0.66473 0.26659 0.0
C486 C 0.55613 0.16752 0.45126 0.0
C487 C 0.57073 0.16397 0.46009 0.0
C488 C 0.56186 0.18784 0.44604 0.0
C489 C 0.59928 0.24341 0.45701 0.0
H490 H 0.5848 0.25406 0.40971 0.0
C491 C 0.63352 0.32737 0.42923 0.0
C492 C 0.62044 0.33122 0.41834 0.0
C493 C 0.62673 0.30696 0.43497 0.0
C494 C 0.58868 0.25133 0.42308 0.0
H495 H 0.60277 0.1789 0.47038 0.0
H496 H 0.6128 0.21431 0.46114 0.0
H497 H 0.57444 0.2183 0.41803 0.0
H498 H 0.58972 0.31693 0.40548 0.0
H499 H 0.57768 0.28142 0.41583 0.0
H500 H 0.61338 0.27636 0.46217 0.0
C501 C 0.59691 0.20141 0.45832 0.0
C502 C 0.5828 0.23084 0.42781 0.0
C503 C 0.59124 0.1811 0.46341 0.0
C504 C 0.60021 0.31441 0.41377 0.0
C505 C 0.59337 0.29403 0.41959 0.0
C506 C 0.60505 0.26388 0.45234 0.0
C507 C 0.58224 0.20502 0.4497 0.0
C508 C 0.58815 0.22669 0.44478 0.0
C509 C 0.60667 0.28999 0.43003 0.0
C510 C 0.59992 0.26812 0.43528 0.0
H511 H 0.54025 0.1546 0.44846 0.0
H512 H 0.55019 0.19016 0.4395 0.0
H513 H 0.60333 0.24063 0.4703 0.0
H514 H 0.64923 0.34001 0.43291 0.0
H515 H 0.63749 0.30441 0.44282 0.0
C516 C 0.41318 0.56625 0.63188 0.0
C517 C 0.41265 0.54887 0.62373 0.0
C518 C 0.40177 0.57458 0.62461 0.0
C519 C 0.35494 0.55984 0.59736 0.0
H520 H 0.37795 0.62003 0.59687 0.0
C521 C 0.30812 0.5974 0.57123 0.0
C522 C 0.31048 0.61463 0.58116 0.0
C523 C 0.32064 0.5889 0.57513 0.0
C524 C 0.37122 0.60316 0.59707 0.0
H525 H 0.40015 0.5271 0.60113 0.0
H526 H 0.37993 0.54158 0.58854 0.0
H527 H 0.40057 0.60667 0.60519 0.0
H528 H 0.32725 0.63597 0.60336 0.0
H529 H 0.3487 0.62096 0.61036 0.0
H530 H 0.32545 0.55634 0.58959 0.0
C531 C 0.38914 0.5486 0.60066 0.0
C532 C 0.38421 0.59553 0.60178 0.0
C533 C 0.40071 0.54032 0.60788 0.0
C534 C 0.32513 0.62278 0.59538 0.0
C535 C 0.33757 0.61428 0.5993 0.0
C536 C 0.3419 0.56749 0.59269 0.0
C537 C 0.3894 0.5657 0.60907 0.0
C538 C 0.37614 0.57378 0.60228 0.0
C539 C 0.33574 0.59748 0.58904 0.0
C540 C 0.3498 0.58924 0.59281 0.0
H541 H 0.42177 0.57298 0.64432 0.0
H542 H 0.40202 0.58753 0.63158 0.0
H543 H 0.34821 0.54298 0.5978 0.0
H544 H 0.29701 0.59083 0.56014 0.0
H545 H 0.3189 0.57602 0.56692 0.0
C546 C 0.8621 0.40617 0.78102 0.0
C547 C 0.86537 0.42353 0.79133 0.0
C548 C 0.84184 0.39123 0.77484 0.0
C549 C 0.78566 0.36987 0.78492 0.0
H550 H 0.77606 0.35049 0.73528 0.0
C551 C 0.70217 0.32373 0.75412 0.0
C552 C 0.69759 0.30759 0.74172 0.0
C553 C 0.72277 0.33685 0.76048 0.0
C554 C 0.77849 0.35547 0.74926 0.0
H555 H 0.84998 0.43869 0.8034 0.0
H556 H 0.81476 0.41277 0.79254 0.0
H557 H 0.812 0.37526 0.74563 0.0
H558 H 0.71087 0.29223 0.72649 0.0
H559 H 0.74675 0.31487 0.73785 0.0
H560 H 0.75227 0.3501 0.78865 0.0
C561 C 0.82781 0.41067 0.78925 0.0
C562 C 0.79908 0.3697 0.75516 0.0
C563 C 0.84802 0.42566 0.79528 0.0
C564 C 0.71394 0.30462 0.73599 0.0
C565 C 0.73454 0.31768 0.74241 0.0
C566 C 0.76512 0.35556 0.77907 0.0
C567 C 0.82446 0.39324 0.77906 0.0
C568 C 0.80283 0.37725 0.77299 0.0
C569 C 0.73923 0.33404 0.75466 0.0
C570 C 0.76124 0.34839 0.76111 0.0
H571 H 0.8752 0.40417 0.77774 0.0
H572 H 0.8397 0.3779 0.76707 0.0
H573 H 0.78813 0.37514 0.79883 0.0
H574 H 0.68991 0.32645 0.75873 0.0
H575 H 0.72586 0.34949 0.76968 0.0
C576 C 0.43685 0.83963 0.9739 0.0
C577 C 0.45424 0.85748 0.96613 0.0
C578 C 0.43154 0.81943 0.96862 0.0
C579 C 0.43813 0.79018 0.93161 0.0
H580 H 0.41993 0.74645 0.9676 0.0
C581 C 0.42145 0.70773 0.91332 0.0
C582 C 0.40291 0.69056 0.92045 0.0
C583 C 0.42888 0.72809 0.91965 0.0
C584 C 0.42482 0.75845 0.95738 0.0
H585 H 0.47966 0.86807 0.94668 0.0
H586 H 0.47052 0.83269 0.9376 0.0
H587 H 0.43081 0.78217 0.97694 0.0
H588 H 0.37795 0.68115 0.94017 0.0
H589 H 0.39086 0.71683 0.9512 0.0
H590 H 0.43199 0.76645 0.91203 0.0
C591 C 0.46088 0.83438 0.94766 0.0
C592 C 0.43105 0.77891 0.96272 0.0
C593 C 0.46622 0.85464 0.95296 0.0
C594 C 0.3923 0.69409 0.93444 0.0
C595 C 0.39974 0.71451 0.94079 0.0
C596 C 0.43192 0.76973 0.92627 0.0
C597 C 0.44349 0.81655 0.95548 0.0
C598 C 0.43764 0.79499 0.94988 0.0
C599 C 0.41794 0.73177 0.93326 0.0
C600 C 0.4251 0.75361 0.93909 0.0
H601 H 0.42749 0.84123 0.9843 0.0
H602 H 0.4179 0.80606 0.97475 0.0
H603 H 0.44281 0.80211 0.92135 0.0
H604 H 0.43007 0.7055 0.9026 0.0
H605 H 0.44315 0.741 0.9138 0.0
C606 C 0.61044 0.45022 0.10203 0.0
C607 C 0.6149 0.46383 0.1168 0.0
C608 C 0.62533 0.44538 0.09605 0.0
C609 C 0.68166 0.46104 0.09879 0.0
H610 H 0.65884 0.4013 0.09206 0.0
C611 C 0.73091 0.42521 0.07359 0.0
C612 C 0.72691 0.40669 0.08216 0.0
C613 C 0.71852 0.4339 0.07749 0.0
C614 C 0.66548 0.41803 0.09397 0.0
H615 H 0.63893 0.48375 0.13635 0.0
H616 H 0.66493 0.47544 0.1258 0.0
H617 H 0.63501 0.41385 0.09832 0.0
H618 H 0.70735 0.38326 0.10208 0.0
H619 H 0.68589 0.39844 0.10891 0.0
H620 H 0.71224 0.46506 0.09473 0.0
C621 C 0.64996 0.4686 0.11878 0.0
C622 C 0.65179 0.42526 0.09732 0.0
C623 C 0.63504 0.4734 0.1248 0.0
C624 C 0.71078 0.39748 0.09516 0.0
C625 C 0.69838 0.40609 0.09899 0.0
C626 C 0.69539 0.4538 0.0953 0.0
C627 C 0.64504 0.4541 0.10466 0.0
C628 C 0.65971 0.44682 0.09991 0.0
C629 C 0.70183 0.42415 0.08996 0.0
C630 C 0.68744 0.43217 0.09308 0.0
H631 H 0.59522 0.44288 0.09535 0.0
H632 H 0.62122 0.43445 0.08491 0.0
H633 H 0.68821 0.47776 0.10063 0.0
H634 H 0.74322 0.43267 0.0635 0.0
H635 H 0.72151 0.4478 0.07027 0.0
C636 C 0.40394 0.86314 0.5134 0.0
C637 C 0.41632 0.86676 0.4979 0.0
C638 C 0.39315 0.84324 0.52137 0.0
C639 C 0.39091 0.79244 0.52325 0.0
H640 H 0.33207 0.7697 0.53572 0.0
C641 C 0.33351 0.7041 0.53709 0.0
C642 C 0.319 0.69875 0.55126 0.0
C643 C 0.34596 0.72499 0.53146 0.0
C644 C 0.34855 0.7759 0.53254 0.0
H645 H 0.42707 0.85222 0.47866 0.0
H646 H 0.40847 0.81773 0.49262 0.0
H647 H 0.35338 0.80582 0.52511 0.0
H648 H 0.30613 0.71104 0.57067 0.0
H649 H 0.32796 0.74746 0.56098 0.0
H650 H 0.38604 0.76246 0.53055 0.0
C651 C 0.40733 0.83032 0.49879 0.0
C652 C 0.36077 0.79661 0.52649 0.0
C653 C 0.41804 0.85015 0.4908 0.0
C654 C 0.31711 0.71466 0.55965 0.0
C655 C 0.32956 0.73553 0.55404 0.0
C656 C 0.37869 0.77173 0.52934 0.0
C657 C 0.39455 0.82656 0.51402 0.0
C658 C 0.38203 0.80505 0.52162 0.0
C659 C 0.34415 0.74095 0.5399 0.0
C660 C 0.35732 0.76316 0.53391 0.0
H661 H 0.4025 0.87566 0.51933 0.0
H662 H 0.38363 0.84088 0.53325 0.0
H663 H 0.40732 0.79859 0.51983 0.0
H664 H 0.33528 0.69216 0.53035 0.0
H665 H 0.35683 0.7286 0.52035 0.0
C666 C 0.57088 0.40189 0.6552 0.0
C667 C 0.56421 0.41142 0.66774 0.0
C668 C 0.5745 0.3861 0.66055 0.0
C669 C 0.58446 0.36359 0.70122 0.0
H670 H 0.57536 0.31977 0.66731 0.0
C671 C 0.59805 0.29593 0.71922 0.0
C672 C 0.61262 0.29491 0.70775 0.0
C673 C 0.58942 0.30808 0.71455 0.0
C674 C 0.57791 0.3319 0.6769 0.0
H675 H 0.55577 0.41179 0.69565 0.0
H676 H 0.56134 0.38359 0.70498 0.0
H677 H 0.56484 0.34472 0.6592 0.0
H678 H 0.62884 0.30494 0.68207 0.0
H679 H 0.61322 0.32564 0.67366 0.0
H680 H 0.59722 0.35036 0.71899 0.0
C681 C 0.56433 0.38865 0.69107 0.0
C682 C 0.57206 0.34632 0.67225 0.0
C683 C 0.56103 0.40473 0.68575 0.0
C684 C 0.61766 0.30547 0.69117 0.0
C685 C 0.60869 0.31725 0.68633 0.0
C686 C 0.58996 0.34892 0.70599 0.0
C687 C 0.57123 0.37919 0.67854 0.0
C688 C 0.57567 0.36267 0.68418 0.0
C689 C 0.59484 0.31901 0.69815 0.0
C690 C 0.5871 0.3332 0.69374 0.0
H691 H 0.57381 0.40702 0.64129 0.0
H692 H 0.58033 0.37968 0.65058 0.0
H693 H 0.5878 0.37607 0.71069 0.0
H694 H 0.59397 0.28804 0.73213 0.0
H695 H 0.5787 0.30914 0.72384 0.0
C696 C 0.17144 0.56851 0.85084 0.0
C697 C 0.15893 0.55033 0.8404 0.0
C698 C 0.19013 0.57221 0.85879 0.0
C699 C 0.23029 0.55709 0.85371 0.0
H700 H 0.25383 0.59262 0.89607 0.0
C701 C 0.31305 0.58591 0.88748 0.0
C702 C 0.32616 0.60782 0.88553 0.0
C703 C 0.29144 0.57582 0.88344 0.0
C704 C 0.2473 0.58251 0.88434 0.0
H705 H 0.15582 0.52118 0.83101 0.0
H706 H 0.18784 0.52711 0.84564 0.0
H707 H 0.21716 0.57938 0.88765 0.0
H708 H 0.32701 0.63636 0.878 0.0
H709 H 0.28922 0.61877 0.87149 0.0
H710 H 0.26066 0.56027 0.85067 0.0
C711 C 0.18356 0.53889 0.84719 0.0
C712 C 0.22639 0.57507 0.87937 0.0
C713 C 0.16498 0.53533 0.839 0.0
C714 C 0.31733 0.61944 0.87951 0.0
C715 C 0.29573 0.60944 0.8759 0.0
C716 C 0.25109 0.56421 0.85891 0.0
C717 C 0.19669 0.55765 0.8568 0.0
C718 C 0.21779 0.56283 0.86365 0.0
C719 C 0.28265 0.5876 0.87786 0.0
C720 C 0.25988 0.57743 0.87396 0.0
H721 H 0.16708 0.58022 0.85255 0.0
H722 H 0.19982 0.58695 0.86587 0.0
H723 H 0.22442 0.54796 0.8414 0.0
H724 H 0.31948 0.5766 0.8921 0.0
H725 H 0.28154 0.55892 0.88498 0.0
C726 C 0.60003 0.16267 0.01727 0.0
C727 C 0.60439 0.15408 0.00216 0.0
C728 C 0.61524 0.18251 0.02389 0.0
C729 C 0.65393 0.22129 0.03978 0.0
H730 H 0.68235 0.26499 0.00384 0.0
C731 C 0.7189 0.30629 0.05835 0.0
C732 C 0.71744 0.32245 0.05015 0.0
C733 C 0.70618 0.28548 0.05251 0.0
C734 C 0.67449 0.25297 0.01403 0.0
H735 H 0.62832 0.15925 0.98248 0.0
H736 H 0.65496 0.1938 0.99418 0.0
H737 H 0.65836 0.22866 0.99426 0.0
H738 H 0.70177 0.32958 0.02924 0.0
H739 H 0.6795 0.29316 0.01901 0.0
H740 H 0.66972 0.24569 0.05955 0.0
C741 C 0.63971 0.18526 0.0008 0.0
C742 C 0.66095 0.23213 0.00855 0.0
C743 C 0.62455 0.16537 0.99424 0.0
C744 C 0.70324 0.31745 0.0358 0.0
C745 C 0.69058 0.29662 0.02989 0.0
C746 C 0.66757 0.24211 0.04526 0.0
C747 C 0.63508 0.1942 0.01547 0.0
C748 C 0.65039 0.21609 0.02137 0.0
C749 C 0.6918 0.2804 0.03828 0.0
C750 C 0.67787 0.2582 0.03244 0.0
H751 H 0.58468 0.15425 0.02373 0.0
H752 H 0.61115 0.18902 0.03516 0.0
H753 H 0.64611 0.20925 0.04996 0.0
H754 H 0.72974 0.30967 0.06941 0.0
H755 H 0.70766 0.27336 0.05908 0.0
C756 C 0.47438 0.61563 0.17797 0.0
C757 C 0.45894 0.59828 0.168 0.0
C758 C 0.47136 0.63216 0.18257 0.0
C759 C 0.44344 0.65785 0.16748 0.0
H760 H 0.44683 0.67643 0.21696 0.0
C761 C 0.40303 0.70175 0.19063 0.0
C762 C 0.41202 0.71681 0.2045 0.0
C763 C 0.41207 0.6901 0.18554 0.0
C764 C 0.44625 0.67178 0.20301 0.0
H765 H 0.42843 0.58474 0.15488 0.0
H766 H 0.42327 0.61356 0.16279 0.0
H767 H 0.45658 0.65052 0.20963 0.0
H768 H 0.43801 0.73203 0.22349 0.0
H769 H 0.45411 0.71189 0.21433 0.0
H770 H 0.43309 0.67891 0.16072 0.0
C771 C 0.43762 0.61435 0.16712 0.0
C772 C 0.45176 0.65688 0.19886 0.0
C773 C 0.44047 0.59776 0.16277 0.0
C774 C 0.43069 0.72049 0.21277 0.0
C775 C 0.43983 0.70885 0.20762 0.0
C776 C 0.43817 0.67287 0.17157 0.0
C777 C 0.45306 0.63177 0.17695 0.0
C778 C 0.44984 0.64938 0.18113 0.0
C779 C 0.43044 0.69329 0.1941 0.0
C780 C 0.4389 0.67958 0.18946 0.0
H781 H 0.48876 0.6164 0.18216 0.0
H782 H 0.48349 0.64544 0.19017 0.0
H783 H 0.44218 0.65258 0.15364 0.0
H784 H 0.3886 0.69846 0.18402 0.0
H785 H 0.40416 0.67804 0.17531 0.0
C786 C 0.84396 0.43997 0.33505 0.0
C787 C 0.86154 0.46031 0.33769 0.0
C788 C 0.82396 0.43483 0.34102 0.0
C789 C 0.79276 0.45872 0.35408 0.0
H790 H 0.75387 0.40254 0.37193 0.0
C791 C 0.70935 0.43041 0.38456 0.0
C792 C 0.69304 0.41054 0.37859 0.0
C793 C 0.73034 0.43796 0.37955 0.0
C794 C 0.76453 0.41825 0.36687 0.0
H795 H 0.87205 0.49114 0.34897 0.0
H796 H 0.83708 0.48205 0.35978 0.0
H797 H 0.78998 0.41277 0.36449 0.0
H798 H 0.68584 0.38344 0.36208 0.0
H799 H 0.72236 0.39657 0.35347 0.0
H800 H 0.76711 0.46413 0.35678 0.0
C801 C 0.8387 0.47017 0.35276 0.0
C802 C 0.78522 0.42412 0.36256 0.0
C803 C 0.85874 0.47537 0.34665 0.0
C804 C 0.69802 0.39877 0.36697 0.0
C805 C 0.71895 0.40621 0.36212 0.0
C806 C 0.77205 0.45289 0.35859 0.0
C807 C 0.82104 0.44986 0.34992 0.0
C808 C 0.79951 0.4443 0.3558 0.0
C809 C 0.73536 0.42567 0.36866 0.0
C810 C 0.75765 0.43247 0.36472 0.0
H811 H 0.84552 0.42815 0.32786 0.0
H812 H 0.81069 0.41917 0.33822 0.0
H813 H 0.80326 0.47432 0.34875 0.0
H814 H 0.70599 0.43983 0.39353 0.0
H815 H 0.74272 0.45302 0.38478 0.0
C816 C 0.12445 0.58874 0.42071 0.0
C817 C 0.12479 0.57669 0.40623 0.0
C818 C 0.13723 0.59271 0.43578 0.0
C819 C 0.18655 0.5957 0.44933 0.0
H820 H 0.16933 0.60323 0.49681 0.0
C821 C 0.23996 0.62141 0.51371 0.0
C822 C 0.24062 0.6381 0.52334 0.0
C823 C 0.22558 0.61153 0.49953 0.0
C824 C 0.17434 0.60117 0.48361 0.0
H825 H 0.13825 0.55863 0.39654 0.0
H826 H 0.16023 0.5651 0.42315 0.0
H827 H 0.14348 0.58869 0.47246 0.0
H828 H 0.22688 0.65765 0.52531 0.0
H829 H 0.20186 0.64033 0.50082 0.0
H830 H 0.21751 0.60832 0.46067 0.0
C831 C 0.15032 0.57181 0.42268 0.0
C832 C 0.15957 0.59291 0.46965 0.0
C833 C 0.13753 0.56788 0.40753 0.0
C834 C 0.22686 0.64488 0.51825 0.0
C835 C 0.21238 0.63485 0.50429 0.0
C836 C 0.2013 0.60378 0.4634 0.0
C837 C 0.15062 0.5846 0.43684 0.0
C838 C 0.16561 0.59062 0.4522 0.0
C839 C 0.21142 0.61794 0.49493 0.0
C840 C 0.19544 0.60712 0.48053 0.0
H841 H 0.11461 0.59553 0.42024 0.0
H842 H 0.13718 0.60283 0.4463 0.0
H843 H 0.19183 0.59435 0.43604 0.0
H844 H 0.25036 0.61583 0.51726 0.0
H845 H 0.22516 0.59854 0.49247 0.0
C846 C 0.56876 0.1092 0.57995 0.0
C847 C 0.55491 0.10951 0.56724 0.0
C848 C 0.57253 0.11986 0.59637 0.0
C849 C 0.57224 0.16511 0.61573 0.0
H850 H 0.58564 0.1468 0.65984 0.0
C851 C 0.60538 0.21853 0.67913 0.0
C852 C 0.62346 0.21969 0.68644 0.0
C853 C 0.59309 0.20315 0.66623 0.0
C854 C 0.58191 0.1521 0.64762 0.0
H855 H 0.53345 0.12051 0.56215 0.0
H856 H 0.53971 0.13873 0.59097 0.0
H857 H 0.57032 0.12241 0.63445 0.0
H858 H 0.64247 0.20525 0.68617 0.0
H859 H 0.62118 0.17868 0.66378 0.0
H860 H 0.58437 0.19497 0.62876 0.0
C861 C 0.54788 0.13049 0.58813 0.0
C862 C 0.57317 0.13816 0.63308 0.0
C863 C 0.54411 0.11983 0.57169 0.0
C864 C 0.62873 0.20493 0.6808 0.0
C865 C 0.61639 0.18952 0.66808 0.0
C866 C 0.58092 0.17903 0.6303 0.0
C867 C 0.56253 0.13106 0.60046 0.0
C868 C 0.5688 0.14469 0.61678 0.0
C869 C 0.59851 0.18851 0.66057 0.0
C870 C 0.58641 0.17286 0.6462 0.0
H871 H 0.57713 0.10117 0.57701 0.0
H872 H 0.58405 0.12011 0.60548 0.0
H873 H 0.56929 0.17075 0.60332 0.0
H874 H 0.60085 0.22963 0.6832 0.0
H875 H 0.57934 0.20269 0.6607 0.0
C876 C 0.45029 0.56463 0.73806 0.0
C877 C 0.43931 0.54262 0.73603 0.0
C878 C 0.44698 0.57381 0.75318 0.0
C879 C 0.40756 0.56414 0.78762 0.0
H880 H 0.45481 0.61095 0.81237 0.0
C881 C 0.39754 0.60259 0.8522 0.0
C882 C 0.41099 0.62449 0.85407 0.0
C883 C 0.40041 0.59185 0.838 0.0
C884 C 0.4414 0.59808 0.80548 0.0
H885 H 0.41669 0.51303 0.74871 0.0
H886 H 0.41065 0.52916 0.77497 0.0
H887 H 0.46144 0.59358 0.78758 0.0
H888 H 0.43728 0.65241 0.84197 0.0
H889 H 0.44185 0.63385 0.81707 0.0
H890 H 0.38748 0.56891 0.80524 0.0
C891 C 0.42171 0.53923 0.76472 0.0
C892 C 0.44524 0.58808 0.79132 0.0
C893 C 0.42516 0.53003 0.74967 0.0
C894 C 0.42682 0.63549 0.84109 0.0
C895 C 0.42955 0.62481 0.82686 0.0
C896 C 0.4037 0.57426 0.80171 0.0
C897 C 0.43249 0.56122 0.76656 0.0
C898 C 0.42837 0.57111 0.78216 0.0
C899 C 0.41667 0.60282 0.82531 0.0
C900 C 0.42059 0.5915 0.8107 0.0
H901 H 0.46098 0.57485 0.72769 0.0
H902 H 0.45532 0.59081 0.75413 0.0
H903 H 0.39424 0.55122 0.78066 0.0
H904 H 0.38523 0.59365 0.86201 0.0
H905 H 0.39028 0.57489 0.83729 0.0
C906 C 0.89274 0.43326 0.90293 0.0
C907 C 0.90254 0.45487 0.89917 0.0
C908 C 0.88023 0.42476 0.91831 0.0
C909 C 0.84768 0.43376 0.94984 0.0
H910 H 0.85174 0.39366 0.97998 0.0
C911 C 0.80099 0.40278 0.0165 0.0
C912 C 0.79343 0.38175 0.02118 0.0
C913 C 0.81424 0.41183 0.00158 0.0
C914 C 0.85016 0.40459 0.97156 0.0
H915 H 0.90745 0.48457 0.90911 0.0
H916 H 0.88527 0.46959 0.93579 0.0
H917 H 0.8756 0.40938 0.95441 0.0
H918 H 0.79325 0.35352 0.01341 0.0
H919 H 0.81582 0.36909 0.98716 0.0
H920 H 0.82199 0.42871 0.9667 0.0
C921 C 0.88718 0.45926 0.92669 0.0
C922 C 0.86392 0.41367 0.95697 0.0
C923 C 0.89985 0.46782 0.91139 0.0
C924 C 0.79896 0.36983 0.0103 0.0
C925 C 0.81204 0.37881 0.9953 0.0
C926 C 0.83378 0.42455 0.96434 0.0
C927 C 0.87708 0.43762 0.93021 0.0
C928 C 0.86282 0.42834 0.94596 0.0
C929 C 0.8201 0.40001 0.99089 0.0
C930 C 0.83483 0.40982 0.97539 0.0
H931 H 0.89412 0.42273 0.89368 0.0
H932 H 0.87246 0.40798 0.92058 0.0
H933 H 0.84627 0.44481 0.94142 0.0
H934 H 0.79714 0.41246 0.02463 0.0
H935 H 0.82032 0.42826 -0.00127 0.0
C936 C 0.46555 0.91218 0.08701 0.0
C937 C 0.47646 0.90991 0.0725 0.0
C938 C 0.4617 0.9005 0.10274 0.0
C939 C 0.45573 0.85049 0.11716 0.0
H940 H 0.44804 0.86866 0.16413 0.0
C941 C 0.42114 0.79405 0.17806 0.0
C942 C 0.40402 0.79407 0.18629 0.0
C943 C 0.43413 0.80984 0.16582 0.0
C944 C 0.45022 0.86341 0.1511 0.0
H945 H 0.49301 0.89446 0.06368 0.0
H946 H 0.48703 0.87478 0.09135 0.0
H947 H 0.46459 0.89431 0.13993 0.0
H948 H 0.38759 0.81107 0.18856 0.0
H949 H 0.41025 0.8385 0.16736 0.0
H950 H 0.441 0.81953 0.1283 0.0
C951 C 0.48096 0.88518 0.09038 0.0
C952 C 0.45962 0.87807 0.13722 0.0
C953 C 0.48465 0.89673 0.07459 0.0
C954 C 0.40053 0.81047 0.18237 0.0
C955 C 0.41364 0.82633 0.17036 0.0
C956 C 0.44652 0.83589 0.13109 0.0
C957 C 0.46884 0.8864 0.10442 0.0
C958 C 0.46192 0.87167 0.11992 0.0
C959 C 0.43045 0.82609 0.16184 0.0
C960 C 0.44311 0.8421 0.14803 0.0
H961 H 0.45934 0.92247 0.08599 0.0
H962 H 0.45219 0.90178 0.11319 0.0
H963 H 0.45695 0.84489 0.10398 0.0
H964 H 0.42426 0.78165 0.18081 0.0
H965 H 0.44702 0.80932 0.15944 0.0
C966 C 0.56853 0.43534 0.23117 0.0
C967 C 0.57013 0.45482 0.22877 0.0
C968 C 0.57352 0.43019 0.24768 0.0
C969 C 0.60233 0.4522 0.29029 0.0
H970 H 0.56455 0.3952 0.30695 0.0
C971 C 0.62213 0.41362 0.34886 0.0
C972 C 0.60527 0.39926 0.35982 0.0
C973 C 0.61837 0.42266 0.33393 0.0
C974 C 0.57515 0.41126 0.30266 0.0
H975 H 0.57869 0.48439 0.24175 0.0
H976 H 0.58739 0.47529 0.27082 0.0
H977 H 0.55686 0.40662 0.279 0.0
H978 H 0.57152 0.38431 0.36447 0.0
H979 H 0.5651 0.40034 0.33883 0.0
H980 H 0.62051 0.45679 0.3142 0.0
C981 C 0.58236 0.46409 0.2598 0.0
C982 C 0.57088 0.41772 0.28648 0.0
C983 C 0.57735 0.46927 0.24319 0.0
C984 C 0.58481 0.39499 0.3561 0.0
C985 C 0.58111 0.40414 0.34135 0.0
C986 C 0.60663 0.4457 0.30657 0.0
C987 C 0.58024 0.44437 0.26226 0.0
C988 C 0.58451 0.43816 0.27999 0.0
C989 C 0.59772 0.41762 0.32979 0.0
C990 C 0.59311 0.42511 0.31288 0.0
H991 H 0.56357 0.42408 0.2202 0.0
H992 H 0.5722 0.41507 0.249 0.0
H993 H 0.61318 0.46802 0.28558 0.0
H994 H 0.63808 0.41726 0.35139 0.0
H995 H 0.6315 0.43291 0.32523 0.0
C996 C 0.45352 0.89647 0.37469 0.0
C997 C 0.43785 0.8937 0.38708 0.0
C998 C 0.4488 0.88174 0.36089 0.0
C999 C 0.40821 0.82677 0.34734 0.0
H1000 H 0.43137 0.84562 0.29948 0.0
C1001 C 0.37072 0.77914 0.28229 0.0
C1002 C 0.3842 0.77783 0.26971 0.0
C1003 C 0.37901 0.79193 0.29756 0.0
C1004 C 0.42502 0.84013 0.31285 0.0
H1005 H 0.405 0.87287 0.39474 0.0
H1006 H 0.39659 0.84811 0.37033 0.0
H1007 H 0.44267 0.87113 0.32412 0.0
H1008 H 0.4169 0.78859 0.2634 0.0
H1009 H 0.43141 0.8114 0.29 0.0
H1010 H 0.38978 0.79593 0.33575 0.0
C1011 C 0.41266 0.86134 0.37142 0.0
C1012 C 0.43152 0.85471 0.32699 0.0
C1013 C 0.41741 0.87587 0.38527 0.0
C1014 C 0.40612 0.78921 0.27292 0.0
C1015 C 0.41443 0.80234 0.28804 0.0
C1016 C 0.4015 0.81229 0.33316 0.0
C1017 C 0.42829 0.86396 0.35911 0.0
C1018 C 0.4229 0.84828 0.34437 0.0
C1019 C 0.40095 0.80395 0.30039 0.0
C1020 C 0.40961 0.81888 0.31574 0.0
H1021 H 0.4694 0.91006 0.37558 0.0
H1022 H 0.4613 0.88421 0.35174 0.0
H1023 H 0.40164 0.82111 0.36062 0.0
H1024 H 0.35377 0.77051 0.2802 0.0
H1025 H 0.36829 0.79301 0.30684 0.0
C1026 C 0.56753 0.45168 0.5615 0.0
C1027 C 0.58249 0.47159 0.56848 0.0
C1028 C 0.57218 0.44362 0.5464 0.0
C1029 C 0.60687 0.45712 0.50693 0.0
H1030 H 0.59077 0.39862 0.51027 0.0
C1031 C 0.62568 0.41433 0.45091 0.0
C1032 C 0.60896 0.39402 0.44634 0.0
C1033 C 0.62425 0.42479 0.46609 0.0
C1034 C 0.59524 0.41492 0.50906 0.0
H1035 H 0.61385 0.49897 0.5646 0.0
H1036 H 0.62205 0.48471 0.53808 0.0
H1037 H 0.58468 0.41548 0.53578 0.0
H1038 H 0.57769 0.36876 0.45432 0.0
H1039 H 0.5752 0.38697 0.48054 0.0
H1040 H 0.61715 0.45637 0.48003 0.0
C1041 C 0.60669 0.47544 0.54438 0.0
C1042 C 0.59174 0.42458 0.52367 0.0
C1043 C 0.60204 0.48353 0.55961 0.0
C1044 C 0.59091 0.38435 0.45741 0.0
C1045 C 0.58952 0.39476 0.47254 0.0
C1046 C 0.61034 0.4474 0.49223 0.0
C1047 C 0.59194 0.4552 0.53788 0.0
C1048 C 0.59714 0.44565 0.52267 0.0
C1049 C 0.60612 0.4151 0.47705 0.0
C1050 C 0.6042 0.42608 0.49305 0.0
H1051 H 0.55245 0.44189 0.56812 0.0
H1052 H 0.56036 0.42811 0.54153 0.0
H1053 H 0.61113 0.47336 0.50577 0.0
H1054 H 0.63982 0.42226 0.4427 0.0
H1055 H 0.63738 0.44039 0.46931 0.0
C1056 C 0.13724 0.54071 0.72151 0.0
C1057 C 0.11989 0.54341 0.72342 0.0
C1058 C 0.14912 0.54666 0.70559 0.0
C1059 C 0.16428 0.58577 0.67064 0.0
H1060 H 0.18806 0.55691 0.64567 0.0
C1061 C 0.2144 0.62196 0.60775 0.0
C1062 C 0.23269 0.62098 0.6056 0.0
C1063 C 0.19938 0.6098 0.62073 0.0
C1064 C 0.18171 0.56525 0.65262 0.0
H1065 H 0.10028 0.55264 0.70954 0.0
H1066 H 0.12112 0.56319 0.68187 0.0
H1067 H 0.16334 0.53953 0.67071 0.0
H1068 H 0.24927 0.60592 0.61487 0.0
H1069 H 0.22327 0.58513 0.63823 0.0
H1070 H 0.183 0.61173 0.65333 0.0
C1071 C 0.12572 0.55679 0.69279 0.0
C1072 C 0.16749 0.55525 0.66688 0.0
C1073 C 0.11381 0.55078 0.70863 0.0
C1074 C 0.23532 0.607 0.6163 0.0
C1075 C 0.22037 0.59504 0.6296 0.0
C1076 C 0.17858 0.5958 0.65662 0.0
C1077 C 0.14391 0.55548 0.69134 0.0
C1078 C 0.15853 0.5654 0.67591 0.0
C1079 C 0.20242 0.59665 0.6322 0.0
C1080 C 0.18737 0.58565 0.64729 0.0
H1081 H 0.14244 0.53523 0.73269 0.0
H1082 H 0.16311 0.54556 0.70487 0.0
H1083 H 0.15807 0.59421 0.67765 0.0
H1084 H 0.21171 0.63224 0.59942 0.0
H1085 H 0.18545 0.61096 0.62189 0.0
C1086 C 0.56321 0.14057 0.89047 0.0
C1087 C 0.56279 0.12154 0.89135 0.0
C1088 C 0.57154 0.15349 0.87538 0.0
C1089 C 0.60681 0.16351 0.83616 0.0
H1090 H 0.58488 0.19818 0.82083 0.0
C1091 C 0.65048 0.22845 0.78312 0.0
C1092 C 0.63824 0.23177 0.77072 0.0
C1093 C 0.641 0.21533 0.79797 0.0
C1094 C 0.59109 0.18846 0.82475 0.0
H1095 H 0.57007 0.10069 0.877 0.0
H1096 H 0.58388 0.12282 0.85025 0.0
H1097 H 0.56765 0.17339 0.84526 0.0
H1098 H 0.60644 0.22399 0.76419 0.0
H1099 H 0.58981 0.20058 0.78964 0.0
H1100 H 0.62964 0.17785 0.81511 0.0
C1101 C 0.57839 0.12815 0.86143 0.0
C1102 C 0.58137 0.17441 0.83899 0.0
C1103 C 0.57034 0.11537 0.87666 0.0
C1104 C 0.61635 0.22192 0.77361 0.0
C1105 C 0.60682 0.20853 0.78828 0.0
C1106 C 0.61635 0.17733 0.82175 0.0
C1107 C 0.5794 0.14755 0.86069 0.0
C1108 C 0.58918 0.16185 0.84499 0.0
C1109 C 0.61899 0.20493 0.8006 0.0
C1110 C 0.60872 0.19011 0.81592 0.0
H1111 H 0.55782 0.14586 0.90175 0.0
H1112 H 0.5724 0.16846 0.87552 0.0
H1113 H 0.61352 0.15437 0.84052 0.0
H1114 H 0.66742 0.23597 0.78134 0.0
H1115 H 0.65098 0.21337 0.80737 0.0
C1116 C 0.46736 0.57891 0.05759 0.0
C1117 C 0.45372 0.55781 0.06262 0.0
C1118 C 0.46378 0.58669 0.04179 0.0
C1119 C 0.4213 0.57782 0.01118 0.0
H1120 H 0.46716 0.61503 0.9793 0.0
C1121 C 0.4068 0.60972 0.94545 0.0
C1122 C 0.4216 0.63072 0.94092 0.0
C1123 C 0.41074 0.59996 0.95964 0.0
C1124 C 0.45421 0.60486 0.98817 0.0
H1125 H 0.42601 0.52817 0.05455 0.0
H1126 H 0.41958 0.54193 0.0271 0.0
H1127 H 0.47426 0.59937 0.00502 0.0
H1128 H 0.45205 0.65802 0.94799 0.0
H1129 H 0.45866 0.64119 0.97297 0.0
H1130 H 0.40131 0.58366 0.99467 0.0
C1131 C 0.43295 0.55244 0.03551 0.0
C1132 C 0.45828 0.59583 0.00286 0.0
C1133 C 0.43663 0.54459 0.05125 0.0
C1134 C 0.44036 0.64178 0.95102 0.0
C1135 C 0.44422 0.63207 0.96528 0.0
C1136 C 0.41724 0.58697 0.99657 0.0
C1137 C 0.44639 0.57362 0.03071 0.0
C1138 C 0.44189 0.58233 0.01458 0.0
C1139 C 0.42951 0.61101 0.96974 0.0
C1140 C 0.43368 0.60073 0.98495 0.0
H1141 H 0.48044 0.58965 0.06615 0.0
H1142 H 0.47424 0.60316 0.03855 0.0
H1143 H 0.4084 0.56769 0.02013 0.0
H1144 H 0.39225 0.60067 0.93789 0.0
H1145 H 0.39919 0.58365 0.96253 0.0
C1146 C 0.89925 0.47835 0.22273 0.0
C1147 C 0.90994 0.46804 0.22746 0.0
C1148 C 0.88862 0.47405 0.20626 0.0
C1149 C 0.88265 0.44895 0.16145 0.0
H1150 H 0.82508 0.43686 0.16434 0.0
C1151 C 0.81803 0.39339 0.11222 0.0
C1152 C 0.80312 0.39824 0.10613 0.0
C1153 C 0.83286 0.40577 0.12531 0.0
C1154 C 0.84125 0.44056 0.1632 0.0
H1155 H 0.91876 0.44598 0.21822 0.0
H1156 H 0.89993 0.4382 0.18966 0.0
H1157 H 0.84842 0.45195 0.19036 0.0
H1158 H 0.79232 0.42017 0.10894 0.0
H1159 H 0.81829 0.44179 0.1321 0.0
H1160 H 0.87518 0.4368 0.13451 0.0
C1161 C 0.89988 0.44973 0.19859 0.0
C1162 C 0.85464 0.44923 0.1781 0.0
C1163 C 0.91048 0.454 0.21505 0.0
C1164 C 0.80357 0.41598 0.11335 0.0
C1165 C 0.81838 0.42832 0.12663 0.0
C1166 C 0.86925 0.44025 0.14658 0.0
C1167 C 0.88848 0.4594 0.19415 0.0
C1168 C 0.87531 0.45298 0.17756 0.0
C1169 C 0.83316 0.42329 0.13274 0.0
C1170 C 0.84823 0.43542 0.14747 0.0
H1171 H 0.89839 0.48912 0.23205 0.0
H1172 H 0.88017 0.48192 0.20316 0.0
H1173 H 0.89862 0.45206 0.16048 0.0
H1174 H 0.81826 0.37992 0.10693 0.0
H1175 H 0.84381 0.40127 0.12993 0.0
loop_
_geom_bond_atom_site_label_1
_geom_bond_atom_site_label_2
_geom_bond_distance
_geom_bond_site_symmetry_2
_ccdc_geom_bond_type
H0 C27 0.929 . S
N1 C26 1.433 . S
N1 C32 1.435 . S
N1 C38 1.423 . S
H2 C28 0.930 . S
H3 C31 0.931 . S
H4 C30 0.929 . S
H5 C33 0.930 . S
H6 C34 0.932 . S
H7 C37 0.929 . S
H8 C36 0.931 . S
H9 C39 0.929 . S
H10 C43 0.932 . S
H11 C40 0.931 . S
H12 C42 0.929 . S
H13 C45 0.929 . S
H14 C46 0.930 . S
H15 C48 0.929 . S
H16 C49 0.931 . S
H17 C51 0.930 . S
H18 C52 0.932 . S
H19 C54 0.931 . S
H20 C55 0.929 . S
H21 C57 0.929 . S
H22 C58 0.931 1_455 S
H23 C60 0.929 . S
N24 C44 1.433 . S
N24 C50 1.435 . S
N24 C56 1.423 . S
H25 C61 0.932 . S
C26 N1 1.433 . S
C26 C27 1.363 . S
C26 C31 1.370 . S
C27 H0 0.929 . S
C27 C26 1.363 . S
C27 C28 1.385 . S
C28 H2 0.930 . S
C28 C27 1.385 . S
C28 C29 1.357 . S
C29 C28 1.357 . S
C29 C30 1.406 . S
C30 H4 0.929 . S
C30 C29 1.406 . S
C30 C31 1.391 . S
C31 H3 0.931 . S
C31 C26 1.370 . S
C31 C30 1.391 . S
C32 N1 1.435 . S
C32 C33 1.358 . S
C32 C37 1.371 . S
C33 H5 0.930 . S
C33 C32 1.358 . S
C33 C34 1.405 . S
C34 H6 0.932 . S
C34 C33 1.405 . S
C34 C35 1.383 . S
C35 C34 1.383 . S
C35 C36 1.393 . S
C36 H8 0.931 . S
C36 C35 1.393 . S
C36 C37 1.382 . S
C37 H7 0.929 . S
C37 C32 1.371 . S
C37 C36 1.382 . S
C38 N1 1.423 . S
C38 C39 1.362 . S
C38 C43 1.388 . S
C39 H9 0.929 . S
C39 C38 1.362 . S
C39 C40 1.376 . S
C40 H11 0.931 . S
C40 C39 1.376 . S
C40 C41 1.396 . S
C41 C40 1.396 . S
C41 C42 1.348 . S
C41 C59 1.467 1_455 S
C42 H12 0.929 . S
C42 C41 1.348 . S
C42 C43 1.443 . S
C43 H10 0.932 . S
C43 C38 1.388 . S
C43 C42 1.443 . S
C44 N24 1.433 . S
C44 C45 1.363 . S
C44 C49 1.370 . S
C45 H13 0.929 . S
C45 C44 1.363 . S
C45 C46 1.385 . S
C46 H14 0.930 . S
C46 C45 1.385 . S
C46 C47 1.357 . S
C47 C46 1.357 . S
C47 C48 1.406 . S
C48 H15 0.929 . S
C48 C47 1.406 . S
C48 C49 1.391 . S
C49 H16 0.931 . S
C49 C44 1.370 . S
C49 C48 1.391 . S
C50 N24 1.435 . S
C50 C51 1.358 . S
C50 C55 1.371 . S
C51 H17 0.930 . S
C51 C50 1.358 . S
C51 C52 1.405 . S
C52 H18 0.932 . S
C52 C51 1.405 . S
C52 C53 1.383 . S
C53 C52 1.383 . S
C53 C54 1.393 . S
C54 H19 0.931 . S
C54 C53 1.393 . S
C54 C55 1.382 . S
C55 H20 0.929 . S
C55 C50 1.371 . S
C55 C54 1.382 . S
C56 N24 1.423 . S
C56 C57 1.362 . S
C56 C61 1.388 . S
C57 H21 0.929 . S
C57 C56 1.362 . S
C57 C58 1.376 . S
C58 H22 0.931 1_655 S
C58 C57 1.376 . S
C58 C59 1.396 . S
C59 C41 1.467 1_655 S
C59 C58 1.396 . S
C59 C60 1.354 . S
C60 H23 0.929 . S
C60 C59 1.354 . S
C60 C61 1.443 . S
C61 H25 0.932 . S
C61 C56 1.388 . S
C61 C60 1.443 . S
H62 C89 0.929 . S
N63 C88 1.433 . S
N63 C94 1.435 . S
N63 C100 1.423 . S
H64 C90 0.930 . S
H65 C93 0.931 . S
H66 C92 0.929 . S
H67 C95 0.930 . S
H68 C96 0.932 . S
H69 C99 0.929 . S
H70 C98 0.931 . S
H71 C101 0.929 . S
H72 C105 0.932 . S
H73 C102 0.931 . S
H74 C104 0.929 1_545 S
H75 C107 0.929 . S
H76 C108 0.930 . S
H77 C110 0.929 . S
H78 C111 0.931 . S
H79 C113 0.930 . S
H80 C114 0.932 . S
H81 C116 0.931 . S
H82 C117 0.929 . S
H83 C119 0.929 . S
H84 C120 0.931 . S
H85 C122 0.929 . S
N86 C106 1.433 . S
N86 C112 1.435 . S
N86 C118 1.423 . S
H87 C123 0.932 . S
C88 N63 1.433 . S
C88 C89 1.363 . S
C88 C93 1.370 . S
C89 H62 0.929 . S
C89 C88 1.363 . S
C89 C90 1.385 . S
C90 H64 0.930 . S
C90 C89 1.385 . S
C90 C91 1.357 . S
C91 C90 1.357 . S
C91 C92 1.406 . S
C92 H66 0.929 . S
C92 C91 1.406 . S
C92 C93 1.391 . S
C93 H65 0.931 . S
C93 C88 1.370 . S
C93 C92 1.391 . S
C94 N63 1.435 . S
C94 C95 1.358 . S
C94 C99 1.371 . S
C95 H67 0.930 . S
C95 C94 1.358 . S
C95 C96 1.405 . S
C96 H68 0.932 . S
C96 C95 1.405 . S
C96 C97 1.383 . S
C97 C96 1.383 . S
C97 C98 1.393 . S
C98 H70 0.931 . S
C98 C97 1.393 . S
C98 C99 1.382 . S
C99 H69 0.929 . S
C99 C94 1.371 . S
C99 C98 1.382 . S
C100 N63 1.423 . S
C100 C101 1.362 . S
C100 C105 1.388 . S
C101 H71 0.929 . S
C101 C100 1.362 . S
C101 C102 1.376 . S
C102 H73 0.931 . S
C102 C101 1.376 . S
C102 C103 1.396 1_565 S
C103 C102 1.396 1_545 S
C103 C104 1.348 1_545 S
C103 C121 1.472 . S
C104 H74 0.929 1_565 S
C104 C103 1.348 1_565 S
C104 C105 1.443 . S
C105 H72 0.932 . S
C105 C100 1.388 . S
C105 C104 1.443 . S
C106 N86 1.433 . S
C106 C107 1.363 . S
C106 C111 1.370 . S
C107 H75 0.929 . S
C107 C106 1.363 . S
C107 C108 1.385 . S
C108 H76 0.930 . S
C108 C107 1.385 . S
C108 C109 1.357 . S
C109 C108 1.357 . S
C109 C110 1.406 . S
C110 H77 0.929 . S
C110 C109 1.406 . S
C110 C111 1.391 . S
C111 H78 0.931 . S
C111 C106 1.370 . S
C111 C110 1.391 . S
C112 N86 1.435 . S
C112 C113 1.358 . S
C112 C117 1.371 . S
C113 H79 0.930 . S
C113 C112 1.358 . S
C113 C114 1.405 . S
C114 H80 0.932 . S
C114 C113 1.405 . S
C114 C115 1.383 . S
C115 C114 1.383 . S
C115 C116 1.393 . S
C116 H81 0.931 . S
C116 C115 1.393 . S
C116 C117 1.382 . S
C117 H82 0.929 . S
C117 C112 1.371 . S
C117 C116 1.382 . S
C118 N86 1.423 . S
C118 C119 1.362 . S
C118 C123 1.388 . S
C119 H83 0.929 . S
C119 C118 1.362 . S
C119 C120 1.376 . S
C120 H84 0.931 . S
C120 C119 1.376 . S
C120 C121 1.396 . S
C121 C103 1.472 . S
C121 C120 1.396 . S
C121 C122 1.348 . S
C122 H85 0.929 . S
C122 C121 1.348 . S
C122 C123 1.443 . S
C123 H87 0.932 . S
C123 C118 1.388 . S
C123 C122 1.443 . S
H124 C151 0.929 . S
N125 C150 1.433 . S
N125 C156 1.435 . S
N125 C162 1.423 . S
H126 C152 0.930 . S
H127 C155 0.931 . S
H128 C154 0.929 . S
H129 C157 0.930 . S
H130 C158 0.932 . S
H131 C161 0.929 . S
H132 C160 0.931 . S
H133 C163 0.929 . S
H134 C167 0.932 . S
H135 C164 0.931 . S
H136 C166 0.929 . S
H137 C169 0.929 . S
H138 C170 0.930 . S
H139 C172 0.929 . S
H140 C173 0.931 . S
H141 C175 0.930 . S
H142 C176 0.932 . S
H143 C178 0.931 . S
H144 C179 0.929 . S
H145 C181 0.929 . S
H146 C182 0.931 . S
H147 C184 0.929 . S
N148 C168 1.433 . S
N148 C174 1.435 . S
N148 C180 1.423 . S
H149 C185 0.932 . S
C150 N125 1.433 . S
C150 C151 1.363 . S
C150 C155 1.370 . S
C151 H124 0.929 . S
C151 C150 1.363 . S
C151 C152 1.385 . S
C152 H126 0.930 . S
C152 C151 1.385 . S
C152 C153 1.357 . S
C153 C152 1.357 . S
C153 C154 1.406 . S
C154 H128 0.929 . S
C154 C153 1.406 . S
C154 C155 1.391 . S
C155 H127 0.931 . S
C155 C150 1.370 . S
C155 C154 1.391 . S
C156 N125 1.435 . S
C156 C157 1.358 . S
C156 C161 1.371 . S
C157 H129 0.930 . S
C157 C156 1.358 . S
C157 C158 1.405 . S
C158 H130 0.932 . S
C158 C157 1.405 . S
C158 C159 1.383 . S
C159 C158 1.383 . S
C159 C160 1.393 . S
C160 H132 0.931 . S
C160 C159 1.393 . S
C160 C161 1.382 . S
C161 H131 0.929 . S
C161 C156 1.371 . S
C161 C160 1.382 . S
C162 N125 1.423 . S
C162 C163 1.362 . S
C162 C167 1.388 . S
C163 H133 0.929 . S
C163 C162 1.362 . S
C163 C164 1.376 . S
C164 H135 0.931 . S
C164 C163 1.376 . S
C164 C165 1.396 . S
C165 C164 1.396 . S
C165 C166 1.348 . S
C165 C183 1.472 . S
C166 H136 0.929 . S
C166 C165 1.348 . S
C166 C167 1.443 . S
C167 H134 0.932 . S
C167 C162 1.388 . S
C167 C166 1.443 . S
C168 N148 1.433 . S
C168 C169 1.363 . S
C168 C173 1.370 . S
C169 H137 0.929 . S
C169 C168 1.363 . S
C169 C170 1.385 . S
C170 H138 0.930 . S
C170 C169 1.385 . S
C170 C171 1.357 . S
C171 C170 1.357 . S
C171 C172 1.406 . S
C172 H139 0.929 . S
C172 C171 1.406 . S
C172 C173 1.391 . S
C173 H140 0.931 . S
C173 C168 1.370 . S
C173 C172 1.391 . S
C174 N148 1.435 . S
C174 C175 1.358 . S
C174 C179 1.371 . S
C175 H141 0.930 . S
C175 C174 1.358 . S
C175 C176 1.405 . S
C176 H142 0.932 . S
C176 C175 1.405 . S
C176 C177 1.383 . S
C177 C176 1.383 . S
C177 C178 1.393 . S
C178 H143 0.931 . S
C178 C177 1.393 . S
C178 C179 1.382 . S
C179 H144 0.929 . S
C179 C174 1.371 . S
C179 C178 1.382 . S
C180 N148 1.423 . S
C180 C181 1.362 . S
C180 C185 1.388 . S
C181 H145 0.929 . S
C181 C180 1.362 . S
C181 C182 1.376 . S
C182 H146 0.931 . S
C182 C181 1.376 . S
C182 C183 1.396 . S
C183 C165 1.472 . S
C183 C182 1.396 . S
C183 C184 1.348 . S
C184 H147 0.929 . S
C184 C183 1.348 . S
C184 C185 1.443 . S
C185 H149 0.932 . S
C185 C180 1.388 . S
C185 C184 1.443 . S
H186 C213 0.929 . S
N187 C212 1.433 . S
N187 C218 1.435 . S
N187 C224 1.423 . S
H188 C214 0.930 . S
H189 C217 0.931 . S
H190 C216 0.929 . S
H191 C219 0.930 . S
H192 C220 0.932 . S
H193 C223 0.929 . S
H194 C222 0.931 . S
H195 C225 0.929 . S
H196 C229 0.932 . S
H197 C226 0.931 . S
H198 C228 0.929 . S
H199 C231 0.929 . S
H200 C232 0.930 . S
H201 C234 0.929 . S
H202 C235 0.931 . S
H203 C237 0.930 . S
H204 C238 0.932 . S
H205 C240 0.931 . S
H206 C241 0.929 . S
H207 C243 0.929 . S
H208 C244 0.931 1_455 S
H209 C246 0.929 . S
N210 C230 1.433 . S
N210 C236 1.435 . S
N210 C242 1.423 . S
H211 C247 0.932 . S
C212 N187 1.433 . S
C212 C213 1.363 . S
C212 C217 1.370 . S
C213 H186 0.929 . S
C213 C212 1.363 . S
C213 C214 1.385 . S
C214 H188 0.930 . S
C214 C213 1.385 . S
C214 C215 1.357 . S
C215 C214 1.357 . S
C215 C216 1.406 . S
C216 H190 0.929 . S
C216 C215 1.406 . S
C216 C217 1.391 . S
C217 H189 0.931 . S
C217 C212 1.370 . S
C217 C216 1.391 . S
C218 N187 1.435 . S
C218 C219 1.358 . S
C218 C223 1.371 . S
C219 H191 0.930 . S
C219 C218 1.358 . S
C219 C220 1.405 . S
C220 H192 0.932 . S
C220 C219 1.405 . S
C220 C221 1.383 . S
C221 C220 1.383 . S
C221 C222 1.393 . S
C222 H194 0.931 . S
C222 C221 1.393 . S
C222 C223 1.382 . S
C223 H193 0.929 . S
C223 C218 1.371 . S
C223 C222 1.382 . S
C224 N187 1.423 . S
C224 C225 1.362 . S
C224 C229 1.388 . S
C225 H195 0.929 . S
C225 C224 1.362 . S
C225 C226 1.376 . S
C226 H197 0.931 . S
C226 C225 1.376 . S
C226 C227 1.396 . S
C227 C226 1.396 . S
C227 C228 1.348 . S
C227 C245 1.422 1_455 S
C228 H198 0.929 . S
C228 C227 1.348 . S
C228 C229 1.443 . S
C229 H196 0.932 . S
C229 C224 1.388 . S
C229 C228 1.443 . S
C230 N210 1.433 . S
C230 C231 1.363 . S
C230 C235 1.370 . S
C231 H199 0.929 . S
C231 C230 1.363 . S
C231 C232 1.385 . S
C232 H200 0.930 . S
C232 C231 1.385 . S
C232 C233 1.357 . S
C233 C232 1.357 . S
C233 C234 1.406 . S
C234 H201 0.929 . S
C234 C233 1.406 . S
C234 C235 1.391 . S
C235 H202 0.931 . S
C235 C230 1.370 . S
C235 C234 1.391 . S
C236 N210 1.435 . S
C236 C237 1.358 . S
C236 C241 1.371 . S
C237 H203 0.930 . S
C237 C236 1.358 . S
C237 C238 1.405 . S
C238 H204 0.932 . S
C238 C237 1.405 . S
C238 C239 1.383 . S
C239 C238 1.383 . S
C239 C240 1.393 . S
C240 H205 0.931 . S
C240 C239 1.393 . S
C240 C241 1.382 . S
C241 H206 0.929 . S
C241 C236 1.371 . S
C241 C240 1.382 . S
C242 N210 1.423 . S
C242 C243 1.362 . S
C242 C247 1.388 . S
C243 H207 0.929 . S
C243 C242 1.362 . S
C243 C244 1.376 . S
C244 H208 0.931 1_655 S
C244 C243 1.376 . S
C244 C245 1.431 . S
C245 C227 1.422 1_655 S
C245 C244 1.431 . S
C245 C246 1.369 . S
C246 H209 0.929 . S
C246 C245 1.369 . S
C246 C247 1.443 . S
C247 H211 0.932 . S
C247 C242 1.388 . S
C247 C246 1.443 . S
H248 C275 0.929 . S
N249 C274 1.433 . S
N249 C280 1.435 . S
N249 C286 1.423 . S
H250 C276 0.930 . S
H251 C279 0.931 . S
H252 C278 0.929 . S
H253 C281 0.930 . S
H254 C282 0.932 . S
H255 C285 0.929 . S
H256 C284 0.931 . S
H257 C287 0.929 . S
H258 C291 0.932 . S
H259 C288 0.931 . S
H260 C290 0.929 . S
H261 C293 0.929 . S
H262 C294 0.930 . S
H263 C296 0.929 . S
H264 C297 0.931 . S
H265 C299 0.930 1_554 S
H266 C300 0.932 . S
H267 C302 0.931 . S
H268 C303 0.929 . S
H269 C305 0.929 . S
H270 C306 0.931 1_554 S
H271 C308 0.929 . S
N272 C292 1.433 . S
N272 C298 1.435 1_554 S
N272 C304 1.423 1_554 S
H273 C309 0.932 . S
C274 N249 1.433 . S
C274 C275 1.363 . S
C274 C279 1.370 . S
C275 H248 0.929 . S
C275 C274 1.363 . S
C275 C276 1.385 . S
C276 H250 0.930 . S
C276 C275 1.385 . S
C276 C277 1.357 1_556 S
C277 C276 1.357 1_554 S
C277 C278 1.406 . S
C278 H252 0.929 . S
C278 C277 1.406 . S
C278 C279 1.391 1_554 S
C279 H251 0.931 . S
C279 C274 1.370 . S
C279 C278 1.391 1_556 S
C280 N249 1.435 . S
C280 C281 1.358 . S
C280 C285 1.371 . S
C281 H253 0.930 . S
C281 C280 1.358 . S
C281 C282 1.405 . S
C282 H254 0.932 . S
C282 C281 1.405 . S
C282 C283 1.383 . S
C283 C282 1.383 . S
C283 C284 1.393 . S
C284 H256 0.931 . S
C284 C283 1.393 . S
C284 C285 1.382 . S
C285 H255 0.929 . S
C285 C280 1.371 . S
C285 C284 1.382 . S
C286 N249 1.423 . S
C286 C287 1.362 . S
C286 C291 1.388 . S
C287 H257 0.929 . S
C287 C286 1.362 . S
C287 C288 1.376 . S
C288 H259 0.931 . S
C288 C287 1.376 . S
C288 C289 1.396 . S
C289 C288 1.396 . S
C289 C290 1.348 . S
C289 C307 1.472 1_545 S
C290 H260 0.929 . S
C290 C289 1.348 . S
C290 C291 1.443 . S
C291 H258 0.932 . S
C291 C286 1.388 . S
C291 C290 1.443 . S
C292 N272 1.433 . S
C292 C293 1.363 . S
C292 C297 1.370 . S
C293 H261 0.929 . S
C293 C292 1.363 . S
C293 C294 1.385 . S
C294 H262 0.930 . S
C294 C293 1.385 . S
C294 C295 1.357 . S
C295 C294 1.357 . S
C295 C296 1.406 . S
C296 H263 0.929 . S
C296 C295 1.406 . S
C296 C297 1.391 . S
C297 H264 0.931 . S
C297 C292 1.370 . S
C297 C296 1.391 . S
C298 N272 1.435 1_556 S
C298 C299 1.358 . S
C298 C303 1.371 . S
C299 H265 0.930 1_556 S
C299 C298 1.358 . S
C299 C300 1.405 . S
C300 H266 0.932 . S
C300 C299 1.405 . S
C300 C301 1.383 . S
C301 C300 1.383 . S
C301 C302 1.393 . S
C302 H267 0.931 . S
C302 C301 1.393 . S
C302 C303 1.382 . S
C303 H268 0.929 . S
C303 C298 1.371 . S
C303 C302 1.382 . S
C304 N272 1.423 1_556 S
C304 C305 1.362 1_556 S
C304 C309 1.388 . S
C305 H269 0.929 . S
C305 C304 1.362 1_554 S
C305 C306 1.376 1_554 S
C306 H270 0.931 1_556 S
C306 C305 1.376 1_556 S
C306 C307 1.396 . S
C307 C289 1.472 1_565 S
C307 C306 1.396 . S
C307 C308 1.348 . S
C308 H271 0.929 . S
C308 C307 1.348 . S
C308 C309 1.443 . S
C309 H273 0.932 . S
C309 C304 1.388 . S
C309 C308 1.443 . S
H310 C337 0.929 . S
N311 C336 1.433 . S
N311 C342 1.435 . S
N311 C348 1.423 . S
H312 C338 0.930 . S
H313 C341 0.931 . S
H314 C340 0.929 . S
H315 C343 0.930 . S
H316 C344 0.932 . S
H317 C347 0.929 . S
H318 C346 0.931 . S
H319 C349 0.929 . S
H320 C353 0.932 . S
H321 C350 0.931 . S
H322 C352 0.929 . S
H323 C355 0.929 . S
H324 C356 0.930 . S
H325 C358 0.929 . S
H326 C359 0.931 . S
H327 C361 0.930 . S
H328 C362 0.932 . S
H329 C364 0.931 . S
H330 C365 0.929 . S
H331 C367 0.929 . S
H332 C368 0.931 . S
H333 C370 0.929 . S
N334 C354 1.433 . S
N334 C360 1.435 . S
N334 C366 1.423 . S
H335 C371 0.932 . S
C336 N311 1.433 . S
C336 C337 1.363 . S
C336 C341 1.370 . S
C337 H310 0.929 . S
C337 C336 1.363 . S
C337 C338 1.385 . S
C338 H312 0.930 . S
C338 C337 1.385 . S
C338 C339 1.357 . S
C339 C338 1.357 . S
C339 C340 1.406 . S
C340 H314 0.929 . S
C340 C339 1.406 . S
C340 C341 1.391 . S
C341 H313 0.931 . S
C341 C336 1.370 . S
C341 C340 1.391 . S
C342 N311 1.435 . S
C342 C343 1.358 . S
C342 C347 1.371 . S
C343 H315 0.930 . S
C343 C342 1.358 . S
C343 C344 1.405 . S
C344 H316 0.932 . S
C344 C343 1.405 . S
C344 C345 1.383 . S
C345 C344 1.383 . S
C345 C346 1.393 . S
C346 H318 0.931 . S
C346 C345 1.393 . S
C346 C347 1.382 . S
C347 H317 0.929 . S
C347 C342 1.371 . S
C347 C346 1.382 . S
C348 N311 1.423 . S
C348 C349 1.362 . S
C348 C353 1.388 . S
C349 H319 0.929 . S
C349 C348 1.362 . S
C349 C350 1.376 . S
C350 H321 0.931 . S
C350 C349 1.376 . S
C350 C351 1.396 . S
C351 C350 1.396 . S
C351 C352 1.348 . S
C351 C369 1.472 . S
C352 H322 0.929 . S
C352 C351 1.348 . S
C352 C353 1.443 . S
C353 H320 0.932 . S
C353 C348 1.388 . S
C353 C352 1.443 . S
C354 N334 1.433 . S
C354 C355 1.363 . S
C354 C359 1.370 . S
C355 H323 0.929 . S
C355 C354 1.363 . S
C355 C356 1.385 . S
C356 H324 0.930 . S
C356 C355 1.385 . S
C356 C357 1.357 . S
C357 C356 1.357 . S
C357 C358 1.406 . S
C358 H325 0.929 . S
C358 C357 1.406 . S
C358 C359 1.391 . S
C359 H326 0.931 . S
C359 C354 1.370 . S
C359 C358 1.391 . S
C360 N334 1.435 . S
C360 C361 1.358 . S
C360 C365 1.371 . S
C361 H327 0.930 . S
C361 C360 1.358 . S
C361 C362 1.405 . S
C362 H328 0.932 . S
C362 C361 1.405 . S
C362 C363 1.383 . S
C363 C362 1.383 . S
C363 C364 1.393 . S
C364 H329 0.931 . S
C364 C363 1.393 . S
C364 C365 1.382 . S
C365 H330 0.929 . S
C365 C360 1.371 . S
C365 C364 1.382 . S
C366 N334 1.423 . S
C366 C367 1.362 . S
C366 C371 1.388 . S
C367 H331 0.929 . S
C367 C366 1.362 . S
C367 C368 1.376 . S
C368 H332 0.931 . S
C368 C367 1.376 . S
C368 C369 1.396 . S
C369 C351 1.472 . S
C369 C368 1.396 . S
C369 C370 1.348 . S
C370 H333 0.929 . S
C370 C369 1.348 . S
C370 C371 1.443 . S
C371 H335 0.932 . S
C371 C366 1.388 . S
C371 C370 1.443 . S
Co372 O373 2.216 . S
Co372 O374 2.091 . S
Co372 O376 2.004 . S
Co372 O382 2.021 . S
Co372 O384 2.137 . S
Co372 O385 2.244 . S
O373 Co372 2.216 . S
O373 C380 1.247 . S
O374 Co372 2.091 . S
O374 C380 1.261 . S
C375 O384 1.247 . S
C375 O385 1.272 . S
O376 Co372 2.004 . S
O376 C381 1.259 . S
Co377 O378 2.061 . S
Co377 O383 2.052 . S
Co377 O385 2.135 . S
O378 Co377 2.061 . S
O378 C381 1.235 . S
C379 O382 1.238 . S
C379 O383 1.241 . S
C380 O373 1.247 . S
C380 O374 1.261 . S
C381 O376 1.259 . S
C381 O378 1.235 . S
O382 Co372 2.021 . S
O382 C379 1.238 . S
O383 Co377 2.052 . S
O383 C379 1.241 . S
O384 Co372 2.137 . S
O384 C375 1.247 . S
O385 Co372 2.244 . S
O385 C375 1.272 . S
O385 Co377 2.135 . S
Co386 O387 2.216 . S
Co386 O388 2.091 . S
Co386 O390 2.004 . S
Co386 O396 2.021 . S
Co386 O398 2.137 . S
Co386 O399 2.244 . S
O387 Co386 2.216 . S
O387 C394 1.247 . S
O388 Co386 2.091 . S
O388 C394 1.261 . S
C389 O398 1.247 . S
C389 O399 1.272 . S
O390 Co386 2.004 . S
O390 C395 1.259 . S
Co391 O392 2.061 . S
Co391 O397 2.052 . S
Co391 O399 2.135 . S
O392 Co391 2.061 . S
O392 C395 1.235 . S
C393 O396 1.238 . S
C393 O397 1.241 . S
C394 O387 1.247 . S
C394 O388 1.261 . S
C395 O390 1.259 . S
C395 O392 1.235 . S
O396 Co386 2.021 . S
O396 C393 1.238 . S
O397 Co391 2.052 . S
O397 C393 1.241 . S
O398 Co386 2.137 . S
O398 C389 1.247 . S
O399 Co386 2.244 . S
O399 C389 1.272 . S
O399 Co391 2.135 . S
Co400 O401 2.216 . S
Co400 O402 2.091 . S
Co400 O404 2.004 . S
Co400 O410 2.021 . S
Co400 O412 2.137 . S
Co400 O413 2.244 . S
O401 Co400 2.216 . S
O401 C408 1.247 . S
O402 Co400 2.091 . S
O402 C408 1.261 . S
C403 O412 1.247 . S
C403 O413 1.272 . S
O404 Co400 2.004 . S
O404 C409 1.259 . S
Co405 O406 2.061 . S
Co405 O411 2.052 . S
Co405 O413 2.135 . S
O406 Co405 2.061 . S
O406 C409 1.235 . S
C407 O410 1.238 . S
C407 O411 1.241 . S
C408 O401 1.247 . S
C408 O402 1.261 . S
C409 O404 1.259 . S
C409 O406 1.235 . S
O410 Co400 2.021 . S
O410 C407 1.238 . S
O411 Co405 2.052 . S
O411 C407 1.241 . S
O412 Co400 2.137 . S
O412 C403 1.247 . S
O413 Co400 2.244 . S
O413 C403 1.272 . S
O413 Co405 2.135 . S
Co414 O415 2.216 . S
Co414 O416 2.091 . S
Co414 O418 2.004 . S
Co414 O424 2.021 . S
Co414 O426 2.137 . S
Co414 O427 2.244 . S
O415 Co414 2.216 . S
O415 C422 1.247 . S
O416 Co414 2.091 . S
O416 C422 1.261 . S
C417 O426 1.247 . S
C417 O427 1.272 . S
O418 Co414 2.004 . S
O418 C423 1.259 . S
Co419 O420 2.061 . S
Co419 O425 2.052 . S
Co419 O427 2.135 . S
O420 Co419 2.061 . S
O420 C423 1.235 . S
C421 O424 1.238 . S
C421 O425 1.241 . S
C422 O415 1.247 . S
C422 O416 1.261 . S
C423 O418 1.259 . S
C423 O420 1.235 . S
O424 Co414 2.021 . S
O424 C421 1.238 . S
O425 Co419 2.052 . S
O425 C421 1.241 . S
O426 Co414 2.137 . S
O426 C417 1.247 . S
O427 Co414 2.244 . S
O427 C417 1.272 . S
O427 Co419 2.135 . S
Co428 O429 2.216 . S
Co428 O430 2.091 . S
Co428 O432 2.004 . S
Co428 O438 2.021 . S
Co428 O440 2.137 . S
Co428 O441 2.244 . S
O429 Co428 2.216 . S
O429 C436 1.247 . S
O430 Co428 2.091 . S
O430 C436 1.261 . S
C431 O440 1.247 . S
C431 O441 1.272 . S
O432 Co428 2.004 . S
O432 C437 1.259 . S
Co433 O434 2.061 . S
Co433 O439 2.052 . S
Co433 O441 2.135 . S
O434 Co433 2.061 . S
O434 C437 1.235 . S
C435 O438 1.238 . S
C435 O439 1.241 . S
C436 O429 1.247 . S
C436 O430 1.261 . S
C437 O432 1.259 . S
C437 O434 1.235 . S
O438 Co428 2.021 . S
O438 C435 1.238 . S
O439 Co433 2.052 . S
O439 C435 1.241 . S
O440 Co428 2.137 . S
O440 C431 1.247 . S
O441 Co428 2.244 . S
O441 C431 1.272 . S
O441 Co433 2.135 . S
Co442 O443 2.216 . S
Co442 O444 2.091 . S
Co442 O446 2.004 . S
Co442 O452 2.021 . S
Co442 O454 2.137 . S
Co442 O455 2.244 . S
O443 Co442 2.216 . S
O443 C450 1.247 . S
O444 Co442 2.091 . S
O444 C450 1.261 . S
C445 O454 1.247 . S
C445 O455 1.272 . S
O446 Co442 2.004 . S
O446 C451 1.259 . S
Co447 O448 2.061 . S
Co447 O453 2.052 . S
Co447 O455 2.135 . S
O448 Co447 2.061 . S
O448 C451 1.235 . S
C449 O452 1.238 . S
C449 O453 1.241 . S
C450 O443 1.247 . S
C450 O444 1.261 . S
C451 O446 1.259 . S
C451 O448 1.235 . S
O452 Co442 2.021 . S
O452 C449 1.238 . S
O453 Co447 2.052 . S
O453 C449 1.241 . S
O454 Co442 2.137 . S
O454 C445 1.247 . S
O455 Co442 2.244 . S
O455 C445 1.272 . S
O455 Co447 2.135 . S
C456 C457 1.349 . S
C456 C458 1.327 . S
C456 H481 0.950 . S
C457 C456 1.349 . S
C457 C473 1.349 . S
C458 C456 1.327 . S
C458 C477 1.429 . S
C458 H482 0.950 . S
C459 C476 1.574 . S
C459 C478 1.368 . S
C459 H483 0.949 . S
H460 C464 0.949 . S
C461 C462 1.349 . S
C461 C463 1.327 . S
C461 H484 0.950 . S
C462 C461 1.349 . S
C462 C474 1.349 . S
C463 C461 1.327 . S
C463 C479 1.429 . S
C463 H485 0.950 . S
C464 H460 0.949 . S
C464 C472 1.574 . S
C464 C480 1.368 . S
H465 C473 0.950 . S
H466 C471 0.950 . S
H467 C472 0.949 . S
H468 C474 0.950 . S
H469 C475 0.950 . S
H470 C476 0.949 . S
C471 H466 0.950 . S
C471 C473 1.327 . S
C471 C477 1.429 . S
C472 C464 1.574 . S
C472 H467 0.949 . S
C472 C478 1.368 . S
C473 C457 1.349 . S
C473 H465 0.950 . S
C473 C471 1.327 . S
C474 C462 1.349 . S
C474 H468 0.950 . S
C474 C475 1.327 . S
C475 H469 0.950 . S
C475 C474 1.327 . S
C475 C479 1.429 . S
C476 C459 1.574 . S
C476 H470 0.949 . S
C476 C480 1.368 . S
C477 C458 1.429 . S
C477 C471 1.429 . S
C477 C478 1.523 . S
C478 C459 1.368 . S
C478 C472 1.368 . S
C478 C477 1.523 . S
C479 C463 1.429 . S
C479 C475 1.429 . S
C479 C480 1.523 . S
C480 C464 1.368 . S
C480 C476 1.368 . S
C480 C479 1.523 . S
H481 C456 0.950 . S
H482 C458 0.950 . S
H483 C459 0.949 . S
H484 C461 0.950 . S
H485 C463 0.950 . S
C486 C487 1.349 . S
C486 C488 1.327 . S
C486 H511 0.950 . S
C487 C486 1.349 . S
C487 C503 1.349 . S
C488 C486 1.327 . S
C488 C507 1.429 . S
C488 H512 0.950 . S
C489 C506 1.574 . S
C489 C508 1.368 . S
C489 H513 0.949 . S
H490 C494 0.949 . S
C491 C492 1.349 . S
C491 C493 1.327 . S
C491 H514 0.950 . S
C492 C491 1.349 . S
C492 C504 1.349 . S
C493 C491 1.327 . S
C493 C509 1.429 . S
C493 H515 0.950 . S
C494 H490 0.949 . S
C494 C502 1.574 . S
C494 C510 1.368 . S
H495 C503 0.950 . S
H496 C501 0.950 . S
H497 C502 0.949 . S
H498 C504 0.950 . S
H499 C505 0.950 . S
H500 C506 0.949 . S
C501 H496 0.950 . S
C501 C503 1.327 . S
C501 C507 1.429 . S
C502 C494 1.574 . S
C502 H497 0.949 . S
C502 C508 1.368 . S
C503 C487 1.349 . S
C503 H495 0.950 . S
C503 C501 1.327 . S
C504 C492 1.349 . S
C504 H498 0.950 . S
C504 C505 1.327 . S
C505 H499 0.950 . S
C505 C504 1.327 . S
C505 C509 1.429 . S
C506 C489 1.574 . S
C506 H500 0.949 . S
C506 C510 1.368 . S
C507 C488 1.429 . S
C507 C501 1.429 . S
C507 C508 1.523 . S
C508 C489 1.368 . S
C508 C502 1.368 . S
C508 C507 1.523 . S
C509 C493 1.429 . S
C509 C505 1.429 . S
C509 C510 1.523 . S
C510 C494 1.368 . S
C510 C506 1.368 . S
C510 C509 1.523 . S
H511 C486 0.950 . S
H512 C488 0.950 . S
H513 C489 0.949 . S
H514 C491 0.950 . S
H515 C493 0.950 . S
C516 C517 1.349 . S
C516 C518 1.327 . S
C516 H541 0.950 . S
C517 C516 1.349 . S
C517 C533 1.349 . S
C518 C516 1.327 . S
C518 C537 1.429 . S
C518 H542 0.950 . S
C519 C536 1.574 . S
C519 C538 1.368 . S
C519 H543 0.949 . S
H520 C524 0.949 . S
C521 C522 1.349 . S
C521 C523 1.327 . S
C521 H544 0.950 . S
C522 C521 1.349 . S
C522 C534 1.349 . S
C523 C521 1.327 . S
C523 C539 1.429 . S
C523 H545 0.950 . S
C524 H520 0.949 . S
C524 C532 1.574 . S
C524 C540 1.368 . S
H525 C533 0.950 . S
H526 C531 0.950 . S
H527 C532 0.949 . S
H528 C534 0.950 . S
H529 C535 0.950 . S
H530 C536 0.949 . S
C531 H526 0.950 . S
C531 C533 1.327 . S
C531 C537 1.429 . S
C532 C524 1.574 . S
C532 H527 0.949 . S
C532 C538 1.368 . S
C533 C517 1.349 . S
C533 H525 0.950 . S
C533 C531 1.327 . S
C534 C522 1.349 . S
C534 H528 0.950 . S
C534 C535 1.327 . S
C535 H529 0.950 . S
C535 C534 1.327 . S
C535 C539 1.429 . S
C536 C519 1.574 . S
C536 H530 0.949 . S
C536 C540 1.368 . S
C537 C518 1.429 . S
C537 C531 1.429 . S
C537 C538 1.523 . S
C538 C519 1.368 . S
C538 C532 1.368 . S
C538 C537 1.523 . S
C539 C523 1.429 . S
C539 C535 1.429 . S
C539 C540 1.523 . S
C540 C524 1.368 . S
C540 C536 1.368 . S
C540 C539 1.523 . S
H541 C516 0.950 . S
H542 C518 0.950 . S
H543 C519 0.949 . S
H544 C521 0.950 . S
H545 C523 0.950 . S
C546 C547 1.349 . S
C546 C548 1.327 . S
C546 H571 0.950 . S
C547 C546 1.349 . S
C547 C563 1.349 . S
C548 C546 1.327 . S
C548 C567 1.429 . S
C548 H572 0.950 . S
C549 C566 1.574 . S
C549 C568 1.368 . S
C549 H573 0.949 . S
H550 C554 0.949 . S
C551 C552 1.349 . S
C551 C553 1.327 . S
C551 H574 0.950 . S
C552 C551 1.349 . S
C552 C564 1.349 . S
C553 C551 1.327 . S
C553 C569 1.429 . S
C553 H575 0.950 . S
C554 H550 0.949 . S
C554 C562 1.574 . S
C554 C570 1.368 . S
H555 C563 0.950 . S
H556 C561 0.950 . S
H557 C562 0.949 . S
H558 C564 0.950 . S
H559 C565 0.950 . S
H560 C566 0.949 . S
C561 H556 0.950 . S
C561 C563 1.327 . S
C561 C567 1.429 . S
C562 C554 1.574 . S
C562 H557 0.949 . S
C562 C568 1.368 . S
C563 C547 1.349 . S
C563 H555 0.950 . S
C563 C561 1.327 . S
C564 C552 1.349 . S
C564 H558 0.950 . S
C564 C565 1.327 . S
C565 H559 0.950 . S
C565 C564 1.327 . S
C565 C569 1.429 . S
C566 C549 1.574 . S
C566 H560 0.949 . S
C566 C570 1.368 . S
C567 C548 1.429 . S
C567 C561 1.429 . S
C567 C568 1.523 . S
C568 C549 1.368 . S
C568 C562 1.368 . S
C568 C567 1.523 . S
C569 C553 1.429 . S
C569 C565 1.429 . S
C569 C570 1.523 . S
C570 C554 1.368 . S
C570 C566 1.368 . S
C570 C569 1.523 . S
H571 C546 0.950 . S
H572 C548 0.950 . S
H573 C549 0.949 . S
H574 C551 0.950 . S
H575 C553 0.950 . S
C576 C577 1.349 . S
C576 C578 1.327 . S
C576 H601 0.950 . S
C577 C576 1.349 . S
C577 C593 1.349 . S
C578 C576 1.327 . S
C578 C597 1.429 . S
C578 H602 0.950 . S
C579 C596 1.574 . S
C579 C598 1.368 . S
C579 H603 0.949 . S
H580 C584 0.949 . S
C581 C582 1.349 . S
C581 C583 1.327 . S
C581 H604 0.950 . S
C582 C581 1.349 . S
C582 C594 1.349 . S
C583 C581 1.327 . S
C583 C599 1.429 . S
C583 H605 0.950 . S
C584 H580 0.949 . S
C584 C592 1.574 . S
C584 C600 1.368 . S
H585 C593 0.950 . S
H586 C591 0.950 . S
H587 C592 0.949 . S
H588 C594 0.950 . S
H589 C595 0.950 . S
H590 C596 0.949 . S
C591 H586 0.950 . S
C591 C593 1.327 . S
C591 C597 1.429 . S
C592 C584 1.574 . S
C592 H587 0.949 . S
C592 C598 1.368 . S
C593 C577 1.349 . S
C593 H585 0.950 . S
C593 C591 1.327 . S
C594 C582 1.349 . S
C594 H588 0.950 . S
C594 C595 1.327 . S
C595 H589 0.950 . S
C595 C594 1.327 . S
C595 C599 1.429 . S
C596 C579 1.574 . S
C596 H590 0.949 . S
C596 C600 1.368 . S
C597 C578 1.429 . S
C597 C591 1.429 . S
C597 C598 1.523 . S
C598 C579 1.368 . S
C598 C592 1.368 . S
C598 C597 1.523 . S
C599 C583 1.429 . S
C599 C595 1.429 . S
C599 C600 1.523 . S
C600 C584 1.368 . S
C600 C596 1.368 . S
C600 C599 1.523 . S
H601 C576 0.950 . S
H602 C578 0.950 . S
H603 C579 0.949 . S
H604 C581 0.950 . S
H605 C583 0.950 . S
C606 C607 1.349 . S
C606 C608 1.327 . S
C606 H631 0.950 . S
C607 C606 1.349 . S
C607 C623 1.349 . S
C608 C606 1.327 . S
C608 C627 1.429 . S
C608 H632 0.950 . S
C609 C626 1.574 . S
C609 C628 1.368 . S
C609 H633 0.949 . S
H610 C614 0.949 . S
C611 C612 1.349 . S
C611 C613 1.327 . S
C611 H634 0.950 . S
C612 C611 1.349 . S
C612 C624 1.349 . S
C613 C611 1.327 . S
C613 C629 1.429 . S
C613 H635 0.950 . S
C614 H610 0.949 . S
C614 C622 1.574 . S
C614 C630 1.368 . S
H615 C623 0.950 . S
H616 C621 0.950 . S
H617 C622 0.949 . S
H618 C624 0.950 . S
H619 C625 0.950 . S
H620 C626 0.949 . S
C621 H616 0.950 . S
C621 C623 1.327 . S
C621 C627 1.429 . S
C622 C614 1.574 . S
C622 H617 0.949 . S
C622 C628 1.368 . S
C623 C607 1.349 . S
C623 H615 0.950 . S
C623 C621 1.327 . S
C624 C612 1.349 . S
C624 H618 0.950 . S
C624 C625 1.327 . S
C625 H619 0.950 . S
C625 C624 1.327 . S
C625 C629 1.429 . S
C626 C609 1.574 . S
C626 H620 0.949 . S
C626 C630 1.368 . S
C627 C608 1.429 . S
C627 C621 1.429 . S
C627 C628 1.523 . S
C628 C609 1.368 . S
C628 C622 1.368 . S
C628 C627 1.523 . S
C629 C613 1.429 . S
C629 C625 1.429 . S
C629 C630 1.523 . S
C630 C614 1.368 . S
C630 C626 1.368 . S
C630 C629 1.523 . S
H631 C606 0.950 . S
H632 C608 0.950 . S
H633 C609 0.949 . S
H634 C611 0.950 . S
H635 C613 0.950 . S
C636 C637 1.349 . S
C636 C638 1.327 . S
C636 H661 0.950 . S
C637 C636 1.349 . S
C637 C653 1.349 . S
C638 C636 1.327 . S
C638 C657 1.429 . S
C638 H662 0.950 . S
C639 C656 1.574 . S
C639 C658 1.368 . S
C639 H663 0.949 . S
H640 C644 0.949 . S
C641 C642 1.349 . S
C641 C643 1.327 . S
C641 H664 0.950 . S
C642 C641 1.349 . S
C642 C654 1.349 . S
C643 C641 1.327 . S
C643 C659 1.429 . S
C643 H665 0.950 . S
C644 H640 0.949 . S
C644 C652 1.574 . S
C644 C660 1.368 . S
H645 C653 0.950 . S
H646 C651 0.950 . S
H647 C652 0.949 . S
H648 C654 0.950 . S
H649 C655 0.950 . S
H650 C656 0.949 . S
C651 H646 0.950 . S
C651 C653 1.327 . S
C651 C657 1.429 . S
C652 C644 1.574 . S
C652 H647 0.949 . S
C652 C658 1.368 . S
C653 C637 1.349 . S
C653 H645 0.950 . S
C653 C651 1.327 . S
C654 C642 1.349 . S
C654 H648 0.950 . S
C654 C655 1.327 . S
C655 H649 0.950 . S
C655 C654 1.327 . S
C655 C659 1.429 . S
C656 C639 1.574 . S
C656 H650 0.949 . S
C656 C660 1.368 . S
C657 C638 1.429 . S
C657 C651 1.429 . S
C657 C658 1.523 . S
C658 C639 1.368 . S
C658 C652 1.368 . S
C658 C657 1.523 . S
C659 C643 1.429 . S
C659 C655 1.429 . S
C659 C660 1.523 . S
C660 C644 1.368 . S
C660 C656 1.368 . S
C660 C659 1.523 . S
H661 C636 0.950 . S
H662 C638 0.950 . S
H663 C639 0.949 . S
H664 C641 0.950 . S
H665 C643 0.950 . S
C666 C667 1.349 . S
C666 C668 1.327 . S
C666 H691 0.950 . S
C667 C666 1.349 . S
C667 C683 1.349 . S
C668 C666 1.327 . S
C668 C687 1.429 . S
C668 H692 0.950 . S
C669 C686 1.574 . S
C669 C688 1.368 . S
C669 H693 0.949 . S
H670 C674 0.949 . S
C671 C672 1.349 . S
C671 C673 1.327 . S
C671 H694 0.950 . S
C672 C671 1.349 . S
C672 C684 1.349 . S
C673 C671 1.327 . S
C673 C689 1.429 . S
C673 H695 0.950 . S
C674 H670 0.949 . S
C674 C682 1.574 . S
C674 C690 1.368 . S
H675 C683 0.950 . S
H676 C681 0.950 . S
H677 C682 0.949 . S
H678 C684 0.950 . S
H679 C685 0.950 . S
H680 C686 0.949 . S
C681 H676 0.950 . S
C681 C683 1.327 . S
C681 C687 1.429 . S
C682 C674 1.574 . S
C682 H677 0.949 . S
C682 C688 1.368 . S
C683 C667 1.349 . S
C683 H675 0.950 . S
C683 C681 1.327 . S
C684 C672 1.349 . S
C684 H678 0.950 . S
C684 C685 1.327 . S
C685 H679 0.950 . S
C685 C684 1.327 . S
C685 C689 1.429 . S
C686 C669 1.574 . S
C686 H680 0.949 . S
C686 C690 1.368 . S
C687 C668 1.429 . S
C687 C681 1.429 . S
C687 C688 1.523 . S
C688 C669 1.368 . S
C688 C682 1.368 . S
C688 C687 1.523 . S
C689 C673 1.429 . S
C689 C685 1.429 . S
C689 C690 1.523 . S
C690 C674 1.368 . S
C690 C686 1.368 . S
C690 C689 1.523 . S
H691 C666 0.950 . S
H692 C668 0.950 . S
H693 C669 0.949 . S
H694 C671 0.950 . S
H695 C673 0.950 . S
C696 C697 1.349 . S
C696 C698 1.327 . S
C696 H721 0.950 . S
C697 C696 1.349 . S
C697 C713 1.349 . S
C698 C696 1.327 . S
C698 C717 1.429 . S
C698 H722 0.950 . S
C699 C716 1.574 . S
C699 C718 1.368 . S
C699 H723 0.949 . S
H700 C704 0.949 . S
C701 C702 1.349 . S
C701 C703 1.327 . S
C701 H724 0.950 . S
C702 C701 1.349 . S
C702 C714 1.349 . S
C703 C701 1.327 . S
C703 C719 1.429 . S
C703 H725 0.950 . S
C704 H700 0.949 . S
C704 C712 1.574 . S
C704 C720 1.368 . S
H705 C713 0.950 . S
H706 C711 0.950 . S
H707 C712 0.949 . S
H708 C714 0.950 . S
H709 C715 0.950 . S
H710 C716 0.949 . S
C711 H706 0.950 . S
C711 C713 1.327 . S
C711 C717 1.429 . S
C712 C704 1.574 . S
C712 H707 0.949 . S
C712 C718 1.368 . S
C713 C697 1.349 . S
C713 H705 0.950 . S
C713 C711 1.327 . S
C714 C702 1.349 . S
C714 H708 0.950 . S
C714 C715 1.327 . S
C715 H709 0.950 . S
C715 C714 1.327 . S
C715 C719 1.429 . S
C716 C699 1.574 . S
C716 H710 0.949 . S
C716 C720 1.368 . S
C717 C698 1.429 . S
C717 C711 1.429 . S
C717 C718 1.523 . S
C718 C699 1.368 . S
C718 C712 1.368 . S
C718 C717 1.523 . S
C719 C703 1.429 . S
C719 C715 1.429 . S
C719 C720 1.523 . S
C720 C704 1.368 . S
C720 C716 1.368 . S
C720 C719 1.523 . S
H721 C696 0.950 . S
H722 C698 0.950 . S
H723 C699 0.949 . S
H724 C701 0.950 . S
H725 C703 0.950 . S
C726 C727 1.349 . S
C726 C728 1.327 . S
C726 H751 0.950 . S
C727 C726 1.349 . S
C727 C743 1.349 . S
C728 C726 1.327 . S
C728 C747 1.429 . S
C728 H752 0.950 . S
C729 C746 1.574 . S
C729 C748 1.368 . S
C729 H753 0.949 . S
H730 C734 0.949 . S
C731 C732 1.349 . S
C731 C733 1.327 . S
C731 H754 0.950 . S
C732 C731 1.349 . S
C732 C744 1.349 . S
C733 C731 1.327 . S
C733 C749 1.429 . S
C733 H755 0.950 . S
C734 H730 0.949 . S
C734 C742 1.574 . S
C734 C750 1.368 . S
H735 C743 0.950 . S
H736 C741 0.950 . S
H737 C742 0.949 . S
H738 C744 0.950 . S
H739 C745 0.950 . S
H740 C746 0.949 . S
C741 H736 0.950 . S
C741 C743 1.327 . S
C741 C747 1.429 . S
C742 C734 1.574 . S
C742 H737 0.949 . S
C742 C748 1.368 . S
C743 C727 1.349 . S
C743 H735 0.950 . S
C743 C741 1.327 . S
C744 C732 1.349 . S
C744 H738 0.950 . S
C744 C745 1.327 . S
C745 H739 0.950 . S
C745 C744 1.327 . S
C745 C749 1.429 . S
C746 C729 1.574 . S
C746 H740 0.949 . S
C746 C750 1.368 . S
C747 C728 1.429 . S
C747 C741 1.429 . S
C747 C748 1.523 . S
C748 C729 1.368 . S
C748 C742 1.368 . S
C748 C747 1.523 . S
C749 C733 1.429 . S
C749 C745 1.429 . S
C749 C750 1.523 . S
C750 C734 1.368 . S
C750 C746 1.368 . S
C750 C749 1.523 . S
H751 C726 0.950 . S
H752 C728 0.950 . S
H753 C729 0.949 . S
H754 C731 0.950 . S
H755 C733 0.950 . S
C756 C757 1.349 . S
C756 C758 1.327 . S
C756 H781 0.950 . S
C757 C756 1.349 . S
C757 C773 1.349 . S
C758 C756 1.327 . S
C758 C777 1.429 . S
C758 H782 0.950 . S
C759 C776 1.574 . S
C759 C778 1.368 . S
C759 H783 0.949 . S
H760 C764 0.949 . S
C761 C762 1.349 . S
C761 C763 1.327 . S
C761 H784 0.950 . S
C762 C761 1.349 . S
C762 C774 1.349 . S
C763 C761 1.327 . S
C763 C779 1.429 . S
C763 H785 0.950 . S
C764 H760 0.949 . S
C764 C772 1.574 . S
C764 C780 1.368 . S
H765 C773 0.950 . S
H766 C771 0.950 . S
H767 C772 0.949 . S
H768 C774 0.950 . S
H769 C775 0.950 . S
H770 C776 0.949 . S
C771 H766 0.950 . S
C771 C773 1.327 . S
C771 C777 1.429 . S
C772 C764 1.574 . S
C772 H767 0.949 . S
C772 C778 1.368 . S
C773 C757 1.349 . S
C773 H765 0.950 . S
C773 C771 1.327 . S
C774 C762 1.349 . S
C774 H768 0.950 . S
C774 C775 1.327 . S
C775 H769 0.950 . S
C775 C774 1.327 . S
C775 C779 1.429 . S
C776 C759 1.574 . S
C776 H770 0.949 . S
C776 C780 1.368 . S
C777 C758 1.429 . S
C777 C771 1.429 . S
C777 C778 1.523 . S
C778 C759 1.368 . S
C778 C772 1.368 . S
C778 C777 1.523 . S
C779 C763 1.429 . S
C779 C775 1.429 . S
C779 C780 1.523 . S
C780 C764 1.368 . S
C780 C776 1.368 . S
C780 C779 1.523 . S
H781 C756 0.950 . S
H782 C758 0.950 . S
H783 C759 0.949 . S
H784 C761 0.950 . S
H785 C763 0.950 . S
C786 C787 1.349 . S
C786 C788 1.327 . S
C786 H811 0.950 . S
C787 C786 1.349 . S
C787 C803 1.349 . S
C788 C786 1.327 . S
C788 C807 1.429 . S
C788 H812 0.950 . S
C789 C806 1.574 . S
C789 C808 1.368 . S
C789 H813 0.949 . S
H790 C794 0.949 . S
C791 C792 1.349 . S
C791 C793 1.327 . S
C791 H814 0.950 . S
C792 C791 1.349 . S
C792 C804 1.349 . S
C793 C791 1.327 . S
C793 C809 1.429 . S
C793 H815 0.950 . S
C794 H790 0.949 . S
C794 C802 1.574 . S
C794 C810 1.368 . S
H795 C803 0.950 . S
H796 C801 0.950 . S
H797 C802 0.949 . S
H798 C804 0.950 . S
H799 C805 0.950 . S
H800 C806 0.949 . S
C801 H796 0.950 . S
C801 C803 1.327 . S
C801 C807 1.429 . S
C802 C794 1.574 . S
C802 H797 0.949 . S
C802 C808 1.368 . S
C803 C787 1.349 . S
C803 H795 0.950 . S
C803 C801 1.327 . S
C804 C792 1.349 . S
C804 H798 0.950 . S
C804 C805 1.327 . S
C805 H799 0.950 . S
C805 C804 1.327 . S
C805 C809 1.429 . S
C806 C789 1.574 . S
C806 H800 0.949 . S
C806 C810 1.368 . S
C807 C788 1.429 . S
C807 C801 1.429 . S
C807 C808 1.523 . S
C808 C789 1.368 . S
C808 C802 1.368 . S
C808 C807 1.523 . S
C809 C793 1.429 . S
C809 C805 1.429 . S
C809 C810 1.523 . S
C810 C794 1.368 . S
C810 C806 1.368 . S
C810 C809 1.523 . S
H811 C786 0.950 . S
H812 C788 0.950 . S
H813 C789 0.949 . S
H814 C791 0.950 . S
H815 C793 0.950 . S
C816 C817 1.349 . S
C816 C818 1.327 . S
C816 H841 0.950 . S
C817 C816 1.349 . S
C817 C833 1.349 . S
C818 C816 1.327 . S
C818 C837 1.429 . S
C818 H842 0.950 . S
C819 C836 1.574 . S
C819 C838 1.368 . S
C819 H843 0.949 . S
H820 C824 0.949 . S
C821 C822 1.349 . S
C821 C823 1.327 . S
C821 H844 0.950 . S
C822 C821 1.349 . S
C822 C834 1.349 . S
C823 C821 1.327 . S
C823 C839 1.429 . S
C823 H845 0.950 . S
C824 H820 0.949 . S
C824 C832 1.574 . S
C824 C840 1.368 . S
H825 C833 0.950 . S
H826 C831 0.950 . S
H827 C832 0.949 . S
H828 C834 0.950 . S
H829 C835 0.950 . S
H830 C836 0.949 . S
C831 H826 0.950 . S
C831 C833 1.327 . S
C831 C837 1.429 . S
C832 C824 1.574 . S
C832 H827 0.949 . S
C832 C838 1.368 . S
C833 C817 1.349 . S
C833 H825 0.950 . S
C833 C831 1.327 . S
C834 C822 1.349 . S
C834 H828 0.950 . S
C834 C835 1.327 . S
C835 H829 0.950 . S
C835 C834 1.327 . S
C835 C839 1.429 . S
C836 C819 1.574 . S
C836 H830 0.949 . S
C836 C840 1.368 . S
C837 C818 1.429 . S
C837 C831 1.429 . S
C837 C838 1.523 . S
C838 C819 1.368 . S
C838 C832 1.368 . S
C838 C837 1.523 . S
C839 C823 1.429 . S
C839 C835 1.429 . S
C839 C840 1.523 . S
C840 C824 1.368 . S
C840 C836 1.368 . S
C840 C839 1.523 . S
H841 C816 0.950 . S
H842 C818 0.950 . S
H843 C819 0.949 . S
H844 C821 0.950 . S
H845 C823 0.950 . S
C846 C847 1.349 . S
C846 C848 1.327 . S
C846 H871 0.950 . S
C847 C846 1.349 . S
C847 C863 1.349 . S
C848 C846 1.327 . S
C848 C867 1.429 . S
C848 H872 0.950 . S
C849 C866 1.574 . S
C849 C868 1.368 . S
C849 H873 0.949 . S
H850 C854 0.949 . S
C851 C852 1.349 . S
C851 C853 1.327 . S
C851 H874 0.950 . S
C852 C851 1.349 . S
C852 C864 1.349 . S
C853 C851 1.327 . S
C853 C869 1.429 . S
C853 H875 0.950 . S
C854 H850 0.949 . S
C854 C862 1.574 . S
C854 C870 1.368 . S
H855 C863 0.950 . S
H856 C861 0.950 . S
H857 C862 0.949 . S
H858 C864 0.950 . S
H859 C865 0.950 . S
H860 C866 0.949 . S
C861 H856 0.950 . S
C861 C863 1.327 . S
C861 C867 1.429 . S
C862 C854 1.574 . S
C862 H857 0.949 . S
C862 C868 1.368 . S
C863 C847 1.349 . S
C863 H855 0.950 . S
C863 C861 1.327 . S
C864 C852 1.349 . S
C864 H858 0.950 . S
C864 C865 1.327 . S
C865 H859 0.950 . S
C865 C864 1.327 . S
C865 C869 1.429 . S
C866 C849 1.574 . S
C866 H860 0.949 . S
C866 C870 1.368 . S
C867 C848 1.429 . S
C867 C861 1.429 . S
C867 C868 1.523 . S
C868 C849 1.368 . S
C868 C862 1.368 . S
C868 C867 1.523 . S
C869 C853 1.429 . S
C869 C865 1.429 . S
C869 C870 1.523 . S
C870 C854 1.368 . S
C870 C866 1.368 . S
C870 C869 1.523 . S
H871 C846 0.950 . S
H872 C848 0.950 . S
H873 C849 0.949 . S
H874 C851 0.950 . S
H875 C853 0.950 . S
C876 C877 1.349 . S
C876 C878 1.327 . S
C876 H901 0.950 . S
C877 C876 1.349 . S
C877 C893 1.349 . S
C878 C876 1.327 . S
C878 C897 1.429 . S
C878 H902 0.950 . S
C879 C896 1.574 . S
C879 C898 1.368 . S
C879 H903 0.949 . S
H880 C884 0.949 . S
C881 C882 1.349 . S
C881 C883 1.327 . S
C881 H904 0.950 . S
C882 C881 1.349 . S
C882 C894 1.349 . S
C883 C881 1.327 . S
C883 C899 1.429 . S
C883 H905 0.950 . S
C884 H880 0.949 . S
C884 C892 1.574 . S
C884 C900 1.368 . S
H885 C893 0.950 . S
H886 C891 0.950 . S
H887 C892 0.949 . S
H888 C894 0.950 . S
H889 C895 0.950 . S
H890 C896 0.949 . S
C891 H886 0.950 . S
C891 C893 1.327 . S
C891 C897 1.429 . S
C892 C884 1.574 . S
C892 H887 0.949 . S
C892 C898 1.368 . S
C893 C877 1.349 . S
C893 H885 0.950 . S
C893 C891 1.327 . S
C894 C882 1.349 . S
C894 H888 0.950 . S
C894 C895 1.327 . S
C895 H889 0.950 . S
C895 C894 1.327 . S
C895 C899 1.429 . S
C896 C879 1.574 . S
C896 H890 0.949 . S
C896 C900 1.368 . S
C897 C878 1.429 . S
C897 C891 1.429 . S
C897 C898 1.523 . S
C898 C879 1.368 . S
C898 C892 1.368 . S
C898 C897 1.523 . S
C899 C883 1.429 . S
C899 C895 1.429 . S
C899 C900 1.523 . S
C900 C884 1.368 . S
C900 C896 1.368 . S
C900 C899 1.523 . S
H901 C876 0.950 . S
H902 C878 0.950 . S
H903 C879 0.949 . S
H904 C881 0.950 . S
H905 C883 0.950 . S
C906 C907 1.349 . S
C906 C908 1.327 . S
C906 H931 0.950 . S
C907 C906 1.349 . S
C907 C923 1.349 . S
C908 C906 1.327 . S
C908 C927 1.429 . S
C908 H932 0.950 . S
C909 C926 1.574 . S
C909 C928 1.368 . S
C909 H933 0.949 . S
H910 C914 0.949 . S
C911 C912 1.349 . S
C911 C913 1.327 1_554 S
C911 H934 0.950 . S
C912 C911 1.349 . S
C912 C924 1.349 . S
C913 C911 1.327 1_556 S
C913 C929 1.429 . S
C913 H935 0.950 . S
C914 H910 0.949 . S
C914 C922 1.574 . S
C914 C930 1.368 . S
H915 C923 0.950 . S
H916 C921 0.950 . S
H917 C922 0.949 . S
H918 C924 0.950 . S
H919 C925 0.971 . S
H920 C926 0.949 . S
C921 H916 0.950 . S
C921 C923 1.327 . S
C921 C927 1.429 . S
C922 C914 1.574 . S
C922 H917 0.949 . S
C922 C928 1.368 . S
C923 C907 1.349 . S
C923 H915 0.950 . S
C923 C921 1.327 . S
C924 C912 1.349 . S
C924 H918 0.950 . S
C924 C925 1.281 1_554 S
C925 H919 0.971 . S
C925 C924 1.281 1_556 S
C925 C929 1.458 . S
C926 C909 1.574 . S
C926 H920 0.949 . S
C926 C930 1.368 . S
C927 C908 1.429 . S
C927 C921 1.429 . S
C927 C928 1.523 . S
C928 C909 1.368 . S
C928 C922 1.368 . S
C928 C927 1.523 . S
C929 C913 1.429 . S
C929 C925 1.458 . S
C929 C930 1.523 . S
C930 C914 1.368 . S
C930 C926 1.368 . S
C930 C929 1.523 . S
H931 C906 0.950 . S
H932 C908 0.950 . S
H933 C909 0.949 . S
H934 C911 0.950 . S
H935 C913 0.950 . S
C936 C937 1.349 . S
C936 C938 1.327 . S
C936 H961 0.950 . S
C937 C936 1.349 . S
C937 C953 1.349 . S
C938 C936 1.327 . S
C938 C957 1.429 . S
C938 H962 0.950 . S
C939 C956 1.574 . S
C939 C958 1.368 . S
C939 H963 0.949 . S
H940 C944 0.949 . S
C941 C942 1.349 . S
C941 C943 1.327 . S
C941 H964 0.950 . S
C942 C941 1.349 . S
C942 C954 1.349 . S
C943 C941 1.327 . S
C943 C959 1.429 . S
C943 H965 0.950 . S
C944 H940 0.949 . S
C944 C952 1.574 . S
C944 C960 1.368 . S
H945 C953 0.950 . S
H946 C951 0.950 . S
H947 C952 0.949 . S
H948 C954 0.950 . S
H949 C955 0.950 . S
H950 C956 0.949 . S
C951 H946 0.950 . S
C951 C953 1.327 . S
C951 C957 1.429 . S
C952 C944 1.574 . S
C952 H947 0.949 . S
C952 C958 1.368 . S
C953 C937 1.349 . S
C953 H945 0.950 . S
C953 C951 1.327 . S
C954 C942 1.349 . S
C954 H948 0.950 . S
C954 C955 1.327 . S
C955 H949 0.950 . S
C955 C954 1.327 . S
C955 C959 1.429 . S
C956 C939 1.574 . S
C956 H950 0.949 . S
C956 C960 1.368 . S
C957 C938 1.429 . S
C957 C951 1.429 . S
C957 C958 1.523 . S
C958 C939 1.368 . S
C958 C952 1.368 . S
C958 C957 1.523 . S
C959 C943 1.429 . S
C959 C955 1.429 . S
C959 C960 1.523 . S
C960 C944 1.368 . S
C960 C956 1.368 . S
C960 C959 1.523 . S
H961 C936 0.950 . S
H962 C938 0.950 . S
H963 C939 0.949 . S
H964 C941 0.950 . S
H965 C943 0.950 . S
C966 C967 1.349 . S
C966 C968 1.327 . S
C966 H991 0.950 . S
C967 C966 1.349 . S
C967 C983 1.349 . S
C968 C966 1.327 . S
C968 C987 1.429 . S
C968 H992 0.950 . S
C969 C986 1.574 . S
C969 C988 1.368 . S
C969 H993 0.949 . S
H970 C974 0.949 . S
C971 C972 1.349 . S
C971 C973 1.327 . S
C971 H994 0.950 . S
C972 C971 1.349 . S
C972 C984 1.349 . S
C973 C971 1.327 . S
C973 C989 1.429 . S
C973 H995 0.950 . S
C974 H970 0.949 . S
C974 C982 1.574 . S
C974 C990 1.368 . S
H975 C983 0.950 . S
H976 C981 0.950 . S
H977 C982 0.949 . S
H978 C984 0.950 . S
H979 C985 0.950 . S
H980 C986 0.949 . S
C981 H976 0.950 . S
C981 C983 1.327 . S
C981 C987 1.429 . S
C982 C974 1.574 . S
C982 H977 0.949 . S
C982 C988 1.368 . S
C983 C967 1.349 . S
C983 H975 0.950 . S
C983 C981 1.327 . S
C984 C972 1.349 . S
C984 H978 0.950 . S
C984 C985 1.327 . S
C985 H979 0.950 . S
C985 C984 1.327 . S
C985 C989 1.429 . S
C986 C969 1.574 . S
C986 H980 0.949 . S
C986 C990 1.368 . S
C987 C968 1.429 . S
C987 C981 1.429 . S
C987 C988 1.523 . S
C988 C969 1.368 . S
C988 C982 1.368 . S
C988 C987 1.523 . S
C989 C973 1.429 . S
C989 C985 1.429 . S
C989 C990 1.523 . S
C990 C974 1.368 . S
C990 C986 1.368 . S
C990 C989 1.523 . S
H991 C966 0.950 . S
H992 C968 0.950 . S
H993 C969 0.949 . S
H994 C971 0.950 . S
H995 C973 0.950 . S
C996 C997 1.349 . S
C996 C998 1.327 . S
C996 H1021 0.950 . S
C997 C996 1.349 . S
C997 C1013 1.349 . S
C998 C996 1.327 . S
C998 C1017 1.429 . S
C998 H1022 0.950 . S
C999 C1016 1.574 . S
C999 C1018 1.368 . S
C999 H1023 0.949 . S
H1000 C1004 0.949 . S
C1001 C1002 1.349 . S
C1001 C1003 1.327 . S
C1001 H1024 0.950 . S
C1002 C1001 1.349 . S
C1002 C1014 1.349 . S
C1003 C1001 1.327 . S
C1003 C1019 1.429 . S
C1003 H1025 0.950 . S
C1004 H1000 0.949 . S
C1004 C1012 1.574 . S
C1004 C1020 1.368 . S
H1005 C1013 0.950 . S
H1006 C1011 0.950 . S
H1007 C1012 0.949 . S
H1008 C1014 0.950 . S
H1009 C1015 0.950 . S
H1010 C1016 0.949 . S
C1011 H1006 0.950 . S
C1011 C1013 1.327 . S
C1011 C1017 1.429 . S
C1012 C1004 1.574 . S
C1012 H1007 0.949 . S
C1012 C1018 1.368 . S
C1013 C997 1.349 . S
C1013 H1005 0.950 . S
C1013 C1011 1.327 . S
C1014 C1002 1.349 . S
C1014 H1008 0.950 . S
C1014 C1015 1.327 . S
C1015 H1009 0.950 . S
C1015 C1014 1.327 . S
C1015 C1019 1.429 . S
C1016 C999 1.574 . S
C1016 H1010 0.949 . S
C1016 C1020 1.368 . S
C1017 C998 1.429 . S
C1017 C1011 1.429 . S
C1017 C1018 1.523 . S
C1018 C999 1.368 . S
C1018 C1012 1.368 . S
C1018 C1017 1.523 . S
C1019 C1003 1.429 . S
C1019 C1015 1.429 . S
C1019 C1020 1.523 . S
C1020 C1004 1.368 . S
C1020 C1016 1.368 . S
C1020 C1019 1.523 . S
H1021 C996 0.950 . S
H1022 C998 0.950 . S
H1023 C999 0.949 . S
H1024 C1001 0.950 . S
H1025 C1003 0.950 . S
C1026 C1027 1.349 . S
C1026 C1028 1.327 . S
C1026 H1051 0.950 . S
C1027 C1026 1.349 . S
C1027 C1043 1.349 . S
C1028 C1026 1.327 . S
C1028 C1047 1.429 . S
C1028 H1052 0.950 . S
C1029 C1046 1.574 . S
C1029 C1048 1.368 . S
C1029 H1053 0.949 . S
H1030 C1034 0.949 . S
C1031 C1032 1.349 . S
C1031 C1033 1.327 . S
C1031 H1054 0.950 . S
C1032 C1031 1.349 . S
C1032 C1044 1.349 . S
C1033 C1031 1.327 . S
C1033 C1049 1.429 . S
C1033 H1055 0.950 . S
C1034 H1030 0.949 . S
C1034 C1042 1.574 . S
C1034 C1050 1.368 . S
H1035 C1043 0.950 . S
H1036 C1041 0.950 . S
H1037 C1042 0.949 . S
H1038 C1044 0.950 . S
H1039 C1045 0.950 . S
H1040 C1046 0.949 . S
C1041 H1036 0.950 . S
C1041 C1043 1.327 . S
C1041 C1047 1.429 . S
C1042 C1034 1.574 . S
C1042 H1037 0.949 . S
C1042 C1048 1.368 . S
C1043 C1027 1.349 . S
C1043 H1035 0.950 . S
C1043 C1041 1.327 . S
C1044 C1032 1.349 . S
C1044 H1038 0.950 . S
C1044 C1045 1.327 . S
C1045 H1039 0.950 . S
C1045 C1044 1.327 . S
C1045 C1049 1.429 . S
C1046 C1029 1.574 . S
C1046 H1040 0.949 . S
C1046 C1050 1.368 . S
C1047 C1028 1.429 . S
C1047 C1041 1.429 . S
C1047 C1048 1.523 . S
C1048 C1029 1.368 . S
C1048 C1042 1.368 . S
C1048 C1047 1.523 . S
C1049 C1033 1.429 . S
C1049 C1045 1.429 . S
C1049 C1050 1.523 . S
C1050 C1034 1.368 . S
C1050 C1046 1.368 . S
C1050 C1049 1.523 . S
H1051 C1026 0.950 . S
H1052 C1028 0.950 . S
H1053 C1029 0.949 . S
H1054 C1031 0.950 . S
H1055 C1033 0.950 . S
C1056 C1057 1.349 . S
C1056 C1058 1.327 . S
C1056 H1081 0.950 . S
C1057 C1056 1.349 . S
C1057 C1073 1.349 . S
C1058 C1056 1.327 . S
C1058 C1077 1.429 . S
C1058 H1082 0.950 . S
C1059 C1076 1.574 . S
C1059 C1078 1.368 . S
C1059 H1083 0.949 . S
H1060 C1064 0.949 . S
C1061 C1062 1.349 . S
C1061 C1063 1.327 . S
C1061 H1084 0.950 . S
C1062 C1061 1.349 . S
C1062 C1074 1.349 . S
C1063 C1061 1.327 . S
C1063 C1079 1.429 . S
C1063 H1085 0.950 . S
C1064 H1060 0.949 . S
C1064 C1072 1.574 . S
C1064 C1080 1.368 . S
H1065 C1073 0.950 . S
H1066 C1071 0.950 . S
H1067 C1072 0.949 . S
H1068 C1074 0.950 . S
H1069 C1075 0.950 . S
H1070 C1076 0.949 . S
C1071 H1066 0.950 . S
C1071 C1073 1.327 . S
C1071 C1077 1.429 . S
C1072 C1064 1.574 . S
C1072 H1067 0.949 . S
C1072 C1078 1.368 . S
C1073 C1057 1.349 . S
C1073 H1065 0.950 . S
C1073 C1071 1.327 . S
C1074 C1062 1.349 . S
C1074 H1068 0.950 . S
C1074 C1075 1.327 . S
C1075 H1069 0.950 . S
C1075 C1074 1.327 . S
C1075 C1079 1.429 . S
C1076 C1059 1.574 . S
C1076 H1070 0.949 . S
C1076 C1080 1.368 . S
C1077 C1058 1.429 . S
C1077 C1071 1.429 . S
C1077 C1078 1.523 . S
C1078 C1059 1.368 . S
C1078 C1072 1.368 . S
C1078 C1077 1.523 . S
C1079 C1063 1.429 . S
C1079 C1075 1.429 . S
C1079 C1080 1.523 . S
C1080 C1064 1.368 . S
C1080 C1076 1.368 . S
C1080 C1079 1.523 . S
H1081 C1056 0.950 . S
H1082 C1058 0.950 . S
H1083 C1059 0.949 . S
H1084 C1061 0.950 . S
H1085 C1063 0.950 . S
C1086 C1087 1.349 . S
C1086 C1088 1.327 . S
C1086 H1111 0.950 . S
C1087 C1086 1.349 . S
C1087 C1103 1.349 . S
C1088 C1086 1.327 . S
C1088 C1107 1.429 . S
C1088 H1112 0.950 . S
C1089 C1106 1.574 . S
C1089 C1108 1.368 . S
C1089 H1113 0.949 . S
H1090 C1094 0.949 . S
C1091 C1092 1.349 . S
C1091 C1093 1.327 . S
C1091 H1114 0.950 . S
C1092 C1091 1.349 . S
C1092 C1104 1.349 . S
C1093 C1091 1.327 . S
C1093 C1109 1.429 . S
C1093 H1115 0.950 . S
C1094 H1090 0.949 . S
C1094 C1102 1.574 . S
C1094 C1110 1.368 . S
H1095 C1103 0.950 . S
H1096 C1101 0.950 . S
H1097 C1102 0.949 . S
H1098 C1104 0.950 . S
H1099 C1105 0.950 . S
H1100 C1106 0.949 . S
C1101 H1096 0.950 . S
C1101 C1103 1.327 . S
C1101 C1107 1.429 . S
C1102 C1094 1.574 . S
C1102 H1097 0.949 . S
C1102 C1108 1.368 . S
C1103 C1087 1.349 . S
C1103 H1095 0.950 . S
C1103 C1101 1.327 . S
C1104 C1092 1.349 . S
C1104 H1098 0.950 . S
C1104 C1105 1.327 . S
C1105 H1099 0.950 . S
C1105 C1104 1.327 . S
C1105 C1109 1.429 . S
C1106 C1089 1.574 . S
C1106 H1100 0.949 . S
C1106 C1110 1.368 . S
C1107 C1088 1.429 . S
C1107 C1101 1.429 . S
C1107 C1108 1.523 . S
C1108 C1089 1.368 . S
C1108 C1102 1.368 . S
C1108 C1107 1.523 . S
C1109 C1093 1.429 . S
C1109 C1105 1.429 . S
C1109 C1110 1.523 . S
C1110 C1094 1.368 . S
C1110 C1106 1.368 . S
C1110 C1109 1.523 . S
H1111 C1086 0.950 . S
H1112 C1088 0.950 . S
H1113 C1089 0.949 . S
H1114 C1091 0.950 . S
H1115 C1093 0.950 . S
C1116 C1117 1.349 . S
C1116 C1118 1.327 . S
C1116 H1141 0.950 . S
C1117 C1116 1.349 . S
C1117 C1133 1.349 . S
C1118 C1116 1.327 . S
C1118 C1137 1.429 . S
C1118 H1142 0.950 . S
C1119 C1136 1.574 1_554 S
C1119 C1138 1.368 . S
C1119 H1143 0.949 . S
H1120 C1124 0.949 . S
C1121 C1122 1.349 . S
C1121 C1123 1.327 . S
C1121 H1144 0.950 . S
C1122 C1121 1.349 . S
C1122 C1134 1.349 . S
C1123 C1121 1.327 . S
C1123 C1139 1.429 . S
C1123 H1145 0.950 . S
C1124 H1120 0.949 . S
C1124 C1132 1.574 1_556 S
C1124 C1140 1.368 . S
H1125 C1133 0.950 . S
H1126 C1131 0.950 . S
H1127 C1132 0.949 . S
H1128 C1134 0.950 . S
H1129 C1135 0.950 . S
H1130 C1136 0.949 . S
C1131 H1126 0.950 . S
C1131 C1133 1.327 . S
C1131 C1137 1.429 . S
C1132 C1124 1.574 1_554 S
C1132 H1127 0.949 . S
C1132 C1138 1.368 . S
C1133 C1117 1.349 . S
C1133 H1125 0.950 . S
C1133 C1131 1.327 . S
C1134 C1122 1.349 . S
C1134 H1128 0.950 . S
C1134 C1135 1.327 . S
C1135 H1129 0.950 . S
C1135 C1134 1.327 . S
C1135 C1139 1.429 . S
C1136 C1119 1.574 1_556 S
C1136 H1130 0.949 . S
C1136 C1140 1.368 . S
C1137 C1118 1.429 . S
C1137 C1131 1.429 . S
C1137 C1138 1.523 . S
C1138 C1119 1.368 . S
C1138 C1132 1.368 . S
C1138 C1137 1.523 . S
C1139 C1123 1.429 . S
C1139 C1135 1.429 . S
C1139 C1140 1.523 . S
C1140 C1124 1.368 . S
C1140 C1136 1.368 . S
C1140 C1139 1.523 . S
H1141 C1116 0.950 . S
H1142 C1118 0.950 . S
H1143 C1119 0.949 . S
H1144 C1121 0.950 . S
H1145 C1123 0.950 . S
C1146 C1147 1.349 . S
C1146 C1148 1.327 . S
C1146 H1171 0.950 . S
C1147 C1146 1.349 . S
C1147 C1163 1.349 . S
C1148 C1146 1.327 . S
C1148 C1167 1.429 . S
C1148 H1172 0.950 . S
C1149 C1166 1.574 . S
C1149 C1168 1.368 . S
C1149 H1173 0.949 . S
H1150 C1154 0.949 . S
C1151 C1152 1.349 . S
C1151 C1153 1.327 . S
C1151 H1174 0.950 . S
C1152 C1151 1.349 . S
C1152 C1164 1.349 . S
C1153 C1151 1.327 . S
C1153 C1169 1.429 . S
C1153 H1175 0.950 . S
C1154 H1150 0.949 . S
C1154 C1162 1.574 . S
C1154 C1170 1.368 . S
H1155 C1163 0.950 . S
H1156 C1161 0.950 . S
H1157 C1162 0.949 . S
H1158 C1164 0.950 . S
H1159 C1165 0.950 . S
H1160 C1166 0.949 . S
C1161 H1156 0.950 . S
C1161 C1163 1.327 . S
C1161 C1167 1.429 . S
C1162 C1154 1.574 . S
C1162 H1157 0.949 . S
C1162 C1168 1.368 . S
C1163 C1147 1.349 . S
C1163 H1155 0.950 . S
C1163 C1161 1.327 . S
C1164 C1152 1.349 . S
C1164 H1158 0.950 . S
C1164 C1165 1.327 . S
C1165 H1159 0.950 . S
C1165 C1164 1.327 . S
C1165 C1169 1.429 . S
C1166 C1149 1.574 . S
C1166 H1160 0.949 . S
C1166 C1170 1.368 . S
C1167 C1148 1.429 . S
C1167 C1161 1.429 . S
C1167 C1168 1.523 . S
C1168 C1149 1.368 . S
C1168 C1162 1.368 . S
C1168 C1167 1.523 . S
C1169 C1153 1.429 . S
C1169 C1165 1.429 . S
C1169 C1170 1.523 . S
C1170 C1154 1.368 . S
C1170 C1166 1.368 . S
C1170 C1169 1.523 . S
H1171 C1146 0.950 . S
H1172 C1148 0.950 . S
H1173 C1149 0.949 . S
H1174 C1151 0.950 . S
H1175 C1153 0.950 . S
C462 C445 1.691 . S
C457 C29 1.589 . S
C487 C115 1.550 . S
C492 C375 1.570 . S
C517 C153 1.631 . S
C522 C394 1.732 . S
C547 C239 1.545 . S
C552 C403 1.569 . S
C582 C417 1.624 . S
C577 C301 1.600 . S
C607 C339 1.881 . S
C612 C436 1.997 . S
C637 C91 1.587 . S
C642 C389 1.691 . S
C667 C177 1.551 . S
C672 C408 1.577 . S
C697 C215 1.598 . S
C702 C422 1.693 . S
C732 C431 1.952 . S
C727 C277 1.833 . S
C762 C450 1.630 . S
C757 C363 1.600 . S
C792 C380 1.582 . S
C787 C53 1.559 . S
C817 C35 1.551 . S
C822 C395 1.566 . S
C847 C109 1.409 . S
C852 C407 1.487 . S
C882 C421 1.434 . S
C877 C159 1.443 . S
C907 C233 1.621 . S
C912 C437 1.721 . S
C942 C449 1.514 . S
C937 C295 1.417 . S
C972 C379 1.380 . S
C967 C345 1.381 . S
C1002 C451 1.462 . S
C997 C97 1.448 . S
C1027 C171 1.440 . S
C1032 C381 1.537 . S
C1062 C393 1.569 . S
C1057 C221 1.566 . S
C1087 C283 1.392 . S
C1092 C409 1.403 . S
C1117 C357 1.444 . S
C1122 C423 1.554 . S
C1147 C47 1.629 . S
C1152 C435 1.716 . S
