# Generated by pormake.
# Topology cml, (3,6)-cn, num edge types: 1
# Building blocks:
#     Node 0, Type 0, BuildingBlock: KAKCAD_clean_linker_0, # of connection points: 3
#     Node 1, Type 0, BuildingBlock: KAKCAD_clean_linker_0, # of connection points: 3
#     Node 2, Type 0, BuildingBlock: KAKCAD_clean_linker_0, # of connection points: 3
#     Node 3, Type 0, BuildingBlock: KAKCAD_clean_linker_0, # of connection points: 3
#     Node 4, Type 0, BuildingBlock: KAKCAD_clean_linker_0, # of connection points: 3
#     Node 5, Type 0, BuildingBlock: KAKCAD_clean_linker_0, # of connection points: 3
#     Node 6, Type 0, BuildingBlock: KAKCAD_clean_linker_0, # of connection points: 3
#     Node 7, Type 0, BuildingBlock: KAKCAD_clean_linker_0, # of connection points: 3
#     Node 8, Type 1, BuildingBlock: OJICUG_clean_sbu_0, # of connection points: 6
#     Node 9, Type 1, BuildingBlock: OJICUG_clean_sbu_0, # of connection points: 6
#     Node 10, Type 1, BuildingBlock: OJICUG_clean_sbu_0, # of connection points: 6
#     Node 11, Type 1, BuildingBlock: OJICUG_clean_sbu_0, # of connection points: 6
#     Edge 12, Type (0, 1), BuildingBlock: ZUJKAS_clean_linker_0, # of connection points: 2
#     Edge 13, Type (0, 1), BuildingBlock: ZUJKAS_clean_linker_0, # of connection points: 2
#     Edge 14, Type (0, 1), BuildingBlock: ZUJKAS_clean_linker_0, # of connection points: 2
#     Edge 15, Type (0, 1), BuildingBlock: ZUJKAS_clean_linker_0, # of connection points: 2
#     Edge 16, Type (0, 1), BuildingBlock: ZUJKAS_clean_linker_0, # of connection points: 2
#     Edge 17, Type (0, 1), BuildingBlock: ZUJKAS_clean_linker_0, # of connection points: 2
#     Edge 18, Type (0, 1), BuildingBlock: ZUJKAS_clean_linker_0, # of connection points: 2
#     Edge 19, Type (0, 1), BuildingBlock: ZUJKAS_clean_linker_0, # of connection points: 2
#     Edge 20, Type (0, 1), BuildingBlock: ZUJKAS_clean_linker_0, # of connection points: 2
#     Edge 21, Type (0, 1), BuildingBlock: ZUJKAS_clean_linker_0, # of connection points: 2
#     Edge 22, Type (0, 1), BuildingBlock: ZUJKAS_clean_linker_0, # of connection points: 2
#     Edge 23, Type (0, 1), BuildingBlock: ZUJKAS_clean_linker_0, # of connection points: 2
#     Edge 24, Type (0, 1), BuildingBlock: ZUJKAS_clean_linker_0, # of connection points: 2
#     Edge 25, Type (0, 1), BuildingBlock: ZUJKAS_clean_linker_0, # of connection points: 2
#     Edge 26, Type (0, 1), BuildingBlock: ZUJKAS_clean_linker_0, # of connection points: 2
#     Edge 27, Type (0, 1), BuildingBlock: ZUJKAS_clean_linker_0, # of connection points: 2
#     Edge 28, Type (0, 1), BuildingBlock: ZUJKAS_clean_linker_0, # of connection points: 2
#     Edge 29, Type (0, 1), BuildingBlock: ZUJKAS_clean_linker_0, # of connection points: 2
#     Edge 30, Type (0, 1), BuildingBlock: ZUJKAS_clean_linker_0, # of connection points: 2
#     Edge 31, Type (0, 1), BuildingBlock: ZUJKAS_clean_linker_0, # of connection points: 2
#     Edge 32, Type (0, 1), BuildingBlock: ZUJKAS_clean_linker_0, # of connection points: 2
#     Edge 33, Type (0, 1), BuildingBlock: ZUJKAS_clean_linker_0, # of connection points: 2
#     Edge 34, Type (0, 1), BuildingBlock: ZUJKAS_clean_linker_0, # of connection points: 2
#     Edge 35, Type (0, 1), BuildingBlock: ZUJKAS_clean_linker_0, # of connection points: 2
# Relax obj value: 0.072
# Max RMSD: 0.084
# Mean RMSD: 0.080
data_MOF--net-cml--node1-OJICUG_clean_sbu_0--node2-KAKCAD_clean_linker_0--edge1-ZUJKAS_clean_linker_0
_symmetry_space_group_name_H-M    P1
_symmetry_Int_Tables_number       1
_symmetry_cell_setting            triclinic
loop_
_symmetry_equiv_pos_as_xyz
'x, y, z'
_cell_length_a     58.907302
_cell_length_b     59.44534
_cell_length_c     56.07403
_cell_angle_alpha  89.948474
_cell_angle_beta   90.062927
_cell_angle_gamma 90.120116
loop_
_atom_site_label
_atom_site_type_symbol
_atom_site_fract_x
_atom_site_fract_y
_atom_site_fract_z
_atom_type_partial_charge
C0 C 0.28222 0.4761 0.96446 0.0
C1 C 0.30575 0.47612 0.9604 0.0
C2 C 0.27198 0.45821 0.97666 0.0
C3 C 0.28522 0.44036 0.98536 0.0
C4 C 0.30876 0.44056 0.98148 0.0
C5 C 0.3189 0.4582 0.96904 0.0
C6 C 0.27472 0.42113 0.99797 0.0
C7 C 0.25645 0.40949 0.98774 0.0
C8 C 0.24826 0.3896 0.9982 0.0
C9 C 0.25818 0.38171 0.01943 0.0
C10 C 0.27628 0.3934 0.03008 0.0
C11 C 0.28429 0.41321 0.01927 0.0
C12 C 0.28764 0.38451 0.05179 0.0
C13 C 0.275 0.37503 0.07057 0.0
C14 C 0.3114 0.3856 0.05387 0.0
C15 C 0.32222 0.37802 0.07446 0.0
C16 C 0.30959 0.36897 0.0934 0.0
C17 C 0.23064 0.37617 0.98583 0.0
C18 C 0.21127 0.38658 0.97625 0.0
C19 C 0.23371 0.35296 0.98248 0.0
C20 C 0.21794 0.34048 0.96941 0.0
C21 C 0.19871 0.35092 0.95958 0.0
C22 C 0.19538 0.37404 0.96336 0.0
C23 C 0.2859 0.36725 0.09117 0.0
H24 H 0.27175 0.48975 0.95792 0.0
H25 H 0.25379 0.4584 0.97947 0.0
H26 H 0.3193 0.42688 0.98779 0.0
H27 H 0.33711 0.45794 0.96634 0.0
H28 H 0.2495 0.41519 0.97087 0.0
H29 H 0.29817 0.42249 0.02733 0.0
H30 H 0.25215 0.36615 0.0273 0.0
H31 H 0.25666 0.37408 0.06958 0.0
H32 H 0.32172 0.39222 0.03951 0.0
H33 H 0.34056 0.37912 0.07552 0.0
H34 H 0.20849 0.40445 0.97866 0.0
H35 H 0.24861 0.34455 0.98943 0.0
H36 H 0.27577 0.36043 0.10559 0.0
H37 H 0.18074 0.38251 0.95588 0.0
H38 H 0.22079 0.32263 0.96699 0.0
C39 C 0.71293 0.52006 0.46527 0.0
C40 C 0.68947 0.52099 0.46082 0.0
C41 C 0.7236 0.53715 0.4783 0.0
C42 C 0.71089 0.55516 0.48742 0.0
C43 C 0.68741 0.5559 0.48316 0.0
C44 C 0.67683 0.53904 0.46991 0.0
C45 C 0.72196 0.57362 0.50078 0.0
C46 C 0.7411 0.58449 0.49139 0.0
C47 C 0.7503 0.6035 0.50273 0.0
C48 C 0.74025 0.61141 0.52385 0.0
C49 C 0.72115 0.60059 0.53363 0.0
C50 C 0.71235 0.58151 0.52205 0.0
C51 C 0.70968 0.60979 0.55517 0.0
C52 C 0.72224 0.61951 0.57388 0.0
C53 C 0.68589 0.60913 0.55701 0.0
C54 C 0.67496 0.61763 0.5771 0.0
C55 C 0.68745 0.62751 0.59577 0.0
C56 C 0.76946 0.61588 0.4916 0.0
C57 C 0.78762 0.60419 0.48114 0.0
C58 C 0.76928 0.6395 0.49058 0.0
C59 C 0.78676 0.65117 0.47919 0.0
C60 C 0.80476 0.63948 0.46848 0.0
C61 C 0.80508 0.61587 0.46966 0.0
C62 C 0.71125 0.62838 0.59387 0.0
H63 H 0.72303 0.50632 0.4584 0.0
H64 H 0.74173 0.53622 0.4814 0.0
H65 H 0.67726 0.56973 0.48977 0.0
H66 H 0.65868 0.54002 0.46696 0.0
H67 H 0.74808 0.57883 0.47456 0.0
H68 H 0.69785 0.57272 0.52948 0.0
H69 H 0.74704 0.62632 0.53238 0.0
H70 H 0.7406 0.62012 0.57323 0.0
H71 H 0.67556 0.60221 0.54282 0.0
H72 H 0.65666 0.61619 0.57803 0.0
H73 H 0.78837 0.586 0.48188 0.0
H74 H 0.75532 0.649 0.49804 0.0
H75 H 0.72145 0.63605 0.60774 0.0
H76 H 0.8189 0.60644 0.46182 0.0
H77 H 0.78587 0.66935 0.47825 0.0
C78 C 0.69931 0.46215 0.95492 0.0
C79 C 0.69204 0.48099 0.96789 0.0
C80 C 0.712 0.44534 0.96596 0.0
C81 C 0.71772 0.44697 0.99024 0.0
C82 C 0.71095 0.46609 0.0031 0.0
C83 C 0.69829 0.483 0.992 0.0
C84 C 0.72961 0.4281 0.00218 0.0
C85 C 0.74723 0.41682 0.99045 0.0
C86 C 0.75649 0.39699 -9e-05 0.0
C87 C 0.74858 0.38899 0.02199 0.0
C88 C 0.73128 0.40036 0.03427 0.0
C89 C 0.72194 0.41995 0.02424 0.0
C90 C 0.72149 0.39086 0.0565 0.0
C91 C 0.71663 0.36775 0.05823 0.0
C92 C 0.71552 0.40505 0.07551 0.0
C93 C 0.70416 0.39647 0.09539 0.0
C94 C 0.6985 0.37352 0.0967 0.0
C95 C 0.77312 0.38381 0.98579 0.0
C96 C 0.7703 0.38157 0.961 0.0
C97 C 0.79145 0.37289 0.99689 0.0
C98 C 0.80647 0.35985 0.9835 0.0
C99 C 0.80352 0.35752 0.95872 0.0
C100 C 0.78537 0.36871 0.94763 0.0
C101 C 0.70526 0.35917 0.07812 0.0
H102 H 0.69496 0.46027 0.93625 0.0
H103 H 0.71671 0.43069 0.95562 0.0
H104 H 0.71524 0.46785 0.0218 0.0
H105 H 0.69278 0.49729 0.00246 0.0
H106 H 0.75345 0.42332 0.97362 0.0
H107 H 0.70775 0.42811 0.03294 0.0
H108 H 0.75539 0.37353 0.0293 0.0
H109 H 0.7208 0.3564 0.0438 0.0
H110 H 0.71924 0.42289 0.07479 0.0
H111 H 0.69901 0.40803 0.10928 0.0
H112 H 0.75615 0.38942 0.9519 0.0
H113 H 0.79419 0.37442 0.01592 0.0
H114 H 0.70137 0.34137 0.07873 0.0
H115 H 0.78278 0.36754 0.92855 0.0
H116 H 0.82013 0.35125 0.99265 0.0
C117 C 0.28545 0.62609 0.59097 0.0
C118 C 0.30929 0.62657 0.59225 0.0
C119 C 0.27454 0.61643 0.57127 0.0
C120 C 0.28731 0.60684 0.55274 0.0
C121 C 0.31111 0.60742 0.55405 0.0
C122 C 0.32196 0.61718 0.57355 0.0
C123 C 0.27613 0.59638 0.53181 0.0
C124 C 0.25877 0.60766 0.51959 0.0
C125 C 0.24981 0.59883 0.49831 0.0
C126 C 0.25834 0.5784 0.48945 0.0
C127 C 0.27569 0.56686 0.50152 0.0
C128 C 0.28412 0.57581 0.52295 0.0
C129 C 0.28618 0.54641 0.49097 0.0
C130 C 0.27305 0.53053 0.47841 0.0
C131 C 0.30977 0.54311 0.49265 0.0
C132 C 0.31997 0.52449 0.48209 0.0
C133 C 0.30691 0.50888 0.46926 0.0
C134 C 0.23256 0.61167 0.48462 0.0
C135 C 0.21482 0.62281 0.49643 0.0
C136 C 0.23411 0.61343 0.45966 0.0
C137 C 0.2184 0.62618 0.44685 0.0
C138 C 0.20084 0.63758 0.45869 0.0
C139 C 0.19916 0.63565 0.48362 0.0
C140 C 0.28335 0.51202 0.4675 0.0
H141 H 0.27529 0.63326 0.60513 0.0
H142 H 0.25616 0.61617 0.57068 0.0
H143 H 0.32139 0.60043 0.53988 0.0
H144 H 0.34034 0.61701 0.57418 0.0
H145 H 0.25309 0.62389 0.526 0.0
H146 H 0.2972 0.5669 0.53271 0.0
H147 H 0.25184 0.5718 0.47278 0.0
H148 H 0.25481 0.53237 0.47699 0.0
H149 H 0.32056 0.55523 0.5016 0.0
H150 H 0.33823 0.52268 0.48333 0.0
H151 H 0.21306 0.62164 0.51562 0.0
H152 H 0.24775 0.60533 0.45002 0.0
H153 H 0.27293 0.50013 0.45775 0.0
H154 H 0.18601 0.64442 0.49334 0.0
H155 H 0.22002 0.62709 0.42763 0.0
C156 C 0.78601 0.9753 0.97268 0.0
C157 C 0.80987 0.97544 0.97228 0.0
C158 C 0.77424 0.95774 0.98381 0.0
C159 C 0.78612 0.93999 0.99471 0.0
C160 C 0.80996 0.94008 0.99405 0.0
C161 C 0.82169 0.95759 0.983 0.0
C162 C 0.77387 0.9212 0.0065 0.0
C163 C 0.75492 0.9112 0.99558 0.0
C164 C 0.74432 0.8923 0.00584 0.0
C165 C 0.75269 0.88372 0.02752 0.0
C166 C 0.77184 0.8933 0.03837 0.0
C167 C 0.78209 0.91221 0.02798 0.0
C168 C 0.7825 0.88242 0.05929 0.0
C169 C 0.76964 0.87625 0.07936 0.0
C170 C 0.80587 0.87786 0.059 0.0
C171 C 0.81625 0.86746 0.0784 0.0
C172 C 0.80354 0.86151 0.09862 0.0
C173 C 0.7259 0.88039 0.99284 0.0
C174 C 0.70928 0.89242 0.98014 0.0
C175 C 0.72547 0.85675 0.99211 0.0
C176 C 0.70901 0.84543 0.97884 0.0
C177 C 0.69269 0.85743 0.96572 0.0
C178 C 0.69288 0.88107 0.96668 0.0
C179 C 0.78013 0.86605 0.09899 0.0
H180 H 0.77647 0.98892 0.96468 0.0
H181 H 0.75586 0.95819 0.98417 0.0
H182 H 0.81962 0.92639 0.00176 0.0
H183 H 0.84006 0.95695 0.98252 0.0
H184 H 0.74922 0.91739 0.97841 0.0
H185 H 0.79673 0.91978 0.03656 0.0
H186 H 0.74487 0.86902 0.03553 0.0
H187 H 0.75158 0.87961 0.07997 0.0
H188 H 0.81612 0.8822 0.04363 0.0
H189 H 0.83437 0.86445 0.07775 0.0
H190 H 0.709 0.91063 0.98049 0.0
H191 H 0.7382 0.84691 0.00134 0.0
H192 H 0.76997 0.86161 0.11439 0.0
H193 H 0.68064 0.89084 0.95667 0.0
H194 H 0.70913 0.82722 0.97886 0.0
C195 C 0.20819 0.02652 0.45907 0.0
C196 C 0.18435 0.02683 0.45784 0.0
C197 C 0.21991 0.04315 0.47172 0.0
C198 C 0.20802 0.06039 0.48343 0.0
C199 C 0.18421 0.06073 0.48207 0.0
C200 C 0.17252 0.04413 0.46948 0.0
C201 C 0.22031 0.07805 0.49699 0.0
C202 C 0.23991 0.08812 0.48756 0.0
C203 C 0.25105 0.10559 0.49982 0.0
C204 C 0.2425 0.11269 0.52198 0.0
C205 C 0.22271 0.10303 0.53139 0.0
C206 C 0.21186 0.08561 0.51895 0.0
C207 C 0.21243 0.11199 0.55345 0.0
C208 C 0.22531 0.1145 0.57438 0.0
C209 C 0.18938 0.11792 0.55361 0.0
C210 C 0.17928 0.12597 0.57438 0.0
C211 C 0.19196 0.12802 0.59548 0.0
C212 C 0.27046 0.11749 0.48852 0.0
C213 C 0.28676 0.10559 0.47531 0.0
C214 C 0.27207 0.14106 0.48976 0.0
C215 C 0.28925 0.15248 0.47764 0.0
C216 C 0.30512 0.14066 0.4638 0.0
C217 C 0.30388 0.11705 0.46303 0.0
C218 C 0.21509 0.12226 0.59533 0.0
H219 H 0.21779 0.0135 0.45014 0.0
H220 H 0.23826 0.04238 0.47256 0.0
H221 H 0.17456 0.07395 0.49061 0.0
H222 H 0.15415 0.0447 0.46917 0.0
H223 H 0.24584 0.08308 0.47007 0.0
H224 H 0.19677 0.07793 0.52645 0.0
H225 H 0.25081 0.12621 0.5316 0.0
H226 H 0.24312 0.11 0.57464 0.0
H227 H 0.17915 0.11632 0.53763 0.0
H228 H 0.16136 0.13003 0.57407 0.0
H229 H 0.28616 0.08741 0.47422 0.0
H230 H 0.25966 0.1508 0.49952 0.0
H231 H 0.22521 0.12374 0.61139 0.0
H232 H 0.31575 0.10743 0.45243 0.0
H233 H 0.28996 0.17064 0.47898 0.0
C234 C 0.20568 0.96724 0.95746 0.0
C235 C 0.19576 0.98497 0.97027 0.0
C236 C 0.21781 0.95048 0.96925 0.0
C237 C 0.22066 0.95117 0.99415 0.0
C238 C 0.21161 0.96945 0.00686 0.0
C239 C 0.19923 0.98614 0.99506 0.0
C240 C 0.23169 0.93207 0.00674 0.0
C241 C 0.2498 0.92057 0.9961 0.0
C242 C 0.25805 0.90043 0.00585 0.0
C243 C 0.24895 0.89252 0.02744 0.0
C244 C 0.23131 0.9042 0.03882 0.0
C245 C 0.22272 0.92389 0.02827 0.0
C246 C 0.22049 0.89505 0.06069 0.0
C247 C 0.21538 0.872 0.06258 0.0
C248 C 0.21398 0.90955 0.07923 0.0
C249 C 0.20188 0.90134 0.09878 0.0
C250 C 0.19606 0.87844 0.10025 0.0
C251 C 0.27469 0.88676 0.99232 0.0
C252 C 0.27248 0.88454 0.96746 0.0
C253 C 0.29227 0.87522 0.00402 0.0
C254 C 0.30716 0.86157 0.99114 0.0
C255 C 0.30478 0.85923 0.96629 0.0
C256 C 0.2874 0.87105 0.9546 0.0
C257 C 0.20332 0.86377 0.08219 0.0
H258 H 0.2037 0.96603 0.9383 0.0
H259 H 0.22423 0.93654 0.95885 0.0
H260 H 0.21373 0.97067 0.026 0.0
H261 H 0.1917 -0.0005 0.0055 0.0
H262 H 0.25718 0.92703 0.97977 0.0
H263 H 0.20815 0.9321 0.03616 0.0
H264 H 0.2551 0.87692 0.03504 0.0
H265 H 0.21989 0.86044 0.04845 0.0
H266 H 0.21799 0.92733 0.07847 0.0
H267 H 0.19683 0.91297 0.11264 0.0
H268 H 0.2589 0.89287 0.95791 0.0
H269 H 0.29451 0.87669 0.02313 0.0
H270 H 0.19888 0.84609 0.08272 0.0
H271 H 0.28528 0.86987 0.93546 0.0
H272 H 0.32025 0.85252 0.00071 0.0
C273 C 0.78254 0.12569 0.59178 0.0
C274 C 0.80615 0.12927 0.59182 0.0
C275 C 0.77182 0.11634 0.57179 0.0
C276 C 0.78461 0.11013 0.55173 0.0
C277 C 0.80812 0.11407 0.55168 0.0
C278 C 0.81875 0.12356 0.57146 0.0
C279 C 0.7738 0.09926 0.53085 0.0
C280 C 0.75447 0.10865 0.52017 0.0
C281 C 0.74567 0.09958 0.49891 0.0
C282 C 0.75608 0.08059 0.4888 0.0
C283 C 0.7754 0.07103 0.49932 0.0
C284 C 0.78396 0.08032 0.52049 0.0
C285 C 0.78777 0.05259 0.48721 0.0
C286 C 0.77606 0.0345 0.47672 0.0
C287 C 0.81154 0.05345 0.48545 0.0
C288 C 0.82336 0.03669 0.47338 0.0
C289 C 0.8117 0.0187 0.46268 0.0
C290 C 0.72699 0.11116 0.48613 0.0
C291 C 0.70824 0.11975 0.49859 0.0
C292 C 0.72837 0.11457 0.46137 0.0
C293 C 0.71157 0.12659 0.44937 0.0
C294 C 0.69301 0.13553 0.46184 0.0
C295 C 0.6914 0.13181 0.48656 0.0
C296 C 0.78793 0.01765 0.46462 0.0
H297 H 0.77242 0.13002 0.60721 0.0
H298 H 0.75366 0.11346 0.57224 0.0
H299 H 0.81834 0.10972 0.53631 0.0
H300 H 0.837 0.12582 0.57106 0.0
H301 H 0.74712 0.12378 0.52764 0.0
H302 H 0.7988 0.07294 0.52883 0.0
H303 H 0.74961 0.07374 0.47222 0.0
H304 H 0.75774 0.03335 0.4779 0.0
H305 H 0.82105 0.06733 0.49305 0.0
H306 H 0.8417 0.03781 0.4725 0.0
H307 H 0.70663 0.1172 0.51764 0.0
H308 H 0.74284 0.10856 0.45132 0.0
H309 H 0.7785 0.00402 0.45646 0.0
H310 H 0.67714 0.13826 0.49661 0.0
H311 H 0.71354 0.12951 0.43041 0.0
Sc312 Sc 0.00067 0.79479 0.31061 0.0
Sc313 Sc -0.00071 0.85411 0.3134 0.0
Sc314 Sc 0.00109 0.82246 0.3663 0.0
O315 O 0.00035 0.82376 0.33009 0.0
C316 C 0.96801 0.7816 0.35394 0.0
C317 C 0.96519 0.82475 0.28168 0.0
C318 C 0.96589 0.86235 0.35717 0.0
C319 C 0.03341 0.82678 0.28021 0.0
C320 C 0.03568 0.78331 0.35224 0.0
C321 C 0.03396 0.86397 0.35597 0.0
O322 O 0.97565 0.77861 0.33298 0.0
O323 O 0.97314 0.84334 0.28918 0.0
O324 O 0.97462 0.84711 0.37015 0.0
O325 O 0.02587 0.80746 0.286 0.0
O326 O 0.02748 0.79759 0.3667 0.0
O327 O 0.02538 0.86839 0.3357 0.0
O328 O 0.02805 0.78057 0.33121 0.0
O329 O 0.02556 0.84492 0.28883 0.0
O330 O 0.02706 0.84781 0.36894 0.0
O331 O 0.97322 0.8058 0.28796 0.0
O332 O 0.97533 0.79696 0.3677 0.0
O333 O 0.97287 0.86667 0.33622 0.0
Sc334 Sc -0.00199 0.19488 0.80991 0.0
Sc335 Sc 0.99775 0.1357 0.81551 0.0
Sc336 Sc 0.99701 0.16956 0.86684 0.0
O337 O 0.99758 0.16673 0.83073 0.0
C338 C 0.03133 0.20892 0.85219 0.0
C339 C 0.03251 0.16254 0.78246 0.0
C340 C 0.03107 0.12861 0.85985 0.0
C341 C 0.96423 0.16294 0.7811 0.0
C342 C 0.96349 0.20884 0.85126 0.0
C343 C 0.96299 0.12836 0.85827 0.0
O344 O 0.02446 0.21055 0.83075 0.0
O345 O 0.0249 0.14454 0.79175 0.0
O346 O 0.02355 0.14525 0.8716 0.0
O347 O 0.97158 0.1823 0.7869 0.0
O348 O 0.97063 0.19427 0.86603 0.0
O349 O 0.9707 0.12345 0.83777 0.0
O350 O 0.97187 0.21124 0.83052 0.0
O351 O 0.97235 0.14484 0.78964 0.0
O352 O 0.97104 0.14428 0.87085 0.0
O353 O 0.02419 0.18183 0.78683 0.0
O354 O 0.02278 0.19516 0.86704 0.0
O355 O 0.02313 0.12292 0.83964 0.0
Sc356 Sc 0.50134 0.29789 0.30828 0.0
Sc357 Sc 0.49937 0.35716 0.31238 0.0
Sc358 Sc 0.50146 0.32446 0.36452 0.0
O359 O 0.50073 0.32647 0.32837 0.0
C360 C 0.46858 0.2838 0.35125 0.0
C361 C 0.46566 0.32805 0.27992 0.0
C362 C 0.46594 0.36429 0.35619 0.0
C363 C 0.53385 0.33089 0.2787 0.0
C364 C 0.53613 0.28557 0.34969 0.0
C365 C 0.53418 0.36614 0.35515 0.0
O366 O 0.47665 0.28099 0.33043 0.0
O367 O 0.47362 0.34655 0.28763 0.0
O368 O 0.47526 0.34931 0.36907 0.0
O369 O 0.52634 0.31142 0.28394 0.0
O370 O 0.52762 0.29937 0.36446 0.0
O371 O 0.52504 0.37143 0.33537 0.0
O372 O 0.52885 0.28342 0.32846 0.0
O373 O 0.52599 0.3488 0.28786 0.0
O374 O 0.52779 0.34934 0.36745 0.0
O375 O 0.47366 0.30904 0.28601 0.0
O376 O 0.47541 0.29919 0.36526 0.0
O377 O 0.47244 0.36871 0.33511 0.0
Sc378 Sc 0.49707 0.69779 0.81244 0.0
Sc379 Sc 0.4977 0.63854 0.81709 0.0
Sc380 Sc 0.49749 0.67177 0.86885 0.0
O381 O 0.49744 0.66938 0.83277 0.0
C382 C 0.53075 0.71168 0.85481 0.0
C383 C 0.53152 0.66677 0.78385 0.0
C384 C 0.53168 0.63085 0.86037 0.0
C385 C 0.46346 0.66523 0.7836 0.0
C386 C 0.46325 0.71112 0.85406 0.0
C387 C 0.46354 0.6309 0.86067 0.0
O388 O 0.52185 0.71478 0.83439 0.0
O389 O 0.52278 0.64847 0.79123 0.0
O390 O 0.52277 0.64608 0.87316 0.0
O391 O 0.47202 0.68443 0.7881 0.0
O392 O 0.47236 0.69779 0.86896 0.0
O393 O 0.47246 0.62504 0.841 0.0
O394 O 0.46959 0.7125 0.83243 0.0
O395 O 0.47051 0.64722 0.7933 0.0
O396 O 0.47028 0.64787 0.8725 0.0
O397 O 0.5247 0.68604 0.79056 0.0
O398 O 0.52447 0.69608 0.86885 0.0
O399 O 0.525 0.62655 0.8393 0.0
H400 H 0.20816 0.32086 0.92428 0.0
H401 H 0.18124 0.29807 0.90139 0.0
H402 H 0.12562 0.32797 0.93997 0.0
H403 H 0.15246 0.35105 0.96264 0.0
H404 H 0.15263 0.26683 0.91785 0.0
H405 H 0.10353 0.33337 0.87206 0.0
H406 H 0.13017 0.33896 0.88687 0.0
H407 H 0.10424 0.33736 0.90375 0.0
C408 C 0.19017 0.32262 0.92779 0.0
C409 C 0.18236 0.3377 0.94522 0.0
C410 C 0.17483 0.30969 0.91464 0.0
C411 C 0.15141 0.3116 0.9187 0.0
C412 C 0.14357 0.32669 0.93607 0.0
H413 H 0.04757 0.21342 0.89758 0.0
H414 H 0.07781 0.23807 0.91153 0.0
C415 C 0.1589 0.33977 0.94909 0.0
C416 C 0.13531 0.2967 0.90593 0.0
H417 H 0.08646 0.29663 0.87317 0.0
C418 C 0.13831 0.27336 0.90784 0.0
C419 C 0.11687 0.30523 0.89253 0.0
C420 C 0.11363 0.33011 0.88845 0.0
C421 C 0.12285 0.25829 0.89752 0.0
C422 C 0.1036 0.26683 0.88548 0.0
C423 C 0.10109 0.29015 0.88268 0.0
C424 C 0.08535 0.25185 0.87669 0.0
C425 C 0.12728 0.23337 0.89967 0.0
C426 C 0.0791 0.2519 0.85254 0.0
C427 C 0.06157 0.23794 0.84446 0.0
C428 C 0.04997 0.22375 0.86046 0.0
C429 C 0.05623 0.22394 0.88469 0.0
C430 C 0.07364 0.23794 0.89271 0.0
H431 H 0.14562 0.22986 0.9024 0.0
H432 H 0.11797 0.22666 0.91534 0.0
H433 H 0.12141 0.22419 0.88355 0.0
H434 H 0.08786 0.26267 0.83993 0.0
H435 H 0.05717 0.23825 0.82571 0.0
H436 H 0.82365 0.6296 0.42522 0.0
H437 H 0.85275 0.65106 0.40373 0.0
H438 H 0.85524 0.69922 0.46115 0.0
H439 H 0.82658 0.67766 0.48294 0.0
H440 H 0.84965 0.69702 0.38928 0.0
H441 H 0.92232 0.68228 0.45028 0.0
H442 H 0.89703 0.66504 0.45062 0.0
H443 H 0.89715 0.69205 0.46502 0.0
C444 C 0.83067 0.64458 0.43341 0.0
C445 C 0.8229 0.65194 0.45579 0.0
C446 C 0.84715 0.65686 0.42106 0.0
C447 C 0.85627 0.67653 0.43101 0.0
C448 C 0.84863 0.68387 0.45336 0.0
H449 H 0.94556 0.78437 0.39643 0.0
H450 H 0.91822 0.75784 0.41297 0.0
C451 C 0.83212 0.67167 0.46567 0.0
C452 C 0.87317 0.68998 0.41773 0.0
H453 H 0.92659 0.71183 0.42182 0.0
C454 C 0.86659 0.70007 0.39618 0.0
C455 C 0.89521 0.69381 0.42683 0.0
C456 C 0.90348 0.68257 0.44935 0.0
C457 C 0.8812 0.71478 0.38398 0.0
C458 C 0.903 0.71914 0.3935 0.0
C459 C 0.90979 0.7085 0.41467 0.0
C460 C 0.91868 0.73556 0.38251 0.0
C461 C 0.87292 0.72622 0.36159 0.0
C462 C 0.92789 0.73184 0.3598 0.0
C463 C 0.94356 0.74705 0.35018 0.0
C464 C 0.95037 0.76612 0.36324 0.0
C465 C 0.9408 0.76986 0.38587 0.0
C466 C 0.92517 0.75471 0.3954 0.0
H467 H 0.85426 0.72451 0.3593 0.0
H468 H 0.87736 0.74439 0.36181 0.0
H469 H 0.88128 0.7185 0.34589 0.0
H470 H 0.92332 0.71696 0.34973 0.0
H471 H 0.95065 0.7436 0.33275 0.0
H472 H 0.84964 0.35308 0.9633 0.0
H473 H 0.87471 0.32846 0.94058 0.0
H474 H 0.81776 0.30555 0.89865 0.0
H475 H 0.79237 0.32917 0.9221 0.0
H476 H 0.84298 0.2712 0.9136 0.0
H477 H 0.89901 0.33589 0.87382 0.0
H478 H 0.89781 0.33815 0.90568 0.0
H479 H 0.87256 0.34283 0.88825 0.0
C480 C 0.84242 0.34272 0.94933 0.0
C481 C 0.819 0.34316 0.94448 0.0
C482 C 0.85683 0.32893 0.9361 0.0
C483 C 0.84816 0.31556 0.91758 0.0
C484 C 0.82482 0.31594 0.91269 0.0
H485 H 0.94082 0.24055 0.82472 0.0
H486 H 0.9108 0.26593 0.8383 0.0
C487 C 0.81037 0.32958 0.92601 0.0
C488 C 0.86323 0.30014 0.9043 0.0
H489 H 0.91297 0.2979 0.87331 0.0
C490 C 0.85813 0.27707 0.90453 0.0
C491 C 0.88274 0.30786 0.89206 0.0
C492 C 0.88823 0.33257 0.88969 0.0
C493 C 0.87258 0.26139 0.89378 0.0
C494 C 0.89292 0.26898 0.88306 0.0
C495 C 0.89749 0.29212 0.88182 0.0
C496 C 0.91033 0.2531 0.87442 0.0
C497 C 0.86596 0.23685 0.89415 0.0
C498 C 0.9201 0.23768 0.8903 0.0
C499 C 0.9371 0.22315 0.88264 0.0
C500 C 0.94493 0.22392 0.85895 0.0
C501 C 0.93517 0.23948 0.84306 0.0
C502 C 0.91803 0.25399 0.85076 0.0
H503 H 0.84727 0.23474 0.8956 0.0
H504 H 0.8719 0.22804 0.87786 0.0
H505 H 0.87379 0.22865 0.90991 0.0
H506 H 0.91482 0.23713 0.90879 0.0
H507 H 0.94431 0.21153 0.89545 0.0
H508 H 0.20997 0.66569 0.42115 0.0
H509 H 0.18338 0.68976 0.39955 0.0
H510 H 0.12877 0.66658 0.44454 0.0
H511 H 0.15502 0.64167 0.46554 0.0
H512 H 0.11679 0.66847 0.39709 0.0
H513 H 0.15781 0.74818 0.42597 0.0
H514 H 0.17641 0.72901 0.4109 0.0
H515 H 0.16451 0.72137 0.43929 0.0
C516 C 0.19224 0.66546 0.42625 0.0
C517 C 0.18464 0.65183 0.44517 0.0
C518 C 0.17714 0.67944 0.41407 0.0
C519 C 0.15422 0.68023 0.42074 0.0
C520 C 0.14645 0.66632 0.43924 0.0
H521 H 0.05338 0.78089 0.39722 0.0
H522 H 0.08283 0.75568 0.41178 0.0
C523 C 0.16151 0.65225 0.45135 0.0
C524 C 0.13828 0.6957 0.40866 0.0
H525 H 0.12739 0.75127 0.39868 0.0
C526 C 0.11911 0.68658 0.39733 0.0
C527 C 0.1413 0.71931 0.40927 0.0
C528 C 0.161 0.73012 0.42218 0.0
C529 C 0.1027 0.70047 0.38677 0.0
C530 C 0.10586 0.72406 0.38715 0.0
C531 C 0.12516 0.73316 0.39825 0.0
C532 C 0.08856 0.7397 0.37767 0.0
C533 C 0.08176 0.6898 0.37608 0.0
C534 C 0.08229 0.73933 0.35353 0.0
C535 C 0.06528 0.75367 0.3451 0.0
C536 C 0.05444 0.76878 0.36067 0.0
C537 C 0.06129 0.76948 0.38471 0.0
C538 C 0.07816 0.75508 0.3931 0.0
H539 H 0.07951 0.67212 0.38209 0.0
H540 H 0.06631 0.69946 0.38085 0.0
H541 H 0.08331 0.68975 0.35636 0.0
H542 H 0.09048 0.7279 0.34123 0.0
H543 H 0.06058 0.75282 0.32645 0.0
H544 H 0.69939 0.81986 0.93851 0.0
H545 H 0.67108 0.79824 0.9166 0.0
H546 H 0.61953 0.84611 0.93646 0.0
H547 H 0.64756 0.86724 0.95962 0.0
H548 H 0.60571 0.80427 0.94426 0.0
H549 H 0.64132 0.80911 0.85325 0.0
H550 H 0.6618 0.79862 0.87413 0.0
H551 H 0.65122 0.82688 0.87722 0.0
C552 C 0.68202 0.82578 0.93833 0.0
C553 C 0.67572 0.84522 0.95098 0.0
C554 C 0.66592 0.8136 0.92541 0.0
C555 C 0.64328 0.82079 0.9245 0.0
C556 C 0.63698 0.84039 0.93675 0.0
H557 H 0.54189 0.75277 0.83594 0.0
H558 H 0.56859 0.78037 0.85218 0.0
C559 C 0.65305 0.85251 0.94986 0.0
C560 C 0.62593 0.80684 0.91237 0.0
H561 H 0.6142 0.77943 0.86031 0.0
C562 C 0.60742 0.79908 0.92581 0.0
C563 C 0.62797 0.80034 0.88819 0.0
C564 C 0.64653 0.80938 0.8723 0.0
C565 C 0.59137 0.7843 0.91603 0.0
C566 C 0.59429 0.77659 0.89237 0.0
C567 C 0.61225 0.78506 0.87858 0.0
C568 C 0.57905 0.75947 0.88182 0.0
C569 C 0.57142 0.77717 0.93114 0.0
C570 C 0.57664 0.73834 0.8927 0.0
C571 C 0.56131 0.72262 0.8836 0.0
C572 C 0.54834 0.7276 0.86321 0.0
C573 C 0.55158 0.74841 0.8517 0.0
C574 C 0.5668 0.76422 0.86096 0.0
H575 H 0.5679 0.78959 0.94547 0.0
H576 H 0.55584 0.77509 0.92018 0.0
H577 H 0.5753 0.76083 0.9398 0.0
H578 H 0.58644 0.7341 0.90842 0.0
H579 H 0.55948 0.70664 0.89271 0.0
H580 H 0.29979 0.17989 0.43894 0.0
H581 H 0.32856 0.20099 0.41712 0.0
H582 H 0.37827 0.15017 0.43385 0.0
H583 H 0.3498 0.12946 0.45686 0.0
H584 H 0.39437 0.19146 0.44208 0.0
H585 H 0.35546 0.18957 0.35234 0.0
H586 H 0.33621 0.20045 0.3742 0.0
H587 H 0.34575 0.17175 0.37636 0.0
C588 C 0.31687 0.17324 0.43815 0.0
C589 C 0.32251 0.15301 0.44976 0.0
C590 C 0.33321 0.18514 0.42529 0.0
C591 C 0.35542 0.17691 0.42343 0.0
C592 C 0.36113 0.15668 0.43486 0.0
H593 H 0.45616 0.2431 0.33223 0.0
H594 H 0.42953 0.2157 0.34906 0.0
C595 C 0.34482 0.14481 0.44789 0.0
C596 C 0.37299 0.19026 0.4109 0.0
H597 H 0.38413 0.21787 0.3588 0.0
C598 C 0.39227 0.19699 0.42377 0.0
C599 C 0.37044 0.19715 0.38688 0.0
C600 C 0.35096 0.18914 0.37157 0.0
C601 C 0.40859 0.21124 0.41361 0.0
C602 C 0.4052 0.21942 0.39017 0.0
C603 C 0.38647 0.21188 0.37691 0.0
C604 C 0.4206 0.23628 0.37943 0.0
C605 C 0.4293 0.21738 0.42811 0.0
C606 C 0.42384 0.25715 0.39057 0.0
C607 C 0.43909 0.27275 0.38113 0.0
C608 C 0.45118 0.26791 0.36014 0.0
C609 C 0.44717 0.24734 0.34845 0.0
C610 C 0.432 0.23165 0.35804 0.0
H611 H 0.43284 0.20458 0.44207 0.0
H612 H 0.44455 0.21914 0.41662 0.0
H613 H 0.4263 0.23368 0.4372 0.0
H614 H 0.4147 0.26132 0.40671 0.0
H615 H 0.44152 0.28855 0.39042 0.0
H616 H 0.29344 0.83093 0.9297 0.0
H617 H 0.31859 0.80645 0.90692 0.0
H618 H 0.37548 0.82829 0.94956 0.0
H619 H 0.35063 0.85366 0.97176 0.0
H620 H 0.38506 0.82692 0.90125 0.0
H621 H 0.34449 0.74742 0.93156 0.0
H622 H 0.32542 0.76701 0.91771 0.0
H623 H 0.33886 0.77417 0.9455 0.0
C624 C 0.31135 0.83075 0.93407 0.0
C625 C 0.32004 0.84423 0.95259 0.0
C626 C 0.32563 0.81655 0.92121 0.0
C627 C 0.34879 0.81533 0.92682 0.0
C628 C 0.3576 0.82893 0.94507 0.0
H629 H 0.44729 0.71461 0.89954 0.0
H630 H 0.41858 0.74018 0.91461 0.0
C631 C 0.34335 0.84324 0.95787 0.0
C632 C 0.36389 0.79982 0.91378 0.0
H633 H 0.37349 0.74424 0.90272 0.0
C634 C 0.38253 0.80884 0.90146 0.0
C635 C 0.36053 0.77626 0.91428 0.0
C636 C 0.34137 0.76557 0.92813 0.0
C637 C 0.39817 0.79486 0.88988 0.0
C638 C 0.39475 0.77131 0.89029 0.0
C639 C 0.37589 0.76234 0.90227 0.0
C640 C 0.41163 0.75553 0.88039 0.0
C641 C 0.41867 0.80534 0.87812 0.0
C642 C 0.41701 0.75549 0.85601 0.0
C643 C 0.43363 0.7409 0.84725 0.0
C644 C 0.44495 0.72603 0.86275 0.0
C645 C 0.43901 0.72583 0.88705 0.0
C646 C 0.42255 0.74043 0.89574 0.0
H647 H 0.42117 0.82311 0.88365 0.0
H648 H 0.43428 0.79573 0.88249 0.0
H649 H 0.41638 0.80501 0.85848 0.0
H650 H 0.40842 0.76676 0.84381 0.0
H651 H 0.43767 0.74137 0.82842 0.0
H652 H 0.67401 0.17489 0.47693 0.0
H653 H 0.64775 0.19915 0.45509 0.0
H654 H 0.64828 0.15285 0.39593 0.0
H655 H 0.674 0.12809 0.41795 0.0
H656 H 0.65639 0.21934 0.4105 0.0
H657 H 0.58032 0.16381 0.40747 0.0
H658 H 0.60361 0.15905 0.4278 0.0
H659 H 0.60622 0.15138 0.39696 0.0
C660 C 0.66818 0.16962 0.45948 0.0
C661 C 0.67602 0.14953 0.4492 0.0
C662 C 0.65334 0.18359 0.44696 0.0
C663 C 0.64597 0.17768 0.42401 0.0
C664 C 0.65354 0.15754 0.41376 0.0
H665 H 0.5543 0.24879 0.32718 0.0
H666 H 0.58281 0.22278 0.34296 0.0
C667 C 0.66838 0.14354 0.42628 0.0
C668 C 0.63111 0.19311 0.41051 0.0
H669 H 0.57823 0.19808 0.38621 0.0
C670 C 0.6393 0.21471 0.40514 0.0
C671 C 0.60894 0.18688 0.40341 0.0
C672 C 0.5991 0.16409 0.40933 0.0
C673 C 0.6258 0.23038 0.39303 0.0
C674 C 0.60344 0.22435 0.38644 0.0
C675 C 0.59543 0.20257 0.39126 0.0
C676 C 0.58755 0.24086 0.37606 0.0
C677 C 0.63554 0.25327 0.38737 0.0
C678 C 0.58088 0.25959 0.38947 0.0
C679 C 0.56464 0.27442 0.38059 0.0
C680 C 0.55465 0.27075 0.35812 0.0
C681 C 0.56171 0.25217 0.3445 0.0
C682 C 0.57794 0.23726 0.35349 0.0
H683 H 0.6544 0.25305 0.38738 0.0
H684 H 0.62953 0.25936 0.36974 0.0
H685 H 0.62993 0.26543 0.40114 0.0
H686 H 0.58783 0.26242 0.40711 0.0
H687 H 0.55965 0.28855 0.39157 0.0
H688 H 0.30163 0.5212 0.96855 0.0
H689 H 0.32366 0.55165 0.9499 0.0
H690 H 0.35716 0.50325 0.90486 0.0
H691 H 0.33531 0.47287 0.9234 0.0
H692 H 0.37389 0.55073 0.95054 0.0
H693 H 0.33761 0.55601 0.85925 0.0
H694 H 0.322 0.54464 0.88428 0.0
H695 H 0.34338 0.52804 0.86984 0.0
C696 C 0.31336 0.51719 0.95433 0.0
C697 C 0.31689 0.49476 0.94743 0.0
C698 C 0.32593 0.53452 0.94377 0.0
C699 C 0.34182 0.52964 0.92591 0.0
C700 C 0.34473 0.50735 0.9184 0.0
H701 H 0.44998 0.58889 0.84672 0.0
H702 H 0.41909 0.56626 0.86317 0.0
C703 C 0.3324 0.49003 0.9291 0.0
C704 C 0.35708 0.54732 0.91666 0.0
H705 H 0.37348 0.57367 0.86545 0.0
C706 C 0.37364 0.55608 0.93204 0.0
C707 C 0.35672 0.55398 0.89249 0.0
C708 C 0.33887 0.54535 0.87548 0.0
C709 C 0.39062 0.57062 0.92361 0.0
C710 C 0.39055 0.577 0.89928 0.0
C711 C 0.3735 0.56874 0.88408 0.0
C712 C 0.40871 0.59125 0.88898 0.0
C713 C 0.40907 0.57807 0.94058 0.0
C714 C 0.41291 0.61293 0.89781 0.0
C715 C 0.43075 0.62581 0.88866 0.0
C716 C 0.44448 0.61737 0.87021 0.0
C717 C 0.43979 0.59588 0.86094 0.0
C718 C 0.4221 0.58294 0.87029 0.0
H719 H 0.40985 0.56722 0.95671 0.0
H720 H 0.42594 0.57783 0.93177 0.0
H721 H 0.4056 0.59552 0.94651 0.0
H722 H 0.40243 0.61988 0.91183 0.0
H723 H 0.43369 0.64243 0.89596 0.0
H724 H 0.69278 0.47552 0.46684 0.0
H725 H 0.67053 0.44627 0.44651 0.0
H726 H 0.63773 0.49707 0.40378 0.0
H727 H 0.65985 0.52632 0.42397 0.0
H728 H 0.62009 0.44788 0.44668 0.0
H729 H 0.65751 0.44611 0.35574 0.0
H730 H 0.67301 0.45605 0.38153 0.0
H731 H 0.65185 0.47354 0.36789 0.0
C732 C 0.68114 0.48035 0.45278 0.0
C733 C 0.67792 0.50313 0.447 0.0
C734 C 0.66844 0.46369 0.44127 0.0
C735 C 0.6527 0.46958 0.42356 0.0
C736 C 0.65003 0.49222 0.4172 0.0
H737 H 0.54643 0.40854 0.34092 0.0
H738 H 0.57634 0.43232 0.35771 0.0
C739 C 0.66252 0.50888 0.42885 0.0
C740 C 0.63742 0.45243 0.41328 0.0
H741 H 0.62231 0.42716 0.36102 0.0
C742 C 0.62069 0.44308 0.42803 0.0
C743 C 0.63822 0.44653 0.38892 0.0
C744 C 0.65619 0.45591 0.37254 0.0
C745 C 0.60414 0.42847 0.41887 0.0
C746 C 0.60482 0.42259 0.39441 0.0
C747 C 0.62186 0.43167 0.37975 0.0
C748 C 0.58751 0.40766 0.38358 0.0
C749 C 0.58556 0.42027 0.43526 0.0
C750 C 0.58419 0.38576 0.39224 0.0
C751 C 0.56694 0.37224 0.38291 0.0
C752 C 0.55293 0.38024 0.36444 0.0
C753 C 0.55686 0.40189 0.35518 0.0
C754 C 0.57397 0.41549 0.36472 0.0
H755 H 0.58401 0.431 0.45139 0.0
H756 H 0.56891 0.41993 0.42597 0.0
H757 H 0.58955 0.40293 0.44126 0.0
H758 H 0.59484 0.37917 0.40636 0.0
H759 H 0.56461 0.35551 0.39019 0.0
H760 H 0.69479 0.52694 0.97067 0.0
H761 H 0.66905 0.55453 0.95246 0.0
H762 H 0.63001 0.50062 0.92125 0.0
H763 H 0.65534 0.47303 0.93955 0.0
H764 H 0.65667 0.55865 0.90072 0.0
H765 H 0.58425 0.53993 0.96116 0.0
H766 H 0.61322 0.53275 0.96849 0.0
H767 H 0.59751 0.5159 0.94763 0.0
C768 C 0.68066 0.52102 0.96 0.0
C769 C 0.67705 0.49786 0.95652 0.0
C770 C 0.66611 0.53675 0.94953 0.0
C771 C 0.64764 0.52951 0.93571 0.0
C772 C 0.64413 0.50646 0.93201 0.0
H773 H 0.55623 0.59717 0.83912 0.0
H774 H 0.58581 0.57394 0.85729 0.0
C775 C 0.65869 0.49076 0.94233 0.0
C776 C 0.63171 0.54594 0.92533 0.0
H777 H 0.57665 0.5633 0.92784 0.0
C778 C 0.6392 0.55983 0.90669 0.0
C779 C 0.60906 0.54744 0.93337 0.0
C780 C 0.60047 0.53337 0.95389 0.0
C781 C 0.62433 0.5749 0.89542 0.0
C782 C 0.60147 0.57588 0.90298 0.0
C783 C 0.59417 0.56236 0.92201 0.0
C784 C 0.5847 0.59079 0.89145 0.0
C785 C 0.63316 0.58973 0.87565 0.0
C786 C 0.57421 0.60777 0.90475 0.0
C787 C 0.55727 0.621 0.89451 0.0
C788 C 0.55035 0.61737 0.87078 0.0
C789 C 0.56113 0.60045 0.85741 0.0
C790 C 0.57814 0.58725 0.8677 0.0
H791 H 0.65199 0.5907 0.87571 0.0
H792 H 0.62768 0.58274 0.85822 0.0
H793 H 0.62619 0.60702 0.87719 0.0
H794 H 0.579 0.61065 0.92316 0.0
H795 H 0.5494 0.63387 0.90536 0.0
H796 H 0.302 0.49607 0.42285 0.0
H797 H 0.32462 0.46807 0.40125 0.0
H798 H 0.3603 0.45176 0.46617 0.0
H799 H 0.33784 0.47972 0.48781 0.0
H800 H 0.37542 0.47153 0.40173 0.0
H801 H 0.34209 0.38953 0.43434 0.0
H802 H 0.32535 0.415 0.43449 0.0
H803 H 0.34698 0.4108 0.4566 0.0
C804 C 0.3143 0.48612 0.43258 0.0
C805 C 0.31826 0.49002 0.45694 0.0
C806 C 0.32722 0.47024 0.42024 0.0
C807 C 0.34393 0.45781 0.43222 0.0
C808 C 0.34726 0.46103 0.45673 0.0
H809 H 0.4534 0.36767 0.40298 0.0
H810 H 0.42258 0.39009 0.41967 0.0
C811 C 0.33455 0.47706 0.469 0.0
C812 C 0.35956 0.44317 0.41881 0.0
H813 H 0.37697 0.38877 0.41315 0.0
C814 C 0.37564 0.45339 0.4039 0.0
C815 C 0.35981 0.41962 0.42201 0.0
C816 C 0.34256 0.40796 0.43759 0.0
C817 C 0.39263 0.44073 0.39275 0.0
C818 C 0.39307 0.41712 0.39609 0.0
C819 C 0.37659 0.40686 0.41059 0.0
C820 C 0.41112 0.40293 0.38561 0.0
C821 C 0.41055 0.45292 0.37844 0.0
C822 C 0.41466 0.40242 0.36087 0.0
C823 C 0.43246 0.38986 0.35129 0.0
C824 C 0.44679 0.37724 0.36625 0.0
C825 C 0.44272 0.37722 0.39096 0.0
C826 C 0.42508 0.39 0.40053 0.0
H827 H 0.41124 0.47112 0.38288 0.0
H828 H 0.42761 0.44555 0.38154 0.0
H829 H 0.40651 0.45141 0.35917 0.0
H830 H 0.40371 0.41181 0.34897 0.0
H831 H 0.43493 0.38998 0.33215 0.0
H832 H 0.84773 0.99693 0.98869 0.0
H833 H 0.87075 0.02499 0.96792 0.0
H834 H 0.82407 0.02379 0.90863 0.0
H835 H 0.80097 0.99548 0.92925 0.0
H836 H 0.89103 0.01759 0.92285 0.0
H837 H 0.83365 0.0918 0.9225 0.0
H838 H 0.82983 0.06835 0.94263 0.0
H839 H 0.82156 0.06584 0.91193 0.0
C840 C 0.84231 0.00268 0.97126 0.0
C841 C 0.82262 0.9939 0.96053 0.0
C842 C 0.85541 0.01878 0.95949 0.0
C843 C 0.84901 0.02652 0.93685 0.0
C844 C 0.82907 0.01827 0.92628 0.0
H845 H 0.9422 0.09177 0.83798 0.0
H846 H 0.91318 0.06756 0.85569 0.0
C847 C 0.81591 0.00212 0.93807 0.0
C848 C 0.86415 0.04206 0.92377 0.0
H849 H 0.86816 0.09525 0.90115 0.0
C850 C 0.88604 0.03455 0.91804 0.0
C851 C 0.85754 0.06417 0.91769 0.0
C852 C 0.83444 0.07319 0.92412 0.0
C853 C 0.9016 0.04864 0.90644 0.0
C854 C 0.89495 0.0707 0.90015 0.0
C855 C 0.87306 0.07824 0.90585 0.0
C856 C 0.91097 0.08642 0.88856 0.0
C857 C 0.92522 0.04001 0.90153 0.0
C858 C 0.91876 0.10538 0.90095 0.0
C859 C 0.93534 0.11929 0.89093 0.0
C860 C 0.94434 0.1145 0.86825 0.0
C861 C 0.93581 0.09589 0.85554 0.0
C862 C 0.91925 0.08199 0.86562 0.0
H863 H 0.92902 0.02447 0.91181 0.0
H864 H 0.92683 0.03606 0.88227 0.0
H865 H 0.93815 0.05296 0.90602 0.0
H866 H 0.91248 0.10906 0.91868 0.0
H867 H 0.94137 0.13354 0.90116 0.0
H868 H 0.14729 0.03184 0.42896 0.0
H869 H 0.12439 0.00218 0.4106 0.0
H870 H 0.16991 0.95196 0.43858 0.0
H871 H 0.19274 0.98149 0.45749 0.0
H872 H 0.15475 0.9472 0.38736 0.0
H873 H 0.08535 0.95796 0.45356 0.0
H874 H 0.09536 0.98329 0.43945 0.0
H875 H 0.11394 0.96784 0.45882 0.0
C876 C 0.15242 0.01449 0.43127 0.0
C877 C 0.17168 0.009 0.44492 0.0
C878 C 0.13939 -0.00239 0.42068 0.0
C879 C 0.1454 0.97497 0.4235 0.0
C880 C 0.16507 0.9694 0.43626 0.0
H881 H 0.05501 0.86182 0.39949 0.0
H882 H 0.08393 0.88723 0.41535 0.0
C883 C 0.1781 0.98629 0.44696 0.0
C884 C 0.13049 0.95713 0.414 0.0
H885 H 0.07794 0.93387 0.42089 0.0
C886 C 0.13799 0.94415 0.3947 0.0
C887 C 0.1088 0.95313 0.42388 0.0
C888 C 0.10035 0.96613 0.4452 0.0
C889 C 0.12401 0.92755 0.38457 0.0
C890 C 0.10202 0.92407 0.39398 0.0
C891 C 0.09479 0.93669 0.41366 0.0
C892 C 0.08596 0.90769 0.38351 0.0
C893 C 0.13287 0.91379 0.36402 0.0
C894 C 0.07757 0.91082 0.36034 0.0
C895 C 0.06097 0.89639 0.3512 0.0
C896 C 0.05239 0.8786 0.36515 0.0
C897 C 0.06118 0.87533 0.38824 0.0
C898 C 0.07773 0.88981 0.39736 0.0
H899 H 0.15168 0.91459 0.36281 0.0
H900 H 0.1276 0.89591 0.36573 0.0
H901 H 0.12575 0.92044 0.3471 0.0
H902 H 0.08343 0.92479 0.34954 0.0
H903 H 0.05462 0.89942 0.33335 0.0
H904 H 0.16493 0.97629 0.93508 0.0
H905 H 0.13941 0.00263 0.91544 0.0
H906 H 0.16557 0.05661 0.95892 0.0
H907 H 0.19212 0.03051 0.97792 0.0
H908 H 0.10598 0.02661 0.93647 0.0
H909 H 0.1675 0.08426 0.89269 0.0
H910 H 0.1757 0.0573 0.90475 0.0
H911 H 0.17176 0.08099 0.92422 0.0
C912 C 0.16571 0.99386 0.9401 0.0
C913 C 0.18075 0.00132 0.95794 0.0
C914 C 0.15095 0.00885 0.92899 0.0
C915 C 0.1508 0.03161 0.9355 0.0
C916 C 0.16574 0.0392 0.95329 0.0
H917 H 0.05697 0.13866 0.89899 0.0
H918 H 0.08665 0.11558 0.91719 0.0
C919 C 0.18068 0.0242 0.96434 0.0
C920 C 0.13406 0.04696 0.92449 0.0
H921 H 0.12865 0.09491 0.89138 0.0
C922 C 0.11095 0.0415 0.92655 0.0
C923 C 0.14063 0.06638 0.91159 0.0
C924 C 0.16525 0.07253 0.90795 0.0
C925 C 0.0942 0.05497 0.91609 0.0
C926 C 0.10077 0.07432 0.90322 0.0
C927 C 0.1238 0.08 0.90133 0.0
C928 C 0.08378 0.0887 0.89144 0.0
C929 C 0.06955 0.04857 0.91893 0.0
C930 C 0.07269 0.08121 0.87079 0.0
C931 C 0.05579 0.09433 0.86028 0.0
C932 C 0.04964 0.11511 0.87036 0.0
C933 C 0.06116 0.12268 0.89086 0.0
C934 C 0.07817 0.1096 0.90124 0.0
H935 H 0.06712 0.03505 0.93239 0.0
H936 H 0.05938 0.06345 0.92428 0.0
H937 H 0.06284 0.04251 0.90158 0.0
H938 H 0.07696 0.0651 0.86298 0.0
H939 H 0.0473 0.088 0.8445 0.0
H940 H 0.84676 0.02495 0.43165 0.0
H941 H 0.87001 0.99619 0.41252 0.0
H942 H 0.82897 0.94423 0.44463 0.0
H943 H 0.80569 0.97298 0.46414 0.0
H944 H 0.89445 0.96274 0.4384 0.0
H945 H 0.83377 0.92592 0.37301 0.0
H946 H 0.82964 0.9533 0.38626 0.0
H947 H 0.82385 0.92834 0.40324 0.0
C948 C 0.84264 0.00741 0.43463 0.0
C949 C 0.82451 0.00121 0.44955 0.0
C950 C 0.85585 0.99103 0.42358 0.0
C951 C 0.85109 0.96816 0.42708 0.0
C952 C 0.83266 0.96184 0.44145 0.0
H953 H 0.94783 0.86037 0.40215 0.0
H954 H 0.91873 0.88473 0.41923 0.0
C955 C 0.8194 0.97826 0.45256 0.0
C956 C 0.86647 0.95107 0.41697 0.0
H957 H 0.86976 0.90849 0.37632 0.0
C958 C 0.88907 0.95083 0.42488 0.0
C959 C 0.85933 0.93571 0.39925 0.0
C960 C 0.83538 0.93581 0.38973 0.0
C961 C 0.90481 0.93562 0.41547 0.0
C962 C 0.89765 0.92011 0.3979 0.0
C963 C 0.87506 0.92033 0.38995 0.0
C964 C 0.91375 0.90415 0.38702 0.0
C965 C 0.92912 0.9366 0.42397 0.0
C966 C 0.92006 0.90668 0.36308 0.0
C967 C 0.9367 0.89283 0.35322 0.0
C968 C 0.94724 0.87612 0.36715 0.0
C969 C 0.94022 0.87315 0.39094 0.0
C970 C 0.92361 0.88706 0.40077 0.0
H971 H 0.9328 0.95231 0.43398 0.0
H972 H 0.93244 0.92212 0.43597 0.0
H973 H 0.94102 0.93545 0.40868 0.0
H974 H 0.91255 0.91979 0.35222 0.0
H975 H 0.94155 0.8955 0.33481 0.0
H976 H 0.34169 0.3921 0.11818 0.0
H977 H 0.36297 0.37957 0.1532 0.0
H978 H 0.32539 0.31726 0.15368 0.0
H979 H 0.30392 0.32971 0.11839 0.0
H980 H 0.3413 0.36004 0.20122 0.0
H981 H 0.39891 0.30482 0.14843 0.0
H982 H 0.38536 0.32887 0.13484 0.0
H983 H 0.36874 0.30475 0.14281 0.0
C984 C 0.33793 0.37574 0.12574 0.0
C985 C 0.32131 0.36178 0.11549 0.0
C986 C 0.34999 0.36868 0.14578 0.0
C987 C 0.34574 0.34751 0.15583 0.0
C988 C 0.32884 0.33366 0.14605 0.0
H989 H 0.44138 0.29266 0.26119 0.0
H990 H 0.40934 0.29453 0.23337 0.0
C991 C 0.31659 0.34081 0.12603 0.0
C992 C 0.35981 0.3399 0.17602 0.0
H993 H 0.40885 0.31182 0.18833 0.0
C994 C 0.35585 0.34917 0.19859 0.0
C995 C 0.3786 0.32561 0.17244 0.0
C996 C 0.38335 0.31535 0.14836 0.0
C997 C 0.37085 0.34521 0.21757 0.0
C998 C 0.39057 0.33219 0.21357 0.0
C999 C 0.39379 0.32189 0.19131 0.0
C1000 C 0.40909 0.33087 0.23138 0.0
C1001 C 0.36564 0.35538 0.24159 0.0
C1002 C 0.41975 0.35066 0.23918 0.0
C1003 C 0.43797 0.34969 0.25501 0.0
C1004 C 0.44615 0.32885 0.26322 0.0
C1005 C 0.43552 0.30899 0.25525 0.0
C1006 C 0.41719 0.31001 0.23941 0.0
H1007 H 0.34707 0.35774 0.244 0.0
H1008 H 0.37215 0.34472 0.25635 0.0
H1009 H 0.3738 0.37219 0.24283 0.0
H1010 H 0.41422 0.36692 0.23266 0.0
H1011 H 0.44578 0.36534 0.2606 0.0
H1012 H 0.64616 0.6487 0.59771 0.0
H1013 H 0.62479 0.65925 0.63294 0.0
H1014 H 0.68075 0.63896 0.67771 0.0
H1015 H 0.70155 0.62643 0.64257 0.0
H1016 H 0.64437 0.6227 0.6949 0.0
H1017 H 0.62621 0.71164 0.6758 0.0
H1018 H 0.61649 0.6949 0.65131 0.0
H1019 H 0.64637 0.69578 0.65845 0.0
C1020 C 0.65396 0.64632 0.61502 0.0
C1021 C 0.67555 0.63643 0.61719 0.0
C1022 C 0.64185 0.65287 0.6352 0.0
C1023 C 0.65129 0.65039 0.65804 0.0
C1024 C 0.67315 0.64123 0.66028 0.0
H1025 H 0.5654 0.69754 0.77616 0.0
H1026 H 0.59728 0.69436 0.74831 0.0
C1027 C 0.68513 0.63424 0.64009 0.0
C1028 C 0.63739 0.65523 0.67951 0.0
H1029 H 0.59939 0.69276 0.70225 0.0
C1030 C 0.6349 0.63823 0.69672 0.0
C1031 C 0.62539 0.67567 0.68237 0.0
C1032 C 0.629 0.69559 0.6661 0.0
C1033 C 0.61977 0.64055 0.71583 0.0
C1034 C 0.606 0.65999 0.71721 0.0
C1035 C 0.60952 0.6776 0.70091 0.0
C1036 C 0.58707 0.66184 0.73454 0.0
C1037 C 0.61871 0.62203 0.73423 0.0
C1038 C 0.57051 0.64485 0.73577 0.0
C1039 C 0.55259 0.64644 0.7519 0.0
C1040 C 0.55045 0.66539 0.76667 0.0
C1041 C 0.56662 0.68274 0.76497 0.0
C1042 C 0.58485 0.68093 0.74911 0.0
H1043 H 0.63535 0.61339 0.73591 0.0
H1044 H 0.61379 0.62857 0.75203 0.0
H1045 H 0.60606 0.60925 0.72856 0.0
H1046 H 0.57132 0.63038 0.72409 0.0
H1047 H 0.5402 0.63297 0.75253 0.0
H1048 H 0.66288 0.34412 0.09385 0.0
H1049 H 0.63681 0.33306 0.12564 0.0
H1050 H 0.67477 0.37315 0.17586 0.0
H1051 H 0.70141 0.38383 0.14428 0.0
H1052 H 0.65964 0.32966 0.19354 0.0
H1053 H 0.59092 0.38004 0.15147 0.0
H1054 H 0.60415 0.35962 0.13243 0.0
H1055 H 0.62037 0.38311 0.14324 0.0
C1056 C 0.66602 0.3502 0.11175 0.0
C1057 C 0.68415 0.36499 0.11651 0.0
C1058 C 0.65098 0.34402 0.12984 0.0
C1059 C 0.65372 0.35257 0.15295 0.0
C1060 C 0.67235 0.36648 0.15806 0.0
H1061 H 0.55444 0.36947 0.26319 0.0
H1062 H 0.58429 0.37323 0.2334 0.0
C1063 C 0.68743 0.37269 0.13998 0.0
C1064 C 0.63637 0.34819 0.1714 0.0
H1065 H 0.58119 0.35903 0.18568 0.0
C1066 C 0.64246 0.33599 0.19186 0.0
C1067 C 0.61409 0.35674 0.16918 0.0
C1068 C 0.60694 0.37078 0.14802 0.0
C1069 C 0.62671 0.33202 0.21019 0.0
C1070 C 0.60435 0.34035 0.20779 0.0
C1071 C 0.59833 0.35256 0.18734 0.0
C1072 C 0.58711 0.33753 0.2267 0.0
C1073 C 0.63421 0.31948 0.23222 0.0
C1074 C 0.57879 0.31615 0.23277 0.0
C1075 C 0.56163 0.31388 0.24984 0.0
C1076 C 0.55245 0.333 0.26103 0.0
C1077 C 0.56103 0.35436 0.25495 0.0
C1078 C 0.57812 0.35658 0.23792 0.0
H1079 H 0.65299 0.31826 0.23342 0.0
H1080 H 0.62775 0.32784 0.24855 0.0
H1081 H 0.62715 0.30216 0.23174 0.0
H1082 H 0.58528 0.30127 0.22399 0.0
H1083 H 0.55542 0.29718 0.25404 0.0
H1084 H 0.29962 0.6198 0.63943 0.0
H1085 H 0.32287 0.63089 0.67374 0.0
H1086 H 0.36929 0.66532 0.62672 0.0
H1087 H 0.34615 0.65437 0.59241 0.0
H1088 H 0.38945 0.63272 0.65566 0.0
H1089 H 0.33577 0.69083 0.70872 0.0
H1090 H 0.32224 0.66496 0.70006 0.0
H1091 H 0.33043 0.68493 0.6776 0.0
C1092 C 0.31444 0.63025 0.6365 0.0
C1093 C 0.32121 0.63606 0.61325 0.0
C1094 C 0.32767 0.6366 0.6561 0.0
C1095 C 0.34771 0.64901 0.65273 0.0
C1096 C 0.35387 0.65575 0.62966 0.0
H1097 H 0.44493 0.69913 0.75664 0.0
H1098 H 0.41585 0.69569 0.72565 0.0
C1099 C 0.34071 0.6494 0.6101 0.0
C1100 C 0.36368 0.65267 0.67272 0.0
H1101 H 0.36962 0.67756 0.72723 0.0
C1102 C 0.38516 0.64262 0.67126 0.0
C1103 C 0.35802 0.66566 0.69295 0.0
C1104 C 0.33543 0.6774 0.69496 0.0
C1105 C 0.40109 0.64498 0.68963 0.0
C1106 C 0.39525 0.65746 0.71015 0.0
C1107 C 0.37391 0.66784 0.71152 0.0
C1108 C 0.41129 0.65985 0.73026 0.0
C1109 C 0.42414 0.63425 0.68683 0.0
C1110 C 0.41791 0.6409 0.74338 0.0
C1111 C 0.43456 0.64273 0.761 0.0
C1112 C 0.44484 0.66362 0.76589 0.0
C1113 C 0.4375 0.68276 0.75325 0.0
C1114 C 0.42083 0.68087 0.7356 0.0
H1115 H 0.42774 0.62981 0.66797 0.0
H1116 H 0.43775 0.64565 0.69335 0.0
H1117 H 0.42476 0.61857 0.69756 0.0
H1118 H 0.41047 0.62458 0.73969 0.0
H1119 H 0.43957 0.62767 0.77051 0.0
H1120 H 0.83385 0.82697 0.0987 0.0
H1121 H 0.85775 0.81462 0.13189 0.0
H1122 H 0.82403 0.86159 0.17847 0.0
H1123 H 0.79992 0.87385 0.14534 0.0
H1124 H 0.88691 0.84367 0.15342 0.0
H1125 H 0.82947 0.80602 0.22084 0.0
H1126 H 0.82115 0.81008 0.19011 0.0
H1127 H 0.82047 0.83324 0.2107 0.0
C1128 C 0.83126 0.83433 0.11615 0.0
C1129 C 0.81518 0.85147 0.11946 0.0
C1130 C 0.84484 0.82721 0.13508 0.0
C1131 C 0.84257 0.83708 0.15767 0.0
C1132 C 0.82574 0.85341 0.16133 0.0
H1133 H 0.94506 0.86185 0.26213 0.0
H1134 H 0.91465 0.86296 0.23263 0.0
C1135 C 0.81203 0.86045 0.14238 0.0
C1136 C 0.85975 0.83253 0.17632 0.0
H1137 H 0.86675 0.81642 0.23435 0.0
C1138 C 0.88251 0.83744 0.17101 0.0
C1139 C 0.85399 0.82434 0.19922 0.0
C1140 C 0.82996 0.8179 0.20554 0.0
C1141 C 0.89958 0.83502 0.1882 0.0
C1142 C 0.89369 0.82779 0.21137 0.0
C1143 C 0.87109 0.82215 0.21656 0.0
C1144 C 0.91085 0.82683 0.23053 0.0
C1145 C 0.9238 0.84046 0.18153 0.0
C1146 C 0.91838 0.80611 0.23942 0.0
C1147 C 0.93588 0.80535 0.25628 0.0
C1148 C 0.946 0.82535 0.26459 0.0
C1149 C 0.93782 0.8461 0.25607 0.0
C1150 C 0.92043 0.8468 0.23921 0.0
H1151 H 0.92621 0.84096 0.16189 0.0
H1152 H 0.9284 0.85721 0.18883 0.0
H1153 H 0.93565 0.82788 0.18923 0.0
H1154 H 0.91109 0.79054 0.23289 0.0
H1155 H 0.94164 0.7891 0.26256 0.0
H1156 H 0.16372 0.16381 0.60185 0.0
H1157 H 0.14057 0.17214 0.63704 0.0
H1158 H 0.17067 0.11607 0.67413 0.0
H1159 H 0.19395 0.10765 0.639 0.0
H1160 H 0.11912 0.11813 0.66717 0.0
H1161 H 0.15797 0.19453 0.70775 0.0
H1162 H 0.15536 0.19354 0.67574 0.0
H1163 H 0.17431 0.17456 0.69058 0.0
C1164 C 0.16567 0.15352 0.61767 0.0
C1165 C 0.18054 0.13505 0.61774 0.0
C1166 C 0.15258 0.15838 0.63775 0.0
C1167 C 0.15409 0.14479 0.65812 0.0
C1168 C 0.1695 0.12684 0.65858 0.0
H1169 H 0.06219 0.12766 0.77772 0.0
H1170 H 0.09281 0.12382 0.74877 0.0
C1171 C 0.18279 0.12211 0.63859 0.0
C1172 C 0.13768 0.14769 0.67771 0.0
H1173 H 0.1227 0.18245 0.7234 0.0
C1174 C 0.11995 0.13206 0.67963 0.0
C1175 C 0.13875 0.1661 0.69354 0.0
C1176 C 0.15765 0.18317 0.69203 0.0
C1177 C 0.1029 0.13454 0.69683 0.0
C1178 C 0.10408 0.15278 0.713 0.0
C1179 C 0.12191 0.16842 0.71107 0.0
C1180 C 0.08675 0.15598 0.73181 0.0
C1181 C 0.08341 0.11799 0.69693 0.0
C1182 C 0.07388 0.1758 0.73261 0.0
C1183 C 0.05654 0.17822 0.74942 0.0
C1184 C 0.05172 0.16077 0.76561 0.0
C1185 C 0.06518 0.14125 0.76523 0.0
C1186 C 0.08266 0.13899 0.74864 0.0
H1187 H 0.08164 0.10932 0.67947 0.0
H1188 H 0.08657 0.10495 0.7107 0.0
H1189 H 0.06712 0.12646 0.70112 0.0
H1190 H 0.07688 0.18918 0.71986 0.0
H1191 H 0.04654 0.19349 0.74931 0.0
H1192 H 0.15789 0.89825 0.11764 0.0
H1193 H 0.13278 0.88443 0.14908 0.0
H1194 H 0.17508 0.82591 0.15802 0.0
H1195 H 0.2006 0.83981 0.12665 0.0
H1196 H 0.10997 0.83973 0.14903 0.0
H1197 H 0.1672 0.85524 0.22658 0.0
H1198 H 0.17073 0.86978 0.19851 0.0
H1199 H 0.17856 0.84075 0.20105 0.0
C1200 C 0.16205 0.88259 0.1265 0.0
C1201 C 0.18131 0.87019 0.11981 0.0
C1202 C 0.1476 0.87465 0.1443 0.0
C1203 C 0.1522 0.85425 0.15586 0.0
C1204 C 0.1714 0.84178 0.14935 0.0
H1205 H 0.05126 0.79323 0.25225 0.0
H1206 H 0.08137 0.79681 0.22231 0.0
C1207 C 0.18584 0.84967 0.13139 0.0
C1208 C 0.13653 0.84612 0.17452 0.0
H1209 H 0.13051 0.84164 0.23485 0.0
C1210 C 0.11449 0.8398 0.16779 0.0
C1211 C 0.1426 0.84642 0.1989 0.0
C1212 C 0.166 0.85349 0.20689 0.0
C1213 C 0.09805 0.83435 0.18494 0.0
C1214 C 0.10395 0.83517 0.20936 0.0
C1215 C 0.12618 0.8409 0.21606 0.0
C1216 C 0.08666 0.83239 0.22819 0.0
C1217 C 0.07423 0.82878 0.17694 0.0
C1218 C 0.08004 0.85113 0.24157 0.0
C1219 C 0.06288 0.84922 0.25855 0.0
C1220 C 0.05208 0.82843 0.26261 0.0
C1221 C 0.05916 0.8095 0.24952 0.0
C1222 C 0.07631 0.81149 0.23239 0.0
H1223 H 0.07176 0.8317 0.15754 0.0
H1224 H 0.07059 0.81082 0.18078 0.0
H1225 H 0.06172 0.83906 0.18692 0.0
H1226 H 0.08789 0.86739 0.23854 0.0
H1227 H 0.05803 0.86412 0.2684 0.0
H1228 H 0.83948 0.16119 0.59403 0.0
H1229 H 0.86354 0.17027 0.62832 0.0
H1230 H 0.82415 0.12534 0.67235 0.0
H1231 H 0.80004 0.11604 0.63807 0.0
H1232 H 0.83875 0.16809 0.69485 0.0
H1233 H 0.90809 0.11982 0.65135 0.0
H1234 H 0.89554 0.14164 0.63349 0.0
H1235 H 0.87884 0.11764 0.64202 0.0
C1236 C 0.83578 0.15345 0.61109 0.0
C1237 C 0.81809 0.13767 0.61332 0.0
C1238 C 0.84948 0.15869 0.63063 0.0
C1239 C 0.84577 0.14819 0.65267 0.0
C1240 C 0.82724 0.13357 0.65541 0.0
H1241 H 0.94405 0.12477 0.76383 0.0
H1242 H 0.91401 0.12201 0.734 0.0
C1243 C 0.81347 0.12834 0.63585 0.0
C1244 C 0.86245 0.15084 0.67216 0.0
H1245 H 0.91711 0.13842 0.68728 0.0
C1246 C 0.8559 0.16166 0.69327 0.0
C1247 C 0.88466 0.1421 0.67005 0.0
C1248 C 0.89225 0.12947 0.64811 0.0
C1249 C 0.87121 0.16424 0.71231 0.0
C1250 C 0.89357 0.1559 0.70997 0.0
C1251 C 0.89998 0.1449 0.68893 0.0
C1252 C 0.91061 0.15795 0.72922 0.0
C1253 C 0.86328 0.17547 0.73492 0.0
C1254 C 0.91865 0.17912 0.73636 0.0
C1255 C 0.93591 0.18081 0.75341 0.0
C1256 C 0.94548 0.16131 0.76352 0.0
C1257 C 0.93714 0.14015 0.75643 0.0
C1258 C 0.91994 0.1385 0.7394 0.0
H1259 H 0.84446 0.17632 0.73589 0.0
H1260 H 0.8697 0.16637 0.75086 0.0
H1261 H 0.87002 0.1929 0.73552 0.0
H1262 H 0.91194 0.19431 0.72837 0.0
H1263 H 0.94191 0.19738 0.75842 0.0
loop_
_geom_bond_atom_site_label_1
_geom_bond_atom_site_label_2
_geom_bond_distance
_geom_bond_site_symmetry_2
_ccdc_geom_bond_type
C0 C1 1.386 . S
C0 C2 1.397 . S
C0 H24 0.931 . S
C1 C0 1.386 . S
C1 C5 1.397 . S
C2 C0 1.397 . S
C2 C3 1.384 . S
C2 H25 0.930 . S
C3 C2 1.384 . S
C3 C4 1.377 . S
C3 C6 1.481 . S
C4 C3 1.377 . S
C4 C5 1.389 . S
C4 H26 0.929 . S
C5 C1 1.397 . S
C5 C4 1.389 . S
C5 H27 0.931 . S
C6 C3 1.481 . S
C6 C7 1.387 . S
C6 C11 1.390 1_556 S
C7 C6 1.387 . S
C7 C8 1.401 1_556 S
C7 H28 0.930 . S
C8 C7 1.401 1_554 S
C8 C9 1.376 . S
C8 C17 1.511 1_554 S
C9 C8 1.376 . S
C9 C10 1.392 . S
C9 H30 0.931 . S
C10 C9 1.392 . S
C10 C11 1.361 . S
C10 C12 1.500 . S
C11 C6 1.390 1_554 S
C11 C10 1.361 . S
C11 H29 0.931 . S
C12 C10 1.500 . S
C12 C13 1.371 . S
C12 C14 1.365 . S
C13 C12 1.371 . S
C13 C23 1.386 . S
C13 H31 0.931 . S
C14 C12 1.365 . S
C14 C15 1.409 . S
C14 H32 0.929 . S
C15 C14 1.409 . S
C15 C16 1.380 . S
C15 H33 0.930 . S
C16 C15 1.380 . S
C16 C23 1.357 . S
C17 C8 1.511 1_556 S
C17 C18 1.341 . S
C17 C19 1.371 1_556 S
C18 C17 1.341 . S
C18 C22 1.394 . S
C18 H34 0.930 . S
C19 C17 1.371 1_554 S
C19 C20 1.392 1_554 S
C19 H35 0.931 . S
C20 C19 1.392 1_556 S
C20 C21 1.331 . S
C20 H38 0.932 . S
C21 C20 1.331 . S
C21 C22 1.336 . S
C22 C18 1.394 . S
C22 C21 1.336 . S
C22 H37 0.929 . S
C23 C13 1.386 . S
C23 C16 1.357 . S
C23 H36 0.928 . S
H24 C0 0.931 . S
H25 C2 0.930 . S
H26 C4 0.929 . S
H27 C5 0.931 . S
H28 C7 0.930 . S
H29 C11 0.931 . S
H30 C9 0.931 . S
H31 C13 0.931 . S
H32 C14 0.929 . S
H33 C15 0.930 . S
H34 C18 0.930 . S
H35 C19 0.931 . S
H36 C23 0.928 . S
H37 C22 0.929 . S
H38 C20 0.932 . S
C39 C40 1.386 . S
C39 C41 1.397 . S
C39 H63 0.931 . S
C40 C39 1.386 . S
C40 C44 1.397 . S
C41 C39 1.397 . S
C41 C42 1.384 . S
C41 H64 0.930 . S
C42 C41 1.384 . S
C42 C43 1.377 . S
C42 C45 1.481 . S
C43 C42 1.377 . S
C43 C44 1.389 . S
C43 H65 0.929 . S
C44 C40 1.397 . S
C44 C43 1.389 . S
C44 H66 0.931 . S
C45 C42 1.481 . S
C45 C46 1.387 . S
C45 C50 1.390 . S
C46 C45 1.387 . S
C46 C47 1.401 . S
C46 H67 0.930 . S
C47 C46 1.401 . S
C47 C48 1.376 . S
C47 C56 1.511 . S
C48 C47 1.376 . S
C48 C49 1.392 . S
C48 H69 0.931 . S
C49 C48 1.392 . S
C49 C50 1.361 . S
C49 C51 1.500 . S
C50 C45 1.390 . S
C50 C49 1.361 . S
C50 H68 0.931 . S
C51 C49 1.500 . S
C51 C52 1.371 . S
C51 C53 1.365 . S
C52 C51 1.371 . S
C52 C62 1.386 . S
C52 H70 0.931 . S
C53 C51 1.365 . S
C53 C54 1.409 . S
C53 H71 0.929 . S
C54 C53 1.409 . S
C54 C55 1.380 . S
C54 H72 0.930 . S
C55 C54 1.380 . S
C55 C62 1.357 . S
C56 C47 1.511 . S
C56 C57 1.341 . S
C56 C58 1.371 . S
C57 C56 1.341 . S
C57 C61 1.394 . S
C57 H73 0.930 . S
C58 C56 1.371 . S
C58 C59 1.392 . S
C58 H74 0.931 . S
C59 C58 1.392 . S
C59 C60 1.331 . S
C59 H77 0.932 . S
C60 C59 1.331 . S
C60 C61 1.336 . S
C61 C57 1.394 . S
C61 C60 1.336 . S
C61 H76 0.929 . S
C62 C52 1.386 . S
C62 C55 1.357 . S
C62 H75 0.928 . S
H63 C39 0.931 . S
H64 C41 0.930 . S
H65 C43 0.929 . S
H66 C44 0.931 . S
H67 C46 0.930 . S
H68 C50 0.931 . S
H69 C48 0.931 . S
H70 C52 0.931 . S
H71 C53 0.929 . S
H72 C54 0.930 . S
H73 C57 0.930 . S
H74 C58 0.931 . S
H75 C62 0.928 . S
H76 C61 0.929 . S
H77 C59 0.932 . S
C78 C79 1.386 . S
C78 C80 1.397 . S
C78 H102 0.931 . S
C79 C78 1.386 . S
C79 C83 1.397 . S
C80 C78 1.397 . S
C80 C81 1.384 . S
C80 H103 0.930 . S
C81 C80 1.384 . S
C81 C82 1.377 . S
C81 C84 1.481 . S
C82 C81 1.377 . S
C82 C83 1.389 . S
C82 H104 0.929 1_556 S
C83 C79 1.397 . S
C83 C82 1.389 . S
C83 H105 0.931 . S
C84 C81 1.481 . S
C84 C85 1.387 . S
C84 C89 1.390 1_556 S
C85 C84 1.387 . S
C85 C86 1.401 1_556 S
C85 H106 0.930 . S
C86 C85 1.401 1_554 S
C86 C87 1.376 . S
C86 C95 1.511 1_554 S
C87 C86 1.376 . S
C87 C88 1.392 . S
C87 H108 0.931 . S
C88 C87 1.392 . S
C88 C89 1.361 . S
C88 C90 1.500 . S
C89 C84 1.390 1_554 S
C89 C88 1.361 . S
C89 H107 0.931 . S
C90 C88 1.500 . S
C90 C91 1.371 . S
C90 C92 1.365 . S
C91 C90 1.371 . S
C91 C101 1.386 . S
C91 H109 0.931 . S
C92 C90 1.365 . S
C92 C93 1.409 . S
C92 H110 0.929 . S
C93 C92 1.409 . S
C93 C94 1.380 . S
C93 H111 0.930 . S
C94 C93 1.380 . S
C94 C101 1.357 . S
C95 C86 1.511 1_556 S
C95 C96 1.341 . S
C95 C97 1.371 1_556 S
C96 C95 1.341 . S
C96 C100 1.394 . S
C96 H112 0.930 . S
C97 C95 1.371 1_554 S
C97 C98 1.392 1_554 S
C97 H113 0.931 . S
C98 C97 1.392 1_556 S
C98 C99 1.331 . S
C98 H116 0.932 1_556 S
C99 C98 1.331 . S
C99 C100 1.336 . S
C100 C96 1.394 . S
C100 C99 1.336 . S
C100 H115 0.929 . S
C101 C91 1.386 . S
C101 C94 1.357 . S
C101 H114 0.928 . S
H102 C78 0.931 . S
H103 C80 0.930 . S
H104 C82 0.929 1_554 S
H105 C83 0.931 . S
H106 C85 0.930 . S
H107 C89 0.931 . S
H108 C87 0.931 . S
H109 C91 0.931 . S
H110 C92 0.929 . S
H111 C93 0.930 . S
H112 C96 0.930 . S
H113 C97 0.931 . S
H114 C101 0.928 . S
H115 C100 0.929 . S
H116 C98 0.932 1_554 S
C117 C118 1.386 . S
C117 C119 1.397 . S
C117 H141 0.931 . S
C118 C117 1.386 . S
C118 C122 1.397 . S
C119 C117 1.397 . S
C119 C120 1.384 . S
C119 H142 0.930 . S
C120 C119 1.384 . S
C120 C121 1.377 . S
C120 C123 1.481 . S
C121 C120 1.377 . S
C121 C122 1.389 . S
C121 H143 0.929 . S
C122 C118 1.397 . S
C122 C121 1.389 . S
C122 H144 0.931 . S
C123 C120 1.481 . S
C123 C124 1.387 . S
C123 C128 1.390 . S
C124 C123 1.387 . S
C124 C125 1.401 . S
C124 H145 0.930 . S
C125 C124 1.401 . S
C125 C126 1.376 . S
C125 C134 1.511 . S
C126 C125 1.376 . S
C126 C127 1.392 . S
C126 H147 0.931 . S
C127 C126 1.392 . S
C127 C128 1.361 . S
C127 C129 1.500 . S
C128 C123 1.390 . S
C128 C127 1.361 . S
C128 H146 0.931 . S
C129 C127 1.500 . S
C129 C130 1.371 . S
C129 C131 1.365 . S
C130 C129 1.371 . S
C130 C140 1.386 . S
C130 H148 0.931 . S
C131 C129 1.365 . S
C131 C132 1.409 . S
C131 H149 0.929 . S
C132 C131 1.409 . S
C132 C133 1.380 . S
C132 H150 0.930 . S
C133 C132 1.380 . S
C133 C140 1.357 . S
C134 C125 1.511 . S
C134 C135 1.341 . S
C134 C136 1.371 . S
C135 C134 1.341 . S
C135 C139 1.394 . S
C135 H151 0.930 . S
C136 C134 1.371 . S
C136 C137 1.392 . S
C136 H152 0.931 . S
C137 C136 1.392 . S
C137 C138 1.331 . S
C137 H155 0.932 . S
C138 C137 1.331 . S
C138 C139 1.336 . S
C139 C135 1.394 . S
C139 C138 1.336 . S
C139 H154 0.929 . S
C140 C130 1.386 . S
C140 C133 1.357 . S
C140 H153 0.928 . S
H141 C117 0.931 . S
H142 C119 0.930 . S
H143 C121 0.929 . S
H144 C122 0.931 . S
H145 C124 0.930 . S
H146 C128 0.931 . S
H147 C126 0.931 . S
H148 C130 0.931 . S
H149 C131 0.929 . S
H150 C132 0.930 . S
H151 C135 0.930 . S
H152 C136 0.931 . S
H153 C140 0.928 . S
H154 C139 0.929 . S
H155 C137 0.932 . S
C156 C157 1.386 . S
C156 C158 1.397 . S
C156 H180 0.931 . S
C157 C156 1.386 . S
C157 C161 1.397 . S
C158 C156 1.397 . S
C158 C159 1.384 . S
C158 H181 0.930 . S
C159 C158 1.384 . S
C159 C160 1.377 . S
C159 C162 1.481 . S
C160 C159 1.377 . S
C160 C161 1.389 . S
C160 H182 0.929 . S
C161 C157 1.397 . S
C161 C160 1.389 . S
C161 H183 0.931 . S
C162 C159 1.481 . S
C162 C163 1.387 . S
C162 C167 1.390 1_556 S
C163 C162 1.387 . S
C163 C164 1.401 1_556 S
C163 H184 0.930 . S
C164 C163 1.401 1_554 S
C164 C165 1.376 . S
C164 C173 1.511 1_554 S
C165 C164 1.376 . S
C165 C166 1.392 . S
C165 H186 0.931 . S
C166 C165 1.392 . S
C166 C167 1.361 . S
C166 C168 1.500 . S
C167 C162 1.390 1_554 S
C167 C166 1.361 . S
C167 H185 0.931 . S
C168 C166 1.500 . S
C168 C169 1.371 . S
C168 C170 1.365 . S
C169 C168 1.371 . S
C169 C179 1.386 . S
C169 H187 0.931 . S
C170 C168 1.365 . S
C170 C171 1.409 . S
C170 H188 0.929 . S
C171 C170 1.409 . S
C171 C172 1.380 . S
C171 H189 0.930 . S
C172 C171 1.380 . S
C172 C179 1.357 . S
C173 C164 1.511 1_556 S
C173 C174 1.341 . S
C173 C175 1.371 1_556 S
C174 C173 1.341 . S
C174 C178 1.394 . S
C174 H190 0.930 . S
C175 C173 1.371 1_554 S
C175 C176 1.392 1_554 S
C175 H191 0.931 . S
C176 C175 1.392 1_556 S
C176 C177 1.331 . S
C176 H194 0.932 . S
C177 C176 1.331 . S
C177 C178 1.336 . S
C178 C174 1.394 . S
C178 C177 1.336 . S
C178 H193 0.929 . S
C179 C169 1.386 . S
C179 C172 1.357 . S
C179 H192 0.928 . S
H180 C156 0.931 . S
H181 C158 0.930 . S
H182 C160 0.929 . S
H183 C161 0.931 . S
H184 C163 0.930 . S
H185 C167 0.931 . S
H186 C165 0.931 . S
H187 C169 0.931 . S
H188 C170 0.929 . S
H189 C171 0.930 . S
H190 C174 0.930 . S
H191 C175 0.931 . S
H192 C179 0.928 . S
H193 C178 0.929 . S
H194 C176 0.932 . S
C195 C196 1.386 . S
C195 C197 1.397 . S
C195 H219 0.931 . S
C196 C195 1.386 . S
C196 C200 1.397 . S
C197 C195 1.397 . S
C197 C198 1.384 . S
C197 H220 0.930 . S
C198 C197 1.384 . S
C198 C199 1.377 . S
C198 C201 1.481 . S
C199 C198 1.377 . S
C199 C200 1.389 . S
C199 H221 0.929 . S
C200 C196 1.397 . S
C200 C199 1.389 . S
C200 H222 0.931 . S
C201 C198 1.481 . S
C201 C202 1.387 . S
C201 C206 1.390 . S
C202 C201 1.387 . S
C202 C203 1.401 . S
C202 H223 0.930 . S
C203 C202 1.401 . S
C203 C204 1.376 . S
C203 C212 1.511 . S
C204 C203 1.376 . S
C204 C205 1.392 . S
C204 H225 0.931 . S
C205 C204 1.392 . S
C205 C206 1.361 . S
C205 C207 1.500 . S
C206 C201 1.390 . S
C206 C205 1.361 . S
C206 H224 0.931 . S
C207 C205 1.500 . S
C207 C208 1.371 . S
C207 C209 1.365 . S
C208 C207 1.371 . S
C208 C218 1.386 . S
C208 H226 0.931 . S
C209 C207 1.365 . S
C209 C210 1.409 . S
C209 H227 0.929 . S
C210 C209 1.409 . S
C210 C211 1.380 . S
C210 H228 0.930 . S
C211 C210 1.380 . S
C211 C218 1.357 . S
C212 C203 1.511 . S
C212 C213 1.341 . S
C212 C214 1.371 . S
C213 C212 1.341 . S
C213 C217 1.394 . S
C213 H229 0.930 . S
C214 C212 1.371 . S
C214 C215 1.392 . S
C214 H230 0.931 . S
C215 C214 1.392 . S
C215 C216 1.331 . S
C215 H233 0.932 . S
C216 C215 1.331 . S
C216 C217 1.336 . S
C217 C213 1.394 . S
C217 C216 1.336 . S
C217 H232 0.929 . S
C218 C208 1.386 . S
C218 C211 1.357 . S
C218 H231 0.928 . S
H219 C195 0.931 . S
H220 C197 0.930 . S
H221 C199 0.929 . S
H222 C200 0.931 . S
H223 C202 0.930 . S
H224 C206 0.931 . S
H225 C204 0.931 . S
H226 C208 0.931 . S
H227 C209 0.929 . S
H228 C210 0.930 . S
H229 C213 0.930 . S
H230 C214 0.931 . S
H231 C218 0.928 . S
H232 C217 0.929 . S
H233 C215 0.932 . S
C234 C235 1.386 . S
C234 C236 1.397 . S
C234 H258 0.931 . S
C235 C234 1.386 . S
C235 C239 1.397 . S
C236 C234 1.397 . S
C236 C237 1.384 . S
C236 H259 0.930 . S
C237 C236 1.384 . S
C237 C238 1.377 . S
C237 C240 1.481 . S
C238 C237 1.377 . S
C238 C239 1.389 . S
C238 H260 0.929 1_556 S
C239 C235 1.397 . S
C239 C238 1.389 . S
C239 H261 0.931 . S
C240 C237 1.481 . S
C240 C241 1.387 . S
C240 C245 1.390 1_556 S
C241 C240 1.387 . S
C241 C242 1.401 1_556 S
C241 H262 0.930 . S
C242 C241 1.401 1_554 S
C242 C243 1.376 . S
C242 C251 1.511 1_554 S
C243 C242 1.376 . S
C243 C244 1.392 . S
C243 H264 0.931 . S
C244 C243 1.392 . S
C244 C245 1.361 . S
C244 C246 1.500 . S
C245 C240 1.390 1_554 S
C245 C244 1.361 . S
C245 H263 0.931 . S
C246 C244 1.500 . S
C246 C247 1.371 . S
C246 C248 1.365 . S
C247 C246 1.371 . S
C247 C257 1.386 . S
C247 H265 0.931 . S
C248 C246 1.365 . S
C248 C249 1.409 . S
C248 H266 0.929 . S
C249 C248 1.409 . S
C249 C250 1.380 . S
C249 H267 0.930 . S
C250 C249 1.380 . S
C250 C257 1.357 . S
C251 C242 1.511 1_556 S
C251 C252 1.341 . S
C251 C253 1.371 1_556 S
C252 C251 1.341 . S
C252 C256 1.394 . S
C252 H268 0.930 . S
C253 C251 1.371 1_554 S
C253 C254 1.392 1_554 S
C253 H269 0.931 . S
C254 C253 1.392 1_556 S
C254 C255 1.331 . S
C254 H272 0.932 1_556 S
C255 C254 1.331 . S
C255 C256 1.336 . S
C256 C252 1.394 . S
C256 C255 1.336 . S
C256 H271 0.929 . S
C257 C247 1.386 . S
C257 C250 1.357 . S
C257 H270 0.928 . S
H258 C234 0.931 . S
H259 C236 0.930 . S
H260 C238 0.929 1_554 S
H261 C239 0.931 . S
H262 C241 0.930 . S
H263 C245 0.931 . S
H264 C243 0.931 . S
H265 C247 0.931 . S
H266 C248 0.929 . S
H267 C249 0.930 . S
H268 C252 0.930 . S
H269 C253 0.931 . S
H270 C257 0.928 . S
H271 C256 0.929 . S
H272 C254 0.932 1_554 S
C273 C274 1.386 . S
C273 C275 1.397 . S
C273 H297 0.931 . S
C274 C273 1.386 . S
C274 C278 1.397 . S
C275 C273 1.397 . S
C275 C276 1.384 . S
C275 H298 0.930 . S
C276 C275 1.384 . S
C276 C277 1.377 . S
C276 C279 1.481 . S
C277 C276 1.377 . S
C277 C278 1.389 . S
C277 H299 0.929 . S
C278 C274 1.397 . S
C278 C277 1.389 . S
C278 H300 0.931 . S
C279 C276 1.481 . S
C279 C280 1.387 . S
C279 C284 1.390 . S
C280 C279 1.387 . S
C280 C281 1.401 . S
C280 H301 0.930 . S
C281 C280 1.401 . S
C281 C282 1.376 . S
C281 C290 1.511 . S
C282 C281 1.376 . S
C282 C283 1.392 . S
C282 H303 0.931 . S
C283 C282 1.392 . S
C283 C284 1.361 . S
C283 C285 1.500 . S
C284 C279 1.390 . S
C284 C283 1.361 . S
C284 H302 0.931 . S
C285 C283 1.500 . S
C285 C286 1.371 . S
C285 C287 1.365 . S
C286 C285 1.371 . S
C286 C296 1.386 . S
C286 H304 0.931 . S
C287 C285 1.365 . S
C287 C288 1.409 . S
C287 H305 0.929 . S
C288 C287 1.409 . S
C288 C289 1.380 . S
C288 H306 0.930 . S
C289 C288 1.380 . S
C289 C296 1.357 . S
C290 C281 1.511 . S
C290 C291 1.341 . S
C290 C292 1.371 . S
C291 C290 1.341 . S
C291 C295 1.394 . S
C291 H307 0.930 . S
C292 C290 1.371 . S
C292 C293 1.392 . S
C292 H308 0.931 . S
C293 C292 1.392 . S
C293 C294 1.331 . S
C293 H311 0.932 . S
C294 C293 1.331 . S
C294 C295 1.336 . S
C295 C291 1.394 . S
C295 C294 1.336 . S
C295 H310 0.929 . S
C296 C286 1.386 . S
C296 C289 1.357 . S
C296 H309 0.928 . S
H297 C273 0.931 . S
H298 C275 0.930 . S
H299 C277 0.929 . S
H300 C278 0.931 . S
H301 C280 0.930 . S
H302 C284 0.931 . S
H303 C282 0.931 . S
H304 C286 0.931 . S
H305 C287 0.929 . S
H306 C288 0.930 . S
H307 C291 0.930 . S
H308 C292 0.931 . S
H309 C296 0.928 . S
H310 C295 0.929 . S
H311 C293 0.932 . S
Sc312 O315 2.025 . S
Sc312 O322 2.105 1_455 S
Sc312 O325 2.105 . S
Sc312 O328 2.105 . S
Sc312 O331 2.105 1_455 S
Sc313 O315 2.025 . S
Sc313 O323 2.105 1_455 S
Sc313 O327 2.105 . S
Sc313 O329 2.105 . S
Sc313 O333 2.105 1_455 S
Sc314 O315 2.025 . S
Sc314 O324 2.105 1_455 S
Sc314 O326 2.105 . S
Sc314 O330 2.105 . S
Sc314 O332 2.105 1_455 S
O315 Sc312 2.025 . S
O315 Sc313 2.025 . S
O315 Sc314 2.025 . S
C316 O322 1.268 . S
C316 O332 1.268 . S
C317 O323 1.268 . S
C317 O331 1.268 . S
C318 O324 1.268 . S
C318 O333 1.268 . S
C319 O325 1.268 . S
C319 O329 1.268 . S
C320 O326 1.268 . S
C320 O328 1.268 . S
C321 O327 1.268 . S
C321 O330 1.268 . S
O322 Sc312 2.105 1_655 S
O322 C316 1.268 . S
O323 Sc313 2.105 1_655 S
O323 C317 1.268 . S
O324 Sc314 2.105 1_655 S
O324 C318 1.268 . S
O325 Sc312 2.105 . S
O325 C319 1.268 . S
O326 Sc314 2.105 . S
O326 C320 1.268 . S
O327 Sc313 2.105 . S
O327 C321 1.268 . S
O328 Sc312 2.105 . S
O328 C320 1.268 . S
O329 Sc313 2.105 . S
O329 C319 1.268 . S
O330 Sc314 2.105 . S
O330 C321 1.268 . S
O331 Sc312 2.105 1_655 S
O331 C317 1.268 . S
O332 Sc314 2.105 1_655 S
O332 C316 1.268 . S
O333 Sc313 2.105 1_655 S
O333 C318 1.268 . S
Sc334 O337 2.025 . S
Sc334 O344 2.105 . S
Sc334 O347 2.105 1_455 S
Sc334 O350 2.105 1_455 S
Sc334 O353 2.105 . S
Sc335 O337 2.025 . S
Sc335 O345 2.105 . S
Sc335 O349 2.105 1_455 S
Sc335 O351 2.105 1_455 S
Sc335 O355 2.105 . S
Sc336 O337 2.025 . S
Sc336 O346 2.105 . S
Sc336 O348 2.105 1_455 S
Sc336 O352 2.105 1_455 S
Sc336 O354 2.105 . S
O337 Sc334 2.025 . S
O337 Sc335 2.025 . S
O337 Sc336 2.025 . S
C338 O344 1.268 . S
C338 O354 1.268 . S
C339 O345 1.268 . S
C339 O353 1.268 . S
C340 O346 1.268 . S
C340 O355 1.268 . S
C341 O347 1.268 . S
C341 O351 1.268 . S
C342 O348 1.268 . S
C342 O350 1.268 . S
C343 O349 1.268 . S
C343 O352 1.268 . S
O344 Sc334 2.105 . S
O344 C338 1.268 . S
O345 Sc335 2.105 . S
O345 C339 1.268 . S
O346 Sc336 2.105 . S
O346 C340 1.268 . S
O347 Sc334 2.105 1_655 S
O347 C341 1.268 . S
O348 Sc336 2.105 1_655 S
O348 C342 1.268 . S
O349 Sc335 2.105 1_655 S
O349 C343 1.268 . S
O350 Sc334 2.105 1_655 S
O350 C342 1.268 . S
O351 Sc335 2.105 1_655 S
O351 C341 1.268 . S
O352 Sc336 2.105 1_655 S
O352 C343 1.268 . S
O353 Sc334 2.105 . S
O353 C339 1.268 . S
O354 Sc336 2.105 . S
O354 C338 1.268 . S
O355 Sc335 2.105 . S
O355 C340 1.268 . S
Sc356 O359 2.025 . S
Sc356 O366 2.105 . S
Sc356 O369 2.105 . S
Sc356 O372 2.105 . S
Sc356 O375 2.105 . S
Sc357 O359 2.025 . S
Sc357 O367 2.105 . S
Sc357 O371 2.105 . S
Sc357 O373 2.105 . S
Sc357 O377 2.105 . S
Sc358 O359 2.025 . S
Sc358 O368 2.105 . S
Sc358 O370 2.105 . S
Sc358 O374 2.105 . S
Sc358 O376 2.105 . S
O359 Sc356 2.025 . S
O359 Sc357 2.025 . S
O359 Sc358 2.025 . S
C360 O366 1.268 . S
C360 O376 1.268 . S
C361 O367 1.268 . S
C361 O375 1.268 . S
C362 O368 1.268 . S
C362 O377 1.268 . S
C363 O369 1.268 . S
C363 O373 1.268 . S
C364 O370 1.268 . S
C364 O372 1.268 . S
C365 O371 1.268 . S
C365 O374 1.268 . S
O366 Sc356 2.105 . S
O366 C360 1.268 . S
O367 Sc357 2.105 . S
O367 C361 1.268 . S
O368 Sc358 2.105 . S
O368 C362 1.268 . S
O369 Sc356 2.105 . S
O369 C363 1.268 . S
O370 Sc358 2.105 . S
O370 C364 1.268 . S
O371 Sc357 2.105 . S
O371 C365 1.268 . S
O372 Sc356 2.105 . S
O372 C364 1.268 . S
O373 Sc357 2.105 . S
O373 C363 1.268 . S
O374 Sc358 2.105 . S
O374 C365 1.268 . S
O375 Sc356 2.105 . S
O375 C361 1.268 . S
O376 Sc358 2.105 . S
O376 C360 1.268 . S
O377 Sc357 2.105 . S
O377 C362 1.268 . S
Sc378 O381 2.025 . S
Sc378 O388 2.105 . S
Sc378 O391 2.105 . S
Sc378 O394 2.105 . S
Sc378 O397 2.105 . S
Sc379 O381 2.025 . S
Sc379 O389 2.105 . S
Sc379 O393 2.105 . S
Sc379 O395 2.105 . S
Sc379 O399 2.105 . S
Sc380 O381 2.025 . S
Sc380 O390 2.105 . S
Sc380 O392 2.105 . S
Sc380 O396 2.105 . S
Sc380 O398 2.105 . S
O381 Sc378 2.025 . S
O381 Sc379 2.025 . S
O381 Sc380 2.025 . S
C382 O388 1.268 . S
C382 O398 1.268 . S
C383 O389 1.268 . S
C383 O397 1.268 . S
C384 O390 1.268 . S
C384 O399 1.268 . S
C385 O391 1.268 . S
C385 O395 1.268 . S
C386 O392 1.268 . S
C386 O394 1.268 . S
C387 O393 1.268 . S
C387 O396 1.268 . S
O388 Sc378 2.105 . S
O388 C382 1.268 . S
O389 Sc379 2.105 . S
O389 C383 1.268 . S
O390 Sc380 2.105 . S
O390 C384 1.268 . S
O391 Sc378 2.105 . S
O391 C385 1.268 . S
O392 Sc380 2.105 . S
O392 C386 1.268 . S
O393 Sc379 2.105 . S
O393 C387 1.268 . S
O394 Sc378 2.105 . S
O394 C386 1.268 . S
O395 Sc379 2.105 . S
O395 C385 1.268 . S
O396 Sc380 2.105 . S
O396 C387 1.268 . S
O397 Sc378 2.105 . S
O397 C383 1.268 . S
O398 Sc380 2.105 . S
O398 C382 1.268 . S
O399 Sc379 2.105 . S
O399 C384 1.268 . S
H400 C408 0.929 . S
H401 C410 0.930 . S
H402 C412 0.930 . S
H403 C415 0.929 . S
H404 C418 0.930 . S
H405 C420 0.960 . S
H406 C420 0.960 . S
H407 C420 0.960 . S
C408 H400 0.929 . S
C408 C409 1.377 . S
C408 C410 1.384 . S
C409 C408 1.377 . S
C409 C415 1.390 . S
C410 H401 0.930 . S
C410 C408 1.384 . S
C410 C411 1.372 . S
C411 C410 1.372 . S
C411 C412 1.400 . S
C411 C416 1.490 . S
C412 H402 0.930 . S
C412 C411 1.400 . S
C412 C415 1.386 . S
H413 C429 0.930 . S
H414 C430 0.931 . S
C415 H403 0.929 . S
C415 C409 1.390 . S
C415 C412 1.386 . S
C416 C411 1.490 . S
C416 C418 1.395 . S
C416 C419 1.403 . S
H417 C423 0.930 . S
C418 H404 0.930 . S
C418 C416 1.395 . S
C418 C421 1.403 . S
C419 C416 1.403 . S
C419 C420 1.524 . S
C419 C423 1.400 . S
C420 H405 0.960 . S
C420 H406 0.960 . S
C420 H407 0.960 . S
C420 C419 1.524 . S
C421 C418 1.403 . S
C421 C422 1.392 . S
C421 C425 1.495 . S
C422 C421 1.392 . S
C422 C423 1.385 . S
C422 C424 1.478 . S
C423 H417 0.930 . S
C423 C419 1.400 . S
C423 C422 1.385 . S
C424 C422 1.478 . S
C424 C426 1.381 . S
C424 C430 1.383 . S
C425 C421 1.495 . S
C425 H431 0.959 . S
C425 H432 0.961 . S
C425 H433 0.960 . S
C426 C424 1.381 . S
C426 C427 1.394 . S
C426 H434 0.930 . S
C427 C426 1.394 . S
C427 C428 1.383 . S
C427 H435 0.929 . S
C428 C427 1.383 . S
C428 C429 1.377 . S
C429 H413 0.930 . S
C429 C428 1.377 . S
C429 C430 1.379 . S
C430 H414 0.931 . S
C430 C424 1.383 . S
C430 C429 1.379 . S
H431 C425 0.959 . S
H432 C425 0.961 . S
H433 C425 0.960 . S
H434 C426 0.930 . S
H435 C427 0.929 . S
H436 C444 0.929 . S
H437 C446 0.930 . S
H438 C448 0.930 . S
H439 C451 0.929 . S
H440 C454 0.930 . S
H441 C456 0.960 . S
H442 C456 0.960 . S
H443 C456 0.960 . S
C444 H436 0.929 . S
C444 C445 1.377 . S
C444 C446 1.384 . S
C445 C444 1.377 . S
C445 C451 1.390 . S
C446 H437 0.930 . S
C446 C444 1.384 . S
C446 C447 1.372 . S
C447 C446 1.372 . S
C447 C448 1.400 . S
C447 C452 1.490 . S
C448 H438 0.930 . S
C448 C447 1.400 . S
C448 C451 1.386 . S
H449 C465 0.930 . S
H450 C466 0.931 . S
C451 H439 0.929 . S
C451 C445 1.390 . S
C451 C448 1.386 . S
C452 C447 1.490 . S
C452 C454 1.395 . S
C452 C455 1.403 . S
H453 C459 0.930 . S
C454 H440 0.930 . S
C454 C452 1.395 . S
C454 C457 1.403 . S
C455 C452 1.403 . S
C455 C456 1.524 . S
C455 C459 1.400 . S
C456 H441 0.960 . S
C456 H442 0.960 . S
C456 H443 0.960 . S
C456 C455 1.524 . S
C457 C454 1.403 . S
C457 C458 1.392 . S
C457 C461 1.495 . S
C458 C457 1.392 . S
C458 C459 1.385 . S
C458 C460 1.478 . S
C459 H453 0.930 . S
C459 C455 1.400 . S
C459 C458 1.385 . S
C460 C458 1.478 . S
C460 C462 1.381 . S
C460 C466 1.383 . S
C461 C457 1.495 . S
C461 H467 0.959 . S
C461 H468 0.961 . S
C461 H469 0.960 . S
C462 C460 1.381 . S
C462 C463 1.394 . S
C462 H470 0.930 . S
C463 C462 1.394 . S
C463 C464 1.383 . S
C463 H471 0.929 . S
C464 C463 1.383 . S
C464 C465 1.377 . S
C465 H449 0.930 . S
C465 C464 1.377 . S
C465 C466 1.379 . S
C466 H450 0.931 . S
C466 C460 1.383 . S
C466 C465 1.379 . S
H467 C461 0.959 . S
H468 C461 0.961 . S
H469 C461 0.960 . S
H470 C462 0.930 . S
H471 C463 0.929 . S
H472 C480 0.929 . S
H473 C482 0.930 . S
H474 C484 0.930 . S
H475 C487 0.929 . S
H476 C490 0.930 . S
H477 C492 0.960 . S
H478 C492 0.960 . S
H479 C492 0.960 . S
C480 H472 0.929 . S
C480 C481 1.377 . S
C480 C482 1.384 . S
C481 C480 1.377 . S
C481 C487 1.390 . S
C482 H473 0.930 . S
C482 C480 1.384 . S
C482 C483 1.372 . S
C483 C482 1.372 . S
C483 C484 1.400 . S
C483 C488 1.490 . S
C484 H474 0.930 . S
C484 C483 1.400 . S
C484 C487 1.386 . S
H485 C501 0.930 . S
H486 C502 0.931 . S
C487 H475 0.929 . S
C487 C481 1.390 . S
C487 C484 1.386 . S
C488 C483 1.490 . S
C488 C490 1.395 . S
C488 C491 1.403 . S
H489 C495 0.930 . S
C490 H476 0.930 . S
C490 C488 1.395 . S
C490 C493 1.403 . S
C491 C488 1.403 . S
C491 C492 1.524 . S
C491 C495 1.400 . S
C492 H477 0.960 . S
C492 H478 0.960 . S
C492 H479 0.960 . S
C492 C491 1.524 . S
C493 C490 1.403 . S
C493 C494 1.392 . S
C493 C497 1.495 . S
C494 C493 1.392 . S
C494 C495 1.385 . S
C494 C496 1.478 . S
C495 H489 0.930 . S
C495 C491 1.400 . S
C495 C494 1.385 . S
C496 C494 1.478 . S
C496 C498 1.381 . S
C496 C502 1.383 . S
C497 C493 1.495 . S
C497 H503 0.959 . S
C497 H504 0.961 . S
C497 H505 0.960 . S
C498 C496 1.381 . S
C498 C499 1.394 . S
C498 H506 0.930 . S
C499 C498 1.394 . S
C499 C500 1.383 . S
C499 H507 0.929 . S
C500 C499 1.383 . S
C500 C501 1.377 . S
C501 H485 0.930 . S
C501 C500 1.377 . S
C501 C502 1.379 . S
C502 H486 0.931 . S
C502 C496 1.383 . S
C502 C501 1.379 . S
H503 C497 0.959 . S
H504 C497 0.961 . S
H505 C497 0.960 . S
H506 C498 0.930 . S
H507 C499 0.929 . S
H508 C516 0.929 . S
H509 C518 0.930 . S
H510 C520 0.930 . S
H511 C523 0.929 . S
H512 C526 0.930 . S
H513 C528 0.960 . S
H514 C528 0.960 . S
H515 C528 0.960 . S
C516 H508 0.929 . S
C516 C517 1.377 . S
C516 C518 1.384 . S
C517 C516 1.377 . S
C517 C523 1.390 . S
C518 H509 0.930 . S
C518 C516 1.384 . S
C518 C519 1.372 . S
C519 C518 1.372 . S
C519 C520 1.400 . S
C519 C524 1.490 . S
C520 H510 0.930 . S
C520 C519 1.400 . S
C520 C523 1.386 . S
H521 C537 0.930 . S
H522 C538 0.931 . S
C523 H511 0.929 . S
C523 C517 1.390 . S
C523 C520 1.386 . S
C524 C519 1.490 . S
C524 C526 1.395 . S
C524 C527 1.403 . S
H525 C531 0.930 . S
C526 H512 0.930 . S
C526 C524 1.395 . S
C526 C529 1.403 . S
C527 C524 1.403 . S
C527 C528 1.524 . S
C527 C531 1.400 . S
C528 H513 0.960 . S
C528 H514 0.960 . S
C528 H515 0.960 . S
C528 C527 1.524 . S
C529 C526 1.403 . S
C529 C530 1.392 . S
C529 C533 1.495 . S
C530 C529 1.392 . S
C530 C531 1.385 . S
C530 C532 1.478 . S
C531 H525 0.930 . S
C531 C527 1.400 . S
C531 C530 1.385 . S
C532 C530 1.478 . S
C532 C534 1.381 . S
C532 C538 1.383 . S
C533 C529 1.495 . S
C533 H539 0.959 . S
C533 H540 0.961 . S
C533 H541 0.960 . S
C534 C532 1.381 . S
C534 C535 1.394 . S
C534 H542 0.930 . S
C535 C534 1.394 . S
C535 C536 1.383 . S
C535 H543 0.929 . S
C536 C535 1.383 . S
C536 C537 1.377 . S
C537 H521 0.930 . S
C537 C536 1.377 . S
C537 C538 1.379 . S
C538 H522 0.931 . S
C538 C532 1.383 . S
C538 C537 1.379 . S
H539 C533 0.959 . S
H540 C533 0.961 . S
H541 C533 0.960 . S
H542 C534 0.930 . S
H543 C535 0.929 . S
H544 C552 0.929 . S
H545 C554 0.930 . S
H546 C556 0.930 . S
H547 C559 0.929 . S
H548 C562 0.930 . S
H549 C564 0.960 . S
H550 C564 0.960 . S
H551 C564 0.960 . S
C552 H544 0.929 . S
C552 C553 1.377 . S
C552 C554 1.384 . S
C553 C552 1.377 . S
C553 C559 1.390 . S
C554 H545 0.930 . S
C554 C552 1.384 . S
C554 C555 1.372 . S
C555 C554 1.372 . S
C555 C556 1.400 . S
C555 C560 1.490 . S
C556 H546 0.930 . S
C556 C555 1.400 . S
C556 C559 1.386 . S
H557 C573 0.930 . S
H558 C574 0.931 . S
C559 H547 0.929 . S
C559 C553 1.390 . S
C559 C556 1.386 . S
C560 C555 1.490 . S
C560 C562 1.395 . S
C560 C563 1.403 . S
H561 C567 0.930 . S
C562 H548 0.930 . S
C562 C560 1.395 . S
C562 C565 1.403 . S
C563 C560 1.403 . S
C563 C564 1.524 . S
C563 C567 1.400 . S
C564 H549 0.960 . S
C564 H550 0.960 . S
C564 H551 0.960 . S
C564 C563 1.524 . S
C565 C562 1.403 . S
C565 C566 1.392 . S
C565 C569 1.495 . S
C566 C565 1.392 . S
C566 C567 1.385 . S
C566 C568 1.478 . S
C567 H561 0.930 . S
C567 C563 1.400 . S
C567 C566 1.385 . S
C568 C566 1.478 . S
C568 C570 1.381 . S
C568 C574 1.383 . S
C569 C565 1.495 . S
C569 H575 0.959 . S
C569 H576 0.961 . S
C569 H577 0.960 . S
C570 C568 1.381 . S
C570 C571 1.394 . S
C570 H578 0.930 . S
C571 C570 1.394 . S
C571 C572 1.383 . S
C571 H579 0.929 . S
C572 C571 1.383 . S
C572 C573 1.377 . S
C573 H557 0.930 . S
C573 C572 1.377 . S
C573 C574 1.379 . S
C574 H558 0.931 . S
C574 C568 1.383 . S
C574 C573 1.379 . S
H575 C569 0.959 . S
H576 C569 0.961 . S
H577 C569 0.960 . S
H578 C570 0.930 . S
H579 C571 0.929 . S
H580 C588 0.929 . S
H581 C590 0.930 . S
H582 C592 0.930 . S
H583 C595 0.929 . S
H584 C598 0.930 . S
H585 C600 0.960 . S
H586 C600 0.960 . S
H587 C600 0.960 . S
C588 H580 0.929 . S
C588 C589 1.377 . S
C588 C590 1.384 . S
C589 C588 1.377 . S
C589 C595 1.390 . S
C590 H581 0.930 . S
C590 C588 1.384 . S
C590 C591 1.372 . S
C591 C590 1.372 . S
C591 C592 1.400 . S
C591 C596 1.490 . S
C592 H582 0.930 . S
C592 C591 1.400 . S
C592 C595 1.386 . S
H593 C609 0.930 . S
H594 C610 0.931 . S
C595 H583 0.929 . S
C595 C589 1.390 . S
C595 C592 1.386 . S
C596 C591 1.490 . S
C596 C598 1.395 . S
C596 C599 1.403 . S
H597 C603 0.930 . S
C598 H584 0.930 . S
C598 C596 1.395 . S
C598 C601 1.403 . S
C599 C596 1.403 . S
C599 C600 1.524 . S
C599 C603 1.400 . S
C600 H585 0.960 . S
C600 H586 0.960 . S
C600 H587 0.960 . S
C600 C599 1.524 . S
C601 C598 1.403 . S
C601 C602 1.392 . S
C601 C605 1.495 . S
C602 C601 1.392 . S
C602 C603 1.385 . S
C602 C604 1.478 . S
C603 H597 0.930 . S
C603 C599 1.400 . S
C603 C602 1.385 . S
C604 C602 1.478 . S
C604 C606 1.381 . S
C604 C610 1.383 . S
C605 C601 1.495 . S
C605 H611 0.959 . S
C605 H612 0.961 . S
C605 H613 0.960 . S
C606 C604 1.381 . S
C606 C607 1.394 . S
C606 H614 0.930 . S
C607 C606 1.394 . S
C607 C608 1.383 . S
C607 H615 0.929 . S
C608 C607 1.383 . S
C608 C609 1.377 . S
C609 H593 0.930 . S
C609 C608 1.377 . S
C609 C610 1.379 . S
C610 H594 0.931 . S
C610 C604 1.383 . S
C610 C609 1.379 . S
H611 C605 0.959 . S
H612 C605 0.961 . S
H613 C605 0.960 . S
H614 C606 0.930 . S
H615 C607 0.929 . S
H616 C624 0.929 . S
H617 C626 0.930 . S
H618 C628 0.930 . S
H619 C631 0.929 . S
H620 C634 0.930 . S
H621 C636 0.960 . S
H622 C636 0.960 . S
H623 C636 0.960 . S
C624 H616 0.929 . S
C624 C625 1.377 . S
C624 C626 1.384 . S
C625 C624 1.377 . S
C625 C631 1.390 . S
C626 H617 0.930 . S
C626 C624 1.384 . S
C626 C627 1.372 . S
C627 C626 1.372 . S
C627 C628 1.400 . S
C627 C632 1.490 . S
C628 H618 0.930 . S
C628 C627 1.400 . S
C628 C631 1.386 . S
H629 C645 0.930 . S
H630 C646 0.931 . S
C631 H619 0.929 . S
C631 C625 1.390 . S
C631 C628 1.386 . S
C632 C627 1.490 . S
C632 C634 1.395 . S
C632 C635 1.403 . S
H633 C639 0.930 . S
C634 H620 0.930 . S
C634 C632 1.395 . S
C634 C637 1.403 . S
C635 C632 1.403 . S
C635 C636 1.524 . S
C635 C639 1.400 . S
C636 H621 0.960 . S
C636 H622 0.960 . S
C636 H623 0.960 . S
C636 C635 1.524 . S
C637 C634 1.403 . S
C637 C638 1.392 . S
C637 C641 1.495 . S
C638 C637 1.392 . S
C638 C639 1.385 . S
C638 C640 1.478 . S
C639 H633 0.930 . S
C639 C635 1.400 . S
C639 C638 1.385 . S
C640 C638 1.478 . S
C640 C642 1.381 . S
C640 C646 1.383 . S
C641 C637 1.495 . S
C641 H647 0.959 . S
C641 H648 0.961 . S
C641 H649 0.960 . S
C642 C640 1.381 . S
C642 C643 1.394 . S
C642 H650 0.930 . S
C643 C642 1.394 . S
C643 C644 1.383 . S
C643 H651 0.929 . S
C644 C643 1.383 . S
C644 C645 1.377 . S
C645 H629 0.930 . S
C645 C644 1.377 . S
C645 C646 1.379 . S
C646 H630 0.931 . S
C646 C640 1.383 . S
C646 C645 1.379 . S
H647 C641 0.959 . S
H648 C641 0.961 . S
H649 C641 0.960 . S
H650 C642 0.930 . S
H651 C643 0.929 . S
H652 C660 0.929 . S
H653 C662 0.930 . S
H654 C664 0.930 . S
H655 C667 0.929 . S
H656 C670 0.930 . S
H657 C672 0.960 . S
H658 C672 0.960 . S
H659 C672 0.960 . S
C660 H652 0.929 . S
C660 C661 1.377 . S
C660 C662 1.384 . S
C661 C660 1.377 . S
C661 C667 1.390 . S
C662 H653 0.930 . S
C662 C660 1.384 . S
C662 C663 1.372 . S
C663 C662 1.372 . S
C663 C664 1.400 . S
C663 C668 1.490 . S
C664 H654 0.930 . S
C664 C663 1.400 . S
C664 C667 1.386 . S
H665 C681 0.930 . S
H666 C682 0.931 . S
C667 H655 0.929 . S
C667 C661 1.390 . S
C667 C664 1.386 . S
C668 C663 1.490 . S
C668 C670 1.395 . S
C668 C671 1.403 . S
H669 C675 0.930 . S
C670 H656 0.930 . S
C670 C668 1.395 . S
C670 C673 1.403 . S
C671 C668 1.403 . S
C671 C672 1.524 . S
C671 C675 1.400 . S
C672 H657 0.960 . S
C672 H658 0.960 . S
C672 H659 0.960 . S
C672 C671 1.524 . S
C673 C670 1.403 . S
C673 C674 1.392 . S
C673 C677 1.495 . S
C674 C673 1.392 . S
C674 C675 1.385 . S
C674 C676 1.478 . S
C675 H669 0.930 . S
C675 C671 1.400 . S
C675 C674 1.385 . S
C676 C674 1.478 . S
C676 C678 1.381 . S
C676 C682 1.383 . S
C677 C673 1.495 . S
C677 H683 0.959 . S
C677 H684 0.961 . S
C677 H685 0.960 . S
C678 C676 1.381 . S
C678 C679 1.394 . S
C678 H686 0.930 . S
C679 C678 1.394 . S
C679 C680 1.383 . S
C679 H687 0.929 . S
C680 C679 1.383 . S
C680 C681 1.377 . S
C681 H665 0.930 . S
C681 C680 1.377 . S
C681 C682 1.379 . S
C682 H666 0.931 . S
C682 C676 1.383 . S
C682 C681 1.379 . S
H683 C677 0.959 . S
H684 C677 0.961 . S
H685 C677 0.960 . S
H686 C678 0.930 . S
H687 C679 0.929 . S
H688 C696 0.929 . S
H689 C698 0.930 . S
H690 C700 0.930 . S
H691 C703 0.929 . S
H692 C706 0.930 . S
H693 C708 0.960 . S
H694 C708 0.960 . S
H695 C708 0.960 . S
C696 H688 0.929 . S
C696 C697 1.377 . S
C696 C698 1.384 . S
C697 C696 1.377 . S
C697 C703 1.390 . S
C698 H689 0.930 . S
C698 C696 1.384 . S
C698 C699 1.372 . S
C699 C698 1.372 . S
C699 C700 1.400 . S
C699 C704 1.490 . S
C700 H690 0.930 . S
C700 C699 1.400 . S
C700 C703 1.386 . S
H701 C717 0.930 . S
H702 C718 0.931 . S
C703 H691 0.929 . S
C703 C697 1.390 . S
C703 C700 1.386 . S
C704 C699 1.490 . S
C704 C706 1.395 . S
C704 C707 1.403 . S
H705 C711 0.930 . S
C706 H692 0.930 . S
C706 C704 1.395 . S
C706 C709 1.403 . S
C707 C704 1.403 . S
C707 C708 1.524 . S
C707 C711 1.400 . S
C708 H693 0.960 . S
C708 H694 0.960 . S
C708 H695 0.960 . S
C708 C707 1.524 . S
C709 C706 1.403 . S
C709 C710 1.392 . S
C709 C713 1.495 . S
C710 C709 1.392 . S
C710 C711 1.385 . S
C710 C712 1.478 . S
C711 H705 0.930 . S
C711 C707 1.400 . S
C711 C710 1.385 . S
C712 C710 1.478 . S
C712 C714 1.381 . S
C712 C718 1.383 . S
C713 C709 1.495 . S
C713 H719 0.959 . S
C713 H720 0.961 . S
C713 H721 0.960 . S
C714 C712 1.381 . S
C714 C715 1.394 . S
C714 H722 0.930 . S
C715 C714 1.394 . S
C715 C716 1.383 . S
C715 H723 0.929 . S
C716 C715 1.383 . S
C716 C717 1.377 . S
C717 H701 0.930 . S
C717 C716 1.377 . S
C717 C718 1.379 . S
C718 H702 0.931 . S
C718 C712 1.383 . S
C718 C717 1.379 . S
H719 C713 0.959 . S
H720 C713 0.961 . S
H721 C713 0.960 . S
H722 C714 0.930 . S
H723 C715 0.929 . S
H724 C732 0.929 . S
H725 C734 0.930 . S
H726 C736 0.930 . S
H727 C739 0.929 . S
H728 C742 0.930 . S
H729 C744 0.960 . S
H730 C744 0.960 . S
H731 C744 0.960 . S
C732 H724 0.929 . S
C732 C733 1.377 . S
C732 C734 1.384 . S
C733 C732 1.377 . S
C733 C739 1.390 . S
C734 H725 0.930 . S
C734 C732 1.384 . S
C734 C735 1.372 . S
C735 C734 1.372 . S
C735 C736 1.400 . S
C735 C740 1.490 . S
C736 H726 0.930 . S
C736 C735 1.400 . S
C736 C739 1.386 . S
H737 C753 0.930 . S
H738 C754 0.931 . S
C739 H727 0.929 . S
C739 C733 1.390 . S
C739 C736 1.386 . S
C740 C735 1.490 . S
C740 C742 1.395 . S
C740 C743 1.403 . S
H741 C747 0.930 . S
C742 H728 0.930 . S
C742 C740 1.395 . S
C742 C745 1.403 . S
C743 C740 1.403 . S
C743 C744 1.524 . S
C743 C747 1.400 . S
C744 H729 0.960 . S
C744 H730 0.960 . S
C744 H731 0.960 . S
C744 C743 1.524 . S
C745 C742 1.403 . S
C745 C746 1.392 . S
C745 C749 1.495 . S
C746 C745 1.392 . S
C746 C747 1.385 . S
C746 C748 1.478 . S
C747 H741 0.930 . S
C747 C743 1.400 . S
C747 C746 1.385 . S
C748 C746 1.478 . S
C748 C750 1.381 . S
C748 C754 1.383 . S
C749 C745 1.495 . S
C749 H755 0.959 . S
C749 H756 0.961 . S
C749 H757 0.960 . S
C750 C748 1.381 . S
C750 C751 1.394 . S
C750 H758 0.930 . S
C751 C750 1.394 . S
C751 C752 1.383 . S
C751 H759 0.929 . S
C752 C751 1.383 . S
C752 C753 1.377 . S
C753 H737 0.930 . S
C753 C752 1.377 . S
C753 C754 1.379 . S
C754 H738 0.931 . S
C754 C748 1.383 . S
C754 C753 1.379 . S
H755 C749 0.959 . S
H756 C749 0.961 . S
H757 C749 0.960 . S
H758 C750 0.930 . S
H759 C751 0.929 . S
H760 C768 0.929 . S
H761 C770 0.930 . S
H762 C772 0.930 . S
H763 C775 0.929 . S
H764 C778 0.930 . S
H765 C780 0.960 . S
H766 C780 0.960 . S
H767 C780 0.960 . S
C768 H760 0.929 . S
C768 C769 1.377 . S
C768 C770 1.384 . S
C769 C768 1.377 . S
C769 C775 1.390 . S
C770 H761 0.930 . S
C770 C768 1.384 . S
C770 C771 1.372 . S
C771 C770 1.372 . S
C771 C772 1.400 . S
C771 C776 1.490 . S
C772 H762 0.930 . S
C772 C771 1.400 . S
C772 C775 1.386 . S
H773 C789 0.930 . S
H774 C790 0.931 . S
C775 H763 0.929 . S
C775 C769 1.390 . S
C775 C772 1.386 . S
C776 C771 1.490 . S
C776 C778 1.395 . S
C776 C779 1.403 . S
H777 C783 0.930 . S
C778 H764 0.930 . S
C778 C776 1.395 . S
C778 C781 1.403 . S
C779 C776 1.403 . S
C779 C780 1.524 . S
C779 C783 1.400 . S
C780 H765 0.960 . S
C780 H766 0.960 . S
C780 H767 0.960 . S
C780 C779 1.524 . S
C781 C778 1.403 . S
C781 C782 1.392 . S
C781 C785 1.495 . S
C782 C781 1.392 . S
C782 C783 1.385 . S
C782 C784 1.478 . S
C783 H777 0.930 . S
C783 C779 1.400 . S
C783 C782 1.385 . S
C784 C782 1.478 . S
C784 C786 1.381 . S
C784 C790 1.383 . S
C785 C781 1.495 . S
C785 H791 0.959 . S
C785 H792 0.961 . S
C785 H793 0.960 . S
C786 C784 1.381 . S
C786 C787 1.394 . S
C786 H794 0.930 . S
C787 C786 1.394 . S
C787 C788 1.383 . S
C787 H795 0.929 . S
C788 C787 1.383 . S
C788 C789 1.377 . S
C789 H773 0.930 . S
C789 C788 1.377 . S
C789 C790 1.379 . S
C790 H774 0.931 . S
C790 C784 1.383 . S
C790 C789 1.379 . S
H791 C785 0.959 . S
H792 C785 0.961 . S
H793 C785 0.960 . S
H794 C786 0.930 . S
H795 C787 0.929 . S
H796 C804 0.929 . S
H797 C806 0.930 . S
H798 C808 0.930 . S
H799 C811 0.929 . S
H800 C814 0.930 . S
H801 C816 0.960 . S
H802 C816 0.960 . S
H803 C816 0.960 . S
C804 H796 0.929 . S
C804 C805 1.377 . S
C804 C806 1.384 . S
C805 C804 1.377 . S
C805 C811 1.390 . S
C806 H797 0.930 . S
C806 C804 1.384 . S
C806 C807 1.372 . S
C807 C806 1.372 . S
C807 C808 1.400 . S
C807 C812 1.490 . S
C808 H798 0.930 . S
C808 C807 1.400 . S
C808 C811 1.386 . S
H809 C825 0.930 . S
H810 C826 0.931 . S
C811 H799 0.929 . S
C811 C805 1.390 . S
C811 C808 1.386 . S
C812 C807 1.490 . S
C812 C814 1.395 . S
C812 C815 1.403 . S
H813 C819 0.930 . S
C814 H800 0.930 . S
C814 C812 1.395 . S
C814 C817 1.403 . S
C815 C812 1.403 . S
C815 C816 1.524 . S
C815 C819 1.400 . S
C816 H801 0.960 . S
C816 H802 0.960 . S
C816 H803 0.960 . S
C816 C815 1.524 . S
C817 C814 1.403 . S
C817 C818 1.392 . S
C817 C821 1.495 . S
C818 C817 1.392 . S
C818 C819 1.385 . S
C818 C820 1.478 . S
C819 H813 0.930 . S
C819 C815 1.400 . S
C819 C818 1.385 . S
C820 C818 1.478 . S
C820 C822 1.381 . S
C820 C826 1.383 . S
C821 C817 1.495 . S
C821 H827 0.959 . S
C821 H828 0.961 . S
C821 H829 0.960 . S
C822 C820 1.381 . S
C822 C823 1.394 . S
C822 H830 0.930 . S
C823 C822 1.394 . S
C823 C824 1.383 . S
C823 H831 0.929 . S
C824 C823 1.383 . S
C824 C825 1.377 . S
C825 H809 0.930 . S
C825 C824 1.377 . S
C825 C826 1.379 . S
C826 H810 0.931 . S
C826 C820 1.383 . S
C826 C825 1.379 . S
H827 C821 0.959 . S
H828 C821 0.961 . S
H829 C821 0.960 . S
H830 C822 0.930 . S
H831 C823 0.929 . S
H832 C840 0.929 1_565 S
H833 C842 0.930 . S
H834 C844 0.930 . S
H835 C847 0.929 . S
H836 C850 0.930 . S
H837 C852 0.960 . S
H838 C852 0.960 . S
H839 C852 0.960 . S
C840 H832 0.929 1_545 S
C840 C841 1.377 1_545 S
C840 C842 1.384 . S
C841 C840 1.377 1_565 S
C841 C847 1.390 1_565 S
C842 H833 0.930 . S
C842 C840 1.384 . S
C842 C843 1.372 . S
C843 C842 1.372 . S
C843 C844 1.400 . S
C843 C848 1.490 . S
C844 H834 0.930 . S
C844 C843 1.400 . S
C844 C847 1.386 . S
H845 C861 0.930 . S
H846 C862 0.931 . S
C847 H835 0.929 . S
C847 C841 1.390 1_545 S
C847 C844 1.386 . S
C848 C843 1.490 . S
C848 C850 1.395 . S
C848 C851 1.403 . S
H849 C855 0.930 . S
C850 H836 0.930 . S
C850 C848 1.395 . S
C850 C853 1.403 . S
C851 C848 1.403 . S
C851 C852 1.524 . S
C851 C855 1.400 . S
C852 H837 0.960 . S
C852 H838 0.960 . S
C852 H839 0.960 . S
C852 C851 1.524 . S
C853 C850 1.403 . S
C853 C854 1.392 . S
C853 C857 1.495 . S
C854 C853 1.392 . S
C854 C855 1.385 . S
C854 C856 1.478 . S
C855 H849 0.930 . S
C855 C851 1.400 . S
C855 C854 1.385 . S
C856 C854 1.478 . S
C856 C858 1.381 . S
C856 C862 1.383 . S
C857 C853 1.495 . S
C857 H863 0.959 . S
C857 H864 0.961 . S
C857 H865 0.960 . S
C858 C856 1.381 . S
C858 C859 1.394 . S
C858 H866 0.930 . S
C859 C858 1.394 . S
C859 C860 1.383 . S
C859 H867 0.929 . S
C860 C859 1.383 . S
C860 C861 1.377 . S
C861 H845 0.930 . S
C861 C860 1.377 . S
C861 C862 1.379 . S
C862 H846 0.931 . S
C862 C856 1.383 . S
C862 C861 1.379 . S
H863 C857 0.959 . S
H864 C857 0.961 . S
H865 C857 0.960 . S
H866 C858 0.930 . S
H867 C859 0.929 . S
H868 C876 0.929 . S
H869 C878 0.930 . S
H870 C880 0.930 . S
H871 C883 0.929 . S
H872 C886 0.930 . S
H873 C888 0.960 . S
H874 C888 0.960 . S
H875 C888 0.960 . S
C876 H868 0.929 . S
C876 C877 1.377 . S
C876 C878 1.384 1_545 S
C877 C876 1.377 . S
C877 C883 1.390 1_545 S
C878 H869 0.930 . S
C878 C876 1.384 1_565 S
C878 C879 1.372 . S
C879 C878 1.372 . S
C879 C880 1.400 . S
C879 C884 1.490 . S
C880 H870 0.930 . S
C880 C879 1.400 . S
C880 C883 1.386 . S
H881 C897 0.930 . S
H882 C898 0.931 . S
C883 H871 0.929 . S
C883 C877 1.390 1_565 S
C883 C880 1.386 . S
C884 C879 1.490 . S
C884 C886 1.395 . S
C884 C887 1.403 . S
H885 C891 0.930 . S
C886 H872 0.930 . S
C886 C884 1.395 . S
C886 C889 1.403 . S
C887 C884 1.403 . S
C887 C888 1.524 . S
C887 C891 1.400 . S
C888 H873 0.960 . S
C888 H874 0.960 . S
C888 H875 0.960 . S
C888 C887 1.524 . S
C889 C886 1.403 . S
C889 C890 1.392 . S
C889 C893 1.495 . S
C890 C889 1.392 . S
C890 C891 1.385 . S
C890 C892 1.478 . S
C891 H885 0.930 . S
C891 C887 1.400 . S
C891 C890 1.385 . S
C892 C890 1.478 . S
C892 C894 1.381 . S
C892 C898 1.383 . S
C893 C889 1.495 . S
C893 H899 0.959 . S
C893 H900 0.961 . S
C893 H901 0.960 . S
C894 C892 1.381 . S
C894 C895 1.394 . S
C894 H902 0.930 . S
C895 C894 1.394 . S
C895 C896 1.383 . S
C895 H903 0.929 . S
C896 C895 1.383 . S
C896 C897 1.377 . S
C897 H881 0.930 . S
C897 C896 1.377 . S
C897 C898 1.379 . S
C898 H882 0.931 . S
C898 C892 1.383 . S
C898 C897 1.379 . S
H899 C893 0.959 . S
H900 C893 0.961 . S
H901 C893 0.960 . S
H902 C894 0.930 . S
H903 C895 0.929 . S
H904 C912 0.929 . S
H905 C914 0.930 . S
H906 C916 0.930 . S
H907 C919 0.929 . S
H908 C922 0.930 . S
H909 C924 0.960 . S
H910 C924 0.960 . S
H911 C924 0.960 . S
C912 H904 0.929 . S
C912 C913 1.377 . S
C912 C914 1.384 1_565 S
C913 C912 1.377 . S
C913 C919 1.390 1_565 S
C914 H905 0.930 . S
C914 C912 1.384 1_545 S
C914 C915 1.372 . S
C915 C914 1.372 . S
C915 C916 1.400 . S
C915 C920 1.490 . S
C916 H906 0.930 . S
C916 C915 1.400 . S
C916 C919 1.386 . S
H917 C933 0.930 . S
H918 C934 0.931 . S
C919 H907 0.929 . S
C919 C913 1.390 1_545 S
C919 C916 1.386 . S
C920 C915 1.490 . S
C920 C922 1.395 . S
C920 C923 1.403 . S
H921 C927 0.930 . S
C922 H908 0.930 . S
C922 C920 1.395 . S
C922 C925 1.403 . S
C923 C920 1.403 . S
C923 C924 1.524 . S
C923 C927 1.400 . S
C924 H909 0.960 . S
C924 H910 0.960 . S
C924 H911 0.960 . S
C924 C923 1.524 . S
C925 C922 1.403 . S
C925 C926 1.392 . S
C925 C929 1.495 . S
C926 C925 1.392 . S
C926 C927 1.385 . S
C926 C928 1.478 . S
C927 H921 0.930 . S
C927 C923 1.400 . S
C927 C926 1.385 . S
C928 C926 1.478 . S
C928 C930 1.381 . S
C928 C934 1.383 . S
C929 C925 1.495 . S
C929 H935 0.959 . S
C929 H936 0.961 . S
C929 H937 0.960 . S
C930 C928 1.381 . S
C930 C931 1.394 . S
C930 H938 0.930 . S
C931 C930 1.394 . S
C931 C932 1.383 . S
C931 H939 0.929 . S
C932 C931 1.383 . S
C932 C933 1.377 . S
C933 H917 0.930 . S
C933 C932 1.377 . S
C933 C934 1.379 . S
C934 H918 0.931 . S
C934 C928 1.383 . S
C934 C933 1.379 . S
H935 C929 0.959 . S
H936 C929 0.961 . S
H937 C929 0.960 . S
H938 C930 0.930 . S
H939 C931 0.929 . S
H940 C948 0.929 . S
H941 C950 0.930 1_545 S
H942 C952 0.930 . S
H943 C955 0.929 . S
H944 C958 0.930 . S
H945 C960 0.960 . S
H946 C960 0.960 . S
H947 C960 0.960 . S
C948 H940 0.929 . S
C948 C949 1.377 . S
C948 C950 1.384 1_545 S
C949 C948 1.377 . S
C949 C955 1.390 1_545 S
C950 H941 0.930 1_565 S
C950 C948 1.384 1_565 S
C950 C951 1.372 . S
C951 C950 1.372 . S
C951 C952 1.400 . S
C951 C956 1.490 . S
C952 H942 0.930 . S
C952 C951 1.400 . S
C952 C955 1.386 . S
H953 C969 0.930 . S
H954 C970 0.931 . S
C955 H943 0.929 . S
C955 C949 1.390 1_565 S
C955 C952 1.386 . S
C956 C951 1.490 . S
C956 C958 1.395 . S
C956 C959 1.403 . S
H957 C963 0.930 . S
C958 H944 0.930 . S
C958 C956 1.395 . S
C958 C961 1.403 . S
C959 C956 1.403 . S
C959 C960 1.524 . S
C959 C963 1.400 . S
C960 H945 0.960 . S
C960 H946 0.960 . S
C960 H947 0.960 . S
C960 C959 1.524 . S
C961 C958 1.403 . S
C961 C962 1.392 . S
C961 C965 1.495 . S
C962 C961 1.392 . S
C962 C963 1.385 . S
C962 C964 1.478 . S
C963 H957 0.930 . S
C963 C959 1.400 . S
C963 C962 1.385 . S
C964 C962 1.478 . S
C964 C966 1.381 . S
C964 C970 1.383 . S
C965 C961 1.495 . S
C965 H971 0.959 . S
C965 H972 0.961 . S
C965 H973 0.960 . S
C966 C964 1.381 . S
C966 C967 1.394 . S
C966 H974 0.930 . S
C967 C966 1.394 . S
C967 C968 1.383 . S
C967 H975 0.929 . S
C968 C967 1.383 . S
C968 C969 1.377 . S
C969 H953 0.930 . S
C969 C968 1.377 . S
C969 C970 1.379 . S
C970 H954 0.931 . S
C970 C964 1.383 . S
C970 C969 1.379 . S
H971 C965 0.959 . S
H972 C965 0.961 . S
H973 C965 0.960 . S
H974 C966 0.930 . S
H975 C967 0.929 . S
H976 C984 0.929 . S
H977 C986 0.930 . S
H978 C988 0.930 . S
H979 C991 0.929 . S
H980 C994 0.930 . S
H981 C996 0.960 . S
H982 C996 0.960 . S
H983 C996 0.960 . S
C984 H976 0.929 . S
C984 C985 1.377 . S
C984 C986 1.384 . S
C985 C984 1.377 . S
C985 C991 1.390 . S
C986 H977 0.930 . S
C986 C984 1.384 . S
C986 C987 1.372 . S
C987 C986 1.372 . S
C987 C988 1.400 . S
C987 C992 1.490 . S
C988 H978 0.930 . S
C988 C987 1.400 . S
C988 C991 1.386 . S
H989 C1005 0.930 . S
H990 C1006 0.931 . S
C991 H979 0.929 . S
C991 C985 1.390 . S
C991 C988 1.386 . S
C992 C987 1.490 . S
C992 C994 1.395 . S
C992 C995 1.403 . S
H993 C999 0.930 . S
C994 H980 0.930 . S
C994 C992 1.395 . S
C994 C997 1.403 . S
C995 C992 1.403 . S
C995 C996 1.524 . S
C995 C999 1.400 . S
C996 H981 0.960 . S
C996 H982 0.960 . S
C996 H983 0.960 . S
C996 C995 1.524 . S
C997 C994 1.403 . S
C997 C998 1.392 . S
C997 C1001 1.495 . S
C998 C997 1.392 . S
C998 C999 1.385 . S
C998 C1000 1.478 . S
C999 H993 0.930 . S
C999 C995 1.400 . S
C999 C998 1.385 . S
C1000 C998 1.478 . S
C1000 C1002 1.381 . S
C1000 C1006 1.383 . S
C1001 C997 1.495 . S
C1001 H1007 0.959 . S
C1001 H1008 0.961 . S
C1001 H1009 0.960 . S
C1002 C1000 1.381 . S
C1002 C1003 1.394 . S
C1002 H1010 0.930 . S
C1003 C1002 1.394 . S
C1003 C1004 1.383 . S
C1003 H1011 0.929 . S
C1004 C1003 1.383 . S
C1004 C1005 1.377 . S
C1005 H989 0.930 . S
C1005 C1004 1.377 . S
C1005 C1006 1.379 . S
C1006 H990 0.931 . S
C1006 C1000 1.383 . S
C1006 C1005 1.379 . S
H1007 C1001 0.959 . S
H1008 C1001 0.961 . S
H1009 C1001 0.960 . S
H1010 C1002 0.930 . S
H1011 C1003 0.929 . S
H1012 C1020 0.929 . S
H1013 C1022 0.930 . S
H1014 C1024 0.930 . S
H1015 C1027 0.929 . S
H1016 C1030 0.930 . S
H1017 C1032 0.960 . S
H1018 C1032 0.960 . S
H1019 C1032 0.960 . S
C1020 H1012 0.929 . S
C1020 C1021 1.377 . S
C1020 C1022 1.384 . S
C1021 C1020 1.377 . S
C1021 C1027 1.390 . S
C1022 H1013 0.930 . S
C1022 C1020 1.384 . S
C1022 C1023 1.372 . S
C1023 C1022 1.372 . S
C1023 C1024 1.400 . S
C1023 C1028 1.490 . S
C1024 H1014 0.930 . S
C1024 C1023 1.400 . S
C1024 C1027 1.386 . S
H1025 C1041 0.930 . S
H1026 C1042 0.931 . S
C1027 H1015 0.929 . S
C1027 C1021 1.390 . S
C1027 C1024 1.386 . S
C1028 C1023 1.490 . S
C1028 C1030 1.395 . S
C1028 C1031 1.403 . S
H1029 C1035 0.930 . S
C1030 H1016 0.930 . S
C1030 C1028 1.395 . S
C1030 C1033 1.403 . S
C1031 C1028 1.403 . S
C1031 C1032 1.524 . S
C1031 C1035 1.400 . S
C1032 H1017 0.960 . S
C1032 H1018 0.960 . S
C1032 H1019 0.960 . S
C1032 C1031 1.524 . S
C1033 C1030 1.403 . S
C1033 C1034 1.392 . S
C1033 C1037 1.495 . S
C1034 C1033 1.392 . S
C1034 C1035 1.385 . S
C1034 C1036 1.478 . S
C1035 H1029 0.930 . S
C1035 C1031 1.400 . S
C1035 C1034 1.385 . S
C1036 C1034 1.478 . S
C1036 C1038 1.381 . S
C1036 C1042 1.383 . S
C1037 C1033 1.495 . S
C1037 H1043 0.959 . S
C1037 H1044 0.961 . S
C1037 H1045 0.960 . S
C1038 C1036 1.381 . S
C1038 C1039 1.394 . S
C1038 H1046 0.930 . S
C1039 C1038 1.394 . S
C1039 C1040 1.383 . S
C1039 H1047 0.929 . S
C1040 C1039 1.383 . S
C1040 C1041 1.377 . S
C1041 H1025 0.930 . S
C1041 C1040 1.377 . S
C1041 C1042 1.379 . S
C1042 H1026 0.931 . S
C1042 C1036 1.383 . S
C1042 C1041 1.379 . S
H1043 C1037 0.959 . S
H1044 C1037 0.961 . S
H1045 C1037 0.960 . S
H1046 C1038 0.930 . S
H1047 C1039 0.929 . S
H1048 C1056 0.929 . S
H1049 C1058 0.930 . S
H1050 C1060 0.930 . S
H1051 C1063 0.929 . S
H1052 C1066 0.930 . S
H1053 C1068 0.960 . S
H1054 C1068 0.960 . S
H1055 C1068 0.960 . S
C1056 H1048 0.929 . S
C1056 C1057 1.377 . S
C1056 C1058 1.384 . S
C1057 C1056 1.377 . S
C1057 C1063 1.390 . S
C1058 H1049 0.930 . S
C1058 C1056 1.384 . S
C1058 C1059 1.372 . S
C1059 C1058 1.372 . S
C1059 C1060 1.400 . S
C1059 C1064 1.490 . S
C1060 H1050 0.930 . S
C1060 C1059 1.400 . S
C1060 C1063 1.386 . S
H1061 C1077 0.930 . S
H1062 C1078 0.931 . S
C1063 H1051 0.929 . S
C1063 C1057 1.390 . S
C1063 C1060 1.386 . S
C1064 C1059 1.490 . S
C1064 C1066 1.395 . S
C1064 C1067 1.403 . S
H1065 C1071 0.930 . S
C1066 H1052 0.930 . S
C1066 C1064 1.395 . S
C1066 C1069 1.403 . S
C1067 C1064 1.403 . S
C1067 C1068 1.524 . S
C1067 C1071 1.400 . S
C1068 H1053 0.960 . S
C1068 H1054 0.960 . S
C1068 H1055 0.960 . S
C1068 C1067 1.524 . S
C1069 C1066 1.403 . S
C1069 C1070 1.392 . S
C1069 C1073 1.495 . S
C1070 C1069 1.392 . S
C1070 C1071 1.385 . S
C1070 C1072 1.478 . S
C1071 H1065 0.930 . S
C1071 C1067 1.400 . S
C1071 C1070 1.385 . S
C1072 C1070 1.478 . S
C1072 C1074 1.381 . S
C1072 C1078 1.383 . S
C1073 C1069 1.495 . S
C1073 H1079 0.959 . S
C1073 H1080 0.961 . S
C1073 H1081 0.960 . S
C1074 C1072 1.381 . S
C1074 C1075 1.394 . S
C1074 H1082 0.930 . S
C1075 C1074 1.394 . S
C1075 C1076 1.383 . S
C1075 H1083 0.929 . S
C1076 C1075 1.383 . S
C1076 C1077 1.377 . S
C1077 H1061 0.930 . S
C1077 C1076 1.377 . S
C1077 C1078 1.379 . S
C1078 H1062 0.931 . S
C1078 C1072 1.383 . S
C1078 C1077 1.379 . S
H1079 C1073 0.959 . S
H1080 C1073 0.961 . S
H1081 C1073 0.960 . S
H1082 C1074 0.930 . S
H1083 C1075 0.929 . S
H1084 C1092 0.929 . S
H1085 C1094 0.930 . S
H1086 C1096 0.930 . S
H1087 C1099 0.929 . S
H1088 C1102 0.930 . S
H1089 C1104 0.960 . S
H1090 C1104 0.960 . S
H1091 C1104 0.960 . S
C1092 H1084 0.929 . S
C1092 C1093 1.377 . S
C1092 C1094 1.384 . S
C1093 C1092 1.377 . S
C1093 C1099 1.390 . S
C1094 H1085 0.930 . S
C1094 C1092 1.384 . S
C1094 C1095 1.372 . S
C1095 C1094 1.372 . S
C1095 C1096 1.400 . S
C1095 C1100 1.490 . S
C1096 H1086 0.930 . S
C1096 C1095 1.400 . S
C1096 C1099 1.386 . S
H1097 C1113 0.930 . S
H1098 C1114 0.931 . S
C1099 H1087 0.929 . S
C1099 C1093 1.390 . S
C1099 C1096 1.386 . S
C1100 C1095 1.490 . S
C1100 C1102 1.395 . S
C1100 C1103 1.403 . S
H1101 C1107 0.930 . S
C1102 H1088 0.930 . S
C1102 C1100 1.395 . S
C1102 C1105 1.403 . S
C1103 C1100 1.403 . S
C1103 C1104 1.524 . S
C1103 C1107 1.400 . S
C1104 H1089 0.960 . S
C1104 H1090 0.960 . S
C1104 H1091 0.960 . S
C1104 C1103 1.524 . S
C1105 C1102 1.403 . S
C1105 C1106 1.392 . S
C1105 C1109 1.495 . S
C1106 C1105 1.392 . S
C1106 C1107 1.385 . S
C1106 C1108 1.478 . S
C1107 H1101 0.930 . S
C1107 C1103 1.400 . S
C1107 C1106 1.385 . S
C1108 C1106 1.478 . S
C1108 C1110 1.381 . S
C1108 C1114 1.383 . S
C1109 C1105 1.495 . S
C1109 H1115 0.959 . S
C1109 H1116 0.961 . S
C1109 H1117 0.960 . S
C1110 C1108 1.381 . S
C1110 C1111 1.394 . S
C1110 H1118 0.930 . S
C1111 C1110 1.394 . S
C1111 C1112 1.383 . S
C1111 H1119 0.929 . S
C1112 C1111 1.383 . S
C1112 C1113 1.377 . S
C1113 H1097 0.930 . S
C1113 C1112 1.377 . S
C1113 C1114 1.379 . S
C1114 H1098 0.931 . S
C1114 C1108 1.383 . S
C1114 C1113 1.379 . S
H1115 C1109 0.959 . S
H1116 C1109 0.961 . S
H1117 C1109 0.960 . S
H1118 C1110 0.930 . S
H1119 C1111 0.929 . S
H1120 C1128 0.929 . S
H1121 C1130 0.930 . S
H1122 C1132 0.930 . S
H1123 C1135 0.929 . S
H1124 C1138 0.930 . S
H1125 C1140 0.960 . S
H1126 C1140 0.960 . S
H1127 C1140 0.960 . S
C1128 H1120 0.929 . S
C1128 C1129 1.377 . S
C1128 C1130 1.384 . S
C1129 C1128 1.377 . S
C1129 C1135 1.390 . S
C1130 H1121 0.930 . S
C1130 C1128 1.384 . S
C1130 C1131 1.372 . S
C1131 C1130 1.372 . S
C1131 C1132 1.400 . S
C1131 C1136 1.490 . S
C1132 H1122 0.930 . S
C1132 C1131 1.400 . S
C1132 C1135 1.386 . S
H1133 C1149 0.930 . S
H1134 C1150 0.931 . S
C1135 H1123 0.929 . S
C1135 C1129 1.390 . S
C1135 C1132 1.386 . S
C1136 C1131 1.490 . S
C1136 C1138 1.395 . S
C1136 C1139 1.403 . S
H1137 C1143 0.930 . S
C1138 H1124 0.930 . S
C1138 C1136 1.395 . S
C1138 C1141 1.403 . S
C1139 C1136 1.403 . S
C1139 C1140 1.524 . S
C1139 C1143 1.400 . S
C1140 H1125 0.960 . S
C1140 H1126 0.960 . S
C1140 H1127 0.960 . S
C1140 C1139 1.524 . S
C1141 C1138 1.403 . S
C1141 C1142 1.392 . S
C1141 C1145 1.495 . S
C1142 C1141 1.392 . S
C1142 C1143 1.385 . S
C1142 C1144 1.478 . S
C1143 H1137 0.930 . S
C1143 C1139 1.400 . S
C1143 C1142 1.385 . S
C1144 C1142 1.478 . S
C1144 C1146 1.381 . S
C1144 C1150 1.383 . S
C1145 C1141 1.495 . S
C1145 H1151 0.959 . S
C1145 H1152 0.961 . S
C1145 H1153 0.960 . S
C1146 C1144 1.381 . S
C1146 C1147 1.394 . S
C1146 H1154 0.930 . S
C1147 C1146 1.394 . S
C1147 C1148 1.383 . S
C1147 H1155 0.929 . S
C1148 C1147 1.383 . S
C1148 C1149 1.377 . S
C1149 H1133 0.930 . S
C1149 C1148 1.377 . S
C1149 C1150 1.379 . S
C1150 H1134 0.931 . S
C1150 C1144 1.383 . S
C1150 C1149 1.379 . S
H1151 C1145 0.959 . S
H1152 C1145 0.961 . S
H1153 C1145 0.960 . S
H1154 C1146 0.930 . S
H1155 C1147 0.929 . S
H1156 C1164 0.929 . S
H1157 C1166 0.930 . S
H1158 C1168 0.930 . S
H1159 C1171 0.929 . S
H1160 C1174 0.930 . S
H1161 C1176 0.960 . S
H1162 C1176 0.960 . S
H1163 C1176 0.960 . S
C1164 H1156 0.929 . S
C1164 C1165 1.377 . S
C1164 C1166 1.384 . S
C1165 C1164 1.377 . S
C1165 C1171 1.390 . S
C1166 H1157 0.930 . S
C1166 C1164 1.384 . S
C1166 C1167 1.372 . S
C1167 C1166 1.372 . S
C1167 C1168 1.400 . S
C1167 C1172 1.490 . S
C1168 H1158 0.930 . S
C1168 C1167 1.400 . S
C1168 C1171 1.386 . S
H1169 C1185 0.930 . S
H1170 C1186 0.931 . S
C1171 H1159 0.929 . S
C1171 C1165 1.390 . S
C1171 C1168 1.386 . S
C1172 C1167 1.490 . S
C1172 C1174 1.395 . S
C1172 C1175 1.403 . S
H1173 C1179 0.930 . S
C1174 H1160 0.930 . S
C1174 C1172 1.395 . S
C1174 C1177 1.403 . S
C1175 C1172 1.403 . S
C1175 C1176 1.524 . S
C1175 C1179 1.400 . S
C1176 H1161 0.960 . S
C1176 H1162 0.960 . S
C1176 H1163 0.960 . S
C1176 C1175 1.524 . S
C1177 C1174 1.403 . S
C1177 C1178 1.392 . S
C1177 C1181 1.495 . S
C1178 C1177 1.392 . S
C1178 C1179 1.385 . S
C1178 C1180 1.478 . S
C1179 H1173 0.930 . S
C1179 C1175 1.400 . S
C1179 C1178 1.385 . S
C1180 C1178 1.478 . S
C1180 C1182 1.381 . S
C1180 C1186 1.383 . S
C1181 C1177 1.495 . S
C1181 H1187 0.959 . S
C1181 H1188 0.961 . S
C1181 H1189 0.960 . S
C1182 C1180 1.381 . S
C1182 C1183 1.394 . S
C1182 H1190 0.930 . S
C1183 C1182 1.394 . S
C1183 C1184 1.383 . S
C1183 H1191 0.929 . S
C1184 C1183 1.383 . S
C1184 C1185 1.377 . S
C1185 H1169 0.930 . S
C1185 C1184 1.377 . S
C1185 C1186 1.379 . S
C1186 H1170 0.931 . S
C1186 C1180 1.383 . S
C1186 C1185 1.379 . S
H1187 C1181 0.959 . S
H1188 C1181 0.961 . S
H1189 C1181 0.960 . S
H1190 C1182 0.930 . S
H1191 C1183 0.929 . S
H1192 C1200 0.929 . S
H1193 C1202 0.930 . S
H1194 C1204 0.930 . S
H1195 C1207 0.929 . S
H1196 C1210 0.930 . S
H1197 C1212 0.960 . S
H1198 C1212 0.960 . S
H1199 C1212 0.960 . S
C1200 H1192 0.929 . S
C1200 C1201 1.377 . S
C1200 C1202 1.384 . S
C1201 C1200 1.377 . S
C1201 C1207 1.390 . S
C1202 H1193 0.930 . S
C1202 C1200 1.384 . S
C1202 C1203 1.372 . S
C1203 C1202 1.372 . S
C1203 C1204 1.400 . S
C1203 C1208 1.490 . S
C1204 H1194 0.930 . S
C1204 C1203 1.400 . S
C1204 C1207 1.386 . S
H1205 C1221 0.930 . S
H1206 C1222 0.931 . S
C1207 H1195 0.929 . S
C1207 C1201 1.390 . S
C1207 C1204 1.386 . S
C1208 C1203 1.490 . S
C1208 C1210 1.395 . S
C1208 C1211 1.403 . S
H1209 C1215 0.930 . S
C1210 H1196 0.930 . S
C1210 C1208 1.395 . S
C1210 C1213 1.403 . S
C1211 C1208 1.403 . S
C1211 C1212 1.524 . S
C1211 C1215 1.400 . S
C1212 H1197 0.960 . S
C1212 H1198 0.960 . S
C1212 H1199 0.960 . S
C1212 C1211 1.524 . S
C1213 C1210 1.403 . S
C1213 C1214 1.392 . S
C1213 C1217 1.495 . S
C1214 C1213 1.392 . S
C1214 C1215 1.385 . S
C1214 C1216 1.478 . S
C1215 H1209 0.930 . S
C1215 C1211 1.400 . S
C1215 C1214 1.385 . S
C1216 C1214 1.478 . S
C1216 C1218 1.381 . S
C1216 C1222 1.383 . S
C1217 C1213 1.495 . S
C1217 H1223 0.959 . S
C1217 H1224 0.961 . S
C1217 H1225 0.960 . S
C1218 C1216 1.381 . S
C1218 C1219 1.394 . S
C1218 H1226 0.930 . S
C1219 C1218 1.394 . S
C1219 C1220 1.383 . S
C1219 H1227 0.929 . S
C1220 C1219 1.383 . S
C1220 C1221 1.377 . S
C1221 H1205 0.930 . S
C1221 C1220 1.377 . S
C1221 C1222 1.379 . S
C1222 H1206 0.931 . S
C1222 C1216 1.383 . S
C1222 C1221 1.379 . S
H1223 C1217 0.959 . S
H1224 C1217 0.961 . S
H1225 C1217 0.960 . S
H1226 C1218 0.930 . S
H1227 C1219 0.929 . S
H1228 C1236 0.929 . S
H1229 C1238 0.930 . S
H1230 C1240 0.930 . S
H1231 C1243 0.929 . S
H1232 C1246 0.930 . S
H1233 C1248 0.960 . S
H1234 C1248 0.960 . S
H1235 C1248 0.960 . S
C1236 H1228 0.929 . S
C1236 C1237 1.377 . S
C1236 C1238 1.384 . S
C1237 C1236 1.377 . S
C1237 C1243 1.390 . S
C1238 H1229 0.930 . S
C1238 C1236 1.384 . S
C1238 C1239 1.372 . S
C1239 C1238 1.372 . S
C1239 C1240 1.400 . S
C1239 C1244 1.490 . S
C1240 H1230 0.930 . S
C1240 C1239 1.400 . S
C1240 C1243 1.386 . S
H1241 C1257 0.930 . S
H1242 C1258 0.931 . S
C1243 H1231 0.929 . S
C1243 C1237 1.390 . S
C1243 C1240 1.386 . S
C1244 C1239 1.490 . S
C1244 C1246 1.395 . S
C1244 C1247 1.403 . S
H1245 C1251 0.930 . S
C1246 H1232 0.930 . S
C1246 C1244 1.395 . S
C1246 C1249 1.403 . S
C1247 C1244 1.403 . S
C1247 C1248 1.524 . S
C1247 C1251 1.400 . S
C1248 H1233 0.960 . S
C1248 H1234 0.960 . S
C1248 H1235 0.960 . S
C1248 C1247 1.524 . S
C1249 C1246 1.403 . S
C1249 C1250 1.392 . S
C1249 C1253 1.495 . S
C1250 C1249 1.392 . S
C1250 C1251 1.385 . S
C1250 C1252 1.478 . S
C1251 H1245 0.930 . S
C1251 C1247 1.400 . S
C1251 C1250 1.385 . S
C1252 C1250 1.478 . S
C1252 C1254 1.381 . S
C1252 C1258 1.383 . S
C1253 C1249 1.495 . S
C1253 H1259 0.959 . S
C1253 H1260 0.961 . S
C1253 H1261 0.960 . S
C1254 C1252 1.381 . S
C1254 C1255 1.394 . S
C1254 H1262 0.930 . S
C1255 C1254 1.394 . S
C1255 C1256 1.383 . S
C1255 H1263 0.929 . S
C1256 C1255 1.383 . S
C1256 C1257 1.377 . S
C1257 H1241 0.930 . S
C1257 C1256 1.377 . S
C1257 C1258 1.379 . S
C1258 H1242 0.931 . S
C1258 C1252 1.383 . S
C1258 C1257 1.379 . S
H1259 C1253 0.959 . S
H1260 C1253 0.961 . S
H1261 C1253 0.960 . S
H1262 C1254 0.930 . S
H1263 C1255 0.929 . S
C409 C21 1.535 . S
C428 C338 1.507 . S
C464 C316 1.526 . S
C445 C60 1.537 . S
C500 C342 1.510 . S
C481 C99 1.537 . S
C536 C320 1.512 . S
C517 C138 1.531 . S
C572 C382 1.487 . S
C553 C177 1.534 . S
C608 C360 1.489 . S
C589 C216 1.534 . S
C625 C255 1.532 . S
C644 C386 1.507 . S
C680 C364 1.521 . S
C661 C294 1.533 . S
C697 C1 1.537 . S
C716 C387 1.517 . S
C752 C365 1.534 . S
C733 C40 1.535 . S
C769 C79 1.535 . S
C788 C384 1.548 . S
C805 C133 1.526 . S
C824 C362 1.519 . S
C860 C343 1.516 . S
C841 C157 1.534 . S
C877 C196 1.531 . S
C896 C321 1.542 . S
C932 C340 1.519 . S
C913 C235 1.537 . S
C968 C318 1.507 . S
C949 C289 1.524 . S
C1004 C361 1.478 . S
C985 C16 1.486 . S
C1040 C383 1.473 . S
C1021 C55 1.486 . S
C1057 C94 1.489 . S
C1076 C363 1.503 . S
C1112 C385 1.480 . S
C1093 C118 1.496 . S
C1148 C317 1.472 . S
C1129 C172 1.491 . S
C1165 C211 1.486 . S
C1184 C339 1.473 . S
C1201 C250 1.492 . S
C1220 C319 1.474 . S
C1237 C274 1.490 . S
C1256 C341 1.503 . S
