# Generated by pormake.
# Topology pth, (4,4)-cn, num edge types: 1
# Building blocks:
#     Node 0, Type 0, BuildingBlock: QUQFOY_clean_sbu_1, # of connection points: 4
#     Node 1, Type 0, BuildingBlock: QUQFOY_clean_sbu_1, # of connection points: 4
#     Node 2, Type 0, BuildingBlock: QUQFOY_clean_sbu_1, # of connection points: 4
#     Node 3, Type 1, BuildingBlock: NAWXER_clean_linker_0, # of connection points: 4
#     Node 4, Type 1, BuildingBlock: NAWXER_clean_linker_0, # of connection points: 4
#     Node 5, Type 1, BuildingBlock: NAWXER_clean_linker_0, # of connection points: 4
#     Edge 6, Type (0, 1), BuildingBlock: ZUJKAS_clean_linker_0, # of connection points: 2
#     Edge 7, Type (0, 1), BuildingBlock: ZUJKAS_clean_linker_0, # of connection points: 2
#     Edge 8, Type (0, 1), BuildingBlock: ZUJKAS_clean_linker_0, # of connection points: 2
#     Edge 9, Type (0, 1), BuildingBlock: ZUJKAS_clean_linker_0, # of connection points: 2
#     Edge 10, Type (0, 1), BuildingBlock: ZUJKAS_clean_linker_0, # of connection points: 2
#     Edge 11, Type (0, 1), BuildingBlock: ZUJKAS_clean_linker_0, # of connection points: 2
#     Edge 12, Type (0, 1), BuildingBlock: ZUJKAS_clean_linker_0, # of connection points: 2
#     Edge 13, Type (0, 1), BuildingBlock: ZUJKAS_clean_linker_0, # of connection points: 2
#     Edge 14, Type (0, 1), BuildingBlock: ZUJKAS_clean_linker_0, # of connection points: 2
#     Edge 15, Type (0, 1), BuildingBlock: ZUJKAS_clean_linker_0, # of connection points: 2
#     Edge 16, Type (0, 1), BuildingBlock: ZUJKAS_clean_linker_0, # of connection points: 2
#     Edge 17, Type (0, 1), BuildingBlock: ZUJKAS_clean_linker_0, # of connection points: 2
# Relax obj value: 0.022
# Max RMSD: 0.123
# Mean RMSD: 0.073
data_MOF--net-pth--node1-QUQFOY_clean_sbu_1--node2-NAWXER_clean_linker_0--edge1-ZUJKAS_clean_linker_0
_symmetry_space_group_name_H-M    P1
_symmetry_Int_Tables_number       1
_symmetry_cell_setting            triclinic
loop_
_symmetry_equiv_pos_as_xyz
'x, y, z'
_cell_length_a     34.909846
_cell_length_b     37.523536
_cell_length_c     84.053746
_cell_angle_alpha  90.013274
_cell_angle_beta   90.006009
_cell_angle_gamma 120.07299
loop_
_atom_site_label
_atom_site_type_symbol
_atom_site_fract_x
_atom_site_fract_y
_atom_site_fract_z
_atom_type_partial_charge
O0 O 0.03338 0.06494 0.04742 0.0
Cd1 Cd 0.98031 0.02636 0.06161 0.0
Cd2 Cd 0.02212 0.98252 0.06069 0.0
O3 O 0.07287 0.03434 0.05015 0.0
O4 O 0.95584 0.06159 0.06867 0.0
O5 O 0.98563 0.03652 0.08526 0.0
C6 C 0.96799 0.05924 0.08293 0.0
C7 C 0.03497 0.94864 0.08148 0.0
C8 C 0.06866 0.06388 0.0448 0.0
C9 C 0.9328 0.94582 0.04492 0.0
O10 O 0.96852 0.94503 0.04663 0.0
O11 O 0.9287 0.97461 0.05114 0.0
O12 O 0.04641 0.94668 0.06706 0.0
O13 O 0.01787 0.97163 0.08426 0.0
O14 O 0.96535 0.03173 0.39994 0.0
Cd15 Cd 0.02048 0.04782 0.38622 0.0
Cd16 Cd 0.98455 0.96474 0.38509 0.0
O17 O 0.93206 0.96446 0.39662 0.0
O18 O 0.04116 0.10555 0.37959 0.0
O19 O 0.01667 0.05375 0.36254 0.0
C20 C 0.0313 0.09242 0.36516 0.0
C21 C 0.97146 0.91822 0.36444 0.0
C22 C 0.93245 0.996 0.40235 0.0
C23 C 0.0728 0.01499 0.40177 0.0
O24 O 0.04022 0.97975 0.39841 0.0
O25 O 0.07309 0.04747 0.39728 0.0
O26 O 0.96298 0.90642 0.37905 0.0
O27 O 0.98601 0.95666 0.3614 0.0
O28 O 0.93657 0.97633 0.71411 0.0
Cd29 Cd 0.97719 0.96323 0.72767 0.0
Cd30 Cd 0.02739 0.04557 0.72796 0.0
O31 O 0.97444 0.04394 0.71633 0.0
O32 O 0.93818 0.90552 0.73491 0.0
O33 O 0.96927 0.95847 0.75144 0.0
C34 C 0.94338 0.91942 0.74925 0.0
C35 C 0.05998 0.08862 0.74985 0.0
C36 C 0.94094 0.0114 0.71116 0.0
C37 C 0.06455 0.99821 0.71144 0.0
O38 O 0.06865 0.03312 0.71453 0.0
O39 O 0.03086 0.96541 0.71634 0.0
O40 O 0.0656 0.10307 0.73559 0.0
O41 O 0.03447 0.04942 0.75178 0.0
C42 C 0.97473 0.36975 0.24844 0.0
C43 C 0.00982 0.38118 0.25924 0.0
C44 C 0.97166 0.39958 0.23945 0.0
C45 C 0.00384 0.44139 0.24096 0.0
C46 C 0.0415 0.4232 0.2609 0.0
C47 C 0.03835 0.45297 0.25193 0.0
C48 C 0.00182 0.47339 0.2313 0.0
C49 C 0.02528 0.39261 0.19783 0.0
C50 C 0.98978 0.37068 0.18725 0.0
C51 C 0.02861 0.42574 0.2066 0.0
C52 C 0.99634 0.43741 0.20505 0.0
C53 C 0.958 0.38303 0.18555 0.0
C54 C 0.96145 0.41622 0.19428 0.0
C55 C 0.99861 0.47168 0.21452 0.0
C56 C 0.03968 0.64427 0.19914 0.0
C57 C 0.01163 0.63669 0.18603 0.0
C58 C 0.03637 0.61167 0.20822 0.0
C59 C 0.00429 0.5708 0.20461 0.0
C60 C 0.9804 0.59572 0.18214 0.0
C61 C 0.97685 0.56309 0.19132 0.0
C62 C 1.00029 0.53607 0.21432 0.0
C63 C 0.96309 0.60963 0.24591 0.0
C64 C 0.99091 0.62792 0.25909 0.0
C65 C 0.96598 0.57972 0.23693 0.0
C66 C 0.99746 0.56814 0.24072 0.0
C67 C 0.02156 0.61548 0.26315 0.0
C68 C 0.02472 0.58582 0.25406 0.0
C69 C 0.00093 0.53659 0.23116 0.0
H70 H 0.94929 0.33779 0.24709 0.0
H71 H 0.94409 0.39 0.23134 0.0
H72 H 0.06922 0.43311 0.26896 0.0
H73 H 0.06343 0.48506 0.25333 0.0
H74 H 0.05083 0.38452 0.19921 0.0
H75 H 0.05642 0.44229 0.21458 0.0
H76 H 0.92995 0.36662 0.17766 0.0
H77 H 0.93628 0.42481 0.19286 0.0
H78 H 0.06472 0.67541 0.20223 0.0
H79 H 0.0591 0.61846 0.21804 0.0
H80 H 0.95824 0.58891 0.17213 0.0
H81 H 0.95221 0.53184 0.18818 0.0
H82 H 0.9385 0.61791 0.2427 0.0
H83 H 0.94334 0.56548 0.22707 0.0
H84 H 0.04351 0.62911 0.27322 0.0
H85 H 0.0489 0.57707 0.25734 0.0
N86 N 0.0026 0.50566 0.23897 0.0
N87 N 0.99821 0.50319 0.20667 0.0
C88 C 0.63599 0.01427 0.52741 0.0
C89 C 0.62016 0.97993 0.51723 0.0
C90 C 0.60732 0.01825 0.53794 0.0
C91 C 0.56239 0.98789 0.53852 0.0
C92 C 0.57533 0.94915 0.51818 0.0
C93 C 0.54672 0.9533 0.52862 0.0
C94 C 0.53052 0.99353 0.54821 0.0
C95 C 0.61834 0.97903 0.58418 0.0
C96 C 0.63935 0.01184 0.59504 0.0
C97 C 0.58554 0.97654 0.57391 0.0
C98 C 0.57348 0.00707 0.5742 0.0
C99 C 0.62746 0.04251 0.59515 0.0
C100 C 0.59478 0.04003 0.58489 0.0
C101 C 0.53612 0.00329 0.56458 0.0
C102 C 0.35792 0.9754 0.58364 0.0
C103 C 0.37097 0.00422 0.59609 0.0
C104 C 0.38923 0.97621 0.57306 0.0
C105 C 0.43418 0.0062 0.57459 0.0
C106 C 0.41587 0.03454 0.59744 0.0
C107 C 0.44713 0.03539 0.58685 0.0
C108 C 0.46836 0.00457 0.56468 0.0
C109 C 0.39127 0.03272 0.52875 0.0
C110 C 0.37034 1.00298 0.51675 0.0
C111 C 0.42051 0.02999 0.53937 0.0
C112 C 0.42915 0.99731 0.53827 0.0
C113 C 0.37841 0.96987 0.51591 0.0
C114 C 0.40774 0.96725 0.52648 0.0
C115 C 0.46383 0.99661 0.54816 0.0
H116 H 0.67014 0.03886 0.52682 0.0
H117 H 0.61993 0.04571 0.5452 0.0
H118 H 0.56217 0.92198 0.51073 0.0
H119 H 0.51211 0.92959 0.52884 0.0
H120 H 0.6269 0.95501 0.58372 0.0
H121 H 0.56878 0.95015 0.56611 0.0
H122 H 0.64237 0.0678 0.60354 0.0
H123 H 0.58565 0.06367 0.58548 0.0
H124 H 0.32356 0.95182 0.58219 0.0
H125 H 0.3784 0.9525 0.56404 0.0
H126 H 0.42718 0.05681 0.60703 0.0
H127 H 0.48166 0.05847 0.58842 0.0
H128 H 0.38634 0.05894 0.52959 0.0
H129 H 0.4376 0.05426 0.54806 0.0
H130 H 0.36231 0.94608 0.50698 0.0
H131 H 0.41409 0.94191 0.52534 0.0
N132 N 0.49476 0.99084 0.54066 0.0
N133 N 0.50464 0.00813 0.57216 0.0
C134 C 0.39081 0.36775 0.87294 0.0
C135 C 0.36705 0.37746 0.86193 0.0
C136 C 0.42402 0.39855 0.88232 0.0
C137 C 0.43379 0.43958 0.88098 0.0
C138 C 0.37744 0.41872 0.86049 0.0
C139 C 0.41063 0.44944 0.86985 0.0
C140 C 0.46862 0.47267 0.89082 0.0
C141 C 0.3623 0.38748 0.92535 0.0
C142 C 0.37756 0.37065 0.93701 0.0
C143 C 0.39223 0.4195 0.91555 0.0
C144 C 0.43794 0.43495 0.91711 0.0
C145 C 0.42336 0.38631 0.93853 0.0
C146 C 0.45319 0.41821 0.92873 0.0
C147 C 0.4705 0.47033 0.90755 0.0
C148 C 0.60436 0.64418 0.92573 0.0
C149 C 0.62107 0.63554 0.9395 0.0
C150 C 0.5769 0.61249 0.91532 0.0
C151 C 0.56665 0.57174 0.91827 0.0
C152 C 0.61063 0.59483 0.94248 0.0
C153 C 0.58373 0.56329 0.93197 0.0
C154 C 0.53504 0.53717 0.90806 0.0
C155 C 0.64804 0.61789 0.8758 0.0
C156 C 0.63697 0.63345 0.86245 0.0
C157 C 0.6149 0.58729 0.88522 0.0
C158 C 0.56998 0.57229 0.88171 0.0
C159 C 0.59206 0.61805 0.85883 0.0
C160 C 0.55893 0.58775 0.86835 0.0
C161 C 0.53445 0.53874 0.89125 0.0
H162 H 0.38425 0.33645 0.87414 0.0
H163 H 0.44225 0.39034 0.89053 0.0
H164 H 0.35951 0.42726 0.85227 0.0
H165 H 0.41777 0.48093 0.86856 0.0
H166 H 0.32722 0.37599 0.92382 0.0
H167 H 0.37967 0.43263 0.90695 0.0
H168 H 0.4363 0.37462 0.94757 0.0
H169 H 0.48834 0.43004 0.9303 0.0
H170 H 0.61143 0.67525 0.92329 0.0
H171 H 0.56285 0.61977 0.90521 0.0
H172 H 0.62333 0.58738 0.95295 0.0
H173 H 0.57599 0.53211 0.93462 0.0
H174 H 0.68235 0.62859 0.8787 0.0
H175 H 0.62448 0.57486 0.89508 0.0
H176 H 0.58254 0.6296 0.84866 0.0
H177 H 0.52458 0.57641 0.86528 0.0
N178 N 0.50076 0.5067 0.88333 0.0
N179 N 0.50346 0.50273 0.91546 0.0
H180 H 0.93555 0.11171 0.08084 0.0
H181 H 0.9369 0.15871 0.10115 0.0
H182 H 0.99324 0.11075 0.13468 0.0
H183 H 0.99294 0.06399 0.11422 0.0
H184 H 0.89887 0.14631 0.13068 0.0
H185 H 0.08252 0.23359 0.13538 0.0
H186 H 0.05388 0.197 0.11966 0.0
H187 H 0.05699 0.17934 0.13923 0.0
C188 C 0.94799 0.11086 0.09256 0.0
C189 C 0.9645 0.08431 0.09587 0.0
C190 C 0.9487 0.13779 0.10417 0.0
C191 C 0.96593 0.13882 0.11934 0.0
C192 C 0.98073 0.11114 0.12294 0.0
H193 H 0.00761 0.31071 0.19717 0.0
H194 H 0.00083 0.25233 0.18181 0.0
C195 C 0.9802 0.08421 0.11127 0.0
C196 C 0.96919 0.16973 0.13111 0.0
H197 H 0.0433 0.25526 0.15177 0.0
C198 C 0.93042 0.16997 0.13537 0.0
C199 C 0.01043 0.20064 0.13721 0.0
C200 C 0.05342 0.20304 0.13257 0.0
C201 C 0.93182 0.20058 0.14537 0.0
C202 C 0.9731 0.23197 0.15114 0.0
C203 C 0.01172 0.23109 0.14731 0.0
C204 C 0.97711 0.26717 0.16048 0.0
C205 C 0.88913 0.19924 0.14962 0.0
C206 C 0.96674 0.2952 0.15346 0.0
C207 C 0.97105 0.32881 0.16211 0.0
C208 C 0.98584 0.33513 0.17799 0.0
C209 C 0.99659 0.30709 0.18493 0.0
C210 C 0.99247 0.27355 0.17622 0.0
H211 H 0.85996 0.16814 0.14767 0.0
H212 H 0.88943 0.20817 0.16224 0.0
H213 H 0.88523 0.22139 0.14202 0.0
H214 H 0.95572 0.29129 0.14121 0.0
H215 H 0.96334 0.35018 0.15626 0.0
H216 H 0.85691 0.92467 0.41069 0.0
H217 H 0.7986 0.91735 0.4289 0.0
H218 H 0.86725 0.04894 0.43577 0.0
H219 H 0.92504 0.05669 0.41746 0.0
H220 H 0.80705 0.9392 0.46045 0.0
H221 H 0.74218 0.02373 0.42626 0.0
H222 H 0.77765 0.00691 0.41748 0.0
H223 H 0.80096 0.05339 0.42913 0.0
C224 C 0.85931 0.9521 0.41592 0.0
C225 C 0.89559 0.99128 0.41256 0.0
C226 C 0.82602 0.94783 0.42635 0.0
C227 C 0.8283 0.98264 0.43351 0.0
C228 C 0.8643 0.02174 0.4301 0.0
H229 H 0.70746 1.00139 0.52041 0.0
H230 H 0.75629 0.99951 0.49998 0.0
C231 C 0.89747 0.02606 0.41968 0.0
C232 C 0.79433 0.97818 0.44517 0.0
H233 H 0.7223 0.01192 0.45379 0.0
C234 C 0.78816 0.95473 0.45894 0.0
C235 C 0.76932 0.99804 0.44307 0.0
C236 C 0.77248 0.02158 0.42811 0.0
C237 C 0.75865 0.9517 0.47092 0.0
C238 C 0.73543 0.97339 0.4692 0.0
C239 C 0.74056 0.99574 0.45519 0.0
C240 C 0.70569 0.97351 0.48176 0.0
C241 C 0.75243 0.92507 0.48524 0.0
C242 C 0.66135 0.9605 0.47821 0.0
C243 C 0.63361 0.96224 0.48976 0.0
C244 C 0.64962 0.97706 0.50514 0.0
C245 C 0.69411 0.99003 0.50868 0.0
C246 C 0.72192 0.98846 0.49707 0.0
H247 H 0.76195 0.90152 0.48261 0.0
H248 H 0.77382 0.9447 0.49507 0.0
H249 H 0.71754 0.90919 0.4894 0.0
H250 H 0.64825 0.94922 0.46643 0.0
H251 H 0.59982 0.95278 0.4865 0.0
H252 H 0.88055 0.83825 0.74737 0.0
H253 H 0.83471 0.79323 0.76876 0.0
H254 H 0.90377 0.89146 0.80266 0.0
H255 H 0.94919 0.93733 0.78115 0.0
H256 H 0.85455 0.76606 0.79556 0.0
H257 H 0.77629 0.85912 0.81106 0.0
H258 H 0.80924 0.86856 0.79337 0.0
H259 H 0.8356 0.88635 0.81239 0.0
C260 C 0.88619 0.85035 0.75938 0.0
C261 C 0.91832 0.89151 0.76254 0.0
C262 C 0.85992 0.82451 0.77161 0.0
C263 C 0.86521 0.83914 0.78727 0.0
C264 C 0.89835 0.8798 0.7906 0.0
H265 H 0.71275 0.70337 0.87147 0.0
H266 H 0.77114 0.75451 0.85417 0.0
C267 C 0.92451 0.90587 0.77831 0.0
C268 C 0.83544 0.8116 0.79993 0.0
H269 H 0.7554 0.79946 0.82641 0.0
C270 C 0.83306 0.7735 0.80236 0.0
C271 C 0.8073 0.82128 0.80878 0.0
C272 C 0.8068 0.86086 0.80622 0.0
C273 C 0.80291 0.74463 0.8132 0.0
C274 C 0.7744 0.75407 0.8218 0.0
C275 C 0.77752 0.79252 0.81977 0.0
C276 C 0.7394 0.7234 0.83229 0.0
C277 C 0.8013 0.70397 0.81529 0.0
C278 C 0.7022 0.68938 0.82565 0.0
C279 C 0.66881 0.66036 0.83544 0.0
C280 C 0.67216 0.66477 0.85208 0.0
C281 C 0.70949 0.69901 0.8587 0.0
C282 C 0.74272 0.72826 0.84886 0.0
H283 H 0.83078 0.7044 0.81008 0.0
H284 H 0.79905 0.6959 0.8281 0.0
H285 H 0.77132 0.6794 0.80929 0.0
H286 H 0.69901 0.68533 0.81286 0.0
H287 H 0.64067 0.63413 0.83001 0.0
H288 H 0.06295 0.89305 0.07818 0.0
H289 H 0.06122 0.8449 0.09801 0.0
H290 H 0.01402 0.89747 0.13319 0.0
H291 H 0.0145 0.94529 0.1132 0.0
H292 H 0.10228 0.85475 0.1264 0.0
H293 H 0.92002 0.77673 0.13499 0.0
H294 H 0.94786 0.81282 0.11906 0.0
H295 H 0.94882 0.83107 0.13892 0.0
C296 C 0.05245 0.89465 0.09015 0.0
C297 C 0.03847 0.9228 0.09407 0.0
C298 C 0.05151 0.86706 0.10149 0.0
C299 C 0.03666 0.86699 0.11701 0.0
C300 C 0.02455 0.89627 0.12118 0.0
H301 H 0.02042 0.70936 0.19667 0.0
H302 H 0.02762 0.76711 0.18068 0.0
C303 C 0.02519 0.92381 0.10978 0.0
C304 C 0.03307 0.83549 0.12855 0.0
H305 H 0.95898 0.75321 0.15073 0.0
C306 C 0.07099 0.83272 0.13178 0.0
C307 C 0.9921 0.8065 0.13547 0.0
C308 C 0.94976 0.80654 0.13186 0.0
C309 C 0.06894 0.80161 0.14164 0.0
C310 C 0.02804 0.77266 0.14843 0.0
C311 C 0.99029 0.77573 0.14549 0.0
C312 C 0.02359 0.7379 0.15809 0.0
C313 C 0.11025 0.79933 0.14462 0.0
C314 C 0.01869 0.70246 0.1506 0.0
C315 C 0.01448 0.66945 0.15967 0.0
C316 C 0.01533 0.67146 0.17639 0.0
C317 C 0.02013 0.70709 0.18382 0.0
C318 C 0.02404 0.73998 0.17473 0.0
H319 H 0.14027 0.82626 0.13963 0.0
H320 H 0.11499 0.79757 0.1576 0.0
H321 H 0.10656 0.77087 0.13911 0.0
H322 H 0.01825 0.70042 0.13774 0.0
H323 H 0.01127 0.64262 0.1536 0.0
H324 H 0.13906 0.08317 0.41667 0.0
H325 H 0.19326 0.08528 0.43571 0.0
H326 H 0.14233 0.95528 0.42879 0.0
H327 H 0.08767 0.95268 0.41004 0.0
H328 H 0.14777 0.97613 0.46015 0.0
H329 H 0.30598 0.07988 0.42931 0.0
H330 H 0.26989 0.10072 0.43168 0.0
H331 H 0.25317 0.05632 0.41926 0.0
C332 C 0.13986 0.05517 0.41902 0.0
C333 C 0.10894 0.01773 0.41187 0.0
C334 C 0.17097 0.05647 0.42986 0.0
C335 C 0.17203 0.02049 0.43357 0.0
C336 C 0.14206 0.9834 0.4261 0.0
H337 H 0.36634 0.98819 0.48475 0.0
H338 H 0.31803 0.99372 0.46512 0.0
C339 C 0.11087 0.982 0.41536 0.0
C340 C 0.20224 0.02058 0.44598 0.0
H341 H 0.31113 0.06109 0.45584 0.0
C342 C 0.18351 0.99471 0.45921 0.0
C343 C 0.24881 0.04466 0.44467 0.0
C344 C 0.27079 0.07171 0.43041 0.0
C345 C 0.21005 0.99204 0.47114 0.0
C346 C 0.25661 0.0166 0.46997 0.0
C347 C 0.2754 0.04258 0.45676 0.0
C348 C 0.28638 0.0143 0.48197 0.0
C349 C 0.18799 0.96204 0.48464 0.0
C350 C 0.28491 0.02446 0.49795 0.0
C351 C 0.31209 0.02078 0.50927 0.0
C352 C 0.34146 0.00717 0.50478 0.0
C353 C 0.34344 0.9979 0.48869 0.0
C354 C 0.31619 1.00146 0.47741 0.0
H355 H 0.15326 0.93859 0.48174 0.0
H356 H 0.20644 0.94594 0.48764 0.0
H357 H 0.18747 0.9791 0.49534 0.0
H358 H 0.26265 0.03511 0.50167 0.0
H359 H 0.30963 0.02806 0.52156 0.0
H360 H 0.06087 0.06782 0.78111 0.0
H361 H 0.10564 0.11359 0.80279 0.0
H362 H 0.15934 0.21691 0.77058 0.0
H363 H 0.11454 0.17183 0.74903 0.0
H364 H 0.19705 0.1603 0.80383 0.0
H365 H 0.1247 0.26162 0.80853 0.0
H366 H 0.09726 0.21289 0.79818 0.0
H367 H 0.14039 0.25805 0.78853 0.0
C368 C 0.08171 0.1004 0.77872 0.0
C369 C 0.08403 0.1162 0.76335 0.0
C370 C 0.10732 0.12647 0.79111 0.0
C371 C 0.13532 0.16876 0.78836 0.0
C372 C 0.13721 0.18458 0.77308 0.0
H373 H 0.34989 0.38221 0.83045 0.0
H374 H 0.29127 0.32923 0.81402 0.0
C375 C 0.11173 0.15865 0.76073 0.0
C376 C 0.16493 0.19617 0.80107 0.0
H377 H 0.19705 0.28752 0.8199 0.0
C378 C 0.19662 0.18776 0.80757 0.0
C379 C 0.16427 0.23197 0.80591 0.0
C380 C 0.12952 0.24148 0.80004 0.0
C381 C 0.22907 0.21528 0.81819 0.0
C382 C 0.22942 0.25185 0.82253 0.0
C383 C 0.19683 0.25956 0.81646 0.0
C384 C 0.26465 0.28356 0.83272 0.0
C385 C 0.26389 0.20597 0.82416 0.0
C386 C 0.26887 0.27547 0.84873 0.0
C387 C 0.30222 0.30583 0.85821 0.0
C388 C 0.33183 0.34488 0.85186 0.0
C389 C 0.32732 0.35274 0.8358 0.0
C390 C 0.29397 0.32244 0.82636 0.0
H391 H 0.26371 0.18035 0.81746 0.0
H392 H 0.29734 0.23366 0.82324 0.0
H393 H 0.25759 0.19702 0.83689 0.0
H394 H 0.24611 0.24584 0.85392 0.0
H395 H 0.30431 0.29896 0.87058 0.0
H396 H 0.86335 0.94809 0.69964 0.0
H397 H 0.81284 0.95207 0.68057 0.0
H398 H 0.8935 0.08444 0.67998 0.0
H399 H 0.94458 0.08089 0.69903 0.0
H400 H 0.76487 0.99605 0.68241 0.0
H401 H 0.88624 0.04908 0.63264 0.0
H402 H 0.89326 0.02639 0.65055 0.0
H403 H 0.90469 0.07867 0.65069 0.0
C404 C 0.8703 0.97813 0.69556 0.0
C405 C 0.90824 0.01418 0.70078 0.0
C406 C 0.84134 0.9803 0.68467 0.0
C407 C 0.84987 0.01847 0.67871 0.0
C408 C 0.8868 0.05464 0.68427 0.0
H409 H 0.71686 0.07907 0.6048 0.0
H410 H 0.76756 0.08179 0.6255 0.0
C411 C 0.91577 0.05254 0.69522 0.0
C412 C 0.82044 0.02009 0.66642 0.0
H413 H 0.81672 0.04258 0.62729 0.0
C414 C 0.77615 0.00629 0.67036 0.0
C415 C 0.8354 0.03354 0.65074 0.0
C416 C 0.88239 0.0475 0.64578 0.0
C417 C 0.74632 0.00571 0.65903 0.0
C418 C 0.76105 0.0184 0.64326 0.0
C419 C 0.80553 0.03277 0.63938 0.0
C420 C 0.73066 0.01649 0.63055 0.0
C421 C 0.69949 0.99203 0.6641 0.0
C422 C 0.69367 0.97874 0.6263 0.0
C423 C 0.66448 0.97711 0.61457 0.0
C424 C 0.67193 0.0132 0.60676 0.0
C425 C 0.70978 0.05081 0.61075 0.0
C426 C 0.7389 0.05241 0.62251 0.0
H427 H 0.69699 0.99457 0.67718 0.0
H428 H 0.68691 0.01056 0.65814 0.0
H429 H 0.67773 0.95928 0.66074 0.0
H430 H 0.68723 0.95051 0.63212 0.0
H431 H 0.6355 0.94769 0.61189 0.0
H432 H 0.84749 0.93035 0.04162 0.0
H433 H 0.78843 0.87681 0.02531 0.0
H434 H 0.87795 0.83626 0.00954 0.0
H435 H 0.93643 0.88853 0.02605 0.0
H436 H 0.78317 0.86445 0.99361 0.0
H437 H 0.77366 0.72921 0.02363 0.0
H438 H 0.80343 0.7803 0.03202 0.0
H439 H 0.82889 0.76446 0.0171 0.0
C440 C 0.85444 0.90979 0.03477 0.0
C441 C 0.89656 0.91348 0.03526 0.0
C442 C 0.82069 0.87926 0.02545 0.0
C443 C 0.82851 0.85198 0.01646 0.0
C444 C 0.87073 0.85612 0.01673 0.0
H445 H 0.69278 0.7109 0.93311 0.0
H446 H 0.74002 0.76419 0.95224 0.0
C447 C 0.90425 0.88626 0.02613 0.0
C448 C 0.79323 0.81998 0.00634 0.0
H449 H 0.74143 0.71746 0.99757 0.0
C450 C 0.77361 0.83221 0.99458 0.0
C451 C 0.78014 0.77781 0.0078 0.0
C452 C 0.79729 0.76211 0.02094 0.0
C453 C 0.74253 0.80365 0.98386 0.0
C454 C 0.73175 0.76194 0.98465 0.0
C455 C 0.75013 0.74951 0.99679 0.0
C456 C 0.70203 0.73063 0.97293 0.0
C457 C 0.72138 0.81847 0.97189 0.0
C458 C 0.66566 0.69358 0.97818 0.0
C459 C 0.63924 0.66285 0.96731 0.0
C460 C 0.64854 0.66865 0.95094 0.0
C461 C 0.6846 0.70589 0.94565 0.0
C462 C 0.7114 0.73644 0.95656 0.0
H463 H 0.72158 0.84659 0.97616 0.0
H464 H 0.74048 0.82641 0.96063 0.0
H465 H 0.68668 0.79441 0.96934 0.0
H466 H 0.65785 0.68833 0.99074 0.0
H467 H 0.6114 0.63455 0.97169 0.0
H468 H 0.98643 0.93223 0.33235 0.0
H469 H 0.98414 0.88398 0.31214 0.0
H470 H 0.94648 0.79031 0.34812 0.0
H471 H 0.94757 0.83762 0.36816 0.0
H472 H 0.03419 0.84768 0.3108 0.0
H473 H 0.85798 0.72644 0.31392 0.0
H474 H 0.87841 0.77666 0.32271 0.0
H475 H 0.88354 0.73734 0.33316 0.0
C476 C 0.97694 0.90113 0.33588 0.0
C477 C 0.96696 0.88872 0.35185 0.0
C478 C 0.97574 0.87363 0.32434 0.0
C479 C 0.96439 0.83327 0.32856 0.0
C480 C 0.95411 0.82085 0.34447 0.0
H481 H 0.98964 0.63359 0.2915 0.0
H482 H 0.98306 0.68523 0.30727 0.0
C483 C 0.95506 0.84813 0.35596 0.0
C484 C 0.96616 0.80483 0.31667 0.0
H485 H 0.90759 0.70662 0.30223 0.0
C486 C 0.00628 0.8171 0.30872 0.0
C487 C 0.92969 0.7649 0.31393 0.0
C488 C 0.88487 0.75073 0.32126 0.0
C489 C 0.01142 0.78989 0.29866 0.0
C490 C 0.97558 0.74952 0.29651 0.0
C491 C 0.93511 0.73757 0.30405 0.0
C492 C 0.97996 0.7188 0.28687 0.0
C493 C 0.05551 0.80383 0.29077 0.0
C494 C 0.98024 0.72068 0.27021 0.0
C495 C 0.98387 0.6912 0.26118 0.0
C496 C 0.98753 0.65949 0.26867 0.0
C497 C 0.98739 0.65789 0.28539 0.0
C498 C 0.98339 0.68717 0.2944 0.0
H499 H 0.08126 0.83498 0.29477 0.0
H500 H 0.06698 0.78166 0.29336 0.0
H501 H 0.05176 0.8045 0.27768 0.0
H502 H 0.97747 0.74485 0.26422 0.0
H503 H 0.98424 0.69341 0.24832 0.0
H504 H 0.13938 0.06228 0.6987 0.0
H505 H 0.19085 0.05888 0.67998 0.0
H506 H 0.11758 0.92625 0.68238 0.0
H507 H 0.06526 0.92922 0.70098 0.0
H508 H 0.24468 0.02382 0.68267 0.0
H509 H 0.11962 0.9495 0.63463 0.0
H510 H 0.10997 0.97239 0.65193 0.0
H511 H 0.10542 0.92263 0.65331 0.0
C512 C 0.13421 0.03231 0.69534 0.0
C513 C 0.0979 0.99598 0.70124 0.0
C514 C 0.16374 0.03047 0.68464 0.0
C515 C 0.15756 0.99233 0.67959 0.0
C516 C 0.12237 0.95599 0.68588 0.0
H517 H 0.30362 0.93488 0.60983 0.0
H518 H 0.2518 0.93079 0.63032 0.0
C519 C 0.09269 0.95777 0.69659 0.0
C520 C 0.18772 0.99097 0.66752 0.0
H521 H 0.19141 0.961 0.62945 0.0
C522 C 0.23305 0.01001 0.67104 0.0
C523 C 0.17239 0.97294 0.65237 0.0
C524 C 0.12427 0.95348 0.64771 0.0
C525 C 0.26354 0.01152 0.6598 0.0
C526 C 0.2483 0.99408 0.64458 0.0
C527 C 0.2029 0.97438 0.64114 0.0
C528 C 0.27911 0.99667 0.63194 0.0
C529 C 0.31177 0.03151 0.66433 0.0
C530 C 0.31096 0.03505 0.62585 0.0
C531 C 0.34036 0.03751 0.61405 0.0
C532 C 0.33834 1.00158 0.60807 0.0
C533 C 0.30575 0.96312 0.61401 0.0
C534 C 0.27631 0.9607 0.6258 0.0
H535 H 0.31638 0.03392 0.67745 0.0
H536 H 0.32695 0.01394 0.65946 0.0
H537 H 0.32978 0.0631 0.65932 0.0
H538 H 0.31298 0.06311 0.63021 0.0
H539 H 0.36455 0.06755 0.60955 0.0
H540 H 0.07179 0.13294 0.03279 0.0
H541 H 0.12742 0.18426 0.01504 0.0
H542 H 0.20113 0.1203 0.01655 0.0
H543 H 0.14539 0.06841 0.03427 0.0
H544 H 0.2206 0.23591 0.01976 0.0
H545 H 0.18069 0.1292 0.96847 0.0
H546 H 0.14406 0.11723 0.98529 0.0
H547 H 0.1927 0.11264 0.98694 0.0
C548 C 0.09986 0.12974 0.02941 0.0
C549 C 0.10396 0.09636 0.03488 0.0
C550 C 0.13164 0.15916 0.01928 0.0
C551 C 0.16796 0.15569 0.01432 0.0
C552 C 0.17288 0.12309 0.02004 0.0
H553 H 0.37974 0.30243 0.94733 0.0
H554 H 0.33043 0.25078 0.96655 0.0
C555 C 0.14113 0.09362 0.03024 0.0
C556 C 0.20035 0.18618 0.00304 0.0
H557 H 0.23966 0.19721 0.9651 0.0
C558 C 0.22488 0.22751 0.00781 0.0
C559 C 0.20581 0.17499 0.9875 0.0
C560 C 0.17925 0.13118 0.98162 0.0
C561 C 0.25492 0.25804 0.99744 0.0
C562 C 0.25978 0.247 0.98179 0.0
C563 C 0.23574 0.20556 0.9771 0.0
C564 C 0.28925 0.27809 0.97003 0.0
C565 C 0.2816 0.30175 0.00341 0.0
C566 C 0.28188 0.31008 0.96539 0.0
C567 C 0.31014 0.3398 0.9545 0.0
C568 C 0.34616 0.33789 0.94795 0.0
C569 C 0.35274 0.30516 0.95235 0.0
C570 C 0.32448 0.2755 0.96325 0.0
H571 H 0.2832 0.30303 0.01662 0.0
H572 H 0.31587 0.31705 0.99864 0.0
H573 H 0.26572 0.31946 0.9994 0.0
H574 H 0.25431 0.31216 0.97023 0.0
H575 H 0.30431 0.36473 0.95148 0.0
H576 H 0.05912 0.17425 0.36766 0.0
H577 H 0.05769 0.21971 0.34724 0.0
H578 H 0.00929 0.1208 0.31305 0.0
H579 H 0.00981 0.0746 0.33358 0.0
H580 H 0.09958 0.24461 0.31813 0.0
H581 H 0.9166 0.15664 0.31077 0.0
H582 H 0.94422 0.14757 0.32709 0.0
H583 H 0.94418 0.12768 0.30764 0.0
C584 C 0.04838 0.16209 0.35578 0.0
C585 C 0.03425 0.12066 0.35228 0.0
C586 C 0.04761 0.18819 0.34411 0.0
C587 C 0.03266 0.17348 0.3287 0.0
C588 C 0.02006 0.13255 0.32496 0.0
H589 H 0.99322 0.30471 0.24968 0.0
H590 H 0.99983 0.25317 0.26547 0.0
C591 C 0.02069 0.10628 0.33668 0.0
C592 C 0.02968 0.20116 0.31677 0.0
H593 H 0.95621 0.21575 0.29484 0.0
C594 C 0.06827 0.23818 0.31296 0.0
C595 C 0.98878 0.19271 0.31004 0.0
C596 C 0.94596 0.15419 0.31415 0.0
C597 C 0.067 0.26721 0.30278 0.0
C598 C 0.02597 0.25923 0.29639 0.0
C599 C 0.98759 0.22172 0.29979 0.0
C600 C 0.02191 0.29033 0.2868 0.0
C601 C 0.10956 0.30628 0.29897 0.0
C602 C 0.03136 0.32794 0.29367 0.0
C603 C 0.02722 0.35726 0.28476 0.0
C604 C 0.01345 0.34954 0.26878 0.0
C605 C 0.00348 0.31153 0.26199 0.0
C606 C 0.00749 0.28213 0.27095 0.0
H607 H 0.13896 0.30293 0.30124 0.0
H608 H 0.11013 0.31533 0.28635 0.0
H609 H 0.11228 0.33155 0.30662 0.0
H610 H 0.04157 0.33448 0.306 0.0
H611 H 0.03428 0.38578 0.29048 0.0
loop_
_geom_bond_atom_site_label_1
_geom_bond_atom_site_label_2
_geom_bond_distance
_geom_bond_site_symmetry_2
_ccdc_geom_bond_type
O0 Cd1 2.223 1_455 S
O0 C8 1.315 . S
Cd1 O0 2.223 1_655 S
Cd1 O4 2.297 . S
Cd1 O5 2.439 . S
Cd1 O11 2.240 1_545 S
Cd2 O3 2.240 1_565 S
Cd2 O10 2.223 1_455 S
Cd2 O12 2.297 . S
Cd2 O13 2.439 . S
O3 Cd2 2.240 1_545 S
O3 C8 1.279 . S
O4 Cd1 2.297 . S
O4 C6 1.247 . S
O5 Cd1 2.439 . S
O5 C6 1.208 . S
C6 O4 1.247 . S
C6 O5 1.208 . S
C7 O12 1.247 . S
C7 O13 1.208 . S
C8 O0 1.315 . S
C8 O3 1.279 . S
C9 O10 1.315 . S
C9 O11 1.279 . S
O10 Cd2 2.223 1_655 S
O10 C9 1.315 . S
O11 Cd1 2.240 1_565 S
O11 C9 1.279 . S
O12 Cd2 2.297 . S
O12 C7 1.247 . S
O13 Cd2 2.439 . S
O13 C7 1.208 . S
O14 Cd15 2.223 1_655 S
O14 C22 1.315 . S
Cd15 O14 2.223 1_455 S
Cd15 O18 2.297 . S
Cd15 O19 2.439 . S
Cd15 O25 2.240 . S
Cd16 O17 2.240 . S
Cd16 O24 2.223 1_655 S
Cd16 O26 2.297 . S
Cd16 O27 2.439 . S
O17 Cd16 2.240 . S
O17 C22 1.279 1_565 S
O18 Cd15 2.297 . S
O18 C20 1.247 . S
O19 Cd15 2.439 . S
O19 C20 1.208 . S
C20 O18 1.247 . S
C20 O19 1.208 . S
C21 O26 1.247 . S
C21 O27 1.208 . S
C22 O14 1.315 . S
C22 O17 1.279 1_545 S
C23 O24 1.315 . S
C23 O25 1.279 1_565 S
O24 Cd16 2.223 1_455 S
O24 C23 1.315 . S
O25 Cd15 2.240 . S
O25 C23 1.279 1_545 S
O26 Cd16 2.297 . S
O26 C21 1.247 . S
O27 Cd16 2.439 . S
O27 C21 1.208 . S
O28 Cd29 2.223 . S
O28 C36 1.315 . S
Cd29 O28 2.223 . S
Cd29 O32 2.297 . S
Cd29 O33 2.439 . S
Cd29 O39 2.240 1_655 S
Cd30 O31 2.240 1_455 S
Cd30 O38 2.223 . S
Cd30 O40 2.297 . S
Cd30 O41 2.439 . S
O31 Cd30 2.240 1_655 S
O31 C36 1.279 1_545 S
O32 Cd29 2.297 . S
O32 C34 1.247 . S
O33 Cd29 2.439 . S
O33 C34 1.208 . S
C34 O32 1.247 . S
C34 O33 1.208 . S
C35 O40 1.247 . S
C35 O41 1.208 . S
C36 O28 1.315 . S
C36 O31 1.279 1_565 S
C37 O38 1.315 . S
C37 O39 1.279 1_545 S
O38 Cd30 2.223 . S
O38 C37 1.315 . S
O39 Cd29 2.240 1_455 S
O39 C37 1.279 1_565 S
O40 Cd30 2.297 . S
O40 C35 1.247 . S
O41 Cd30 2.439 . S
O41 C35 1.208 . S
C42 C43 1.384 1_655 S
C42 C44 1.384 . S
C42 H70 0.931 . S
C43 C42 1.384 1_455 S
C43 C46 1.382 . S
C44 C42 1.384 . S
C44 C45 1.381 1_655 S
C44 H71 0.930 . S
C45 C44 1.381 1_455 S
C45 C47 1.381 . S
C45 C48 1.487 . S
C46 C43 1.382 . S
C46 C47 1.387 . S
C46 H72 0.930 . S
C47 C45 1.381 . S
C47 C46 1.387 . S
C47 H73 0.931 . S
C48 C45 1.487 . S
C48 C55 1.399 1_455 S
C48 N86 1.343 . S
C49 C50 1.384 1_455 S
C49 C51 1.384 . S
C49 H74 0.931 . S
C50 C49 1.384 1_655 S
C50 C53 1.382 . S
C51 C49 1.384 . S
C51 C52 1.381 1_455 S
C51 H75 0.930 . S
C52 C51 1.381 1_655 S
C52 C54 1.381 . S
C52 C55 1.487 . S
C53 C50 1.382 . S
C53 C54 1.387 . S
C53 H76 0.930 . S
C54 C52 1.381 . S
C54 C53 1.387 . S
C54 H77 0.931 . S
C55 C48 1.399 1_655 S
C55 C52 1.487 . S
C55 N87 1.343 . S
C56 C57 1.384 1_455 S
C56 C58 1.384 . S
C56 H78 0.931 . S
C57 C56 1.384 1_655 S
C57 C60 1.382 . S
C58 C56 1.384 . S
C58 C59 1.381 1_455 S
C58 H79 0.930 . S
C59 C58 1.381 1_655 S
C59 C61 1.381 . S
C59 C62 1.487 . S
C60 C57 1.382 . S
C60 C61 1.387 . S
C60 H80 0.930 . S
C61 C59 1.381 . S
C61 C60 1.387 . S
C61 H81 0.931 . S
C62 C59 1.487 . S
C62 C69 1.399 1_655 S
C62 N87 1.343 . S
C63 C64 1.384 1_655 S
C63 C65 1.384 . S
C63 H82 0.931 . S
C64 C63 1.384 1_455 S
C64 C67 1.382 . S
C65 C63 1.384 . S
C65 C66 1.381 1_655 S
C65 H83 0.930 . S
C66 C65 1.381 1_455 S
C66 C68 1.381 . S
C66 C69 1.487 . S
C67 C64 1.382 . S
C67 C68 1.387 . S
C67 H84 0.930 . S
C68 C66 1.381 . S
C68 C67 1.387 . S
C68 H85 0.931 . S
C69 C62 1.399 1_455 S
C69 C66 1.487 . S
C69 N86 1.343 . S
H70 C42 0.931 . S
H71 C44 0.930 . S
H72 C46 0.930 . S
H73 C47 0.931 . S
H74 C49 0.931 . S
H75 C51 0.930 . S
H76 C53 0.930 . S
H77 C54 0.931 . S
H78 C56 0.931 . S
H79 C58 0.930 . S
H80 C60 0.930 . S
H81 C61 0.931 . S
H82 C63 0.931 . S
H83 C65 0.930 . S
H84 C67 0.930 . S
H85 C68 0.931 . S
N86 C48 1.343 . S
N86 C69 1.343 . S
N87 C55 1.343 . S
N87 C62 1.343 . S
C88 C89 1.364 1_545 S
C88 C90 1.384 . S
C88 H116 0.931 . S
C89 C88 1.364 1_565 S
C89 C92 1.390 . S
C90 C88 1.384 . S
C90 C91 1.381 1_545 S
C90 H117 0.930 . S
C91 C90 1.381 1_565 S
C91 C93 1.381 . S
C91 C94 1.487 . S
C92 C89 1.390 . S
C92 C93 1.387 . S
C92 H118 0.930 . S
C93 C91 1.381 . S
C93 C92 1.387 . S
C93 H119 0.931 . S
C94 C91 1.487 . S
C94 C101 1.399 1_565 S
C94 N132 1.343 . S
C95 C96 1.384 1_565 S
C95 C97 1.384 . S
C95 H120 0.931 . S
C96 C95 1.384 1_545 S
C96 C99 1.382 . S
C97 C95 1.384 . S
C97 C98 1.381 1_565 S
C97 H121 0.930 . S
C98 C97 1.381 1_545 S
C98 C100 1.381 . S
C98 C101 1.487 . S
C99 C96 1.382 . S
C99 C100 1.387 . S
C99 H122 0.930 . S
C100 C98 1.381 . S
C100 C99 1.387 . S
C100 H123 0.931 . S
C101 C94 1.399 1_545 S
C101 C98 1.487 . S
C101 N133 1.343 . S
C102 C103 1.384 1_565 S
C102 C104 1.384 . S
C102 H124 0.931 . S
C103 C102 1.384 1_545 S
C103 C106 1.382 . S
C104 C102 1.384 . S
C104 C105 1.381 1_565 S
C104 H125 0.930 . S
C105 C104 1.381 1_545 S
C105 C107 1.381 . S
C105 C108 1.487 . S
C106 C103 1.382 . S
C106 C107 1.387 . S
C106 H126 0.930 . S
C107 C105 1.381 . S
C107 C106 1.387 . S
C107 H127 0.931 . S
C108 C105 1.487 . S
C108 C115 1.399 1_545 S
C108 N133 1.343 . S
C109 C110 1.367 1_545 S
C109 C111 1.384 . S
C109 H128 0.931 . S
C110 C109 1.367 1_565 S
C110 C113 1.414 . S
C111 C109 1.384 . S
C111 C112 1.381 1_545 S
C111 H129 0.930 . S
C112 C111 1.381 1_565 S
C112 C114 1.381 . S
C112 C115 1.487 . S
C113 C110 1.414 . S
C113 C114 1.387 . S
C113 H130 0.930 . S
C114 C112 1.381 . S
C114 C113 1.387 . S
C114 H131 0.931 . S
C115 C108 1.399 1_565 S
C115 C112 1.487 . S
C115 N132 1.343 . S
H116 C88 0.931 . S
H117 C90 0.930 . S
H118 C92 0.930 . S
H119 C93 0.931 . S
H120 C95 0.931 . S
H121 C97 0.930 . S
H122 C99 0.930 . S
H123 C100 0.931 . S
H124 C102 0.931 . S
H125 C104 0.930 . S
H126 C106 0.930 . S
H127 C107 0.931 . S
H128 C109 0.931 . S
H129 C111 0.930 . S
H130 C113 0.930 . S
H131 C114 0.931 . S
N132 C94 1.343 . S
N132 C115 1.343 . S
N133 C101 1.343 . S
N133 C108 1.343 . S
C134 C135 1.384 . S
C134 C136 1.384 . S
C134 H162 0.931 . S
C135 C134 1.384 . S
C135 C138 1.382 . S
C136 C134 1.384 . S
C136 C137 1.381 . S
C136 H163 0.930 . S
C137 C136 1.381 . S
C137 C139 1.381 . S
C137 C140 1.487 . S
C138 C135 1.382 . S
C138 C139 1.387 . S
C138 H164 0.930 . S
C139 C137 1.381 . S
C139 C138 1.387 . S
C139 H165 0.931 . S
C140 C137 1.487 . S
C140 C147 1.399 . S
C140 N178 1.343 . S
C141 C142 1.384 . S
C141 C143 1.384 . S
C141 H166 0.931 . S
C142 C141 1.384 . S
C142 C145 1.382 . S
C143 C141 1.384 . S
C143 C144 1.381 . S
C143 H167 0.930 . S
C144 C143 1.381 . S
C144 C146 1.381 . S
C144 C147 1.487 . S
C145 C142 1.382 . S
C145 C146 1.387 . S
C145 H168 0.930 . S
C146 C144 1.381 . S
C146 C145 1.387 . S
C146 H169 0.931 . S
C147 C140 1.399 . S
C147 C144 1.487 . S
C147 N179 1.343 . S
C148 C149 1.384 . S
C148 C150 1.384 . S
C148 H170 0.931 . S
C149 C148 1.384 . S
C149 C152 1.382 . S
C150 C148 1.384 . S
C150 C151 1.381 . S
C150 H171 0.930 . S
C151 C150 1.381 . S
C151 C153 1.381 . S
C151 C154 1.487 . S
C152 C149 1.382 . S
C152 C153 1.387 . S
C152 H172 0.930 . S
C153 C151 1.381 . S
C153 C152 1.387 . S
C153 H173 0.931 . S
C154 C151 1.487 . S
C154 C161 1.399 . S
C154 N179 1.343 . S
C155 C156 1.384 . S
C155 C157 1.384 . S
C155 H174 0.931 . S
C156 C155 1.384 . S
C156 C159 1.382 . S
C157 C155 1.384 . S
C157 C158 1.381 . S
C157 H175 0.930 . S
C158 C157 1.381 . S
C158 C160 1.381 . S
C158 C161 1.487 . S
C159 C156 1.382 . S
C159 C160 1.387 . S
C159 H176 0.930 . S
C160 C158 1.381 . S
C160 C159 1.387 . S
C160 H177 0.931 . S
C161 C154 1.399 . S
C161 C158 1.487 . S
C161 N178 1.343 . S
H162 C134 0.931 . S
H163 C136 0.930 . S
H164 C138 0.930 . S
H165 C139 0.931 . S
H166 C141 0.931 . S
H167 C143 0.930 . S
H168 C145 0.930 . S
H169 C146 0.931 . S
H170 C148 0.931 . S
H171 C150 0.930 . S
H172 C152 0.930 . S
H173 C153 0.931 . S
H174 C155 0.931 . S
H175 C157 0.930 . S
H176 C159 0.930 . S
H177 C160 0.931 . S
N178 C140 1.343 . S
N178 C161 1.343 . S
N179 C147 1.343 . S
N179 C154 1.343 . S
H180 C188 0.929 . S
H181 C190 0.930 . S
H182 C192 0.930 . S
H183 C195 0.938 . S
H184 C198 0.930 . S
H185 C200 0.960 . S
H186 C200 0.960 . S
H187 C200 0.960 . S
C188 H180 0.929 . S
C188 C189 1.377 . S
C188 C190 1.384 . S
C189 C188 1.377 . S
C189 C195 1.389 . S
C190 H181 0.930 . S
C190 C188 1.384 . S
C190 C191 1.372 . S
C191 C190 1.372 . S
C191 C192 1.400 . S
C191 C196 1.488 1_455 S
C192 H182 0.930 . S
C192 C191 1.400 . S
C192 C195 1.374 . S
H193 C209 0.930 . S
H194 C210 0.931 . S
C195 H183 0.938 . S
C195 C189 1.389 . S
C195 C192 1.374 . S
C196 C191 1.488 1_655 S
C196 C198 1.400 . S
C196 C199 1.400 1_655 S
H197 C203 0.930 . S
C198 H184 0.930 . S
C198 C196 1.400 . S
C198 C201 1.403 . S
C199 C196 1.400 1_455 S
C199 C200 1.524 . S
C199 C203 1.400 . S
C200 H185 0.960 . S
C200 H186 0.960 . S
C200 H187 0.960 . S
C200 C199 1.524 . S
C201 C198 1.403 . S
C201 C202 1.392 . S
C201 C205 1.495 . S
C202 C201 1.392 . S
C202 C203 1.385 1_655 S
C202 C204 1.478 . S
C203 H197 0.930 . S
C203 C199 1.400 . S
C203 C202 1.385 1_455 S
C204 C202 1.478 . S
C204 C206 1.381 . S
C204 C210 1.383 . S
C205 C201 1.495 . S
C205 H211 0.959 . S
C205 H212 0.961 . S
C205 H213 0.960 . S
C206 C204 1.381 . S
C206 C207 1.394 1_655 S
C206 H214 0.931 1_655 S
C207 C206 1.394 1_455 S
C207 C208 1.383 1_455 S
C207 H215 0.929 . S
C208 C207 1.383 1_655 S
C208 C209 1.377 . S
C209 H193 0.930 . S
C209 C208 1.377 . S
C209 C210 1.379 . S
C210 H194 0.931 . S
C210 C204 1.383 . S
C210 C209 1.379 . S
H211 C205 0.959 . S
H212 C205 0.961 . S
H213 C205 0.960 . S
H214 C206 0.931 1_455 S
H215 C207 0.929 . S
H216 C224 0.929 . S
H217 C226 0.930 . S
H218 C228 0.930 . S
H219 C231 0.929 . S
H220 C234 0.930 . S
H221 C236 0.960 . S
H222 C236 0.960 . S
H223 C236 0.960 . S
C224 H216 0.929 . S
C224 C225 1.377 1_565 S
C224 C226 1.384 . S
C225 C224 1.377 1_545 S
C225 C231 1.390 . S
C226 H217 0.930 . S
C226 C224 1.384 . S
C226 C227 1.354 1_565 S
C227 C226 1.354 1_545 S
C227 C228 1.406 . S
C227 C232 1.512 1_545 S
C228 H218 0.930 . S
C228 C227 1.406 . S
C228 C231 1.386 . S
H229 C245 0.930 . S
H230 C246 0.931 . S
C231 H219 0.929 . S
C231 C225 1.390 . S
C231 C228 1.386 . S
C232 C227 1.512 1_565 S
C232 C234 1.413 . S
C232 C235 1.375 1_565 S
H233 C239 0.930 . S
C234 H220 0.930 . S
C234 C232 1.413 . S
C234 C237 1.403 . S
C235 C232 1.375 1_545 S
C235 C236 1.524 . S
C235 C239 1.400 . S
C236 H221 0.960 . S
C236 H222 0.960 . S
C236 H223 0.960 . S
C236 C235 1.524 . S
C237 C234 1.403 . S
C237 C238 1.392 . S
C237 C241 1.495 . S
C238 C237 1.392 . S
C238 C239 1.385 1_565 S
C238 C240 1.478 . S
C239 H233 0.930 . S
C239 C235 1.400 . S
C239 C238 1.385 1_545 S
C240 C238 1.478 . S
C240 C242 1.381 . S
C240 C246 1.383 1_565 S
C241 C237 1.495 . S
C241 H247 0.959 . S
C241 H248 0.961 . S
C241 H249 0.960 . S
C242 C240 1.381 . S
C242 C243 1.394 . S
C242 H250 0.930 . S
C243 C242 1.394 . S
C243 C244 1.383 . S
C243 H251 0.929 . S
C244 C243 1.383 . S
C244 C245 1.377 1_565 S
C245 H229 0.930 . S
C245 C244 1.377 1_545 S
C245 C246 1.379 . S
C246 H230 0.931 . S
C246 C240 1.383 1_545 S
C246 C245 1.379 . S
H247 C241 0.959 . S
H248 C241 0.961 . S
H249 C241 0.960 . S
H250 C242 0.930 . S
H251 C243 0.929 . S
H252 C260 0.929 . S
H253 C262 0.930 . S
H254 C264 0.930 . S
H255 C267 0.929 . S
H256 C270 0.930 . S
H257 C272 0.960 . S
H258 C272 0.960 . S
H259 C272 0.960 . S
C260 H252 0.929 . S
C260 C261 1.377 . S
C260 C262 1.384 . S
C261 C260 1.377 . S
C261 C267 1.390 . S
C262 H253 0.930 . S
C262 C260 1.384 . S
C262 C263 1.372 . S
C263 C262 1.372 . S
C263 C264 1.400 . S
C263 C268 1.490 . S
C264 H254 0.930 . S
C264 C263 1.400 . S
C264 C267 1.386 . S
H265 C281 0.930 . S
H266 C282 0.931 . S
C267 H255 0.929 . S
C267 C261 1.390 . S
C267 C264 1.386 . S
C268 C263 1.490 . S
C268 C270 1.395 . S
C268 C271 1.403 . S
H269 C275 0.930 . S
C270 H256 0.930 . S
C270 C268 1.395 . S
C270 C273 1.403 . S
C271 C268 1.403 . S
C271 C272 1.524 . S
C271 C275 1.400 . S
C272 H257 0.960 . S
C272 H258 0.960 . S
C272 H259 0.960 . S
C272 C271 1.524 . S
C273 C270 1.403 . S
C273 C274 1.392 . S
C273 C277 1.495 . S
C274 C273 1.392 . S
C274 C275 1.385 . S
C274 C276 1.478 . S
C275 H269 0.930 . S
C275 C271 1.400 . S
C275 C274 1.385 . S
C276 C274 1.478 . S
C276 C278 1.381 . S
C276 C282 1.383 . S
C277 C273 1.495 . S
C277 H283 0.959 . S
C277 H284 0.961 . S
C277 H285 0.960 . S
C278 C276 1.381 . S
C278 C279 1.394 . S
C278 H286 0.930 . S
C279 C278 1.394 . S
C279 C280 1.383 . S
C279 H287 0.929 . S
C280 C279 1.383 . S
C280 C281 1.377 . S
C281 H265 0.930 . S
C281 C280 1.377 . S
C281 C282 1.379 . S
C282 H266 0.931 . S
C282 C276 1.383 . S
C282 C281 1.379 . S
H283 C277 0.959 . S
H284 C277 0.961 . S
H285 C277 0.960 . S
H286 C278 0.930 . S
H287 C279 0.929 . S
H288 C296 0.931 . S
H289 C298 0.930 . S
H290 C300 0.930 . S
H291 C303 0.929 . S
H292 C306 0.930 . S
H293 C308 0.960 . S
H294 C308 0.960 . S
H295 C308 0.960 . S
C296 H288 0.931 . S
C296 C297 1.366 1_455 S
C296 C298 1.393 . S
C297 C296 1.366 1_655 S
C297 C303 1.390 . S
C298 H289 0.930 . S
C298 C296 1.393 . S
C298 C299 1.370 1_455 S
C299 C298 1.370 1_655 S
C299 C300 1.414 . S
C299 C304 1.470 1_655 S
C300 H290 0.930 . S
C300 C299 1.414 . S
C300 C303 1.386 . S
H301 C317 0.930 . S
H302 C318 0.931 . S
C303 H291 0.929 . S
C303 C297 1.390 . S
C303 C300 1.386 . S
C304 C299 1.470 1_455 S
C304 C306 1.415 . S
C304 C307 1.391 1_455 S
H305 C311 0.930 . S
C306 H292 0.930 . S
C306 C304 1.415 . S
C306 C309 1.403 . S
C307 C304 1.391 1_655 S
C307 C308 1.524 . S
C307 C311 1.400 . S
C308 H293 0.960 . S
C308 H294 0.960 . S
C308 H295 0.960 . S
C308 C307 1.524 . S
C309 C306 1.403 . S
C309 C310 1.392 . S
C309 C313 1.495 . S
C310 C309 1.392 . S
C310 C311 1.385 1_455 S
C310 C312 1.478 . S
C311 H305 0.930 . S
C311 C307 1.400 . S
C311 C310 1.385 1_655 S
C312 C310 1.478 . S
C312 C314 1.381 . S
C312 C318 1.383 . S
C313 C309 1.495 . S
C313 H319 0.959 . S
C313 H320 0.961 . S
C313 H321 0.960 . S
C314 C312 1.381 . S
C314 C315 1.394 . S
C314 H322 0.930 . S
C315 C314 1.394 . S
C315 C316 1.383 . S
C315 H323 0.933 1_455 S
C316 C315 1.383 . S
C316 C317 1.377 . S
C317 H301 0.930 . S
C317 C316 1.377 . S
C317 C318 1.379 . S
C318 H302 0.931 . S
C318 C312 1.383 . S
C318 C317 1.379 . S
H319 C313 0.959 . S
H320 C313 0.961 . S
H321 C313 0.960 . S
H322 C314 0.930 . S
H323 C315 0.933 1_655 S
H324 C332 0.929 . S
H325 C334 0.930 . S
H326 C336 0.930 . S
H327 C339 0.929 . S
H328 C342 0.930 . S
H329 C344 0.960 . S
H330 C344 0.960 . S
H331 C344 0.960 . S
C332 H324 0.929 . S
C332 C333 1.377 1_545 S
C332 C334 1.384 . S
C333 C332 1.377 1_565 S
C333 C339 1.390 . S
C334 H325 0.930 . S
C334 C332 1.384 . S
C334 C335 1.359 1_545 S
C335 C334 1.359 1_565 S
C335 C336 1.407 . S
C335 C340 1.486 . S
C336 H326 0.930 . S
C336 C335 1.407 . S
C336 C339 1.386 . S
H337 C353 0.930 . S
H338 C354 0.931 . S
C339 H327 0.929 . S
C339 C333 1.390 . S
C339 C336 1.386 . S
C340 C335 1.486 . S
C340 C342 1.402 . S
C340 C343 1.406 1_565 S
H341 C347 0.930 . S
C342 H328 0.930 . S
C342 C340 1.402 . S
C342 C345 1.403 . S
C343 C340 1.406 1_545 S
C343 C344 1.524 . S
C343 C347 1.400 . S
C344 H329 0.960 . S
C344 H330 0.960 . S
C344 H331 0.960 . S
C344 C343 1.524 . S
C345 C342 1.403 . S
C345 C346 1.392 . S
C345 C349 1.495 . S
C346 C345 1.392 . S
C346 C347 1.385 1_565 S
C346 C348 1.478 . S
C347 H341 0.930 . S
C347 C343 1.400 . S
C347 C346 1.385 1_545 S
C348 C346 1.478 . S
C348 C350 1.381 1_565 S
C348 C354 1.383 . S
C349 C345 1.495 . S
C349 H355 0.959 . S
C349 H356 0.961 . S
C349 H357 0.960 . S
C350 C348 1.381 1_545 S
C350 C351 1.394 . S
C350 H358 0.930 . S
C351 C350 1.394 . S
C351 C352 1.383 1_545 S
C351 H359 0.929 . S
C352 C351 1.383 1_565 S
C352 C353 1.377 . S
C353 H337 0.930 . S
C353 C352 1.377 . S
C353 C354 1.379 . S
C354 H338 0.931 . S
C354 C348 1.383 . S
C354 C353 1.379 . S
H355 C349 0.959 . S
H356 C349 0.961 . S
H357 C349 0.960 . S
H358 C350 0.930 . S
H359 C351 0.929 . S
H360 C368 0.929 . S
H361 C370 0.930 . S
H362 C372 0.930 . S
H363 C375 0.929 . S
H364 C378 0.930 . S
H365 C380 0.960 . S
H366 C380 0.960 . S
H367 C380 0.960 . S
C368 H360 0.929 . S
C368 C369 1.377 . S
C368 C370 1.384 . S
C369 C368 1.377 . S
C369 C375 1.390 . S
C370 H361 0.930 . S
C370 C368 1.384 . S
C370 C371 1.372 . S
C371 C370 1.372 . S
C371 C372 1.400 . S
C371 C376 1.490 . S
C372 H362 0.930 . S
C372 C371 1.400 . S
C372 C375 1.386 . S
H373 C389 0.930 . S
H374 C390 0.931 . S
C375 H363 0.929 . S
C375 C369 1.390 . S
C375 C372 1.386 . S
C376 C371 1.490 . S
C376 C378 1.395 . S
C376 C379 1.403 . S
H377 C383 0.930 . S
C378 H364 0.930 . S
C378 C376 1.395 . S
C378 C381 1.403 . S
C379 C376 1.403 . S
C379 C380 1.524 . S
C379 C383 1.400 . S
C380 H365 0.960 . S
C380 H366 0.960 . S
C380 H367 0.960 . S
C380 C379 1.524 . S
C381 C378 1.403 . S
C381 C382 1.392 . S
C381 C385 1.495 . S
C382 C381 1.392 . S
C382 C383 1.385 . S
C382 C384 1.478 . S
C383 H377 0.930 . S
C383 C379 1.400 . S
C383 C382 1.385 . S
C384 C382 1.478 . S
C384 C386 1.381 . S
C384 C390 1.383 . S
C385 C381 1.495 . S
C385 H391 0.959 . S
C385 H392 0.961 . S
C385 H393 0.960 . S
C386 C384 1.381 . S
C386 C387 1.394 . S
C386 H394 0.930 . S
C387 C386 1.394 . S
C387 C388 1.383 . S
C387 H395 0.929 . S
C388 C387 1.383 . S
C388 C389 1.377 . S
C389 H373 0.930 . S
C389 C388 1.377 . S
C389 C390 1.379 . S
C390 H374 0.931 . S
C390 C384 1.383 . S
C390 C389 1.379 . S
H391 C385 0.959 . S
H392 C385 0.961 . S
H393 C385 0.960 . S
H394 C386 0.930 . S
H395 C387 0.929 . S
H396 C404 0.929 . S
H397 C406 0.930 . S
H398 C408 0.930 . S
H399 C411 0.929 . S
H400 C414 0.930 . S
H401 C416 0.960 . S
H402 C416 0.960 1_565 S
H403 C416 0.960 . S
C404 H396 0.929 . S
C404 C405 1.377 . S
C404 C406 1.384 . S
C405 C404 1.377 . S
C405 C411 1.390 1_565 S
C406 H397 0.930 . S
C406 C404 1.384 . S
C406 C407 1.372 . S
C407 C406 1.372 . S
C407 C408 1.400 1_565 S
C407 C412 1.490 . S
C408 H398 0.930 . S
C408 C407 1.400 1_545 S
C408 C411 1.386 . S
H409 C425 0.930 . S
H410 C426 0.931 . S
C411 H399 0.929 . S
C411 C405 1.390 1_545 S
C411 C408 1.386 . S
C412 C407 1.490 . S
C412 C414 1.395 . S
C412 C415 1.403 1_565 S
H413 C419 0.930 . S
C414 H400 0.930 . S
C414 C412 1.395 . S
C414 C417 1.403 . S
C415 C412 1.403 1_545 S
C415 C416 1.524 . S
C415 C419 1.400 . S
C416 H401 0.960 . S
C416 H402 0.960 1_545 S
C416 H403 0.960 . S
C416 C415 1.524 . S
C417 C414 1.403 . S
C417 C418 1.392 . S
C417 C421 1.495 . S
C418 C417 1.392 . S
C418 C419 1.385 1_565 S
C418 C420 1.478 . S
C419 H413 0.930 . S
C419 C415 1.400 . S
C419 C418 1.385 1_545 S
C420 C418 1.478 . S
C420 C422 1.381 . S
C420 C426 1.383 1_565 S
C421 C417 1.495 . S
C421 H427 0.959 . S
C421 H428 0.955 1_565 S
C421 H429 0.960 . S
C422 C420 1.381 . S
C422 C423 1.394 . S
C422 H430 0.930 . S
C423 C422 1.394 . S
C423 C424 1.404 . S
C423 H431 0.929 . S
C424 C423 1.404 . S
C424 C425 1.366 1_565 S
C425 H409 0.930 . S
C425 C424 1.366 1_545 S
C425 C426 1.379 . S
C426 H410 0.931 . S
C426 C420 1.383 1_545 S
C426 C425 1.379 . S
H427 C421 0.959 . S
H428 C421 0.955 1_545 S
H429 C421 0.960 . S
H430 C422 0.930 . S
H431 C423 0.929 . S
H432 C440 0.929 . S
H433 C442 0.930 . S
H434 C444 0.930 1_556 S
H435 C447 0.929 . S
H436 C450 0.930 . S
H437 C452 0.960 . S
H438 C452 0.960 1_554 S
H439 C452 0.960 . S
C440 H432 0.929 . S
C440 C441 1.377 . S
C440 C442 1.384 . S
C441 C440 1.377 . S
C441 C447 1.390 . S
C442 H433 0.930 . S
C442 C440 1.384 . S
C442 C443 1.372 . S
C443 C442 1.372 . S
C443 C444 1.400 . S
C443 C448 1.490 1_554 S
C444 H434 0.930 1_554 S
C444 C443 1.400 . S
C444 C447 1.386 . S
H445 C461 0.930 . S
H446 C462 0.931 . S
C447 H435 0.929 . S
C447 C441 1.390 . S
C447 C444 1.386 . S
C448 C443 1.490 1_556 S
C448 C450 1.395 . S
C448 C451 1.403 . S
H449 C455 0.930 . S
C450 H436 0.930 . S
C450 C448 1.395 . S
C450 C453 1.403 . S
C451 C448 1.403 . S
C451 C452 1.524 . S
C451 C455 1.400 . S
C452 H437 0.960 . S
C452 H438 0.960 1_556 S
C452 H439 0.960 . S
C452 C451 1.524 . S
C453 C450 1.403 . S
C453 C454 1.392 . S
C453 C457 1.495 . S
C454 C453 1.392 . S
C454 C455 1.385 . S
C454 C456 1.478 . S
C455 H449 0.930 . S
C455 C451 1.400 . S
C455 C454 1.385 . S
C456 C454 1.478 . S
C456 C458 1.381 . S
C456 C462 1.383 . S
C457 C453 1.495 . S
C457 H463 0.959 . S
C457 H464 0.961 . S
C457 H465 0.960 . S
C458 C456 1.381 . S
C458 C459 1.394 . S
C458 H466 0.930 . S
C459 C458 1.394 . S
C459 C460 1.383 . S
C459 H467 0.929 . S
C460 C459 1.383 . S
C460 C461 1.377 . S
C461 H445 0.930 . S
C461 C460 1.377 . S
C461 C462 1.379 . S
C462 H446 0.931 . S
C462 C456 1.383 . S
C462 C461 1.379 . S
H463 C457 0.959 . S
H464 C457 0.961 . S
H465 C457 0.960 . S
H466 C458 0.930 . S
H467 C459 0.929 . S
H468 C476 0.929 . S
H469 C478 0.930 . S
H470 C480 0.930 . S
H471 C483 0.929 . S
H472 C486 0.930 . S
H473 C488 0.960 . S
H474 C488 0.960 . S
H475 C488 0.960 . S
C476 H468 0.929 . S
C476 C477 1.377 1_655 S
C476 C478 1.384 . S
C477 C476 1.377 1_455 S
C477 C483 1.390 . S
C478 H469 0.930 . S
C478 C476 1.384 . S
C478 C479 1.372 1_655 S
C479 C478 1.372 1_455 S
C479 C480 1.400 . S
C479 C484 1.490 . S
C480 H470 0.930 . S
C480 C479 1.400 . S
C480 C483 1.386 . S
H481 C497 0.930 . S
H482 C498 0.931 . S
C483 H471 0.929 . S
C483 C477 1.390 . S
C483 C480 1.386 . S
C484 C479 1.490 . S
C484 C486 1.395 . S
C484 C487 1.403 1_455 S
H485 C491 0.930 . S
C486 H472 0.930 . S
C486 C484 1.395 . S
C486 C489 1.403 . S
C487 C484 1.403 1_655 S
C487 C488 1.524 . S
C487 C491 1.400 . S
C488 H473 0.960 . S
C488 H474 0.960 . S
C488 H475 0.960 . S
C488 C487 1.524 . S
C489 C486 1.403 . S
C489 C490 1.392 . S
C489 C493 1.495 . S
C490 C489 1.392 . S
C490 C491 1.385 1_455 S
C490 C492 1.478 . S
C491 H485 0.930 . S
C491 C487 1.400 . S
C491 C490 1.385 1_655 S
C492 C490 1.478 . S
C492 C494 1.381 1_455 S
C492 C498 1.383 . S
C493 C489 1.495 . S
C493 H499 0.959 . S
C493 H500 0.961 . S
C493 H501 0.960 . S
C494 C492 1.381 1_655 S
C494 C495 1.394 . S
C494 H502 0.930 . S
C495 C494 1.394 . S
C495 C496 1.383 1_655 S
C495 H503 0.929 . S
C496 C495 1.383 1_455 S
C496 C497 1.377 . S
C497 H481 0.930 . S
C497 C496 1.377 . S
C497 C498 1.379 . S
C498 H482 0.931 . S
C498 C492 1.383 . S
C498 C497 1.379 . S
H499 C493 0.959 . S
H500 C493 0.961 . S
H501 C493 0.960 . S
H502 C494 0.930 . S
H503 C495 0.929 . S
H504 C512 0.929 . S
H505 C514 0.930 . S
H506 C516 0.930 . S
H507 C519 0.929 . S
H508 C522 0.930 . S
H509 C524 0.960 . S
H510 C524 0.960 1_545 S
H511 C524 0.960 . S
C512 H504 0.929 . S
C512 C513 1.377 . S
C512 C514 1.384 . S
C513 C512 1.377 . S
C513 C519 1.390 1_545 S
C514 H505 0.930 . S
C514 C512 1.384 . S
C514 C515 1.372 . S
C515 C514 1.372 . S
C515 C516 1.400 1_545 S
C515 C520 1.490 . S
C516 H506 0.930 . S
C516 C515 1.400 1_565 S
C516 C519 1.386 . S
H517 C533 0.930 . S
H518 C534 0.931 . S
C519 H507 0.929 . S
C519 C513 1.390 1_565 S
C519 C516 1.386 . S
C520 C515 1.490 . S
C520 C522 1.395 . S
C520 C523 1.403 1_545 S
H521 C527 0.930 . S
C522 H508 0.930 . S
C522 C520 1.395 . S
C522 C525 1.403 . S
C523 C520 1.403 1_565 S
C523 C524 1.524 . S
C523 C527 1.400 . S
C524 H509 0.960 . S
C524 H510 0.960 1_565 S
C524 H511 0.960 . S
C524 C523 1.524 . S
C525 C522 1.403 . S
C525 C526 1.392 . S
C525 C529 1.495 . S
C526 C525 1.392 . S
C526 C527 1.385 1_545 S
C526 C528 1.478 . S
C527 H521 0.930 . S
C527 C523 1.400 . S
C527 C526 1.385 1_565 S
C528 C526 1.478 . S
C528 C530 1.381 . S
C528 C534 1.383 1_545 S
C529 C525 1.495 . S
C529 H535 0.959 . S
C529 H536 0.961 . S
C529 H537 0.960 . S
C530 C528 1.381 . S
C530 C531 1.394 . S
C530 H538 0.930 . S
C531 C530 1.394 . S
C531 C532 1.383 . S
C531 H539 0.929 . S
C532 C531 1.383 . S
C532 C533 1.377 1_545 S
C533 H517 0.930 . S
C533 C532 1.377 1_565 S
C533 C534 1.379 . S
C534 H518 0.931 . S
C534 C528 1.383 1_565 S
C534 C533 1.379 . S
H535 C529 0.959 . S
H536 C529 0.961 . S
H537 C529 0.960 . S
H538 C530 0.930 . S
H539 C531 0.929 . S
H540 C548 0.929 . S
H541 C550 0.930 . S
H542 C552 0.930 . S
H543 C555 0.929 . S
H544 C558 0.930 . S
H545 C560 0.960 . S
H546 C560 0.960 . S
H547 C560 0.960 . S
C548 H540 0.929 . S
C548 C549 1.377 . S
C548 C550 1.384 . S
C549 C548 1.377 . S
C549 C555 1.390 . S
C550 H541 0.930 . S
C550 C548 1.384 . S
C550 C551 1.372 . S
C551 C550 1.372 . S
C551 C552 1.400 . S
C551 C556 1.490 1_554 S
C552 H542 0.930 . S
C552 C551 1.400 . S
C552 C555 1.386 . S
H553 C569 0.930 . S
H554 C570 0.931 . S
C555 H543 0.929 . S
C555 C549 1.390 . S
C555 C552 1.386 . S
C556 C551 1.490 1_556 S
C556 C558 1.395 1_556 S
C556 C559 1.403 . S
H557 C563 0.930 . S
C558 H544 0.930 . S
C558 C556 1.395 1_554 S
C558 C561 1.403 1_554 S
C559 C556 1.403 . S
C559 C560 1.524 . S
C559 C563 1.400 . S
C560 H545 0.960 . S
C560 H546 0.960 . S
C560 H547 0.960 . S
C560 C559 1.524 . S
C561 C558 1.403 1_556 S
C561 C562 1.392 . S
C561 C565 1.501 . S
C562 C561 1.392 . S
C562 C563 1.385 . S
C562 C564 1.478 . S
C563 H557 0.930 . S
C563 C559 1.400 . S
C563 C562 1.385 . S
C564 C562 1.478 . S
C564 C566 1.381 . S
C564 C570 1.383 . S
C565 C561 1.501 . S
C565 H571 0.946 1_556 S
C565 H572 0.961 . S
C565 H573 0.967 . S
C566 C564 1.381 . S
C566 C567 1.394 . S
C566 H574 0.930 . S
C567 C566 1.394 . S
C567 C568 1.383 . S
C567 H575 0.929 . S
C568 C567 1.383 . S
C568 C569 1.377 . S
C569 H553 0.930 . S
C569 C568 1.377 . S
C569 C570 1.379 . S
C570 H554 0.931 . S
C570 C564 1.383 . S
C570 C569 1.379 . S
H571 C565 0.946 1_554 S
H572 C565 0.961 . S
H573 C565 0.967 . S
H574 C566 0.930 . S
H575 C567 0.929 . S
H576 C584 0.929 . S
H577 C586 0.930 . S
H578 C588 0.930 . S
H579 C591 0.929 . S
H580 C594 0.930 . S
H581 C596 0.960 . S
H582 C596 0.960 . S
H583 C596 0.960 . S
C584 H576 0.929 . S
C584 C585 1.377 . S
C584 C586 1.384 . S
C585 C584 1.377 . S
C585 C591 1.390 1_655 S
C586 H577 0.930 . S
C586 C584 1.384 . S
C586 C587 1.372 . S
C587 C586 1.372 . S
C587 C588 1.400 1_655 S
C587 C592 1.490 . S
C588 H578 0.930 . S
C588 C587 1.400 1_455 S
C588 C591 1.386 . S
H589 C605 0.930 . S
H590 C606 0.931 . S
C591 H579 0.929 . S
C591 C585 1.390 1_455 S
C591 C588 1.386 . S
C592 C587 1.490 . S
C592 C594 1.395 1_655 S
C592 C595 1.403 . S
H593 C599 0.930 . S
C594 H580 0.930 . S
C594 C592 1.395 1_455 S
C594 C597 1.403 . S
C595 C592 1.403 . S
C595 C596 1.524 . S
C595 C599 1.400 . S
C596 H581 0.960 . S
C596 H582 0.960 . S
C596 H583 0.960 . S
C596 C595 1.524 . S
C597 C594 1.403 . S
C597 C598 1.392 . S
C597 C601 1.495 . S
C598 C597 1.392 . S
C598 C599 1.385 1_455 S
C598 C600 1.478 . S
C599 H593 0.930 . S
C599 C595 1.400 . S
C599 C598 1.385 1_655 S
C600 C598 1.478 . S
C600 C602 1.381 1_455 S
C600 C606 1.383 . S
C601 C597 1.495 . S
C601 H607 0.959 . S
C601 H608 0.961 . S
C601 H609 0.960 . S
C602 C600 1.381 1_655 S
C602 C603 1.394 . S
C602 H610 0.930 . S
C603 C602 1.394 . S
C603 C604 1.383 1_655 S
C603 H611 0.929 . S
C604 C603 1.383 1_455 S
C604 C605 1.377 . S
C605 H589 0.930 . S
C605 C604 1.377 . S
C605 C606 1.379 . S
C606 H590 0.931 . S
C606 C600 1.383 . S
C606 C605 1.379 . S
H607 C601 0.959 . S
H608 C601 0.961 . S
H609 C601 0.960 . S
H610 C602 0.930 . S
H611 C603 0.929 . S
C208 C50 1.482 . S
C189 C6 1.462 1_455 S
C225 C22 1.590 . S
C244 C89 1.627 . S
C261 C34 1.216 . S
C280 C156 1.238 . S
C297 C7 1.465 1_655 S
C316 C57 1.489 1_455 S
C352 C110 1.597 . S
C333 C23 1.592 . S
C369 C35 1.212 . S
C388 C135 1.230 . S
C424 C96 1.602 1_565 S
C405 C36 1.595 . S
C441 C9 1.839 . S
C460 C149 1.876 . S
C496 C64 1.476 . S
C477 C21 1.459 1_455 S
C532 C103 1.610 . S
C513 C37 1.591 . S
C568 C142 1.874 . S
C549 C8 1.837 . S
C585 C20 1.461 1_655 S
C604 C43 1.479 . S
