# Generated by pormake.
# Topology sqc, (4,8)-cn, num edge types: 1
# Building blocks:
#     Node 0, Type 0, BuildingBlock: NAHDIM_clean_linker_0, # of connection points: 4
#     Node 1, Type 0, BuildingBlock: NAHDIM_clean_linker_0, # of connection points: 4
#     Node 2, Type 0, BuildingBlock: NAHDIM_clean_linker_0, # of connection points: 4
#     Node 3, Type 0, BuildingBlock: NAHDIM_clean_linker_0, # of connection points: 4
#     Node 4, Type 0, BuildingBlock: NAHDIM_clean_linker_0, # of connection points: 4
#     Node 5, Type 0, BuildingBlock: NAHDIM_clean_linker_0, # of connection points: 4
#     Node 6, Type 0, BuildingBlock: NAHDIM_clean_linker_0, # of connection points: 4
#     Node 7, Type 0, BuildingBlock: NAHDIM_clean_linker_0, # of connection points: 4
#     Node 8, Type 1, BuildingBlock: VETTIZ_charged_sbu_0, # of connection points: 8
#     Node 9, Type 1, BuildingBlock: VETTIZ_charged_sbu_0, # of connection points: 8
#     Node 10, Type 1, BuildingBlock: VETTIZ_charged_sbu_0, # of connection points: 8
#     Node 11, Type 1, BuildingBlock: VETTIZ_charged_sbu_0, # of connection points: 8
#     Edge 12, Type (0, 1), BuildingBlock: MIFKUJ_clean_linker_0, # of connection points: 2
#     Edge 13, Type (0, 1), BuildingBlock: MIFKUJ_clean_linker_0, # of connection points: 2
#     Edge 14, Type (0, 1), BuildingBlock: MIFKUJ_clean_linker_0, # of connection points: 2
#     Edge 15, Type (0, 1), BuildingBlock: MIFKUJ_clean_linker_0, # of connection points: 2
#     Edge 16, Type (0, 1), BuildingBlock: MIFKUJ_clean_linker_0, # of connection points: 2
#     Edge 17, Type (0, 1), BuildingBlock: MIFKUJ_clean_linker_0, # of connection points: 2
#     Edge 18, Type (0, 1), BuildingBlock: MIFKUJ_clean_linker_0, # of connection points: 2
#     Edge 19, Type (0, 1), BuildingBlock: MIFKUJ_clean_linker_0, # of connection points: 2
#     Edge 20, Type (0, 1), BuildingBlock: MIFKUJ_clean_linker_0, # of connection points: 2
#     Edge 21, Type (0, 1), BuildingBlock: MIFKUJ_clean_linker_0, # of connection points: 2
#     Edge 22, Type (0, 1), BuildingBlock: MIFKUJ_clean_linker_0, # of connection points: 2
#     Edge 23, Type (0, 1), BuildingBlock: MIFKUJ_clean_linker_0, # of connection points: 2
#     Edge 24, Type (0, 1), BuildingBlock: MIFKUJ_clean_linker_0, # of connection points: 2
#     Edge 25, Type (0, 1), BuildingBlock: MIFKUJ_clean_linker_0, # of connection points: 2
#     Edge 26, Type (0, 1), BuildingBlock: MIFKUJ_clean_linker_0, # of connection points: 2
#     Edge 27, Type (0, 1), BuildingBlock: MIFKUJ_clean_linker_0, # of connection points: 2
#     Edge 28, Type (0, 1), BuildingBlock: MIFKUJ_clean_linker_0, # of connection points: 2
#     Edge 29, Type (0, 1), BuildingBlock: MIFKUJ_clean_linker_0, # of connection points: 2
#     Edge 30, Type (0, 1), BuildingBlock: MIFKUJ_clean_linker_0, # of connection points: 2
#     Edge 31, Type (0, 1), BuildingBlock: MIFKUJ_clean_linker_0, # of connection points: 2
#     Edge 32, Type (0, 1), BuildingBlock: MIFKUJ_clean_linker_0, # of connection points: 2
#     Edge 33, Type (0, 1), BuildingBlock: MIFKUJ_clean_linker_0, # of connection points: 2
#     Edge 34, Type (0, 1), BuildingBlock: MIFKUJ_clean_linker_0, # of connection points: 2
#     Edge 35, Type (0, 1), BuildingBlock: MIFKUJ_clean_linker_0, # of connection points: 2
#     Edge 36, Type (0, 1), BuildingBlock: MIFKUJ_clean_linker_0, # of connection points: 2
#     Edge 37, Type (0, 1), BuildingBlock: MIFKUJ_clean_linker_0, # of connection points: 2
#     Edge 38, Type (0, 1), BuildingBlock: MIFKUJ_clean_linker_0, # of connection points: 2
#     Edge 39, Type (0, 1), BuildingBlock: MIFKUJ_clean_linker_0, # of connection points: 2
#     Edge 40, Type (0, 1), BuildingBlock: MIFKUJ_clean_linker_0, # of connection points: 2
#     Edge 41, Type (0, 1), BuildingBlock: MIFKUJ_clean_linker_0, # of connection points: 2
#     Edge 42, Type (0, 1), BuildingBlock: MIFKUJ_clean_linker_0, # of connection points: 2
#     Edge 43, Type (0, 1), BuildingBlock: MIFKUJ_clean_linker_0, # of connection points: 2
# Relax obj value: 0.110
# Max RMSD: 0.261
# Mean RMSD: 0.120
data_MOF--net-sqc--node1-VETTIZ_charged_sbu_0--node2-NAHDIM_clean_linker_0--edge1-MIFKUJ_clean_linker_0
_symmetry_space_group_name_H-M    P1
_symmetry_Int_Tables_number       1
_symmetry_cell_setting            triclinic
loop_
_symmetry_equiv_pos_as_xyz
'x, y, z'
_cell_length_a     37.974422
_cell_length_b     37.984626
_cell_length_c     123.10675
_cell_angle_alpha  89.617111
_cell_angle_beta   89.657894
_cell_angle_gamma 90.065502
loop_
_atom_site_label
_atom_site_type_symbol
_atom_site_fract_x
_atom_site_fract_y
_atom_site_fract_z
_atom_type_partial_charge
C0 C 0.83929 0.02512 0.45656 0.0
C1 C 0.85474 0.98998 0.45273 0.0
C2 C 0.893 0.97219 0.46794 0.0
C3 C 0.89684 0.94839 0.47655 0.0
C4 C 0.92611 0.94986 0.48346 0.0
C5 C 0.95206 0.97605 0.48172 0.0
C6 C 0.94834 0.00037 0.47305 0.0
C7 C 0.919 0.99811 0.46622 0.0
C8 C 0.9294 0.92339 0.49258 0.0
C9 C 0.97555 0.02867 0.47098 0.0
C10 C 0.13259 0.83601 0.45795 0.0
C11 C 0.14779 0.87286 0.45966 0.0
C12 C 0.12744 0.90032 0.47621 0.0
C13 C 0.12106 0.93494 0.47278 0.0
C14 C 0.09547 0.95555 0.47798 0.0
C15 C 0.07565 0.94094 0.48669 0.0
C16 C 0.08324 0.90649 0.49046 0.0
C17 C 0.10955 0.88676 0.48525 0.0
C18 C 0.08881 0.99248 0.47391 0.0
C19 C 0.06262 0.89005 0.4997 0.0
C20 C 0.14691 0.04761 0.54789 0.0
C21 C 0.14204 0.06984 0.53887 0.0
C22 C 0.11061 0.06886 0.53294 0.0
C23 C 0.08371 0.04495 0.53605 0.0
C24 C 0.08815 0.02337 0.54536 0.0
C25 C 0.11962 0.02536 0.55124 0.0
C26 C 0.10619 0.09322 0.5233 0.0
C27 C 0.05987 0.99791 0.549 0.0
C28 C 0.81411 0.11732 0.53043 0.0
C29 C 0.83277 0.11039 0.54124 0.0
C30 C 0.89619 0.11064 0.53844 0.0
C31 C 0.9197 0.12812 0.5315 0.0
C32 C 0.95075 0.11168 0.52793 0.0
C33 C 0.95848 0.07711 0.53154 0.0
C34 C 0.93565 0.06002 0.53902 0.0
C35 C 0.90485 0.07709 0.54246 0.0
C36 C 0.97483 0.13083 0.52009 0.0
C37 C 0.94353 0.02348 0.54322 0.0
C38 C 0.98374 0.97742 0.48872 0.0
C39 C 0.01361 0.9591 0.48529 0.0
C40 C 0.04502 0.96047 0.49114 0.0
C41 C 0.04683 0.98061 0.50074 0.0
C42 C 0.07807 0.98288 0.50676 0.0
C43 C 0.07952 0.00275 0.51621 0.0
C44 C 0.0499 0.02148 0.51992 0.0
C45 C 0.0512 0.04205 0.52946 0.0
C46 C 0.02119 0.06011 0.53296 0.0
C47 C 0.98967 0.05822 0.52719 0.0
C48 C 0.9879 0.03803 0.51759 0.0
C49 C 0.95665 0.03577 0.51155 0.0
C50 C 0.95522 0.01598 0.50209 0.0
C51 C 0.98488 0.99745 0.49835 0.0
C52 C 0.01659 0.99912 0.50436 0.0
C53 C 0.01814 0.01958 0.51396 0.0
C54 C 0.22062 0.00683 0.54744 0.0
C55 C 0.21082 0.04549 0.54912 0.0
O56 O 0.8639 0.9692 0.46159 0.0
O57 O 0.86545 0.12671 0.54112 0.0
O58 O 0.17732 0.04756 0.55362 0.0
O59 O 0.15008 0.8793 0.47071 0.0
H60 H 0.87841 0.99509 0.44759 0.0
H61 H 0.85894 0.04017 0.46128 0.0
H62 H 0.81581 0.02061 0.46182 0.0
H63 H 0.83147 0.04148 0.44945 0.0
H64 H 0.87676 0.92846 0.47783 0.0
H65 H 0.91672 0.01675 0.45959 0.0
H66 H 0.95425 0.90831 0.49162 0.0
H67 H 0.90697 0.90459 0.49286 0.0
H68 H 0.93075 0.93731 0.50047 0.0
H69 H 0.96796 0.04675 0.46427 0.0
H70 H 0.00112 0.01627 0.46888 0.0
H71 H 0.97952 0.04434 0.47846 0.0
H72 H 0.12941 0.89181 0.45571 0.0
H73 H 0.13053 0.8303 0.44914 0.0
H74 H 0.1058 0.83438 0.4616 0.0
H75 H 0.14943 0.81571 0.46186 0.0
H76 H 0.1358 0.94561 0.46595 0.0
H77 H 0.11509 0.86007 0.48788 0.0
H78 H 0.06358 0.99303 0.46941 0.0
H79 H 0.11008 0.00191 0.46838 0.0
H80 H 0.08641 0.01095 0.48083 0.0
H81 H 0.07138 0.86276 0.50154 0.0
H82 H 0.03418 0.88952 0.49766 0.0
H83 H 0.06559 0.90619 0.50712 0.0
H84 H 0.21172 0.05882 0.54105 0.0
H85 H 0.16253 0.08831 0.53655 0.0
H86 H 0.12345 0.00881 0.55834 0.0
H87 H 0.10531 0.07752 0.51574 0.0
H88 H 0.12802 0.1126 0.52258 0.0
H89 H 0.08088 0.10767 0.52398 0.0
H90 H 0.06838 0.98125 0.55595 0.0
H91 H 0.05237 0.98055 0.54216 0.0
H92 H 0.03603 0.0128 0.55147 0.0
H93 H 0.83542 0.0813 0.54191 0.0
H94 H 0.78725 0.10565 0.53059 0.0
H95 H 0.82924 0.10499 0.52371 0.0
H96 H 0.81209 0.14598 0.52871 0.0
H97 H 0.91307 0.15428 0.5286 0.0
H98 H 0.88761 0.06419 0.54829 0.0
H99 H 0.97574 0.11648 0.51227 0.0
H100 H 0.00202 0.13141 0.52336 0.0
H101 H 0.96607 0.15827 0.5185 0.0
H102 H 0.92309 0.01376 0.549 0.0
H103 H 0.96939 0.0234 0.54737 0.0
H104 H 0.94537 0.00489 0.53632 0.0
H105 H 0.01253 0.94387 0.47787 0.0
H106 H 0.10173 0.96923 0.50424 0.0
H107 H 0.10423 0.00332 0.52054 0.0
H108 H 0.02231 0.07568 0.54031 0.0
H109 H 0.93295 0.04939 0.51404 0.0
H110 H 0.93051 0.01532 0.49775 0.0
H111 H 0.21974 0.99215 0.55528 0.0
H112 H 0.2475 0.00473 0.54388 0.0
H113 H 0.20177 0.99442 0.54175 0.0
C114 C 0.12637 0.89019 0.81308 0.0
C115 C 0.16022 0.9083 0.80917 0.0
C116 C 0.17754 0.88376 0.79187 0.0
C117 C 0.21252 0.87408 0.79387 0.0
C118 C 0.22802 0.84606 0.78825 0.0
C119 C 0.20804 0.82757 0.78048 0.0
C120 C 0.17342 0.83866 0.77801 0.0
C121 C 0.15871 0.86703 0.78368 0.0
C122 C 0.26532 0.83546 0.79086 0.0
C123 C 0.15154 0.81963 0.7697 0.0
C124 C 0.19837 0.63107 0.82405 0.0
C125 C 0.18462 0.61333 0.81377 0.0
C126 C 0.21508 0.6416 0.79879 0.0
C127 C 0.18763 0.65329 0.79213 0.0
C128 C 0.19238 0.6823 0.78516 0.0
C129 C 0.2252 0.7 0.78495 0.0
C130 C 0.2531 0.68782 0.79157 0.0
C131 C 0.24779 0.65829 0.79829 0.0
C132 C 0.16234 0.69414 0.77806 0.0
C133 C 0.28831 0.70629 0.79166 0.0
C134 C 0.32818 0.62194 0.72817 0.0
C135 C 0.29944 0.63896 0.72328 0.0
C136 C 0.2916 0.67409 0.7257 0.0
C137 C 0.31352 0.6928 0.7329 0.0
C138 C 0.34445 0.67682 0.73695 0.0
C139 C 0.35132 0.64145 0.73454 0.0
C140 C 0.2591 0.69078 0.72091 0.0
C141 C 0.36904 0.69639 0.74436 0.0
C142 C 0.27423 0.95679 0.72079 0.0
C143 C 0.30864 0.94805 0.71481 0.0
C144 C 0.30545 0.88417 0.71605 0.0
C145 C 0.28027 0.85902 0.71332 0.0
C146 C 0.27632 0.82804 0.71947 0.0
C147 C 0.29907 0.82164 0.72834 0.0
C148 C 0.32601 0.84612 0.73074 0.0
C149 C 0.32868 0.87738 0.72464 0.0
C150 C 0.24747 0.80247 0.71659 0.0
C151 C 0.35168 0.83948 0.73984 0.0
C152 C 0.22212 0.79472 0.77574 0.0
C153 C 0.21774 0.76375 0.78179 0.0
C154 C 0.23018 0.73158 0.77795 0.0
C155 C 0.24736 0.73004 0.76776 0.0
C156 C 0.25929 0.69794 0.76354 0.0
C157 C 0.27671 0.69673 0.7536 0.0
C158 C 0.28306 0.72764 0.74751 0.0
C159 C 0.30124 0.72665 0.73746 0.0
C160 C 0.30661 0.75765 0.7315 0.0
C161 C 0.2939 0.78992 0.73528 0.0
C162 C 0.27575 0.79147 0.74536 0.0
C163 C 0.26235 0.82338 0.74939 0.0
C164 C 0.24489 0.8246 0.75936 0.0
C165 C 0.23976 0.79389 0.76561 0.0
C166 C 0.25256 0.76139 0.76163 0.0
C167 C 0.27058 0.7602 0.75151 0.0
C168 C 0.30082 0.54298 0.73626 0.0
C169 C 0.31002 0.56062 0.72536 0.0
O170 O 0.1612 0.9086 0.79791 0.0
O171 O 0.30649 0.91476 0.7103 0.0
O172 O 0.33462 0.58703 0.72698 0.0
O173 O 0.21049 0.6143 0.80579 0.0
H174 H 0.18267 0.89299 0.81254 0.0
H175 H 0.12605 0.86244 0.81029 0.0
H176 H 0.10278 0.90377 0.80978 0.0
H177 H 0.12492 0.89017 0.8221 0.0
H178 H 0.22751 0.88811 0.79992 0.0
H179 H 0.13188 0.87522 0.7821 0.0
H180 H 0.26516 0.80936 0.79498 0.0
H181 H 0.27851 0.85472 0.79624 0.0
H182 H 0.28096 0.83287 0.78326 0.0
H183 H 0.12534 0.83204 0.76854 0.0
H184 H 0.14762 0.79185 0.77231 0.0
H185 H 0.16564 0.81929 0.76178 0.0
H186 H 0.16083 0.62799 0.81105 0.0
H187 H 0.17791 0.63064 0.83054 0.0
H188 H 0.20518 0.65897 0.82226 0.0
H189 H 0.22231 0.61741 0.82706 0.0
H190 H 0.16261 0.63957 0.79234 0.0
H191 H 0.26883 0.64875 0.80343 0.0
H192 H 0.17137 0.6965 0.76948 0.0
H193 H 0.15331 0.72057 0.78067 0.0
H194 H 0.13962 0.67572 0.77845 0.0
H195 H 0.30618 0.69536 0.79794 0.0
H196 H 0.28458 0.73484 0.79318 0.0
H197 H 0.30123 0.70362 0.7836 0.0
H198 H 0.28476 0.57094 0.72219 0.0
H199 H 0.28278 0.62512 0.71764 0.0
H200 H 0.37406 0.62843 0.738 0.0
H201 H 0.24138 0.70001 0.72751 0.0
H202 H 0.24423 0.67235 0.71567 0.0
H203 H 0.26686 0.71409 0.71597 0.0
H204 H 0.39477 0.68277 0.74521 0.0
H205 H 0.3568 0.69845 0.75255 0.0
H206 H 0.37368 0.72354 0.74127 0.0
H207 H 0.33068 0.94903 0.72071 0.0
H208 H 0.27556 0.98358 0.72434 0.0
H209 H 0.26968 0.93773 0.72754 0.0
H210 H 0.25156 0.95551 0.71513 0.0
H211 H 0.26283 0.86438 0.70657 0.0
H212 H 0.34913 0.8962 0.72652 0.0
H213 H 0.23175 0.7954 0.72392 0.0
H214 H 0.25946 0.77796 0.71342 0.0
H215 H 0.22949 0.81327 0.71031 0.0
H216 H 0.37391 0.85853 0.7397 0.0
H217 H 0.36246 0.81237 0.7393 0.0
H218 H 0.3378 0.84173 0.74776 0.0
H219 H 0.20451 0.76472 0.78962 0.0
H220 H 0.25531 0.67333 0.76786 0.0
H221 H 0.28518 0.67115 0.7508 0.0
H222 H 0.32036 0.75657 0.72376 0.0
H223 H 0.26531 0.84784 0.74492 0.0
H224 H 0.23539 0.84991 0.76211 0.0
H225 H 0.28422 0.51928 0.73496 0.0
H226 H 0.28576 0.56172 0.74138 0.0
H227 H 0.32488 0.5354 0.74078 0.0
C228 C 0.65641 0.94609 0.07391 0.0
C229 C 0.66423 0.93378 0.06234 0.0
C230 C 0.62909 0.96152 0.04826 0.0
C231 C 0.62059 0.93236 0.04186 0.0
C232 C 0.59128 0.93318 0.03497 0.0
C233 C 0.57009 0.96378 0.03453 0.0
C234 C 0.57902 0.99344 0.04086 0.0
C235 C 0.60884 0.99208 0.04752 0.0
C236 C 0.58293 0.90138 0.02817 0.0
C237 C 0.55691 0.02642 0.04064 0.0
C238 C 0.30056 0.88727 0.02868 0.0
C239 C 0.31453 0.90995 0.03793 0.0
C240 C 0.37858 0.91018 0.0379 0.0
C241 C 0.38594 0.94631 0.03834 0.0
C242 C 0.41835 0.95956 0.0346 0.0
C243 C 0.44369 0.93615 0.03025 0.0
C244 C 0.43682 0.89952 0.03022 0.0
C245 C 0.40441 0.88696 0.03419 0.0
C246 C 0.42528 0.99864 0.03514 0.0
C247 C 0.46336 0.87381 0.02574 0.0
C248 C 0.38293 0.01995 0.96489 0.0
C249 C 0.38902 0.0441 0.97325 0.0
C250 C 0.42029 0.0429 0.97925 0.0
C251 C 0.44578 0.01685 0.97687 0.0
C252 C 0.44017 0.99325 0.96821 0.0
C253 C 0.40889 0.99543 0.96223 0.0
C254 C 0.42603 0.06933 0.98817 0.0
C255 C 0.46692 0.96537 0.96541 0.0
C256 C 0.70908 0.1185 0.98311 0.0
C257 C 0.69405 0.09544 0.97411 0.0
C258 C 0.63061 0.08715 0.97494 0.0
C259 C 0.60264 0.1049 0.97983 0.0
C260 C 0.57261 0.08663 0.98341 0.0
C261 C 0.57032 0.04987 0.98175 0.0
C262 C 0.59787 0.03206 0.9763 0.0
C263 C 0.6279 0.05093 0.97298 0.0
C264 C 0.54361 0.10651 0.98913 0.0
C265 C 0.5957 0.99311 0.97408 0.0
C266 C 0.53858 0.96472 0.02746 0.0
C267 C 0.50725 0.95018 0.0315 0.0
C268 C 0.47657 0.95024 0.02529 0.0
C269 C 0.47709 0.9648 0.01468 0.0
C270 C 0.44696 0.96438 0.00809 0.0
C271 C 0.44732 0.97996 0.99784 0.0
C272 C 0.47777 0.99672 0.99379 0.0
C273 C 0.47796 0.01397 0.98358 0.0
C274 C 0.50868 0.03028 0.97978 0.0
C275 C 0.53941 0.03007 0.98596 0.0
C276 C 0.5398 0.01295 0.9962 0.0
C277 C 0.57029 0.01226 0.00263 0.0
C278 C 0.57018 0.99589 0.01277 0.0
C279 C 0.53937 0.98025 0.01699 0.0
C280 C 0.50845 0.98035 0.0106 0.0
C281 C 0.50874 0.99648 0.00016 0.0
C282 C 0.3074 0.98572 0.96759 0.0
C283 C 0.319 0.02213 0.96352 0.0
O284 O 0.65681 0.96097 0.05514 0.0
O285 O 0.65971 0.10575 0.97208 0.0
O286 O 0.35262 0.02004 0.95912 0.0
O287 O 0.34702 0.89701 0.04116 0.0
H288 H 0.64695 0.91061 0.06084 0.0
H289 H 0.62819 0.95342 0.07465 0.0
H290 H 0.67271 0.96942 0.07594 0.0
H291 H 0.6619 0.92464 0.07984 0.0
H292 H 0.63706 0.90911 0.04217 0.0
H293 H 0.61595 0.01456 0.05242 0.0
H294 H 0.5572 0.89018 0.03077 0.0
H295 H 0.60333 0.88057 0.02888 0.0
H296 H 0.58057 0.90924 0.0195 0.0
H297 H 0.56577 0.04606 0.04669 0.0
H298 H 0.52889 0.01978 0.0423 0.0
H299 H 0.55832 0.03866 0.03244 0.0
H300 H 0.31693 0.93742 0.0348 0.0
H301 H 0.27466 0.8973 0.02586 0.0
H302 H 0.2975 0.85944 0.03137 0.0
H303 H 0.31926 0.88816 0.02171 0.0
H304 H 0.36646 0.96411 0.04166 0.0
H305 H 0.39861 0.85902 0.03409 0.0
H306 H 0.42547 0.0099 0.0268 0.0
H307 H 0.45154 0.00368 0.03874 0.0
H308 H 0.40498 0.01262 0.04 0.0
H309 H 0.45338 0.8463 0.02586 0.0
H310 H 0.48784 0.875 0.03061 0.0
H311 H 0.47036 0.88117 0.01726 0.0
H312 H 0.3185 0.04044 0.97053 0.0
H313 H 0.36973 0.06424 0.97501 0.0
H314 H 0.4041 0.97733 0.95564 0.0
H315 H 0.42587 0.0556 0.99616 0.0
H316 H 0.40539 0.09002 0.98829 0.0
H317 H 0.45216 0.08214 0.98717 0.0
H318 H 0.45795 0.9481 0.95872 0.0
H319 H 0.47237 0.94883 0.97268 0.0
H320 H 0.49207 0.97811 0.96292 0.0
H321 H 0.69507 0.06766 0.97704 0.0
H322 H 0.73652 0.11052 0.98502 0.0
H323 H 0.69287 0.1155 0.9906 0.0
H324 H 0.70899 0.14669 0.98061 0.0
H325 H 0.6049 0.13301 0.98113 0.0
H326 H 0.64911 0.0375 0.9688 0.0
H327 H 0.538 0.09419 0.99717 0.0
H328 H 0.51913 0.10508 0.98427 0.0
H329 H 0.55041 0.13465 0.99036 0.0
H330 H 0.61789 0.98378 0.96893 0.0
H331 H 0.57049 0.98686 0.96999 0.0
H332 H 0.59607 0.97833 0.98189 0.0
H333 H 0.50665 0.93897 0.03963 0.0
H334 H 0.42266 0.95213 0.0108 0.0
H335 H 0.42329 0.97897 0.99316 0.0
H336 H 0.50847 0.0439 0.97201 0.0
H337 H 0.59462 0.02437 0.9999 0.0
H338 H 0.59446 0.99609 0.01734 0.0
H339 H 0.28047 0.98697 0.97114 0.0
H340 H 0.32564 0.97626 0.97399 0.0
H341 H 0.30755 0.9665 0.96082 0.0
C342 C 0.16796 0.07034 0.22242 0.0
C343 C 0.17677 0.08809 0.21149 0.0
C344 C 0.22043 0.13364 0.21607 0.0
C345 C 0.2557 0.14366 0.215 0.0
C346 C 0.26808 0.17538 0.21938 0.0
C347 C 0.24458 0.19748 0.22512 0.0
C348 C 0.20881 0.18759 0.22626 0.0
C349 C 0.19704 0.15595 0.22168 0.0
C350 C 0.30634 0.18517 0.21792 0.0
C351 C 0.18301 0.21034 0.2324 0.0
C352 C 0.18302 0.48393 0.21586 0.0
C353 C 0.19212 0.45053 0.22155 0.0
C354 C 0.22461 0.39593 0.2187 0.0
C355 C 0.20722 0.37737 0.22707 0.0
C356 C 0.21779 0.34338 0.23004 0.0
C357 C 0.24693 0.32778 0.22472 0.0
C358 C 0.26379 0.34576 0.21604 0.0
C359 C 0.2522 0.37962 0.21309 0.0
C360 C 0.19854 0.3247 0.23919 0.0
C361 C 0.29488 0.32979 0.21023 0.0
C362 C 0.37337 0.39529 0.28063 0.0
C363 C 0.33921 0.38437 0.28353 0.0
C364 C 0.32618 0.35165 0.28014 0.0
C365 C 0.34795 0.32927 0.27388 0.0
C366 C 0.383 0.33942 0.27147 0.0
C367 C 0.39532 0.37229 0.27495 0.0
C368 C 0.28896 0.34123 0.28308 0.0
C369 C 0.40706 0.31596 0.26495 0.0
C370 C 0.27933 0.057 0.29225 0.0
C371 C 0.31252 0.07819 0.29476 0.0
C372 C 0.30931 0.14191 0.29169 0.0
C373 C 0.28412 0.16856 0.29198 0.0
C374 C 0.28817 0.1992 0.28571 0.0
C375 C 0.31863 0.20341 0.27915 0.0
C376 C 0.34529 0.17745 0.27932 0.0
C377 C 0.34041 0.14689 0.28563 0.0
C378 C 0.25946 0.22665 0.28588 0.0
C379 C 0.37842 0.1817 0.27262 0.0
C380 C 0.25754 0.23061 0.2301 0.0
C381 C 0.25072 0.26253 0.22475 0.0
C382 C 0.26166 0.29454 0.22916 0.0
C383 C 0.28184 0.29479 0.23876 0.0
C384 C 0.2955 0.32635 0.24293 0.0
C385 C 0.31329 0.32678 0.25276 0.0
C386 C 0.31728 0.2958 0.25895 0.0
C387 C 0.33344 0.29631 0.26927 0.0
C388 C 0.3349 0.26548 0.27551 0.0
C389 C 0.32113 0.23386 0.27161 0.0
C390 C 0.30674 0.2324 0.26105 0.0
C391 C 0.29397 0.20068 0.25672 0.0
C392 C 0.27866 0.19982 0.24648 0.0
C393 C 0.27469 0.23079 0.24029 0.0
C394 C 0.28735 0.26299 0.24453 0.0
C395 C 0.30419 0.26365 0.25479 0.0
C396 C 0.38091 0.48441 0.27522 0.0
C397 C 0.36693 0.45856 0.2838 0.0
O398 O 0.2104 0.10234 0.21167 0.0
O399 O 0.30279 0.11215 0.2975 0.0
O400 O 0.38613 0.42756 0.28322 0.0
O401 O 0.21577 0.4295 0.21592 0.0
H402 H 0.1572 0.10934 0.21001 0.0
H403 H 0.16755 0.08998 0.22904 0.0
H404 H 0.18782 0.04998 0.22449 0.0
H405 H 0.14153 0.05782 0.22209 0.0
H406 H 0.27362 0.12644 0.21068 0.0
H407 H 0.16962 0.14891 0.22263 0.0
H408 H 0.30862 0.21236 0.21462 0.0
H409 H 0.32042 0.16689 0.21239 0.0
H410 H 0.3196 0.18466 0.22593 0.0
H411 H 0.15708 0.19723 0.23357 0.0
H412 H 0.17883 0.23528 0.22783 0.0
H413 H 0.19377 0.21723 0.24048 0.0
H414 H 0.19894 0.45328 0.23031 0.0
H415 H 0.12917 0.47803 0.21239 0.0
H416 H 0.20366 0.48806 0.20935 0.0
H417 H 0.19331 0.5054 0.22125 0.0
H418 H 0.1856 0.38935 0.23145 0.0
H419 H 0.26531 0.39395 0.20658 0.0
H420 H 0.21524 0.32464 0.24656 0.0
H421 H 0.19322 0.29689 0.23702 0.0
H422 H 0.17316 0.33767 0.24122 0.0
H423 H 0.30444 0.34662 0.2034 0.0
H424 H 0.28756 0.30356 0.20701 0.0
H425 H 0.31674 0.32577 0.21605 0.0
H426 H 0.33875 0.45404 0.28181 0.0
H427 H 0.32268 0.40127 0.28843 0.0
H428 H 0.42188 0.38067 0.27295 0.0
H429 H 0.27366 0.33633 0.27558 0.0
H430 H 0.27526 0.36173 0.28792 0.0
H431 H 0.28928 0.31634 0.28786 0.0
H432 H 0.43422 0.32671 0.26431 0.0
H433 H 0.39635 0.31285 0.25664 0.0
H434 H 0.40818 0.28937 0.26874 0.0
H435 H 0.32922 0.07788 0.2873 0.0
H436 H 0.28633 0.02964 0.28994 0.0
H437 H 0.26514 0.06941 0.28535 0.0
H438 H 0.2614 0.05616 0.29942 0.0
H439 H 0.26063 0.16472 0.2969 0.0
H440 H 0.36093 0.12715 0.28584 0.0
H441 H 0.2485 0.23002 0.2776 0.0
H442 H 0.2706 0.25237 0.28836 0.0
H443 H 0.23765 0.21958 0.29154 0.0
H444 H 0.39768 0.16029 0.27417 0.0
H445 H 0.39101 0.2074 0.27442 0.0
H446 H 0.37163 0.18176 0.26386 0.0
H447 H 0.2355 0.26255 0.21732 0.0
H448 H 0.29258 0.35112 0.23862 0.0
H449 H 0.32309 0.35187 0.25557 0.0
H450 H 0.346 0.26631 0.28361 0.0
H451 H 0.29567 0.17612 0.26119 0.0
H452 H 0.26923 0.17468 0.24359 0.0
H453 H 0.3661 0.5096 0.27558 0.0
H454 H 0.37753 0.47307 0.267 0.0
H455 H 0.40936 0.48985 0.27646 0.0
C456 C 0.63963 0.45167 0.28113 0.0
C457 C 0.64494 0.43592 0.2925 0.0
C458 C 0.68819 0.38841 0.28994 0.0
C459 C 0.7228 0.37814 0.29202 0.0
C460 C 0.73551 0.34536 0.28862 0.0
C461 C 0.71297 0.32243 0.28291 0.0
C462 C 0.67776 0.33238 0.28086 0.0
C463 C 0.66565 0.36525 0.28441 0.0
C464 C 0.77316 0.33539 0.291 0.0
C465 C 0.6531 0.30845 0.27478 0.0
C466 C 0.66024 0.05639 0.31346 0.0
C467 C 0.66316 0.08654 0.30572 0.0
C468 C 0.70217 0.13519 0.30067 0.0
C469 C 0.68279 0.1451 0.29143 0.0
C470 C 0.69279 0.17432 0.2851 0.0
C471 C 0.72305 0.19386 0.28795 0.0
C472 C 0.74296 0.18371 0.29713 0.0
C473 C 0.73219 0.15448 0.30338 0.0
C474 C 0.6708 0.18449 0.2754 0.0
C475 C 0.7755 0.20383 0.30033 0.0
C476 C 0.84047 0.11225 0.233 0.0
C477 C 0.80876 0.12586 0.22895 0.0
C478 C 0.79859 0.16052 0.23122 0.0
C479 C 0.82088 0.1821 0.23749 0.0
C480 C 0.85407 0.1693 0.24086 0.0
C481 C 0.86352 0.13446 0.23851 0.0
C482 C 0.76345 0.17371 0.22724 0.0
C483 C 0.87873 0.19189 0.24738 0.0
C484 C 0.76056 0.43878 0.21499 0.0
C485 C 0.80031 0.43218 0.21443 0.0
C486 C 0.80587 0.36936 0.21723 0.0
C487 C 0.78181 0.34259 0.21505 0.0
C488 C 0.7792 0.3129 0.22185 0.0
C489 C 0.80218 0.30949 0.23083 0.0
C490 C 0.82784 0.33583 0.23272 0.0
C491 C 0.8291 0.36576 0.22596 0.0
C492 C 0.7516 0.28542 0.2195 0.0
C493 C 0.85368 0.33255 0.24194 0.0
C494 C 0.72663 0.28858 0.27873 0.0
C495 C 0.72099 0.2582 0.28496 0.0
C496 C 0.73312 0.22545 0.28145 0.0
C497 C 0.7524 0.22301 0.27162 0.0
C498 C 0.76601 0.19072 0.26803 0.0
C499 C 0.78434 0.18849 0.25825 0.0
C500 C 0.78966 0.21846 0.25164 0.0
C501 C 0.8077 0.21628 0.24158 0.0
C502 C 0.81207 0.24639 0.23511 0.0
C503 C 0.79854 0.27893 0.23838 0.0
C504 C 0.78056 0.28165 0.24846 0.0
C505 C 0.76634 0.31381 0.25198 0.0
C506 C 0.74897 0.31624 0.26193 0.0
C507 C 0.7445 0.28645 0.26865 0.0
C508 C 0.75785 0.25362 0.26516 0.0
C509 C 0.77623 0.25129 0.2551 0.0
C510 C 0.82666 0.03674 0.24472 0.0
C511 C 0.82699 0.04945 0.23288 0.0
O512 O 0.67803 0.42088 0.2933 0.0
O513 O 0.8065 0.39832 0.21075 0.0
O514 O 0.8496 0.07797 0.23175 0.0
O515 O 0.6927 0.10749 0.30715 0.0
H516 H 0.62433 0.41565 0.29408 0.0
H517 H 0.64118 0.43084 0.27487 0.0
H518 H 0.66017 0.47172 0.27927 0.0
H519 H 0.61326 0.46421 0.28057 0.0
H520 H 0.73996 0.39611 0.29629 0.0
H521 H 0.63877 0.37263 0.2827 0.0
H522 H 0.77401 0.30929 0.2951 0.0
H523 H 0.78651 0.35504 0.2962 0.0
H524 H 0.78808 0.33315 0.28325 0.0
H525 H 0.62675 0.32045 0.27355 0.0
H526 H 0.64976 0.28335 0.27935 0.0
H527 H 0.6646 0.30197 0.26673 0.0
H528 H 0.63847 0.10216 0.30477 0.0
H529 H 0.63585 0.06184 0.31841 0.0
H530 H 0.67899 0.06202 0.3203 0.0
H531 H 0.66506 0.01223 0.30344 0.0
H532 H 0.65969 0.1303 0.28912 0.0
H533 H 0.74712 0.14664 0.31047 0.0
H534 H 0.68685 0.18218 0.26787 0.0
H535 H 0.66237 0.21238 0.27607 0.0
H536 H 0.64701 0.16769 0.27458 0.0
H537 H 0.78931 0.19137 0.30729 0.0
H538 H 0.7681 0.2311 0.30259 0.0
H539 H 0.79397 0.20562 0.29332 0.0
H540 H 0.79945 0.05682 0.23091 0.0
H541 H 0.79177 0.10953 0.22407 0.0
H542 H 0.88834 0.12394 0.24136 0.0
H543 H 0.74648 0.18066 0.23428 0.0
H544 H 0.74946 0.1539 0.22225 0.0
H545 H 0.76733 0.19795 0.2223 0.0
H546 H 0.90501 0.17949 0.24838 0.0
H547 H 0.86716 0.19641 0.25556 0.0
H548 H 0.8821 0.218 0.24339 0.0
H549 H 0.81128 0.43537 0.22274 0.0
H550 H 0.7551 0.46577 0.21798 0.0
H551 H 0.74801 0.4197 0.22069 0.0
H552 H 0.74854 0.43564 0.20684 0.0
H553 H 0.76433 0.34557 0.20818 0.0
H554 H 0.84836 0.38623 0.22741 0.0
H555 H 0.73651 0.27875 0.22699 0.0
H556 H 0.76474 0.26107 0.21665 0.0
H557 H 0.73287 0.29424 0.21314 0.0
H558 H 0.87518 0.35233 0.2413 0.0
H559 H 0.86543 0.30579 0.24209 0.0
H560 H 0.83968 0.33643 0.24977 0.0
H561 H 0.70641 0.25997 0.29254 0.0
H562 H 0.76267 0.1668 0.27276 0.0
H563 H 0.79413 0.16286 0.25593 0.0
H564 H 0.82561 0.24434 0.22736 0.0
H565 H 0.76856 0.33755 0.24712 0.0
H566 H 0.73879 0.34175 0.26423 0.0
H567 H 0.80983 0.01294 0.24562 0.0
H568 H 0.81571 0.05769 0.25 0.0
H569 H 0.85367 0.03051 0.24754 0.0
C570 C 0.6081 0.62894 0.71169 0.0
C571 C 0.6465 0.6212 0.7087 0.0
C572 C 0.68495 0.64711 0.72178 0.0
C573 C 0.71836 0.65472 0.71758 0.0
C574 C 0.73692 0.68457 0.72103 0.0
C575 C 0.72132 0.70728 0.72876 0.0
C576 C 0.68754 0.69933 0.73307 0.0
C577 C 0.66991 0.66897 0.72961 0.0
C578 C 0.77299 0.69203 0.71635 0.0
C579 C 0.66988 0.72316 0.74121 0.0
C580 C 0.70317 0.96784 0.69161 0.0
C581 C 0.70112 0.93835 0.6996 0.0
C582 C 0.73641 0.89108 0.7074 0.0
C583 C 0.71199 0.88263 0.71567 0.0
C584 C 0.7173 0.85356 0.72255 0.0
C585 C 0.74754 0.83235 0.72113 0.0
C586 C 0.77226 0.8408 0.71287 0.0
C587 C 0.76646 0.87026 0.70616 0.0
C588 C 0.69058 0.84546 0.73135 0.0
C589 C 0.8047 0.81862 0.71113 0.0
C590 C 0.87613 0.90809 0.77687 0.0
C591 C 0.84129 0.90061 0.78004 0.0
C592 C 0.82555 0.8684 0.77736 0.0
C593 C 0.84513 0.84321 0.77146 0.0
C594 C 0.88067 0.85007 0.76868 0.0
C595 C 0.89578 0.88243 0.77149 0.0
C596 C 0.78784 0.86147 0.78067 0.0
C597 C 0.90238 0.82352 0.76252 0.0
C598 C 0.78023 0.58628 0.79592 0.0
C599 C 0.81835 0.59823 0.79753 0.0
C600 C 0.81869 0.66103 0.79386 0.0
C601 C 0.79358 0.68738 0.79533 0.0
C602 C 0.79183 0.71621 0.78818 0.0
C603 C 0.8165 0.719 0.77956 0.0
C604 C 0.84294 0.69309 0.77832 0.0
C605 C 0.84367 0.66422 0.78548 0.0
C606 C 0.76337 0.74343 0.78976 0.0
C607 C 0.87028 0.69589 0.76941 0.0
C608 C 0.73995 0.73974 0.73215 0.0
C609 C 0.73733 0.76952 0.72547 0.0
C610 C 0.75314 0.80135 0.72833 0.0
C611 C 0.77235 0.80368 0.7381 0.0
C612 C 0.78848 0.83533 0.74124 0.0
C613 C 0.80695 0.83748 0.75094 0.0
C614 C 0.80981 0.80813 0.75791 0.0
C615 C 0.82807 0.81019 0.76786 0.0
C616 C 0.83012 0.78068 0.77465 0.0
C617 C 0.81434 0.74887 0.77178 0.0
C618 C 0.79619 0.74613 0.76182 0.0
C619 C 0.78016 0.71444 0.75866 0.0
C620 C 0.76216 0.71212 0.74888 0.0
C621 C 0.75904 0.74154 0.74196 0.0
C622 C 0.77519 0.77368 0.74495 0.0
C623 C 0.79385 0.77595 0.75488 0.0
C624 C 0.8946 0.00042 0.77424 0.0
C625 C 0.87446 0.97142 0.78032 0.0
O626 O 0.66664 0.61923 0.71802 0.0
O627 O 0.81863 0.6331 0.80076 0.0
O628 O 0.89162 0.93966 0.77877 0.0
O629 O 0.7318 0.91881 0.70049 0.0
H630 H 0.65608 0.64322 0.70341 0.0
H631 H 0.60611 0.65514 0.71559 0.0
H632 H 0.59767 0.60875 0.71745 0.0
H633 H 0.59151 0.62929 0.70429 0.0
H634 H 0.72963 0.63741 0.71152 0.0
H635 H 0.64401 0.66259 0.7328 0.0
H636 H 0.77214 0.71665 0.71145 0.0
H637 H 0.78259 0.67034 0.7111 0.0
H638 H 0.79212 0.69615 0.72302 0.0
H639 H 0.64252 0.71469 0.74312 0.0
H640 H 0.66927 0.75058 0.73803 0.0
H641 H 0.68522 0.7233 0.74885 0.0
H642 H 0.67715 0.92148 0.69891 0.0
H643 H 0.68396 0.9607 0.68505 0.0
H644 H 0.72725 0.963 0.68644 0.0
H645 H 0.69725 0.0128 0.70127 0.0
H646 H 0.68875 0.89866 0.71684 0.0
H647 H 0.78521 0.87695 0.6998 0.0
H648 H 0.70373 0.84471 0.73938 0.0
H649 H 0.67892 0.81907 0.72996 0.0
H650 H 0.66901 0.86517 0.73163 0.0
H651 H 0.82097 0.82817 0.70419 0.0
H652 H 0.79691 0.79089 0.70963 0.0
H653 H 0.82102 0.81883 0.71859 0.0
H654 H 0.84767 0.97064 0.77669 0.0
H655 H 0.82629 0.91981 0.78458 0.0
H656 H 0.9228 0.88827 0.76923 0.0
H657 H 0.77148 0.858 0.77331 0.0
H658 H 0.77658 0.88321 0.78558 0.0
H659 H 0.78621 0.83666 0.78547 0.0
H660 H 0.92988 0.83261 0.76113 0.0
H661 H 0.89005 0.81836 0.75453 0.0
H662 H 0.90296 0.79821 0.76707 0.0
H663 H 0.83263 0.59509 0.78968 0.0
H664 H 0.7794 0.55844 0.79321 0.0
H665 H 0.76753 0.60281 0.78958 0.0
H666 H 0.76497 0.58877 0.80361 0.0
H667 H 0.77475 0.68477 0.80194 0.0
H668 H 0.86395 0.64439 0.78462 0.0
H669 H 0.74787 0.74634 0.78218 0.0
H670 H 0.77558 0.76934 0.79148 0.0
H671 H 0.74516 0.7365 0.79654 0.0
H672 H 0.89043 0.67479 0.76997 0.0
H673 H 0.88365 0.72187 0.76978 0.0
H674 H 0.85724 0.69415 0.76139 0.0
H675 H 0.72228 0.76805 0.71802 0.0
H676 H 0.78699 0.85883 0.73624 0.0
H677 H 0.81881 0.86254 0.75293 0.0
H678 H 0.84397 0.78257 0.78231 0.0
H679 H 0.78136 0.69103 0.76371 0.0
H680 H 0.75047 0.68702 0.74685 0.0
H681 H 0.88127 0.02621 0.77532 0.0
H682 H 0.89546 0.9944 0.76542 0.0
H683 H 0.92207 0.00246 0.77724 0.0
C684 C 0.64717 0.64622 0.05526 0.0
C685 C 0.66109 0.60839 0.05538 0.0
C686 C 0.63565 0.58 0.03988 0.0
C687 C 0.62326 0.54728 0.04354 0.0
C688 C 0.59383 0.53149 0.03872 0.0
C689 C 0.57623 0.54917 0.03016 0.0
C690 C 0.58894 0.58226 0.02644 0.0
C691 C 0.61898 0.59695 0.03123 0.0
C692 C 0.58137 0.49606 0.04281 0.0
C693 C 0.57051 0.60241 0.01752 0.0
C694 C 0.29239 0.59452 0.04581 0.0
C695 C 0.32539 0.58891 0.03946 0.0
C696 C 0.37865 0.55317 0.03914 0.0
C697 C 0.3962 0.57503 0.03157 0.0
C698 C 0.43 0.56671 0.02778 0.0
C699 C 0.44679 0.53582 0.03158 0.0
C700 C 0.42982 0.51429 0.03944 0.0
C701 C 0.39586 0.52325 0.04311 0.0
C702 C 0.44744 0.59054 0.01947 0.0
C703 C 0.44719 0.48133 0.04369 0.0
C704 C 0.38423 0.4247 0.97109 0.0
C705 C 0.39217 0.46066 0.97152 0.0
C706 C 0.42416 0.47228 0.97589 0.0
C707 C 0.44825 0.44731 0.98013 0.0
C708 C 0.44052 0.41092 0.97946 0.0
C709 C 0.40874 0.40007 0.97478 0.0
C710 C 0.43204 0.51124 0.97603 0.0
C711 C 0.46555 0.38357 0.98385 0.0
C712 C 0.71619 0.52175 0.95976 0.0
C713 C 0.69949 0.48542 0.96136 0.0
C714 C 0.63599 0.4809 0.96332 0.0
C715 C 0.60795 0.5042 0.96207 0.0
C716 C 0.57767 0.50118 0.96857 0.0
C717 C 0.57506 0.47331 0.97624 0.0
C718 C 0.60258 0.44834 0.97706 0.0
C719 C 0.63304 0.45265 0.97067 0.0
C720 C 0.54879 0.5282 0.96737 0.0
C721 C 0.6 0.41746 0.9848 0.0
C722 C 0.54411 0.53344 0.0253 0.0
C723 C 0.51204 0.53774 0.03082 0.0
C724 C 0.48059 0.52487 0.02651 0.0
C725 C 0.48107 0.50616 0.01663 0.0
C726 C 0.45006 0.49179 0.0123 0.0
C727 C 0.45028 0.47538 0.00225 0.0
C728 C 0.48132 0.4735 0.996 0.0
C729 C 0.48122 0.45931 0.9854 0.0
C730 C 0.51247 0.45825 0.97936 0.0
C731 C 0.54399 0.47126 0.98358 0.0
C732 C 0.5447 0.48513 0.99422 0.0
C733 C 0.57597 0.49824 0.99876 0.0
C734 C 0.57612 0.51289 0.00909 0.0
C735 C 0.54477 0.51622 0.01513 0.0
C736 C 0.51309 0.50262 0.01079 0.0
C737 C 0.51313 0.48667 0.00038 0.0
C738 C 0.30891 0.39788 0.97974 0.0
C739 C 0.32043 0.42323 0.97065 0.0
O740 O 0.66311 0.59592 0.04484 0.0
O741 O 0.66552 0.48625 0.95732 0.0
O742 O 0.35341 0.41315 0.96692 0.0
O743 O 0.34531 0.56009 0.04269 0.0
H744 H 0.64226 0.59201 0.06023 0.0
H745 H 0.62029 0.64686 0.05175 0.0
H746 H 0.66457 0.66355 0.05028 0.0
H747 H 0.64569 0.65669 0.06366 0.0
H748 H 0.63665 0.53424 0.05019 0.0
H749 H 0.6289 0.62228 0.0285 0.0
H750 H 0.55521 0.499 0.04678 0.0
H751 H 0.59985 0.48427 0.04878 0.0
H752 H 0.57821 0.47768 0.03591 0.0
H753 H 0.58092 0.62961 0.01658 0.0
H754 H 0.54181 0.6038 0.01922 0.0
H755 H 0.57409 0.58852 0.0097 0.0
H756 H 0.32222 0.59064 0.03047 0.0
H757 H 0.30156 0.64238 0.05379 0.0
H758 H 0.28702 0.56906 0.05028 0.0
H759 H 0.27043 0.591 0.03981 0.0
H760 H 0.38357 0.59847 0.02845 0.0
H761 H 0.38238 0.50664 0.049 0.0
H762 H 0.45127 0.57606 0.01175 0.0
H763 H 0.47382 0.59867 0.02238 0.0
H764 H 0.4317 0.61456 0.01777 0.0
H765 H 0.43155 0.46852 0.05027 0.0
H766 H 0.4738 0.48771 0.04682 0.0
H767 H 0.45062 0.46234 0.03695 0.0
H768 H 0.32137 0.45031 0.97405 0.0
H769 H 0.37352 0.47957 0.96832 0.0
H770 H 0.40241 0.37231 0.97424 0.0
H771 H 0.4296 0.52111 0.98446 0.0
H772 H 0.41366 0.52646 0.97082 0.0
H773 H 0.45943 0.51637 0.97323 0.0
H774 H 0.45444 0.35654 0.98346 0.0
H775 H 0.47212 0.38953 0.99243 0.0
H776 H 0.49047 0.3843 0.97909 0.0
H777 H 0.69925 0.47977 0.97026 0.0
H778 H 0.74329 0.52216 0.96313 0.0
H779 H 0.70027 0.54187 0.96408 0.0
H780 H 0.71738 0.52886 0.951 0.0
H781 H 0.61044 0.52556 0.95623 0.0
H782 H 0.65448 0.43398 0.97135 0.0
H783 H 0.54199 0.53949 0.97542 0.0
H784 H 0.52477 0.51531 0.96418 0.0
H785 H 0.55633 0.54999 0.96176 0.0
H786 H 0.62135 0.39799 0.98343 0.0
H787 H 0.57416 0.40409 0.98391 0.0
H788 H 0.60174 0.42699 0.99328 0.0
H789 H 0.51137 0.55243 0.03834 0.0
H790 H 0.42519 0.49318 0.01662 0.0
H791 H 0.42559 0.46486 0.99934 0.0
H792 H 0.51204 0.44819 0.97114 0.0
H793 H 0.60073 0.49742 0.99437 0.0
H794 H 0.601 0.52239 0.01217 0.0
H795 H 0.30684 0.37059 0.9766 0.0
H796 H 0.28307 0.40585 0.9832 0.0
H797 H 0.32854 0.39818 0.98639 0.0
C798 C 0.82548 0.64671 0.47941 0.0
C799 C 0.83969 0.62773 0.46933 0.0
C800 C 0.87797 0.57891 0.47507 0.0
C801 C 0.88331 0.5429 0.47361 0.0
C802 C 0.91467 0.52663 0.47688 0.0
C803 C 0.94059 0.54671 0.48228 0.0
C804 C 0.93531 0.58323 0.48383 0.0
C805 C 0.90429 0.59908 0.48005 0.0
C806 C 0.91994 0.48802 0.47454 0.0
C807 C 0.96233 0.60555 0.48954 0.0
C808 C 0.20591 0.49166 0.4599 0.0
C809 C 0.19235 0.52923 0.46139 0.0
C810 C 0.12873 0.53008 0.46345 0.0
C811 C 0.12398 0.55194 0.47247 0.0
C812 C 0.09329 0.54953 0.47885 0.0
C813 C 0.06724 0.52436 0.47621 0.0
C814 C 0.07158 0.5031 0.4669 0.0
C815 C 0.10215 0.50665 0.46053 0.0
C816 C 0.08887 0.57356 0.48847 0.0
C817 C 0.04424 0.47617 0.46378 0.0
C818 C 0.138 0.38952 0.53139 0.0
C819 C 0.12893 0.42411 0.53416 0.0
C820 C 0.09622 0.4382 0.53116 0.0
C821 C 0.0724 0.41733 0.52515 0.0
C822 C 0.08109 0.38203 0.5227 0.0
C823 C 0.11365 0.36844 0.52601 0.0
C824 C 0.08734 0.47554 0.53425 0.0
C825 C 0.05635 0.35883 0.51639 0.0
C826 C 0.80941 0.35425 0.53002 0.0
C827 C 0.83413 0.34995 0.53979 0.0
C828 C 0.88089 0.39443 0.53692 0.0
C829 C 0.89608 0.42479 0.54124 0.0
C830 C 0.92699 0.43935 0.53676 0.0
C831 C 0.94269 0.42338 0.5276 0.0
C832 C 0.92728 0.39285 0.5231 0.0
C833 C 0.89672 0.37854 0.52784 0.0
C834 C 0.94284 0.47179 0.54177 0.0
C835 C 0.94307 0.3754 0.51323 0.0
C836 C 0.97332 0.52964 0.48623 0.0
C837 C 0.00426 0.53499 0.48023 0.0
C838 C 0.03594 0.51935 0.48335 0.0
C839 C 0.03709 0.49805 0.49281 0.0
C840 C 0.06858 0.4821 0.49622 0.0
C841 C 0.06944 0.46113 0.50552 0.0
C842 C 0.0387 0.45468 0.51165 0.0
C843 C 0.0392 0.4329 0.52101 0.0
C844 C 0.00766 0.42453 0.52635 0.0
C845 C 0.97551 0.43798 0.52272 0.0
C846 C 0.9749 0.46208 0.51392 0.0
C847 C 0.94345 0.47822 0.51058 0.0
C848 C 0.94305 0.50128 0.50174 0.0
C849 C 0.97379 0.50788 0.49561 0.0
C850 C 0.00584 0.49211 0.49891 0.0
C851 C 0.00653 0.46985 0.50822 0.0
C852 C 0.22656 0.37361 0.52585 0.0
C853 C 0.20178 0.39313 0.53357 0.0
O854 O 0.84687 0.59281 0.47173 0.0
O855 O 0.85085 0.3819 0.54164 0.0
O856 O 0.1698 0.37551 0.53385 0.0
O857 O 0.15845 0.53149 0.45732 0.0
H858 H 0.86413 0.64141 0.46655 0.0
H859 H 0.84574 0.64771 0.48585 0.0
H860 H 0.80203 0.63296 0.48282 0.0
H861 H 0.81813 0.67421 0.47729 0.0
H862 H 0.86293 0.5276 0.4697 0.0
H863 H 0.90064 0.62702 0.4812 0.0
H864 H 0.94716 0.483 0.47159 0.0
H865 H 0.90106 0.47827 0.46838 0.0
H866 H 0.91592 0.47252 0.48211 0.0
H867 H 0.95235 0.63238 0.49134 0.0
H868 H 0.98617 0.6081 0.48433 0.0
H869 H 0.97038 0.59275 0.49727 0.0
H870 H 0.19261 0.535 0.47025 0.0
H871 H 0.23294 0.48904 0.46323 0.0
H872 H 0.20635 0.48455 0.45116 0.0
H873 H 0.18844 0.47286 0.46431 0.0
H874 H 0.14413 0.57101 0.47445 0.0
H875 H 0.10595 0.49036 0.45343 0.0
H876 H 0.06264 0.58644 0.48822 0.0
H877 H 0.10957 0.59423 0.48872 0.0
H878 H 0.09014 0.55784 0.49609 0.0
H879 H 0.05253 0.46034 0.45666 0.0
H880 H 0.01915 0.48968 0.46181 0.0
H881 H 0.03899 0.45809 0.47073 0.0
H882 H 0.19863 0.42029 0.53024 0.0
H883 H 0.14727 0.44003 0.53872 0.0
H884 H 0.12076 0.34155 0.5241 0.0
H885 H 0.08788 0.4925 0.52688 0.0
H886 H 0.10625 0.48642 0.54022 0.0
H887 H 0.06036 0.47682 0.53776 0.0
H888 H 0.06872 0.33347 0.51407 0.0
H889 H 0.04743 0.37259 0.50891 0.0
H890 H 0.0327 0.35306 0.52144 0.0
H891 H 0.85384 0.32914 0.53797 0.0
H892 H 0.79928 0.32823 0.52741 0.0
H893 H 0.82365 0.36604 0.52299 0.0
H894 H 0.78705 0.37188 0.53209 0.0
H895 H 0.8837 0.43696 0.54823 0.0
H896 H 0.88527 0.35521 0.52432 0.0
H897 H 0.94424 0.49327 0.53563 0.0
H898 H 0.97018 0.46608 0.5444 0.0
H899 H 0.92743 0.48113 0.54889 0.0
H900 H 0.92776 0.352 0.51063 0.0
H901 H 0.97045 0.36704 0.51499 0.0
H902 H 0.94425 0.3945 0.50637 0.0
H903 H 0.00358 0.55115 0.47293 0.0
H904 H 0.09299 0.48571 0.49177 0.0
H905 H 0.09448 0.44964 0.50774 0.0
H906 H 0.00801 0.4065 0.53322 0.0
H907 H 0.91886 0.47346 0.51484 0.0
H908 H 0.91816 0.51334 0.49966 0.0
H909 H 0.23128 0.34632 0.52881 0.0
H910 H 0.2522 0.38757 0.52512 0.0
H911 H 0.21465 0.37231 0.51764 0.0
Fe912 Fe 0.01387 0.75604 0.14495 0.0
O913 O 0.04086 0.7336 0.13286 0.0
Fe914 Fe 0.93237 0.77133 0.133 0.0
Fe915 Fe 0.09221 0.73538 0.13159 0.0
O916 O 0.98401 0.77466 0.13291 0.0
O917 O 0.9837 0.77399 0.13179 0.0
O918 O 0.04058 0.73304 0.13173 0.0
Fe919 Fe 0.0113 0.7524 0.11963 0.0
C920 C 0.07886 0.80235 0.14447 0.0
O921 O 0.04903 0.73203 0.15598 0.0
O922 O 0.08864 0.70279 0.14494 0.0
O923 O 0.98084 0.70745 0.11964 0.0
O924 O 0.92776 0.73157 0.12193 0.0
O925 O 0.92992 0.73431 0.14527 0.0
O926 O 0.98356 0.71105 0.1463 0.0
O927 O 0.08554 0.69861 0.11959 0.0
O928 O 0.04518 0.72642 0.10853 0.0
C929 C 0.95048 0.70938 0.14796 0.0
O930 O 0.97602 0.77634 0.10861 0.0
O931 O 0.9357 0.80435 0.11975 0.0
O932 O 0.04522 0.80112 0.14407 0.0
O933 O 0.09791 0.77559 0.14256 0.0
C934 C 0.07355 0.70856 0.15426 0.0
C935 C 0.07032 0.70359 0.11028 0.0
C936 C 0.07429 0.79705 0.11641 0.0
O937 O 0.09441 0.77169 0.11907 0.0
O938 O 0.04166 0.7972 0.11871 0.0
C939 C 0.94747 0.70647 0.11887 0.0
O940 O 0.93771 0.80754 0.14514 0.0
O941 O 0.97976 0.78208 0.15611 0.0
C942 C 0.94966 0.79773 0.11031 0.0
C943 C 0.9526 0.80266 0.15448 0.0
Fe944 Fe 0.53467 0.7584 0.40826 0.0
O945 O 0.53267 0.75644 0.39231 0.0
Fe946 Fe 0.5108 0.799 0.38382 0.0
Fe947 Fe 0.50837 0.71768 0.38441 0.0
O948 O 0.53309 0.75984 0.39224 0.0
O949 O 0.48521 0.76028 0.37632 0.0
O950 O 0.48513 0.75686 0.37632 0.0
Fe951 Fe 0.48062 0.75804 0.36052 0.0
C952 C 0.56236 0.68741 0.40079 0.0
O953 O 0.49553 0.72136 0.41083 0.0
O954 O 0.46695 0.71824 0.39518 0.0
O955 O 0.4475 0.8 0.36334 0.0
O956 O 0.48276 0.83485 0.37411 0.0
O957 O 0.47001 0.80231 0.39467 0.0
O958 O 0.49759 0.79732 0.4105 0.0
O959 O 0.47964 0.68195 0.37507 0.0
O960 O 0.44622 0.71662 0.36361 0.0
C961 C 0.47119 0.80658 0.40487 0.0
O962 O 0.51836 0.79593 0.35764 0.0
O963 O 0.55116 0.79834 0.37253 0.0
O964 O 0.56799 0.71672 0.40584 0.0
O965 O 0.53702 0.68151 0.39393 0.0
C966 C 0.46766 0.71538 0.40545 0.0
C967 C 0.45406 0.68674 0.36822 0.0
C968 C 0.54562 0.71048 0.36319 0.0
O969 O 0.54906 0.71515 0.37336 0.0
O970 O 0.51828 0.72002 0.358 0.0
C971 C 0.45638 0.83012 0.36752 0.0
O972 O 0.54175 0.83432 0.39295 0.0
O973 O 0.5698 0.79861 0.40556 0.0
C974 C 0.54632 0.8053 0.36252 0.0
C975 C 0.56574 0.82801 0.40028 0.0
Fe976 Fe 0.51536 0.24385 0.65622 0.0
O977 O 0.51464 0.24625 0.64021 0.0
Fe978 Fe 0.47163 0.27089 0.63267 0.0
Fe979 Fe 0.5529 0.27017 0.63177 0.0
O980 O 0.51122 0.24683 0.64034 0.0
O981 O 0.51008 0.29525 0.62438 0.0
O982 O 0.51344 0.29492 0.6243 0.0
Fe983 Fe 0.51075 0.29997 0.6085 0.0
C984 C 0.56244 0.30814 0.65253 0.0
O985 O 0.55443 0.20857 0.65282 0.0
O986 O 0.5896 0.2396 0.6407 0.0
O987 O 0.4731 0.26158 0.60615 0.0
O988 O 0.46991 0.23065 0.62162 0.0
O989 O 0.43652 0.24142 0.64249 0.0
O990 O 0.4726 0.21111 0.65443 0.0
O991 O 0.55379 0.23033 0.62048 0.0
O992 O 0.54929 0.26308 0.6055 0.0
C993 C 0.44253 0.21719 0.64981 0.0
O994 O 0.46897 0.33327 0.61174 0.0
O995 O 0.43497 0.29964 0.62346 0.0
O996 O 0.55537 0.28065 0.6581 0.0
O997 O 0.55454 0.31044 0.64258 0.0
C998 C 0.58329 0.21311 0.64727 0.0
C999 C 0.55976 0.23539 0.6104 0.0
C1000 C 0.58225 0.32654 0.61562 0.0
O1001 O 0.58749 0.30006 0.62221 0.0
O1002 O 0.55242 0.33424 0.61102 0.0
C1003 C 0.46452 0.2339 0.61146 0.0
O1004 O 0.471 0.31156 0.64359 0.0
O1005 O 0.47908 0.28271 0.65921 0.0
C1006 C 0.43928 0.32537 0.6165 0.0
C1007 C 0.46896 0.30964 0.65389 0.0
Fe1008 Fe 0.03355 0.25402 0.90607 0.0
O1009 O 0.03038 0.25286 0.89016 0.0
Fe1010 Fe 0.00562 0.29507 0.88232 0.0
Fe1011 Fe 0.00673 0.21405 0.88214 0.0
O1012 O 0.03016 0.25617 0.89019 0.0
O1013 O 0.98185 0.2562 0.87435 0.0
O1014 O 0.98214 0.25292 0.8743 0.0
Fe1015 Fe 0.97804 0.255 0.85849 0.0
C1016 C 0.06108 0.18347 0.89857 0.0
O1017 O 0.99592 0.21547 0.90861 0.0
O1018 O 0.966 0.21278 0.89312 0.0
O1019 O 0.94378 0.2959 0.8614 0.0
O1020 O 0.97636 0.33092 0.87287 0.0
O1021 O 0.9649 0.29488 0.89337 0.0
O1022 O 0.99548 0.2918 0.9087 0.0
O1023 O 0.97813 0.17815 0.8727 0.0
O1024 O 0.9445 0.213 0.86134 0.0
C1025 C 0.96725 0.29865 0.90359 0.0
O1026 O 0.01512 0.29399 0.85591 0.0
O1027 O 0.04607 0.29683 0.8712 0.0
O1028 O 0.06766 0.21312 0.90334 0.0
O1029 O 0.03613 0.17806 0.89154 0.0
C1030 C 0.96836 0.20775 0.90329 0.0
C1031 C 0.95218 0.18312 0.86598 0.0
C1032 C 0.044 0.20883 0.8609 0.0
O1033 O 0.0473 0.21377 0.87104 0.0
O1034 O 0.01623 0.21758 0.8558 0.0
C1035 C 0.95137 0.32601 0.86579 0.0
O1036 O 0.03479 0.33097 0.89173 0.0
O1037 O 0.0674 0.29541 0.90324 0.0
C1038 C 0.04246 0.30309 0.86112 0.0
C1039 C 0.06086 0.32507 0.89836 0.0
H1040 H 0.21109 0.84637 0.46681 0.0
H1041 H 0.26766 0.84598 0.45716 0.0
H1042 H 0.22145 0.90461 0.43071 0.0
H1043 H 0.16471 0.90453 0.44026 0.0
H1044 H 0.25653 0.84944 0.42335 0.0
H1045 H 0.28133 0.94328 0.44753 0.0
H1046 H 0.28538 0.974 0.46506 0.0
H1047 H 0.35861 0.89646 0.4766 0.0
H1048 H 0.35464 0.86497 0.45919 0.0
H1049 H 0.42146 0.85001 0.39614 0.0
H1050 H 0.36886 0.87329 0.40511 0.0
H1051 H 0.3986 0.82079 0.43489 0.0
H1052 H 0.4517 0.79848 0.42607 0.0
H1053 H 0.3714 0.88251 0.43935 0.0
H1054 H 0.3406 0.78544 0.41573 0.0
H1055 H 0.33649 0.75511 0.39818 0.0
H1056 H 0.27479 0.84028 0.38533 0.0
H1057 H 0.2786 0.87119 0.40285 0.0
C1058 C 0.21324 0.85972 0.45903 0.0
C1059 C 0.18367 0.87589 0.45434 0.0
C1060 C 0.24554 0.85958 0.45354 0.0
C1061 C 0.24889 0.87566 0.44327 0.0
C1062 C 0.2195 0.8922 0.43864 0.0
C1063 C 0.18718 0.89228 0.44412 0.0
C1064 C 0.28236 0.87295 0.43706 0.0
C1065 C 0.28159 0.85739 0.42675 0.0
C1066 C 0.31508 0.88283 0.44156 0.0
C1067 C 0.31744 0.90158 0.45208 0.0
C1068 C 0.29806 0.93259 0.45384 0.0
C1069 C 0.30039 0.95018 0.46375 0.0
C1070 C 0.32217 0.93714 0.47194 0.0
C1071 C 0.34171 0.90651 0.47024 0.0
C1072 C 0.33946 0.88879 0.46035 0.0
C1073 C 0.41684 0.84367 0.40462 0.0
C1074 C 0.44049 0.82222 0.41039 0.0
C1075 C 0.38681 0.85697 0.40974 0.0
C1076 C 0.37944 0.84825 0.42062 0.0
C1077 C 0.40368 0.82783 0.42648 0.0
C1078 C 0.43399 0.81501 0.42143 0.0
C1079 C 0.34557 0.85834 0.42577 0.0
C1080 C 0.34626 0.87519 0.43588 0.0
C1081 C 0.31273 0.84966 0.42108 0.0
C1082 C 0.31001 0.83072 0.41061 0.0
C1083 C 0.32609 0.7977 0.40919 0.0
C1084 C 0.32385 0.7804 0.39923 0.0
C1085 C 0.3054 0.79577 0.39064 0.0
C1086 C 0.28906 0.8284 0.392 0.0
C1087 C 0.2912 0.84579 0.40195 0.0
H1088 H 0.30376 0.78238 0.38292 0.0
H1089 H 0.32396 0.95082 0.47961 0.0
H1090 H 0.29131 0.94673 0.69288 0.0
H1091 H 0.30169 0.99285 0.67919 0.0
H1092 H 0.34938 0.05826 0.70355 0.0
H1093 H 0.33988 0.01202 0.7172 0.0
H1094 H 0.29859 0.0932 0.69033 0.0
H1095 H 0.40106 0.01737 0.68714 0.0
H1096 H 0.4314 0.96099 0.68394 0.0
H1097 H 0.38501 0.95467 0.65228 0.0
H1098 H 0.35398 0.01084 0.65537 0.0
H1099 H 0.42194 0.21213 0.67059 0.0
H1100 H 0.3833 0.16778 0.67864 0.0
H1101 H 0.35957 0.12822 0.64671 0.0
H1102 H 0.39856 0.17328 0.6386 0.0
H1103 H 0.3843 0.07717 0.6602 0.0
H1104 H 0.29316 0.16124 0.66214 0.0
H1105 H 0.26508 0.21866 0.66547 0.0
H1106 H 0.29038 0.21072 0.69934 0.0
H1107 H 0.31909 0.1535 0.6962 0.0
C1108 C 0.30447 0.97073 0.69528 0.0
C1109 C 0.31566 0.97545 0.70607 0.0
C1110 C 0.31015 0.99709 0.68747 0.0
C1111 C 0.32636 0.02884 0.69037 0.0
C1112 C 0.3368 0.03391 0.70116 0.0
C1113 C 0.33162 0.00745 0.70892 0.0
C1114 C 0.33312 0.05687 0.68222 0.0
C1115 C 0.31727 0.08982 0.68371 0.0
C1116 C 0.35643 0.05187 0.67337 0.0
C1117 C 0.37476 0.01797 0.67156 0.0
C1118 C 0.39699 0.00374 0.67955 0.0
C1119 C 0.4144 0.97188 0.67775 0.0
C1120 C 0.41001 0.95418 0.66793 0.0
C1121 C 0.38828 0.96835 0.6599 0.0
C1122 C 0.37078 0.00019 0.66167 0.0
C1123 C 0.40756 0.19469 0.66528 0.0
C1124 C 0.41303 0.196 0.65401 0.0
C1125 C 0.38537 0.16943 0.66987 0.0
C1126 C 0.36832 0.14477 0.66328 0.0
C1127 C 0.3723 0.14716 0.65193 0.0
C1128 C 0.39434 0.17293 0.6473 0.0
C1129 C 0.35078 0.11412 0.66853 0.0
C1130 C 0.36465 0.0805 0.66655 0.0
C1131 C 0.32565 0.11854 0.67694 0.0
C1132 C 0.30839 0.15303 0.67891 0.0
C1133 C 0.29296 0.17182 0.67029 0.0
C1134 C 0.27689 0.20434 0.67214 0.0
C1135 C 0.27596 0.21834 0.68261 0.0
C1136 C 0.29108 0.19982 0.69124 0.0
C1137 C 0.3072 0.1673 0.68943 0.0
H1138 H 0.2635 0.24352 0.68403 0.0
H1139 H 0.42356 0.92954 0.66654 0.0
H1140 H 0.25849 0.05909 0.967 0.0
H1141 H 0.21447 0.0779 0.95371 0.0
H1142 H 0.27692 0.0333 0.92789 0.0
H1143 H 0.32077 0.01372 0.94116 0.0
H1144 H 0.24842 0.10609 0.92438 0.0
H1145 H 0.21233 0.98803 0.93479 0.0
H1146 H 0.19841 0.94207 0.9484 0.0
H1147 H 0.1154 0.00624 0.96138 0.0
H1148 H 0.12921 0.05283 0.94796 0.0
H1149 H 0.11132 0.14522 0.88791 0.0
H1150 H 0.15502 0.10661 0.89664 0.0
H1151 H 0.1009 0.1185 0.92734 0.0
H1152 H 0.05747 0.15643 0.91864 0.0
H1153 H 0.1282 0.05479 0.92623 0.0
H1154 H 0.16636 0.1738 0.92032 0.0
H1155 H 0.17916 0.22703 0.90942 0.0
H1156 H 0.25612 0.16993 0.8909 0.0
H1157 H 0.24337 0.11616 0.90161 0.0
C1158 C 0.26298 0.05364 0.95848 0.0
C1159 C 0.29339 0.0356 0.9551 0.0
C1160 C 0.23783 0.06425 0.95092 0.0
C1161 C 0.24258 0.05694 0.93986 0.0
C1162 C 0.27301 0.03931 0.93641 0.0
C1163 C 0.29802 0.02827 0.94399 0.0
C1164 C 0.21513 0.06708 0.93198 0.0
C1165 C 0.22238 0.09431 0.92456 0.0
C1166 C 0.18093 0.05242 0.93253 0.0
C1167 C 0.17192 0.02398 0.94039 0.0
C1168 C 0.19122 0.9924 0.94058 0.0
C1169 C 0.18334 0.96624 0.94826 0.0
C1170 C 0.15606 0.97124 0.95575 0.0
C1171 C 0.13651 0.00238 0.95556 0.0
C1172 C 0.14432 0.02865 0.94791 0.0
C1173 C 0.10821 0.13833 0.89642 0.0
C1174 C 0.08127 0.15346 0.90266 0.0
C1175 C 0.13322 0.1166 0.90141 0.0
C1176 C 0.13148 0.11014 0.91268 0.0
C1177 C 0.10277 0.12303 0.91866 0.0
C1178 C 0.078 0.14469 0.91369 0.0
C1179 C 0.16133 0.09399 0.9186 0.0
C1180 C 0.15453 0.06584 0.92576 0.0
C1181 C 0.19566 0.10861 0.91807 0.0
C1182 C 0.20357 0.14086 0.91165 0.0
C1183 C 0.18581 0.17253 0.91386 0.0
C1184 C 0.19308 0.2028 0.90773 0.0
C1185 C 0.21835 0.20183 0.89944 0.0
C1186 C 0.23648 0.1706 0.8973 0.0
C1187 C 0.22924 0.14022 0.9034 0.0
H1188 H 0.22395 0.22529 0.8947 0.0
H1189 H 0.15004 0.95098 0.9617 0.0
H1190 H 0.21646 0.02817 0.208 0.0
H1191 H 0.20708 0.98233 0.1944 0.0
H1192 H 0.12258 0.0434 0.18053 0.0
H1193 H 0.13079 0.0883 0.19437 0.0
H1194 H 0.10241 0.97871 0.18431 0.0
H1195 H 0.20694 0.03109 0.16784 0.0
H1196 H 0.26904 0.05019 0.16817 0.0
H1197 H 0.30149 0.9445 0.17555 0.0
H1198 H 0.23957 0.92486 0.1754 0.0
H1199 H 0.06261 0.87129 0.13984 0.0
H1200 H 0.09031 0.92425 0.14754 0.0
H1201 H 0.1639 0.85894 0.16489 0.0
H1202 H 0.13798 0.80644 0.15677 0.0
H1203 H 0.19066 0.92542 0.15959 0.0
H1204 H 0.08988 0.86624 0.17277 0.0
H1205 H 0.02893 0.83244 0.17346 0.0
H1206 H 0.98052 0.97025 0.17671 0.0
H1207 H 0.04923 0.98669 0.17431 0.0
C1208 C 0.19607 0.03185 0.20199 0.0
C1209 C 0.17409 0.06166 0.20234 0.0
C1210 C 0.19093 0.0058 0.19416 0.0
C1211 C 0.16426 0.00946 0.18636 0.0
C1212 C 0.14329 0.03991 0.18645 0.0
C1213 C 0.14805 0.06563 0.19436 0.0
C1214 C 0.15589 0.98054 0.17868 0.0
C1215 C 0.12125 0.96778 0.17861 0.0
C1216 C 0.18135 0.96483 0.17182 0.0
C1217 C 0.2186 0.97656 0.17167 0.0
C1218 C 0.22731 0.01196 0.16957 0.0
C1219 C 0.26248 0.02288 0.16972 0.0
C1220 C 0.28919 0.99859 0.17189 0.0
C1221 C 0.28079 0.96329 0.17387 0.0
C1222 C 0.24567 0.95224 0.17373 0.0
C1223 C 0.08489 0.86835 0.14523 0.0
C1224 C 0.09697 0.83471 0.14816 0.0
C1225 C 0.10081 0.89853 0.14955 0.0
C1226 C 0.12761 0.89533 0.1573 0.0
C1227 C 0.14257 0.86205 0.15916 0.0
C1228 C 0.12733 0.83199 0.15463 0.0
C1229 C 0.13628 0.92503 0.16466 0.0
C1230 C 0.1712 0.93726 0.16492 0.0
C1231 C 0.11087 0.94021 0.17181 0.0
C1232 C 0.07381 0.92752 0.17285 0.0
C1233 C 0.06706 0.88294 0.17271 0.0
C1234 C 0.02859 0.86089 0.17363 0.0
C1235 C 0.98963 0.88176 0.17517 0.0
C1236 C 0.99845 0.9479 0.17574 0.0
C1237 C 0.04207 0.95912 0.17436 0.0
H1238 H 0.98676 0.90023 0.17551 0.0
H1239 H 0.31639 0.0071 0.17203 0.0
H1240 H 0.26863 0.08433 0.54326 0.0
H1241 H 0.31348 0.11013 0.55497 0.0
H1242 H 0.2587 0.0701 0.58327 0.0
H1243 H 0.21363 0.04423 0.57155 0.0
H1244 H 0.28001 0.13847 0.5859 0.0
H1245 H 0.33127 0.03001 0.575 0.0
H1246 H 0.35011 0.98391 0.56223 0.0
H1247 H 0.42055 0.05694 0.54653 0.0
H1248 H 0.4017 0.10369 0.5591 0.0
H1249 H 0.4219 0.18324 0.62045 0.0
H1250 H 0.38117 0.14435 0.61089 0.0
H1251 H 0.41963 0.18421 0.58015 0.0
H1252 H 0.46031 0.22313 0.58962 0.0
H1253 H 0.4065 0.11053 0.5803 0.0
H1254 H 0.35 0.21999 0.59023 0.0
H1255 H 0.33227 0.26531 0.60338 0.0
H1256 H 0.27183 0.18875 0.62128 0.0
H1257 H 0.28985 0.14264 0.60835 0.0
C1258 C 0.266 0.08134 0.55198 0.0
C1259 C 0.2373 0.06288 0.5565 0.0
C1260 C 0.29173 0.09583 0.55866 0.0
C1261 C 0.28953 0.09181 0.56998 0.0
C1262 C 0.26082 0.07357 0.57455 0.0
C1263 C 0.23509 0.05892 0.56786 0.0
C1264 C 0.31726 0.10685 0.57701 0.0
C1265 C 0.30759 0.13185 0.58482 0.0
C1266 C 0.35329 0.09851 0.5755 0.0
C1267 C 0.36484 0.07045 0.56794 0.0
C1268 C 0.35057 0.03634 0.56877 0.0
C1269 C 0.36128 0.01007 0.56158 0.0
C1270 C 0.38645 0.01751 0.55356 0.0
C1271 C 0.40102 0.05122 0.55274 0.0
C1272 C 0.39035 0.07762 0.5599 0.0
C1273 C 0.42216 0.18322 0.61166 0.0
C1274 C 0.44398 0.20657 0.60579 0.0
C1275 C 0.39883 0.16107 0.60622 0.0
C1276 C 0.39719 0.16173 0.59483 0.0
C1277 C 0.42051 0.18334 0.58894 0.0
C1278 C 0.44359 0.20569 0.59437 0.0
C1279 C 0.36921 0.14238 0.58904 0.0
C1280 C 0.37885 0.1167 0.58146 0.0
C1281 C 0.33315 0.14996 0.59078 0.0
C1282 C 0.32157 0.17779 0.5984 0.0
C1283 C 0.33312 0.21275 0.59701 0.0
C1284 C 0.323 0.23859 0.60442 0.0
C1285 C 0.30097 0.22995 0.61317 0.0
C1286 C 0.28893 0.1954 0.61451 0.0
C1287 C 0.2991 0.16939 0.60714 0.0
H1288 H 0.2932 0.25004 0.6189 0.0
H1289 H 0.39472 0.99713 0.548 0.0
H1290 H 0.20021 0.93368 0.82585 0.0
H1291 H 0.19751 0.99199 0.83417 0.0
H1292 H 0.11991 0.02419 0.81066 0.0
H1293 H 0.12299 0.96612 0.80221 0.0
H1294 H 0.16582 0.07814 0.81553 0.0
H1295 H 0.09422 0.99135 0.83469 0.0
H1296 H 0.08456 0.93538 0.84455 0.0
H1297 H 0.15956 0.96628 0.86866 0.0
H1298 H 0.17 0.02227 0.85885 0.0
H1299 H 0.04431 0.19115 0.83949 0.0
H1300 H 0.08133 0.14799 0.83062 0.0
H1301 H 0.14193 0.13558 0.85994 0.0
H1302 H 0.10394 0.17829 0.86908 0.0
H1303 H 0.11967 0.07475 0.85332 0.0
H1304 H 0.17927 0.16925 0.83576 0.0
H1305 H 0.18484 0.22562 0.82586 0.0
H1306 H 0.1302 0.18177 0.79867 0.0
H1307 H 0.12379 0.1253 0.80846 0.0
C1308 C 0.18316 0.95349 0.82233 0.0
C1309 C 0.16184 0.94548 0.81338 0.0
C1310 C 0.18163 0.98671 0.82708 0.0
C1311 C 0.15832 0.01225 0.82308 0.0
C1312 C 0.13823 0.00489 0.81383 0.0
C1313 C 0.13986 0.97173 0.80905 0.0
C1314 C 0.15182 0.0451 0.82916 0.0
C1315 C 0.1558 0.07758 0.8238 0.0
C1316 C 0.13967 0.04425 0.84004 0.0
C1317 C 0.13322 0.01074 0.84597 0.0
C1318 C 0.10883 0.98608 0.84205 0.0
C1319 C 0.10319 0.95438 0.84763 0.0
C1320 C 0.12152 0.94723 0.85721 0.0
C1321 C 0.14544 0.97182 0.86124 0.0
C1322 C 0.15124 0.00353 0.85567 0.0
C1323 C 0.06591 0.17987 0.84403 0.0
C1324 C 0.0708 0.18784 0.85506 0.0
C1325 C 0.08739 0.15536 0.83888 0.0
C1326 C 0.11469 0.13872 0.84457 0.0
C1327 C 0.12106 0.14818 0.85539 0.0
C1328 C 0.09934 0.17261 0.8606 0.0
C1329 C 0.13279 0.10812 0.83963 0.0
C1330 C 0.13083 0.07578 0.84518 0.0
C1331 C 0.14657 0.10924 0.82892 0.0
C1332 C 0.15098 0.14299 0.82288 0.0
C1333 C 0.1683 0.17165 0.82769 0.0
C1334 C 0.17161 0.20364 0.82209 0.0
C1335 C 0.15786 0.20728 0.81164 0.0
C1336 C 0.14087 0.1789 0.80676 0.0
C1337 C 0.13747 0.14686 0.81232 0.0
H1338 H 0.16038 0.2321 0.80733 0.0
H1339 H 0.11711 0.92268 0.86152 0.0
H1340 H 0.31085 0.86352 0.05532 0.0
H1341 H 0.26485 0.8594 0.06926 0.0
H1342 H 0.21233 0.94928 0.05522 0.0
H1343 H 0.25864 0.95386 0.04131 0.0
H1344 H 0.23706 0.90636 0.08498 0.0
H1345 H 0.12172 0.92362 0.05518 0.0
H1346 H 0.10941 0.91786 0.0356 0.0
H1347 H 0.19183 0.84116 0.03264 0.0
H1348 H 0.20425 0.84607 0.05218 0.0
H1349 H 0.08945 0.86729 0.11832 0.0
H1350 H 0.12162 0.90357 0.10486 0.0
H1351 H 0.12022 0.81646 0.08247 0.0
H1352 H 0.08881 0.7808 0.09582 0.0
H1353 H 0.11922 0.87244 0.07132 0.0
H1354 H 0.18764 0.83244 0.10294 0.0
H1355 H 0.20108 0.83174 0.12251 0.0
H1356 H 0.21584 0.94384 0.12183 0.0
H1357 H 0.20217 0.94517 0.10225 0.0
C1358 C 0.29005 0.88299 0.05537 0.0
C1359 C 0.28868 0.90947 0.04734 0.0
C1360 C 0.26382 0.88064 0.06335 0.0
C1361 C 0.23534 0.90414 0.06329 0.0
C1362 C 0.23422 0.93102 0.05543 0.0
C1363 C 0.26064 0.93362 0.04751 0.0
C1364 C 0.2053 0.89817 0.0708 0.0
C1365 C 0.21112 0.89943 0.08202 0.0
C1366 C 0.17157 0.88904 0.0669 0.0
C1367 C 0.16421 0.88563 0.05513 0.0
C1368 C 0.13716 0.9055 0.05034 0.0
C1369 C 0.13015 0.90236 0.03925 0.0
C1370 C 0.14992 0.87927 0.03287 0.0
C1371 C 0.17663 0.85915 0.03758 0.0
C1372 C 0.18368 0.86214 0.04866 0.0
C1373 C 0.09552 0.85647 0.1104 0.0
C1374 C 0.08732 0.82136 0.10805 0.0
C1375 C 0.11394 0.87702 0.10275 0.0
C1376 C 0.12455 0.86234 0.09278 0.0
C1377 C 0.11321 0.82825 0.09016 0.0
C1378 C 0.09522 0.80781 0.09778 0.0
C1379 C 0.15102 0.8797 0.08558 0.0
C1380 C 0.14472 0.88059 0.07434 0.0
C1381 C 0.18457 0.88998 0.08947 0.0
C1382 C 0.19359 0.88894 0.10116 0.0
C1383 C 0.19378 0.85691 0.10696 0.0
C1384 C 0.20137 0.85641 0.11806 0.0
C1385 C 0.20922 0.88774 0.12342 0.0
C1386 C 0.20968 0.9196 0.11768 0.0
C1387 C 0.20201 0.92024 0.10658 0.0
H1388 H 0.21499 0.88732 0.13202 0.0
H1389 H 0.14447 0.8769 0.02429 0.0
H1390 H 0.30346 0.08826 0.31678 0.0
H1391 H 0.33123 0.05615 0.33168 0.0
H1392 H 0.39084 0.99507 0.30855 0.0
H1393 H 0.36403 0.02814 0.29362 0.0
H1394 H 0.3239 0.99059 0.33612 0.0
H1395 H 0.4665 0.96265 0.32012 0.0
H1396 H 0.51391 0.99247 0.30986 0.0
H1397 H 0.47012 0.09309 0.31803 0.0
H1398 H 0.42285 0.06394 0.32855 0.0
H1399 H 0.39858 0.83204 0.35442 0.0
H1400 H 0.37475 0.88289 0.34493 0.0
H1401 H 0.44767 0.95066 0.36152 0.0
H1402 H 0.47277 0.89963 0.37087 0.0
H1403 H 0.45023 0.9607 0.34001 0.0
H1404 H 0.36002 0.95469 0.36705 0.0
H1405 H 0.31533 0.9248 0.37844 0.0
H1406 H 0.2569 0.89745 0.34996 0.0
H1407 H 0.30155 0.9266 0.33838 0.0
C1408 C 0.32323 0.06868 0.31488 0.0
C1409 C 0.33217 0.06116 0.30404 0.0
C1410 C 0.33893 0.05021 0.3234 0.0
C1411 C 0.36345 0.02349 0.32125 0.0
C1412 C 0.37268 0.01617 0.31044 0.0
C1413 C 0.35725 0.03491 0.30191 0.0
C1414 C 0.37657 0.00091 0.33022 0.0
C1415 C 0.35163 0.98452 0.33707 0.0
C1416 C 0.41278 0.99316 0.33153 0.0
C1417 C 0.44081 0.01102 0.32505 0.0
C1418 C 0.46698 0.99114 0.31976 0.0
C1419 C 0.49388 0.00794 0.3139 0.0
C1420 C 0.49495 0.04465 0.31326 0.0
C1421 C 0.46916 0.06464 0.31849 0.0
C1422 C 0.44226 0.04798 0.3244 0.0
C1423 C 0.40933 0.85775 0.35621 0.0
C1424 C 0.43788 0.86162 0.36334 0.0
C1425 C 0.39548 0.88687 0.35081 0.0
C1426 C 0.40947 0.92052 0.35254 0.0
C1427 C 0.43672 0.92482 0.36005 0.0
C1428 C 0.45081 0.89563 0.36544 0.0
C1429 C 0.39764 0.95048 0.34577 0.0
C1430 C 0.42272 0.96781 0.33926 0.0
C1431 C 0.3617 0.95953 0.34487 0.0
C1432 C 0.33425 0.94276 0.35184 0.0
C1433 C 0.33772 0.94218 0.36321 0.0
C1434 C 0.31239 0.92535 0.3697 0.0
C1435 C 0.28331 0.90922 0.36493 0.0
C1436 C 0.27943 0.90998 0.35365 0.0
C1437 C 0.30472 0.9267 0.34711 0.0
H1438 H 0.26377 0.89615 0.36997 0.0
H1439 H 0.51581 0.05759 0.30872 0.0
H1440 H 0.8071 0.07232 0.55855 0.0
H1441 H 0.76582 0.0914 0.57262 0.0
H1442 H 0.76767 0.19681 0.55936 0.0
H1443 H 0.81029 0.17814 0.54551 0.0
H1444 H 0.76069 0.19686 0.58162 0.0
H1445 H 0.70571 0.13847 0.55108 0.0
H1446 H 0.69807 0.08907 0.5384 0.0
H1447 H 0.67454 0.01961 0.56514 0.0
H1448 H 0.68252 0.06851 0.57799 0.0
H1449 H 0.56811 0.23006 0.58853 0.0
H1450 H 0.61807 0.20472 0.57886 0.0
H1451 H 0.65837 0.16262 0.60888 0.0
H1452 H 0.60854 0.18891 0.61882 0.0
H1453 H 0.64745 0.13205 0.57929 0.0
H1454 H 0.77302 0.19803 0.6006 0.0
H1455 H 0.77753 0.26104 0.62685 0.0
H1456 H 0.65588 0.28532 0.61309 0.0
H1457 H 0.65949 0.24879 0.59557 0.0
C1458 C 0.79916 0.09969 0.55874 0.0
C1459 C 0.81104 0.1235 0.55073 0.0
C1460 C 0.7756 0.11057 0.56678 0.0
C1461 C 0.76297 0.14529 0.56685 0.0
C1462 C 0.77683 0.16981 0.55938 0.0
C1463 C 0.80087 0.15904 0.55142 0.0
C1464 C 0.73264 0.15487 0.57387 0.0
C1465 C 0.7359 0.18275 0.58124 0.0
C1466 C 0.70044 0.13625 0.57325 0.0
C1467 C 0.69496 0.10706 0.5655 0.0
C1468 C 0.69904 0.11262 0.55425 0.0
C1469 C 0.69466 0.08472 0.54704 0.0
C1470 C 0.68588 0.05121 0.55096 0.0
C1471 C 0.68136 0.04557 0.56211 0.0
C1472 C 0.68578 0.07337 0.56936 0.0
C1473 C 0.58725 0.21501 0.59311 0.0
C1474 C 0.58479 0.21233 0.60449 0.0
C1475 C 0.6158 0.20053 0.58755 0.0
C1476 C 0.64275 0.18345 0.59326 0.0
C1477 C 0.63851 0.17711 0.60444 0.0
C1478 C 0.60982 0.19176 0.61007 0.0
C1479 C 0.67534 0.17364 0.58734 0.0
C1480 C 0.67234 0.14594 0.57996 0.0
C1481 C 0.7079 0.19236 0.58816 0.0
C1482 C 0.71489 0.2195 0.59662 0.0
C1483 C 0.75356 0.21694 0.60358 0.0
C1484 C 0.7533 0.25811 0.62042 0.0
C1485 C 0.71209 0.2809 0.62108 0.0
C1486 C 0.68115 0.27363 0.61158 0.0
C1487 C 0.68253 0.24716 0.60059 0.0
H1488 H 0.73504 0.27138 0.62196 0.0
H1489 H 0.68253 0.02963 0.54536 0.0
H1490 H 0.73519 0.04812 0.30208 0.0
H1491 H 0.72268 0.9966 0.31916 0.0
H1492 H 0.59273 0.99906 0.31226 0.0
H1493 H 0.60166 0.05088 0.29519 0.0
H1494 H 0.60883 -0.0003 0.33375 0.0
H1495 H 0.66219 0.93084 0.30505 0.0
H1496 H 0.70934 0.91514 0.29209 0.0
H1497 H 0.78143 0.90056 0.31848 0.0
H1498 H 0.73475 0.91656 0.33159 0.0
H1499 H 0.53582 0.83552 0.34273 0.0
H1500 H 0.5694 0.88244 0.33413 0.0
H1501 H 0.64462 0.87941 0.36019 0.0
H1502 H 0.61034 0.83226 0.36918 0.0
H1503 H 0.66788 0.88325 0.33454 0.0
H1504 H 0.60691 0.93971 0.36344 0.0
H1505 H 0.55715 0.95346 0.37559 0.0
H1506 H 0.49771 0.99197 0.34846 0.0
H1507 H 0.54639 0.97677 0.33603 0.0
C1508 C 0.70904 0.03796 0.30369 0.0
C1509 C 0.66877 0.05959 0.29817 0.0
C1510 C 0.70076 0.00714 0.31462 0.0
C1511 C 0.65624 0.99389 0.31802 0.0
C1512 C 0.61876 0.00884 0.31029 0.0
C1513 C 0.6242 0.03961 0.29926 0.0
C1514 C 0.64941 0.9676 0.32666 0.0
C1515 C 0.6219 0.97432 0.33398 0.0
C1516 C 0.66718 0.9349 0.32714 0.0
C1517 C 0.69519 0.92541 0.31927 0.0
C1518 C 0.68819 0.92457 0.30807 0.0
C1519 C 0.71479 0.91557 0.3007 0.0
C1520 C 0.7484 0.90701 0.30445 0.0
C1521 C 0.75542 0.90731 0.31558 0.0
C1522 C 0.72891 0.91633 0.32299 0.0
C1523 C 0.55968 0.8443 0.34666 0.0
C1524 C 0.57017 0.8302 0.35674 0.0
C1525 C 0.5788 0.87128 0.3417 0.0
C1526 C 0.60915 0.88456 0.34659 0.0
C1527 C 0.62106 0.8695 0.35635 0.0
C1528 C 0.60148 0.84264 0.36145 0.0
C1529 C 0.6268 0.91516 0.34145 0.0
C1530 C 0.65586 0.90915 0.33464 0.0
C1531 C 0.61034 0.94855 0.3414 0.0
C1532 C 0.5803 0.95666 0.34877 0.0
C1533 C 0.58297 0.95036 0.36001 0.0
C1534 C 0.55491 0.95843 0.36696 0.0
C1535 C 0.52419 0.97335 0.36279 0.0
C1536 C 0.52138 0.98005 0.35166 0.0
C1537 C 0.54919 0.97163 0.34465 0.0
H1538 H 0.50268 0.97995 0.3682 0.0
H1539 H 0.76896 0.90004 0.29874 0.0
H1540 H 0.72303 0.97551 0.05903 0.0
H1541 H 0.78495 0.95799 0.06032 0.0
H1542 H 0.75287 0.85024 0.06578 0.0
H1543 H 0.69131 0.8675 0.06418 0.0
H1544 H 0.8131 0.9347 0.07779 0.0
H1545 H 0.81343 0.79217 0.05987 0.0
H1546 H 0.78998 0.76166 0.04385 0.0
H1547 H 0.78586 0.85967 0.02633 0.0
H1548 H 0.80978 0.89075 0.04218 0.0
H1549 H 0.87978 0.80701 0.10909 0.0
H1550 H 0.84624 0.83498 0.09477 0.0
H1551 H 0.94101 0.84952 0.07578 0.0
H1552 H 0.97552 0.82069 0.09035 0.0
H1553 H 0.86855 0.8245 0.06468 0.0
H1554 H 0.92241 0.91885 0.08438 0.0
H1555 H 0.94417 0.94617 0.10118 0.0
H1556 H 0.83962 0.9444 0.11465 0.0
H1557 H 0.81733 0.91664 0.09799 0.0
C1558 C 0.72934 0.94792 0.06013 0.0
C1559 C 0.70238 0.92275 0.06135 0.0
C1560 C 0.7647 0.93795 0.06089 0.0
C1561 C 0.77374 0.90269 0.06297 0.0
C1562 C 0.7468 0.87741 0.06383 0.0
C1563 C 0.71154 0.88732 0.06301 0.0
C1564 C 0.81031 0.89299 0.06602 0.0
C1565 C 0.82574 0.91124 0.07466 0.0
C1566 C 0.8272 0.86257 0.06189 0.0
C1567 C 0.81343 0.84384 0.05224 0.0
C1568 C 0.80786 0.80721 0.05257 0.0
C1569 C 0.79438 0.78981 0.04353 0.0
C1570 C 0.78642 0.80872 0.03408 0.0
C1571 C 0.79198 0.84506 0.03366 0.0
C1572 C 0.80546 0.86259 0.04268 0.0
C1573 C 0.89373 0.81606 0.10189 0.0
C1574 C 0.93044 0.81248 0.10095 0.0
C1575 C 0.8744 0.83177 0.09367 0.0
C1576 C 0.89123 0.84461 0.08432 0.0
C1577 C 0.92768 0.83971 0.08299 0.0
C1578 C 0.94729 0.82346 0.09129 0.0
C1579 C 0.86985 0.86546 0.07663 0.0
C1580 C 0.85689 0.84909 0.0673 0.0
C1581 C 0.85523 0.89778 0.08003 0.0
C1582 C 0.8682 0.91579 0.08991 0.0
C1583 C 0.90407 0.92429 0.09092 0.0
C1584 C 0.9165 0.93982 0.10043 0.0
C1585 C 0.89328 0.94707 0.10897 0.0
C1586 C 0.85756 0.93889 0.10801 0.0
C1587 C 0.84499 0.92336 0.09853 0.0
H1588 H 0.90298 0.95899 0.11633 0.0
H1589 H 0.77595 0.7952 0.02709 0.0
H1590 H 0.81913 0.00059 0.79139 0.0
H1591 H 0.81937 0.02529 0.80971 0.0
H1592 H 0.92562 0.98829 0.81426 0.0
H1593 H 0.9254 0.96331 0.79597 0.0
H1594 H 0.8837 0.98759 0.8339 0.0
H1595 H 0.91604 0.06533 0.80374 0.0
H1596 H 0.90496 0.09368 0.78601 0.0
H1597 H 0.81062 0.14065 0.7987 0.0
H1598 H 0.82087 0.11201 0.81647 0.0
H1599 H 0.97695 0.11634 0.86347 0.0
H1600 H 0.95016 0.06999 0.85265 0.0
H1601 H 0.85665 0.13329 0.84883 0.0
H1602 H 0.88398 0.18029 0.85931 0.0
H1603 H 0.88111 0.11769 0.83011 0.0
H1604 H 0.85522 0.05002 0.86157 0.0
H1605 H 0.86577 0.02159 0.8793 0.0
H1606 H 0.94568 0.95649 0.86499 0.0
H1607 H 0.93592 0.9848 0.84718 0.0
C1608 C 0.8421 0.99679 0.79644 0.0
C1609 C 0.87224 0.9801 0.79228 0.0
C1610 C 0.84218 0.01081 0.80689 0.0
C1611 C 0.8726 0.00879 0.81329 0.0
C1612 C 0.90181 0.98988 0.80948 0.0
C1613 C 0.90173 0.9758 0.79902 0.0
C1614 C 0.87629 0.03137 0.82297 0.0
C1615 C 0.88314 0.01605 0.83315 0.0
C1616 C 0.87474 0.06844 0.82198 0.0
C1617 C 0.86899 0.08624 0.81138 0.0
C1618 C 0.89282 0.08153 0.80272 0.0
C1619 C 0.8867 0.09765 0.79267 0.0
C1620 C 0.85706 0.11889 0.79122 0.0
C1621 C 0.83354 0.12414 0.79983 0.0
C1622 C 0.83948 0.10796 0.80989 0.0
C1623 C 0.95022 0.11987 0.86063 0.0
C1624 C 0.93271 0.15206 0.86209 0.0
C1625 C 0.93481 0.09325 0.85447 0.0
C1626 C 0.90136 0.09813 0.84988 0.0
C1627 C 0.88257 0.12901 0.85222 0.0
C1628 C 0.89819 0.15584 0.85821 0.0
C1629 C 0.88884 0.07418 0.84122 0.0
C1630 C 0.8807 0.08928 0.8311 0.0
C1631 C 0.88907 0.03704 0.84235 0.0
C1632 C 0.89495 0.01971 0.85303 0.0
C1633 C 0.87521 0.0298 0.86221 0.0
C1634 C 0.88103 0.01368 0.87228 0.0
C1635 C 0.90644 0.9873 0.87328 0.0
C1636 C 0.92601 0.97692 0.8642 0.0
C1637 C 0.92028 0.99295 0.85411 0.0
H1638 H 0.91092 0.97487 0.88108 0.0
H1639 H 0.85235 0.13134 0.78343 0.0
H1640 H 0.85099 0.98621 0.4305 0.0
H1641 H 0.80447 0.95993 0.41947 0.0
H1642 H 0.75012 0.92651 0.44864 0.0
H1643 H 0.79682 0.95224 0.45968 0.0
H1644 H 0.74825 0.87594 0.43337 0.0
H1645 H 0.72659 0.0013 0.43505 0.0
H1646 H 0.74247 0.06383 0.4326 0.0
H1647 H 0.75761 0.04742 0.39841 0.0
H1648 H 0.74229 0.98462 0.4007 0.0
H1649 H 0.57464 0.85333 0.42032 0.0
H1650 H 0.62649 0.88425 0.42697 0.0
H1651 H 0.66622 0.89391 0.39419 0.0
H1652 H 0.61366 0.86297 0.38745 0.0
H1653 H 0.68048 0.95409 0.40867 0.0
H1654 H 0.69637 0.82885 0.40701 0.0
H1655 H 0.67881 0.76689 0.40984 0.0
H1656 H 0.67337 0.78345 0.44427 0.0
H1657 H 0.69063 0.84559 0.44164 0.0
C1658 C 0.82938 0.97274 0.43453 0.0
C1659 C 0.82774 0.97088 0.44594 0.0
C1660 C 0.80274 0.95795 0.42824 0.0
C1661 C 0.77367 0.94154 0.43323 0.0
C1662 C 0.77237 0.93893 0.44461 0.0
C1663 C 0.79903 0.95362 0.45091 0.0
C1664 C 0.74377 0.92832 0.4267 0.0
C1665 C 0.73341 0.89307 0.428 0.0
C1666 C 0.72491 0.95042 0.41946 0.0
C1667 C 0.73367 0.98822 0.41806 0.0
C1668 C 0.73353 0.01099 0.42703 0.0
C1669 C 0.7424 0.04647 0.42567 0.0
C1670 C 0.75114 0.05957 0.41536 0.0
C1671 C 0.7509 0.03722 0.40639 0.0
C1672 C 0.74211 0.00169 0.40771 0.0
C1673 C 0.5938 0.86327 0.41449 0.0
C1674 C 0.59033 0.85594 0.4034 0.0
C1675 C 0.62349 0.88063 0.4183 0.0
C1676 C 0.65046 0.89059 0.41109 0.0
C1677 C 0.64568 0.8862 0.39986 0.0
C1678 C 0.61564 0.86883 0.39602 0.0
C1679 C 0.68466 0.90207 0.41555 0.0
C1680 C 0.69578 0.93687 0.41388 0.0
C1681 C 0.70425 0.87958 0.42247 0.0
C1682 C 0.69452 0.84199 0.42411 0.0
C1683 C 0.69122 0.81934 0.41518 0.0
C1684 C 0.68134 0.78418 0.41675 0.0
C1685 C 0.67478 0.77131 0.42722 0.0
C1686 C 0.6783 0.79351 0.43615 0.0
C1687 C 0.68827 0.82867 0.43463 0.0
H1688 H 0.66717 0.74409 0.42842 0.0
H1689 H 0.75802 0.08705 0.41433 0.0
H1690 H 0.78995 0.01946 0.21623 0.0
H1691 H 0.80883 0.97289 0.20391 0.0
H1692 H 0.90904 0.96745 0.22019 0.0
H1693 H 0.89078 0.01517 0.23223 0.0
H1694 H 0.91874 0.96528 0.19918 0.0
H1695 H 0.84152 0.90467 0.2244 0.0
H1696 H 0.78587 0.89524 0.23445 0.0
H1697 H 0.73046 0.88394 0.20436 0.0
H1698 H 0.78571 0.89375 0.19414 0.0
H1699 H 0.96717 0.79681 0.17648 0.0
H1700 H 0.94101 0.83169 0.19127 0.0
H1701 H 0.86974 0.88006 0.16857 0.0
H1702 H 0.89641 0.84744 0.15382 0.0
H1703 H 0.84659 0.85772 0.19362 0.0
H1704 H 0.91585 0.92938 0.16696 0.0
H1705 H 0.96856 0.92318 0.15155 0.0
H1706 H 0.05084 0.90601 0.1905 0.0
H1707 H 0.98456 0.91364 0.2006 0.0
C1708 C 0.81597 0.00825 0.21719 0.0
C1709 C 0.83869 0.02051 0.22531 0.0
C1710 C 0.82665 0.9815 0.2102 0.0
C1711 C 0.86005 0.96609 0.21129 0.0
C1712 C 0.88303 0.97872 0.21927 0.0
C1713 C 0.87252 0.0058 0.22618 0.0
C1714 C 0.87142 0.93741 0.20394 0.0
C1715 C 0.90302 0.94171 0.19811 0.0
C1716 C 0.85083 0.90668 0.20236 0.0
C1717 C 0.81772 0.90016 0.20851 0.0
C1718 C 0.81744 0.90032 0.21993 0.0
C1719 C 0.78597 0.8949 0.22566 0.0
C1720 C 0.75464 0.88904 0.22005 0.0
C1721 C 0.75475 0.88847 0.2087 0.0
C1722 C 0.78614 0.89391 0.20293 0.0
C1723 C 0.94592 0.81483 0.17464 0.0
C1724 C 0.93529 0.82055 0.16384 0.0
C1725 C 0.93065 0.83433 0.18313 0.0
C1726 C 0.90412 0.85909 0.18091 0.0
C1727 C 0.89068 0.86162 0.17039 0.0
C1728 C 0.90641 0.84309 0.16193 0.0
C1729 C 0.89359 0.8858 0.18902 0.0
C1730 C 0.86218 0.88129 0.19487 0.0
C1731 C 0.91386 0.91664 0.19056 0.0
C1732 C 0.94666 0.92241 0.18441 0.0
C1733 C 0.94219 0.92541 0.17 0.0
C1734 C 0.97562 0.9212 0.16002 0.0
C1735 C 0.02044 0.91352 0.16346 0.0
C1736 C 0.02779 0.91018 0.18536 0.0
C1737 C 0.98609 0.91598 0.19185 0.0
H1738 H 0.03904 0.91126 0.15684 0.0
H1739 H 0.7303 0.8849 0.22449 0.0
H1740 H 0.75252 0.05774 0.96876 0.0
H1741 H 0.79533 0.07012 0.95428 0.0
H1742 H 0.72989 0.1545 0.94244 0.0
H1743 H 0.68731 0.14287 0.95705 0.0
H1744 H 0.77169 0.10589 0.92563 0.0
H1745 H 0.78109 0.1849 0.95694 0.0
H1746 H 0.78274 0.1945 0.97673 0.0
H1747 H 0.87267 0.12656 0.97928 0.0
H1748 H 0.87107 0.11606 0.95952 0.0
H1749 H 0.89858 0.2135 0.89859 0.0
H1750 H 0.8491 0.18817 0.90873 0.0
H1751 H 0.92176 0.13856 0.93093 0.0
H1752 H 0.97111 0.16527 0.9211 0.0
H1753 H 0.87419 0.16647 0.942 0.0
H1754 H 0.87138 0.09234 0.91085 0.0
H1755 H 0.87037 0.07875 0.8913 0.0
H1756 H 0.77096 0.13149 0.88818 0.0
H1757 H 0.77166 0.14595 0.9077 0.0
C1758 C 0.74678 0.07822 0.96287 0.0
C1759 C 0.71644 0.09906 0.96397 0.0
C1760 C 0.77112 0.08516 0.9546 0.0
C1761 C 0.76547 0.11299 0.94728 0.0
C1762 C 0.73428 0.13255 0.94792 0.0
C1763 C 0.7101 0.12594 0.95629 0.0
C1764 C 0.79474 0.12543 0.94033 0.0
C1765 C 0.79405 0.11946 0.92911 0.0
C1766 C 0.82406 0.14227 0.945 0.0
C1767 C 0.82575 0.14944 0.9568 0.0
C1768 C 0.80105 0.17184 0.96174 0.0
C1769 C 0.80198 0.17745 0.97295 0.0
C1770 C 0.82775 0.16109 0.97927 0.0
C1771 C 0.85271 0.13919 0.97438 0.0
C1772 C 0.85181 0.1334 0.96318 0.0
C1773 C 0.90388 0.19698 0.90559 0.0
C1774 C 0.93855 0.19137 0.9091 0.0
C1775 C 0.87562 0.18229 0.91135 0.0
C1776 C 0.88161 0.161 0.92054 0.0
C1777 C 0.91639 0.15494 0.9239 0.0
C1778 C 0.94457 0.17022 0.91829 0.0
C1779 C 0.85177 0.14698 0.92712 0.0
C1780 C 0.8522 0.15271 0.93837 0.0
C1781 C 0.82253 0.12959 0.92243 0.0
C1782 C 0.82169 0.12043 0.91073 0.0
C1783 C 0.84938 0.1012 0.90599 0.0
C1784 C 0.84886 0.09333 0.89491 0.0
C1785 C 0.82064 0.10427 0.8885 0.0
C1786 C 0.79281 0.12303 0.89316 0.0
C1787 C 0.79324 0.13105 0.90423 0.0
H1788 H 0.82032 0.09817 0.87992 0.0
H1789 H 0.82842 0.16544 0.98794 0.0
H1790 H 0.76606 0.98154 0.70807 0.0
H1791 H 0.76471 0.03174 0.69015 0.0
H1792 H 0.63375 0.02111 0.6873 0.0
H1793 H 0.63134 0.97076 0.70502 0.0
H1794 H 0.68129 0.01692 0.66596 0.0
H1795 H 0.67453 0.08754 0.69933 0.0
H1796 H 0.69897 0.10877 0.71661 0.0
H1797 H 0.79107 0.14675 0.69983 0.0
H1798 H 0.76729 0.1253 0.68245 0.0
H1799 H 0.57002 0.14451 0.65049 0.0
H1800 H 0.60969 0.09987 0.65703 0.0
H1801 H 0.69705 0.17224 0.65391 0.0
H1802 H 0.6561 0.21848 0.64767 0.0
H1803 H 0.69783 0.14422 0.67311 0.0
H1804 H 0.69393 0.09191 0.63892 0.0
H1805 H 0.66918 0.07206 0.62155 0.0
H1806 H 0.60185 0.99912 0.63853 0.0
H1807 H 0.62563 0.01889 0.65603 0.0
C1808 C 0.7415 0.9898 0.70445 0.0
C1809 C 0.69925 0.96599 0.70708 0.0
C1810 C 0.74057 0.01955 0.69298 0.0
C1811 C 0.69954 0.02966 0.68631 0.0
C1812 C 0.65785 0.0129 0.6912 0.0
C1813 C 0.65586 0.98313 0.70259 0.0
C1814 C 0.69835 0.05561 0.67742 0.0
C1815 C 0.68527 0.04479 0.66738 0.0
C1816 C 0.70523 0.09161 0.6792 0.0
C1817 C 0.71942 0.10436 0.68964 0.0
C1818 C 0.70015 0.10009 0.69935 0.0
C1819 C 0.71384 0.11224 0.70915 0.0
C1820 C 0.74663 0.12897 0.70932 0.0
C1821 C 0.76573 0.13369 0.69969 0.0
C1822 C 0.75217 0.12154 0.68986 0.0
C1823 C 0.59778 0.15092 0.65097 0.0
C1824 C 0.60987 0.18516 0.64874 0.0
C1825 C 0.6207 0.12503 0.65458 0.0
C1826 C 0.65667 0.13226 0.65584 0.0
C1827 C 0.66944 0.16593 0.65295 0.0
C1828 C 0.64614 0.19225 0.64934 0.0
C1829 C 0.6787 0.10592 0.66168 0.0
C1830 C 0.69552 0.11643 0.67127 0.0
C1831 C 0.67595 0.06948 0.65936 0.0
C1832 C 0.66179 0.05685 0.64883 0.0
C1833 C 0.67379 0.07169 0.63897 0.0
C1834 C 0.65989 0.06046 0.62909 0.0
C1835 C 0.63401 0.0343 0.62893 0.0
C1836 C 0.62199 0.01929 0.63866 0.0
C1837 C 0.63577 0.03043 0.64857 0.0
H1838 H 0.62325 0.02568 0.62128 0.0
H1839 H 0.75717 0.13838 0.71692 0.0
H1840 H 0.75614 0.45003 0.96932 0.0
H1841 H 0.79751 0.41229 0.95947 0.0
H1842 H 0.73462 0.42224 0.93058 0.0
H1843 H 0.69351 0.46067 0.9403 0.0
H1844 H 0.76567 0.3497 0.93591 0.0
H1845 H 0.79516 0.47313 0.93062 0.0
H1846 H 0.80657 0.53316 0.93725 0.0
H1847 H 0.8926 0.49467 0.95642 0.0
H1848 H 0.88123 0.43425 0.95006 0.0
H1849 H 0.8994 0.30765 0.89656 0.0
H1850 H 0.85001 0.33326 0.90665 0.0
H1851 H 0.91692 0.34739 0.93448 0.0
H1852 H 0.9663 0.32196 0.92452 0.0
H1853 H 0.88162 0.40684 0.92941 0.0
H1854 H 0.85562 0.28608 0.93554 0.0
H1855 H 0.8443 0.22404 0.93125 0.0
H1856 H 0.75402 0.25379 0.91248 0.0
H1857 H 0.76506 0.31637 0.9166 0.0
C1858 C 0.75072 0.44348 0.96094 0.0
C1859 C 0.72138 0.4579 0.95563 0.0
C1860 C 0.77431 0.42199 0.95534 0.0
C1861 C 0.76893 0.41451 0.94434 0.0
C1862 C 0.73889 0.42749 0.93911 0.0
C1863 C 0.71549 0.44942 0.94467 0.0
C1864 C 0.79674 0.39653 0.93805 0.0
C1865 C 0.79086 0.36226 0.93431 0.0
C1866 C 0.82981 0.41274 0.93629 0.0
C1867 C 0.83712 0.44914 0.93995 0.0
C1868 C 0.81632 0.47743 0.93632 0.0
C1869 C 0.8228 0.51152 0.94002 0.0
C1870 C 0.85024 0.51771 0.94727 0.0
C1871 C 0.87132 0.48983 0.95081 0.0
C1872 C 0.86488 0.45566 0.94716 0.0
C1873 C 0.90357 0.31611 0.90484 0.0
C1874 C 0.93688 0.31299 0.90971 0.0
C1875 C 0.87527 0.3305 0.91061 0.0
C1876 C 0.87984 0.34212 0.92131 0.0
C1877 C 0.91289 0.33861 0.92622 0.0
C1878 C 0.94107 0.32402 0.92051 0.0
C1879 C 0.8508 0.35975 0.92723 0.0
C1880 C 0.85641 0.39415 0.93091 0.0
C1881 C 0.81774 0.34338 0.92905 0.0
C1882 C 0.81144 0.30596 0.92627 0.0
C1883 C 0.8336 0.27948 0.93039 0.0
C1884 C 0.82714 0.24416 0.92802 0.0
C1885 C 0.79848 0.23488 0.92157 0.0
C1886 C 0.77624 0.261 0.91747 0.0
C1887 C 0.78256 0.29642 0.91983 0.0
H1888 H 0.79344 0.20747 0.91979 0.0
H1889 H 0.85522 0.54413 0.95013 0.0
H1890 H 0.82306 0.49797 0.21963 0.0
H1891 H 0.84727 0.54369 0.20767 0.0
H1892 H 0.84019 0.47304 0.18044 0.0
H1893 H 0.81442 0.42787 0.19231 0.0
H1894 H 0.90371 0.54953 0.19667 0.0
H1895 H 0.82742 0.5189 0.15698 0.0
H1896 H 0.76975 0.49521 0.15145 0.0
H1897 H 0.72476 0.52617 0.18201 0.0
H1898 H 0.78199 0.55047 0.18765 0.0
H1899 H 0.98377 0.64862 0.15454 0.0
H1900 H 0.95814 0.59924 0.16474 0.0
H1901 H 0.85723 0.65132 0.16488 0.0
H1902 H 0.8822 0.70005 0.15447 0.0
H1903 H 0.84706 0.58438 0.16203 0.0
H1904 H 0.91218 0.65429 0.18707 0.0
H1905 H 0.96423 0.68533 0.19417 0.0
H1906 H 0.02077 0.58754 0.1955 0.0
H1907 H 0.96948 0.55622 0.18839 0.0
C1908 C 0.82691 0.49219 0.2111 0.0
C1909 C 0.81755 0.45911 0.20697 0.0
C1910 C 0.84073 0.51829 0.20427 0.0
C1911 C 0.84546 0.51196 0.19312 0.0
C1912 C 0.83636 0.47881 0.18897 0.0
C1913 C 0.82204 0.45282 0.19579 0.0
C1914 C 0.86016 0.54006 0.18593 0.0
C1915 C 0.89128 0.55701 0.18909 0.0
C1916 C 0.84369 0.55051 0.17612 0.0
C1917 C 0.80912 0.5361 0.17278 0.0
C1918 C 0.80519 0.52072 0.1625 0.0
C1919 C 0.77258 0.50718 0.15935 0.0
C1920 C 0.74365 0.50906 0.16639 0.0
C1921 C 0.74723 0.52459 0.17658 0.0
C1922 C 0.77976 0.5382 0.17977 0.0
C1923 C 0.95608 0.64944 0.15667 0.0
C1924 C 0.93517 0.6785 0.15375 0.0
C1925 C 0.94146 0.62122 0.16253 0.0
C1926 C 0.90581 0.62174 0.16571 0.0
C1927 C 0.88474 0.65023 0.16252 0.0
C1928 C 0.8992 0.67824 0.1566 0.0
C1929 C 0.8907 0.5935 0.17276 0.0
C1930 C 0.85955 0.57659 0.16957 0.0
C1931 C 0.90624 0.58406 0.18277 0.0
C1932 C 0.93715 0.60298 0.18711 0.0
C1933 C 0.93588 0.63952 0.18883 0.0
C1934 C 0.96526 0.65718 0.19289 0.0
C1935 C 0.99592 0.63851 0.19531 0.0
C1936 C 0.9972 0.60215 0.19368 0.0
C1937 C 0.96796 0.58438 0.18964 0.0
H1938 H 0.01858 0.65227 0.19847 0.0
H1939 H 0.71843 0.49856 0.16394 0.0
H1940 H 0.84591 0.65811 0.44901 0.0
H1941 H 0.80284 0.65822 0.43428 0.0
H1942 H 0.73007 0.6 0.45464 0.0
H1943 H 0.77363 0.59837 0.46913 0.0
H1944 H 0.72781 0.57439 0.43545 0.0
H1945 H 0.72461 0.6917 0.44985 0.0
H1946 H 0.74677 0.7502 0.45508 0.0
H1947 H 0.77809 0.77092 0.42209 0.0
H1948 H 0.75667 0.71226 0.41669 0.0
H1949 H 0.56181 0.63979 0.41717 0.0
H1950 H 0.61516 0.61561 0.42539 0.0
H1951 H 0.67652 0.65398 0.39818 0.0
H1952 H 0.62299 0.67764 0.38989 0.0
H1953 H 0.69055 0.68632 0.4181 0.0
H1954 H 0.68222 0.57022 0.40386 0.0
H1955 H 0.65327 0.51397 0.39952 0.0
H1956 H 0.63614 0.49351 0.43349 0.0
H1957 H 0.66452 0.54989 0.43803 0.0
C1958 C 0.82069 0.64539 0.45032 0.0
C1959 C 0.8129 0.62872 0.46028 0.0
C1960 C 0.79605 0.64555 0.44192 0.0
C1961 C 0.76296 0.62954 0.44339 0.0
C1962 C 0.75537 0.61255 0.4533 0.0
C1963 C 0.78012 0.61194 0.46162 0.0
C1964 C 0.73597 0.63057 0.43471 0.0
C1965 C 0.71953 0.59892 0.4317 0.0
C1966 C 0.72571 0.66244 0.4296 0.0
C1967 C 0.73964 0.69729 0.43291 0.0
C1968 C 0.73672 0.7085 0.44374 0.0
C1969 C 0.74909 0.74171 0.44673 0.0
C1970 C 0.76411 0.76414 0.43894 0.0
C1971 C 0.76674 0.7534 0.42813 0.0
C1972 C 0.75451 0.72016 0.42511 0.0
C1973 C 0.58634 0.64093 0.41264 0.0
C1974 C 0.58849 0.66004 0.40288 0.0
C1975 C 0.61686 0.62736 0.41736 0.0
C1976 C 0.64978 0.63325 0.41241 0.0
C1977 C 0.65133 0.64906 0.40208 0.0
C1978 C 0.62076 0.66226 0.39732 0.0
C1979 C 0.68205 0.63031 0.41902 0.0
C1980 C 0.69939 0.6617 0.42168 0.0
C1981 C 0.69246 0.59841 0.42398 0.0
C1982 C 0.67534 0.56444 0.42128 0.0
C1983 C 0.67202 0.55388 0.4104 0.0
C1984 C 0.65576 0.52193 0.40791 0.0
C1985 C 0.64283 0.5002 0.41622 0.0
C1986 C 0.64618 0.51036 0.42705 0.0
C1987 C 0.6624 0.5423 0.42959 0.0
H1988 H 0.63025 0.47547 0.41427 0.0
H1989 H 0.77341 0.78995 0.44125 0.0
H1990 H 0.65856 0.61241 0.68693 0.0
H1991 H 0.65624 0.55798 0.67648 0.0
H1992 H 0.63594 0.49887 0.70591 0.0
H1993 H 0.63904 0.55335 0.71645 0.0
H1994 H 0.67855 0.46211 0.69222 0.0
H1995 H 0.56777 0.52095 0.69018 0.0
H1996 H 0.52697 0.57047 0.68715 0.0
H1997 H 0.56219 0.57916 0.65403 0.0
H1998 H 0.60353 0.52988 0.65691 0.0
H1999 H 0.57601 0.31895 0.67413 0.0
H2000 H 0.6034 0.37061 0.6823 0.0
H2001 H 0.61833 0.41678 0.65048 0.0
H2002 H 0.59049 0.36569 0.64229 0.0
H2003 H 0.58864 0.46181 0.66317 0.0
H2004 H 0.68914 0.39049 0.6657 0.0
H2005 H 0.72484 0.33785 0.66963 0.0
H2006 H 0.70135 0.3475 0.70364 0.0
H2007 H 0.66499 0.39991 0.6999 0.0
C2008 C 0.65426 0.58773 0.69119 0.0
C2009 C 0.64902 0.58707 0.7025 0.0
C2010 C 0.65282 0.55667 0.68522 0.0
C2011 C 0.64551 0.52443 0.6904 0.0
C2012 C 0.64171 0.52345 0.70175 0.0
C2013 C 0.64335 0.55453 0.70775 0.0
C2014 C 0.63898 0.4924 0.6839 0.0
C2015 C 0.65839 0.4617 0.68602 0.0
C2016 C 0.61346 0.49223 0.67558 0.0
C2017 C 0.5891 0.52216 0.67381 0.0
C2018 C 0.56708 0.5337 0.68229 0.0
C2019 C 0.5438 0.56164 0.68059 0.0
C2020 C 0.54211 0.57806 0.67042 0.0
C2021 C 0.56363 0.56649 0.66191 0.0
C2022 C 0.58698 0.53855 0.66357 0.0
C2023 C 0.58549 0.3399 0.66887 0.0
C2024 C 0.58084 0.33824 0.65757 0.0
C2025 C 0.60145 0.36931 0.67354 0.0
C2026 C 0.61336 0.39742 0.66699 0.0
C2027 C 0.60949 0.39539 0.65569 0.0
C2028 C 0.59342 0.36615 0.65103 0.0
C2029 C 0.62618 0.43043 0.67201 0.0
C2030 C 0.60852 0.46178 0.66946 0.0
C2031 C 0.65228 0.4306 0.68018 0.0
C2032 C 0.67409 0.39904 0.6825 0.0
C2033 C 0.69131 0.38124 0.67401 0.0
C2034 C 0.71172 0.35146 0.6762 0.0
C2035 C 0.71531 0.3393 0.68687 0.0
C2036 C 0.69853 0.35694 0.69537 0.0
C2037 C 0.67804 0.38673 0.69322 0.0
H2038 H 0.73114 0.31625 0.68856 0.0
H2039 H 0.52404 0.59967 0.66911 0.0
H2040 H 0.67579 0.58993 0.07632 0.0
H2041 H 0.73135 0.59612 0.08603 0.0
H2042 H 0.78215 0.63249 0.0566 0.0
H2043 H 0.72632 0.62621 0.04679 0.0
H2044 H 0.82593 0.58746 0.06998 0.0
H2045 H 0.75685 0.6921 0.07241 0.0
H2046 H 0.70313 0.72705 0.07556 0.0
H2047 H 0.69867 0.69033 0.10861 0.0
H2048 H 0.75209 0.65468 0.10559 0.0
H2049 H 0.95999 0.68852 0.0979 0.0
H2050 H 0.91733 0.65977 0.08599 0.0
H2051 H 0.85222 0.63481 0.11386 0.0
H2052 H 0.89413 0.66472 0.12564 0.0
H2053 H 0.81786 0.67396 0.0999 0.0
H2054 H 0.89095 0.57031 0.09706 0.0
H2055 H 0.94598 0.53819 0.09322 0.0
H2056 H 0.9454 0.57669 0.06035 0.0
H2057 H 0.8906 0.60943 0.06403 0.0
C2058 C 0.69898 0.5984 0.07185 0.0
C2059 C 0.6968 0.60721 0.06077 0.0
C2060 C 0.73068 0.602 0.0774 0.0
C2061 C 0.7608 0.61487 0.07204 0.0
C2062 C 0.75925 0.62225 0.06086 0.0
C2063 C 0.7274 0.6187 0.05528 0.0
C2064 C 0.79245 0.62403 0.07843 0.0
C2065 C 0.82441 0.60657 0.07647 0.0
C2066 C 0.79034 0.64896 0.08688 0.0
C2067 C 0.75824 0.67042 0.08874 0.0
C2068 C 0.74422 0.69121 0.08032 0.0
C2069 C 0.71387 0.7112 0.08209 0.0
C2070 C 0.69744 0.71083 0.09227 0.0
C2071 C 0.71139 0.69054 0.10072 0.0
C2072 C 0.74172 0.67045 0.09899 0.0
C2073 C 0.93739 0.67534 0.10149 0.0
C2074 C 0.93027 0.67852 0.11265 0.0
C2075 C 0.91292 0.65905 0.09469 0.0
C2076 C 0.88137 0.64531 0.09901 0.0
C2077 C 0.87623 0.64539 0.11032 0.0
C2078 C 0.90029 0.66216 0.11707 0.0
C2079 C 0.85136 0.6364 0.09182 0.0
C2080 C 0.81958 0.65448 0.09351 0.0
C2081 C 0.854 0.61243 0.08308 0.0
C2082 C 0.88682 0.59257 0.08085 0.0
C2083 C 0.90269 0.57215 0.08904 0.0
C2084 C 0.93382 0.55378 0.08688 0.0
C2085 C 0.94922 0.55546 0.07655 0.0
C2086 C 0.93346 0.57543 0.06835 0.0
C2087 C 0.90234 0.59386 0.07046 0.0
H2088 H 0.97332 0.54124 0.07491 0.0
H2089 H 0.67395 0.72635 0.09363 0.0
H2090 H 0.6922 0.48826 0.29757 0.0
H2091 H 0.68457 0.53645 0.31052 0.0
H2092 H 0.58186 0.49605 0.31919 0.0
H2093 H 0.58915 0.44828 0.30616 0.0
H2094 H 0.57969 0.56456 0.31453 0.0
H2095 H 0.65216 0.48782 0.33642 0.0
H2096 H 0.70507 0.45235 0.34025 0.0
H2097 H 0.76989 0.5446 0.33708 0.0
H2098 H 0.71739 0.58054 0.3331 0.0
H2099 H 0.57468 0.64893 0.37015 0.0
H2100 H 0.60204 0.60427 0.35855 0.0
H2101 H 0.60084 0.67716 0.33151 0.0
H2102 H 0.57179 0.72102 0.34292 0.0
H2103 H 0.65849 0.5936 0.34523 0.0
H2104 H 0.57627 0.64594 0.31147 0.0
H2105 H 0.52051 0.67715 0.30773 0.0
H2106 H 0.47228 0.62628 0.33526 0.0
H2107 H 0.52779 0.5954 0.33928 0.0
C2108 C 0.66821 0.48951 0.30235 0.0
C2109 C 0.64138 0.46437 0.30095 0.0
C2110 C 0.66395 0.51691 0.30976 0.0
C2111 C 0.63281 0.51959 0.31589 0.0
C2112 C 0.60615 0.49436 0.31456 0.0
C2113 C 0.61035 0.46707 0.30715 0.0
C2114 C 0.62671 0.54992 0.32315 0.0
C2115 C 0.59708 0.57087 0.32121 0.0
C2116 C 0.6494 0.55832 0.33185 0.0
C2117 C 0.68089 0.5368 0.33437 0.0
C2118 C 0.67773 0.50049 0.33647 0.0
C2119 C 0.70764 0.48031 0.33868 0.0
C2120 C 0.74083 0.4962 0.33888 0.0
C2121 C 0.74417 0.53233 0.33691 0.0
C2122 C 0.71434 0.55262 0.33469 0.0
C2123 C 0.58127 0.65568 0.36181 0.0
C2124 C 0.57091 0.68814 0.35735 0.0
C2125 C 0.5968 0.63016 0.35519 0.0
C2126 C 0.60253 0.63707 0.34409 0.0
C2127 C 0.59567 0.67091 0.33997 0.0
C2128 C 0.57941 0.69605 0.3465 0.0
C2129 C 0.61139 0.60793 0.3366 0.0
C2130 C 0.64147 0.58734 0.33847 0.0
C2131 C 0.58907 0.59947 0.32783 0.0
C2132 C 0.55605 0.6187 0.3257 0.0
C2133 C 0.55369 0.6416 0.31673 0.0
C2134 C 0.52219 0.65929 0.3146 0.0
C2135 C 0.49283 0.65379 0.32129 0.0
C2136 C 0.49501 0.63075 0.33016 0.0
C2137 C 0.52652 0.61331 0.33241 0.0
H2138 H 0.46838 0.6673 0.31958 0.0
H2139 H 0.76396 0.48053 0.34059 0.0
H2140 H 0.76701 0.31833 0.543 0.0
H2141 H 0.73641 0.30888 0.56019 0.0
H2142 H 0.82831 0.34307 0.57755 0.0
H2143 H 0.85946 0.3529 0.5604 0.0
H2144 H 0.75319 0.2736 0.58251 0.0
H2145 H 0.79913 0.41231 0.59243 0.0
H2146 H 0.81953 0.46635 0.58305 0.0
H2147 H 0.75582 0.44116 0.55546 0.0
H2148 H 0.73461 0.38742 0.56475 0.0
H2149 H 0.63704 0.35697 0.62653 0.0
H2150 H 0.69782 0.36003 0.61943 0.0
H2151 H 0.66023 0.33086 0.58773 0.0
H2152 H 0.59989 0.32992 0.59456 0.0
H2153 H 0.72747 0.39198 0.5972 0.0
H2154 H 0.68111 0.21524 0.61718 0.0
H2155 H 0.7261 0.20573 0.61937 0.0
H2156 H 0.83536 0.24066 0.61108 0.0
H2157 H 0.80071 0.28958 0.59984 0.0
C2158 C 0.78111 0.32379 0.5504 0.0
C2159 C 0.81529 0.33861 0.55023 0.0
C2160 C 0.76356 0.31767 0.56027 0.0
C2161 C 0.77991 0.32585 0.5701 0.0
C2162 C 0.81513 0.33695 0.57001 0.0
C2163 C 0.8327 0.34301 0.56019 0.0
C2164 C 0.75868 0.32935 0.58014 0.0
C2165 C 0.74582 0.29928 0.58559 0.0
C2166 C 0.75381 0.36288 0.58478 0.0
C2167 C 0.76576 0.3956 0.57922 0.0
C2168 C 0.78944 0.4184 0.58437 0.0
C2169 C 0.80112 0.44897 0.57907 0.0
C2170 C 0.78913 0.45709 0.56864 0.0
C2171 C 0.76524 0.43477 0.56351 0.0
C2172 C 0.75341 0.40424 0.56879 0.0
C2173 C 0.64175 0.35316 0.61793 0.0
C2174 C 0.61411 0.34283 0.61108 0.0
C2175 C 0.6764 0.35438 0.61394 0.0
C2176 C 0.68337 0.34344 0.60327 0.0
C2177 C 0.65526 0.33791 0.59612 0.0
C2178 C 0.62077 0.33797 0.59998 0.0
C2179 C 0.71939 0.33628 0.59938 0.0
C2180 C 0.73458 0.36587 0.59439 0.0
C2181 C 0.72884 0.30165 0.59582 0.0
C2182 C 0.73987 0.27225 0.6038 0.0
C2183 C 0.71248 0.22069 0.61584 0.0
C2184 C 0.74753 0.19547 0.62178 0.0
C2185 C 0.79003 0.206 0.61922 0.0
C2186 C 0.80694 0.23921 0.61146 0.0
C2187 C 0.78521 0.27037 0.60431 0.0
H2188 H 0.80925 0.18923 0.62311 0.0
H2189 H 0.79825 0.48073 0.56455 0.0
H2190 H 0.82484 0.6089 0.81974 0.0
H2191 H 0.84919 0.56826 0.83329 0.0
H2192 H 0.87268 0.49362 0.80807 0.0
H2193 H 0.84949 0.53454 0.7944 0.0
H2194 H 0.82286 0.47725 0.82946 0.0
H2195 H 0.93757 0.51471 0.81467 0.0
H2196 H 0.98258 0.55934 0.8101 0.0
H2197 H 0.98411 0.59311 0.84331 0.0
H2198 H 0.93865 0.54898 0.84804 0.0
H2199 H 0.91012 0.32864 0.84778 0.0
H2200 H 0.88721 0.38011 0.83865 0.0
H2201 H 0.92793 0.44647 0.86398 0.0
H2202 H 0.95282 0.39453 0.87306 0.0
H2203 H 0.94286 0.4744 0.84517 0.0
H2204 H 0.83648 0.43048 0.86077 0.0
H2205 H 0.79177 0.38601 0.86576 0.0
H2206 H 0.7723 0.36613 0.83203 0.0
H2207 H 0.81722 0.41012 0.82683 0.0
C2208 C 0.83606 0.58426 0.81703 0.0
C2209 C 0.83597 0.57516 0.80596 0.0
C2210 C 0.84987 0.56111 0.82479 0.0
C2211 C 0.86308 0.52833 0.82161 0.0
C2212 C 0.86303 0.51912 0.81061 0.0
C2213 C 0.84982 0.54243 0.80284 0.0
C2214 C 0.8737 0.50211 0.82982 0.0
C2215 C 0.84909 0.47641 0.8329 0.0
C2216 C 0.90746 0.50214 0.83455 0.0
C2217 C 0.93426 0.52902 0.83166 0.0
C2218 C 0.94708 0.53203 0.82096 0.0
C2219 C 0.9728 0.55712 0.81835 0.0
C2220 C 0.98607 0.57917 0.8264 0.0
C2221 C 0.97371 0.5761 0.83708 0.0
C2222 C 0.94797 0.55107 0.83972 0.0
C2223 C 0.91383 0.35398 0.8516 0.0
C2224 C 0.93324 0.35729 0.86124 0.0
C2225 C 0.90045 0.38355 0.84634 0.0
C2226 C 0.90514 0.4172 0.85072 0.0
C2227 C 0.9238 0.42071 0.86048 0.0
C2228 C 0.93783 0.391 0.86569 0.0
C2229 C 0.89229 0.44846 0.84462 0.0
C2230 C 0.91634 0.47535 0.84195 0.0
C2231 C 0.85777 0.44973 0.84032 0.0
C2232 C 0.83033 0.42356 0.84342 0.0
C2233 C 0.82278 0.41652 0.85442 0.0
C2234 C 0.79738 0.3914 0.85728 0.0
C2235 C 0.77923 0.37324 0.84922 0.0
C2236 C 0.78636 0.38024 0.83827 0.0
C2237 C 0.81173 0.40532 0.83536 0.0
H2238 H 0.75961 0.35377 0.85146 0.0
H2239 H 0.00604 0.59852 0.82437 0.0
H2240 H 0.35392 0.59225 0.06329 0.0
H2241 H 0.28445 0.59792 0.07312 0.0
H2242 H 0.23907 0.66396 0.04085 0.0
H2243 H 0.30676 0.65987 0.03006 0.0
H2244 H 0.22859 0.69123 0.06186 0.0
H2245 H 0.20763 0.57402 0.04887 0.0
H2246 H 0.22275 0.5115 0.04627 0.0
H2247 H 0.22466 0.4957 0.08083 0.0
H2248 H 0.21005 0.55827 0.08364 0.0
H2249 H 0.06826 0.72184 0.0886 0.0
H2250 H 0.1081 0.70066 0.07435 0.0
H2251 H 0.15155 0.62475 0.09679 0.0
H2252 H 0.11146 0.64494 0.11086 0.0
H2253 H 0.15431 0.59716 0.07817 0.0
H2254 H 0.19021 0.70639 0.09255 0.0
H2255 H 0.1947 0.7688 0.09768 0.0
H2256 H 0.17982 0.79998 0.06445 0.0
H2257 H 0.17502 0.73767 0.0591 0.0
C2258 C 0.33287 0.6063 0.05928 0.0
C2259 C 0.33566 0.61988 0.04469 0.0
C2260 C 0.28915 0.60811 0.06502 0.0
C2261 C 0.25362 0.62859 0.05762 0.0
C2262 C 0.26051 0.6499 0.04465 0.0
C2263 C 0.303 0.64948 0.03818 0.0
C2264 C 0.22029 0.6355 0.06336 0.0
C2265 C 0.2116 0.67072 0.06516 0.0
C2266 C 0.19962 0.60859 0.06811 0.0
C2267 C 0.20801 0.57089 0.06646 0.0
C2268 C 0.21149 0.55726 0.05592 0.0
C2269 C 0.21993 0.5218 0.05441 0.0
C2270 C 0.22472 0.49965 0.06338 0.0
C2271 C 0.22097 0.51289 0.07389 0.0
C2272 C 0.21256 0.54834 0.07544 0.0
C2273 C 0.08558 0.69996 0.0904 0.0
C2274 C 0.08714 0.68559 0.10094 0.0
C2275 C 0.10861 0.68808 0.08227 0.0
C2276 C 0.13355 0.6617 0.08457 0.0
C2277 C 0.13282 0.64526 0.0948 0.0
C2278 C 0.10987 0.657 0.10287 0.0
C2279 C 0.16244 0.65328 0.07678 0.0
C2280 C 0.1705 0.61781 0.07462 0.0
C2281 C 0.18386 0.68002 0.07211 0.0
C2282 C 0.18178 0.71738 0.07545 0.0
C2283 C 0.18712 0.72656 0.08637 0.0
C2284 C 0.19008 0.76191 0.08929 0.0
C2285 C 0.18802 0.78827 0.08136 0.0
C2286 C 0.18181 0.77947 0.07055 0.0
C2287 C 0.17884 0.74416 0.06757 0.0
H2288 H 0.19121 0.81554 0.08358 0.0
H2289 H 0.23129 0.47222 0.0622 0.0
H2290 H 0.12046 0.58958 0.82057 0.0
H2291 H 0.10472 0.53081 0.82726 0.0
H2292 H 0.20946 0.49397 0.81995 0.0
H2293 H 0.22573 0.55305 0.81343 0.0
H2294 H 0.14127 0.4461 0.81478 0.0
H2295 H 0.20755 0.50718 0.84271 0.0
H2296 H 0.22119 0.56004 0.85343 0.0
H2297 H 0.11483 0.56251 0.86545 0.0
H2298 H 0.10042 0.50999 0.85464 0.0
H2299 H 0.10197 0.29556 0.84871 0.0
H2300 H 0.1356 0.34332 0.83976 0.0
H2301 H 0.06374 0.41955 0.85338 0.0
H2302 H 0.03129 0.37225 0.86249 0.0
H2303 H 0.12745 0.4432 0.8549 0.0
H2304 H 0.05796 0.38911 0.82656 0.0
H2305 H 0.0387 0.33946 0.81522 0.0
H2306 H 0.14458 0.32566 0.80358 0.0
H2307 H 0.16452 0.37507 0.81494 0.0
C2308 C 0.13988 0.56876 0.82015 0.0
C2309 C 0.17411 0.57577 0.81633 0.0
C2310 C 0.13087 0.53528 0.82396 0.0
C2311 C 0.15592 0.5082 0.82401 0.0
C2312 C 0.18973 0.51454 0.81982 0.0
C2313 C 0.19894 0.54824 0.81612 0.0
C2314 C 0.14756 0.47482 0.82966 0.0
C2315 C 0.13897 0.44501 0.82356 0.0
C2316 C 0.14403 0.47389 0.84107 0.0
C2317 C 0.15288 0.50483 0.84782 0.0
C2318 C 0.18703 0.51914 0.84759 0.0
C2319 C 0.19491 0.54902 0.85368 0.0
C2320 C 0.16888 0.56466 0.86011 0.0
C2321 C 0.13496 0.55037 0.86047 0.0
C2322 C 0.12694 0.52053 0.85437 0.0
C2323 C 0.09393 0.32265 0.84984 0.0
C2324 C 0.06447 0.33065 0.85628 0.0
C2325 C 0.11286 0.3498 0.84471 0.0
C2326 C 0.10202 0.38502 0.84584 0.0
C2327 C 0.07276 0.39269 0.85243 0.0
C2328 C 0.05421 0.36574 0.85761 0.0
C2329 C 0.12016 0.41431 0.84006 0.0
C2330 C 0.13056 0.44363 0.84614 0.0
C2331 C 0.12481 0.41483 0.82862 0.0
C2332 C 0.11279 0.38548 0.82169 0.0
C2333 C 0.07716 0.37535 0.82163 0.0
C2334 C 0.06612 0.34728 0.81519 0.0
C2335 C 0.09043 0.32934 0.80871 0.0
C2336 C 0.1258 0.33954 0.80862 0.0
C2337 C 0.13698 0.36759 0.81505 0.0
H2338 H 0.08184 0.30759 0.80374 0.0
H2339 H 0.17502 0.58781 0.86481 0.0
H2340 H 0.18899 0.35089 0.55174 0.0
H2341 H 0.22166 0.35001 0.56881 0.0
H2342 H 0.28589 0.43641 0.55742 0.0
H2343 H 0.2525 0.43838 0.54044 0.0
H2344 H 0.31942 0.36523 0.56356 0.0
H2345 H 0.24364 0.45855 0.57608 0.0
H2346 H 0.18638 0.48618 0.58012 0.0
H2347 H 0.16159 0.40264 0.60256 0.0
H2348 H 0.21853 0.37419 0.59852 0.0
H2349 H 0.43701 0.38633 0.60465 0.0
H2350 H 0.38792 0.40728 0.59377 0.0
H2351 H 0.32044 0.32809 0.60805 0.0
H2352 H 0.36973 0.30626 0.61893 0.0
H2353 H 0.28561 0.39689 0.60129 0.0
H2354 H 0.35373 0.29965 0.58755 0.0
H2355 H 0.40937 0.26827 0.58405 0.0
H2356 H 0.44545 0.35417 0.56401 0.0
H2357 H 0.39005 0.38625 0.56756 0.0
C2358 C 0.2093 0.37045 0.55298 0.0
C2359 C 0.21794 0.39505 0.54478 0.0
C2360 C 0.22791 0.36988 0.56275 0.0
C2361 C 0.25588 0.39333 0.56436 0.0
C2362 C 0.26407 0.41839 0.55633 0.0
C2363 C 0.24504 0.41947 0.54667 0.0
C2364 C 0.27953 0.38852 0.57373 0.0
C2365 C 0.3122 0.37266 0.57177 0.0
C2366 C 0.26943 0.39703 0.58447 0.0
C2367 C 0.23516 0.414 0.58689 0.0
C2368 C 0.22581 0.44583 0.58177 0.0
C2369 C 0.19345 0.4617 0.58409 0.0
C2370 C 0.1703 0.44611 0.59156 0.0
C2371 C 0.17952 0.41465 0.59676 0.0
C2372 C 0.21184 0.39865 0.59446 0.0
C2373 C 0.41156 0.37385 0.60574 0.0
C2374 C 0.4076 0.34395 0.61245 0.0
C2375 C 0.38345 0.38608 0.59955 0.0
C2376 C 0.35086 0.36876 0.59998 0.0
C2377 C 0.34553 0.34163 0.60759 0.0
C2378 C 0.3738 0.32917 0.61378 0.0
C2379 C 0.3256 0.37424 0.59104 0.0
C2380 C 0.29273 0.38975 0.59305 0.0
C2381 C 0.33503 0.36484 0.58031 0.0
C2382 C 0.36799 0.34545 0.57792 0.0
C2383 C 0.37367 0.31191 0.58247 0.0
C2384 C 0.40513 0.294 0.58047 0.0
C2385 C 0.43103 0.30926 0.57384 0.0
C2386 C 0.4254 0.34241 0.56916 0.0
C2387 C 0.39395 0.36045 0.57115 0.0
H2388 H 0.4554 0.29537 0.57231 0.0
H2389 H 0.14528 0.45845 0.59335 0.0
H2390 H 0.42665 0.46837 0.29593 0.0
H2391 H 0.4323 0.49931 0.31319 0.0
H2392 H 0.3199 0.51574 0.31408 0.0
H2393 H 0.3143 0.48546 0.29666 0.0
H2394 H 0.35396 0.57508 0.31775 0.0
H2395 H 0.3608 0.45767 0.33196 0.0
H2396 H 0.38297 0.39673 0.33286 0.0
H2397 H 0.48719 0.435 0.33925 0.0
H2398 H 0.46576 0.49619 0.33826 0.0
H2399 H 0.38404 0.67649 0.36413 0.0
H2400 H 0.35827 0.62834 0.35366 0.0
H2401 H 0.46106 0.58031 0.35094 0.0
H2402 H 0.48577 0.62643 0.36215 0.0
H2403 H 0.42 0.5319 0.34979 0.0
H2404 H 0.4166 0.64781 0.33153 0.0
H2405 H 0.39693 0.70921 0.32928 0.0
H2406 H 0.28917 0.67481 0.32917 0.0
H2407 H 0.30839 0.61319 0.33155 0.0
C2408 C 0.40312 0.47809 0.29991 0.0
C2409 C 0.37 0.47426 0.29501 0.0
C2410 C 0.40632 0.49561 0.3098 0.0
C2411 C 0.37644 0.50941 0.31503 0.0
C2412 C 0.34327 0.50512 0.31023 0.0
C2413 C 0.34008 0.48774 0.30031 0.0
C2414 C 0.38029 0.53074 0.32502 0.0
C2415 C 0.36785 0.56547 0.32486 0.0
C2416 C 0.39883 0.51836 0.3342 0.0
C2417 C 0.41166 0.48154 0.335 0.0
C2418 C 0.38847 0.4531 0.33352 0.0
C2419 C 0.40091 0.4185 0.33404 0.0
C2420 C 0.43647 0.41199 0.3361 0.0
C2421 C 0.45965 0.44007 0.33767 0.0
C2422 C 0.44736 0.47472 0.33714 0.0
C2423 C 0.40073 0.65501 0.36152 0.0
C2424 C 0.43686 0.6552 0.36383 0.0
C2425 C 0.38616 0.62772 0.35541 0.0
C2426 C 0.40793 0.60143 0.35097 0.0
C2427 C 0.4435 0.60028 0.3541 0.0
C2428 C 0.45775 0.62677 0.36052 0.0
C2429 C 0.39519 0.57705 0.34236 0.0
C2430 C 0.40574 0.54155 0.34277 0.0
C2431 C 0.37542 0.58893 0.33328 0.0
C2432 C 0.36398 0.62598 0.33186 0.0
C2433 C 0.38878 0.65337 0.33108 0.0
C2434 C 0.37769 0.68821 0.32978 0.0
C2435 C 0.3418 0.69594 0.32912 0.0
C2436 C 0.31696 0.66881 0.32972 0.0
C2437 C 0.32795 0.63394 0.33105 0.0
H2438 H 0.33324 0.72293 0.32811 0.0
H2439 H 0.44605 0.38519 0.33649 0.0
H2440 H 0.32557 0.39403 0.94992 0.0
H2441 H 0.28004 0.39161 0.936 0.0
H2442 H 0.20846 0.4473 0.95702 0.0
H2443 H 0.2544 0.45131 0.97089 0.0
H2444 H 0.18823 0.37411 0.94725 0.0
H2445 H 0.22631 0.49261 0.93901 0.0
H2446 H 0.2704 0.53837 0.9347 0.0
H2447 H 0.30019 0.48297 0.90578 0.0
H2448 H 0.25662 0.43653 0.91002 0.0
H2449 H 0.04591 0.37587 0.91284 0.0
H2450 H 0.09001 0.40771 0.92342 0.0
H2451 H 0.17202 0.36887 0.90231 0.0
H2452 H 0.12795 0.33657 0.89185 0.0
H2453 H 0.1857 0.43905 0.9121 0.0
H2454 H 0.15709 0.31842 0.92086 0.0
H2455 H 0.11593 0.26934 0.92436 0.0
H2456 H 0.07264 0.32448 0.9517 0.0
H2457 H 0.11321 0.37423 0.94821 0.0
C2458 C 0.30045 0.40643 0.95155 0.0
C2459 C 0.29368 0.42312 0.96154 0.0
C2460 C 0.27447 0.40498 0.94356 0.0
C2461 C 0.24111 0.41948 0.94549 0.0
C2462 C 0.23421 0.43621 0.95539 0.0
C2463 C 0.26039 0.4384 0.96328 0.0
C2464 C 0.2127 0.41467 0.9375 0.0
C2465 C 0.18723 0.38883 0.93967 0.0
C2466 C 0.21228 0.43307 0.92747 0.0
C2467 C 0.2385 0.46089 0.9249 0.0
C2468 C 0.24254 0.48996 0.9318 0.0
C2469 C 0.26737 0.51608 0.92935 0.0
C2470 C 0.28816 0.51352 0.91999 0.0
C2471 C 0.2841 0.48488 0.91304 0.0
C2472 C 0.25933 0.45867 0.91546 0.0
C2473 C 0.0731 0.37582 0.91012 0.0
C2474 C 0.08372 0.35424 0.90151 0.0
C2475 C 0.09827 0.3938 0.91619 0.0
C2476 C 0.13423 0.39033 0.91368 0.0
C2477 C 0.14439 0.37205 0.90432 0.0
C2478 C 0.11925 0.3537 0.89833 0.0
C2479 C 0.16095 0.39894 0.92195 0.0
C2480 C 0.18633 0.42493 0.91978 0.0
C2481 C 0.16181 0.38026 0.93193 0.0
C2482 C 0.13781 0.35022 0.93419 0.0
C2483 C 0.13857 0.32021 0.92756 0.0
C2484 C 0.11539 0.29226 0.92954 0.0
C2485 C 0.09159 0.29385 0.93822 0.0
C2486 C 0.09103 0.32334 0.94496 0.0
C2487 C 0.11411 0.35143 0.94298 0.0
H2488 H 0.07365 0.27219 0.93975 0.0
H2489 H 0.30735 0.53378 0.91811 0.0
H2490 H 0.29576 0.55778 0.70368 0.0
H2491 H 0.32247 0.52004 0.68989 0.0
H2492 H 0.38529 0.46966 0.71462 0.0
H2493 H 0.3603 0.50852 0.72825 0.0
H2494 H 0.42405 0.48242 0.69802 0.0
H2495 H 0.30889 0.43079 0.703 0.0
H2496 H 0.24395 0.43078 0.70349 0.0
H2497 H 0.2414 0.46236 0.66995 0.0
H2498 H 0.30639 0.46295 0.6693 0.0
H2499 H 0.46985 0.31926 0.67578 0.0
H2500 H 0.44228 0.36621 0.68613 0.0
H2501 H 0.40463 0.41372 0.65649 0.0
H2502 H 0.43206 0.36636 0.64595 0.0
H2503 H 0.3533 0.40877 0.67315 0.0
H2504 H 0.47259 0.4462 0.66857 0.0
H2505 H 0.53652 0.438 0.66928 0.0
H2506 H 0.53173 0.42904 0.70404 0.0
H2507 H 0.46714 0.43468 0.7035 0.0
C2508 C 0.31493 0.53829 0.70617 0.0
C2509 C 0.32481 0.53519 0.71713 0.0
C2510 C 0.33014 0.51673 0.6983 0.0
C2511 C 0.35533 0.49147 0.70125 0.0
C2512 C 0.36567 0.48876 0.71215 0.0
C2513 C 0.35096 0.5107 0.71999 0.0
C2514 C 0.37169 0.46824 0.69302 0.0
C2515 C 0.40856 0.46606 0.69266 0.0
C2516 C 0.35149 0.44776 0.68577 0.0
C2517 C 0.31246 0.4473 0.68614 0.0
C2518 C 0.29447 0.43797 0.69575 0.0
C2519 C 0.25767 0.43782 0.69605 0.0
C2520 C 0.23856 0.44667 0.68676 0.0
C2521 C 0.25624 0.45558 0.67714 0.0
C2522 C 0.29305 0.4558 0.6768 0.0
C2523 C 0.45577 0.33965 0.67142 0.0
C2524 C 0.45321 0.33907 0.66002 0.0
C2525 C 0.4401 0.36652 0.67736 0.0
C2526 C 0.42171 0.39351 0.67206 0.0
C2527 C 0.41883 0.39308 0.6607 0.0
C2528 C 0.43468 0.36616 0.65471 0.0
C2529 C 0.40551 0.42197 0.67851 0.0
C2530 C 0.36875 0.42538 0.67846 0.0
C2531 C 0.42578 0.44295 0.68559 0.0
C2532 C 0.46483 0.4406 0.68597 0.0
C2533 C 0.48503 0.44212 0.67637 0.0
C2534 C 0.52151 0.43793 0.67675 0.0
C2535 C 0.53836 0.43335 0.68672 0.0
C2536 C 0.51866 0.43265 0.69633 0.0
C2537 C 0.48205 0.4361 0.69598 0.0
H2538 H 0.56663 0.43023 0.68704 0.0
H2539 H 0.21007 0.44655 0.68702 0.0
H2540 H 0.1894 0.55317 0.44012 0.0
H2541 H 0.23149 0.59127 0.43059 0.0
H2542 H 0.29361 0.59859 0.45973 0.0
H2543 H 0.25076 0.56162 0.46941 0.0
H2544 H 0.29169 0.6604 0.44994 0.0
H2545 H 0.31452 0.54135 0.43877 0.0
H2546 H 0.29955 0.4833 0.43122 0.0
H2547 H 0.27055 0.53213 0.40101 0.0
H2548 H 0.28489 0.59056 0.40845 0.0
H2549 H 0.45946 0.7023 0.42725 0.0
H2550 H 0.40765 0.67864 0.43657 0.0
H2551 H 0.35082 0.67837 0.40634 0.0
H2552 H 0.4027 0.70152 0.39689 0.0
H2553 H 0.34693 0.61602 0.41609 0.0
H2554 H 0.32064 0.735 0.42768 0.0
H2555 H 0.33209 0.79321 0.43572 0.0
H2556 H 0.36918 0.74389 0.46491 0.0
H2557 H 0.35702 0.68531 0.45717 0.0
C2558 C 0.21164 0.5635 0.44455 0.0
C2559 C 0.21649 0.55497 0.45558 0.0
C2560 C 0.23588 0.58498 0.43907 0.0
C2561 C 0.26596 0.59746 0.44441 0.0
C2562 C 0.27055 0.58939 0.45545 0.0
C2563 C 0.24612 0.56827 0.46097 0.0
C2564 C 0.2933 0.61792 0.43843 0.0
C2565 C 0.30399 0.65052 0.44259 0.0
C2566 C 0.30886 0.60547 0.42871 0.0
C2567 C 0.30042 0.57035 0.42421 0.0
C2568 C 0.30471 0.53973 0.43055 0.0
C2569 C 0.29637 0.50676 0.42628 0.0
C2570 C 0.28402 0.50404 0.41565 0.0
C2571 C 0.28007 0.53428 0.40925 0.0
C2572 C 0.28831 0.56733 0.41348 0.0
C2573 C 0.43588 0.6975 0.42258 0.0
C2574 C 0.4355 0.70328 0.41128 0.0
C2575 C 0.4061 0.6843 0.42796 0.0
C2576 C 0.37524 0.67691 0.42218 0.0
C2577 C 0.37436 0.68383 0.41096 0.0
C2578 C 0.40413 0.69696 0.40557 0.0
C2579 C 0.34536 0.6585 0.42759 0.0
C2580 C 0.33435 0.62609 0.42337 0.0
C2581 C 0.32969 0.67099 0.43728 0.0
C2582 C 0.33839 0.70591 0.4418 0.0
C2583 C 0.3316 0.73663 0.43577 0.0
C2584 C 0.33804 0.76966 0.44028 0.0
C2585 C 0.35175 0.7723 0.45075 0.0
C2586 C 0.3587 0.74184 0.45678 0.0
C2587 C 0.35182 0.70872 0.45237 0.0
H2588 H 0.35677 0.79794 0.45419 0.0
H2589 H 0.27758 0.47849 0.41236 0.0
H2590 H 0.13397 0.47406 0.23667 0.0
H2591 H 0.1253 0.54202 0.2263 0.0
H2592 H 0.15606 0.49203 0.18995 0.0
H2593 H 0.16532 0.42243 0.1993 0.0
H2594 H 0.18857 0.56038 0.19509 0.0
H2595 H 0.0713 0.51333 0.20022 0.0
H2596 H 0.02008 0.49024 0.21041 0.0
H2597 H 0.0163 0.5847 0.22935 0.0
H2598 H 0.06784 0.60818 0.21934 0.0
H2599 H 0.11068 0.64766 0.15303 0.0
H2600 H 0.13189 0.61097 0.16768 0.0
H2601 H 0.08698 0.6822 0.19115 0.0
H2602 H 0.06444 0.71917 0.17629 0.0
H2603 H 0.07262 0.61978 0.19689 0.0
H2604 H 0.17935 0.67241 0.18818 0.0
H2605 H 0.22781 0.69715 0.17713 0.0
H2606 H 0.25076 0.59453 0.16453 0.0
H2607 H 0.20207 0.56919 0.17536 0.0
C2608 C 0.13652 0.47704 0.22795 0.0
C2609 C 0.15686 0.44246 0.21934 0.0
C2610 C 0.13314 0.51952 0.22153 0.0
C2611 C 0.1423 0.52484 0.20721 0.0
C2612 C 0.15273 0.48797 0.1986 0.0
C2613 C 0.15671 0.44433 0.20421 0.0
C2614 C 0.13642 0.55917 0.20197 0.0
C2615 C 0.16317 0.57338 0.1954 0.0
C2616 C 0.10386 0.57684 0.20287 0.0
C2617 C 0.07388 0.56218 0.2092 0.0
C2618 C 0.05992 0.52892 0.20668 0.0
C2619 C 0.03072 0.51584 0.21238 0.0
C2620 C 0.01508 0.5359 0.22056 0.0
C2621 C 0.02857 0.56911 0.22305 0.0
C2622 C 0.05779 0.58231 0.21737 0.0
C2623 C 0.10549 0.65596 0.16129 0.0
C2624 C 0.08599 0.6866 0.16346 0.0
C2625 C 0.1181 0.63502 0.16971 0.0
C2626 C 0.11218 0.64433 0.18057 0.0
C2627 C 0.09243 0.67477 0.18283 0.0
C2628 C 0.07939 0.69576 0.17434 0.0
C2629 C 0.12366 0.61981 0.18932 0.0
C2630 C 0.09819 0.60738 0.19668 0.0
C2631 C 0.15743 0.60394 0.18917 0.0
C2632 C 0.1869 0.61889 0.18259 0.0
C2633 C 0.19456 0.65511 0.18301 0.0
C2634 C 0.22211 0.66925 0.17678 0.0
C2635 C 0.24234 0.64743 0.17013 0.0
C2636 C 0.23508 0.6114 0.1697 0.0
C2637 C 0.20754 0.59711 0.1759 0.0
H2638 H 0.26366 0.65843 0.16531 0.0
H2639 H 0.9924 0.52578 0.22494 0.0
loop_
_geom_bond_atom_site_label_1
_geom_bond_atom_site_label_2
_geom_bond_distance
_geom_bond_site_symmetry_2
_ccdc_geom_bond_type
C0 C1 1.560 . S
C0 H61 0.959 . S
C0 H62 0.959 . S
C0 H63 0.960 . S
C1 C0 1.560 . S
C1 O56 1.426 . S
C1 H60 0.980 . S
C2 C3 1.407 . S
C2 C7 1.418 . S
C2 O56 1.334 . S
C3 C2 1.407 . S
C3 C4 1.360 . S
C3 H64 0.929 . S
C4 C3 1.360 . S
C4 C5 1.401 . S
C4 C8 1.527 . S
C5 C4 1.401 . S
C5 C6 1.405 . S
C5 C38 1.587 . S
C6 C5 1.405 . S
C6 C7 1.332 . S
C6 C9 1.496 1_565 S
C7 C2 1.418 . S
C7 C6 1.332 . S
C7 H65 0.929 1_565 S
C8 C4 1.527 . S
C8 H66 0.959 . S
C8 H67 0.961 . S
C8 H68 0.961 . S
C9 C6 1.496 1_545 S
C9 H69 0.960 . S
C9 H70 0.960 . S
C9 H71 0.961 . S
C10 C11 1.517 . S
C10 H73 0.961 . S
C10 H74 0.960 . S
C10 H75 0.959 . S
C11 C10 1.517 . S
C11 O59 1.468 . S
C11 H72 0.980 . S
C12 C13 1.349 . S
C12 C17 1.367 . S
C12 O59 1.408 . S
C13 C12 1.349 . S
C13 C14 1.407 . S
C13 H76 0.930 . S
C14 C13 1.407 . S
C14 C15 1.449 . S
C14 C18 1.535 . S
C15 C14 1.449 . S
C15 C16 1.384 . S
C15 C40 1.553 . S
C16 C15 1.384 . S
C16 C17 1.364 . S
C16 C19 1.450 . S
C17 C12 1.367 . S
C17 C16 1.364 . S
C17 H77 0.931 . S
C18 C14 1.535 . S
C18 H78 0.959 . S
C18 H79 0.961 . S
C18 H80 0.959 1_565 S
C19 C16 1.450 . S
C19 H81 0.960 . S
C19 H82 0.960 . S
C19 H83 0.960 . S
C20 C21 1.309 . S
C20 C25 1.304 . S
C20 O58 1.435 . S
C21 C20 1.309 . S
C21 C22 1.476 . S
C21 H85 0.930 . S
C22 C21 1.476 . S
C22 C23 1.400 . S
C22 C26 1.567 . S
C23 C22 1.400 . S
C23 C24 1.373 . S
C23 C45 1.432 . S
C24 C23 1.373 . S
C24 C25 1.339 . S
C24 C27 1.530 1_545 S
C25 C20 1.304 . S
C25 C24 1.339 . S
C25 H86 0.930 . S
C26 C22 1.567 . S
C26 H87 0.961 . S
C26 H88 0.960 . S
C26 H89 0.958 . S
C27 C24 1.530 1_565 S
C27 H90 0.961 . S
C27 H91 0.960 . S
C27 H92 0.960 . S
C28 C29 1.530 . S
C28 H94 0.961 . S
C28 H95 0.961 . S
C28 H96 0.959 . S
C29 C28 1.530 . S
C29 O57 1.412 . S
C29 H93 0.980 . S
C30 C31 1.288 . S
C30 C35 1.377 . S
C30 O57 1.393 . S
C31 C30 1.288 . S
C31 C32 1.369 . S
C31 H97 0.932 . S
C32 C31 1.369 . S
C32 C33 1.398 . S
C32 C36 1.527 . S
C33 C32 1.398 . S
C33 C34 1.380 . S
C33 C47 1.497 . S
C34 C33 1.380 . S
C34 C35 1.383 . S
C34 C37 1.603 . S
C35 C30 1.377 . S
C35 C34 1.383 . S
C35 H98 0.929 . S
C36 C32 1.527 . S
C36 H99 0.961 . S
C36 H100 0.959 . S
C36 H101 0.959 . S
C37 C34 1.603 . S
C37 H102 0.960 . S
C37 H103 0.962 . S
C37 H104 0.961 1_545 S
C38 C5 1.587 . S
C38 C39 1.360 1_655 S
C38 C51 1.412 . S
C39 C38 1.360 1_455 S
C39 C40 1.365 . S
C39 H105 0.929 . S
C40 C15 1.553 . S
C40 C39 1.365 . S
C40 C41 1.404 . S
C41 C40 1.404 . S
C41 C42 1.395 . S
C41 C52 1.451 . S
C42 C41 1.395 . S
C42 C43 1.322 . S
C42 H106 0.930 . S
C43 C42 1.322 . S
C43 C44 1.459 1_565 S
C43 H107 0.928 1_565 S
C44 C43 1.459 1_545 S
C44 C45 1.445 . S
C44 C53 1.395 . S
C45 C23 1.432 . S
C45 C44 1.445 . S
C45 C46 1.370 . S
C46 C45 1.370 . S
C46 C47 1.438 1_455 S
C46 H108 0.930 . S
C47 C33 1.497 . S
C47 C46 1.438 1_655 S
C47 C48 1.360 . S
C48 C47 1.360 . S
C48 C49 1.401 . S
C48 C53 1.446 1_655 S
C49 C48 1.401 . S
C49 C50 1.347 1_545 S
C49 H109 0.929 . S
C50 C49 1.347 1_565 S
C50 C51 1.455 . S
C50 H110 0.930 . S
C51 C38 1.412 . S
C51 C50 1.455 . S
C51 C52 1.331 1_655 S
C52 C41 1.451 . S
C52 C51 1.331 1_455 S
C52 C53 1.497 1_565 S
C53 C44 1.395 . S
C53 C48 1.446 1_455 S
C53 C52 1.497 1_545 S
C54 C55 1.582 . S
C54 H111 0.962 . S
C54 H112 0.959 . S
C54 H113 0.958 . S
C55 C54 1.582 . S
C55 O58 1.458 . S
C55 H84 0.980 . S
O56 C1 1.426 . S
O56 C2 1.334 . S
O57 C29 1.412 . S
O57 C30 1.393 . S
O58 C20 1.435 . S
O58 C55 1.458 . S
O59 C11 1.468 . S
O59 C12 1.408 . S
H60 C1 0.980 . S
H61 C0 0.959 . S
H62 C0 0.959 . S
H63 C0 0.960 . S
H64 C3 0.929 . S
H65 C7 0.929 1_545 S
H66 C8 0.959 . S
H67 C8 0.961 . S
H68 C8 0.961 . S
H69 C9 0.960 . S
H70 C9 0.960 . S
H71 C9 0.961 . S
H72 C11 0.980 . S
H73 C10 0.961 . S
H74 C10 0.960 . S
H75 C10 0.959 . S
H76 C13 0.930 . S
H77 C17 0.931 . S
H78 C18 0.959 . S
H79 C18 0.961 . S
H80 C18 0.959 1_545 S
H81 C19 0.960 . S
H82 C19 0.960 . S
H83 C19 0.960 . S
H84 C55 0.980 . S
H85 C21 0.930 . S
H86 C25 0.930 . S
H87 C26 0.961 . S
H88 C26 0.960 . S
H89 C26 0.958 . S
H90 C27 0.961 . S
H91 C27 0.960 . S
H92 C27 0.960 . S
H93 C29 0.980 . S
H94 C28 0.961 . S
H95 C28 0.961 . S
H96 C28 0.959 . S
H97 C31 0.932 . S
H98 C35 0.929 . S
H99 C36 0.961 . S
H100 C36 0.959 . S
H101 C36 0.959 . S
H102 C37 0.960 . S
H103 C37 0.962 . S
H104 C37 0.961 1_565 S
H105 C39 0.929 . S
H106 C42 0.930 . S
H107 C43 0.928 1_545 S
H108 C46 0.930 . S
H109 C49 0.929 . S
H110 C50 0.930 . S
H111 C54 0.962 . S
H112 C54 0.959 . S
H113 C54 0.958 . S
C114 C115 1.560 . S
C114 H175 0.959 . S
C114 H176 0.959 . S
C114 H177 0.960 . S
C115 C114 1.560 . S
C115 O170 1.426 . S
C115 H174 0.980 . S
C116 C117 1.407 . S
C116 C121 1.418 . S
C116 O170 1.334 . S
C117 C116 1.407 . S
C117 C118 1.360 . S
C117 H178 0.929 . S
C118 C117 1.360 . S
C118 C119 1.401 . S
C118 C122 1.527 . S
C119 C118 1.401 . S
C119 C120 1.405 . S
C119 C152 1.587 . S
C120 C119 1.405 . S
C120 C121 1.332 . S
C120 C123 1.496 . S
C121 C116 1.418 . S
C121 C120 1.332 . S
C121 H179 0.929 . S
C122 C118 1.527 . S
C122 H180 0.959 . S
C122 H181 0.961 . S
C122 H182 0.961 . S
C123 C120 1.496 . S
C123 H183 0.960 . S
C123 H184 0.960 . S
C123 H185 0.961 . S
C124 C125 1.517 . S
C124 H187 0.961 . S
C124 H188 0.960 . S
C124 H189 0.959 . S
C125 C124 1.517 . S
C125 O173 1.468 . S
C125 H186 0.980 . S
C126 C127 1.349 . S
C126 C131 1.367 . S
C126 O173 1.408 . S
C127 C126 1.349 . S
C127 C128 1.407 . S
C127 H190 0.930 . S
C128 C127 1.407 . S
C128 C129 1.449 . S
C128 C132 1.535 . S
C129 C128 1.449 . S
C129 C130 1.384 . S
C129 C154 1.553 . S
C130 C129 1.384 . S
C130 C131 1.364 . S
C130 C133 1.450 . S
C131 C126 1.367 . S
C131 C130 1.364 . S
C131 H191 0.931 . S
C132 C128 1.535 . S
C132 H192 0.959 . S
C132 H193 0.961 . S
C132 H194 0.959 . S
C133 C130 1.450 . S
C133 H195 0.960 . S
C133 H196 0.960 . S
C133 H197 0.960 . S
C134 C135 1.309 . S
C134 C139 1.304 . S
C134 O172 1.435 . S
C135 C134 1.309 . S
C135 C136 1.476 . S
C135 H199 0.930 . S
C136 C135 1.476 . S
C136 C137 1.400 . S
C136 C140 1.567 . S
C137 C136 1.400 . S
C137 C138 1.373 . S
C137 C159 1.432 . S
C138 C137 1.373 . S
C138 C139 1.339 . S
C138 C141 1.530 . S
C139 C134 1.304 . S
C139 C138 1.339 . S
C139 H200 0.930 . S
C140 C136 1.567 . S
C140 H201 0.961 . S
C140 H202 0.960 . S
C140 H203 0.958 . S
C141 C138 1.530 . S
C141 H204 0.961 . S
C141 H205 0.960 . S
C141 H206 0.960 . S
C142 C143 1.530 . S
C142 H208 0.961 . S
C142 H209 0.961 . S
C142 H210 0.959 . S
C143 C142 1.530 . S
C143 O171 1.412 . S
C143 H207 0.980 . S
C144 C145 1.288 . S
C144 C149 1.377 . S
C144 O171 1.393 . S
C145 C144 1.288 . S
C145 C146 1.369 . S
C145 H211 0.932 . S
C146 C145 1.369 . S
C146 C147 1.398 . S
C146 C150 1.527 . S
C147 C146 1.398 . S
C147 C148 1.380 . S
C147 C161 1.497 . S
C148 C147 1.380 . S
C148 C149 1.383 . S
C148 C151 1.603 . S
C149 C144 1.377 . S
C149 C148 1.383 . S
C149 H212 0.929 . S
C150 C146 1.527 . S
C150 H213 0.961 . S
C150 H214 0.959 . S
C150 H215 0.959 . S
C151 C148 1.603 . S
C151 H216 0.960 . S
C151 H217 0.962 . S
C151 H218 0.961 . S
C152 C119 1.587 . S
C152 C153 1.360 . S
C152 C165 1.412 . S
C153 C152 1.360 . S
C153 C154 1.365 . S
C153 H219 0.929 . S
C154 C129 1.553 . S
C154 C153 1.365 . S
C154 C155 1.404 . S
C155 C154 1.404 . S
C155 C156 1.395 . S
C155 C166 1.451 . S
C156 C155 1.395 . S
C156 C157 1.322 . S
C156 H220 0.930 . S
C157 C156 1.322 . S
C157 C158 1.459 . S
C157 H221 0.929 . S
C158 C157 1.459 . S
C158 C159 1.445 . S
C158 C167 1.395 . S
C159 C137 1.432 . S
C159 C158 1.445 . S
C159 C160 1.370 . S
C160 C159 1.370 . S
C160 C161 1.438 . S
C160 H222 0.930 . S
C161 C147 1.497 . S
C161 C160 1.438 . S
C161 C162 1.360 . S
C162 C161 1.360 . S
C162 C163 1.401 . S
C162 C167 1.446 . S
C163 C162 1.401 . S
C163 C164 1.347 . S
C163 H223 0.929 . S
C164 C163 1.347 . S
C164 C165 1.455 . S
C164 H224 0.930 . S
C165 C152 1.412 . S
C165 C164 1.455 . S
C165 C166 1.331 . S
C166 C155 1.451 . S
C166 C165 1.331 . S
C166 C167 1.497 . S
C167 C158 1.395 . S
C167 C162 1.446 . S
C167 C166 1.497 . S
C168 C169 1.582 . S
C168 H225 0.962 . S
C168 H226 0.959 . S
C168 H227 0.958 . S
C169 C168 1.582 . S
C169 O172 1.458 . S
C169 H198 0.980 . S
O170 C115 1.426 . S
O170 C116 1.334 . S
O171 C143 1.412 . S
O171 C144 1.393 . S
O172 C134 1.435 . S
O172 C169 1.458 . S
O173 C125 1.468 . S
O173 C126 1.408 . S
H174 C115 0.980 . S
H175 C114 0.959 . S
H176 C114 0.959 . S
H177 C114 0.960 . S
H178 C117 0.929 . S
H179 C121 0.929 . S
H180 C122 0.959 . S
H181 C122 0.961 . S
H182 C122 0.961 . S
H183 C123 0.960 . S
H184 C123 0.960 . S
H185 C123 0.961 . S
H186 C125 0.980 . S
H187 C124 0.961 . S
H188 C124 0.960 . S
H189 C124 0.959 . S
H190 C127 0.930 . S
H191 C131 0.931 . S
H192 C132 0.959 . S
H193 C132 0.961 . S
H194 C132 0.959 . S
H195 C133 0.960 . S
H196 C133 0.960 . S
H197 C133 0.960 . S
H198 C169 0.980 . S
H199 C135 0.930 . S
H200 C139 0.930 . S
H201 C140 0.961 . S
H202 C140 0.960 . S
H203 C140 0.958 . S
H204 C141 0.961 . S
H205 C141 0.960 . S
H206 C141 0.960 . S
H207 C143 0.980 . S
H208 C142 0.961 . S
H209 C142 0.961 . S
H210 C142 0.959 . S
H211 C145 0.932 . S
H212 C149 0.929 . S
H213 C150 0.961 . S
H214 C150 0.959 . S
H215 C150 0.959 . S
H216 C151 0.960 . S
H217 C151 0.962 . S
H218 C151 0.961 . S
H219 C153 0.929 . S
H220 C156 0.930 . S
H221 C157 0.929 . S
H222 C160 0.930 . S
H223 C163 0.929 . S
H224 C164 0.930 . S
H225 C168 0.962 . S
H226 C168 0.959 . S
H227 C168 0.958 . S
C228 C229 1.560 . S
C228 H289 0.959 . S
C228 H290 0.959 . S
C228 H291 0.960 . S
C229 C228 1.560 . S
C229 O284 1.426 . S
C229 H288 0.980 . S
C230 C231 1.407 . S
C230 C235 1.418 . S
C230 O284 1.334 . S
C231 C230 1.407 . S
C231 C232 1.360 . S
C231 H292 0.929 . S
C232 C231 1.360 . S
C232 C233 1.401 . S
C232 C236 1.527 . S
C233 C232 1.401 . S
C233 C234 1.405 . S
C233 C266 1.587 . S
C234 C233 1.405 . S
C234 C235 1.332 . S
C234 C237 1.496 1_565 S
C235 C230 1.418 . S
C235 C234 1.332 . S
C235 H293 0.929 . S
C236 C232 1.527 . S
C236 H294 0.959 . S
C236 H295 0.961 . S
C236 H296 0.961 . S
C237 C234 1.496 1_545 S
C237 H297 0.960 . S
C237 H298 0.960 1_545 S
C237 H299 0.961 . S
C238 C239 1.517 . S
C238 H301 0.961 . S
C238 H302 0.960 . S
C238 H303 0.959 . S
C239 C238 1.517 . S
C239 O287 1.468 . S
C239 H300 0.980 . S
C240 C241 1.349 . S
C240 C245 1.367 . S
C240 O287 1.408 . S
C241 C240 1.349 . S
C241 C242 1.407 . S
C241 H304 0.930 . S
C242 C241 1.407 . S
C242 C243 1.449 . S
C242 C246 1.535 . S
C243 C242 1.449 . S
C243 C244 1.384 . S
C243 C268 1.553 . S
C244 C243 1.384 . S
C244 C245 1.364 . S
C244 C247 1.450 . S
C245 C240 1.367 . S
C245 C244 1.364 . S
C245 H305 0.931 . S
C246 C242 1.535 . S
C246 H306 0.959 . S
C246 H307 0.961 . S
C246 H308 0.959 . S
C247 C244 1.450 . S
C247 H309 0.960 . S
C247 H310 0.960 . S
C247 H311 0.960 . S
C248 C249 1.309 . S
C248 C253 1.304 . S
C248 O286 1.435 . S
C249 C248 1.309 . S
C249 C250 1.476 . S
C249 H313 0.930 . S
C250 C249 1.476 . S
C250 C251 1.400 . S
C250 C254 1.567 . S
C251 C250 1.400 . S
C251 C252 1.373 . S
C251 C273 1.432 . S
C252 C251 1.373 . S
C252 C253 1.339 . S
C252 C255 1.530 1_545 S
C253 C248 1.304 . S
C253 C252 1.339 . S
C253 H314 0.922 1_545 S
C254 C250 1.567 . S
C254 H315 0.961 . S
C254 H316 0.960 . S
C254 H317 0.958 . S
C255 C252 1.530 1_565 S
C255 H318 0.961 . S
C255 H319 0.960 . S
C255 H320 0.960 . S
C256 C257 1.530 . S
C256 H322 0.961 . S
C256 H323 0.961 . S
C256 H324 0.959 . S
C257 C256 1.530 . S
C257 O285 1.412 . S
C257 H321 0.980 . S
C258 C259 1.288 . S
C258 C263 1.377 . S
C258 O285 1.393 . S
C259 C258 1.288 . S
C259 C260 1.369 . S
C259 H325 0.932 . S
C260 C259 1.369 . S
C260 C261 1.398 . S
C260 C264 1.527 . S
C261 C260 1.398 . S
C261 C262 1.380 . S
C261 C275 1.497 . S
C262 C261 1.380 . S
C262 C263 1.383 . S
C262 C265 1.603 1_545 S
C263 C258 1.377 . S
C263 C262 1.383 . S
C263 H326 0.929 . S
C264 C260 1.527 . S
C264 H327 0.961 . S
C264 H328 0.959 . S
C264 H329 0.959 . S
C265 C262 1.603 1_565 S
C265 H330 0.960 . S
C265 H331 0.962 . S
C265 H332 0.961 . S
C266 C233 1.587 . S
C266 C267 1.360 . S
C266 C279 1.412 . S
C267 C266 1.360 . S
C267 C268 1.365 . S
C267 H333 0.929 . S
C268 C243 1.553 . S
C268 C267 1.365 . S
C268 C269 1.404 . S
C269 C268 1.404 . S
C269 C270 1.395 . S
C269 C280 1.451 . S
C270 C269 1.395 . S
C270 C271 1.250 1_554 S
C270 H334 0.930 . S
C271 C270 1.250 1_556 S
C271 C272 1.493 . S
C271 H335 0.973 . S
C272 C271 1.493 . S
C272 C273 1.445 1_565 S
C272 C281 1.400 . S
C273 C251 1.432 . S
C273 C272 1.445 1_545 S
C273 C274 1.370 . S
C274 C273 1.370 . S
C274 C275 1.438 . S
C274 H336 0.930 . S
C275 C261 1.497 . S
C275 C274 1.438 . S
C275 C276 1.360 . S
C276 C275 1.360 . S
C276 C277 1.401 1_556 S
C276 C281 1.449 1_545 S
C277 C276 1.401 1_554 S
C277 C278 1.347 1_545 S
C277 H337 0.904 1_554 S
C278 C277 1.347 1_565 S
C278 C279 1.455 . S
C278 H338 0.930 . S
C279 C266 1.412 . S
C279 C278 1.455 . S
C279 C280 1.331 . S
C280 C269 1.451 . S
C280 C279 1.331 . S
C280 C281 1.488 1_554 S
C281 C272 1.400 . S
C281 C276 1.449 1_565 S
C281 C280 1.488 1_556 S
C282 C283 1.582 . S
C282 H339 0.962 . S
C282 H340 0.959 . S
C282 H341 0.958 . S
C283 C282 1.582 . S
C283 O286 1.458 . S
C283 H312 0.980 . S
O284 C229 1.426 . S
O284 C230 1.334 . S
O285 C257 1.412 . S
O285 C258 1.393 . S
O286 C248 1.435 . S
O286 C283 1.458 . S
O287 C239 1.468 . S
O287 C240 1.408 . S
H288 C229 0.980 . S
H289 C228 0.959 . S
H290 C228 0.959 . S
H291 C228 0.960 . S
H292 C231 0.929 . S
H293 C235 0.929 . S
H294 C236 0.959 . S
H295 C236 0.961 . S
H296 C236 0.961 . S
H297 C237 0.960 . S
H298 C237 0.960 1_565 S
H299 C237 0.961 . S
H300 C239 0.980 . S
H301 C238 0.961 . S
H302 C238 0.960 . S
H303 C238 0.959 . S
H304 C241 0.930 . S
H305 C245 0.931 . S
H306 C246 0.959 . S
H307 C246 0.961 . S
H308 C246 0.959 . S
H309 C247 0.960 . S
H310 C247 0.960 . S
H311 C247 0.960 . S
H312 C283 0.980 . S
H313 C249 0.930 . S
H314 C253 0.922 1_565 S
H315 C254 0.961 . S
H316 C254 0.960 . S
H317 C254 0.958 . S
H318 C255 0.961 . S
H319 C255 0.960 . S
H320 C255 0.960 . S
H321 C257 0.980 . S
H322 C256 0.961 . S
H323 C256 0.961 . S
H324 C256 0.959 . S
H325 C259 0.932 . S
H326 C263 0.929 . S
H327 C264 0.961 . S
H328 C264 0.959 . S
H329 C264 0.959 . S
H330 C265 0.960 . S
H331 C265 0.962 . S
H332 C265 0.961 . S
H333 C267 0.929 . S
H334 C270 0.930 . S
H335 C271 0.973 . S
H336 C274 0.930 . S
H337 C277 0.904 1_556 S
H338 C278 0.930 . S
H339 C282 0.962 . S
H340 C282 0.959 . S
H341 C282 0.958 . S
C342 C343 1.560 . S
C342 H403 0.959 . S
C342 H404 0.959 . S
C342 H405 0.960 . S
C343 C342 1.560 . S
C343 O398 1.426 . S
C343 H402 0.980 . S
C344 C345 1.407 . S
C344 C349 1.418 . S
C344 O398 1.334 . S
C345 C344 1.407 . S
C345 C346 1.360 . S
C345 H406 0.929 . S
C346 C345 1.360 . S
C346 C347 1.401 . S
C346 C350 1.527 . S
C347 C346 1.401 . S
C347 C348 1.405 . S
C347 C380 1.587 . S
C348 C347 1.405 . S
C348 C349 1.332 . S
C348 C351 1.496 . S
C349 C344 1.418 . S
C349 C348 1.332 . S
C349 H407 0.929 . S
C350 C346 1.527 . S
C350 H408 0.959 . S
C350 H409 0.961 . S
C350 H410 0.961 . S
C351 C348 1.496 . S
C351 H411 0.960 . S
C351 H412 0.960 . S
C351 H413 0.961 . S
C352 C353 1.517 . S
C352 H415 0.961 . S
C352 H416 0.960 . S
C352 H417 0.959 . S
C353 C352 1.517 . S
C353 O401 1.468 . S
C353 H414 0.980 . S
C354 C355 1.349 . S
C354 C359 1.367 . S
C354 O401 1.408 . S
C355 C354 1.349 . S
C355 C356 1.407 . S
C355 H418 0.930 . S
C356 C355 1.407 . S
C356 C357 1.449 . S
C356 C360 1.535 . S
C357 C356 1.449 . S
C357 C358 1.384 . S
C357 C382 1.553 . S
C358 C357 1.384 . S
C358 C359 1.364 . S
C358 C361 1.450 . S
C359 C354 1.367 . S
C359 C358 1.364 . S
C359 H419 0.931 . S
C360 C356 1.535 . S
C360 H420 0.959 . S
C360 H421 0.961 . S
C360 H422 0.959 . S
C361 C358 1.450 . S
C361 H423 0.960 . S
C361 H424 0.960 . S
C361 H425 0.960 . S
C362 C363 1.309 . S
C362 C367 1.304 . S
C362 O400 1.435 . S
C363 C362 1.309 . S
C363 C364 1.476 . S
C363 H427 0.930 . S
C364 C363 1.476 . S
C364 C365 1.400 . S
C364 C368 1.567 . S
C365 C364 1.400 . S
C365 C366 1.373 . S
C365 C387 1.432 . S
C366 C365 1.373 . S
C366 C367 1.339 . S
C366 C369 1.530 . S
C367 C362 1.304 . S
C367 C366 1.339 . S
C367 H428 0.930 . S
C368 C364 1.567 . S
C368 H429 0.961 . S
C368 H430 0.960 . S
C368 H431 0.958 . S
C369 C366 1.530 . S
C369 H432 0.961 . S
C369 H433 0.960 . S
C369 H434 0.960 . S
C370 C371 1.530 . S
C370 H436 0.961 . S
C370 H437 0.961 . S
C370 H438 0.959 . S
C371 C370 1.530 . S
C371 O399 1.412 . S
C371 H435 0.980 . S
C372 C373 1.288 . S
C372 C377 1.377 . S
C372 O399 1.393 . S
C373 C372 1.288 . S
C373 C374 1.369 . S
C373 H439 0.932 . S
C374 C373 1.369 . S
C374 C375 1.398 . S
C374 C378 1.527 . S
C375 C374 1.398 . S
C375 C376 1.380 . S
C375 C389 1.497 . S
C376 C375 1.380 . S
C376 C377 1.383 . S
C376 C379 1.603 . S
C377 C372 1.377 . S
C377 C376 1.383 . S
C377 H440 0.929 . S
C378 C374 1.527 . S
C378 H441 0.961 . S
C378 H442 0.959 . S
C378 H443 0.959 . S
C379 C376 1.603 . S
C379 H444 0.960 . S
C379 H445 0.962 . S
C379 H446 0.961 . S
C380 C347 1.587 . S
C380 C381 1.360 . S
C380 C393 1.412 . S
C381 C380 1.360 . S
C381 C382 1.365 . S
C381 H447 0.929 . S
C382 C357 1.553 . S
C382 C381 1.365 . S
C382 C383 1.404 . S
C383 C382 1.404 . S
C383 C384 1.395 . S
C383 C394 1.451 . S
C384 C383 1.395 . S
C384 C385 1.322 . S
C384 H448 0.930 . S
C385 C384 1.322 . S
C385 C386 1.459 . S
C385 H449 0.929 . S
C386 C385 1.459 . S
C386 C387 1.445 . S
C386 C395 1.395 . S
C387 C365 1.432 . S
C387 C386 1.445 . S
C387 C388 1.370 . S
C388 C387 1.370 . S
C388 C389 1.438 . S
C388 H450 0.930 . S
C389 C375 1.497 . S
C389 C388 1.438 . S
C389 C390 1.360 . S
C390 C389 1.360 . S
C390 C391 1.401 . S
C390 C395 1.446 . S
C391 C390 1.401 . S
C391 C392 1.347 . S
C391 H451 0.929 . S
C392 C391 1.347 . S
C392 C393 1.455 . S
C392 H452 0.930 . S
C393 C380 1.412 . S
C393 C392 1.455 . S
C393 C394 1.331 . S
C394 C383 1.451 . S
C394 C393 1.331 . S
C394 C395 1.497 . S
C395 C386 1.395 . S
C395 C390 1.446 . S
C395 C394 1.497 . S
C396 C397 1.582 . S
C396 H453 0.962 . S
C396 H454 0.959 . S
C396 H455 0.958 . S
C397 C396 1.582 . S
C397 O400 1.458 . S
C397 H426 0.980 . S
O398 C343 1.426 . S
O398 C344 1.334 . S
O399 C371 1.412 . S
O399 C372 1.393 . S
O400 C362 1.435 . S
O400 C397 1.458 . S
O401 C353 1.468 . S
O401 C354 1.408 . S
H402 C343 0.980 . S
H403 C342 0.959 . S
H404 C342 0.959 . S
H405 C342 0.960 . S
H406 C345 0.929 . S
H407 C349 0.929 . S
H408 C350 0.959 . S
H409 C350 0.961 . S
H410 C350 0.961 . S
H411 C351 0.960 . S
H412 C351 0.960 . S
H413 C351 0.961 . S
H414 C353 0.980 . S
H415 C352 0.961 . S
H416 C352 0.960 . S
H417 C352 0.959 . S
H418 C355 0.930 . S
H419 C359 0.931 . S
H420 C360 0.959 . S
H421 C360 0.961 . S
H422 C360 0.959 . S
H423 C361 0.960 . S
H424 C361 0.960 . S
H425 C361 0.960 . S
H426 C397 0.980 . S
H427 C363 0.930 . S
H428 C367 0.930 . S
H429 C368 0.961 . S
H430 C368 0.960 . S
H431 C368 0.958 . S
H432 C369 0.961 . S
H433 C369 0.960 . S
H434 C369 0.960 . S
H435 C371 0.980 . S
H436 C370 0.961 . S
H437 C370 0.961 . S
H438 C370 0.959 . S
H439 C373 0.932 . S
H440 C377 0.929 . S
H441 C378 0.961 . S
H442 C378 0.959 . S
H443 C378 0.959 . S
H444 C379 0.960 . S
H445 C379 0.962 . S
H446 C379 0.961 . S
H447 C381 0.929 . S
H448 C384 0.930 . S
H449 C385 0.929 . S
H450 C388 0.930 . S
H451 C391 0.929 . S
H452 C392 0.930 . S
H453 C396 0.962 . S
H454 C396 0.959 . S
H455 C396 0.958 . S
C456 C457 1.560 . S
C456 H517 0.959 . S
C456 H518 0.959 . S
C456 H519 0.960 . S
C457 C456 1.560 . S
C457 O512 1.426 . S
C457 H516 0.980 . S
C458 C459 1.407 . S
C458 C463 1.418 . S
C458 O512 1.334 . S
C459 C458 1.407 . S
C459 C460 1.360 . S
C459 H520 0.929 . S
C460 C459 1.360 . S
C460 C461 1.401 . S
C460 C464 1.527 . S
C461 C460 1.401 . S
C461 C462 1.405 . S
C461 C494 1.587 . S
C462 C461 1.405 . S
C462 C463 1.332 . S
C462 C465 1.496 . S
C463 C458 1.418 . S
C463 C462 1.332 . S
C463 H521 0.929 . S
C464 C460 1.527 . S
C464 H522 0.959 . S
C464 H523 0.961 . S
C464 H524 0.961 . S
C465 C462 1.496 . S
C465 H525 0.960 . S
C465 H526 0.960 . S
C465 H527 0.961 . S
C466 C467 1.517 . S
C466 H529 0.961 . S
C466 H530 0.960 . S
C466 H531 0.959 . S
C467 C466 1.517 . S
C467 O515 1.468 . S
C467 H528 0.980 . S
C468 C469 1.349 . S
C468 C473 1.367 . S
C468 O515 1.408 . S
C469 C468 1.349 . S
C469 C470 1.407 . S
C469 H532 0.930 . S
C470 C469 1.407 . S
C470 C471 1.449 . S
C470 C474 1.535 . S
C471 C470 1.449 . S
C471 C472 1.384 . S
C471 C496 1.553 . S
C472 C471 1.384 . S
C472 C473 1.364 . S
C472 C475 1.450 . S
C473 C468 1.367 . S
C473 C472 1.364 . S
C473 H533 0.931 . S
C474 C470 1.535 . S
C474 H534 0.959 . S
C474 H535 0.961 . S
C474 H536 0.959 . S
C475 C472 1.450 . S
C475 H537 0.960 . S
C475 H538 0.960 . S
C475 H539 0.960 . S
C476 C477 1.309 . S
C476 C481 1.304 . S
C476 O514 1.435 . S
C477 C476 1.309 . S
C477 C478 1.476 . S
C477 H541 0.930 . S
C478 C477 1.476 . S
C478 C479 1.400 . S
C478 C482 1.567 . S
C479 C478 1.400 . S
C479 C480 1.373 . S
C479 C501 1.432 . S
C480 C479 1.373 . S
C480 C481 1.339 . S
C480 C483 1.530 . S
C481 C476 1.304 . S
C481 C480 1.339 . S
C481 H542 0.930 . S
C482 C478 1.567 . S
C482 H543 0.961 . S
C482 H544 0.960 . S
C482 H545 0.958 . S
C483 C480 1.530 . S
C483 H546 0.961 . S
C483 H547 0.960 . S
C483 H548 0.960 . S
C484 C485 1.530 . S
C484 H550 0.961 . S
C484 H551 0.961 . S
C484 H552 0.959 . S
C485 C484 1.530 . S
C485 O513 1.412 . S
C485 H549 0.980 . S
C486 C487 1.288 . S
C486 C491 1.377 . S
C486 O513 1.393 . S
C487 C486 1.288 . S
C487 C488 1.369 . S
C487 H553 0.932 . S
C488 C487 1.369 . S
C488 C489 1.398 . S
C488 C492 1.527 . S
C489 C488 1.398 . S
C489 C490 1.380 . S
C489 C503 1.497 . S
C490 C489 1.380 . S
C490 C491 1.383 . S
C490 C493 1.603 . S
C491 C486 1.377 . S
C491 C490 1.383 . S
C491 H554 0.929 . S
C492 C488 1.527 . S
C492 H555 0.961 . S
C492 H556 0.959 . S
C492 H557 0.959 . S
C493 C490 1.603 . S
C493 H558 0.960 . S
C493 H559 0.962 . S
C493 H560 0.961 . S
C494 C461 1.587 . S
C494 C495 1.360 . S
C494 C507 1.412 . S
C495 C494 1.360 . S
C495 C496 1.365 . S
C495 H561 0.929 . S
C496 C471 1.553 . S
C496 C495 1.365 . S
C496 C497 1.404 . S
C497 C496 1.404 . S
C497 C498 1.395 . S
C497 C508 1.451 . S
C498 C497 1.395 . S
C498 C499 1.322 . S
C498 H562 0.930 . S
C499 C498 1.322 . S
C499 C500 1.459 . S
C499 H563 0.929 . S
C500 C499 1.459 . S
C500 C501 1.445 . S
C500 C509 1.395 . S
C501 C479 1.432 . S
C501 C500 1.445 . S
C501 C502 1.370 . S
C502 C501 1.370 . S
C502 C503 1.438 . S
C502 H564 0.930 . S
C503 C489 1.497 . S
C503 C502 1.438 . S
C503 C504 1.360 . S
C504 C503 1.360 . S
C504 C505 1.401 . S
C504 C509 1.446 . S
C505 C504 1.401 . S
C505 C506 1.347 . S
C505 H565 0.929 . S
C506 C505 1.347 . S
C506 C507 1.455 . S
C506 H566 0.930 . S
C507 C494 1.412 . S
C507 C506 1.455 . S
C507 C508 1.331 . S
C508 C497 1.451 . S
C508 C507 1.331 . S
C508 C509 1.497 . S
C509 C500 1.395 . S
C509 C504 1.446 . S
C509 C508 1.497 . S
C510 C511 1.582 . S
C510 H567 0.962 . S
C510 H568 0.959 . S
C510 H569 0.958 . S
C511 C510 1.582 . S
C511 O514 1.458 . S
C511 H540 0.980 . S
O512 C457 1.426 . S
O512 C458 1.334 . S
O513 C485 1.412 . S
O513 C486 1.393 . S
O514 C476 1.435 . S
O514 C511 1.458 . S
O515 C467 1.468 . S
O515 C468 1.408 . S
H516 C457 0.980 . S
H517 C456 0.959 . S
H518 C456 0.959 . S
H519 C456 0.960 . S
H520 C459 0.929 . S
H521 C463 0.929 . S
H522 C464 0.959 . S
H523 C464 0.961 . S
H524 C464 0.961 . S
H525 C465 0.960 . S
H526 C465 0.960 . S
H527 C465 0.961 . S
H528 C467 0.980 . S
H529 C466 0.961 . S
H530 C466 0.960 . S
H531 C466 0.959 . S
H532 C469 0.930 . S
H533 C473 0.931 . S
H534 C474 0.959 . S
H535 C474 0.961 . S
H536 C474 0.959 . S
H537 C475 0.960 . S
H538 C475 0.960 . S
H539 C475 0.960 . S
H540 C511 0.980 . S
H541 C477 0.930 . S
H542 C481 0.930 . S
H543 C482 0.961 . S
H544 C482 0.960 . S
H545 C482 0.958 . S
H546 C483 0.961 . S
H547 C483 0.960 . S
H548 C483 0.960 . S
H549 C485 0.980 . S
H550 C484 0.961 . S
H551 C484 0.961 . S
H552 C484 0.959 . S
H553 C487 0.932 . S
H554 C491 0.929 . S
H555 C492 0.961 . S
H556 C492 0.959 . S
H557 C492 0.959 . S
H558 C493 0.960 . S
H559 C493 0.962 . S
H560 C493 0.961 . S
H561 C495 0.929 . S
H562 C498 0.930 . S
H563 C499 0.929 . S
H564 C502 0.930 . S
H565 C505 0.929 . S
H566 C506 0.930 . S
H567 C510 0.962 . S
H568 C510 0.959 . S
H569 C510 0.958 . S
C570 C571 1.560 . S
C570 H631 0.959 . S
C570 H632 0.959 . S
C570 H633 0.960 . S
C571 C570 1.560 . S
C571 O626 1.426 . S
C571 H630 0.980 . S
C572 C573 1.407 . S
C572 C577 1.418 . S
C572 O626 1.334 . S
C573 C572 1.407 . S
C573 C574 1.360 . S
C573 H634 0.929 . S
C574 C573 1.360 . S
C574 C575 1.401 . S
C574 C578 1.527 . S
C575 C574 1.401 . S
C575 C576 1.405 . S
C575 C608 1.587 . S
C576 C575 1.405 . S
C576 C577 1.332 . S
C576 C579 1.496 . S
C577 C572 1.418 . S
C577 C576 1.332 . S
C577 H635 0.929 . S
C578 C574 1.527 . S
C578 H636 0.959 . S
C578 H637 0.961 . S
C578 H638 0.961 . S
C579 C576 1.496 . S
C579 H639 0.960 . S
C579 H640 0.960 . S
C579 H641 0.961 . S
C580 C581 1.517 . S
C580 H643 0.961 . S
C580 H644 0.960 . S
C580 H645 0.959 . S
C581 C580 1.517 . S
C581 O629 1.468 . S
C581 H642 0.980 . S
C582 C583 1.349 . S
C582 C587 1.367 . S
C582 O629 1.408 . S
C583 C582 1.349 . S
C583 C584 1.407 . S
C583 H646 0.930 . S
C584 C583 1.407 . S
C584 C585 1.449 . S
C584 C588 1.535 . S
C585 C584 1.449 . S
C585 C586 1.384 . S
C585 C610 1.553 . S
C586 C585 1.384 . S
C586 C587 1.364 . S
C586 C589 1.450 . S
C587 C582 1.367 . S
C587 C586 1.364 . S
C587 H647 0.931 . S
C588 C584 1.535 . S
C588 H648 0.959 . S
C588 H649 0.961 . S
C588 H650 0.959 . S
C589 C586 1.450 . S
C589 H651 0.960 . S
C589 H652 0.960 . S
C589 H653 0.960 . S
C590 C591 1.309 . S
C590 C595 1.304 . S
C590 O628 1.435 . S
C591 C590 1.309 . S
C591 C592 1.476 . S
C591 H655 0.930 . S
C592 C591 1.476 . S
C592 C593 1.400 . S
C592 C596 1.567 . S
C593 C592 1.400 . S
C593 C594 1.373 . S
C593 C615 1.432 . S
C594 C593 1.373 . S
C594 C595 1.339 . S
C594 C597 1.530 . S
C595 C590 1.304 . S
C595 C594 1.339 . S
C595 H656 0.930 . S
C596 C592 1.567 . S
C596 H657 0.961 . S
C596 H658 0.960 . S
C596 H659 0.958 . S
C597 C594 1.530 . S
C597 H660 0.961 . S
C597 H661 0.960 . S
C597 H662 0.960 . S
C598 C599 1.530 . S
C598 H664 0.961 . S
C598 H665 0.961 . S
C598 H666 0.959 . S
C599 C598 1.530 . S
C599 O627 1.412 . S
C599 H663 0.980 . S
C600 C601 1.288 . S
C600 C605 1.377 . S
C600 O627 1.393 . S
C601 C600 1.288 . S
C601 C602 1.369 . S
C601 H667 0.932 . S
C602 C601 1.369 . S
C602 C603 1.398 . S
C602 C606 1.527 . S
C603 C602 1.398 . S
C603 C604 1.380 . S
C603 C617 1.497 . S
C604 C603 1.380 . S
C604 C605 1.383 . S
C604 C607 1.603 . S
C605 C600 1.377 . S
C605 C604 1.383 . S
C605 H668 0.929 . S
C606 C602 1.527 . S
C606 H669 0.961 . S
C606 H670 0.959 . S
C606 H671 0.959 . S
C607 C604 1.603 . S
C607 H672 0.960 . S
C607 H673 0.962 . S
C607 H674 0.961 . S
C608 C575 1.587 . S
C608 C609 1.360 . S
C608 C621 1.412 . S
C609 C608 1.360 . S
C609 C610 1.365 . S
C609 H675 0.929 . S
C610 C585 1.553 . S
C610 C609 1.365 . S
C610 C611 1.404 . S
C611 C610 1.404 . S
C611 C612 1.395 . S
C611 C622 1.451 . S
C612 C611 1.395 . S
C612 C613 1.322 . S
C612 H676 0.930 . S
C613 C612 1.322 . S
C613 C614 1.459 . S
C613 H677 0.929 . S
C614 C613 1.459 . S
C614 C615 1.445 . S
C614 C623 1.395 . S
C615 C593 1.432 . S
C615 C614 1.445 . S
C615 C616 1.370 . S
C616 C615 1.370 . S
C616 C617 1.438 . S
C616 H678 0.930 . S
C617 C603 1.497 . S
C617 C616 1.438 . S
C617 C618 1.360 . S
C618 C617 1.360 . S
C618 C619 1.401 . S
C618 C623 1.446 . S
C619 C618 1.401 . S
C619 C620 1.347 . S
C619 H679 0.929 . S
C620 C619 1.347 . S
C620 C621 1.455 . S
C620 H680 0.930 . S
C621 C608 1.412 . S
C621 C620 1.455 . S
C621 C622 1.331 . S
C622 C611 1.451 . S
C622 C621 1.331 . S
C622 C623 1.497 . S
C623 C614 1.395 . S
C623 C618 1.446 . S
C623 C622 1.497 . S
C624 C625 1.582 . S
C624 H681 0.962 . S
C624 H682 0.959 . S
C624 H683 0.958 . S
C625 C624 1.582 . S
C625 O628 1.458 . S
C625 H654 0.980 . S
O626 C571 1.426 . S
O626 C572 1.334 . S
O627 C599 1.412 . S
O627 C600 1.393 . S
O628 C590 1.435 . S
O628 C625 1.458 . S
O629 C581 1.468 . S
O629 C582 1.408 . S
H630 C571 0.980 . S
H631 C570 0.959 . S
H632 C570 0.959 . S
H633 C570 0.960 . S
H634 C573 0.929 . S
H635 C577 0.929 . S
H636 C578 0.959 . S
H637 C578 0.961 . S
H638 C578 0.961 . S
H639 C579 0.960 . S
H640 C579 0.960 . S
H641 C579 0.961 . S
H642 C581 0.980 . S
H643 C580 0.961 . S
H644 C580 0.960 . S
H645 C580 0.959 . S
H646 C583 0.930 . S
H647 C587 0.931 . S
H648 C588 0.959 . S
H649 C588 0.961 . S
H650 C588 0.959 . S
H651 C589 0.960 . S
H652 C589 0.960 . S
H653 C589 0.960 . S
H654 C625 0.980 . S
H655 C591 0.930 . S
H656 C595 0.930 . S
H657 C596 0.961 . S
H658 C596 0.960 . S
H659 C596 0.958 . S
H660 C597 0.961 . S
H661 C597 0.960 . S
H662 C597 0.960 . S
H663 C599 0.980 . S
H664 C598 0.961 . S
H665 C598 0.961 . S
H666 C598 0.959 . S
H667 C601 0.932 . S
H668 C605 0.929 . S
H669 C606 0.961 . S
H670 C606 0.959 . S
H671 C606 0.959 . S
H672 C607 0.960 . S
H673 C607 0.962 . S
H674 C607 0.961 . S
H675 C609 0.929 . S
H676 C612 0.930 . S
H677 C613 0.929 . S
H678 C616 0.930 . S
H679 C619 0.929 . S
H680 C620 0.930 . S
H681 C624 0.962 . S
H682 C624 0.959 . S
H683 C624 0.958 . S
C684 C685 1.560 . S
C684 H745 0.959 . S
C684 H746 0.959 . S
C684 H747 0.960 . S
C685 C684 1.560 . S
C685 O740 1.426 . S
C685 H744 0.980 . S
C686 C687 1.407 . S
C686 C691 1.418 . S
C686 O740 1.334 . S
C687 C686 1.407 . S
C687 C688 1.360 . S
C687 H748 0.929 . S
C688 C687 1.360 . S
C688 C689 1.401 . S
C688 C692 1.527 . S
C689 C688 1.401 . S
C689 C690 1.405 . S
C689 C722 1.587 . S
C690 C689 1.405 . S
C690 C691 1.332 . S
C690 C693 1.496 . S
C691 C686 1.418 . S
C691 C690 1.332 . S
C691 H749 0.929 . S
C692 C688 1.527 . S
C692 H750 0.959 . S
C692 H751 0.961 . S
C692 H752 0.961 . S
C693 C690 1.496 . S
C693 H753 0.960 . S
C693 H754 0.960 . S
C693 H755 0.961 . S
C694 C695 1.517 . S
C694 H757 0.961 . S
C694 H758 0.960 . S
C694 H759 0.959 . S
C695 C694 1.517 . S
C695 O743 1.468 . S
C695 H756 0.980 . S
C696 C697 1.349 . S
C696 C701 1.367 . S
C696 O743 1.408 . S
C697 C696 1.349 . S
C697 C698 1.407 . S
C697 H760 0.930 . S
C698 C697 1.407 . S
C698 C699 1.449 . S
C698 C702 1.535 . S
C699 C698 1.449 . S
C699 C700 1.384 . S
C699 C724 1.553 . S
C700 C699 1.384 . S
C700 C701 1.364 . S
C700 C703 1.450 . S
C701 C696 1.367 . S
C701 C700 1.364 . S
C701 H761 0.931 . S
C702 C698 1.535 . S
C702 H762 0.959 . S
C702 H763 0.961 . S
C702 H764 0.959 . S
C703 C700 1.450 . S
C703 H765 0.960 . S
C703 H766 0.960 . S
C703 H767 0.960 . S
C704 C705 1.309 . S
C704 C709 1.304 . S
C704 O742 1.435 . S
C705 C704 1.309 . S
C705 C706 1.476 . S
C705 H769 0.930 . S
C706 C705 1.476 . S
C706 C707 1.400 . S
C706 C710 1.567 . S
C707 C706 1.400 . S
C707 C708 1.373 . S
C707 C729 1.432 . S
C708 C707 1.373 . S
C708 C709 1.339 . S
C708 C711 1.530 . S
C709 C704 1.304 . S
C709 C708 1.339 . S
C709 H770 0.930 . S
C710 C706 1.567 . S
C710 H771 0.961 . S
C710 H772 0.960 . S
C710 H773 0.958 . S
C711 C708 1.530 . S
C711 H774 0.961 . S
C711 H775 0.960 1_556 S
C711 H776 0.960 . S
C712 C713 1.530 . S
C712 H778 0.961 . S
C712 H779 0.961 . S
C712 H780 0.959 . S
C713 C712 1.530 . S
C713 O741 1.412 . S
C713 H777 0.980 . S
C714 C715 1.288 . S
C714 C719 1.377 . S
C714 O741 1.393 . S
C715 C714 1.288 . S
C715 C716 1.369 . S
C715 H781 0.932 . S
C716 C715 1.369 . S
C716 C717 1.398 . S
C716 C720 1.527 . S
C717 C716 1.398 . S
C717 C718 1.380 . S
C717 C731 1.497 . S
C718 C717 1.380 . S
C718 C719 1.383 . S
C718 C721 1.603 . S
C719 C714 1.377 . S
C719 C718 1.383 . S
C719 H782 0.929 . S
C720 C716 1.527 . S
C720 H783 0.961 . S
C720 H784 0.959 . S
C720 H785 0.959 . S
C721 C718 1.603 . S
C721 H786 0.960 . S
C721 H787 0.962 . S
C721 H788 1.036 . S
C722 C689 1.587 . S
C722 C723 1.360 . S
C722 C735 1.412 . S
C723 C722 1.360 . S
C723 C724 1.365 . S
C723 H789 0.929 . S
C724 C699 1.553 . S
C724 C723 1.365 . S
C724 C725 1.404 . S
C725 C724 1.404 . S
C725 C726 1.395 . S
C725 C736 1.451 . S
C726 C725 1.395 . S
C726 C727 1.322 . S
C726 H790 0.930 . S
C727 C726 1.322 . S
C727 C728 1.459 . S
C727 H791 0.929 . S
C728 C727 1.459 . S
C728 C729 1.445 1_554 S
C728 C737 1.395 . S
C729 C707 1.432 . S
C729 C728 1.445 1_556 S
C729 C730 1.370 . S
C730 C729 1.370 . S
C730 C731 1.438 . S
C730 H792 0.930 . S
C731 C717 1.497 . S
C731 C730 1.438 . S
C731 C732 1.379 . S
C732 C731 1.379 . S
C732 C733 1.393 1_556 S
C732 C737 1.435 1_556 S
C733 C732 1.393 1_554 S
C733 C734 1.347 . S
C733 H793 0.927 . S
C734 C733 1.347 . S
C734 C735 1.455 . S
C734 H794 0.930 . S
C735 C722 1.412 . S
C735 C734 1.455 . S
C735 C736 1.331 . S
C736 C725 1.451 . S
C736 C735 1.331 . S
C736 C737 1.497 . S
C737 C728 1.395 . S
C737 C732 1.435 1_554 S
C737 C736 1.497 . S
C738 C739 1.582 . S
C738 H795 0.962 . S
C738 H796 0.959 . S
C738 H797 0.958 . S
C739 C738 1.582 . S
C739 O742 1.458 . S
C739 H768 0.980 . S
O740 C685 1.426 . S
O740 C686 1.334 . S
O741 C713 1.412 . S
O741 C714 1.393 . S
O742 C704 1.435 . S
O742 C739 1.458 . S
O743 C695 1.468 . S
O743 C696 1.408 . S
H744 C685 0.980 . S
H745 C684 0.959 . S
H746 C684 0.959 . S
H747 C684 0.960 . S
H748 C687 0.929 . S
H749 C691 0.929 . S
H750 C692 0.959 . S
H751 C692 0.961 . S
H752 C692 0.961 . S
H753 C693 0.960 . S
H754 C693 0.960 . S
H755 C693 0.961 . S
H756 C695 0.980 . S
H757 C694 0.961 . S
H758 C694 0.960 . S
H759 C694 0.959 . S
H760 C697 0.930 . S
H761 C701 0.931 . S
H762 C702 0.959 . S
H763 C702 0.961 . S
H764 C702 0.959 . S
H765 C703 0.960 . S
H766 C703 0.960 . S
H767 C703 0.960 . S
H768 C739 0.980 . S
H769 C705 0.930 . S
H770 C709 0.930 . S
H771 C710 0.961 . S
H772 C710 0.960 . S
H773 C710 0.958 . S
H774 C711 0.961 . S
H775 C711 0.960 1_554 S
H776 C711 0.960 . S
H777 C713 0.980 . S
H778 C712 0.961 . S
H779 C712 0.961 . S
H780 C712 0.959 . S
H781 C715 0.932 . S
H782 C719 0.929 . S
H783 C720 0.961 . S
H784 C720 0.959 . S
H785 C720 0.959 . S
H786 C721 0.960 . S
H787 C721 0.962 . S
H788 C721 1.036 . S
H789 C723 0.929 . S
H790 C726 0.930 . S
H791 C727 0.929 . S
H792 C730 0.930 . S
H793 C733 0.927 . S
H794 C734 0.930 . S
H795 C738 0.962 . S
H796 C738 0.959 . S
H797 C738 0.958 . S
C798 C799 1.560 . S
C798 H859 0.959 . S
C798 H860 0.959 . S
C798 H861 0.960 . S
C799 C798 1.560 . S
C799 O854 1.426 . S
C799 H858 0.980 . S
C800 C801 1.407 . S
C800 C805 1.418 . S
C800 O854 1.334 . S
C801 C800 1.407 . S
C801 C802 1.360 . S
C801 H862 0.929 . S
C802 C801 1.360 . S
C802 C803 1.401 . S
C802 C806 1.527 . S
C803 C802 1.401 . S
C803 C804 1.405 . S
C803 C836 1.587 . S
C804 C803 1.405 . S
C804 C805 1.332 . S
C804 C807 1.496 . S
C805 C800 1.418 . S
C805 C804 1.332 . S
C805 H863 0.929 . S
C806 C802 1.527 . S
C806 H864 0.959 . S
C806 H865 0.961 . S
C806 H866 0.961 . S
C807 C804 1.496 . S
C807 H867 0.960 . S
C807 H868 0.960 . S
C807 H869 0.961 . S
C808 C809 1.517 . S
C808 H871 0.961 . S
C808 H872 0.960 . S
C808 H873 0.959 . S
C809 C808 1.517 . S
C809 O857 1.468 . S
C809 H870 0.980 . S
C810 C811 1.349 . S
C810 C815 1.367 . S
C810 O857 1.408 . S
C811 C810 1.349 . S
C811 C812 1.407 . S
C811 H874 0.930 . S
C812 C811 1.407 . S
C812 C813 1.449 . S
C812 C816 1.535 . S
C813 C812 1.449 . S
C813 C814 1.384 . S
C813 C838 1.553 . S
C814 C813 1.384 . S
C814 C815 1.364 . S
C814 C817 1.450 . S
C815 C810 1.367 . S
C815 C814 1.364 . S
C815 H875 0.931 . S
C816 C812 1.535 . S
C816 H876 0.959 . S
C816 H877 0.961 . S
C816 H878 0.959 . S
C817 C814 1.450 . S
C817 H879 0.960 . S
C817 H880 0.960 . S
C817 H881 0.960 . S
C818 C819 1.309 . S
C818 C823 1.304 . S
C818 O856 1.435 . S
C819 C818 1.309 . S
C819 C820 1.476 . S
C819 H883 0.930 . S
C820 C819 1.476 . S
C820 C821 1.400 . S
C820 C824 1.567 . S
C821 C820 1.400 . S
C821 C822 1.373 . S
C821 C843 1.432 . S
C822 C821 1.373 . S
C822 C823 1.339 . S
C822 C825 1.530 . S
C823 C818 1.304 . S
C823 C822 1.339 . S
C823 H884 0.930 . S
C824 C820 1.567 . S
C824 H885 0.961 . S
C824 H886 0.960 . S
C824 H887 0.958 . S
C825 C822 1.530 . S
C825 H888 0.961 . S
C825 H889 0.960 . S
C825 H890 0.960 . S
C826 C827 1.530 . S
C826 H892 0.961 . S
C826 H893 0.961 . S
C826 H894 0.959 . S
C827 C826 1.530 . S
C827 O855 1.412 . S
C827 H891 0.980 . S
C828 C829 1.288 . S
C828 C833 1.377 . S
C828 O855 1.393 . S
C829 C828 1.288 . S
C829 C830 1.369 . S
C829 H895 0.932 . S
C830 C829 1.369 . S
C830 C831 1.398 . S
C830 C834 1.527 . S
C831 C830 1.398 . S
C831 C832 1.380 . S
C831 C845 1.497 . S
C832 C831 1.380 . S
C832 C833 1.383 . S
C832 C835 1.603 . S
C833 C828 1.377 . S
C833 C832 1.383 . S
C833 H896 0.929 . S
C834 C830 1.527 . S
C834 H897 0.961 . S
C834 H898 0.959 . S
C834 H899 0.959 . S
C835 C832 1.603 . S
C835 H900 0.960 . S
C835 H901 0.962 . S
C835 H902 0.961 . S
C836 C803 1.587 . S
C836 C837 1.360 1_655 S
C836 C849 1.412 . S
C837 C836 1.360 1_455 S
C837 C838 1.365 . S
C837 H903 0.929 . S
C838 C813 1.553 . S
C838 C837 1.365 . S
C838 C839 1.404 . S
C839 C838 1.404 . S
C839 C840 1.395 . S
C839 C850 1.451 . S
C840 C839 1.395 . S
C840 C841 1.322 . S
C840 H904 0.930 . S
C841 C840 1.322 . S
C841 C842 1.459 . S
C841 H905 0.929 . S
C842 C841 1.459 . S
C842 C843 1.445 . S
C842 C851 1.395 . S
C843 C821 1.432 . S
C843 C842 1.445 . S
C843 C844 1.370 . S
C844 C843 1.370 . S
C844 C845 1.438 1_455 S
C844 H906 0.930 . S
C845 C831 1.497 . S
C845 C844 1.438 1_655 S
C845 C846 1.360 . S
C846 C845 1.360 . S
C846 C847 1.401 . S
C846 C851 1.446 1_655 S
C847 C846 1.401 . S
C847 C848 1.347 . S
C847 H907 0.929 . S
C848 C847 1.347 . S
C848 C849 1.455 . S
C848 H908 0.930 . S
C849 C836 1.412 . S
C849 C848 1.455 . S
C849 C850 1.331 1_655 S
C850 C839 1.451 . S
C850 C849 1.331 1_455 S
C850 C851 1.497 . S
C851 C842 1.395 . S
C851 C846 1.446 1_455 S
C851 C850 1.497 . S
C852 C853 1.582 . S
C852 H909 0.962 . S
C852 H910 0.959 . S
C852 H911 0.958 . S
C853 C852 1.582 . S
C853 O856 1.458 . S
C853 H882 0.980 . S
O854 C799 1.426 . S
O854 C800 1.334 . S
O855 C827 1.412 . S
O855 C828 1.393 . S
O856 C818 1.435 . S
O856 C853 1.458 . S
O857 C809 1.468 . S
O857 C810 1.408 . S
H858 C799 0.980 . S
H859 C798 0.959 . S
H860 C798 0.959 . S
H861 C798 0.960 . S
H862 C801 0.929 . S
H863 C805 0.929 . S
H864 C806 0.959 . S
H865 C806 0.961 . S
H866 C806 0.961 . S
H867 C807 0.960 . S
H868 C807 0.960 . S
H869 C807 0.961 . S
H870 C809 0.980 . S
H871 C808 0.961 . S
H872 C808 0.960 . S
H873 C808 0.959 . S
H874 C811 0.930 . S
H875 C815 0.931 . S
H876 C816 0.959 . S
H877 C816 0.961 . S
H878 C816 0.959 . S
H879 C817 0.960 . S
H880 C817 0.960 . S
H881 C817 0.960 . S
H882 C853 0.980 . S
H883 C819 0.930 . S
H884 C823 0.930 . S
H885 C824 0.961 . S
H886 C824 0.960 . S
H887 C824 0.958 . S
H888 C825 0.961 . S
H889 C825 0.960 . S
H890 C825 0.960 . S
H891 C827 0.980 . S
H892 C826 0.961 . S
H893 C826 0.961 . S
H894 C826 0.959 . S
H895 C829 0.932 . S
H896 C833 0.929 . S
H897 C834 0.961 . S
H898 C834 0.959 . S
H899 C834 0.959 . S
H900 C835 0.960 . S
H901 C835 0.962 . S
H902 C835 0.961 . S
H903 C837 0.929 . S
H904 C840 0.930 . S
H905 C841 0.929 . S
H906 C844 0.930 . S
H907 C847 0.929 . S
H908 C848 0.930 . S
H909 C852 0.962 . S
H910 C852 0.959 . S
H911 C852 0.958 . S
Fe912 O913 1.886 . S
Fe912 O916 1.715 1_455 S
Fe912 O921 2.077 . S
Fe912 O926 1.935 1_455 S
Fe912 O932 2.077 . S
Fe912 O941 1.935 1_455 S
O913 Fe912 1.886 . S
O913 Fe915 1.715 . S
Fe914 O916 1.886 . S
Fe914 O917 1.715 . S
Fe914 O924 1.935 . S
Fe914 O925 2.077 . S
Fe914 O931 1.935 . S
Fe914 O940 2.077 . S
Fe915 O913 1.715 . S
Fe915 O918 1.886 . S
Fe915 O922 1.935 . S
Fe915 O927 2.077 . S
Fe915 O933 1.935 . S
Fe915 O937 2.077 . S
O916 Fe912 1.715 1_655 S
O916 Fe914 1.886 . S
O917 Fe914 1.715 . S
O917 Fe919 1.886 1_655 S
O918 Fe915 1.886 . S
O918 Fe919 1.715 . S
Fe919 O917 1.886 1_455 S
Fe919 O918 1.715 . S
Fe919 O923 2.077 1_455 S
Fe919 O928 1.935 . S
Fe919 O930 2.077 1_455 S
Fe919 O938 1.935 . S
C920 O932 1.381 . S
C920 O933 1.421 . S
O921 Fe912 2.077 . S
O921 C934 1.381 . S
O922 Fe915 1.935 . S
O922 C934 1.421 . S
O923 Fe919 2.077 1_655 S
O923 C939 1.381 . S
O924 Fe914 1.935 . S
O924 C939 1.421 . S
O925 Fe914 2.077 . S
O925 C929 1.381 . S
O926 Fe912 1.935 1_655 S
O926 C929 1.421 . S
O927 Fe915 2.077 . S
O927 C935 1.381 . S
O928 Fe919 1.935 . S
O928 C935 1.421 . S
C929 O925 1.381 . S
C929 O926 1.421 . S
O930 Fe919 2.077 1_655 S
O930 C942 1.381 . S
O931 Fe914 1.935 . S
O931 C942 1.421 . S
O932 Fe912 2.077 . S
O932 C920 1.381 . S
O933 Fe915 1.935 . S
O933 C920 1.421 . S
C934 O921 1.381 . S
C934 O922 1.421 . S
C935 O927 1.381 . S
C935 O928 1.421 . S
C936 O937 1.381 . S
C936 O938 1.421 . S
O937 Fe915 2.077 . S
O937 C936 1.381 . S
O938 Fe919 1.935 . S
O938 C936 1.421 . S
C939 O923 1.381 . S
C939 O924 1.421 . S
O940 Fe914 2.077 . S
O940 C943 1.381 . S
O941 Fe912 1.935 1_655 S
O941 C943 1.421 . S
C942 O930 1.381 . S
C942 O931 1.421 . S
C943 O940 1.381 . S
C943 O941 1.421 . S
Fe944 O945 1.886 . S
Fe944 O948 1.715 . S
Fe944 O953 2.077 . S
Fe944 O958 1.935 . S
Fe944 O964 2.077 . S
Fe944 O973 1.935 . S
O945 Fe944 1.886 . S
O945 Fe947 1.715 . S
Fe946 O948 1.886 . S
Fe946 O949 1.715 . S
Fe946 O956 1.935 . S
Fe946 O957 2.077 . S
Fe946 O963 1.935 . S
Fe946 O972 2.077 . S
Fe947 O945 1.715 . S
Fe947 O950 1.886 . S
Fe947 O954 1.935 . S
Fe947 O959 2.077 . S
Fe947 O965 1.935 . S
Fe947 O969 2.077 . S
O948 Fe944 1.715 . S
O948 Fe946 1.886 . S
O949 Fe946 1.715 . S
O949 Fe951 1.886 . S
O950 Fe947 1.886 . S
O950 Fe951 1.715 . S
Fe951 O949 1.886 . S
Fe951 O950 1.715 . S
Fe951 O955 2.077 . S
Fe951 O960 1.935 . S
Fe951 O962 2.077 . S
Fe951 O970 1.935 . S
C952 O964 1.381 . S
C952 O965 1.421 . S
O953 Fe944 2.077 . S
O953 C966 1.381 . S
O954 Fe947 1.935 . S
O954 C966 1.421 . S
O955 Fe951 2.077 . S
O955 C971 1.381 . S
O956 Fe946 1.935 . S
O956 C971 1.421 . S
O957 Fe946 2.077 . S
O957 C961 1.381 . S
O958 Fe944 1.935 . S
O958 C961 1.421 . S
O959 Fe947 2.077 . S
O959 C967 1.381 . S
O960 Fe951 1.935 . S
O960 C967 1.421 . S
C961 O957 1.381 . S
C961 O958 1.421 . S
O962 Fe951 2.077 . S
O962 C974 1.381 . S
O963 Fe946 1.935 . S
O963 C974 1.421 . S
O964 Fe944 2.077 . S
O964 C952 1.381 . S
O965 Fe947 1.935 . S
O965 C952 1.421 . S
C966 O953 1.381 . S
C966 O954 1.421 . S
C967 O959 1.381 . S
C967 O960 1.421 . S
C968 O969 1.381 . S
C968 O970 1.421 . S
O969 Fe947 2.077 . S
O969 C968 1.381 . S
O970 Fe951 1.935 . S
O970 C968 1.421 . S
C971 O955 1.381 . S
C971 O956 1.421 . S
O972 Fe946 2.077 . S
O972 C975 1.381 . S
O973 Fe944 1.935 . S
O973 C975 1.421 . S
C974 O962 1.381 . S
C974 O963 1.421 . S
C975 O972 1.381 . S
C975 O973 1.421 . S
Fe976 O977 1.886 . S
Fe976 O980 1.715 . S
Fe976 O985 2.077 . S
Fe976 O990 1.935 . S
Fe976 O996 2.077 . S
Fe976 O1005 1.935 . S
O977 Fe976 1.886 . S
O977 Fe979 1.715 . S
Fe978 O980 1.886 . S
Fe978 O981 1.715 . S
Fe978 O988 1.935 . S
Fe978 O989 2.077 . S
Fe978 O995 1.935 . S
Fe978 O1004 2.077 . S
Fe979 O977 1.715 . S
Fe979 O982 1.886 . S
Fe979 O986 1.935 . S
Fe979 O991 2.077 . S
Fe979 O997 1.935 . S
Fe979 O1001 2.077 . S
O980 Fe976 1.715 . S
O980 Fe978 1.886 . S
O981 Fe978 1.715 . S
O981 Fe983 1.886 . S
O982 Fe979 1.886 . S
O982 Fe983 1.715 . S
Fe983 O981 1.886 . S
Fe983 O982 1.715 . S
Fe983 O987 2.077 . S
Fe983 O992 1.935 . S
Fe983 O994 2.077 . S
Fe983 O1002 1.935 . S
C984 O996 1.381 . S
C984 O997 1.421 . S
O985 Fe976 2.077 . S
O985 C998 1.381 . S
O986 Fe979 1.935 . S
O986 C998 1.421 . S
O987 Fe983 2.077 . S
O987 C1003 1.381 . S
O988 Fe978 1.935 . S
O988 C1003 1.421 . S
O989 Fe978 2.077 . S
O989 C993 1.381 . S
O990 Fe976 1.935 . S
O990 C993 1.421 . S
O991 Fe979 2.077 . S
O991 C999 1.381 . S
O992 Fe983 1.935 . S
O992 C999 1.421 . S
C993 O989 1.381 . S
C993 O990 1.421 . S
O994 Fe983 2.077 . S
O994 C1006 1.381 . S
O995 Fe978 1.935 . S
O995 C1006 1.421 . S
O996 Fe976 2.077 . S
O996 C984 1.381 . S
O997 Fe979 1.935 . S
O997 C984 1.421 . S
C998 O985 1.381 . S
C998 O986 1.421 . S
C999 O991 1.381 . S
C999 O992 1.421 . S
C1000 O1001 1.381 . S
C1000 O1002 1.421 . S
O1001 Fe979 2.077 . S
O1001 C1000 1.381 . S
O1002 Fe983 1.935 . S
O1002 C1000 1.421 . S
C1003 O987 1.381 . S
C1003 O988 1.421 . S
O1004 Fe978 2.077 . S
O1004 C1007 1.381 . S
O1005 Fe976 1.935 . S
O1005 C1007 1.421 . S
C1006 O994 1.381 . S
C1006 O995 1.421 . S
C1007 O1004 1.381 . S
C1007 O1005 1.421 . S
Fe1008 O1009 1.886 . S
Fe1008 O1012 1.715 . S
Fe1008 O1017 2.077 1_455 S
Fe1008 O1022 1.935 1_455 S
Fe1008 O1028 2.077 . S
Fe1008 O1037 1.935 . S
O1009 Fe1008 1.886 . S
O1009 Fe1011 1.715 . S
Fe1010 O1012 1.886 . S
Fe1010 O1013 1.715 . S
Fe1010 O1020 1.935 1_455 S
Fe1010 O1021 2.077 1_455 S
Fe1010 O1027 1.935 . S
Fe1010 O1036 2.077 . S
Fe1011 O1009 1.715 . S
Fe1011 O1014 1.886 . S
Fe1011 O1018 1.935 1_455 S
Fe1011 O1023 2.077 1_455 S
Fe1011 O1029 1.935 . S
Fe1011 O1033 2.077 . S
O1012 Fe1008 1.715 . S
O1012 Fe1010 1.886 . S
O1013 Fe1010 1.715 . S
O1013 Fe1015 1.886 . S
O1014 Fe1011 1.886 . S
O1014 Fe1015 1.715 . S
Fe1015 O1013 1.886 . S
Fe1015 O1014 1.715 . S
Fe1015 O1019 2.077 1_455 S
Fe1015 O1024 1.935 1_455 S
Fe1015 O1026 2.077 . S
Fe1015 O1034 1.935 . S
C1016 O1028 1.381 . S
C1016 O1029 1.421 . S
O1017 Fe1008 2.077 1_655 S
O1017 C1030 1.381 . S
O1018 Fe1011 1.935 1_655 S
O1018 C1030 1.421 . S
O1019 Fe1015 2.077 1_655 S
O1019 C1035 1.381 . S
O1020 Fe1010 1.935 1_655 S
O1020 C1035 1.421 . S
O1021 Fe1010 2.077 1_655 S
O1021 C1025 1.381 . S
O1022 Fe1008 1.935 1_655 S
O1022 C1025 1.421 . S
O1023 Fe1011 2.077 1_655 S
O1023 C1031 1.381 . S
O1024 Fe1015 1.935 1_655 S
O1024 C1031 1.421 . S
C1025 O1021 1.381 . S
C1025 O1022 1.421 . S
O1026 Fe1015 2.077 . S
O1026 C1038 1.381 . S
O1027 Fe1010 1.935 . S
O1027 C1038 1.421 . S
O1028 Fe1008 2.077 . S
O1028 C1016 1.381 . S
O1029 Fe1011 1.935 . S
O1029 C1016 1.421 . S
C1030 O1017 1.381 . S
C1030 O1018 1.421 . S
C1031 O1023 1.381 . S
C1031 O1024 1.421 . S
C1032 O1033 1.381 . S
C1032 O1034 1.421 . S
O1033 Fe1011 2.077 . S
O1033 C1032 1.381 . S
O1034 Fe1015 1.935 . S
O1034 C1032 1.421 . S
C1035 O1019 1.381 . S
C1035 O1020 1.421 . S
O1036 Fe1010 2.077 . S
O1036 C1039 1.381 . S
O1037 Fe1008 1.935 . S
O1037 C1039 1.421 . S
C1038 O1026 1.381 . S
C1038 O1027 1.421 . S
C1039 O1036 1.381 . S
C1039 O1037 1.421 . S
H1040 C1058 0.951 . S
H1041 C1060 0.951 . S
H1042 C1062 0.950 . S
H1043 C1063 0.950 . S
H1044 C1065 0.950 . S
H1045 C1068 0.950 . S
H1046 C1069 0.950 . S
H1047 C1071 0.950 . S
H1048 C1072 0.950 . S
H1049 C1073 0.951 . S
H1050 C1075 0.951 . S
H1051 C1077 0.950 . S
H1052 C1078 0.950 . S
H1053 C1080 0.950 . S
H1054 C1083 0.950 . S
H1055 C1084 0.950 . S
H1056 C1086 0.950 . S
H1057 C1087 0.950 . S
C1058 H1040 0.951 . S
C1058 C1059 1.366 . S
C1058 C1060 1.388 . S
C1059 C1058 1.366 . S
C1059 C1063 1.385 . S
C1060 H1041 0.951 . S
C1060 C1058 1.388 . S
C1060 C1061 1.366 . S
C1061 C1060 1.366 . S
C1061 C1062 1.414 . S
C1061 C1064 1.499 . S
C1062 H1042 0.950 . S
C1062 C1061 1.414 . S
C1062 C1063 1.374 . S
C1063 H1043 0.950 . S
C1063 C1059 1.385 . S
C1063 C1062 1.374 . S
C1064 C1061 1.499 . S
C1064 C1065 1.373 . S
C1064 C1066 1.389 . S
C1065 H1044 0.950 . S
C1065 C1064 1.373 . S
C1065 C1081 1.377 . S
C1066 C1064 1.389 . S
C1066 C1067 1.524 . S
C1066 C1080 1.377 . S
C1067 C1066 1.524 . S
C1067 C1068 1.397 . S
C1067 C1072 1.363 . S
C1068 H1045 0.950 . S
C1068 C1067 1.397 . S
C1068 C1069 1.334 . S
C1069 H1046 0.950 . S
C1069 C1068 1.334 . S
C1069 C1070 1.287 . S
C1070 C1069 1.287 . S
C1070 C1071 1.524 . S
C1070 H1089 0.913 . S
C1071 H1047 0.950 . S
C1071 C1070 1.524 . S
C1071 C1072 1.415 . S
C1072 H1048 0.950 . S
C1072 C1067 1.363 . S
C1072 C1071 1.415 . S
C1073 H1049 0.951 . S
C1073 C1074 1.366 . S
C1073 C1075 1.388 . S
C1074 C1073 1.366 . S
C1074 C1078 1.385 . S
C1075 H1050 0.951 . S
C1075 C1073 1.388 . S
C1075 C1076 1.366 . S
C1076 C1075 1.366 . S
C1076 C1077 1.414 . S
C1076 C1079 1.499 . S
C1077 H1051 0.950 . S
C1077 C1076 1.414 . S
C1077 C1078 1.374 . S
C1078 H1052 0.950 . S
C1078 C1074 1.385 . S
C1078 C1077 1.374 . S
C1079 C1076 1.499 . S
C1079 C1080 1.373 . S
C1079 C1081 1.389 . S
C1080 H1053 0.950 . S
C1080 C1066 1.377 . S
C1080 C1079 1.373 . S
C1081 C1065 1.377 . S
C1081 C1079 1.389 . S
C1081 C1082 1.524 . S
C1082 C1081 1.524 . S
C1082 C1083 1.397 . S
C1082 C1087 1.363 . S
C1083 H1054 0.950 . S
C1083 C1082 1.397 . S
C1083 C1084 1.334 . S
C1084 H1055 0.950 . S
C1084 C1083 1.334 . S
C1084 C1085 1.287 . S
C1085 C1084 1.287 . S
C1085 C1086 1.524 . S
C1085 H1088 0.999 . S
C1086 H1056 0.950 . S
C1086 C1085 1.524 . S
C1086 C1087 1.415 . S
C1087 H1057 0.950 . S
C1087 C1082 1.363 . S
C1087 C1086 1.415 . S
H1088 C1085 0.999 . S
H1089 C1070 0.913 . S
H1090 C1108 0.951 . S
H1091 C1110 0.951 . S
H1092 C1112 0.949 1_545 S
H1093 C1113 0.950 . S
H1094 C1115 0.950 . S
H1095 C1118 0.950 . S
H1096 C1119 0.950 . S
H1097 C1121 0.950 . S
H1098 C1122 0.950 . S
H1099 C1123 0.951 . S
H1100 C1125 0.951 . S
H1101 C1127 0.950 . S
H1102 C1128 0.950 . S
H1103 C1130 0.950 . S
H1104 C1133 0.950 . S
H1105 C1134 0.950 . S
H1106 C1136 0.950 . S
H1107 C1137 0.950 . S
C1108 H1090 0.951 . S
C1108 C1109 1.366 . S
C1108 C1110 1.388 . S
C1109 C1108 1.366 . S
C1109 C1113 1.385 . S
C1110 H1091 0.951 . S
C1110 C1108 1.388 . S
C1110 C1111 1.378 . S
C1111 C1110 1.378 . S
C1111 C1112 1.414 . S
C1111 C1114 1.486 1_565 S
C1112 H1092 0.949 1_565 S
C1112 C1111 1.414 . S
C1112 C1113 1.375 . S
C1113 H1093 0.950 . S
C1113 C1109 1.385 . S
C1113 C1112 1.375 . S
C1114 C1111 1.486 1_545 S
C1114 C1115 1.373 . S
C1114 C1116 1.389 . S
C1115 H1094 0.950 . S
C1115 C1114 1.373 . S
C1115 C1131 1.377 . S
C1116 C1114 1.389 . S
C1116 C1117 1.524 1_545 S
C1116 C1130 1.377 . S
C1117 C1116 1.524 1_565 S
C1117 C1118 1.397 . S
C1117 C1122 1.363 . S
C1118 H1095 0.950 . S
C1118 C1117 1.397 . S
C1118 C1119 1.334 . S
C1119 H1096 0.950 . S
C1119 C1118 1.334 . S
C1119 C1120 1.287 . S
C1120 C1119 1.287 . S
C1120 C1121 1.524 . S
C1120 H1139 0.913 . S
C1121 H1097 0.950 . S
C1121 C1120 1.524 . S
C1121 C1122 1.415 . S
C1122 H1098 0.950 . S
C1122 C1117 1.363 . S
C1122 C1121 1.415 . S
C1123 H1099 0.951 . S
C1123 C1124 1.366 . S
C1123 C1125 1.388 . S
C1124 C1123 1.366 . S
C1124 C1128 1.385 . S
C1125 H1100 0.951 . S
C1125 C1123 1.388 . S
C1125 C1126 1.366 . S
C1126 C1125 1.366 . S
C1126 C1127 1.414 . S
C1126 C1129 1.499 . S
C1127 H1101 0.950 . S
C1127 C1126 1.414 . S
C1127 C1128 1.374 . S
C1128 H1102 0.950 . S
C1128 C1124 1.385 . S
C1128 C1127 1.374 . S
C1129 C1126 1.499 . S
C1129 C1130 1.373 . S
C1129 C1131 1.389 . S
C1130 H1103 0.950 . S
C1130 C1116 1.377 . S
C1130 C1129 1.373 . S
C1131 C1115 1.377 . S
C1131 C1129 1.389 . S
C1131 C1132 1.524 . S
C1132 C1131 1.524 . S
C1132 C1133 1.397 . S
C1132 C1137 1.363 . S
C1133 H1104 0.950 . S
C1133 C1132 1.397 . S
C1133 C1134 1.334 . S
C1134 H1105 0.950 . S
C1134 C1133 1.334 . S
C1134 C1135 1.287 . S
C1135 C1134 1.287 . S
C1135 C1136 1.524 . S
C1135 H1138 0.999 . S
C1136 H1106 0.950 . S
C1136 C1135 1.524 . S
C1136 C1137 1.415 . S
C1137 H1107 0.950 . S
C1137 C1132 1.363 . S
C1137 C1136 1.415 . S
H1138 C1135 0.999 . S
H1139 C1120 0.913 . S
H1140 C1158 0.951 . S
H1141 C1160 0.951 . S
H1142 C1162 0.950 . S
H1143 C1163 0.950 . S
H1144 C1165 0.950 . S
H1145 C1168 0.950 . S
H1146 C1169 0.950 . S
H1147 C1171 0.950 . S
H1148 C1172 0.950 . S
H1149 C1173 0.951 . S
H1150 C1175 0.951 . S
H1151 C1177 0.950 . S
H1152 C1178 0.950 . S
H1153 C1180 0.950 . S
H1154 C1183 0.950 . S
H1155 C1184 0.950 . S
H1156 C1186 0.950 . S
H1157 C1187 0.950 . S
C1158 H1140 0.951 . S
C1158 C1159 1.366 . S
C1158 C1160 1.388 . S
C1159 C1158 1.366 . S
C1159 C1163 1.385 . S
C1160 H1141 0.951 . S
C1160 C1158 1.388 . S
C1160 C1161 1.366 . S
C1161 C1160 1.366 . S
C1161 C1162 1.414 . S
C1161 C1164 1.499 . S
C1162 H1142 0.950 . S
C1162 C1161 1.414 . S
C1162 C1163 1.374 . S
C1163 H1143 0.950 . S
C1163 C1159 1.385 . S
C1163 C1162 1.374 . S
C1164 C1161 1.499 . S
C1164 C1165 1.373 . S
C1164 C1166 1.389 . S
C1165 H1144 0.950 . S
C1165 C1164 1.373 . S
C1165 C1181 1.377 . S
C1166 C1164 1.389 . S
C1166 C1167 1.524 . S
C1166 C1180 1.377 . S
C1167 C1166 1.524 . S
C1167 C1168 1.397 . S
C1167 C1172 1.363 . S
C1168 H1145 0.950 . S
C1168 C1167 1.397 . S
C1168 C1169 1.334 . S
C1169 H1146 0.950 . S
C1169 C1168 1.334 . S
C1169 C1170 1.287 . S
C1170 C1169 1.287 . S
C1170 C1171 1.524 . S
C1170 H1189 0.913 . S
C1171 H1147 0.950 . S
C1171 C1170 1.524 . S
C1171 C1172 1.415 . S
C1172 H1148 0.950 . S
C1172 C1167 1.363 . S
C1172 C1171 1.415 . S
C1173 H1149 0.951 . S
C1173 C1174 1.366 . S
C1173 C1175 1.388 . S
C1174 C1173 1.366 . S
C1174 C1178 1.385 . S
C1175 H1150 0.951 . S
C1175 C1173 1.388 . S
C1175 C1176 1.366 . S
C1176 C1175 1.366 . S
C1176 C1177 1.414 . S
C1176 C1179 1.499 . S
C1177 H1151 0.950 . S
C1177 C1176 1.414 . S
C1177 C1178 1.374 . S
C1178 H1152 0.950 . S
C1178 C1174 1.385 . S
C1178 C1177 1.374 . S
C1179 C1176 1.499 . S
C1179 C1180 1.373 . S
C1179 C1181 1.389 . S
C1180 H1153 0.950 . S
C1180 C1166 1.377 . S
C1180 C1179 1.373 . S
C1181 C1165 1.377 . S
C1181 C1179 1.389 . S
C1181 C1182 1.524 . S
C1182 C1181 1.524 . S
C1182 C1183 1.397 . S
C1182 C1187 1.363 . S
C1183 H1154 0.950 . S
C1183 C1182 1.397 . S
C1183 C1184 1.334 . S
C1184 H1155 0.950 . S
C1184 C1183 1.334 . S
C1184 C1185 1.287 . S
C1185 C1184 1.287 . S
C1185 C1186 1.524 . S
C1185 H1188 0.999 . S
C1186 H1156 0.950 . S
C1186 C1185 1.524 . S
C1186 C1187 1.415 . S
C1187 H1157 0.950 . S
C1187 C1182 1.363 . S
C1187 C1186 1.415 . S
H1188 C1185 0.999 . S
H1189 C1170 0.913 . S
H1190 C1208 0.951 . S
H1191 C1210 0.951 1_565 S
H1192 C1212 0.950 . S
H1193 C1213 0.950 . S
H1194 C1215 0.950 1_545 S
H1195 C1218 0.950 . S
H1196 C1219 0.950 . S
H1197 C1221 0.950 . S
H1198 C1222 0.950 . S
H1199 C1223 0.951 . S
H1200 C1225 0.951 . S
H1201 C1227 0.950 . S
H1202 C1228 0.950 . S
H1203 C1230 0.950 . S
H1204 C1233 0.950 . S
H1205 C1234 0.950 1_655 S
H1206 C1236 0.950 1_545 S
H1207 C1237 0.950 1_545 S
C1208 H1190 0.951 . S
C1208 C1209 1.366 . S
C1208 C1210 1.388 . S
C1209 C1208 1.366 . S
C1209 C1213 1.385 . S
C1210 H1191 0.951 1_545 S
C1210 C1208 1.388 . S
C1210 C1211 1.366 . S
C1211 C1210 1.366 . S
C1211 C1212 1.414 . S
C1211 C1214 1.499 1_545 S
C1212 H1192 0.950 . S
C1212 C1211 1.414 . S
C1212 C1213 1.374 . S
C1213 H1193 0.950 . S
C1213 C1209 1.385 . S
C1213 C1212 1.374 . S
C1214 C1211 1.499 1_565 S
C1214 C1215 1.373 . S
C1214 C1216 1.389 . S
C1215 H1194 0.950 1_565 S
C1215 C1214 1.373 . S
C1215 C1231 1.377 . S
C1216 C1214 1.389 . S
C1216 C1217 1.524 . S
C1216 C1230 1.377 . S
C1217 C1216 1.524 . S
C1217 C1218 1.397 . S
C1217 C1222 1.363 . S
C1218 H1195 0.950 . S
C1218 C1217 1.397 . S
C1218 C1219 1.334 . S
C1219 H1196 0.950 . S
C1219 C1218 1.334 . S
C1219 C1220 1.287 . S
C1220 C1219 1.287 . S
C1220 C1221 1.524 . S
C1220 H1239 0.913 . S
C1221 H1197 0.950 . S
C1221 C1220 1.524 . S
C1221 C1222 1.415 . S
C1222 H1198 0.950 . S
C1222 C1217 1.363 . S
C1222 C1221 1.415 . S
C1223 H1199 0.951 . S
C1223 C1224 1.366 . S
C1223 C1225 1.388 . S
C1224 C1223 1.366 . S
C1224 C1228 1.385 . S
C1225 H1200 0.951 . S
C1225 C1223 1.388 . S
C1225 C1226 1.366 . S
C1226 C1225 1.366 . S
C1226 C1227 1.414 . S
C1226 C1229 1.499 . S
C1227 H1201 0.950 . S
C1227 C1226 1.414 . S
C1227 C1228 1.374 . S
C1228 H1202 0.950 . S
C1228 C1224 1.385 . S
C1228 C1227 1.374 . S
C1229 C1226 1.499 . S
C1229 C1230 1.373 . S
C1229 C1231 1.389 . S
C1230 H1203 0.950 . S
C1230 C1216 1.377 . S
C1230 C1229 1.373 . S
C1231 C1215 1.377 . S
C1231 C1229 1.389 . S
C1231 C1232 1.524 . S
C1232 C1231 1.524 . S
C1232 C1233 1.397 . S
C1232 C1237 1.363 . S
C1233 H1204 0.950 . S
C1233 C1232 1.397 . S
C1233 C1234 1.334 . S
C1234 H1205 0.950 1_455 S
C1234 C1233 1.334 . S
C1234 C1235 1.287 1_455 S
C1235 C1234 1.287 1_655 S
C1235 C1236 1.524 1_655 S
C1235 H1238 0.999 . S
C1236 H1206 0.950 1_565 S
C1236 C1235 1.524 1_455 S
C1236 C1237 1.415 . S
C1237 H1207 0.950 1_565 S
C1237 C1232 1.363 . S
C1237 C1236 1.415 . S
H1238 C1235 0.999 . S
H1239 C1220 0.913 . S
H1240 C1258 0.951 . S
H1241 C1260 0.951 . S
H1242 C1262 0.950 . S
H1243 C1263 0.950 . S
H1244 C1265 0.950 . S
H1245 C1268 0.950 . S
H1246 C1269 0.950 . S
H1247 C1271 0.950 . S
H1248 C1272 0.950 . S
H1249 C1273 0.951 . S
H1250 C1275 0.951 . S
H1251 C1277 0.950 . S
H1252 C1278 0.950 . S
H1253 C1280 0.950 . S
H1254 C1283 0.950 . S
H1255 C1284 0.950 . S
H1256 C1286 0.950 . S
H1257 C1287 0.950 . S
C1258 H1240 0.951 . S
C1258 C1259 1.366 . S
C1258 C1260 1.388 . S
C1259 C1258 1.366 . S
C1259 C1263 1.385 . S
C1260 H1241 0.951 . S
C1260 C1258 1.388 . S
C1260 C1261 1.366 . S
C1261 C1260 1.366 . S
C1261 C1262 1.414 . S
C1261 C1264 1.499 . S
C1262 H1242 0.950 . S
C1262 C1261 1.414 . S
C1262 C1263 1.374 . S
C1263 H1243 0.950 . S
C1263 C1259 1.385 . S
C1263 C1262 1.374 . S
C1264 C1261 1.499 . S
C1264 C1265 1.373 . S
C1264 C1266 1.389 . S
C1265 H1244 0.950 . S
C1265 C1264 1.373 . S
C1265 C1281 1.377 . S
C1266 C1264 1.389 . S
C1266 C1267 1.524 . S
C1266 C1280 1.377 . S
C1267 C1266 1.524 . S
C1267 C1268 1.397 . S
C1267 C1272 1.363 . S
C1268 H1245 0.950 . S
C1268 C1267 1.397 . S
C1268 C1269 1.334 . S
C1269 H1246 0.950 . S
C1269 C1268 1.334 . S
C1269 C1270 1.287 . S
C1270 C1269 1.287 . S
C1270 C1271 1.524 . S
C1270 H1289 0.913 1_545 S
C1271 H1247 0.950 . S
C1271 C1270 1.524 . S
C1271 C1272 1.415 . S
C1272 H1248 0.950 . S
C1272 C1267 1.363 . S
C1272 C1271 1.415 . S
C1273 H1249 0.951 . S
C1273 C1274 1.366 . S
C1273 C1275 1.388 . S
C1274 C1273 1.366 . S
C1274 C1278 1.385 . S
C1275 H1250 0.951 . S
C1275 C1273 1.388 . S
C1275 C1276 1.366 . S
C1276 C1275 1.366 . S
C1276 C1277 1.414 . S
C1276 C1279 1.499 . S
C1277 H1251 0.950 . S
C1277 C1276 1.414 . S
C1277 C1278 1.374 . S
C1278 H1252 0.950 . S
C1278 C1274 1.385 . S
C1278 C1277 1.374 . S
C1279 C1276 1.499 . S
C1279 C1280 1.373 . S
C1279 C1281 1.389 . S
C1280 H1253 0.950 . S
C1280 C1266 1.377 . S
C1280 C1279 1.373 . S
C1281 C1265 1.377 . S
C1281 C1279 1.389 . S
C1281 C1282 1.524 . S
C1282 C1281 1.524 . S
C1282 C1283 1.397 . S
C1282 C1287 1.363 . S
C1283 H1254 0.950 . S
C1283 C1282 1.397 . S
C1283 C1284 1.334 . S
C1284 H1255 0.950 . S
C1284 C1283 1.334 . S
C1284 C1285 1.287 . S
C1285 C1284 1.287 . S
C1285 C1286 1.524 . S
C1285 H1288 0.999 . S
C1286 H1256 0.950 . S
C1286 C1285 1.524 . S
C1286 C1287 1.415 . S
C1287 H1257 0.950 . S
C1287 C1282 1.363 . S
C1287 C1286 1.415 . S
H1288 C1285 0.999 . S
H1289 C1270 0.913 1_565 S
H1290 C1308 0.951 . S
H1291 C1310 0.951 . S
H1292 C1312 0.938 1_545 S
H1293 C1313 0.950 . S
H1294 C1315 0.950 . S
H1295 C1318 0.950 . S
H1296 C1319 0.950 . S
H1297 C1321 0.950 . S
H1298 C1322 0.950 1_545 S
H1299 C1323 0.951 . S
H1300 C1325 0.951 . S
H1301 C1327 0.950 . S
H1302 C1328 0.950 . S
H1303 C1330 0.950 . S
H1304 C1333 0.950 . S
H1305 C1334 0.950 . S
H1306 C1336 0.950 . S
H1307 C1337 0.950 . S
C1308 H1290 0.951 . S
C1308 C1309 1.366 . S
C1308 C1310 1.388 . S
C1309 C1308 1.366 . S
C1309 C1313 1.385 . S
C1310 H1291 0.951 . S
C1310 C1308 1.388 . S
C1310 C1311 1.366 1_565 S
C1311 C1310 1.366 1_545 S
C1311 C1312 1.408 1_545 S
C1311 C1314 1.499 . S
C1312 H1292 0.938 1_565 S
C1312 C1311 1.408 1_565 S
C1312 C1313 1.393 . S
C1313 H1293 0.950 . S
C1313 C1309 1.385 . S
C1313 C1312 1.393 . S
C1314 C1311 1.499 . S
C1314 C1315 1.373 . S
C1314 C1316 1.389 . S
C1315 H1294 0.950 . S
C1315 C1314 1.373 . S
C1315 C1331 1.377 . S
C1316 C1314 1.389 . S
C1316 C1317 1.533 . S
C1316 C1330 1.377 . S
C1317 C1316 1.533 . S
C1317 C1318 1.389 1_545 S
C1317 C1322 1.362 1_545 S
C1318 H1295 0.950 . S
C1318 C1317 1.389 1_565 S
C1318 C1319 1.334 . S
C1319 H1296 0.950 . S
C1319 C1318 1.334 . S
C1319 C1320 1.287 . S
C1320 C1319 1.287 . S
C1320 C1321 1.524 . S
C1320 H1339 0.913 . S
C1321 H1297 0.950 . S
C1321 C1320 1.524 . S
C1321 C1322 1.415 . S
C1322 H1298 0.950 1_565 S
C1322 C1317 1.362 1_565 S
C1322 C1321 1.415 . S
C1323 H1299 0.951 . S
C1323 C1324 1.366 . S
C1323 C1325 1.388 . S
C1324 C1323 1.366 . S
C1324 C1328 1.385 . S
C1325 H1300 0.951 . S
C1325 C1323 1.388 . S
C1325 C1326 1.366 . S
C1326 C1325 1.366 . S
C1326 C1327 1.414 . S
C1326 C1329 1.499 . S
C1327 H1301 0.950 . S
C1327 C1326 1.414 . S
C1327 C1328 1.374 . S
C1328 H1302 0.950 . S
C1328 C1324 1.385 . S
C1328 C1327 1.374 . S
C1329 C1326 1.499 . S
C1329 C1330 1.373 . S
C1329 C1331 1.389 . S
C1330 H1303 0.950 . S
C1330 C1316 1.377 . S
C1330 C1329 1.373 . S
C1331 C1315 1.377 . S
C1331 C1329 1.389 . S
C1331 C1332 1.524 . S
C1332 C1331 1.524 . S
C1332 C1333 1.397 . S
C1332 C1337 1.363 . S
C1333 H1304 0.950 . S
C1333 C1332 1.397 . S
C1333 C1334 1.334 . S
C1334 H1305 0.950 . S
C1334 C1333 1.334 . S
C1334 C1335 1.287 . S
C1335 C1334 1.287 . S
C1335 C1336 1.524 . S
C1335 H1338 0.999 . S
C1336 H1306 0.950 . S
C1336 C1335 1.524 . S
C1336 C1337 1.415 . S
C1337 H1307 0.950 . S
C1337 C1332 1.363 . S
C1337 C1336 1.415 . S
H1338 C1335 0.999 . S
H1339 C1320 0.913 . S
H1340 C1358 0.951 . S
H1341 C1360 0.951 . S
H1342 C1362 0.950 . S
H1343 C1363 0.950 . S
H1344 C1365 0.950 . S
H1345 C1368 0.950 . S
H1346 C1369 0.950 . S
H1347 C1371 0.950 . S
H1348 C1372 0.950 . S
H1349 C1373 0.951 . S
H1350 C1375 0.951 . S
H1351 C1377 0.950 . S
H1352 C1378 0.950 . S
H1353 C1380 0.950 . S
H1354 C1383 0.950 . S
H1355 C1384 0.950 . S
H1356 C1386 0.950 . S
H1357 C1387 0.950 . S
C1358 H1340 0.951 . S
C1358 C1359 1.366 . S
C1358 C1360 1.388 . S
C1359 C1358 1.366 . S
C1359 C1363 1.385 . S
C1360 H1341 0.951 . S
C1360 C1358 1.388 . S
C1360 C1361 1.366 . S
C1361 C1360 1.366 . S
C1361 C1362 1.414 . S
C1361 C1364 1.499 . S
C1362 H1342 0.950 . S
C1362 C1361 1.414 . S
C1362 C1363 1.374 . S
C1363 H1343 0.950 . S
C1363 C1359 1.385 . S
C1363 C1362 1.374 . S
C1364 C1361 1.499 . S
C1364 C1365 1.373 . S
C1364 C1366 1.389 . S
C1365 H1344 0.950 . S
C1365 C1364 1.373 . S
C1365 C1381 1.377 . S
C1366 C1364 1.389 . S
C1366 C1367 1.524 . S
C1366 C1380 1.377 . S
C1367 C1366 1.524 . S
C1367 C1368 1.397 . S
C1367 C1372 1.363 . S
C1368 H1345 0.950 . S
C1368 C1367 1.397 . S
C1368 C1369 1.334 . S
C1369 H1346 0.950 . S
C1369 C1368 1.334 . S
C1369 C1370 1.287 . S
C1370 C1369 1.287 . S
C1370 C1371 1.524 . S
C1370 H1389 0.913 . S
C1371 H1347 0.950 . S
C1371 C1370 1.524 . S
C1371 C1372 1.415 . S
C1372 H1348 0.950 . S
C1372 C1367 1.363 . S
C1372 C1371 1.415 . S
C1373 H1349 0.951 . S
C1373 C1374 1.366 . S
C1373 C1375 1.388 . S
C1374 C1373 1.366 . S
C1374 C1378 1.385 . S
C1375 H1350 0.951 . S
C1375 C1373 1.388 . S
C1375 C1376 1.366 . S
C1376 C1375 1.366 . S
C1376 C1377 1.414 . S
C1376 C1379 1.499 . S
C1377 H1351 0.950 . S
C1377 C1376 1.414 . S
C1377 C1378 1.374 . S
C1378 H1352 0.950 . S
C1378 C1374 1.385 . S
C1378 C1377 1.374 . S
C1379 C1376 1.499 . S
C1379 C1380 1.373 . S
C1379 C1381 1.389 . S
C1380 H1353 0.950 . S
C1380 C1366 1.377 . S
C1380 C1379 1.373 . S
C1381 C1365 1.377 . S
C1381 C1379 1.389 . S
C1381 C1382 1.524 . S
C1382 C1381 1.524 . S
C1382 C1383 1.397 . S
C1382 C1387 1.363 . S
C1383 H1354 0.950 . S
C1383 C1382 1.397 . S
C1383 C1384 1.334 . S
C1384 H1355 0.950 . S
C1384 C1383 1.334 . S
C1384 C1385 1.287 . S
C1385 C1384 1.287 . S
C1385 C1386 1.524 . S
C1385 H1388 0.999 . S
C1386 H1356 0.950 . S
C1386 C1385 1.524 . S
C1386 C1387 1.415 . S
C1387 H1357 0.950 . S
C1387 C1382 1.363 . S
C1387 C1386 1.415 . S
H1388 C1385 0.999 . S
H1389 C1370 0.913 . S
H1390 C1408 0.951 . S
H1391 C1410 0.951 . S
H1392 C1412 0.950 1_565 S
H1393 C1413 0.950 . S
H1394 C1415 0.950 . S
H1395 C1418 0.950 1_565 S
H1396 C1419 0.950 . S
H1397 C1421 0.950 . S
H1398 C1422 0.950 . S
H1399 C1423 0.951 . S
H1400 C1425 0.951 . S
H1401 C1427 0.950 . S
H1402 C1428 0.950 . S
H1403 C1430 0.950 . S
H1404 C1433 0.950 . S
H1405 C1434 0.950 . S
H1406 C1436 0.950 . S
H1407 C1437 0.950 . S
C1408 H1390 0.951 . S
C1408 C1409 1.366 . S
C1408 C1410 1.388 . S
C1409 C1408 1.366 . S
C1409 C1413 1.385 . S
C1410 H1391 0.951 . S
C1410 C1408 1.388 . S
C1410 C1411 1.366 . S
C1411 C1410 1.366 . S
C1411 C1412 1.414 . S
C1411 C1414 1.499 1_545 S
C1412 H1392 0.950 1_545 S
C1412 C1411 1.414 . S
C1412 C1413 1.374 . S
C1413 H1393 0.950 . S
C1413 C1409 1.385 . S
C1413 C1412 1.374 . S
C1414 C1411 1.499 1_565 S
C1414 C1415 1.373 . S
C1414 C1416 1.389 . S
C1415 H1394 0.950 . S
C1415 C1414 1.373 . S
C1415 C1431 1.377 . S
C1416 C1414 1.389 . S
C1416 C1417 1.511 1_565 S
C1416 C1430 1.377 . S
C1417 C1416 1.511 1_545 S
C1417 C1418 1.397 . S
C1417 C1422 1.373 . S
C1418 H1395 0.950 1_545 S
C1418 C1417 1.397 . S
C1418 C1419 1.334 . S
C1419 H1396 0.950 . S
C1419 C1418 1.334 . S
C1419 C1420 1.287 . S
C1420 C1419 1.287 . S
C1420 C1421 1.524 . S
C1420 H1439 0.913 . S
C1421 H1397 0.950 . S
C1421 C1420 1.524 . S
C1421 C1422 1.415 . S
C1422 H1398 0.950 . S
C1422 C1417 1.373 . S
C1422 C1421 1.415 . S
C1423 H1399 0.951 . S
C1423 C1424 1.366 . S
C1423 C1425 1.388 . S
C1424 C1423 1.366 . S
C1424 C1428 1.385 . S
C1425 H1400 0.951 . S
C1425 C1423 1.388 . S
C1425 C1426 1.366 . S
C1426 C1425 1.366 . S
C1426 C1427 1.414 . S
C1426 C1429 1.499 . S
C1427 H1401 0.950 . S
C1427 C1426 1.414 . S
C1427 C1428 1.374 . S
C1428 H1402 0.950 . S
C1428 C1424 1.385 . S
C1428 C1427 1.374 . S
C1429 C1426 1.499 . S
C1429 C1430 1.373 . S
C1429 C1431 1.389 . S
C1430 H1403 0.950 . S
C1430 C1416 1.377 . S
C1430 C1429 1.373 . S
C1431 C1415 1.377 . S
C1431 C1429 1.389 . S
C1431 C1432 1.524 . S
C1432 C1431 1.524 . S
C1432 C1433 1.397 . S
C1432 C1437 1.363 . S
C1433 H1404 0.950 . S
C1433 C1432 1.397 . S
C1433 C1434 1.334 . S
C1434 H1405 0.950 . S
C1434 C1433 1.334 . S
C1434 C1435 1.287 . S
C1435 C1434 1.287 . S
C1435 C1436 1.524 . S
C1435 H1438 0.999 . S
C1436 H1406 0.950 . S
C1436 C1435 1.524 . S
C1436 C1437 1.415 . S
C1437 H1407 0.950 . S
C1437 C1432 1.363 . S
C1437 C1436 1.415 . S
H1438 C1435 0.999 . S
H1439 C1420 0.913 . S
H1440 C1458 0.951 . S
H1441 C1460 0.951 . S
H1442 C1462 0.950 . S
H1443 C1463 0.950 . S
H1444 C1465 0.950 . S
H1445 C1468 0.950 . S
H1446 C1469 0.950 . S
H1447 C1471 0.950 1_565 S
H1448 C1472 0.950 . S
H1449 C1473 0.951 . S
H1450 C1475 0.951 . S
H1451 C1477 0.950 . S
H1452 C1478 0.950 . S
H1453 C1480 0.950 . S
H1454 C1483 0.950 . S
H1455 C1484 0.950 . S
H1456 C1486 0.950 . S
H1457 C1487 0.950 . S
C1458 H1440 0.951 . S
C1458 C1459 1.366 . S
C1458 C1460 1.388 . S
C1459 C1458 1.366 . S
C1459 C1463 1.385 . S
C1460 H1441 0.951 . S
C1460 C1458 1.388 . S
C1460 C1461 1.366 . S
C1461 C1460 1.366 . S
C1461 C1462 1.414 . S
C1461 C1464 1.499 . S
C1462 H1442 0.950 . S
C1462 C1461 1.414 . S
C1462 C1463 1.374 . S
C1463 H1443 0.950 . S
C1463 C1459 1.385 . S
C1463 C1462 1.374 . S
C1464 C1461 1.499 . S
C1464 C1465 1.373 . S
C1464 C1466 1.389 . S
C1465 H1444 0.950 . S
C1465 C1464 1.373 . S
C1465 C1481 1.377 . S
C1466 C1464 1.389 . S
C1466 C1467 1.524 . S
C1466 C1480 1.377 . S
C1467 C1466 1.524 . S
C1467 C1468 1.397 . S
C1467 C1472 1.363 . S
C1468 H1445 0.950 . S
C1468 C1467 1.397 . S
C1468 C1469 1.334 . S
C1469 H1446 0.950 . S
C1469 C1468 1.334 . S
C1469 C1470 1.287 . S
C1470 C1469 1.287 . S
C1470 C1471 1.524 . S
C1470 H1489 0.913 1_545 S
C1471 H1447 0.950 1_545 S
C1471 C1470 1.524 . S
C1471 C1472 1.415 . S
C1472 H1448 0.950 . S
C1472 C1467 1.363 . S
C1472 C1471 1.415 . S
C1473 H1449 0.951 . S
C1473 C1474 1.366 . S
C1473 C1475 1.388 . S
C1474 C1473 1.366 . S
C1474 C1478 1.385 . S
C1475 H1450 0.951 . S
C1475 C1473 1.388 . S
C1475 C1476 1.366 . S
C1476 C1475 1.366 . S
C1476 C1477 1.414 . S
C1476 C1479 1.499 . S
C1477 H1451 0.950 . S
C1477 C1476 1.414 . S
C1477 C1478 1.374 . S
C1478 H1452 0.950 . S
C1478 C1474 1.385 . S
C1478 C1477 1.374 . S
C1479 C1476 1.499 . S
C1479 C1480 1.373 . S
C1479 C1481 1.389 . S
C1480 H1453 0.950 . S
C1480 C1466 1.377 . S
C1480 C1479 1.373 . S
C1481 C1465 1.377 . S
C1481 C1479 1.389 . S
C1481 C1482 1.524 . S
C1482 C1481 1.524 . S
C1482 C1483 1.397 . S
C1482 C1487 1.363 . S
C1483 H1454 0.950 . S
C1483 C1482 1.397 . S
C1483 C1484 1.334 . S
C1484 H1455 0.950 . S
C1484 C1483 1.334 . S
C1484 C1485 1.287 . S
C1485 C1484 1.287 . S
C1485 C1486 1.524 . S
C1485 H1488 0.999 . S
C1486 H1456 0.950 . S
C1486 C1485 1.524 . S
C1486 C1487 1.415 . S
C1487 H1457 0.950 . S
C1487 C1482 1.363 . S
C1487 C1486 1.415 . S
H1488 C1485 0.999 . S
H1489 C1470 0.913 1_565 S
H1490 C1508 0.951 . S
H1491 C1510 0.951 . S
H1492 C1512 0.950 . S
H1493 C1513 0.950 . S
H1494 C1515 0.950 1_545 S
H1495 C1518 0.950 . S
H1496 C1519 0.950 . S
H1497 C1521 0.950 . S
H1498 C1522 0.950 . S
H1499 C1523 0.951 . S
H1500 C1525 0.951 . S
H1501 C1527 0.950 . S
H1502 C1528 0.950 . S
H1503 C1530 0.950 . S
H1504 C1533 0.950 . S
H1505 C1534 0.950 . S
H1506 C1536 0.950 . S
H1507 C1537 0.950 . S
C1508 H1490 0.951 . S
C1508 C1509 1.366 . S
C1508 C1510 1.388 . S
C1509 C1508 1.366 . S
C1509 C1513 1.385 . S
C1510 H1491 0.951 . S
C1510 C1508 1.388 . S
C1510 C1511 1.366 . S
C1511 C1510 1.366 . S
C1511 C1512 1.414 . S
C1511 C1514 1.499 1_545 S
C1512 H1492 0.950 . S
C1512 C1511 1.414 . S
C1512 C1513 1.374 . S
C1513 H1493 0.950 . S
C1513 C1509 1.385 . S
C1513 C1512 1.374 . S
C1514 C1511 1.499 1_565 S
C1514 C1515 1.373 . S
C1514 C1516 1.389 . S
C1515 H1494 0.950 1_565 S
C1515 C1514 1.373 . S
C1515 C1531 1.377 . S
C1516 C1514 1.389 . S
C1516 C1517 1.524 . S
C1516 C1530 1.377 . S
C1517 C1516 1.524 . S
C1517 C1518 1.397 . S
C1517 C1522 1.363 . S
C1518 H1495 0.950 . S
C1518 C1517 1.397 . S
C1518 C1519 1.334 . S
C1519 H1496 0.950 . S
C1519 C1518 1.334 . S
C1519 C1520 1.287 . S
C1520 C1519 1.287 . S
C1520 C1521 1.524 . S
C1520 H1539 0.913 . S
C1521 H1497 0.950 . S
C1521 C1520 1.524 . S
C1521 C1522 1.415 . S
C1522 H1498 0.950 . S
C1522 C1517 1.363 . S
C1522 C1521 1.415 . S
C1523 H1499 0.951 . S
C1523 C1524 1.366 . S
C1523 C1525 1.388 . S
C1524 C1523 1.366 . S
C1524 C1528 1.385 . S
C1525 H1500 0.951 . S
C1525 C1523 1.388 . S
C1525 C1526 1.366 . S
C1526 C1525 1.366 . S
C1526 C1527 1.414 . S
C1526 C1529 1.499 . S
C1527 H1501 0.950 . S
C1527 C1526 1.414 . S
C1527 C1528 1.374 . S
C1528 H1502 0.950 . S
C1528 C1524 1.385 . S
C1528 C1527 1.374 . S
C1529 C1526 1.499 . S
C1529 C1530 1.373 . S
C1529 C1531 1.389 . S
C1530 H1503 0.950 . S
C1530 C1516 1.377 . S
C1530 C1529 1.373 . S
C1531 C1515 1.377 . S
C1531 C1529 1.389 . S
C1531 C1532 1.524 . S
C1532 C1531 1.524 . S
C1532 C1533 1.397 . S
C1532 C1537 1.363 . S
C1533 H1504 0.950 . S
C1533 C1532 1.397 . S
C1533 C1534 1.334 . S
C1534 H1505 0.950 . S
C1534 C1533 1.334 . S
C1534 C1535 1.287 . S
C1535 C1534 1.287 . S
C1535 C1536 1.524 . S
C1535 H1538 0.999 . S
C1536 H1506 0.950 . S
C1536 C1535 1.524 . S
C1536 C1537 1.415 . S
C1537 H1507 0.950 . S
C1537 C1532 1.363 . S
C1537 C1536 1.415 . S
H1538 C1535 0.999 . S
H1539 C1520 0.913 . S
H1540 C1558 0.951 . S
H1541 C1560 0.951 . S
H1542 C1562 0.950 . S
H1543 C1563 0.950 . S
H1544 C1565 0.950 . S
H1545 C1568 0.950 . S
H1546 C1569 0.950 . S
H1547 C1571 0.950 . S
H1548 C1572 0.950 . S
H1549 C1573 0.951 . S
H1550 C1575 0.951 . S
H1551 C1577 0.950 . S
H1552 C1578 0.950 . S
H1553 C1580 0.950 . S
H1554 C1583 0.950 . S
H1555 C1584 0.950 . S
H1556 C1586 0.950 . S
H1557 C1587 0.950 . S
C1558 H1540 0.951 . S
C1558 C1559 1.366 . S
C1558 C1560 1.388 . S
C1559 C1558 1.366 . S
C1559 C1563 1.385 . S
C1560 H1541 0.951 . S
C1560 C1558 1.388 . S
C1560 C1561 1.366 . S
C1561 C1560 1.366 . S
C1561 C1562 1.414 . S
C1561 C1564 1.499 . S
C1562 H1542 0.950 . S
C1562 C1561 1.414 . S
C1562 C1563 1.374 . S
C1563 H1543 0.950 . S
C1563 C1559 1.385 . S
C1563 C1562 1.374 . S
C1564 C1561 1.499 . S
C1564 C1565 1.373 . S
C1564 C1566 1.389 . S
C1565 H1544 0.950 . S
C1565 C1564 1.373 . S
C1565 C1581 1.377 . S
C1566 C1564 1.389 . S
C1566 C1567 1.524 . S
C1566 C1580 1.377 . S
C1567 C1566 1.524 . S
C1567 C1568 1.397 . S
C1567 C1572 1.363 . S
C1568 H1545 0.950 . S
C1568 C1567 1.397 . S
C1568 C1569 1.334 . S
C1569 H1546 0.950 . S
C1569 C1568 1.334 . S
C1569 C1570 1.287 . S
C1570 C1569 1.287 . S
C1570 C1571 1.524 . S
C1570 H1589 0.913 . S
C1571 H1547 0.950 . S
C1571 C1570 1.524 . S
C1571 C1572 1.415 . S
C1572 H1548 0.950 . S
C1572 C1567 1.363 . S
C1572 C1571 1.415 . S
C1573 H1549 0.951 . S
C1573 C1574 1.366 . S
C1573 C1575 1.388 . S
C1574 C1573 1.366 . S
C1574 C1578 1.385 . S
C1575 H1550 0.951 . S
C1575 C1573 1.388 . S
C1575 C1576 1.366 . S
C1576 C1575 1.366 . S
C1576 C1577 1.414 . S
C1576 C1579 1.499 . S
C1577 H1551 0.950 . S
C1577 C1576 1.414 . S
C1577 C1578 1.374 . S
C1578 H1552 0.950 . S
C1578 C1574 1.385 . S
C1578 C1577 1.374 . S
C1579 C1576 1.499 . S
C1579 C1580 1.373 . S
C1579 C1581 1.389 . S
C1580 H1553 0.950 . S
C1580 C1566 1.377 . S
C1580 C1579 1.373 . S
C1581 C1565 1.377 . S
C1581 C1579 1.389 . S
C1581 C1582 1.524 . S
C1582 C1581 1.524 . S
C1582 C1583 1.397 . S
C1582 C1587 1.363 . S
C1583 H1554 0.950 . S
C1583 C1582 1.397 . S
C1583 C1584 1.334 . S
C1584 H1555 0.950 . S
C1584 C1583 1.334 . S
C1584 C1585 1.287 . S
C1585 C1584 1.287 . S
C1585 C1586 1.524 . S
C1585 H1588 0.999 . S
C1586 H1556 0.950 . S
C1586 C1585 1.524 . S
C1586 C1587 1.415 . S
C1587 H1557 0.950 . S
C1587 C1582 1.363 . S
C1587 C1586 1.415 . S
H1588 C1585 0.999 . S
H1589 C1570 0.913 . S
H1590 C1608 0.951 . S
H1591 C1610 0.951 . S
H1592 C1612 0.950 . S
H1593 C1613 0.950 . S
H1594 C1615 0.950 . S
H1595 C1618 0.950 . S
H1596 C1619 0.950 . S
H1597 C1621 0.950 . S
H1598 C1622 0.950 . S
H1599 C1623 0.951 . S
H1600 C1625 0.951 . S
H1601 C1627 0.950 . S
H1602 C1628 0.950 . S
H1603 C1630 0.950 . S
H1604 C1633 0.950 . S
H1605 C1634 0.950 . S
H1606 C1636 0.950 1_565 S
H1607 C1637 0.950 . S
C1608 H1590 0.951 . S
C1608 C1609 1.366 . S
C1608 C1610 1.388 1_565 S
C1609 C1608 1.366 . S
C1609 C1613 1.385 . S
C1610 H1591 0.951 . S
C1610 C1608 1.388 1_545 S
C1610 C1611 1.366 . S
C1611 C1610 1.366 . S
C1611 C1612 1.414 1_545 S
C1611 C1614 1.499 . S
C1612 H1592 0.950 . S
C1612 C1611 1.414 1_565 S
C1612 C1613 1.374 . S
C1613 H1593 0.950 . S
C1613 C1609 1.385 . S
C1613 C1612 1.374 . S
C1614 C1611 1.499 . S
C1614 C1615 1.373 . S
C1614 C1616 1.389 . S
C1615 H1594 0.950 . S
C1615 C1614 1.373 . S
C1615 C1631 1.377 . S
C1616 C1614 1.389 . S
C1616 C1617 1.524 . S
C1616 C1630 1.377 . S
C1617 C1616 1.524 . S
C1617 C1618 1.397 . S
C1617 C1622 1.363 . S
C1618 H1595 0.950 . S
C1618 C1617 1.397 . S
C1618 C1619 1.334 . S
C1619 H1596 0.950 . S
C1619 C1618 1.334 . S
C1619 C1620 1.287 . S
C1620 C1619 1.287 . S
C1620 C1621 1.524 . S
C1620 H1639 0.913 . S
C1621 H1597 0.950 . S
C1621 C1620 1.524 . S
C1621 C1622 1.415 . S
C1622 H1598 0.950 . S
C1622 C1617 1.363 . S
C1622 C1621 1.415 . S
C1623 H1599 0.951 . S
C1623 C1624 1.366 . S
C1623 C1625 1.388 . S
C1624 C1623 1.366 . S
C1624 C1628 1.385 . S
C1625 H1600 0.951 . S
C1625 C1623 1.388 . S
C1625 C1626 1.366 . S
C1626 C1625 1.366 . S
C1626 C1627 1.414 . S
C1626 C1629 1.499 . S
C1627 H1601 0.950 . S
C1627 C1626 1.414 . S
C1627 C1628 1.374 . S
C1628 H1602 0.950 . S
C1628 C1624 1.385 . S
C1628 C1627 1.374 . S
C1629 C1626 1.499 . S
C1629 C1630 1.373 . S
C1629 C1631 1.389 . S
C1630 H1603 0.950 . S
C1630 C1616 1.377 . S
C1630 C1629 1.373 . S
C1631 C1615 1.377 . S
C1631 C1629 1.389 . S
C1631 C1632 1.524 . S
C1632 C1631 1.524 . S
C1632 C1633 1.397 . S
C1632 C1637 1.363 . S
C1633 H1604 0.950 . S
C1633 C1632 1.397 . S
C1633 C1634 1.334 . S
C1634 H1605 0.950 . S
C1634 C1633 1.334 . S
C1634 C1635 1.287 . S
C1635 C1634 1.287 . S
C1635 C1636 1.524 . S
C1635 H1638 0.999 . S
C1636 H1606 0.950 1_545 S
C1636 C1635 1.524 . S
C1636 C1637 1.415 . S
C1637 H1607 0.950 . S
C1637 C1632 1.363 . S
C1637 C1636 1.415 . S
H1638 C1635 0.999 . S
H1639 C1620 0.913 . S
H1640 C1658 0.951 . S
H1641 C1660 0.951 . S
H1642 C1662 0.950 . S
H1643 C1663 0.950 . S
H1644 C1665 0.950 . S
H1645 C1668 0.950 . S
H1646 C1669 0.950 . S
H1647 C1671 0.962 . S
H1648 C1672 0.950 . S
H1649 C1673 0.951 . S
H1650 C1675 0.951 . S
H1651 C1677 0.950 . S
H1652 C1678 0.950 . S
H1653 C1680 0.950 . S
H1654 C1683 0.950 . S
H1655 C1684 0.950 . S
H1656 C1686 0.950 . S
H1657 C1687 0.950 . S
C1658 H1640 0.951 . S
C1658 C1659 1.366 . S
C1658 C1660 1.388 . S
C1659 C1658 1.366 . S
C1659 C1663 1.385 . S
C1660 H1641 0.951 . S
C1660 C1658 1.388 . S
C1660 C1661 1.366 . S
C1661 C1660 1.366 . S
C1661 C1662 1.414 . S
C1661 C1664 1.499 . S
C1662 H1642 0.950 . S
C1662 C1661 1.414 . S
C1662 C1663 1.374 . S
C1663 H1643 0.950 . S
C1663 C1659 1.385 . S
C1663 C1662 1.374 . S
C1664 C1661 1.499 . S
C1664 C1665 1.373 . S
C1664 C1666 1.389 . S
C1665 H1644 0.950 . S
C1665 C1664 1.373 . S
C1665 C1681 1.377 . S
C1666 C1664 1.389 . S
C1666 C1667 1.524 . S
C1666 C1680 1.377 . S
C1667 C1666 1.524 . S
C1667 C1668 1.397 . S
C1667 C1672 1.363 . S
C1668 H1645 0.950 . S
C1668 C1667 1.397 . S
C1668 C1669 1.334 1_565 S
C1669 H1646 0.950 . S
C1669 C1668 1.334 1_545 S
C1669 C1670 1.287 . S
C1670 C1669 1.287 . S
C1670 C1671 1.542 . S
C1670 H1689 0.913 . S
C1671 H1647 0.962 . S
C1671 C1670 1.542 . S
C1671 C1672 1.384 1_545 S
C1672 H1648 0.950 . S
C1672 C1667 1.363 . S
C1672 C1671 1.384 1_565 S
C1673 H1649 0.951 . S
C1673 C1674 1.366 . S
C1673 C1675 1.388 . S
C1674 C1673 1.366 . S
C1674 C1678 1.385 . S
C1675 H1650 0.951 . S
C1675 C1673 1.388 . S
C1675 C1676 1.366 . S
C1676 C1675 1.366 . S
C1676 C1677 1.414 . S
C1676 C1679 1.499 . S
C1677 H1651 0.950 . S
C1677 C1676 1.414 . S
C1677 C1678 1.374 . S
C1678 H1652 0.950 . S
C1678 C1674 1.385 . S
C1678 C1677 1.374 . S
C1679 C1676 1.499 . S
C1679 C1680 1.373 . S
C1679 C1681 1.389 . S
C1680 H1653 0.950 . S
C1680 C1666 1.377 . S
C1680 C1679 1.373 . S
C1681 C1665 1.377 . S
C1681 C1679 1.389 . S
C1681 C1682 1.524 . S
C1682 C1681 1.524 . S
C1682 C1683 1.397 . S
C1682 C1687 1.363 . S
C1683 H1654 0.950 . S
C1683 C1682 1.397 . S
C1683 C1684 1.334 . S
C1684 H1655 0.950 . S
C1684 C1683 1.334 . S
C1684 C1685 1.287 . S
C1685 C1684 1.287 . S
C1685 C1686 1.524 . S
C1685 H1688 0.999 . S
C1686 H1656 0.950 . S
C1686 C1685 1.524 . S
C1686 C1687 1.415 . S
C1687 H1657 0.950 . S
C1687 C1682 1.363 . S
C1687 C1686 1.415 . S
H1688 C1685 0.999 . S
H1689 C1670 0.913 . S
H1690 C1708 0.951 . S
H1691 C1710 0.951 . S
H1692 C1712 0.950 . S
H1693 C1713 0.950 . S
H1694 C1715 0.950 . S
H1695 C1718 0.950 . S
H1696 C1719 0.950 . S
H1697 C1721 0.950 . S
H1698 C1722 0.950 . S
H1699 C1723 0.951 . S
H1700 C1725 0.951 . S
H1701 C1727 0.950 . S
H1702 C1728 0.950 . S
H1703 C1730 0.950 . S
H1704 C1733 0.950 . S
H1705 C1734 0.950 . S
H1706 C1736 0.950 . S
H1707 C1737 0.950 . S
C1708 H1690 0.951 . S
C1708 C1709 1.366 . S
C1708 C1710 1.388 . S
C1709 C1708 1.366 . S
C1709 C1713 1.385 . S
C1710 H1691 0.951 . S
C1710 C1708 1.388 . S
C1710 C1711 1.366 . S
C1711 C1710 1.366 . S
C1711 C1712 1.414 . S
C1711 C1714 1.499 1_545 S
C1712 H1692 0.950 . S
C1712 C1711 1.414 . S
C1712 C1713 1.374 . S
C1713 H1693 0.950 . S
C1713 C1709 1.385 . S
C1713 C1712 1.374 . S
C1714 C1711 1.499 1_565 S
C1714 C1715 1.373 . S
C1714 C1716 1.389 . S
C1715 H1694 0.950 . S
C1715 C1714 1.373 . S
C1715 C1731 1.377 . S
C1716 C1714 1.389 . S
C1716 C1717 1.524 . S
C1716 C1730 1.377 . S
C1717 C1716 1.524 . S
C1717 C1718 1.397 . S
C1717 C1722 1.363 . S
C1718 H1695 0.950 . S
C1718 C1717 1.397 . S
C1718 C1719 1.334 . S
C1719 H1696 0.950 . S
C1719 C1718 1.334 . S
C1719 C1720 1.287 . S
C1720 C1719 1.287 . S
C1720 C1721 1.524 . S
C1720 H1739 0.913 . S
C1721 H1697 0.950 . S
C1721 C1720 1.524 . S
C1721 C1722 1.415 . S
C1722 H1698 0.950 . S
C1722 C1717 1.363 . S
C1722 C1721 1.415 . S
C1723 H1699 0.951 . S
C1723 C1724 1.366 . S
C1723 C1725 1.388 . S
C1724 C1723 1.366 . S
C1724 C1728 1.385 . S
C1725 H1700 0.951 . S
C1725 C1723 1.388 . S
C1725 C1726 1.366 . S
C1726 C1725 1.366 . S
C1726 C1727 1.414 . S
C1726 C1729 1.499 . S
C1727 H1701 0.950 . S
C1727 C1726 1.414 . S
C1727 C1728 1.374 . S
C1728 H1702 0.950 . S
C1728 C1724 1.385 . S
C1728 C1727 1.374 . S
C1729 C1726 1.499 . S
C1729 C1730 1.373 . S
C1729 C1731 1.389 . S
C1730 H1703 0.950 . S
C1730 C1716 1.377 . S
C1730 C1729 1.373 . S
C1731 C1715 1.377 . S
C1731 C1729 1.389 . S
C1731 C1732 1.524 . S
C1732 C1731 1.524 . S
C1732 C1733 1.397 . S
C1732 C1737 1.363 . S
C1733 H1704 0.950 . S
C1733 C1732 1.397 . S
C1733 C1734 1.334 . S
C1734 H1705 0.950 . S
C1734 C1733 1.334 . S
C1734 C1735 1.287 1_655 S
C1735 C1734 1.287 1_455 S
C1735 C1736 1.524 . S
C1735 H1738 0.999 . S
C1736 H1706 0.950 . S
C1736 C1735 1.524 . S
C1736 C1737 1.415 1_455 S
C1737 H1707 0.950 . S
C1737 C1732 1.363 . S
C1737 C1736 1.415 1_655 S
H1738 C1735 0.999 . S
H1739 C1720 0.913 . S
H1740 C1758 0.951 . S
H1741 C1760 0.951 . S
H1742 C1762 0.950 . S
H1743 C1763 0.950 . S
H1744 C1765 0.950 . S
H1745 C1768 0.950 . S
H1746 C1769 0.950 . S
H1747 C1771 0.950 . S
H1748 C1772 0.950 . S
H1749 C1773 0.951 . S
H1750 C1775 0.951 . S
H1751 C1777 0.950 . S
H1752 C1778 0.950 . S
H1753 C1780 0.950 . S
H1754 C1783 0.950 . S
H1755 C1784 0.950 . S
H1756 C1786 0.950 . S
H1757 C1787 0.950 . S
C1758 H1740 0.951 . S
C1758 C1759 1.366 . S
C1758 C1760 1.388 . S
C1759 C1758 1.366 . S
C1759 C1763 1.385 . S
C1760 H1741 0.951 . S
C1760 C1758 1.388 . S
C1760 C1761 1.366 . S
C1761 C1760 1.366 . S
C1761 C1762 1.414 . S
C1761 C1764 1.499 . S
C1762 H1742 0.950 . S
C1762 C1761 1.414 . S
C1762 C1763 1.374 . S
C1763 H1743 0.950 . S
C1763 C1759 1.385 . S
C1763 C1762 1.374 . S
C1764 C1761 1.499 . S
C1764 C1765 1.373 . S
C1764 C1766 1.389 . S
C1765 H1744 0.950 . S
C1765 C1764 1.373 . S
C1765 C1781 1.377 . S
C1766 C1764 1.389 . S
C1766 C1767 1.524 . S
C1766 C1780 1.377 . S
C1767 C1766 1.524 . S
C1767 C1768 1.397 . S
C1767 C1772 1.363 . S
C1768 H1745 0.950 . S
C1768 C1767 1.397 . S
C1768 C1769 1.334 . S
C1769 H1746 0.950 . S
C1769 C1768 1.334 . S
C1769 C1770 1.287 . S
C1770 C1769 1.287 . S
C1770 C1771 1.524 . S
C1770 H1789 0.913 . S
C1771 H1747 0.950 . S
C1771 C1770 1.524 . S
C1771 C1772 1.415 . S
C1772 H1748 0.950 . S
C1772 C1767 1.363 . S
C1772 C1771 1.415 . S
C1773 H1749 0.951 . S
C1773 C1774 1.366 . S
C1773 C1775 1.388 . S
C1774 C1773 1.366 . S
C1774 C1778 1.385 . S
C1775 H1750 0.951 . S
C1775 C1773 1.388 . S
C1775 C1776 1.366 . S
C1776 C1775 1.366 . S
C1776 C1777 1.414 . S
C1776 C1779 1.499 . S
C1777 H1751 0.950 . S
C1777 C1776 1.414 . S
C1777 C1778 1.374 . S
C1778 H1752 0.950 . S
C1778 C1774 1.385 . S
C1778 C1777 1.374 . S
C1779 C1776 1.499 . S
C1779 C1780 1.373 . S
C1779 C1781 1.389 . S
C1780 H1753 0.950 . S
C1780 C1766 1.377 . S
C1780 C1779 1.373 . S
C1781 C1765 1.377 . S
C1781 C1779 1.389 . S
C1781 C1782 1.524 . S
C1782 C1781 1.524 . S
C1782 C1783 1.397 . S
C1782 C1787 1.363 . S
C1783 H1754 0.950 . S
C1783 C1782 1.397 . S
C1783 C1784 1.334 . S
C1784 H1755 0.950 . S
C1784 C1783 1.334 . S
C1784 C1785 1.287 . S
C1785 C1784 1.287 . S
C1785 C1786 1.524 . S
C1785 H1788 0.999 . S
C1786 H1756 0.950 . S
C1786 C1785 1.524 . S
C1786 C1787 1.415 . S
C1787 H1757 0.950 . S
C1787 C1782 1.363 . S
C1787 C1786 1.415 . S
H1788 C1785 0.999 . S
H1789 C1770 0.913 . S
H1790 C1808 0.951 . S
H1791 C1810 0.951 . S
H1792 C1812 0.950 . S
H1793 C1813 0.950 . S
H1794 C1815 0.950 . S
H1795 C1818 0.950 . S
H1796 C1819 0.950 . S
H1797 C1821 0.950 . S
H1798 C1822 0.950 . S
H1799 C1823 0.951 . S
H1800 C1825 0.951 . S
H1801 C1827 0.950 . S
H1802 C1828 0.950 . S
H1803 C1830 0.950 . S
H1804 C1833 0.950 . S
H1805 C1834 0.950 . S
H1806 C1836 0.950 . S
H1807 C1837 0.950 . S
C1808 H1790 0.951 . S
C1808 C1809 1.366 . S
C1808 C1810 1.388 1_565 S
C1809 C1808 1.366 . S
C1809 C1813 1.385 . S
C1810 H1791 0.951 . S
C1810 C1808 1.388 1_545 S
C1810 C1811 1.366 . S
C1811 C1810 1.366 . S
C1811 C1812 1.414 1_545 S
C1811 C1814 1.499 . S
C1812 H1792 0.950 . S
C1812 C1811 1.414 1_565 S
C1812 C1813 1.374 . S
C1813 H1793 0.950 . S
C1813 C1809 1.385 . S
C1813 C1812 1.374 . S
C1814 C1811 1.499 . S
C1814 C1815 1.373 . S
C1814 C1816 1.389 . S
C1815 H1794 0.950 . S
C1815 C1814 1.373 . S
C1815 C1831 1.377 . S
C1816 C1814 1.389 . S
C1816 C1817 1.524 . S
C1816 C1830 1.377 . S
C1817 C1816 1.524 . S
C1817 C1818 1.397 . S
C1817 C1822 1.363 . S
C1818 H1795 0.950 . S
C1818 C1817 1.397 . S
C1818 C1819 1.334 . S
C1819 H1796 0.950 . S
C1819 C1818 1.334 . S
C1819 C1820 1.287 . S
C1820 C1819 1.287 . S
C1820 C1821 1.524 . S
C1820 H1839 0.913 . S
C1821 H1797 0.950 . S
C1821 C1820 1.524 . S
C1821 C1822 1.415 . S
C1822 H1798 0.950 . S
C1822 C1817 1.363 . S
C1822 C1821 1.415 . S
C1823 H1799 0.951 . S
C1823 C1824 1.366 . S
C1823 C1825 1.388 . S
C1824 C1823 1.366 . S
C1824 C1828 1.385 . S
C1825 H1800 0.951 . S
C1825 C1823 1.388 . S
C1825 C1826 1.366 . S
C1826 C1825 1.366 . S
C1826 C1827 1.414 . S
C1826 C1829 1.499 . S
C1827 H1801 0.950 . S
C1827 C1826 1.414 . S
C1827 C1828 1.374 . S
C1828 H1802 0.950 . S
C1828 C1824 1.385 . S
C1828 C1827 1.374 . S
C1829 C1826 1.499 . S
C1829 C1830 1.373 . S
C1829 C1831 1.389 . S
C1830 H1803 0.950 . S
C1830 C1816 1.377 . S
C1830 C1829 1.373 . S
C1831 C1815 1.377 . S
C1831 C1829 1.389 . S
C1831 C1832 1.524 . S
C1832 C1831 1.524 . S
C1832 C1833 1.397 . S
C1832 C1837 1.363 . S
C1833 H1804 0.950 . S
C1833 C1832 1.397 . S
C1833 C1834 1.334 . S
C1834 H1805 0.950 . S
C1834 C1833 1.334 . S
C1834 C1835 1.287 . S
C1835 C1834 1.287 . S
C1835 C1836 1.524 . S
C1835 H1838 0.999 . S
C1836 H1806 0.950 . S
C1836 C1835 1.524 . S
C1836 C1837 1.415 . S
C1837 H1807 0.950 . S
C1837 C1832 1.363 . S
C1837 C1836 1.415 . S
H1838 C1835 0.999 . S
H1839 C1820 0.913 . S
H1840 C1858 0.951 . S
H1841 C1860 0.951 . S
H1842 C1862 0.950 . S
H1843 C1863 0.950 . S
H1844 C1865 0.950 . S
H1845 C1868 0.950 . S
H1846 C1869 0.950 . S
H1847 C1871 0.950 . S
H1848 C1872 0.950 . S
H1849 C1873 0.951 . S
H1850 C1875 0.951 . S
H1851 C1877 0.950 . S
H1852 C1878 0.950 . S
H1853 C1880 0.950 . S
H1854 C1883 0.950 . S
H1855 C1884 0.950 . S
H1856 C1886 0.950 . S
H1857 C1887 0.950 . S
C1858 H1840 0.951 . S
C1858 C1859 1.366 . S
C1858 C1860 1.388 . S
C1859 C1858 1.366 . S
C1859 C1863 1.385 . S
C1860 H1841 0.951 . S
C1860 C1858 1.388 . S
C1860 C1861 1.366 . S
C1861 C1860 1.366 . S
C1861 C1862 1.414 . S
C1861 C1864 1.499 . S
C1862 H1842 0.950 . S
C1862 C1861 1.414 . S
C1862 C1863 1.374 . S
C1863 H1843 0.950 . S
C1863 C1859 1.385 . S
C1863 C1862 1.374 . S
C1864 C1861 1.499 . S
C1864 C1865 1.373 . S
C1864 C1866 1.389 . S
C1865 H1844 0.950 . S
C1865 C1864 1.373 . S
C1865 C1881 1.377 . S
C1866 C1864 1.389 . S
C1866 C1867 1.524 . S
C1866 C1880 1.377 . S
C1867 C1866 1.524 . S
C1867 C1868 1.397 . S
C1867 C1872 1.363 . S
C1868 H1845 0.950 . S
C1868 C1867 1.397 . S
C1868 C1869 1.334 . S
C1869 H1846 0.950 . S
C1869 C1868 1.334 . S
C1869 C1870 1.287 . S
C1870 C1869 1.287 . S
C1870 C1871 1.524 . S
C1870 H1889 0.913 . S
C1871 H1847 0.950 . S
C1871 C1870 1.524 . S
C1871 C1872 1.415 . S
C1872 H1848 0.950 . S
C1872 C1867 1.363 . S
C1872 C1871 1.415 . S
C1873 H1849 0.951 . S
C1873 C1874 1.366 . S
C1873 C1875 1.388 . S
C1874 C1873 1.366 . S
C1874 C1878 1.385 . S
C1875 H1850 0.951 . S
C1875 C1873 1.388 . S
C1875 C1876 1.366 . S
C1876 C1875 1.366 . S
C1876 C1877 1.414 . S
C1876 C1879 1.499 . S
C1877 H1851 0.950 . S
C1877 C1876 1.414 . S
C1877 C1878 1.374 . S
C1878 H1852 0.950 . S
C1878 C1874 1.385 . S
C1878 C1877 1.374 . S
C1879 C1876 1.499 . S
C1879 C1880 1.373 . S
C1879 C1881 1.389 . S
C1880 H1853 0.950 . S
C1880 C1866 1.377 . S
C1880 C1879 1.373 . S
C1881 C1865 1.377 . S
C1881 C1879 1.389 . S
C1881 C1882 1.524 . S
C1882 C1881 1.524 . S
C1882 C1883 1.397 . S
C1882 C1887 1.363 . S
C1883 H1854 0.950 . S
C1883 C1882 1.397 . S
C1883 C1884 1.334 . S
C1884 H1855 0.950 . S
C1884 C1883 1.334 . S
C1884 C1885 1.287 . S
C1885 C1884 1.287 . S
C1885 C1886 1.524 . S
C1885 H1888 0.999 . S
C1886 H1856 0.950 . S
C1886 C1885 1.524 . S
C1886 C1887 1.415 . S
C1887 H1857 0.950 . S
C1887 C1882 1.363 . S
C1887 C1886 1.415 . S
H1888 C1885 0.999 . S
H1889 C1870 0.913 . S
H1890 C1908 0.951 . S
H1891 C1910 0.951 . S
H1892 C1912 0.950 . S
H1893 C1913 0.950 . S
H1894 C1915 0.950 . S
H1895 C1918 0.950 . S
H1896 C1919 0.950 . S
H1897 C1921 0.950 . S
H1898 C1922 0.950 . S
H1899 C1923 0.951 . S
H1900 C1925 0.951 . S
H1901 C1927 0.950 . S
H1902 C1928 0.950 . S
H1903 C1930 0.950 . S
H1904 C1933 0.950 . S
H1905 C1934 0.950 . S
H1906 C1936 0.950 . S
H1907 C1937 0.950 . S
C1908 H1890 0.951 . S
C1908 C1909 1.366 . S
C1908 C1910 1.388 . S
C1909 C1908 1.366 . S
C1909 C1913 1.385 . S
C1910 H1891 0.951 . S
C1910 C1908 1.388 . S
C1910 C1911 1.366 . S
C1911 C1910 1.366 . S
C1911 C1912 1.414 . S
C1911 C1914 1.499 . S
C1912 H1892 0.950 . S
C1912 C1911 1.414 . S
C1912 C1913 1.374 . S
C1913 H1893 0.950 . S
C1913 C1909 1.385 . S
C1913 C1912 1.374 . S
C1914 C1911 1.499 . S
C1914 C1915 1.373 . S
C1914 C1916 1.389 . S
C1915 H1894 0.950 . S
C1915 C1914 1.373 . S
C1915 C1931 1.377 . S
C1916 C1914 1.389 . S
C1916 C1917 1.524 . S
C1916 C1930 1.377 . S
C1917 C1916 1.524 . S
C1917 C1918 1.397 . S
C1917 C1922 1.363 . S
C1918 H1895 0.950 . S
C1918 C1917 1.397 . S
C1918 C1919 1.334 . S
C1919 H1896 0.950 . S
C1919 C1918 1.334 . S
C1919 C1920 1.287 . S
C1920 C1919 1.287 . S
C1920 C1921 1.524 . S
C1920 H1939 0.913 . S
C1921 H1897 0.950 . S
C1921 C1920 1.524 . S
C1921 C1922 1.415 . S
C1922 H1898 0.950 . S
C1922 C1917 1.363 . S
C1922 C1921 1.415 . S
C1923 H1899 0.951 . S
C1923 C1924 1.366 . S
C1923 C1925 1.388 . S
C1924 C1923 1.366 . S
C1924 C1928 1.385 . S
C1925 H1900 0.951 . S
C1925 C1923 1.388 . S
C1925 C1926 1.366 . S
C1926 C1925 1.366 . S
C1926 C1927 1.414 . S
C1926 C1929 1.499 . S
C1927 H1901 0.950 . S
C1927 C1926 1.414 . S
C1927 C1928 1.374 . S
C1928 H1902 0.950 . S
C1928 C1924 1.385 . S
C1928 C1927 1.374 . S
C1929 C1926 1.499 . S
C1929 C1930 1.373 . S
C1929 C1931 1.389 . S
C1930 H1903 0.950 . S
C1930 C1916 1.377 . S
C1930 C1929 1.373 . S
C1931 C1915 1.377 . S
C1931 C1929 1.389 . S
C1931 C1932 1.524 . S
C1932 C1931 1.524 . S
C1932 C1933 1.397 . S
C1932 C1937 1.363 . S
C1933 H1904 0.950 . S
C1933 C1932 1.397 . S
C1933 C1934 1.334 1_655 S
C1934 H1905 0.950 . S
C1934 C1933 1.334 1_455 S
C1934 C1935 1.287 . S
C1935 C1934 1.287 . S
C1935 C1936 1.524 . S
C1935 H1938 0.999 . S
C1936 H1906 0.950 . S
C1936 C1935 1.524 . S
C1936 C1937 1.415 1_455 S
C1937 H1907 0.950 . S
C1937 C1932 1.363 . S
C1937 C1936 1.415 1_655 S
H1938 C1935 0.999 . S
H1939 C1920 0.913 . S
H1940 C1958 0.951 . S
H1941 C1960 0.951 . S
H1942 C1962 0.950 . S
H1943 C1963 0.950 . S
H1944 C1965 0.950 . S
H1945 C1968 0.950 . S
H1946 C1969 0.950 . S
H1947 C1971 0.950 . S
H1948 C1972 0.950 . S
H1949 C1973 0.951 . S
H1950 C1975 0.951 . S
H1951 C1977 0.950 . S
H1952 C1978 0.950 . S
H1953 C1980 0.950 . S
H1954 C1983 0.950 . S
H1955 C1984 0.950 . S
H1956 C1986 0.950 . S
H1957 C1987 0.950 . S
C1958 H1940 0.951 . S
C1958 C1959 1.366 . S
C1958 C1960 1.388 . S
C1959 C1958 1.366 . S
C1959 C1963 1.385 . S
C1960 H1941 0.951 . S
C1960 C1958 1.388 . S
C1960 C1961 1.366 . S
C1961 C1960 1.366 . S
C1961 C1962 1.414 . S
C1961 C1964 1.499 . S
C1962 H1942 0.950 . S
C1962 C1961 1.414 . S
C1962 C1963 1.374 . S
C1963 H1943 0.950 . S
C1963 C1959 1.385 . S
C1963 C1962 1.374 . S
C1964 C1961 1.499 . S
C1964 C1965 1.373 . S
C1964 C1966 1.389 . S
C1965 H1944 0.950 . S
C1965 C1964 1.373 . S
C1965 C1981 1.377 . S
C1966 C1964 1.389 . S
C1966 C1967 1.524 . S
C1966 C1980 1.377 . S
C1967 C1966 1.524 . S
C1967 C1968 1.397 . S
C1967 C1972 1.363 . S
C1968 H1945 0.950 . S
C1968 C1967 1.397 . S
C1968 C1969 1.334 . S
C1969 H1946 0.950 . S
C1969 C1968 1.334 . S
C1969 C1970 1.287 . S
C1970 C1969 1.287 . S
C1970 C1971 1.524 . S
C1970 H1989 0.913 . S
C1971 H1947 0.950 . S
C1971 C1970 1.524 . S
C1971 C1972 1.415 . S
C1972 H1948 0.950 . S
C1972 C1967 1.363 . S
C1972 C1971 1.415 . S
C1973 H1949 0.951 . S
C1973 C1974 1.366 . S
C1973 C1975 1.388 . S
C1974 C1973 1.366 . S
C1974 C1978 1.385 . S
C1975 H1950 0.951 . S
C1975 C1973 1.388 . S
C1975 C1976 1.366 . S
C1976 C1975 1.366 . S
C1976 C1977 1.414 . S
C1976 C1979 1.499 . S
C1977 H1951 0.950 . S
C1977 C1976 1.414 . S
C1977 C1978 1.374 . S
C1978 H1952 0.950 . S
C1978 C1974 1.385 . S
C1978 C1977 1.374 . S
C1979 C1976 1.499 . S
C1979 C1980 1.373 . S
C1979 C1981 1.389 . S
C1980 H1953 0.950 . S
C1980 C1966 1.377 . S
C1980 C1979 1.373 . S
C1981 C1965 1.377 . S
C1981 C1979 1.389 . S
C1981 C1982 1.524 . S
C1982 C1981 1.524 . S
C1982 C1983 1.397 . S
C1982 C1987 1.363 . S
C1983 H1954 0.950 . S
C1983 C1982 1.397 . S
C1983 C1984 1.334 . S
C1984 H1955 0.950 . S
C1984 C1983 1.334 . S
C1984 C1985 1.287 . S
C1985 C1984 1.287 . S
C1985 C1986 1.524 . S
C1985 H1988 0.999 . S
C1986 H1956 0.950 . S
C1986 C1985 1.524 . S
C1986 C1987 1.415 . S
C1987 H1957 0.950 . S
C1987 C1982 1.363 . S
C1987 C1986 1.415 . S
H1988 C1985 0.999 . S
H1989 C1970 0.913 . S
H1990 C2008 0.951 . S
H1991 C2010 0.951 . S
H1992 C2012 0.950 . S
H1993 C2013 0.950 . S
H1994 C2015 0.950 . S
H1995 C2018 0.950 . S
H1996 C2019 0.950 . S
H1997 C2021 0.950 . S
H1998 C2022 0.950 . S
H1999 C2023 0.951 . S
H2000 C2025 0.951 . S
H2001 C2027 0.950 . S
H2002 C2028 0.950 . S
H2003 C2030 0.950 . S
H2004 C2033 0.950 . S
H2005 C2034 0.950 . S
H2006 C2036 0.950 . S
H2007 C2037 0.950 . S
C2008 H1990 0.951 . S
C2008 C2009 1.366 . S
C2008 C2010 1.388 . S
C2009 C2008 1.366 . S
C2009 C2013 1.385 . S
C2010 H1991 0.951 . S
C2010 C2008 1.388 . S
C2010 C2011 1.366 . S
C2011 C2010 1.366 . S
C2011 C2012 1.414 . S
C2011 C2014 1.499 . S
C2012 H1992 0.950 . S
C2012 C2011 1.414 . S
C2012 C2013 1.374 . S
C2013 H1993 0.950 . S
C2013 C2009 1.385 . S
C2013 C2012 1.374 . S
C2014 C2011 1.499 . S
C2014 C2015 1.373 . S
C2014 C2016 1.389 . S
C2015 H1994 0.950 . S
C2015 C2014 1.373 . S
C2015 C2031 1.377 . S
C2016 C2014 1.389 . S
C2016 C2017 1.524 . S
C2016 C2030 1.377 . S
C2017 C2016 1.524 . S
C2017 C2018 1.397 . S
C2017 C2022 1.363 . S
C2018 H1995 0.950 . S
C2018 C2017 1.397 . S
C2018 C2019 1.334 . S
C2019 H1996 0.950 . S
C2019 C2018 1.334 . S
C2019 C2020 1.287 . S
C2020 C2019 1.287 . S
C2020 C2021 1.524 . S
C2020 H2039 0.913 . S
C2021 H1997 0.950 . S
C2021 C2020 1.524 . S
C2021 C2022 1.415 . S
C2022 H1998 0.950 . S
C2022 C2017 1.363 . S
C2022 C2021 1.415 . S
C2023 H1999 0.951 . S
C2023 C2024 1.366 . S
C2023 C2025 1.388 . S
C2024 C2023 1.366 . S
C2024 C2028 1.385 . S
C2025 H2000 0.951 . S
C2025 C2023 1.388 . S
C2025 C2026 1.366 . S
C2026 C2025 1.366 . S
C2026 C2027 1.414 . S
C2026 C2029 1.499 . S
C2027 H2001 0.950 . S
C2027 C2026 1.414 . S
C2027 C2028 1.374 . S
C2028 H2002 0.950 . S
C2028 C2024 1.385 . S
C2028 C2027 1.374 . S
C2029 C2026 1.499 . S
C2029 C2030 1.373 . S
C2029 C2031 1.389 . S
C2030 H2003 0.950 . S
C2030 C2016 1.377 . S
C2030 C2029 1.373 . S
C2031 C2015 1.377 . S
C2031 C2029 1.389 . S
C2031 C2032 1.524 . S
C2032 C2031 1.524 . S
C2032 C2033 1.397 . S
C2032 C2037 1.363 . S
C2033 H2004 0.950 . S
C2033 C2032 1.397 . S
C2033 C2034 1.334 . S
C2034 H2005 0.950 . S
C2034 C2033 1.334 . S
C2034 C2035 1.287 . S
C2035 C2034 1.287 . S
C2035 C2036 1.524 . S
C2035 H2038 0.999 . S
C2036 H2006 0.950 . S
C2036 C2035 1.524 . S
C2036 C2037 1.415 . S
C2037 H2007 0.950 . S
C2037 C2032 1.363 . S
C2037 C2036 1.415 . S
H2038 C2035 0.999 . S
H2039 C2020 0.913 . S
H2040 C2058 0.951 . S
H2041 C2060 0.951 . S
H2042 C2062 0.950 . S
H2043 C2063 0.950 . S
H2044 C2065 0.950 . S
H2045 C2068 0.950 . S
H2046 C2069 0.950 . S
H2047 C2071 0.950 . S
H2048 C2072 0.950 . S
H2049 C2073 0.951 . S
H2050 C2075 0.951 . S
H2051 C2077 0.950 . S
H2052 C2078 0.950 . S
H2053 C2080 0.950 . S
H2054 C2083 0.950 . S
H2055 C2084 0.950 . S
H2056 C2086 0.950 . S
H2057 C2087 0.950 . S
C2058 H2040 0.951 . S
C2058 C2059 1.366 . S
C2058 C2060 1.388 . S
C2059 C2058 1.366 . S
C2059 C2063 1.385 . S
C2060 H2041 0.951 . S
C2060 C2058 1.388 . S
C2060 C2061 1.366 . S
C2061 C2060 1.366 . S
C2061 C2062 1.414 . S
C2061 C2064 1.499 . S
C2062 H2042 0.950 . S
C2062 C2061 1.414 . S
C2062 C2063 1.374 . S
C2063 H2043 0.950 . S
C2063 C2059 1.385 . S
C2063 C2062 1.374 . S
C2064 C2061 1.499 . S
C2064 C2065 1.373 . S
C2064 C2066 1.389 . S
C2065 H2044 0.950 . S
C2065 C2064 1.373 . S
C2065 C2081 1.377 . S
C2066 C2064 1.389 . S
C2066 C2067 1.524 . S
C2066 C2080 1.377 . S
C2067 C2066 1.524 . S
C2067 C2068 1.397 . S
C2067 C2072 1.363 . S
C2068 H2045 0.950 . S
C2068 C2067 1.397 . S
C2068 C2069 1.334 . S
C2069 H2046 0.950 . S
C2069 C2068 1.334 . S
C2069 C2070 1.287 . S
C2070 C2069 1.287 . S
C2070 C2071 1.524 . S
C2070 H2089 0.913 . S
C2071 H2047 0.950 . S
C2071 C2070 1.524 . S
C2071 C2072 1.415 . S
C2072 H2048 0.950 . S
C2072 C2067 1.363 . S
C2072 C2071 1.415 . S
C2073 H2049 0.951 . S
C2073 C2074 1.366 . S
C2073 C2075 1.388 . S
C2074 C2073 1.366 . S
C2074 C2078 1.385 . S
C2075 H2050 0.951 . S
C2075 C2073 1.388 . S
C2075 C2076 1.366 . S
C2076 C2075 1.366 . S
C2076 C2077 1.414 . S
C2076 C2079 1.499 . S
C2077 H2051 0.950 . S
C2077 C2076 1.414 . S
C2077 C2078 1.374 . S
C2078 H2052 0.950 . S
C2078 C2074 1.385 . S
C2078 C2077 1.374 . S
C2079 C2076 1.499 . S
C2079 C2080 1.373 . S
C2079 C2081 1.389 . S
C2080 H2053 0.950 . S
C2080 C2066 1.377 . S
C2080 C2079 1.373 . S
C2081 C2065 1.377 . S
C2081 C2079 1.389 . S
C2081 C2082 1.524 . S
C2082 C2081 1.524 . S
C2082 C2083 1.397 . S
C2082 C2087 1.363 . S
C2083 H2054 0.950 . S
C2083 C2082 1.397 . S
C2083 C2084 1.334 . S
C2084 H2055 0.950 . S
C2084 C2083 1.334 . S
C2084 C2085 1.287 . S
C2085 C2084 1.287 . S
C2085 C2086 1.524 . S
C2085 H2088 0.999 . S
C2086 H2056 0.950 . S
C2086 C2085 1.524 . S
C2086 C2087 1.415 . S
C2087 H2057 0.950 . S
C2087 C2082 1.363 . S
C2087 C2086 1.415 . S
H2088 C2085 0.999 . S
H2089 C2070 0.913 . S
H2090 C2108 0.951 . S
H2091 C2110 0.951 . S
H2092 C2112 0.950 . S
H2093 C2113 0.950 . S
H2094 C2115 0.950 . S
H2095 C2118 0.950 . S
H2096 C2119 0.950 . S
H2097 C2121 0.950 . S
H2098 C2122 0.950 . S
H2099 C2123 0.951 . S
H2100 C2125 0.951 . S
H2101 C2127 0.950 . S
H2102 C2128 0.950 . S
H2103 C2130 0.950 . S
H2104 C2133 0.950 . S
H2105 C2134 0.950 . S
H2106 C2136 0.950 . S
H2107 C2137 0.950 . S
C2108 H2090 0.951 . S
C2108 C2109 1.366 . S
C2108 C2110 1.388 . S
C2109 C2108 1.366 . S
C2109 C2113 1.385 . S
C2110 H2091 0.951 . S
C2110 C2108 1.388 . S
C2110 C2111 1.366 . S
C2111 C2110 1.366 . S
C2111 C2112 1.414 . S
C2111 C2114 1.499 . S
C2112 H2092 0.950 . S
C2112 C2111 1.414 . S
C2112 C2113 1.374 . S
C2113 H2093 0.950 . S
C2113 C2109 1.385 . S
C2113 C2112 1.374 . S
C2114 C2111 1.499 . S
C2114 C2115 1.373 . S
C2114 C2116 1.389 . S
C2115 H2094 0.950 . S
C2115 C2114 1.373 . S
C2115 C2131 1.377 . S
C2116 C2114 1.389 . S
C2116 C2117 1.524 . S
C2116 C2130 1.377 . S
C2117 C2116 1.524 . S
C2117 C2118 1.397 . S
C2117 C2122 1.363 . S
C2118 H2095 0.950 . S
C2118 C2117 1.397 . S
C2118 C2119 1.334 . S
C2119 H2096 0.950 . S
C2119 C2118 1.334 . S
C2119 C2120 1.287 . S
C2120 C2119 1.287 . S
C2120 C2121 1.524 . S
C2120 H2139 0.913 . S
C2121 H2097 0.950 . S
C2121 C2120 1.524 . S
C2121 C2122 1.415 . S
C2122 H2098 0.950 . S
C2122 C2117 1.363 . S
C2122 C2121 1.415 . S
C2123 H2099 0.951 . S
C2123 C2124 1.366 . S
C2123 C2125 1.388 . S
C2124 C2123 1.366 . S
C2124 C2128 1.385 . S
C2125 H2100 0.951 . S
C2125 C2123 1.388 . S
C2125 C2126 1.366 . S
C2126 C2125 1.366 . S
C2126 C2127 1.414 . S
C2126 C2129 1.499 . S
C2127 H2101 0.950 . S
C2127 C2126 1.414 . S
C2127 C2128 1.374 . S
C2128 H2102 0.950 . S
C2128 C2124 1.385 . S
C2128 C2127 1.374 . S
C2129 C2126 1.499 . S
C2129 C2130 1.373 . S
C2129 C2131 1.389 . S
C2130 H2103 0.950 . S
C2130 C2116 1.377 . S
C2130 C2129 1.373 . S
C2131 C2115 1.377 . S
C2131 C2129 1.389 . S
C2131 C2132 1.524 . S
C2132 C2131 1.524 . S
C2132 C2133 1.397 . S
C2132 C2137 1.363 . S
C2133 H2104 0.950 . S
C2133 C2132 1.397 . S
C2133 C2134 1.334 . S
C2134 H2105 0.950 . S
C2134 C2133 1.334 . S
C2134 C2135 1.287 . S
C2135 C2134 1.287 . S
C2135 C2136 1.524 . S
C2135 H2138 0.999 . S
C2136 H2106 0.950 . S
C2136 C2135 1.524 . S
C2136 C2137 1.415 . S
C2137 H2107 0.950 . S
C2137 C2132 1.363 . S
C2137 C2136 1.415 . S
H2138 C2135 0.999 . S
H2139 C2120 0.913 . S
H2140 C2158 0.951 . S
H2141 C2160 0.951 . S
H2142 C2162 0.950 . S
H2143 C2163 0.950 . S
H2144 C2165 0.950 . S
H2145 C2168 0.950 . S
H2146 C2169 0.950 . S
H2147 C2171 0.950 . S
H2148 C2172 0.950 . S
H2149 C2173 0.951 . S
H2150 C2175 0.951 . S
H2151 C2177 0.950 . S
H2152 C2178 0.950 . S
H2153 C2180 0.950 . S
H2154 C2183 0.950 . S
H2155 C2184 0.950 . S
H2156 C2186 0.950 . S
H2157 C2187 0.950 . S
C2158 H2140 0.951 . S
C2158 C2159 1.366 . S
C2158 C2160 1.388 . S
C2159 C2158 1.366 . S
C2159 C2163 1.385 . S
C2160 H2141 0.951 . S
C2160 C2158 1.388 . S
C2160 C2161 1.366 . S
C2161 C2160 1.366 . S
C2161 C2162 1.414 . S
C2161 C2164 1.499 . S
C2162 H2142 0.950 . S
C2162 C2161 1.414 . S
C2162 C2163 1.374 . S
C2163 H2143 0.950 . S
C2163 C2159 1.385 . S
C2163 C2162 1.374 . S
C2164 C2161 1.499 . S
C2164 C2165 1.373 . S
C2164 C2166 1.389 . S
C2165 H2144 0.950 . S
C2165 C2164 1.373 . S
C2165 C2181 1.377 . S
C2166 C2164 1.389 . S
C2166 C2167 1.524 . S
C2166 C2180 1.377 . S
C2167 C2166 1.524 . S
C2167 C2168 1.397 . S
C2167 C2172 1.363 . S
C2168 H2145 0.950 . S
C2168 C2167 1.397 . S
C2168 C2169 1.334 . S
C2169 H2146 0.950 . S
C2169 C2168 1.334 . S
C2169 C2170 1.287 . S
C2170 C2169 1.287 . S
C2170 C2171 1.524 . S
C2170 H2189 0.913 . S
C2171 H2147 0.950 . S
C2171 C2170 1.524 . S
C2171 C2172 1.415 . S
C2172 H2148 0.950 . S
C2172 C2167 1.363 . S
C2172 C2171 1.415 . S
C2173 H2149 0.951 . S
C2173 C2174 1.366 . S
C2173 C2175 1.388 . S
C2174 C2173 1.366 . S
C2174 C2178 1.385 . S
C2175 H2150 0.951 . S
C2175 C2173 1.388 . S
C2175 C2176 1.366 . S
C2176 C2175 1.366 . S
C2176 C2177 1.414 . S
C2176 C2179 1.499 . S
C2177 H2151 0.950 . S
C2177 C2176 1.414 . S
C2177 C2178 1.374 . S
C2178 H2152 0.950 . S
C2178 C2174 1.385 . S
C2178 C2177 1.374 . S
C2179 C2176 1.499 . S
C2179 C2180 1.373 . S
C2179 C2181 1.389 . S
C2180 H2153 0.950 . S
C2180 C2166 1.377 . S
C2180 C2179 1.373 . S
C2181 C2165 1.377 . S
C2181 C2179 1.389 . S
C2181 C2182 1.524 . S
C2182 C2181 1.524 . S
C2182 C2183 1.397 . S
C2182 C2187 1.363 . S
C2183 H2154 0.950 . S
C2183 C2182 1.397 . S
C2183 C2184 1.334 . S
C2184 H2155 0.950 . S
C2184 C2183 1.334 . S
C2184 C2185 1.287 . S
C2185 C2184 1.287 . S
C2185 C2186 1.524 . S
C2185 H2188 0.999 . S
C2186 H2156 0.950 . S
C2186 C2185 1.524 . S
C2186 C2187 1.415 . S
C2187 H2157 0.950 . S
C2187 C2182 1.363 . S
C2187 C2186 1.415 . S
H2188 C2185 0.999 . S
H2189 C2170 0.913 . S
H2190 C2208 0.951 . S
H2191 C2210 0.951 . S
H2192 C2212 0.950 . S
H2193 C2213 0.950 . S
H2194 C2215 0.950 . S
H2195 C2218 0.950 . S
H2196 C2219 0.945 1_455 S
H2197 C2221 0.950 . S
H2198 C2222 0.950 . S
H2199 C2223 0.951 . S
H2200 C2225 0.951 . S
H2201 C2227 0.950 . S
H2202 C2228 0.950 . S
H2203 C2230 0.950 . S
H2204 C2233 0.950 . S
H2205 C2234 0.950 . S
H2206 C2236 0.950 . S
H2207 C2237 0.950 . S
C2208 H2190 0.951 . S
C2208 C2209 1.366 . S
C2208 C2210 1.388 . S
C2209 C2208 1.366 . S
C2209 C2213 1.385 . S
C2210 H2191 0.951 . S
C2210 C2208 1.388 . S
C2210 C2211 1.366 . S
C2211 C2210 1.366 . S
C2211 C2212 1.414 . S
C2211 C2214 1.499 . S
C2212 H2192 0.950 . S
C2212 C2211 1.414 . S
C2212 C2213 1.374 . S
C2213 H2193 0.950 . S
C2213 C2209 1.385 . S
C2213 C2212 1.374 . S
C2214 C2211 1.499 . S
C2214 C2215 1.373 . S
C2214 C2216 1.389 . S
C2215 H2194 0.950 . S
C2215 C2214 1.373 . S
C2215 C2231 1.377 . S
C2216 C2214 1.389 . S
C2216 C2217 1.524 . S
C2216 C2230 1.377 . S
C2217 C2216 1.524 . S
C2217 C2218 1.397 . S
C2217 C2222 1.363 . S
C2218 H2195 0.950 . S
C2218 C2217 1.397 . S
C2218 C2219 1.334 . S
C2219 H2196 0.945 1_655 S
C2219 C2218 1.334 . S
C2219 C2220 1.287 1_655 S
C2220 C2219 1.287 1_455 S
C2220 C2221 1.524 1_455 S
C2220 H2239 0.913 . S
C2221 H2197 0.950 . S
C2221 C2220 1.524 1_655 S
C2221 C2222 1.415 . S
C2222 H2198 0.950 . S
C2222 C2217 1.363 . S
C2222 C2221 1.415 . S
C2223 H2199 0.951 . S
C2223 C2224 1.366 . S
C2223 C2225 1.388 . S
C2224 C2223 1.366 . S
C2224 C2228 1.385 . S
C2225 H2200 0.951 . S
C2225 C2223 1.388 . S
C2225 C2226 1.366 . S
C2226 C2225 1.366 . S
C2226 C2227 1.414 . S
C2226 C2229 1.499 . S
C2227 H2201 0.950 . S
C2227 C2226 1.414 . S
C2227 C2228 1.374 . S
C2228 H2202 0.950 . S
C2228 C2224 1.385 . S
C2228 C2227 1.374 . S
C2229 C2226 1.499 . S
C2229 C2230 1.373 . S
C2229 C2231 1.389 . S
C2230 H2203 0.950 . S
C2230 C2216 1.377 . S
C2230 C2229 1.373 . S
C2231 C2215 1.377 . S
C2231 C2229 1.389 . S
C2231 C2232 1.524 . S
C2232 C2231 1.524 . S
C2232 C2233 1.397 . S
C2232 C2237 1.363 . S
C2233 H2204 0.950 . S
C2233 C2232 1.397 . S
C2233 C2234 1.334 . S
C2234 H2205 0.950 . S
C2234 C2233 1.334 . S
C2234 C2235 1.287 . S
C2235 C2234 1.287 . S
C2235 C2236 1.524 . S
C2235 H2238 0.999 . S
C2236 H2206 0.950 . S
C2236 C2235 1.524 . S
C2236 C2237 1.415 . S
C2237 H2207 0.950 . S
C2237 C2232 1.363 . S
C2237 C2236 1.415 . S
H2238 C2235 0.999 . S
H2239 C2220 0.913 . S
H2240 C2258 0.951 . S
H2241 C2260 0.951 . S
H2242 C2262 0.950 . S
H2243 C2263 0.950 . S
H2244 C2265 0.950 . S
H2245 C2268 0.950 . S
H2246 C2269 0.950 . S
H2247 C2271 0.950 . S
H2248 C2272 0.950 . S
H2249 C2273 0.951 . S
H2250 C2275 0.951 . S
H2251 C2277 0.950 . S
H2252 C2278 0.950 . S
H2253 C2280 0.950 . S
H2254 C2283 0.950 . S
H2255 C2284 0.950 . S
H2256 C2286 0.950 . S
H2257 C2287 0.950 . S
C2258 H2240 0.951 . S
C2258 C2259 1.366 . S
C2258 C2260 1.388 . S
C2259 C2258 1.366 . S
C2259 C2263 1.385 . S
C2260 H2241 0.951 . S
C2260 C2258 1.388 . S
C2260 C2261 1.366 . S
C2261 C2260 1.366 . S
C2261 C2262 1.414 . S
C2261 C2264 1.499 . S
C2262 H2242 0.950 . S
C2262 C2261 1.414 . S
C2262 C2263 1.374 . S
C2263 H2243 0.950 . S
C2263 C2259 1.385 . S
C2263 C2262 1.374 . S
C2264 C2261 1.499 . S
C2264 C2265 1.373 . S
C2264 C2266 1.389 . S
C2265 H2244 0.950 . S
C2265 C2264 1.373 . S
C2265 C2281 1.377 . S
C2266 C2264 1.389 . S
C2266 C2267 1.524 . S
C2266 C2280 1.377 . S
C2267 C2266 1.524 . S
C2267 C2268 1.397 . S
C2267 C2272 1.363 . S
C2268 H2245 0.950 . S
C2268 C2267 1.397 . S
C2268 C2269 1.334 . S
C2269 H2246 0.950 . S
C2269 C2268 1.334 . S
C2269 C2270 1.287 . S
C2270 C2269 1.287 . S
C2270 C2271 1.524 . S
C2270 H2289 0.913 . S
C2271 H2247 0.950 . S
C2271 C2270 1.524 . S
C2271 C2272 1.415 . S
C2272 H2248 0.950 . S
C2272 C2267 1.363 . S
C2272 C2271 1.415 . S
C2273 H2249 0.951 . S
C2273 C2274 1.366 . S
C2273 C2275 1.388 . S
C2274 C2273 1.366 . S
C2274 C2278 1.385 . S
C2275 H2250 0.951 . S
C2275 C2273 1.388 . S
C2275 C2276 1.366 . S
C2276 C2275 1.366 . S
C2276 C2277 1.414 . S
C2276 C2279 1.499 . S
C2277 H2251 0.950 . S
C2277 C2276 1.414 . S
C2277 C2278 1.374 . S
C2278 H2252 0.950 . S
C2278 C2274 1.385 . S
C2278 C2277 1.374 . S
C2279 C2276 1.499 . S
C2279 C2280 1.373 . S
C2279 C2281 1.389 . S
C2280 H2253 0.950 . S
C2280 C2266 1.377 . S
C2280 C2279 1.373 . S
C2281 C2265 1.377 . S
C2281 C2279 1.389 . S
C2281 C2282 1.524 . S
C2282 C2281 1.524 . S
C2282 C2283 1.397 . S
C2282 C2287 1.363 . S
C2283 H2254 0.950 . S
C2283 C2282 1.397 . S
C2283 C2284 1.334 . S
C2284 H2255 0.950 . S
C2284 C2283 1.334 . S
C2284 C2285 1.287 . S
C2285 C2284 1.287 . S
C2285 C2286 1.524 . S
C2285 H2288 0.999 . S
C2286 H2256 0.950 . S
C2286 C2285 1.524 . S
C2286 C2287 1.415 . S
C2287 H2257 0.950 . S
C2287 C2282 1.363 . S
C2287 C2286 1.415 . S
H2288 C2285 0.999 . S
H2289 C2270 0.913 . S
H2290 C2308 0.951 . S
H2291 C2310 0.951 . S
H2292 C2312 0.950 . S
H2293 C2313 0.950 . S
H2294 C2315 0.950 . S
H2295 C2318 0.950 . S
H2296 C2319 0.950 . S
H2297 C2321 0.950 . S
H2298 C2322 0.950 . S
H2299 C2323 0.951 . S
H2300 C2325 0.951 . S
H2301 C2327 0.950 . S
H2302 C2328 0.950 . S
H2303 C2330 0.950 . S
H2304 C2333 0.950 . S
H2305 C2334 0.950 . S
H2306 C2336 0.950 . S
H2307 C2337 0.950 . S
C2308 H2290 0.951 . S
C2308 C2309 1.366 . S
C2308 C2310 1.388 . S
C2309 C2308 1.366 . S
C2309 C2313 1.385 . S
C2310 H2291 0.951 . S
C2310 C2308 1.388 . S
C2310 C2311 1.366 . S
C2311 C2310 1.366 . S
C2311 C2312 1.414 . S
C2311 C2314 1.499 . S
C2312 H2292 0.950 . S
C2312 C2311 1.414 . S
C2312 C2313 1.374 . S
C2313 H2293 0.950 . S
C2313 C2309 1.385 . S
C2313 C2312 1.374 . S
C2314 C2311 1.499 . S
C2314 C2315 1.373 . S
C2314 C2316 1.389 . S
C2315 H2294 0.950 . S
C2315 C2314 1.373 . S
C2315 C2331 1.377 . S
C2316 C2314 1.389 . S
C2316 C2317 1.524 . S
C2316 C2330 1.377 . S
C2317 C2316 1.524 . S
C2317 C2318 1.397 . S
C2317 C2322 1.363 . S
C2318 H2295 0.950 . S
C2318 C2317 1.397 . S
C2318 C2319 1.334 . S
C2319 H2296 0.950 . S
C2319 C2318 1.334 . S
C2319 C2320 1.287 . S
C2320 C2319 1.287 . S
C2320 C2321 1.524 . S
C2320 H2339 0.913 . S
C2321 H2297 0.950 . S
C2321 C2320 1.524 . S
C2321 C2322 1.415 . S
C2322 H2298 0.950 . S
C2322 C2317 1.363 . S
C2322 C2321 1.415 . S
C2323 H2299 0.951 . S
C2323 C2324 1.366 . S
C2323 C2325 1.388 . S
C2324 C2323 1.366 . S
C2324 C2328 1.385 . S
C2325 H2300 0.951 . S
C2325 C2323 1.388 . S
C2325 C2326 1.366 . S
C2326 C2325 1.366 . S
C2326 C2327 1.414 . S
C2326 C2329 1.499 . S
C2327 H2301 0.950 . S
C2327 C2326 1.414 . S
C2327 C2328 1.374 . S
C2328 H2302 0.950 . S
C2328 C2324 1.385 . S
C2328 C2327 1.374 . S
C2329 C2326 1.499 . S
C2329 C2330 1.373 . S
C2329 C2331 1.389 . S
C2330 H2303 0.950 . S
C2330 C2316 1.377 . S
C2330 C2329 1.373 . S
C2331 C2315 1.377 . S
C2331 C2329 1.389 . S
C2331 C2332 1.524 . S
C2332 C2331 1.524 . S
C2332 C2333 1.397 . S
C2332 C2337 1.363 . S
C2333 H2304 0.950 . S
C2333 C2332 1.397 . S
C2333 C2334 1.334 . S
C2334 H2305 0.950 . S
C2334 C2333 1.334 . S
C2334 C2335 1.287 . S
C2335 C2334 1.287 . S
C2335 C2336 1.524 . S
C2335 H2338 0.999 . S
C2336 H2306 0.950 . S
C2336 C2335 1.524 . S
C2336 C2337 1.415 . S
C2337 H2307 0.950 . S
C2337 C2332 1.363 . S
C2337 C2336 1.415 . S
H2338 C2335 0.999 . S
H2339 C2320 0.913 . S
H2340 C2358 0.951 . S
H2341 C2360 0.951 . S
H2342 C2362 0.950 . S
H2343 C2363 0.950 . S
H2344 C2365 0.950 . S
H2345 C2368 0.950 . S
H2346 C2369 0.950 . S
H2347 C2371 0.950 . S
H2348 C2372 0.950 . S
H2349 C2373 0.951 . S
H2350 C2375 0.951 . S
H2351 C2377 0.950 . S
H2352 C2378 0.950 . S
H2353 C2380 0.950 . S
H2354 C2383 0.950 . S
H2355 C2384 0.950 . S
H2356 C2386 0.950 . S
H2357 C2387 0.950 . S
C2358 H2340 0.951 . S
C2358 C2359 1.366 . S
C2358 C2360 1.388 . S
C2359 C2358 1.366 . S
C2359 C2363 1.385 . S
C2360 H2341 0.951 . S
C2360 C2358 1.388 . S
C2360 C2361 1.366 . S
C2361 C2360 1.366 . S
C2361 C2362 1.414 . S
C2361 C2364 1.499 . S
C2362 H2342 0.950 . S
C2362 C2361 1.414 . S
C2362 C2363 1.374 . S
C2363 H2343 0.950 . S
C2363 C2359 1.385 . S
C2363 C2362 1.374 . S
C2364 C2361 1.499 . S
C2364 C2365 1.373 . S
C2364 C2366 1.389 . S
C2365 H2344 0.950 . S
C2365 C2364 1.373 . S
C2365 C2381 1.377 . S
C2366 C2364 1.389 . S
C2366 C2367 1.524 . S
C2366 C2380 1.377 . S
C2367 C2366 1.524 . S
C2367 C2368 1.397 . S
C2367 C2372 1.363 . S
C2368 H2345 0.950 . S
C2368 C2367 1.397 . S
C2368 C2369 1.334 . S
C2369 H2346 0.950 . S
C2369 C2368 1.334 . S
C2369 C2370 1.287 . S
C2370 C2369 1.287 . S
C2370 C2371 1.524 . S
C2370 H2389 0.913 . S
C2371 H2347 0.950 . S
C2371 C2370 1.524 . S
C2371 C2372 1.415 . S
C2372 H2348 0.950 . S
C2372 C2367 1.363 . S
C2372 C2371 1.415 . S
C2373 H2349 0.951 . S
C2373 C2374 1.366 . S
C2373 C2375 1.388 . S
C2374 C2373 1.366 . S
C2374 C2378 1.385 . S
C2375 H2350 0.951 . S
C2375 C2373 1.388 . S
C2375 C2376 1.366 . S
C2376 C2375 1.366 . S
C2376 C2377 1.414 . S
C2376 C2379 1.499 . S
C2377 H2351 0.950 . S
C2377 C2376 1.414 . S
C2377 C2378 1.374 . S
C2378 H2352 0.950 . S
C2378 C2374 1.385 . S
C2378 C2377 1.374 . S
C2379 C2376 1.499 . S
C2379 C2380 1.373 . S
C2379 C2381 1.389 . S
C2380 H2353 0.950 . S
C2380 C2366 1.377 . S
C2380 C2379 1.373 . S
C2381 C2365 1.377 . S
C2381 C2379 1.389 . S
C2381 C2382 1.524 . S
C2382 C2381 1.524 . S
C2382 C2383 1.397 . S
C2382 C2387 1.363 . S
C2383 H2354 0.950 . S
C2383 C2382 1.397 . S
C2383 C2384 1.334 . S
C2384 H2355 0.950 . S
C2384 C2383 1.334 . S
C2384 C2385 1.287 . S
C2385 C2384 1.287 . S
C2385 C2386 1.524 . S
C2385 H2388 0.999 . S
C2386 H2356 0.950 . S
C2386 C2385 1.524 . S
C2386 C2387 1.415 . S
C2387 H2357 0.950 . S
C2387 C2382 1.363 . S
C2387 C2386 1.415 . S
H2388 C2385 0.999 . S
H2389 C2370 0.913 . S
H2390 C2408 0.951 . S
H2391 C2410 0.951 . S
H2392 C2412 0.950 . S
H2393 C2413 0.950 . S
H2394 C2415 0.950 . S
H2395 C2418 0.950 . S
H2396 C2419 0.950 . S
H2397 C2421 0.950 . S
H2398 C2422 0.950 . S
H2399 C2423 0.951 . S
H2400 C2425 0.951 . S
H2401 C2427 0.950 . S
H2402 C2428 0.950 . S
H2403 C2430 0.950 . S
H2404 C2433 0.950 . S
H2405 C2434 0.950 . S
H2406 C2436 0.950 . S
H2407 C2437 0.950 . S
C2408 H2390 0.951 . S
C2408 C2409 1.366 . S
C2408 C2410 1.388 . S
C2409 C2408 1.366 . S
C2409 C2413 1.385 . S
C2410 H2391 0.951 . S
C2410 C2408 1.388 . S
C2410 C2411 1.366 . S
C2411 C2410 1.366 . S
C2411 C2412 1.414 . S
C2411 C2414 1.499 . S
C2412 H2392 0.950 . S
C2412 C2411 1.414 . S
C2412 C2413 1.374 . S
C2413 H2393 0.950 . S
C2413 C2409 1.385 . S
C2413 C2412 1.374 . S
C2414 C2411 1.499 . S
C2414 C2415 1.373 . S
C2414 C2416 1.389 . S
C2415 H2394 0.950 . S
C2415 C2414 1.373 . S
C2415 C2431 1.377 . S
C2416 C2414 1.389 . S
C2416 C2417 1.524 . S
C2416 C2430 1.377 . S
C2417 C2416 1.524 . S
C2417 C2418 1.397 . S
C2417 C2422 1.363 . S
C2418 H2395 0.950 . S
C2418 C2417 1.397 . S
C2418 C2419 1.334 . S
C2419 H2396 0.950 . S
C2419 C2418 1.334 . S
C2419 C2420 1.287 . S
C2420 C2419 1.287 . S
C2420 C2421 1.524 . S
C2420 H2439 0.913 . S
C2421 H2397 0.950 . S
C2421 C2420 1.524 . S
C2421 C2422 1.415 . S
C2422 H2398 0.950 . S
C2422 C2417 1.363 . S
C2422 C2421 1.415 . S
C2423 H2399 0.951 . S
C2423 C2424 1.366 . S
C2423 C2425 1.388 . S
C2424 C2423 1.366 . S
C2424 C2428 1.385 . S
C2425 H2400 0.951 . S
C2425 C2423 1.388 . S
C2425 C2426 1.366 . S
C2426 C2425 1.366 . S
C2426 C2427 1.414 . S
C2426 C2429 1.499 . S
C2427 H2401 0.950 . S
C2427 C2426 1.414 . S
C2427 C2428 1.374 . S
C2428 H2402 0.950 . S
C2428 C2424 1.385 . S
C2428 C2427 1.374 . S
C2429 C2426 1.499 . S
C2429 C2430 1.373 . S
C2429 C2431 1.389 . S
C2430 H2403 0.950 . S
C2430 C2416 1.377 . S
C2430 C2429 1.373 . S
C2431 C2415 1.377 . S
C2431 C2429 1.389 . S
C2431 C2432 1.524 . S
C2432 C2431 1.524 . S
C2432 C2433 1.397 . S
C2432 C2437 1.363 . S
C2433 H2404 0.950 . S
C2433 C2432 1.397 . S
C2433 C2434 1.334 . S
C2434 H2405 0.950 . S
C2434 C2433 1.334 . S
C2434 C2435 1.287 . S
C2435 C2434 1.287 . S
C2435 C2436 1.524 . S
C2435 H2438 0.999 . S
C2436 H2406 0.950 . S
C2436 C2435 1.524 . S
C2436 C2437 1.415 . S
C2437 H2407 0.950 . S
C2437 C2432 1.363 . S
C2437 C2436 1.415 . S
H2438 C2435 0.999 . S
H2439 C2420 0.913 . S
H2440 C2458 0.951 . S
H2441 C2460 0.951 . S
H2442 C2462 0.950 . S
H2443 C2463 0.950 . S
H2444 C2465 0.950 . S
H2445 C2468 0.950 . S
H2446 C2469 0.950 . S
H2447 C2471 0.950 . S
H2448 C2472 0.950 . S
H2449 C2473 0.951 . S
H2450 C2475 0.951 . S
H2451 C2477 0.950 . S
H2452 C2478 0.950 . S
H2453 C2480 0.950 . S
H2454 C2483 0.950 . S
H2455 C2484 0.950 . S
H2456 C2486 0.950 . S
H2457 C2487 0.950 . S
C2458 H2440 0.951 . S
C2458 C2459 1.366 . S
C2458 C2460 1.388 . S
C2459 C2458 1.366 . S
C2459 C2463 1.385 . S
C2460 H2441 0.951 . S
C2460 C2458 1.388 . S
C2460 C2461 1.366 . S
C2461 C2460 1.366 . S
C2461 C2462 1.414 . S
C2461 C2464 1.499 . S
C2462 H2442 0.950 . S
C2462 C2461 1.414 . S
C2462 C2463 1.374 . S
C2463 H2443 0.950 . S
C2463 C2459 1.385 . S
C2463 C2462 1.374 . S
C2464 C2461 1.499 . S
C2464 C2465 1.373 . S
C2464 C2466 1.389 . S
C2465 H2444 0.950 . S
C2465 C2464 1.373 . S
C2465 C2481 1.377 . S
C2466 C2464 1.389 . S
C2466 C2467 1.524 . S
C2466 C2480 1.377 . S
C2467 C2466 1.524 . S
C2467 C2468 1.397 . S
C2467 C2472 1.363 . S
C2468 H2445 0.950 . S
C2468 C2467 1.397 . S
C2468 C2469 1.334 . S
C2469 H2446 0.950 . S
C2469 C2468 1.334 . S
C2469 C2470 1.287 . S
C2470 C2469 1.287 . S
C2470 C2471 1.524 . S
C2470 H2489 0.913 . S
C2471 H2447 0.950 . S
C2471 C2470 1.524 . S
C2471 C2472 1.415 . S
C2472 H2448 0.950 . S
C2472 C2467 1.363 . S
C2472 C2471 1.415 . S
C2473 H2449 0.951 . S
C2473 C2474 1.366 . S
C2473 C2475 1.388 . S
C2474 C2473 1.366 . S
C2474 C2478 1.385 . S
C2475 H2450 0.951 . S
C2475 C2473 1.388 . S
C2475 C2476 1.366 . S
C2476 C2475 1.366 . S
C2476 C2477 1.414 . S
C2476 C2479 1.499 . S
C2477 H2451 0.950 . S
C2477 C2476 1.414 . S
C2477 C2478 1.374 . S
C2478 H2452 0.950 . S
C2478 C2474 1.385 . S
C2478 C2477 1.374 . S
C2479 C2476 1.499 . S
C2479 C2480 1.373 . S
C2479 C2481 1.389 . S
C2480 H2453 0.950 . S
C2480 C2466 1.377 . S
C2480 C2479 1.373 . S
C2481 C2465 1.377 . S
C2481 C2479 1.389 . S
C2481 C2482 1.524 . S
C2482 C2481 1.524 . S
C2482 C2483 1.397 . S
C2482 C2487 1.363 . S
C2483 H2454 0.950 . S
C2483 C2482 1.397 . S
C2483 C2484 1.334 . S
C2484 H2455 0.950 . S
C2484 C2483 1.334 . S
C2484 C2485 1.287 . S
C2485 C2484 1.287 . S
C2485 C2486 1.524 . S
C2485 H2488 0.999 . S
C2486 H2456 0.950 . S
C2486 C2485 1.524 . S
C2486 C2487 1.415 . S
C2487 H2457 0.950 . S
C2487 C2482 1.363 . S
C2487 C2486 1.415 . S
H2488 C2485 0.999 . S
H2489 C2470 0.913 . S
H2490 C2508 0.951 . S
H2491 C2510 0.951 . S
H2492 C2512 0.950 . S
H2493 C2513 0.950 . S
H2494 C2515 0.950 . S
H2495 C2518 0.950 . S
H2496 C2519 0.950 . S
H2497 C2521 0.950 . S
H2498 C2522 0.950 . S
H2499 C2523 0.951 . S
H2500 C2525 0.951 . S
H2501 C2527 0.950 . S
H2502 C2528 0.950 . S
H2503 C2530 0.950 . S
H2504 C2533 0.950 . S
H2505 C2534 0.950 . S
H2506 C2536 0.950 . S
H2507 C2537 0.950 . S
C2508 H2490 0.951 . S
C2508 C2509 1.366 . S
C2508 C2510 1.388 . S
C2509 C2508 1.366 . S
C2509 C2513 1.385 . S
C2510 H2491 0.951 . S
C2510 C2508 1.388 . S
C2510 C2511 1.366 . S
C2511 C2510 1.366 . S
C2511 C2512 1.414 . S
C2511 C2514 1.499 . S
C2512 H2492 0.950 . S
C2512 C2511 1.414 . S
C2512 C2513 1.374 . S
C2513 H2493 0.950 . S
C2513 C2509 1.385 . S
C2513 C2512 1.374 . S
C2514 C2511 1.499 . S
C2514 C2515 1.373 . S
C2514 C2516 1.389 . S
C2515 H2494 0.950 . S
C2515 C2514 1.373 . S
C2515 C2531 1.377 . S
C2516 C2514 1.389 . S
C2516 C2517 1.524 . S
C2516 C2530 1.377 . S
C2517 C2516 1.524 . S
C2517 C2518 1.397 . S
C2517 C2522 1.363 . S
C2518 H2495 0.950 . S
C2518 C2517 1.397 . S
C2518 C2519 1.334 . S
C2519 H2496 0.950 . S
C2519 C2518 1.334 . S
C2519 C2520 1.287 . S
C2520 C2519 1.287 . S
C2520 C2521 1.524 . S
C2520 H2539 0.913 . S
C2521 H2497 0.950 . S
C2521 C2520 1.524 . S
C2521 C2522 1.415 . S
C2522 H2498 0.950 . S
C2522 C2517 1.363 . S
C2522 C2521 1.415 . S
C2523 H2499 0.951 . S
C2523 C2524 1.366 . S
C2523 C2525 1.388 . S
C2524 C2523 1.366 . S
C2524 C2528 1.385 . S
C2525 H2500 0.951 . S
C2525 C2523 1.388 . S
C2525 C2526 1.366 . S
C2526 C2525 1.366 . S
C2526 C2527 1.414 . S
C2526 C2529 1.499 . S
C2527 H2501 0.950 . S
C2527 C2526 1.414 . S
C2527 C2528 1.374 . S
C2528 H2502 0.950 . S
C2528 C2524 1.385 . S
C2528 C2527 1.374 . S
C2529 C2526 1.499 . S
C2529 C2530 1.373 . S
C2529 C2531 1.389 . S
C2530 H2503 0.950 . S
C2530 C2516 1.377 . S
C2530 C2529 1.373 . S
C2531 C2515 1.377 . S
C2531 C2529 1.389 . S
C2531 C2532 1.524 . S
C2532 C2531 1.524 . S
C2532 C2533 1.397 . S
C2532 C2537 1.363 . S
C2533 H2504 0.950 . S
C2533 C2532 1.397 . S
C2533 C2534 1.334 . S
C2534 H2505 0.950 . S
C2534 C2533 1.334 . S
C2534 C2535 1.287 . S
C2535 C2534 1.287 . S
C2535 C2536 1.524 . S
C2535 H2538 0.999 . S
C2536 H2506 0.950 . S
C2536 C2535 1.524 . S
C2536 C2537 1.415 . S
C2537 H2507 0.950 . S
C2537 C2532 1.363 . S
C2537 C2536 1.415 . S
H2538 C2535 0.999 . S
H2539 C2520 0.913 . S
H2540 C2558 0.951 . S
H2541 C2560 0.951 . S
H2542 C2562 0.950 . S
H2543 C2563 0.950 . S
H2544 C2565 0.950 . S
H2545 C2568 0.950 . S
H2546 C2569 0.950 . S
H2547 C2571 0.950 . S
H2548 C2572 0.950 . S
H2549 C2573 0.951 . S
H2550 C2575 0.951 . S
H2551 C2577 0.950 . S
H2552 C2578 0.950 . S
H2553 C2580 0.950 . S
H2554 C2583 0.950 . S
H2555 C2584 0.950 . S
H2556 C2586 0.950 . S
H2557 C2587 0.950 . S
C2558 H2540 0.951 . S
C2558 C2559 1.366 . S
C2558 C2560 1.388 . S
C2559 C2558 1.366 . S
C2559 C2563 1.385 . S
C2560 H2541 0.951 . S
C2560 C2558 1.388 . S
C2560 C2561 1.366 . S
C2561 C2560 1.366 . S
C2561 C2562 1.414 . S
C2561 C2564 1.499 . S
C2562 H2542 0.950 . S
C2562 C2561 1.414 . S
C2562 C2563 1.374 . S
C2563 H2543 0.950 . S
C2563 C2559 1.385 . S
C2563 C2562 1.374 . S
C2564 C2561 1.499 . S
C2564 C2565 1.373 . S
C2564 C2566 1.389 . S
C2565 H2544 0.950 . S
C2565 C2564 1.373 . S
C2565 C2581 1.377 . S
C2566 C2564 1.389 . S
C2566 C2567 1.524 . S
C2566 C2580 1.377 . S
C2567 C2566 1.524 . S
C2567 C2568 1.397 . S
C2567 C2572 1.363 . S
C2568 H2545 0.950 . S
C2568 C2567 1.397 . S
C2568 C2569 1.334 . S
C2569 H2546 0.950 . S
C2569 C2568 1.334 . S
C2569 C2570 1.287 . S
C2570 C2569 1.287 . S
C2570 C2571 1.524 . S
C2570 H2589 0.913 . S
C2571 H2547 0.950 . S
C2571 C2570 1.524 . S
C2571 C2572 1.415 . S
C2572 H2548 0.950 . S
C2572 C2567 1.363 . S
C2572 C2571 1.415 . S
C2573 H2549 0.951 . S
C2573 C2574 1.366 . S
C2573 C2575 1.388 . S
C2574 C2573 1.366 . S
C2574 C2578 1.385 . S
C2575 H2550 0.951 . S
C2575 C2573 1.388 . S
C2575 C2576 1.366 . S
C2576 C2575 1.366 . S
C2576 C2577 1.414 . S
C2576 C2579 1.499 . S
C2577 H2551 0.950 . S
C2577 C2576 1.414 . S
C2577 C2578 1.374 . S
C2578 H2552 0.950 . S
C2578 C2574 1.385 . S
C2578 C2577 1.374 . S
C2579 C2576 1.499 . S
C2579 C2580 1.373 . S
C2579 C2581 1.389 . S
C2580 H2553 0.950 . S
C2580 C2566 1.377 . S
C2580 C2579 1.373 . S
C2581 C2565 1.377 . S
C2581 C2579 1.389 . S
C2581 C2582 1.524 . S
C2582 C2581 1.524 . S
C2582 C2583 1.397 . S
C2582 C2587 1.363 . S
C2583 H2554 0.950 . S
C2583 C2582 1.397 . S
C2583 C2584 1.334 . S
C2584 H2555 0.950 . S
C2584 C2583 1.334 . S
C2584 C2585 1.287 . S
C2585 C2584 1.287 . S
C2585 C2586 1.524 . S
C2585 H2588 0.999 . S
C2586 H2556 0.950 . S
C2586 C2585 1.524 . S
C2586 C2587 1.415 . S
C2587 H2557 0.950 . S
C2587 C2582 1.363 . S
C2587 C2586 1.415 . S
H2588 C2585 0.999 . S
H2589 C2570 0.913 . S
H2590 C2608 0.951 . S
H2591 C2610 0.951 . S
H2592 C2612 0.950 . S
H2593 C2613 0.950 . S
H2594 C2615 0.950 . S
H2595 C2618 0.950 . S
H2596 C2619 0.950 . S
H2597 C2621 0.950 . S
H2598 C2622 0.950 . S
H2599 C2623 0.951 . S
H2600 C2625 0.951 . S
H2601 C2627 0.950 . S
H2602 C2628 0.950 . S
H2603 C2630 0.950 . S
H2604 C2633 0.950 . S
H2605 C2634 0.950 . S
H2606 C2636 0.950 . S
H2607 C2637 0.950 . S
C2608 H2590 0.951 . S
C2608 C2609 1.366 . S
C2608 C2610 1.388 . S
C2609 C2608 1.366 . S
C2609 C2613 1.385 . S
C2610 H2591 0.951 . S
C2610 C2608 1.388 . S
C2610 C2611 1.366 . S
C2611 C2610 1.366 . S
C2611 C2612 1.414 . S
C2611 C2614 1.499 . S
C2612 H2592 0.950 . S
C2612 C2611 1.414 . S
C2612 C2613 1.374 . S
C2613 H2593 0.950 . S
C2613 C2609 1.385 . S
C2613 C2612 1.374 . S
C2614 C2611 1.499 . S
C2614 C2615 1.373 . S
C2614 C2616 1.389 . S
C2615 H2594 0.950 . S
C2615 C2614 1.373 . S
C2615 C2631 1.377 . S
C2616 C2614 1.389 . S
C2616 C2617 1.524 . S
C2616 C2630 1.377 . S
C2617 C2616 1.524 . S
C2617 C2618 1.397 . S
C2617 C2622 1.363 . S
C2618 H2595 0.950 . S
C2618 C2617 1.397 . S
C2618 C2619 1.334 . S
C2619 H2596 0.950 . S
C2619 C2618 1.334 . S
C2619 C2620 1.287 . S
C2620 C2619 1.287 . S
C2620 C2621 1.524 . S
C2620 H2639 0.913 . S
C2621 H2597 0.950 . S
C2621 C2620 1.524 . S
C2621 C2622 1.415 . S
C2622 H2598 0.950 . S
C2622 C2617 1.363 . S
C2622 C2621 1.415 . S
C2623 H2599 0.951 . S
C2623 C2624 1.366 . S
C2623 C2625 1.388 . S
C2624 C2623 1.366 . S
C2624 C2628 1.385 . S
C2625 H2600 0.951 . S
C2625 C2623 1.388 . S
C2625 C2626 1.366 . S
C2626 C2625 1.366 . S
C2626 C2627 1.414 . S
C2626 C2629 1.499 . S
C2627 H2601 0.950 . S
C2627 C2626 1.414 . S
C2627 C2628 1.374 . S
C2628 H2602 0.950 . S
C2628 C2624 1.385 . S
C2628 C2627 1.374 . S
C2629 C2626 1.499 . S
C2629 C2630 1.373 . S
C2629 C2631 1.389 . S
C2630 H2603 0.950 . S
C2630 C2616 1.377 . S
C2630 C2629 1.373 . S
C2631 C2615 1.377 . S
C2631 C2629 1.389 . S
C2631 C2632 1.524 . S
C2632 C2631 1.524 . S
C2632 C2633 1.397 . S
C2632 C2637 1.363 . S
C2633 H2604 0.950 . S
C2633 C2632 1.397 . S
C2633 C2634 1.334 . S
C2634 H2605 0.950 . S
C2634 C2633 1.334 . S
C2634 C2635 1.287 . S
C2635 C2634 1.287 . S
C2635 C2636 1.524 . S
C2635 H2638 0.999 . S
C2636 H2606 0.950 . S
C2636 C2635 1.524 . S
C2636 C2637 1.415 . S
C2637 H2607 0.950 . S
C2637 C2632 1.363 . S
C2637 C2636 1.415 . S
H2638 C2635 0.999 . S
H2639 C2620 0.913 . S
C1074 C961 1.495 . S
C1059 C11 0.941 . S
C1109 C143 1.134 . S
C1124 C993 1.406 . S
C1159 C283 1.141 . S
C1174 C1016 1.561 . S
C1224 C920 1.342 . S
C1209 C343 1.072 . S
C1274 C1003 1.405 . S
C1259 C55 1.103 . S
C1324 C1032 1.184 . S
C1309 C115 1.047 . S
C1374 C936 1.344 . S
C1359 C239 0.926 . S
C1424 C971 1.267 . S
C1409 C371 1.103 . S
C1459 C29 1.125 . S
C1474 C999 1.252 . S
C1509 C467 0.845 . S
C1524 C974 1.319 . S
C1559 C229 0.982 . S
C1574 C942 1.151 . S
C1624 C1031 1.384 . S
C1609 C625 1.144 . S
C1674 C975 1.299 . S
C1659 C1 1.031 . S
C1709 C511 1.156 . S
C1724 C943 1.521 . S
C1759 C257 1.144 . S
C1774 C1030 1.395 . S
C1824 C998 1.482 . S
C1809 C581 0.892 . S
C1859 C713 1.143 . S
C1874 C1025 1.413 . S
C1909 C485 1.125 . S
C1924 C929 1.392 . S
C1959 C799 1.058 . S
C1974 C952 1.319 . S
C2009 C571 1.060 . S
C2024 C984 1.321 . S
C2074 C939 1.181 . S
C2059 C685 1.053 . S
C2109 C457 1.037 . S
C2124 C968 1.172 . S
C2159 C827 1.090 . S
C2174 C1000 1.261 . S
C2224 C1035 1.248 . S
C2209 C599 1.086 . S
C2259 C695 0.854 . S
C2274 C935 1.340 . S
C2309 C125 0.856 . S
C2324 C1038 1.333 . S
C2359 C853 1.140 . S
C2374 C1006 1.376 . S
C2424 C967 1.404 . S
C2409 C397 1.159 . S
C2474 C1039 1.540 . S
C2459 C739 1.172 . S
C2524 C1007 1.536 . S
C2509 C169 1.168 . S
C2574 C966 1.480 . S
C2559 C809 0.894 . S
C2624 C934 1.505 . S
C2609 C353 0.905 . S
