# Generated by pormake.
# Topology zzz, (3,6)-cn, num edge types: 1
# Building blocks:
#     Node 0, Type 0, BuildingBlock: PAMTOO_clean_linker_0, # of connection points: 3
#     Node 1, Type 0, BuildingBlock: PAMTOO_clean_linker_0, # of connection points: 3
#     Node 2, Type 0, BuildingBlock: PAMTOO_clean_linker_0, # of connection points: 3
#     Node 3, Type 0, BuildingBlock: PAMTOO_clean_linker_0, # of connection points: 3
#     Node 4, Type 0, BuildingBlock: PAMTOO_clean_linker_0, # of connection points: 3
#     Node 5, Type 0, BuildingBlock: PAMTOO_clean_linker_0, # of connection points: 3
#     Node 6, Type 0, BuildingBlock: PAMTOO_clean_linker_0, # of connection points: 3
#     Node 7, Type 0, BuildingBlock: PAMTOO_clean_linker_0, # of connection points: 3
#     Node 8, Type 1, BuildingBlock: INOVEN_clean_sbu_0, # of connection points: 6
#     Node 9, Type 1, BuildingBlock: INOVEN_clean_sbu_0, # of connection points: 6
#     Node 10, Type 1, BuildingBlock: INOVEN_clean_sbu_0, # of connection points: 6
#     Node 11, Type 1, BuildingBlock: INOVEN_clean_sbu_0, # of connection points: 6
#     Edge 12, Type (0, 1), BuildingBlock: ZUJKAS_clean_linker_0, # of connection points: 2
#     Edge 13, Type (0, 1), BuildingBlock: ZUJKAS_clean_linker_0, # of connection points: 2
#     Edge 14, Type (0, 1), BuildingBlock: ZUJKAS_clean_linker_0, # of connection points: 2
#     Edge 15, Type (0, 1), BuildingBlock: ZUJKAS_clean_linker_0, # of connection points: 2
#     Edge 16, Type (0, 1), BuildingBlock: ZUJKAS_clean_linker_0, # of connection points: 2
#     Edge 17, Type (0, 1), BuildingBlock: ZUJKAS_clean_linker_0, # of connection points: 2
#     Edge 18, Type (0, 1), BuildingBlock: ZUJKAS_clean_linker_0, # of connection points: 2
#     Edge 19, Type (0, 1), BuildingBlock: ZUJKAS_clean_linker_0, # of connection points: 2
#     Edge 20, Type (0, 1), BuildingBlock: ZUJKAS_clean_linker_0, # of connection points: 2
#     Edge 21, Type (0, 1), BuildingBlock: ZUJKAS_clean_linker_0, # of connection points: 2
#     Edge 22, Type (0, 1), BuildingBlock: ZUJKAS_clean_linker_0, # of connection points: 2
#     Edge 23, Type (0, 1), BuildingBlock: ZUJKAS_clean_linker_0, # of connection points: 2
#     Edge 24, Type (0, 1), BuildingBlock: ZUJKAS_clean_linker_0, # of connection points: 2
#     Edge 25, Type (0, 1), BuildingBlock: ZUJKAS_clean_linker_0, # of connection points: 2
#     Edge 26, Type (0, 1), BuildingBlock: ZUJKAS_clean_linker_0, # of connection points: 2
#     Edge 27, Type (0, 1), BuildingBlock: ZUJKAS_clean_linker_0, # of connection points: 2
#     Edge 28, Type (0, 1), BuildingBlock: ZUJKAS_clean_linker_0, # of connection points: 2
#     Edge 29, Type (0, 1), BuildingBlock: ZUJKAS_clean_linker_0, # of connection points: 2
#     Edge 30, Type (0, 1), BuildingBlock: ZUJKAS_clean_linker_0, # of connection points: 2
#     Edge 31, Type (0, 1), BuildingBlock: ZUJKAS_clean_linker_0, # of connection points: 2
#     Edge 32, Type (0, 1), BuildingBlock: ZUJKAS_clean_linker_0, # of connection points: 2
#     Edge 33, Type (0, 1), BuildingBlock: ZUJKAS_clean_linker_0, # of connection points: 2
#     Edge 34, Type (0, 1), BuildingBlock: ZUJKAS_clean_linker_0, # of connection points: 2
#     Edge 35, Type (0, 1), BuildingBlock: ZUJKAS_clean_linker_0, # of connection points: 2
# Relax obj value: 0.216
# Max RMSD: 0.171
# Mean RMSD: 0.156
data_MOF--net-zzz--node1-INOVEN_clean_sbu_0--node2-PAMTOO_clean_linker_0--edge1-ZUJKAS_clean_linker_0
_symmetry_space_group_name_H-M    P1
_symmetry_Int_Tables_number       1
_symmetry_cell_setting            triclinic
loop_
_symmetry_equiv_pos_as_xyz
'x, y, z'
_cell_length_a     67.898134
_cell_length_b     67.872253
_cell_length_c     17.203538
_cell_angle_alpha  89.886575
_cell_angle_beta   90.24952
_cell_angle_gamma 90.022822
loop_
_atom_site_label
_atom_site_type_symbol
_atom_site_fract_x
_atom_site_fract_y
_atom_site_fract_z
_atom_type_partial_charge
H0 H 0.80833 0.51901 0.21109 0.0
H1 H 0.74932 0.52728 0.12485 0.0
H2 H 0.7616 0.53299 0.3697 0.0
H3 H 0.7129 0.52189 0.32743 0.0
C4 C 0.71942 0.52035 0.26864 0.0
O5 O 0.73382 0.53464 0.25967 0.0
H6 H 0.72589 0.50527 0.26632 0.0
C7 C 0.79295 0.52241 0.2215 0.0
C8 C 0.78675 0.52595 0.29768 0.0
C9 C 0.77966 0.52297 0.1588 0.0
C10 C 0.75974 0.52686 0.17273 0.0
C11 C 0.75314 0.53042 0.24844 0.0
C12 C 0.76668 0.53011 0.31123 0.0
H13 H 0.01999 0.80565 0.18727 0.0
H14 H 1.01107 0.74564 0.11635 0.0
H15 H 1.00732 0.76108 0.35847 0.0
H16 H 0.01899 0.71274 0.32793 0.0
C17 C 0.01951 0.71782 0.26654 0.0
O18 O 1.00498 0.7319 0.25544 0.0
H19 H 0.03447 0.72421 0.25785 0.0
C20 C 0.01679 0.79045 0.20212 0.0
C21 C 0.01385 0.78533 0.28031 0.0
C22 C 0.01581 0.77633 0.14271 0.0
C23 C 1.0119 0.75666 0.1617 0.0
C24 C 1.00892 0.75108 0.23917 0.0
C25 C 1.00969 0.76544 0.29865 0.0
H26 H 0.72745 0.02166 0.21196 0.0
H27 H 0.78599 0.01351 0.12227 0.0
H28 H 0.77479 1.00587 0.36651 0.0
H29 H 0.82079 0.02042 0.32676 0.0
C30 C 0.81643 0.01987 0.26446 0.0
O31 O 0.80214 1.00543 0.25584 0.0
H32 H 0.81053 0.03465 0.2484 0.0
C33 C 0.74285 0.01803 0.22083 0.0
C34 C 0.74937 0.01355 0.29611 0.0
C35 C 0.75583 0.01797 0.1574 0.0
C36 C 0.77579 0.01373 0.17044 0.0
C37 C 0.78274 1.0096 0.24554 0.0
C38 C 0.76949 1.00937 0.30864 0.0
H39 H 0.50567 0.73155 0.22121 0.0
H40 H 0.51708 0.79124 0.15077 0.0
H41 H 0.52359 0.77454 0.39108 0.0
H42 H 0.51412 0.82461 0.36006 0.0
C43 C 0.51259 0.81926 0.29934 0.0
O44 O 0.52597 0.80406 0.28866 0.0
H45 H 0.49717 0.81392 0.29214 0.0
C46 C 0.50935 0.74664 0.23616 0.0
C47 C 0.51411 0.75117 0.31353 0.0
C48 C 0.51048 0.7609 0.17708 0.0
C49 C 0.51612 0.78014 0.19591 0.0
C50 C 0.52048 0.78524 0.27286 0.0
C51 C 0.51976 0.77068 0.33185 0.0
H52 H 0.23696 0.54062 0.15558 0.0
H53 H 0.29705 0.53296 0.22862 0.0
H54 H 0.27648 0.50609 0.01668 0.0
H55 H 0.31597 0.48286 0.10379 0.0
C56 C 0.31433 0.49462 0.14813 0.0
O57 O 0.30744 0.51146 0.11096 0.0
H58 H 0.30354 0.48924 0.19194 0.0
C59 C 0.25166 0.53504 0.14481 0.0
C60 C 0.25487 0.5236 0.0783 0.0
C61 C 0.26666 0.53842 0.19965 0.0
C62 C 0.28537 0.53045 0.18683 0.0
C63 C 0.28902 0.51878 0.12142 0.0
C64 C 0.27367 0.51511 0.06728 0.0
H65 H 0.01473 0.22632 0.19745 0.0
H66 H 1.01166 0.28724 0.26442 0.0
H67 H 0.02626 0.27178 0.02899 0.0
H68 H 0.04416 0.31657 0.08694 0.0
C69 C 0.03759 0.31231 0.14356 0.0
O70 O 0.02074 0.30133 0.12865 0.0
H71 H 0.04877 0.30337 0.1755 0.0
C72 C 0.01633 0.24181 0.1831 0.0
C73 C 0.02113 0.24712 0.10671 0.0
C74 C 0.01285 0.25609 0.24036 0.0
C75 C 0.0142 0.27607 0.22072 0.0
C76 C 0.01928 0.28182 0.14519 0.0
C77 C 0.02254 0.26733 0.08762 0.0
H78 H 0.30768 1.01085 0.18048 0.0
H79 H 0.24743 1.01001 0.25816 0.0
H80 H 0.26046 0.01785 0.01558 0.0
H81 H 0.21491 0.03536 0.06853 0.0
C82 C 0.2206 0.03142 0.12718 0.0
O83 O 0.23204 0.01461 0.12092 0.0
H84 H 0.22956 0.04424 0.14717 0.0
C85 C 0.29205 1.01221 0.16846 0.0
C86 C 0.28586 0.0149 0.09141 0.0
C87 C 0.27839 1.01044 0.22933 0.0
C88 C 0.2582 1.01141 0.21218 0.0
C89 C 0.25168 0.01428 0.13566 0.0
C90 C 0.26552 0.01596 0.07492 0.0
H91 H 0.49282 0.29784 0.14592 0.0
H92 H 0.50299 0.23805 0.21869 0.0
H93 H 0.51846 0.25636 0.98731 0.0
H94 H 0.51111 0.20492 0.01193 0.0
C95 C 0.50654 0.21048 0.06982 0.0
O96 O 0.51822 0.22654 0.08875 0.0
H97 H 0.49077 0.21482 0.06382 0.0
C98 C 0.49719 0.28287 0.13242 0.0
C99 C 0.50506 0.27895 0.05881 0.0
C100 C 0.49626 0.26832 0.19058 0.0
C101 C 0.50327 0.24938 0.17429 0.0
C102 C 0.51097 0.24491 0.10111 0.0
C103 C 0.51206 0.25974 0.04327 0.0
Gd104 Gd 0.03028 1.00966 0.76867 0.0
Gd105 Gd 1.0087 0.02142 0.63397 0.0
C106 C 0.01751 0.97613 0.64067 0.0
C107 C 0.04443 0.99014 0.8843 0.0
C108 C 0.0538 0.97067 0.88183 0.0
C109 C 0.06419 0.96486 0.81519 0.0
C110 C 0.04969 0.95676 0.93964 0.0
C111 C 0.0648 0.93102 0.86126 0.0
C112 C 0.05513 0.9371 0.9295 0.0
C113 C 0.06974 0.94524 0.80522 0.0
C114 C 0.05428 0.02072 0.65039 0.0
C115 C 0.02144 0.05468 0.76194 0.0
C116 C 0.99435 0.04107 0.51856 0.0
C117 C 0.98841 0.06197 0.51653 0.0
C118 C 0.96879 0.06712 0.49998 0.0
C119 C 1.00155 0.07666 0.54176 0.0
C120 C 0.97525 0.10078 0.54065 0.0
C121 C 0.99499 0.09581 0.55436 0.0
C122 C 0.96228 0.08647 0.51128 0.0
C123 C 0.98498 1.01002 0.75247 0.0
O124 O 0.02209 0.98011 0.71379 0.0
O125 O 0.01381 0.99062 0.59161 0.0
O126 O 0.05406 1.00445 0.85058 0.0
O127 O 0.02569 0.99006 0.86648 0.0
O128 O 0.05684 0.02558 0.72241 0.0
O129 O 0.03907 1.01011 0.64367 0.0
O130 O 0.01835 0.05071 0.68766 0.0
O131 O 0.0236 0.0401 0.81189 0.0
O132 O 0.98357 0.02985 0.56303 0.0
O133 O 0.01319 0.03752 0.52653 0.0
O134 O 0.98261 1.00478 0.68071 0.0
O135 O 0.99997 0.02093 0.75883 0.0
H136 H 0.06721 0.97529 0.76899 0.0
H137 H 0.04135 0.9609 0.99062 0.0
H138 H 0.05075 0.9265 0.97326 0.0
H139 H 0.07733 0.94112 0.75246 0.0
H140 H 0.95837 0.05604 0.48077 0.0
H141 H 0.01682 0.07325 0.55416 0.0
H142 H 1.00535 0.1068 0.57486 0.0
H143 H 0.94705 0.09016 0.49916 0.0
Gd144 Gd 0.52228 0.0279 0.75303 0.0
Gd145 Gd 0.51245 1.00361 0.62627 0.0
C146 C 0.55709 0.01452 0.63378 0.0
C147 C 0.54064 0.04517 0.86477 0.0
C148 C 0.56017 0.05445 0.86163 0.0
C149 C 0.56632 0.06422 0.79375 0.0
C150 C 0.57384 0.0507 0.92082 0.0
C151 C 0.60001 0.06497 0.84189 0.0
C152 C 0.59358 0.05585 0.91103 0.0
C153 C 0.58603 0.06955 0.78421 0.0
C154 C 0.51136 0.04936 0.62625 0.0
C155 C 0.47768 0.01683 0.74662 0.0
C156 C 0.49419 0.98638 0.51409 0.0
C157 C 0.47491 0.9766 0.51731 0.0
C158 C 0.4688 0.96733 0.58628 0.0
C159 C 0.46141 0.97924 0.4566 0.0
C160 C 0.43539 0.96491 0.53608 0.0
C161 C 0.44181 0.97348 0.46586 0.0
C162 C 0.44925 0.96142 0.59538 0.0
C163 C 0.52342 0.98217 0.7529 0.0
O164 O 0.55248 0.0195 0.7056 0.0
O165 O 0.54299 1.01007 0.58402 0.0
O166 O 0.5267 0.05378 0.82468 0.0
O167 O 0.54082 0.02606 0.85559 0.0
O168 O 0.50544 0.05268 0.69639 0.0
O169 O 0.52261 0.03453 0.62566 0.0
O170 O 0.48222 1.01172 0.67479 0.0
O171 O 0.49182 0.02149 0.79587 0.0
O172 O 0.5084 0.97793 0.55327 0.0
O173 O 0.49357 1.00543 0.52463 0.0
O174 O 0.52924 0.9788 0.68268 0.0
O175 O 0.51214 0.99698 0.75351 0.0
H176 H 0.55609 0.06695 0.74644 0.0
H177 H 0.56947 0.04282 0.9728 0.0
H178 H 0.60393 0.05165 0.95613 0.0
H179 H 0.59038 0.07672 0.73069 0.0
H180 H 0.47891 0.96546 0.63464 0.0
H181 H 0.46576 0.98671 0.40366 0.0
H182 H 0.43151 0.97678 0.41944 0.0
H183 H 0.44488 0.95471 0.6498 0.0
Gd184 Gd 0.51061 0.5223 0.76672 0.0
Gd185 Gd 0.52938 0.50883 0.6094 0.0
C186 C 0.52269 0.55555 0.64005 0.0
C187 C 0.50169 0.53589 0.90023 0.0
C188 C 0.49692 0.55682 0.91391 0.0
C189 C 0.48135 0.5658 0.87258 0.0
C190 C 0.51108 0.56883 0.95011 0.0
C191 C 0.49671 0.59775 0.88906 0.0
C192 C 0.5111 0.58912 0.937 0.0
C193 C 0.48122 0.58615 0.86058 0.0
C194 C 0.48568 0.51956 0.64416 0.0
C195 C 0.51864 0.47552 0.7405 0.0
C196 C 0.53231 0.4934 0.47405 0.0
C197 C 0.52555 0.4736 0.45057 0.0
C198 C 0.53956 0.4586 0.44109 0.0
C199 C 0.50553 0.46849 0.45569 0.0
C200 C 0.51422 0.43383 0.46079 0.0
C201 C 0.4999 0.44875 0.46129 0.0
C202 C 0.53395 0.43888 0.4464 0.0
C203 C 0.55839 0.51781 0.71461 0.0
O204 O 0.51948 0.5515 0.71434 0.0
O205 O 0.52521 0.5415 0.58738 0.0
O206 O 0.48903 0.52573 0.85851 0.0
O207 O 0.51999 0.53291 0.87918 0.0
O208 O 0.48474 0.53317 0.69673 0.0
O209 O 0.49944 0.50762 0.66018 0.0
O210 O 0.52368 0.47941 0.66762 0.0
O211 O 0.51398 0.48964 0.79042 0.0
O212 O 0.54673 0.49319 0.52488 0.0
O213 O 0.51866 0.50643 0.4907 0.0
O214 O 0.56179 0.5126 0.64346 0.0
O215 O 0.54003 0.51856 0.72274 0.0
H216 H 0.47018 0.55702 0.84377 0.0
H217 H 0.52321 0.56233 0.98223 0.0
H218 H 0.52296 0.59793 0.96103 0.0
H219 H 0.46987 0.59258 0.82405 0.0
H220 H 0.55507 0.46212 0.43606 0.0
H221 H 0.49435 0.47972 0.46101 0.0
H222 H 0.48454 0.4453 0.4712 0.0
H223 H 0.54521 0.42762 0.44305 0.0
Gd224 Gd 1.01132 0.50518 0.77507 0.0
Gd225 Gd 0.02601 0.52478 0.62261 0.0
C226 C 0.9791 0.51964 0.64962 0.0
C227 C 0.99869 0.4927 0.90617 0.0
C228 C 0.97989 0.48241 0.91904 0.0
C229 C 0.97358 0.46788 0.86622 0.0
C230 C 0.9664 0.49009 0.97241 0.0
C231 C 0.93997 0.47141 0.91116 0.0
C232 C 0.94658 0.48461 0.96865 0.0
C233 C 0.95378 0.46249 0.86217 0.0
C234 C 1.01232 0.48136 0.64854 0.0
C235 C 0.05834 0.51477 0.75665 0.0
C236 C 0.0431 0.5301 0.49158 0.0
C237 C 0.06356 0.53693 0.47986 0.0
C238 C 0.06885 0.55664 0.49469 0.0
C239 C 0.07851 0.52297 0.46788 0.0
C240 C 0.10339 0.54753 0.49799 0.0
C241 C 0.09823 0.52818 0.47758 0.0
C242 C 0.08864 0.5619 0.50336 0.0
C243 C 0.02086 0.55328 0.73285 0.0
O244 O 0.98282 0.51656 0.72432 0.0
O245 O 0.99343 0.52093 0.59756 0.0
O246 O 1.01201 0.48309 0.86617 0.0
O247 O 0.9967 0.5111 0.884 0.0
O248 O 0.9988 0.48075 0.70118 0.0
O249 O 0.02502 0.49415 0.66683 0.0
O250 O 0.05504 0.52105 0.68486 0.0
O251 O 0.04388 0.50868 0.80259 0.0
O252 O 0.03069 0.54292 0.52031 0.0
O253 O 0.04147 0.51272 0.52403 0.0
O254 O 0.0269 0.55665 0.66276 0.0
O255 O 0.01791 0.53504 0.73946 0.0
H256 H 0.98362 0.46165 0.82424 0.0
H257 H 0.97088 0.50147 0.01294 0.0
H258 H 0.93624 0.49183 0.00694 0.0
H259 H 0.94913 0.45206 0.81815 0.0
H260 H 0.05772 0.56781 0.50401 0.0
H261 H 0.07493 0.50772 0.45582 0.0
H262 H 0.10943 0.51695 0.47132 0.0
H263 H 0.09233 0.57696 0.51835 0.0
H264 H 0.21729 0.04239 0.28044 0.0
H265 H 0.18852 0.03936 0.36573 0.0
H266 H 0.15656 1.00999 0.18242 0.0
H267 H 0.18537 1.01296 0.09718 0.0
H268 H 0.1508 0.05538 0.33694 0.0
H269 H 0.14678 0.9741 0.371 0.0
H270 H 0.16857 0.98649 0.33601 0.0
H271 H 0.14788 0.98272 0.2723 0.0
C272 C 0.20417 0.03513 0.25872 0.0
C273 C 0.20347 0.02808 0.18196 0.0
C274 C 0.18773 0.03343 0.3074 0.0
C275 C 0.17034 0.02436 0.28084 0.0
C276 C 0.16984 0.0168 0.2048 0.0
H277 H 0.05511 1.00551 0.50221 0.0
H278 H 0.08248 1.00688 0.40907 0.0
C279 C 0.18626 0.01857 0.156 0.0
C280 C 0.1525 0.02375 0.33135 0.0
H281 H 0.12035 0.9926 0.42267 0.0
C282 C 0.14418 0.04164 0.35581 0.0
C283 C 0.14368 1.00585 0.35547 0.0
C284 C 0.15223 0.98617 0.33301 0.0
C285 C 0.12733 0.04214 0.40319 0.0
C286 C 0.11872 0.02424 0.42864 0.0
C287 C 0.12687 1.00633 0.40331 0.0
C288 C 0.10178 0.0238 0.48398 0.0
C289 C 0.11872 0.0619 0.42435 0.0
C290 C 0.10345 0.03273 0.55733 0.0
C291 C 0.08785 0.03204 0.61021 0.0
C292 C 0.07021 0.02222 0.59156 0.0
C293 C 0.06847 0.01327 0.51817 0.0
C294 C 0.08414 0.01399 0.46504 0.0
H295 H 0.12292 0.07345 0.38166 0.0
H296 H 0.10241 0.06123 0.42754 0.0
H297 H 0.12449 0.06643 0.48204 0.0
H298 H 0.117 0.03999 0.57437 0.0
H299 H 0.08974 0.03898 0.6664 0.0
H300 H 0.5321 0.17897 0.07174 0.0
H301 H 0.53328 0.15127 0.1638 0.0
H302 H 0.48702 0.17814 0.29789 0.0
H303 H 0.48545 0.20549 0.20461 0.0
H304 H 0.54074 0.14815 0.31819 0.0
H305 H 0.46402 0.1242 0.2617 0.0
H306 H 0.47631 0.14218 0.20168 0.0
H307 H 0.46565 0.14934 0.29299 0.0
C308 C 0.52221 0.17893 0.12096 0.0
C309 C 0.50846 0.19424 0.1303 0.0
C310 C 0.52289 0.1631 0.17363 0.0
C311 C 0.50988 0.16224 0.237 0.0
C312 C 0.4968 0.17805 0.24837 0.0
H313 H 0.48933 0.08289 0.62457 0.0
H314 H 0.48949 0.1095 0.52835 0.0
C315 C 0.49605 0.19381 0.19548 0.0
C316 C 0.50995 0.14484 0.29079 0.0
H317 H 0.4804 0.10903 0.36865 0.0
C318 C 0.52757 0.13952 0.32873 0.0
C319 C 0.49281 0.13341 0.30462 0.0
C320 C 0.47368 0.13742 0.26254 0.0
C321 C 0.52836 0.12358 0.38142 0.0
C322 C 0.51115 0.11239 0.3961 0.0
C323 C 0.4936 0.11758 0.35767 0.0
C324 C 0.51084 0.0957 0.45307 0.0
C325 C 0.54752 0.1192 0.42273 0.0
C326 C 0.52246 0.07876 0.4423 0.0
C327 C 0.52231 0.0634 0.4973 0.0
C328 C 0.51054 0.06469 0.56424 0.0
C329 C 0.4986 0.08144 0.57383 0.0
C330 C 0.49869 0.0967 0.5188 0.0
H331 H 0.55806 0.13168 0.41847 0.0
H332 H 0.54494 0.11588 0.4851 0.0
H333 H 0.55445 0.10608 0.39593 0.0
H334 H 0.53169 0.07742 0.39141 0.0
H335 H 0.53165 0.05069 0.4881 0.0
H336 H 0.33119 0.52953 0.20409 0.0
H337 H 0.36136 0.53323 0.28116 0.0
H338 H 0.37153 0.47067 0.26705 0.0
H339 H 0.34135 0.46689 0.18993 0.0
H340 H 0.36996 0.51617 0.42438 0.0
H341 H 0.42531 0.49276 0.20719 0.0
H342 H 0.40039 0.49924 0.18063 0.0
H343 H 0.40567 0.47543 0.22159 0.0
C344 C 0.33992 0.51658 0.21643 0.0
C345 C 0.33396 0.49791 0.18941 0.0
C346 C 0.35723 0.51872 0.26071 0.0
C347 C 0.36902 0.50229 0.279 0.0
C348 C 0.36306 0.48367 0.25222 0.0
H349 H 0.47399 0.48518 0.57305 0.0
H350 H 0.44612 0.48067 0.4827 0.0
C351 C 0.34575 0.48151 0.20821 0.0
C352 C 0.38687 0.50447 0.32964 0.0
H353 H 0.43673 0.49681 0.33697 0.0
C354 C 0.38456 0.51204 0.40499 0.0
C355 C 0.40597 0.4989 0.30494 0.0
C356 C 0.4096 0.49129 0.22396 0.0
C357 C 0.40065 0.51398 0.45636 0.0
C358 C 0.4198 0.50864 0.43145 0.0
C359 C 0.42211 0.50092 0.35628 0.0
C360 C 0.43756 0.5114 0.48217 0.0
C361 C 0.39687 0.52133 0.53768 0.0
C362 C 0.44247 0.53021 0.51031 0.0
C363 C 0.45839 0.53277 0.56133 0.0
C364 C 0.47002 0.51666 0.58466 0.0
C365 C 0.46554 0.49792 0.55482 0.0
C366 C 0.44952 0.49532 0.50369 0.0
H367 H 0.38124 0.51921 0.55475 0.0
H368 H 0.40642 0.51368 0.58073 0.0
H369 H 0.40012 0.53734 0.54032 0.0
H370 H 0.43384 0.54294 0.49339 0.0
H371 H 0.46151 0.54741 0.58319 0.0
H372 H 0.06178 0.34374 0.164 0.0
H373 H 0.05732 0.37287 0.24598 0.0
H374 H 0.99999 0.35169 0.31322 0.0
H375 H 1.00452 0.3224 0.23246 0.0
H376 H 0.0302 0.40247 0.2439 0.0
H377 H 0.0252 0.36174 0.52273 0.0
H378 H 0.03315 0.35018 0.43392 0.0
H379 H 1.00735 0.35398 0.45192 0.0
C380 C 0.04816 0.34537 0.19595 0.0
C381 C 0.03349 0.33078 0.19093 0.0
C382 C 0.04563 0.36203 0.2429 0.0
C383 C 0.02843 0.36446 0.2869 0.0
C384 C 0.01358 0.35004 0.28124 0.0
H385 H 0.98577 0.45318 0.60852 0.0
H386 H 0.98993 0.42573 0.51825 0.0
C387 C 0.01613 0.33331 0.23436 0.0
C388 C 0.02613 0.38205 0.33845 0.0
H389 H 0.01808 0.39594 0.52681 0.0
C390 C 0.02763 0.40102 0.30582 0.0
C391 C 0.02288 0.38028 0.41949 0.0
C392 C 0.02224 0.36046 0.45937 0.0
C393 C 0.02551 0.41814 0.3514 0.0
C394 C 0.02207 0.41633 0.43222 0.0
C395 C 0.02066 0.39738 0.46488 0.0
C396 C 0.01946 0.43382 0.48394 0.0
C397 C 0.02651 0.43802 0.31231 0.0
C398 C 0.03466 0.44767 0.49498 0.0
C399 C 0.03231 0.46347 0.54692 0.0
C400 C 0.01472 0.46569 0.58893 0.0
C401 C 0.99949 0.45194 0.57699 0.0
C402 C 1.00186 0.43619 0.52542 0.0
H403 H 0.02454 0.43688 0.24833 0.0
H404 H 0.01509 0.44808 0.33568 0.0
H405 H 0.04114 0.44472 0.32379 0.0
H406 H 0.04853 0.44599 0.46493 0.0
H407 H 0.04443 0.4736 0.55569 0.0
H408 H 0.85405 0.03233 0.29011 0.0
H409 H 0.88289 0.02929 0.20584 0.0
H410 H 0.84826 0.99633 0.0405 0.0
H411 H 0.81932 0.99966 0.12386 0.0
H412 H 0.90321 0.9975 0.15068 0.0
H413 H 0.87077 0.03933 0.90435 0.0
H414 H 0.8596 0.03872 0.99927 0.0
H415 H 0.85633 0.01844 0.93325 0.0
C416 C 0.85265 0.02424 0.23613 0.0
C417 C 0.83443 0.01599 0.2145 0.0
C418 C 0.86914 0.02256 0.18788 0.0
C419 C 0.86778 1.0128 0.11612 0.0
C420 C 0.84966 1.00426 0.09478 0.0
H421 H 0.94971 0.99119 0.73766 0.0
H422 H 0.92204 0.99116 0.82834 0.0
C423 C 0.83312 1.00601 0.14297 0.0
C424 C 0.88528 1.01176 0.06373 0.0
H425 H 0.90147 0.0238 0.8816 0.0
C426 C 0.90283 1.00331 0.09193 0.0
C427 C 0.88491 0.01941 0.98701 0.0
C428 C 0.86697 0.02966 0.95427 0.0
C429 C 0.91979 1.00195 0.04526 0.0
C430 C 0.91936 1.00949 0.96846 0.0
C431 C 0.90183 0.01795 0.94032 0.0
C432 C 0.9368 1.00867 0.91588 0.0
C433 C 0.93791 0.99206 0.07803 0.0
C434 C 0.95446 0.01847 0.93471 0.0
C435 C 0.97037 0.0185 0.88276 0.0
C436 C 0.9689 1.00881 0.81074 0.0
C437 C 0.95134 0.99878 0.79264 0.0
C438 C 0.93547 0.99878 0.84441 0.0
H439 H 0.9344 0.98276 0.12935 0.0
H440 H 0.94512 0.98273 0.03349 0.0
H441 H 0.9486 1.0035 0.09672 0.0
H442 H 0.95577 0.02652 0.98877 0.0
H443 H 0.98364 0.02646 0.89822 0.0
H444 H 0.49551 0.85533 0.30544 0.0
H445 H 0.49839 0.88317 0.21521 0.0
H446 H 0.53939 0.84996 0.07682 0.0
H447 H 0.53644 0.82205 0.16641 0.0
H448 H 0.53053 0.90553 0.17133 0.0
H449 H 0.49889 0.86714 0.9152 0.0
H450 H 0.49715 0.8573 0.01245 0.0
H451 H 0.51961 0.85478 0.95837 0.0
C452 C 0.50521 0.85401 0.25588 0.0
C453 C 0.51574 0.83645 0.24361 0.0
C454 C 0.50684 0.86993 0.20429 0.0
C455 C 0.5189 0.86867 0.13838 0.0
C456 C 0.52968 0.85123 0.1263 0.0
H457 H 0.54411 0.9478 0.75164 0.0
H458 H 0.54358 0.92112 0.8474 0.0
C459 C 0.52806 0.83526 0.17804 0.0
C460 C 0.52017 0.88563 0.08285 0.0
H461 H 0.51215 0.89893 0.89333 0.0
C462 C 0.52646 0.90409 0.11058 0.0
C463 C 0.51483 0.88386 0.00345 0.0
C464 C 0.50706 0.86477 0.97052 0.0
C465 C 0.52791 0.92061 0.06109 0.0
C466 C 0.52258 0.91883 0.98169 0.0
C467 C 0.51629 0.90037 0.95402 0.0
C468 C 0.52359 0.93577 0.92592 0.0
C469 C 0.5356 0.93973 0.09399 0.0
C470 C 0.51259 0.95309 0.9378 0.0
C471 C 0.51293 0.96848 0.88297 0.0
C472 C 0.52415 0.9668 0.81476 0.0
C473 C 0.53532 0.94959 0.80354 0.0
C474 C 0.53499 0.93427 0.85825 0.0
H475 H 0.54397 0.93735 0.14887 0.0
H476 H 0.54531 0.94735 0.05174 0.0
H477 H 0.523 0.94957 0.10699 0.0
H478 H 0.50334 0.95452 0.98858 0.0
H479 H 0.50404 0.98146 0.89307 0.0
H480 H 0.69002 0.54813 0.26079 0.0
H481 H 0.66211 0.54979 0.16928 0.0
H482 H 0.68471 0.49915 0.04795 0.0
H483 H 0.71255 0.49749 0.13923 0.0
H484 H 0.66033 0.55337 0.00473 0.0
H485 H 0.62797 0.48269 0.10442 0.0
H486 H 0.64673 0.49558 0.15895 0.0
H487 H 0.65334 0.48104 0.07585 0.0
C488 C 0.68906 0.53747 0.21416 0.0
C489 C 0.7033 0.52252 0.20777 0.0
C490 C 0.67311 0.5384 0.16198 0.0
C491 C 0.67102 0.52434 0.10257 0.0
C492 C 0.68571 0.5099 0.09425 0.0
H493 H 0.59737 0.52379 0.69012 0.0
H494 H 0.62379 0.52676 0.78643 0.0
C495 C 0.70168 0.50902 0.14616 0.0
C496 C 0.65343 0.52461 0.04991 0.0
H497 H 0.61391 0.497 0.99092 0.0
C498 C 0.65014 0.54108 1.00197 0.0
C499 C 0.63988 0.50873 0.04702 0.0
C500 C 0.64198 0.49107 0.09976 0.0
C501 C 0.6341 0.54182 0.94972 0.0
C502 C 0.621 0.5256 0.94458 0.0
C503 C 0.62396 0.5094 0.99425 0.0
C504 C 0.60461 0.52482 0.88624 0.0
C505 C 0.63123 0.56007 0.90078 0.0
C506 C 0.58491 0.52243 0.90973 0.0
C507 C 0.5697 0.52073 0.85439 0.0
C508 C 0.5739 0.5212 0.77447 0.0
C509 C 0.5936 0.52358 0.75124 0.0
C510 C 0.60874 0.52539 0.80634 0.0
H511 H 0.63876 0.57304 0.92669 0.0
H512 H 0.63758 0.55755 0.84232 0.0
H513 H 0.61534 0.56355 0.89351 0.0
H514 H 0.58133 0.5217 0.97096 0.0
H515 H 0.55479 0.51838 0.87415 0.0
H516 H 0.03138 0.71447 0.11469 0.0
H517 H 0.02926 0.68564 0.02919 0.0
H518 H 1.00004 0.65308 0.21081 0.0
H519 H 1.00169 0.68209 0.29543 0.0
H520 H 0.04608 0.65001 0.05131 0.0
H521 H 0.96521 0.63993 0.02788 0.0
H522 H 0.97616 0.66213 0.06627 0.0
H523 H 0.97416 0.64047 0.12615 0.0
C524 C 0.02419 0.70126 0.13572 0.0
C525 C 0.01673 0.70053 0.21174 0.0
C526 C 0.02306 0.68474 0.08701 0.0
C527 C 0.01432 0.66712 0.11295 0.0
C528 C 1.00649 0.66653 0.18849 0.0
H529 H 1.00876 0.54987 0.8861 0.0
H530 H 1.00688 0.57648 0.98351 0.0
C531 C 1.00754 0.68309 0.23709 0.0
C532 C 0.01452 0.64914 0.06254 0.0
H533 H 0.98512 0.61451 0.97522 0.0
C534 C 0.03271 0.6423 0.03475 0.0
C535 C 0.99713 0.63886 0.04111 0.0
C536 C 0.97704 0.64579 0.06625 0.0
C537 C 0.034 0.62569 0.98621 0.0
C538 C 0.01662 0.61562 0.96377 0.0
C539 C 0.99845 0.62214 0.99272 0.0
C540 C 0.01704 0.59935 0.90548 0.0
C541 C 0.05403 0.61901 0.95924 0.0
C542 C 0.02302 0.60337 0.82916 0.0
C543 C 0.02401 0.58833 0.77394 0.0
C544 C 0.01902 0.56881 0.79332 0.0
C545 C 1.01272 0.56474 0.86947 0.0
C546 C 1.01163 0.57993 0.92504 0.0
H547 H 0.06598 0.62475 0.99728 0.0
H548 H 0.05495 0.60268 0.95787 0.0
H549 H 0.05661 0.6246 0.89949 0.0
H550 H 0.02697 0.61823 0.81219 0.0
H551 H 0.02884 0.59204 0.71579 0.0
H552 H 0.98333 0.27063 0.33262 0.0
H553 H 0.97045 0.2556 0.45175 0.0
H554 H 0.01619 0.21147 0.44137 0.0
H555 H 0.02958 0.22701 0.3266 0.0
H556 H 0.95379 0.22288 0.45643 0.0
H557 H 1.01277 0.21437 0.66722 0.0
H558 H 0.01471 0.2323 0.58983 0.0
H559 H 0.02403 0.2075 0.57766 0.0
C560 C 0.99106 0.2582 0.35792 0.0
C561 C 1.00726 0.24975 0.31975 0.0
C562 C 0.98365 0.24959 0.42588 0.0
C563 C 0.99239 0.23247 0.4566 0.0
C564 C 1.00942 0.22497 0.42106 0.0
H565 H 0.95979 0.12573 0.43427 0.0
H566 H 0.95677 0.16122 0.44606 0.0
C567 C 0.01688 0.23364 0.35408 0.0
C568 C 0.98198 0.21994 0.51423 0.0
H569 H 0.99447 0.18221 0.6345 0.0
C570 C 0.96244 0.21446 0.49791 0.0
C571 C 0.99245 0.20952 0.57247 0.0
C572 C 1.01206 0.21651 0.60322 0.0
C573 C 0.95467 0.19678 0.52691 0.0
C574 C 0.96713 0.18399 0.56964 0.0
C575 C 0.98512 0.19136 0.59817 0.0
C576 C 0.96421 0.16225 0.56903 0.0
C577 C 0.93372 0.19143 0.5067 0.0
C578 C 0.96947 0.15068 0.63377 0.0
C579 C 0.97196 0.13033 0.62585 0.0
C580 C 0.9688 0.12122 0.55359 0.0
C581 C 0.96202 0.13245 0.49072 0.0
C582 C 0.96003 0.1528 0.498 0.0
H583 H 0.92401 0.20445 0.51441 0.0
H584 H 0.9328 0.18719 0.44451 0.0
H585 H 0.9281 0.17917 0.54324 0.0
H586 H 0.97284 0.15749 0.68913 0.0
H587 H 0.97724 0.12184 0.67513 0.0
H588 H 0.26351 0.98436 0.33648 0.0
H589 H 0.27931 0.97359 0.45737 0.0
H590 H 0.32595 0.0158 0.41989 0.0
H591 H 0.30961 0.02741 0.30327 0.0
H592 H 0.31061 0.95491 0.46132 0.0
H593 H 0.32647 0.01767 0.64636 0.0
H594 H 0.30787 0.01934 0.57118 0.0
H595 H 0.3332 0.02603 0.55164 0.0
C596 C 0.27669 0.9919 0.35599 0.0
C597 C 0.28553 1.0065 0.30959 0.0
C598 C 0.28575 0.98567 0.42506 0.0
C599 C 0.30381 0.99391 0.4487 0.0
C600 C 0.31179 1.00948 0.40499 0.0
H601 H 0.408 0.95143 0.43214 0.0
H602 H 0.37255 0.95316 0.44421 0.0
C603 C 0.30264 0.01586 0.33691 0.0
C604 C 0.31648 0.98395 0.50755 0.0
H605 H 0.35631 0.99563 0.61876 0.0
C606 C 0.32012 0.9637 0.49831 0.0
C607 C 0.32839 0.99479 0.55989 0.0
C608 C 0.32351 0.01561 0.58333 0.0
C609 C 0.33728 0.95507 0.52846 0.0
C610 C 0.35142 0.9672 0.56544 0.0
C611 C 0.34601 0.98642 0.58694 0.0
C612 C 0.37269 0.9621 0.56531 0.0
C613 C 0.34069 0.93339 0.51528 0.0
C614 C 0.38488 0.96656 0.62907 0.0
C615 C 0.40538 0.96621 0.62124 0.0
C616 C 0.41405 0.96146 0.54941 0.0
C617 C 0.40183 0.95554 0.48774 0.0
C618 C 0.38143 0.95611 0.49527 0.0
H619 H 0.32687 0.92504 0.5255 0.0
H620 H 0.3449 0.93091 0.45378 0.0
H621 H 0.3524 0.92743 0.55399 0.0
H622 H 0.37856 0.97136 0.68357 0.0
H623 H 0.41433 0.97087 0.67005 0.0
H624 H 0.46608 0.29267 0.23252 0.0
H625 H 0.4655 0.31225 0.35031 0.0
H626 H 0.51055 0.27531 0.45144 0.0
H627 H 0.51263 0.25683 0.33022 0.0
H628 H 0.46457 0.31503 0.50537 0.0
H629 H 0.54242 0.323 0.40466 0.0
H630 H 0.52507 0.30837 0.35084 0.0
H631 H 0.53496 0.2995 0.44179 0.0
C632 C 0.47563 0.28845 0.28032 0.0
C633 C 0.49024 0.27403 0.27031 0.0
C634 C 0.47508 0.29949 0.34836 0.0
C635 C 0.4888 0.29592 0.40798 0.0
C636 C 0.5005 0.27889 0.40447 0.0
H637 H 0.53409 0.40871 0.55645 0.0
H638 H 0.52695 0.37405 0.58194 0.0
C639 C 0.50152 0.26818 0.33519 0.0
C640 C 0.494 0.31256 0.45986 0.0
H641 H 0.52862 0.34885 0.46991 0.0
C642 C 0.47879 0.32218 0.49988 0.0
C643 C 0.51266 0.32188 0.45355 0.0
C644 C 0.52972 0.31278 0.41027 0.0
C645 C 0.48101 0.34169 0.5255 0.0
C646 C 0.49887 0.35167 0.51071 0.0
C647 C 0.51484 0.3412 0.48033 0.0
C648 C 0.50048 0.37341 0.51144 0.0
C649 C 0.46381 0.35175 0.56371 0.0
C650 C 0.48782 0.38467 0.4642 0.0
C651 C 0.49193 0.40447 0.44923 0.0
C652 C 0.50893 0.41326 0.48036 0.0
C653 C 0.5211 0.4022 0.53031 0.0
C654 C 0.51691 0.38247 0.54577 0.0
H655 H 0.45562 0.34122 0.60107 0.0
H656 H 0.46857 0.36449 0.59951 0.0
H657 H 0.45347 0.35708 0.51814 0.0
H658 H 0.47542 0.37787 0.4349 0.0
H659 H 0.48234 0.41262 0.41029 0.0
H660 H 0.27787 0.52783 0.34735 0.0
H661 H 0.26031 0.53652 0.4661 0.0
H662 H 0.22575 0.57887 0.33747 0.0
H663 H 0.24414 0.57133 0.2203 0.0
H664 H 0.22616 0.5871 0.49542 0.0
H665 H 0.20869 0.50784 0.43947 0.0
H666 H 0.23339 0.51396 0.4676 0.0
H667 H 0.22407 0.52163 0.37423 0.0
C668 C 0.26727 0.53974 0.34521 0.0
C669 C 0.26171 0.54831 0.27385 0.0
C670 C 0.25715 0.5446 0.41317 0.0
C671 C 0.2411 0.55761 0.40958 0.0
C672 C 0.23783 0.56848 0.34131 0.0
H673 H 0.12553 0.57756 0.43941 0.0
H674 H 0.16104 0.58203 0.45411 0.0
C675 C 0.24819 0.56397 0.27397 0.0
C676 C 0.22477 0.55627 0.46608 0.0
H677 H 0.18557 0.52642 0.50257 0.0
C678 C 0.21751 0.57369 0.49935 0.0
C679 C 0.21355 0.53871 0.47185 0.0
C680 C 0.22018 0.51947 0.43629 0.0
C681 C 0.19853 0.57443 0.5314 0.0
C682 C 0.18653 0.55741 0.52882 0.0
C683 C 0.1947 0.53953 0.50399 0.0
C684 C 0.16481 0.55816 0.5369 0.0
C685 C 0.19123 0.59365 0.56416 0.0
C686 C 0.15499 0.54333 0.57854 0.0
C687 C 0.13486 0.54029 0.56751 0.0
C688 C 0.1241 0.55233 0.51625 0.0
C689 C 0.13354 0.56815 0.47944 0.0
C690 C 0.1538 0.57089 0.4889 0.0
H691 H 0.20342 0.60172 0.59336 0.0
H692 H 0.18577 0.6031 0.51595 0.0
H693 H 0.17912 0.59137 0.60643 0.0
H694 H 0.16315 0.53326 0.61546 0.0
H695 H 0.12781 0.52804 0.59671 0.0
H696 H 0.99988 0.80743 0.06589 0.0
H697 H 1.01233 0.82278 0.94886 0.0
H698 H 0.05284 0.77443 0.91706 0.0
H699 H 0.04082 0.75938 0.03767 0.0
H700 H 0.0727 0.80555 0.9189 0.0
H701 H 1.01276 0.82339 0.72137 0.0
H702 H 1.00329 0.82967 0.81482 0.0
H703 H 1.00989 0.80437 0.79421 0.0
C704 C 1.01107 0.79979 0.0328 0.0
C705 C 0.01968 0.78246 0.06155 0.0
C706 C 0.01798 0.8084 0.96473 0.0
C707 C 0.03347 0.79973 0.923 0.0
C708 C 0.04083 0.78138 0.94784 0.0
H709 H 0.06022 0.91126 0.72332 0.0
H710 H 0.05997 0.8757 0.70394 0.0
C711 C 0.03394 0.77277 0.01666 0.0
C712 C 0.04445 0.81211 0.86649 0.0
H713 H 0.03475 0.85285 0.75769 0.0
C714 C 0.06457 0.81542 0.88094 0.0
C715 C 0.03451 0.82448 0.81296 0.0
C716 C 0.01397 0.82003 0.78445 0.0
C717 C 0.07373 0.83277 0.85554 0.0
C718 C 0.06225 0.84732 0.81778 0.0
C719 C 0.0434 0.84223 0.79035 0.0
C720 C 0.06735 0.86857 0.82309 0.0
C721 C 0.09518 0.83593 0.87487 0.0
C722 C 0.07223 0.87656 0.89605 0.0
C723 C 0.07278 0.89688 0.90706 0.0
C724 C 0.06797 0.90974 0.84589 0.0
C725 C 0.06418 0.90181 0.77171 0.0
C726 C 0.06391 0.88142 0.76048 0.0
H727 H 0.1036 0.82216 0.86473 0.0
H728 H 0.10175 0.84795 0.83959 0.0
H729 H 0.09673 0.83956 0.93748 0.0
H730 H 0.07433 0.86715 0.94626 0.0
H731 H 0.07605 0.90249 0.96459 0.0
H732 H 0.77323 0.04034 0.0425 0.0
H733 H 0.75802 0.05149 0.9206 0.0
H734 H 0.70581 0.01792 0.97503 0.0
H735 H 0.72141 1.0056 0.09225 0.0
H736 H 0.71143 0.0185 0.82299 0.0
H737 H 0.7197 0.0954 0.93302 0.0
H738 H 0.74135 0.08148 0.9097 0.0
H739 H 0.72682 0.07481 0.99292 0.0
C740 C 0.75872 0.03493 0.02717 0.0
C741 C 0.74826 0.02256 0.07827 0.0
C742 C 0.74996 0.04151 0.95787 0.0
C743 C 0.7305 0.0361 0.93968 0.0
C744 C 0.72078 0.02249 0.98772 0.0
H745 H 0.62805 0.07611 0.94728 0.0
H746 H 0.6634 0.07336 0.93346 0.0
C747 C 0.7296 0.01567 0.05567 0.0
C748 C 0.71882 0.04599 0.87767 0.0
H749 H 0.69269 0.0885 0.8553 0.0
C750 C 0.7076 0.03397 0.82803 0.0
C751 C 0.71436 0.06634 0.88204 0.0
C752 C 0.72611 0.08034 0.93219 0.0
C753 C 0.68986 0.04072 0.79536 0.0
C754 C 0.68382 0.06035 0.81017 0.0
C755 C 0.69711 0.07332 0.84627 0.0
C756 C 0.66263 0.0658 0.81096 0.0
C757 C 0.67677 0.02607 0.75398 0.0
C758 C 0.65027 0.06343 0.74601 0.0
C759 C 0.62979 0.0643 0.75471 0.0
C760 C 0.62141 0.06797 0.82815 0.0
C761 C 0.63394 0.07251 0.89065 0.0
C762 C 0.65426 0.07124 0.88236 0.0
H763 H 0.6832 1.01103 0.75334 0.0
H764 H 0.66215 0.02524 0.78249 0.0
H765 H 0.67454 0.03081 0.69284 0.0
H766 H 0.65633 0.05989 0.68968 0.0
H767 H 0.6206 0.06093 0.70491 0.0
H768 H 0.48045 0.73885 0.11835 0.0
H769 H 0.48091 0.72063 0.99654 0.0
H770 H 0.53376 0.75124 0.92803 0.0
H771 H 0.53372 0.76916 0.05156 0.0
H772 H 0.4859 0.72441 0.8286 0.0
H773 H 0.55241 0.69535 0.9835 0.0
H774 H 0.53591 0.71202 0.03188 0.0
H775 H 0.55157 0.72084 0.95536 0.0
C776 C 0.49184 0.74212 0.07634 0.0
C777 C 0.50739 0.7549 0.09527 0.0
C778 C 0.49197 0.73189 0.00628 0.0
C779 C 0.50764 0.73427 0.95419 0.0
C780 C 0.5217 0.74902 0.96809 0.0
H781 H 0.52869 0.61486 0.82307 0.0
H782 H 0.53363 0.64984 0.79447 0.0
C783 C 0.52163 0.75925 0.03863 0.0
C784 C 0.51147 0.71808 0.89899 0.0
H785 H 0.5354 0.6741 0.90324 0.0
C786 C 0.49714 0.71361 0.8426 0.0
C787 C 0.52644 0.70417 0.91583 0.0
C788 C 0.54249 0.70819 0.97489 0.0
C789 C 0.49605 0.69472 0.80974 0.0
C790 C 0.50913 0.67994 0.83631 0.0
C791 C 0.52507 0.68529 0.88394 0.0
C792 C 0.50443 0.65865 0.83078 0.0
C793 C 0.48026 0.69048 0.75026 0.0
C794 C 0.48617 0.65181 0.85828 0.0
C795 C 0.4833 0.63183 0.874 0.0
C796 C 0.4988 0.61846 0.86428 0.0
C797 C 0.51667 0.62506 0.83269 0.0
C798 C 0.51941 0.64496 0.8154 0.0
H799 H 0.47829 0.70333 0.71088 0.0
H800 H 0.48384 0.67731 0.71481 0.0
H801 H 0.46603 0.688 0.78023 0.0
H802 H 0.47456 0.66205 0.87314 0.0
H803 H 0.46938 0.62703 0.89815 0.0
H804 H 0.81134 0.53928 0.08838 0.0
H805 H 0.82877 0.52632 0.97722 0.0
H806 H 0.78199 0.48432 0.93756 0.0
H807 H 0.76477 0.49694 0.05223 0.0
H808 H 0.81364 0.46547 0.95571 0.0
H809 H 0.8336 0.52315 0.75056 0.0
H810 H 0.83789 0.53381 0.84398 0.0
H811 H 0.81321 0.5264 0.81662 0.0
C812 C 0.80448 0.52769 0.05453 0.0
C813 C 0.78697 0.51882 0.07966 0.0
C814 C 0.8143 0.52046 0.98979 0.0
C815 C 0.80669 0.50437 0.94801 0.0
C816 C 0.78813 0.49679 0.96851 0.0
H817 H 0.92067 0.47244 0.7716 0.0
H818 H 0.88504 0.47374 0.74989 0.0
C819 C 0.7783 0.50401 0.03394 0.0
C820 C 0.82032 0.49298 0.89796 0.0
H821 H 0.86248 0.50192 0.79765 0.0
C822 C 0.82386 0.47322 0.91826 0.0
C823 C 0.83336 0.50247 0.84598 0.0
C824 C 0.82907 0.52257 0.81252 0.0
C825 C 0.84173 0.46411 0.89974 0.0
C826 C 0.85648 0.47525 0.8621 0.0
C827 C 0.85152 0.4936 0.82963 0.0
C828 C 0.87762 0.47035 0.8714 0.0
C829 C 0.84523 0.44323 0.9264 0.0
C830 C 0.88531 0.46776 0.94677 0.0
C831 C 0.90558 0.46692 0.95928 0.0
C832 C 0.91861 0.46885 0.89677 0.0
C833 C 0.91095 0.47058 0.82085 0.0
C834 C 0.8906 0.4714 0.80831 0.0
H835 H 0.83159 0.43434 0.91959 0.0
H836 H 0.85729 0.43608 0.89339 0.0
H837 H 0.84911 0.44321 0.98915 0.0
H838 H 0.87569 0.46757 0.99681 0.0
H839 H 0.91107 0.46557 0.01827 0.0
H840 H 0.04793 0.21749 0.11485 0.0
H841 H 0.04847 0.18702 0.03926 0.0
H842 H 1.00072 0.20869 0.89694 0.0
H843 H 1.00018 0.23938 0.97321 0.0
H844 H 0.99363 0.17112 0.95853 0.0
H845 H 0.06707 0.17298 0.82063 0.0
H846 H 0.06807 0.17768 0.92322 0.0
H847 H 0.05549 0.19472 0.86002 0.0
C848 C 0.03796 0.21601 0.06587 0.0
C849 C 0.0242 0.23096 0.04931 0.0
C850 C 0.03826 0.19855 0.02261 0.0
C851 C 0.02475 0.1955 0.96173 0.0
C852 C 1.01139 0.21069 0.94325 0.0
H853 H 0.02714 0.08807 0.67496 0.0
H854 H 0.02666 0.12244 0.71801 0.0
C855 C 1.01121 0.22832 0.98628 0.0
C856 C 0.02361 0.17582 0.92265 0.0
H857 H 0.05136 0.14137 0.82775 0.0
C858 C 1.0062 0.16473 0.92918 0.0
C859 C 0.03989 0.16742 0.88352 0.0
C860 C 0.05863 0.17888 0.87063 0.0
C861 C 1.00491 0.1453 0.90064 0.0
C862 C 0.02155 0.13652 0.8654 0.0
C863 C 0.03868 0.1479 0.85584 0.0
C864 C 0.02154 0.11552 0.83901 0.0
C865 C 0.98571 0.13431 0.90833 0.0
C866 C 0.01904 0.10002 0.89253 0.0
C867 C 0.01921 0.0803 0.86784 0.0
C868 C 0.02184 0.07559 0.78892 0.0
C869 C 0.02463 0.09113 0.73573 0.0
C870 C 0.02452 0.11083 0.76044 0.0
H871 H 0.97316 0.14448 0.91822 0.0
H872 H 0.98263 0.12543 0.85547 0.0
H873 H 0.98666 0.1241 0.95869 0.0
H874 H 0.01707 0.10318 0.95369 0.0
H875 H 0.01709 0.06876 0.91055 0.0
H876 H 0.30792 0.04654 0.04847 0.0
H877 H 0.33839 0.04618 0.97216 0.0
H878 H 0.33023 0.98424 0.92708 0.0
H879 H 0.29972 0.98467 0.00351 0.0
H880 H 0.36678 0.99269 0.98927 0.0
H881 H 0.35181 0.04222 0.74003 0.0
H882 H 0.34559 0.05296 0.83208 0.0
H883 H 0.33244 0.0316 0.7983 0.0
C884 C 0.31226 0.03306 0.01964 0.0
C885 C 0.30122 0.01575 0.03015 0.0
C886 C 0.32972 0.03283 0.97618 0.0
C887 C 0.33661 0.01522 0.94289 0.0
C888 C 0.3252 0.99804 0.95143 0.0
H889 H 0.44456 1.00788 0.66067 0.0
H890 H 0.41026 1.00692 0.70455 0.0
C891 C 0.30767 0.99832 0.99446 0.0
C892 C 0.35661 0.01433 0.90674 0.0
H893 H 0.38575 0.03515 0.76688 0.0
C894 C 0.37085 1.00187 0.94021 0.0
C895 C 0.36197 0.02604 0.84194 0.0
C896 C 0.34711 0.03883 0.80038 0.0
C897 C 0.39035 1.00133 0.91272 0.0
C898 C 0.39602 0.01388 0.85078 0.0
C899 C 0.38159 0.02576 0.81517 0.0
C900 C 0.41689 0.01504 0.8233 0.0
C901 C 0.40468 0.98717 0.95015 0.0
C902 C 0.43212 0.02043 0.8747 0.0
C903 C 0.45175 0.02113 0.84973 0.0
C904 C 0.4567 0.01653 0.77248 0.0
C905 C 0.44138 1.01147 0.72063 0.0
C906 C 0.42171 1.01089 0.74565 0.0
H907 H 0.39693 0.97481 0.97938 0.0
H908 H 0.415 0.98098 0.90667 0.0
H909 H 0.41342 0.9951 0.99488 0.0
H910 H 0.42882 0.02417 0.93441 0.0
H911 H 0.46306 0.0252 0.89127 0.0
H912 H 0.53775 0.2921 0.9792 0.0
H913 H 0.54145 0.32389 0.91169 0.0
H914 H 0.47998 0.33633 0.94953 0.0
H915 H 0.47617 0.30457 0.01483 0.0
H916 H 0.4912 0.34941 0.80836 0.0
H917 H 0.5446 0.37521 0.03128 0.0
H918 H 0.55208 0.35345 0.98014 0.0
H919 H 0.53082 0.35266 0.04202 0.0
C920 C 0.52493 0.30139 0.97107 0.0
C921 C 0.50668 0.2958 1.00271 0.0
C922 C 0.52711 0.31974 0.93357 0.0
C923 C 0.51111 0.33289 0.92716 0.0
C924 C 0.49263 0.32666 0.95408 0.0
H925 H 0.51028 0.46087 0.88618 0.0
H926 H 0.50876 0.42639 0.92787 0.0
C927 C 0.49045 0.30843 0.99138 0.0
C928 C 0.51352 0.35346 0.89612 0.0
H929 H 0.53714 0.39731 0.92935 0.0
C930 C 0.50136 0.35982 0.83457 0.0
C931 C 0.52646 0.36731 0.93106 0.0
C932 C 0.53912 0.36195 1.00023 0.0
C933 C 0.50174 0.37945 0.80736 0.0
C934 C 0.51494 0.39318 0.84129 0.0
C935 C 0.52712 0.38683 0.90272 0.0
C936 C 0.51599 0.41428 0.81533 0.0
C937 C 0.4874 0.38547 0.74444 0.0
C938 C 0.52079 0.41918 0.7383 0.0
C939 C 0.52164 0.43894 0.71403 0.0
C940 C 0.51783 0.45442 0.76646 0.0
C941 C 0.51325 0.44947 0.8439 0.0
C942 C 0.51241 0.42968 0.86801 0.0
H943 H 0.4749 0.37498 0.73973 0.0
H944 H 0.48143 0.40043 0.75539 0.0
H945 H 0.49511 0.38573 0.68781 0.0
H946 H 0.52406 0.40765 0.69702 0.0
H947 H 0.5253 0.44205 0.65402 0.0
H948 H 0.23292 0.552 0.00802 0.0
H949 H 0.20059 0.54838 0.94637 0.0
H950 H 0.20497 0.48527 0.968 0.0
H951 H 0.23759 0.48888 0.03005 0.0
H952 H 0.18684 0.49968 0.82188 0.0
H953 H 0.15307 0.53233 0.08494 0.0
H954 H 0.17236 0.54691 0.0427 0.0
H955 H 0.17804 0.52321 0.08379 0.0
C956 C 0.22723 0.53731 0.9979 0.0
C957 C 0.23785 0.52072 0.02396 0.0
C958 C 0.20865 0.53526 0.96322 0.0
C959 C 0.20008 0.51658 0.95394 0.0
C960 C 0.21119 0.49986 0.97491 0.0
H961 H 0.07263 0.49896 0.89343 0.0
H962 H 0.10679 0.49812 0.93993 0.0
C963 C 0.22991 0.50191 0.00978 0.0
C964 C 0.17914 0.51484 0.92711 0.0
H965 H 0.13208 0.528 0.97566 0.0
C966 C 0.17486 0.50578 0.85565 0.0
C967 C 0.16338 0.52254 0.9715 0.0
C968 C 0.16683 0.53165 0.05035 0.0
C969 C 0.15539 0.50473 0.82655 0.0
C970 C 0.13972 0.51315 0.86961 0.0
C971 C 0.14399 0.52169 0.94209 0.0
C972 C 0.11886 0.51341 0.84045 0.0
C973 C 0.15176 0.49436 0.75035 0.0
C974 C 0.11401 0.52259 0.76964 0.0
C975 C 0.09448 0.52297 0.74246 0.0
C976 C 0.07913 0.51447 0.78617 0.0
C977 C 0.08396 0.50563 0.85795 0.0
C978 C 0.10356 0.50512 0.8847 0.0
H979 H 0.16398 0.48416 0.73578 0.0
H980 H 0.13778 0.48588 0.7518 0.0
H981 H 0.15064 0.50546 0.70315 0.0
H982 H 0.12536 0.52973 0.73579 0.0
H983 H 0.09143 0.53011 0.68734 0.0
H984 H 0.04305 0.81254 0.29718 0.0
H985 H 0.04284 0.84233 0.37602 0.0
H986 H 0.9876 0.82465 0.47739 0.0
H987 H 0.98752 0.7948 0.39614 0.0
H988 H 0.98592 0.86221 0.42837 0.0
H989 H 0.05396 0.85341 0.60033 0.0
H990 H 0.05911 0.85095 0.49882 0.0
H991 H 0.04322 0.83339 0.54627 0.0
C992 C 0.031 0.81478 0.33728 0.0
C993 C 0.01528 0.80125 0.3402 0.0
C994 C 0.03097 0.83182 0.38294 0.0
C995 C 0.01533 0.8358 0.43372 0.0
C996 C 0.99991 0.82195 0.43906 0.0
H997 H 0.023 0.94235 0.72698 0.0
H998 H 0.02125 0.90809 0.68294 0.0
C999 C 0.99995 0.80478 0.39314 0.0
C1000 C 0.01448 0.85516 0.47553 0.0
H1001 H 0.04224 0.88706 0.58428 0.0
C1002 C 0.99813 0.8675 0.46343 0.0
C1003 C 0.03019 0.86212 0.52264 0.0
C1004 C 0.04749 0.84917 0.54346 0.0
C1005 C 0.99747 0.88678 0.49372 0.0
C1006 C 0.01386 0.89429 0.5357 0.0
C1007 C 0.02979 0.8816 0.55108 0.0
C1008 C 0.01488 0.91529 0.5628 0.0
C1009 C 0.97907 0.89882 0.48062 0.0
C1010 C 1.01227 0.93098 0.51013 0.0
C1011 C 0.01307 0.95063 0.53532 0.0
C1012 C 0.0168 0.95519 0.6138 0.0
C1013 C 0.01992 0.93948 0.66621 0.0
C1014 C 0.01897 0.91981 0.64101 0.0
H1015 H 0.96598 0.88922 0.47211 0.0
H1016 H 0.9762 0.90884 0.53022 0.0
H1017 H 0.98083 0.90783 0.42721 0.0
H1018 H 1.00974 0.92806 0.44905 0.0
H1019 H 1.01085 0.96226 0.49299 0.0
H1020 H 0.73549 0.04429 0.38118 0.0
H1021 H 0.70507 0.04501 0.45793 0.0
H1022 H 0.69741 0.9827 0.41934 0.0
H1023 H 0.72803 0.98199 0.34442 0.0
H1024 H 0.66946 0.03746 0.40018 0.0
H1025 H 0.682 0.98567 0.64448 0.0
H1026 H 0.70195 0.99619 0.58898 0.0
H1027 H 0.68834 0.97543 0.55197 0.0
C1028 C 0.72773 0.03062 0.39219 0.0
C1029 C 0.7344 1.01298 0.35886 0.0
C1030 C 0.71023 0.03105 0.43531 0.0
C1031 C 0.69892 0.01386 0.44567 0.0
C1032 C 0.70602 0.99607 0.41456 0.0
H1033 H 0.57206 1.00639 0.48939 0.0
H1034 H 0.6065 1.00687 0.44833 0.0
C1035 C 0.72357 0.99564 0.37174 0.0
C1036 C 0.67877 0.01496 0.48076 0.0
H1037 H 0.64848 0.99396 0.61647 0.0
C1038 C 0.66499 0.02805 0.44799 0.0
C1039 C 0.67281 1.0029 0.54381 0.0
C1040 C 0.68709 0.9894 0.58497 0.0
C1041 C 0.64541 0.02895 0.47444 0.0
C1042 C 0.63916 0.01612 0.53453 0.0
C1043 C 0.6531 1.00356 0.56948 0.0
C1044 C 0.61817 0.01537 0.56063 0.0
C1045 C 0.6316 0.04375 0.4379 0.0
C1046 C 0.61314 0.01944 0.63812 0.0
C1047 C 0.59337 0.01919 0.66189 0.0
C1048 C 0.57815 0.01456 0.60892 0.0
C1049 C 0.5833 1.01011 0.53176 0.0
C1050 C 0.60304 1.01048 0.50802 0.0
H1051 H 0.63978 0.05602 0.40985 0.0
H1052 H 0.62266 0.03635 0.3924 0.0
H1053 H 0.62143 0.05003 0.48173 0.0
H1054 H 0.62452 0.02309 0.68005 0.0
H1055 H 0.59004 0.02268 0.72182 0.0
H1056 H 0.48335 0.72721 0.34996 0.0
H1057 H 0.48443 0.69591 0.42051 0.0
H1058 H 0.5459 0.70542 0.47232 0.0
H1059 H 0.54463 0.73712 0.40322 0.0
H1060 H 0.50494 0.6652 0.37741 0.0
H1061 H 0.52798 0.68341 0.67787 0.0
H1062 H 0.51859 0.70173 0.61114 0.0
H1063 H 0.54384 0.69385 0.60554 0.0
C1064 C 0.49693 0.72293 0.37869 0.0
C1065 C 0.51385 0.73477 0.37168 0.0
C1066 C 0.49759 0.70493 0.41864 0.0
C1067 C 0.51522 0.69812 0.45244 0.0
C1068 C 0.53197 0.71037 0.44858 0.0
H1069 H 0.53879 0.57176 0.5082 0.0
H1070 H 0.53767 0.60616 0.46542 0.0
C1071 C 0.53125 0.72856 0.40903 0.0
C1072 C 0.51641 0.67746 0.48374 0.0
H1073 H 0.53005 0.64964 0.64138 0.0
C1074 C 0.51035 0.66188 0.43539 0.0
C1075 C 0.52316 0.67291 0.55981 0.0
C1076 C 0.52857 0.68885 0.61698 0.0
C1077 C 0.51106 0.64209 0.46008 0.0
C1078 C 0.51874 0.63742 0.53468 0.0
C1079 C 0.52446 0.65302 0.58376 0.0
C1080 C 0.52055 0.61653 0.56311 0.0
C1081 C 0.50298 0.62647 0.4063 0.0
C1082 C 0.51216 0.61079 0.63426 0.0
C1083 C 0.51328 0.59116 0.65997 0.0
C1084 C 0.52261 0.57664 0.6147 0.0
C1085 C 0.53129 0.58244 0.54416 0.0
C1086 C 0.53051 0.60216 0.51929 0.0
H1087 H 0.49215 0.63274 0.36445 0.0
H1088 H 0.51523 0.62008 0.37211 0.0
H1089 H 0.4957 0.61443 0.43921 0.0
H1090 H 0.50434 0.62145 0.66929 0.0
H1091 H 0.50636 0.58727 0.71446 0.0
H1092 H 0.80449 0.55668 0.37317 0.0
H1093 H 0.8356 0.55541 0.44696 0.0
H1094 H 0.83525 0.49201 0.43204 0.0
H1095 H 0.80447 0.49334 0.3571 0.0
H1096 H 0.85016 0.53713 0.58343 0.0
H1097 H 0.88607 0.50674 0.32067 0.0
H1098 H 0.86147 0.51676 0.31868 0.0
H1099 H 0.86576 0.49227 0.35511 0.0
C1100 C 0.81073 0.54247 0.3881 0.0
C1101 C 0.80194 0.52509 0.36033 0.0
C1102 C 0.82861 0.54174 0.42973 0.0
C1103 C 0.83808 0.52363 0.44383 0.0
C1104 C 0.82852 0.5062 0.42076 0.0
H1105 H 0.94586 0.50715 0.72608 0.0
H1106 H 0.91172 0.50798 0.68019 0.0
C1107 C 0.81077 0.50694 0.37885 0.0
C1108 C 0.85855 0.52301 0.47678 0.0
H1109 H 0.90559 0.50866 0.43425 0.0
C1110 C 0.8623 0.53092 0.55084 0.0
C1111 C 0.87453 0.51517 0.43403 0.0
C1112 C 0.87187 0.50742 0.35245 0.0
C1113 C 0.88145 0.53107 0.58338 0.0
C1114 C 0.89738 0.52279 0.54123 0.0
C1115 C 0.89354 0.51496 0.46707 0.0
C1116 C 0.91823 0.52255 0.57111 0.0
C1117 C 0.88442 0.54059 0.66172 0.0
C1118 C 0.93364 0.52982 0.5246 0.0
C1119 C 0.9533 0.52896 0.55006 0.0
C1120 C 0.95813 0.52095 0.62317 0.0
C1121 C 0.94272 0.51372 0.66993 0.0
C1122 C 0.92307 0.51431 0.64389 0.0
H1123 H 0.87247 0.55125 0.67487 0.0
H1124 H 0.88418 0.52904 0.70746 0.0
H1125 H 0.89875 0.54843 0.66492 0.0
H1126 H 0.93047 0.53618 0.46812 0.0
H1127 H 0.96471 0.53465 0.5124 0.0
loop_
_geom_bond_atom_site_label_1
_geom_bond_atom_site_label_2
_geom_bond_distance
_geom_bond_site_symmetry_2
_ccdc_geom_bond_type
H0 C7 0.929 . S
H1 C10 0.930 . S
H2 C12 0.929 . S
H3 C4 0.969 . S
C4 H3 0.969 . S
C4 O5 1.550 . S
C4 H6 0.973 . S
O5 C4 1.550 . S
O5 C11 1.412 . S
H6 C4 0.973 . S
C7 H0 0.929 . S
C7 C8 1.400 . S
C7 C9 1.364 . S
C8 C7 1.400 . S
C8 C12 1.377 . S
C9 C7 1.364 . S
C9 C10 1.374 . S
C10 H1 0.930 . S
C10 C9 1.374 . S
C10 C11 1.383 . S
C11 O5 1.412 . S
C11 C10 1.383 . S
C11 C12 1.394 . S
C12 H2 0.929 . S
C12 C8 1.377 . S
C12 C11 1.394 . S
H13 C20 0.929 . S
H14 C23 0.930 . S
H15 C25 0.929 . S
H16 C17 1.022 . S
C17 H16 1.022 . S
C17 O18 1.532 1_455 S
C17 H19 0.951 1_455 S
O18 C17 1.532 1_655 S
O18 C24 1.412 . S
H19 C17 0.951 1_655 S
C20 H13 0.929 . S
C20 C21 1.400 . S
C20 C22 1.364 . S
C21 C20 1.400 . S
C21 C25 1.377 . S
C22 C20 1.364 . S
C22 C23 1.374 . S
C23 H14 0.930 . S
C23 C22 1.374 . S
C23 C24 1.383 . S
C24 O18 1.412 . S
C24 C23 1.383 . S
C24 C25 1.394 . S
C25 H15 0.929 . S
C25 C21 1.377 . S
C25 C24 1.394 . S
H26 C33 0.929 . S
H27 C36 0.930 . S
H28 C38 0.929 . S
H29 C30 0.964 1_545 S
C30 H29 0.964 1_565 S
C30 O31 1.552 . S
C30 H32 0.975 . S
O31 C30 1.552 . S
O31 C37 1.412 . S
H32 C30 0.975 . S
C33 H26 0.929 . S
C33 C34 1.400 . S
C33 C35 1.364 . S
C34 C33 1.400 . S
C34 C38 1.377 . S
C35 C33 1.364 . S
C35 C36 1.374 . S
C36 H27 0.930 . S
C36 C35 1.374 . S
C36 C37 1.383 . S
C37 O31 1.412 . S
C37 C36 1.383 . S
C37 C38 1.394 . S
C38 H28 0.929 . S
C38 C34 1.377 . S
C38 C37 1.394 . S
H39 C46 0.929 . S
H40 C49 0.930 . S
H41 C51 0.929 . S
H42 C43 0.969 . S
C43 H42 0.969 . S
C43 O44 1.550 . S
C43 H45 0.973 . S
O44 C43 1.550 . S
O44 C50 1.412 . S
H45 C43 0.973 . S
C46 H39 0.929 . S
C46 C47 1.400 . S
C46 C48 1.364 . S
C47 C46 1.400 . S
C47 C51 1.377 . S
C48 C46 1.364 . S
C48 C49 1.374 . S
C49 H40 0.930 . S
C49 C48 1.374 . S
C49 C50 1.383 . S
C50 O44 1.412 . S
C50 C49 1.383 . S
C50 C51 1.394 . S
C51 H41 0.929 . S
C51 C47 1.377 . S
C51 C50 1.394 . S
H52 C59 0.928 1_556 S
H53 C62 0.930 . S
H54 C64 0.929 . S
H55 C56 0.969 . S
C56 H55 0.969 . S
C56 O57 1.550 . S
C56 H58 0.973 . S
O57 C56 1.550 . S
O57 C63 1.412 . S
H58 C56 0.973 . S
C59 H52 0.928 1_554 S
C59 C60 1.400 1_554 S
C59 C61 1.364 . S
C60 C59 1.400 1_556 S
C60 C64 1.377 . S
C61 C59 1.364 . S
C61 C62 1.374 . S
C62 H53 0.930 . S
C62 C61 1.374 . S
C62 C63 1.383 . S
C63 O57 1.412 . S
C63 C62 1.383 . S
C63 C64 1.394 1_554 S
C64 H54 0.929 . S
C64 C60 1.377 . S
C64 C63 1.394 1_556 S
H65 C72 0.928 1_556 S
H66 C75 0.930 . S
H67 C77 0.929 . S
H68 C69 0.969 . S
C69 H68 0.969 . S
C69 O70 1.550 . S
C69 H71 0.973 . S
O70 C69 1.550 . S
O70 C76 1.412 . S
H71 C69 0.973 . S
C72 H65 0.928 1_554 S
C72 C73 1.400 1_554 S
C72 C74 1.364 . S
C73 C72 1.400 1_556 S
C73 C77 1.377 . S
C74 C72 1.364 . S
C74 C75 1.374 . S
C75 H66 0.930 . S
C75 C74 1.374 . S
C75 C76 1.383 . S
C76 O70 1.412 . S
C76 C75 1.383 . S
C76 C77 1.394 1_554 S
C77 H67 0.929 . S
C77 C73 1.377 . S
C77 C76 1.394 1_556 S
H78 C85 0.929 1_556 S
H79 C88 0.930 . S
H80 C90 0.929 . S
H81 C82 0.969 . S
C82 H81 0.969 . S
C82 O83 1.550 . S
C82 H84 0.973 . S
O83 C82 1.550 . S
O83 C89 1.412 . S
H84 C82 0.973 . S
C85 H78 0.929 1_554 S
C85 C86 1.400 1_554 S
C85 C87 1.364 . S
C86 C85 1.400 1_556 S
C86 C90 1.377 . S
C87 C85 1.364 . S
C87 C88 1.374 . S
C88 H79 0.930 . S
C88 C87 1.374 . S
C88 C89 1.383 . S
C89 O83 1.412 . S
C89 C88 1.383 . S
C89 C90 1.394 1_554 S
C90 H80 0.929 . S
C90 C86 1.377 . S
C90 C89 1.394 1_556 S
H91 C98 0.928 1_556 S
H92 C101 0.930 . S
H93 C103 0.929 . S
H94 C95 0.969 . S
C95 H94 0.969 . S
C95 O96 1.550 . S
C95 H97 0.973 . S
O96 C95 1.550 . S
O96 C102 1.412 . S
H97 C95 0.973 . S
C98 H91 0.928 1_554 S
C98 C99 1.400 1_554 S
C98 C100 1.364 . S
C99 C98 1.400 1_556 S
C99 C103 1.377 . S
C100 C98 1.364 . S
C100 C101 1.374 . S
C101 H92 0.930 . S
C101 C100 1.374 . S
C101 C102 1.383 . S
C102 O96 1.412 . S
C102 C101 1.383 . S
C102 C103 1.394 1_554 S
C103 H93 0.929 . S
C103 C99 1.377 . S
C103 C102 1.394 1_556 S
Gd104 C107 2.818 . S
Gd104 O124 2.377 . S
Gd104 O126 2.448 . S
Gd104 O127 2.506 . S
Gd104 O128 2.435 . S
Gd104 O129 2.717 1_565 S
Gd104 O131 2.395 1_565 S
Gd104 O135 2.327 1_455 S
Gd105 C116 2.818 . S
Gd105 O125 2.395 1_545 S
Gd105 O129 2.327 1_655 S
Gd105 O130 2.377 . S
Gd105 O132 2.448 . S
Gd105 O133 2.506 1_655 S
Gd105 O134 2.435 . S
Gd105 O135 2.717 1_545 S
C106 O124 1.240 1_655 S
C106 O125 1.240 . S
C107 Gd104 2.818 . S
C107 C108 1.510 . S
C107 O126 1.249 . S
C107 O127 1.252 . S
C108 C107 1.510 . S
C108 C109 1.404 . S
C108 C110 1.352 . S
C109 C108 1.404 . S
C109 C113 1.389 . S
C109 H136 0.930 . S
C110 C108 1.352 . S
C110 C112 1.374 . S
C110 H137 0.931 1_455 S
C111 C112 1.359 . S
C111 C113 1.364 . S
C112 C110 1.374 . S
C112 C111 1.359 . S
C112 H138 0.931 1_455 S
C113 C109 1.389 . S
C113 C111 1.364 . S
C113 H139 0.931 . S
C114 O128 1.256 1_545 S
C114 O129 1.257 . S
C115 O130 1.240 1_455 S
C115 O131 1.240 . S
C116 Gd105 2.818 . S
C116 C117 1.510 . S
C116 O132 1.249 . S
C116 O133 1.252 1_655 S
C117 C116 1.510 . S
C117 C118 1.404 . S
C117 C119 1.352 1_655 S
C118 C117 1.404 . S
C118 C122 1.389 . S
C118 H140 0.930 . S
C119 C117 1.352 1_455 S
C119 C121 1.374 . S
C119 H141 0.931 . S
C120 C121 1.359 1_655 S
C120 C122 1.364 . S
C121 C119 1.374 . S
C121 C120 1.359 1_455 S
C121 H142 0.931 . S
C122 C118 1.389 . S
C122 C120 1.364 . S
C122 H143 0.931 . S
C123 O134 1.256 . S
C123 O135 1.257 1_545 S
O124 Gd104 2.377 . S
O124 C106 1.240 1_455 S
O125 Gd105 2.395 1_565 S
O125 C106 1.240 . S
O126 Gd104 2.448 . S
O126 C107 1.249 . S
O127 Gd104 2.506 . S
O127 C107 1.252 . S
O128 Gd104 2.435 . S
O128 C114 1.256 1_565 S
O129 Gd104 2.717 1_545 S
O129 Gd105 2.327 1_455 S
O129 C114 1.257 . S
O130 Gd105 2.377 . S
O130 C115 1.240 1_655 S
O131 Gd104 2.395 1_545 S
O131 C115 1.240 . S
O132 Gd105 2.448 . S
O132 C116 1.249 . S
O133 Gd105 2.506 1_455 S
O133 C116 1.252 1_455 S
O134 Gd105 2.435 . S
O134 C123 1.256 . S
O135 Gd104 2.327 1_655 S
O135 Gd105 2.717 1_565 S
O135 C123 1.257 1_565 S
H136 C109 0.930 . S
H137 C110 0.931 1_655 S
H138 C112 0.931 1_655 S
H139 C113 0.931 . S
H140 C118 0.930 . S
H141 C119 0.931 . S
H142 C121 0.931 . S
H143 C122 0.931 . S
Gd144 C147 2.818 . S
Gd144 O164 2.377 . S
Gd144 O166 2.448 . S
Gd144 O167 2.506 . S
Gd144 O168 2.435 . S
Gd144 O169 2.717 . S
Gd144 O171 2.395 . S
Gd144 O175 2.327 1_545 S
Gd145 C156 2.818 . S
Gd145 O165 2.395 . S
Gd145 O169 2.327 1_565 S
Gd145 O170 2.377 . S
Gd145 O172 2.448 . S
Gd145 O173 2.506 1_565 S
Gd145 O174 2.435 . S
Gd145 O175 2.717 . S
C146 O164 1.240 1_565 S
C146 O165 1.240 . S
C147 Gd144 2.818 . S
C147 C148 1.510 . S
C147 O166 1.249 . S
C147 O167 1.252 . S
C148 C147 1.510 . S
C148 C149 1.404 . S
C148 C150 1.352 . S
C149 C148 1.404 . S
C149 C153 1.389 . S
C149 H176 0.930 . S
C150 C148 1.352 . S
C150 C152 1.374 . S
C150 H177 0.931 1_545 S
C151 C152 1.359 . S
C151 C153 1.364 . S
C152 C150 1.374 . S
C152 C151 1.359 . S
C152 H178 0.931 1_545 S
C153 C149 1.389 . S
C153 C151 1.364 . S
C153 H179 0.931 . S
C154 O168 1.256 . S
C154 O169 1.257 . S
C155 O170 1.240 1_545 S
C155 O171 1.240 . S
C156 Gd145 2.818 . S
C156 C157 1.510 . S
C156 O172 1.249 . S
C156 O173 1.252 1_565 S
C157 C156 1.510 . S
C157 C158 1.404 . S
C157 C159 1.352 1_565 S
C158 C157 1.404 . S
C158 C162 1.389 . S
C158 H180 0.930 . S
C159 C157 1.352 1_545 S
C159 C161 1.378 . S
C159 H181 0.931 . S
C160 C161 1.309 1_565 S
C160 C162 1.364 . S
C161 C159 1.378 . S
C161 C160 1.309 1_545 S
C161 H182 0.978 . S
C162 C158 1.389 . S
C162 C160 1.364 . S
C162 H183 0.931 . S
C163 O174 1.256 . S
C163 O175 1.257 . S
O164 Gd144 2.377 . S
O164 C146 1.240 1_545 S
O165 Gd145 2.395 . S
O165 C146 1.240 . S
O166 Gd144 2.448 . S
O166 C147 1.249 . S
O167 Gd144 2.506 . S
O167 C147 1.252 . S
O168 Gd144 2.435 . S
O168 C154 1.256 . S
O169 Gd144 2.717 . S
O169 Gd145 2.327 1_545 S
O169 C154 1.257 . S
O170 Gd145 2.377 . S
O170 C155 1.240 1_565 S
O171 Gd144 2.395 . S
O171 C155 1.240 . S
O172 Gd145 2.448 . S
O172 C156 1.249 . S
O173 Gd145 2.506 1_545 S
O173 C156 1.252 1_545 S
O174 Gd145 2.435 . S
O174 C163 1.256 . S
O175 Gd144 2.327 1_565 S
O175 Gd145 2.717 . S
O175 C163 1.257 . S
H176 C149 0.930 . S
H177 C150 0.931 1_565 S
H178 C152 0.931 1_565 S
H179 C153 0.931 . S
H180 C158 0.930 . S
H181 C159 0.931 . S
H182 C161 0.978 . S
H183 C162 0.931 . S
Gd184 C187 2.818 . S
Gd184 O204 2.377 . S
Gd184 O206 2.448 . S
Gd184 O207 2.506 . S
Gd184 O208 2.435 . S
Gd184 O209 2.717 . S
Gd184 O211 2.395 . S
Gd184 O215 2.327 . S
Gd185 C196 2.818 . S
Gd185 O205 2.395 . S
Gd185 O209 2.327 . S
Gd185 O210 2.377 . S
Gd185 O212 2.448 . S
Gd185 O213 2.506 . S
Gd185 O214 2.435 . S
Gd185 O215 2.717 . S
C186 O204 1.240 . S
C186 O205 1.240 . S
C187 Gd184 2.818 . S
C187 C188 1.510 . S
C187 O206 1.249 . S
C187 O207 1.252 . S
C188 C187 1.510 . S
C188 C189 1.404 . S
C188 C190 1.352 . S
C189 C188 1.404 . S
C189 C193 1.389 . S
C189 H216 0.930 . S
C190 C188 1.352 . S
C190 C192 1.374 . S
C190 H217 0.931 . S
C191 C192 1.359 . S
C191 C193 1.364 . S
C192 C190 1.374 . S
C192 C191 1.359 . S
C192 H218 0.931 . S
C193 C189 1.389 . S
C193 C191 1.364 . S
C193 H219 0.931 . S
C194 O208 1.256 . S
C194 O209 1.257 . S
C195 O210 1.240 . S
C195 O211 1.240 . S
C196 Gd185 2.818 . S
C196 C197 1.510 . S
C196 O212 1.249 . S
C196 O213 1.252 . S
C197 C196 1.510 . S
C197 C198 1.404 . S
C197 C199 1.352 . S
C198 C197 1.404 . S
C198 C202 1.389 . S
C198 H220 0.930 . S
C199 C197 1.352 . S
C199 C201 1.374 . S
C199 H221 0.931 . S
C200 C201 1.359 . S
C200 C202 1.364 . S
C201 C199 1.374 . S
C201 C200 1.359 . S
C201 H222 0.931 . S
C202 C198 1.389 . S
C202 C200 1.364 . S
C202 H223 0.931 . S
C203 O214 1.256 . S
C203 O215 1.257 . S
O204 Gd184 2.377 . S
O204 C186 1.240 . S
O205 Gd185 2.395 . S
O205 C186 1.240 . S
O206 Gd184 2.448 . S
O206 C187 1.249 . S
O207 Gd184 2.506 . S
O207 C187 1.252 . S
O208 Gd184 2.435 . S
O208 C194 1.256 . S
O209 Gd184 2.717 . S
O209 Gd185 2.327 . S
O209 C194 1.257 . S
O210 Gd185 2.377 . S
O210 C195 1.240 . S
O211 Gd184 2.395 . S
O211 C195 1.240 . S
O212 Gd185 2.448 . S
O212 C196 1.249 . S
O213 Gd185 2.506 . S
O213 C196 1.252 . S
O214 Gd185 2.435 . S
O214 C203 1.256 . S
O215 Gd184 2.327 . S
O215 Gd185 2.717 . S
O215 C203 1.257 . S
H216 C189 0.930 . S
H217 C190 0.931 . S
H218 C192 0.931 . S
H219 C193 0.931 . S
H220 C198 0.930 . S
H221 C199 0.931 . S
H222 C201 0.931 . S
H223 C202 0.931 . S
Gd224 C227 2.818 . S
Gd224 O244 2.377 . S
Gd224 O246 2.448 . S
Gd224 O247 2.506 . S
Gd224 O248 2.435 . S
Gd224 O249 2.717 1_655 S
Gd224 O251 2.395 1_655 S
Gd224 O255 2.330 . S
Gd225 C236 2.818 . S
Gd225 O245 2.395 1_455 S
Gd225 O249 2.327 . S
Gd225 O250 2.377 . S
Gd225 O252 2.448 . S
Gd225 O253 2.506 . S
Gd225 O254 2.435 . S
Gd225 O255 2.711 1_455 S
C226 O244 1.240 . S
C226 O245 1.240 . S
C227 Gd224 2.818 . S
C227 C228 1.510 . S
C227 O246 1.249 . S
C227 O247 1.252 . S
C228 C227 1.510 . S
C228 C229 1.404 . S
C228 C230 1.352 . S
C229 C228 1.404 . S
C229 C233 1.389 . S
C229 H256 0.930 . S
C230 C228 1.352 . S
C230 C232 1.374 . S
C230 H257 0.931 . S
C231 C232 1.359 . S
C231 C233 1.364 . S
C232 C230 1.374 . S
C232 C231 1.359 . S
C232 H258 0.931 . S
C233 C229 1.389 . S
C233 C231 1.364 . S
C233 H259 0.931 . S
C234 O248 1.256 1_455 S
C234 O249 1.257 . S
C235 O250 1.240 . S
C235 O251 1.240 . S
C236 Gd225 2.818 . S
C236 C237 1.510 . S
C236 O252 1.249 . S
C236 O253 1.252 . S
C237 C236 1.510 . S
C237 C238 1.404 . S
C237 C239 1.352 . S
C238 C237 1.404 . S
C238 C242 1.389 . S
C238 H260 0.930 . S
C239 C237 1.352 . S
C239 C241 1.374 . S
C239 H261 0.931 . S
C240 C241 1.359 . S
C240 C242 1.364 . S
C241 C239 1.374 . S
C241 C240 1.359 . S
C241 H262 0.931 . S
C242 C238 1.389 . S
C242 C240 1.364 . S
C242 H263 0.931 . S
C243 O254 1.256 . S
C243 O255 1.253 1_455 S
O244 Gd224 2.377 . S
O244 C226 1.240 . S
O245 Gd225 2.395 1_655 S
O245 C226 1.240 . S
O246 Gd224 2.448 . S
O246 C227 1.249 . S
O247 Gd224 2.506 . S
O247 C227 1.252 . S
O248 Gd224 2.435 . S
O248 C234 1.256 1_655 S
O249 Gd224 2.717 1_455 S
O249 Gd225 2.327 . S
O249 C234 1.257 . S
O250 Gd225 2.377 . S
O250 C235 1.240 . S
O251 Gd224 2.395 1_455 S
O251 C235 1.240 . S
O252 Gd225 2.448 . S
O252 C236 1.249 . S
O253 Gd225 2.506 . S
O253 C236 1.252 . S
O254 Gd225 2.435 . S
O254 C243 1.256 . S
O255 Gd224 2.330 . S
O255 Gd225 2.711 1_655 S
O255 C243 1.253 1_655 S
H256 C229 0.930 . S
H257 C230 0.931 . S
H258 C232 0.931 . S
H259 C233 0.931 . S
H260 C238 0.930 . S
H261 C239 0.931 . S
H262 C241 0.931 . S
H263 C242 0.931 . S
H264 C272 0.929 . S
H265 C274 0.930 . S
H266 C276 0.930 . S
H267 C279 0.929 . S
H268 C282 0.930 . S
H269 C284 0.960 . S
H270 C284 0.960 1_565 S
H271 C284 0.960 . S
C272 H264 0.929 . S
C272 C273 1.377 1_565 S
C272 C274 1.384 . S
C273 C272 1.377 1_545 S
C273 C279 1.390 . S
C274 H265 0.930 . S
C274 C272 1.384 . S
C274 C275 1.372 1_565 S
C275 C274 1.372 1_545 S
C275 C276 1.400 . S
C275 C280 1.490 . S
C276 H266 0.930 . S
C276 C275 1.400 . S
C276 C279 1.386 . S
H277 C293 0.930 . S
H278 C294 0.931 . S
C279 H267 0.929 . S
C279 C273 1.390 . S
C279 C276 1.386 . S
C280 C275 1.490 . S
C280 C282 1.395 . S
C280 C283 1.403 . S
H281 C287 0.930 . S
C282 H268 0.930 . S
C282 C280 1.395 . S
C282 C285 1.403 . S
C283 C280 1.403 . S
C283 C284 1.524 . S
C283 C287 1.400 . S
C284 H269 0.960 . S
C284 H270 0.960 1_545 S
C284 H271 0.960 . S
C284 C283 1.524 . S
C285 C282 1.403 . S
C285 C286 1.392 . S
C285 C289 1.495 . S
C286 C285 1.392 . S
C286 C287 1.385 . S
C286 C288 1.478 . S
C287 H281 0.930 . S
C287 C283 1.400 . S
C287 C286 1.385 . S
C288 C286 1.478 . S
C288 C290 1.381 1_545 S
C288 C294 1.383 . S
C289 C285 1.495 . S
C289 H295 0.959 . S
C289 H296 0.961 . S
C289 H297 0.960 1_545 S
C290 C288 1.381 1_565 S
C290 C291 1.394 . S
C290 H298 0.930 . S
C291 C290 1.394 . S
C291 C292 1.383 1_565 S
C291 H299 0.929 . S
C292 C291 1.383 1_545 S
C292 C293 1.377 . S
C293 H277 0.930 . S
C293 C292 1.377 . S
C293 C294 1.379 . S
C294 H278 0.931 . S
C294 C288 1.383 . S
C294 C293 1.379 . S
H295 C289 0.959 . S
H296 C289 0.961 . S
H297 C289 0.960 1_565 S
H298 C290 0.930 . S
H299 C291 0.929 . S
H300 C308 0.929 . S
H301 C310 0.930 . S
H302 C312 0.930 . S
H303 C315 0.929 . S
H304 C318 0.930 . S
H305 C320 0.960 . S
H306 C320 0.960 . S
H307 C320 0.960 . S
C308 H300 0.929 . S
C308 C309 1.377 . S
C308 C310 1.384 . S
C309 C308 1.377 . S
C309 C315 1.390 . S
C310 H301 0.930 . S
C310 C308 1.384 . S
C310 C311 1.372 . S
C311 C310 1.372 . S
C311 C312 1.400 . S
C311 C316 1.490 . S
C312 H302 0.930 . S
C312 C311 1.400 . S
C312 C315 1.386 . S
H313 C329 0.930 . S
H314 C330 0.931 . S
C315 H303 0.929 . S
C315 C309 1.390 . S
C315 C312 1.386 . S
C316 C311 1.490 . S
C316 C318 1.395 . S
C316 C319 1.403 . S
H317 C323 0.930 . S
C318 H304 0.930 . S
C318 C316 1.395 . S
C318 C321 1.403 . S
C319 C316 1.403 . S
C319 C320 1.524 . S
C319 C323 1.400 . S
C320 H305 0.960 . S
C320 H306 0.960 . S
C320 H307 0.960 . S
C320 C319 1.524 . S
C321 C318 1.403 . S
C321 C322 1.392 . S
C321 C325 1.495 . S
C322 C321 1.392 . S
C322 C323 1.385 . S
C322 C324 1.478 . S
C323 H317 0.930 . S
C323 C319 1.400 . S
C323 C322 1.385 . S
C324 C322 1.478 . S
C324 C326 1.381 . S
C324 C330 1.383 . S
C325 C321 1.495 . S
C325 H331 0.959 . S
C325 H332 0.961 . S
C325 H333 0.960 . S
C326 C324 1.381 . S
C326 C327 1.394 . S
C326 H334 0.930 . S
C327 C326 1.394 . S
C327 C328 1.383 . S
C327 H335 0.929 . S
C328 C327 1.383 . S
C328 C329 1.377 . S
C329 H313 0.930 . S
C329 C328 1.377 . S
C329 C330 1.379 . S
C330 H314 0.931 . S
C330 C324 1.383 . S
C330 C329 1.379 . S
H331 C325 0.959 . S
H332 C325 0.961 . S
H333 C325 0.960 . S
H334 C326 0.930 . S
H335 C327 0.929 . S
H336 C344 0.929 . S
H337 C346 0.930 . S
H338 C348 0.930 . S
H339 C351 0.929 . S
H340 C354 0.930 . S
H341 C356 0.960 . S
H342 C356 0.960 . S
H343 C356 0.960 . S
C344 H336 0.929 . S
C344 C345 1.377 . S
C344 C346 1.384 . S
C345 C344 1.377 . S
C345 C351 1.390 . S
C346 H337 0.930 . S
C346 C344 1.384 . S
C346 C347 1.372 . S
C347 C346 1.372 . S
C347 C348 1.400 . S
C347 C352 1.490 . S
C348 H338 0.930 . S
C348 C347 1.400 . S
C348 C351 1.386 . S
H349 C365 0.930 . S
H350 C366 0.931 . S
C351 H339 0.929 . S
C351 C345 1.390 . S
C351 C348 1.386 . S
C352 C347 1.490 . S
C352 C354 1.395 . S
C352 C355 1.403 . S
H353 C359 0.930 . S
C354 H340 0.930 . S
C354 C352 1.395 . S
C354 C357 1.403 . S
C355 C352 1.403 . S
C355 C356 1.524 . S
C355 C359 1.400 . S
C356 H341 0.960 . S
C356 H342 0.960 . S
C356 H343 0.960 . S
C356 C355 1.524 . S
C357 C354 1.403 . S
C357 C358 1.392 . S
C357 C361 1.495 . S
C358 C357 1.392 . S
C358 C359 1.385 . S
C358 C360 1.478 . S
C359 H353 0.930 . S
C359 C355 1.400 . S
C359 C358 1.385 . S
C360 C358 1.478 . S
C360 C362 1.381 . S
C360 C366 1.383 . S
C361 C357 1.495 . S
C361 H367 0.959 . S
C361 H368 0.961 . S
C361 H369 0.960 . S
C362 C360 1.381 . S
C362 C363 1.394 . S
C362 H370 0.930 . S
C363 C362 1.394 . S
C363 C364 1.383 . S
C363 H371 0.929 . S
C364 C363 1.383 . S
C364 C365 1.377 . S
C365 H349 0.930 . S
C365 C364 1.377 . S
C365 C366 1.379 . S
C366 H350 0.931 . S
C366 C360 1.383 . S
C366 C365 1.379 . S
H367 C361 0.959 . S
H368 C361 0.961 . S
H369 C361 0.960 . S
H370 C362 0.930 . S
H371 C363 0.929 . S
H372 C380 0.929 . S
H373 C382 0.930 . S
H374 C384 0.930 . S
H375 C387 0.929 . S
H376 C390 0.930 . S
H377 C392 0.960 . S
H378 C392 0.960 1_455 S
H379 C392 0.960 . S
C380 H372 0.929 . S
C380 C381 1.377 . S
C380 C382 1.384 . S
C381 C380 1.377 . S
C381 C387 1.390 1_455 S
C382 H373 0.930 . S
C382 C380 1.384 . S
C382 C383 1.372 . S
C383 C382 1.372 . S
C383 C384 1.400 1_455 S
C383 C388 1.490 . S
C384 H374 0.930 . S
C384 C383 1.400 1_655 S
C384 C387 1.386 . S
H385 C401 0.930 . S
H386 C402 0.931 . S
C387 H375 0.929 . S
C387 C381 1.390 1_655 S
C387 C384 1.386 . S
C388 C383 1.490 . S
C388 C390 1.395 . S
C388 C391 1.403 . S
H389 C395 0.930 1_655 S
C390 H376 0.930 . S
C390 C388 1.395 . S
C390 C393 1.403 . S
C391 C388 1.403 . S
C391 C392 1.524 1_455 S
C391 C395 1.400 . S
C392 H377 0.960 . S
C392 H378 0.960 1_655 S
C392 H379 0.960 . S
C392 C391 1.524 1_655 S
C393 C390 1.403 . S
C393 C394 1.392 . S
C393 C397 1.495 . S
C394 C393 1.392 . S
C394 C395 1.385 . S
C394 C396 1.478 . S
C395 H389 0.930 1_455 S
C395 C391 1.400 . S
C395 C394 1.385 . S
C396 C394 1.478 . S
C396 C398 1.381 . S
C396 C402 1.383 1_455 S
C397 C393 1.495 . S
C397 H403 0.959 . S
C397 H404 0.961 . S
C397 H405 0.960 . S
C398 C396 1.381 . S
C398 C399 1.394 . S
C398 H406 0.930 . S
C399 C398 1.394 . S
C399 C400 1.383 . S
C399 H407 0.929 . S
C400 C399 1.383 . S
C400 C401 1.377 1_455 S
C401 H385 0.930 . S
C401 C400 1.377 1_655 S
C401 C402 1.379 . S
C402 H386 0.931 . S
C402 C396 1.383 1_655 S
C402 C401 1.379 . S
H403 C397 0.959 . S
H404 C397 0.961 . S
H405 C397 0.960 . S
H406 C398 0.930 . S
H407 C399 0.929 . S
H408 C416 0.929 . S
H409 C418 0.930 . S
H410 C420 0.930 . S
H411 C423 0.929 . S
H412 C426 0.933 . S
H413 C428 0.960 . S
H414 C428 0.960 . S
H415 C428 0.960 1_565 S
C416 H408 0.929 . S
C416 C417 1.377 1_545 S
C416 C418 1.384 . S
C417 C416 1.377 1_565 S
C417 C423 1.390 . S
C418 H409 0.930 . S
C418 C416 1.384 . S
C418 C419 1.332 1_545 S
C419 C418 1.332 1_565 S
C419 C420 1.442 . S
C419 C424 1.490 . S
C420 H410 0.930 . S
C420 C419 1.442 . S
C420 C423 1.386 . S
H421 C437 0.930 . S
H422 C438 0.931 . S
C423 H411 0.929 . S
C423 C417 1.390 . S
C423 C420 1.386 . S
C424 C419 1.490 . S
C424 C426 1.394 . S
C424 C427 1.401 1_565 S
H425 C431 0.930 . S
C426 H412 0.933 . S
C426 C424 1.394 . S
C426 C429 1.403 . S
C427 C424 1.401 1_545 S
C427 C428 1.526 1_554 S
C427 C431 1.400 1_554 S
C428 H413 0.960 . S
C428 H414 0.960 . S
C428 H415 0.960 1_545 S
C428 C427 1.526 1_556 S
C429 C426 1.403 . S
C429 C430 1.392 1_554 S
C429 C433 1.498 . S
C430 C429 1.392 1_556 S
C430 C431 1.385 1_565 S
C430 C432 1.478 . S
C431 H425 0.930 . S
C431 C427 1.400 1_556 S
C431 C430 1.385 1_545 S
C432 C430 1.478 . S
C432 C434 1.374 1_565 S
C432 C438 1.389 . S
C433 C429 1.498 . S
C433 H439 0.959 . S
C433 H440 0.961 . S
C433 H441 0.960 1_565 S
C434 C432 1.374 1_545 S
C434 C435 1.394 . S
C434 H442 0.930 . S
C435 C434 1.394 . S
C435 C436 1.407 . S
C435 H443 0.929 . S
C436 C435 1.407 . S
C436 C437 1.353 1_545 S
C437 H421 0.930 . S
C437 C436 1.353 1_565 S
C437 C438 1.379 . S
C438 H422 0.931 . S
C438 C432 1.389 . S
C438 C437 1.379 . S
H439 C433 0.959 . S
H440 C433 0.961 . S
H441 C433 0.960 1_545 S
H442 C434 0.930 . S
H443 C435 0.929 . S
H444 C452 0.929 . S
H445 C454 0.930 . S
H446 C456 0.930 . S
H447 C459 0.929 . S
H448 C462 0.930 . S
H449 C464 0.960 . S
H450 C464 0.960 1_554 S
H451 C464 0.960 . S
C452 H444 0.929 . S
C452 C453 1.377 . S
C452 C454 1.384 . S
C453 C452 1.377 . S
C453 C459 1.390 . S
C454 H445 0.930 . S
C454 C452 1.384 . S
C454 C455 1.372 . S
C455 C454 1.372 . S
C455 C456 1.400 . S
C455 C460 1.490 . S
C456 H446 0.930 . S
C456 C455 1.400 . S
C456 C459 1.386 . S
H457 C473 0.930 . S
H458 C474 0.931 . S
C459 H447 0.929 . S
C459 C453 1.390 . S
C459 C456 1.386 . S
C460 C455 1.490 . S
C460 C462 1.395 . S
C460 C463 1.403 . S
H461 C467 0.930 . S
C462 H448 0.930 . S
C462 C460 1.395 . S
C462 C465 1.403 . S
C463 C460 1.403 . S
C463 C464 1.524 1_554 S
C463 C467 1.400 1_554 S
C464 H449 0.960 . S
C464 H450 0.960 1_556 S
C464 H451 0.960 . S
C464 C463 1.524 1_556 S
C465 C462 1.403 . S
C465 C466 1.392 1_554 S
C465 C469 1.495 . S
C466 C465 1.392 1_556 S
C466 C467 1.385 . S
C466 C468 1.478 . S
C467 H461 0.930 . S
C467 C463 1.400 1_556 S
C467 C466 1.385 . S
C468 C466 1.478 . S
C468 C470 1.381 . S
C468 C474 1.383 . S
C469 C465 1.495 . S
C469 H475 0.959 . S
C469 H476 0.961 . S
C469 H477 0.960 . S
C470 C468 1.381 . S
C470 C471 1.394 . S
C470 H478 0.930 . S
C471 C470 1.394 . S
C471 C472 1.383 . S
C471 H479 0.929 . S
C472 C471 1.383 . S
C472 C473 1.377 . S
C473 H457 0.930 . S
C473 C472 1.377 . S
C473 C474 1.379 . S
C474 H458 0.931 . S
C474 C468 1.383 . S
C474 C473 1.379 . S
H475 C469 0.959 . S
H476 C469 0.961 . S
H477 C469 0.960 . S
H478 C470 0.930 . S
H479 C471 0.929 . S
H480 C488 0.929 . S
H481 C490 0.930 . S
H482 C492 0.930 . S
H483 C495 0.929 . S
H484 C498 0.930 . S
H485 C500 0.960 . S
H486 C500 0.960 . S
H487 C500 0.960 . S
C488 H480 0.929 . S
C488 C489 1.377 . S
C488 C490 1.384 . S
C489 C488 1.377 . S
C489 C495 1.390 . S
C490 H481 0.930 . S
C490 C488 1.384 . S
C490 C491 1.372 . S
C491 C490 1.372 . S
C491 C492 1.400 . S
C491 C496 1.490 . S
C492 H482 0.930 . S
C492 C491 1.400 . S
C492 C495 1.386 . S
H493 C509 0.930 . S
H494 C510 0.931 . S
C495 H483 0.929 . S
C495 C489 1.390 . S
C495 C492 1.386 . S
C496 C491 1.490 . S
C496 C498 1.395 . S
C496 C499 1.403 . S
H497 C503 0.930 . S
C498 H484 0.930 . S
C498 C496 1.395 . S
C498 C501 1.403 1_554 S
C499 C496 1.403 . S
C499 C500 1.524 . S
C499 C503 1.400 . S
C500 H485 0.960 . S
C500 H486 0.960 . S
C500 H487 0.960 . S
C500 C499 1.524 . S
C501 C498 1.403 1_556 S
C501 C502 1.392 . S
C501 C505 1.495 . S
C502 C501 1.392 . S
C502 C503 1.385 1_556 S
C502 C504 1.478 . S
C503 H497 0.930 . S
C503 C499 1.400 . S
C503 C502 1.385 1_554 S
C504 C502 1.478 . S
C504 C506 1.381 . S
C504 C510 1.383 . S
C505 C501 1.495 . S
C505 H511 0.959 . S
C505 H512 0.961 . S
C505 H513 0.960 . S
C506 C504 1.381 . S
C506 C507 1.394 . S
C506 H514 0.930 . S
C507 C506 1.394 . S
C507 C508 1.383 . S
C507 H515 0.929 . S
C508 C507 1.383 . S
C508 C509 1.377 . S
C509 H493 0.930 . S
C509 C508 1.377 . S
C509 C510 1.379 . S
C510 H494 0.931 . S
C510 C504 1.383 . S
C510 C509 1.379 . S
H511 C505 0.959 . S
H512 C505 0.961 . S
H513 C505 0.960 . S
H514 C506 0.930 . S
H515 C507 0.929 . S
H516 C524 0.929 . S
H517 C526 0.930 . S
H518 C528 0.930 . S
H519 C531 0.929 . S
H520 C534 0.930 . S
H521 C536 0.960 . S
H522 C536 0.960 . S
H523 C536 0.960 . S
C524 H516 0.929 . S
C524 C525 1.377 . S
C524 C526 1.384 . S
C525 C524 1.377 . S
C525 C531 1.390 1_655 S
C526 H517 0.930 . S
C526 C524 1.384 . S
C526 C527 1.372 . S
C527 C526 1.372 . S
C527 C528 1.400 1_655 S
C527 C532 1.490 . S
C528 H518 0.930 . S
C528 C527 1.400 1_455 S
C528 C531 1.386 . S
H529 C545 0.930 . S
H530 C546 0.931 . S
C531 H519 0.929 . S
C531 C525 1.390 1_455 S
C531 C528 1.386 . S
C532 C527 1.490 . S
C532 C534 1.395 . S
C532 C535 1.403 1_655 S
H533 C539 0.930 . S
C534 H520 0.930 . S
C534 C532 1.395 . S
C534 C537 1.403 1_554 S
C535 C532 1.403 1_455 S
C535 C536 1.524 . S
C535 C539 1.400 . S
C536 H521 0.960 . S
C536 H522 0.960 . S
C536 H523 0.960 . S
C536 C535 1.524 . S
C537 C534 1.403 1_556 S
C537 C538 1.392 . S
C537 C541 1.495 . S
C538 C537 1.392 . S
C538 C539 1.385 1_656 S
C538 C540 1.481 . S
C539 H533 0.930 . S
C539 C535 1.400 . S
C539 C538 1.385 1_454 S
C540 C538 1.481 . S
C540 C542 1.432 . S
C540 C546 1.330 1_655 S
C541 C537 1.495 . S
C541 H547 0.959 . S
C541 H548 0.961 . S
C541 H549 0.960 . S
C542 C540 1.432 . S
C542 C543 1.394 . S
C542 H550 0.930 . S
C543 C542 1.394 . S
C543 C544 1.383 1_655 S
C543 H551 0.929 . S
C544 C543 1.383 1_455 S
C544 C545 1.377 . S
C545 H529 0.930 . S
C545 C544 1.377 . S
C545 C546 1.379 . S
C546 H530 0.931 . S
C546 C540 1.330 1_455 S
C546 C545 1.379 . S
H547 C541 0.959 . S
H548 C541 0.961 . S
H549 C541 0.960 . S
H550 C542 0.930 . S
H551 C543 0.929 . S
H552 C560 0.929 . S
H553 C562 0.927 1_655 S
H554 C564 0.930 . S
H555 C567 0.929 . S
H556 C570 0.930 . S
H557 C572 0.960 . S
H558 C572 0.960 . S
H559 C572 0.960 . S
C560 H552 0.929 . S
C560 C561 1.377 . S
C560 C562 1.384 . S
C561 C560 1.377 . S
C561 C567 1.390 . S
C562 H553 0.927 1_455 S
C562 C560 1.384 . S
C562 C563 1.372 . S
C563 C562 1.372 . S
C563 C564 1.400 . S
C563 C568 1.484 1_455 S
C564 H554 0.930 . S
C564 C563 1.400 . S
C564 C567 1.386 . S
H565 C581 0.930 . S
H566 C582 0.931 . S
C567 H555 0.929 . S
C567 C561 1.390 . S
C567 C564 1.386 . S
C568 C563 1.484 1_655 S
C568 C570 1.419 . S
C568 C571 1.385 1_655 S
H569 C575 0.930 . S
C570 H556 0.930 . S
C570 C568 1.419 . S
C570 C573 1.403 . S
C571 C568 1.385 1_455 S
C571 C572 1.524 . S
C571 C575 1.400 . S
C572 H557 0.960 . S
C572 H558 0.960 . S
C572 H559 0.960 . S
C572 C571 1.524 . S
C573 C570 1.403 . S
C573 C574 1.392 . S
C573 C577 1.495 . S
C574 C573 1.392 . S
C574 C575 1.385 1_655 S
C574 C576 1.478 . S
C575 H569 0.930 . S
C575 C571 1.400 . S
C575 C574 1.385 1_455 S
C576 C574 1.478 . S
C576 C578 1.381 . S
C576 C582 1.383 . S
C577 C573 1.495 . S
C577 H583 0.959 . S
C577 H584 0.961 . S
C577 H585 0.960 . S
C578 C576 1.381 . S
C578 C579 1.394 . S
C578 H586 0.930 . S
C579 C578 1.394 . S
C579 C580 1.383 . S
C579 H587 0.929 . S
C580 C579 1.383 . S
C580 C581 1.377 . S
C581 H565 0.930 . S
C581 C580 1.377 . S
C581 C582 1.379 . S
C582 H566 0.931 . S
C582 C576 1.383 . S
C582 C581 1.379 . S
H583 C577 0.959 . S
H584 C577 0.961 . S
H585 C577 0.960 . S
H586 C578 0.930 . S
H587 C579 0.929 . S
H588 C596 0.929 . S
H589 C598 0.930 . S
H590 C600 0.930 . S
H591 C603 0.929 . S
H592 C606 0.930 . S
H593 C608 0.960 . S
H594 C608 0.960 . S
H595 C608 0.960 . S
C596 H588 0.929 . S
C596 C597 1.377 1_565 S
C596 C598 1.384 . S
C597 C596 1.377 1_545 S
C597 C603 1.390 . S
C598 H589 0.930 . S
C598 C596 1.384 . S
C598 C599 1.372 1_565 S
C599 C598 1.372 1_545 S
C599 C600 1.400 . S
C599 C604 1.490 1_545 S
C600 H590 0.930 . S
C600 C599 1.400 . S
C600 C603 1.386 . S
H601 C617 0.930 1_545 S
H602 C618 0.948 . S
C603 H591 0.929 . S
C603 C597 1.390 . S
C603 C600 1.386 . S
C604 C599 1.490 1_565 S
C604 C606 1.395 . S
C604 C607 1.403 1_565 S
H605 C611 0.942 . S
C606 H592 0.930 . S
C606 C604 1.395 . S
C606 C609 1.403 . S
C607 C604 1.403 1_545 S
C607 C608 1.524 . S
C607 C611 1.407 . S
C608 H593 0.960 . S
C608 H594 0.960 . S
C608 H595 0.960 . S
C608 C607 1.524 . S
C609 C606 1.403 . S
C609 C610 1.392 . S
C609 C613 1.495 . S
C610 C609 1.392 . S
C610 C611 1.368 1_565 S
C610 C612 1.478 . S
C611 H605 0.942 . S
C611 C607 1.407 . S
C611 C610 1.368 1_545 S
C612 C610 1.478 . S
C612 C614 1.381 . S
C612 C618 1.368 1_565 S
C613 C609 1.495 . S
C613 H619 0.959 . S
C613 H620 0.961 . S
C613 H621 0.960 . S
C614 C612 1.381 . S
C614 C615 1.394 . S
C614 H622 0.930 . S
C615 C614 1.394 . S
C615 C616 1.383 . S
C615 H623 0.929 . S
C616 C615 1.383 . S
C616 C617 1.377 . S
C617 H601 0.930 1_565 S
C617 C616 1.377 . S
C617 C618 1.377 1_565 S
C618 H602 0.948 . S
C618 C612 1.368 1_545 S
C618 C617 1.377 1_545 S
H619 C613 0.959 . S
H620 C613 0.961 . S
H621 C613 0.960 . S
H622 C614 0.930 . S
H623 C615 0.929 . S
H624 C632 0.929 . S
H625 C634 0.930 . S
H626 C636 0.930 . S
H627 C639 0.929 . S
H628 C642 0.930 . S
H629 C644 0.960 . S
H630 C644 0.960 . S
H631 C644 0.960 . S
C632 H624 0.929 . S
C632 C633 1.377 . S
C632 C634 1.384 . S
C633 C632 1.377 . S
C633 C639 1.390 . S
C634 H625 0.930 . S
C634 C632 1.384 . S
C634 C635 1.372 . S
C635 C634 1.372 . S
C635 C636 1.400 . S
C635 C640 1.490 . S
C636 H626 0.930 . S
C636 C635 1.400 . S
C636 C639 1.386 . S
H637 C653 0.930 . S
H638 C654 0.931 . S
C639 H627 0.929 . S
C639 C633 1.390 . S
C639 C636 1.386 . S
C640 C635 1.490 . S
C640 C642 1.395 . S
C640 C643 1.403 . S
H641 C647 0.930 . S
C642 H628 0.930 . S
C642 C640 1.395 . S
C642 C645 1.403 . S
C643 C640 1.403 . S
C643 C644 1.524 . S
C643 C647 1.400 . S
C644 H629 0.960 . S
C644 H630 0.960 . S
C644 H631 0.960 . S
C644 C643 1.524 . S
C645 C642 1.403 . S
C645 C646 1.392 . S
C645 C649 1.495 . S
C646 C645 1.392 . S
C646 C647 1.385 . S
C646 C648 1.478 . S
C647 H641 0.930 . S
C647 C643 1.400 . S
C647 C646 1.385 . S
C648 C646 1.478 . S
C648 C650 1.381 . S
C648 C654 1.383 . S
C649 C645 1.495 . S
C649 H655 0.959 . S
C649 H656 0.961 . S
C649 H657 0.960 . S
C650 C648 1.381 . S
C650 C651 1.394 . S
C650 H658 0.930 . S
C651 C650 1.394 . S
C651 C652 1.383 . S
C651 H659 0.929 . S
C652 C651 1.383 . S
C652 C653 1.377 . S
C653 H637 0.930 . S
C653 C652 1.377 . S
C653 C654 1.379 . S
C654 H638 0.931 . S
C654 C648 1.383 . S
C654 C653 1.379 . S
H655 C649 0.959 . S
H656 C649 0.961 . S
H657 C649 0.960 . S
H658 C650 0.930 . S
H659 C651 0.929 . S
H660 C668 0.929 . S
H661 C670 0.930 . S
H662 C672 0.930 . S
H663 C675 0.929 . S
H664 C678 0.930 . S
H665 C680 0.960 . S
H666 C680 0.960 . S
H667 C680 0.960 . S
C668 H660 0.929 . S
C668 C669 1.377 . S
C668 C670 1.384 . S
C669 C668 1.377 . S
C669 C675 1.390 . S
C670 H661 0.930 . S
C670 C668 1.384 . S
C670 C671 1.372 . S
C671 C670 1.372 . S
C671 C672 1.400 . S
C671 C676 1.490 . S
C672 H662 0.930 . S
C672 C671 1.400 . S
C672 C675 1.386 . S
H673 C689 0.930 . S
H674 C690 0.931 . S
C675 H663 0.929 . S
C675 C669 1.390 . S
C675 C672 1.386 . S
C676 C671 1.490 . S
C676 C678 1.395 . S
C676 C679 1.403 . S
H677 C683 0.930 . S
C678 H664 0.930 . S
C678 C676 1.395 . S
C678 C681 1.403 . S
C679 C676 1.403 . S
C679 C680 1.524 . S
C679 C683 1.400 . S
C680 H665 0.960 . S
C680 H666 0.960 . S
C680 H667 0.960 . S
C680 C679 1.524 . S
C681 C678 1.403 . S
C681 C682 1.392 . S
C681 C685 1.495 . S
C682 C681 1.392 . S
C682 C683 1.385 . S
C682 C684 1.478 . S
C683 H677 0.930 . S
C683 C679 1.400 . S
C683 C682 1.385 . S
C684 C682 1.478 . S
C684 C686 1.381 . S
C684 C690 1.383 . S
C685 C681 1.495 . S
C685 H691 0.959 . S
C685 H692 0.961 . S
C685 H693 0.960 . S
C686 C684 1.381 . S
C686 C687 1.394 . S
C686 H694 0.930 . S
C687 C686 1.394 . S
C687 C688 1.383 . S
C687 H695 0.929 . S
C688 C687 1.383 . S
C688 C689 1.377 . S
C689 H673 0.930 . S
C689 C688 1.377 . S
C689 C690 1.379 . S
C690 H674 0.931 . S
C690 C684 1.383 . S
C690 C689 1.379 . S
H691 C685 0.959 . S
H692 C685 0.961 . S
H693 C685 0.960 . S
H694 C686 0.930 . S
H695 C687 0.929 . S
H696 C704 0.929 . S
H697 C706 0.930 . S
H698 C708 0.930 . S
H699 C711 0.929 . S
H700 C714 0.930 . S
H701 C716 0.960 1_556 S
H702 C716 0.960 . S
H703 C716 0.960 . S
C704 H696 0.929 . S
C704 C705 1.377 . S
C704 C706 1.384 . S
C705 C704 1.377 . S
C705 C711 1.390 1_655 S
C706 H697 0.930 . S
C706 C704 1.384 . S
C706 C707 1.372 1_655 S
C707 C706 1.372 1_455 S
C707 C708 1.400 . S
C707 C712 1.490 . S
C708 H698 0.930 . S
C708 C707 1.400 . S
C708 C711 1.386 . S
H709 C725 0.930 . S
H710 C726 0.931 . S
C711 H699 0.929 . S
C711 C705 1.390 1_455 S
C711 C708 1.386 . S
C712 C707 1.490 . S
C712 C714 1.395 . S
C712 C715 1.417 . S
H713 C719 0.930 . S
C714 H700 0.930 . S
C714 C712 1.395 . S
C714 C717 1.403 . S
C715 C712 1.417 . S
C715 C716 1.500 1_455 S
C715 C719 1.411 . S
C716 H701 0.960 1_554 S
C716 H702 0.960 . S
C716 H703 0.960 . S
C716 C715 1.500 1_655 S
C717 C714 1.403 . S
C717 C718 1.392 . S
C717 C721 1.495 . S
C718 C717 1.392 . S
C718 C719 1.385 . S
C718 C720 1.478 . S
C719 H713 0.930 . S
C719 C715 1.411 . S
C719 C718 1.385 . S
C720 C718 1.478 . S
C720 C722 1.381 . S
C720 C726 1.383 1_554 S
C721 C717 1.495 . S
C721 H727 0.959 . S
C721 H728 0.961 . S
C721 H729 0.960 . S
C722 C720 1.381 . S
C722 C723 1.394 . S
C722 H730 0.930 . S
C723 C722 1.394 . S
C723 C724 1.383 1_554 S
C723 H731 0.929 . S
C724 C723 1.383 1_556 S
C724 C725 1.377 . S
C725 H709 0.930 . S
C725 C724 1.377 . S
C725 C726 1.379 . S
C726 H710 0.931 . S
C726 C720 1.383 1_556 S
C726 C725 1.379 . S
H727 C721 0.959 . S
H728 C721 0.961 . S
H729 C721 0.960 . S
H730 C722 0.930 . S
H731 C723 0.929 . S
H732 C740 0.929 . S
H733 C742 0.930 . S
H734 C744 0.930 . S
H735 C747 0.929 . S
H736 C750 0.949 . S
H737 C752 0.960 . S
H738 C752 0.960 . S
H739 C752 0.960 . S
C740 H732 0.929 . S
C740 C741 1.377 1_545 S
C740 C742 1.384 . S
C741 C740 1.377 1_565 S
C741 C747 1.390 . S
C742 H733 0.930 . S
C742 C740 1.384 . S
C742 C743 1.372 . S
C743 C742 1.372 . S
C743 C744 1.400 1_545 S
C743 C748 1.490 . S
C744 H734 0.930 . S
C744 C743 1.400 1_565 S
C744 C747 1.386 . S
H745 C761 0.930 . S
H746 C762 0.931 . S
C747 H735 0.929 . S
C747 C741 1.390 . S
C747 C744 1.386 . S
C748 C743 1.490 . S
C748 C750 1.381 1_545 S
C748 C751 1.403 . S
H749 C755 0.930 . S
C750 H736 0.949 . S
C750 C748 1.381 1_565 S
C750 C753 1.399 1_565 S
C751 C748 1.403 . S
C751 C752 1.524 . S
C751 C755 1.400 . S
C752 H737 0.960 . S
C752 H738 0.960 . S
C752 H739 0.960 . S
C752 C751 1.524 . S
C753 C750 1.399 1_545 S
C753 C754 1.392 . S
C753 C757 1.495 1_544 S
C754 C753 1.392 . S
C754 C755 1.385 . S
C754 C756 1.478 . S
C755 H749 0.930 . S
C755 C751 1.400 . S
C755 C754 1.385 . S
C756 C754 1.478 . S
C756 C758 1.381 1_554 S
C756 C762 1.383 . S
C757 C753 1.495 1_566 S
C757 H763 0.959 . S
C757 H764 0.961 . S
C757 H765 0.960 1_565 S
C758 C756 1.381 1_556 S
C758 C759 1.394 . S
C758 H766 0.930 . S
C759 C758 1.394 . S
C759 C760 1.383 . S
C759 H767 0.929 . S
C760 C759 1.383 . S
C760 C761 1.377 1_556 S
C761 H745 0.930 . S
C761 C760 1.377 1_554 S
C761 C762 1.379 . S
C762 H746 0.931 . S
C762 C756 1.383 . S
C762 C761 1.379 . S
H763 C757 0.959 . S
H764 C757 0.961 . S
H765 C757 0.960 1_545 S
H766 C758 0.930 . S
H767 C759 0.929 . S
H768 C776 0.929 . S
H769 C778 0.930 . S
H770 C780 0.930 . S
H771 C783 0.929 . S
H772 C786 0.930 . S
H773 C788 0.960 . S
H774 C788 0.960 . S
H775 C788 0.960 . S
C776 H768 0.929 . S
C776 C777 1.377 . S
C776 C778 1.384 . S
C777 C776 1.377 . S
C777 C783 1.390 . S
C778 H769 0.930 . S
C778 C776 1.384 . S
C778 C779 1.372 . S
C779 C778 1.372 . S
C779 C780 1.400 . S
C779 C784 1.490 . S
C780 H770 0.930 . S
C780 C779 1.400 . S
C780 C783 1.386 . S
H781 C797 0.930 . S
H782 C798 0.931 . S
C783 H771 0.929 . S
C783 C777 1.390 . S
C783 C780 1.386 . S
C784 C779 1.490 . S
C784 C786 1.395 . S
C784 C787 1.403 . S
H785 C791 0.930 . S
C786 H772 0.930 . S
C786 C784 1.395 . S
C786 C789 1.403 . S
C787 C784 1.403 . S
C787 C788 1.524 . S
C787 C791 1.400 . S
C788 H773 0.960 . S
C788 H774 0.960 . S
C788 H775 0.960 . S
C788 C787 1.524 . S
C789 C786 1.403 . S
C789 C790 1.392 . S
C789 C793 1.495 . S
C790 C789 1.392 . S
C790 C791 1.385 . S
C790 C792 1.478 . S
C791 H785 0.930 . S
C791 C787 1.400 . S
C791 C790 1.385 . S
C792 C790 1.478 . S
C792 C794 1.381 . S
C792 C798 1.383 1_554 S
C793 C789 1.495 . S
C793 H799 0.959 . S
C793 H800 0.961 . S
C793 H801 0.960 . S
C794 C792 1.381 . S
C794 C795 1.394 . S
C794 H802 0.930 . S
C795 C794 1.394 . S
C795 C796 1.383 1_554 S
C795 H803 0.929 . S
C796 C795 1.383 1_556 S
C796 C797 1.377 . S
C797 H781 0.930 . S
C797 C796 1.377 . S
C797 C798 1.379 . S
C798 H782 0.931 . S
C798 C792 1.383 1_556 S
C798 C797 1.379 . S
H799 C793 0.959 . S
H800 C793 0.961 . S
H801 C793 0.960 . S
H802 C794 0.930 . S
H803 C795 0.929 . S
H804 C812 0.929 . S
H805 C814 0.930 . S
H806 C816 0.930 . S
H807 C819 0.929 . S
H808 C822 0.930 . S
H809 C824 0.960 1_556 S
H810 C824 0.960 . S
H811 C824 0.960 . S
C812 H804 0.929 . S
C812 C813 1.377 . S
C812 C814 1.384 . S
C813 C812 1.377 . S
C813 C819 1.390 . S
C814 H805 0.930 . S
C814 C812 1.384 . S
C814 C815 1.372 . S
C815 C814 1.372 . S
C815 C816 1.400 . S
C815 C820 1.490 . S
C816 H806 0.930 . S
C816 C815 1.400 . S
C816 C819 1.386 . S
H817 C833 0.930 . S
H818 C834 0.931 . S
C819 H807 0.929 . S
C819 C813 1.390 . S
C819 C816 1.386 . S
C820 C815 1.490 . S
C820 C822 1.395 . S
C820 C823 1.403 . S
H821 C827 0.930 1_556 S
C822 H808 0.930 . S
C822 C820 1.395 . S
C822 C825 1.403 . S
C823 C820 1.403 . S
C823 C824 1.524 . S
C823 C827 1.400 . S
C824 H809 0.960 1_554 S
C824 H810 0.960 . S
C824 H811 0.960 . S
C824 C823 1.524 . S
C825 C822 1.403 . S
C825 C826 1.392 . S
C825 C829 1.495 . S
C826 C825 1.392 . S
C826 C827 1.385 . S
C826 C828 1.478 . S
C827 H821 0.930 1_554 S
C827 C823 1.400 . S
C827 C826 1.385 . S
C828 C826 1.478 . S
C828 C830 1.381 . S
C828 C834 1.383 . S
C829 C825 1.495 . S
C829 H835 0.959 . S
C829 H836 0.961 . S
C829 H837 0.960 . S
C830 C828 1.381 . S
C830 C831 1.394 . S
C830 H838 0.930 . S
C831 C830 1.394 . S
C831 C832 1.383 1_554 S
C831 H839 0.929 . S
C832 C831 1.383 1_556 S
C832 C833 1.377 . S
C833 H817 0.930 . S
C833 C832 1.377 . S
C833 C834 1.379 1_556 S
C834 H818 0.931 . S
C834 C828 1.383 . S
C834 C833 1.379 1_554 S
H835 C829 0.959 . S
H836 C829 0.961 . S
H837 C829 0.960 . S
H838 C830 0.930 . S
H839 C831 0.929 . S
H840 C848 0.929 . S
H841 C850 0.930 . S
H842 C852 0.930 . S
H843 C855 0.929 . S
H844 C858 0.930 . S
H845 C860 0.960 . S
H846 C860 0.960 . S
H847 C860 0.960 . S
C848 H840 0.929 . S
C848 C849 1.377 . S
C848 C850 1.384 . S
C849 C848 1.377 . S
C849 C855 1.390 . S
C850 H841 0.930 . S
C850 C848 1.384 . S
C850 C851 1.372 . S
C851 C850 1.372 . S
C851 C852 1.400 . S
C851 C856 1.490 . S
C852 H842 0.930 . S
C852 C851 1.400 . S
C852 C855 1.386 . S
H853 C869 0.930 . S
H854 C870 0.931 . S
C855 H843 0.929 . S
C855 C849 1.390 . S
C855 C852 1.386 . S
C856 C851 1.490 . S
C856 C858 1.395 1_455 S
C856 C859 1.403 . S
H857 C863 0.930 . S
C858 H844 0.930 . S
C858 C856 1.395 1_655 S
C858 C861 1.403 . S
C859 C856 1.403 . S
C859 C860 1.524 . S
C859 C863 1.400 . S
C860 H845 0.960 . S
C860 H846 0.960 . S
C860 H847 0.960 . S
C860 C859 1.524 . S
C861 C858 1.403 . S
C861 C862 1.392 1_655 S
C861 C865 1.495 . S
C862 C861 1.392 1_455 S
C862 C863 1.385 . S
C862 C864 1.478 . S
C863 H857 0.930 . S
C863 C859 1.400 . S
C863 C862 1.385 . S
C864 C862 1.478 . S
C864 C866 1.381 . S
C864 C870 1.383 . S
C865 C861 1.495 . S
C865 H871 0.959 . S
C865 H872 0.961 . S
C865 H873 0.960 . S
C866 C864 1.381 . S
C866 C867 1.394 . S
C866 H874 0.930 . S
C867 C866 1.394 . S
C867 C868 1.383 . S
C867 H875 0.929 . S
C868 C867 1.383 . S
C868 C869 1.377 . S
C869 H853 0.930 . S
C869 C868 1.377 . S
C869 C870 1.379 . S
C870 H854 0.931 . S
C870 C864 1.383 . S
C870 C869 1.379 . S
H871 C865 0.959 . S
H872 C865 0.961 . S
H873 C865 0.960 . S
H874 C866 0.930 . S
H875 C867 0.929 . S
H876 C884 0.929 . S
H877 C886 0.930 . S
H878 C888 0.930 . S
H879 C891 0.929 . S
H880 C894 0.930 . S
H881 C896 0.960 . S
H882 C896 0.960 . S
H883 C896 0.960 . S
C884 H876 0.929 . S
C884 C885 1.377 . S
C884 C886 1.384 . S
C885 C884 1.377 . S
C885 C891 1.390 1_545 S
C886 H877 0.930 . S
C886 C884 1.384 . S
C886 C887 1.372 . S
C887 C886 1.372 . S
C887 C888 1.400 1_545 S
C887 C892 1.490 . S
C888 H878 0.930 . S
C888 C887 1.400 1_565 S
C888 C891 1.386 . S
H889 C905 0.930 . S
H890 C906 0.931 . S
C891 H879 0.929 . S
C891 C885 1.390 1_565 S
C891 C888 1.386 . S
C892 C887 1.490 . S
C892 C894 1.395 . S
C892 C895 1.403 . S
H893 C899 0.930 . S
C894 H880 0.930 . S
C894 C892 1.395 . S
C894 C897 1.403 . S
C895 C892 1.403 . S
C895 C896 1.524 . S
C895 C899 1.400 . S
C896 H881 0.960 . S
C896 H882 0.960 . S
C896 H883 0.960 . S
C896 C895 1.524 . S
C897 C894 1.403 . S
C897 C898 1.392 . S
C897 C901 1.495 . S
C898 C897 1.392 . S
C898 C899 1.385 . S
C898 C900 1.478 . S
C899 H893 0.930 . S
C899 C895 1.400 . S
C899 C898 1.385 . S
C900 C898 1.478 . S
C900 C902 1.381 . S
C900 C906 1.383 1_545 S
C901 C897 1.495 . S
C901 H907 0.959 1_556 S
C901 H908 0.961 1_545 S
C901 H909 0.960 . S
C902 C900 1.381 . S
C902 C903 1.394 . S
C902 H910 0.930 . S
C903 C902 1.394 . S
C903 C904 1.383 . S
C903 H911 0.929 . S
C904 C903 1.383 . S
C904 C905 1.377 1_545 S
C905 H889 0.930 . S
C905 C904 1.377 1_565 S
C905 C906 1.379 . S
C906 H890 0.931 . S
C906 C900 1.383 1_565 S
C906 C905 1.379 . S
H907 C901 0.959 1_554 S
H908 C901 0.961 1_565 S
H909 C901 0.960 . S
H910 C902 0.930 . S
H911 C903 0.929 . S
H912 C920 0.929 . S
H913 C922 0.930 . S
H914 C924 0.930 . S
H915 C927 0.929 . S
H916 C930 0.930 . S
H917 C932 0.960 . S
H918 C932 0.960 . S
H919 C932 0.960 . S
C920 H912 0.929 . S
C920 C921 1.377 . S
C920 C922 1.384 . S
C921 C920 1.377 . S
C921 C927 1.390 . S
C922 H913 0.930 . S
C922 C920 1.384 . S
C922 C923 1.372 . S
C923 C922 1.372 . S
C923 C924 1.400 . S
C923 C928 1.490 . S
C924 H914 0.930 . S
C924 C923 1.400 . S
C924 C927 1.386 . S
H925 C941 0.930 . S
H926 C942 0.931 . S
C927 H915 0.929 . S
C927 C921 1.390 . S
C927 C924 1.386 . S
C928 C923 1.490 . S
C928 C930 1.395 . S
C928 C931 1.403 . S
H929 C935 0.930 . S
C930 H916 0.930 . S
C930 C928 1.395 . S
C930 C933 1.403 . S
C931 C928 1.403 . S
C931 C932 1.524 . S
C931 C935 1.400 . S
C932 H917 0.960 . S
C932 H918 0.960 . S
C932 H919 0.960 . S
C932 C931 1.524 . S
C933 C930 1.403 . S
C933 C934 1.392 . S
C933 C937 1.495 . S
C934 C933 1.392 . S
C934 C935 1.385 . S
C934 C936 1.478 . S
C935 H929 0.930 . S
C935 C931 1.400 . S
C935 C934 1.385 . S
C936 C934 1.478 . S
C936 C938 1.381 . S
C936 C942 1.383 . S
C937 C933 1.495 . S
C937 H943 0.959 . S
C937 H944 0.961 . S
C937 H945 0.960 . S
C938 C936 1.381 . S
C938 C939 1.394 . S
C938 H946 0.930 . S
C939 C938 1.394 . S
C939 C940 1.383 . S
C939 H947 0.929 . S
C940 C939 1.383 . S
C940 C941 1.377 . S
C941 H925 0.930 . S
C941 C940 1.377 . S
C941 C942 1.379 . S
C942 H926 0.931 . S
C942 C936 1.383 . S
C942 C941 1.379 . S
H943 C937 0.959 . S
H944 C937 0.961 . S
H945 C937 0.960 . S
H946 C938 0.930 . S
H947 C939 0.929 . S
H948 C956 0.929 . S
H949 C958 0.930 . S
H950 C960 0.930 . S
H951 C963 0.929 . S
H952 C966 0.930 . S
H953 C968 0.960 . S
H954 C968 0.960 . S
H955 C968 0.960 . S
C956 H948 0.929 . S
C956 C957 1.377 . S
C956 C958 1.384 . S
C957 C956 1.377 . S
C957 C963 1.390 . S
C958 H949 0.930 . S
C958 C956 1.384 . S
C958 C959 1.372 . S
C959 C958 1.372 . S
C959 C960 1.400 . S
C959 C964 1.490 . S
C960 H950 0.930 . S
C960 C959 1.400 . S
C960 C963 1.386 . S
H961 C977 0.930 . S
H962 C978 0.931 . S
C963 H951 0.929 . S
C963 C957 1.390 . S
C963 C960 1.386 . S
C964 C959 1.490 . S
C964 C966 1.395 . S
C964 C967 1.403 . S
H965 C971 0.930 . S
C966 H952 0.930 . S
C966 C964 1.395 . S
C966 C969 1.403 . S
C967 C964 1.403 . S
C967 C968 1.524 . S
C967 C971 1.400 . S
C968 H953 0.960 . S
C968 H954 0.960 . S
C968 H955 0.960 . S
C968 C967 1.524 . S
C969 C966 1.403 . S
C969 C970 1.392 . S
C969 C973 1.495 . S
C970 C969 1.392 . S
C970 C971 1.385 . S
C970 C972 1.478 . S
C971 H965 0.930 . S
C971 C967 1.400 . S
C971 C970 1.385 . S
C972 C970 1.478 . S
C972 C974 1.381 . S
C972 C978 1.383 . S
C973 C969 1.495 . S
C973 H979 0.959 . S
C973 H980 0.961 . S
C973 H981 0.960 . S
C974 C972 1.381 . S
C974 C975 1.394 . S
C974 H982 0.930 . S
C975 C974 1.394 . S
C975 C976 1.383 . S
C975 H983 0.929 . S
C976 C975 1.383 . S
C976 C977 1.377 . S
C977 H961 0.930 . S
C977 C976 1.377 . S
C977 C978 1.379 . S
C978 H962 0.931 . S
C978 C972 1.383 . S
C978 C977 1.379 . S
H979 C973 0.959 . S
H980 C973 0.961 . S
H981 C973 0.960 . S
H982 C974 0.930 . S
H983 C975 0.929 . S
H984 C992 0.929 . S
H985 C994 0.930 . S
H986 C996 0.930 . S
H987 C999 0.929 . S
H988 C1002 0.930 . S
H989 C1004 0.960 . S
H990 C1004 0.960 . S
H991 C1004 0.960 1_655 S
C992 H984 0.929 . S
C992 C993 1.377 1_455 S
C992 C994 1.384 . S
C993 C992 1.377 1_655 S
C993 C999 1.390 . S
C994 H985 0.930 . S
C994 C992 1.384 . S
C994 C995 1.372 1_455 S
C995 C994 1.372 1_655 S
C995 C996 1.400 . S
C995 C1000 1.490 . S
C996 H986 0.930 . S
C996 C995 1.400 . S
C996 C999 1.386 . S
H997 C1013 0.930 . S
H998 C1014 0.931 . S
C999 H987 0.929 . S
C999 C993 1.390 . S
C999 C996 1.386 . S
C1000 C995 1.490 . S
C1000 C1002 1.395 . S
C1000 C1003 1.396 1_655 S
H1001 C1007 0.926 1_455 S
C1002 H988 0.930 . S
C1002 C1000 1.395 . S
C1002 C1005 1.403 . S
C1003 C1000 1.396 1_455 S
C1003 C1004 1.534 . S
C1003 C1007 1.397 1_455 S
C1004 H989 0.960 . S
C1004 H990 0.960 . S
C1004 H991 0.960 1_455 S
C1004 C1003 1.534 . S
C1005 C1002 1.403 . S
C1005 C1006 1.392 . S
C1005 C1009 1.495 . S
C1006 C1005 1.392 . S
C1006 C1007 1.392 . S
C1006 C1008 1.478 . S
C1007 H1001 0.926 1_655 S
C1007 C1003 1.397 1_655 S
C1007 C1006 1.392 . S
C1008 C1006 1.478 . S
C1008 C1010 1.381 1_655 S
C1008 C1014 1.383 . S
C1009 C1005 1.495 . S
C1009 H1015 0.959 . S
C1009 H1016 0.961 . S
C1009 H1017 0.960 . S
C1010 C1008 1.381 1_455 S
C1010 C1011 1.394 . S
C1010 H1018 0.930 . S
C1011 C1010 1.394 . S
C1011 C1012 1.383 1_455 S
C1011 H1019 0.929 . S
C1012 C1011 1.383 1_655 S
C1012 C1013 1.377 . S
C1013 H997 0.930 . S
C1013 C1012 1.377 . S
C1013 C1014 1.379 . S
C1014 H998 0.931 . S
C1014 C1008 1.383 . S
C1014 C1013 1.379 . S
H1015 C1009 0.959 . S
H1016 C1009 0.961 . S
H1017 C1009 0.960 . S
H1018 C1010 0.930 . S
H1019 C1011 0.929 . S
H1020 C1028 0.929 . S
H1021 C1030 0.930 . S
H1022 C1032 0.930 . S
H1023 C1035 0.929 . S
H1024 C1038 0.930 . S
H1025 C1040 0.960 . S
H1026 C1040 0.960 . S
H1027 C1040 0.960 . S
C1028 H1020 0.929 . S
C1028 C1029 1.377 1_545 S
C1028 C1030 1.384 . S
C1029 C1028 1.377 1_565 S
C1029 C1035 1.390 . S
C1030 H1021 0.930 . S
C1030 C1028 1.384 . S
C1030 C1031 1.372 1_545 S
C1031 C1030 1.372 1_565 S
C1031 C1032 1.400 . S
C1031 C1036 1.490 . S
C1032 H1022 0.930 . S
C1032 C1031 1.400 . S
C1032 C1035 1.386 . S
H1033 C1049 0.930 . S
H1034 C1050 0.931 . S
C1035 H1023 0.929 . S
C1035 C1029 1.390 . S
C1035 C1032 1.386 . S
C1036 C1031 1.490 . S
C1036 C1038 1.395 1_565 S
C1036 C1039 1.403 . S
H1037 C1043 0.930 . S
C1038 H1024 0.930 . S
C1038 C1036 1.395 1_545 S
C1038 C1041 1.403 . S
C1039 C1036 1.403 . S
C1039 C1040 1.524 . S
C1039 C1043 1.400 . S
C1040 H1025 0.960 . S
C1040 H1026 0.960 . S
C1040 H1027 0.960 . S
C1040 C1039 1.524 . S
C1041 C1038 1.403 . S
C1041 C1042 1.392 1_545 S
C1041 C1045 1.495 . S
C1042 C1041 1.392 1_565 S
C1042 C1043 1.385 . S
C1042 C1044 1.478 . S
C1043 H1037 0.930 . S
C1043 C1039 1.400 . S
C1043 C1042 1.385 . S
C1044 C1042 1.478 . S
C1044 C1046 1.381 1_565 S
C1044 C1050 1.383 . S
C1045 C1041 1.495 . S
C1045 H1051 0.959 . S
C1045 H1052 0.961 . S
C1045 H1053 0.960 . S
C1046 C1044 1.381 1_545 S
C1046 C1047 1.394 . S
C1046 H1054 0.930 . S
C1047 C1046 1.394 . S
C1047 C1048 1.383 1_545 S
C1047 H1055 0.929 . S
C1048 C1047 1.383 1_565 S
C1048 C1049 1.377 . S
C1049 H1033 0.930 . S
C1049 C1048 1.377 . S
C1049 C1050 1.379 . S
C1050 H1034 0.931 . S
C1050 C1044 1.383 . S
C1050 C1049 1.379 . S
H1051 C1045 0.959 . S
H1052 C1045 0.961 . S
H1053 C1045 0.960 . S
H1054 C1046 0.930 . S
H1055 C1047 0.929 . S
H1056 C1064 0.929 . S
H1057 C1066 0.930 . S
H1058 C1068 0.930 . S
H1059 C1071 0.929 . S
H1060 C1074 0.930 . S
H1061 C1076 0.960 . S
H1062 C1076 0.960 . S
H1063 C1076 0.960 . S
C1064 H1056 0.929 . S
C1064 C1065 1.377 . S
C1064 C1066 1.384 . S
C1065 C1064 1.377 . S
C1065 C1071 1.390 . S
C1066 H1057 0.930 . S
C1066 C1064 1.384 . S
C1066 C1067 1.372 . S
C1067 C1066 1.372 . S
C1067 C1068 1.400 . S
C1067 C1072 1.490 . S
C1068 H1058 0.930 . S
C1068 C1067 1.400 . S
C1068 C1071 1.386 . S
H1069 C1085 0.930 . S
H1070 C1086 0.931 . S
C1071 H1059 0.929 . S
C1071 C1065 1.390 . S
C1071 C1068 1.386 . S
C1072 C1067 1.490 . S
C1072 C1074 1.395 . S
C1072 C1075 1.403 . S
H1073 C1079 0.930 . S
C1074 H1060 0.930 . S
C1074 C1072 1.395 . S
C1074 C1077 1.403 . S
C1075 C1072 1.403 . S
C1075 C1076 1.524 . S
C1075 C1079 1.400 . S
C1076 H1061 0.960 . S
C1076 H1062 0.960 . S
C1076 H1063 0.960 . S
C1076 C1075 1.524 . S
C1077 C1074 1.403 . S
C1077 C1078 1.392 . S
C1077 C1081 1.495 . S
C1078 C1077 1.392 . S
C1078 C1079 1.385 . S
C1078 C1080 1.478 . S
C1079 H1073 0.930 . S
C1079 C1075 1.400 . S
C1079 C1078 1.385 . S
C1080 C1078 1.478 . S
C1080 C1082 1.381 . S
C1080 C1086 1.383 . S
C1081 C1077 1.495 . S
C1081 H1087 0.959 . S
C1081 H1088 0.961 . S
C1081 H1089 0.960 . S
C1082 C1080 1.381 . S
C1082 C1083 1.394 . S
C1082 H1090 0.930 . S
C1083 C1082 1.394 . S
C1083 C1084 1.383 . S
C1083 H1091 0.929 . S
C1084 C1083 1.383 . S
C1084 C1085 1.377 . S
C1085 H1069 0.930 . S
C1085 C1084 1.377 . S
C1085 C1086 1.379 . S
C1086 H1070 0.931 . S
C1086 C1080 1.383 . S
C1086 C1085 1.379 . S
H1087 C1081 0.959 . S
H1088 C1081 0.961 . S
H1089 C1081 0.960 . S
H1090 C1082 0.930 . S
H1091 C1083 0.929 . S
H1092 C1100 0.929 . S
H1093 C1102 0.930 . S
H1094 C1104 0.930 . S
H1095 C1107 0.929 . S
H1096 C1110 0.930 . S
H1097 C1112 0.960 . S
H1098 C1112 0.960 . S
H1099 C1112 0.960 . S
C1100 H1092 0.929 . S
C1100 C1101 1.377 . S
C1100 C1102 1.384 . S
C1101 C1100 1.377 . S
C1101 C1107 1.390 . S
C1102 H1093 0.930 . S
C1102 C1100 1.384 . S
C1102 C1103 1.372 . S
C1103 C1102 1.372 . S
C1103 C1104 1.400 . S
C1103 C1108 1.490 . S
C1104 H1094 0.930 . S
C1104 C1103 1.400 . S
C1104 C1107 1.386 . S
H1105 C1121 0.930 . S
H1106 C1122 0.931 . S
C1107 H1095 0.929 . S
C1107 C1101 1.390 . S
C1107 C1104 1.386 . S
C1108 C1103 1.490 . S
C1108 C1110 1.395 . S
C1108 C1111 1.403 . S
H1109 C1115 0.930 . S
C1110 H1096 0.930 . S
C1110 C1108 1.395 . S
C1110 C1113 1.403 . S
C1111 C1108 1.403 . S
C1111 C1112 1.524 . S
C1111 C1115 1.400 . S
C1112 H1097 0.960 . S
C1112 H1098 0.960 . S
C1112 H1099 0.960 . S
C1112 C1111 1.524 . S
C1113 C1110 1.403 . S
C1113 C1114 1.392 . S
C1113 C1117 1.495 . S
C1114 C1113 1.392 . S
C1114 C1115 1.385 . S
C1114 C1116 1.478 . S
C1115 H1109 0.930 . S
C1115 C1111 1.400 . S
C1115 C1114 1.385 . S
C1116 C1114 1.478 . S
C1116 C1118 1.381 . S
C1116 C1122 1.383 . S
C1117 C1113 1.495 . S
C1117 H1123 0.959 . S
C1117 H1124 0.961 . S
C1117 H1125 0.960 . S
C1118 C1116 1.381 . S
C1118 C1119 1.394 . S
C1118 H1126 0.930 . S
C1119 C1118 1.394 . S
C1119 C1120 1.383 . S
C1119 H1127 0.929 . S
C1120 C1119 1.383 . S
C1120 C1121 1.377 . S
C1121 H1105 0.930 . S
C1121 C1120 1.377 . S
C1121 C1122 1.379 . S
C1122 H1106 0.931 . S
C1122 C1116 1.383 . S
C1122 C1121 1.379 . S
H1123 C1117 0.959 . S
H1124 C1117 0.961 . S
H1125 C1117 0.960 . S
H1126 C1118 0.930 . S
H1127 C1119 0.929 . S
C273 C82 1.614 . S
C292 C114 1.802 . S
C328 C154 1.813 . S
C309 C95 1.605 . S
C364 C194 1.800 . S
C345 C56 1.615 . S
C400 C234 1.816 . S
C381 C69 1.601 . S
C436 C123 1.819 . S
C417 C30 1.598 . S
C453 C43 1.598 . S
C472 C163 1.816 . S
C489 C4 1.612 . S
C508 C203 1.809 . S
C525 C17 1.606 1_655 S
C544 C243 1.806 . S
C580 C120 0.435 . S
C561 C74 0.415 . S
C616 C160 0.399 . S
C597 C87 0.409 . S
C652 C200 0.322 . S
C633 C100 0.384 . S
C669 C61 0.399 . S
C688 C240 0.389 . S
C705 C22 0.407 . S
C724 C111 0.409 . S
C760 C151 0.327 . S
C741 C35 0.399 . S
C796 C191 0.436 . S
C777 C48 0.391 . S
C813 C9 0.413 . S
C832 C231 0.385 . S
C849 C73 1.857 . S
C868 C115 2.037 . S
C885 C86 1.863 . S
C904 C155 2.044 . S
C940 C195 2.045 . S
C921 C99 1.857 . S
C976 C235 2.056 . S
C957 C60 1.864 . S
C993 C21 1.864 . S
C1012 C106 2.051 . S
C1048 C146 2.041 . S
C1029 C34 1.868 . S
C1084 C186 2.047 . S
C1065 C47 1.865 . S
C1101 C8 1.858 . S
C1120 C226 2.049 . S
