# Generated by pormake.
# Topology ptr, (4,4)-cn, num edge types: 1
# Building blocks:
#     Node 0, Type 0, BuildingBlock: NAHDIM_clean_sbu_0, # of connection points: 4
#     Node 1, Type 0, BuildingBlock: NAHDIM_clean_sbu_0, # of connection points: 4
#     Node 2, Type 0, BuildingBlock: NAHDIM_clean_sbu_0, # of connection points: 4
#     Node 3, Type 0, BuildingBlock: NAHDIM_clean_sbu_0, # of connection points: 4
#     Node 4, Type 0, BuildingBlock: NAHDIM_clean_sbu_0, # of connection points: 4
#     Node 5, Type 0, BuildingBlock: NAHDIM_clean_sbu_0, # of connection points: 4
#     Node 6, Type 0, BuildingBlock: NAHDIM_clean_sbu_0, # of connection points: 4
#     Node 7, Type 0, BuildingBlock: NAHDIM_clean_sbu_0, # of connection points: 4
#     Node 8, Type 0, BuildingBlock: NAHDIM_clean_sbu_0, # of connection points: 4
#     Node 9, Type 0, BuildingBlock: NAHDIM_clean_sbu_0, # of connection points: 4
#     Node 10, Type 0, BuildingBlock: NAHDIM_clean_sbu_0, # of connection points: 4
#     Node 11, Type 0, BuildingBlock: NAHDIM_clean_sbu_0, # of connection points: 4
#     Node 12, Type 0, BuildingBlock: NAHDIM_clean_sbu_0, # of connection points: 4
#     Node 13, Type 0, BuildingBlock: NAHDIM_clean_sbu_0, # of connection points: 4
#     Node 14, Type 0, BuildingBlock: NAHDIM_clean_sbu_0, # of connection points: 4
#     Node 15, Type 0, BuildingBlock: NAHDIM_clean_sbu_0, # of connection points: 4
#     Node 16, Type 0, BuildingBlock: NAHDIM_clean_sbu_0, # of connection points: 4
#     Node 17, Type 0, BuildingBlock: NAHDIM_clean_sbu_0, # of connection points: 4
#     Node 18, Type 1, BuildingBlock: AZAVOO_clean_linker_0, # of connection points: 4
#     Node 19, Type 1, BuildingBlock: AZAVOO_clean_linker_0, # of connection points: 4
#     Node 20, Type 1, BuildingBlock: AZAVOO_clean_linker_0, # of connection points: 4
#     Node 21, Type 1, BuildingBlock: AZAVOO_clean_linker_0, # of connection points: 4
#     Node 22, Type 1, BuildingBlock: AZAVOO_clean_linker_0, # of connection points: 4
#     Node 23, Type 1, BuildingBlock: AZAVOO_clean_linker_0, # of connection points: 4
#     Node 24, Type 1, BuildingBlock: AZAVOO_clean_linker_0, # of connection points: 4
#     Node 25, Type 1, BuildingBlock: AZAVOO_clean_linker_0, # of connection points: 4
#     Node 26, Type 1, BuildingBlock: AZAVOO_clean_linker_0, # of connection points: 4
#     Node 27, Type 1, BuildingBlock: AZAVOO_clean_linker_0, # of connection points: 4
#     Node 28, Type 1, BuildingBlock: AZAVOO_clean_linker_0, # of connection points: 4
#     Node 29, Type 1, BuildingBlock: AZAVOO_clean_linker_0, # of connection points: 4
#     Node 30, Type 1, BuildingBlock: AZAVOO_clean_linker_0, # of connection points: 4
#     Node 31, Type 1, BuildingBlock: AZAVOO_clean_linker_0, # of connection points: 4
#     Node 32, Type 1, BuildingBlock: AZAVOO_clean_linker_0, # of connection points: 4
#     Node 33, Type 1, BuildingBlock: AZAVOO_clean_linker_0, # of connection points: 4
#     Node 34, Type 1, BuildingBlock: AZAVOO_clean_linker_0, # of connection points: 4
#     Node 35, Type 1, BuildingBlock: AZAVOO_clean_linker_0, # of connection points: 4
#     Edge 36, Type (0, 1), BuildingBlock: TEMPAE_clean_linker_10, # of connection points: 2
#     Edge 37, Type (0, 1), BuildingBlock: TEMPAE_clean_linker_10, # of connection points: 2
#     Edge 38, Type (0, 1), BuildingBlock: TEMPAE_clean_linker_10, # of connection points: 2
#     Edge 39, Type (0, 1), BuildingBlock: TEMPAE_clean_linker_10, # of connection points: 2
#     Edge 40, Type (0, 1), BuildingBlock: TEMPAE_clean_linker_10, # of connection points: 2
#     Edge 41, Type (0, 1), BuildingBlock: TEMPAE_clean_linker_10, # of connection points: 2
#     Edge 42, Type (0, 1), BuildingBlock: TEMPAE_clean_linker_10, # of connection points: 2
#     Edge 43, Type (0, 1), BuildingBlock: TEMPAE_clean_linker_10, # of connection points: 2
#     Edge 44, Type (0, 1), BuildingBlock: TEMPAE_clean_linker_10, # of connection points: 2
#     Edge 45, Type (0, 1), BuildingBlock: TEMPAE_clean_linker_10, # of connection points: 2
#     Edge 46, Type (0, 1), BuildingBlock: TEMPAE_clean_linker_10, # of connection points: 2
#     Edge 47, Type (0, 1), BuildingBlock: TEMPAE_clean_linker_10, # of connection points: 2
#     Edge 48, Type (0, 1), BuildingBlock: TEMPAE_clean_linker_10, # of connection points: 2
#     Edge 49, Type (0, 1), BuildingBlock: TEMPAE_clean_linker_10, # of connection points: 2
#     Edge 50, Type (0, 1), BuildingBlock: TEMPAE_clean_linker_10, # of connection points: 2
#     Edge 51, Type (0, 1), BuildingBlock: TEMPAE_clean_linker_10, # of connection points: 2
#     Edge 52, Type (0, 1), BuildingBlock: TEMPAE_clean_linker_10, # of connection points: 2
#     Edge 53, Type (0, 1), BuildingBlock: TEMPAE_clean_linker_10, # of connection points: 2
#     Edge 54, Type (0, 1), BuildingBlock: TEMPAE_clean_linker_10, # of connection points: 2
#     Edge 55, Type (0, 1), BuildingBlock: TEMPAE_clean_linker_10, # of connection points: 2
#     Edge 56, Type (0, 1), BuildingBlock: TEMPAE_clean_linker_10, # of connection points: 2
#     Edge 57, Type (0, 1), BuildingBlock: TEMPAE_clean_linker_10, # of connection points: 2
#     Edge 58, Type (0, 1), BuildingBlock: TEMPAE_clean_linker_10, # of connection points: 2
#     Edge 59, Type (0, 1), BuildingBlock: TEMPAE_clean_linker_10, # of connection points: 2
#     Edge 60, Type (0, 1), BuildingBlock: TEMPAE_clean_linker_10, # of connection points: 2
#     Edge 61, Type (0, 1), BuildingBlock: TEMPAE_clean_linker_10, # of connection points: 2
#     Edge 62, Type (0, 1), BuildingBlock: TEMPAE_clean_linker_10, # of connection points: 2
#     Edge 63, Type (0, 1), BuildingBlock: TEMPAE_clean_linker_10, # of connection points: 2
#     Edge 64, Type (0, 1), BuildingBlock: TEMPAE_clean_linker_10, # of connection points: 2
#     Edge 65, Type (0, 1), BuildingBlock: TEMPAE_clean_linker_10, # of connection points: 2
#     Edge 66, Type (0, 1), BuildingBlock: TEMPAE_clean_linker_10, # of connection points: 2
#     Edge 67, Type (0, 1), BuildingBlock: TEMPAE_clean_linker_10, # of connection points: 2
#     Edge 68, Type (0, 1), BuildingBlock: TEMPAE_clean_linker_10, # of connection points: 2
#     Edge 69, Type (0, 1), BuildingBlock: TEMPAE_clean_linker_10, # of connection points: 2
#     Edge 70, Type (0, 1), BuildingBlock: TEMPAE_clean_linker_10, # of connection points: 2
#     Edge 71, Type (0, 1), BuildingBlock: TEMPAE_clean_linker_10, # of connection points: 2
#     Edge 72, Type (0, 1), BuildingBlock: TEMPAE_clean_linker_10, # of connection points: 2
#     Edge 73, Type (0, 1), BuildingBlock: TEMPAE_clean_linker_10, # of connection points: 2
#     Edge 74, Type (0, 1), BuildingBlock: TEMPAE_clean_linker_10, # of connection points: 2
#     Edge 75, Type (0, 1), BuildingBlock: TEMPAE_clean_linker_10, # of connection points: 2
#     Edge 76, Type (0, 1), BuildingBlock: TEMPAE_clean_linker_10, # of connection points: 2
#     Edge 77, Type (0, 1), BuildingBlock: TEMPAE_clean_linker_10, # of connection points: 2
#     Edge 78, Type (0, 1), BuildingBlock: TEMPAE_clean_linker_10, # of connection points: 2
#     Edge 79, Type (0, 1), BuildingBlock: TEMPAE_clean_linker_10, # of connection points: 2
#     Edge 80, Type (0, 1), BuildingBlock: TEMPAE_clean_linker_10, # of connection points: 2
#     Edge 81, Type (0, 1), BuildingBlock: TEMPAE_clean_linker_10, # of connection points: 2
#     Edge 82, Type (0, 1), BuildingBlock: TEMPAE_clean_linker_10, # of connection points: 2
#     Edge 83, Type (0, 1), BuildingBlock: TEMPAE_clean_linker_10, # of connection points: 2
#     Edge 84, Type (0, 1), BuildingBlock: TEMPAE_clean_linker_10, # of connection points: 2
#     Edge 85, Type (0, 1), BuildingBlock: TEMPAE_clean_linker_10, # of connection points: 2
#     Edge 86, Type (0, 1), BuildingBlock: TEMPAE_clean_linker_10, # of connection points: 2
#     Edge 87, Type (0, 1), BuildingBlock: TEMPAE_clean_linker_10, # of connection points: 2
#     Edge 88, Type (0, 1), BuildingBlock: TEMPAE_clean_linker_10, # of connection points: 2
#     Edge 89, Type (0, 1), BuildingBlock: TEMPAE_clean_linker_10, # of connection points: 2
#     Edge 90, Type (0, 1), BuildingBlock: TEMPAE_clean_linker_10, # of connection points: 2
#     Edge 91, Type (0, 1), BuildingBlock: TEMPAE_clean_linker_10, # of connection points: 2
#     Edge 92, Type (0, 1), BuildingBlock: TEMPAE_clean_linker_10, # of connection points: 2
#     Edge 93, Type (0, 1), BuildingBlock: TEMPAE_clean_linker_10, # of connection points: 2
#     Edge 94, Type (0, 1), BuildingBlock: TEMPAE_clean_linker_10, # of connection points: 2
#     Edge 95, Type (0, 1), BuildingBlock: TEMPAE_clean_linker_10, # of connection points: 2
#     Edge 96, Type (0, 1), BuildingBlock: TEMPAE_clean_linker_10, # of connection points: 2
#     Edge 97, Type (0, 1), BuildingBlock: TEMPAE_clean_linker_10, # of connection points: 2
#     Edge 98, Type (0, 1), BuildingBlock: TEMPAE_clean_linker_10, # of connection points: 2
#     Edge 99, Type (0, 1), BuildingBlock: TEMPAE_clean_linker_10, # of connection points: 2
#     Edge 100, Type (0, 1), BuildingBlock: TEMPAE_clean_linker_10, # of connection points: 2
#     Edge 101, Type (0, 1), BuildingBlock: TEMPAE_clean_linker_10, # of connection points: 2
#     Edge 102, Type (0, 1), BuildingBlock: TEMPAE_clean_linker_10, # of connection points: 2
#     Edge 103, Type (0, 1), BuildingBlock: TEMPAE_clean_linker_10, # of connection points: 2
#     Edge 104, Type (0, 1), BuildingBlock: TEMPAE_clean_linker_10, # of connection points: 2
#     Edge 105, Type (0, 1), BuildingBlock: TEMPAE_clean_linker_10, # of connection points: 2
#     Edge 106, Type (0, 1), BuildingBlock: TEMPAE_clean_linker_10, # of connection points: 2
#     Edge 107, Type (0, 1), BuildingBlock: TEMPAE_clean_linker_10, # of connection points: 2
# Relax obj value: 0.100
# Max RMSD: 0.291
# Mean RMSD: 0.174
data_MOF--net-ptr--node1-NAHDIM_clean_sbu_0--node2-AZAVOO_clean_linker_0--edge1-TEMPAE_clean_linker_10
_symmetry_space_group_name_H-M    P1
_symmetry_Int_Tables_number       1
_symmetry_cell_setting            triclinic
loop_
_symmetry_equiv_pos_as_xyz
'x, y, z'
_cell_length_a     83.923668
_cell_length_b     81.205299
_cell_length_c     68.639979
_cell_angle_alpha  94.351519
_cell_angle_beta   91.678668
_cell_angle_gamma 122.09398
loop_
_atom_site_label
_atom_site_type_symbol
_atom_site_fract_x
_atom_site_fract_y
_atom_site_fract_z
_atom_type_partial_charge
C0 C 0.02546 0.35161 0.04843 0.0
O1 O 0.00816 0.34499 0.05314 0.0
O2 O 0.99176 0.33784 0.00704 0.0
Zn3 Zn 0.0115 0.36451 0.02006 0.0
O4 O 0.00112 0.37479 0.0404 0.0
C5 C 0.0095 0.38111 0.98637 0.0
O6 O 0.99196 0.36647 0.98654 0.0
O7 O 0.03121 0.36162 0.03393 0.0
C8 C 0.98677 0.3761 0.03792 0.0
O9 O 0.97686 0.3698 0.02087 0.0
C10 C 0.9763 0.32587 0.01388 0.0
O11 O 0.97211 0.33085 0.03071 0.0
O12 O 0.02176 0.38334 -0.00059 0.0
C13 C 0.66526 0.63861 0.04623 0.0
O14 O 0.65545 0.6462 0.04127 0.0
O15 O 0.63795 0.64474 0.07773 0.0
Zn16 Zn 0.63323 0.61905 0.06579 0.0
O17 O 0.61541 0.60929 0.04151 0.0
C18 C 0.62806 0.60309 0.10304 0.0
O19 O 0.64135 0.6211 0.10967 0.0
O20 O 0.65831 0.62507 0.05745 0.0
C21 C 0.60063 0.60993 0.03984 0.0
O22 O 0.59612 0.61721 0.05487 0.0
C23 C 0.62903 0.64816 0.09036 0.0
O24 O 0.61407 0.63352 0.09699 0.0
O25 O 0.62283 0.59887 0.08484 0.0
C26 C 0.38718 0.04007 0.00841 0.0
O27 O 0.39841 0.03856 0.99648 0.0
O28 O 0.35808 0.98372 0.02959 0.0
Zn29 Zn 0.38327 0.00556 0.02302 0.0
O30 O 0.3898 0.99882 0.99696 0.0
C31 C 0.40717 0.02259 0.05944 0.0
O32 O 0.39925 0.03285 0.06107 0.0
O33 O 0.38039 0.02846 0.02152 0.0
C34 C 0.39604 0.98763 0.99489 0.0
O35 O 0.39778 0.97969 0.01015 0.0
C36 C 0.34329 0.98156 0.02117 0.0
O37 O 0.34504 0.99247 0.00719 0.0
O38 O 0.4028 0.01057 0.04428 0.0
C39 C 0.96879 0.6372 0.01576 0.0
O40 O 0.97767 0.63079 0.00536 0.0
O41 O 0.01025 0.66264 0.06318 0.0
Zn42 Zn 0.99153 0.63668 0.04792 0.0
O43 O 0.00343 0.62829 0.02768 0.0
C44 C 0.97695 0.61859 0.08371 0.0
O45 O 0.97916 0.63544 0.08994 0.0
O46 O 0.97178 0.63988 0.03435 0.0
C47 C 0.01349 0.62136 0.03151 0.0
O48 O 0.01784 0.62069 0.04985 0.0
C49 C 0.02808 0.67178 0.06303 0.0
O50 O 0.03572 0.66411 0.0523 0.0
O51 O 0.98057 0.61593 0.06633 0.0
C52 C 0.34078 0.38121 0.02837 0.0
O53 O 0.35565 0.38892 0.04099 0.0
O54 O 0.36119 0.35753 0.98749 0.0
Zn55 Zn 0.36717 0.38293 0.00147 0.0
O56 O 0.38555 0.39068 0.02506 0.0
C57 C 0.39492 0.40919 0.97852 0.0
O58 O 0.40366 0.40163 0.98657 0.0
O59 O 0.34257 0.37837 0.01032 0.0
C60 C 0.39618 0.38424 0.02816 0.0
O61 O 0.39616 0.37169 0.01489 0.0
C62 C 0.35175 0.3421 0.99591 0.0
O63 O 0.34703 0.3435 0.01376 0.0
O64 O 0.37828 0.40353 0.98287 0.0
C65 C 0.62602 0.97702 0.07049 0.0
O66 O 0.63089 0.99317 0.08156 0.0
O67 O 0.6436 0.01452 0.03602 0.0
Zn68 Zn 0.61767 0.99667 0.04427 0.0
O69 O 0.61092 0.00881 0.0666 0.0
C70 C 0.59951 0.00164 0.01219 0.0
O71 O 0.61183 0.01992 0.01898 0.0
O72 O 0.61858 0.97424 0.05321 0.0
C73 C 0.59349 0.00045 0.06927 0.0
O74 O 0.58118 0.98553 0.05682 0.0
C75 C 0.65394 0.03304 0.03732 0.0
O76 O 0.64776 0.04364 0.04524 0.0
O77 O 0.59898 0.98811 0.02088 0.0
C78 C 0.68576 0.685 0.37712 0.0
O79 O 0.66761 0.6768 0.37898 0.0
O80 O 0.65565 0.67818 0.33664 0.0
Zn81 Zn 0.67644 0.7037 0.35059 0.0
O82 O 0.6662 0.71489 0.36995 0.0
C83 C 0.69159 0.71816 0.31387 0.0
O84 O 0.68471 0.69964 0.30812 0.0
O85 O 0.69357 0.69798 0.36537 0.0
C86 C 0.64948 0.70556 0.37525 0.0
O87 O 0.63765 0.68744 0.36761 0.0
C88 C 0.6436 0.67619 0.32351 0.0
O89 O 0.64425 0.69175 0.31828 0.0
O90 O 0.69016 0.72315 0.33141 0.0
C91 C 0.32285 0.96236 0.37857 0.0
O92 O 0.31553 0.97241 0.37349 0.0
O93 O 0.30694 0.98055 0.41682 0.0
Zn94 Zn 0.29532 0.9529 0.40471 0.0
O95 O 0.27575 0.94683 0.38294 0.0
C96 C 0.26703 0.92666 0.42846 0.0
O97 O 0.25672 0.93129 0.4183 0.0
O98 O 0.31617 0.95173 0.39249 0.0
C99 C 0.26878 0.93085 0.37195 0.0
O100 O 0.2738 0.91858 0.37594 0.0
C101 C 0.29926 0.98637 0.42881 0.0
O102 O 0.28241 0.97375 0.43405 0.0
O103 O 0.28422 0.93407 0.4251 0.0
C104 C 0.06864 0.37712 0.33824 0.0
O105 O 0.08135 0.37513 0.32956 0.0
O106 O 0.03717 0.32369 0.36638 0.0
Zn107 Zn 0.06199 0.34364 0.35719 0.0
O108 O 0.06761 0.33301 0.33284 0.0
C109 C 0.07793 0.35558 0.39613 0.0
O110 O 0.06136 0.35332 0.39803 0.0
O111 O 0.05935 0.36575 0.3509 0.0
C112 C 0.07116 0.31961 0.33215 0.0
O113 O 0.07123 0.31186 0.34824 0.0
C114 C 0.0229 0.31061 0.35531 0.0
O115 O 0.0243 0.30866 0.33638 0.0
O116 O 0.08214 0.35258 0.37916 0.0
C117 C 0.64449 0.97355 0.35593 0.0
O118 O 0.66272 0.98514 0.35458 0.0
O119 O 0.6773 0.98665 0.39595 0.0
Zn120 Zn 0.65929 0.95947 0.38241 0.0
O121 O 0.67173 0.95102 0.36288 0.0
C122 C 0.6592 0.94322 0.4179 0.0
O123 O 0.67595 0.95943 0.4207 0.0
O124 O 0.63879 0.9603 0.36746 0.0
C125 C 0.68483 0.94813 0.3672 0.0
O126 O 0.69154 0.95131 0.38555 0.0
C127 C 0.69423 0.99786 0.39187 0.0
O128 O 0.70105 0.99175 0.37814 0.0
O129 O 0.64884 0.94003 0.40241 0.0
C130 C 0.00675 0.70442 0.36209 0.0
O131 O 0.01532 0.69543 0.36657 0.0
O132 O 0.0354 0.69911 0.32915 0.0
Zn133 Zn 0.03991 0.72414 0.34319 0.0
O134 O 0.05776 0.73272 0.3673 0.0
C135 C 0.06112 0.744 0.31212 0.0
O136 O 0.06359 0.7293 0.31142 0.0
O137 O 0.01486 0.71858 0.35169 0.0
C138 C 0.0739 0.73484 0.36743 0.0
O139 O 0.0797 0.73132 0.35098 0.0
C140 C 0.03808 0.68696 0.3369 0.0
O141 O 0.04447 0.69051 0.35541 0.0
O142 O 0.05096 0.74515 0.32487 0.0
C143 C 0.30455 0.32187 0.39306 0.0
O144 O 0.31514 0.34103 0.39508 0.0
O145 O 0.298 0.35299 0.36666 0.0
Zn146 Zn 0.27773 0.33071 0.37981 0.0
O147 O 0.27082 0.33949 0.40449 0.0
C148 C 0.25594 0.30652 0.34512 0.0
O149 O 0.27088 0.30533 0.34365 0.0
O150 O 0.28733 0.31353 0.38664 0.0
C151 C 0.26841 0.35369 0.4066 0.0
O152 O 0.27083 0.36404 0.3919 0.0
C153 C 0.31116 0.36971 0.37452 0.0
O154 O 0.31193 0.37439 0.39342 0.0
O155 O 0.25518 0.31612 0.36018 0.0
C156 C 0.35602 0.0265 0.71055 0.0
O157 O 0.33812 0.01739 0.71399 0.0
O158 O 0.32245 0.01024 0.67013 0.0
Zn159 Zn 0.34103 0.03789 0.68165 0.0
O160 O 0.32926 0.04693 0.70147 0.0
C161 C 0.34032 0.05421 0.64632 0.0
O162 O 0.32243 0.04017 0.64544 0.0
O163 O 0.36153 0.0372 0.69655 0.0
C164 C 0.32042 0.05536 0.69846 0.0
O165 O 0.31794 0.0588 0.68059 0.0
C166 C 0.30474 0.00261 0.66775 0.0
O167 O 0.29761 0.01324 0.67246 0.0
O168 O 0.35142 0.05606 0.66051 0.0
C169 C 0.00726 0.30097 0.72684 0.0
O170 O 0.00598 0.31003 0.74284 0.0
O171 O 0.97053 0.30583 0.73833 0.0
Zn172 Zn 0.96688 0.28092 0.72527 0.0
O173 O 0.94897 0.27147 0.70092 0.0
C174 C 0.9625 0.26443 0.76192 0.0
O175 O 0.97613 0.28238 0.76828 0.0
O176 O 0.99222 0.28722 0.71722 0.0
C177 C 0.94236 0.28112 0.69444 0.0
O178 O 0.94698 0.29786 0.70409 0.0
C179 C 0.95996 0.30702 0.75047 0.0
O180 O 0.94489 0.29095 0.75494 0.0
O181 O 0.9566 0.26025 0.74389 0.0
C182 C 0.70387 0.69398 0.68924 0.0
O183 O 0.69519 0.68136 0.70197 0.0
O184 O 0.70411 0.65366 0.6982 0.0
Zn185 Zn 0.72675 0.67738 0.68943 0.0
O186 O 0.73579 0.66948 0.66584 0.0
C187 C 0.74317 0.69444 0.72834 0.0
O188 O 0.72618 0.69107 0.73014 0.0
O189 O 0.71831 0.69538 0.68206 0.0
C190 C 0.72429 0.6546 0.65401 0.0
O191 O 0.7064 0.64432 0.65748 0.0
C192 C 0.70436 0.64417 0.71195 0.0
O193 O 0.72061 0.64882 0.72058 0.0
O194 O 0.74721 0.69032 0.7117 0.0
C195 C 0.31253 0.31272 0.68662 0.0
O196 O 0.33056 0.32105 0.68406 0.0
O197 O 0.34425 0.3224 0.72717 0.0
Zn198 Zn 0.32405 0.2961 0.71341 0.0
O199 O 0.33464 0.28573 0.69352 0.0
C200 C 0.32221 0.27895 0.74857 0.0
O201 O 0.33958 0.29423 0.75115 0.0
O202 O 0.30543 0.30023 0.69895 0.0
C203 C 0.34783 0.28288 0.69744 0.0
O204 O 0.35565 0.2872 0.71546 0.0
C205 C 0.36038 0.33341 0.72101 0.0
O206 O 0.36479 0.32756 0.70484 0.0
O207 O 0.31203 0.27662 0.73324 0.0
C208 C 0.67295 0.03564 0.68324 0.0
O209 O 0.67786 0.02286 0.6848 0.0
O210 O 0.69664 0.02499 0.65009 0.0
Zn211 Zn 0.70598 0.05165 0.66419 0.0
O212 O 0.72393 0.05815 0.6878 0.0
C213 C 0.72741 0.06973 0.63232 0.0
O214 O 0.72785 0.05375 0.63097 0.0
O215 O 0.68327 0.05054 0.67435 0.0
C216 C 0.74089 0.06252 0.68772 0.0
O217 O 0.74805 0.06259 0.67095 0.0
C218 C 0.70267 0.0141 0.65399 0.0
O219 O 0.71642 0.02037 0.66777 0.0
O220 O 0.71849 0.07223 0.64567 0.0
C221 C 0.94177 0.62389 0.71254 0.0
O222 O 0.94597 0.62814 0.69456 0.0
O223 O 0.96247 0.67157 0.70234 0.0
Zn224 Zn 0.9369 0.65584 0.71229 0.0
O225 O 0.93333 0.67115 0.73426 0.0
C226 C 0.91843 0.65899 0.67882 0.0
O227 O 0.93217 0.67738 0.68296 0.0
O228 O 0.93627 0.63329 0.72292 0.0
C229 C 0.91753 0.66954 0.73584 0.0
O230 O 0.90362 0.65836 0.72237 0.0
C231 C 0.97331 0.69005 0.70378 0.0
O232 O 0.96786 0.70102 0.71245 0.0
O233 O 0.91718 0.64648 0.68976 0.0
H234 H 0.15547 0.3391 0.02845 0.0
H235 H 0.25137 0.27174 0.16311 0.0
H236 H 0.15249 0.33553 0.13609 0.0
H237 H 0.13039 0.34379 0.12349 0.0
H238 H 0.08579 0.28263 0.11762 0.0
H239 H 0.10829 0.27448 0.12997 0.0
H240 H 0.17837 0.3359 0.10867 0.0
H241 H 0.17319 0.34294 0.07587 0.0
H242 H 0.12661 0.28298 0.06262 0.0
H243 H 0.13209 0.27611 0.09542 0.0
H244 H 0.20733 0.33401 0.13351 0.0
H245 H 0.23255 0.3464 0.11135 0.0
H246 H 0.20051 0.29245 0.07302 0.0
H247 H 0.17509 0.28008 0.09544 0.0
H248 H 0.20793 0.32059 0.17261 0.0
H249 H 0.23483 0.31779 0.18122 0.0
H250 H 0.20914 0.2636 0.14306 0.0
H251 H 0.1822 0.26647 0.13478 0.0
H252 H 0.17613 0.32028 0.19393 0.0
H253 H 0.18682 0.31872 0.22678 0.0
H254 H 0.17347 0.26019 0.20933 0.0
H255 H 0.162 0.26159 0.17658 0.0
H256 H 0.14848 0.32661 0.17455 0.0
H257 H 0.13233 0.32778 0.20315 0.0
H258 H 0.10746 0.26582 0.2053 0.0
H259 H 0.1234 0.26469 0.17627 0.0
O260 O 0.15735 0.33597 0.0413 0.0
O261 O 0.13347 0.30502 0.03526 0.0
O262 O 0.25345 0.30108 0.17946 0.0
O263 O 0.24089 0.27321 0.15997 0.0
C264 C 0.14623 0.29961 0.13861 0.0
C265 C 0.15862 0.30123 0.12433 0.0
C266 C 0.17413 0.29966 0.12932 0.0
C267 C 0.17659 0.29517 0.14819 0.0
C268 C 0.16398 0.29314 0.16241 0.0
C269 C 0.14887 0.29558 0.15767 0.0
C270 C 0.13194 0.30444 0.13393 0.0
C271 C 0.13786 0.32397 0.13242 0.0
C272 C 0.1252 0.32865 0.12528 0.0
C273 C 0.10635 0.31385 0.11951 0.0
C274 C 0.10028 0.29431 0.12176 0.0
C275 C 0.11301 0.28964 0.12896 0.0
C276 C 0.15573 0.30545 0.1043 0.0
C277 C 0.16718 0.32427 0.09858 0.0
C278 C 0.16414 0.32827 0.07987 0.0
C279 C 0.14951 0.31351 0.0666 0.0
C280 C 0.13802 0.29467 0.07246 0.0
C281 C 0.14112 0.29069 0.09116 0.0
C282 C 0.18951 0.30615 0.11608 0.0
C283 C 0.20581 0.32482 0.12039 0.0
C284 C 0.22007 0.33193 0.10764 0.0
C285 C 0.21834 0.32044 0.0904 0.0
C286 C 0.20212 0.30156 0.08623 0.0
C287 C 0.18768 0.29449 0.09896 0.0
C288 C 0.19304 0.29361 0.15326 0.0
C289 C 0.20808 0.30806 0.16624 0.0
C290 C 0.22346 0.30646 0.17107 0.0
C291 C 0.22411 0.29043 0.16287 0.0
C292 C 0.20907 0.2761 0.14969 0.0
C293 C 0.19368 0.2777 0.14491 0.0
C294 C 0.16817 0.291 0.18291 0.0
C295 C 0.175 0.30691 0.19735 0.0
C296 C 0.18133 0.30608 0.21603 0.0
C297 C 0.18119 0.28942 0.22057 0.0
C298 C 0.17362 0.27317 0.20631 0.0
C299 C 0.16714 0.27396 0.18761 0.0
C300 C 0.13695 0.29553 0.17322 0.0
C301 C 0.13913 0.31319 0.18084 0.0
C302 C 0.13012 0.31388 0.19734 0.0
C303 C 0.1188 0.29693 0.20656 0.0
C304 C 0.11601 0.27908 0.19842 0.0
C305 C 0.12508 0.27841 0.18189 0.0
C306 C 0.14623 0.31783 0.04677 0.0
C307 C 0.2404 0.28863 0.16798 0.0
H308 H 0.65601 0.82738 0.04744 0.0
H309 H 0.74405 0.98908 0.21694 0.0
H310 H 0.66586 0.81969 0.15096 0.0
H311 H 0.65377 0.78581 0.13859 0.0
H312 H 0.71024 0.79715 0.14507 0.0
H313 H 0.72228 0.83126 0.15751 0.0
H314 H 0.66617 0.84936 0.13211 0.0
H315 H 0.65667 0.83927 0.09708 0.0
H316 H 0.71125 0.8478 0.08798 0.0
H317 H 0.72063 0.85808 0.12303 0.0
H318 H 0.67344 0.88156 0.1669 0.0
H319 H 0.66032 0.8965 0.14813 0.0
H320 H 0.70426 0.91351 0.10838 0.0
H321 H 0.71786 0.89909 0.12794 0.0
H322 H 0.68898 0.89168 0.20556 0.0
H323 H 0.69591 0.92318 0.221 0.0
H324 H 0.74543 0.95277 0.18868 0.0
H325 H 0.73851 0.9211 0.17359 0.0
H326 H 0.68666 0.85535 0.21862 0.0
H327 H 0.68927 0.86773 0.2527 0.0
H328 H 0.74689 0.91428 0.24729 0.0
H329 H 0.74399 0.90177 0.21285 0.0
H330 H 0.67769 0.81965 0.19226 0.0
H331 H 0.67791 0.79674 0.21301 0.0
H332 H 0.73829 0.83564 0.22549 0.0
H333 H 0.73804 0.85793 0.20352 0.0
O334 O 0.66007 0.83148 0.06124 0.0
O335 O 0.68831 0.836 0.05737 0.0
O336 O 0.71551 0.96048 0.22751 0.0
O337 O 0.74093 0.97642 0.21097 0.0
C338 C 0.70176 0.84826 0.16313 0.0
C339 C 0.70004 0.86082 0.15132 0.0
C340 C 0.70331 0.87884 0.15986 0.0
C341 C 0.70967 0.88495 0.17989 0.0
C342 C 0.7117 0.87253 0.19169 0.0
C343 C 0.70755 0.85408 0.18335 0.0
C344 C 0.69497 0.82798 0.15486 0.0
C345 C 0.67567 0.81495 0.14941 0.0
C346 C 0.66879 0.79561 0.14238 0.0
C347 C 0.68107 0.78887 0.14077 0.0
C348 C 0.70044 0.80194 0.14628 0.0
C349 C 0.70735 0.82139 0.15326 0.0
C350 C 0.69417 0.85468 0.13005 0.0
C351 C 0.6761 0.8492 0.12249 0.0
C352 C 0.67069 0.84337 0.10249 0.0
C353 C 0.68322 0.84278 0.08971 0.0
C354 C 0.70127 0.84814 0.0974 0.0
C355 C 0.70667 0.85401 0.1174 0.0
C356 C 0.6967 0.88943 0.14889 0.0
C357 C 0.68046 0.88883 0.15435 0.0
C358 C 0.6728 0.89708 0.14341 0.0
C359 C 0.68108 0.90592 0.12659 0.0
C360 C 0.6976 0.90685 0.12131 0.0
C361 C 0.70538 0.89865 0.13241 0.0
C362 C 0.71339 0.90411 0.18866 0.0
C363 C 0.70137 0.90497 0.20192 0.0
C364 C 0.70533 0.92299 0.21067 0.0
C365 C 0.72128 0.94051 0.20614 0.0
C366 C 0.73308 0.93957 0.19255 0.0
C367 C 0.72914 0.92152 0.18387 0.0
C368 C 0.71513 0.87764 0.21327 0.0
C369 C 0.70008 0.8678 0.22497 0.0
C370 C 0.70162 0.87493 0.24449 0.0
C371 C 0.71827 0.89209 0.25272 0.0
C372 C 0.7338 0.90117 0.24131 0.0
C373 C 0.73224 0.89398 0.22171 0.0
C374 C 0.70788 0.8403 0.19613 0.0
C375 C 0.69102 0.82305 0.19919 0.0
C376 C 0.69115 0.81011 0.2113 0.0
C377 C 0.70812 0.81437 0.22103 0.0
C378 C 0.72502 0.83176 0.21801 0.0
C379 C 0.7249 0.84458 0.20561 0.0
C380 C 0.67743 0.83656 0.06846 0.0
C381 C 0.72566 0.95968 0.21555 0.0
H382 H 0.13445 0.84089 0.03119 0.0
H383 H 0.29737 0.98492 0.17754 0.0
H384 H 0.12783 0.85416 0.13364 0.0
H385 H 0.10146 0.8211 0.12182 0.0
H386 H 0.13052 0.79694 0.14913 0.0
H387 H 0.15659 0.82989 0.16097 0.0
H388 H 0.16061 0.88671 0.10816 0.0
H389 H 0.14888 0.87182 0.07434 0.0
H390 H 0.15743 0.82534 0.086 0.0
H391 H 0.16937 0.84053 0.11967 0.0
H392 H 0.20156 0.92549 0.12564 0.0
H393 H 0.22412 0.93989 0.10067 0.0
H394 H 0.22968 0.8898 0.09648 0.0
H395 H 0.20717 0.8756 0.12122 0.0
H396 H 0.20332 0.93506 0.17495 0.0
H397 H 0.23381 0.96586 0.18232 0.0
H398 H 0.26222 0.93659 0.16373 0.0
H399 H 0.23167 0.90586 0.15666 0.0
H400 H 0.17363 0.90486 0.20548 0.0
H401 H 0.18621 0.91472 0.24003 0.0
H402 H 0.22832 0.90102 0.2275 0.0
H403 H 0.21568 0.89117 0.1933 0.0
H404 H 0.13421 0.86693 0.18089 0.0
H405 H 0.11477 0.84883 0.20687 0.0
H406 H 0.15688 0.83661 0.22501 0.0
H407 H 0.17611 0.8546 0.19903 0.0
O408 O 0.13927 0.84662 0.04457 0.0
O409 O 0.14377 0.82297 0.05138 0.0
O410 O 0.26985 0.98726 0.18434 0.0
O411 O 0.28513 0.97293 0.1748 0.0
C412 C 0.16141 0.86416 0.15247 0.0
C413 C 0.17243 0.87355 0.13699 0.0
C414 C 0.19013 0.89118 0.14112 0.0
C415 C 0.1967 0.89967 0.16071 0.0
C416 C 0.18575 0.8902 0.17622 0.0
C417 C 0.168 0.87253 0.17206 0.0
C418 C 0.14408 0.84438 0.14816 0.0
C419 C 0.12825 0.84167 0.1374 0.0
C420 C 0.1133 0.82282 0.13056 0.0
C421 C 0.11398 0.80641 0.13442 0.0
C422 C 0.12944 0.80922 0.1461 0.0
C423 C 0.14436 0.82804 0.15289 0.0
C424 C 0.16568 0.86461 0.11638 0.0
C425 C 0.15999 0.87335 0.10334 0.0
C426 C 0.15327 0.86479 0.08406 0.0
C427 C 0.15215 0.84734 0.07749 0.0
C428 C 0.15805 0.83874 0.0906 0.0
C429 C 0.16482 0.84735 0.10984 0.0
C430 C 0.20271 0.8995 0.12514 0.0
C431 C 0.20754 0.91761 0.11914 0.0
C432 C 0.22044 0.92579 0.10496 0.0
C433 C 0.22862 0.91593 0.09658 0.0
C434 C 0.22338 0.89759 0.10238 0.0
C435 C 0.21058 0.88948 0.11655 0.0
C436 C 0.21528 0.91829 0.1651 0.0
C437 C 0.21615 0.93535 0.17249 0.0
C438 C 0.23358 0.95291 0.17667 0.0
C439 C 0.25046 0.9537 0.17355 0.0
C440 C 0.24951 0.93652 0.16624 0.0
C441 C 0.23207 0.91896 0.16211 0.0
C442 C 0.19388 0.8975 0.19685 0.0
C443 C 0.18567 0.90417 0.21023 0.0
C444 C 0.1928 0.9097 0.22992 0.0
C445 C 0.20832 0.90876 0.23643 0.0
C446 C 0.21658 0.90227 0.22288 0.0
C447 C 0.20939 0.89664 0.20333 0.0
C448 C 0.15661 0.8622 0.18822 0.0
C449 C 0.13924 0.86042 0.19058 0.0
C450 C 0.12818 0.85008 0.20535 0.0
C451 C 0.13438 0.84143 0.21802 0.0
C452 C 0.1519 0.84343 0.2157 0.0
C453 C 0.16287 0.85364 0.20086 0.0
C454 C 0.14483 0.83819 0.05705 0.0
C455 C 0.26901 0.97233 0.17791 0.0
H456 H 0.3012 0.17337 0.02787 0.0
H457 H 0.31503 0.03701 0.87725 0.0
H458 H 0.27518 0.16214 0.92505 0.0
H459 H 0.28275 0.19477 0.93793 0.0
H460 H 0.33542 0.22078 0.91067 0.0
H461 H 0.32797 0.18824 0.89828 0.0
H462 H 0.27738 0.12935 0.94999 0.0
H463 H 0.28232 0.1433 0.98415 0.0
H464 H 0.33715 0.1918 0.9728 0.0
H465 H 0.33212 0.17754 0.93878 0.0
H466 H 0.28135 0.0922 0.93228 0.0
H467 H 0.29406 0.07853 0.9541 0.0
H468 H 0.34926 0.13152 0.95589 0.0
H469 H 0.33646 0.14498 0.93438 0.0
H470 H 0.2683 0.08262 0.88364 0.0
H471 H 0.26823 0.05269 0.87563 0.0
H472 H 0.32844 0.08484 0.89091 0.0
H473 H 0.32834 0.11469 0.89859 0.0
H474 H 0.26586 0.11087 0.85341 0.0
H475 H 0.26598 0.09973 0.81908 0.0
H476 H 0.3247 0.11902 0.82969 0.0
H477 H 0.32453 0.13035 0.86356 0.0
H478 H 0.26711 0.15088 0.87624 0.0
H479 H 0.2662 0.17014 0.85082 0.0
H480 H 0.32145 0.18428 0.83575 0.0
H481 H 0.32214 0.16501 0.86098 0.0
O482 O 0.29959 0.16805 0.01434 0.0
O483 O 0.32762 0.19271 0.00771 0.0
O484 O 0.28376 0.03285 0.87223 0.0
O485 O 0.31466 0.04865 0.88019 0.0
C486 C 0.29831 0.1534 0.90595 0.0
C487 C 0.30102 0.14407 0.92112 0.0
C488 C 0.30135 0.12703 0.91651 0.0
C489 C 0.29813 0.1188 0.89681 0.0
C490 C 0.29549 0.12817 0.88165 0.0
C491 C 0.29563 0.14551 0.8862 0.0
C492 C 0.30101 0.17288 0.91072 0.0
C493 C 0.28814 0.17493 0.92153 0.0
C494 C 0.29247 0.19353 0.92883 0.0
C495 C 0.30976 0.21024 0.92543 0.0
C496 C 0.32212 0.20812 0.9137 0.0
C497 C 0.31779 0.18959 0.90643 0.0
C498 C 0.30429 0.15254 0.94189 0.0
C499 C 0.29045 0.14296 0.95494 0.0
C500 C 0.29331 0.15098 0.97442 0.0
C501 C 0.3101 0.16871 0.98119 0.0
C502 C 0.32403 0.17816 0.96806 0.0
C503 C 0.32117 0.17009 0.94861 0.0
C504 C 0.30798 0.11959 0.93183 0.0
C505 C 0.29609 0.10094 0.93775 0.0
C506 C 0.3034 0.09315 0.95009 0.0
C507 C 0.32269 0.10393 0.95668 0.0
C508 C 0.3343 0.12295 0.95136 0.0
C509 C 0.32702 0.13067 0.93904 0.0
C510 C 0.29827 0.10075 0.89188 0.0
C511 C 0.28145 0.08315 0.88522 0.0
C512 C 0.28145 0.06609 0.88068 0.0
C513 C 0.29833 0.06636 0.88271 0.0
C514 C 0.3152 0.08409 0.88925 0.0
C515 C 0.31517 0.10115 0.89372 0.0
C516 C 0.29515 0.12125 0.86094 0.0
C517 C 0.27871 0.11268 0.84821 0.0
C518 C 0.2788 0.10632 0.8287 0.0
C519 C 0.29538 0.10863 0.82168 0.0
C520 C 0.3118 0.11733 0.83454 0.0
C521 C 0.31168 0.1236 0.85395 0.0
C522 C 0.29458 0.15636 0.87026 0.0
C523 C 0.2789 0.15801 0.86728 0.0
C524 C 0.27845 0.16907 0.85285 0.0
C525 C 0.2937 0.17862 0.84118 0.0
C526 C 0.30931 0.17678 0.84418 0.0
C527 C 0.30975 0.1658 0.85861 0.0
C528 C 0.31304 0.17727 0.00185 0.0
C529 C 0.2984 0.04825 0.87804 0.0
H530 H 0.82221 0.15829 0.02975 0.0
H531 H 0.72636 0.00164 0.85849 0.0
H532 H 0.83641 0.16896 0.92622 0.0
H533 H 0.86144 0.20084 0.94196 0.0
H534 H 0.90178 0.18362 0.9346 0.0
H535 H 0.87633 0.15134 0.91924 0.0
H536 H 0.80508 0.13894 0.94487 0.0
H537 H 0.80815 0.1483 0.98014 0.0
H538 H 0.85211 0.13609 0.98759 0.0
H539 H 0.8487 0.12651 0.95229 0.0
H540 H 0.77537 0.1069 0.91223 0.0
H541 H 0.74988 0.09349 0.93396 0.0
H542 H 0.77929 0.07364 0.96822 0.0
H543 H 0.80491 0.08723 0.94627 0.0
H544 H 0.77854 0.0992 0.87093 0.0
H545 H 0.75055 0.06887 0.85578 0.0
H546 H 0.76834 0.03551 0.88556 0.0
H547 H 0.7964 0.06597 0.90042 0.0
H548 H 0.81373 0.13434 0.85791 0.0
H549 H 0.80569 0.12554 0.82272 0.0
H550 H 0.81368 0.07738 0.82604 0.0
H551 H 0.82135 0.08616 0.86157 0.0
H552 H 0.84566 0.16913 0.88506 0.0
H553 H 0.86897 0.19104 0.86399 0.0
H554 H 0.88344 0.14807 0.84921 0.0
H555 H 0.86085 0.12675 0.8714 0.0
O556 O 0.8212 0.15447 0.01584 0.0
O557 O 0.84385 0.14817 0.01885 0.0
O558 O 0.72887 0.03169 0.84919 0.0
O559 O 0.73732 0.01386 0.86426 0.0
C560 C 0.83893 0.13836 0.91291 0.0
C561 C 0.82463 0.12606 0.92465 0.0
C562 C 0.80833 0.10867 0.91593 0.0
C563 C 0.80671 0.10315 0.89562 0.0
C564 C 0.82112 0.1154 0.88388 0.0
C565 C 0.83723 0.13305 0.89253 0.0
C566 C 0.85457 0.15785 0.92176 0.0
C567 C 0.85065 0.17206 0.92806 0.0
C568 C 0.86499 0.19031 0.93686 0.0
C569 C 0.88359 0.19475 0.93945 0.0
C570 C 0.88754 0.18053 0.93294 0.0
C571 C 0.87311 0.16218 0.9241 0.0
C572 C 0.82653 0.13185 0.94608 0.0
C573 C 0.81525 0.13815 0.95417 0.0
C574 C 0.81709 0.14356 0.97431 0.0
C575 C 0.83035 0.1429 0.9867 0.0
C576 C 0.84173 0.13672 0.97847 0.0
C577 C 0.83983 0.13126 0.95833 0.0
C578 C 0.7919 0.09789 0.9276 0.0
C579 C 0.77609 0.09922 0.92413 0.0
C580 C 0.76158 0.09161 0.9366 0.0
C581 C 0.76262 0.08257 0.95283 0.0
C582 C 0.77823 0.08073 0.95595 0.0
C583 C 0.79275 0.08829 0.94337 0.0
C584 C 0.78959 0.08476 0.88659 0.0
C585 C 0.77643 0.08532 0.87404 0.0
C586 C 0.76043 0.06798 0.86547 0.0
C587 C 0.75724 0.04975 0.86941 0.0
C588 C 0.77039 0.04928 0.88217 0.0
C589 C 0.78641 0.06665 0.89069 0.0
C590 C 0.81817 0.11092 0.86224 0.0
C591 C 0.81407 0.1221 0.85098 0.0
C592 C 0.80956 0.11708 0.83083 0.0
C593 C 0.80909 0.10077 0.82151 0.0
C594 C 0.81374 0.08991 0.8328 0.0
C595 C 0.81821 0.09493 0.85303 0.0
C596 C 0.85174 0.14646 0.87998 0.0
C597 C 0.85413 0.16462 0.87757 0.0
C598 C 0.86727 0.17699 0.86528 0.0
C599 C 0.87804 0.17129 0.85478 0.0
C600 C 0.8756 0.15306 0.85726 0.0
C601 C 0.86261 0.14079 0.86981 0.0
C602 C 0.83226 0.14866 0.0081 0.0
C603 C 0.74027 0.03128 0.86031 0.0
H604 H 0.87803 0.70378 0.05276 0.0
H605 H 0.73417 0.70148 0.91245 0.0
H606 H 0.89171 0.72599 0.95389 0.0
H607 H 0.91234 0.71523 0.96514 0.0
H608 H 0.87765 0.66029 0.9288 0.0
H609 H 0.85668 0.67081 0.91838 0.0
H610 H 0.86103 0.72841 0.98127 0.0
H611 H 0.8697 0.72352 0.01371 0.0
H612 H 0.85257 0.66454 0.99196 0.0
H613 H 0.84368 0.66953 0.95971 0.0
H614 H 0.82205 0.72759 0.9667 0.0
H615 H 0.79604 0.71687 0.98808 0.0
H616 H 0.7841 0.65797 0.97942 0.0
H617 H 0.80954 0.6686 0.95772 0.0
H618 H 0.82729 0.74047 0.92004 0.0
H619 H 0.80045 0.7442 0.91463 0.0
H620 H 0.76218 0.68289 0.92095 0.0
H621 H 0.78911 0.67932 0.92607 0.0
H622 H 0.85457 0.73749 0.88701 0.0
H623 H 0.84333 0.73805 0.85378 0.0
H624 H 0.79324 0.68099 0.85707 0.0
H625 H 0.80499 0.68023 0.88963 0.0
H626 H 0.88767 0.73274 0.90342 0.0
H627 H 0.90274 0.73005 0.87416 0.0
H628 H 0.8534 0.6727 0.85637 0.0
H629 H 0.83862 0.67545 0.88553 0.0
O630 O 0.87438 0.70535 0.03986 0.0
O631 O 0.86556 0.67521 0.02789 0.0
O632 O 0.7653 0.73182 0.91124 0.0
O633 O 0.74504 0.70042 0.91451 0.0
C634 C 0.85773 0.70349 0.93247 0.0
C635 C 0.84705 0.70268 0.94836 0.0
C636 C 0.83117 0.70416 0.94538 0.0
C637 C 0.82655 0.70758 0.92678 0.0
C638 C 0.8371 0.70823 0.91086 0.0
C639 C 0.85254 0.70595 0.91366 0.0
C640 C 0.87272 0.6992 0.9353 0.0
C641 C 0.88889 0.71185 0.94797 0.0
C642 C 0.90065 0.70567 0.95437 0.0
C643 C 0.89646 0.68678 0.94807 0.0
C644 C 0.88104 0.67477 0.9342 0.0
C645 C 0.86923 0.68089 0.92796 0.0
C646 C 0.85194 0.69942 0.9681 0.0
C647 C 0.85913 0.71444 0.98357 0.0
C648 C 0.86409 0.71161 0.00207 0.0
C649 C 0.86191 0.69367 0.00541 0.0
C650 C 0.8545 0.67856 0.98988 0.0
C651 C 0.84948 0.68139 0.97142 0.0
C652 C 0.81765 0.69887 0.96068 0.0
C653 C 0.81399 0.71247 0.96973 0.0
C654 C 0.79922 0.70634 0.98196 0.0
C655 C 0.78797 0.68655 0.98524 0.0
C656 C 0.79237 0.67324 0.97694 0.0
C657 C 0.80702 0.67933 0.96472 0.0
C658 C 0.81015 0.70969 0.92366 0.0
C659 C 0.81309 0.72788 0.92027 0.0
C660 C 0.79774 0.72996 0.91719 0.0
C661 C 0.77916 0.71384 0.91743 0.0
C662 C 0.77629 0.69561 0.92074 0.0
C663 C 0.79165 0.69354 0.92376 0.0
C664 C 0.83049 0.70891 0.89078 0.0
C665 C 0.84123 0.72511 0.88043 0.0
C666 C 0.83474 0.72544 0.86153 0.0
C667 C 0.81739 0.70955 0.85272 0.0
C668 C 0.8068 0.69334 0.86321 0.0
C669 C 0.81335 0.69297 0.88195 0.0
C670 C 0.86209 0.7043 0.8965 0.0
C671 C 0.88023 0.71959 0.89321 0.0
C672 C 0.88874 0.71808 0.87651 0.0
C673 C 0.87925 0.70114 0.86306 0.0
C674 C 0.86114 0.68581 0.8666 0.0
C675 C 0.85265 0.68739 0.88316 0.0
C676 C 0.86736 0.69078 0.02502 0.0
C677 C 0.76281 0.71598 0.9142 0.0
H678 H 0.8218 0.67499 0.35617 0.0
H679 H 0.9198 0.62102 0.50497 0.0
H680 H 0.81253 0.67141 0.4632 0.0
H681 H 0.78846 0.67712 0.4509 0.0
H682 H 0.74723 0.61494 0.44523 0.0
H683 H 0.77162 0.60935 0.45757 0.0
H684 H 0.84135 0.67447 0.43853 0.0
H685 H 0.83727 0.68051 0.40491 0.0
H686 H 0.79424 0.61923 0.39087 0.0
H687 H 0.79861 0.61338 0.42452 0.0
H688 H 0.87001 0.67585 0.46407 0.0
H689 H 0.8972 0.68811 0.44459 0.0
H690 H 0.8709 0.63126 0.41116 0.0
H691 H 0.84331 0.61939 0.43037 0.0
H692 H 0.86952 0.66285 0.50603 0.0
H693 H 0.89738 0.66295 0.51781 0.0
H694 H 0.87766 0.60908 0.48077 0.0
H695 H 0.84975 0.60905 0.46931 0.0
H696 H 0.83436 0.65785 0.52509 0.0
H697 H 0.84352 0.65619 0.55863 0.0
H698 H 0.8358 0.60003 0.54097 0.0
H699 H 0.82621 0.60161 0.50737 0.0
H700 H 0.8068 0.66242 0.50184 0.0
H701 H 0.78751 0.66171 0.52804 0.0
H702 H 0.76609 0.60044 0.53086 0.0
H703 H 0.78555 0.60131 0.50445 0.0
O704 O 0.82328 0.67226 0.36936 0.0
O705 O 0.80124 0.64063 0.36291 0.0
O706 O 0.91837 0.64897 0.51943 0.0
O707 O 0.90894 0.62136 0.50054 0.0
C708 C 0.80893 0.63689 0.46738 0.0
C709 C 0.82265 0.63979 0.45431 0.0
C710 C 0.83869 0.63976 0.46088 0.0
C711 C 0.84048 0.63561 0.48011 0.0
C712 C 0.82651 0.63221 0.49308 0.0
C713 C 0.81083 0.63314 0.48679 0.0
C714 C 0.79376 0.63999 0.46121 0.0
C715 C 0.79825 0.65905 0.45947 0.0
C716 C 0.78448 0.66228 0.45257 0.0
C717 C 0.76598 0.64647 0.44719 0.0
C718 C 0.76142 0.62735 0.44922 0.0
C719 C 0.77524 0.62415 0.45631 0.0
C720 C 0.82043 0.64346 0.43385 0.0
C721 C 0.8312 0.66235 0.42811 0.0
C722 C 0.82876 0.66577 0.40892 0.0
C723 C 0.81545 0.65034 0.39518 0.0
C724 C 0.80464 0.63142 0.40107 0.0
C725 C 0.80711 0.62803 0.42025 0.0
C726 C 0.85483 0.64675 0.44864 0.0
C727 C 0.87014 0.6661 0.45247 0.0
C728 C 0.88567 0.67302 0.44139 0.0
C729 C 0.88631 0.66062 0.42641 0.0
C730 C 0.87076 0.64124 0.42245 0.0
C731 C 0.85508 0.63438 0.43346 0.0
C732 C 0.85758 0.63587 0.48694 0.0
C733 C 0.87122 0.65105 0.50055 0.0
C734 C 0.88713 0.65109 0.50721 0.0
C735 C 0.88973 0.63599 0.50026 0.0
C736 C 0.87609 0.62091 0.48645 0.0
C737 C 0.86016 0.62087 0.47985 0.0
C738 C 0.8295 0.62979 0.51383 0.0
C739 C 0.83405 0.6449 0.52858 0.0
C740 C 0.8393 0.64394 0.54771 0.0
C741 C 0.84036 0.62798 0.55236 0.0
C742 C 0.83516 0.61252 0.53772 0.0
C743 C 0.82966 0.61338 0.5186 0.0
C744 C 0.79739 0.63186 0.50108 0.0
C745 C 0.79755 0.64871 0.50772 0.0
C746 C 0.78654 0.64827 0.52272 0.0
C747 C 0.77524 0.631 0.53148 0.0
C748 C 0.77475 0.61399 0.52447 0.0
C749 C 0.78574 0.61442 0.50935 0.0
C750 C 0.81284 0.65403 0.37484 0.0
C751 C 0.90656 0.6359 0.50736 0.0
H752 H 0.33968 0.17222 0.37168 0.0
H753 H 0.40176 0.32373 0.54691 0.0
H754 H 0.33907 0.15868 0.4738 0.0
H755 H 0.3297 0.12544 0.46197 0.0
H756 H 0.38589 0.13927 0.47866 0.0
H757 H 0.39533 0.17288 0.49027 0.0
H758 H 0.33947 0.1889 0.45602 0.0
H759 H 0.3342 0.18079 0.42043 0.0
H760 H 0.39071 0.19235 0.41865 0.0
H761 H 0.39587 0.20065 0.45425 0.0
H762 H 0.34056 0.21687 0.48957 0.0
H763 H 0.33002 0.2343 0.47103 0.0
H764 H 0.3813 0.25984 0.44122 0.0
H765 H 0.39175 0.24205 0.45991 0.0
H766 H 0.35252 0.22631 0.53086 0.0
H767 H 0.35588 0.2563 0.5462 0.0
H768 H 0.40881 0.2905 0.52031 0.0
H769 H 0.4054 0.26035 0.5053 0.0
H770 H 0.35203 0.19186 0.54549 0.0
H771 H 0.35245 0.20308 0.57956 0.0
H772 H 0.41016 0.251 0.57771 0.0
H773 H 0.40944 0.23975 0.54335 0.0
H774 H 0.34648 0.15653 0.5168 0.0
H775 H 0.34554 0.1334 0.53833 0.0
H776 H 0.40373 0.17494 0.55908 0.0
H777 H 0.40501 0.19775 0.5366 0.0
O778 O 0.34209 0.17556 0.38574 0.0
O779 O 0.37123 0.18161 0.38563 0.0
O780 O 0.37291 0.29336 0.55418 0.0
O781 O 0.40005 0.31164 0.54097 0.0
C782 C 0.37275 0.18785 0.49133 0.0
C783 C 0.37144 0.20054 0.4793 0.0
C784 C 0.37288 0.21767 0.48791 0.0
C785 C 0.37708 0.22293 0.50832 0.0
C786 C 0.37879 0.21049 0.52035 0.0
C787 C 0.37627 0.19275 0.51192 0.0
C788 C 0.36795 0.16829 0.48263 0.0
C789 C 0.34952 0.15473 0.47443 0.0
C790 C 0.34417 0.13572 0.46776 0.0
C791 C 0.35709 0.12981 0.46933 0.0
C792 C 0.37564 0.14345 0.47736 0.0
C793 C 0.38107 0.16261 0.48388 0.0
C794 C 0.36814 0.1956 0.45768 0.0
C795 C 0.35076 0.18986 0.4479 0.0
C796 C 0.34775 0.18514 0.42757 0.0
C797 C 0.36205 0.18597 0.41668 0.0
C798 C 0.37941 0.1916 0.42658 0.0
C799 C 0.3824 0.19635 0.4469 0.0
C800 C 0.36699 0.22841 0.47621 0.0
C801 C 0.34957 0.22631 0.4791 0.0
C802 C 0.3436 0.23629 0.46854 0.0
C803 C 0.35493 0.24857 0.45483 0.0
C804 C 0.37227 0.2504 0.45165 0.0
C805 C 0.37829 0.24038 0.46233 0.0
C806 C 0.37884 0.24117 0.51718 0.0
C807 C 0.36488 0.24029 0.52863 0.0
C808 C 0.36681 0.25744 0.53731 0.0
C809 C 0.38266 0.27581 0.53454 0.0
C810 C 0.39647 0.27661 0.52279 0.0
C811 C 0.39455 0.25943 0.51418 0.0
C812 C 0.38069 0.21501 0.54197 0.0
C813 C 0.36495 0.20442 0.55263 0.0
C814 C 0.36524 0.21087 0.57213 0.0
C815 C 0.38131 0.22804 0.58133 0.0
C816 C 0.39749 0.23789 0.57095 0.0
C817 C 0.39717 0.23142 0.5514 0.0
C818 C 0.37591 0.1787 0.52485 0.0
C819 C 0.35918 0.16048 0.52559 0.0
C820 C 0.35862 0.14734 0.53791 0.0
C821 C 0.37461 0.15244 0.55013 0.0
C822 C 0.39129 0.17074 0.54964 0.0
C823 C 0.392 0.18372 0.5369 0.0
C824 C 0.35881 0.18093 0.39509 0.0
C825 C 0.38484 0.29408 0.54385 0.0
H826 H 0.80324 0.17157 0.35302 0.0
H827 H 0.96899 0.30782 0.49995 0.0
H828 H 0.79704 0.18236 0.4567 0.0
H829 H 0.7695 0.14957 0.44625 0.0
H830 H 0.79848 0.12422 0.47127 0.0
H831 H 0.82552 0.15686 0.48197 0.0
H832 H 0.83182 0.21578 0.43063 0.0
H833 H 0.81945 0.20184 0.39671 0.0
H834 H 0.82353 0.15222 0.40681 0.0
H835 H 0.83613 0.16646 0.44059 0.0
H836 H 0.87641 0.25326 0.44863 0.0
H837 H 0.90142 0.2666 0.42616 0.0
H838 H 0.89718 0.21099 0.41836 0.0
H839 H 0.87339 0.19842 0.44193 0.0
H840 H 0.87513 0.26221 0.49628 0.0
H841 H 0.90632 0.2921 0.5038 0.0
H842 H 0.93236 0.26011 0.48614 0.0
H843 H 0.9011 0.23029 0.47891 0.0
H844 H 0.84327 0.23257 0.52599 0.0
H845 H 0.85615 0.24454 0.5603 0.0
H846 H 0.89833 0.2304 0.55033 0.0
H847 H 0.88524 0.21819 0.51637 0.0
H848 H 0.80399 0.19431 0.50325 0.0
H849 H 0.78445 0.17553 0.52884 0.0
H850 H 0.82644 0.1628 0.54595 0.0
H851 H 0.8458 0.18153 0.52041 0.0
O852 O 0.80826 0.17687 0.36645 0.0
O853 O 0.81049 0.15161 0.37245 0.0
O854 O 0.9424 0.31194 0.50622 0.0
O855 O 0.95648 0.2962 0.49714 0.0
C856 C 0.83083 0.19146 0.47429 0.0
C857 C 0.84194 0.20055 0.45876 0.0
C858 C 0.86015 0.21755 0.46286 0.0
C859 C 0.86684 0.22605 0.48246 0.0
C860 C 0.85562 0.21707 0.49798 0.0
C861 C 0.83764 0.19972 0.49387 0.0
C862 C 0.8132 0.17193 0.47012 0.0
C863 C 0.79719 0.16967 0.46022 0.0
C864 C 0.78158 0.15095 0.45416 0.0
C865 C 0.7818 0.13425 0.45785 0.0
C866 C 0.79765 0.1367 0.46846 0.0
C867 C 0.81316 0.15535 0.47455 0.0
C868 C 0.83468 0.19204 0.43811 0.0
C869 C 0.83006 0.20192 0.42546 0.0
C870 C 0.82297 0.19391 0.40611 0.0
C871 C 0.82042 0.17587 0.39907 0.0
C872 C 0.82524 0.16609 0.41178 0.0
C873 C 0.83237 0.17416 0.4311 0.0
C874 C 0.87312 0.2249 0.44698 0.0
C875 C 0.88082 0.24396 0.44192 0.0
C876 C 0.895 0.25148 0.42894 0.0
C877 C 0.90148 0.23992 0.42056 0.0
C878 C 0.89287 0.22045 0.42484 0.0
C879 C 0.87903 0.21312 0.43809 0.0
C880 C 0.88586 0.24414 0.4869 0.0
C881 C 0.88759 0.2617 0.49406 0.0
C882 C 0.90542 0.27875 0.49833 0.0
C883 C 0.92184 0.27851 0.49552 0.0
C884 C 0.92002 0.26083 0.48842 0.0
C885 C 0.90219 0.24379 0.48421 0.0
C886 C 0.86348 0.22476 0.51863 0.0
C887 C 0.8553 0.2321 0.53126 0.0
C888 C 0.86261 0.23885 0.5508 0.0
C889 C 0.87833 0.23853 0.55788 0.0
C890 C 0.88642 0.23112 0.54517 0.0
C891 C 0.87899 0.22419 0.52579 0.0
C892 C 0.82635 0.18939 0.5101 0.0
C893 C 0.80899 0.18758 0.51266 0.0
C894 C 0.79785 0.17682 0.5272 0.0
C895 C 0.80396 0.16776 0.53943 0.0
C896 C 0.82151 0.16989 0.53699 0.0
C897 C 0.83257 0.18055 0.5224 0.0
C898 C 0.81277 0.16733 0.37854 0.0
C899 C 0.94081 0.29659 0.49997 0.0
H900 H 0.01367 0.52319 0.35897 0.0
H901 H 0.00717 0.39053 0.18671 0.0
H902 H 0.97165 0.51051 0.26292 0.0
H903 H 0.97833 0.54207 0.27786 0.0
H904 H 0.02349 0.57153 0.24003 0.0
H905 H 0.01744 0.53997 0.22612 0.0
H906 H 0.97854 0.47953 0.28214 0.0
H907 H 0.98864 0.49329 0.31645 0.0
H908 H 0.03963 0.54253 0.29844 0.0
H909 H 0.02947 0.52849 0.26423 0.0
H910 H 0.97643 0.44271 0.25844 0.0
H911 H 0.98896 0.42737 0.27796 0.0
H912 H 0.04538 0.4778 0.27637 0.0
H913 H 0.0327 0.49303 0.25711 0.0
H914 H 0.9603 0.43304 0.21315 0.0
H915 H 0.95998 0.40385 0.20047 0.0
H916 H 0.02102 0.43755 0.20498 0.0
H917 H 0.02111 0.46665 0.2174 0.0
H918 H 0.95195 0.45632 0.18907 0.0
H919 H 0.94605 0.43985 0.15567 0.0
H920 H 0.0062 0.46879 0.15141 0.0
H921 H 0.01187 0.48498 0.18456 0.0
H922 H 0.95717 0.50167 0.21476 0.0
H923 H 0.9524 0.5217 0.1932 0.0
H924 H 0.00288 0.53487 0.16541 0.0
H925 H 0.00795 0.51569 0.18756 0.0
O926 O 0.00999 0.51797 0.34532 0.0
O927 O 0.03594 0.54301 0.33529 0.0
O928 O 0.97551 0.38519 0.18955 0.0
O929 O 0.00688 0.40182 0.19174 0.0
C930 C 0.99201 0.50411 0.23665 0.0
C931 C 0.99693 0.49469 0.2499 0.0
C932 C 0.99648 0.47758 0.24322 0.0
C933 C 0.99081 0.46967 0.22343 0.0
C934 C 0.9861 0.47919 0.21016 0.0
C935 C 0.98667 0.49641 0.21671 0.0
C936 C 0.99407 0.52297 0.24347 0.0
C937 C 0.98284 0.5238 0.25774 0.0
C938 C 0.98661 0.54184 0.26616 0.0
C939 C 0.00155 0.55934 0.26024 0.0
C940 C 0.01212 0.55835 0.24519 0.0
C941 C 0.00852 0.54033 0.23701 0.0
C942 C 0.00321 0.50308 0.27071 0.0
C943 C 0.99191 0.49327 0.28566 0.0
C944 C 0.9977 0.50118 0.30523 0.0
C945 C 0.01492 0.51905 0.31019 0.0
C946 C 0.02627 0.52877 0.29514 0.0
C947 C 0.02048 0.52082 0.27558 0.0
C948 C 0.00367 0.46895 0.25644 0.0
C949 C 0.99146 0.45048 0.26254 0.0
C950 C 0.99865 0.44174 0.27356 0.0
C951 C 0.01817 0.45137 0.27863 0.0
C952 C 0.03027 0.47013 0.27292 0.0
C953 C 0.02307 0.47883 0.2619 0.0
C954 C 0.99071 0.45189 0.21625 0.0
C955 C 0.97357 0.43405 0.21139 0.0
C956 C 0.97344 0.41742 0.20417 0.0
C957 C 0.99049 0.41836 0.20172 0.0
C958 C 0.00764 0.4363 0.20669 0.0
C959 C 0.00775 0.45293 0.21386 0.0
C960 C 0.98232 0.47187 0.18908 0.0
C961 C 0.96378 0.45942 0.18066 0.0
C962 C 0.96046 0.44998 0.16171 0.0
C963 C 0.97567 0.4531 0.15095 0.0
C964 C 0.99421 0.46635 0.15919 0.0
C965 C 0.99749 0.47557 0.17812 0.0
C966 C 0.98278 0.50705 0.20257 0.0
C967 C 0.96708 0.50879 0.2039 0.0
C968 C 0.96436 0.52017 0.19154 0.0
C969 C 0.97731 0.52996 0.17764 0.0
C970 C 0.99279 0.52778 0.17614 0.0
C971 C 0.99556 0.51656 0.18857 0.0
C972 C 0.02098 0.52746 0.33099 0.0
C973 C 0.99043 0.40076 0.19398 0.0
H974 H 0.48001 0.51186 0.36198 0.0
H975 H 0.38509 0.33992 0.20509 0.0
H976 H 0.49366 0.51211 0.25866 0.0
H977 H 0.51906 0.54553 0.2702 0.0
H978 H 0.55962 0.5283 0.26599 0.0
H979 H 0.53397 0.49472 0.25443 0.0
H980 H 0.46203 0.48354 0.2785 0.0
H981 H 0.46531 0.4964 0.31277 0.0
H982 H 0.51063 0.48701 0.32463 0.0
H983 H 0.50704 0.47395 0.29035 0.0
H984 H 0.43223 0.44781 0.24814 0.0
H985 H 0.40662 0.43515 0.26979 0.0
H986 H 0.43859 0.42204 0.3092 0.0
H987 H 0.46392 0.4341 0.28695 0.0
H988 H 0.43647 0.43713 0.20708 0.0
H989 H 0.40883 0.40552 0.19394 0.0
H990 H 0.4265 0.3765 0.23122 0.0
H991 H 0.45423 0.4082 0.24405 0.0
H992 H 0.47346 0.47142 0.19112 0.0
H993 H 0.46562 0.45842 0.15659 0.0
H994 H 0.46892 0.40915 0.17002 0.0
H995 H 0.47732 0.4226 0.20468 0.0
H996 H 0.50212 0.50791 0.21707 0.0
H997 H 0.52635 0.52877 0.19622 0.0
H998 H 0.54273 0.48652 0.1886 0.0
H999 H 0.51909 0.46627 0.21061 0.0
O1000 O 0.47892 0.50667 0.3485 0.0
O1001 O 0.50222 0.50166 0.3538 0.0
O1002 O 0.38749 0.36824 0.1911 0.0
O1003 O 0.39589 0.35262 0.21006 0.0
C1004 C 0.49634 0.48085 0.24871 0.0
C1005 C 0.48221 0.4698 0.26119 0.0
C1006 C 0.46607 0.45162 0.25375 0.0
C1007 C 0.46446 0.44409 0.23406 0.0
C1008 C 0.47877 0.45504 0.2216 0.0
C1009 C 0.49465 0.47351 0.22891 0.0
C1010 C 0.51198 0.50098 0.25595 0.0
C1011 C 0.50801 0.51551 0.26043 0.0
C1012 C 0.52251 0.53456 0.26699 0.0
C1013 C 0.54129 0.53947 0.26908 0.0
C1014 C 0.54527 0.52493 0.26438 0.0
C1015 C 0.53069 0.50578 0.2579 0.0
C1016 C 0.48418 0.47764 0.28201 0.0
C1017 C 0.47256 0.48413 0.28856 0.0
C1018 C 0.47451 0.49154 0.30813 0.0
C1019 C 0.48821 0.4927 0.32146 0.0
C1020 C 0.49992 0.48629 0.31476 0.0
C1021 C 0.49791 0.47884 0.2952 0.0
C1022 C 0.44987 0.44177 0.26594 0.0
C1023 C 0.43352 0.44181 0.26124 0.0
C1024 C 0.41905 0.43485 0.27377 0.0
C1025 C 0.4207 0.42785 0.29134 0.0
C1026 C 0.43687 0.42726 0.29573 0.0
C1027 C 0.45134 0.43414 0.28308 0.0
C1028 C 0.44743 0.42493 0.22639 0.0
C1029 C 0.43439 0.42392 0.21231 0.0
C1030 C 0.41859 0.40585 0.20487 0.0
C1031 C 0.41548 0.38846 0.21149 0.0
C1032 C 0.42848 0.38959 0.22577 0.0
C1033 C 0.44431 0.40767 0.23316 0.0
C1034 C 0.47607 0.44803 0.20041 0.0
C1035 C 0.47304 0.45812 0.18656 0.0
C1036 C 0.46855 0.45067 0.16685 0.0
C1037 C 0.46673 0.43282 0.16066 0.0
C1038 C 0.47022 0.42293 0.17445 0.0
C1039 C 0.47502 0.43058 0.19418 0.0
C1040 C 0.50902 0.48571 0.21557 0.0
C1041 C 0.51109 0.50327 0.21108 0.0
C1042 C 0.5248 0.51505 0.19894 0.0
C1043 C 0.53648 0.50931 0.19065 0.0
C1044 C 0.53417 0.49152 0.19496 0.0
C1045 C 0.52058 0.47985 0.20737 0.0
C1046 C 0.49026 0.50059 0.34223 0.0
C1047 C 0.39876 0.36922 0.20356 0.0
H1048 H 0.51879 -0.00059 0.38123 0.0
H1049 H 0.379 0.98206 0.22076 0.0
H1050 H 0.53984 0.02893 0.28157 0.0
H1051 H 0.56508 0.02552 0.29527 0.0
H1052 H 0.53729 0.96691 0.26557 0.0
H1053 H 0.51246 0.97073 0.25156 0.0
H1054 H 0.50534 0.02331 0.30736 0.0
H1055 H 0.51209 0.0186 0.34071 0.0
H1056 H 0.4992 0.96085 0.31988 0.0
H1057 H 0.49229 0.96568 0.28666 0.0
H1058 H 0.47011 0.02326 0.28745 0.0
H1059 H 0.44473 0.01546 0.30891 0.0
H1060 H 0.4297 0.9554 0.30476 0.0
H1061 H 0.45489 0.96329 0.28299 0.0
H1062 H 0.47213 0.03224 0.24331 0.0
H1063 H 0.44359 0.03172 0.23338 0.0
H1064 H 0.41044 0.96901 0.23464 0.0
H1065 H 0.43912 0.96974 0.24435 0.0
H1066 H 0.50259 0.03817 0.21907 0.0
H1067 H 0.49213 0.04259 0.18725 0.0
H1068 H 0.45335 0.98003 0.17577 0.0
H1069 H 0.4636 0.97589 0.20777 0.0
H1070 H 0.53617 0.03708 0.23279 0.0
H1071 H 0.55593 0.04056 0.20572 0.0
H1072 H 0.51992 0.97854 0.1878 0.0
H1073 H 0.5004 0.97526 0.21484 0.0
O1074 O 0.51591 0.0009 0.36796 0.0
O1075 O 0.50924 0.97137 0.35648 0.0
O1076 O 0.40818 0.01494 0.22424 0.0
O1077 O 0.3905 0.9827 0.22473 0.0
C1078 C 0.50765 0.00089 0.26017 0.0
C1079 C 0.49478 0.99801 0.27437 0.0
C1080 C 0.47842 0.99809 0.26928 0.0
C1081 C 0.47506 0.00136 0.25011 0.0
C1082 C 0.48795 0.0043 0.23598 0.0
C1083 C 0.50418 0.00395 0.24097 0.0
C1084 C 0.52443 0.00011 0.26554 0.0
C1085 C 0.53952 0.01557 0.27766 0.0
C1086 C 0.55377 0.01349 0.28564 0.0
C1087 C 0.55308 0.99584 0.28171 0.0
C1088 C 0.53837 0.98075 0.26875 0.0
C1089 C 0.52418 0.98289 0.26071 0.0
C1090 C 0.49843 0.99488 0.29463 0.0
C1091 C 0.50392 0.00963 0.31007 0.0
C1092 C 0.5078 0.00691 0.32909 0.0
C1093 C 0.50624 0.98937 0.33296 0.0
C1094 C 0.50059 0.97456 0.3174 0.0
C1095 C 0.49667 0.97728 0.29842 0.0
C1096 C 0.46428 0.99383 0.28371 0.0
C1097 C 0.46144 0.00848 0.29137 0.0
C1098 C 0.44703 0.00402 0.30368 0.0
C1099 C 0.43522 0.9848 0.30848 0.0
C1100 C 0.43846 0.97028 0.30116 0.0
C1101 C 0.4529 0.97477 0.28888 0.0
C1102 C 0.45765 0.00104 0.24456 0.0
C1103 C 0.45868 0.01842 0.24142 0.0
C1104 C 0.44236 0.01807 0.23577 0.0
C1105 C 0.42472 0.00031 0.23322 0.0
C1106 C 0.42378 0.98293 0.23648 0.0
C1107 C 0.44012 0.9833 0.24208 0.0
C1108 C 0.48378 0.00674 0.21566 0.0
C1109 C 0.49209 0.02544 0.20948 0.0
C1110 C 0.48611 0.02791 0.19132 0.0
C1111 C 0.47175 0.01167 0.17908 0.0
C1112 C 0.46417 0.99286 0.18501 0.0
C1113 C 0.4701 0.99043 0.20317 0.0
C1114 C 0.51699 0.00591 0.22574 0.0
C1115 C 0.53276 0.02427 0.22312 0.0
C1116 C 0.54391 0.02623 0.20764 0.0
C1117 C 0.53948 0.00981 0.19471 0.0
C1118 C 0.52385 0.99139 0.1977 0.0
C1119 C 0.51266 0.98949 0.21306 0.0
C1120 C 0.51053 0.9866 0.35314 0.0
C1121 C 0.40736 -0.00016 0.22713 0.0
H1122 H 0.50464 0.04197 0.69824 0.0
H1123 H 0.59976 0.97568 0.83562 0.0
H1124 H 0.49375 0.03202 0.80241 0.0
H1125 H 0.46891 0.03623 0.78924 0.0
H1126 H 0.42914 0.97381 0.78591 0.0
H1127 H 0.45429 0.96973 0.79882 0.0
H1128 H 0.52551 0.03625 0.77837 0.0
H1129 H 0.52125 0.0443 0.74576 0.0
H1130 H 0.4741 0.98488 0.73088 0.0
H1131 H 0.47867 0.97699 0.76347 0.0
H1132 H 0.55531 0.0333 0.80107 0.0
H1133 H 0.5805 0.04164 0.77929 0.0
H1134 H 0.54442 0.98642 0.74376 0.0
H1135 H 0.51913 0.97847 0.76544 0.0
H1136 H 0.55238 0.0205 0.84361 0.0
H1137 H 0.57965 0.01879 0.85357 0.0
H1138 H 0.55799 0.96659 0.81313 0.0
H1139 H 0.53065 0.96833 0.80352 0.0
H1140 H 0.5174 0.01498 0.86491 0.0
H1141 H 0.52667 0.01051 0.89723 0.0
H1142 H 0.51781 0.95511 0.87378 0.0
H1143 H 0.50811 0.95947 0.84149 0.0
H1144 H 0.48899 0.02119 0.84344 0.0
H1145 H 0.4694 0.01817 0.87032 0.0
H1146 H 0.4491 0.95672 0.86844 0.0
H1147 H 0.46847 0.9598 0.8412 0.0
O1148 O 0.50616 0.03843 0.71101 0.0
O1149 O 0.48197 0.00774 0.70413 0.0
O1150 O 0.59957 0.00351 0.85262 0.0
O1151 O 0.58915 0.97674 0.83191 0.0
C1152 C 0.49149 0.99802 0.8068 0.0
C1153 C 0.50486 0.00124 0.79312 0.0
C1154 C 0.52062 0.00019 0.79848 0.0
C1155 C 0.52273 0.9953 0.81726 0.0
C1156 C 0.50914 0.99166 0.83082 0.0
C1157 C 0.49357 0.99316 0.82563 0.0
C1158 C 0.47578 0.00058 0.80145 0.0
C1159 C 0.4796 0.01931 0.7991 0.0
C1160 C 0.46538 0.02168 0.79167 0.0
C1161 C 0.44711 0.00533 0.78646 0.0
C1162 C 0.44316 0.98663 0.7896 0.0
C1163 C 0.45741 0.98429 0.79709 0.0
C1164 C 0.50247 0.00602 0.77321 0.0
C1165 C 0.51437 0.02497 0.76798 0.0
C1166 C 0.51186 0.02953 0.74937 0.0
C1167 C 0.49734 0.01523 0.7357 0.0
C1168 C 0.48543 0.99624 0.74104 0.0
C1169 C 0.488 0.99169 0.75964 0.0
C1170 C 0.53551 0.00527 0.78483 0.0
C1171 C 0.55287 0.02308 0.78852 0.0
C1172 C 0.56723 0.02776 0.77612 0.0
C1173 C 0.56449 0.01465 0.75985 0.0
C1174 C 0.54689 0.99693 0.75602 0.0
C1175 C 0.53249 0.9923 0.76842 0.0
C1176 C 0.53953 0.9945 0.82291 0.0
C1177 C 0.55354 0.00869 0.83697 0.0
C1178 C 0.56911 0.00769 0.8426 0.0
C1179 C 0.57099 0.99252 0.83416 0.0
C1180 C 0.55698 0.97844 0.81993 0.0
C1181 C 0.54138 0.97942 0.81437 0.0
C1182 C 0.51207 0.98754 0.85087 0.0
C1183 C 0.51691 0.00161 0.86688 0.0
C1184 C 0.52221 0.99904 0.8853 0.0
C1185 C 0.523 0.98249 0.88794 0.0
C1186 C 0.51741 0.96804 0.87208 0.0
C1187 C 0.51185 0.97049 0.8537 0.0
C1188 C 0.48009 0.9907 0.84036 0.0
C1189 C 0.48001 0.007 0.84857 0.0
C1190 C 0.46898 0.00529 0.86403 0.0
C1191 C 0.45785 0.98724 0.87158 0.0
C1192 C 0.45743 0.97077 0.86283 0.0
C1193 C 0.4685 0.9725 0.84735 0.0
C1194 C 0.49463 0.02016 0.71599 0.0
C1195 C 0.58745 0.99133 0.84016 0.0
H1196 H 0.9607 0.46648 0.71431 0.0
H1197 H 0.04124 0.6384 0.87257 0.0
H1198 H 0.97511 0.46719 0.8189 0.0
H1199 H 0.96661 0.43421 0.80685 0.0
H1200 H 0.0254 0.45276 0.81314 0.0
H1201 H 0.03382 0.48591 0.82523 0.0
H1202 H 0.97184 0.49462 0.79757 0.0
H1203 H 0.96183 0.48164 0.7631 0.0
H1204 H 0.0177 0.49364 0.75424 0.0
H1205 H 0.02759 0.50681 0.78873 0.0
H1206 H 0.97668 0.52746 0.82477 0.0
H1207 H 0.96494 0.54183 0.80293 0.0
H1208 H 0.01491 0.56339 0.77132 0.0
H1209 H 0.02661 0.54888 0.79336 0.0
H1210 H 0.9922 0.54091 0.86626 0.0
H1211 H 0.99621 0.57199 0.87895 0.0
H1212 H 0.04686 0.60299 0.84854 0.0
H1213 H 0.04278 0.57178 0.83616 0.0
H1214 H 0.99538 0.51148 0.88516 0.0
H1215 H 0.00039 0.5273 0.91827 0.0
H1216 H 0.05798 0.57047 0.90782 0.0
H1217 H 0.05231 0.55498 0.8742 0.0
H1218 H 0.9897 0.4713 0.86076 0.0
H1219 H 0.99451 0.45182 0.88297 0.0
H1220 H 0.05355 0.49719 0.89296 0.0
H1221 H 0.04894 0.51628 0.8698 0.0
O1222 O 0.96499 0.47176 0.72787 0.0
O1223 O 0.99391 0.47816 0.72411 0.0
O1224 O 0.01326 0.60927 0.88321 0.0
O1225 O 0.03929 0.62591 0.86772 0.0
C1226 C 0.00991 0.49895 0.82959 0.0
C1227 C 0.0066 0.50966 0.81653 0.0
C1228 C 0.00883 0.52762 0.82348 0.0
C1229 C 0.01514 0.53531 0.84323 0.0
C1230 C 0.01885 0.52483 0.85622 0.0
C1231 C 0.01614 0.50657 0.84947 0.0
C1232 C 0.00509 0.47896 0.8227 0.0
C1233 C 0.98617 0.46416 0.81757 0.0
C1234 C 0.98134 0.44536 0.81069 0.0
C1235 C 0.99536 0.44097 0.80893 0.0
C1236 C 0.01431 0.45573 0.81447 0.0
C1237 C 0.01915 0.47463 0.82127 0.0
C1238 C 0.0005 0.50184 0.79557 0.0
C1239 C 0.98194 0.49461 0.78811 0.0
C1240 C 0.97624 0.48711 0.76844 0.0
C1241 C 0.98897 0.48663 0.75589 0.0
C1242 C 0.00754 0.49382 0.76349 0.0
C1243 C 0.01324 0.50135 0.78316 0.0
C1244 C 0.0025 0.53724 0.81064 0.0
C1245 C 0.98513 0.53539 0.8132 0.0
C1246 C 0.97838 0.54342 0.80063 0.0
C1247 C 0.98897 0.55357 0.78538 0.0
C1248 C 0.00653 0.55566 0.78301 0.0
C1249 C 0.01321 0.54743 0.79552 0.0
C1250 C 0.0173 0.55415 0.85046 0.0
C1251 C 0.00419 0.55445 0.86244 0.0
C1252 C 0.00649 0.57221 0.86962 0.0
C1253 C 0.0219 0.59 0.86481 0.0
C1254 C 0.03488 0.58958 0.85257 0.0
C1255 C 0.03257 0.5718 0.84545 0.0
C1256 C 0.02346 0.53214 0.87733 0.0
C1257 C 0.0092 0.52409 0.89021 0.0
C1258 C 0.01217 0.53316 0.9092 0.0
C1259 C 0.02959 0.55032 0.91579 0.0
C1260 C 0.04427 0.55754 0.90316 0.0
C1261 C 0.04117 0.54861 0.88403 0.0
C1262 C 0.01902 0.49508 0.86342 0.0
C1263 C 0.00374 0.47692 0.86745 0.0
C1264 C 0.00648 0.46585 0.88013 0.0
C1265 C 0.02441 0.47303 0.88942 0.0
C1266 C 0.03963 0.4914 0.88582 0.0
C1267 C 0.03699 0.50228 0.87272 0.0
C1268 C 0.98285 0.47862 0.735 0.0
C1269 C 0.02448 0.60892 0.8725 0.0
H1270 H 0.49775 0.50706 0.69377 0.0
H1271 H 0.62958 0.6339 0.88621 0.0
H1272 H 0.46719 0.51149 0.80693 0.0
H1273 H 0.44043 0.47928 0.79304 0.0
H1274 H 0.4777 0.45778 0.78902 0.0
H1275 H 0.50407 0.48968 0.8032 0.0
H1276 H 0.49761 0.53592 0.77443 0.0
H1277 H 0.49403 0.52554 0.73932 0.0
H1278 H 0.53238 0.50611 0.74881 0.0
H1279 H 0.53566 0.51636 0.78391 0.0
H1280 H 0.54481 0.57629 0.78504 0.0
H1281 H 0.573 0.5909 0.76641 0.0
H1282 H 0.59233 0.55834 0.79508 0.0
H1283 H 0.56438 0.54407 0.81374 0.0
H1284 H 0.55067 0.59418 0.82684 0.0
H1285 H 0.57997 0.62324 0.84187 0.0
H1286 H 0.59277 0.58632 0.8722 0.0
H1287 H 0.56354 0.55741 0.85691 0.0
H1288 H 0.52336 0.57671 0.86285 0.0
H1289 H 0.53076 0.58742 0.89811 0.0
H1290 H 0.53425 0.53718 0.9067 0.0
H1291 H 0.52661 0.52656 0.87166 0.0
H1292 H 0.48191 0.53659 0.85344 0.0
H1293 H 0.45865 0.51711 0.87623 0.0
H1294 H 0.47233 0.47291 0.86706 0.0
H1295 H 0.49551 0.49244 0.84455 0.0
O1296 O 0.49939 0.51108 0.70769 0.0
O1297 O 0.51923 0.50137 0.71335 0.0
O1298 O 0.61076 0.64098 0.864 0.0
O1299 O 0.61794 0.62266 0.88 0.0
C1300 C 0.50384 0.52209 0.8145 0.0
C1301 C 0.51888 0.53321 0.80295 0.0
C1302 C 0.5357 0.54991 0.81175 0.0
C1303 C 0.53712 0.55621 0.83179 0.0
C1304 C 0.52193 0.54536 0.84328 0.0
C1305 C 0.50534 0.52817 0.83467 0.0
C1306 C 0.48754 0.50289 0.80591 0.0
C1307 C 0.46948 0.49977 0.80303 0.0
C1308 C 0.45429 0.48144 0.79507 0.0
C1309 C 0.45698 0.46601 0.79003 0.0
C1310 C 0.47512 0.46929 0.79301 0.0
C1311 C 0.49023 0.48753 0.8009 0.0
C1312 C 0.51705 0.5271 0.78165 0.0
C1313 C 0.50525 0.52946 0.76887 0.0
C1314 C 0.50323 0.52352 0.74883 0.0
C1315 C 0.51297 0.51506 0.74124 0.0
C1316 C 0.52474 0.51265 0.75416 0.0
C1317 C 0.52672 0.51858 0.77419 0.0
C1318 C 0.55268 0.55921 0.80068 0.0
C1319 C 0.55521 0.57243 0.78729 0.0
C1320 C 0.57123 0.58073 0.77674 0.0
C1321 C 0.5847 0.57561 0.77929 0.0
C1322 C 0.58204 0.56233 0.79272 0.0
C1323 C 0.56621 0.5543 0.80343 0.0
C1324 C 0.55495 0.57375 0.84091 0.0
C1325 C 0.55985 0.59243 0.83672 0.0
C1326 C 0.57657 0.60898 0.84534 0.0
C1327 C 0.58869 0.6071 0.8583 0.0
C1328 C 0.58374 0.5883 0.86235 0.0
C1329 C 0.56704 0.57177 0.85368 0.0
C1330 C 0.52438 0.55083 0.86477 0.0
C1331 C 0.52542 0.5679 0.87246 0.0
C1332 C 0.52973 0.57402 0.89255 0.0
C1333 C 0.5331 0.56316 0.90522 0.0
C1334 C 0.53141 0.54571 0.89745 0.0
C1335 C 0.52711 0.53963 0.87742 0.0
C1336 C 0.49021 0.5158 0.8472 0.0
C1337 C 0.47967 0.52259 0.85622 0.0
C1338 C 0.46649 0.51152 0.86924 0.0
C1339 C 0.46361 0.49345 0.87331 0.0
C1340 C 0.47398 0.48659 0.86393 0.0
C1341 C 0.48722 0.49771 0.85107 0.0
C1342 C 0.51077 0.50873 0.71995 0.0
C1343 C 0.60644 0.62464 0.86756 0.0
H1344 H 0.62637 0.83958 0.69681 0.0
H1345 H 0.64592 0.69895 0.55977 0.0
H1346 H 0.60895 0.8289 0.5923 0.0
H1347 H 0.61699 0.86239 0.60166 0.0
H1348 H 0.67176 0.88481 0.57946 0.0
H1349 H 0.66347 0.8515 0.56993 0.0
H1350 H 0.60687 0.79479 0.61961 0.0
H1351 H 0.60978 0.80924 0.65316 0.0
H1352 H 0.66662 0.85606 0.64522 0.0
H1353 H 0.6636 0.84132 0.6118 0.0
H1354 H 0.60922 0.75566 0.60352 0.0
H1355 H 0.61877 0.7395 0.62566 0.0
H1356 H 0.67511 0.79115 0.63355 0.0
H1357 H 0.66554 0.80704 0.61142 0.0
H1358 H 0.60089 0.74622 0.5559 0.0
H1359 H 0.6005 0.71585 0.55041 0.0
H1360 H 0.65973 0.74728 0.57052 0.0
H1361 H 0.65999 0.77755 0.57561 0.0
H1362 H 0.60049 0.77387 0.52492 0.0
H1363 H 0.60041 0.75849 0.49258 0.0
H1364 H 0.65861 0.77706 0.50593 0.0
H1365 H 0.65854 0.79226 0.53799 0.0
H1366 H 0.60249 0.8155 0.54529 0.0
H1367 H 0.60343 0.83524 0.51952 0.0
H1368 H 0.65872 0.84753 0.5071 0.0
H1369 H 0.65751 0.82762 0.53264 0.0
O1370 O 0.62556 0.83406 0.68354 0.0
O1371 O 0.65467 0.85786 0.67867 0.0
O1372 O 0.61546 0.69541 0.5507 0.0
O1373 O 0.64573 0.71079 0.56156 0.0
C1374 C 0.63195 0.81785 0.57678 0.0
C1375 C 0.63291 0.80836 0.59281 0.0
C1376 C 0.63244 0.79075 0.5894 0.0
C1377 C 0.63046 0.78233 0.56998 0.0
C1378 C 0.62931 0.79173 0.55399 0.0
C1379 C 0.62998 0.80945 0.55737 0.0
C1380 C 0.6356 0.83784 0.58038 0.0
C1381 C 0.62252 0.84111 0.58917 0.0
C1382 C 0.62719 0.86021 0.5946 0.0
C1383 C 0.64503 0.87627 0.59134 0.0
C1384 C 0.65779 0.87283 0.58188 0.0
C1385 C 0.65311 0.8538 0.57646 0.0
C1386 C 0.63494 0.81711 0.61324 0.0
C1387 C 0.61994 0.80815 0.62518 0.0
C1388 C 0.62164 0.81645 0.64432 0.0
C1389 C 0.63841 0.83385 0.65185 0.0
C1390 C 0.65349 0.84269 0.63986 0.0
C1391 C 0.65178 0.83434 0.62074 0.0
C1392 C 0.63669 0.7825 0.60588 0.0
C1393 C 0.62347 0.76362 0.61046 0.0
C1394 C 0.62897 0.7544 0.62297 0.0
C1395 C 0.64772 0.76403 0.63119 0.0
C1396 C 0.66053 0.78343 0.62762 0.0
C1397 C 0.65507 0.79256 0.61501 0.0
C1398 C 0.63041 0.76402 0.56631 0.0
C1399 C 0.61377 0.7465 0.55903 0.0
C1400 C 0.61359 0.72919 0.55595 0.0
C1401 C 0.63008 0.72912 0.56012 0.0
C1402 C 0.64677 0.74679 0.56723 0.0
C1403 C 0.64695 0.76409 0.5702 0.0
C1404 C 0.62945 0.78395 0.5338 0.0
C1405 C 0.61323 0.77474 0.5207 0.0
C1406 C 0.61322 0.76602 0.5023 0.0
C1407 C 0.62942 0.76635 0.49691 0.0
C1408 C 0.64581 0.77624 0.50986 0.0
C1409 C 0.64583 0.78498 0.52811 0.0
C1410 C 0.62985 0.81999 0.54068 0.0
C1411 C 0.61467 0.82226 0.53678 0.0
C1412 C 0.61529 0.83363 0.52217 0.0
C1413 C 0.63114 0.84295 0.51125 0.0
C1414 C 0.64616 0.84029 0.51499 0.0
C1415 C 0.64552 0.82893 0.52958 0.0
C1416 C 0.64011 0.8427 0.67214 0.0
C1417 C 0.6299 0.71073 0.55713 0.0
H1418 H 0.15192 0.81683 0.71269 0.0
H1419 H 0.0557 0.67005 0.53449 0.0
H1420 H 0.166 0.83347 0.61257 0.0
H1421 H 0.19158 0.86584 0.62684 0.0
H1422 H 0.23242 0.8519 0.60938 0.0
H1423 H 0.20661 0.81892 0.59593 0.0
H1424 H 0.13448 0.80281 0.6277 0.0
H1425 H 0.13763 0.80986 0.66336 0.0
H1426 H 0.18195 0.79783 0.66715 0.0
H1427 H 0.17848 0.79056 0.63146 0.0
H1428 H 0.10604 0.77511 0.59228 0.0
H1429 H 0.07874 0.75963 0.61148 0.0
H1430 H 0.10437 0.73468 0.64381 0.0
H1431 H 0.13194 0.75054 0.62447 0.0
H1432 H 0.10886 0.76741 0.55098 0.0
H1433 H 0.08086 0.73779 0.53473 0.0
H1434 H 0.09742 0.70255 0.56268 0.0
H1435 H 0.1255 0.73231 0.57865 0.0
H1436 H 0.14426 0.80261 0.53892 0.0
H1437 H 0.1373 0.79517 0.50347 0.0
H1438 H 0.14454 0.74642 0.50546 0.0
H1439 H 0.15147 0.75402 0.54116 0.0
H1440 H 0.17387 0.83586 0.56753 0.0
H1441 H 0.19476 0.85799 0.54483 0.0
H1442 H 0.21255 0.81801 0.52879 0.0
H1443 H 0.19151 0.79589 0.55161 0.0
O1444 O 0.15087 0.81391 0.6986 0.0
O1445 O 0.17367 0.80769 0.69974 0.0
O1446 O 0.05885 0.70079 0.52662 0.0
O1447 O 0.06668 0.682 0.54072 0.0
C1448 C 0.16867 0.80447 0.59407 0.0
C1449 C 0.15419 0.79154 0.60535 0.0
C1450 C 0.13779 0.77469 0.59594 0.0
C1451 C 0.13645 0.76997 0.5755 0.0
C1452 C 0.15105 0.78269 0.56426 0.0
C1453 C 0.16705 0.80007 0.5735 0.0
C1454 C 0.18441 0.82369 0.60351 0.0
C1455 C 0.18042 0.83714 0.6123 0.0
C1456 C 0.195 0.85563 0.62032 0.0
C1457 C 0.21385 0.86118 0.61924 0.0
C1458 C 0.21793 0.84782 0.61038 0.0
C1459 C 0.20327 0.82908 0.60274 0.0
C1460 C 0.15609 0.79594 0.62702 0.0
C1461 C 0.14473 0.80152 0.63627 0.0
C1462 C 0.14663 0.80563 0.65664 0.0
C1463 C 0.16001 0.80436 0.66812 0.0
C1464 C 0.17148 0.79891 0.65875 0.0
C1465 C 0.16953 0.79475 0.63838 0.0
C1466 C 0.12086 0.76379 0.60689 0.0
C1467 C 0.10563 0.76604 0.6033 0.0
C1468 C 0.09005 0.75718 0.61427 0.0
C1469 C 0.08937 0.74586 0.6291 0.0
C1470 C 0.10459 0.74344 0.63257 0.0
C1471 C 0.12024 0.75234 0.6215 0.0
C1472 C 0.11931 0.75199 0.5658 0.0
C1473 C 0.10649 0.75328 0.55344 0.0
C1474 C 0.09047 0.73634 0.54425 0.0
C1475 C 0.08693 0.71779 0.54736 0.0
C1476 C 0.09974 0.71659 0.55992 0.0
C1477 C 0.11578 0.73355 0.56907 0.0
C1478 C 0.14847 0.77892 0.54256 0.0
C1479 C 0.14473 0.79057 0.53165 0.0
C1480 C 0.14082 0.78633 0.51139 0.0
C1481 C 0.14045 0.77025 0.50165 0.0
C1482 C 0.14462 0.75883 0.51259 0.0
C1483 C 0.14863 0.76316 0.53291 0.0
C1484 C 0.18126 0.81433 0.56128 0.0
C1485 C 0.18258 0.83209 0.55943 0.0
C1486 C 0.19453 0.8447 0.54647 0.0
C1487 C 0.20529 0.83973 0.53502 0.0
C1488 C 0.2043 0.82214 0.53729 0.0
C1489 C 0.19239 0.80956 0.55035 0.0
C1490 C 0.16199 0.80874 0.68976 0.0
C1491 C 0.06996 0.69974 0.53758 0.0
H1492 H 0.2194 0.37548 0.72151 0.0
H1493 H 0.06622 0.3593 0.58264 0.0
H1494 H 0.22804 0.39372 0.62033 0.0
H1495 H 0.25117 0.38607 0.6314 0.0
H1496 H 0.21592 0.32753 0.60185 0.0
H1497 H 0.19326 0.33554 0.59048 0.0
H1498 H 0.1975 0.39479 0.64914 0.0
H1499 H 0.20813 0.39218 0.6817 0.0
H1500 H 0.19148 0.3327 0.66302 0.0
H1501 H 0.18065 0.33543 0.63064 0.0
H1502 H 0.15805 0.39269 0.63463 0.0
H1503 H 0.13433 0.3842 0.65854 0.0
H1504 H 0.12195 0.32505 0.65344 0.0
H1505 H 0.14557 0.33367 0.62978 0.0
H1506 H 0.15981 0.40183 0.58743 0.0
H1507 H 0.13197 0.40388 0.58209 0.0
H1508 H 0.09612 0.34305 0.59169 0.0
H1509 H 0.12404 0.34114 0.59674 0.0
H1510 H 0.18812 0.40017 0.55573 0.0
H1511 H 0.1769 0.39973 0.52218 0.0
H1512 H 0.12788 0.34201 0.52588 0.0
H1513 H 0.1397 0.34222 0.5588 0.0
H1514 H 0.22168 0.39899 0.57279 0.0
H1515 H 0.23714 0.39904 0.54299 0.0
H1516 H 0.1917 0.33939 0.52515 0.0
H1517 H 0.17621 0.33974 0.55463 0.0
O1518 O 0.21492 0.37612 0.70861 0.0
O1519 O 0.20633 0.34569 0.6982 0.0
O1520 O 0.09651 0.39006 0.57964 0.0
O1521 O 0.07746 0.35889 0.58464 0.0
C1522 C 0.19324 0.36819 0.60164 0.0
C1523 C 0.18265 0.36733 0.61761 0.0
C1524 C 0.1663 0.36799 0.61461 0.0
C1525 C 0.16093 0.3703 0.5958 0.0
C1526 C 0.1715 0.37111 0.57984 0.0
C1527 C 0.18758 0.36992 0.58275 0.0
C1528 C 0.20904 0.36519 0.6046 0.0
C1529 C 0.22566 0.37947 0.61578 0.0
C1530 C 0.23871 0.37497 0.62227 0.0
C1531 C 0.23525 0.35609 0.61775 0.0
C1532 C 0.21913 0.34225 0.60545 0.0
C1533 C 0.20616 0.3468 0.5989 0.0
C1534 C 0.18848 0.36537 0.63751 0.0
C1535 C 0.19609 0.38119 0.65216 0.0
C1536 C 0.20219 0.37967 0.67072 0.0
C1537 C 0.20074 0.36226 0.67494 0.0
C1538 C 0.19287 0.34634 0.66025 0.0
C1539 C 0.18672 0.34787 0.64173 0.0
C1540 C 0.15355 0.36381 0.63057 0.0
C1541 C 0.15037 0.37801 0.63894 0.0
C1542 C 0.1368 0.3731 0.65249 0.0
C1543 C 0.1263 0.35395 0.65788 0.0
C1544 C 0.13001 0.34 0.64987 0.0
C1545 C 0.14347 0.34488 0.63632 0.0
C1546 C 0.14394 0.3714 0.59264 0.0
C1547 C 0.14592 0.38898 0.58836 0.0
C1548 C 0.13001 0.3901 0.58533 0.0
C1549 C 0.11181 0.37364 0.58652 0.0
C1550 C 0.10991 0.35602 0.59073 0.0
C1551 C 0.12583 0.3549 0.59369 0.0
C1552 C 0.16465 0.37128 0.55971 0.0
C1553 C 0.17502 0.38742 0.54918 0.0
C1554 C 0.16853 0.38718 0.53009 0.0
C1555 C 0.15151 0.37081 0.52129 0.0
C1556 C 0.14121 0.35471 0.53201 0.0
C1557 C 0.14779 0.35489 0.55094 0.0
C1558 C 0.19783 0.3694 0.56575 0.0
C1559 C 0.21521 0.38592 0.56247 0.0
C1560 C 0.224 0.38589 0.54549 0.0
C1561 C 0.21555 0.36928 0.53159 0.0
C1562 C 0.19838 0.35256 0.53532 0.0
C1563 C 0.18959 0.35265 0.55222 0.0
C1564 C 0.20746 0.36078 0.69458 0.0
C1565 C 0.09486 0.37477 0.58338 0.0
C1566 C 0.99238 0.39182 0.0722 0.0
C1567 C 0.98198 0.38563 0.05389 0.0
C1568 C 0.98893 0.40199 0.08714 0.0
C1569 C 0.97473 0.40609 0.08373 0.0
C1570 C 0.96381 0.39943 0.0655 0.0
C1571 C 0.96757 0.38926 0.05076 0.0
C1572 C 0.00085 0.40877 0.10644 0.0
C1573 C 0.94851 0.40349 0.06141 0.0
C1574 C 0.96047 0.42088 0.13047 0.0
C1575 C 0.97256 0.44129 0.13207 0.0
C1576 C 0.96008 0.40917 0.11411 0.0
C1577 C 0.97208 0.41813 0.09909 0.0
C1578 C 0.98331 0.43878 0.1 0.0
C1579 C 0.98342 0.45011 0.11651 0.0
C1580 C 0.94786 0.38721 0.11362 0.0
C1581 C 0.99621 0.4489 0.08421 0.0
H1582 H 0.00347 0.38898 0.07479 0.0
H1583 H 0.95944 0.3845 0.03667 0.0
H1584 H 0.00908 0.42498 0.1089 0.0
H1585 H 0.99168 0.40328 0.11871 0.0
H1586 H 0.01083 0.40375 0.10699 0.0
H1587 H 0.94045 0.3962 0.04699 0.0
H1588 H 0.93853 0.39846 0.07305 0.0
H1589 H 0.95486 0.41947 0.06159 0.0
H1590 H 0.95218 0.41399 0.14256 0.0
H1591 H 0.9926 0.46591 0.11763 0.0
H1592 H 0.9569 0.38135 0.1165 0.0
H1593 H 0.94023 0.38049 0.09895 0.0
H1594 H 0.9374 0.38263 0.12481 0.0
H1595 H 0.00794 0.44632 0.08471 0.0
H1596 H 0.00235 0.46493 0.086 0.0
H1597 H 0.98848 0.44281 0.0695 0.0
C1598 C 0.61746 0.59449 0.13643 0.0
C1599 C 0.61747 0.58846 0.11675 0.0
C1600 C 0.60545 0.58105 0.14894 0.0
C1601 C 0.59343 0.56109 0.14164 0.0
C1602 C 0.59424 0.55475 0.12212 0.0
C1603 C 0.60613 0.56856 0.10984 0.0
C1604 C 0.60482 0.58841 0.1696 0.0
C1605 C 0.58193 0.53353 0.11394 0.0
C1606 C 0.56887 0.52446 0.17855 0.0
C1607 C 0.55096 0.52193 0.17757 0.0
C1608 C 0.58279 0.53689 0.16669 0.0
C1609 C 0.57877 0.54725 0.15379 0.0
C1610 C 0.56068 0.54463 0.1526 0.0
C1611 C 0.54697 0.53187 0.16434 0.0
C1612 C 0.60184 0.53911 0.16812 0.0
C1613 C 0.55587 0.55549 0.13909 0.0
H1614 H 0.62616 0.60987 0.14182 0.0
H1615 H 0.60624 0.5638 0.09468 0.0
H1616 H 0.59094 0.58679 0.17116 0.0
H1617 H 0.60627 0.5796 0.18027 0.0
H1618 H 0.6161 0.60403 0.17351 0.0
H1619 H 0.58584 0.53066 0.09932 0.0
H1620 H 0.58295 0.52405 0.12407 0.0
H1621 H 0.56697 0.52923 0.11248 0.0
H1622 H 0.57217 0.51701 0.18886 0.0
H1623 H 0.53305 0.52969 0.16313 0.0
H1624 H 0.61291 0.55442 0.17358 0.0
H1625 H 0.60534 0.53598 0.15339 0.0
H1626 H 0.60237 0.52923 0.17809 0.0
H1627 H 0.56576 0.57149 0.14271 0.0
H1628 H 0.54122 0.552 0.14011 0.0
H1629 H 0.55749 0.55179 0.12368 0.0
C1630 C 0.42632 0.01097 0.07488 0.0
C1631 C 0.41955 0.0235 0.07589 0.0
C1632 C 0.43641 0.01018 0.09106 0.0
C1633 C 0.43987 0.02226 0.10865 0.0
C1634 C 0.43385 0.03559 0.10948 0.0
C1635 C 0.42372 0.03603 0.09309 0.0
C1636 C 0.44258 0.99576 0.0896 0.0
C1637 C 0.4374 0.04881 0.12796 0.0
C1638 C 0.44424 0.0036 0.15623 0.0
C1639 C 0.46383 0.01435 0.16082 0.0
C1640 C 0.43633 0.00605 0.1393 0.0
C1641 C 0.44827 0.0197 0.12665 0.0
C1642 C 0.46806 0.03069 0.1312 0.0
C1643 C 0.47562 0.02787 0.14824 0.0
C1644 C 0.41514 0.99406 0.13498 0.0
C1645 C 0.48122 0.04539 0.11806 0.0
H1646 H 0.42325 0.00129 0.06161 0.0
H1647 H 0.41866 0.04585 0.09397 0.0
H1648 H 0.45777 0.00315 0.09456 0.0
H1649 H 0.43459 0.98424 0.09939 0.0
H1650 H 0.44023 0.98862 0.07443 0.0
H1651 H 0.43338 0.05958 0.12566 0.0
H1652 H 0.42914 0.03988 0.1396 0.0
H1653 H 0.45252 0.05686 0.1334 0.0
H1654 H 0.435 0.99344 0.16609 0.0
H1655 H 0.49078 0.03613 0.15164 0.0
H1656 H 0.41136 0.98531 0.12048 0.0
H1657 H 0.40973 0.00386 0.13427 0.0
H1658 H 0.40785 0.98396 0.14623 0.0
H1659 H 0.47951 0.03801 0.10318 0.0
H1660 H 0.49625 0.05291 0.12378 0.0
H1661 H 0.47761 0.05657 0.11652 0.0
C1662 C 0.41171 0.97452 0.97405 0.0
C1663 C 0.40271 0.98492 0.97588 0.0
C1664 C 0.41954 0.97335 0.95661 0.0
C1665 C 0.41828 0.98275 0.94062 0.0
C1666 C 0.40856 0.99261 0.94211 0.0
C1667 C 0.40091 0.99359 0.95973 0.0
C1668 C 0.42979 0.96269 0.95554 0.0
C1669 C 0.40686 0.00275 0.92535 0.0
C1670 C 0.45655 0.00023 0.90525 0.0
C1671 C 0.44754 0.98591 0.88916 0.0
C1672 C 0.4472 0.99926 0.92211 0.0
C1673 C 0.42834 0.98359 0.92291 0.0
C1674 C 0.41916 0.96901 0.90677 0.0
C1675 C 0.4289 0.97031 0.89007 0.0
C1676 C 0.45753 0.01504 0.93907 0.0
C1677 C 0.39903 0.95213 0.90709 0.0
H1678 H 0.4131 0.96772 0.98643 0.0
H1679 H 0.39387 0.00156 0.96096 0.0
H1680 H 0.4244 0.95193 0.94229 0.0
H1681 H 0.44503 0.97327 0.95431 0.0
H1682 H 0.42827 0.95489 0.96866 0.0
H1683 H 0.39763 0.00847 0.92831 0.0
H1684 H 0.42105 0.01516 0.92271 0.0
H1685 H 0.4011 0.99255 0.91168 0.0
H1686 H 0.47108 0.01211 0.90475 0.0
H1687 H 0.42186 0.95928 0.87761 0.0
H1688 H 0.45794 0.00844 0.95249 0.0
H1689 H 0.4499 0.02257 0.94214 0.0
H1690 H 0.47223 0.02613 0.93616 0.0
H1691 H 0.39774 0.94395 0.91979 0.0
H1692 H 0.39402 0.94184 0.89347 0.0
H1693 H 0.38959 0.95774 0.90892 0.0
C1694 C -3e-05 0.39759 0.96402 0.0
C1695 C 0.01424 0.39552 0.97216 0.0
C1696 C 0.00389 0.41128 0.95074 0.0
C1697 C 0.02248 0.42291 0.94507 0.0
C1698 C 0.03697 0.42081 0.95311 0.0
C1699 C 0.03272 0.40727 0.96681 0.0
C1700 C 0.98809 0.41333 0.94284 0.0
C1701 C 0.05685 0.43267 0.94705 0.0
C1702 C 0.02271 0.44266 0.89687 0.0
C1703 C 0.02689 0.46141 0.90328 0.0
C1704 C 0.02268 0.43044 0.91026 0.0
C1705 C 0.0264 0.43702 0.93055 0.0
C1706 C 0.03145 0.45632 0.93697 0.0
C1707 C 0.03181 0.46839 0.92317 0.0
C1708 C 0.01763 0.41013 0.9028 0.0
C1709 C 0.03513 0.46374 0.95848 0.0
H1710 H 0.9857 0.38869 0.96829 0.0
H1711 H 0.04375 0.40564 0.97305 0.0
H1712 H 0.992 0.42871 0.94583 0.0
H1713 H 0.98572 0.40957 0.9267 0.0
H1714 H 0.97462 0.40375 0.94938 0.0
H1715 H 0.06649 0.42931 0.95465 0.0
H1716 H 0.05683 0.42972 0.93099 0.0
H1717 H 0.0625 0.44851 0.95026 0.0
H1718 H 0.019 0.43739 0.8814 0.0
H1719 H 0.03493 0.4829 0.92803 0.0
H1720 H 0.00327 0.39924 0.90673 0.0
H1721 H 0.02755 0.40679 0.90975 0.0
H1722 H 0.01786 0.40832 0.88662 0.0
H1723 H 0.02175 0.45588 0.96567 0.0
H1724 H 0.04086 0.47967 0.96089 0.0
H1725 H 0.04519 0.4608 0.96579 0.0
C1726 C 0.59401 0.59517 0.00503 0.0
C1727 C 0.58895 0.60289 0.0209 0.0
C1728 C 0.58345 0.5888 0.98684 0.0
C1729 C 0.56741 0.59019 0.98441 0.0
C1730 C 0.56209 0.59781 0.00038 0.0
C1731 C 0.57294 0.60407 0.01848 0.0
C1732 C 0.58957 0.58073 0.97015 0.0
C1733 C 0.54508 0.59952 0.99829 0.0
C1734 C 0.55376 0.59041 0.93138 0.0
C1735 C 0.53983 0.57063 0.92615 0.0
C1736 C 0.56212 0.59722 0.95063 0.0
C1737 C 0.55652 0.58391 0.96495 0.0
C1738 C 0.54179 0.56414 0.96001 0.0
C1739 C 0.53358 0.55776 0.94067 0.0
C1740 C 0.57772 0.61844 0.95535 0.0
C1741 C 0.5354 0.54951 0.97488 0.0
H1742 H 0.60634 0.59417 0.00675 0.0
H1743 H 0.56892 0.61002 0.03067 0.0
H1744 H 0.57792 0.56567 0.96464 0.0
H1745 H 0.59287 0.5898 0.95779 0.0
H1746 H 0.6022 0.58034 0.97456 0.0
H1747 H 0.54258 0.60534 0.01224 0.0
H1748 H 0.54703 0.60933 0.98695 0.0
H1749 H 0.5323 0.58501 0.99331 0.0
H1750 H 0.55882 0.60042 0.92022 0.0
H1751 H 0.52259 0.54252 0.93679 0.0
H1752 H 0.59139 0.61956 0.95799 0.0
H1753 H 0.57529 0.62482 0.96894 0.0
H1754 H 0.57892 0.62731 0.94328 0.0
H1755 H 0.54682 0.54699 0.9787 0.0
H1756 H 0.52253 0.53525 0.96929 0.0
H1757 H 0.53249 0.55525 0.98858 0.0
C1758 C 0.03365 0.60966 0.01808 0.0
C1759 C 0.01865 0.61244 0.01534 0.0
C1760 C 0.03804 0.60045 0.0029 0.0
C1761 C 0.02681 0.59342 0.98483 0.0
C1762 C 0.01168 0.59626 0.98202 0.0
C1763 C 0.00795 0.60594 0.99721 0.0
C1764 C 0.0546 0.59817 0.0062 0.0
C1765 C 0.99914 0.58867 0.96309 0.0
C1766 C 0.04155 0.58209 0.93661 0.0
C1767 C 0.03164 0.56156 0.9349 0.0
C1768 C 0.04128 0.59278 0.95349 0.0
C1769 C 0.03043 0.58273 0.96883 0.0
C1770 C 0.02121 0.56213 0.96768 0.0
C1771 C 0.02216 0.55184 0.95086 0.0
C1772 C 0.05168 0.61478 0.95436 0.0
C1773 C 0.00928 0.55083 0.98361 0.0
H1774 H 0.04202 0.61477 0.03205 0.0
H1775 H 0.99623 0.6079 0.99507 0.0
H1776 H 0.04962 0.58244 0.00524 0.0
H1777 H 0.06441 0.60457 0.99458 0.0
H1778 H 0.0625 0.60533 0.02071 0.0
H1779 H 0.98778 0.59183 0.9634 0.0
H1780 H 0.00766 0.59537 0.95064 0.0
H1781 H 0.99252 0.57262 0.9602 0.0
H1782 H 0.04876 0.58984 0.92437 0.0
H1783 H 0.01486 0.53605 0.94994 0.0
H1784 H 0.05941 0.62172 0.96896 0.0
H1785 H 0.04139 0.61922 0.95211 0.0
H1786 H 0.06186 0.62053 0.94294 0.0
H1787 H 0.01729 0.55706 0.99818 0.0
H1788 H 0.00439 0.53509 0.98132 0.0
H1789 H 0.99671 0.55202 0.98393 0.0
C1790 C 0.42271 0.42983 0.95997 0.0
C1791 C 0.40407 0.42326 0.96391 0.0
C1792 C 0.43135 0.44224 0.9454 0.0
C1793 C 0.42109 0.44821 0.93445 0.0
C1794 C 0.40244 0.44207 0.93867 0.0
C1795 C 0.39413 0.42965 0.95339 0.0
C1796 C 0.45133 0.44855 0.94139 0.0
C1797 C 0.39112 0.44822 0.9273 0.0
C1798 C 0.45145 0.49156 0.90643 0.0
C1799 C 0.45069 0.48219 0.8881 0.0
C1800 C 0.44109 0.48074 0.92145 0.0
C1801 C 0.42975 0.4601 0.91799 0.0
C1802 C 0.42816 0.45065 0.89918 0.0
C1803 C 0.43867 0.46183 0.88445 0.0
C1804 C 0.44311 0.49132 0.94131 0.0
C1805 C 0.41613 0.42867 0.89488 0.0
H1806 H 0.43054 0.42506 0.96811 0.0
H1807 H 0.37972 0.42466 0.95638 0.0
H1808 H 0.45152 0.44281 0.92626 0.0
H1809 H 0.46037 0.46473 0.94241 0.0
H1810 H 0.45762 0.44329 0.95178 0.0
H1811 H 0.37725 0.44322 0.93321 0.0
H1812 H 0.39911 0.46437 0.9276 0.0
H1813 H 0.38863 0.44208 0.91173 0.0
H1814 H 0.46085 0.5073 0.90935 0.0
H1815 H 0.43785 0.45458 0.87019 0.0
H1816 H 0.45118 0.48826 0.95195 0.0
H1817 H 0.42906 0.48602 0.94682 0.0
H1818 H 0.4506 0.5074 0.94095 0.0
H1819 H 0.42228 0.422 0.90342 0.0
H1820 H 0.41507 0.42375 0.87908 0.0
H1821 H 0.4017 0.42304 0.89946 0.0
C1822 C 0.59015 0.01189 0.98289 0.0
C1823 C 0.58681 0.99704 0.99448 0.0
C1824 C 0.57855 0.00788 0.96584 0.0
C1825 C 0.56307 0.98859 0.96036 0.0
C1826 C 0.55945 0.97355 0.9721 0.0
C1827 C 0.57145 0.97793 0.989 0.0
C1828 C 0.583 0.02429 0.95357 0.0
C1829 C 0.54295 0.95285 0.96679 0.0
C1830 C 0.52612 0.98563 0.92461 0.0
C1831 C 0.5314 0.98138 0.90667 0.0
C1832 C 0.53567 0.98697 0.94237 0.0
C1833 C 0.551 0.98427 0.94207 0.0
C1834 C 0.55588 0.9792 0.92402 0.0
C1835 C 0.54596 0.97773 0.90652 0.0
C1836 C 0.52989 0.99214 0.96135 0.0
C1837 C 0.57227 0.97641 0.92307 0.0
H1838 H 0.60203 0.02668 0.98699 0.0
H1839 H 0.56874 0.96641 0.99796 0.0
H1840 H 0.58558 0.02072 0.93853 0.0
H1841 H 0.57078 0.02604 0.95226 0.0
H1842 H 0.59558 0.03847 0.95987 0.0
H1843 H 0.54176 0.94296 0.97777 0.0
H1844 H 0.52962 0.95263 0.96555 0.0
H1845 H 0.54444 0.94702 0.95228 0.0
H1846 H 0.51477 0.9883 0.92472 0.0
H1847 H 0.55022 0.97469 0.89263 0.0
H1848 H 0.54109 0.00709 0.96769 0.0
H1849 H 0.52824 0.98198 0.97219 0.0
H1850 H 0.51646 0.99164 0.95926 0.0
H1851 H 0.58565 0.99056 0.9276 0.0
H1852 H 0.57324 0.97094 0.9081 0.0
H1853 H 0.57101 0.96598 0.93338 0.0
C1854 C 0.60029 0.01823 0.10291 0.0
C1855 C 0.5872 0.00572 0.08729 0.0
C1856 C 0.59425 0.02138 0.1209 0.0
C1857 C 0.57468 0.01184 0.12322 0.0
C1858 C 0.56145 -4e-05 0.1072 0.0
C1859 C 0.56787 0.99703 0.08944 0.0
C1860 C 0.60876 0.03419 0.13766 0.0
C1861 C 0.54045 0.98965 0.10904 0.0
C1862 C 0.55555 0.99819 0.1727 0.0
C1863 C 0.55052 0.01182 0.17759 0.0
C1864 C 0.56421 0.9986 0.15543 0.0
C1865 C 0.56787 0.01296 0.14272 0.0
C1866 C 0.56358 0.02729 0.14799 0.0
C1867 C 0.55495 0.02656 0.1654 0.0
C1868 C 0.5687 0.98315 0.1504 0.0
C1869 C 0.56728 0.04283 0.13482 0.0
H1870 H 0.61526 0.02501 0.10135 0.0
H1871 H 0.55767 0.98747 0.07739 0.0
H1872 H 0.60578 0.04507 0.14429 0.0
H1873 H 0.60802 0.02508 0.14927 0.0
H1874 H 0.62334 0.04207 0.13294 0.0
H1875 H 0.53208 0.98207 0.09482 0.0
H1876 H 0.53625 0.97867 0.11967 0.0
H1877 H 0.53676 0.00025 0.11477 0.0
H1878 H 0.5524 0.98696 0.18225 0.0
H1879 H 0.55095 0.03703 0.16906 0.0
H1880 H 0.58363 0.99005 0.14696 0.0
H1881 H 0.55975 0.97352 0.13715 0.0
H1882 H 0.56626 0.97393 0.16251 0.0
H1883 H 0.58196 0.05015 0.13045 0.0
H1884 H 0.56501 0.05407 0.14196 0.0
H1885 H 0.55771 0.03594 0.1212 0.0
C1886 C 0.97366 0.58739 0.09142 0.0
C1887 C 0.97286 0.60383 0.09744 0.0
C1888 C 0.97234 0.5746 0.1048 0.0
C1889 C 0.96999 0.5782 0.12467 0.0
C1890 C 0.96808 0.5941 0.13064 0.0
C1891 C 0.96962 0.6068 0.11696 0.0
C1892 C 0.97453 0.55785 0.09785 0.0
C1893 C 0.96529 0.59823 0.15166 0.0
C1894 C 0.95724 0.5371 0.15637 0.0
C1895 C 0.97504 0.54277 0.16499 0.0
C1896 C 0.95523 0.54878 0.14368 0.0
C1897 C 0.97141 0.56645 0.13942 0.0
C1898 C 0.98932 0.57247 0.14848 0.0
C1899 C 0.99089 0.56064 0.16122 0.0
C1900 C 0.93588 0.54199 0.13442 0.0
C1901 C 0.00695 0.59121 0.14432 0.0
H1902 H 0.97608 0.58491 0.07635 0.0
H1903 H 0.96885 0.61937 0.12171 0.0
H1904 H 0.98789 0.56039 0.10472 0.0
H1905 H 0.96283 0.54394 0.10241 0.0
H1906 H 0.97476 0.55613 0.08167 0.0
H1907 H 0.9618 0.60965 0.15344 0.0
H1908 H 0.95383 0.58472 0.15711 0.0
H1909 H 0.97839 0.60327 0.16103 0.0
H1910 H 0.94494 0.52327 0.15912 0.0
H1911 H 0.00463 0.56535 0.16819 0.0
H1912 H 0.93529 0.53846 0.11838 0.0
H1913 H 0.93299 0.55381 0.13663 0.0
H1914 H 0.92456 0.52882 0.14054 0.0
H1915 H 0.00924 0.59046 0.12852 0.0
H1916 H 0.01972 0.59408 0.153 0.0
H1917 H 0.0053 0.60378 0.14766 0.0
C1918 C 0.42172 0.38584 0.04977 0.0
C1919 C 0.40806 0.39059 0.04689 0.0
C1920 C 0.43291 0.39179 0.06762 0.0
C1921 C 0.43019 0.40253 0.08294 0.0
C1922 C 0.41638 0.40728 0.08011 0.0
C1923 C 0.40557 0.40134 0.06211 0.0
C1924 C 0.44762 0.38662 0.0701 0.0
C1925 C 0.41295 0.41859 0.09614 0.0
C1926 C 0.44396 0.40463 0.13652 0.0
C1927 C 0.45952 0.42388 0.14021 0.0
C1928 C 0.43489 0.39701 0.11761 0.0
C1929 C 0.44166 0.40892 0.10205 0.0
C1930 C 0.45814 0.42789 0.10547 0.0
C1931 C 0.46682 0.4352 0.12456 0.0
C1932 C 0.41729 0.37675 0.11459 0.0
C1933 C 0.46594 0.44094 0.08922 0.0
H1934 H 0.42376 0.37758 0.03805 0.0
H1935 H 0.395 0.405 0.06007 0.0
H1936 H 0.46176 0.40014 0.07368 0.0
H1937 H 0.44468 0.3777 0.08253 0.0
H1938 H 0.44809 0.37835 0.05671 0.0
H1939 H 0.40149 0.42088 0.09165 0.0
H1940 H 0.40911 0.41069 0.10941 0.0
H1941 H 0.42604 0.43309 0.1003 0.0
H1942 H 0.43819 0.39592 0.14864 0.0
H1943 H 0.47898 0.45003 0.12739 0.0
H1944 H 0.41788 0.36824 0.10152 0.0
H1945 H 0.40481 0.37786 0.11191 0.0
H1946 H 0.4152 0.36857 0.12751 0.0
H1947 H 0.46688 0.43284 0.07601 0.0
H1948 H 0.48013 0.45414 0.09367 0.0
H1949 H 0.45627 0.44573 0.08504 0.0
C1950 C 0.62646 0.70367 0.39881 0.0
C1951 C 0.644 0.71459 0.39103 0.0
C1952 C 0.62191 0.71158 0.41501 0.0
C1953 C 0.63521 0.73083 0.42357 0.0
C1954 C 0.65255 0.74222 0.41521 0.0
C1955 C 0.65674 0.73396 0.39905 0.0
C1956 C 0.60324 0.69903 0.4235 0.0
C1957 C 0.66709 0.76284 0.42389 0.0
C1958 C 0.62221 0.75825 0.46047 0.0
C1959 C 0.62932 0.75602 0.47814 0.0
C1960 C 0.62345 0.7496 0.44252 0.0
C1961 C 0.63193 0.73847 0.44237 0.0
C1962 C 0.63844 0.73557 0.46026 0.0
C1963 C 0.63705 0.74438 0.47791 0.0
C1964 C 0.61633 0.75295 0.42372 0.0
C1965 C 0.64745 0.72369 0.46074 0.0
H1966 H 0.61649 0.68873 0.39263 0.0
H1967 H 0.67025 0.74258 0.39303 0.0
H1968 H 0.6057 0.69528 0.43803 0.0
H1969 H 0.59608 0.70714 0.4258 0.0
H1970 H 0.59366 0.68523 0.41392 0.0
H1971 H 0.67915 0.77028 0.41469 0.0
H1972 H 0.66056 0.77163 0.4257 0.0
H1973 H 0.67261 0.76255 0.43866 0.0
H1974 H 0.61627 0.76729 0.46063 0.0
H1975 H 0.64221 0.74232 0.4916 0.0
H1976 H 0.60682 0.73884 0.41462 0.0
H1977 H 0.62841 0.76203 0.41507 0.0
H1978 H 0.60863 0.76047 0.42645 0.0
H1979 H 0.63791 0.70894 0.45277 0.0
H1980 H 0.65086 0.722 0.47593 0.0
H1981 H 0.66068 0.73088 0.45321 0.0
C1982 C 0.24021 0.9064 0.44845 0.0
C1983 C 0.25884 0.91346 0.444 0.0
C1984 C 0.23233 0.89424 0.46341 0.0
C1985 C 0.24331 0.88897 0.47415 0.0
C1986 C 0.26206 0.8959 0.46965 0.0
C1987 C 0.26962 0.9081 0.45463 0.0
C1988 C 0.21227 0.88717 0.46781 0.0
C1989 C 0.27414 0.89049 0.48075 0.0
C1990 C 0.22725 0.87273 0.52412 0.0
C1991 C 0.21656 0.85232 0.51995 0.0
C1992 C 0.23655 0.88485 0.50948 0.0
C1993 C 0.2351 0.87633 0.49021 0.0
C1994 C 0.22486 0.85573 0.48606 0.0
C1995 C 0.21569 0.84397 0.50098 0.0
C1996 C 0.2474 0.90676 0.51448 0.0
C1997 C 0.223 0.84612 0.46569 0.0
H1998 H 0.23178 0.91047 0.44032 0.0
H1999 H 0.28401 0.91347 0.45127 0.0
H2000 H 0.20362 0.87095 0.4662 0.0
H2001 H 0.21201 0.89221 0.48321 0.0
H2002 H 0.20559 0.89249 0.458 0.0
H2003 H 0.28836 0.89687 0.47526 0.0
H2004 H 0.27582 0.89565 0.49655 0.0
H2005 H 0.26712 0.87435 0.47953 0.0
H2006 H 0.22816 0.87923 0.53883 0.0
H2007 H 0.20725 0.82821 0.49761 0.0
H2008 H 0.24056 0.91296 0.50628 0.0
H2009 H 0.26198 0.91346 0.50997 0.0
H2010 H 0.24811 0.91103 0.5304 0.0
H2011 H 0.21484 0.84949 0.45554 0.0
H2012 H 0.21576 0.82998 0.46523 0.0
H2013 H 0.23713 0.85198 0.46016 0.0
C2014 C 0.1096 0.36577 0.41196 0.0
C2015 C 0.09079 0.36015 0.4137 0.0
C2016 C 0.12156 0.36923 0.42859 0.0
C2017 C 0.1144 0.36665 0.44729 0.0
C2018 C 0.09551 0.36127 0.44913 0.0
C2019 C 0.084 0.35824 0.43234 0.0
C2020 C 0.14174 0.37532 0.42615 0.0
C2021 C 0.08727 0.35813 0.46879 0.0
C2022 C 0.13498 0.35322 0.48843 0.0
C2023 C 0.14409 0.37054 0.50126 0.0
C2024 C 0.1259 0.35199 0.47042 0.0
C2025 C 0.12621 0.3686 0.46493 0.0
C2026 C 0.13635 0.38647 0.47723 0.0
C2027 C 0.14506 0.3872 0.49533 0.0
C2028 C 0.11516 0.33262 0.45775 0.0
C2029 C 0.13725 0.40458 0.47171 0.0
H2030 H 0.11496 0.36739 0.39759 0.0
H2031 H 0.06946 0.35384 0.43379 0.0
H2032 H 0.15152 0.38878 0.43604 0.0
H2033 H 0.14398 0.36373 0.43032 0.0
H2034 H 0.1455 0.37806 0.41084 0.0
H2035 H 0.07242 0.35432 0.46774 0.0
H2036 H 0.08769 0.34616 0.47506 0.0
H2037 H 0.0958 0.37151 0.4792 0.0
H2038 H 0.13457 0.34042 0.49267 0.0
H2039 H 0.15197 0.40063 0.50517 0.0
H2040 H 0.11953 0.33449 0.44258 0.0
H2041 H 0.09984 0.32699 0.45697 0.0
H2042 H 0.11734 0.32148 0.4635 0.0
H2043 H 0.14104 0.40701 0.45638 0.0
H2044 H 0.14767 0.41784 0.48154 0.0
H2045 H 0.12317 0.40262 0.47255 0.0
C2046 C 0.08265 0.30096 0.31292 0.0
C2047 C 0.07602 0.3136 0.31349 0.0
C2048 C 0.08854 0.29635 0.29552 0.0
C2049 C 0.08769 0.30454 0.27832 0.0
C2050 C 0.08035 0.31671 0.27864 0.0
C2051 C 0.07464 0.32112 0.29621 0.0
C2052 C 0.09629 0.28331 0.29572 0.0
C2053 C 0.07914 0.32565 0.26057 0.0
C2054 C 0.1222 0.31336 0.24 0.0
C2055 C 0.11082 0.2982 0.22519 0.0
C2056 C 0.11493 0.31526 0.25755 0.0
C2057 C 0.09578 0.30167 0.26036 0.0
C2058 C 0.0843 0.28606 0.24565 0.0
C2059 C 0.09199 0.28447 0.22822 0.0
C2060 C 0.12767 0.33204 0.27293 0.0
C2061 C 0.06382 0.27133 0.24814 0.0
H2062 H 0.0837 0.29504 0.32619 0.0
H2063 H 0.06939 0.33077 0.29646 0.0
H2064 H 0.08912 0.27127 0.28361 0.0
H2065 H 0.11153 0.29187 0.29329 0.0
H2066 H 0.09461 0.27688 0.30981 0.0
H2067 H 0.07188 0.33368 0.26291 0.0
H2068 H 0.09356 0.33599 0.25634 0.0
H2069 H 0.07149 0.31414 0.24808 0.0
H2070 H 0.13687 0.32377 0.23787 0.0
H2071 H 0.08315 0.27277 0.21676 0.0
H2072 H 0.12778 0.32643 0.28715 0.0
H2073 H 0.12223 0.3418 0.27522 0.0
H2074 H 0.14242 0.34085 0.2688 0.0
H2075 H 0.06248 0.26476 0.26206 0.0
H2076 H 0.05711 0.25943 0.23584 0.0
H2077 H 0.05591 0.27876 0.24902 0.0
C2078 C 0.69272 0.72658 0.2795 0.0
C2079 C 0.69828 0.73268 0.29952 0.0
C2080 C 0.69633 0.74017 0.26612 0.0
C2081 C 0.70601 0.76032 0.27292 0.0
C2082 C 0.71285 0.76665 0.29287 0.0
C2083 C 0.70875 0.75273 0.30598 0.0
C2084 C 0.68864 0.73285 0.24499 0.0
C2085 C 0.72356 0.78804 0.3006 0.0
C2086 C 0.72246 0.79704 0.23533 0.0
C2087 C 0.70798 0.80085 0.23457 0.0
C2088 C 0.72219 0.78405 0.24792 0.0
C2089 C 0.70695 0.77446 0.25977 0.0
C2090 C 0.69236 0.77829 0.25911 0.0
C2091 C 0.69316 0.79157 0.24669 0.0
C2092 C 0.73811 0.78051 0.24847 0.0
C2093 C 0.6758 0.76829 0.27147 0.0
H2094 H 0.68461 0.7111 0.27442 0.0
H2095 H 0.71327 0.75752 0.32142 0.0
H2096 H 0.67692 0.73508 0.24184 0.0
H2097 H 0.69968 0.74122 0.23499 0.0
H2098 H 0.68324 0.71706 0.24162 0.0
H2099 H 0.73008 0.79072 0.31575 0.0
H2100 H 0.7348 0.79685 0.29096 0.0
H2101 H 0.71379 0.79334 0.30069 0.0
H2102 H 0.73388 0.804 0.22589 0.0
H2103 H 0.68215 0.79475 0.24657 0.0
H2104 H 0.73258 0.76491 0.2437 0.0
H2105 H 0.74457 0.78365 0.2637 0.0
H2106 H 0.74928 0.78968 0.23889 0.0
H2107 H 0.66849 0.75219 0.26822 0.0
H2108 H 0.6654 0.77255 0.26887 0.0
H2109 H 0.68084 0.772 0.28724 0.0
C2110 C 0.25077 0.91028 0.34075 0.0
C2111 C 0.25688 0.92709 0.35375 0.0
C2112 C 0.24129 0.90749 0.32246 0.0
C2113 C 0.23776 0.92182 0.31705 0.0
C2114 C 0.24307 0.93836 0.33047 0.0
C2115 C 0.25261 0.94083 0.34866 0.0
C2116 C 0.23584 0.88963 0.30857 0.0
C2117 C 0.2394 0.95386 0.32529 0.0
C2118 C 0.23521 0.92487 0.26236 0.0
C2119 C 0.21569 0.91388 0.25736 0.0
C2120 C 0.24253 0.92811 0.28185 0.0
C2121 C 0.23003 0.92022 0.29674 0.0
C2122 C 0.21029 0.90983 0.29192 0.0
C2123 C 0.20334 0.90676 0.27225 0.0
C2124 C 0.26368 0.93936 0.28638 0.0
C2125 C 0.19653 0.90128 0.30741 0.0
H2126 H 0.25391 0.89954 0.34458 0.0
H2127 H 0.25718 0.95381 0.35866 0.0
H2128 H 0.22072 0.88193 0.30322 0.0
H2129 H 0.24417 0.89415 0.29558 0.0
H2130 H 0.23833 0.87919 0.31552 0.0
H2131 H 0.2426 0.96473 0.33803 0.0
H2132 H 0.24828 0.96168 0.31344 0.0
H2133 H 0.22446 0.94707 0.31965 0.0
H2134 H 0.2448 0.93067 0.25093 0.0
H2135 H 0.18824 0.89812 0.26843 0.0
H2136 H 0.26786 0.92962 0.29201 0.0
H2137 H 0.26815 0.95159 0.29801 0.0
H2138 H 0.27145 0.94541 0.27329 0.0
H2139 H 0.19734 0.88934 0.31324 0.0
H2140 H 0.18175 0.89527 0.3016 0.0
H2141 H 0.20025 0.91254 0.3199 0.0
C2142 C 0.6822 0.9334 0.33311 0.0
C2143 C 0.69217 0.94094 0.35162 0.0
C2144 C 0.68859 0.92606 0.31825 0.0
C2145 C 0.70553 0.92653 0.32187 0.0
C2146 C 0.71584 0.93438 0.34042 0.0
C2147 C 0.70895 0.94138 0.35516 0.0
C2148 C 0.67706 0.91761 0.29871 0.0
C2149 C 0.73411 0.93541 0.34467 0.0
C2150 C 0.70897 0.89017 0.28726 0.0
C2151 C 0.71838 0.90156 0.27217 0.0
C2152 C 0.70564 0.89838 0.30416 0.0
C2153 C 0.71212 0.91851 0.30612 0.0
C2154 C 0.72293 0.93038 0.29169 0.0
C2155 C 0.72583 0.92174 0.27481 0.0
C2156 C 0.69401 0.8852 0.3192 0.0
C2157 C 0.7303 0.95196 0.29337 0.0
H2158 H 0.66918 0.93294 0.33028 0.0
H2159 H 0.71678 0.9473 0.36941 0.0
H2160 H 0.68567 0.92574 0.28684 0.0
H2161 H 0.67284 0.90215 0.29545 0.0
H2162 H 0.66412 0.91818 0.29834 0.0
H2163 H 0.74066 0.94236 0.3597 0.0
H2164 H 0.73158 0.92049 0.34299 0.0
H2165 H 0.74428 0.94385 0.33395 0.0
H2166 H 0.70348 0.87463 0.28547 0.0
H2167 H 0.73294 0.93065 0.26317 0.0
H2168 H 0.67997 0.8835 0.31859 0.0
H2169 H 0.70083 0.89175 0.3342 0.0
H2170 H 0.69186 0.87045 0.31665 0.0
H2171 H 0.71839 0.95401 0.29071 0.0
H2172 H 0.74079 0.95962 0.2826 0.0
H2173 H 0.73694 0.95895 0.30835 0.0
C2174 C 0.06937 0.77579 0.29997 0.0
C2175 C 0.07055 0.75915 0.29856 0.0
C2176 C 0.07884 0.79044 0.28745 0.0
C2177 C 0.08969 0.78831 0.27324 0.0
C2178 C 0.09071 0.77143 0.2716 0.0
C2179 C 0.08115 0.75708 0.28428 0.0
C2180 C 0.07744 0.80825 0.28957 0.0
C2181 C 0.10209 0.76859 0.25657 0.0
C2182 C 0.10312 0.81549 0.22809 0.0
C2183 C 0.12231 0.82951 0.23303 0.0
C2184 C 0.09201 0.80258 0.24145 0.0
C2185 C 0.10032 0.80377 0.26017 0.0
C2186 C 0.11944 0.81855 0.26559 0.0
C2187 C 0.13022 0.83124 0.25192 0.0
C2188 C 0.07167 0.787 0.23514 0.0
C2189 C 0.12877 0.82036 0.28546 0.0
H2190 H 0.0612 0.77749 0.31098 0.0
H2191 H 0.08211 0.74425 0.28303 0.0
H2192 H 0.09167 0.82157 0.29342 0.0
H2193 H 0.07201 0.80994 0.27542 0.0
H2194 H 0.06804 0.80746 0.30101 0.0
H2195 H 0.10115 0.75445 0.25699 0.0
H2196 H 0.09709 0.76913 0.24164 0.0
H2197 H 0.11715 0.78062 0.25918 0.0
H2198 H 0.09699 0.81401 0.21344 0.0
H2199 H 0.14498 0.84228 0.25588 0.0
H2200 H 0.06236 0.78654 0.2465 0.0
H2201 H 0.07005 0.77247 0.23336 0.0
H2202 H 0.06679 0.78941 0.22103 0.0
H2203 H 0.12005 0.82051 0.29724 0.0
H2204 H 0.14311 0.83381 0.2881 0.0
H2205 H 0.12998 0.80751 0.28659 0.0
C2206 C 0.22719 0.30319 0.3287 0.0
C2207 C 0.24164 0.29937 0.32824 0.0
C2208 C 0.21535 0.29922 0.31182 0.0
C2209 C 0.21802 0.29121 0.2941 0.0
C2210 C 0.23174 0.28611 0.29388 0.0
C2211 C 0.2434 0.29027 0.31097 0.0
C2212 C 0.20083 0.30479 0.31265 0.0
C2213 C 0.23493 0.27742 0.2753 0.0
C2214 C 0.18186 0.27339 0.25027 0.0
C2215 C 0.19023 0.28967 0.2396 0.0
C2216 C 0.19066 0.27362 0.26813 0.0
C2217 C 0.20822 0.2905 0.27537 0.0
C2218 C 0.21671 0.30693 0.26462 0.0
C2219 C 0.20765 0.30629 0.24687 0.0
C2220 C 0.18122 0.25585 0.27923 0.0
C2221 C 0.23548 0.3252 0.27178 0.0
H2222 H 0.22562 0.31009 0.34202 0.0
H2223 H 0.25441 0.28709 0.31052 0.0
H2224 H 0.20535 0.31766 0.30446 0.0
H2225 H 0.18701 0.2927 0.30555 0.0
H2226 H 0.19889 0.30854 0.32794 0.0
H2227 H 0.24443 0.27206 0.27811 0.0
H2228 H 0.22133 0.26512 0.26802 0.0
H2229 H 0.24137 0.28867 0.26492 0.0
H2230 H 0.16835 0.26055 0.24475 0.0
H2231 H 0.21439 0.31876 0.23849 0.0
H2232 H 0.17866 0.25986 0.29409 0.0
H2233 H 0.19062 0.25025 0.28114 0.0
H2234 H 0.16755 0.2439 0.27163 0.0
H2235 H 0.23459 0.33114 0.28652 0.0
H2236 H 0.24005 0.33678 0.26177 0.0
H2237 H 0.2465 0.32164 0.27319 0.0
C2238 C 0.2614 0.37464 0.42883 0.0
C2239 C 0.2622 0.35786 0.42528 0.0
C2240 C 0.25489 0.37827 0.44627 0.0
C2241 C 0.24886 0.36468 0.46035 0.0
C2242 C 0.24989 0.34788 0.45696 0.0
C2243 C 0.25663 0.34473 0.43954 0.0
C2244 C 0.2542 0.39647 0.44952 0.0
C2245 C 0.24343 0.33295 0.47155 0.0
C2246 C 0.24395 0.37779 0.51319 0.0
C2247 C 0.22438 0.36932 0.51312 0.0
C2248 C 0.25225 0.37704 0.49594 0.0
C2249 C 0.24067 0.36745 0.47828 0.0
C2250 C 0.22099 0.35935 0.47801 0.0
C2251 C 0.21311 0.36048 0.4954 0.0
C2252 C 0.27331 0.38599 0.49675 0.0
C2253 C 0.20815 0.34896 0.45947 0.0
H2254 H 0.26579 0.38492 0.41794 0.0
H2255 H 0.25718 0.33171 0.43693 0.0
H2256 H 0.23936 0.39237 0.45024 0.0
H2257 H 0.26194 0.40487 0.46374 0.0
H2258 H 0.2604 0.40612 0.43767 0.0
H2259 H 0.24562 0.32092 0.46693 0.0
H2260 H 0.25117 0.34007 0.48611 0.0
H2261 H 0.2282 0.32652 0.47336 0.0
H2262 H 0.25274 0.38454 0.52684 0.0
H2263 H 0.19804 0.35431 0.49513 0.0
H2264 H 0.27947 0.39589 0.48512 0.0
H2265 H 0.27631 0.3743 0.49398 0.0
H2266 H 0.2805 0.39437 0.51117 0.0
H2267 H 0.21308 0.35866 0.44757 0.0
H2268 H 0.19328 0.3442 0.46155 0.0
H2269 H 0.20859 0.33589 0.45452 0.0
C2270 C 0.6354 0.91087 0.42906 0.0
C2271 C 0.65318 0.92835 0.4319 0.0
C2272 C 0.63009 0.89627 0.4417 0.0
C2273 C 0.64291 0.8992 0.45746 0.0
C2274 C 0.66071 0.91696 0.46062 0.0
C2275 C 0.6656 0.93133 0.44784 0.0
C2276 C 0.61092 0.87758 0.438 0.0
C2277 C 0.67479 0.92063 0.47724 0.0
C2278 C 0.627 0.86951 0.50095 0.0
C2279 C 0.63251 0.85616 0.49664 0.0
C2280 C 0.62964 0.88316 0.48797 0.0
C2281 C 0.6381 0.88352 0.47034 0.0
C2282 C 0.64313 0.86968 0.46561 0.0
C2283 C 0.64023 0.85614 0.4788 0.0
C2284 C 0.62403 0.89764 0.49349 0.0
C2285 C 0.65218 0.8696 0.44693 0.0
H2286 H 0.62569 0.90848 0.41682 0.0
H2287 H 0.67936 0.94478 0.45018 0.0
H2288 H 0.6126 0.86504 0.43449 0.0
H2289 H 0.60316 0.87485 0.45139 0.0
H2290 H 0.60225 0.87796 0.42571 0.0
H2291 H 0.68783 0.93544 0.47801 0.0
H2292 H 0.66838 0.91904 0.49143 0.0
H2293 H 0.67877 0.90961 0.4754 0.0
H2294 H 0.62123 0.86977 0.5148 0.0
H2295 H 0.64424 0.84565 0.47524 0.0
H2296 H 0.61517 0.89776 0.48125 0.0
H2297 H 0.63685 0.91258 0.49625 0.0
H2298 H 0.61612 0.89432 0.50683 0.0
H2299 H 0.64334 0.86872 0.43408 0.0
H2300 H 0.65429 0.85721 0.44492 0.0
H2301 H 0.6661 0.88347 0.44715 0.0
C2302 C 0.08015 0.74609 0.40323 0.0
C2303 C 0.08562 0.74047 0.38616 0.0
C2304 C 0.09073 0.75101 0.42125 0.0
C2305 C 0.10714 0.75016 0.42227 0.0
C2306 C 0.11286 0.74464 0.4051 0.0
C2307 C 0.10205 0.73991 0.3872 0.0
C2308 C 0.08423 0.75696 0.43923 0.0
C2309 C 0.13024 0.74348 0.4057 0.0
C2310 C 0.14028 0.77908 0.46751 0.0
C2311 C 0.13424 0.76468 0.48045 0.0
C2312 C 0.1323 0.77439 0.44811 0.0
C2313 C 0.11802 0.75481 0.44151 0.0
C2314 C 0.11273 0.74002 0.45412 0.0
C2315 C 0.12088 0.74514 0.47348 0.0
C2316 C 0.13837 0.79056 0.43507 0.0
C2317 C 0.09762 0.71896 0.44758 0.0
H2318 H 0.06752 0.74664 0.40256 0.0
H2319 H 0.10634 0.73553 0.37407 0.0
H2320 H 0.08117 0.74662 0.45034 0.0
H2321 H 0.09559 0.77169 0.44595 0.0
H2322 H 0.07136 0.75726 0.43585 0.0
H2323 H 0.13303 0.73939 0.39097 0.0
H2324 H 0.14276 0.75776 0.41182 0.0
H2325 H 0.12855 0.73252 0.41553 0.0
H2326 H 0.15084 0.79415 0.47275 0.0
H2327 H 0.11603 0.73396 0.48344 0.0
H2328 H 0.12672 0.79304 0.43255 0.0
H2329 H 0.14143 0.78639 0.42055 0.0
H2330 H 0.15107 0.80453 0.44162 0.0
H2331 H 0.08372 0.71747 0.44584 0.0
H2332 H 0.09677 0.70895 0.45827 0.0
H2333 H 0.10032 0.71423 0.43312 0.0
C2334 C 0.31824 0.06001 0.73441 0.0
C2335 C 0.31378 0.06202 0.71524 0.0
C2336 C 0.31316 0.06726 0.75062 0.0
C2337 C 0.30324 0.07663 0.74761 0.0
C2338 C 0.2981 0.07813 0.72831 0.0
C2339 C 0.30351 0.07087 0.71232 0.0
C2340 C 0.31897 0.06543 0.77099 0.0
C2341 C 0.28734 0.08784 0.72458 0.0
C2342 C 0.28144 0.08275 0.79303 0.0
C2343 C 0.29572 0.1015 0.80126 0.0
C2344 C 0.28309 0.07482 0.77486 0.0
C2345 C 0.29945 0.08591 0.76483 0.0
C2346 C 0.31332 0.1053 0.77251 0.0
C2347 C 0.31125 0.11288 0.7906 0.0
C2348 C 0.26791 0.05416 0.76702 0.0
C2349 C 0.33094 0.11764 0.76224 0.0
H2350 H 0.32611 0.05313 0.73684 0.0
H2351 H 0.2999 0.07236 0.69754 0.0
H2352 H 0.32887 0.0802 0.77877 0.0
H2353 H 0.30647 0.05808 0.77959 0.0
H2354 H 0.32597 0.05703 0.77079 0.0
H2355 H 0.28299 0.08632 0.70877 0.0
H2356 H 0.27455 0.08147 0.73285 0.0
H2357 H 0.29625 0.10364 0.72988 0.0
H2358 H 0.26943 0.07388 0.80124 0.0
H2359 H 0.32213 0.12754 0.79674 0.0
H2360 H 0.27326 0.04439 0.76857 0.0
H2361 H 0.26414 0.0533 0.75119 0.0
H2362 H 0.25496 0.0486 0.77497 0.0
H2363 H 0.33982 0.11129 0.76264 0.0
H2364 H 0.33946 0.13299 0.76918 0.0
H2365 H 0.32725 0.11771 0.74661 0.0
C2366 C 0.94009 0.23008 0.76913 0.0
C2367 C 0.95253 0.24988 0.77591 0.0
C2368 C 0.92908 0.21647 0.78201 0.0
C2369 C 0.93034 0.22289 0.80207 0.0
C2370 C 0.94339 0.24272 0.80913 0.0
C2371 C 0.95445 0.25596 0.79598 0.0
C2372 C 0.91556 0.19536 0.77401 0.0
C2373 C 0.94499 0.25017 0.83039 0.0
C2374 C 0.88664 0.19472 0.82947 0.0
C2375 C 0.89143 0.1842 0.84103 0.0
C2376 C 0.89921 0.20736 0.81678 0.0
C2377 C 0.9169 0.20929 0.81532 0.0
C2378 C 0.92172 0.19845 0.82662 0.0
C2379 C 0.90898 0.18613 0.83945 0.0
C2380 C 0.89359 0.21875 0.80505 0.0
C2381 C 0.94038 0.19998 0.82523 0.0
H2382 H 0.93868 0.22527 0.75365 0.0
H2383 H 0.96401 0.27125 0.80132 0.0
H2384 H 0.91726 0.18555 0.78306 0.0
H2385 H 0.90083 0.19163 0.77468 0.0
H2386 H 0.91769 0.19235 0.75856 0.0
H2387 H 0.95676 0.26566 0.83381 0.0
H2388 H 0.93163 0.249 0.83392 0.0
H2389 H 0.9472 0.24111 0.84008 0.0
H2390 H 0.87297 0.193 0.83023 0.0
H2391 H 0.91289 0.17824 0.84846 0.0
H2392 H 0.89347 0.21499 0.78914 0.0
H2393 H 0.90407 0.23466 0.80843 0.0
H2394 H 0.87942 0.21579 0.80811 0.0
H2395 H 0.9421 0.19651 0.80979 0.0
H2396 H 0.94166 0.18998 0.8344 0.0
H2397 H 0.95214 0.21518 0.83001 0.0
C2398 C 0.74979 0.6989 0.76464 0.0
C2399 C 0.75639 0.70031 0.74593 0.0
C2400 C 0.76144 0.70228 0.78145 0.0
C2401 C 0.78029 0.70752 0.77955 0.0
C2402 C 0.78734 0.70992 0.7608 0.0
C2403 C 0.77525 0.70611 0.74417 0.0
C2404 C 0.7533 0.69934 0.80115 0.0
C2405 C 0.80747 0.71587 0.75826 0.0
C2406 C 0.8113 0.72683 0.82745 0.0
C2407 C 0.80995 0.70984 0.83291 0.0
C2408 C 0.80253 0.7266 0.80959 0.0
C2409 C 0.79197 0.70891 0.79705 0.0
C2410 C 0.79125 0.69196 0.80208 0.0
C2411 C 0.80039 0.69269 0.81984 0.0
C2412 C 0.80388 0.74505 0.80455 0.0
C2413 C 0.78008 0.67278 0.78915 0.0
H2414 H 0.73523 0.69439 0.76614 0.0
H2415 H 0.78048 0.70736 0.72975 0.0
H2416 H 0.75316 0.68698 0.8072 0.0
H2417 H 0.76223 0.71255 0.81167 0.0
H2418 H 0.73868 0.69617 0.80023 0.0
H2419 H 0.81135 0.7192 0.74308 0.0
H2420 H 0.81735 0.72891 0.7686 0.0
H2421 H 0.80941 0.70389 0.76171 0.0
H2422 H 0.81857 0.74013 0.83748 0.0
H2423 H 0.79967 0.67963 0.82371 0.0
H2424 H 0.78997 0.74345 0.80566 0.0
H2425 H 0.80759 0.74764 0.78923 0.0
H2426 H 0.81453 0.75807 0.8145 0.0
H2427 H 0.76488 0.66763 0.78834 0.0
H2428 H 0.78176 0.66122 0.79468 0.0
H2429 H 0.78455 0.67473 0.77402 0.0
C2430 C 0.74955 0.66133 0.63158 0.0
C2431 C 0.73085 0.64928 0.63623 0.0
C2432 C 0.7558 0.65688 0.61442 0.0
C2433 C 0.74308 0.63993 0.60164 0.0
C2434 C 0.7243 0.62749 0.60642 0.0
C2435 C 0.71838 0.63235 0.62365 0.0
C2436 C 0.77595 0.67053 0.60979 0.0
C2437 C 0.71039 0.60921 0.59321 0.0
C2438 C 0.75569 0.64133 0.54897 0.0
C2439 C 0.76503 0.63125 0.54867 0.0
C2440 C 0.74787 0.64366 0.56594 0.0
C2441 C 0.7494 0.63566 0.58299 0.0
C2442 C 0.75808 0.62473 0.58253 0.0
C2443 C 0.76583 0.62268 0.56536 0.0
C2444 C 0.73865 0.65535 0.56584 0.0
C2445 C 0.75991 0.61593 0.60041 0.0
H2446 H 0.75929 0.67443 0.64122 0.0
H2447 H 0.70393 0.62291 0.62718 0.0
H2448 H 0.78313 0.6624 0.60783 0.0
H2449 H 0.77615 0.67662 0.5958 0.0
H2450 H 0.78417 0.68286 0.62148 0.0
H2451 H 0.69652 0.60068 0.59942 0.0
H2452 H 0.70815 0.61316 0.57871 0.0
H2453 H 0.71612 0.59974 0.59069 0.0
H2454 H 0.7548 0.64773 0.53601 0.0
H2455 H 0.77322 0.61506 0.56529 0.0
H2456 H 0.74697 0.66887 0.57613 0.0
H2457 H 0.72429 0.64684 0.57097 0.0
H2458 H 0.73755 0.65953 0.55105 0.0
H2459 H 0.76963 0.62777 0.61195 0.0
H2460 H 0.76545 0.60635 0.59711 0.0
H2461 H 0.74603 0.60725 0.60652 0.0
C2462 C 0.33421 0.07145 0.62155 0.0
C2463 C 0.34704 0.06852 0.63177 0.0
C2464 C 0.34029 0.08551 0.60825 0.0
C2465 C 0.35963 0.09657 0.60474 0.0
C2466 C 0.37261 0.09339 0.6147 0.0
C2467 C 0.36619 0.07955 0.62833 0.0
C2468 C 0.32606 0.08875 0.59823 0.0
C2469 C 0.39324 0.10459 0.61096 0.0
C2470 C 0.36821 0.11995 0.5573 0.0
C2471 C 0.37334 0.13896 0.5641 0.0
C2472 C 0.36483 0.10627 0.57049 0.0
C2473 C 0.36611 0.11166 0.59086 0.0
C2474 C 0.37188 0.13108 0.59777 0.0
C2475 C 0.37563 0.14459 0.58426 0.0
C2476 C 0.35915 0.08585 0.56258 0.0
C2477 C 0.37301 0.13728 0.61933 0.0
H2478 H 0.31942 0.06308 0.6243 0.0
H2479 H 0.37612 0.07721 0.63615 0.0
H2480 H 0.33031 0.10421 0.60156 0.0
H2481 H 0.32563 0.08591 0.5821 0.0
H2482 H 0.31162 0.07916 0.60286 0.0
H2483 H 0.40136 0.09982 0.61931 0.0
H2484 H 0.39478 0.10263 0.59509 0.0
H2485 H 0.39956 0.12045 0.6151 0.0
H2486 H 0.36651 0.11572 0.54164 0.0
H2487 H 0.37944 0.15929 0.5894 0.0
H2488 H 0.34409 0.07543 0.56479 0.0
H2489 H 0.36756 0.08125 0.57063 0.0
H2490 H 0.36105 0.08472 0.54668 0.0
H2491 H 0.35867 0.12925 0.6246 0.0
H2492 H 0.37897 0.15322 0.62239 0.0
H2493 H 0.38182 0.13352 0.62793 0.0
C2494 C 0.92624 0.25666 0.66488 0.0
C2495 C 0.93063 0.2742 0.67554 0.0
C2496 C 0.91634 0.25066 0.64629 0.0
C2497 C 0.91071 0.26248 0.63816 0.0
C2498 C 0.91449 0.27984 0.64913 0.0
C2499 C 0.92441 0.28549 0.6677 0.0
C2500 C 0.91249 0.232 0.63508 0.0
C2501 C 0.90867 0.29279 0.64095 0.0
C2502 C 0.9059 0.25817 0.58265 0.0
C2503 C 0.88634 0.24573 0.57848 0.0
C2504 C 0.91393 0.26412 0.60204 0.0
C2505 C 0.90212 0.25737 0.61764 0.0
C2506 C 0.8823 0.24519 0.61354 0.0
C2507 C 0.87462 0.23956 0.59396 0.0
C2508 C 0.93512 0.27728 0.60581 0.0
C2509 C 0.86928 0.23765 0.6298 0.0
H2510 H 0.93088 0.24778 0.67086 0.0
H2511 H 0.92764 0.29901 0.67587 0.0
H2512 H 0.89728 0.22239 0.63009 0.0
H2513 H 0.92045 0.23547 0.62179 0.0
H2514 H 0.91663 0.22379 0.64399 0.0
H2515 H 0.91136 0.30497 0.6519 0.0
H2516 H 0.91659 0.29909 0.62804 0.0
H2517 H 0.89344 0.2841 0.63587 0.0
H2518 H 0.91495 0.26315 0.57069 0.0
H2519 H 0.8595 0.22983 0.59074 0.0
H2520 H 0.94074 0.26956 0.61332 0.0
H2521 H 0.93887 0.29053 0.61565 0.0
H2522 H 0.94222 0.28191 0.59207 0.0
H2523 H 0.87211 0.22802 0.63788 0.0
H2524 H 0.85416 0.22925 0.6242 0.0
H2525 H 0.87195 0.24999 0.64047 0.0
C2526 C 0.34391 0.26732 0.6634 0.0
C2527 C 0.35435 0.27493 0.68168 0.0
C2528 C 0.34981 0.25977 0.64823 0.0
C2529 C 0.36668 0.25999 0.65131 0.0
C2530 C 0.37732 0.26765 0.66971 0.0
C2531 C 0.37097 0.27494 0.68474 0.0
C2532 C 0.33798 0.25157 0.62885 0.0
C2533 C 0.39548 0.26832 0.67342 0.0
C2534 C 0.37048 0.22469 0.61532 0.0
C2535 C 0.38028 0.23669 0.60076 0.0
C2536 C 0.36675 0.23228 0.6324 0.0
C2537 C 0.37313 0.25238 0.63504 0.0
C2538 C 0.38406 0.2648 0.621 0.0
C2539 C 0.38741 0.25679 0.60398 0.0
C2540 C 0.35503 0.21857 0.64703 0.0
C2541 C 0.39124 0.28634 0.62336 0.0
H2542 H 0.33101 0.26717 0.66094 0.0
H2543 H 0.37914 0.28086 0.69881 0.0
H2544 H 0.34636 0.25994 0.61698 0.0
H2545 H 0.33376 0.23616 0.62519 0.0
H2546 H 0.32502 0.25209 0.62899 0.0
H2547 H 0.402 0.27454 0.68861 0.0
H2548 H 0.39285 0.25339 0.67083 0.0
H2549 H 0.40573 0.2773 0.663 0.0
H2550 H 0.36517 0.20921 0.61305 0.0
H2551 H 0.39477 0.26614 0.59272 0.0
H2552 H 0.34104 0.21696 0.64671 0.0
H2553 H 0.36187 0.22462 0.6621 0.0
H2554 H 0.35281 0.20384 0.64385 0.0
H2555 H 0.37919 0.2883 0.62147 0.0
H2556 H 0.40142 0.29437 0.61247 0.0
H2557 H 0.39818 0.29302 0.6383 0.0
C2558 C 0.73755 0.10204 0.62031 0.0
C2559 C 0.73766 0.08477 0.61884 0.0
C2560 C 0.74765 0.11655 0.60784 0.0
C2561 C 0.75808 0.11368 0.59364 0.0
C2562 C 0.75809 0.09621 0.59199 0.0
C2563 C 0.74788 0.08197 0.60459 0.0
C2564 C 0.74729 0.13499 0.60995 0.0
C2565 C 0.76906 0.09263 0.57701 0.0
C2566 C 0.77251 0.14158 0.54892 0.0
C2567 C 0.79173 0.1553 0.55407 0.0
C2568 C 0.76116 0.12841 0.56198 0.0
C2569 C 0.76927 0.12899 0.5806 0.0
C2570 C 0.78849 0.14331 0.58616 0.0
C2571 C 0.7995 0.1563 0.57282 0.0
C2572 C 0.74071 0.11334 0.55553 0.0
C2573 C 0.79761 0.14445 0.60593 0.0
H2574 H 0.72967 0.1043 0.63127 0.0
H2575 H 0.74803 0.06867 0.60334 0.0
H2576 H 0.7618 0.14787 0.6137 0.0
H2577 H 0.74206 0.13696 0.59583 0.0
H2578 H 0.73818 0.1348 0.62147 0.0
H2579 H 0.76739 0.07814 0.57745 0.0
H2580 H 0.76431 0.09344 0.56205 0.0
H2581 H 0.78428 0.10415 0.57963 0.0
H2582 H 0.76648 0.14062 0.53438 0.0
H2583 H 0.8143 0.16708 0.57694 0.0
H2584 H 0.73149 0.11336 0.56678 0.0
H2585 H 0.73852 0.09856 0.55392 0.0
H2586 H 0.73617 0.11594 0.54134 0.0
H2587 H 0.78926 0.14521 0.6178 0.0
H2588 H 0.8123 0.15733 0.60855 0.0
H2589 H 0.79789 0.13102 0.60693 0.0
C2590 C 0.88952 0.63364 0.65756 0.0
C2591 C 0.90508 0.65292 0.6613 0.0
C2592 C 0.87719 0.62765 0.64059 0.0
C2593 C 0.88063 0.64124 0.62702 0.0
C2594 C 0.89617 0.66077 0.63085 0.0
C2595 C 0.90815 0.66639 0.64797 0.0
C2596 C 0.86066 0.60676 0.63705 0.0
C2597 C 0.90036 0.67568 0.61666 0.0
C2598 C 0.86334 0.62508 0.57333 0.0
C2599 C 0.8487 0.62855 0.57191 0.0
C2600 C 0.87333 0.62831 0.59139 0.0
C2601 C 0.86845 0.63506 0.60843 0.0
C2602 C 0.85301 0.63756 0.60725 0.0
C2603 C 0.84336 0.63438 0.58895 0.0
C2604 C 0.88979 0.62559 0.59202 0.0
C2605 C 0.84724 0.6445 0.62514 0.0
H2606 H 0.88701 0.62317 0.66785 0.0
H2607 H 0.92014 0.68131 0.65074 0.0
H2608 H 0.84734 0.60639 0.63463 0.0
H2609 H 0.8622 0.59943 0.62358 0.0
H2610 H 0.85942 0.59826 0.64949 0.0
H2611 H 0.91283 0.69035 0.62198 0.0
H2612 H 0.90303 0.67079 0.60227 0.0
H2613 H 0.888 0.67703 0.6142 0.0
H2614 H 0.86765 0.62081 0.56013 0.0
H2615 H 0.83193 0.63691 0.58787 0.0
H2616 H 0.88863 0.61641 0.60373 0.0
H2617 H 0.90313 0.64001 0.59554 0.0
H2618 H 0.89072 0.61869 0.57785 0.0
H2619 H 0.84581 0.63572 0.63735 0.0
H2620 H 0.8337 0.6436 0.62216 0.0
H2621 H 0.85834 0.65993 0.63015 0.0
C2622 C 0.89639 0.67552 0.75592 0.0
C2623 C 0.91418 0.67826 0.75375 0.0
C2624 C 0.89223 0.68158 0.77368 0.0
C2625 C 0.90621 0.69059 0.78965 0.0
C2626 C 0.92451 0.69436 0.78724 0.0
C2627 C 0.92828 0.68815 0.7693 0.0
C2628 C 0.87257 0.67742 0.77565 0.0
C2629 C 0.9398 0.70404 0.8039 0.0
C2630 C 0.896 0.71452 0.83308 0.0
C2631 C 0.88789 0.69935 0.84516 0.0
C2632 C 0.90259 0.71216 0.81516 0.0
C2633 C 0.90104 0.69423 0.8093 0.0
C2634 C 0.89353 0.67918 0.82183 0.0
C2635 C 0.88703 0.68192 0.8396 0.0
C2636 C 0.91054 0.72853 0.80218 0.0
C2637 C 0.89178 0.6599 0.81619 0.0
H2638 H 0.88545 0.66805 0.74394 0.0
H2639 H 0.94212 0.69045 0.76771 0.0
H2640 H 0.86538 0.66627 0.786 0.0
H2641 H 0.87321 0.69082 0.78177 0.0
H2642 H 0.86388 0.67193 0.7614 0.0
H2643 H 0.95378 0.70791 0.79904 0.0
H2644 H 0.94093 0.71749 0.81071 0.0
H2645 H 0.93615 0.69399 0.81543 0.0
H2646 H 0.89656 0.72797 0.83731 0.0
H2647 H 0.88103 0.67029 0.84907 0.0
H2648 H 0.90094 0.72397 0.78869 0.0
H2649 H 0.9244 0.73181 0.79755 0.0
H2650 H 0.91233 0.74212 0.8096 0.0
H2651 H 0.88192 0.6523 0.80285 0.0
H2652 H 0.8865 0.65009 0.82803 0.0
H2653 H 0.90567 0.66241 0.81265 0.0
C2654 C 0.29719 0.24701 0.7596 0.0
C2655 C 0.31534 0.264 0.76257 0.0
C2656 C 0.29123 0.2322 0.77211 0.0
C2657 C 0.30374 0.23442 0.78784 0.0
C2658 C 0.32185 0.25177 0.79121 0.0
C2659 C 0.3274 0.26635 0.77858 0.0
C2660 C 0.27175 0.21397 0.76819 0.0
C2661 C 0.33564 0.25471 0.80782 0.0
C2662 C 0.28825 0.20441 0.83109 0.0
C2663 C 0.29388 0.19121 0.82646 0.0
C2664 C 0.29042 0.21793 0.81816 0.0
C2665 C 0.2985 0.21831 0.80025 0.0
C2666 C 0.30333 0.20438 0.79508 0.0
C2667 C 0.30091 0.19097 0.80823 0.0
C2668 C 0.28498 0.23247 0.82412 0.0
C2669 C 0.31195 0.20426 0.7761 0.0
H2670 H 0.28776 0.24512 0.7473 0.0
H2671 H 0.34141 0.27943 0.78106 0.0
H2672 H 0.2729 0.20122 0.76389 0.0
H2673 H 0.26413 0.21099 0.78169 0.0
H2674 H 0.26321 0.21514 0.75633 0.0
H2675 H 0.34889 0.26936 0.80891 0.0
H2676 H 0.32913 0.25294 0.82197 0.0
H2677 H 0.33926 0.24343 0.80566 0.0
H2678 H 0.28292 0.20477 0.84521 0.0
H2679 H 0.30495 0.18055 0.80441 0.0
H2680 H 0.2765 0.23323 0.81192 0.0
H2681 H 0.29791 0.24725 0.8275 0.0
H2682 H 0.27677 0.22872 0.83724 0.0
H2683 H 0.30319 0.20402 0.76354 0.0
H2684 H 0.31348 0.1915 0.77355 0.0
H2685 H 0.32612 0.21783 0.77639 0.0
C2686 C 0.76938 0.06816 0.70732 0.0
C2687 C 0.75237 0.0676 0.70652 0.0
C2688 C 0.78025 0.07293 0.7252 0.0
C2689 C 0.77407 0.07752 0.74258 0.0
C2690 C 0.75695 0.07704 0.74182 0.0
C2691 C 0.74626 0.07195 0.72384 0.0
C2692 C 0.79828 0.073 0.72555 0.0
C2693 C 0.74998 0.08208 0.75998 0.0
C2694 C 0.78981 0.07466 0.79383 0.0
C2695 C 0.80245 0.0945 0.80039 0.0
C2696 C 0.78135 0.06878 0.77456 0.0
C2697 C 0.78545 0.08309 0.76165 0.0
C2698 C 0.79897 0.10301 0.76784 0.0
C2699 C 0.80741 0.10846 0.78709 0.0
C2700 C 0.76719 0.04735 0.76842 0.0
C2701 C 0.80368 0.11873 0.75454 0.0
H2702 H 0.77412 0.06469 0.69399 0.0
H2703 H 0.73318 0.07165 0.72334 0.0
H2704 H 0.81043 0.08778 0.73104 0.0
H2705 H 0.79764 0.06276 0.73578 0.0
H2706 H 0.80094 0.06873 0.71082 0.0
H2707 H 0.73647 0.08119 0.75684 0.0
H2708 H 0.74789 0.07199 0.77106 0.0
H2709 H 0.76069 0.09712 0.76661 0.0
H2710 H 0.78576 0.06377 0.80401 0.0
H2711 H 0.81747 0.12377 0.79192 0.0
H2712 H 0.76989 0.04289 0.75382 0.0
H2713 H 0.75278 0.04469 0.76714 0.0
H2714 H 0.76752 0.03792 0.77912 0.0
H2715 H 0.8071 0.1149 0.74008 0.0
H2716 H 0.81576 0.13326 0.76089 0.0
H2717 H 0.79121 0.1199 0.75196 0.0
C2718 C 0.03023 0.33443 0.07445 0.0
C2719 C 0.03752 0.34664 0.05942 0.0
C2720 C 0.04109 0.32896 0.08469 0.0
C2721 C 0.05975 0.33592 0.07984 0.0
C2722 C 0.0673 0.34843 0.06484 0.0
C2723 C 0.05607 0.35362 0.05477 0.0
C2724 C 0.03254 0.31555 0.10056 0.0
C2725 C 0.08719 0.3562 0.05935 0.0
C2726 C 0.09362 0.33549 0.11736 0.0
C2727 C 0.09352 0.31882 0.11008 0.0
C2728 C 0.08266 0.34121 0.10769 0.0
C2729 C 0.07128 0.32994 0.09037 0.0
C2730 C 0.07085 0.3129 0.08314 0.0
C2731 C 0.082 0.30756 0.09307 0.0
C2732 C 0.08341 0.35943 0.11589 0.0
C2733 C 0.05882 0.30048 0.06474 0.0
H2734 H 0.0159 0.32894 0.07815 0.0
H2735 H 0.0618 0.36308 0.04319 0.0
H2736 H 0.03234 0.30191 0.09679 0.0
H2737 H 0.04127 0.32263 0.11466 0.0
H2738 H 0.0179 0.31161 0.10271 0.0
H2739 H 0.09105 0.36604 0.04758 0.0
H2740 H 0.09734 0.36438 0.07239 0.0
H2741 H 0.08876 0.34387 0.0543 0.0
H2742 H 0.10235 0.34413 0.13062 0.0
H2743 H 0.0821 0.29484 0.08719 0.0
H2744 H 0.06907 0.35579 0.11905 0.0
H2745 H 0.08841 0.37012 0.10488 0.0
H2746 H 0.09292 0.36651 0.12956 0.0
H2747 H 0.04384 0.29547 0.06635 0.0
H2748 H 0.05978 0.28745 0.06129 0.0
H2749 H 0.0633 0.30929 0.05212 0.0
C2750 C 0.65266 0.68395 0.09118 0.0
C2751 C 0.6362 0.66865 0.098 0.0
C2752 C 0.66002 0.70346 0.0984 0.0
C2753 C 0.65069 0.70783 0.11277 0.0
C2754 C 0.63407 0.69252 0.11972 0.0
C2755 C 0.62701 0.67307 0.11225 0.0
C2756 C 0.67779 0.7194 0.09063 0.0
C2757 C 0.62375 0.6967 0.13501 0.0
C2758 C 0.67924 0.75728 0.14309 0.0
C2759 C 0.67352 0.76817 0.13352 0.0
C2760 C 0.67175 0.73752 0.13664 0.0
C2761 C 0.65826 0.72852 0.12024 0.0
C2762 C 0.65245 0.73945 0.11052 0.0
C2763 C 0.66016 0.75915 0.11727 0.0
C2764 C 0.67829 0.7263 0.14735 0.0
C2765 C 0.63819 0.73037 0.0929 0.0
H2766 H 0.6599 0.68071 0.08018 0.0
H2767 H 0.61432 0.66134 0.1176 0.0
H2768 H 0.67494 0.72963 0.08381 0.0
H2769 H 0.68885 0.728 0.10286 0.0
H2770 H 0.68341 0.7135 0.07957 0.0
H2771 H 0.6111 0.68314 0.13899 0.0
H2772 H 0.63332 0.70472 0.14846 0.0
H2773 H 0.61924 0.70623 0.12952 0.0
H2774 H 0.68938 0.76414 0.15581 0.0
H2775 H 0.65587 0.76759 0.1097 0.0
H2776 H 0.68493 0.72087 0.13717 0.0
H2777 H 0.66602 0.71334 0.15267 0.0
H2778 H 0.68862 0.73537 0.16005 0.0
H2779 H 0.64369 0.72532 0.08091 0.0
H2780 H 0.6348 0.74076 0.08733 0.0
H2781 H 0.62494 0.71736 0.09669 0.0
C2782 C 0.30907 0.96961 0.0222 0.0
C2783 C 0.32477 0.96922 0.02906 0.0
C2784 C 0.29212 0.96008 0.03131 0.0
C2785 C 0.29087 0.94989 0.0476 0.0
C2786 C 0.30635 0.94864 0.05398 0.0
C2787 C 0.32312 0.95833 0.04463 0.0
C2788 C 0.27587 0.96166 0.02406 0.0
C2789 C 0.30549 0.93779 0.07124 0.0
C2790 C 0.25811 0.94481 0.08678 0.0
C2791 C 0.24347 0.92514 0.08276 0.0
C2792 C 0.27332 0.95322 0.07502 0.0
C2793 C 0.2739 0.94166 0.05888 0.0
C2794 C 0.25884 0.922 0.05431 0.0
C2795 C 0.24378 0.91397 0.06631 0.0
C2796 C 0.28913 0.97426 0.08035 0.0
C2797 C 0.25893 0.90927 0.03715 0.0
H2798 H 0.31021 0.97796 0.01014 0.0
H2799 H 0.33515 0.95785 0.04996 0.0
H2800 H 0.26267 0.947 0.02173 0.0
H2801 H 0.27357 0.97059 0.0353 0.0
H2802 H 0.27847 0.96854 0.01015 0.0
H2803 H 0.31826 0.93706 0.07351 0.0
H2804 H 0.30412 0.94518 0.08478 0.0
H2805 H 0.29289 0.92267 0.06912 0.0
H2806 H 0.25807 0.95344 0.0996 0.0
H2807 H 0.23235 0.89883 0.063 0.0
H2808 H 0.29186 0.98259 0.06746 0.0
H2809 H 0.3023 0.97493 0.08475 0.0
H2810 H 0.28596 0.98158 0.09258 0.0
H2811 H 0.26135 0.91659 0.02357 0.0
H2812 H 0.24551 0.89476 0.03472 0.0
H2813 H 0.2707 0.90699 0.03978 0.0
C2814 C 0.36475 0.05093 0.01456 0.0
C2815 C 0.37972 0.05251 0.00442 0.0
C2816 C 0.35554 0.06024 0.00894 0.0
C2817 C 0.36152 0.0715 0.99288 0.0
C2818 C 0.3773 0.07408 0.98331 0.0
C2819 C 0.3862 0.06451 0.98918 0.0
C2820 C 0.33877 0.05716 0.01949 0.0
C2821 C 0.38421 0.08615 0.96624 0.0
C2822 C 0.32628 0.07583 0.96148 0.0
C2823 C 0.33117 0.09493 0.96757 0.0
C2824 C 0.33568 0.06783 0.97005 0.0
C2825 C 0.3504 0.07927 0.98501 0.0
C2826 C 0.35498 0.09831 0.99172 0.0
C2827 C 0.34527 0.10591 0.98294 0.0
C2828 C 0.33032 0.04741 0.96257 0.0
C2829 C 0.37054 0.11088 0.00769 0.0
H2830 H 0.35965 0.04171 0.0264 0.0
H2831 H 0.39781 0.06591 0.98135 0.0
H2832 H 0.34013 0.07134 0.02367 0.0
H2833 H 0.32571 0.04809 0.00956 0.0
H2834 H 0.33713 0.04972 0.0329 0.0
H2835 H 0.39759 0.08808 0.9615 0.0
H2836 H 0.37336 0.07893 0.95363 0.0
H2837 H 0.38647 0.10079 0.97017 0.0
H2838 H 0.31561 0.06736 0.94943 0.0
H2839 H 0.34895 0.12061 0.98786 0.0
H2840 H 0.32716 0.03836 0.97493 0.0
H2841 H 0.34234 0.04799 0.95558 0.0
H2842 H 0.31783 0.04005 0.95168 0.0
H2843 H 0.36823 0.1029 0.02078 0.0
H2844 H 0.37152 0.12486 0.01212 0.0
H2845 H 0.38427 0.11428 0.00252 0.0
C2846 C 0.94551 0.29369 0.00939 0.0
C2847 C 0.96331 0.30645 0.00293 0.0
C2848 C 0.93302 0.27533 0.99895 0.0
C2849 C 0.93853 0.2696 0.98172 0.0
C2850 C 0.95655 0.28231 0.97525 0.0
C2851 C 0.9687 0.30061 0.9859 0.0
C2852 C 0.91385 0.26216 0.00621 0.0
C2853 C 0.96292 0.27664 0.957 0.0
C2854 C 0.91146 0.21545 0.96388 0.0
C2855 C 0.8986 0.21407 0.94933 0.0
C2856 C 0.92479 0.23351 0.97434 0.0
C2857 C 0.92519 0.25053 0.97016 0.0
C2858 C 0.91255 0.24929 0.95516 0.0
C2859 C 0.89944 0.23108 0.94489 0.0
C2860 C 0.93814 0.23433 0.99017 0.0
C2861 C 0.91262 0.26714 0.95023 0.0
H2862 H 0.94125 0.2981 0.02252 0.0
H2863 H 0.98247 0.31035 0.98085 0.0
H2864 H 0.90265 0.25924 0.99494 0.0
H2865 H 0.91188 0.24787 0.00869 0.0
H2866 H 0.91188 0.26863 0.02007 0.0
H2867 H 0.9776 0.28798 0.95427 0.0
H2868 H 0.96211 0.26268 0.95826 0.0
H2869 H 0.9534 0.27424 0.94407 0.0
H2870 H 0.91073 0.20231 0.96748 0.0
H2871 H 0.88972 0.23011 0.93344 0.0
H2872 H 0.93548 0.23913 0.00461 0.0
H2873 H 0.95296 0.24523 0.98751 0.0
H2874 H 0.9366 0.21994 0.99098 0.0
H2875 H 0.90941 0.27354 0.96323 0.0
H2876 H 0.90214 0.26374 0.93785 0.0
H2877 H 0.92682 0.27847 0.94632 0.0
C2878 C 0.6908 0.66024 0.02574 0.0
C2879 C 0.68402 0.64595 0.03886 0.0
C2880 C 0.70836 0.66725 0.01823 0.0
C2881 C 0.71947 0.65984 0.02403 0.0
C2882 C 0.71292 0.6457 0.03756 0.0
C2883 C 0.69521 0.63887 0.0448 0.0
C2884 C 0.71483 0.68226 0.00373 0.0
C2885 C 0.72446 0.63754 0.0441 0.0
C2886 C 0.7538 0.66255 0.98796 0.0
C2887 C 0.77077 0.67937 0.9959 0.0
C2888 C 0.73712 0.65578 0.99726 0.0
C2889 C 0.7374 0.6661 0.01495 0.0
C2890 C 0.75454 0.68293 0.02325 0.0
C2891 C 0.77106 0.68944 0.01356 0.0
C2892 C 0.71908 0.6379 0.98783 0.0
C2893 C 0.75534 0.69422 0.04216 0.0
H2894 H 0.68228 0.66585 0.02111 0.0
H2895 H 0.6901 0.6279 0.05502 0.0
H2896 H 0.7289 0.69526 0.00894 0.0
H2897 H 0.7163 0.67605 0.98943 0.0
H2898 H 0.70485 0.68709 0.00134 0.0
H2899 H 0.71787 0.62749 0.05556 0.0
H2900 H 0.7261 0.62944 0.03137 0.0
H2901 H 0.73882 0.64962 0.04993 0.0
H2902 H 0.75346 0.65493 0.97413 0.0
H2903 H 0.7842 0.70237 0.01977 0.0
H2904 H 0.70884 0.64196 0.98365 0.0
H2905 H 0.7125 0.62686 0.9984 0.0
H2906 H 0.72145 0.63106 0.97452 0.0
H2907 H 0.74653 0.70049 0.04012 0.0
H2908 H 0.76996 0.70632 0.04724 0.0
H2909 H 0.74947 0.6843 0.05381 0.0
C2910 C 0.95394 0.64027 0.98528 0.0
C2911 C 0.95697 0.64308 0.0058 0.0
C2912 C 0.94395 0.64701 0.97548 0.0
C2913 C 0.93683 0.65683 0.98646 0.0
C2914 C 0.93953 0.65942 0.00718 0.0
C2915 C 0.94954 0.65248 0.01662 0.0
C2916 C 0.94122 0.64386 0.95336 0.0
C2917 C 0.93212 0.66982 0.01937 0.0
C2918 C 0.92669 0.69069 0.9611 0.0
C2919 C 0.90704 0.67899 0.95719 0.0
C2920 C 0.9366 0.68365 0.97058 0.0
C2921 C 0.92659 0.66445 0.97623 0.0
C2922 C 0.90678 0.65252 0.97219 0.0
C2923 C 0.89725 0.65996 0.96279 0.0
C2924 C 0.95774 0.69679 0.97467 0.0
C2925 C 0.89562 0.63198 0.978 0.0
H2926 H 0.9596 0.633 0.9768 0.0
H2927 H 0.95184 0.65475 0.03247 0.0
H2928 H 0.92595 0.63572 0.94849 0.0
H2929 H 0.94794 0.65817 0.94732 0.0
H2930 H 0.94732 0.63561 0.94701 0.0
H2931 H 0.93513 0.67034 0.03535 0.0
H2932 H 0.93859 0.68501 0.01554 0.0
H2933 H 0.91664 0.66238 0.01612 0.0
H2934 H 0.93434 0.70535 0.9567 0.0
H2935 H 0.88201 0.65098 0.96022 0.0
H2936 H 0.96471 0.68979 0.96755 0.0
H2937 H 0.96161 0.69897 0.99067 0.0
H2938 H 0.96341 0.71132 0.96931 0.0
H2939 H 0.90104 0.62321 0.97133 0.0
H2940 H 0.88033 0.62446 0.9734 0.0
H2941 H 0.89736 0.63233 0.99414 0.0
C2942 C 0.33609 0.30588 0.99516 0.0
C2943 C 0.3455 0.32277 0.98546 0.0
C2944 C 0.32982 0.28742 0.98533 0.0
C2945 C 0.33295 0.28583 0.96533 0.0
C2946 C 0.34236 0.3028 0.95542 0.0
C2947 C 0.34858 0.32109 0.96563 0.0
C2948 C 0.31996 0.26963 0.9964 0.0
C2949 C 0.3459 0.30164 0.93406 0.0
C2950 C 0.3337 0.24159 0.94499 0.0
C2951 C 0.31561 0.2297 0.93529 0.0
C2952 C 0.3395 0.25989 0.95482 0.0
C2953 C 0.32692 0.26647 0.9549 0.0
C2954 C 0.30863 0.25456 0.94511 0.0
C2955 C 0.30315 0.23622 0.93547 0.0
C2956 C 0.35905 0.27211 0.96525 0.0
C2957 C 0.2949 0.26119 0.94481 0.0
H2958 H 0.33366 0.30707 0.01048 0.0
H2959 H 0.35577 0.33407 0.95801 0.0
H2960 H 0.30574 0.2589 0.98906 0.0
H2961 H 0.32801 0.26234 0.99633 0.0
H2962 H 0.31841 0.27334 0.01185 0.0
H2963 H 0.35297 0.31615 0.92837 0.0
H2964 H 0.35487 0.29549 0.93202 0.0
H2965 H 0.33236 0.29165 0.9251 0.0
H2966 H 0.34323 0.23641 0.94517 0.0
H2967 H 0.28919 0.22706 0.92791 0.0
H2968 H 0.35808 0.27507 0.98107 0.0
H2969 H 0.3671 0.28644 0.9593 0.0
H2970 H 0.36711 0.26485 0.96374 0.0
H2971 H 0.29206 0.26394 0.96001 0.0
H2972 H 0.28127 0.25025 0.9364 0.0
H2973 H 0.30112 0.27518 0.93819 0.0
C2974 C 0.68115 0.06143 0.02355 0.0
C2975 C 0.67211 0.04214 0.02827 0.0
C2976 C 0.69713 0.06918 0.01276 0.0
C2977 C 0.70421 0.05735 0.00674 0.0
C2978 C 0.69575 0.03826 0.01241 0.0
C2979 C 0.67979 0.03088 0.02307 0.0
C2980 C 0.70584 0.08963 0.00698 0.0
C2981 C 0.70299 0.02525 0.00644 0.0
C2982 C 0.72868 0.06583 0.95969 0.0
C2983 C 0.74772 0.07574 0.96674 0.0
C2984 C 0.71444 0.06003 0.97258 0.0
C2985 C 0.71935 0.06418 0.99305 0.0
C2986 C 0.73853 0.07412 0.00031 0.0
C2987 C 0.75252 0.0798 0.98704 0.0
C2988 C 0.69411 0.04933 0.96429 0.0
C2989 C 0.74426 0.07874 0.02204 0.0
H2990 H 0.6753 0.07021 0.02756 0.0
H2991 H 0.67302 0.01602 0.02689 0.0
H2992 H 0.72134 0.09814 0.01055 0.0
H2993 H 0.70331 0.08895 0.99089 0.0
H2994 H 0.69987 0.09758 0.0144 0.0
H2995 H 0.6959 0.01147 0.01352 0.0
H2996 H 0.70058 0.02146 0.9903 0.0
H2997 H 0.71841 0.03304 0.01029 0.0
H2998 H 0.72491 0.06248 0.94402 0.0
H2999 H 0.76725 0.08773 0.99255 0.0
H3000 H 0.68741 0.05727 0.96971 0.0
H3001 H 0.68612 0.03455 0.96932 0.0
H3002 H 0.69273 0.04773 0.948 0.0
H3003 H 0.73903 0.08765 0.02879 0.0
H3004 H 0.75981 0.08681 0.02528 0.0
H3005 H 0.73773 0.06501 0.02915 0.0
C3006 C 0.63625 0.96475 0.09721 0.0
C3007 C 0.63156 0.96379 0.07722 0.0
C3008 C 0.64355 0.95396 0.10378 0.0
C3009 C 0.64646 0.94214 0.08998 0.0
C3010 C 0.64129 0.94069 0.06982 0.0
C3011 C 0.63375 0.95145 0.06368 0.0
C3012 C 0.64858 0.95561 0.12545 0.0
C3013 C 0.64437 0.92835 0.05471 0.0
C3014 C 0.68358 0.9326 0.1082 0.0
C3015 C 0.67238 0.91421 0.1149 0.0
C3016 C 0.6753 0.94147 0.0991 0.0
C3017 C 0.65538 0.93175 0.09681 0.0
C3018 C 0.64403 0.91278 0.10266 0.0
C3019 C 0.65268 0.90419 0.11152 0.0
C3020 C 0.68785 0.96164 0.09281 0.0
C3021 C 0.62274 0.90195 0.10046 0.0
H3022 H 0.63447 0.9742 0.10773 0.0
H3023 H 0.63027 0.95078 0.04819 0.0
H3024 H 0.6414 0.94087 0.13061 0.0
H3025 H 0.664 0.96221 0.12822 0.0
H3026 H 0.64459 0.9647 0.13432 0.0
H3027 H 0.6386 0.9279 0.03977 0.0
H3028 H 0.6597 0.93434 0.0544 0.0
H3029 H 0.63766 0.91318 0.05865 0.0
H3030 H 0.69881 0.94043 0.11083 0.0
H3031 H 0.64396 0.88976 0.11627 0.0
H3032 H 0.68643 0.97237 0.10235 0.0
H3033 H 0.68349 0.96209 0.07754 0.0
H3034 H 0.70295 0.96631 0.0937 0.0
H3035 H 0.61795 0.90969 0.11028 0.0
H3036 H 0.616 0.88668 0.10416 0.0
H3037 H 0.61772 0.90167 0.08524 0.0
C3038 C 0.03175 0.7004 0.08393 0.0
C3039 C 0.04004 0.69119 0.07447 0.0
C3040 C 0.04288 0.71903 0.09435 0.0
C3041 C 0.06277 0.72862 0.09545 0.0
C3042 C 0.07123 0.71929 0.0862 0.0
C3043 C 0.05976 0.70071 0.07576 0.0
C3044 C 0.03336 0.72857 0.10393 0.0
C3045 C 0.09241 0.72903 0.08718 0.0
C3046 C 0.09333 0.7839 0.10514 0.0
C3047 C 0.09949 0.78658 0.125 0.0
C3048 C 0.08101 0.76512 0.09547 0.0
C3049 C 0.07479 0.74862 0.10588 0.0
C3050 C 0.08056 0.75123 0.12605 0.0
C3051 C 0.09282 0.77019 0.13539 0.0
C3052 C 0.07511 0.76293 0.07395 0.0
C3053 C 0.07418 0.73397 0.13764 0.0
H3054 H 0.01651 0.69316 0.083 0.0
H3055 H 0.06627 0.69367 0.06857 0.0
H3056 H 0.03788 0.73245 0.11983 0.0
H3057 H 0.03768 0.74236 0.09752 0.0
H3058 H 0.01773 0.71897 0.10208 0.0
H3059 H 0.09675 0.7196 0.07966 0.0
H3060 H 0.09879 0.74289 0.0803 0.0
H3061 H 0.09829 0.73282 0.1027 0.0
H3062 H 0.09867 0.79646 0.09693 0.0
H3063 H 0.09738 0.7722 0.15079 0.0
H3064 H 0.05949 0.754 0.07142 0.0
H3065 H 0.08058 0.75512 0.06535 0.0
H3066 H 0.08039 0.77726 0.06826 0.0
H3067 H 0.05855 0.72463 0.1365 0.0
H3068 H 0.07935 0.73852 0.15338 0.0
H3069 H 0.07942 0.72484 0.13145 0.0
C3070 C 0.31982 0.37433 0.05563 0.0
C3071 C 0.32184 0.37353 0.03544 0.0
C3072 C 0.30192 0.36543 0.06277 0.0
C3073 C 0.28564 0.35563 0.0494 0.0
C3074 C 0.28755 0.35528 0.02899 0.0
C3075 C 0.30566 0.3642 0.02223 0.0
C3076 C 0.30045 0.36612 0.08468 0.0
C3077 C 0.27048 0.34512 0.01433 0.0
C3078 C 0.24174 0.31746 0.07135 0.0
C3079 C 0.2338 0.32827 0.07723 0.0
C3080 C 0.25818 0.32589 0.06132 0.0
C3081 C 0.26669 0.34549 0.05701 0.0
C3082 C 0.25802 0.35602 0.06185 0.0
C3083 C 0.2417 0.34729 0.07199 0.0
C3084 C 0.26705 0.31423 0.05644 0.0
C3085 C 0.26654 0.37685 0.05727 0.0
H3086 H 0.33222 0.3815 0.06595 0.0
H3087 H 0.30711 0.36353 0.0066 0.0
H3088 H 0.2923 0.37281 0.08891 0.0
H3089 H 0.29273 0.35105 0.08903 0.0
H3090 H 0.3145 0.3746 0.09308 0.0
H3091 H 0.27439 0.34711 0.99897 0.0
H3092 H 0.26212 0.32924 0.01587 0.0
H3093 H 0.26121 0.35077 0.01723 0.0
H3094 H 0.23567 0.30278 0.07549 0.0
H3095 H 0.23538 0.35554 0.07633 0.0
H3096 H 0.28051 0.32061 0.06566 0.0
H3097 H 0.27043 0.31493 0.04091 0.0
H3098 H 0.25773 0.29864 0.05899 0.0
H3099 H 0.27987 0.38656 0.06664 0.0
H3100 H 0.25691 0.38213 0.05987 0.0
H3101 H 0.27007 0.37819 0.04178 0.0
C3102 C 0.71581 0.68659 0.38532 0.0
C3103 C 0.69673 0.6788 0.38818 0.0
C3104 C 0.72624 0.68053 0.39546 0.0
C3105 C 0.71736 0.66639 0.40882 0.0
C3106 C 0.69813 0.65853 0.41185 0.0
C3107 C 0.68803 0.66481 0.40147 0.0
C3108 C 0.74674 0.68923 0.39185 0.0
C3109 C 0.68825 0.64348 0.42603 0.0
C3110 C 0.74112 0.63927 0.42104 0.0
C3111 C 0.75189 0.65008 0.43854 0.0
C3112 C 0.72935 0.64406 0.41147 0.0
C3113 C 0.72832 0.65997 0.41967 0.0
C3114 C 0.73857 0.67041 0.43775 0.0
C3115 C 0.75027 0.66535 0.44696 0.0
C3116 C 0.71863 0.63261 0.39219 0.0
C3117 C 0.73768 0.68733 0.44704 0.0
H3118 H 0.72262 0.69738 0.37506 0.0
H3119 H 0.67328 0.65873 0.40378 0.0
H3120 H 0.75573 0.69661 0.40576 0.0
H3121 H 0.74905 0.67746 0.38653 0.0
H3122 H 0.7515 0.7 0.38091 0.0
H3123 H 0.67324 0.63887 0.42676 0.0
H3124 H 0.6888 0.63037 0.42163 0.0
H3125 H 0.69558 0.64946 0.44094 0.0
H3126 H 0.7425 0.62758 0.41441 0.0
H3127 H 0.75844 0.67357 0.46062 0.0
H3128 H 0.72403 0.64226 0.38026 0.0
H3129 H 0.70345 0.62731 0.39263 0.0
H3130 H 0.71995 0.61985 0.38847 0.0
H3131 H 0.74377 0.69937 0.4375 0.0
H3132 H 0.74552 0.69308 0.46176 0.0
H3133 H 0.7228 0.68281 0.4485 0.0
C3134 C 0.32726 0.02062 0.43081 0.0
C3135 C 0.30904 0.00737 0.43612 0.0
C3136 C 0.3364 0.04069 0.43678 0.0
C3137 C 0.32708 0.0477 0.44828 0.0
C3138 C 0.3089 0.03438 0.45412 0.0
C3139 C 0.3001 0.01435 0.44798 0.0
C3140 C 0.35581 0.05445 0.43034 0.0
C3141 C 0.29853 0.04135 0.46639 0.0
C3142 C 0.35481 0.09871 0.4757 0.0
C3143 C 0.35079 0.10921 0.46328 0.0
C3144 C 0.34743 0.0787 0.47089 0.0
C3145 C 0.33584 0.06906 0.45324 0.0
C3146 C 0.33219 0.07974 0.44041 0.0
C3147 C 0.33971 0.09969 0.4456 0.0
C3148 C 0.35163 0.06777 0.48491 0.0
C3149 C 0.31999 0.07 0.42139 0.0
H3150 H 0.33433 0.01534 0.42173 0.0
H3151 H 0.28606 0.00422 0.4522 0.0
H3152 H 0.35522 0.06439 0.42053 0.0
H3153 H 0.36572 0.06371 0.44323 0.0
H3154 H 0.36159 0.04655 0.42243 0.0
H3155 H 0.28493 0.02905 0.47056 0.0
H3156 H 0.30741 0.05031 0.47994 0.0
H3157 H 0.29562 0.05082 0.4581 0.0
H3158 H 0.36321 0.10601 0.48949 0.0
H3159 H 0.33677 0.10785 0.43588 0.0
H3160 H 0.35784 0.06025 0.4772 0.0
H3161 H 0.33833 0.05634 0.49046 0.0
H3162 H 0.36151 0.07758 0.49764 0.0
H3163 H 0.32576 0.06284 0.41223 0.0
H3164 H 0.31896 0.08052 0.41281 0.0
H3165 H 0.30555 0.05842 0.42447 0.0
C3166 C 0.00204 0.30496 0.38244 0.0
C3167 C 0.00452 0.29898 0.36367 0.0
C3168 C 0.9846 0.29473 0.39044 0.0
C3169 C 0.9693 0.27788 0.37955 0.0
C3170 C 0.97171 0.2716 0.36067 0.0
C3171 C 0.98929 0.28234 0.35286 0.0
C3172 C 0.98254 0.30201 0.41056 0.0
C3173 C 0.95577 0.25349 0.34881 0.0
C3174 C 0.93161 0.24352 0.41079 0.0
C3175 C 0.91802 0.24848 0.4086 0.0
C3176 C 0.94792 0.25229 0.40065 0.0
C3177 C 0.95096 0.2667 0.38829 0.0
C3178 C 0.93717 0.2715 0.38562 0.0
C3179 C 0.92079 0.26223 0.39572 0.0
C3180 C 0.96225 0.24667 0.40377 0.0
C3181 C 0.94003 0.28694 0.3727 0.0
H3182 H 0.0137 0.3179 0.39083 0.0
H3183 H 0.99114 0.27764 0.33836 0.0
H3184 H 0.97095 0.30478 0.40978 0.0
H3185 H 0.97873 0.2907 0.42072 0.0
H3186 H 0.99568 0.31568 0.41685 0.0
H3187 H 0.95993 0.25059 0.33436 0.0
H3188 H 0.95102 0.24062 0.35704 0.0
H3189 H 0.94351 0.25502 0.34636 0.0
H3190 H 0.92985 0.23322 0.42098 0.0
H3191 H 0.91025 0.26594 0.39369 0.0
H3192 H 0.97525 0.25915 0.41188 0.0
H3193 H 0.96626 0.24325 0.38947 0.0
H3194 H 0.95689 0.23383 0.41221 0.0
H3195 H 0.95231 0.30136 0.37894 0.0
H3196 H 0.92747 0.28812 0.37122 0.0
H3197 H 0.94325 0.28367 0.35788 0.0
C3198 C 0.07195 0.40174 0.31616 0.0
C3199 C 0.06345 0.39076 0.33178 0.0
C3200 C 0.0656 0.41298 0.30849 0.0
C3201 C 0.05041 0.41322 0.31664 0.0
C3202 C 0.04235 0.40289 0.33296 0.0
C3203 C 0.04898 0.3918 0.34035 0.0
C3204 C 0.07461 0.42394 0.29114 0.0
C3205 C 0.02615 0.40283 0.34207 0.0
C3206 C 0.04056 0.45187 0.30402 0.0
C3207 C 0.02604 0.44152 0.28894 0.0
C3208 C 0.04865 0.44287 0.31323 0.0
C3209 C 0.04203 0.42306 0.30722 0.0
C3210 C 0.02727 0.4125 0.29213 0.0
C3211 C 0.01947 0.42186 0.28315 0.0
C3212 C 0.06434 0.45454 0.32931 0.0
C3213 C 0.01982 0.39133 0.28532 0.0
H3214 H 0.08318 0.40108 0.30952 0.0
H3215 H 0.0424 0.38346 0.3525 0.0
H3216 H 0.06425 0.41741 0.27811 0.0
H3217 H 0.07883 0.43942 0.29408 0.0
H3218 H 0.08724 0.42356 0.28755 0.0
H3219 H 0.02248 0.39535 0.35563 0.0
H3220 H 0.02968 0.41801 0.34566 0.0
H3221 H 0.01351 0.39526 0.33142 0.0
H3222 H 0.04555 0.46702 0.30866 0.0
H3223 H 0.00849 0.4139 0.27128 0.0
H3224 H 0.07722 0.45494 0.32523 0.0
H3225 H 0.06024 0.44742 0.34304 0.0
H3226 H 0.06784 0.4698 0.33229 0.0
H3227 H 0.03135 0.38991 0.27972 0.0
H3228 H 0.00814 0.38516 0.27355 0.0
H3229 H 0.01461 0.38242 0.29782 0.0
C3230 C 0.61568 0.65372 0.29965 0.0
C3231 C 0.62897 0.65638 0.31443 0.0
C3232 C 0.60157 0.63489 0.2913 0.0
C3233 C 0.60078 0.6184 0.29794 0.0
C3234 C 0.6143 0.62101 0.31266 0.0
C3235 C 0.62823 0.63995 0.32072 0.0
C3236 C 0.58737 0.63262 0.27558 0.0
C3237 C 0.61388 0.60377 0.32015 0.0
C3238 C 0.55416 0.56965 0.29243 0.0
C3239 C 0.55657 0.55972 0.27632 0.0
C3240 C 0.56837 0.58886 0.29945 0.0
C3241 C 0.58537 0.59835 0.2901 0.0
C3242 C 0.58787 0.58844 0.27377 0.0
C3243 C 0.57342 0.56919 0.26708 0.0
C3244 C 0.56526 0.5989 0.31701 0.0
C3245 C 0.60582 0.59815 0.26342 0.0
H3246 H 0.6162 0.66634 0.29468 0.0
H3247 H 0.63847 0.64185 0.33211 0.0
H3248 H 0.58727 0.62391 0.26226 0.0
H3249 H 0.573 0.62452 0.28076 0.0
H3250 H 0.59038 0.64693 0.2715 0.0
H3251 H 0.62578 0.60833 0.33125 0.0
H3252 H 0.60043 0.59453 0.32685 0.0
H3253 H 0.61451 0.59453 0.30781 0.0
H3254 H 0.54123 0.56228 0.29975 0.0
H3255 H 0.57521 0.5616 0.25448 0.0
H3256 H 0.56695 0.61278 0.31329 0.0
H3257 H 0.57602 0.60268 0.32919 0.0
H3258 H 0.55103 0.58964 0.32228 0.0
H3259 H 0.60841 0.61194 0.25831 0.0
H3260 H 0.60532 0.58861 0.25062 0.0
H3261 H 0.618 0.60203 0.27377 0.0
C3262 C 0.34825 0.95512 0.37514 0.0
C3263 C 0.33897 0.96407 0.36859 0.0
C3264 C 0.364 0.95737 0.36613 0.0
C3265 C 0.37052 0.96876 0.35018 0.0
C3266 C 0.36103 0.97757 0.34334 0.0
C3267 C 0.3454 0.97514 0.35264 0.0
C3268 C 0.3738 0.94776 0.37378 0.0
C3269 C 0.36751 0.98975 0.3263 0.0
C3270 C 0.42107 0.99209 0.33687 0.0
C3271 C 0.41899 0.97978 0.32023 0.0
C3272 C 0.40549 0.98827 0.34721 0.0
C3273 C 0.38742 0.97177 0.34069 0.0
C3274 C 0.38534 0.95896 0.32427 0.0
C3275 C 0.40117 0.96311 0.31423 0.0
C3276 C 0.40826 0.00221 0.36474 0.0
C3277 C 0.36628 0.94128 0.31683 0.0
H3278 H 0.34336 0.94655 0.38747 0.0
H3279 H 0.33827 0.98205 0.34743 0.0
H3280 H 0.37416 0.93799 0.36183 0.0
H3281 H 0.38865 0.95907 0.37897 0.0
H3282 H 0.36675 0.93907 0.38606 0.0
H3283 H 0.35834 0.99528 0.32254 0.0
H3284 H 0.38216 0.00243 0.32985 0.0
H3285 H 0.36762 0.98097 0.31317 0.0
H3286 H 0.43488 0.00485 0.34168 0.0
H3287 H 0.39945 0.95368 0.30123 0.0
H3288 H 0.40222 0.99409 0.3776 0.0
H3289 H 0.40067 0.00959 0.36153 0.0
H3290 H 0.42339 0.01357 0.36871 0.0
H3291 H 0.35937 0.93228 0.32893 0.0
H3292 H 0.36729 0.93198 0.30483 0.0
H3293 H 0.357 0.94608 0.31127 0.0
C3294 C 0.63767 0.99287 0.33438 0.0
C3295 C 0.631 0.9763 0.34448 0.0
C3296 C 0.62517 0.99603 0.32376 0.0
C3297 C 0.60553 0.98219 0.32307 0.0
C3298 C 0.59869 0.96529 0.33302 0.0
C3299 C 0.61152 0.9626 0.3437 0.0
C3300 C 0.63297 0.01432 0.31351 0.0
C3301 C 0.57784 0.95014 0.33246 0.0
C3302 C 0.57233 0.99926 0.31208 0.0
C3303 C 0.56692 0.99273 0.29207 0.0
C3304 C 0.58491 0.99596 0.32231 0.0
C3305 C 0.59212 0.98569 0.31237 0.0
C3306 C 0.58671 0.979 0.2922 0.0
C3307 C 0.57422 0.98266 0.28227 0.0
C3308 C 0.59041 0.0034 0.3438 0.0
C3309 C 0.59408 0.96795 0.28113 0.0
H3310 H 0.65269 0.00357 0.33495 0.0
H3311 H 0.60628 0.94972 0.3514 0.0
H3312 H 0.62834 0.0104 0.29764 0.0
H3313 H 0.62739 0.02319 0.31949 0.0
H3314 H 0.64864 0.02349 0.31523 0.0
H3315 H 0.57486 0.93753 0.34046 0.0
H3316 H 0.57041 0.95684 0.33908 0.0
H3317 H 0.57183 0.94464 0.31705 0.0
H3318 H 0.56645 0.00668 0.31987 0.0
H3319 H 0.57023 0.97772 0.26679 0.0
H3320 H 0.60596 0.0134 0.3463 0.0
H3321 H 0.58626 0.991 0.35258 0.0
H3322 H 0.58371 0.01133 0.3493 0.0
H3323 H 0.6097 0.97717 0.28153 0.0
H3324 H 0.58824 0.96344 0.26557 0.0
H3325 H 0.59046 0.9547 0.28825 0.0
C3326 C 0.03089 0.65281 0.33475 0.0
C3327 C 0.03312 0.66855 0.32534 0.0
C3328 C 0.02552 0.63501 0.32397 0.0
C3329 C 0.02259 0.63306 0.30329 0.0
C3330 C 0.02505 0.64897 0.29369 0.0
C3331 C 0.03017 0.66651 0.30485 0.0
C3332 C 0.02282 0.61825 0.3347 0.0
C3333 C 0.02232 0.6475 0.27163 0.0
C3334 C 0.02593 0.59323 0.27504 0.0
C3335 C 0.00683 0.57853 0.27054 0.0
C3336 C 0.03124 0.61117 0.2854 0.0
C3337 C 0.01713 0.61439 0.29169 0.0
C3338 C 0.99784 0.59969 0.28716 0.0
C3339 C 0.99292 0.58196 0.27652 0.0
C3340 C 0.05196 0.62659 0.28985 0.0
C3341 C 0.98241 0.6026 0.29376 0.0
H3342 H 0.03304 0.65428 0.35059 0.0
H3343 H 0.03198 0.67868 0.2975 0.0
H3344 H 0.00822 0.60542 0.33127 0.0
H3345 H 0.03254 0.61375 0.32973 0.0
H3346 H 0.02541 0.62208 0.35085 0.0
H3347 H 0.02497 0.6613 0.26644 0.0
H3348 H 0.03201 0.6438 0.2648 0.0
H3349 H 0.00772 0.63555 0.26641 0.0
H3350 H 0.03678 0.59057 0.27084 0.0
H3351 H 0.97815 0.57078 0.2729 0.0
H3352 H 0.05552 0.62964 0.30593 0.0
H3353 H 0.05523 0.64046 0.28432 0.0
H3354 H 0.06116 0.62209 0.28317 0.0
H3355 H 0.98375 0.60541 0.30998 0.0
H3356 H 0.96809 0.58972 0.28902 0.0
H3357 H 0.98384 0.6156 0.28779 0.0
C3358 C 0.34499 0.39594 0.37239 0.0
C3359 C 0.3272 0.38191 0.363 0.0
C3360 C 0.36093 0.40526 0.36165 0.0
C3361 C 0.35893 0.40052 0.34108 0.0
C3362 C 0.34084 0.3872 0.33144 0.0
C3363 C 0.3252 0.37801 0.34252 0.0
C3364 C 0.38002 0.4194 0.37242 0.0
C3365 C 0.33809 0.38196 0.30949 0.0
C3366 C 0.39724 0.43229 0.3088 0.0
C3367 C 0.40567 0.42148 0.3051 0.0
C3368 C 0.38234 0.42595 0.32095 0.0
C3369 C 0.3758 0.40845 0.32968 0.0
C3370 C 0.38464 0.39781 0.32653 0.0
C3371 C 0.39946 0.40444 0.31423 0.0
C3372 C 0.37328 0.43769 0.324 0.0
C3373 C 0.37807 0.3791 0.33566 0.0
H3374 H 0.34664 0.39896 0.38822 0.0
H3375 H 0.31146 0.3673 0.33516 0.0
H3376 H 0.38883 0.41296 0.37162 0.0
H3377 H 0.38748 0.43318 0.36542 0.0
H3378 H 0.37896 0.42293 0.3881 0.0
H3379 H 0.32295 0.37245 0.30411 0.0
H3380 H 0.34456 0.39539 0.30188 0.0
H3381 H 0.34527 0.37417 0.30532 0.0
H3382 H 0.40225 0.4457 0.3021 0.0
H3383 H 0.40582 0.39597 0.31133 0.0
H3384 H 0.37302 0.44116 0.33989 0.0
H3385 H 0.35842 0.42893 0.31762 0.0
H3386 H 0.38077 0.45157 0.31712 0.0
H3387 H 0.37787 0.38156 0.35175 0.0
H3388 H 0.38721 0.37325 0.33277 0.0
H3389 H 0.36343 0.36784 0.32973 0.0
C3390 C 0.33176 0.32002 0.40531 0.0
C3391 C 0.31249 0.31043 0.3992 0.0
C3392 C 0.33939 0.30982 0.41267 0.0
C3393 C 0.32746 0.28953 0.414 0.0
C3394 C 0.30817 0.27959 0.40711 0.0
C3395 C 0.30089 0.29017 0.39976 0.0
C3396 C 0.36006 0.32091 0.4198 0.0
C3397 C 0.29504 0.25795 0.4083 0.0
C3398 C 0.3497 0.26034 0.42396 0.0
C3399 C 0.3486 0.2596 0.44425 0.0
C3400 C 0.34285 0.27002 0.41382 0.0
C3401 C 0.33479 0.27916 0.42428 0.0
C3402 C 0.3339 0.27867 0.44479 0.0
C3403 C 0.34085 0.26894 0.45452 0.0
C3404 C 0.34407 0.27033 0.39194 0.0
C3405 C 0.32554 0.28838 0.4565 0.0
H3406 H 0.34087 0.33565 0.40474 0.0
H3407 H 0.28602 0.28266 0.39497 0.0
H3408 H 0.36152 0.32112 0.43595 0.0
H3409 H 0.36692 0.31353 0.41331 0.0
H3410 H 0.36775 0.33625 0.41613 0.0
H3411 H 0.28087 0.25209 0.40074 0.0
H3412 H 0.30111 0.24978 0.4017 0.0
H3413 H 0.29332 0.25511 0.4239 0.0
H3414 H 0.35556 0.25299 0.41597 0.0
H3415 H 0.34026 0.26866 0.47026 0.0
H3416 H 0.35215 0.28564 0.38829 0.0
H3417 H 0.32971 0.2632 0.38442 0.0
H3418 H 0.35095 0.26272 0.38603 0.0
H3419 H 0.33346 0.30425 0.45486 0.0
H3420 H 0.32581 0.28652 0.47235 0.0
H3421 H 0.3107 0.28216 0.45083 0.0
C3422 C 0.69767 0.02636 0.41272 0.0
C3423 C 0.70602 0.01777 0.40223 0.0
C3424 C 0.70867 0.04541 0.42229 0.0
C3425 C 0.72851 0.05595 0.42162 0.0
C3426 C 0.73703 0.04727 0.41124 0.0
C3427 C 0.72566 0.02833 0.40153 0.0
C3428 C 0.69909 0.05433 0.43295 0.0
C3429 C 0.75817 0.05796 0.41043 0.0
C3430 C 0.75851 0.1113 0.43017 0.0
C3431 C 0.76635 0.11439 0.44944 0.0
C3432 C 0.74552 0.09237 0.42121 0.0
C3433 C 0.74046 0.07612 0.43167 0.0
C3434 C 0.74776 0.07914 0.45135 0.0
C3435 C 0.76051 0.09825 0.46005 0.0
C3436 C 0.73783 0.08972 0.40026 0.0
C3437 C 0.74273 0.06217 0.46296 0.0
H3438 H 0.68247 0.01831 0.41319 0.0
H3439 H 0.73219 0.02172 0.39354 0.0
H3440 H 0.70448 0.05848 0.44862 0.0
H3441 H 0.70241 0.0679 0.42666 0.0
H3442 H 0.68351 0.0442 0.43204 0.0
H3443 H 0.7626 0.04898 0.40208 0.0
H3444 H 0.7633 0.07162 0.40344 0.0
H3445 H 0.7652 0.0622 0.4255 0.0
H3446 H 0.76311 0.12363 0.42176 0.0
H3447 H 0.76624 0.10054 0.47506 0.0
H3448 H 0.72223 0.07995 0.39891 0.0
H3449 H 0.74342 0.08268 0.39063 0.0
H3450 H 0.74172 0.10384 0.39484 0.0
H3451 H 0.72719 0.05236 0.46279 0.0
H3452 H 0.74877 0.06704 0.47845 0.0
H3453 H 0.74811 0.05343 0.4561 0.0
C3454 C 0.97819 0.68028 0.37756 0.0
C3455 C 0.98812 0.69803 0.36932 0.0
C3456 C 0.96093 0.67419 0.38542 0.0
C3457 C 0.95348 0.68623 0.3852 0.0
C3458 C 0.96317 0.70396 0.37649 0.0
C3459 C 0.98038 0.70962 0.36854 0.0
C3460 C 0.95093 0.6551 0.39443 0.0
C3461 C 0.95567 0.71721 0.37614 0.0
C3462 C 0.90194 0.66255 0.39526 0.0
C3463 C 0.90343 0.6678 0.41549 0.0
C3464 C 0.91813 0.66884 0.38504 0.0
C3465 C 0.93618 0.68076 0.39529 0.0
C3466 C 0.93777 0.68646 0.4156 0.0
C3467 C 0.9214 0.67979 0.42547 0.0
C3468 C 0.91592 0.66238 0.3634 0.0
C3469 C 0.95679 0.69917 0.42705 0.0
H3470 H 0.98398 0.67113 0.37803 0.0
H3471 H 0.988 0.72334 0.36217 0.0
H3472 H 0.95046 0.65798 0.4104 0.0
H3473 H 0.93613 0.64574 0.38797 0.0
H3474 H 0.958 0.64686 0.39228 0.0
H3475 H 0.96424 0.72984 0.36771 0.0
H3476 H 0.94086 0.70892 0.3696 0.0
H3477 H 0.95563 0.72286 0.39136 0.0
H3478 H 0.88811 0.65351 0.38741 0.0
H3479 H 0.92271 0.68364 0.44116 0.0
H3480 H 0.92188 0.65312 0.36077 0.0
H3481 H 0.92392 0.67526 0.35516 0.0
H3482 H 0.90092 0.65391 0.3574 0.0
H3483 H 0.96423 0.69125 0.42719 0.0
H3484 H 0.95558 0.70341 0.44245 0.0
H3485 H 0.9657 0.71266 0.41992 0.0
C3486 C 0.36286 0.01188 0.7378 0.0
C3487 C 0.36929 0.02385 0.72251 0.0
C3488 C 0.37506 0.00874 0.74899 0.0
C3489 C 0.39416 0.01778 0.74478 0.0
C3490 C 0.40082 0.03007 0.72952 0.0
C3491 C 0.3883 0.03296 0.71856 0.0
C3492 C 0.36747 0.99556 0.76517 0.0
C3493 C 0.42112 0.03997 0.72463 0.0
C3494 C 0.43045 0.02315 0.78331 0.0
C3495 C 0.43263 0.00776 0.77663 0.0
C3496 C 0.41778 0.02645 0.77322 0.0
C3497 C 0.4071 0.01407 0.75606 0.0
C3498 C 0.40898 0.99829 0.74946 0.0
C3499 C 0.42173 0.99533 0.75983 0.0
C3500 C 0.41605 0.04335 0.78076 0.0
C3501 C 0.39782 0.98479 0.7312 0.0
H3502 H 0.3482 0.00481 0.74099 0.0
H3503 H 0.39338 0.04225 0.70678 0.0
H3504 H 0.36897 0.98286 0.76203 0.0
H3505 H 0.37576 0.00354 0.7793 0.0
H3506 H 0.35237 0.99003 0.7669 0.0
H3507 H 0.42415 0.04937 0.71258 0.0
H3508 H 0.43068 0.0491 0.73777 0.0
H3509 H 0.4245 0.0288 0.72022 0.0
H3510 H 0.43873 0.03268 0.79639 0.0
H3511 H 0.42359 0.9836 0.75445 0.0
H3512 H 0.40116 0.038 0.78335 0.0
H3513 H 0.42023 0.05382 0.76959 0.0
H3514 H 0.425 0.05128 0.79461 0.0
H3515 H 0.3825 0.97817 0.73251 0.0
H3516 H 0.40051 0.97285 0.72838 0.0
H3517 H 0.40153 0.99323 0.71832 0.0
C3518 C 0.98084 0.34342 0.75422 0.0
C3519 C 0.96499 0.32643 0.75967 0.0
C3520 C 0.98594 0.36198 0.76274 0.0
C3521 C 0.97497 0.36361 0.7771 0.0
C3522 C 0.95905 0.34654 0.78281 0.0
C3523 C 0.95422 0.32812 0.77399 0.0
C3524 C 0.00299 0.37986 0.75623 0.0
C3525 C 0.94705 0.34776 0.79811 0.0
C3526 C 0.99768 0.41154 0.81002 0.0
C3527 C 0.99013 0.4211 0.80096 0.0
C3528 C 0.99266 0.39267 0.80258 0.0
C3529 C 0.97988 0.38325 0.78566 0.0
C3530 C 0.97219 0.39283 0.7765 0.0
C3531 C 0.97741 0.41165 0.78427 0.0
C3532 C 0.00109 0.38284 0.81277 0.0
C3533 C 0.95863 0.38331 0.75834 0.0
H3534 H 0.98928 0.34227 0.74319 0.0
H3535 H 0.94201 0.31506 0.77833 0.0
H3536 H 0.99867 0.38918 0.74982 0.0
H3537 H 0.01323 0.38873 0.76903 0.0
H3538 H 0.01024 0.37604 0.74517 0.0
H3539 H 0.93545 0.3331 0.80132 0.0
H3540 H 0.95591 0.35593 0.81192 0.0
H3541 H 0.94079 0.35593 0.79306 0.0
H3542 H 0.00736 0.41875 0.82305 0.0
H3543 H 0.97174 0.41911 0.77708 0.0
H3544 H 0.00941 0.37973 0.80257 0.0
H3545 H 0.98969 0.36862 0.81707 0.0
H3546 H 0.01042 0.39195 0.82606 0.0
H3547 H 0.9656 0.38033 0.7463 0.0
H3548 H 0.9536 0.39258 0.75326 0.0
H3549 H 0.94622 0.36906 0.76124 0.0
C3550 C 0.66918 0.62444 0.70991 0.0
C3551 C 0.68645 0.63051 0.72019 0.0
C3552 C 0.65214 0.61391 0.71862 0.0
C3553 C 0.6524 0.6095 0.73813 0.0
C3554 C 0.66967 0.61475 0.74825 0.0
C3555 C 0.68652 0.62513 0.7391 0.0
C3556 C 0.63396 0.60832 0.70727 0.0
C3557 C 0.67049 0.61033 0.7691 0.0
C3558 C 0.61311 0.6045 0.76811 0.0
C3559 C 0.60165 0.58421 0.76819 0.0
C3560 C 0.62974 0.61291 0.75844 0.0
C3561 C 0.63481 0.60068 0.74839 0.0
C3562 C 0.62309 0.58013 0.74815 0.0
C3563 C 0.60669 0.57214 0.7582 0.0
C3564 C 0.642 0.63491 0.75918 0.0
C3565 C 0.6279 0.56664 0.73731 0.0
H3566 H 0.66902 0.62843 0.69522 0.0
H3567 H 0.69981 0.62981 0.74714 0.0
H3568 H 0.62317 0.59261 0.70785 0.0
H3569 H 0.6283 0.61683 0.71403 0.0
H3570 H 0.63594 0.61114 0.69167 0.0
H3571 H 0.68478 0.61407 0.77438 0.0
H3572 H 0.66646 0.61882 0.7789 0.0
H3573 H 0.66025 0.59462 0.77037 0.0
H3574 H 0.60928 0.61381 0.77602 0.0
H3575 H 0.5977 0.55641 0.75817 0.0
H3576 H 0.64354 0.63933 0.74411 0.0
H3577 H 0.65634 0.64017 0.76583 0.0
H3578 H 0.63613 0.64233 0.76779 0.0
H3579 H 0.62916 0.5692 0.72162 0.0
H3580 H 0.61711 0.55098 0.73829 0.0
H3581 H 0.64175 0.56979 0.74337 0.0
C3582 C 0.67931 0.70248 0.68939 0.0
C3583 C 0.69607 0.70535 0.68243 0.0
C3584 C 0.67102 0.71218 0.68224 0.0
C3585 C 0.67973 0.7251 0.66783 0.0
C3586 C 0.69689 0.72844 0.66107 0.0
C3587 C 0.70485 0.7185 0.66844 0.0
C3588 C 0.6527 0.70824 0.68978 0.0
C3589 C 0.70662 0.7422 0.64574 0.0
C3590 C 0.64988 0.73478 0.63381 0.0
C3591 C 0.65452 0.75337 0.64176 0.0
C3592 C 0.65775 0.72528 0.64237 0.0
C3593 C 0.67056 0.7346 0.65928 0.0
C3594 C 0.67492 0.75314 0.66767 0.0
C3595 C 0.66685 0.76233 0.65878 0.0
C3596 C 0.65278 0.70551 0.63297 0.0
C3597 C 0.68843 0.76346 0.68576 0.0
H3598 H 0.67242 0.69236 0.70022 0.0
H3599 H 0.71783 0.72083 0.66302 0.0
H3600 H 0.65417 0.72217 0.69549 0.0
H3601 H 0.6414 0.70139 0.67759 0.0
H3602 H 0.64816 0.69842 0.70161 0.0
H3603 H 0.72024 0.74376 0.6426 0.0
H3604 H 0.69733 0.73675 0.63191 0.0
H3605 H 0.70932 0.75686 0.65064 0.0
H3606 H 0.64063 0.72796 0.62044 0.0
H3607 H 0.67037 0.77666 0.665 0.0
H3608 H 0.64725 0.69472 0.64387 0.0
H3609 H 0.66564 0.70647 0.62785 0.0
H3610 H 0.64207 0.69997 0.62027 0.0
H3611 H 0.68367 0.75393 0.69781 0.0
H3612 H 0.68975 0.77747 0.69089 0.0
H3613 H 0.70261 0.76654 0.68262 0.0
C3614 C 0.27399 0.9746 0.65199 0.0
C3615 C 0.29231 0.98181 0.66011 0.0
C3616 C 0.262 0.95481 0.64487 0.0
C3617 C 0.2684 0.94191 0.64631 0.0
C3618 C 0.2869 0.94912 0.65449 0.0
C3619 C 0.29871 0.96905 0.66113 0.0
C3620 C 0.24246 0.94768 0.63593 0.0
C3621 C 0.29407 0.93573 0.65658 0.0
C3622 C 0.2298 0.88853 0.64604 0.0
C3623 C 0.22907 0.88125 0.62667 0.0
C3624 C 0.24304 0.90814 0.65283 0.0
C3625 C 0.25549 0.92076 0.63976 0.0
C3626 C 0.25504 0.91334 0.62026 0.0
C3627 C 0.2419 0.89355 0.61399 0.0
C3628 C 0.24336 0.91543 0.67383 0.0
C3629 C 0.26791 0.92644 0.60584 0.0
H3630 H 0.26905 0.98446 0.65105 0.0
H3631 H 0.31284 0.97455 0.66751 0.0
H3632 H 0.24027 0.94027 0.62094 0.0
H3633 H 0.23171 0.93678 0.64476 0.0
H3634 H 0.23998 0.95976 0.63506 0.0
H3635 H 0.30891 0.94371 0.66305 0.0
H3636 H 0.28508 0.92428 0.66606 0.0
H3637 H 0.29318 0.92815 0.64207 0.0
H3638 H 0.21985 0.8789 0.65579 0.0
H3639 H 0.24112 0.88785 0.59894 0.0
H3640 H 0.23915 0.92629 0.67421 0.0
H3641 H 0.25787 0.92294 0.68107 0.0
H3642 H 0.23369 0.90342 0.68244 0.0
H3643 H 0.26479 0.93784 0.60345 0.0
H3644 H 0.26628 0.91821 0.59146 0.0
H3645 H 0.28285 0.93407 0.61181 0.0
C3646 C 0.02718 0.2989 0.70158 0.0
C3647 C 0.02582 0.30818 0.71895 0.0
C3648 C 0.04435 0.30664 0.69295 0.0
C3649 C 0.06053 0.32409 0.7019 0.0
C3650 C 0.05941 0.3332 0.71975 0.0
C3651 C 0.04206 0.32511 0.7281 0.0
C3652 C 0.04503 0.29644 0.67394 0.0
C3653 C 0.07638 0.35183 0.72971 0.0
C3654 C 0.10767 0.33546 0.68505 0.0
C3655 C 0.1106 0.34801 0.6707 0.0
C3656 C 0.09169 0.32798 0.69575 0.0
C3657 C 0.07837 0.33323 0.69203 0.0
C3658 C 0.08161 0.34647 0.67811 0.0
C3659 C 0.09769 0.35369 0.66758 0.0
C3660 C 0.08874 0.31396 0.71055 0.0
C3661 C 0.06774 0.35245 0.67378 0.0
H3662 H 0.01471 0.28578 0.69445 0.0
H3663 H 0.04115 0.33237 0.74154 0.0
H3664 H 0.04845 0.30613 0.66212 0.0
H3665 H 0.05636 0.29332 0.67539 0.0
H3666 H 0.03145 0.28249 0.6694 0.0
H3667 H 0.07346 0.35641 0.74413 0.0
H3668 H 0.08844 0.34994 0.73193 0.0
H3669 H 0.08081 0.36377 0.72021 0.0
H3670 H 0.11775 0.33123 0.68768 0.0
H3671 H 0.09974 0.36317 0.65634 0.0
H3672 H 0.07603 0.29936 0.70565 0.0
H3673 H 0.08621 0.31901 0.72492 0.0
H3674 H 0.10101 0.31235 0.71261 0.0
H3675 H 0.05413 0.3395 0.66728 0.0
H3676 H 0.07293 0.36381 0.66345 0.0
H3677 H 0.06486 0.35815 0.68754 0.0
C3678 C 0.31004 0.3352 0.66571 0.0
C3679 C 0.30109 0.31855 0.67583 0.0
C3680 C 0.29963 0.34141 0.65584 0.0
C3681 C 0.27974 0.33058 0.65587 0.0
C3682 C 0.27056 0.31357 0.66579 0.0
C3683 C 0.28137 0.30782 0.67578 0.0
C3684 C 0.30994 0.35976 0.64564 0.0
C3685 C 0.24934 0.30154 0.66593 0.0
C3686 C 0.25392 0.35636 0.64702 0.0
C3687 C 0.24746 0.35028 0.62714 0.0
C3688 C 0.26454 0.35015 0.6565 0.0
C3689 C 0.26861 0.33735 0.64592 0.0
C3690 C 0.26221 0.3312 0.62585 0.0
C3691 C 0.25179 0.33782 0.61667 0.0
C3692 C 0.27126 0.35716 0.67789 0.0
C3693 C 0.26622 0.31748 0.61412 0.0
H3694 H 0.32529 0.34363 0.66575 0.0
H3695 H 0.27436 0.2949 0.68351 0.0
H3696 H 0.30481 0.35648 0.62991 0.0
H3697 H 0.307 0.37073 0.65214 0.0
H3698 H 0.32545 0.36638 0.64679 0.0
H3699 H 0.24434 0.28835 0.67376 0.0
H3700 H 0.24438 0.31053 0.67313 0.0
H3701 H 0.2427 0.29683 0.65068 0.0
H3702 H 0.25029 0.36563 0.65535 0.0
H3703 H 0.24699 0.3332 0.60127 0.0
H3704 H 0.28684 0.36461 0.67987 0.0
H3705 H 0.2652 0.3445 0.68662 0.0
H3706 H 0.26724 0.36744 0.68389 0.0
H3707 H 0.28168 0.32414 0.61407 0.0
H3708 H 0.26004 0.31389 0.59871 0.0
H3709 H 0.26043 0.30369 0.62104 0.0
C3710 C 0.70208 0.98334 0.64529 0.0
C3711 C 0.69363 0.99417 0.64369 0.0
C3712 C 0.69341 0.96424 0.63597 0.0
C3713 C 0.67577 0.95572 0.625 0.0
C3714 C 0.66718 0.96659 0.62328 0.0
C3715 C 0.67627 0.98575 0.63255 0.0
C3716 C 0.7031 0.95314 0.63795 0.0
C3717 C 0.64827 0.95789 0.61189 0.0
C3718 C 0.66211 0.91219 0.58816 0.0
C3719 C 0.65103 0.8965 0.59901 0.0
C3720 C 0.66986 0.93157 0.59625 0.0
C3721 C 0.66626 0.93531 0.61556 0.0
C3722 C 0.65437 0.91954 0.62626 0.0
C3723 C 0.64698 0.90031 0.61789 0.0
C3724 C 0.68249 0.94803 0.5844 0.0
C3725 C 0.65006 0.92297 0.64683 0.0
H3726 H 0.71552 0.98979 0.6538 0.0
H3727 H 0.6696 0.99401 0.63134 0.0
H3728 H 0.69406 0.93979 0.64522 0.0
H3729 H 0.70524 0.94835 0.62322 0.0
H3730 H 0.71701 0.96205 0.64658 0.0
H3731 H 0.6436 0.96838 0.61177 0.0
H3732 H 0.64895 0.95312 0.59653 0.0
H3733 H 0.63744 0.94472 0.61838 0.0
H3734 H 0.66504 0.90933 0.57344 0.0
H3735 H 0.63865 0.8883 0.62648 0.0
H3736 H 0.69703 0.95655 0.59167 0.0
H3737 H 0.67751 0.9582 0.58367 0.0
H3738 H 0.68303 0.94264 0.56922 0.0
H3739 H 0.66314 0.93006 0.65681 0.0
H3740 H 0.63932 0.90917 0.65251 0.0
H3741 H 0.64487 0.93302 0.64729 0.0
C3742 C 0.99835 0.68703 0.68848 0.0
C3743 C 0.99159 0.69885 0.69495 0.0
C3744 C 0.01502 0.6947 0.67897 0.0
C3745 C 0.02511 0.71464 0.67571 0.0
C3746 C 0.01867 0.72681 0.68267 0.0
C3747 C 0.00199 0.71877 0.69231 0.0
C3748 C 0.02153 0.68131 0.6719 0.0
C3749 C 0.02905 0.74814 0.67935 0.0
C3750 C 0.07551 0.73804 0.66151 0.0
C3751 C 0.07293 0.73707 0.64108 0.0
C3752 C 0.06007 0.73076 0.67303 0.0
C3753 C 0.04168 0.72241 0.66387 0.0
C3754 C 0.03898 0.72119 0.64324 0.0
C3755 C 0.05462 0.72846 0.6321 0.0
C3756 C 0.06343 0.73218 0.69499 0.0
C3757 C 0.01956 0.71231 0.63292 0.0
H3758 H 0.99048 0.67165 0.69064 0.0
H3759 H 0.99684 0.72797 0.69728 0.0
H3760 H 0.02081 0.67977 0.65565 0.0
H3761 H 0.03646 0.68765 0.6773 0.0
H3762 H 0.01282 0.66651 0.67681 0.0
H3763 H 0.02286 0.75587 0.68671 0.0
H3764 H 0.04411 0.75559 0.68484 0.0
H3765 H 0.02862 0.74947 0.6634 0.0
H3766 H 0.08965 0.7449 0.66854 0.0
H3767 H 0.05253 0.72741 0.61629 0.0
H3768 H 0.05514 0.71743 0.70004 0.0
H3769 H 0.05853 0.74117 0.70233 0.0
H3770 H 0.07856 0.73877 0.6998 0.0
H3771 H 0.01035 0.69688 0.63597 0.0
H3772 H 0.01993 0.71269 0.61679 0.0
H3773 H 0.01297 0.72028 0.63857 0.0
C3774 C 0.94433 0.60845 0.74158 0.0
C3775 C 0.94609 0.61057 0.72153 0.0
C3776 C 0.9506 0.5979 0.7509 0.0
C3777 C 0.95869 0.58913 0.73986 0.0
C3778 C 0.95972 0.59045 0.71945 0.0
C3779 C 0.95345 0.60121 0.71052 0.0
C3780 C 0.94926 0.59679 0.77272 0.0
C3781 C 0.96807 0.58109 0.70719 0.0
C3782 C 0.99322 0.58175 0.7687 0.0
C3783 C 0.98171 0.56218 0.77227 0.0
C3784 C 0.98601 0.59058 0.7577 0.0
C3785 C 0.96691 0.57947 0.74997 0.0
C3786 C 0.95544 0.55949 0.7529 0.0
C3787 C 0.96296 0.5511 0.76413 0.0
C3788 C 0.99864 0.61197 0.75498 0.0
C3789 C 0.93509 0.54713 0.74466 0.0
H3790 H 0.93863 0.61559 0.7502 0.0
H3791 H 0.95478 0.60272 0.695 0.0
H3792 H 0.94171 0.58134 0.77591 0.0
H3793 H 0.96364 0.60433 0.78029 0.0
H3794 H 0.94181 0.60364 0.77899 0.0
H3795 H 0.96642 0.58209 0.69129 0.0
H3796 H 0.98333 0.58838 0.71173 0.0
H3797 H 0.96129 0.56546 0.70959 0.0
H3798 H 0.00768 0.59035 0.77512 0.0
H3799 H 0.95414 0.53588 0.7667 0.0
H3800 H 0.99306 0.62032 0.76232 0.0
H3801 H 0.99877 0.61403 0.73918 0.0
H3802 H 0.01339 0.61828 0.76111 0.0
H3803 H 0.92684 0.55263 0.75175 0.0
H3804 H 0.92852 0.53149 0.74699 0.0
H3805 H 0.93402 0.54821 0.72872 0.0
C3806 C 0.36841 0.35998 0.74777 0.0
C3807 C 0.37383 0.35288 0.73168 0.0
C3808 C 0.38096 0.37849 0.75789 0.0
C3809 C 0.39938 0.39012 0.75183 0.0
C3810 C 0.40494 0.38305 0.73561 0.0
C3811 C 0.39208 0.36453 0.7257 0.0
C3812 C 0.37453 0.3856 0.77508 0.0
C3813 C 0.42453 0.39501 0.72881 0.0
C3814 C 0.4287 0.44497 0.76616 0.0
C3815 C 0.44112 0.44656 0.78136 0.0
C3816 C 0.41467 0.42662 0.75673 0.0
C3817 C 0.41307 0.40952 0.76268 0.0
C3818 C 0.42515 0.41101 0.77847 0.0
C3819 C 0.43901 0.42951 0.78763 0.0
C3820 C 0.40198 0.42558 0.73999 0.0
C3821 C 0.42379 0.39309 0.78532 0.0
H3822 H 0.3543 0.35109 0.75245 0.0
H3823 H 0.39638 0.35915 0.7133 0.0
H3824 H 0.3836 0.38838 0.78856 0.0
H3825 H 0.376 0.39965 0.77252 0.0
H3826 H 0.35962 0.37492 0.7777 0.0
H3827 H 0.42656 0.38749 0.71581 0.0
H3828 H 0.42731 0.4093 0.72503 0.0
H3829 H 0.43519 0.39807 0.74082 0.0
H3830 H 0.43038 0.45812 0.76117 0.0
H3831 H 0.44838 0.43068 0.79961 0.0
H3832 H 0.38696 0.41536 0.74252 0.0
H3833 H 0.40469 0.41979 0.72617 0.0
H3834 H 0.40421 0.4401 0.73802 0.0
H3835 H 0.40921 0.38256 0.78895 0.0
H3836 H 0.43365 0.39671 0.79839 0.0
H3837 H 0.42707 0.38563 0.77335 0.0
C3838 C 0.65263 0.04801 0.69437 0.0
C3839 C 0.65611 0.03291 0.69244 0.0
C3840 C 0.63731 0.04583 0.70426 0.0
C3841 C 0.62519 0.02809 0.71224 0.0
C3842 C 0.6283 0.01259 0.70977 0.0
C3843 C 0.64376 0.01522 0.69996 0.0
C3844 C 0.63443 0.06269 0.70671 0.0
C3845 C 0.61559 0.9934 0.71794 0.0
C3846 C 0.59853 0.02726 0.75609 0.0
C3847 C 0.58018 0.01911 0.7474 0.0
C3848 C 0.61342 0.03084 0.74471 0.0
C3849 C 0.60985 0.02599 0.72414 0.0
C3850 C 0.59146 0.01809 0.71521 0.0
C3851 C 0.57683 0.01477 0.72696 0.0
C3852 C 0.63286 0.03928 0.75477 0.0
C3853 C 0.58715 0.01272 0.69333 0.0
H3854 H 0.66213 0.06172 0.68859 0.0
H3855 H 0.64626 0.00341 0.69837 0.0
H3856 H 0.61978 0.05778 0.70148 0.0
H3857 H 0.63646 0.06809 0.72248 0.0
H3858 H 0.64439 0.07504 0.69861 0.0
H3859 H 0.61933 0.98244 0.71379 0.0
H3860 H 0.61658 0.99583 0.73417 0.0
H3861 H 0.60067 0.98722 0.71262 0.0
H3862 H 0.60118 0.03036 0.77189 0.0
H3863 H 0.56273 0.00872 0.72015 0.0
H3864 H 0.64338 0.05242 0.74802 0.0
H3865 H 0.63704 0.02842 0.75284 0.0
H3866 H 0.63351 0.04339 0.77072 0.0
H3867 H 0.59677 0.02545 0.68551 0.0
H3868 H 0.57234 0.00768 0.68857 0.0
H3869 H 0.58959 0.00088 0.68877 0.0
loop_
_geom_bond_atom_site_label_1
_geom_bond_atom_site_label_2
_geom_bond_distance
_geom_bond_site_symmetry_2
_ccdc_geom_bond_type
C0 O1 1.160 . S
C0 O7 1.185 . S
O1 C0 1.160 . S
O2 Zn3 1.899 1_655 S
O2 C10 1.284 . S
Zn3 O2 1.899 1_455 S
Zn3 O4 2.032 . S
Zn3 O7 2.086 . S
Zn3 O12 1.977 . S
O4 Zn3 2.032 . S
O4 C8 1.278 1_455 S
C5 O6 1.203 1_455 S
C5 O12 1.267 1_556 S
O6 C5 1.203 1_655 S
O7 C0 1.185 . S
O7 Zn3 2.086 . S
C8 O4 1.278 1_655 S
C8 O9 1.211 . S
O9 C8 1.211 . S
C10 O2 1.284 . S
C10 O11 1.273 . S
O11 C10 1.273 . S
O12 Zn3 1.977 . S
O12 C5 1.267 1_554 S
C13 O14 1.160 . S
C13 O20 1.185 . S
O14 C13 1.160 . S
O15 Zn16 1.899 . S
O15 C23 1.284 . S
Zn16 O15 1.899 . S
Zn16 O17 2.032 . S
Zn16 O20 2.086 . S
Zn16 O25 1.977 . S
O17 Zn16 2.032 . S
O17 C21 1.278 . S
C18 O19 1.203 . S
C18 O25 1.267 . S
O19 C18 1.203 . S
O20 C13 1.185 . S
O20 Zn16 2.086 . S
C21 O17 1.278 . S
C21 O22 1.211 . S
O22 C21 1.211 . S
C23 O15 1.284 . S
C23 O24 1.273 . S
O24 C23 1.273 . S
O25 Zn16 1.977 . S
O25 C18 1.267 . S
C26 O27 1.160 . S
C26 O33 1.185 . S
O27 C26 1.160 . S
O28 Zn29 1.899 1_565 S
O28 C36 1.284 . S
Zn29 O28 1.899 1_545 S
Zn29 O30 2.032 . S
Zn29 O33 2.086 . S
Zn29 O38 1.977 . S
O30 Zn29 2.032 . S
O30 C34 1.278 1_545 S
C31 O32 1.203 1_545 S
C31 O38 1.267 . S
O32 C31 1.203 1_565 S
O33 C26 1.185 . S
O33 Zn29 2.086 . S
C34 O30 1.278 1_565 S
C34 O35 1.211 . S
O35 C34 1.211 . S
C36 O28 1.284 . S
C36 O37 1.273 . S
O37 C36 1.273 . S
O38 Zn29 1.977 . S
O38 C31 1.267 . S
C39 O40 1.160 . S
C39 O46 1.185 . S
O40 C39 1.160 . S
O41 Zn42 1.899 1_455 S
O41 C49 1.284 . S
Zn42 O41 1.899 1_655 S
Zn42 O43 2.017 1_655 S
Zn42 O46 2.086 . S
Zn42 O51 1.977 . S
O43 Zn42 2.017 1_455 S
O43 C47 1.310 . S
C44 O45 1.203 1_655 S
C44 O51 1.267 . S
O45 C44 1.203 1_455 S
O46 C39 1.185 . S
O46 Zn42 2.086 . S
C47 O43 1.310 . S
C47 O48 1.211 . S
O48 C47 1.211 . S
C49 O41 1.284 . S
C49 O50 1.273 . S
O50 C49 1.273 . S
O51 Zn42 1.977 . S
O51 C44 1.267 . S
C52 O53 1.160 . S
C52 O59 1.185 . S
O53 C52 1.160 . S
O54 Zn55 1.899 1_556 S
O54 C62 1.284 . S
Zn55 O54 1.899 1_554 S
Zn55 O56 2.032 . S
Zn55 O59 2.086 . S
Zn55 O64 1.977 1_554 S
O56 Zn55 2.032 . S
O56 C60 1.278 . S
C57 O58 1.203 . S
C57 O64 1.267 . S
O58 C57 1.203 . S
O59 C52 1.185 . S
O59 Zn55 2.086 . S
C60 O56 1.278 . S
C60 O61 1.211 . S
O61 C60 1.211 . S
C62 O54 1.284 . S
C62 O63 1.256 1_556 S
O63 C62 1.256 1_554 S
O64 Zn55 1.977 1_556 S
O64 C57 1.267 . S
C65 O66 1.160 . S
C65 O72 1.185 . S
O66 C65 1.160 . S
O67 Zn68 1.899 1_545 S
O67 C75 1.284 . S
Zn68 O67 1.899 1_565 S
Zn68 O69 2.032 1_565 S
Zn68 O72 2.086 . S
Zn68 O77 1.977 . S
O69 Zn68 2.032 1_545 S
O69 C73 1.278 . S
C70 O71 1.203 1_565 S
C70 O77 1.267 . S
O71 C70 1.203 1_545 S
O72 C65 1.185 . S
O72 Zn68 2.086 . S
C73 O69 1.278 . S
C73 O74 1.211 . S
O74 C73 1.211 . S
C75 O67 1.284 . S
C75 O76 1.273 . S
O76 C75 1.273 . S
O77 Zn68 1.977 . S
O77 C70 1.267 . S
C78 O79 1.160 . S
C78 O85 1.185 . S
O79 C78 1.160 . S
O80 Zn81 1.899 . S
O80 C88 1.284 . S
Zn81 O80 1.899 . S
Zn81 O82 2.032 . S
Zn81 O85 2.086 . S
Zn81 O90 1.977 . S
O82 Zn81 2.032 . S
O82 C86 1.278 . S
C83 O84 1.203 . S
C83 O90 1.267 . S
O84 C83 1.203 . S
O85 C78 1.185 . S
O85 Zn81 2.086 . S
C86 O82 1.278 . S
C86 O87 1.211 . S
O87 C86 1.211 . S
C88 O80 1.284 . S
C88 O89 1.273 . S
O89 C88 1.273 . S
O90 Zn81 1.977 . S
O90 C83 1.267 . S
C91 O92 1.160 . S
C91 O98 1.185 . S
O92 C91 1.160 . S
O93 Zn94 1.899 . S
O93 C101 1.284 . S
Zn94 O93 1.899 . S
Zn94 O95 2.032 . S
Zn94 O98 2.086 . S
Zn94 O103 1.977 . S
O95 Zn94 2.032 . S
O95 C99 1.278 . S
C96 O97 1.203 . S
C96 O103 1.267 . S
O97 C96 1.203 . S
O98 C91 1.185 . S
O98 Zn94 2.086 . S
C99 O95 1.278 . S
C99 O100 1.211 . S
O100 C99 1.211 . S
C101 O93 1.284 . S
C101 O102 1.273 . S
O102 C101 1.273 . S
O103 Zn94 1.977 . S
O103 C96 1.267 . S
C104 O105 1.160 . S
C104 O111 1.185 . S
O105 C104 1.160 . S
O106 Zn107 1.899 . S
O106 C114 1.284 . S
Zn107 O106 1.899 . S
Zn107 O108 2.032 . S
Zn107 O111 2.086 . S
Zn107 O116 1.977 . S
O108 Zn107 2.032 . S
O108 C112 1.278 . S
C109 O110 1.203 . S
C109 O116 1.267 . S
O110 C109 1.203 . S
O111 C104 1.185 . S
O111 Zn107 2.086 . S
C112 O108 1.278 . S
C112 O113 1.211 . S
O113 C112 1.211 . S
C114 O106 1.284 . S
C114 O115 1.273 . S
O115 C114 1.273 . S
O116 Zn107 1.977 . S
O116 C109 1.267 . S
C117 O118 1.160 . S
C117 O124 1.185 . S
O118 C117 1.160 . S
O119 Zn120 1.899 . S
O119 C127 1.284 . S
Zn120 O119 1.899 . S
Zn120 O121 2.032 . S
Zn120 O124 2.086 . S
Zn120 O129 1.977 . S
O121 Zn120 2.032 . S
O121 C125 1.278 . S
C122 O123 1.203 . S
C122 O129 1.267 . S
O123 C122 1.203 . S
O124 C117 1.185 . S
O124 Zn120 2.086 . S
C125 O121 1.278 . S
C125 O126 1.211 . S
O126 C125 1.211 . S
C127 O119 1.284 . S
C127 O128 1.273 . S
O128 C127 1.273 . S
O129 Zn120 1.977 . S
O129 C122 1.267 . S
C130 O131 1.160 . S
C130 O137 1.185 1_655 S
O131 C130 1.160 . S
O132 Zn133 1.899 . S
O132 C140 1.284 . S
Zn133 O132 1.899 . S
Zn133 O134 2.032 . S
Zn133 O137 2.086 . S
Zn133 O142 1.977 . S
O134 Zn133 2.032 . S
O134 C138 1.278 . S
C135 O136 1.203 . S
C135 O142 1.267 . S
O136 C135 1.203 . S
O137 C130 1.185 1_455 S
O137 Zn133 2.086 . S
C138 O134 1.278 . S
C138 O139 1.211 . S
O139 C138 1.211 . S
C140 O132 1.284 . S
C140 O141 1.273 . S
O141 C140 1.273 . S
O142 Zn133 1.977 . S
O142 C135 1.267 . S
C143 O144 1.160 . S
C143 O150 1.185 . S
O144 C143 1.160 . S
O145 Zn146 1.899 . S
O145 C153 1.284 . S
Zn146 O145 1.899 . S
Zn146 O147 2.032 . S
Zn146 O150 2.086 . S
Zn146 O155 1.977 . S
O147 Zn146 2.032 . S
O147 C151 1.278 . S
C148 O149 1.203 . S
C148 O155 1.267 . S
O149 C148 1.203 . S
O150 C143 1.185 . S
O150 Zn146 2.086 . S
C151 O147 1.278 . S
C151 O152 1.211 . S
O152 C151 1.211 . S
C153 O145 1.284 . S
C153 O154 1.273 . S
O154 C153 1.273 . S
O155 Zn146 1.977 . S
O155 C148 1.267 . S
C156 O157 1.160 . S
C156 O163 1.185 . S
O157 C156 1.160 . S
O158 Zn159 1.899 . S
O158 C166 1.284 . S
Zn159 O158 1.899 . S
Zn159 O160 2.032 . S
Zn159 O163 2.086 . S
Zn159 O168 1.977 . S
O160 Zn159 2.032 . S
O160 C164 1.278 . S
C161 O162 1.203 . S
C161 O168 1.267 . S
O162 C161 1.203 . S
O163 C156 1.185 . S
O163 Zn159 2.086 . S
C164 O160 1.278 . S
C164 O165 1.211 . S
O165 C164 1.211 . S
C166 O158 1.284 . S
C166 O167 1.273 . S
O167 C166 1.273 . S
O168 Zn159 1.977 . S
O168 C161 1.267 . S
C169 O170 1.160 . S
C169 O176 1.185 1_455 S
O170 C169 1.160 . S
O171 Zn172 1.899 . S
O171 C179 1.284 . S
Zn172 O171 1.899 . S
Zn172 O173 2.032 . S
Zn172 O176 2.086 . S
Zn172 O181 1.977 . S
O173 Zn172 2.032 . S
O173 C177 1.278 . S
C174 O175 1.203 . S
C174 O181 1.267 . S
O175 C174 1.203 . S
O176 C169 1.185 1_655 S
O176 Zn172 2.086 . S
C177 O173 1.278 . S
C177 O178 1.211 . S
O178 C177 1.211 . S
C179 O171 1.284 . S
C179 O180 1.273 . S
O180 C179 1.273 . S
O181 Zn172 1.977 . S
O181 C174 1.267 . S
C182 O183 1.160 . S
C182 O189 1.185 . S
O183 C182 1.160 . S
O184 Zn185 1.899 . S
O184 C192 1.284 . S
Zn185 O184 1.899 . S
Zn185 O186 2.032 . S
Zn185 O189 2.086 . S
Zn185 O194 1.977 . S
O186 Zn185 2.032 . S
O186 C190 1.278 . S
C187 O188 1.203 . S
C187 O194 1.267 . S
O188 C187 1.203 . S
O189 C182 1.185 . S
O189 Zn185 2.086 . S
C190 O186 1.278 . S
C190 O191 1.211 . S
O191 C190 1.211 . S
C192 O184 1.284 . S
C192 O193 1.273 . S
O193 C192 1.273 . S
O194 Zn185 1.977 . S
O194 C187 1.267 . S
C195 O196 1.160 . S
C195 O202 1.185 . S
O196 C195 1.160 . S
O197 Zn198 1.899 . S
O197 C205 1.284 . S
Zn198 O197 1.899 . S
Zn198 O199 2.032 . S
Zn198 O202 2.086 . S
Zn198 O207 1.977 . S
O199 Zn198 2.032 . S
O199 C203 1.278 . S
C200 O201 1.203 . S
C200 O207 1.267 . S
O201 C200 1.203 . S
O202 C195 1.185 . S
O202 Zn198 2.086 . S
C203 O199 1.278 . S
C203 O204 1.211 . S
O204 C203 1.211 . S
C205 O197 1.284 . S
C205 O206 1.273 . S
O206 C205 1.273 . S
O207 Zn198 1.977 . S
O207 C200 1.267 . S
C208 O209 1.160 . S
C208 O215 1.185 . S
O209 C208 1.160 . S
O210 Zn211 1.899 . S
O210 C218 1.284 . S
Zn211 O210 1.899 . S
Zn211 O212 2.032 . S
Zn211 O215 2.086 . S
Zn211 O220 1.977 . S
O212 Zn211 2.032 . S
O212 C216 1.278 . S
C213 O214 1.203 . S
C213 O220 1.267 . S
O214 C213 1.203 . S
O215 C208 1.185 . S
O215 Zn211 2.086 . S
C216 O212 1.278 . S
C216 O217 1.211 . S
O217 C216 1.211 . S
C218 O210 1.284 . S
C218 O219 1.273 . S
O219 C218 1.273 . S
O220 Zn211 1.977 . S
O220 C213 1.267 . S
C221 O222 1.160 . S
C221 O228 1.185 . S
O222 C221 1.160 . S
O223 Zn224 1.899 . S
O223 C231 1.284 . S
Zn224 O223 1.899 . S
Zn224 O225 2.032 . S
Zn224 O228 2.086 . S
Zn224 O233 1.977 . S
O225 Zn224 2.032 . S
O225 C229 1.278 . S
C226 O227 1.203 . S
C226 O233 1.267 . S
O227 C226 1.203 . S
O228 C221 1.185 . S
O228 Zn224 2.086 . S
C229 O225 1.278 . S
C229 O230 1.211 . S
O230 C229 1.211 . S
C231 O223 1.284 . S
C231 O232 1.273 . S
O232 C231 1.273 . S
O233 Zn224 1.977 . S
O233 C226 1.267 . S
H234 O260 0.856 . S
H235 O263 0.854 . S
H236 C271 0.930 . S
H237 C272 0.930 . S
H238 C274 0.930 . S
H239 C275 0.930 . S
H240 C277 0.931 . S
H241 C278 0.930 . S
H242 C280 0.930 . S
H243 C281 0.929 . S
H244 C283 0.930 . S
H245 C284 0.931 . S
H246 C286 0.930 . S
H247 C287 0.929 . S
H248 C289 0.931 . S
H249 C290 0.930 . S
H250 C292 0.930 . S
H251 C293 0.932 . S
H252 C295 0.930 . S
H253 C296 0.929 . S
H254 C298 0.931 . S
H255 C299 0.930 . S
H256 C301 0.929 . S
H257 C302 0.931 . S
H258 C304 0.930 . S
H259 C305 0.929 . S
O260 H234 0.856 . S
O260 C306 1.300 . S
O261 C306 1.209 . S
O262 C307 1.199 . S
O263 H235 0.854 . S
O263 C307 1.297 . S
C264 C265 1.404 . S
C264 C269 1.397 . S
C264 C270 1.492 . S
C265 C264 1.404 . S
C265 C266 1.396 . S
C265 C276 1.492 . S
C266 C265 1.396 . S
C266 C267 1.397 . S
C266 C282 1.509 . S
C267 C266 1.397 . S
C267 C268 1.412 . S
C267 C288 1.485 . S
C268 C267 1.412 . S
C268 C269 1.388 . S
C268 C294 1.490 . S
C269 C264 1.397 . S
C269 C268 1.388 . S
C269 C300 1.519 . S
C270 C264 1.492 . S
C270 C271 1.363 . S
C270 C275 1.390 . S
C271 H236 0.930 . S
C271 C270 1.363 . S
C271 C272 1.372 . S
C272 H237 0.930 . S
C272 C271 1.372 . S
C272 C273 1.383 . S
C273 C272 1.383 . S
C273 C274 1.395 . S
C274 H238 0.930 . S
C274 C273 1.395 . S
C274 C275 1.362 . S
C275 H239 0.930 . S
C275 C270 1.390 . S
C275 C274 1.362 . S
C276 C265 1.492 . S
C276 C277 1.377 . S
C276 C281 1.397 . S
C277 H240 0.931 . S
C277 C276 1.377 . S
C277 C278 1.376 . S
C278 H241 0.930 . S
C278 C277 1.376 . S
C278 C279 1.376 . S
C279 C278 1.376 . S
C279 C280 1.378 . S
C279 C306 1.486 . S
C280 H242 0.930 . S
C280 C279 1.378 . S
C280 C281 1.376 . S
C281 H243 0.929 . S
C281 C276 1.397 . S
C281 C280 1.376 . S
C282 C266 1.509 . S
C282 C283 1.391 . S
C282 C287 1.386 . S
C283 H244 0.930 . S
C283 C282 1.391 . S
C283 C284 1.375 . S
C284 H245 0.931 . S
C284 C283 1.375 . S
C284 C285 1.375 . S
C285 C284 1.375 . S
C285 C286 1.361 . S
C286 H246 0.930 . S
C286 C285 1.361 . S
C286 C287 1.399 . S
C287 H247 0.929 . S
C287 C282 1.386 . S
C287 C286 1.399 . S
C288 C267 1.485 . S
C288 C289 1.394 . S
C288 C293 1.360 . S
C289 H248 0.931 . S
C289 C288 1.394 . S
C289 C290 1.372 . S
C290 H249 0.930 . S
C290 C289 1.372 . S
C290 C291 1.397 . S
C291 C290 1.397 . S
C291 C292 1.390 . S
C291 C307 1.476 . S
C292 H250 0.930 . S
C292 C291 1.390 . S
C292 C293 1.366 . S
C293 H251 0.932 . S
C293 C288 1.360 . S
C293 C292 1.366 . S
C294 C268 1.490 . S
C294 C295 1.380 . S
C294 C299 1.386 . S
C295 H252 0.930 . S
C295 C294 1.380 . S
C295 C296 1.381 . S
C296 H253 0.929 . S
C296 C295 1.381 . S
C296 C297 1.371 . S
C297 C296 1.371 . S
C297 C298 1.380 . S
C298 H254 0.931 . S
C298 C297 1.380 . S
C298 C299 1.387 . S
C299 H255 0.930 . S
C299 C294 1.386 . S
C299 C298 1.387 . S
C300 C269 1.519 . S
C300 C301 1.377 . S
C300 C305 1.361 . S
C301 H256 0.929 . S
C301 C300 1.377 . S
C301 C302 1.386 . S
C302 H257 0.931 . S
C302 C301 1.386 . S
C302 C303 1.363 . S
C303 C302 1.363 . S
C303 C304 1.385 . S
C304 H258 0.930 . S
C304 C303 1.385 . S
C304 C305 1.396 . S
C305 H259 0.929 . S
C305 C300 1.361 . S
C305 C304 1.396 . S
C306 O260 1.300 . S
C306 O261 1.209 . S
C306 C279 1.486 . S
C307 O262 1.199 . S
C307 O263 1.297 . S
C307 C291 1.476 . S
H308 O334 0.856 . S
H309 O337 0.854 . S
H310 C345 0.930 . S
H311 C346 0.930 . S
H312 C348 0.930 . S
H313 C349 0.930 . S
H314 C351 0.931 . S
H315 C352 0.930 . S
H316 C354 0.930 . S
H317 C355 0.929 . S
H318 C357 0.930 . S
H319 C358 0.931 . S
H320 C360 0.930 . S
H321 C361 0.929 . S
H322 C363 0.931 . S
H323 C364 0.930 . S
H324 C366 0.930 . S
H325 C367 0.932 . S
H326 C369 0.930 . S
H327 C370 0.929 . S
H328 C372 0.931 . S
H329 C373 0.930 . S
H330 C375 0.929 . S
H331 C376 0.931 . S
H332 C378 0.930 . S
H333 C379 0.929 . S
O334 H308 0.856 . S
O334 C380 1.300 . S
O335 C380 1.209 . S
O336 C381 1.199 . S
O337 H309 0.854 . S
O337 C381 1.297 . S
C338 C339 1.404 . S
C338 C343 1.397 . S
C338 C344 1.492 . S
C339 C338 1.404 . S
C339 C340 1.396 . S
C339 C350 1.492 . S
C340 C339 1.396 . S
C340 C341 1.397 . S
C340 C356 1.509 . S
C341 C340 1.397 . S
C341 C342 1.412 . S
C341 C362 1.485 . S
C342 C341 1.412 . S
C342 C343 1.388 . S
C342 C368 1.490 . S
C343 C338 1.397 . S
C343 C342 1.388 . S
C343 C374 1.519 . S
C344 C338 1.492 . S
C344 C345 1.363 . S
C344 C349 1.390 . S
C345 H310 0.930 . S
C345 C344 1.363 . S
C345 C346 1.372 . S
C346 H311 0.930 . S
C346 C345 1.372 . S
C346 C347 1.383 . S
C347 C346 1.383 . S
C347 C348 1.395 . S
C348 H312 0.930 . S
C348 C347 1.395 . S
C348 C349 1.362 . S
C349 H313 0.930 . S
C349 C344 1.390 . S
C349 C348 1.362 . S
C350 C339 1.492 . S
C350 C351 1.377 . S
C350 C355 1.397 . S
C351 H314 0.931 . S
C351 C350 1.377 . S
C351 C352 1.376 . S
C352 H315 0.930 . S
C352 C351 1.376 . S
C352 C353 1.376 . S
C353 C352 1.376 . S
C353 C354 1.378 . S
C353 C380 1.486 . S
C354 H316 0.930 . S
C354 C353 1.378 . S
C354 C355 1.376 . S
C355 H317 0.929 . S
C355 C350 1.397 . S
C355 C354 1.376 . S
C356 C340 1.509 . S
C356 C357 1.391 . S
C356 C361 1.386 . S
C357 H318 0.930 . S
C357 C356 1.391 . S
C357 C358 1.375 . S
C358 H319 0.931 . S
C358 C357 1.375 . S
C358 C359 1.375 . S
C359 C358 1.375 . S
C359 C360 1.361 . S
C360 H320 0.930 . S
C360 C359 1.361 . S
C360 C361 1.399 . S
C361 H321 0.929 . S
C361 C356 1.386 . S
C361 C360 1.399 . S
C362 C341 1.485 . S
C362 C363 1.394 . S
C362 C367 1.360 . S
C363 H322 0.931 . S
C363 C362 1.394 . S
C363 C364 1.372 . S
C364 H323 0.930 . S
C364 C363 1.372 . S
C364 C365 1.397 . S
C365 C364 1.397 . S
C365 C366 1.390 . S
C365 C381 1.476 . S
C366 H324 0.930 . S
C366 C365 1.390 . S
C366 C367 1.366 . S
C367 H325 0.932 . S
C367 C362 1.360 . S
C367 C366 1.366 . S
C368 C342 1.490 . S
C368 C369 1.380 . S
C368 C373 1.386 . S
C369 H326 0.930 . S
C369 C368 1.380 . S
C369 C370 1.381 . S
C370 H327 0.929 . S
C370 C369 1.381 . S
C370 C371 1.371 . S
C371 C370 1.371 . S
C371 C372 1.380 . S
C372 H328 0.931 . S
C372 C371 1.380 . S
C372 C373 1.387 . S
C373 H329 0.930 . S
C373 C368 1.386 . S
C373 C372 1.387 . S
C374 C343 1.519 . S
C374 C375 1.377 . S
C374 C379 1.361 . S
C375 H330 0.929 . S
C375 C374 1.377 . S
C375 C376 1.386 . S
C376 H331 0.931 . S
C376 C375 1.386 . S
C376 C377 1.363 . S
C377 C376 1.363 . S
C377 C378 1.385 . S
C378 H332 0.930 . S
C378 C377 1.385 . S
C378 C379 1.396 . S
C379 H333 0.929 . S
C379 C374 1.361 . S
C379 C378 1.396 . S
C380 O334 1.300 . S
C380 O335 1.209 . S
C380 C353 1.486 . S
C381 O336 1.199 . S
C381 O337 1.297 . S
C381 C365 1.476 . S
H382 O408 0.856 . S
H383 O411 0.854 . S
H384 C419 0.930 . S
H385 C420 0.930 . S
H386 C422 0.930 . S
H387 C423 0.930 . S
H388 C425 0.931 . S
H389 C426 0.930 . S
H390 C428 0.930 . S
H391 C429 0.929 . S
H392 C431 0.930 . S
H393 C432 0.931 . S
H394 C434 0.930 . S
H395 C435 0.929 . S
H396 C437 0.931 . S
H397 C438 0.930 . S
H398 C440 0.930 . S
H399 C441 0.932 . S
H400 C443 0.930 . S
H401 C444 0.929 . S
H402 C446 0.931 . S
H403 C447 0.930 . S
H404 C449 0.929 . S
H405 C450 0.931 . S
H406 C452 0.930 . S
H407 C453 0.929 . S
O408 H382 0.856 . S
O408 C454 1.300 . S
O409 C454 1.209 . S
O410 C455 1.199 . S
O411 H383 0.854 . S
O411 C455 1.297 . S
C412 C413 1.404 . S
C412 C417 1.397 . S
C412 C418 1.492 . S
C413 C412 1.404 . S
C413 C414 1.396 . S
C413 C424 1.492 . S
C414 C413 1.396 . S
C414 C415 1.397 . S
C414 C430 1.509 . S
C415 C414 1.397 . S
C415 C416 1.412 . S
C415 C436 1.485 . S
C416 C415 1.412 . S
C416 C417 1.388 . S
C416 C442 1.490 . S
C417 C412 1.397 . S
C417 C416 1.388 . S
C417 C448 1.519 . S
C418 C412 1.492 . S
C418 C419 1.363 . S
C418 C423 1.390 . S
C419 H384 0.930 . S
C419 C418 1.363 . S
C419 C420 1.372 . S
C420 H385 0.930 . S
C420 C419 1.372 . S
C420 C421 1.383 . S
C421 C420 1.383 . S
C421 C422 1.395 . S
C422 H386 0.930 . S
C422 C421 1.395 . S
C422 C423 1.362 . S
C423 H387 0.930 . S
C423 C418 1.390 . S
C423 C422 1.362 . S
C424 C413 1.492 . S
C424 C425 1.377 . S
C424 C429 1.397 . S
C425 H388 0.931 . S
C425 C424 1.377 . S
C425 C426 1.376 . S
C426 H389 0.930 . S
C426 C425 1.376 . S
C426 C427 1.376 . S
C427 C426 1.376 . S
C427 C428 1.378 . S
C427 C454 1.486 . S
C428 H390 0.930 . S
C428 C427 1.378 . S
C428 C429 1.376 . S
C429 H391 0.929 . S
C429 C424 1.397 . S
C429 C428 1.376 . S
C430 C414 1.509 . S
C430 C431 1.391 . S
C430 C435 1.386 . S
C431 H392 0.930 . S
C431 C430 1.391 . S
C431 C432 1.375 . S
C432 H393 0.931 . S
C432 C431 1.375 . S
C432 C433 1.375 . S
C433 C432 1.375 . S
C433 C434 1.361 . S
C434 H394 0.930 . S
C434 C433 1.361 . S
C434 C435 1.399 . S
C435 H395 0.929 . S
C435 C430 1.386 . S
C435 C434 1.399 . S
C436 C415 1.485 . S
C436 C437 1.394 . S
C436 C441 1.360 . S
C437 H396 0.931 . S
C437 C436 1.394 . S
C437 C438 1.372 . S
C438 H397 0.930 . S
C438 C437 1.372 . S
C438 C439 1.397 . S
C439 C438 1.397 . S
C439 C440 1.390 . S
C439 C455 1.476 . S
C440 H398 0.930 . S
C440 C439 1.390 . S
C440 C441 1.366 . S
C441 H399 0.932 . S
C441 C436 1.360 . S
C441 C440 1.366 . S
C442 C416 1.490 . S
C442 C443 1.380 . S
C442 C447 1.386 . S
C443 H400 0.930 . S
C443 C442 1.380 . S
C443 C444 1.381 . S
C444 H401 0.929 . S
C444 C443 1.381 . S
C444 C445 1.371 . S
C445 C444 1.371 . S
C445 C446 1.380 . S
C446 H402 0.931 . S
C446 C445 1.380 . S
C446 C447 1.387 . S
C447 H403 0.930 . S
C447 C442 1.386 . S
C447 C446 1.387 . S
C448 C417 1.519 . S
C448 C449 1.377 . S
C448 C453 1.361 . S
C449 H404 0.929 . S
C449 C448 1.377 . S
C449 C450 1.386 . S
C450 H405 0.931 . S
C450 C449 1.386 . S
C450 C451 1.363 . S
C451 C450 1.363 . S
C451 C452 1.385 . S
C452 H406 0.930 . S
C452 C451 1.385 . S
C452 C453 1.396 . S
C453 H407 0.929 . S
C453 C448 1.361 . S
C453 C452 1.396 . S
C454 O408 1.300 . S
C454 O409 1.209 . S
C454 C427 1.486 . S
C455 O410 1.199 . S
C455 O411 1.297 . S
C455 C439 1.476 . S
H456 O482 0.856 . S
H457 O485 0.854 . S
H458 C493 0.930 . S
H459 C494 0.930 . S
H460 C496 0.930 . S
H461 C497 0.930 . S
H462 C499 0.931 . S
H463 C500 0.930 . S
H464 C502 0.930 . S
H465 C503 0.929 . S
H466 C505 0.930 . S
H467 C506 0.931 . S
H468 C508 0.930 . S
H469 C509 0.929 . S
H470 C511 0.931 . S
H471 C512 0.930 . S
H472 C514 0.930 . S
H473 C515 0.932 . S
H474 C517 0.930 . S
H475 C518 0.929 . S
H476 C520 0.931 . S
H477 C521 0.930 . S
H478 C523 0.929 . S
H479 C524 0.931 . S
H480 C526 0.930 . S
H481 C527 0.929 . S
O482 H456 0.856 . S
O482 C528 1.332 . S
O483 C528 1.220 . S
O484 C529 1.199 . S
O485 H457 0.854 . S
O485 C529 1.297 . S
C486 C487 1.404 . S
C486 C491 1.397 . S
C486 C492 1.492 . S
C487 C486 1.404 . S
C487 C488 1.396 . S
C487 C498 1.492 . S
C488 C487 1.396 . S
C488 C489 1.397 . S
C488 C504 1.509 . S
C489 C488 1.397 . S
C489 C490 1.412 . S
C489 C510 1.485 . S
C490 C489 1.412 . S
C490 C491 1.388 . S
C490 C516 1.490 . S
C491 C486 1.397 . S
C491 C490 1.388 . S
C491 C522 1.519 . S
C492 C486 1.492 . S
C492 C493 1.363 . S
C492 C497 1.390 . S
C493 H458 0.930 . S
C493 C492 1.363 . S
C493 C494 1.372 . S
C494 H459 0.930 . S
C494 C493 1.372 . S
C494 C495 1.383 . S
C495 C494 1.383 . S
C495 C496 1.395 . S
C496 H460 0.930 . S
C496 C495 1.395 . S
C496 C497 1.362 . S
C497 H461 0.930 . S
C497 C492 1.390 . S
C497 C496 1.362 . S
C498 C487 1.492 . S
C498 C499 1.377 . S
C498 C503 1.397 . S
C499 H462 0.931 . S
C499 C498 1.377 . S
C499 C500 1.376 . S
C500 H463 0.930 . S
C500 C499 1.376 . S
C500 C501 1.376 . S
C501 C500 1.376 . S
C501 C502 1.378 . S
C501 C528 1.443 1_556 S
C502 H464 0.930 . S
C502 C501 1.378 . S
C502 C503 1.376 . S
C503 H465 0.929 . S
C503 C498 1.397 . S
C503 C502 1.376 . S
C504 C488 1.509 . S
C504 C505 1.391 . S
C504 C509 1.386 . S
C505 H466 0.930 . S
C505 C504 1.391 . S
C505 C506 1.375 . S
C506 H467 0.931 . S
C506 C505 1.375 . S
C506 C507 1.375 . S
C507 C506 1.375 . S
C507 C508 1.361 . S
C508 H468 0.930 . S
C508 C507 1.361 . S
C508 C509 1.399 . S
C509 H469 0.929 . S
C509 C504 1.386 . S
C509 C508 1.399 . S
C510 C489 1.485 . S
C510 C511 1.394 . S
C510 C515 1.360 . S
C511 H470 0.931 . S
C511 C510 1.394 . S
C511 C512 1.372 . S
C512 H471 0.930 . S
C512 C511 1.372 . S
C512 C513 1.397 . S
C513 C512 1.397 . S
C513 C514 1.390 . S
C513 C529 1.476 . S
C514 H472 0.930 . S
C514 C513 1.390 . S
C514 C515 1.366 . S
C515 H473 0.932 . S
C515 C510 1.360 . S
C515 C514 1.366 . S
C516 C490 1.490 . S
C516 C517 1.380 . S
C516 C521 1.386 . S
C517 H474 0.930 . S
C517 C516 1.380 . S
C517 C518 1.381 . S
C518 H475 0.929 . S
C518 C517 1.381 . S
C518 C519 1.371 . S
C519 C518 1.371 . S
C519 C520 1.380 . S
C520 H476 0.931 . S
C520 C519 1.380 . S
C520 C521 1.387 . S
C521 H477 0.930 . S
C521 C516 1.386 . S
C521 C520 1.387 . S
C522 C491 1.519 . S
C522 C523 1.377 . S
C522 C527 1.361 . S
C523 H478 0.929 . S
C523 C522 1.377 . S
C523 C524 1.386 . S
C524 H479 0.931 . S
C524 C523 1.386 . S
C524 C525 1.363 . S
C525 C524 1.363 . S
C525 C526 1.385 . S
C526 H480 0.930 . S
C526 C525 1.385 . S
C526 C527 1.396 . S
C527 H481 0.929 . S
C527 C522 1.361 . S
C527 C526 1.396 . S
C528 O482 1.332 . S
C528 O483 1.220 . S
C528 C501 1.443 1_554 S
C529 O484 1.199 . S
C529 O485 1.297 . S
C529 C513 1.476 . S
H530 O556 0.856 . S
H531 O559 0.854 . S
H532 C567 0.930 . S
H533 C568 0.930 . S
H534 C570 0.930 . S
H535 C571 0.930 . S
H536 C573 0.931 . S
H537 C574 0.930 . S
H538 C576 0.930 . S
H539 C577 0.929 . S
H540 C579 0.930 . S
H541 C580 0.931 . S
H542 C582 0.930 . S
H543 C583 0.929 . S
H544 C585 0.931 . S
H545 C586 0.930 . S
H546 C588 0.930 . S
H547 C589 0.932 . S
H548 C591 0.930 . S
H549 C592 0.929 . S
H550 C594 0.931 . S
H551 C595 0.930 . S
H552 C597 0.929 . S
H553 C598 0.931 . S
H554 C600 0.930 . S
H555 C601 0.929 . S
O556 H530 0.856 . S
O556 C602 1.300 . S
O557 C602 1.209 . S
O558 C603 1.199 . S
O559 H531 0.854 . S
O559 C603 1.297 . S
C560 C561 1.404 . S
C560 C565 1.397 . S
C560 C566 1.492 . S
C561 C560 1.404 . S
C561 C562 1.396 . S
C561 C572 1.492 . S
C562 C561 1.396 . S
C562 C563 1.397 . S
C562 C578 1.509 . S
C563 C562 1.397 . S
C563 C564 1.412 . S
C563 C584 1.485 . S
C564 C563 1.412 . S
C564 C565 1.388 . S
C564 C590 1.490 . S
C565 C560 1.397 . S
C565 C564 1.388 . S
C565 C596 1.519 . S
C566 C560 1.492 . S
C566 C567 1.363 . S
C566 C571 1.390 . S
C567 H532 0.930 . S
C567 C566 1.363 . S
C567 C568 1.372 . S
C568 H533 0.930 . S
C568 C567 1.372 . S
C568 C569 1.383 . S
C569 C568 1.383 . S
C569 C570 1.395 . S
C570 H534 0.930 . S
C570 C569 1.395 . S
C570 C571 1.362 . S
C571 H535 0.930 . S
C571 C566 1.390 . S
C571 C570 1.362 . S
C572 C561 1.492 . S
C572 C573 1.377 . S
C572 C577 1.397 . S
C573 H536 0.931 . S
C573 C572 1.377 . S
C573 C574 1.376 . S
C574 H537 0.930 . S
C574 C573 1.376 . S
C574 C575 1.376 . S
C575 C574 1.376 . S
C575 C576 1.378 . S
C575 C602 1.486 1_556 S
C576 H538 0.930 . S
C576 C575 1.378 . S
C576 C577 1.376 . S
C577 H539 0.929 . S
C577 C572 1.397 . S
C577 C576 1.376 . S
C578 C562 1.509 . S
C578 C579 1.391 . S
C578 C583 1.386 . S
C579 H540 0.930 . S
C579 C578 1.391 . S
C579 C580 1.375 . S
C580 H541 0.931 . S
C580 C579 1.375 . S
C580 C581 1.375 . S
C581 C580 1.375 . S
C581 C582 1.361 . S
C582 H542 0.930 . S
C582 C581 1.361 . S
C582 C583 1.399 . S
C583 H543 0.929 . S
C583 C578 1.386 . S
C583 C582 1.399 . S
C584 C563 1.485 . S
C584 C585 1.394 . S
C584 C589 1.360 . S
C585 H544 0.931 . S
C585 C584 1.394 . S
C585 C586 1.372 . S
C586 H545 0.930 . S
C586 C585 1.372 . S
C586 C587 1.397 . S
C587 C586 1.397 . S
C587 C588 1.390 . S
C587 C603 1.476 . S
C588 H546 0.930 . S
C588 C587 1.390 . S
C588 C589 1.366 . S
C589 H547 0.932 . S
C589 C584 1.360 . S
C589 C588 1.366 . S
C590 C564 1.490 . S
C590 C591 1.380 . S
C590 C595 1.386 . S
C591 H548 0.930 . S
C591 C590 1.380 . S
C591 C592 1.381 . S
C592 H549 0.929 . S
C592 C591 1.381 . S
C592 C593 1.371 . S
C593 C592 1.371 . S
C593 C594 1.380 . S
C594 H550 0.931 . S
C594 C593 1.380 . S
C594 C595 1.387 . S
C595 H551 0.930 . S
C595 C590 1.386 . S
C595 C594 1.387 . S
C596 C565 1.519 . S
C596 C597 1.377 . S
C596 C601 1.361 . S
C597 H552 0.929 . S
C597 C596 1.377 . S
C597 C598 1.386 . S
C598 H553 0.931 . S
C598 C597 1.386 . S
C598 C599 1.363 . S
C599 C598 1.363 . S
C599 C600 1.385 . S
C600 H554 0.930 . S
C600 C599 1.385 . S
C600 C601 1.396 . S
C601 H555 0.929 . S
C601 C596 1.361 . S
C601 C600 1.396 . S
C602 O556 1.300 . S
C602 O557 1.209 . S
C602 C575 1.486 1_554 S
C603 O558 1.199 . S
C603 O559 1.297 . S
C603 C587 1.476 . S
H604 O630 0.856 . S
H605 O633 0.854 . S
H606 C641 0.930 . S
H607 C642 0.930 . S
H608 C644 0.930 . S
H609 C645 0.930 . S
H610 C647 0.931 . S
H611 C648 0.930 1_554 S
H612 C650 0.930 . S
H613 C651 0.929 . S
H614 C653 0.930 . S
H615 C654 0.931 . S
H616 C656 0.930 . S
H617 C657 0.929 . S
H618 C659 0.931 . S
H619 C660 0.930 . S
H620 C662 0.930 . S
H621 C663 0.932 . S
H622 C665 0.930 . S
H623 C666 0.929 . S
H624 C668 0.931 . S
H625 C669 0.930 . S
H626 C671 0.929 . S
H627 C672 0.931 . S
H628 C674 0.930 . S
H629 C675 0.929 . S
O630 H604 0.856 . S
O630 C676 1.300 . S
O631 C676 1.209 . S
O632 C677 1.199 . S
O633 H605 0.854 . S
O633 C677 1.297 . S
C634 C635 1.404 . S
C634 C639 1.397 . S
C634 C640 1.492 . S
C635 C634 1.404 . S
C635 C636 1.396 . S
C635 C646 1.492 . S
C636 C635 1.396 . S
C636 C637 1.397 . S
C636 C652 1.509 . S
C637 C636 1.397 . S
C637 C638 1.412 . S
C637 C658 1.485 . S
C638 C637 1.412 . S
C638 C639 1.388 . S
C638 C664 1.490 . S
C639 C634 1.397 . S
C639 C638 1.388 . S
C639 C670 1.519 . S
C640 C634 1.492 . S
C640 C641 1.363 . S
C640 C645 1.390 . S
C641 H606 0.930 . S
C641 C640 1.363 . S
C641 C642 1.372 . S
C642 H607 0.930 . S
C642 C641 1.372 . S
C642 C643 1.383 . S
C643 C642 1.383 . S
C643 C644 1.395 . S
C644 H608 0.930 . S
C644 C643 1.395 . S
C644 C645 1.362 . S
C645 H609 0.930 . S
C645 C640 1.390 . S
C645 C644 1.362 . S
C646 C635 1.492 . S
C646 C647 1.377 . S
C646 C651 1.397 . S
C647 H610 0.931 . S
C647 C646 1.377 . S
C647 C648 1.376 . S
C648 H611 0.930 1_556 S
C648 C647 1.376 . S
C648 C649 1.376 . S
C649 C648 1.376 . S
C649 C650 1.378 . S
C649 C676 1.486 1_556 S
C650 H612 0.930 . S
C650 C649 1.378 . S
C650 C651 1.376 . S
C651 H613 0.929 . S
C651 C646 1.397 . S
C651 C650 1.376 . S
C652 C636 1.509 . S
C652 C653 1.391 . S
C652 C657 1.386 . S
C653 H614 0.930 . S
C653 C652 1.391 . S
C653 C654 1.375 . S
C654 H615 0.931 . S
C654 C653 1.375 . S
C654 C655 1.375 . S
C655 C654 1.375 . S
C655 C656 1.361 . S
C656 H616 0.930 . S
C656 C655 1.361 . S
C656 C657 1.399 . S
C657 H617 0.929 . S
C657 C652 1.386 . S
C657 C656 1.399 . S
C658 C637 1.485 . S
C658 C659 1.394 . S
C658 C663 1.360 . S
C659 H618 0.931 . S
C659 C658 1.394 . S
C659 C660 1.372 . S
C660 H619 0.930 . S
C660 C659 1.372 . S
C660 C661 1.397 . S
C661 C660 1.397 . S
C661 C662 1.390 . S
C661 C677 1.476 . S
C662 H620 0.930 . S
C662 C661 1.390 . S
C662 C663 1.366 . S
C663 H621 0.932 . S
C663 C658 1.360 . S
C663 C662 1.366 . S
C664 C638 1.490 . S
C664 C665 1.380 . S
C664 C669 1.386 . S
C665 H622 0.930 . S
C665 C664 1.380 . S
C665 C666 1.381 . S
C666 H623 0.929 . S
C666 C665 1.381 . S
C666 C667 1.371 . S
C667 C666 1.371 . S
C667 C668 1.380 . S
C668 H624 0.931 . S
C668 C667 1.380 . S
C668 C669 1.387 . S
C669 H625 0.930 . S
C669 C664 1.386 . S
C669 C668 1.387 . S
C670 C639 1.519 . S
C670 C671 1.377 . S
C670 C675 1.361 . S
C671 H626 0.929 . S
C671 C670 1.377 . S
C671 C672 1.386 . S
C672 H627 0.931 . S
C672 C671 1.386 . S
C672 C673 1.363 . S
C673 C672 1.363 . S
C673 C674 1.385 . S
C674 H628 0.930 . S
C674 C673 1.385 . S
C674 C675 1.396 . S
C675 H629 0.929 . S
C675 C670 1.361 . S
C675 C674 1.396 . S
C676 O630 1.300 . S
C676 O631 1.209 . S
C676 C649 1.486 1_554 S
C677 O632 1.199 . S
C677 O633 1.297 . S
C677 C661 1.476 . S
H678 O704 0.856 . S
H679 O707 0.854 . S
H680 C715 0.930 . S
H681 C716 0.930 . S
H682 C718 0.930 . S
H683 C719 0.930 . S
H684 C721 0.931 . S
H685 C722 0.930 . S
H686 C724 0.930 . S
H687 C725 0.929 . S
H688 C727 0.930 . S
H689 C728 0.931 . S
H690 C730 0.930 . S
H691 C731 0.929 . S
H692 C733 0.931 . S
H693 C734 0.930 . S
H694 C736 0.930 . S
H695 C737 0.932 . S
H696 C739 0.930 . S
H697 C740 0.929 . S
H698 C742 0.931 . S
H699 C743 0.930 . S
H700 C745 0.929 . S
H701 C746 0.931 . S
H702 C748 0.930 . S
H703 C749 0.929 . S
O704 H678 0.856 . S
O704 C750 1.300 . S
O705 C750 1.209 . S
O706 C751 1.199 . S
O707 H679 0.854 . S
O707 C751 1.297 . S
C708 C709 1.404 . S
C708 C713 1.397 . S
C708 C714 1.492 . S
C709 C708 1.404 . S
C709 C710 1.396 . S
C709 C720 1.492 . S
C710 C709 1.396 . S
C710 C711 1.397 . S
C710 C726 1.509 . S
C711 C710 1.397 . S
C711 C712 1.412 . S
C711 C732 1.485 . S
C712 C711 1.412 . S
C712 C713 1.388 . S
C712 C738 1.490 . S
C713 C708 1.397 . S
C713 C712 1.388 . S
C713 C744 1.519 . S
C714 C708 1.492 . S
C714 C715 1.363 . S
C714 C719 1.390 . S
C715 H680 0.930 . S
C715 C714 1.363 . S
C715 C716 1.372 . S
C716 H681 0.930 . S
C716 C715 1.372 . S
C716 C717 1.383 . S
C717 C716 1.383 . S
C717 C718 1.395 . S
C718 H682 0.930 . S
C718 C717 1.395 . S
C718 C719 1.362 . S
C719 H683 0.930 . S
C719 C714 1.390 . S
C719 C718 1.362 . S
C720 C709 1.492 . S
C720 C721 1.377 . S
C720 C725 1.397 . S
C721 H684 0.931 . S
C721 C720 1.377 . S
C721 C722 1.376 . S
C722 H685 0.930 . S
C722 C721 1.376 . S
C722 C723 1.376 . S
C723 C722 1.376 . S
C723 C724 1.378 . S
C723 C750 1.486 . S
C724 H686 0.930 . S
C724 C723 1.378 . S
C724 C725 1.376 . S
C725 H687 0.929 . S
C725 C720 1.397 . S
C725 C724 1.376 . S
C726 C710 1.509 . S
C726 C727 1.391 . S
C726 C731 1.386 . S
C727 H688 0.930 . S
C727 C726 1.391 . S
C727 C728 1.375 . S
C728 H689 0.931 . S
C728 C727 1.375 . S
C728 C729 1.375 . S
C729 C728 1.375 . S
C729 C730 1.361 . S
C730 H690 0.930 . S
C730 C729 1.361 . S
C730 C731 1.399 . S
C731 H691 0.929 . S
C731 C726 1.386 . S
C731 C730 1.399 . S
C732 C711 1.485 . S
C732 C733 1.394 . S
C732 C737 1.360 . S
C733 H692 0.931 . S
C733 C732 1.394 . S
C733 C734 1.372 . S
C734 H693 0.930 . S
C734 C733 1.372 . S
C734 C735 1.397 . S
C735 C734 1.397 . S
C735 C736 1.390 . S
C735 C751 1.476 . S
C736 H694 0.930 . S
C736 C735 1.390 . S
C736 C737 1.366 . S
C737 H695 0.932 . S
C737 C732 1.360 . S
C737 C736 1.366 . S
C738 C712 1.490 . S
C738 C739 1.380 . S
C738 C743 1.386 . S
C739 H696 0.930 . S
C739 C738 1.380 . S
C739 C740 1.381 . S
C740 H697 0.929 . S
C740 C739 1.381 . S
C740 C741 1.371 . S
C741 C740 1.371 . S
C741 C742 1.380 . S
C742 H698 0.931 . S
C742 C741 1.380 . S
C742 C743 1.387 . S
C743 H699 0.930 . S
C743 C738 1.386 . S
C743 C742 1.387 . S
C744 C713 1.519 . S
C744 C745 1.377 . S
C744 C749 1.361 . S
C745 H700 0.929 . S
C745 C744 1.377 . S
C745 C746 1.386 . S
C746 H701 0.931 . S
C746 C745 1.386 . S
C746 C747 1.363 . S
C747 C746 1.363 . S
C747 C748 1.385 . S
C748 H702 0.930 . S
C748 C747 1.385 . S
C748 C749 1.396 . S
C749 H703 0.929 . S
C749 C744 1.361 . S
C749 C748 1.396 . S
C750 O704 1.300 . S
C750 O705 1.209 . S
C750 C723 1.486 . S
C751 O706 1.199 . S
C751 O707 1.297 . S
C751 C735 1.476 . S
H752 O778 0.856 . S
H753 O781 0.854 . S
H754 C789 0.930 . S
H755 C790 0.930 . S
H756 C792 0.930 . S
H757 C793 0.930 . S
H758 C795 0.931 . S
H759 C796 0.930 . S
H760 C798 0.930 . S
H761 C799 0.929 . S
H762 C801 0.930 . S
H763 C802 0.931 . S
H764 C804 0.930 . S
H765 C805 0.929 . S
H766 C807 0.931 . S
H767 C808 0.930 . S
H768 C810 0.930 . S
H769 C811 0.932 . S
H770 C813 0.930 . S
H771 C814 0.929 . S
H772 C816 0.931 . S
H773 C817 0.930 . S
H774 C819 0.929 . S
H775 C820 0.931 . S
H776 C822 0.930 . S
H777 C823 0.929 . S
O778 H752 0.856 . S
O778 C824 1.300 . S
O779 C824 1.209 . S
O780 C825 1.199 . S
O781 H753 0.854 . S
O781 C825 1.297 . S
C782 C783 1.404 . S
C782 C787 1.397 . S
C782 C788 1.492 . S
C783 C782 1.404 . S
C783 C784 1.396 . S
C783 C794 1.492 . S
C784 C783 1.396 . S
C784 C785 1.397 . S
C784 C800 1.509 . S
C785 C784 1.397 . S
C785 C786 1.412 . S
C785 C806 1.485 . S
C786 C785 1.412 . S
C786 C787 1.388 . S
C786 C812 1.490 . S
C787 C782 1.397 . S
C787 C786 1.388 . S
C787 C818 1.519 . S
C788 C782 1.492 . S
C788 C789 1.363 . S
C788 C793 1.390 . S
C789 H754 0.930 . S
C789 C788 1.363 . S
C789 C790 1.372 . S
C790 H755 0.930 . S
C790 C789 1.372 . S
C790 C791 1.383 . S
C791 C790 1.383 . S
C791 C792 1.395 . S
C792 H756 0.930 . S
C792 C791 1.395 . S
C792 C793 1.362 . S
C793 H757 0.930 . S
C793 C788 1.390 . S
C793 C792 1.362 . S
C794 C783 1.492 . S
C794 C795 1.377 . S
C794 C799 1.397 . S
C795 H758 0.931 . S
C795 C794 1.377 . S
C795 C796 1.376 . S
C796 H759 0.930 . S
C796 C795 1.376 . S
C796 C797 1.376 . S
C797 C796 1.376 . S
C797 C798 1.378 . S
C797 C824 1.486 . S
C798 H760 0.930 . S
C798 C797 1.378 . S
C798 C799 1.376 . S
C799 H761 0.929 . S
C799 C794 1.397 . S
C799 C798 1.376 . S
C800 C784 1.509 . S
C800 C801 1.391 . S
C800 C805 1.386 . S
C801 H762 0.930 . S
C801 C800 1.391 . S
C801 C802 1.375 . S
C802 H763 0.931 . S
C802 C801 1.375 . S
C802 C803 1.375 . S
C803 C802 1.375 . S
C803 C804 1.361 . S
C804 H764 0.930 . S
C804 C803 1.361 . S
C804 C805 1.399 . S
C805 H765 0.929 . S
C805 C800 1.386 . S
C805 C804 1.399 . S
C806 C785 1.485 . S
C806 C807 1.394 . S
C806 C811 1.360 . S
C807 H766 0.931 . S
C807 C806 1.394 . S
C807 C808 1.372 . S
C808 H767 0.930 . S
C808 C807 1.372 . S
C808 C809 1.397 . S
C809 C808 1.397 . S
C809 C810 1.390 . S
C809 C825 1.476 . S
C810 H768 0.930 . S
C810 C809 1.390 . S
C810 C811 1.366 . S
C811 H769 0.932 . S
C811 C806 1.360 . S
C811 C810 1.366 . S
C812 C786 1.490 . S
C812 C813 1.380 . S
C812 C817 1.386 . S
C813 H770 0.930 . S
C813 C812 1.380 . S
C813 C814 1.381 . S
C814 H771 0.929 . S
C814 C813 1.381 . S
C814 C815 1.371 . S
C815 C814 1.371 . S
C815 C816 1.380 . S
C816 H772 0.931 . S
C816 C815 1.380 . S
C816 C817 1.387 . S
C817 H773 0.930 . S
C817 C812 1.386 . S
C817 C816 1.387 . S
C818 C787 1.519 . S
C818 C819 1.377 . S
C818 C823 1.361 . S
C819 H774 0.929 . S
C819 C818 1.377 . S
C819 C820 1.386 . S
C820 H775 0.931 . S
C820 C819 1.386 . S
C820 C821 1.363 . S
C821 C820 1.363 . S
C821 C822 1.385 . S
C822 H776 0.930 . S
C822 C821 1.385 . S
C822 C823 1.396 . S
C823 H777 0.929 . S
C823 C818 1.361 . S
C823 C822 1.396 . S
C824 O778 1.300 . S
C824 O779 1.209 . S
C824 C797 1.486 . S
C825 O780 1.199 . S
C825 O781 1.297 . S
C825 C809 1.476 . S
H826 O852 0.856 . S
H827 O855 0.854 . S
H828 C863 0.930 . S
H829 C864 0.930 . S
H830 C866 0.930 . S
H831 C867 0.930 . S
H832 C869 0.931 . S
H833 C870 0.930 . S
H834 C872 0.930 . S
H835 C873 0.929 . S
H836 C875 0.930 . S
H837 C876 0.931 . S
H838 C878 0.930 . S
H839 C879 0.929 . S
H840 C881 0.931 . S
H841 C882 0.930 . S
H842 C884 0.930 . S
H843 C885 0.932 . S
H844 C887 0.930 . S
H845 C888 0.929 . S
H846 C890 0.931 . S
H847 C891 0.930 . S
H848 C893 0.929 . S
H849 C894 0.931 . S
H850 C896 0.930 . S
H851 C897 0.929 . S
O852 H826 0.856 . S
O852 C898 1.300 . S
O853 C898 1.209 . S
O854 C899 1.199 . S
O855 H827 0.854 . S
O855 C899 1.297 . S
C856 C857 1.404 . S
C856 C861 1.397 . S
C856 C862 1.492 . S
C857 C856 1.404 . S
C857 C858 1.396 . S
C857 C868 1.492 . S
C858 C857 1.396 . S
C858 C859 1.397 . S
C858 C874 1.509 . S
C859 C858 1.397 . S
C859 C860 1.412 . S
C859 C880 1.485 . S
C860 C859 1.412 . S
C860 C861 1.388 . S
C860 C886 1.490 . S
C861 C856 1.397 . S
C861 C860 1.388 . S
C861 C892 1.519 . S
C862 C856 1.492 . S
C862 C863 1.363 . S
C862 C867 1.390 . S
C863 H828 0.930 . S
C863 C862 1.363 . S
C863 C864 1.372 . S
C864 H829 0.930 . S
C864 C863 1.372 . S
C864 C865 1.383 . S
C865 C864 1.383 . S
C865 C866 1.395 . S
C866 H830 0.930 . S
C866 C865 1.395 . S
C866 C867 1.362 . S
C867 H831 0.930 . S
C867 C862 1.390 . S
C867 C866 1.362 . S
C868 C857 1.492 . S
C868 C869 1.377 . S
C868 C873 1.397 . S
C869 H832 0.931 . S
C869 C868 1.377 . S
C869 C870 1.376 . S
C870 H833 0.930 . S
C870 C869 1.376 . S
C870 C871 1.376 . S
C871 C870 1.376 . S
C871 C872 1.378 . S
C871 C898 1.486 . S
C872 H834 0.930 . S
C872 C871 1.378 . S
C872 C873 1.376 . S
C873 H835 0.929 . S
C873 C868 1.397 . S
C873 C872 1.376 . S
C874 C858 1.509 . S
C874 C875 1.391 . S
C874 C879 1.386 . S
C875 H836 0.930 . S
C875 C874 1.391 . S
C875 C876 1.375 . S
C876 H837 0.931 . S
C876 C875 1.375 . S
C876 C877 1.375 . S
C877 C876 1.375 . S
C877 C878 1.361 . S
C878 H838 0.930 . S
C878 C877 1.361 . S
C878 C879 1.399 . S
C879 H839 0.929 . S
C879 C874 1.386 . S
C879 C878 1.399 . S
C880 C859 1.485 . S
C880 C881 1.394 . S
C880 C885 1.360 . S
C881 H840 0.931 . S
C881 C880 1.394 . S
C881 C882 1.372 . S
C882 H841 0.930 . S
C882 C881 1.372 . S
C882 C883 1.397 . S
C883 C882 1.397 . S
C883 C884 1.390 . S
C883 C899 1.476 . S
C884 H842 0.930 . S
C884 C883 1.390 . S
C884 C885 1.366 . S
C885 H843 0.932 . S
C885 C880 1.360 . S
C885 C884 1.366 . S
C886 C860 1.490 . S
C886 C887 1.380 . S
C886 C891 1.386 . S
C887 H844 0.930 . S
C887 C886 1.380 . S
C887 C888 1.381 . S
C888 H845 0.929 . S
C888 C887 1.381 . S
C888 C889 1.371 . S
C889 C888 1.371 . S
C889 C890 1.380 . S
C890 H846 0.931 . S
C890 C889 1.380 . S
C890 C891 1.387 . S
C891 H847 0.930 . S
C891 C886 1.386 . S
C891 C890 1.387 . S
C892 C861 1.519 . S
C892 C893 1.377 . S
C892 C897 1.361 . S
C893 H848 0.929 . S
C893 C892 1.377 . S
C893 C894 1.386 . S
C894 H849 0.931 . S
C894 C893 1.386 . S
C894 C895 1.363 . S
C895 C894 1.363 . S
C895 C896 1.385 . S
C896 H850 0.930 . S
C896 C895 1.385 . S
C896 C897 1.396 . S
C897 H851 0.929 . S
C897 C892 1.361 . S
C897 C896 1.396 . S
C898 O852 1.300 . S
C898 O853 1.209 . S
C898 C871 1.486 . S
C899 O854 1.199 . S
C899 O855 1.297 . S
C899 C883 1.476 . S
H900 O926 0.856 . S
H901 O929 0.854 . S
H902 C937 0.930 . S
H903 C938 0.930 . S
H904 C940 0.930 . S
H905 C941 0.930 . S
H906 C943 0.931 . S
H907 C944 0.930 1_655 S
H908 C946 0.930 . S
H909 C947 0.929 . S
H910 C949 0.930 . S
H911 C950 0.931 1_655 S
H912 C952 0.930 . S
H913 C953 0.929 . S
H914 C955 0.931 . S
H915 C956 0.930 . S
H916 C958 0.930 . S
H917 C959 0.932 . S
H918 C961 0.930 . S
H919 C962 0.929 . S
H920 C964 0.931 . S
H921 C965 0.930 . S
H922 C967 0.929 . S
H923 C968 0.931 . S
H924 C970 0.930 . S
H925 C971 0.929 . S
O926 H900 0.856 . S
O926 C972 1.300 . S
O927 C972 1.209 . S
O928 C973 1.199 1_655 S
O929 H901 0.854 . S
O929 C973 1.297 . S
C930 C931 1.404 . S
C930 C935 1.393 . S
C930 C936 1.492 . S
C931 C930 1.404 . S
C931 C932 1.396 . S
C931 C942 1.492 . S
C932 C931 1.396 . S
C932 C933 1.397 . S
C932 C948 1.509 . S
C933 C932 1.397 . S
C933 C934 1.437 . S
C933 C954 1.485 . S
C934 C933 1.437 . S
C934 C935 1.394 . S
C934 C960 1.491 1_455 S
C935 C930 1.393 . S
C935 C934 1.394 . S
C935 C966 1.479 1_455 S
C936 C930 1.492 . S
C936 C937 1.363 1_455 S
C936 C941 1.390 . S
C937 H902 0.930 . S
C937 C936 1.363 1_655 S
C937 C938 1.372 . S
C938 H903 0.930 . S
C938 C937 1.372 . S
C938 C939 1.383 . S
C939 C938 1.383 . S
C939 C940 1.395 1_655 S
C940 H904 0.930 . S
C940 C939 1.395 1_455 S
C940 C941 1.362 . S
C941 H905 0.930 . S
C941 C936 1.390 . S
C941 C940 1.362 . S
C942 C931 1.492 . S
C942 C943 1.377 1_455 S
C942 C947 1.397 . S
C943 H906 0.931 . S
C943 C942 1.377 1_655 S
C943 C944 1.376 1_655 S
C944 H907 0.930 1_455 S
C944 C943 1.376 1_455 S
C944 C945 1.376 . S
C945 C944 1.376 . S
C945 C946 1.378 . S
C945 C972 1.486 . S
C946 H908 0.930 . S
C946 C945 1.378 . S
C946 C947 1.376 . S
C947 H909 0.929 . S
C947 C942 1.397 . S
C947 C946 1.376 . S
C948 C932 1.509 . S
C948 C949 1.391 1_455 S
C948 C953 1.386 . S
C949 H910 0.930 . S
C949 C948 1.391 1_655 S
C949 C950 1.375 1_655 S
C950 H911 0.931 1_455 S
C950 C949 1.375 1_455 S
C950 C951 1.375 . S
C951 C950 1.375 . S
C951 C952 1.361 . S
C952 H912 0.930 . S
C952 C951 1.361 . S
C952 C953 1.399 . S
C953 H913 0.929 . S
C953 C948 1.386 . S
C953 C952 1.399 . S
C954 C933 1.485 . S
C954 C955 1.394 1_455 S
C954 C959 1.360 . S
C955 H914 0.931 . S
C955 C954 1.394 1_655 S
C955 C956 1.372 . S
C956 H915 0.930 . S
C956 C955 1.372 . S
C956 C957 1.397 1_655 S
C957 C956 1.397 1_455 S
C957 C958 1.390 . S
C957 C973 1.476 . S
C958 H916 0.930 . S
C958 C957 1.390 . S
C958 C959 1.366 . S
C959 H917 0.932 . S
C959 C954 1.360 . S
C959 C958 1.366 . S
C960 C934 1.491 1_655 S
C960 C961 1.380 . S
C960 C965 1.386 1_655 S
C961 H918 0.930 . S
C961 C960 1.380 . S
C961 C962 1.381 . S
C962 H919 0.929 . S
C962 C961 1.381 . S
C962 C963 1.371 . S
C963 C962 1.371 . S
C963 C964 1.380 1_655 S
C964 H920 0.931 . S
C964 C963 1.380 1_455 S
C964 C965 1.387 . S
C965 H921 0.930 . S
C965 C960 1.386 1_455 S
C965 C964 1.387 . S
C966 C935 1.479 1_655 S
C966 C967 1.424 . S
C966 C971 1.332 1_655 S
C967 H922 0.929 . S
C967 C966 1.424 . S
C967 C968 1.386 . S
C968 H923 0.931 . S
C968 C967 1.386 . S
C968 C969 1.410 . S
C969 C968 1.410 . S
C969 C970 1.312 1_655 S
C970 H924 0.930 . S
C970 C969 1.312 1_455 S
C970 C971 1.396 . S
C971 H925 0.929 . S
C971 C966 1.332 1_455 S
C971 C970 1.396 . S
C972 O926 1.300 . S
C972 O927 1.209 . S
C972 C945 1.486 . S
C973 O928 1.199 1_455 S
C973 O929 1.297 . S
C973 C957 1.476 . S
H974 O1000 0.856 . S
H975 O1003 0.854 . S
H976 C1011 0.930 . S
H977 C1012 0.930 . S
H978 C1014 0.930 . S
H979 C1015 0.930 . S
H980 C1017 0.931 . S
H981 C1018 0.930 . S
H982 C1020 0.930 . S
H983 C1021 0.929 . S
H984 C1023 0.930 . S
H985 C1024 0.931 . S
H986 C1026 0.930 . S
H987 C1027 0.929 . S
H988 C1029 0.931 . S
H989 C1030 0.930 . S
H990 C1032 0.930 . S
H991 C1033 0.932 . S
H992 C1035 0.930 . S
H993 C1036 0.929 . S
H994 C1038 0.931 . S
H995 C1039 0.930 . S
H996 C1041 0.929 . S
H997 C1042 0.931 . S
H998 C1044 0.930 . S
H999 C1045 0.929 . S
O1000 H974 0.856 . S
O1000 C1046 1.300 . S
O1001 C1046 1.209 . S
O1002 C1047 1.199 . S
O1003 H975 0.854 . S
O1003 C1047 1.297 . S
C1004 C1005 1.404 . S
C1004 C1009 1.397 . S
C1004 C1010 1.492 . S
C1005 C1004 1.404 . S
C1005 C1006 1.396 . S
C1005 C1016 1.492 . S
C1006 C1005 1.396 . S
C1006 C1007 1.397 . S
C1006 C1022 1.509 . S
C1007 C1006 1.397 . S
C1007 C1008 1.412 . S
C1007 C1028 1.485 . S
C1008 C1007 1.412 . S
C1008 C1009 1.388 . S
C1008 C1034 1.490 . S
C1009 C1004 1.397 . S
C1009 C1008 1.388 . S
C1009 C1040 1.519 . S
C1010 C1004 1.492 . S
C1010 C1011 1.363 . S
C1010 C1015 1.390 . S
C1011 H976 0.930 . S
C1011 C1010 1.363 . S
C1011 C1012 1.372 . S
C1012 H977 0.930 . S
C1012 C1011 1.372 . S
C1012 C1013 1.383 . S
C1013 C1012 1.383 . S
C1013 C1014 1.395 . S
C1014 H978 0.930 . S
C1014 C1013 1.395 . S
C1014 C1015 1.362 . S
C1015 H979 0.930 . S
C1015 C1010 1.390 . S
C1015 C1014 1.362 . S
C1016 C1005 1.492 . S
C1016 C1017 1.377 . S
C1016 C1021 1.397 . S
C1017 H980 0.931 . S
C1017 C1016 1.377 . S
C1017 C1018 1.376 . S
C1018 H981 0.930 . S
C1018 C1017 1.376 . S
C1018 C1019 1.376 . S
C1019 C1018 1.376 . S
C1019 C1020 1.378 . S
C1019 C1046 1.486 . S
C1020 H982 0.930 . S
C1020 C1019 1.378 . S
C1020 C1021 1.376 . S
C1021 H983 0.929 . S
C1021 C1016 1.397 . S
C1021 C1020 1.376 . S
C1022 C1006 1.509 . S
C1022 C1023 1.391 . S
C1022 C1027 1.386 . S
C1023 H984 0.930 . S
C1023 C1022 1.391 . S
C1023 C1024 1.375 . S
C1024 H985 0.931 . S
C1024 C1023 1.375 . S
C1024 C1025 1.375 . S
C1025 C1024 1.375 . S
C1025 C1026 1.361 . S
C1026 H986 0.930 . S
C1026 C1025 1.361 . S
C1026 C1027 1.399 . S
C1027 H987 0.929 . S
C1027 C1022 1.386 . S
C1027 C1026 1.399 . S
C1028 C1007 1.485 . S
C1028 C1029 1.394 . S
C1028 C1033 1.360 . S
C1029 H988 0.931 . S
C1029 C1028 1.394 . S
C1029 C1030 1.372 . S
C1030 H989 0.930 . S
C1030 C1029 1.372 . S
C1030 C1031 1.397 . S
C1031 C1030 1.397 . S
C1031 C1032 1.390 . S
C1031 C1047 1.476 . S
C1032 H990 0.930 . S
C1032 C1031 1.390 . S
C1032 C1033 1.366 . S
C1033 H991 0.932 . S
C1033 C1028 1.360 . S
C1033 C1032 1.366 . S
C1034 C1008 1.490 . S
C1034 C1035 1.380 . S
C1034 C1039 1.386 . S
C1035 H992 0.930 . S
C1035 C1034 1.380 . S
C1035 C1036 1.381 . S
C1036 H993 0.929 . S
C1036 C1035 1.381 . S
C1036 C1037 1.371 . S
C1037 C1036 1.371 . S
C1037 C1038 1.380 . S
C1038 H994 0.931 . S
C1038 C1037 1.380 . S
C1038 C1039 1.387 . S
C1039 H995 0.930 . S
C1039 C1034 1.386 . S
C1039 C1038 1.387 . S
C1040 C1009 1.519 . S
C1040 C1041 1.377 . S
C1040 C1045 1.361 . S
C1041 H996 0.929 . S
C1041 C1040 1.377 . S
C1041 C1042 1.386 . S
C1042 H997 0.931 . S
C1042 C1041 1.386 . S
C1042 C1043 1.363 . S
C1043 C1042 1.363 . S
C1043 C1044 1.385 . S
C1044 H998 0.930 . S
C1044 C1043 1.385 . S
C1044 C1045 1.396 . S
C1045 H999 0.929 . S
C1045 C1040 1.361 . S
C1045 C1044 1.396 . S
C1046 O1000 1.300 . S
C1046 O1001 1.209 . S
C1046 C1019 1.486 . S
C1047 O1002 1.199 . S
C1047 O1003 1.297 . S
C1047 C1031 1.476 . S
H1048 O1074 0.856 . S
H1049 O1077 0.854 . S
H1050 C1085 0.930 . S
H1051 C1086 0.930 . S
H1052 C1088 0.930 . S
H1053 C1089 0.930 . S
H1054 C1091 0.931 . S
H1055 C1092 0.918 1_545 S
H1056 C1094 0.930 . S
H1057 C1095 0.929 . S
H1058 C1097 0.930 . S
H1059 C1098 0.931 . S
H1060 C1100 0.930 . S
H1061 C1101 0.929 . S
H1062 C1103 0.931 . S
H1063 C1104 0.930 . S
H1064 C1106 0.930 . S
H1065 C1107 0.932 . S
H1066 C1109 0.930 . S
H1067 C1110 0.929 . S
H1068 C1112 0.931 . S
H1069 C1113 0.930 . S
H1070 C1115 0.929 . S
H1071 C1116 0.931 . S
H1072 C1118 0.930 . S
H1073 C1119 0.929 . S
O1074 H1048 0.856 . S
O1074 C1120 1.300 . S
O1075 C1120 1.209 . S
O1076 C1121 1.199 1_545 S
O1077 H1049 0.854 . S
O1077 C1121 1.297 . S
C1078 C1079 1.404 . S
C1078 C1083 1.415 . S
C1078 C1084 1.492 . S
C1079 C1078 1.404 . S
C1079 C1080 1.396 . S
C1079 C1090 1.492 . S
C1080 C1079 1.396 . S
C1080 C1081 1.397 . S
C1080 C1096 1.509 . S
C1081 C1080 1.397 . S
C1081 C1082 1.412 1_565 S
C1081 C1102 1.485 . S
C1082 C1081 1.412 1_545 S
C1082 C1083 1.363 1_545 S
C1082 C1108 1.489 . S
C1083 C1078 1.415 . S
C1083 C1082 1.363 1_565 S
C1083 C1114 1.533 1_565 S
C1084 C1078 1.492 . S
C1084 C1085 1.363 1_565 S
C1084 C1089 1.390 . S
C1085 H1050 0.930 . S
C1085 C1084 1.363 1_545 S
C1085 C1086 1.372 . S
C1086 H1051 0.930 . S
C1086 C1085 1.372 . S
C1086 C1087 1.448 . S
C1087 C1086 1.448 . S
C1087 C1088 1.364 1_545 S
C1088 H1052 0.930 . S
C1088 C1087 1.364 1_565 S
C1088 C1089 1.362 . S
C1089 H1053 0.930 . S
C1089 C1084 1.390 . S
C1089 C1088 1.362 . S
C1090 C1079 1.492 . S
C1090 C1091 1.377 1_565 S
C1090 C1095 1.397 . S
C1091 H1054 0.931 . S
C1091 C1090 1.377 1_545 S
C1091 C1092 1.369 1_545 S
C1092 H1055 0.918 1_565 S
C1092 C1091 1.369 1_565 S
C1092 C1093 1.396 . S
C1093 C1092 1.396 . S
C1093 C1094 1.378 . S
C1093 C1120 1.486 . S
C1094 H1056 0.930 . S
C1094 C1093 1.378 . S
C1094 C1095 1.376 . S
C1095 H1057 0.929 . S
C1095 C1090 1.397 . S
C1095 C1094 1.376 . S
C1096 C1080 1.509 . S
C1096 C1097 1.391 1_565 S
C1096 C1101 1.386 . S
C1097 H1058 0.930 . S
C1097 C1096 1.391 1_545 S
C1097 C1098 1.375 . S
C1098 H1059 0.931 . S
C1098 C1097 1.375 . S
C1098 C1099 1.375 1_545 S
C1099 C1098 1.375 1_565 S
C1099 C1100 1.361 . S
C1100 H1060 0.930 . S
C1100 C1099 1.361 . S
C1100 C1101 1.399 . S
C1101 H1061 0.929 . S
C1101 C1096 1.386 . S
C1101 C1100 1.399 . S
C1102 C1081 1.485 . S
C1102 C1103 1.394 1_565 S
C1102 C1107 1.360 . S
C1103 H1062 0.931 . S
C1103 C1102 1.394 1_545 S
C1103 C1104 1.372 . S
C1104 H1063 0.930 . S
C1104 C1103 1.372 . S
C1104 C1105 1.397 1_545 S
C1105 C1104 1.397 1_565 S
C1105 C1106 1.390 . S
C1105 C1121 1.476 . S
C1106 H1064 0.930 . S
C1106 C1105 1.390 . S
C1106 C1107 1.366 . S
C1107 H1065 0.932 . S
C1107 C1102 1.360 . S
C1107 C1106 1.366 . S
C1108 C1082 1.489 . S
C1108 C1109 1.380 . S
C1108 C1113 1.386 1_545 S
C1109 H1066 0.930 . S
C1109 C1108 1.380 . S
C1109 C1110 1.381 . S
C1110 H1067 0.929 . S
C1110 C1109 1.381 . S
C1110 C1111 1.371 . S
C1111 C1110 1.371 . S
C1111 C1112 1.380 1_545 S
C1112 H1068 0.931 . S
C1112 C1111 1.380 1_565 S
C1112 C1113 1.387 . S
C1113 H1069 0.930 . S
C1113 C1108 1.386 1_565 S
C1113 C1112 1.387 . S
C1114 C1083 1.533 1_545 S
C1114 C1115 1.376 . S
C1114 C1119 1.362 1_545 S
C1115 H1070 0.929 . S
C1115 C1114 1.376 . S
C1115 C1116 1.386 . S
C1116 H1071 0.931 . S
C1116 C1115 1.386 . S
C1116 C1117 1.317 1_545 S
C1117 C1116 1.317 1_565 S
C1117 C1118 1.409 . S
C1118 H1072 0.930 . S
C1118 C1117 1.409 . S
C1118 C1119 1.396 . S
C1119 H1073 0.929 . S
C1119 C1114 1.362 1_565 S
C1119 C1118 1.396 . S
C1120 O1074 1.300 . S
C1120 O1075 1.209 . S
C1120 C1093 1.486 . S
C1121 O1076 1.199 1_565 S
C1121 O1077 1.297 . S
C1121 C1105 1.476 . S
H1122 O1148 0.856 . S
H1123 O1151 0.854 . S
H1124 C1159 0.930 . S
H1125 C1160 0.930 . S
H1126 C1162 0.930 . S
H1127 C1163 0.930 . S
H1128 C1165 0.931 . S
H1129 C1166 0.930 . S
H1130 C1168 0.930 . S
H1131 C1169 0.929 . S
H1132 C1171 0.930 . S
H1133 C1172 0.931 . S
H1134 C1174 0.930 . S
H1135 C1175 0.929 . S
H1136 C1177 0.931 . S
H1137 C1178 0.930 . S
H1138 C1180 0.930 . S
H1139 C1181 0.932 . S
H1140 C1183 0.930 . S
H1141 C1184 0.929 . S
H1142 C1186 0.931 . S
H1143 C1187 0.930 . S
H1144 C1189 0.929 . S
H1145 C1190 0.931 . S
H1146 C1192 0.930 . S
H1147 C1193 0.929 . S
O1148 H1122 0.856 . S
O1148 C1194 1.300 . S
O1149 C1194 1.209 1_565 S
O1150 C1195 1.199 1_545 S
O1151 H1123 0.854 . S
O1151 C1195 1.297 . S
C1152 C1153 1.404 . S
C1152 C1157 1.396 1_545 S
C1152 C1158 1.492 . S
C1153 C1152 1.404 . S
C1153 C1154 1.421 . S
C1153 C1164 1.492 . S
C1154 C1153 1.421 . S
C1154 C1155 1.373 1_545 S
C1154 C1170 1.501 . S
C1155 C1154 1.373 1_565 S
C1155 C1156 1.414 . S
C1155 C1176 1.519 . S
C1156 C1155 1.414 . S
C1156 C1157 1.355 . S
C1156 C1182 1.506 . S
C1157 C1152 1.396 1_565 S
C1157 C1156 1.355 . S
C1157 C1188 1.518 . S
C1158 C1152 1.492 . S
C1158 C1159 1.363 . S
C1158 C1163 1.390 1_545 S
C1159 H1124 0.930 . S
C1159 C1158 1.363 . S
C1159 C1160 1.372 . S
C1160 H1125 0.930 . S
C1160 C1159 1.372 . S
C1160 C1161 1.383 . S
C1161 C1160 1.383 . S
C1161 C1162 1.395 1_545 S
C1162 H1126 0.930 . S
C1162 C1161 1.395 1_565 S
C1162 C1163 1.362 . S
C1163 H1127 0.930 . S
C1163 C1158 1.390 1_565 S
C1163 C1162 1.362 . S
C1164 C1153 1.492 . S
C1164 C1165 1.377 . S
C1164 C1169 1.397 1_545 S
C1165 H1128 0.931 . S
C1165 C1164 1.377 . S
C1165 C1166 1.376 . S
C1166 H1129 0.930 . S
C1166 C1165 1.376 . S
C1166 C1167 1.376 . S
C1167 C1166 1.376 . S
C1167 C1168 1.378 1_545 S
C1167 C1194 1.486 . S
C1168 H1130 0.930 . S
C1168 C1167 1.378 1_565 S
C1168 C1169 1.376 . S
C1169 H1131 0.929 . S
C1169 C1164 1.397 1_565 S
C1169 C1168 1.376 . S
C1170 C1154 1.501 . S
C1170 C1171 1.398 . S
C1170 C1175 1.373 1_545 S
C1171 H1132 0.930 . S
C1171 C1170 1.398 . S
C1171 C1172 1.375 . S
C1172 H1133 0.931 . S
C1172 C1171 1.375 . S
C1172 C1173 1.364 1_545 S
C1173 C1172 1.364 1_565 S
C1173 C1174 1.368 . S
C1174 H1134 0.930 . S
C1174 C1173 1.368 . S
C1174 C1175 1.399 . S
C1175 H1135 0.929 . S
C1175 C1170 1.373 1_565 S
C1175 C1174 1.399 . S
C1176 C1155 1.519 . S
C1176 C1177 1.394 1_565 S
C1176 C1181 1.360 . S
C1177 H1136 0.931 . S
C1177 C1176 1.394 1_545 S
C1177 C1178 1.372 . S
C1178 H1137 0.930 . S
C1178 C1177 1.372 . S
C1178 C1179 1.397 1_545 S
C1179 C1178 1.397 1_565 S
C1179 C1180 1.390 . S
C1179 C1195 1.476 . S
C1180 H1138 0.930 . S
C1180 C1179 1.390 . S
C1180 C1181 1.366 . S
C1181 H1139 0.932 . S
C1181 C1176 1.360 . S
C1181 C1180 1.366 . S
C1182 C1156 1.506 . S
C1182 C1183 1.380 1_565 S
C1182 C1187 1.386 . S
C1183 H1140 0.930 . S
C1183 C1182 1.380 1_545 S
C1183 C1184 1.381 . S
C1184 H1141 0.929 . S
C1184 C1183 1.381 . S
C1184 C1185 1.354 1_545 S
C1185 C1184 1.354 1_565 S
C1185 C1186 1.393 . S
C1186 H1142 0.931 . S
C1186 C1185 1.393 . S
C1186 C1187 1.387 . S
C1187 H1143 0.930 . S
C1187 C1182 1.386 . S
C1187 C1186 1.387 . S
C1188 C1157 1.518 . S
C1188 C1189 1.377 1_565 S
C1188 C1193 1.361 . S
C1189 H1144 0.929 . S
C1189 C1188 1.377 1_545 S
C1189 C1190 1.386 . S
C1190 H1145 0.931 . S
C1190 C1189 1.386 . S
C1190 C1191 1.363 1_545 S
C1191 C1190 1.363 1_565 S
C1191 C1192 1.385 . S
C1192 H1146 0.930 . S
C1192 C1191 1.385 . S
C1192 C1193 1.396 . S
C1193 H1147 0.929 . S
C1193 C1188 1.361 . S
C1193 C1192 1.396 . S
C1194 O1148 1.300 . S
C1194 O1149 1.209 1_545 S
C1194 C1167 1.486 . S
C1195 O1150 1.199 1_565 S
C1195 O1151 1.297 . S
C1195 C1179 1.476 . S
H1196 O1222 0.856 . S
H1197 O1225 0.854 . S
H1198 C1233 0.930 . S
H1199 C1234 0.930 . S
H1200 C1236 0.930 . S
H1201 C1237 0.930 . S
H1202 C1239 0.931 . S
H1203 C1240 0.930 . S
H1204 C1242 0.930 . S
H1205 C1243 0.929 . S
H1206 C1245 0.930 . S
H1207 C1246 0.931 . S
H1208 C1248 0.930 . S
H1209 C1249 0.929 . S
H1210 C1251 0.931 . S
H1211 C1252 0.930 . S
H1212 C1254 0.930 . S
H1213 C1255 0.932 . S
H1214 C1257 0.930 . S
H1215 C1258 0.929 . S
H1216 C1260 0.931 . S
H1217 C1261 0.930 . S
H1218 C1263 0.929 . S
H1219 C1264 0.931 . S
H1220 C1266 0.930 . S
H1221 C1267 0.929 . S
O1222 H1196 0.856 . S
O1222 C1268 1.300 . S
O1223 C1268 1.209 1_455 S
O1224 C1269 1.199 1_655 S
O1225 H1197 0.854 . S
O1225 C1269 1.297 . S
C1226 C1227 1.404 . S
C1226 C1231 1.397 . S
C1226 C1232 1.492 . S
C1227 C1226 1.404 . S
C1227 C1228 1.396 . S
C1227 C1238 1.492 . S
C1228 C1227 1.396 . S
C1228 C1229 1.393 . S
C1228 C1244 1.509 . S
C1229 C1228 1.393 . S
C1229 C1230 1.387 1_655 S
C1229 C1250 1.517 1_655 S
C1230 C1229 1.387 1_455 S
C1230 C1231 1.395 1_455 S
C1230 C1256 1.488 . S
C1231 C1226 1.397 . S
C1231 C1230 1.395 1_655 S
C1231 C1262 1.521 1_655 S
C1232 C1226 1.492 . S
C1232 C1233 1.363 . S
C1232 C1237 1.390 1_655 S
C1233 H1198 0.930 . S
C1233 C1232 1.363 . S
C1233 C1234 1.372 . S
C1234 H1199 0.930 . S
C1234 C1233 1.372 . S
C1234 C1235 1.383 . S
C1235 C1234 1.383 . S
C1235 C1236 1.395 1_655 S
C1236 H1200 0.930 . S
C1236 C1235 1.395 1_455 S
C1236 C1237 1.362 . S
C1237 H1201 0.930 . S
C1237 C1232 1.390 1_455 S
C1237 C1236 1.362 . S
C1238 C1227 1.492 . S
C1238 C1239 1.377 . S
C1238 C1243 1.397 1_655 S
C1239 H1202 0.931 . S
C1239 C1238 1.377 . S
C1239 C1240 1.376 . S
C1240 H1203 0.930 . S
C1240 C1239 1.376 . S
C1240 C1241 1.376 . S
C1241 C1240 1.376 . S
C1241 C1242 1.378 1_655 S
C1241 C1268 1.486 . S
C1242 H1204 0.930 . S
C1242 C1241 1.378 1_455 S
C1242 C1243 1.376 . S
C1243 H1205 0.929 . S
C1243 C1238 1.397 1_455 S
C1243 C1242 1.376 . S
C1244 C1228 1.509 . S
C1244 C1245 1.391 . S
C1244 C1249 1.386 1_655 S
C1245 H1206 0.930 . S
C1245 C1244 1.391 . S
C1245 C1246 1.375 . S
C1246 H1207 0.931 . S
C1246 C1245 1.375 . S
C1246 C1247 1.375 . S
C1247 C1246 1.375 . S
C1247 C1248 1.361 1_655 S
C1248 H1208 0.930 . S
C1248 C1247 1.361 1_455 S
C1248 C1249 1.399 . S
C1249 H1209 0.929 . S
C1249 C1244 1.386 1_455 S
C1249 C1248 1.399 . S
C1250 C1229 1.517 1_455 S
C1250 C1251 1.384 1_455 S
C1250 C1255 1.364 . S
C1251 H1210 0.931 . S
C1251 C1250 1.384 1_655 S
C1251 C1252 1.372 . S
C1252 H1211 0.930 . S
C1252 C1251 1.372 . S
C1252 C1253 1.397 1_655 S
C1253 C1252 1.397 1_455 S
C1253 C1254 1.390 . S
C1253 C1269 1.476 . S
C1254 H1212 0.930 . S
C1254 C1253 1.390 . S
C1254 C1255 1.366 . S
C1255 H1213 0.932 . S
C1255 C1250 1.364 . S
C1255 C1254 1.366 . S
C1256 C1230 1.488 . S
C1256 C1257 1.380 1_455 S
C1256 C1261 1.386 . S
C1257 H1214 0.930 . S
C1257 C1256 1.380 1_655 S
C1257 C1258 1.381 . S
C1258 H1215 0.929 . S
C1258 C1257 1.381 . S
C1258 C1259 1.371 1_655 S
C1259 C1258 1.371 1_455 S
C1259 C1260 1.380 . S
C1260 H1216 0.931 . S
C1260 C1259 1.380 . S
C1260 C1261 1.387 . S
C1261 H1217 0.930 . S
C1261 C1256 1.386 . S
C1261 C1260 1.387 . S
C1262 C1231 1.521 1_455 S
C1262 C1263 1.377 1_455 S
C1262 C1267 1.361 . S
C1263 H1218 0.929 . S
C1263 C1262 1.377 1_655 S
C1263 C1264 1.386 . S
C1264 H1219 0.931 . S
C1264 C1263 1.386 . S
C1264 C1265 1.363 1_655 S
C1265 C1264 1.363 1_455 S
C1265 C1266 1.385 . S
C1266 H1220 0.930 . S
C1266 C1265 1.385 . S
C1266 C1267 1.396 . S
C1267 H1221 0.929 . S
C1267 C1262 1.361 . S
C1267 C1266 1.396 . S
C1268 O1222 1.300 . S
C1268 O1223 1.209 1_655 S
C1268 C1241 1.486 . S
C1269 O1224 1.199 1_455 S
C1269 O1225 1.297 . S
C1269 C1253 1.476 . S
H1270 O1296 0.856 . S
H1271 O1299 0.854 . S
H1272 C1307 0.930 . S
H1273 C1308 0.930 . S
H1274 C1310 0.930 . S
H1275 C1311 0.930 . S
H1276 C1313 0.931 . S
H1277 C1314 0.930 . S
H1278 C1316 0.930 . S
H1279 C1317 0.929 . S
H1280 C1319 0.930 . S
H1281 C1320 0.931 . S
H1282 C1322 0.930 . S
H1283 C1323 0.929 . S
H1284 C1325 0.931 . S
H1285 C1326 0.930 . S
H1286 C1328 0.930 . S
H1287 C1329 0.932 . S
H1288 C1331 0.930 . S
H1289 C1332 0.929 . S
H1290 C1334 0.931 . S
H1291 C1335 0.930 . S
H1292 C1337 0.929 . S
H1293 C1338 0.931 . S
H1294 C1340 0.930 . S
H1295 C1341 0.929 . S
O1296 H1270 0.856 . S
O1296 C1342 1.300 . S
O1297 C1342 1.209 . S
O1298 C1343 1.199 . S
O1299 H1271 0.854 . S
O1299 C1343 1.297 . S
C1300 C1301 1.404 . S
C1300 C1305 1.397 . S
C1300 C1306 1.492 . S
C1301 C1300 1.404 . S
C1301 C1302 1.396 . S
C1301 C1312 1.492 . S
C1302 C1301 1.396 . S
C1302 C1303 1.397 . S
C1302 C1318 1.509 . S
C1303 C1302 1.397 . S
C1303 C1304 1.412 . S
C1303 C1324 1.485 . S
C1304 C1303 1.412 . S
C1304 C1305 1.388 . S
C1304 C1330 1.490 . S
C1305 C1300 1.397 . S
C1305 C1304 1.388 . S
C1305 C1336 1.519 . S
C1306 C1300 1.492 . S
C1306 C1307 1.363 . S
C1306 C1311 1.390 . S
C1307 H1272 0.930 . S
C1307 C1306 1.363 . S
C1307 C1308 1.372 . S
C1308 H1273 0.930 . S
C1308 C1307 1.372 . S
C1308 C1309 1.383 . S
C1309 C1308 1.383 . S
C1309 C1310 1.395 . S
C1310 H1274 0.930 . S
C1310 C1309 1.395 . S
C1310 C1311 1.362 . S
C1311 H1275 0.930 . S
C1311 C1306 1.390 . S
C1311 C1310 1.362 . S
C1312 C1301 1.492 . S
C1312 C1313 1.377 . S
C1312 C1317 1.397 . S
C1313 H1276 0.931 . S
C1313 C1312 1.377 . S
C1313 C1314 1.376 . S
C1314 H1277 0.930 . S
C1314 C1313 1.376 . S
C1314 C1315 1.376 . S
C1315 C1314 1.376 . S
C1315 C1316 1.378 . S
C1315 C1342 1.486 . S
C1316 H1278 0.930 . S
C1316 C1315 1.378 . S
C1316 C1317 1.376 . S
C1317 H1279 0.929 . S
C1317 C1312 1.397 . S
C1317 C1316 1.376 . S
C1318 C1302 1.509 . S
C1318 C1319 1.391 . S
C1318 C1323 1.386 . S
C1319 H1280 0.930 . S
C1319 C1318 1.391 . S
C1319 C1320 1.375 . S
C1320 H1281 0.931 . S
C1320 C1319 1.375 . S
C1320 C1321 1.375 . S
C1321 C1320 1.375 . S
C1321 C1322 1.361 . S
C1322 H1282 0.930 . S
C1322 C1321 1.361 . S
C1322 C1323 1.399 . S
C1323 H1283 0.929 . S
C1323 C1318 1.386 . S
C1323 C1322 1.399 . S
C1324 C1303 1.485 . S
C1324 C1325 1.394 . S
C1324 C1329 1.360 . S
C1325 H1284 0.931 . S
C1325 C1324 1.394 . S
C1325 C1326 1.372 . S
C1326 H1285 0.930 . S
C1326 C1325 1.372 . S
C1326 C1327 1.397 . S
C1327 C1326 1.397 . S
C1327 C1328 1.390 . S
C1327 C1343 1.476 . S
C1328 H1286 0.930 . S
C1328 C1327 1.390 . S
C1328 C1329 1.366 . S
C1329 H1287 0.932 . S
C1329 C1324 1.360 . S
C1329 C1328 1.366 . S
C1330 C1304 1.490 . S
C1330 C1331 1.380 . S
C1330 C1335 1.386 . S
C1331 H1288 0.930 . S
C1331 C1330 1.380 . S
C1331 C1332 1.381 . S
C1332 H1289 0.929 . S
C1332 C1331 1.381 . S
C1332 C1333 1.371 . S
C1333 C1332 1.371 . S
C1333 C1334 1.380 . S
C1334 H1290 0.931 . S
C1334 C1333 1.380 . S
C1334 C1335 1.387 . S
C1335 H1291 0.930 . S
C1335 C1330 1.386 . S
C1335 C1334 1.387 . S
C1336 C1305 1.519 . S
C1336 C1337 1.377 . S
C1336 C1341 1.361 . S
C1337 H1292 0.929 . S
C1337 C1336 1.377 . S
C1337 C1338 1.386 . S
C1338 H1293 0.931 . S
C1338 C1337 1.386 . S
C1338 C1339 1.363 . S
C1339 C1338 1.363 . S
C1339 C1340 1.385 . S
C1340 H1294 0.930 . S
C1340 C1339 1.385 . S
C1340 C1341 1.396 . S
C1341 H1295 0.929 . S
C1341 C1336 1.361 . S
C1341 C1340 1.396 . S
C1342 O1296 1.300 . S
C1342 O1297 1.209 . S
C1342 C1315 1.486 . S
C1343 O1298 1.199 . S
C1343 O1299 1.297 . S
C1343 C1327 1.476 . S
H1344 O1370 0.856 . S
H1345 O1373 0.854 . S
H1346 C1381 0.930 . S
H1347 C1382 0.930 . S
H1348 C1384 0.930 . S
H1349 C1385 0.930 . S
H1350 C1387 0.931 . S
H1351 C1388 0.930 . S
H1352 C1390 0.930 . S
H1353 C1391 0.929 . S
H1354 C1393 0.930 . S
H1355 C1394 0.931 . S
H1356 C1396 0.930 . S
H1357 C1397 0.929 . S
H1358 C1399 0.931 . S
H1359 C1400 0.930 . S
H1360 C1402 0.930 . S
H1361 C1403 0.932 . S
H1362 C1405 0.930 . S
H1363 C1406 0.929 . S
H1364 C1408 0.931 . S
H1365 C1409 0.930 . S
H1366 C1411 0.929 . S
H1367 C1412 0.931 . S
H1368 C1414 0.930 . S
H1369 C1415 0.929 . S
O1370 H1344 0.856 . S
O1370 C1416 1.300 . S
O1371 C1416 1.209 . S
O1372 C1417 1.199 . S
O1373 H1345 0.854 . S
O1373 C1417 1.297 . S
C1374 C1375 1.404 . S
C1374 C1379 1.397 . S
C1374 C1380 1.492 . S
C1375 C1374 1.404 . S
C1375 C1376 1.396 . S
C1375 C1386 1.492 . S
C1376 C1375 1.396 . S
C1376 C1377 1.397 . S
C1376 C1392 1.509 . S
C1377 C1376 1.397 . S
C1377 C1378 1.412 . S
C1377 C1398 1.485 . S
C1378 C1377 1.412 . S
C1378 C1379 1.388 . S
C1378 C1404 1.490 . S
C1379 C1374 1.397 . S
C1379 C1378 1.388 . S
C1379 C1410 1.519 . S
C1380 C1374 1.492 . S
C1380 C1381 1.363 . S
C1380 C1385 1.390 . S
C1381 H1346 0.930 . S
C1381 C1380 1.363 . S
C1381 C1382 1.372 . S
C1382 H1347 0.930 . S
C1382 C1381 1.372 . S
C1382 C1383 1.383 . S
C1383 C1382 1.383 . S
C1383 C1384 1.395 . S
C1384 H1348 0.930 . S
C1384 C1383 1.395 . S
C1384 C1385 1.362 . S
C1385 H1349 0.930 . S
C1385 C1380 1.390 . S
C1385 C1384 1.362 . S
C1386 C1375 1.492 . S
C1386 C1387 1.377 . S
C1386 C1391 1.397 . S
C1387 H1350 0.931 . S
C1387 C1386 1.377 . S
C1387 C1388 1.376 . S
C1388 H1351 0.930 . S
C1388 C1387 1.376 . S
C1388 C1389 1.376 . S
C1389 C1388 1.376 . S
C1389 C1390 1.378 . S
C1389 C1416 1.486 . S
C1390 H1352 0.930 . S
C1390 C1389 1.378 . S
C1390 C1391 1.376 . S
C1391 H1353 0.929 . S
C1391 C1386 1.397 . S
C1391 C1390 1.376 . S
C1392 C1376 1.509 . S
C1392 C1393 1.391 . S
C1392 C1397 1.386 . S
C1393 H1354 0.930 . S
C1393 C1392 1.391 . S
C1393 C1394 1.375 . S
C1394 H1355 0.931 . S
C1394 C1393 1.375 . S
C1394 C1395 1.375 . S
C1395 C1394 1.375 . S
C1395 C1396 1.361 . S
C1396 H1356 0.930 . S
C1396 C1395 1.361 . S
C1396 C1397 1.399 . S
C1397 H1357 0.929 . S
C1397 C1392 1.386 . S
C1397 C1396 1.399 . S
C1398 C1377 1.485 . S
C1398 C1399 1.394 . S
C1398 C1403 1.360 . S
C1399 H1358 0.931 . S
C1399 C1398 1.394 . S
C1399 C1400 1.372 . S
C1400 H1359 0.930 . S
C1400 C1399 1.372 . S
C1400 C1401 1.397 . S
C1401 C1400 1.397 . S
C1401 C1402 1.390 . S
C1401 C1417 1.476 . S
C1402 H1360 0.930 . S
C1402 C1401 1.390 . S
C1402 C1403 1.366 . S
C1403 H1361 0.932 . S
C1403 C1398 1.360 . S
C1403 C1402 1.366 . S
C1404 C1378 1.490 . S
C1404 C1405 1.380 . S
C1404 C1409 1.386 . S
C1405 H1362 0.930 . S
C1405 C1404 1.380 . S
C1405 C1406 1.381 . S
C1406 H1363 0.929 . S
C1406 C1405 1.381 . S
C1406 C1407 1.371 . S
C1407 C1406 1.371 . S
C1407 C1408 1.380 . S
C1408 H1364 0.931 . S
C1408 C1407 1.380 . S
C1408 C1409 1.387 . S
C1409 H1365 0.930 . S
C1409 C1404 1.386 . S
C1409 C1408 1.387 . S
C1410 C1379 1.519 . S
C1410 C1411 1.377 . S
C1410 C1415 1.361 . S
C1411 H1366 0.929 . S
C1411 C1410 1.377 . S
C1411 C1412 1.386 . S
C1412 H1367 0.931 . S
C1412 C1411 1.386 . S
C1412 C1413 1.363 . S
C1413 C1412 1.363 . S
C1413 C1414 1.385 . S
C1414 H1368 0.930 . S
C1414 C1413 1.385 . S
C1414 C1415 1.396 . S
C1415 H1369 0.929 . S
C1415 C1410 1.361 . S
C1415 C1414 1.396 . S
C1416 O1370 1.300 . S
C1416 O1371 1.209 . S
C1416 C1389 1.486 . S
C1417 O1372 1.199 . S
C1417 O1373 1.297 . S
C1417 C1401 1.476 . S
H1418 O1444 0.856 . S
H1419 O1447 0.854 . S
H1420 C1455 0.930 . S
H1421 C1456 0.930 . S
H1422 C1458 0.930 . S
H1423 C1459 0.930 . S
H1424 C1461 0.931 . S
H1425 C1462 0.930 . S
H1426 C1464 0.930 . S
H1427 C1465 0.929 . S
H1428 C1467 0.930 . S
H1429 C1468 0.931 . S
H1430 C1470 0.930 . S
H1431 C1471 0.929 . S
H1432 C1473 0.931 . S
H1433 C1474 0.930 . S
H1434 C1476 0.930 . S
H1435 C1477 0.932 . S
H1436 C1479 0.930 . S
H1437 C1480 0.929 . S
H1438 C1482 0.931 . S
H1439 C1483 0.930 . S
H1440 C1485 0.929 . S
H1441 C1486 0.931 . S
H1442 C1488 0.930 . S
H1443 C1489 0.929 . S
O1444 H1418 0.856 . S
O1444 C1490 1.300 . S
O1445 C1490 1.209 . S
O1446 C1491 1.199 . S
O1447 H1419 0.854 . S
O1447 C1491 1.297 . S
C1448 C1449 1.404 . S
C1448 C1453 1.397 . S
C1448 C1454 1.492 . S
C1449 C1448 1.404 . S
C1449 C1450 1.396 . S
C1449 C1460 1.492 . S
C1450 C1449 1.396 . S
C1450 C1451 1.397 . S
C1450 C1466 1.509 . S
C1451 C1450 1.397 . S
C1451 C1452 1.412 . S
C1451 C1472 1.485 . S
C1452 C1451 1.412 . S
C1452 C1453 1.388 . S
C1452 C1478 1.490 . S
C1453 C1448 1.397 . S
C1453 C1452 1.388 . S
C1453 C1484 1.519 . S
C1454 C1448 1.492 . S
C1454 C1455 1.363 . S
C1454 C1459 1.390 . S
C1455 H1420 0.930 . S
C1455 C1454 1.363 . S
C1455 C1456 1.372 . S
C1456 H1421 0.930 . S
C1456 C1455 1.372 . S
C1456 C1457 1.383 . S
C1457 C1456 1.383 . S
C1457 C1458 1.395 . S
C1458 H1422 0.930 . S
C1458 C1457 1.395 . S
C1458 C1459 1.362 . S
C1459 H1423 0.930 . S
C1459 C1454 1.390 . S
C1459 C1458 1.362 . S
C1460 C1449 1.492 . S
C1460 C1461 1.377 . S
C1460 C1465 1.397 . S
C1461 H1424 0.931 . S
C1461 C1460 1.377 . S
C1461 C1462 1.376 . S
C1462 H1425 0.930 . S
C1462 C1461 1.376 . S
C1462 C1463 1.376 . S
C1463 C1462 1.376 . S
C1463 C1464 1.378 . S
C1463 C1490 1.486 . S
C1464 H1426 0.930 . S
C1464 C1463 1.378 . S
C1464 C1465 1.376 . S
C1465 H1427 0.929 . S
C1465 C1460 1.397 . S
C1465 C1464 1.376 . S
C1466 C1450 1.509 . S
C1466 C1467 1.391 . S
C1466 C1471 1.386 . S
C1467 H1428 0.930 . S
C1467 C1466 1.391 . S
C1467 C1468 1.375 . S
C1468 H1429 0.931 . S
C1468 C1467 1.375 . S
C1468 C1469 1.375 . S
C1469 C1468 1.375 . S
C1469 C1470 1.361 . S
C1470 H1430 0.930 . S
C1470 C1469 1.361 . S
C1470 C1471 1.399 . S
C1471 H1431 0.929 . S
C1471 C1466 1.386 . S
C1471 C1470 1.399 . S
C1472 C1451 1.485 . S
C1472 C1473 1.394 . S
C1472 C1477 1.360 . S
C1473 H1432 0.931 . S
C1473 C1472 1.394 . S
C1473 C1474 1.372 . S
C1474 H1433 0.930 . S
C1474 C1473 1.372 . S
C1474 C1475 1.397 . S
C1475 C1474 1.397 . S
C1475 C1476 1.390 . S
C1475 C1491 1.476 . S
C1476 H1434 0.930 . S
C1476 C1475 1.390 . S
C1476 C1477 1.366 . S
C1477 H1435 0.932 . S
C1477 C1472 1.360 . S
C1477 C1476 1.366 . S
C1478 C1452 1.490 . S
C1478 C1479 1.380 . S
C1478 C1483 1.386 . S
C1479 H1436 0.930 . S
C1479 C1478 1.380 . S
C1479 C1480 1.381 . S
C1480 H1437 0.929 . S
C1480 C1479 1.381 . S
C1480 C1481 1.371 . S
C1481 C1480 1.371 . S
C1481 C1482 1.380 . S
C1482 H1438 0.931 . S
C1482 C1481 1.380 . S
C1482 C1483 1.387 . S
C1483 H1439 0.930 . S
C1483 C1478 1.386 . S
C1483 C1482 1.387 . S
C1484 C1453 1.519 . S
C1484 C1485 1.377 . S
C1484 C1489 1.361 . S
C1485 H1440 0.929 . S
C1485 C1484 1.377 . S
C1485 C1486 1.386 . S
C1486 H1441 0.931 . S
C1486 C1485 1.386 . S
C1486 C1487 1.363 . S
C1487 C1486 1.363 . S
C1487 C1488 1.385 . S
C1488 H1442 0.930 . S
C1488 C1487 1.385 . S
C1488 C1489 1.396 . S
C1489 H1443 0.929 . S
C1489 C1484 1.361 . S
C1489 C1488 1.396 . S
C1490 O1444 1.300 . S
C1490 O1445 1.209 . S
C1490 C1463 1.486 . S
C1491 O1446 1.199 . S
C1491 O1447 1.297 . S
C1491 C1475 1.476 . S
H1492 O1518 0.856 . S
H1493 O1521 0.854 . S
H1494 C1529 0.930 . S
H1495 C1530 0.930 . S
H1496 C1532 0.930 . S
H1497 C1533 0.930 . S
H1498 C1535 0.931 . S
H1499 C1536 0.930 . S
H1500 C1538 0.930 . S
H1501 C1539 0.929 . S
H1502 C1541 0.930 . S
H1503 C1542 0.931 . S
H1504 C1544 0.930 . S
H1505 C1545 0.929 . S
H1506 C1547 0.931 . S
H1507 C1548 0.930 . S
H1508 C1550 0.930 . S
H1509 C1551 0.932 . S
H1510 C1553 0.930 . S
H1511 C1554 0.929 . S
H1512 C1556 0.931 . S
H1513 C1557 0.930 . S
H1514 C1559 0.929 . S
H1515 C1560 0.931 . S
H1516 C1562 0.930 . S
H1517 C1563 0.929 . S
O1518 H1492 0.856 . S
O1518 C1564 1.300 . S
O1519 C1564 1.209 . S
O1520 C1565 1.199 . S
O1521 H1493 0.854 . S
O1521 C1565 1.297 . S
C1522 C1523 1.404 . S
C1522 C1527 1.397 . S
C1522 C1528 1.492 . S
C1523 C1522 1.404 . S
C1523 C1524 1.396 . S
C1523 C1534 1.492 . S
C1524 C1523 1.396 . S
C1524 C1525 1.397 . S
C1524 C1540 1.509 . S
C1525 C1524 1.397 . S
C1525 C1526 1.412 . S
C1525 C1546 1.485 . S
C1526 C1525 1.412 . S
C1526 C1527 1.388 . S
C1526 C1552 1.490 . S
C1527 C1522 1.397 . S
C1527 C1526 1.388 . S
C1527 C1558 1.519 . S
C1528 C1522 1.492 . S
C1528 C1529 1.363 . S
C1528 C1533 1.390 . S
C1529 H1494 0.930 . S
C1529 C1528 1.363 . S
C1529 C1530 1.372 . S
C1530 H1495 0.930 . S
C1530 C1529 1.372 . S
C1530 C1531 1.383 . S
C1531 C1530 1.383 . S
C1531 C1532 1.395 . S
C1532 H1496 0.930 . S
C1532 C1531 1.395 . S
C1532 C1533 1.362 . S
C1533 H1497 0.930 . S
C1533 C1528 1.390 . S
C1533 C1532 1.362 . S
C1534 C1523 1.492 . S
C1534 C1535 1.377 . S
C1534 C1539 1.397 . S
C1535 H1498 0.931 . S
C1535 C1534 1.377 . S
C1535 C1536 1.376 . S
C1536 H1499 0.930 . S
C1536 C1535 1.376 . S
C1536 C1537 1.376 . S
C1537 C1536 1.376 . S
C1537 C1538 1.378 . S
C1537 C1564 1.486 . S
C1538 H1500 0.930 . S
C1538 C1537 1.378 . S
C1538 C1539 1.376 . S
C1539 H1501 0.929 . S
C1539 C1534 1.397 . S
C1539 C1538 1.376 . S
C1540 C1524 1.509 . S
C1540 C1541 1.391 . S
C1540 C1545 1.386 . S
C1541 H1502 0.930 . S
C1541 C1540 1.391 . S
C1541 C1542 1.375 . S
C1542 H1503 0.931 . S
C1542 C1541 1.375 . S
C1542 C1543 1.375 . S
C1543 C1542 1.375 . S
C1543 C1544 1.361 . S
C1544 H1504 0.930 . S
C1544 C1543 1.361 . S
C1544 C1545 1.399 . S
C1545 H1505 0.929 . S
C1545 C1540 1.386 . S
C1545 C1544 1.399 . S
C1546 C1525 1.485 . S
C1546 C1547 1.394 . S
C1546 C1551 1.360 . S
C1547 H1506 0.931 . S
C1547 C1546 1.394 . S
C1547 C1548 1.372 . S
C1548 H1507 0.930 . S
C1548 C1547 1.372 . S
C1548 C1549 1.397 . S
C1549 C1548 1.397 . S
C1549 C1550 1.390 . S
C1549 C1565 1.476 . S
C1550 H1508 0.930 . S
C1550 C1549 1.390 . S
C1550 C1551 1.366 . S
C1551 H1509 0.932 . S
C1551 C1546 1.360 . S
C1551 C1550 1.366 . S
C1552 C1526 1.490 . S
C1552 C1553 1.380 . S
C1552 C1557 1.386 . S
C1553 H1510 0.930 . S
C1553 C1552 1.380 . S
C1553 C1554 1.381 . S
C1554 H1511 0.929 . S
C1554 C1553 1.381 . S
C1554 C1555 1.371 . S
C1555 C1554 1.371 . S
C1555 C1556 1.380 . S
C1556 H1512 0.931 . S
C1556 C1555 1.380 . S
C1556 C1557 1.387 . S
C1557 H1513 0.930 . S
C1557 C1552 1.386 . S
C1557 C1556 1.387 . S
C1558 C1527 1.519 . S
C1558 C1559 1.377 . S
C1558 C1563 1.361 . S
C1559 H1514 0.929 . S
C1559 C1558 1.377 . S
C1559 C1560 1.386 . S
C1560 H1515 0.931 . S
C1560 C1559 1.386 . S
C1560 C1561 1.363 . S
C1561 C1560 1.363 . S
C1561 C1562 1.385 . S
C1562 H1516 0.930 . S
C1562 C1561 1.385 . S
C1562 C1563 1.396 . S
C1563 H1517 0.929 . S
C1563 C1558 1.361 . S
C1563 C1562 1.396 . S
C1564 O1518 1.300 . S
C1564 O1519 1.209 . S
C1564 C1537 1.486 . S
C1565 O1520 1.199 . S
C1565 O1521 1.297 . S
C1565 C1549 1.476 . S
C1566 C1567 1.391 1_455 S
C1566 C1568 1.394 . S
C1566 H1582 0.931 . S
C1567 C1566 1.391 1_655 S
C1567 C1571 1.376 . S
C1568 C1566 1.394 . S
C1568 C1569 1.369 1_455 S
C1568 C1572 1.531 . S
C1569 C1568 1.369 1_655 S
C1569 C1570 1.410 . S
C1569 C1577 1.503 . S
C1570 C1569 1.410 . S
C1570 C1571 1.392 . S
C1570 C1573 1.511 . S
C1571 C1567 1.376 . S
C1571 C1570 1.392 . S
C1571 H1583 0.929 . S
C1572 C1568 1.531 . S
C1572 H1584 0.960 . S
C1572 H1585 0.962 . S
C1572 H1586 0.960 . S
C1573 C1570 1.511 . S
C1573 H1587 0.961 . S
C1573 H1588 0.961 . S
C1573 H1589 0.961 . S
C1574 C1575 1.370 . S
C1574 C1576 1.363 . S
C1574 H1590 0.931 . S
C1575 C1574 1.370 . S
C1575 C1579 1.408 . S
C1576 C1574 1.363 . S
C1576 C1577 1.370 . S
C1576 C1580 1.524 . S
C1577 C1569 1.503 . S
C1577 C1576 1.370 . S
C1577 C1578 1.403 . S
C1578 C1577 1.403 . S
C1578 C1579 1.404 . S
C1578 C1581 1.539 1_655 S
C1579 C1575 1.408 . S
C1579 C1578 1.404 . S
C1579 H1591 0.930 . S
C1580 C1576 1.524 . S
C1580 H1592 0.956 . S
C1580 H1593 0.961 . S
C1580 H1594 0.961 . S
C1581 C1578 1.539 1_455 S
C1581 H1595 0.958 . S
C1581 H1596 0.961 1_455 S
C1581 H1597 0.960 1_455 S
H1582 C1566 0.931 . S
H1583 C1571 0.929 . S
H1584 C1572 0.960 . S
H1585 C1572 0.962 . S
H1586 C1572 0.960 . S
H1587 C1573 0.961 . S
H1588 C1573 0.961 . S
H1589 C1573 0.961 . S
H1590 C1574 0.931 . S
H1591 C1579 0.930 . S
H1592 C1580 0.956 . S
H1593 C1580 0.961 . S
H1594 C1580 0.961 . S
H1595 C1581 0.958 . S
H1596 C1581 0.961 1_655 S
H1597 C1581 0.960 1_655 S
C1598 C1599 1.391 . S
C1598 C1600 1.394 . S
C1598 H1614 0.931 . S
C1599 C1598 1.391 . S
C1599 C1603 1.376 . S
C1600 C1598 1.394 . S
C1600 C1601 1.369 . S
C1600 C1604 1.531 . S
C1601 C1600 1.369 . S
C1601 C1602 1.410 . S
C1601 C1609 1.503 . S
C1602 C1601 1.410 . S
C1602 C1603 1.392 . S
C1602 C1605 1.511 . S
C1603 C1599 1.376 . S
C1603 C1602 1.392 . S
C1603 H1615 0.929 . S
C1604 C1600 1.531 . S
C1604 H1616 0.960 . S
C1604 H1617 0.962 . S
C1604 H1618 0.960 . S
C1605 C1602 1.511 . S
C1605 H1619 0.961 . S
C1605 H1620 0.961 . S
C1605 H1621 0.961 . S
C1606 C1607 1.370 . S
C1606 C1608 1.363 . S
C1606 H1622 0.931 . S
C1607 C1606 1.370 . S
C1607 C1611 1.408 . S
C1608 C1606 1.363 . S
C1608 C1609 1.370 . S
C1608 C1612 1.524 . S
C1609 C1601 1.503 . S
C1609 C1608 1.370 . S
C1609 C1610 1.403 . S
C1610 C1609 1.403 . S
C1610 C1611 1.404 . S
C1610 C1613 1.539 . S
C1611 C1607 1.408 . S
C1611 C1610 1.404 . S
C1611 H1623 0.930 . S
C1612 C1608 1.524 . S
C1612 H1624 0.956 . S
C1612 H1625 0.961 . S
C1612 H1626 0.961 . S
C1613 C1610 1.539 . S
C1613 H1627 0.958 . S
C1613 H1628 0.961 . S
C1613 H1629 0.960 . S
H1614 C1598 0.931 . S
H1615 C1603 0.929 . S
H1616 C1604 0.960 . S
H1617 C1604 0.962 . S
H1618 C1604 0.960 . S
H1619 C1605 0.961 . S
H1620 C1605 0.961 . S
H1621 C1605 0.961 . S
H1622 C1606 0.931 . S
H1623 C1611 0.930 . S
H1624 C1612 0.956 . S
H1625 C1612 0.961 . S
H1626 C1612 0.961 . S
H1627 C1613 0.958 . S
H1628 C1613 0.961 . S
H1629 C1613 0.960 . S
C1630 C1631 1.391 . S
C1630 C1632 1.394 . S
C1630 H1646 0.931 . S
C1631 C1630 1.391 . S
C1631 C1635 1.376 . S
C1632 C1630 1.394 . S
C1632 C1633 1.369 . S
C1632 C1636 1.531 . S
C1633 C1632 1.369 . S
C1633 C1634 1.410 . S
C1633 C1641 1.503 . S
C1634 C1633 1.410 . S
C1634 C1635 1.392 . S
C1634 C1637 1.511 . S
C1635 C1631 1.376 . S
C1635 C1634 1.392 . S
C1635 H1647 0.929 . S
C1636 C1632 1.531 . S
C1636 H1648 0.960 . S
C1636 H1649 0.962 1_545 S
C1636 H1650 0.960 . S
C1637 C1634 1.511 . S
C1637 H1651 0.961 . S
C1637 H1652 0.961 . S
C1637 H1653 0.961 . S
C1638 C1639 1.370 . S
C1638 C1640 1.363 . S
C1638 H1654 0.931 1_545 S
C1639 C1638 1.370 . S
C1639 C1643 1.408 . S
C1640 C1638 1.363 . S
C1640 C1641 1.370 . S
C1640 C1644 1.524 1_545 S
C1641 C1633 1.503 . S
C1641 C1640 1.370 . S
C1641 C1642 1.403 . S
C1642 C1641 1.403 . S
C1642 C1643 1.404 . S
C1642 C1645 1.539 . S
C1643 C1639 1.408 . S
C1643 C1642 1.404 . S
C1643 H1655 0.930 . S
C1644 C1640 1.524 1_565 S
C1644 H1656 0.956 . S
C1644 H1657 0.961 . S
C1644 H1658 0.961 . S
C1645 C1642 1.539 . S
C1645 H1659 0.958 . S
C1645 H1660 0.961 . S
C1645 H1661 0.960 . S
H1646 C1630 0.931 . S
H1647 C1635 0.929 . S
H1648 C1636 0.960 . S
H1649 C1636 0.962 1_565 S
H1650 C1636 0.960 . S
H1651 C1637 0.961 . S
H1652 C1637 0.961 . S
H1653 C1637 0.961 . S
H1654 C1638 0.931 1_565 S
H1655 C1643 0.930 . S
H1656 C1644 0.956 . S
H1657 C1644 0.961 . S
H1658 C1644 0.961 . S
H1659 C1645 0.958 . S
H1660 C1645 0.961 . S
H1661 C1645 0.960 . S
C1662 C1663 1.391 . S
C1662 C1664 1.394 . S
C1662 H1678 0.931 . S
C1663 C1662 1.391 . S
C1663 C1667 1.376 1_565 S
C1664 C1662 1.394 . S
C1664 C1665 1.369 . S
C1664 C1668 1.531 . S
C1665 C1664 1.369 . S
C1665 C1666 1.410 1_565 S
C1665 C1673 1.503 . S
C1666 C1665 1.410 1_545 S
C1666 C1667 1.392 . S
C1666 C1669 1.511 . S
C1667 C1663 1.376 1_545 S
C1667 C1666 1.392 . S
C1667 H1679 0.929 . S
C1668 C1664 1.531 . S
C1668 H1680 0.960 . S
C1668 H1681 0.962 . S
C1668 H1682 0.960 . S
C1669 C1666 1.511 . S
C1669 H1683 0.961 . S
C1669 H1684 0.961 . S
C1669 H1685 0.961 . S
C1670 C1671 1.370 . S
C1670 C1672 1.363 . S
C1670 H1686 0.931 . S
C1671 C1670 1.370 . S
C1671 C1675 1.408 . S
C1672 C1670 1.363 . S
C1672 C1673 1.370 . S
C1672 C1676 1.524 1_565 S
C1673 C1665 1.503 . S
C1673 C1672 1.370 . S
C1673 C1674 1.403 . S
C1674 C1673 1.403 . S
C1674 C1675 1.404 . S
C1674 C1677 1.539 . S
C1675 C1671 1.408 . S
C1675 C1674 1.404 . S
C1675 H1687 0.930 . S
C1676 C1672 1.524 1_545 S
C1676 H1688 0.956 1_545 S
C1676 H1689 0.961 . S
C1676 H1690 0.961 . S
C1677 C1674 1.539 . S
C1677 H1691 0.958 . S
C1677 H1692 0.961 . S
C1677 H1693 0.960 . S
H1678 C1662 0.931 . S
H1679 C1667 0.929 . S
H1680 C1668 0.960 . S
H1681 C1668 0.962 . S
H1682 C1668 0.960 . S
H1683 C1669 0.961 . S
H1684 C1669 0.961 . S
H1685 C1669 0.961 . S
H1686 C1670 0.931 . S
H1687 C1675 0.930 . S
H1688 C1676 0.956 1_565 S
H1689 C1676 0.961 . S
H1690 C1676 0.961 . S
H1691 C1677 0.958 . S
H1692 C1677 0.961 . S
H1693 C1677 0.960 . S
C1694 C1695 1.391 . S
C1694 C1696 1.394 . S
C1694 H1710 0.931 1_455 S
C1695 C1694 1.391 . S
C1695 C1699 1.376 . S
C1696 C1694 1.394 . S
C1696 C1697 1.369 . S
C1696 C1700 1.531 1_455 S
C1697 C1696 1.369 . S
C1697 C1698 1.410 . S
C1697 C1705 1.503 . S
C1698 C1697 1.410 . S
C1698 C1699 1.392 . S
C1698 C1701 1.511 . S
C1699 C1695 1.376 . S
C1699 C1698 1.392 . S
C1699 H1711 0.929 . S
C1700 C1696 1.531 1_655 S
C1700 H1712 0.960 . S
C1700 H1713 0.962 . S
C1700 H1714 0.960 . S
C1701 C1698 1.511 . S
C1701 H1715 0.961 . S
C1701 H1716 0.961 . S
C1701 H1717 0.961 . S
C1702 C1703 1.370 . S
C1702 C1704 1.363 . S
C1702 H1718 0.931 1_455 S
C1703 C1702 1.370 . S
C1703 C1707 1.408 . S
C1704 C1702 1.363 . S
C1704 C1705 1.370 . S
C1704 C1708 1.524 1_455 S
C1705 C1697 1.503 . S
C1705 C1704 1.370 . S
C1705 C1706 1.403 . S
C1706 C1705 1.403 . S
C1706 C1707 1.404 . S
C1706 C1709 1.539 . S
C1707 C1703 1.408 . S
C1707 C1706 1.404 . S
C1707 H1719 0.930 . S
C1708 C1704 1.524 1_655 S
C1708 H1720 0.956 . S
C1708 H1721 0.961 1_655 S
C1708 H1722 0.961 . S
C1709 C1706 1.539 . S
C1709 H1723 0.958 . S
C1709 H1724 0.961 . S
C1709 H1725 0.960 . S
H1710 C1694 0.931 1_655 S
H1711 C1699 0.929 . S
H1712 C1700 0.960 . S
H1713 C1700 0.962 . S
H1714 C1700 0.960 . S
H1715 C1701 0.961 . S
H1716 C1701 0.961 . S
H1717 C1701 0.961 . S
H1718 C1702 0.931 1_655 S
H1719 C1707 0.930 . S
H1720 C1708 0.956 . S
H1721 C1708 0.961 1_455 S
H1722 C1708 0.961 . S
H1723 C1709 0.958 . S
H1724 C1709 0.961 . S
H1725 C1709 0.960 . S
C1726 C1727 1.391 . S
C1726 C1728 1.394 1_554 S
C1726 H1742 0.931 . S
C1727 C1726 1.391 . S
C1727 C1731 1.376 . S
C1728 C1726 1.394 1_556 S
C1728 C1729 1.369 . S
C1728 C1732 1.531 . S
C1729 C1728 1.369 . S
C1729 C1730 1.410 1_556 S
C1729 C1737 1.503 . S
C1730 C1729 1.410 1_554 S
C1730 C1731 1.392 . S
C1730 C1733 1.511 . S
C1731 C1727 1.376 . S
C1731 C1730 1.392 . S
C1731 H1743 0.929 . S
C1732 C1728 1.531 . S
C1732 H1744 0.960 . S
C1732 H1745 0.962 . S
C1732 H1746 0.960 . S
C1733 C1730 1.511 . S
C1733 H1747 0.961 . S
C1733 H1748 0.961 1_554 S
C1733 H1749 0.961 . S
C1734 C1735 1.370 . S
C1734 C1736 1.363 . S
C1734 H1750 0.931 . S
C1735 C1734 1.370 . S
C1735 C1739 1.408 . S
C1736 C1734 1.363 . S
C1736 C1737 1.370 . S
C1736 C1740 1.524 . S
C1737 C1729 1.503 . S
C1737 C1736 1.370 . S
C1737 C1738 1.403 . S
C1738 C1737 1.403 . S
C1738 C1739 1.404 . S
C1738 C1741 1.539 . S
C1739 C1735 1.408 . S
C1739 C1738 1.404 . S
C1739 H1751 0.930 . S
C1740 C1736 1.524 . S
C1740 H1752 0.956 . S
C1740 H1753 0.961 . S
C1740 H1754 0.961 . S
C1741 C1738 1.539 . S
C1741 H1755 0.958 . S
C1741 H1756 0.961 . S
C1741 H1757 0.960 . S
H1742 C1726 0.931 . S
H1743 C1731 0.929 . S
H1744 C1732 0.960 . S
H1745 C1732 0.962 . S
H1746 C1732 0.960 . S
H1747 C1733 0.961 . S
H1748 C1733 0.961 1_556 S
H1749 C1733 0.961 . S
H1750 C1734 0.931 . S
H1751 C1739 0.930 . S
H1752 C1740 0.956 . S
H1753 C1740 0.961 . S
H1754 C1740 0.961 . S
H1755 C1741 0.958 . S
H1756 C1741 0.961 . S
H1757 C1741 0.960 . S
C1758 C1759 1.391 . S
C1758 C1760 1.394 1_554 S
C1758 H1774 0.931 . S
C1759 C1758 1.391 . S
C1759 C1763 1.376 1_454 S
C1760 C1758 1.394 1_556 S
C1760 C1761 1.369 . S
C1760 C1764 1.531 . S
C1761 C1760 1.369 . S
C1761 C1762 1.410 1_455 S
C1761 C1769 1.503 . S
C1762 C1761 1.410 1_655 S
C1762 C1763 1.392 . S
C1762 C1765 1.511 . S
C1763 C1759 1.376 1_656 S
C1763 C1762 1.392 . S
C1763 H1775 0.929 . S
C1764 C1760 1.531 . S
C1764 H1776 0.960 . S
C1764 H1777 0.962 . S
C1764 H1778 0.960 1_556 S
C1765 C1762 1.511 . S
C1765 H1779 0.961 . S
C1765 H1780 0.961 . S
C1765 H1781 0.961 . S
C1766 C1767 1.370 . S
C1766 C1768 1.363 . S
C1766 H1782 0.931 . S
C1767 C1766 1.370 . S
C1767 C1771 1.408 1_455 S
C1768 C1766 1.363 . S
C1768 C1769 1.370 . S
C1768 C1772 1.524 . S
C1769 C1761 1.503 . S
C1769 C1768 1.370 . S
C1769 C1770 1.403 1_455 S
C1770 C1769 1.403 1_655 S
C1770 C1771 1.404 . S
C1770 C1773 1.539 . S
C1771 C1767 1.408 1_655 S
C1771 C1770 1.404 . S
C1771 H1783 0.930 . S
C1772 C1768 1.524 . S
C1772 H1784 0.956 . S
C1772 H1785 0.961 . S
C1772 H1786 0.961 . S
C1773 C1770 1.539 . S
C1773 H1787 0.958 . S
C1773 H1788 0.961 . S
C1773 H1789 0.960 . S
H1774 C1758 0.931 . S
H1775 C1763 0.929 . S
H1776 C1764 0.960 . S
H1777 C1764 0.962 . S
H1778 C1764 0.960 1_554 S
H1779 C1765 0.961 . S
H1780 C1765 0.961 . S
H1781 C1765 0.961 . S
H1782 C1766 0.931 . S
H1783 C1771 0.930 . S
H1784 C1772 0.956 . S
H1785 C1772 0.961 . S
H1786 C1772 0.961 . S
H1787 C1773 0.958 . S
H1788 C1773 0.961 . S
H1789 C1773 0.960 . S
C1790 C1791 1.391 . S
C1790 C1792 1.394 . S
C1790 H1806 0.931 . S
C1791 C1790 1.391 . S
C1791 C1795 1.376 . S
C1792 C1790 1.394 . S
C1792 C1793 1.369 . S
C1792 C1796 1.531 . S
C1793 C1792 1.369 . S
C1793 C1794 1.410 . S
C1793 C1801 1.503 . S
C1794 C1793 1.410 . S
C1794 C1795 1.392 . S
C1794 C1797 1.511 . S
C1795 C1791 1.376 . S
C1795 C1794 1.392 . S
C1795 H1807 0.929 . S
C1796 C1792 1.531 . S
C1796 H1808 0.960 . S
C1796 H1809 0.962 . S
C1796 H1810 0.960 . S
C1797 C1794 1.511 . S
C1797 H1811 0.961 . S
C1797 H1812 0.961 . S
C1797 H1813 0.961 . S
C1798 C1799 1.370 . S
C1798 C1800 1.363 . S
C1798 H1814 0.931 . S
C1799 C1798 1.370 . S
C1799 C1803 1.408 . S
C1800 C1798 1.363 . S
C1800 C1801 1.370 . S
C1800 C1804 1.524 . S
C1801 C1793 1.503 . S
C1801 C1800 1.370 . S
C1801 C1802 1.403 . S
C1802 C1801 1.403 . S
C1802 C1803 1.404 . S
C1802 C1805 1.539 . S
C1803 C1799 1.408 . S
C1803 C1802 1.404 . S
C1803 H1815 0.930 . S
C1804 C1800 1.524 . S
C1804 H1816 0.956 . S
C1804 H1817 0.961 . S
C1804 H1818 0.961 . S
C1805 C1802 1.539 . S
C1805 H1819 0.958 . S
C1805 H1820 0.961 . S
C1805 H1821 0.960 . S
H1806 C1790 0.931 . S
H1807 C1795 0.929 . S
H1808 C1796 0.960 . S
H1809 C1796 0.962 . S
H1810 C1796 0.960 . S
H1811 C1797 0.961 . S
H1812 C1797 0.961 . S
H1813 C1797 0.961 . S
H1814 C1798 0.931 . S
H1815 C1803 0.930 . S
H1816 C1804 0.956 . S
H1817 C1804 0.961 . S
H1818 C1804 0.961 . S
H1819 C1805 0.958 . S
H1820 C1805 0.961 . S
H1821 C1805 0.960 . S
C1822 C1823 1.391 . S
C1822 C1824 1.428 . S
C1822 H1838 0.931 1_565 S
C1823 C1822 1.391 . S
C1823 C1827 1.376 . S
C1824 C1822 1.428 . S
C1824 C1825 1.368 . S
C1824 C1828 1.502 1_565 S
C1825 C1824 1.368 . S
C1825 C1826 1.410 . S
C1825 C1833 1.503 . S
C1826 C1825 1.410 . S
C1826 C1827 1.392 . S
C1826 C1829 1.511 . S
C1827 C1823 1.376 . S
C1827 C1826 1.392 . S
C1827 H1839 0.929 1_556 S
C1828 C1824 1.502 1_545 S
C1828 H1840 0.960 . S
C1828 H1841 0.962 . S
C1828 H1842 0.960 . S
C1829 C1826 1.511 . S
C1829 H1843 0.961 . S
C1829 H1844 0.961 . S
C1829 H1845 0.961 . S
C1830 C1831 1.370 1_545 S
C1830 C1832 1.363 . S
C1830 H1846 0.931 . S
C1831 C1830 1.370 1_565 S
C1831 C1835 1.408 . S
C1832 C1830 1.363 . S
C1832 C1833 1.370 1_545 S
C1832 C1836 1.524 . S
C1833 C1825 1.503 . S
C1833 C1832 1.370 1_565 S
C1833 C1834 1.403 . S
C1834 C1833 1.403 . S
C1834 C1835 1.404 . S
C1834 C1837 1.539 . S
C1835 C1831 1.408 . S
C1835 C1834 1.404 . S
C1835 H1847 0.930 . S
C1836 C1832 1.524 . S
C1836 H1848 0.956 . S
C1836 H1849 0.961 . S
C1836 H1850 0.961 . S
C1837 C1834 1.539 . S
C1837 H1851 0.958 . S
C1837 H1852 0.961 . S
C1837 H1853 0.960 . S
H1838 C1822 0.931 1_545 S
H1839 C1827 0.929 1_554 S
H1840 C1828 0.960 . S
H1841 C1828 0.962 . S
H1842 C1828 0.960 . S
H1843 C1829 0.961 . S
H1844 C1829 0.961 . S
H1845 C1829 0.961 . S
H1846 C1830 0.931 . S
H1847 C1835 0.930 . S
H1848 C1836 0.956 . S
H1849 C1836 0.961 . S
H1850 C1836 0.961 . S
H1851 C1837 0.958 . S
H1852 C1837 0.961 . S
H1853 C1837 0.960 . S
C1854 C1855 1.391 . S
C1854 C1856 1.394 . S
C1854 H1870 0.931 . S
C1855 C1854 1.391 . S
C1855 C1859 1.376 . S
C1856 C1854 1.394 . S
C1856 C1857 1.369 . S
C1856 C1860 1.531 . S
C1857 C1856 1.369 . S
C1857 C1858 1.410 . S
C1857 C1865 1.503 . S
C1858 C1857 1.410 . S
C1858 C1859 1.392 . S
C1858 C1861 1.511 1_545 S
C1859 C1855 1.376 . S
C1859 C1858 1.392 . S
C1859 H1871 0.929 1_545 S
C1860 C1856 1.531 . S
C1860 H1872 0.960 . S
C1860 H1873 0.962 . S
C1860 H1874 0.960 . S
C1861 C1858 1.511 1_565 S
C1861 H1875 0.961 . S
C1861 H1876 0.961 . S
C1861 H1877 0.961 . S
C1862 C1863 1.315 1_565 S
C1862 C1864 1.363 . S
C1862 H1878 0.931 . S
C1863 C1862 1.315 1_545 S
C1863 C1867 1.461 . S
C1864 C1862 1.363 . S
C1864 C1865 1.370 1_565 S
C1864 C1868 1.524 . S
C1865 C1857 1.503 . S
C1865 C1864 1.370 1_545 S
C1865 C1866 1.403 . S
C1866 C1865 1.403 . S
C1866 C1867 1.404 . S
C1866 C1869 1.539 . S
C1867 C1863 1.461 . S
C1867 C1866 1.404 . S
C1867 H1879 0.930 . S
C1868 C1864 1.524 . S
C1868 H1880 0.956 . S
C1868 H1881 0.961 . S
C1868 H1882 0.961 . S
C1869 C1866 1.539 . S
C1869 H1883 0.958 . S
C1869 H1884 0.961 . S
C1869 H1885 0.960 . S
H1870 C1854 0.931 . S
H1871 C1859 0.929 1_565 S
H1872 C1860 0.960 . S
H1873 C1860 0.962 . S
H1874 C1860 0.960 . S
H1875 C1861 0.961 . S
H1876 C1861 0.961 . S
H1877 C1861 0.961 . S
H1878 C1862 0.931 . S
H1879 C1867 0.930 . S
H1880 C1868 0.956 . S
H1881 C1868 0.961 . S
H1882 C1868 0.961 . S
H1883 C1869 0.958 . S
H1884 C1869 0.961 . S
H1885 C1869 0.960 . S
C1886 C1887 1.391 . S
C1886 C1888 1.393 . S
C1886 H1902 0.931 . S
C1887 C1886 1.391 . S
C1887 C1891 1.376 . S
C1888 C1886 1.393 . S
C1888 C1889 1.368 . S
C1888 C1892 1.532 1_655 S
C1889 C1888 1.368 . S
C1889 C1890 1.410 . S
C1889 C1897 1.503 . S
C1890 C1889 1.410 . S
C1890 C1891 1.392 . S
C1890 C1893 1.511 . S
C1891 C1887 1.376 . S
C1891 C1890 1.392 . S
C1891 H1903 0.929 . S
C1892 C1888 1.532 1_455 S
C1892 H1904 0.960 . S
C1892 H1905 0.962 1_455 S
C1892 H1906 0.960 . S
C1893 C1890 1.511 . S
C1893 H1907 0.961 . S
C1893 H1908 0.961 . S
C1893 H1909 0.961 1_655 S
C1894 C1895 1.429 . S
C1894 C1896 1.363 . S
C1894 H1910 0.931 . S
C1895 C1894 1.429 . S
C1895 C1899 1.375 1_655 S
C1896 C1894 1.363 . S
C1896 C1897 1.370 . S
C1896 C1900 1.524 . S
C1897 C1889 1.503 . S
C1897 C1896 1.370 . S
C1897 C1898 1.403 1_655 S
C1898 C1897 1.403 1_455 S
C1898 C1899 1.404 . S
C1898 C1901 1.539 . S
C1899 C1895 1.375 1_455 S
C1899 C1898 1.404 . S
C1899 H1911 0.930 . S
C1900 C1896 1.524 . S
C1900 H1912 0.956 . S
C1900 H1913 0.961 . S
C1900 H1914 0.961 . S
C1901 C1898 1.539 . S
C1901 H1915 0.958 . S
C1901 H1916 0.961 . S
C1901 H1917 0.960 . S
H1902 C1886 0.931 . S
H1903 C1891 0.929 . S
H1904 C1892 0.960 . S
H1905 C1892 0.962 1_655 S
H1906 C1892 0.960 . S
H1907 C1893 0.961 . S
H1908 C1893 0.961 . S
H1909 C1893 0.961 1_455 S
H1910 C1894 0.931 . S
H1911 C1899 0.930 . S
H1912 C1900 0.956 . S
H1913 C1900 0.961 . S
H1914 C1900 0.961 . S
H1915 C1901 0.958 . S
H1916 C1901 0.961 . S
H1917 C1901 0.960 . S
C1918 C1919 1.391 . S
C1918 C1920 1.394 . S
C1918 H1934 0.931 . S
C1919 C1918 1.391 . S
C1919 C1923 1.376 . S
C1920 C1918 1.394 . S
C1920 C1921 1.369 . S
C1920 C1924 1.531 . S
C1921 C1920 1.369 . S
C1921 C1922 1.410 . S
C1921 C1929 1.503 . S
C1922 C1921 1.410 . S
C1922 C1923 1.392 . S
C1922 C1925 1.511 . S
C1923 C1919 1.376 . S
C1923 C1922 1.392 . S
C1923 H1935 0.929 . S
C1924 C1920 1.531 . S
C1924 H1936 0.960 . S
C1924 H1937 0.962 . S
C1924 H1938 0.960 . S
C1925 C1922 1.511 . S
C1925 H1939 0.961 . S
C1925 H1940 0.961 . S
C1925 H1941 0.961 . S
C1926 C1927 1.370 . S
C1926 C1928 1.363 . S
C1926 H1942 0.931 . S
C1927 C1926 1.370 . S
C1927 C1931 1.408 . S
C1928 C1926 1.363 . S
C1928 C1929 1.370 . S
C1928 C1932 1.524 . S
C1929 C1921 1.503 . S
C1929 C1928 1.370 . S
C1929 C1930 1.403 . S
C1930 C1929 1.403 . S
C1930 C1931 1.404 . S
C1930 C1933 1.539 . S
C1931 C1927 1.408 . S
C1931 C1930 1.404 . S
C1931 H1943 0.930 . S
C1932 C1928 1.524 . S
C1932 H1944 0.956 . S
C1932 H1945 0.961 . S
C1932 H1946 0.961 . S
C1933 C1930 1.539 . S
C1933 H1947 0.958 . S
C1933 H1948 0.961 . S
C1933 H1949 0.960 . S
H1934 C1918 0.931 . S
H1935 C1923 0.929 . S
H1936 C1924 0.960 . S
H1937 C1924 0.962 . S
H1938 C1924 0.960 . S
H1939 C1925 0.961 . S
H1940 C1925 0.961 . S
H1941 C1925 0.961 . S
H1942 C1926 0.931 . S
H1943 C1931 0.930 . S
H1944 C1932 0.956 . S
H1945 C1932 0.961 . S
H1946 C1932 0.961 . S
H1947 C1933 0.958 . S
H1948 C1933 0.961 . S
H1949 C1933 0.960 . S
C1950 C1951 1.391 . S
C1950 C1952 1.394 . S
C1950 H1966 0.931 . S
C1951 C1950 1.391 . S
C1951 C1955 1.376 . S
C1952 C1950 1.394 . S
C1952 C1953 1.369 . S
C1952 C1956 1.531 . S
C1953 C1952 1.369 . S
C1953 C1954 1.410 . S
C1953 C1961 1.503 . S
C1954 C1953 1.410 . S
C1954 C1955 1.392 . S
C1954 C1957 1.511 . S
C1955 C1951 1.376 . S
C1955 C1954 1.392 . S
C1955 H1967 0.929 . S
C1956 C1952 1.531 . S
C1956 H1968 0.960 . S
C1956 H1969 0.962 . S
C1956 H1970 0.960 . S
C1957 C1954 1.511 . S
C1957 H1971 0.961 . S
C1957 H1972 0.961 . S
C1957 H1973 0.961 . S
C1958 C1959 1.370 . S
C1958 C1960 1.363 . S
C1958 H1974 0.931 . S
C1959 C1958 1.370 . S
C1959 C1963 1.408 . S
C1960 C1958 1.363 . S
C1960 C1961 1.370 . S
C1960 C1964 1.524 . S
C1961 C1953 1.503 . S
C1961 C1960 1.370 . S
C1961 C1962 1.403 . S
C1962 C1961 1.403 . S
C1962 C1963 1.404 . S
C1962 C1965 1.539 . S
C1963 C1959 1.408 . S
C1963 C1962 1.404 . S
C1963 H1975 0.930 . S
C1964 C1960 1.524 . S
C1964 H1976 0.956 . S
C1964 H1977 0.961 . S
C1964 H1978 0.961 . S
C1965 C1962 1.539 . S
C1965 H1979 0.958 . S
C1965 H1980 0.961 . S
C1965 H1981 0.960 . S
H1966 C1950 0.931 . S
H1967 C1955 0.929 . S
H1968 C1956 0.960 . S
H1969 C1956 0.962 . S
H1970 C1956 0.960 . S
H1971 C1957 0.961 . S
H1972 C1957 0.961 . S
H1973 C1957 0.961 . S
H1974 C1958 0.931 . S
H1975 C1963 0.930 . S
H1976 C1964 0.956 . S
H1977 C1964 0.961 . S
H1978 C1964 0.961 . S
H1979 C1965 0.958 . S
H1980 C1965 0.961 . S
H1981 C1965 0.960 . S
C1982 C1983 1.391 . S
C1982 C1984 1.394 . S
C1982 H1998 0.931 . S
C1983 C1982 1.391 . S
C1983 C1987 1.376 . S
C1984 C1982 1.394 . S
C1984 C1985 1.369 . S
C1984 C1988 1.531 . S
C1985 C1984 1.369 . S
C1985 C1986 1.410 . S
C1985 C1993 1.503 . S
C1986 C1985 1.410 . S
C1986 C1987 1.392 . S
C1986 C1989 1.511 . S
C1987 C1983 1.376 . S
C1987 C1986 1.392 . S
C1987 H1999 0.929 . S
C1988 C1984 1.531 . S
C1988 H2000 0.960 . S
C1988 H2001 0.962 . S
C1988 H2002 0.960 . S
C1989 C1986 1.511 . S
C1989 H2003 0.961 . S
C1989 H2004 0.961 . S
C1989 H2005 0.961 . S
C1990 C1991 1.370 . S
C1990 C1992 1.363 . S
C1990 H2006 0.931 . S
C1991 C1990 1.370 . S
C1991 C1995 1.408 . S
C1992 C1990 1.363 . S
C1992 C1993 1.370 . S
C1992 C1996 1.524 . S
C1993 C1985 1.503 . S
C1993 C1992 1.370 . S
C1993 C1994 1.403 . S
C1994 C1993 1.403 . S
C1994 C1995 1.404 . S
C1994 C1997 1.539 . S
C1995 C1991 1.408 . S
C1995 C1994 1.404 . S
C1995 H2007 0.930 . S
C1996 C1992 1.524 . S
C1996 H2008 0.956 . S
C1996 H2009 0.961 . S
C1996 H2010 0.961 . S
C1997 C1994 1.539 . S
C1997 H2011 0.958 . S
C1997 H2012 0.961 . S
C1997 H2013 0.960 . S
H1998 C1982 0.931 . S
H1999 C1987 0.929 . S
H2000 C1988 0.960 . S
H2001 C1988 0.962 . S
H2002 C1988 0.960 . S
H2003 C1989 0.961 . S
H2004 C1989 0.961 . S
H2005 C1989 0.961 . S
H2006 C1990 0.931 . S
H2007 C1995 0.930 . S
H2008 C1996 0.956 . S
H2009 C1996 0.961 . S
H2010 C1996 0.961 . S
H2011 C1997 0.958 . S
H2012 C1997 0.961 . S
H2013 C1997 0.960 . S
C2014 C2015 1.391 . S
C2014 C2016 1.394 . S
C2014 H2030 0.931 . S
C2015 C2014 1.391 . S
C2015 C2019 1.376 . S
C2016 C2014 1.394 . S
C2016 C2017 1.369 . S
C2016 C2020 1.531 . S
C2017 C2016 1.369 . S
C2017 C2018 1.410 . S
C2017 C2025 1.503 . S
C2018 C2017 1.410 . S
C2018 C2019 1.392 . S
C2018 C2021 1.511 . S
C2019 C2015 1.376 . S
C2019 C2018 1.392 . S
C2019 H2031 0.929 . S
C2020 C2016 1.531 . S
C2020 H2032 0.960 . S
C2020 H2033 0.962 . S
C2020 H2034 0.960 . S
C2021 C2018 1.511 . S
C2021 H2035 0.961 . S
C2021 H2036 0.961 . S
C2021 H2037 0.961 . S
C2022 C2023 1.370 . S
C2022 C2024 1.363 . S
C2022 H2038 0.931 . S
C2023 C2022 1.370 . S
C2023 C2027 1.408 . S
C2024 C2022 1.363 . S
C2024 C2025 1.370 . S
C2024 C2028 1.524 . S
C2025 C2017 1.503 . S
C2025 C2024 1.370 . S
C2025 C2026 1.403 . S
C2026 C2025 1.403 . S
C2026 C2027 1.404 . S
C2026 C2029 1.539 . S
C2027 C2023 1.408 . S
C2027 C2026 1.404 . S
C2027 H2039 0.930 . S
C2028 C2024 1.524 . S
C2028 H2040 0.956 . S
C2028 H2041 0.961 . S
C2028 H2042 0.961 . S
C2029 C2026 1.539 . S
C2029 H2043 0.958 . S
C2029 H2044 0.961 . S
C2029 H2045 0.960 . S
H2030 C2014 0.931 . S
H2031 C2019 0.929 . S
H2032 C2020 0.960 . S
H2033 C2020 0.962 . S
H2034 C2020 0.960 . S
H2035 C2021 0.961 . S
H2036 C2021 0.961 . S
H2037 C2021 0.961 . S
H2038 C2022 0.931 . S
H2039 C2027 0.930 . S
H2040 C2028 0.956 . S
H2041 C2028 0.961 . S
H2042 C2028 0.961 . S
H2043 C2029 0.958 . S
H2044 C2029 0.961 . S
H2045 C2029 0.960 . S
C2046 C2047 1.391 . S
C2046 C2048 1.394 . S
C2046 H2062 0.931 . S
C2047 C2046 1.391 . S
C2047 C2051 1.376 . S
C2048 C2046 1.394 . S
C2048 C2049 1.369 . S
C2048 C2052 1.531 . S
C2049 C2048 1.369 . S
C2049 C2050 1.410 . S
C2049 C2057 1.503 . S
C2050 C2049 1.410 . S
C2050 C2051 1.392 . S
C2050 C2053 1.511 . S
C2051 C2047 1.376 . S
C2051 C2050 1.392 . S
C2051 H2063 0.929 . S
C2052 C2048 1.531 . S
C2052 H2064 0.960 . S
C2052 H2065 0.962 . S
C2052 H2066 0.960 . S
C2053 C2050 1.511 . S
C2053 H2067 0.961 . S
C2053 H2068 0.961 . S
C2053 H2069 0.961 . S
C2054 C2055 1.370 . S
C2054 C2056 1.363 . S
C2054 H2070 0.931 . S
C2055 C2054 1.370 . S
C2055 C2059 1.408 . S
C2056 C2054 1.363 . S
C2056 C2057 1.370 . S
C2056 C2060 1.524 . S
C2057 C2049 1.503 . S
C2057 C2056 1.370 . S
C2057 C2058 1.403 . S
C2058 C2057 1.403 . S
C2058 C2059 1.404 . S
C2058 C2061 1.539 . S
C2059 C2055 1.408 . S
C2059 C2058 1.404 . S
C2059 H2071 0.930 . S
C2060 C2056 1.524 . S
C2060 H2072 0.956 . S
C2060 H2073 0.961 . S
C2060 H2074 0.961 . S
C2061 C2058 1.539 . S
C2061 H2075 0.958 . S
C2061 H2076 0.961 . S
C2061 H2077 0.960 . S
H2062 C2046 0.931 . S
H2063 C2051 0.929 . S
H2064 C2052 0.960 . S
H2065 C2052 0.962 . S
H2066 C2052 0.960 . S
H2067 C2053 0.961 . S
H2068 C2053 0.961 . S
H2069 C2053 0.961 . S
H2070 C2054 0.931 . S
H2071 C2059 0.930 . S
H2072 C2060 0.956 . S
H2073 C2060 0.961 . S
H2074 C2060 0.961 . S
H2075 C2061 0.958 . S
H2076 C2061 0.961 . S
H2077 C2061 0.960 . S
C2078 C2079 1.391 . S
C2078 C2080 1.394 . S
C2078 H2094 0.931 . S
C2079 C2078 1.391 . S
C2079 C2083 1.376 . S
C2080 C2078 1.394 . S
C2080 C2081 1.369 . S
C2080 C2084 1.531 . S
C2081 C2080 1.369 . S
C2081 C2082 1.410 . S
C2081 C2089 1.503 . S
C2082 C2081 1.410 . S
C2082 C2083 1.392 . S
C2082 C2085 1.511 . S
C2083 C2079 1.376 . S
C2083 C2082 1.392 . S
C2083 H2095 0.929 . S
C2084 C2080 1.531 . S
C2084 H2096 0.960 . S
C2084 H2097 0.962 . S
C2084 H2098 0.960 . S
C2085 C2082 1.511 . S
C2085 H2099 0.961 . S
C2085 H2100 0.961 . S
C2085 H2101 0.961 . S
C2086 C2087 1.370 . S
C2086 C2088 1.363 . S
C2086 H2102 0.931 . S
C2087 C2086 1.370 . S
C2087 C2091 1.408 . S
C2088 C2086 1.363 . S
C2088 C2089 1.370 . S
C2088 C2092 1.524 . S
C2089 C2081 1.503 . S
C2089 C2088 1.370 . S
C2089 C2090 1.403 . S
C2090 C2089 1.403 . S
C2090 C2091 1.404 . S
C2090 C2093 1.539 . S
C2091 C2087 1.408 . S
C2091 C2090 1.404 . S
C2091 H2103 0.930 . S
C2092 C2088 1.524 . S
C2092 H2104 0.956 . S
C2092 H2105 0.961 . S
C2092 H2106 0.961 . S
C2093 C2090 1.539 . S
C2093 H2107 0.958 . S
C2093 H2108 0.961 . S
C2093 H2109 0.960 . S
H2094 C2078 0.931 . S
H2095 C2083 0.929 . S
H2096 C2084 0.960 . S
H2097 C2084 0.962 . S
H2098 C2084 0.960 . S
H2099 C2085 0.961 . S
H2100 C2085 0.961 . S
H2101 C2085 0.961 . S
H2102 C2086 0.931 . S
H2103 C2091 0.930 . S
H2104 C2092 0.956 . S
H2105 C2092 0.961 . S
H2106 C2092 0.961 . S
H2107 C2093 0.958 . S
H2108 C2093 0.961 . S
H2109 C2093 0.960 . S
C2110 C2111 1.391 . S
C2110 C2112 1.394 . S
C2110 H2126 0.931 . S
C2111 C2110 1.391 . S
C2111 C2115 1.376 . S
C2112 C2110 1.394 . S
C2112 C2113 1.369 . S
C2112 C2116 1.531 . S
C2113 C2112 1.369 . S
C2113 C2114 1.410 . S
C2113 C2121 1.503 . S
C2114 C2113 1.410 . S
C2114 C2115 1.392 . S
C2114 C2117 1.511 . S
C2115 C2111 1.376 . S
C2115 C2114 1.392 . S
C2115 H2127 0.929 . S
C2116 C2112 1.531 . S
C2116 H2128 0.960 . S
C2116 H2129 0.962 . S
C2116 H2130 0.960 . S
C2117 C2114 1.511 . S
C2117 H2131 0.961 . S
C2117 H2132 0.961 . S
C2117 H2133 0.961 . S
C2118 C2119 1.370 . S
C2118 C2120 1.363 . S
C2118 H2134 0.931 . S
C2119 C2118 1.370 . S
C2119 C2123 1.408 . S
C2120 C2118 1.363 . S
C2120 C2121 1.370 . S
C2120 C2124 1.524 . S
C2121 C2113 1.503 . S
C2121 C2120 1.370 . S
C2121 C2122 1.403 . S
C2122 C2121 1.403 . S
C2122 C2123 1.404 . S
C2122 C2125 1.539 . S
C2123 C2119 1.408 . S
C2123 C2122 1.404 . S
C2123 H2135 0.930 . S
C2124 C2120 1.524 . S
C2124 H2136 0.956 . S
C2124 H2137 0.961 . S
C2124 H2138 0.961 . S
C2125 C2122 1.539 . S
C2125 H2139 0.958 . S
C2125 H2140 0.961 . S
C2125 H2141 0.960 . S
H2126 C2110 0.931 . S
H2127 C2115 0.929 . S
H2128 C2116 0.960 . S
H2129 C2116 0.962 . S
H2130 C2116 0.960 . S
H2131 C2117 0.961 . S
H2132 C2117 0.961 . S
H2133 C2117 0.961 . S
H2134 C2118 0.931 . S
H2135 C2123 0.930 . S
H2136 C2124 0.956 . S
H2137 C2124 0.961 . S
H2138 C2124 0.961 . S
H2139 C2125 0.958 . S
H2140 C2125 0.961 . S
H2141 C2125 0.960 . S
C2142 C2143 1.391 . S
C2142 C2144 1.394 . S
C2142 H2158 0.931 . S
C2143 C2142 1.391 . S
C2143 C2147 1.376 . S
C2144 C2142 1.394 . S
C2144 C2145 1.369 . S
C2144 C2148 1.531 . S
C2145 C2144 1.369 . S
C2145 C2146 1.410 . S
C2145 C2153 1.503 . S
C2146 C2145 1.410 . S
C2146 C2147 1.392 . S
C2146 C2149 1.511 . S
C2147 C2143 1.376 . S
C2147 C2146 1.392 . S
C2147 H2159 0.929 . S
C2148 C2144 1.531 . S
C2148 H2160 0.960 . S
C2148 H2161 0.962 . S
C2148 H2162 0.960 . S
C2149 C2146 1.511 . S
C2149 H2163 0.961 . S
C2149 H2164 0.961 . S
C2149 H2165 0.961 . S
C2150 C2151 1.370 . S
C2150 C2152 1.363 . S
C2150 H2166 0.931 . S
C2151 C2150 1.370 . S
C2151 C2155 1.408 . S
C2152 C2150 1.363 . S
C2152 C2153 1.370 . S
C2152 C2156 1.524 . S
C2153 C2145 1.503 . S
C2153 C2152 1.370 . S
C2153 C2154 1.403 . S
C2154 C2153 1.403 . S
C2154 C2155 1.404 . S
C2154 C2157 1.539 . S
C2155 C2151 1.408 . S
C2155 C2154 1.404 . S
C2155 H2167 0.930 . S
C2156 C2152 1.524 . S
C2156 H2168 0.956 . S
C2156 H2169 0.961 . S
C2156 H2170 0.961 . S
C2157 C2154 1.539 . S
C2157 H2171 0.958 . S
C2157 H2172 0.961 . S
C2157 H2173 0.960 . S
H2158 C2142 0.931 . S
H2159 C2147 0.929 . S
H2160 C2148 0.960 . S
H2161 C2148 0.962 . S
H2162 C2148 0.960 . S
H2163 C2149 0.961 . S
H2164 C2149 0.961 . S
H2165 C2149 0.961 . S
H2166 C2150 0.931 . S
H2167 C2155 0.930 . S
H2168 C2156 0.956 . S
H2169 C2156 0.961 . S
H2170 C2156 0.961 . S
H2171 C2157 0.958 . S
H2172 C2157 0.961 . S
H2173 C2157 0.960 . S
C2174 C2175 1.391 . S
C2174 C2176 1.394 . S
C2174 H2190 0.931 . S
C2175 C2174 1.391 . S
C2175 C2179 1.376 . S
C2176 C2174 1.394 . S
C2176 C2177 1.369 . S
C2176 C2180 1.531 . S
C2177 C2176 1.369 . S
C2177 C2178 1.410 . S
C2177 C2185 1.503 . S
C2178 C2177 1.410 . S
C2178 C2179 1.392 . S
C2178 C2181 1.511 . S
C2179 C2175 1.376 . S
C2179 C2178 1.392 . S
C2179 H2191 0.929 . S
C2180 C2176 1.531 . S
C2180 H2192 0.960 . S
C2180 H2193 0.962 . S
C2180 H2194 0.960 . S
C2181 C2178 1.511 . S
C2181 H2195 0.961 . S
C2181 H2196 0.961 . S
C2181 H2197 0.961 . S
C2182 C2183 1.370 . S
C2182 C2184 1.363 . S
C2182 H2198 0.931 . S
C2183 C2182 1.370 . S
C2183 C2187 1.408 . S
C2184 C2182 1.363 . S
C2184 C2185 1.370 . S
C2184 C2188 1.524 . S
C2185 C2177 1.503 . S
C2185 C2184 1.370 . S
C2185 C2186 1.403 . S
C2186 C2185 1.403 . S
C2186 C2187 1.404 . S
C2186 C2189 1.539 . S
C2187 C2183 1.408 . S
C2187 C2186 1.404 . S
C2187 H2199 0.930 . S
C2188 C2184 1.524 . S
C2188 H2200 0.956 . S
C2188 H2201 0.961 . S
C2188 H2202 0.961 . S
C2189 C2186 1.539 . S
C2189 H2203 0.958 . S
C2189 H2204 0.961 . S
C2189 H2205 0.960 . S
H2190 C2174 0.931 . S
H2191 C2179 0.929 . S
H2192 C2180 0.960 . S
H2193 C2180 0.962 . S
H2194 C2180 0.960 . S
H2195 C2181 0.961 . S
H2196 C2181 0.961 . S
H2197 C2181 0.961 . S
H2198 C2182 0.931 . S
H2199 C2187 0.930 . S
H2200 C2188 0.956 . S
H2201 C2188 0.961 . S
H2202 C2188 0.961 . S
H2203 C2189 0.958 . S
H2204 C2189 0.961 . S
H2205 C2189 0.960 . S
C2206 C2207 1.391 . S
C2206 C2208 1.394 . S
C2206 H2222 0.931 . S
C2207 C2206 1.391 . S
C2207 C2211 1.376 . S
C2208 C2206 1.394 . S
C2208 C2209 1.369 . S
C2208 C2212 1.531 . S
C2209 C2208 1.369 . S
C2209 C2210 1.410 . S
C2209 C2217 1.503 . S
C2210 C2209 1.410 . S
C2210 C2211 1.392 . S
C2210 C2213 1.511 . S
C2211 C2207 1.376 . S
C2211 C2210 1.392 . S
C2211 H2223 0.929 . S
C2212 C2208 1.531 . S
C2212 H2224 0.960 . S
C2212 H2225 0.962 . S
C2212 H2226 0.960 . S
C2213 C2210 1.511 . S
C2213 H2227 0.961 . S
C2213 H2228 0.961 . S
C2213 H2229 0.961 . S
C2214 C2215 1.370 . S
C2214 C2216 1.363 . S
C2214 H2230 0.931 . S
C2215 C2214 1.370 . S
C2215 C2219 1.408 . S
C2216 C2214 1.363 . S
C2216 C2217 1.370 . S
C2216 C2220 1.524 . S
C2217 C2209 1.503 . S
C2217 C2216 1.370 . S
C2217 C2218 1.403 . S
C2218 C2217 1.403 . S
C2218 C2219 1.404 . S
C2218 C2221 1.539 . S
C2219 C2215 1.408 . S
C2219 C2218 1.404 . S
C2219 H2231 0.930 . S
C2220 C2216 1.524 . S
C2220 H2232 0.956 . S
C2220 H2233 0.961 . S
C2220 H2234 0.961 . S
C2221 C2218 1.539 . S
C2221 H2235 0.958 . S
C2221 H2236 0.961 . S
C2221 H2237 0.960 . S
H2222 C2206 0.931 . S
H2223 C2211 0.929 . S
H2224 C2212 0.960 . S
H2225 C2212 0.962 . S
H2226 C2212 0.960 . S
H2227 C2213 0.961 . S
H2228 C2213 0.961 . S
H2229 C2213 0.961 . S
H2230 C2214 0.931 . S
H2231 C2219 0.930 . S
H2232 C2220 0.956 . S
H2233 C2220 0.961 . S
H2234 C2220 0.961 . S
H2235 C2221 0.958 . S
H2236 C2221 0.961 . S
H2237 C2221 0.960 . S
C2238 C2239 1.391 . S
C2238 C2240 1.394 . S
C2238 H2254 0.931 . S
C2239 C2238 1.391 . S
C2239 C2243 1.376 . S
C2240 C2238 1.394 . S
C2240 C2241 1.369 . S
C2240 C2244 1.531 . S
C2241 C2240 1.369 . S
C2241 C2242 1.410 . S
C2241 C2249 1.503 . S
C2242 C2241 1.410 . S
C2242 C2243 1.392 . S
C2242 C2245 1.511 . S
C2243 C2239 1.376 . S
C2243 C2242 1.392 . S
C2243 H2255 0.929 . S
C2244 C2240 1.531 . S
C2244 H2256 0.960 . S
C2244 H2257 0.962 . S
C2244 H2258 0.960 . S
C2245 C2242 1.511 . S
C2245 H2259 0.961 . S
C2245 H2260 0.961 . S
C2245 H2261 0.961 . S
C2246 C2247 1.370 . S
C2246 C2248 1.363 . S
C2246 H2262 0.931 . S
C2247 C2246 1.370 . S
C2247 C2251 1.408 . S
C2248 C2246 1.363 . S
C2248 C2249 1.370 . S
C2248 C2252 1.524 . S
C2249 C2241 1.503 . S
C2249 C2248 1.370 . S
C2249 C2250 1.403 . S
C2250 C2249 1.403 . S
C2250 C2251 1.404 . S
C2250 C2253 1.539 . S
C2251 C2247 1.408 . S
C2251 C2250 1.404 . S
C2251 H2263 0.930 . S
C2252 C2248 1.524 . S
C2252 H2264 0.956 . S
C2252 H2265 0.961 . S
C2252 H2266 0.961 . S
C2253 C2250 1.539 . S
C2253 H2267 0.958 . S
C2253 H2268 0.961 . S
C2253 H2269 0.960 . S
H2254 C2238 0.931 . S
H2255 C2243 0.929 . S
H2256 C2244 0.960 . S
H2257 C2244 0.962 . S
H2258 C2244 0.960 . S
H2259 C2245 0.961 . S
H2260 C2245 0.961 . S
H2261 C2245 0.961 . S
H2262 C2246 0.931 . S
H2263 C2251 0.930 . S
H2264 C2252 0.956 . S
H2265 C2252 0.961 . S
H2266 C2252 0.961 . S
H2267 C2253 0.958 . S
H2268 C2253 0.961 . S
H2269 C2253 0.960 . S
C2270 C2271 1.391 . S
C2270 C2272 1.394 . S
C2270 H2286 0.931 . S
C2271 C2270 1.391 . S
C2271 C2275 1.376 . S
C2272 C2270 1.394 . S
C2272 C2273 1.369 . S
C2272 C2276 1.531 . S
C2273 C2272 1.369 . S
C2273 C2274 1.410 . S
C2273 C2281 1.503 . S
C2274 C2273 1.410 . S
C2274 C2275 1.392 . S
C2274 C2277 1.511 . S
C2275 C2271 1.376 . S
C2275 C2274 1.392 . S
C2275 H2287 0.929 . S
C2276 C2272 1.531 . S
C2276 H2288 0.960 . S
C2276 H2289 0.962 . S
C2276 H2290 0.960 . S
C2277 C2274 1.511 . S
C2277 H2291 0.961 . S
C2277 H2292 0.961 . S
C2277 H2293 0.961 . S
C2278 C2279 1.370 . S
C2278 C2280 1.363 . S
C2278 H2294 0.931 . S
C2279 C2278 1.370 . S
C2279 C2283 1.408 . S
C2280 C2278 1.363 . S
C2280 C2281 1.370 . S
C2280 C2284 1.524 . S
C2281 C2273 1.503 . S
C2281 C2280 1.370 . S
C2281 C2282 1.403 . S
C2282 C2281 1.403 . S
C2282 C2283 1.404 . S
C2282 C2285 1.539 . S
C2283 C2279 1.408 . S
C2283 C2282 1.404 . S
C2283 H2295 0.930 . S
C2284 C2280 1.524 . S
C2284 H2296 0.956 . S
C2284 H2297 0.961 . S
C2284 H2298 0.961 . S
C2285 C2282 1.539 . S
C2285 H2299 0.958 . S
C2285 H2300 0.961 . S
C2285 H2301 0.960 . S
H2286 C2270 0.931 . S
H2287 C2275 0.929 . S
H2288 C2276 0.960 . S
H2289 C2276 0.962 . S
H2290 C2276 0.960 . S
H2291 C2277 0.961 . S
H2292 C2277 0.961 . S
H2293 C2277 0.961 . S
H2294 C2278 0.931 . S
H2295 C2283 0.930 . S
H2296 C2284 0.956 . S
H2297 C2284 0.961 . S
H2298 C2284 0.961 . S
H2299 C2285 0.958 . S
H2300 C2285 0.961 . S
H2301 C2285 0.960 . S
C2302 C2303 1.391 . S
C2302 C2304 1.394 . S
C2302 H2318 0.931 . S
C2303 C2302 1.391 . S
C2303 C2307 1.376 . S
C2304 C2302 1.394 . S
C2304 C2305 1.369 . S
C2304 C2308 1.531 . S
C2305 C2304 1.369 . S
C2305 C2306 1.410 . S
C2305 C2313 1.503 . S
C2306 C2305 1.410 . S
C2306 C2307 1.392 . S
C2306 C2309 1.511 . S
C2307 C2303 1.376 . S
C2307 C2306 1.392 . S
C2307 H2319 0.929 . S
C2308 C2304 1.531 . S
C2308 H2320 0.960 . S
C2308 H2321 0.962 . S
C2308 H2322 0.960 . S
C2309 C2306 1.511 . S
C2309 H2323 0.961 . S
C2309 H2324 0.961 . S
C2309 H2325 0.961 . S
C2310 C2311 1.370 . S
C2310 C2312 1.363 . S
C2310 H2326 0.931 . S
C2311 C2310 1.370 . S
C2311 C2315 1.408 . S
C2312 C2310 1.363 . S
C2312 C2313 1.370 . S
C2312 C2316 1.524 . S
C2313 C2305 1.503 . S
C2313 C2312 1.370 . S
C2313 C2314 1.403 . S
C2314 C2313 1.403 . S
C2314 C2315 1.404 . S
C2314 C2317 1.539 . S
C2315 C2311 1.408 . S
C2315 C2314 1.404 . S
C2315 H2327 0.930 . S
C2316 C2312 1.524 . S
C2316 H2328 0.956 . S
C2316 H2329 0.961 . S
C2316 H2330 0.961 . S
C2317 C2314 1.539 . S
C2317 H2331 0.958 . S
C2317 H2332 0.961 . S
C2317 H2333 0.960 . S
H2318 C2302 0.931 . S
H2319 C2307 0.929 . S
H2320 C2308 0.960 . S
H2321 C2308 0.962 . S
H2322 C2308 0.960 . S
H2323 C2309 0.961 . S
H2324 C2309 0.961 . S
H2325 C2309 0.961 . S
H2326 C2310 0.931 . S
H2327 C2315 0.930 . S
H2328 C2316 0.956 . S
H2329 C2316 0.961 . S
H2330 C2316 0.961 . S
H2331 C2317 0.958 . S
H2332 C2317 0.961 . S
H2333 C2317 0.960 . S
C2334 C2335 1.391 . S
C2334 C2336 1.394 . S
C2334 H2350 0.931 . S
C2335 C2334 1.391 . S
C2335 C2339 1.376 . S
C2336 C2334 1.394 . S
C2336 C2337 1.369 . S
C2336 C2340 1.531 . S
C2337 C2336 1.369 . S
C2337 C2338 1.410 . S
C2337 C2345 1.503 . S
C2338 C2337 1.410 . S
C2338 C2339 1.392 . S
C2338 C2341 1.511 . S
C2339 C2335 1.376 . S
C2339 C2338 1.392 . S
C2339 H2351 0.929 . S
C2340 C2336 1.531 . S
C2340 H2352 0.960 . S
C2340 H2353 0.962 . S
C2340 H2354 0.960 . S
C2341 C2338 1.511 . S
C2341 H2355 0.961 . S
C2341 H2356 0.961 . S
C2341 H2357 0.961 . S
C2342 C2343 1.370 . S
C2342 C2344 1.363 . S
C2342 H2358 0.931 . S
C2343 C2342 1.370 . S
C2343 C2347 1.408 . S
C2344 C2342 1.363 . S
C2344 C2345 1.370 . S
C2344 C2348 1.524 . S
C2345 C2337 1.503 . S
C2345 C2344 1.370 . S
C2345 C2346 1.403 . S
C2346 C2345 1.403 . S
C2346 C2347 1.404 . S
C2346 C2349 1.539 . S
C2347 C2343 1.408 . S
C2347 C2346 1.404 . S
C2347 H2359 0.930 . S
C2348 C2344 1.524 . S
C2348 H2360 0.956 . S
C2348 H2361 0.961 . S
C2348 H2362 0.961 . S
C2349 C2346 1.539 . S
C2349 H2363 0.958 . S
C2349 H2364 0.961 . S
C2349 H2365 0.960 . S
H2350 C2334 0.931 . S
H2351 C2339 0.929 . S
H2352 C2340 0.960 . S
H2353 C2340 0.962 . S
H2354 C2340 0.960 . S
H2355 C2341 0.961 . S
H2356 C2341 0.961 . S
H2357 C2341 0.961 . S
H2358 C2342 0.931 . S
H2359 C2347 0.930 . S
H2360 C2348 0.956 . S
H2361 C2348 0.961 . S
H2362 C2348 0.961 . S
H2363 C2349 0.958 . S
H2364 C2349 0.961 . S
H2365 C2349 0.960 . S
C2366 C2367 1.391 . S
C2366 C2368 1.394 . S
C2366 H2382 0.931 . S
C2367 C2366 1.391 . S
C2367 C2371 1.376 . S
C2368 C2366 1.394 . S
C2368 C2369 1.369 . S
C2368 C2372 1.531 . S
C2369 C2368 1.369 . S
C2369 C2370 1.410 . S
C2369 C2377 1.503 . S
C2370 C2369 1.410 . S
C2370 C2371 1.392 . S
C2370 C2373 1.511 . S
C2371 C2367 1.376 . S
C2371 C2370 1.392 . S
C2371 H2383 0.929 . S
C2372 C2368 1.531 . S
C2372 H2384 0.960 . S
C2372 H2385 0.962 . S
C2372 H2386 0.960 . S
C2373 C2370 1.511 . S
C2373 H2387 0.961 . S
C2373 H2388 0.961 . S
C2373 H2389 0.961 . S
C2374 C2375 1.370 . S
C2374 C2376 1.363 . S
C2374 H2390 0.931 . S
C2375 C2374 1.370 . S
C2375 C2379 1.408 . S
C2376 C2374 1.363 . S
C2376 C2377 1.370 . S
C2376 C2380 1.524 . S
C2377 C2369 1.503 . S
C2377 C2376 1.370 . S
C2377 C2378 1.403 . S
C2378 C2377 1.403 . S
C2378 C2379 1.404 . S
C2378 C2381 1.539 . S
C2379 C2375 1.408 . S
C2379 C2378 1.404 . S
C2379 H2391 0.930 . S
C2380 C2376 1.524 . S
C2380 H2392 0.956 . S
C2380 H2393 0.961 . S
C2380 H2394 0.961 . S
C2381 C2378 1.539 . S
C2381 H2395 0.958 . S
C2381 H2396 0.961 . S
C2381 H2397 0.960 . S
H2382 C2366 0.931 . S
H2383 C2371 0.929 . S
H2384 C2372 0.960 . S
H2385 C2372 0.962 . S
H2386 C2372 0.960 . S
H2387 C2373 0.961 . S
H2388 C2373 0.961 . S
H2389 C2373 0.961 . S
H2390 C2374 0.931 . S
H2391 C2379 0.930 . S
H2392 C2380 0.956 . S
H2393 C2380 0.961 . S
H2394 C2380 0.961 . S
H2395 C2381 0.958 . S
H2396 C2381 0.961 . S
H2397 C2381 0.960 . S
C2398 C2399 1.391 . S
C2398 C2400 1.394 . S
C2398 H2414 0.931 . S
C2399 C2398 1.391 . S
C2399 C2403 1.376 . S
C2400 C2398 1.394 . S
C2400 C2401 1.369 . S
C2400 C2404 1.531 . S
C2401 C2400 1.369 . S
C2401 C2402 1.410 . S
C2401 C2409 1.503 . S
C2402 C2401 1.410 . S
C2402 C2403 1.392 . S
C2402 C2405 1.511 . S
C2403 C2399 1.376 . S
C2403 C2402 1.392 . S
C2403 H2415 0.929 . S
C2404 C2400 1.531 . S
C2404 H2416 0.960 . S
C2404 H2417 0.962 . S
C2404 H2418 0.960 . S
C2405 C2402 1.511 . S
C2405 H2419 0.961 . S
C2405 H2420 0.961 . S
C2405 H2421 0.961 . S
C2406 C2407 1.370 . S
C2406 C2408 1.363 . S
C2406 H2422 0.931 . S
C2407 C2406 1.370 . S
C2407 C2411 1.408 . S
C2408 C2406 1.363 . S
C2408 C2409 1.370 . S
C2408 C2412 1.524 . S
C2409 C2401 1.503 . S
C2409 C2408 1.370 . S
C2409 C2410 1.403 . S
C2410 C2409 1.403 . S
C2410 C2411 1.404 . S
C2410 C2413 1.539 . S
C2411 C2407 1.408 . S
C2411 C2410 1.404 . S
C2411 H2423 0.930 . S
C2412 C2408 1.524 . S
C2412 H2424 0.956 . S
C2412 H2425 0.961 . S
C2412 H2426 0.961 . S
C2413 C2410 1.539 . S
C2413 H2427 0.958 . S
C2413 H2428 0.961 . S
C2413 H2429 0.960 . S
H2414 C2398 0.931 . S
H2415 C2403 0.929 . S
H2416 C2404 0.960 . S
H2417 C2404 0.962 . S
H2418 C2404 0.960 . S
H2419 C2405 0.961 . S
H2420 C2405 0.961 . S
H2421 C2405 0.961 . S
H2422 C2406 0.931 . S
H2423 C2411 0.930 . S
H2424 C2412 0.956 . S
H2425 C2412 0.961 . S
H2426 C2412 0.961 . S
H2427 C2413 0.958 . S
H2428 C2413 0.961 . S
H2429 C2413 0.960 . S
C2430 C2431 1.391 . S
C2430 C2432 1.394 . S
C2430 H2446 0.931 . S
C2431 C2430 1.391 . S
C2431 C2435 1.376 . S
C2432 C2430 1.394 . S
C2432 C2433 1.369 . S
C2432 C2436 1.531 . S
C2433 C2432 1.369 . S
C2433 C2434 1.410 . S
C2433 C2441 1.503 . S
C2434 C2433 1.410 . S
C2434 C2435 1.392 . S
C2434 C2437 1.511 . S
C2435 C2431 1.376 . S
C2435 C2434 1.392 . S
C2435 H2447 0.929 . S
C2436 C2432 1.531 . S
C2436 H2448 0.960 . S
C2436 H2449 0.962 . S
C2436 H2450 0.960 . S
C2437 C2434 1.511 . S
C2437 H2451 0.961 . S
C2437 H2452 0.961 . S
C2437 H2453 0.961 . S
C2438 C2439 1.370 . S
C2438 C2440 1.363 . S
C2438 H2454 0.931 . S
C2439 C2438 1.370 . S
C2439 C2443 1.408 . S
C2440 C2438 1.363 . S
C2440 C2441 1.370 . S
C2440 C2444 1.524 . S
C2441 C2433 1.503 . S
C2441 C2440 1.370 . S
C2441 C2442 1.403 . S
C2442 C2441 1.403 . S
C2442 C2443 1.404 . S
C2442 C2445 1.539 . S
C2443 C2439 1.408 . S
C2443 C2442 1.404 . S
C2443 H2455 0.930 . S
C2444 C2440 1.524 . S
C2444 H2456 0.956 . S
C2444 H2457 0.961 . S
C2444 H2458 0.961 . S
C2445 C2442 1.539 . S
C2445 H2459 0.958 . S
C2445 H2460 0.961 . S
C2445 H2461 0.960 . S
H2446 C2430 0.931 . S
H2447 C2435 0.929 . S
H2448 C2436 0.960 . S
H2449 C2436 0.962 . S
H2450 C2436 0.960 . S
H2451 C2437 0.961 . S
H2452 C2437 0.961 . S
H2453 C2437 0.961 . S
H2454 C2438 0.931 . S
H2455 C2443 0.930 . S
H2456 C2444 0.956 . S
H2457 C2444 0.961 . S
H2458 C2444 0.961 . S
H2459 C2445 0.958 . S
H2460 C2445 0.961 . S
H2461 C2445 0.960 . S
C2462 C2463 1.391 . S
C2462 C2464 1.394 . S
C2462 H2478 0.931 . S
C2463 C2462 1.391 . S
C2463 C2467 1.376 . S
C2464 C2462 1.394 . S
C2464 C2465 1.369 . S
C2464 C2468 1.531 . S
C2465 C2464 1.369 . S
C2465 C2466 1.410 . S
C2465 C2473 1.503 . S
C2466 C2465 1.410 . S
C2466 C2467 1.392 . S
C2466 C2469 1.511 . S
C2467 C2463 1.376 . S
C2467 C2466 1.392 . S
C2467 H2479 0.929 . S
C2468 C2464 1.531 . S
C2468 H2480 0.960 . S
C2468 H2481 0.962 . S
C2468 H2482 0.960 . S
C2469 C2466 1.511 . S
C2469 H2483 0.961 . S
C2469 H2484 0.961 . S
C2469 H2485 0.961 . S
C2470 C2471 1.370 . S
C2470 C2472 1.363 . S
C2470 H2486 0.931 . S
C2471 C2470 1.370 . S
C2471 C2475 1.408 . S
C2472 C2470 1.363 . S
C2472 C2473 1.370 . S
C2472 C2476 1.524 . S
C2473 C2465 1.503 . S
C2473 C2472 1.370 . S
C2473 C2474 1.403 . S
C2474 C2473 1.403 . S
C2474 C2475 1.404 . S
C2474 C2477 1.539 . S
C2475 C2471 1.408 . S
C2475 C2474 1.404 . S
C2475 H2487 0.930 . S
C2476 C2472 1.524 . S
C2476 H2488 0.956 . S
C2476 H2489 0.961 . S
C2476 H2490 0.961 . S
C2477 C2474 1.539 . S
C2477 H2491 0.958 . S
C2477 H2492 0.961 . S
C2477 H2493 0.960 . S
H2478 C2462 0.931 . S
H2479 C2467 0.929 . S
H2480 C2468 0.960 . S
H2481 C2468 0.962 . S
H2482 C2468 0.960 . S
H2483 C2469 0.961 . S
H2484 C2469 0.961 . S
H2485 C2469 0.961 . S
H2486 C2470 0.931 . S
H2487 C2475 0.930 . S
H2488 C2476 0.956 . S
H2489 C2476 0.961 . S
H2490 C2476 0.961 . S
H2491 C2477 0.958 . S
H2492 C2477 0.961 . S
H2493 C2477 0.960 . S
C2494 C2495 1.391 . S
C2494 C2496 1.394 . S
C2494 H2510 0.931 . S
C2495 C2494 1.391 . S
C2495 C2499 1.376 . S
C2496 C2494 1.394 . S
C2496 C2497 1.369 . S
C2496 C2500 1.531 . S
C2497 C2496 1.369 . S
C2497 C2498 1.410 . S
C2497 C2505 1.503 . S
C2498 C2497 1.410 . S
C2498 C2499 1.392 . S
C2498 C2501 1.511 . S
C2499 C2495 1.376 . S
C2499 C2498 1.392 . S
C2499 H2511 0.929 . S
C2500 C2496 1.531 . S
C2500 H2512 0.960 . S
C2500 H2513 0.962 . S
C2500 H2514 0.960 . S
C2501 C2498 1.511 . S
C2501 H2515 0.961 . S
C2501 H2516 0.961 . S
C2501 H2517 0.961 . S
C2502 C2503 1.370 . S
C2502 C2504 1.363 . S
C2502 H2518 0.931 . S
C2503 C2502 1.370 . S
C2503 C2507 1.408 . S
C2504 C2502 1.363 . S
C2504 C2505 1.370 . S
C2504 C2508 1.524 . S
C2505 C2497 1.503 . S
C2505 C2504 1.370 . S
C2505 C2506 1.403 . S
C2506 C2505 1.403 . S
C2506 C2507 1.404 . S
C2506 C2509 1.539 . S
C2507 C2503 1.408 . S
C2507 C2506 1.404 . S
C2507 H2519 0.930 . S
C2508 C2504 1.524 . S
C2508 H2520 0.956 . S
C2508 H2521 0.961 . S
C2508 H2522 0.961 . S
C2509 C2506 1.539 . S
C2509 H2523 0.958 . S
C2509 H2524 0.961 . S
C2509 H2525 0.960 . S
H2510 C2494 0.931 . S
H2511 C2499 0.929 . S
H2512 C2500 0.960 . S
H2513 C2500 0.962 . S
H2514 C2500 0.960 . S
H2515 C2501 0.961 . S
H2516 C2501 0.961 . S
H2517 C2501 0.961 . S
H2518 C2502 0.931 . S
H2519 C2507 0.930 . S
H2520 C2508 0.956 . S
H2521 C2508 0.961 . S
H2522 C2508 0.961 . S
H2523 C2509 0.958 . S
H2524 C2509 0.961 . S
H2525 C2509 0.960 . S
C2526 C2527 1.391 . S
C2526 C2528 1.394 . S
C2526 H2542 0.931 . S
C2527 C2526 1.391 . S
C2527 C2531 1.376 . S
C2528 C2526 1.394 . S
C2528 C2529 1.369 . S
C2528 C2532 1.531 . S
C2529 C2528 1.369 . S
C2529 C2530 1.410 . S
C2529 C2537 1.503 . S
C2530 C2529 1.410 . S
C2530 C2531 1.392 . S
C2530 C2533 1.511 . S
C2531 C2527 1.376 . S
C2531 C2530 1.392 . S
C2531 H2543 0.929 . S
C2532 C2528 1.531 . S
C2532 H2544 0.960 . S
C2532 H2545 0.962 . S
C2532 H2546 0.960 . S
C2533 C2530 1.511 . S
C2533 H2547 0.961 . S
C2533 H2548 0.961 . S
C2533 H2549 0.961 . S
C2534 C2535 1.370 . S
C2534 C2536 1.363 . S
C2534 H2550 0.931 . S
C2535 C2534 1.370 . S
C2535 C2539 1.408 . S
C2536 C2534 1.363 . S
C2536 C2537 1.370 . S
C2536 C2540 1.524 . S
C2537 C2529 1.503 . S
C2537 C2536 1.370 . S
C2537 C2538 1.403 . S
C2538 C2537 1.403 . S
C2538 C2539 1.404 . S
C2538 C2541 1.539 . S
C2539 C2535 1.408 . S
C2539 C2538 1.404 . S
C2539 H2551 0.930 . S
C2540 C2536 1.524 . S
C2540 H2552 0.956 . S
C2540 H2553 0.961 . S
C2540 H2554 0.961 . S
C2541 C2538 1.539 . S
C2541 H2555 0.958 . S
C2541 H2556 0.961 . S
C2541 H2557 0.960 . S
H2542 C2526 0.931 . S
H2543 C2531 0.929 . S
H2544 C2532 0.960 . S
H2545 C2532 0.962 . S
H2546 C2532 0.960 . S
H2547 C2533 0.961 . S
H2548 C2533 0.961 . S
H2549 C2533 0.961 . S
H2550 C2534 0.931 . S
H2551 C2539 0.930 . S
H2552 C2540 0.956 . S
H2553 C2540 0.961 . S
H2554 C2540 0.961 . S
H2555 C2541 0.958 . S
H2556 C2541 0.961 . S
H2557 C2541 0.960 . S
C2558 C2559 1.391 . S
C2558 C2560 1.394 . S
C2558 H2574 0.931 . S
C2559 C2558 1.391 . S
C2559 C2563 1.376 . S
C2560 C2558 1.394 . S
C2560 C2561 1.369 . S
C2560 C2564 1.531 . S
C2561 C2560 1.369 . S
C2561 C2562 1.410 . S
C2561 C2569 1.503 . S
C2562 C2561 1.410 . S
C2562 C2563 1.392 . S
C2562 C2565 1.511 . S
C2563 C2559 1.376 . S
C2563 C2562 1.392 . S
C2563 H2575 0.929 . S
C2564 C2560 1.531 . S
C2564 H2576 0.960 . S
C2564 H2577 0.962 . S
C2564 H2578 0.960 . S
C2565 C2562 1.511 . S
C2565 H2579 0.961 . S
C2565 H2580 0.961 . S
C2565 H2581 0.961 . S
C2566 C2567 1.370 . S
C2566 C2568 1.363 . S
C2566 H2582 0.931 . S
C2567 C2566 1.370 . S
C2567 C2571 1.408 . S
C2568 C2566 1.363 . S
C2568 C2569 1.370 . S
C2568 C2572 1.524 . S
C2569 C2561 1.503 . S
C2569 C2568 1.370 . S
C2569 C2570 1.403 . S
C2570 C2569 1.403 . S
C2570 C2571 1.404 . S
C2570 C2573 1.539 . S
C2571 C2567 1.408 . S
C2571 C2570 1.404 . S
C2571 H2583 0.930 . S
C2572 C2568 1.524 . S
C2572 H2584 0.956 . S
C2572 H2585 0.961 . S
C2572 H2586 0.961 . S
C2573 C2570 1.539 . S
C2573 H2587 0.958 . S
C2573 H2588 0.961 . S
C2573 H2589 0.960 . S
H2574 C2558 0.931 . S
H2575 C2563 0.929 . S
H2576 C2564 0.960 . S
H2577 C2564 0.962 . S
H2578 C2564 0.960 . S
H2579 C2565 0.961 . S
H2580 C2565 0.961 . S
H2581 C2565 0.961 . S
H2582 C2566 0.931 . S
H2583 C2571 0.930 . S
H2584 C2572 0.956 . S
H2585 C2572 0.961 . S
H2586 C2572 0.961 . S
H2587 C2573 0.958 . S
H2588 C2573 0.961 . S
H2589 C2573 0.960 . S
C2590 C2591 1.391 . S
C2590 C2592 1.394 . S
C2590 H2606 0.931 . S
C2591 C2590 1.391 . S
C2591 C2595 1.376 . S
C2592 C2590 1.394 . S
C2592 C2593 1.369 . S
C2592 C2596 1.531 . S
C2593 C2592 1.369 . S
C2593 C2594 1.410 . S
C2593 C2601 1.503 . S
C2594 C2593 1.410 . S
C2594 C2595 1.392 . S
C2594 C2597 1.511 . S
C2595 C2591 1.376 . S
C2595 C2594 1.392 . S
C2595 H2607 0.929 . S
C2596 C2592 1.531 . S
C2596 H2608 0.960 . S
C2596 H2609 0.962 . S
C2596 H2610 0.960 . S
C2597 C2594 1.511 . S
C2597 H2611 0.961 . S
C2597 H2612 0.961 . S
C2597 H2613 0.961 . S
C2598 C2599 1.370 . S
C2598 C2600 1.363 . S
C2598 H2614 0.931 . S
C2599 C2598 1.370 . S
C2599 C2603 1.408 . S
C2600 C2598 1.363 . S
C2600 C2601 1.370 . S
C2600 C2604 1.524 . S
C2601 C2593 1.503 . S
C2601 C2600 1.370 . S
C2601 C2602 1.403 . S
C2602 C2601 1.403 . S
C2602 C2603 1.404 . S
C2602 C2605 1.539 . S
C2603 C2599 1.408 . S
C2603 C2602 1.404 . S
C2603 H2615 0.930 . S
C2604 C2600 1.524 . S
C2604 H2616 0.956 . S
C2604 H2617 0.961 . S
C2604 H2618 0.961 . S
C2605 C2602 1.539 . S
C2605 H2619 0.958 . S
C2605 H2620 0.961 . S
C2605 H2621 0.960 . S
H2606 C2590 0.931 . S
H2607 C2595 0.929 . S
H2608 C2596 0.960 . S
H2609 C2596 0.962 . S
H2610 C2596 0.960 . S
H2611 C2597 0.961 . S
H2612 C2597 0.961 . S
H2613 C2597 0.961 . S
H2614 C2598 0.931 . S
H2615 C2603 0.930 . S
H2616 C2604 0.956 . S
H2617 C2604 0.961 . S
H2618 C2604 0.961 . S
H2619 C2605 0.958 . S
H2620 C2605 0.961 . S
H2621 C2605 0.960 . S
C2622 C2623 1.391 . S
C2622 C2624 1.394 . S
C2622 H2638 0.931 . S
C2623 C2622 1.391 . S
C2623 C2627 1.376 . S
C2624 C2622 1.394 . S
C2624 C2625 1.369 . S
C2624 C2628 1.531 . S
C2625 C2624 1.369 . S
C2625 C2626 1.410 . S
C2625 C2633 1.503 . S
C2626 C2625 1.410 . S
C2626 C2627 1.392 . S
C2626 C2629 1.511 . S
C2627 C2623 1.376 . S
C2627 C2626 1.392 . S
C2627 H2639 0.929 . S
C2628 C2624 1.531 . S
C2628 H2640 0.960 . S
C2628 H2641 0.962 . S
C2628 H2642 0.960 . S
C2629 C2626 1.511 . S
C2629 H2643 0.961 . S
C2629 H2644 0.961 . S
C2629 H2645 0.961 . S
C2630 C2631 1.370 . S
C2630 C2632 1.363 . S
C2630 H2646 0.931 . S
C2631 C2630 1.370 . S
C2631 C2635 1.408 . S
C2632 C2630 1.363 . S
C2632 C2633 1.370 . S
C2632 C2636 1.524 . S
C2633 C2625 1.503 . S
C2633 C2632 1.370 . S
C2633 C2634 1.403 . S
C2634 C2633 1.403 . S
C2634 C2635 1.404 . S
C2634 C2637 1.539 . S
C2635 C2631 1.408 . S
C2635 C2634 1.404 . S
C2635 H2647 0.930 . S
C2636 C2632 1.524 . S
C2636 H2648 0.956 . S
C2636 H2649 0.961 . S
C2636 H2650 0.961 . S
C2637 C2634 1.539 . S
C2637 H2651 0.958 . S
C2637 H2652 0.961 . S
C2637 H2653 0.960 . S
H2638 C2622 0.931 . S
H2639 C2627 0.929 . S
H2640 C2628 0.960 . S
H2641 C2628 0.962 . S
H2642 C2628 0.960 . S
H2643 C2629 0.961 . S
H2644 C2629 0.961 . S
H2645 C2629 0.961 . S
H2646 C2630 0.931 . S
H2647 C2635 0.930 . S
H2648 C2636 0.956 . S
H2649 C2636 0.961 . S
H2650 C2636 0.961 . S
H2651 C2637 0.958 . S
H2652 C2637 0.961 . S
H2653 C2637 0.960 . S
C2654 C2655 1.391 . S
C2654 C2656 1.394 . S
C2654 H2670 0.931 . S
C2655 C2654 1.391 . S
C2655 C2659 1.376 . S
C2656 C2654 1.394 . S
C2656 C2657 1.369 . S
C2656 C2660 1.531 . S
C2657 C2656 1.369 . S
C2657 C2658 1.410 . S
C2657 C2665 1.503 . S
C2658 C2657 1.410 . S
C2658 C2659 1.392 . S
C2658 C2661 1.511 . S
C2659 C2655 1.376 . S
C2659 C2658 1.392 . S
C2659 H2671 0.929 . S
C2660 C2656 1.531 . S
C2660 H2672 0.960 . S
C2660 H2673 0.962 . S
C2660 H2674 0.960 . S
C2661 C2658 1.511 . S
C2661 H2675 0.961 . S
C2661 H2676 0.961 . S
C2661 H2677 0.961 . S
C2662 C2663 1.370 . S
C2662 C2664 1.363 . S
C2662 H2678 0.931 . S
C2663 C2662 1.370 . S
C2663 C2667 1.408 . S
C2664 C2662 1.363 . S
C2664 C2665 1.370 . S
C2664 C2668 1.524 . S
C2665 C2657 1.503 . S
C2665 C2664 1.370 . S
C2665 C2666 1.403 . S
C2666 C2665 1.403 . S
C2666 C2667 1.404 . S
C2666 C2669 1.539 . S
C2667 C2663 1.408 . S
C2667 C2666 1.404 . S
C2667 H2679 0.930 . S
C2668 C2664 1.524 . S
C2668 H2680 0.956 . S
C2668 H2681 0.961 . S
C2668 H2682 0.961 . S
C2669 C2666 1.539 . S
C2669 H2683 0.958 . S
C2669 H2684 0.961 . S
C2669 H2685 0.960 . S
H2670 C2654 0.931 . S
H2671 C2659 0.929 . S
H2672 C2660 0.960 . S
H2673 C2660 0.962 . S
H2674 C2660 0.960 . S
H2675 C2661 0.961 . S
H2676 C2661 0.961 . S
H2677 C2661 0.961 . S
H2678 C2662 0.931 . S
H2679 C2667 0.930 . S
H2680 C2668 0.956 . S
H2681 C2668 0.961 . S
H2682 C2668 0.961 . S
H2683 C2669 0.958 . S
H2684 C2669 0.961 . S
H2685 C2669 0.960 . S
C2686 C2687 1.391 . S
C2686 C2688 1.394 . S
C2686 H2702 0.931 . S
C2687 C2686 1.391 . S
C2687 C2691 1.376 . S
C2688 C2686 1.394 . S
C2688 C2689 1.369 . S
C2688 C2692 1.531 . S
C2689 C2688 1.369 . S
C2689 C2690 1.410 . S
C2689 C2697 1.503 . S
C2690 C2689 1.410 . S
C2690 C2691 1.392 . S
C2690 C2693 1.511 . S
C2691 C2687 1.376 . S
C2691 C2690 1.392 . S
C2691 H2703 0.929 . S
C2692 C2688 1.531 . S
C2692 H2704 0.960 . S
C2692 H2705 0.962 . S
C2692 H2706 0.960 . S
C2693 C2690 1.511 . S
C2693 H2707 0.961 . S
C2693 H2708 0.961 . S
C2693 H2709 0.961 . S
C2694 C2695 1.370 . S
C2694 C2696 1.363 . S
C2694 H2710 0.931 . S
C2695 C2694 1.370 . S
C2695 C2699 1.408 . S
C2696 C2694 1.363 . S
C2696 C2697 1.370 . S
C2696 C2700 1.524 . S
C2697 C2689 1.503 . S
C2697 C2696 1.370 . S
C2697 C2698 1.403 . S
C2698 C2697 1.403 . S
C2698 C2699 1.404 . S
C2698 C2701 1.539 . S
C2699 C2695 1.408 . S
C2699 C2698 1.404 . S
C2699 H2711 0.930 . S
C2700 C2696 1.524 . S
C2700 H2712 0.956 . S
C2700 H2713 0.961 . S
C2700 H2714 0.961 . S
C2701 C2698 1.539 . S
C2701 H2715 0.958 . S
C2701 H2716 0.961 . S
C2701 H2717 0.960 . S
H2702 C2686 0.931 . S
H2703 C2691 0.929 . S
H2704 C2692 0.960 . S
H2705 C2692 0.962 . S
H2706 C2692 0.960 . S
H2707 C2693 0.961 . S
H2708 C2693 0.961 . S
H2709 C2693 0.961 . S
H2710 C2694 0.931 . S
H2711 C2699 0.930 . S
H2712 C2700 0.956 . S
H2713 C2700 0.961 . S
H2714 C2700 0.961 . S
H2715 C2701 0.958 . S
H2716 C2701 0.961 . S
H2717 C2701 0.960 . S
C2718 C2719 1.391 . S
C2718 C2720 1.394 . S
C2718 H2734 0.931 . S
C2719 C2718 1.391 . S
C2719 C2723 1.376 . S
C2720 C2718 1.394 . S
C2720 C2721 1.369 . S
C2720 C2724 1.531 . S
C2721 C2720 1.369 . S
C2721 C2722 1.410 . S
C2721 C2729 1.503 . S
C2722 C2721 1.410 . S
C2722 C2723 1.392 . S
C2722 C2725 1.511 . S
C2723 C2719 1.376 . S
C2723 C2722 1.392 . S
C2723 H2735 0.929 . S
C2724 C2720 1.531 . S
C2724 H2736 0.960 . S
C2724 H2737 0.962 . S
C2724 H2738 0.960 . S
C2725 C2722 1.511 . S
C2725 H2739 0.961 . S
C2725 H2740 0.961 . S
C2725 H2741 0.961 . S
C2726 C2727 1.370 . S
C2726 C2728 1.363 . S
C2726 H2742 0.931 . S
C2727 C2726 1.370 . S
C2727 C2731 1.408 . S
C2728 C2726 1.363 . S
C2728 C2729 1.370 . S
C2728 C2732 1.524 . S
C2729 C2721 1.503 . S
C2729 C2728 1.370 . S
C2729 C2730 1.403 . S
C2730 C2729 1.403 . S
C2730 C2731 1.404 . S
C2730 C2733 1.539 . S
C2731 C2727 1.408 . S
C2731 C2730 1.404 . S
C2731 H2743 0.930 . S
C2732 C2728 1.524 . S
C2732 H2744 0.956 . S
C2732 H2745 0.961 . S
C2732 H2746 0.961 . S
C2733 C2730 1.539 . S
C2733 H2747 0.958 . S
C2733 H2748 0.961 . S
C2733 H2749 0.960 . S
H2734 C2718 0.931 . S
H2735 C2723 0.929 . S
H2736 C2724 0.960 . S
H2737 C2724 0.962 . S
H2738 C2724 0.960 . S
H2739 C2725 0.961 . S
H2740 C2725 0.961 . S
H2741 C2725 0.961 . S
H2742 C2726 0.931 . S
H2743 C2731 0.930 . S
H2744 C2732 0.956 . S
H2745 C2732 0.961 . S
H2746 C2732 0.961 . S
H2747 C2733 0.958 . S
H2748 C2733 0.961 . S
H2749 C2733 0.960 . S
C2750 C2751 1.391 . S
C2750 C2752 1.394 . S
C2750 H2766 0.931 . S
C2751 C2750 1.391 . S
C2751 C2755 1.376 . S
C2752 C2750 1.394 . S
C2752 C2753 1.369 . S
C2752 C2756 1.531 . S
C2753 C2752 1.369 . S
C2753 C2754 1.410 . S
C2753 C2761 1.503 . S
C2754 C2753 1.410 . S
C2754 C2755 1.392 . S
C2754 C2757 1.511 . S
C2755 C2751 1.376 . S
C2755 C2754 1.392 . S
C2755 H2767 0.929 . S
C2756 C2752 1.531 . S
C2756 H2768 0.960 . S
C2756 H2769 0.962 . S
C2756 H2770 0.960 . S
C2757 C2754 1.511 . S
C2757 H2771 0.961 . S
C2757 H2772 0.961 . S
C2757 H2773 0.961 . S
C2758 C2759 1.370 . S
C2758 C2760 1.363 . S
C2758 H2774 0.931 . S
C2759 C2758 1.370 . S
C2759 C2763 1.408 . S
C2760 C2758 1.363 . S
C2760 C2761 1.370 . S
C2760 C2764 1.524 . S
C2761 C2753 1.503 . S
C2761 C2760 1.370 . S
C2761 C2762 1.403 . S
C2762 C2761 1.403 . S
C2762 C2763 1.404 . S
C2762 C2765 1.539 . S
C2763 C2759 1.408 . S
C2763 C2762 1.404 . S
C2763 H2775 0.930 . S
C2764 C2760 1.524 . S
C2764 H2776 0.956 . S
C2764 H2777 0.961 . S
C2764 H2778 0.961 . S
C2765 C2762 1.539 . S
C2765 H2779 0.958 . S
C2765 H2780 0.961 . S
C2765 H2781 0.960 . S
H2766 C2750 0.931 . S
H2767 C2755 0.929 . S
H2768 C2756 0.960 . S
H2769 C2756 0.962 . S
H2770 C2756 0.960 . S
H2771 C2757 0.961 . S
H2772 C2757 0.961 . S
H2773 C2757 0.961 . S
H2774 C2758 0.931 . S
H2775 C2763 0.930 . S
H2776 C2764 0.956 . S
H2777 C2764 0.961 . S
H2778 C2764 0.961 . S
H2779 C2765 0.958 . S
H2780 C2765 0.961 . S
H2781 C2765 0.960 . S
C2782 C2783 1.391 . S
C2782 C2784 1.394 . S
C2782 H2798 0.931 . S
C2783 C2782 1.391 . S
C2783 C2787 1.376 . S
C2784 C2782 1.394 . S
C2784 C2785 1.369 . S
C2784 C2788 1.531 . S
C2785 C2784 1.369 . S
C2785 C2786 1.410 . S
C2785 C2793 1.503 . S
C2786 C2785 1.410 . S
C2786 C2787 1.392 . S
C2786 C2789 1.511 . S
C2787 C2783 1.376 . S
C2787 C2786 1.392 . S
C2787 H2799 0.929 . S
C2788 C2784 1.531 . S
C2788 H2800 0.960 . S
C2788 H2801 0.962 . S
C2788 H2802 0.960 . S
C2789 C2786 1.511 . S
C2789 H2803 0.961 . S
C2789 H2804 0.961 . S
C2789 H2805 0.961 . S
C2790 C2791 1.370 . S
C2790 C2792 1.363 . S
C2790 H2806 0.931 . S
C2791 C2790 1.370 . S
C2791 C2795 1.408 . S
C2792 C2790 1.363 . S
C2792 C2793 1.370 . S
C2792 C2796 1.524 . S
C2793 C2785 1.503 . S
C2793 C2792 1.370 . S
C2793 C2794 1.403 . S
C2794 C2793 1.403 . S
C2794 C2795 1.404 . S
C2794 C2797 1.539 . S
C2795 C2791 1.408 . S
C2795 C2794 1.404 . S
C2795 H2807 0.930 . S
C2796 C2792 1.524 . S
C2796 H2808 0.956 . S
C2796 H2809 0.961 . S
C2796 H2810 0.961 . S
C2797 C2794 1.539 . S
C2797 H2811 0.958 . S
C2797 H2812 0.961 . S
C2797 H2813 0.960 . S
H2798 C2782 0.931 . S
H2799 C2787 0.929 . S
H2800 C2788 0.960 . S
H2801 C2788 0.962 . S
H2802 C2788 0.960 . S
H2803 C2789 0.961 . S
H2804 C2789 0.961 . S
H2805 C2789 0.961 . S
H2806 C2790 0.931 . S
H2807 C2795 0.930 . S
H2808 C2796 0.956 . S
H2809 C2796 0.961 . S
H2810 C2796 0.961 . S
H2811 C2797 0.958 . S
H2812 C2797 0.961 . S
H2813 C2797 0.960 . S
C2814 C2815 1.391 . S
C2814 C2816 1.394 . S
C2814 H2830 0.931 . S
C2815 C2814 1.391 . S
C2815 C2819 1.376 1_554 S
C2816 C2814 1.394 . S
C2816 C2817 1.369 1_554 S
C2816 C2820 1.531 . S
C2817 C2816 1.369 1_556 S
C2817 C2818 1.410 . S
C2817 C2825 1.503 . S
C2818 C2817 1.410 . S
C2818 C2819 1.392 . S
C2818 C2821 1.511 . S
C2819 C2815 1.376 1_556 S
C2819 C2818 1.392 . S
C2819 H2831 0.929 . S
C2820 C2816 1.531 . S
C2820 H2832 0.960 . S
C2820 H2833 0.962 . S
C2820 H2834 0.960 . S
C2821 C2818 1.511 . S
C2821 H2835 0.961 . S
C2821 H2836 0.961 . S
C2821 H2837 0.961 . S
C2822 C2823 1.370 . S
C2822 C2824 1.363 . S
C2822 H2838 0.931 . S
C2823 C2822 1.370 . S
C2823 C2827 1.408 . S
C2824 C2822 1.363 . S
C2824 C2825 1.370 . S
C2824 C2828 1.524 . S
C2825 C2817 1.503 . S
C2825 C2824 1.370 . S
C2825 C2826 1.403 . S
C2826 C2825 1.403 . S
C2826 C2827 1.404 . S
C2826 C2829 1.542 1_556 S
C2827 C2823 1.408 . S
C2827 C2826 1.404 . S
C2827 H2839 0.930 . S
C2828 C2824 1.524 . S
C2828 H2840 0.956 . S
C2828 H2841 0.961 . S
C2828 H2842 0.961 . S
C2829 C2826 1.542 1_554 S
C2829 H2843 0.953 . S
C2829 H2844 0.964 1_554 S
C2829 H2845 0.958 1_554 S
H2830 C2814 0.931 . S
H2831 C2819 0.929 . S
H2832 C2820 0.960 . S
H2833 C2820 0.962 . S
H2834 C2820 0.960 . S
H2835 C2821 0.961 . S
H2836 C2821 0.961 . S
H2837 C2821 0.961 . S
H2838 C2822 0.931 . S
H2839 C2827 0.930 . S
H2840 C2828 0.956 . S
H2841 C2828 0.961 . S
H2842 C2828 0.961 . S
H2843 C2829 0.953 . S
H2844 C2829 0.964 1_556 S
H2845 C2829 0.958 1_556 S
C2846 C2847 1.391 . S
C2846 C2848 1.394 . S
C2846 H2862 0.931 1_556 S
C2847 C2846 1.391 . S
C2847 C2851 1.376 . S
C2848 C2846 1.394 . S
C2848 C2849 1.369 . S
C2848 C2852 1.531 . S
C2849 C2848 1.369 . S
C2849 C2850 1.410 . S
C2849 C2857 1.503 . S
C2850 C2849 1.410 . S
C2850 C2851 1.392 . S
C2850 C2853 1.511 . S
C2851 C2847 1.376 . S
C2851 C2850 1.392 . S
C2851 H2863 0.929 . S
C2852 C2848 1.531 . S
C2852 H2864 0.960 . S
C2852 H2865 0.962 . S
C2852 H2866 0.960 . S
C2853 C2850 1.511 . S
C2853 H2867 0.961 . S
C2853 H2868 0.961 . S
C2853 H2869 0.961 . S
C2854 C2855 1.370 . S
C2854 C2856 1.363 . S
C2854 H2870 0.931 . S
C2855 C2854 1.370 . S
C2855 C2859 1.408 . S
C2856 C2854 1.363 . S
C2856 C2857 1.370 . S
C2856 C2860 1.524 . S
C2857 C2849 1.503 . S
C2857 C2856 1.370 . S
C2857 C2858 1.403 . S
C2858 C2857 1.403 . S
C2858 C2859 1.404 . S
C2858 C2861 1.539 . S
C2859 C2855 1.408 . S
C2859 C2858 1.404 . S
C2859 H2871 0.930 . S
C2860 C2856 1.524 . S
C2860 H2872 0.956 1_556 S
C2860 H2873 0.961 . S
C2860 H2874 0.953 1_556 S
C2861 C2858 1.539 . S
C2861 H2875 0.958 . S
C2861 H2876 0.961 . S
C2861 H2877 0.960 . S
H2862 C2846 0.931 1_554 S
H2863 C2851 0.929 . S
H2864 C2852 0.960 . S
H2865 C2852 0.962 . S
H2866 C2852 0.960 . S
H2867 C2853 0.961 . S
H2868 C2853 0.961 . S
H2869 C2853 0.961 . S
H2870 C2854 0.931 . S
H2871 C2859 0.930 . S
H2872 C2860 0.956 1_554 S
H2873 C2860 0.961 . S
H2874 C2860 0.953 1_554 S
H2875 C2861 0.958 . S
H2876 C2861 0.961 . S
H2877 C2861 0.960 . S
C2878 C2879 1.391 . S
C2878 C2880 1.394 . S
C2878 H2894 0.931 . S
C2879 C2878 1.391 . S
C2879 C2883 1.376 . S
C2880 C2878 1.394 . S
C2880 C2881 1.369 . S
C2880 C2884 1.531 . S
C2881 C2880 1.369 . S
C2881 C2882 1.410 . S
C2881 C2889 1.503 . S
C2882 C2881 1.410 . S
C2882 C2883 1.392 . S
C2882 C2885 1.511 . S
C2883 C2879 1.376 . S
C2883 C2882 1.392 . S
C2883 H2895 0.929 . S
C2884 C2880 1.531 . S
C2884 H2896 0.960 . S
C2884 H2897 0.962 . S
C2884 H2898 0.960 . S
C2885 C2882 1.511 . S
C2885 H2899 0.961 . S
C2885 H2900 0.961 . S
C2885 H2901 0.961 . S
C2886 C2887 1.370 . S
C2886 C2888 1.363 . S
C2886 H2902 0.931 . S
C2887 C2886 1.370 . S
C2887 C2891 1.408 1_556 S
C2888 C2886 1.363 . S
C2888 C2889 1.370 1_556 S
C2888 C2892 1.524 . S
C2889 C2881 1.503 . S
C2889 C2888 1.370 1_554 S
C2889 C2890 1.403 . S
C2890 C2889 1.403 . S
C2890 C2891 1.404 . S
C2890 C2893 1.539 . S
C2891 C2887 1.408 1_554 S
C2891 C2890 1.404 . S
C2891 H2903 0.930 . S
C2892 C2888 1.524 . S
C2892 H2904 0.956 . S
C2892 H2905 0.961 . S
C2892 H2906 0.961 . S
C2893 C2890 1.539 . S
C2893 H2907 0.958 . S
C2893 H2908 0.961 . S
C2893 H2909 0.960 . S
H2894 C2878 0.931 . S
H2895 C2883 0.929 . S
H2896 C2884 0.960 . S
H2897 C2884 0.962 . S
H2898 C2884 0.960 . S
H2899 C2885 0.961 . S
H2900 C2885 0.961 . S
H2901 C2885 0.961 . S
H2902 C2886 0.931 . S
H2903 C2891 0.930 . S
H2904 C2892 0.956 . S
H2905 C2892 0.961 . S
H2906 C2892 0.961 . S
H2907 C2893 0.958 . S
H2908 C2893 0.961 . S
H2909 C2893 0.960 . S
C2910 C2911 1.391 1_556 S
C2910 C2912 1.394 . S
C2910 H2926 0.931 . S
C2911 C2910 1.391 1_554 S
C2911 C2915 1.376 . S
C2912 C2910 1.394 . S
C2912 C2913 1.369 . S
C2912 C2916 1.531 . S
C2913 C2912 1.369 . S
C2913 C2914 1.410 1_556 S
C2913 C2921 1.503 . S
C2914 C2913 1.410 1_554 S
C2914 C2915 1.392 . S
C2914 C2917 1.511 . S
C2915 C2911 1.376 . S
C2915 C2914 1.392 . S
C2915 H2927 0.929 . S
C2916 C2912 1.531 . S
C2916 H2928 0.960 . S
C2916 H2929 0.962 . S
C2916 H2930 0.960 . S
C2917 C2914 1.511 . S
C2917 H2931 0.961 . S
C2917 H2932 0.961 . S
C2917 H2933 0.961 . S
C2918 C2919 1.370 . S
C2918 C2920 1.363 . S
C2918 H2934 0.931 . S
C2919 C2918 1.370 . S
C2919 C2923 1.408 . S
C2920 C2918 1.363 . S
C2920 C2921 1.370 . S
C2920 C2924 1.524 . S
C2921 C2913 1.503 . S
C2921 C2920 1.370 . S
C2921 C2922 1.403 . S
C2922 C2921 1.403 . S
C2922 C2923 1.404 . S
C2922 C2925 1.539 . S
C2923 C2919 1.408 . S
C2923 C2922 1.404 . S
C2923 H2935 0.930 . S
C2924 C2920 1.524 . S
C2924 H2936 0.956 . S
C2924 H2937 0.961 . S
C2924 H2938 0.961 . S
C2925 C2922 1.539 . S
C2925 H2939 0.958 . S
C2925 H2940 0.961 . S
C2925 H2941 0.960 . S
H2926 C2910 0.931 . S
H2927 C2915 0.929 . S
H2928 C2916 0.960 . S
H2929 C2916 0.962 . S
H2930 C2916 0.960 . S
H2931 C2917 0.961 . S
H2932 C2917 0.961 . S
H2933 C2917 0.961 . S
H2934 C2918 0.931 . S
H2935 C2923 0.930 . S
H2936 C2924 0.956 . S
H2937 C2924 0.961 . S
H2938 C2924 0.961 . S
H2939 C2925 0.958 . S
H2940 C2925 0.961 . S
H2941 C2925 0.960 . S
C2942 C2943 1.391 . S
C2942 C2944 1.394 . S
C2942 H2958 0.931 1_556 S
C2943 C2942 1.391 . S
C2943 C2947 1.376 . S
C2944 C2942 1.394 . S
C2944 C2945 1.369 . S
C2944 C2948 1.531 . S
C2945 C2944 1.369 . S
C2945 C2946 1.410 . S
C2945 C2953 1.503 . S
C2946 C2945 1.410 . S
C2946 C2947 1.392 . S
C2946 C2949 1.511 . S
C2947 C2943 1.376 . S
C2947 C2946 1.392 . S
C2947 H2959 0.929 . S
C2948 C2944 1.531 . S
C2948 H2960 0.960 . S
C2948 H2961 0.962 . S
C2948 H2962 0.960 1_556 S
C2949 C2946 1.511 . S
C2949 H2963 0.961 . S
C2949 H2964 0.961 . S
C2949 H2965 0.961 . S
C2950 C2951 1.370 . S
C2950 C2952 1.363 . S
C2950 H2966 0.931 . S
C2951 C2950 1.370 . S
C2951 C2955 1.408 . S
C2952 C2950 1.363 . S
C2952 C2953 1.370 . S
C2952 C2956 1.524 . S
C2953 C2945 1.503 . S
C2953 C2952 1.370 . S
C2953 C2954 1.403 . S
C2954 C2953 1.403 . S
C2954 C2955 1.404 . S
C2954 C2957 1.539 . S
C2955 C2951 1.408 . S
C2955 C2954 1.404 . S
C2955 H2967 0.930 . S
C2956 C2952 1.524 . S
C2956 H2968 0.956 . S
C2956 H2969 0.961 . S
C2956 H2970 0.961 . S
C2957 C2954 1.539 . S
C2957 H2971 0.958 . S
C2957 H2972 0.961 . S
C2957 H2973 0.960 . S
H2958 C2942 0.931 1_554 S
H2959 C2947 0.929 . S
H2960 C2948 0.960 . S
H2961 C2948 0.962 . S
H2962 C2948 0.960 1_554 S
H2963 C2949 0.961 . S
H2964 C2949 0.961 . S
H2965 C2949 0.961 . S
H2966 C2950 0.931 . S
H2967 C2955 0.930 . S
H2968 C2956 0.956 . S
H2969 C2956 0.961 . S
H2970 C2956 0.961 . S
H2971 C2957 0.958 . S
H2972 C2957 0.961 . S
H2973 C2957 0.960 . S
C2974 C2975 1.391 . S
C2974 C2976 1.394 . S
C2974 H2990 0.931 . S
C2975 C2974 1.391 . S
C2975 C2979 1.376 . S
C2976 C2974 1.394 . S
C2976 C2977 1.369 . S
C2976 C2980 1.531 . S
C2977 C2976 1.369 . S
C2977 C2978 1.410 . S
C2977 C2985 1.503 1_554 S
C2978 C2977 1.410 . S
C2978 C2979 1.392 . S
C2978 C2981 1.511 1_554 S
C2979 C2975 1.376 . S
C2979 C2978 1.392 . S
C2979 H2991 0.929 . S
C2980 C2976 1.531 . S
C2980 H2992 0.960 . S
C2980 H2993 0.962 . S
C2980 H2994 0.960 . S
C2981 C2978 1.511 1_556 S
C2981 H2995 0.961 . S
C2981 H2996 0.961 . S
C2981 H2997 0.961 1_556 S
C2982 C2983 1.370 . S
C2982 C2984 1.363 . S
C2982 H2998 0.931 . S
C2983 C2982 1.370 . S
C2983 C2987 1.408 . S
C2984 C2982 1.363 . S
C2984 C2985 1.370 . S
C2984 C2988 1.524 . S
C2985 C2977 1.503 1_556 S
C2985 C2984 1.370 . S
C2985 C2986 1.403 1_556 S
C2986 C2985 1.403 1_554 S
C2986 C2987 1.404 1_554 S
C2986 C2989 1.539 . S
C2987 C2983 1.408 . S
C2987 C2986 1.404 1_556 S
C2987 H2999 0.930 1_556 S
C2988 C2984 1.524 . S
C2988 H3000 0.956 . S
C2988 H3001 0.961 . S
C2988 H3002 0.961 . S
C2989 C2986 1.539 . S
C2989 H3003 0.958 . S
C2989 H3004 0.961 . S
C2989 H3005 0.960 . S
H2990 C2974 0.931 . S
H2991 C2979 0.929 . S
H2992 C2980 0.960 . S
H2993 C2980 0.962 . S
H2994 C2980 0.960 . S
H2995 C2981 0.961 . S
H2996 C2981 0.961 . S
H2997 C2981 0.961 1_554 S
H2998 C2982 0.931 . S
H2999 C2987 0.930 1_554 S
H3000 C2988 0.956 . S
H3001 C2988 0.961 . S
H3002 C2988 0.961 . S
H3003 C2989 0.958 . S
H3004 C2989 0.961 . S
H3005 C2989 0.960 . S
C3006 C3007 1.391 . S
C3006 C3008 1.394 . S
C3006 H3022 0.931 . S
C3007 C3006 1.391 . S
C3007 C3011 1.376 . S
C3008 C3006 1.394 . S
C3008 C3009 1.369 . S
C3008 C3012 1.531 . S
C3009 C3008 1.369 . S
C3009 C3010 1.410 . S
C3009 C3017 1.503 . S
C3010 C3009 1.410 . S
C3010 C3011 1.392 . S
C3010 C3013 1.511 . S
C3011 C3007 1.376 . S
C3011 C3010 1.392 . S
C3011 H3023 0.929 . S
C3012 C3008 1.531 . S
C3012 H3024 0.960 . S
C3012 H3025 0.962 . S
C3012 H3026 0.960 . S
C3013 C3010 1.511 . S
C3013 H3027 0.961 . S
C3013 H3028 0.961 . S
C3013 H3029 0.961 . S
C3014 C3015 1.370 . S
C3014 C3016 1.363 . S
C3014 H3030 0.931 . S
C3015 C3014 1.370 . S
C3015 C3019 1.408 . S
C3016 C3014 1.363 . S
C3016 C3017 1.370 . S
C3016 C3020 1.524 . S
C3017 C3009 1.503 . S
C3017 C3016 1.370 . S
C3017 C3018 1.403 . S
C3018 C3017 1.403 . S
C3018 C3019 1.404 . S
C3018 C3021 1.539 . S
C3019 C3015 1.408 . S
C3019 C3018 1.404 . S
C3019 H3031 0.930 . S
C3020 C3016 1.524 . S
C3020 H3032 0.956 . S
C3020 H3033 0.961 . S
C3020 H3034 0.961 . S
C3021 C3018 1.539 . S
C3021 H3035 0.958 . S
C3021 H3036 0.961 . S
C3021 H3037 0.960 . S
H3022 C3006 0.931 . S
H3023 C3011 0.929 . S
H3024 C3012 0.960 . S
H3025 C3012 0.962 . S
H3026 C3012 0.960 . S
H3027 C3013 0.961 . S
H3028 C3013 0.961 . S
H3029 C3013 0.961 . S
H3030 C3014 0.931 . S
H3031 C3019 0.930 . S
H3032 C3020 0.956 . S
H3033 C3020 0.961 . S
H3034 C3020 0.961 . S
H3035 C3021 0.958 . S
H3036 C3021 0.961 . S
H3037 C3021 0.960 . S
C3038 C3039 1.391 . S
C3038 C3040 1.394 . S
C3038 H3054 0.931 . S
C3039 C3038 1.391 . S
C3039 C3043 1.376 . S
C3040 C3038 1.394 . S
C3040 C3041 1.369 . S
C3040 C3044 1.531 . S
C3041 C3040 1.369 . S
C3041 C3042 1.410 . S
C3041 C3049 1.503 . S
C3042 C3041 1.410 . S
C3042 C3043 1.392 . S
C3042 C3045 1.511 . S
C3043 C3039 1.376 . S
C3043 C3042 1.392 . S
C3043 H3055 0.929 . S
C3044 C3040 1.531 . S
C3044 H3056 0.960 . S
C3044 H3057 0.962 . S
C3044 H3058 0.960 . S
C3045 C3042 1.511 . S
C3045 H3059 0.961 . S
C3045 H3060 0.961 . S
C3045 H3061 0.961 . S
C3046 C3047 1.370 . S
C3046 C3048 1.363 . S
C3046 H3062 0.931 . S
C3047 C3046 1.370 . S
C3047 C3051 1.408 . S
C3048 C3046 1.363 . S
C3048 C3049 1.370 . S
C3048 C3052 1.524 . S
C3049 C3041 1.503 . S
C3049 C3048 1.370 . S
C3049 C3050 1.403 . S
C3050 C3049 1.403 . S
C3050 C3051 1.404 . S
C3050 C3053 1.539 . S
C3051 C3047 1.408 . S
C3051 C3050 1.404 . S
C3051 H3063 0.930 . S
C3052 C3048 1.524 . S
C3052 H3064 0.956 . S
C3052 H3065 0.961 . S
C3052 H3066 0.961 . S
C3053 C3050 1.539 . S
C3053 H3067 0.958 . S
C3053 H3068 0.961 . S
C3053 H3069 0.960 . S
H3054 C3038 0.931 . S
H3055 C3043 0.929 . S
H3056 C3044 0.960 . S
H3057 C3044 0.962 . S
H3058 C3044 0.960 . S
H3059 C3045 0.961 . S
H3060 C3045 0.961 . S
H3061 C3045 0.961 . S
H3062 C3046 0.931 . S
H3063 C3051 0.930 . S
H3064 C3052 0.956 . S
H3065 C3052 0.961 . S
H3066 C3052 0.961 . S
H3067 C3053 0.958 . S
H3068 C3053 0.961 . S
H3069 C3053 0.960 . S
C3070 C3071 1.391 . S
C3070 C3072 1.394 . S
C3070 H3086 0.931 . S
C3071 C3070 1.391 . S
C3071 C3075 1.376 . S
C3072 C3070 1.394 . S
C3072 C3073 1.369 . S
C3072 C3076 1.531 . S
C3073 C3072 1.369 . S
C3073 C3074 1.410 . S
C3073 C3081 1.503 . S
C3074 C3073 1.410 . S
C3074 C3075 1.392 . S
C3074 C3077 1.511 . S
C3075 C3071 1.376 . S
C3075 C3074 1.392 . S
C3075 H3087 0.929 . S
C3076 C3072 1.531 . S
C3076 H3088 0.960 . S
C3076 H3089 0.962 . S
C3076 H3090 0.960 . S
C3077 C3074 1.511 . S
C3077 H3091 0.961 . S
C3077 H3092 0.961 . S
C3077 H3093 0.961 . S
C3078 C3079 1.370 . S
C3078 C3080 1.363 . S
C3078 H3094 0.931 . S
C3079 C3078 1.370 . S
C3079 C3083 1.408 . S
C3080 C3078 1.363 . S
C3080 C3081 1.370 . S
C3080 C3084 1.524 . S
C3081 C3073 1.503 . S
C3081 C3080 1.370 . S
C3081 C3082 1.403 . S
C3082 C3081 1.403 . S
C3082 C3083 1.404 . S
C3082 C3085 1.539 . S
C3083 C3079 1.408 . S
C3083 C3082 1.404 . S
C3083 H3095 0.930 . S
C3084 C3080 1.524 . S
C3084 H3096 0.956 . S
C3084 H3097 0.961 . S
C3084 H3098 0.961 . S
C3085 C3082 1.539 . S
C3085 H3099 0.958 . S
C3085 H3100 0.961 . S
C3085 H3101 0.960 . S
H3086 C3070 0.931 . S
H3087 C3075 0.929 . S
H3088 C3076 0.960 . S
H3089 C3076 0.962 . S
H3090 C3076 0.960 . S
H3091 C3077 0.961 . S
H3092 C3077 0.961 . S
H3093 C3077 0.961 . S
H3094 C3078 0.931 . S
H3095 C3083 0.930 . S
H3096 C3084 0.956 . S
H3097 C3084 0.961 . S
H3098 C3084 0.961 . S
H3099 C3085 0.958 . S
H3100 C3085 0.961 . S
H3101 C3085 0.960 . S
C3102 C3103 1.391 . S
C3102 C3104 1.394 . S
C3102 H3118 0.931 . S
C3103 C3102 1.391 . S
C3103 C3107 1.376 . S
C3104 C3102 1.394 . S
C3104 C3105 1.369 . S
C3104 C3108 1.531 . S
C3105 C3104 1.369 . S
C3105 C3106 1.410 . S
C3105 C3113 1.503 . S
C3106 C3105 1.410 . S
C3106 C3107 1.392 . S
C3106 C3109 1.511 . S
C3107 C3103 1.376 . S
C3107 C3106 1.392 . S
C3107 H3119 0.929 . S
C3108 C3104 1.531 . S
C3108 H3120 0.960 . S
C3108 H3121 0.962 . S
C3108 H3122 0.960 . S
C3109 C3106 1.511 . S
C3109 H3123 0.961 . S
C3109 H3124 0.961 . S
C3109 H3125 0.961 . S
C3110 C3111 1.370 . S
C3110 C3112 1.363 . S
C3110 H3126 0.931 . S
C3111 C3110 1.370 . S
C3111 C3115 1.408 . S
C3112 C3110 1.363 . S
C3112 C3113 1.370 . S
C3112 C3116 1.524 . S
C3113 C3105 1.503 . S
C3113 C3112 1.370 . S
C3113 C3114 1.403 . S
C3114 C3113 1.403 . S
C3114 C3115 1.404 . S
C3114 C3117 1.539 . S
C3115 C3111 1.408 . S
C3115 C3114 1.404 . S
C3115 H3127 0.930 . S
C3116 C3112 1.524 . S
C3116 H3128 0.956 . S
C3116 H3129 0.961 . S
C3116 H3130 0.961 . S
C3117 C3114 1.539 . S
C3117 H3131 0.958 . S
C3117 H3132 0.961 . S
C3117 H3133 0.960 . S
H3118 C3102 0.931 . S
H3119 C3107 0.929 . S
H3120 C3108 0.960 . S
H3121 C3108 0.962 . S
H3122 C3108 0.960 . S
H3123 C3109 0.961 . S
H3124 C3109 0.961 . S
H3125 C3109 0.961 . S
H3126 C3110 0.931 . S
H3127 C3115 0.930 . S
H3128 C3116 0.956 . S
H3129 C3116 0.961 . S
H3130 C3116 0.961 . S
H3131 C3117 0.958 . S
H3132 C3117 0.961 . S
H3133 C3117 0.960 . S
C3134 C3135 1.391 . S
C3134 C3136 1.394 . S
C3134 H3150 0.931 . S
C3135 C3134 1.391 . S
C3135 C3139 1.376 . S
C3136 C3134 1.394 . S
C3136 C3137 1.369 . S
C3136 C3140 1.531 . S
C3137 C3136 1.369 . S
C3137 C3138 1.410 . S
C3137 C3145 1.503 . S
C3138 C3137 1.410 . S
C3138 C3139 1.392 . S
C3138 C3141 1.511 . S
C3139 C3135 1.376 . S
C3139 C3138 1.392 . S
C3139 H3151 0.929 . S
C3140 C3136 1.531 . S
C3140 H3152 0.960 . S
C3140 H3153 0.962 . S
C3140 H3154 0.960 . S
C3141 C3138 1.511 . S
C3141 H3155 0.961 . S
C3141 H3156 0.961 . S
C3141 H3157 0.961 . S
C3142 C3143 1.370 . S
C3142 C3144 1.363 . S
C3142 H3158 0.931 . S
C3143 C3142 1.370 . S
C3143 C3147 1.408 . S
C3144 C3142 1.363 . S
C3144 C3145 1.370 . S
C3144 C3148 1.524 . S
C3145 C3137 1.503 . S
C3145 C3144 1.370 . S
C3145 C3146 1.403 . S
C3146 C3145 1.403 . S
C3146 C3147 1.404 . S
C3146 C3149 1.539 . S
C3147 C3143 1.408 . S
C3147 C3146 1.404 . S
C3147 H3159 0.930 . S
C3148 C3144 1.524 . S
C3148 H3160 0.956 . S
C3148 H3161 0.961 . S
C3148 H3162 0.961 . S
C3149 C3146 1.539 . S
C3149 H3163 0.958 . S
C3149 H3164 0.961 . S
C3149 H3165 0.960 . S
H3150 C3134 0.931 . S
H3151 C3139 0.929 . S
H3152 C3140 0.960 . S
H3153 C3140 0.962 . S
H3154 C3140 0.960 . S
H3155 C3141 0.961 . S
H3156 C3141 0.961 . S
H3157 C3141 0.961 . S
H3158 C3142 0.931 . S
H3159 C3147 0.930 . S
H3160 C3148 0.956 . S
H3161 C3148 0.961 . S
H3162 C3148 0.961 . S
H3163 C3149 0.958 . S
H3164 C3149 0.961 . S
H3165 C3149 0.960 . S
C3166 C3167 1.391 1_655 S
C3166 C3168 1.394 . S
C3166 H3182 0.931 1_655 S
C3167 C3166 1.391 1_455 S
C3167 C3171 1.376 1_455 S
C3168 C3166 1.394 . S
C3168 C3169 1.369 . S
C3168 C3172 1.531 . S
C3169 C3168 1.369 . S
C3169 C3170 1.410 . S
C3169 C3177 1.503 . S
C3170 C3169 1.410 . S
C3170 C3171 1.392 . S
C3170 C3173 1.511 . S
C3171 C3167 1.376 1_655 S
C3171 C3170 1.392 . S
C3171 H3183 0.929 . S
C3172 C3168 1.531 . S
C3172 H3184 0.960 . S
C3172 H3185 0.962 . S
C3172 H3186 0.960 . S
C3173 C3170 1.511 . S
C3173 H3187 0.961 . S
C3173 H3188 0.961 . S
C3173 H3189 0.961 . S
C3174 C3175 1.370 . S
C3174 C3176 1.363 . S
C3174 H3190 0.931 . S
C3175 C3174 1.370 . S
C3175 C3179 1.408 . S
C3176 C3174 1.363 . S
C3176 C3177 1.370 . S
C3176 C3180 1.524 . S
C3177 C3169 1.503 . S
C3177 C3176 1.370 . S
C3177 C3178 1.403 . S
C3178 C3177 1.403 . S
C3178 C3179 1.404 . S
C3178 C3181 1.539 . S
C3179 C3175 1.408 . S
C3179 C3178 1.404 . S
C3179 H3191 0.930 . S
C3180 C3176 1.524 . S
C3180 H3192 0.956 . S
C3180 H3193 0.961 . S
C3180 H3194 0.961 . S
C3181 C3178 1.539 . S
C3181 H3195 0.958 . S
C3181 H3196 0.961 . S
C3181 H3197 0.960 . S
H3182 C3166 0.931 1_455 S
H3183 C3171 0.929 . S
H3184 C3172 0.960 . S
H3185 C3172 0.962 . S
H3186 C3172 0.960 . S
H3187 C3173 0.961 . S
H3188 C3173 0.961 . S
H3189 C3173 0.961 . S
H3190 C3174 0.931 . S
H3191 C3179 0.930 . S
H3192 C3180 0.956 . S
H3193 C3180 0.961 . S
H3194 C3180 0.961 . S
H3195 C3181 0.958 . S
H3196 C3181 0.961 . S
H3197 C3181 0.960 . S
C3198 C3199 1.391 . S
C3198 C3200 1.394 . S
C3198 H3214 0.931 . S
C3199 C3198 1.391 . S
C3199 C3203 1.376 . S
C3200 C3198 1.394 . S
C3200 C3201 1.369 . S
C3200 C3204 1.531 . S
C3201 C3200 1.369 . S
C3201 C3202 1.410 . S
C3201 C3209 1.503 . S
C3202 C3201 1.410 . S
C3202 C3203 1.392 . S
C3202 C3205 1.511 . S
C3203 C3199 1.376 . S
C3203 C3202 1.392 . S
C3203 H3215 0.929 . S
C3204 C3200 1.531 . S
C3204 H3216 0.960 . S
C3204 H3217 0.962 . S
C3204 H3218 0.960 . S
C3205 C3202 1.511 . S
C3205 H3219 0.961 . S
C3205 H3220 0.961 . S
C3205 H3221 0.961 . S
C3206 C3207 1.370 . S
C3206 C3208 1.363 . S
C3206 H3222 0.931 . S
C3207 C3206 1.370 . S
C3207 C3211 1.408 . S
C3208 C3206 1.363 . S
C3208 C3209 1.370 . S
C3208 C3212 1.524 . S
C3209 C3201 1.503 . S
C3209 C3208 1.370 . S
C3209 C3210 1.403 . S
C3210 C3209 1.403 . S
C3210 C3211 1.404 . S
C3210 C3213 1.539 1_455 S
C3211 C3207 1.408 . S
C3211 C3210 1.404 . S
C3211 H3223 0.930 1_455 S
C3212 C3208 1.524 . S
C3212 H3224 0.956 . S
C3212 H3225 0.961 . S
C3212 H3226 0.961 . S
C3213 C3210 1.539 1_655 S
C3213 H3227 0.958 . S
C3213 H3228 0.961 . S
C3213 H3229 0.960 . S
H3214 C3198 0.931 . S
H3215 C3203 0.929 . S
H3216 C3204 0.960 . S
H3217 C3204 0.962 . S
H3218 C3204 0.960 . S
H3219 C3205 0.961 . S
H3220 C3205 0.961 . S
H3221 C3205 0.961 . S
H3222 C3206 0.931 . S
H3223 C3211 0.930 1_655 S
H3224 C3212 0.956 . S
H3225 C3212 0.961 . S
H3226 C3212 0.961 . S
H3227 C3213 0.958 . S
H3228 C3213 0.961 . S
H3229 C3213 0.960 . S
C3230 C3231 1.391 . S
C3230 C3232 1.394 . S
C3230 H3246 0.931 . S
C3231 C3230 1.391 . S
C3231 C3235 1.376 . S
C3232 C3230 1.394 . S
C3232 C3233 1.369 . S
C3232 C3236 1.531 . S
C3233 C3232 1.369 . S
C3233 C3234 1.410 . S
C3233 C3241 1.503 . S
C3234 C3233 1.410 . S
C3234 C3235 1.392 . S
C3234 C3237 1.511 . S
C3235 C3231 1.376 . S
C3235 C3234 1.392 . S
C3235 H3247 0.929 . S
C3236 C3232 1.531 . S
C3236 H3248 0.960 . S
C3236 H3249 0.962 . S
C3236 H3250 0.960 . S
C3237 C3234 1.511 . S
C3237 H3251 0.961 . S
C3237 H3252 0.961 . S
C3237 H3253 0.961 . S
C3238 C3239 1.370 . S
C3238 C3240 1.363 . S
C3238 H3254 0.931 . S
C3239 C3238 1.370 . S
C3239 C3243 1.408 . S
C3240 C3238 1.363 . S
C3240 C3241 1.370 . S
C3240 C3244 1.524 . S
C3241 C3233 1.503 . S
C3241 C3240 1.370 . S
C3241 C3242 1.403 . S
C3242 C3241 1.403 . S
C3242 C3243 1.404 . S
C3242 C3245 1.539 . S
C3243 C3239 1.408 . S
C3243 C3242 1.404 . S
C3243 H3255 0.930 . S
C3244 C3240 1.524 . S
C3244 H3256 0.956 . S
C3244 H3257 0.961 . S
C3244 H3258 0.961 . S
C3245 C3242 1.539 . S
C3245 H3259 0.958 . S
C3245 H3260 0.961 . S
C3245 H3261 0.960 . S
H3246 C3230 0.931 . S
H3247 C3235 0.929 . S
H3248 C3236 0.960 . S
H3249 C3236 0.962 . S
H3250 C3236 0.960 . S
H3251 C3237 0.961 . S
H3252 C3237 0.961 . S
H3253 C3237 0.961 . S
H3254 C3238 0.931 . S
H3255 C3243 0.930 . S
H3256 C3244 0.956 . S
H3257 C3244 0.961 . S
H3258 C3244 0.961 . S
H3259 C3245 0.958 . S
H3260 C3245 0.961 . S
H3261 C3245 0.960 . S
C3262 C3263 1.391 . S
C3262 C3264 1.394 . S
C3262 H3278 0.931 . S
C3263 C3262 1.391 . S
C3263 C3267 1.376 . S
C3264 C3262 1.394 . S
C3264 C3265 1.369 . S
C3264 C3268 1.531 . S
C3265 C3264 1.369 . S
C3265 C3266 1.410 . S
C3265 C3273 1.503 . S
C3266 C3265 1.410 . S
C3266 C3267 1.392 . S
C3266 C3269 1.511 . S
C3267 C3263 1.376 . S
C3267 C3266 1.392 . S
C3267 H3279 0.929 . S
C3268 C3264 1.531 . S
C3268 H3280 0.960 . S
C3268 H3281 0.962 . S
C3268 H3282 0.960 . S
C3269 C3266 1.511 . S
C3269 H3283 0.961 . S
C3269 H3284 0.961 . S
C3269 H3285 0.961 . S
C3270 C3271 1.370 . S
C3270 C3272 1.363 . S
C3270 H3286 0.931 1_565 S
C3271 C3270 1.370 . S
C3271 C3275 1.408 . S
C3272 C3270 1.363 . S
C3272 C3273 1.370 . S
C3272 C3276 1.524 1_565 S
C3273 C3265 1.503 . S
C3273 C3272 1.370 . S
C3273 C3274 1.403 . S
C3274 C3273 1.403 . S
C3274 C3275 1.404 . S
C3274 C3277 1.539 . S
C3275 C3271 1.408 . S
C3275 C3274 1.404 . S
C3275 H3287 0.930 . S
C3276 C3272 1.524 1_545 S
C3276 H3288 0.952 1_545 S
C3276 H3289 0.961 . S
C3276 H3290 0.961 . S
C3277 C3274 1.539 . S
C3277 H3291 0.958 . S
C3277 H3292 0.961 . S
C3277 H3293 0.960 . S
H3278 C3262 0.931 . S
H3279 C3267 0.929 . S
H3280 C3268 0.960 . S
H3281 C3268 0.962 . S
H3282 C3268 0.960 . S
H3283 C3269 0.961 . S
H3284 C3269 0.961 . S
H3285 C3269 0.961 . S
H3286 C3270 0.931 1_545 S
H3287 C3275 0.930 . S
H3288 C3276 0.952 1_565 S
H3289 C3276 0.961 . S
H3290 C3276 0.961 . S
H3291 C3277 0.958 . S
H3292 C3277 0.961 . S
H3293 C3277 0.960 . S
C3294 C3295 1.391 . S
C3294 C3296 1.394 . S
C3294 H3310 0.926 1_565 S
C3295 C3294 1.391 . S
C3295 C3299 1.376 . S
C3296 C3294 1.394 . S
C3296 C3297 1.369 . S
C3296 C3300 1.531 1_565 S
C3297 C3296 1.369 . S
C3297 C3298 1.410 . S
C3297 C3305 1.503 . S
C3298 C3297 1.410 . S
C3298 C3299 1.392 . S
C3298 C3301 1.511 . S
C3299 C3295 1.376 . S
C3299 C3298 1.392 . S
C3299 H3311 0.929 . S
C3300 C3296 1.531 1_545 S
C3300 H3312 0.960 . S
C3300 H3313 0.962 . S
C3300 H3314 0.960 . S
C3301 C3298 1.511 . S
C3301 H3315 0.961 . S
C3301 H3316 0.961 . S
C3301 H3317 0.961 . S
C3302 C3303 1.370 . S
C3302 C3304 1.363 . S
C3302 H3318 0.931 . S
C3303 C3302 1.370 . S
C3303 C3307 1.408 1_565 S
C3304 C3302 1.363 . S
C3304 C3305 1.370 . S
C3304 C3308 1.524 . S
C3305 C3297 1.503 . S
C3305 C3304 1.370 . S
C3305 C3306 1.403 . S
C3306 C3305 1.403 . S
C3306 C3307 1.404 1_565 S
C3306 C3309 1.541 . S
C3307 C3303 1.408 1_545 S
C3307 C3306 1.404 1_545 S
C3307 H3319 0.930 . S
C3308 C3304 1.524 . S
C3308 H3320 0.956 . S
C3308 H3321 0.961 . S
C3308 H3322 0.961 . S
C3309 C3306 1.541 . S
C3309 H3323 0.961 1_565 S
C3309 H3324 0.961 . S
C3309 H3325 0.955 . S
H3310 C3294 0.926 1_545 S
H3311 C3299 0.929 . S
H3312 C3300 0.960 . S
H3313 C3300 0.962 . S
H3314 C3300 0.960 . S
H3315 C3301 0.961 . S
H3316 C3301 0.961 . S
H3317 C3301 0.961 . S
H3318 C3302 0.931 . S
H3319 C3307 0.930 . S
H3320 C3308 0.956 . S
H3321 C3308 0.961 . S
H3322 C3308 0.961 . S
H3323 C3309 0.961 1_545 S
H3324 C3309 0.961 . S
H3325 C3309 0.955 . S
C3326 C3327 1.391 . S
C3326 C3328 1.394 . S
C3326 H3342 0.931 . S
C3327 C3326 1.391 . S
C3327 C3331 1.376 . S
C3328 C3326 1.394 . S
C3328 C3329 1.369 . S
C3328 C3332 1.531 . S
C3329 C3328 1.369 . S
C3329 C3330 1.410 . S
C3329 C3337 1.503 . S
C3330 C3329 1.410 . S
C3330 C3331 1.392 . S
C3330 C3333 1.510 1_455 S
C3331 C3327 1.376 . S
C3331 C3330 1.392 . S
C3331 H3343 0.929 . S
C3332 C3328 1.531 . S
C3332 H3344 0.960 . S
C3332 H3345 0.962 . S
C3332 H3346 0.960 . S
C3333 C3330 1.510 1_655 S
C3333 H3347 0.961 1_655 S
C3333 H3348 0.959 1_655 S
C3333 H3349 0.964 . S
C3334 C3335 1.370 1_455 S
C3334 C3336 1.363 . S
C3334 H3350 0.931 . S
C3335 C3334 1.370 1_655 S
C3335 C3339 1.408 . S
C3336 C3334 1.363 . S
C3336 C3337 1.370 . S
C3336 C3340 1.524 . S
C3337 C3329 1.503 . S
C3337 C3336 1.370 . S
C3337 C3338 1.403 1_455 S
C3338 C3337 1.403 1_655 S
C3338 C3339 1.404 . S
C3338 C3341 1.539 . S
C3339 C3335 1.408 . S
C3339 C3338 1.404 . S
C3339 H3351 0.930 . S
C3340 C3336 1.524 . S
C3340 H3352 0.956 . S
C3340 H3353 0.961 . S
C3340 H3354 0.961 . S
C3341 C3338 1.539 . S
C3341 H3355 0.958 . S
C3341 H3356 0.961 . S
C3341 H3357 0.960 . S
H3342 C3326 0.931 . S
H3343 C3331 0.929 . S
H3344 C3332 0.960 . S
H3345 C3332 0.962 . S
H3346 C3332 0.960 . S
H3347 C3333 0.961 1_455 S
H3348 C3333 0.959 1_455 S
H3349 C3333 0.964 . S
H3350 C3334 0.931 . S
H3351 C3339 0.930 . S
H3352 C3340 0.956 . S
H3353 C3340 0.961 . S
H3354 C3340 0.961 . S
H3355 C3341 0.958 . S
H3356 C3341 0.961 . S
H3357 C3341 0.960 . S
C3358 C3359 1.391 . S
C3358 C3360 1.394 . S
C3358 H3374 0.931 . S
C3359 C3358 1.391 . S
C3359 C3363 1.376 . S
C3360 C3358 1.394 . S
C3360 C3361 1.369 . S
C3360 C3364 1.531 . S
C3361 C3360 1.369 . S
C3361 C3362 1.410 . S
C3361 C3369 1.503 . S
C3362 C3361 1.410 . S
C3362 C3363 1.392 . S
C3362 C3365 1.511 . S
C3363 C3359 1.376 . S
C3363 C3362 1.392 . S
C3363 H3375 0.929 . S
C3364 C3360 1.531 . S
C3364 H3376 0.960 . S
C3364 H3377 0.962 . S
C3364 H3378 0.960 . S
C3365 C3362 1.511 . S
C3365 H3379 0.961 . S
C3365 H3380 0.961 . S
C3365 H3381 0.961 . S
C3366 C3367 1.370 . S
C3366 C3368 1.363 . S
C3366 H3382 0.931 . S
C3367 C3366 1.370 . S
C3367 C3371 1.408 . S
C3368 C3366 1.363 . S
C3368 C3369 1.370 . S
C3368 C3372 1.524 . S
C3369 C3361 1.503 . S
C3369 C3368 1.370 . S
C3369 C3370 1.403 . S
C3370 C3369 1.403 . S
C3370 C3371 1.404 . S
C3370 C3373 1.539 . S
C3371 C3367 1.408 . S
C3371 C3370 1.404 . S
C3371 H3383 0.930 . S
C3372 C3368 1.524 . S
C3372 H3384 0.956 . S
C3372 H3385 0.961 . S
C3372 H3386 0.961 . S
C3373 C3370 1.539 . S
C3373 H3387 0.958 . S
C3373 H3388 0.961 . S
C3373 H3389 0.960 . S
H3374 C3358 0.931 . S
H3375 C3363 0.929 . S
H3376 C3364 0.960 . S
H3377 C3364 0.962 . S
H3378 C3364 0.960 . S
H3379 C3365 0.961 . S
H3380 C3365 0.961 . S
H3381 C3365 0.961 . S
H3382 C3366 0.931 . S
H3383 C3371 0.930 . S
H3384 C3372 0.956 . S
H3385 C3372 0.961 . S
H3386 C3372 0.961 . S
H3387 C3373 0.958 . S
H3388 C3373 0.961 . S
H3389 C3373 0.960 . S
C3390 C3391 1.391 . S
C3390 C3392 1.394 . S
C3390 H3406 0.931 . S
C3391 C3390 1.391 . S
C3391 C3395 1.376 . S
C3392 C3390 1.394 . S
C3392 C3393 1.369 . S
C3392 C3396 1.531 . S
C3393 C3392 1.369 . S
C3393 C3394 1.410 . S
C3393 C3401 1.503 . S
C3394 C3393 1.410 . S
C3394 C3395 1.392 . S
C3394 C3397 1.511 . S
C3395 C3391 1.376 . S
C3395 C3394 1.392 . S
C3395 H3407 0.929 . S
C3396 C3392 1.531 . S
C3396 H3408 0.960 . S
C3396 H3409 0.962 . S
C3396 H3410 0.960 . S
C3397 C3394 1.511 . S
C3397 H3411 0.961 . S
C3397 H3412 0.961 . S
C3397 H3413 0.961 . S
C3398 C3399 1.370 . S
C3398 C3400 1.363 . S
C3398 H3414 0.931 . S
C3399 C3398 1.370 . S
C3399 C3403 1.408 . S
C3400 C3398 1.363 . S
C3400 C3401 1.370 . S
C3400 C3404 1.524 . S
C3401 C3393 1.503 . S
C3401 C3400 1.370 . S
C3401 C3402 1.403 . S
C3402 C3401 1.403 . S
C3402 C3403 1.404 . S
C3402 C3405 1.539 . S
C3403 C3399 1.408 . S
C3403 C3402 1.404 . S
C3403 H3415 0.930 . S
C3404 C3400 1.524 . S
C3404 H3416 0.956 . S
C3404 H3417 0.961 . S
C3404 H3418 0.961 . S
C3405 C3402 1.539 . S
C3405 H3419 0.958 . S
C3405 H3420 0.961 . S
C3405 H3421 0.960 . S
H3406 C3390 0.931 . S
H3407 C3395 0.929 . S
H3408 C3396 0.960 . S
H3409 C3396 0.962 . S
H3410 C3396 0.960 . S
H3411 C3397 0.961 . S
H3412 C3397 0.961 . S
H3413 C3397 0.961 . S
H3414 C3398 0.931 . S
H3415 C3403 0.930 . S
H3416 C3404 0.956 . S
H3417 C3404 0.961 . S
H3418 C3404 0.961 . S
H3419 C3405 0.958 . S
H3420 C3405 0.961 . S
H3421 C3405 0.960 . S
C3422 C3423 1.391 . S
C3422 C3424 1.394 . S
C3422 H3438 0.931 . S
C3423 C3422 1.391 . S
C3423 C3427 1.376 . S
C3424 C3422 1.394 . S
C3424 C3425 1.369 . S
C3424 C3428 1.531 . S
C3425 C3424 1.369 . S
C3425 C3426 1.410 . S
C3425 C3433 1.503 . S
C3426 C3425 1.410 . S
C3426 C3427 1.392 . S
C3426 C3429 1.511 . S
C3427 C3423 1.376 . S
C3427 C3426 1.392 . S
C3427 H3439 0.929 . S
C3428 C3424 1.531 . S
C3428 H3440 0.960 . S
C3428 H3441 0.962 . S
C3428 H3442 0.960 . S
C3429 C3426 1.511 . S
C3429 H3443 0.961 . S
C3429 H3444 0.961 . S
C3429 H3445 0.961 . S
C3430 C3431 1.370 . S
C3430 C3432 1.363 . S
C3430 H3446 0.931 . S
C3431 C3430 1.370 . S
C3431 C3435 1.408 . S
C3432 C3430 1.363 . S
C3432 C3433 1.370 . S
C3432 C3436 1.524 . S
C3433 C3425 1.503 . S
C3433 C3432 1.370 . S
C3433 C3434 1.403 . S
C3434 C3433 1.403 . S
C3434 C3435 1.404 . S
C3434 C3437 1.539 . S
C3435 C3431 1.408 . S
C3435 C3434 1.404 . S
C3435 H3447 0.930 . S
C3436 C3432 1.524 . S
C3436 H3448 0.956 . S
C3436 H3449 0.961 . S
C3436 H3450 0.961 . S
C3437 C3434 1.539 . S
C3437 H3451 0.958 . S
C3437 H3452 0.961 . S
C3437 H3453 0.960 . S
H3438 C3422 0.931 . S
H3439 C3427 0.929 . S
H3440 C3428 0.960 . S
H3441 C3428 0.962 . S
H3442 C3428 0.960 . S
H3443 C3429 0.961 . S
H3444 C3429 0.961 . S
H3445 C3429 0.961 . S
H3446 C3430 0.931 . S
H3447 C3435 0.930 . S
H3448 C3436 0.956 . S
H3449 C3436 0.961 . S
H3450 C3436 0.961 . S
H3451 C3437 0.958 . S
H3452 C3437 0.961 . S
H3453 C3437 0.960 . S
C3454 C3455 1.391 . S
C3454 C3456 1.394 . S
C3454 H3470 0.931 . S
C3455 C3454 1.391 . S
C3455 C3459 1.376 . S
C3456 C3454 1.394 . S
C3456 C3457 1.369 . S
C3456 C3460 1.531 . S
C3457 C3456 1.369 . S
C3457 C3458 1.410 . S
C3457 C3465 1.503 . S
C3458 C3457 1.410 . S
C3458 C3459 1.392 . S
C3458 C3461 1.511 . S
C3459 C3455 1.376 . S
C3459 C3458 1.392 . S
C3459 H3471 0.929 . S
C3460 C3456 1.531 . S
C3460 H3472 0.960 . S
C3460 H3473 0.962 . S
C3460 H3474 0.960 . S
C3461 C3458 1.511 . S
C3461 H3475 0.961 . S
C3461 H3476 0.961 . S
C3461 H3477 0.961 . S
C3462 C3463 1.370 . S
C3462 C3464 1.363 . S
C3462 H3478 0.931 . S
C3463 C3462 1.370 . S
C3463 C3467 1.408 . S
C3464 C3462 1.363 . S
C3464 C3465 1.370 . S
C3464 C3468 1.524 . S
C3465 C3457 1.503 . S
C3465 C3464 1.370 . S
C3465 C3466 1.403 . S
C3466 C3465 1.403 . S
C3466 C3467 1.404 . S
C3466 C3469 1.539 . S
C3467 C3463 1.408 . S
C3467 C3466 1.404 . S
C3467 H3479 0.930 . S
C3468 C3464 1.524 . S
C3468 H3480 0.956 . S
C3468 H3481 0.961 . S
C3468 H3482 0.961 . S
C3469 C3466 1.539 . S
C3469 H3483 0.958 . S
C3469 H3484 0.961 . S
C3469 H3485 0.960 . S
H3470 C3454 0.931 . S
H3471 C3459 0.929 . S
H3472 C3460 0.960 . S
H3473 C3460 0.962 . S
H3474 C3460 0.960 . S
H3475 C3461 0.961 . S
H3476 C3461 0.961 . S
H3477 C3461 0.961 . S
H3478 C3462 0.931 . S
H3479 C3467 0.930 . S
H3480 C3468 0.956 . S
H3481 C3468 0.961 . S
H3482 C3468 0.961 . S
H3483 C3469 0.958 . S
H3484 C3469 0.961 . S
H3485 C3469 0.960 . S
C3486 C3487 1.391 . S
C3486 C3488 1.394 . S
C3486 H3502 0.931 . S
C3487 C3486 1.391 . S
C3487 C3491 1.376 . S
C3488 C3486 1.394 . S
C3488 C3489 1.369 . S
C3488 C3492 1.531 1_545 S
C3489 C3488 1.369 . S
C3489 C3490 1.410 . S
C3489 C3497 1.503 . S
C3490 C3489 1.410 . S
C3490 C3491 1.392 . S
C3490 C3493 1.511 . S
C3491 C3487 1.376 . S
C3491 C3490 1.392 . S
C3491 H3503 0.929 . S
C3492 C3488 1.531 1_565 S
C3492 H3504 0.960 . S
C3492 H3505 0.962 . S
C3492 H3506 0.960 . S
C3493 C3490 1.511 . S
C3493 H3507 0.961 . S
C3493 H3508 0.961 . S
C3493 H3509 0.961 . S
C3494 C3495 1.370 . S
C3494 C3496 1.363 . S
C3494 H3510 0.931 . S
C3495 C3494 1.370 . S
C3495 C3499 1.408 . S
C3496 C3494 1.363 . S
C3496 C3497 1.370 . S
C3496 C3500 1.524 . S
C3497 C3489 1.503 . S
C3497 C3496 1.370 . S
C3497 C3498 1.403 . S
C3498 C3497 1.403 . S
C3498 C3499 1.404 . S
C3498 C3501 1.539 . S
C3499 C3495 1.408 . S
C3499 C3498 1.404 . S
C3499 H3511 0.930 . S
C3500 C3496 1.524 . S
C3500 H3512 0.956 . S
C3500 H3513 0.961 . S
C3500 H3514 0.961 . S
C3501 C3498 1.539 . S
C3501 H3515 0.958 1_545 S
C3501 H3516 0.961 . S
C3501 H3517 0.960 . S
H3502 C3486 0.931 . S
H3503 C3491 0.929 . S
H3504 C3492 0.960 . S
H3505 C3492 0.962 . S
H3506 C3492 0.960 . S
H3507 C3493 0.961 . S
H3508 C3493 0.961 . S
H3509 C3493 0.961 . S
H3510 C3494 0.931 . S
H3511 C3499 0.930 . S
H3512 C3500 0.956 . S
H3513 C3500 0.961 . S
H3514 C3500 0.961 . S
H3515 C3501 0.958 1_565 S
H3516 C3501 0.961 . S
H3517 C3501 0.960 . S
C3518 C3519 1.391 . S
C3518 C3520 1.394 . S
C3518 H3534 0.931 . S
C3519 C3518 1.391 . S
C3519 C3523 1.376 . S
C3520 C3518 1.394 . S
C3520 C3521 1.369 . S
C3520 C3524 1.531 1_655 S
C3521 C3520 1.369 . S
C3521 C3522 1.410 . S
C3521 C3529 1.503 . S
C3522 C3521 1.410 . S
C3522 C3523 1.392 . S
C3522 C3525 1.511 . S
C3523 C3519 1.376 . S
C3523 C3522 1.392 . S
C3523 H3535 0.929 . S
C3524 C3520 1.531 1_455 S
C3524 H3536 0.965 . S
C3524 H3537 0.962 . S
C3524 H3538 0.960 . S
C3525 C3522 1.511 . S
C3525 H3539 0.961 . S
C3525 H3540 0.961 . S
C3525 H3541 0.961 . S
C3526 C3527 1.370 . S
C3526 C3528 1.363 . S
C3526 H3542 0.931 1_655 S
C3527 C3526 1.370 . S
C3527 C3531 1.408 . S
C3528 C3526 1.363 . S
C3528 C3529 1.370 . S
C3528 C3532 1.508 1_655 S
C3529 C3521 1.503 . S
C3529 C3528 1.370 . S
C3529 C3530 1.403 . S
C3530 C3529 1.403 . S
C3530 C3531 1.404 . S
C3530 C3533 1.539 . S
C3531 C3527 1.408 . S
C3531 C3530 1.404 . S
C3531 H3543 0.930 . S
C3532 C3528 1.508 1_455 S
C3532 H3544 0.972 . S
C3532 H3545 0.956 1_455 S
C3532 H3546 0.967 . S
C3533 C3530 1.539 . S
C3533 H3547 0.958 . S
C3533 H3548 0.961 . S
C3533 H3549 0.960 . S
H3534 C3518 0.931 . S
H3535 C3523 0.929 . S
H3536 C3524 0.965 . S
H3537 C3524 0.962 . S
H3538 C3524 0.960 . S
H3539 C3525 0.961 . S
H3540 C3525 0.961 . S
H3541 C3525 0.961 . S
H3542 C3526 0.931 1_455 S
H3543 C3531 0.930 . S
H3544 C3532 0.972 . S
H3545 C3532 0.956 1_655 S
H3546 C3532 0.967 . S
H3547 C3533 0.958 . S
H3548 C3533 0.961 . S
H3549 C3533 0.960 . S
C3550 C3551 1.391 . S
C3550 C3552 1.394 . S
C3550 H3566 0.931 . S
C3551 C3550 1.391 . S
C3551 C3555 1.376 . S
C3552 C3550 1.394 . S
C3552 C3553 1.369 . S
C3552 C3556 1.531 . S
C3553 C3552 1.369 . S
C3553 C3554 1.410 . S
C3553 C3561 1.503 . S
C3554 C3553 1.410 . S
C3554 C3555 1.392 . S
C3554 C3557 1.511 . S
C3555 C3551 1.376 . S
C3555 C3554 1.392 . S
C3555 H3567 0.929 . S
C3556 C3552 1.531 . S
C3556 H3568 0.960 . S
C3556 H3569 0.962 . S
C3556 H3570 0.960 . S
C3557 C3554 1.511 . S
C3557 H3571 0.961 . S
C3557 H3572 0.961 . S
C3557 H3573 0.961 . S
C3558 C3559 1.370 . S
C3558 C3560 1.363 . S
C3558 H3574 0.931 . S
C3559 C3558 1.370 . S
C3559 C3563 1.408 . S
C3560 C3558 1.363 . S
C3560 C3561 1.370 . S
C3560 C3564 1.524 . S
C3561 C3553 1.503 . S
C3561 C3560 1.370 . S
C3561 C3562 1.403 . S
C3562 C3561 1.403 . S
C3562 C3563 1.404 . S
C3562 C3565 1.539 . S
C3563 C3559 1.408 . S
C3563 C3562 1.404 . S
C3563 H3575 0.930 . S
C3564 C3560 1.524 . S
C3564 H3576 0.956 . S
C3564 H3577 0.961 . S
C3564 H3578 0.961 . S
C3565 C3562 1.539 . S
C3565 H3579 0.958 . S
C3565 H3580 0.961 . S
C3565 H3581 0.960 . S
H3566 C3550 0.931 . S
H3567 C3555 0.929 . S
H3568 C3556 0.960 . S
H3569 C3556 0.962 . S
H3570 C3556 0.960 . S
H3571 C3557 0.961 . S
H3572 C3557 0.961 . S
H3573 C3557 0.961 . S
H3574 C3558 0.931 . S
H3575 C3563 0.930 . S
H3576 C3564 0.956 . S
H3577 C3564 0.961 . S
H3578 C3564 0.961 . S
H3579 C3565 0.958 . S
H3580 C3565 0.961 . S
H3581 C3565 0.960 . S
C3582 C3583 1.391 . S
C3582 C3584 1.394 . S
C3582 H3598 0.931 . S
C3583 C3582 1.391 . S
C3583 C3587 1.376 . S
C3584 C3582 1.394 . S
C3584 C3585 1.369 . S
C3584 C3588 1.531 . S
C3585 C3584 1.369 . S
C3585 C3586 1.410 . S
C3585 C3593 1.503 . S
C3586 C3585 1.410 . S
C3586 C3587 1.392 . S
C3586 C3589 1.511 . S
C3587 C3583 1.376 . S
C3587 C3586 1.392 . S
C3587 H3599 0.929 . S
C3588 C3584 1.531 . S
C3588 H3600 0.960 . S
C3588 H3601 0.962 . S
C3588 H3602 0.960 . S
C3589 C3586 1.511 . S
C3589 H3603 0.961 . S
C3589 H3604 0.961 . S
C3589 H3605 0.961 . S
C3590 C3591 1.370 . S
C3590 C3592 1.363 . S
C3590 H3606 0.931 . S
C3591 C3590 1.370 . S
C3591 C3595 1.408 . S
C3592 C3590 1.363 . S
C3592 C3593 1.370 . S
C3592 C3596 1.524 . S
C3593 C3585 1.503 . S
C3593 C3592 1.370 . S
C3593 C3594 1.403 . S
C3594 C3593 1.403 . S
C3594 C3595 1.404 . S
C3594 C3597 1.539 . S
C3595 C3591 1.408 . S
C3595 C3594 1.404 . S
C3595 H3607 0.930 . S
C3596 C3592 1.524 . S
C3596 H3608 0.956 . S
C3596 H3609 0.961 . S
C3596 H3610 0.961 . S
C3597 C3594 1.539 . S
C3597 H3611 0.958 . S
C3597 H3612 0.961 . S
C3597 H3613 0.960 . S
H3598 C3582 0.931 . S
H3599 C3587 0.929 . S
H3600 C3588 0.960 . S
H3601 C3588 0.962 . S
H3602 C3588 0.960 . S
H3603 C3589 0.961 . S
H3604 C3589 0.961 . S
H3605 C3589 0.961 . S
H3606 C3590 0.931 . S
H3607 C3595 0.930 . S
H3608 C3596 0.956 . S
H3609 C3596 0.961 . S
H3610 C3596 0.961 . S
H3611 C3597 0.958 . S
H3612 C3597 0.961 . S
H3613 C3597 0.960 . S
C3614 C3615 1.391 . S
C3614 C3616 1.394 . S
C3614 H3630 0.931 . S
C3615 C3614 1.391 . S
C3615 C3619 1.376 . S
C3616 C3614 1.394 . S
C3616 C3617 1.369 . S
C3616 C3620 1.531 . S
C3617 C3616 1.369 . S
C3617 C3618 1.410 . S
C3617 C3625 1.503 . S
C3618 C3617 1.410 . S
C3618 C3619 1.392 . S
C3618 C3621 1.511 . S
C3619 C3615 1.376 . S
C3619 C3618 1.392 . S
C3619 H3631 0.929 . S
C3620 C3616 1.531 . S
C3620 H3632 0.960 . S
C3620 H3633 0.962 . S
C3620 H3634 0.960 . S
C3621 C3618 1.511 . S
C3621 H3635 0.961 . S
C3621 H3636 0.961 . S
C3621 H3637 0.961 . S
C3622 C3623 1.370 . S
C3622 C3624 1.363 . S
C3622 H3638 0.931 . S
C3623 C3622 1.370 . S
C3623 C3627 1.408 . S
C3624 C3622 1.363 . S
C3624 C3625 1.370 . S
C3624 C3628 1.524 . S
C3625 C3617 1.503 . S
C3625 C3624 1.370 . S
C3625 C3626 1.403 . S
C3626 C3625 1.403 . S
C3626 C3627 1.404 . S
C3626 C3629 1.539 . S
C3627 C3623 1.408 . S
C3627 C3626 1.404 . S
C3627 H3639 0.930 . S
C3628 C3624 1.524 . S
C3628 H3640 0.956 . S
C3628 H3641 0.961 . S
C3628 H3642 0.961 . S
C3629 C3626 1.539 . S
C3629 H3643 0.958 . S
C3629 H3644 0.961 . S
C3629 H3645 0.960 . S
H3630 C3614 0.931 . S
H3631 C3619 0.929 . S
H3632 C3620 0.960 . S
H3633 C3620 0.962 . S
H3634 C3620 0.960 . S
H3635 C3621 0.961 . S
H3636 C3621 0.961 . S
H3637 C3621 0.961 . S
H3638 C3622 0.931 . S
H3639 C3627 0.930 . S
H3640 C3628 0.956 . S
H3641 C3628 0.961 . S
H3642 C3628 0.961 . S
H3643 C3629 0.958 . S
H3644 C3629 0.961 . S
H3645 C3629 0.960 . S
C3646 C3647 1.391 . S
C3646 C3648 1.394 . S
C3646 H3662 0.931 . S
C3647 C3646 1.391 . S
C3647 C3651 1.376 . S
C3648 C3646 1.394 . S
C3648 C3649 1.369 . S
C3648 C3652 1.531 . S
C3649 C3648 1.369 . S
C3649 C3650 1.410 . S
C3649 C3657 1.503 . S
C3650 C3649 1.410 . S
C3650 C3651 1.392 . S
C3650 C3653 1.511 . S
C3651 C3647 1.376 . S
C3651 C3650 1.392 . S
C3651 H3663 0.929 . S
C3652 C3648 1.531 . S
C3652 H3664 0.960 . S
C3652 H3665 0.962 . S
C3652 H3666 0.960 . S
C3653 C3650 1.511 . S
C3653 H3667 0.961 . S
C3653 H3668 0.961 . S
C3653 H3669 0.961 . S
C3654 C3655 1.370 . S
C3654 C3656 1.363 . S
C3654 H3670 0.931 . S
C3655 C3654 1.370 . S
C3655 C3659 1.408 . S
C3656 C3654 1.363 . S
C3656 C3657 1.370 . S
C3656 C3660 1.524 . S
C3657 C3649 1.503 . S
C3657 C3656 1.370 . S
C3657 C3658 1.403 . S
C3658 C3657 1.403 . S
C3658 C3659 1.404 . S
C3658 C3661 1.539 . S
C3659 C3655 1.408 . S
C3659 C3658 1.404 . S
C3659 H3671 0.930 . S
C3660 C3656 1.524 . S
C3660 H3672 0.956 . S
C3660 H3673 0.961 . S
C3660 H3674 0.961 . S
C3661 C3658 1.539 . S
C3661 H3675 0.958 . S
C3661 H3676 0.961 . S
C3661 H3677 0.960 . S
H3662 C3646 0.931 . S
H3663 C3651 0.929 . S
H3664 C3652 0.960 . S
H3665 C3652 0.962 . S
H3666 C3652 0.960 . S
H3667 C3653 0.961 . S
H3668 C3653 0.961 . S
H3669 C3653 0.961 . S
H3670 C3654 0.931 . S
H3671 C3659 0.930 . S
H3672 C3660 0.956 . S
H3673 C3660 0.961 . S
H3674 C3660 0.961 . S
H3675 C3661 0.958 . S
H3676 C3661 0.961 . S
H3677 C3661 0.960 . S
C3678 C3679 1.391 . S
C3678 C3680 1.394 . S
C3678 H3694 0.931 . S
C3679 C3678 1.391 . S
C3679 C3683 1.376 . S
C3680 C3678 1.394 . S
C3680 C3681 1.369 . S
C3680 C3684 1.531 . S
C3681 C3680 1.369 . S
C3681 C3682 1.410 . S
C3681 C3689 1.503 . S
C3682 C3681 1.410 . S
C3682 C3683 1.392 . S
C3682 C3685 1.511 . S
C3683 C3679 1.376 . S
C3683 C3682 1.392 . S
C3683 H3695 0.929 . S
C3684 C3680 1.531 . S
C3684 H3696 0.960 . S
C3684 H3697 0.962 . S
C3684 H3698 0.960 . S
C3685 C3682 1.511 . S
C3685 H3699 0.961 . S
C3685 H3700 0.961 . S
C3685 H3701 0.961 . S
C3686 C3687 1.370 . S
C3686 C3688 1.363 . S
C3686 H3702 0.931 . S
C3687 C3686 1.370 . S
C3687 C3691 1.408 . S
C3688 C3686 1.363 . S
C3688 C3689 1.370 . S
C3688 C3692 1.524 . S
C3689 C3681 1.503 . S
C3689 C3688 1.370 . S
C3689 C3690 1.403 . S
C3690 C3689 1.403 . S
C3690 C3691 1.404 . S
C3690 C3693 1.539 . S
C3691 C3687 1.408 . S
C3691 C3690 1.404 . S
C3691 H3703 0.930 . S
C3692 C3688 1.524 . S
C3692 H3704 0.956 . S
C3692 H3705 0.961 . S
C3692 H3706 0.961 . S
C3693 C3690 1.539 . S
C3693 H3707 0.958 . S
C3693 H3708 0.961 . S
C3693 H3709 0.960 . S
H3694 C3678 0.931 . S
H3695 C3683 0.929 . S
H3696 C3684 0.960 . S
H3697 C3684 0.962 . S
H3698 C3684 0.960 . S
H3699 C3685 0.961 . S
H3700 C3685 0.961 . S
H3701 C3685 0.961 . S
H3702 C3686 0.931 . S
H3703 C3691 0.930 . S
H3704 C3692 0.956 . S
H3705 C3692 0.961 . S
H3706 C3692 0.961 . S
H3707 C3693 0.958 . S
H3708 C3693 0.961 . S
H3709 C3693 0.960 . S
C3710 C3711 1.391 . S
C3710 C3712 1.394 . S
C3710 H3726 0.931 . S
C3711 C3710 1.391 . S
C3711 C3715 1.376 . S
C3712 C3710 1.394 . S
C3712 C3713 1.369 . S
C3712 C3716 1.531 . S
C3713 C3712 1.369 . S
C3713 C3714 1.410 . S
C3713 C3721 1.503 . S
C3714 C3713 1.410 . S
C3714 C3715 1.392 . S
C3714 C3717 1.511 . S
C3715 C3711 1.376 . S
C3715 C3714 1.392 . S
C3715 H3727 0.929 . S
C3716 C3712 1.531 . S
C3716 H3728 0.960 . S
C3716 H3729 0.962 . S
C3716 H3730 0.960 . S
C3717 C3714 1.511 . S
C3717 H3731 0.961 . S
C3717 H3732 0.961 . S
C3717 H3733 0.961 . S
C3718 C3719 1.370 . S
C3718 C3720 1.363 . S
C3718 H3734 0.931 . S
C3719 C3718 1.370 . S
C3719 C3723 1.408 . S
C3720 C3718 1.363 . S
C3720 C3721 1.370 . S
C3720 C3724 1.524 . S
C3721 C3713 1.503 . S
C3721 C3720 1.370 . S
C3721 C3722 1.403 . S
C3722 C3721 1.403 . S
C3722 C3723 1.404 . S
C3722 C3725 1.539 . S
C3723 C3719 1.408 . S
C3723 C3722 1.404 . S
C3723 H3735 0.930 . S
C3724 C3720 1.524 . S
C3724 H3736 0.956 . S
C3724 H3737 0.961 . S
C3724 H3738 0.961 . S
C3725 C3722 1.539 . S
C3725 H3739 0.958 . S
C3725 H3740 0.961 . S
C3725 H3741 0.960 . S
H3726 C3710 0.931 . S
H3727 C3715 0.929 . S
H3728 C3716 0.960 . S
H3729 C3716 0.962 . S
H3730 C3716 0.960 . S
H3731 C3717 0.961 . S
H3732 C3717 0.961 . S
H3733 C3717 0.961 . S
H3734 C3718 0.931 . S
H3735 C3723 0.930 . S
H3736 C3724 0.956 . S
H3737 C3724 0.961 . S
H3738 C3724 0.961 . S
H3739 C3725 0.958 . S
H3740 C3725 0.961 . S
H3741 C3725 0.960 . S
C3742 C3743 1.391 . S
C3742 C3744 1.394 . S
C3742 H3758 0.931 . S
C3743 C3742 1.391 . S
C3743 C3747 1.376 . S
C3744 C3742 1.394 . S
C3744 C3745 1.369 . S
C3744 C3748 1.531 . S
C3745 C3744 1.369 . S
C3745 C3746 1.410 . S
C3745 C3753 1.503 . S
C3746 C3745 1.410 . S
C3746 C3747 1.392 . S
C3746 C3749 1.511 . S
C3747 C3743 1.376 . S
C3747 C3746 1.392 . S
C3747 H3759 0.940 . S
C3748 C3744 1.531 . S
C3748 H3760 0.960 . S
C3748 H3761 0.962 . S
C3748 H3762 0.960 . S
C3749 C3746 1.511 . S
C3749 H3763 0.961 . S
C3749 H3764 0.961 . S
C3749 H3765 0.961 . S
C3750 C3751 1.370 . S
C3750 C3752 1.363 . S
C3750 H3766 0.931 . S
C3751 C3750 1.370 . S
C3751 C3755 1.408 . S
C3752 C3750 1.363 . S
C3752 C3753 1.370 . S
C3752 C3756 1.524 . S
C3753 C3745 1.503 . S
C3753 C3752 1.370 . S
C3753 C3754 1.403 . S
C3754 C3753 1.403 . S
C3754 C3755 1.404 . S
C3754 C3757 1.539 . S
C3755 C3751 1.408 . S
C3755 C3754 1.404 . S
C3755 H3767 0.930 . S
C3756 C3752 1.524 . S
C3756 H3768 0.956 . S
C3756 H3769 0.961 . S
C3756 H3770 0.961 . S
C3757 C3754 1.539 . S
C3757 H3771 0.958 . S
C3757 H3772 0.961 . S
C3757 H3773 0.960 . S
H3758 C3742 0.931 . S
H3759 C3747 0.940 . S
H3760 C3748 0.960 . S
H3761 C3748 0.962 . S
H3762 C3748 0.960 . S
H3763 C3749 0.961 . S
H3764 C3749 0.961 . S
H3765 C3749 0.961 . S
H3766 C3750 0.931 . S
H3767 C3755 0.930 . S
H3768 C3756 0.956 . S
H3769 C3756 0.961 . S
H3770 C3756 0.961 . S
H3771 C3757 0.958 . S
H3772 C3757 0.961 . S
H3773 C3757 0.960 . S
C3774 C3775 1.391 . S
C3774 C3776 1.394 . S
C3774 H3790 0.931 . S
C3775 C3774 1.391 . S
C3775 C3779 1.376 . S
C3776 C3774 1.394 . S
C3776 C3777 1.369 . S
C3776 C3780 1.531 . S
C3777 C3776 1.369 . S
C3777 C3778 1.410 . S
C3777 C3785 1.503 . S
C3778 C3777 1.410 . S
C3778 C3779 1.392 . S
C3778 C3781 1.511 . S
C3779 C3775 1.376 . S
C3779 C3778 1.392 . S
C3779 H3791 0.929 . S
C3780 C3776 1.531 . S
C3780 H3792 0.960 . S
C3780 H3793 0.962 . S
C3780 H3794 0.960 . S
C3781 C3778 1.511 . S
C3781 H3795 0.961 . S
C3781 H3796 0.961 . S
C3781 H3797 0.961 . S
C3782 C3783 1.364 . S
C3782 C3784 1.389 . S
C3782 H3798 0.912 1_655 S
C3783 C3782 1.364 . S
C3783 C3787 1.408 . S
C3784 C3782 1.389 . S
C3784 C3785 1.370 . S
C3784 C3788 1.528 1_655 S
C3785 C3777 1.503 . S
C3785 C3784 1.370 . S
C3785 C3786 1.403 . S
C3786 C3785 1.403 . S
C3786 C3787 1.404 . S
C3786 C3789 1.539 . S
C3787 C3783 1.408 . S
C3787 C3786 1.404 . S
C3787 H3799 0.930 . S
C3788 C3784 1.528 1_455 S
C3788 H3800 0.934 1_455 S
C3788 H3801 0.960 . S
C3788 H3802 0.980 . S
C3789 C3786 1.539 . S
C3789 H3803 0.958 . S
C3789 H3804 0.961 . S
C3789 H3805 0.960 . S
H3790 C3774 0.931 . S
H3791 C3779 0.929 . S
H3792 C3780 0.960 . S
H3793 C3780 0.962 . S
H3794 C3780 0.960 . S
H3795 C3781 0.961 . S
H3796 C3781 0.961 . S
H3797 C3781 0.961 . S
H3798 C3782 0.912 1_455 S
H3799 C3787 0.930 . S
H3800 C3788 0.934 1_655 S
H3801 C3788 0.960 . S
H3802 C3788 0.980 . S
H3803 C3789 0.958 . S
H3804 C3789 0.961 . S
H3805 C3789 0.960 . S
C3806 C3807 1.391 . S
C3806 C3808 1.394 . S
C3806 H3822 0.931 . S
C3807 C3806 1.391 . S
C3807 C3811 1.376 . S
C3808 C3806 1.394 . S
C3808 C3809 1.369 . S
C3808 C3812 1.531 . S
C3809 C3808 1.369 . S
C3809 C3810 1.410 . S
C3809 C3817 1.503 . S
C3810 C3809 1.410 . S
C3810 C3811 1.392 . S
C3810 C3813 1.511 . S
C3811 C3807 1.376 . S
C3811 C3810 1.392 . S
C3811 H3823 0.929 . S
C3812 C3808 1.531 . S
C3812 H3824 0.960 . S
C3812 H3825 0.962 . S
C3812 H3826 0.960 . S
C3813 C3810 1.511 . S
C3813 H3827 0.961 . S
C3813 H3828 0.961 . S
C3813 H3829 0.961 . S
C3814 C3815 1.370 . S
C3814 C3816 1.363 . S
C3814 H3830 0.931 . S
C3815 C3814 1.370 . S
C3815 C3819 1.408 . S
C3816 C3814 1.363 . S
C3816 C3817 1.370 . S
C3816 C3820 1.524 . S
C3817 C3809 1.503 . S
C3817 C3816 1.370 . S
C3817 C3818 1.403 . S
C3818 C3817 1.403 . S
C3818 C3819 1.404 . S
C3818 C3821 1.539 . S
C3819 C3815 1.408 . S
C3819 C3818 1.404 . S
C3819 H3831 0.930 . S
C3820 C3816 1.524 . S
C3820 H3832 0.956 . S
C3820 H3833 0.961 . S
C3820 H3834 0.961 . S
C3821 C3818 1.539 . S
C3821 H3835 0.958 . S
C3821 H3836 0.961 . S
C3821 H3837 0.960 . S
H3822 C3806 0.931 . S
H3823 C3811 0.929 . S
H3824 C3812 0.960 . S
H3825 C3812 0.962 . S
H3826 C3812 0.960 . S
H3827 C3813 0.961 . S
H3828 C3813 0.961 . S
H3829 C3813 0.961 . S
H3830 C3814 0.931 . S
H3831 C3819 0.930 . S
H3832 C3820 0.956 . S
H3833 C3820 0.961 . S
H3834 C3820 0.961 . S
H3835 C3821 0.958 . S
H3836 C3821 0.961 . S
H3837 C3821 0.960 . S
C3838 C3839 1.391 . S
C3838 C3840 1.394 . S
C3838 H3854 0.931 . S
C3839 C3838 1.391 . S
C3839 C3843 1.376 . S
C3840 C3838 1.394 . S
C3840 C3841 1.369 . S
C3840 C3844 1.531 . S
C3841 C3840 1.369 . S
C3841 C3842 1.410 . S
C3841 C3849 1.503 . S
C3842 C3841 1.410 . S
C3842 C3843 1.392 . S
C3842 C3845 1.511 1_545 S
C3843 C3839 1.376 . S
C3843 C3842 1.392 . S
C3843 H3855 0.929 . S
C3844 C3840 1.531 . S
C3844 H3856 0.960 . S
C3844 H3857 0.962 . S
C3844 H3858 0.960 . S
C3845 C3842 1.511 1_565 S
C3845 H3859 0.961 . S
C3845 H3860 0.961 . S
C3845 H3861 0.961 . S
C3846 C3847 1.370 . S
C3846 C3848 1.363 . S
C3846 H3862 0.931 . S
C3847 C3846 1.370 . S
C3847 C3851 1.410 1_545 S
C3848 C3846 1.363 . S
C3848 C3849 1.370 . S
C3848 C3852 1.524 . S
C3849 C3841 1.503 . S
C3849 C3848 1.370 . S
C3849 C3850 1.403 . S
C3850 C3849 1.403 . S
C3850 C3851 1.407 1_545 S
C3850 C3853 1.539 . S
C3851 C3847 1.410 1_565 S
C3851 C3850 1.407 1_565 S
C3851 H3863 0.927 . S
C3852 C3848 1.524 . S
C3852 H3864 0.956 . S
C3852 H3865 0.961 . S
C3852 H3866 0.961 . S
C3853 C3850 1.539 . S
C3853 H3867 0.958 . S
C3853 H3868 0.961 1_545 S
C3853 H3869 0.968 . S
H3854 C3838 0.931 . S
H3855 C3843 0.929 . S
H3856 C3844 0.960 . S
H3857 C3844 0.962 . S
H3858 C3844 0.960 . S
H3859 C3845 0.961 . S
H3860 C3845 0.961 . S
H3861 C3845 0.961 . S
H3862 C3846 0.931 . S
H3863 C3851 0.927 . S
H3864 C3852 0.956 . S
H3865 C3852 0.961 . S
H3866 C3852 0.961 . S
H3867 C3853 0.958 . S
H3868 C3853 0.961 1_565 S
H3869 C3853 0.968 . S
C1567 C8 1.081 . S
C1575 C963 1.130 . S
C1599 C18 1.473 . S
C1607 C1043 1.492 . S
C1639 C1111 1.307 . S
C1631 C31 1.307 . S
C1663 C34 1.691 1_556 S
C1671 C1191 1.699 . S
C1695 C5 1.475 . S
C1703 C1265 1.517 . S
C1727 C21 1.549 . S
C1735 C1333 1.529 . S
C1759 C47 0.999 . S
C1767 C1259 1.082 . S
C1799 C1339 1.420 . S
C1791 C57 1.339 . S
C1831 C1185 1.304 . S
C1823 C70 1.288 1_556 S
C1855 C73 1.614 . S
C1863 C1117 1.689 1_545 S
C1895 C969 1.508 . S
C1887 C44 1.384 . S
C1919 C60 1.382 . S
C1927 C1037 1.423 . S
C1951 C86 1.398 . S
C1959 C1407 1.295 . S
C1983 C96 1.537 . S
C1991 C1487 1.514 . S
C2023 C1555 1.488 . S
C2015 C109 1.557 . S
C2047 C112 1.928 . S
C2055 C303 1.882 . S
C2079 C83 1.670 . S
C2087 C377 1.667 . S
C2111 C99 1.596 . S
C2119 C445 1.563 . S
C2143 C125 1.093 . S
C2151 C371 1.070 . S
C2175 C135 1.410 . S
C2183 C451 1.464 . S
C2215 C297 1.381 . S
C2207 C148 1.324 . S
C2247 C1561 1.849 . S
C2239 C151 1.827 . S
C2279 C1413 1.522 . S
C2271 C122 1.484 . S
C2311 C1481 1.466 . S
C2303 C138 1.483 . S
C2335 C164 1.234 . S
C2343 C519 1.234 . S
C2367 C174 1.556 . S
C2375 C599 1.553 . S
C2399 C187 1.533 . S
C2407 C667 1.495 . S
C2431 C190 1.984 . S
C2439 C747 1.943 . S
C2471 C821 1.653 . S
C2463 C161 1.686 . S
C2503 C889 1.599 . S
C2495 C177 1.635 . S
C2535 C815 1.179 . S
C2527 C203 1.217 . S
C2567 C895 1.421 . S
C2559 C213 1.377 . S
C2591 C226 1.332 . S
C2599 C741 1.345 . S
C2631 C673 1.762 . S
C2623 C229 1.749 . S
C2655 C200 1.528 . S
C2663 C525 1.579 . S
C2695 C593 1.443 . S
C2687 C216 1.409 . S
C2727 C273 1.882 . S
C2719 C0 1.813 . S
C2751 C23 1.366 . S
C2759 C347 1.349 . S
C2791 C433 1.494 . S
C2783 C36 1.518 . S
C2823 C507 1.209 . S
C2815 C26 1.200 . S
C2855 C569 1.538 . S
C2847 C10 1.557 1_556 S
C2887 C655 1.499 . S
C2879 C13 1.427 . S
C2911 C39 2.025 . S
C2919 C643 2.005 . S
C2943 C62 1.572 . S
C2951 C495 1.519 . S
C2975 C75 1.727 . S
C2983 C581 1.694 . S
C3007 C65 1.447 . S
C3015 C359 1.443 . S
C3047 C421 1.673 . S
C3039 C49 1.777 . S
C3071 C52 1.686 . S
C3079 C285 1.693 . S
C3111 C717 1.836 . S
C3103 C78 1.801 . S
C3135 C101 1.496 1_545 S
C3143 C791 1.486 . S
C3167 C114 1.538 . S
C3175 C877 1.537 . S
C3207 C951 0.992 . S
C3199 C104 0.946 . S
C3231 C88 1.444 . S
C3239 C1013 1.438 . S
C3263 C91 1.268 . S
C3271 C1099 1.273 . S
C3295 C117 1.654 . S
C3303 C1087 1.644 1_565 S
C3327 C140 1.281 . S
C3335 C939 1.268 . S
C3367 C1025 1.598 . S
C3359 C153 1.621 . S
C3391 C143 1.391 . S
C3399 C803 1.400 . S
C3423 C127 1.797 1_545 S
C3431 C865 1.704 . S
C3463 C729 1.753 . S
C3455 C130 1.757 . S
C3495 C1161 1.647 . S
C3487 C156 1.647 . S
C3519 C179 1.147 . S
C3527 C1235 1.152 . S
C3551 C192 1.421 . S
C3559 C1321 1.422 . S
C3591 C1395 1.186 . S
C3583 C182 1.153 . S
C3623 C1457 1.582 . S
C3615 C166 1.594 1_565 S
C3647 C169 1.485 . S
C3655 C1543 1.566 . S
C3679 C195 1.957 . S
C3687 C1531 1.967 . S
C3711 C218 1.699 1_565 S
C3719 C1383 1.634 . S
C3751 C1469 1.688 . S
C3743 C231 1.752 1_455 S
C3783 C1247 1.088 . S
C3775 C221 1.088 . S
C3815 C1309 1.563 . S
C3807 C205 1.665 . S
C3839 C208 1.338 . S
C3847 C1173 1.399 1_545 S
