# Generated by pormake.
# Topology zzz, (3,6)-cn, num edge types: 1
# Building blocks:
#     Node 0, Type 0, BuildingBlock: VETTIZ_charged_linker_0, # of connection points: 3
#     Node 1, Type 0, BuildingBlock: VETTIZ_charged_linker_0, # of connection points: 3
#     Node 2, Type 0, BuildingBlock: VETTIZ_charged_linker_0, # of connection points: 3
#     Node 3, Type 0, BuildingBlock: VETTIZ_charged_linker_0, # of connection points: 3
#     Node 4, Type 0, BuildingBlock: VETTIZ_charged_linker_0, # of connection points: 3
#     Node 5, Type 0, BuildingBlock: VETTIZ_charged_linker_0, # of connection points: 3
#     Node 6, Type 0, BuildingBlock: VETTIZ_charged_linker_0, # of connection points: 3
#     Node 7, Type 0, BuildingBlock: VETTIZ_charged_linker_0, # of connection points: 3
#     Node 8, Type 1, BuildingBlock: KUMJIN_clean_sbu_0, # of connection points: 6
#     Node 9, Type 1, BuildingBlock: KUMJIN_clean_sbu_0, # of connection points: 6
#     Node 10, Type 1, BuildingBlock: KUMJIN_clean_sbu_0, # of connection points: 6
#     Node 11, Type 1, BuildingBlock: KUMJIN_clean_sbu_0, # of connection points: 6
#     Edge 12, Type (0, 1), BuildingBlock: CIFDUS_clean_linker_0, # of connection points: 2
#     Edge 13, Type (0, 1), BuildingBlock: CIFDUS_clean_linker_0, # of connection points: 2
#     Edge 14, Type (0, 1), BuildingBlock: CIFDUS_clean_linker_0, # of connection points: 2
#     Edge 15, Type (0, 1), BuildingBlock: CIFDUS_clean_linker_0, # of connection points: 2
#     Edge 16, Type (0, 1), BuildingBlock: CIFDUS_clean_linker_0, # of connection points: 2
#     Edge 17, Type (0, 1), BuildingBlock: CIFDUS_clean_linker_0, # of connection points: 2
#     Edge 18, Type (0, 1), BuildingBlock: CIFDUS_clean_linker_0, # of connection points: 2
#     Edge 19, Type (0, 1), BuildingBlock: CIFDUS_clean_linker_0, # of connection points: 2
#     Edge 20, Type (0, 1), BuildingBlock: CIFDUS_clean_linker_0, # of connection points: 2
#     Edge 21, Type (0, 1), BuildingBlock: CIFDUS_clean_linker_0, # of connection points: 2
#     Edge 22, Type (0, 1), BuildingBlock: CIFDUS_clean_linker_0, # of connection points: 2
#     Edge 23, Type (0, 1), BuildingBlock: CIFDUS_clean_linker_0, # of connection points: 2
#     Edge 24, Type (0, 1), BuildingBlock: CIFDUS_clean_linker_0, # of connection points: 2
#     Edge 25, Type (0, 1), BuildingBlock: CIFDUS_clean_linker_0, # of connection points: 2
#     Edge 26, Type (0, 1), BuildingBlock: CIFDUS_clean_linker_0, # of connection points: 2
#     Edge 27, Type (0, 1), BuildingBlock: CIFDUS_clean_linker_0, # of connection points: 2
#     Edge 28, Type (0, 1), BuildingBlock: CIFDUS_clean_linker_0, # of connection points: 2
#     Edge 29, Type (0, 1), BuildingBlock: CIFDUS_clean_linker_0, # of connection points: 2
#     Edge 30, Type (0, 1), BuildingBlock: CIFDUS_clean_linker_0, # of connection points: 2
#     Edge 31, Type (0, 1), BuildingBlock: CIFDUS_clean_linker_0, # of connection points: 2
#     Edge 32, Type (0, 1), BuildingBlock: CIFDUS_clean_linker_0, # of connection points: 2
#     Edge 33, Type (0, 1), BuildingBlock: CIFDUS_clean_linker_0, # of connection points: 2
#     Edge 34, Type (0, 1), BuildingBlock: CIFDUS_clean_linker_0, # of connection points: 2
#     Edge 35, Type (0, 1), BuildingBlock: CIFDUS_clean_linker_0, # of connection points: 2
# Relax obj value: 0.319
# Max RMSD: 0.227
# Mean RMSD: 0.216
data_MOF--net-zzz--node1-KUMJIN_clean_sbu_0--node2-VETTIZ_charged_linker_0--edge1-CIFDUS_clean_linker_0
_symmetry_space_group_name_H-M    P1
_symmetry_Int_Tables_number       1
_symmetry_cell_setting            triclinic
loop_
_symmetry_equiv_pos_as_xyz
'x, y, z'
_cell_length_a     50.674963
_cell_length_b     50.648834
_cell_length_c     17.848537
_cell_angle_alpha  91.015469
_cell_angle_beta   89.837177
_cell_angle_gamma 90.026896
loop_
_atom_site_label
_atom_site_type_symbol
_atom_site_fract_x
_atom_site_fract_y
_atom_site_fract_z
_atom_type_partial_charge
C0 C 0.80936 0.53264 0.32639 0.0
C1 C 0.83144 0.54561 0.36051 0.0
C2 C 0.83546 0.57246 0.34604 0.0
C3 C 0.79995 0.5722 0.25559 0.0
C4 C 0.79347 0.54669 0.27424 0.0
C5 C 0.76863 0.53793 0.23147 0.0
H6 H 0.6791 0.57139 0.95405 0.0
C7 C 0.78294 0.58084 0.19365 0.0
C8 C 0.7635 0.56146 0.17965 0.0
H9 H 0.67511 0.50128 0.08845 0.0
H10 H 0.7151 0.51504 0.15399 0.0
H11 H 0.69746 0.61403 0.07441 0.0
H12 H 0.73576 0.56253 0.91636 0.0
H13 H 0.75904 0.58768 0.93039 0.0
H14 H 0.72707 0.59542 0.89177 0.0
H15 H 0.69607 0.61655 0.97421 0.0
H16 H 0.72182 0.63249 0.02738 0.0
C17 C 0.7461 0.53446 0.2885 0.0
C18 C 0.77453 0.51242 0.18641 0.0
C19 C 0.82057 0.65028 0.02601 0.0
C20 C 0.81565 0.65422 0.94958 0.0
C21 C 0.78998 0.64944 0.9224 0.0
C22 C 0.77136 0.6364 0.9669 0.0
C23 C 0.77892 0.62727 0.03779 0.0
C24 C 0.80267 0.63547 0.06776 0.0
C25 C 0.80905 0.62184 0.13962 0.0
C26 C 0.78617 0.6024 0.14462 0.0
C27 C 0.76854 0.60589 0.08545 0.0
C28 C 0.80843 0.64288 0.20404 0.0
C29 C 0.83609 0.60765 0.1292 0.0
C30 C 0.68639 0.55855 0.99695 0.0
C31 C 0.67299 0.5352 1.01508 0.0
C32 C 0.68415 0.51976 0.07305 0.0
C33 C 0.70752 0.52769 0.11146 0.0
C34 C 0.72033 0.5513 0.09203 0.0
C35 C 0.70963 0.56587 0.03455 0.0
C36 C 0.7264 0.58894 1.01443 0.0
C37 C 0.74756 0.58775 0.07398 0.0
C38 C 0.74466 0.56545 0.12001 0.0
C39 C 0.70964 0.61444 0.02249 0.0
C40 C 0.7376 0.58362 0.9342 0.0
H41 H 0.82436 0.60603 0.2863 0.0
H42 H 0.80506 0.51223 0.33854 0.0
H43 H 0.79222 0.51512 0.15034 0.0
H44 H 0.75795 0.50681 0.14938 0.0
H45 H 0.7784 0.49577 0.22454 0.0
H46 H 0.74417 0.55241 0.32491 0.0
H47 H 0.75006 0.51736 0.32498 0.0
H48 H 0.72686 0.53138 0.26104 0.0
H49 H 0.83995 0.65415 0.04908 0.0
H50 H 0.78539 0.65295 0.86417 0.0
H51 H 0.75262 0.63205 0.94193 0.0
H52 H 0.79917 0.66172 0.18668 0.0
H53 H 0.82863 0.64779 0.22388 0.0
H54 H 0.7964 0.63627 0.2523 0.0
H55 H 0.83719 0.59765 0.07326 0.0
H56 H 0.83992 0.59207 0.16971 0.0
H57 H 0.85269 0.62192 0.13328 0.0
H58 H 0.8515 0.58312 0.37296 0.0
C59 C 0.8197 0.58578 0.29532 0.0
C60 C 0.88647 0.82429 0.94253 0.0
C61 C 0.87175 0.84478 0.97715 0.0
C62 C 0.86891 0.84474 0.05581 0.0
C63 C 0.90392 0.81251 0.06305 0.0
C64 C 0.90276 0.8086 0.98661 0.0
C65 C 0.92397 0.79008 0.95845 0.0
H66 H 1.00136 0.69056 0.05501 0.0
C67 C 0.92797 0.79953 0.09057 0.0
C68 C 0.93902 0.78517 0.03069 0.0
H69 H 0.97209 0.71164 0.83587 0.0
H70 H 0.95977 0.75411 0.88328 0.0
H71 H 0.02788 0.76458 0.09508 0.0
H72 H 0.95709 0.72484 0.17322 0.0
H73 H 0.9805 0.73923 0.23782 0.0
H74 H 0.98856 0.7091 0.18757 0.0
H75 H 0.03114 0.73018 0.11733 0.0
H76 H 0.02468 0.75347 0.19066 0.0
C77 C 0.94154 0.80494 0.90164 0.0
C78 C 0.91062 0.76481 0.92528 0.0
C79 C 0.97219 0.84499 0.30891 0.0
C80 C 0.99874 0.84722 0.3313 0.0
C81 C 0.01643 0.82778 0.30106 0.0
C82 C 1.00795 0.80776 0.24919 0.0
C83 C 0.98131 0.8063 0.22765 0.0
C84 C 0.96427 0.82551 0.2561 0.0
C85 C 0.93805 0.825 0.2173 0.0
C86 C 0.943 0.80416 0.15638 0.0
C87 C 0.96744 0.79123 0.16566 0.0
C88 C 0.93189 0.8529 0.18541 0.0
C89 C 0.91724 0.81537 0.27423 0.0
C90 C 0.99223 0.70434 0.01739 0.0
C91 C 0.98562 0.69623 0.9421 0.0
C92 C 0.97536 0.71579 0.89486 0.0
C93 C 0.96803 0.74064 0.92227 0.0
C94 C 0.97152 0.74708 0.99792 0.0
C95 C 0.98561 0.73057 0.04351 0.0
C96 C 0.99043 0.74471 0.11968 0.0
C97 C 0.97532 0.77115 0.11111 0.0
C98 C 0.96229 0.7702 0.04163 0.0
C99 C 0.02022 0.74866 0.13128 0.0
C100 C 0.97844 0.72847 0.18333 0.0
H101 H 0.88341 0.83014 0.15885 0.0
H102 H 0.88867 0.82317 0.88221 0.0
H103 H 0.88871 0.7661 0.92603 0.0
H104 H 0.91567 0.747 0.95763 0.0
H105 H 0.91621 0.76127 0.86577 0.0
H106 H 0.94498 0.82568 0.92084 0.0
H107 H 0.93208 0.80548 0.84562 0.0
H108 H 0.96139 0.79612 0.89543 0.0
H109 H 0.95778 0.85944 0.32725 0.0
H110 H 0.03709 0.82818 0.31595 0.0
H111 H 0.02245 0.79486 0.22416 0.0
H112 H 0.94615 0.86835 0.20345 0.0
H113 H 0.91226 0.86025 0.20384 0.0
H114 H 0.93287 0.85308 0.12332 0.0
H115 H 0.92516 0.79893 0.30806 0.0
H116 H 0.8994 0.80734 0.2466 0.0
H117 H 0.91143 0.83163 0.31352 0.0
H118 H 0.85689 0.85959 0.0839 0.0
C119 C 0.88494 0.82843 0.09913 0.0
C120 C 0.82824 0.99086 0.04814 0.0
C121 C 0.84523 0.97738 0.99527 0.0
C122 C 0.84014 0.95044 0.98019 0.0
C123 C 0.79989 0.9523 0.05191 0.0
C124 C 0.80545 0.97749 0.07681 0.0
C125 C 0.78464 0.98586 0.13617 0.0
H126 H 0.66972 0.94483 0.32216 0.0
C127 C 0.77518 0.94323 0.08441 0.0
C128 C 0.76619 0.96144 0.13896 0.0
H129 H 0.70718 0.02042 0.35632 0.0
H130 H 0.7418 1.00785 0.26447 0.0
H131 H 0.66342 0.94135 0.18449 0.0
H132 H 0.72253 0.90765 0.30616 0.0
H133 H 0.71388 0.88568 0.23197 0.0
H134 H 0.68837 0.89938 0.29146 0.0
H135 H 0.66837 0.90756 0.16605 0.0
H136 H 0.68198 0.93212 0.10427 0.0
C137 C 0.76988 1.01037 0.10887 0.0
C138 C 0.79834 0.99094 0.21176 0.0
C139 C 0.71147 0.89324 0.92337 0.0
C140 C 0.68613 0.88332 0.94102 0.0
C141 C 0.68214 0.87376 1.01421 0.0
C142 C 0.69974 0.8807 0.07179 0.0
C143 C 0.72122 0.89697 0.05498 0.0
C144 C 0.72878 0.89992 0.98168 0.0
C145 C 0.75471 0.91422 0.97579 0.0
C146 C 0.75892 0.9225 0.05816 0.0
C147 C 0.73753 0.91464 0.10202 0.0
C148 C 0.75198 0.93848 0.925 0.0
C149 C 0.77534 0.89449 0.94416 0.0
C150 C 0.68544 0.95877 0.3112 0.0
C151 C 0.68563 0.98343 0.34802 0.0
C152 C 0.70633 1.00114 0.32927 0.0
C153 C 0.72642 0.99387 0.27624 0.0
C154 C 0.72557 0.96888 0.23979 0.0
C155 C 0.70472 0.95225 0.25723 0.0
C156 C 0.7044 0.92752 0.21034 0.0
C157 C 0.72907 0.93112 0.16294 0.0
C158 C 0.74221 0.95529 0.18001 0.0
C159 C 0.6784 0.92697 0.16368 0.0
C160 C 0.70731 0.90367 0.26258 0.0
H161 H 0.81668 0.91668 1.00434 0.0
H162 H 0.83228 1.01107 0.06514 0.0
H163 H 0.80987 0.9733 0.22822 0.0
H164 H 0.78387 0.99523 0.25681 0.0
H165 H 0.8121 1.00797 0.20811 0.0
H166 H 0.76127 1.00648 0.05251 0.0
H167 H 0.78354 0.02747 0.10487 0.0
H168 H 0.75356 0.01594 0.14716 0.0
H169 H 0.71654 0.89907 0.86726 0.0
H170 H 0.66404 0.86369 0.02883 0.0
H171 H 0.69532 0.87479 0.12792 0.0
H172 H 0.73594 0.95173 0.94567 0.0
H173 H 0.74755 0.93239 0.8663 0.0
H174 H 0.77057 0.95001 0.9236 0.0
H175 H 0.76641 0.88071 0.90215 0.0
H176 H 0.78389 0.88238 0.98941 0.0
H177 H 0.79126 0.90466 0.91321 0.0
H178 H 0.85339 0.93895 0.94508 0.0
C179 C 0.8183 0.93774 1.01059 0.0
C180 C 0.54118 0.71921 0.3326 0.0
C181 C 0.53898 0.69114 0.33587 0.0
C182 C 0.54243 0.67624 0.26951 0.0
C183 C 0.55503 0.71532 0.20254 0.0
C184 C 0.54828 0.73104 0.26332 0.0
C185 C 0.54978 0.76026 0.24211 0.0
H186 H 0.59363 0.84868 0.97798 0.0
C187 C 0.56561 0.73192 0.14288 0.0
C188 C 0.56035 0.75854 0.16067 0.0
H189 H 0.52229 0.85971 0.10814 0.0
H190 H 0.52778 0.81561 0.15928 0.0
H191 H 0.63026 0.80679 0.08725 0.0
H192 H 0.57065 0.80166 0.91608 0.0
H193 H 0.58941 0.77293 0.90566 0.0
H194 H 0.60491 0.80465 0.89256 0.0
H195 H 0.6344 0.81768 0.99266 0.0
H196 H 0.64002 0.78378 0.01669 0.0
C197 C 0.56949 0.77491 0.29336 0.0
C198 C 0.52199 0.77252 0.24838 0.0
C199 C 0.62747 0.68701 0.95928 0.0
C200 C 0.63974 0.69508 0.89269 0.0
C201 C 0.64151 0.72237 0.87904 0.0
C202 C 0.62954 0.74088 0.92837 0.0
C203 C 0.61452 0.73184 0.98961 0.0
C204 C 0.61412 0.70525 1.00426 0.0
C205 C 0.59458 0.69803 0.06357 0.0
C206 C 0.58377 0.72507 0.08516 0.0
C207 C 0.59557 0.74476 0.04222 0.0
C208 C 0.61016 0.68503 0.12766 0.0
C209 C 0.57311 0.67986 0.02734 0.0
C210 C 0.57942 0.84243 0.0194 0.0
C211 C 0.5577 0.85844 0.03892 0.0
C212 C 0.53979 0.84856 0.09309 0.0
C213 C 0.54313 0.82316 0.12426 0.0
C214 C 0.56471 0.80737 0.10231 0.0
C215 C 0.58168 0.81689 0.04794 0.0
C216 C 0.59781 0.79532 1.01185 0.0
C217 C 0.5882 0.77148 0.05398 0.0
C218 C 0.56989 0.77852 0.11072 0.0
C219 C 0.62727 0.80112 0.02736 0.0
C220 C 0.59062 0.7935 0.92715 0.0
H221 H 0.55275 0.67546 0.15553 0.0
H222 H 0.53748 0.73136 0.38199 0.0
H223 H 0.5104 0.76872 0.19654 0.0
H224 H 0.523 0.79403 0.26021 0.0
H225 H 0.51081 0.76421 0.29617 0.0
H226 H 0.58917 0.76521 0.29091 0.0
H227 H 0.56249 0.77506 0.35242 0.0
H228 H 0.57187 0.79569 0.2755 0.0
H229 H 0.6248 0.66632 0.97143 0.0
H230 H 0.65066 0.72921 0.82801 0.0
H231 H 0.63109 0.76134 0.91439 0.0
H232 H 0.62008 0.6667 0.10724 0.0
H233 H 0.59782 0.67938 0.1755 0.0
H234 H 0.6256 0.69873 0.14955 0.0
H235 H 0.5742 0.6792 0.96505 0.0
H236 H 0.55285 0.6871 0.03956 0.0
H237 H 0.57501 0.65917 0.04635 0.0
H238 H 0.54021 0.65494 0.26952 0.0
C239 C 0.55012 0.68813 0.20333 0.0
C240 C 0.33368 0.49121 0.27134 0.0
C241 C 0.3511 0.47886 0.3236 0.0
C242 C 0.34673 0.45194 0.33836 0.0
C243 C 0.30708 0.45132 0.2645 0.0
C244 C 0.31162 0.47672 0.24179 0.0
C245 C 0.29099 0.48412 0.18256 0.0
H246 H 0.17629 0.44203 1.00029 0.0
C247 C 0.28293 0.44099 0.23042 0.0
C248 C 0.27336 0.45919 0.17818 0.0
H249 H 0.2157 0.51582 0.95881 0.0
H250 H 0.24966 0.50459 0.05214 0.0
H251 H 0.22784 0.40597 1.00383 0.0
H252 H 0.17292 0.4419 0.14527 0.0
H253 H 0.19052 0.42596 0.21612 0.0
H254 H 0.17384 0.40702 0.1436 0.0
H255 H 0.19481 0.39589 0.02639 0.0
H256 H 0.22292 0.38369 0.07725 0.0
C257 C 0.30511 0.489 0.10769 0.0
C258 C 0.27539 0.50842 0.21043 0.0
C259 C 0.22677 0.37972 0.37994 0.0
C260 C 0.20046 0.37214 0.36587 0.0
C261 C 0.19301 0.36728 0.29063 0.0
C262 C 0.20865 0.37667 0.23216 0.0
C263 C 0.23139 0.39119 0.24981 0.0
C264 C 0.24172 0.39003 0.32091 0.0
C265 C 0.26766 0.40438 0.32651 0.0
C266 C 0.26797 0.41861 0.251 0.0
C267 C 0.24595 0.4115 0.20834 0.0
C268 C 0.28958 0.38316 0.33401 0.0
C269 C 0.26701 0.42404 0.39391 0.0
C270 C 0.19233 0.45587 1.00936 0.0
C271 C 0.19324 0.47956 0.97003 0.0
C272 C 0.21427 0.49723 0.98755 0.0
C273 C 0.23405 0.49066 0.04132 0.0
C274 C 0.23277 0.46629 0.07877 0.0
C275 C 0.21172 0.44975 0.06202 0.0
C276 C 0.21168 0.42507 0.10629 0.0
C277 C 0.23663 0.4286 0.15193 0.0
C278 C 0.24952 0.45281 0.13694 0.0
C279 C 0.21426 0.40127 0.05087 0.0
C280 C 0.18609 0.42477 0.1553 0.0
H281 H 0.32482 0.41739 0.31498 0.0
H282 H 0.33689 0.51141 0.25485 0.0
H283 H 0.2666 0.50471 0.26642 0.0
H284 H 0.25911 0.51323 0.17195 0.0
H285 H 0.28852 0.52594 0.21543 0.0
H286 H 0.31764 0.47177 0.09175 0.0
H287 H 0.318 0.50672 0.11214 0.0
H288 H 0.29094 0.492 0.06173 0.0
H289 H 0.23376 0.38158 0.43701 0.0
H290 H 0.17354 0.35993 0.27669 0.0
H291 H 0.20137 0.37432 0.17616 0.0
H292 H 0.2816 0.36353 0.34968 0.0
H293 H 0.30372 0.38836 0.37934 0.0
H294 H 0.30048 0.38015 0.28042 0.0
H295 H 0.24988 0.43764 0.38958 0.0
H296 H 0.2851 0.43616 0.39741 0.0
H297 H 0.26554 0.41347 0.44772 0.0
H298 H 0.35996 0.44093 0.37336 0.0
C299 C 0.32571 0.43814 0.30689 0.0
C300 C 0.14391 0.23622 0.31907 0.0
C301 C 0.15527 0.21207 0.29489 0.0
C302 C 0.16017 0.20823 0.21756 0.0
C303 C 0.13119 0.24462 0.19181 0.0
C304 C 0.13203 0.25241 0.26593 0.0
C305 C 0.11542 0.2766 0.28038 0.0
H306 H 1.00813 0.3443 0.24462 0.0
C307 C 0.10927 0.25853 0.15583 0.0
C308 C 0.10218 0.27952 0.20357 0.0
H309 H 0.08369 0.37487 0.31854 0.0
H310 H 0.10552 0.33859 0.25258 0.0
H311 H 0.03827 0.325 0.06505 0.0
H312 H 0.01974 0.27386 0.25158 0.0
H313 H 1.00582 0.26525 0.1623 0.0
H314 H 0.99435 0.29419 0.21204 0.0
H315 H 1.00511 0.32378 0.10143 0.0
H316 H 0.0179 0.29691 0.04523 0.0
C317 C 0.13398 0.29952 0.30298 0.0
C318 C 0.09485 0.27134 0.34249 0.0
C319 C 0.05742 0.19862 0.98014 0.0
C320 C 0.03128 0.19699 0.95429 0.0
C321 C 0.01406 0.21796 0.97734 0.0
C322 C 0.02276 0.23928 0.0247 0.0
C323 C 0.04905 0.24005 0.05025 0.0
C324 C 0.06565 0.21965 0.02732 0.0
C325 C 0.0928 0.22231 0.05913 0.0
C326 C 0.09023 0.24777 0.10522 0.0
C327 C 0.06449 0.25876 0.10073 0.0
C328 C 0.11237 0.22576 0.99331 0.0
C329 C 0.09864 0.19759 0.10738 0.0
C330 C 0.02928 0.3424 0.25072 0.0
C331 C 0.04391 0.36148 0.2946 0.0
C332 C 0.07166 0.35941 0.29367 0.0
C333 C 0.0844 0.33812 0.2584 0.0
C334 C 0.06951 0.31769 0.22663 0.0
C335 C 0.04287 0.32059 0.21563 0.0
C336 C 0.03328 0.29881 0.1603 0.0
C337 C 0.05872 0.28258 0.14447 0.0
C338 C 0.07883 0.29363 0.18907 0.0
C339 C 0.02298 0.31178 0.08886 0.0
C340 C 0.01204 0.28204 0.19853 0.0
H341 H 0.15053 0.22012 0.10687 0.0
H342 H 0.14098 0.24056 0.37806 0.0
H343 H 0.08258 0.2538 0.32778 0.0
H344 H 0.08153 0.28854 0.35063 0.0
H345 H 0.10459 0.26788 0.39709 0.0
H346 H 0.15038 0.29256 0.33891 0.0
H347 H 0.12355 0.31458 0.33768 0.0
H348 H 0.14289 0.30878 0.25288 0.0
H349 H 0.07147 0.1832 0.96652 0.0
H350 H 0.99379 0.21812 0.95856 0.0
H351 H 1.00884 0.25443 0.04038 0.0
H352 H 0.10396 0.23887 0.95006 0.0
H353 H 0.11699 0.20643 0.96593 0.0
H354 H 0.13097 0.23531 1.01126 0.0
H355 H 0.08465 0.18106 0.09681 0.0
H356 H 0.09702 0.20216 0.16833 0.0
H357 H 0.11836 0.18912 0.09501 0.0
H358 H 0.17025 0.19063 0.19736 0.0
C359 C 0.14809 0.22465 0.16544 0.0
C360 C 0.33321 0.04481 0.99411 0.0
C361 C 0.35616 0.05858 0.96757 0.0
C362 C 0.36096 0.08414 0.99718 0.0
C363 C 0.32486 0.08029 0.08439 0.0
C364 C 0.3172 0.05669 0.05214 0.0
C365 C 0.29005 0.04884 0.08481 0.0
H366 H 0.19349 0.08488 0.35055 0.0
C367 C 0.30645 0.08815 0.14356 0.0
C368 C 0.2844 0.07131 0.14293 0.0
H369 H 0.18885 0.01627 0.20475 0.0
H370 H 0.23116 0.02872 0.14594 0.0
H371 H 0.23877 0.07933 0.409 0.0
H372 H 0.21721 0.12654 0.23318 0.0
H373 H 0.24114 0.1442 0.28558 0.0
H374 H 0.2128 0.13064 0.3327 0.0
H375 H 0.24523 0.11329 0.42059 0.0
H376 H 0.27097 0.09057 0.39078 0.0
C377 C 0.29239 0.02195 0.12274 0.0
C378 C 0.26946 0.04842 0.02173 0.0
C379 C 0.34266 0.12769 0.37993 0.0
C380 C 0.32948 0.13444 0.44727 0.0
C381 C 0.30329 0.14374 0.44317 0.0
C382 C 0.28903 0.14075 0.37639 0.0
C383 C 0.30098 0.12767 0.31531 0.0
C384 C 0.32789 0.1242 0.31435 0.0
C385 C 0.33735 0.11284 0.24061 0.0
C386 C 0.3108 0.10637 0.203 0.0
C387 C 0.28983 0.1131 0.25061 0.0
C388 C 0.35388 0.08764 0.25319 0.0
C389 C 0.35373 0.13439 0.20149 0.0
C390 C 0.20129 0.07214 0.30644 0.0
C391 C 0.18759 0.04931 0.28413 0.0
C392 C 0.19876 0.03403 0.22418 0.0
C393 C 0.22332 0.04117 0.1901 0.0
C394 C 0.23705 0.06385 0.21586 0.0
C395 C 0.22565 0.07856 0.27375 0.0
C396 C 0.24266 0.10083 0.3004 0.0
C397 C 0.26606 0.09817 0.24743 0.0
C398 C 0.26322 0.07652 0.19633 0.0
C399 C 0.24989 0.09596 0.38409 0.0
C400 C 0.2277 0.12703 0.28788 0.0
H401 H 0.34737 0.11572 0.06718 0.0
H402 H 0.32768 0.02596 0.96936 0.0
H403 H 0.26921 0.06767 0.99278 0.0
H404 H 0.24938 0.04483 0.04363 0.0
H405 H 0.27415 0.03267 0.97961 0.0
H406 H 0.30813 0.02256 0.166 0.0
H407 H 0.29743 1.00624 0.08086 0.0
H408 H 0.27372 0.01642 0.15065 0.0
H409 H 0.36312 0.12162 0.38027 0.0
H410 H 0.29303 0.15037 0.49338 0.0
H411 H 0.26877 0.14682 0.37601 0.0
H412 H 0.34242 0.07298 0.28561 0.0
H413 H 0.37236 0.09229 0.28398 0.0
H414 H 0.35982 0.07826 0.19917 0.0
H415 H 0.36438 0.14717 0.24276 0.0
H416 H 0.34092 0.14741 0.16775 0.0
H417 H 0.36956 0.12571 0.16582 0.0
H418 H 0.37715 0.09595 0.97633 0.0
C419 C 0.34492 0.09523 0.05283 0.0
C420 C 0.50257 0.3108 0.96404 0.0
C421 C 0.48903 0.32974 0.92009 0.0
C422 C 0.46125 0.32943 0.91943 0.0
C423 C 0.46096 0.29846 0.01992 0.0
C424 C 0.48762 0.29445 1.01249 0.0
C425 C 0.49585 0.27111 0.06067 0.0
H426 H 0.45618 0.18919 0.34898 0.0
C427 C 0.45105 0.28379 0.0836 0.0
C428 C 0.47048 0.26587 0.1062 0.0
H429 H 0.52823 0.18129 0.22163 0.0
H430 H 0.5163 0.21995 0.1483 0.0
H431 H 0.46415 0.24444 0.37945 0.0
H432 H 0.41373 0.20688 0.22063 0.0
H433 H 0.39629 0.23247 0.26876 0.0
H434 H 0.41142 0.20656 0.32121 0.0
H435 H 0.42969 0.24232 0.39765 0.0
H436 H 0.44389 0.27079 0.35303 0.0
C437 C 0.51909 0.27917 0.1114 0.0
C438 C 0.50262 0.24778 1.00746 0.0
C439 C 0.39133 0.33617 0.25278 0.0
C440 C 0.38686 0.33363 0.33024 0.0
C441 C 0.38682 0.30788 0.35951 0.0
C442 C 0.39628 0.28641 0.31627 0.0
C443 C 0.40643 0.29094 0.24425 0.0
C444 C 0.40224 0.31508 0.21183 0.0
C445 C 0.41539 0.31725 0.13658 0.0
C446 C 0.43 0.29084 0.13218 0.0
C447 C 0.42526 0.27596 0.19626 0.0
C448 C 0.4347 0.34108 0.13874 0.0
C449 C 0.39371 0.32017 0.07621 0.0
C450 C 0.46902 0.19513 0.30364 0.0
C451 C 0.49265 0.18151 0.28953 0.0
C452 C 0.50958 0.19105 0.23273 0.0
C453 C 0.50256 0.21326 0.18967 0.0
C454 C 0.47852 0.22637 0.20409 0.0
C455 C 0.46261 0.21743 0.26173 0.0
C456 C 0.43981 0.23551 0.27766 0.0
C457 C 0.44234 0.25468 0.21364 0.0
C458 C 0.46527 0.24974 0.17025 0.0
C459 C 0.44441 0.24895 0.35576 0.0
C460 C 0.41383 0.21956 0.27217 0.0
H461 H 0.42606 0.31268 0.96448 0.0
H462 H 0.52386 0.30925 0.96175 0.0
H463 H 0.48654 0.24455 0.96599 0.0
H464 H 0.50499 0.22908 0.03722 0.0
H465 H 0.52113 0.25181 0.9761 0.0
H466 H 0.51399 0.29715 0.14507 0.0
H467 H 0.53691 0.28353 0.07737 0.0
H468 H 0.52416 0.2634 0.15089 0.0
H469 H 0.39035 0.35516 0.22644 0.0
H470 H 0.38186 0.30473 0.41771 0.0
H471 H 0.39702 0.26747 0.34205 0.0
H472 H 0.44909 0.33911 0.18524 0.0
H473 H 0.42399 0.36004 0.14655 0.0
H474 H 0.44598 0.34314 0.0863 0.0
H475 H 0.37453 0.32672 0.10064 0.0
H476 H 0.39002 0.30115 0.04602 0.0
H477 H 0.39894 0.33552 0.03512 0.0
H478 H 0.45043 0.34243 0.88299 0.0
C479 C 0.44718 0.31329 0.96788 0.0
Eu480 Eu 0.03591 1.00901 0.72053 0.0
C481 C 0.94242 1.00988 0.49632 0.0
C482 C 0.95503 0.9792 0.39715 0.0
C483 C 0.90869 0.98515 0.42835 0.0
C484 C 0.96186 0.99755 0.45435 0.0
C485 C 0.91556 1.00422 0.48297 0.0
C486 C 0.9284 0.97266 0.38549 0.0
C487 C 0.90424 0.03795 0.57489 0.0
N488 N 0.94973 0.02827 0.54822 0.0
C489 C 0.93111 0.04295 0.58579 0.0
C490 C 0.89642 0.01829 0.52384 0.0
Eu491 Eu 0.99558 0.03383 0.57001 0.0
N492 N 0.98737 1.00436 0.46717 0.0
C493 C 1.00684 0.99502 0.42056 0.0
C494 C 0.97511 0.96846 0.35222 0.0
C495 C 1.00107 0.97674 0.36326 0.0
H496 H 0.93704 0.05794 0.62612 0.0
H497 H 0.01673 0.9689 0.328 0.0
H498 H 0.92281 0.95841 0.34238 0.0
H499 H 0.88961 0.0492 0.60606 0.0
H500 H 0.02707 1.00087 0.42813 0.0
H501 H 0.01552 0.07503 0.96024 0.0
H502 H 0.97071 0.95424 0.30793 0.0
H503 H 0.09399 0.98317 0.667 0.0
H504 H 1.00481 0.04299 0.8602 0.0
H505 H 0.14156 0.99061 0.68861 0.0
H506 H 0.88818 0.98035 0.41773 0.0
H507 H 0.06179 0.08879 0.98107 0.0
H508 H 0.10972 0.08341 0.94798 0.0
H509 H 0.87559 0.01448 0.51536 0.0
H510 H 0.14408 0.06032 0.87434 0.0
N511 N 0.04453 0.03881 0.82212 0.0
C512 C 0.02513 0.04854 0.86826 0.0
C513 C 0.05722 0.0746 0.93683 0.0
C514 C 0.0772 0.06335 0.89252 0.0
C515 C 0.03111 0.06683 0.92539 0.0
C516 C 0.07014 0.04508 0.8354 0.0
H517 H 0.15615 0.02539 0.77839 0.0
N518 N 0.08181 0.0137 0.74286 0.0
C519 C 0.12711 1.00248 0.71863 0.0
C520 C 0.08941 0.03211 0.79436 0.0
C521 C 0.10016 0.99824 0.70678 0.0
C522 C 0.13526 0.02218 0.76914 0.0
C523 C 0.11635 0.03703 0.80863 0.0
O524 O 0.04859 0.96942 0.75056 0.0
O525 O 1.01089 0.99741 0.62194 0.0
O526 O 0.96835 1.01157 0.6493 0.0
O527 O 0.99238 0.01426 0.7596 0.0
O528 O 0.04583 0.97732 0.63168 0.0
O529 O 0.01935 0.98984 0.81852 0.0
O530 O 0.98085 0.07237 0.53722 0.0
O531 O 0.02047 0.04556 0.66887 0.0
O532 O 0.0637 0.02985 0.63966 0.0
O533 O 0.03894 0.02816 0.53033 0.0
O534 O 0.98518 0.06503 0.65974 0.0
O535 O 0.01372 0.05471 0.47708 0.0
C536 C 0.02459 0.97893 0.59259 0.0
C537 C 1.01039 0.94546 0.78386 0.0
C538 C 0.9655 0.92784 0.7938 0.0
C539 C 0.98461 0.94694 0.81316 0.0
C540 C 0.97259 0.90739 0.74299 0.0
C541 C 0.01692 0.92467 0.734 0.0
C542 C 0.99804 0.90596 0.7133 0.0
C543 C 0.96977 1.01027 0.72338 0.0
C544 C 0.02947 0.96702 0.79903 0.0
C545 C 0.1235 0.05608 0.86302 0.0
C546 C 0.10394 0.06923 0.90491 0.0
C547 C 1.00651 0.0638 0.69851 0.0
C548 C 0.01732 0.09999 0.51061 0.0
C549 C 0.04246 0.10271 0.47793 0.0
C550 C 0.0587 0.1245 0.49608 0.0
C551 C 0.0496 0.1431 0.5499 0.0
C552 C 1.00876 0.119 0.5637 0.0
C553 C 0.02496 0.14018 0.58368 0.0
C554 C 0.06188 0.03112 0.5656 0.0
C555 C 1.00094 0.07647 0.49311 0.0
H556 H 0.97939 0.96312 0.85077 0.0
H557 H 0.95888 0.8918 0.72809 0.0
H558 H 0.03649 0.9231 0.70972 0.0
H559 H 1.00322 0.89009 0.67457 0.0
H560 H 0.04932 0.08777 0.43832 0.0
H561 H 0.061 0.16052 0.56427 0.0
H562 H 0.98967 0.11741 0.59064 0.0
H563 H 0.01822 0.15465 0.62479 0.0
Eu564 Eu 0.53033 0.0434 0.72687 0.0
C565 C 0.54356 0.94274 0.52885 0.0
C566 C 0.56723 0.95717 0.41904 0.0
C567 C 0.57458 0.91307 0.46595 0.0
C568 C 0.54922 0.96223 0.47816 0.0
C569 C 0.55558 0.91767 0.52207 0.0
C570 C 0.58042 0.93281 0.41457 0.0
C571 C 0.52753 0.9028 0.62252 0.0
N572 N 0.52518 0.94778 0.58238 0.0
C573 C 0.51627 0.92797 0.62722 0.0
C574 C 0.54762 0.89774 0.57057 0.0
Eu575 Eu 0.50917 0.99173 0.59361 0.0
N576 N 0.53607 0.98558 0.48413 0.0
C577 C 0.53844 1.00368 0.42834 0.0
C578 C 0.57094 0.97643 0.36499 0.0
C579 C 0.55608 0.99954 0.36888 0.0
H580 H 0.50118 0.932 0.66881 0.0
H581 H 0.55828 0.0143 0.32621 0.0
H582 H 0.59462 0.92879 0.3703 0.0
H583 H 0.52093 0.88744 0.65955 0.0
H584 H 0.52727 0.0217 0.4287 0.0
H585 H 0.47672 0.02298 0.98744 0.0
H586 H 0.58466 0.97336 0.31898 0.0
H587 H 0.54393 0.10384 0.66187 0.0
H588 H 0.50926 0.01498 0.88811 0.0
H589 H 0.52508 0.14885 0.66663 0.0
H590 H 0.58431 0.89408 0.46053 0.0
H591 H 0.45031 0.06403 0.98941 0.0
H592 H 0.44164 0.10859 0.93491 0.0
H593 H 0.55638 0.87825 0.56715 0.0
H594 H 0.45487 0.14313 0.84697 0.0
N595 N 0.50124 0.05072 0.83091 0.0
C596 C 0.4981 0.03299 0.88721 0.0
C597 C 0.46471 0.06064 0.94528 0.0
C598 C 0.4694 0.07963 0.89095 0.0
C599 C 0.4796 0.0375 0.94441 0.0
C600 C 0.48832 0.07415 0.83456 0.0
H601 H 0.48653 0.15859 0.748 0.0
N602 N 0.5157 0.08806 0.73737 0.0
C603 C 0.5165 0.13343 0.70015 0.0
C604 C 0.49574 0.09347 0.78569 0.0
C605 C 0.52719 0.10798 0.69785 0.0
C606 C 0.49467 0.13881 0.74583 0.0
C607 C 0.48444 0.1189 0.79086 0.0
O608 O 0.56583 0.06686 0.74798 0.0
O609 O 0.54344 0.01533 0.63475 0.0
O610 O 0.53738 0.97383 0.67706 0.0
O611 O 0.5321 1.00195 0.77973 0.0
O612 O 0.55863 0.05303 0.63182 0.0
O613 O 0.5568 0.03408 0.81909 0.0
O614 O 0.47698 0.96398 0.57215 0.0
O615 O 0.49564 0.02002 0.68538 0.0
O616 O 0.50862 0.06427 0.6333 0.0
O617 O 0.50601 0.03212 0.53817 0.0
O618 O 0.48327 0.9814 0.69367 0.0
O619 O 0.47763 1.00112 0.51501 0.0
C620 C 0.55918 0.03017 0.59925 0.0
C621 C 0.60105 0.03903 0.77798 0.0
C622 C 0.62901 1.00057 0.75148 0.0
C623 C 0.60462 1.01151 0.7731 0.0
C624 C 0.64969 0.01773 0.73189 0.0
C625 C 0.622 0.05571 0.75882 0.0
C626 C 0.6461 0.04507 0.73534 0.0
C627 C 0.53849 0.97858 0.75001 0.0
C628 C 0.57495 0.05037 0.7964 0.0
C629 C 0.46413 0.12387 0.84295 0.0
C630 C 0.45661 0.10423 0.89303 0.0
C631 C 0.48097 1.00472 0.72285 0.0
C632 C 0.43721 0.98793 0.57119 0.0
C633 C 0.42743 0.01382 0.5683 0.0
C634 C 0.40637 0.02224 0.61452 0.0
C635 C 0.39434 1.00376 0.66172 0.0
C636 C 0.42436 0.96971 0.61731 0.0
C637 C 0.40308 0.97763 0.66215 0.0
C638 C 0.50435 0.05693 0.56285 0.0
C639 C 0.46309 0.98133 0.53664 0.0
H640 H 0.58842 0.99852 0.7863 0.0
H641 H 0.66895 1.01015 0.71642 0.0
H642 H 0.61959 0.07697 0.76099 0.0
H643 H 0.66219 0.05807 0.7206 0.0
H644 H 0.43665 0.02755 0.53067 0.0
H645 H 0.37846 1.00948 0.69928 0.0
H646 H 0.43144 0.9496 0.6211 0.0
H647 H 0.39375 0.96362 0.69889 0.0
Eu648 Eu 0.53589 0.50626 0.59506 0.0
C649 C 0.43004 0.50549 0.76784 0.0
C650 C 0.39838 0.52111 0.67789 0.0
C651 C 0.38487 0.48917 0.77032 0.0
C652 C 0.42429 0.52076 0.70698 0.0
C653 C 0.41019 0.4902 0.80193 0.0
C654 C 0.37898 0.50461 0.70829 0.0
C655 C 0.44078 0.48098 0.90149 0.0
N656 N 0.4545 0.5073 0.7976 0.0
C657 C 0.45962 0.49659 0.86591 0.0
C658 C 0.41609 0.47731 0.86853 0.0
Eu659 Eu 0.48704 0.5311 0.73003 0.0
N660 N 0.44356 0.53655 0.67929 0.0
C661 C 0.43714 0.55514 0.62756 0.0
C662 C 0.39252 0.53858 0.62063 0.0
C663 C 0.41186 0.55604 0.59649 0.0
H664 H 0.47856 0.49977 0.89213 0.0
H665 H 0.4073 0.57033 0.55404 0.0
H666 H 0.35913 0.50431 0.68584 0.0
H667 H 0.44529 0.47191 0.9544 0.0
H668 H 0.45112 0.56949 0.60889 0.0
H669 H 0.61728 0.46355 0.75826 0.0
H670 H 0.37293 0.53937 0.59655 0.0
H671 H 0.54035 0.54384 0.44195 0.0
H672 H 0.57203 0.46745 0.71617 0.0
H673 H 0.57366 0.5708 0.37693 0.0
H674 H 0.36948 0.47725 0.79502 0.0
H675 H 0.65207 0.49199 0.70616 0.0
H676 H 0.6652 0.52672 0.61601 0.0
H677 H 0.4014 0.46539 0.89642 0.0
H678 H 0.65341 0.55608 0.51335 0.0
N679 N 0.57959 0.49907 0.64057 0.0
C680 C 0.58632 0.48041 0.69187 0.0
C681 C 0.63193 0.49398 0.68684 0.0
C682 C 0.62542 0.51205 0.63162 0.0
C683 C 0.61235 0.47791 0.71634 0.0
C684 C 0.59882 0.51401 0.60854 0.0
H685 H 0.61953 0.57241 0.42361 0.0
N686 N 0.56688 0.53131 0.52652 0.0
C687 C 0.57912 0.55977 0.42589 0.0
C688 C 0.59224 0.53071 0.55056 0.0
C689 C 0.56036 0.54448 0.46274 0.0
C690 C 0.60496 0.56066 0.45254 0.0
C691 C 0.61194 0.54564 0.51452 0.0
O692 O 0.55115 0.48876 0.49108 0.0
O693 O 0.49254 0.50969 0.62014 0.0
O694 O 0.4911 0.48665 0.74728 0.0
O695 O 0.52951 0.47427 0.68284 0.0
O696 O 0.50377 0.51813 0.51216 0.0
O697 O 0.52552 0.46587 0.56138 0.0
O698 O 0.47697 0.54985 0.83778 0.0
O699 O 0.5304 0.52666 0.7059 0.0
O700 O 0.5361 0.5515 0.59315 0.0
O701 O 0.49402 0.56095 0.63687 0.0
O702 O 0.51875 0.52016 0.81465 0.0
O703 O 0.49307 0.57339 0.74962 0.0
C704 C 0.4837 0.51538 0.5559 0.0
C705 C 0.51927 0.46253 0.42959 0.0
C706 C 0.4769 0.44927 0.37521 0.0
C707 C 0.49309 0.45368 0.43813 0.0
C708 C 0.48715 0.45451 0.30351 0.0
C709 C 0.52903 0.46731 0.35739 0.0
C710 C 0.51295 0.46354 0.29492 0.0
C711 C 0.51002 0.46941 0.73052 0.0
C712 C 0.53621 0.46798 0.49528 0.0
C713 C 0.63809 0.54455 0.53983 0.0
C714 C 0.64481 0.52779 0.5982 0.0
C715 C 0.5389 0.52118 0.77066 0.0
C716 C 0.50879 0.58145 0.87271 0.0
C717 C 0.5345 0.58689 0.84681 0.0
C718 C 0.55463 0.59389 0.89741 0.0
C719 C 0.54876 0.59519 0.97453 0.0
C720 C 0.5034 0.58308 0.94977 0.0
C721 C 0.52333 0.58982 1.00032 0.0
C722 C 0.51563 0.56754 0.59964 0.0
C723 C 0.48802 0.5721 0.8209 0.0
H724 H 0.4853 0.45018 0.49366 0.0
H725 H 0.4756 0.45074 0.25351 0.0
H726 H 0.54907 0.47418 0.34929 0.0
H727 H 0.52065 0.46725 0.23946 0.0
H728 H 0.539 0.58544 0.78748 0.0
H729 H 0.56363 0.60113 1.01492 0.0
H730 H 0.48382 0.57876 0.97091 0.0
H731 H 0.51902 0.59105 0.05971 0.0
Eu732 Eu 0.02909 0.54527 0.59101 0.0
C733 C 0.02427 0.44013 0.76316 0.0
C734 C 1.00664 0.40818 0.67414 0.0
C735 C 0.03778 0.39409 0.76853 0.0
C736 C 1.00845 0.43442 0.70201 0.0
C737 C 0.03869 0.41993 0.79808 0.0
C738 C 0.02179 0.38823 0.70666 0.0
C739 C 0.0524 0.45184 0.89229 0.0
N740 N 0.02471 0.46522 0.79063 0.0
C741 C 0.0377 0.47112 0.85606 0.0
C742 C 0.05317 0.42618 0.86265 0.0
Eu743 Eu 1.00197 0.49775 0.72162 0.0
N744 N 0.99411 0.45423 0.67153 0.0
C745 C 0.97606 0.44838 0.6166 0.0
C746 C 0.98931 0.40261 0.61525 0.0
C747 C 0.97369 0.42273 0.58719 0.0
H748 H 0.03745 0.49104 0.87878 0.0
H749 H 0.95985 0.41853 0.54244 0.0
H750 H 0.02085 0.36809 0.68534 0.0
H751 H 0.06319 0.45681 0.94284 0.0
H752 H 0.96362 0.46317 0.59284 0.0
H753 H 0.07937 0.62217 0.75972 0.0
H754 H 0.98746 0.38278 0.59211 0.0
H755 H 0.99724 0.55897 0.43046 0.0
H756 H 0.07519 0.57925 0.6961 0.0
H757 H 0.96844 0.59394 0.38063 0.0
H758 H 0.04892 0.37839 0.7941 0.0
H759 H 0.04614 0.65702 0.73921 0.0
H760 H 1.00676 0.67248 0.66678 0.0
H761 H 0.06454 0.41124 0.89088 0.0
H762 H 0.97614 0.66476 0.56176 0.0
N763 N 0.03824 0.588 0.64477 0.0
C764 C 0.05982 0.59354 0.68826 0.0
C765 C 0.04389 0.63788 0.71188 0.0
C766 C 0.02344 0.63308 0.6611 0.0
C767 C 0.06266 0.61827 0.72358 0.0
C768 C 0.02143 0.60776 0.62717 0.0
H769 H 0.96235 0.63575 0.45261 0.0
N770 N 1.00577 0.58002 0.53158 0.0
C771 C 0.97819 0.59683 0.43402 0.0
C772 C 1.0044 0.60353 0.56846 0.0
C773 C 0.99444 0.57708 0.46237 0.0
C774 C 0.97471 0.62033 0.47497 0.0
C775 C 0.98862 0.62429 0.54185 0.0
O776 O 0.04707 0.55368 0.48239 0.0
O777 O 0.02341 0.50208 0.61321 0.0
O778 O 0.04714 0.49533 0.72649 0.0
O779 O 0.05881 0.53691 0.68557 0.0
O780 O 0.01641 0.51357 0.50524 0.0
O781 O 0.0709 0.53764 0.56991 0.0
O782 O 0.98475 0.4904 0.83153 0.0
O783 O 1.00756 0.54127 0.70004 0.0
O784 O 0.98474 0.54254 0.56865 0.0
O785 O 0.97022 0.50549 0.63248 0.0
O786 O 0.01567 0.52885 0.80699 0.0
O787 O 0.95992 0.5042 0.74253 0.0
C788 C 0.01748 0.49338 0.54809 0.0
C789 C 0.07533 0.51801 0.44971 0.0
C790 C 0.09661 0.47485 0.43506 0.0
C791 C 0.09271 0.49858 0.47571 0.0
C792 C 0.08263 0.47064 0.36792 0.0
C793 C 0.06207 0.51356 0.38149 0.0
C794 C 0.06558 0.48993 0.34138 0.0
C795 C 0.06425 0.51501 0.72235 0.0
C796 C 0.06867 0.54111 0.4982 0.0
C797 C 0.98853 0.64873 0.58029 0.0
C798 C 1.00597 0.65313 0.64 0.0
C799 C 0.0142 0.54926 0.76538 0.0
C800 C 0.9541 0.52407 0.86278 0.0
C801 C 0.9367 0.54332 0.83552 0.0
C802 C 0.92989 0.56564 0.87966 0.0
C803 C 0.94127 0.56868 0.95121 0.0
C804 C 0.96487 0.52752 0.93481 0.0
C805 C 0.95865 0.54979 0.97824 0.0
C806 C 0.9665 0.52463 0.58377 0.0
C807 C 0.96241 0.50143 0.81461 0.0
H808 H 0.10287 0.50169 0.5285 0.0
H809 H 0.08545 0.45279 0.33456 0.0
H810 H 0.04838 0.52799 0.3601 0.0
H811 H 0.05504 0.48656 0.28941 0.0
H812 H 0.92855 0.54097 0.77976 0.0
H813 H 0.93609 0.58517 0.98774 0.0
H814 H 0.9784 0.51317 0.95737 0.0
H815 H 0.96709 0.55228 0.03356 0.0
H816 H 0.17673 0.05425 0.43505 0.0
H817 H 0.14071 0.0284 0.22787 0.0
H818 H 0.09891 0.02098 0.29444 0.0
H819 H 0.0718 0.02302 0.41254 0.0
H820 H 0.10916 0.04948 0.61759 0.0
H821 H 0.15051 0.0559 0.55075 0.0
C822 C 0.15978 0.04715 0.40374 0.0
C823 C 0.16226 0.04221 0.32548 0.0
C824 C 0.13565 0.04319 0.4424 0.0
C825 C 0.13986 0.0323 0.28766 0.0
C826 C 0.11574 0.02826 0.3259 0.0
C827 C 0.08894 0.03025 0.44268 0.0
C828 C 0.08695 0.03557 0.52101 0.0
C829 C 0.11324 0.03385 0.40338 0.0
C830 C 0.10972 0.04488 0.55812 0.0
C831 C 0.13357 0.04865 0.51966 0.0
H832 H 0.46301 0.13783 0.32136 0.0
H833 H 0.53826 0.17405 0.36829 0.0
H834 H 0.54822 0.13943 0.45829 0.0
H835 H 0.53497 0.09921 0.52675 0.0
H836 H 0.46155 0.06095 0.47142 0.0
H837 H 0.45131 0.09579 0.38252 0.0
C838 C 0.48169 0.13801 0.35085 0.0
C839 C 0.49986 0.15864 0.3379 0.0
C840 C 0.48746 0.11773 0.40184 0.0
C841 C 0.52403 0.15839 0.37641 0.0
C842 C 0.52964 0.13865 0.42839 0.0
C843 C 0.51665 0.09867 0.49559 0.0
C844 C 0.49864 0.07788 0.50742 0.0
C845 C 0.51141 0.11835 0.44224 0.0
C846 C 0.47546 0.07693 0.46456 0.0
C847 C 0.46968 0.09684 0.41339 0.0
H848 H 0.37149 0.46984 0.46393 0.0
H849 H 0.38474 0.51783 0.26989 0.0
H850 H 0.42588 0.53431 0.32611 0.0
H851 H 0.45995 0.5328 0.42751 0.0
H852 H 0.44823 0.4801 0.61158 0.0
H853 H 0.40544 0.46686 0.56035 0.0
C854 C 0.38336 0.48363 0.43262 0.0
C855 C 0.3747 0.49208 0.36124 0.0
C856 C 0.40766 0.49201 0.46359 0.0
C857 C 0.39036 0.51089 0.32459 0.0
C858 C 0.41419 0.52013 0.35655 0.0
C859 C 0.44785 0.51863 0.45678 0.0
C860 C 0.45697 0.50828 0.52536 0.0
C861 C 0.4233 0.51052 0.42556 0.0
C862 C 0.4414 0.48921 0.56073 0.0
C863 C 0.41694 0.48147 0.53097 0.0
H864 H 0.05722 0.37989 0.43544 0.0
H865 H 1.0044 0.39622 0.25315 0.0
H866 H 0.9909 0.43752 0.31663 0.0
H867 H 0.99656 0.47098 0.42022 0.0
H868 H 0.05024 0.45457 0.60021 0.0
H869 H 0.06073 0.41165 0.54207 0.0
C870 C 0.04251 0.39229 0.4096 0.0
C871 C 0.03201 0.38462 0.33861 0.0
C872 C 0.03505 0.41628 0.44629 0.0
C873 C 0.01277 0.40113 0.30738 0.0
C874 C 1.00523 0.42501 0.34361 0.0
C875 C 1.01034 0.45785 0.44719 0.0
C876 C 0.02213 0.46599 0.51592 0.0
C877 C 0.01659 0.43309 0.41244 0.0
C878 C 0.04031 0.44879 0.54884 0.0
C879 C 0.04646 0.42422 0.51505 0.0
H880 H 0.85787 0.97299 0.84685 0.0
H881 H 0.8865 1.00781 0.05295 0.0
H882 H 0.92765 0.02056 0.98917 0.0
H883 H 0.95665 0.02011 0.87404 0.0
H884 H 0.9261 0.98523 0.66957 0.0
H885 H 0.88527 0.97396 0.73347 0.0
C886 C 0.87295 0.98364 0.87806 0.0
C887 C 0.86871 0.98944 0.9552 0.0
C888 C 0.89665 0.99064 0.84107 0.0
C889 C 0.88873 1.00334 0.99372 0.0
C890 C 0.9125 1.01037 0.95717 0.0
C891 C 0.94105 1.01008 0.84342 0.0
C892 C 0.94484 1.00367 0.76622 0.0
C893 C 0.91691 1.00385 0.88082 0.0
C894 C 0.92408 0.99071 0.72825 0.0
C895 C 0.90053 0.9842 0.76496 0.0
H896 H 0.57033 0.86989 0.89258 0.0
H897 H 0.53329 0.90469 0.08886 0.0
H898 H 0.5248 0.94504 0.01923 0.0
H899 H 0.52724 0.97047 0.90049 0.0
H900 H 0.56758 0.93559 0.70989 0.0
H901 H 0.57604 0.89585 0.78032 0.0
C902 C 0.56097 0.88634 0.92166 0.0
C903 C 0.55276 0.88381 0.99715 0.0
C904 C 0.55663 0.90975 0.88178 0.0
C905 C 0.53972 0.90554 0.03108 0.0
C906 C 0.535 0.92885 0.99124 0.0
C907 C 0.53818 0.95434 0.87471 0.0
C908 C 0.54624 0.95606 0.79892 0.0
C909 C 0.54332 0.93123 0.9163 0.0
C910 C 0.56046 0.93478 0.76708 0.0
C911 C 0.56539 0.91193 0.80752 0.0
H912 H 0.65603 0.54878 0.87168 0.0
H913 H 0.6312 0.50466 0.06499 0.0
H914 H 0.58948 0.49475 1.00357 0.0
H915 H 0.55839 0.50056 0.89841 0.0
H916 H 0.58008 0.55094 0.71654 0.0
H917 H 0.62419 0.55685 0.77071 0.0
C918 C 0.6416 0.53732 0.90186 0.0
C919 C 0.64751 0.52776 0.97449 0.0
C920 C 0.61679 0.53265 0.86756 0.0
C921 C 0.62811 0.51216 1.00936 0.0
C922 C 0.60386 0.50665 0.97435 0.0
C923 C 0.5729 0.51262 0.87015 0.0
C924 C 0.56631 0.52416 0.80108 0.0
C925 C 0.59781 0.51704 0.90393 0.0
C926 C 0.58501 0.54063 0.76724 0.0
C927 C 0.61017 0.54424 0.79889 0.0
H928 H 0.02388 0.65615 0.96123 0.0
H929 H 0.9505 0.67178 0.84788 0.0
H930 H 0.95439 0.63082 0.77707 0.0
H931 H 0.97757 0.58909 0.74663 0.0
H932 H 0.04795 0.56999 0.86824 0.0
H933 H 0.04584 0.61242 0.93613 0.0
C934 C 1.00851 0.65049 0.92204 0.0
C935 C 0.98737 0.66817 0.90926 0.0
C936 C 1.0102 0.62575 0.88213 0.0
C937 C 0.9677 0.65967 0.8579 0.0
C938 C 0.9697 0.63587 0.81715 0.0
C939 C 0.99273 0.59444 0.78689 0.0
C940 C 0.0136 0.57668 0.79946 0.0
C941 C 0.99086 0.61869 0.82819 0.0
C942 C 0.03217 0.58355 0.8552 0.0
C943 C 0.03084 0.60784 0.89478 0.0
H944 H 0.13585 0.16433 0.25476 0.0
H945 H 0.16624 0.2078 0.44594 0.0
H946 H 0.14217 0.17861 0.52989 0.0
H947 H 0.10419 0.14883 0.54548 0.0
H948 H 0.06965 0.1115 0.34912 0.0
H949 H 0.10444 0.12912 0.27188 0.0
C950 C 0.13833 0.16684 0.31481 0.0
C951 C 0.15225 0.1888 0.34388 0.0
C952 C 0.12307 0.15123 0.36216 0.0
C953 C 0.15519 0.19141 0.42201 0.0
C954 C 0.14118 0.17488 0.46999 0.0
C955 C 0.1043 0.14439 0.48586 0.0
C956 C 0.08355 0.12954 0.45343 0.0
C957 C 0.1235 0.1561 0.44025 0.0
C958 C 0.085 0.12291 0.37654 0.0
C959 C 0.10487 0.13326 0.33167 0.0
H960 H 0.38002 0.13458 0.50212 0.0
H961 H 0.30125 0.10679 0.54921 0.0
H962 H 0.31898 0.07059 0.62006 0.0
H963 H 0.35593 0.04035 0.63408 0.0
H964 H 0.43524 0.06755 0.59089 0.0
H965 H 0.4181 0.10992 0.55096 0.0
C966 C 0.36676 0.1212 0.53048 0.0
C967 C 0.33943 0.12285 0.51763 0.0
C968 C 0.37711 0.0995 0.56844 0.0
C969 C 0.32242 0.10593 0.5569 0.0
C970 C 0.33256 0.08478 0.59652 0.0
C971 C 0.3697 0.0557 0.61864 0.0
C972 C 0.39674 0.05001 0.61091 0.0
C973 C 0.35979 0.08026 0.59724 0.0
C974 C 0.41411 0.07065 0.59225 0.0
C975 C 0.40438 0.09512 0.57057 0.0
H976 H 0.37459 0.38597 0.30481 0.0
H977 H 0.41011 0.33583 0.46987 0.0
H978 H 0.43811 0.37183 0.51133 0.0
H979 H 0.46245 0.4109 0.47236 0.0
H980 H 0.43195 0.45866 0.2943 0.0
H981 H 0.39447 0.42898 0.28031 0.0
C982 C 0.3883 0.38289 0.35038 0.0
C983 C 0.39144 0.35739 0.37977 0.0
C984 C 0.40663 0.40278 0.36841 0.0
C985 C 0.40758 0.35471 0.44346 0.0
C986 C 0.42419 0.37529 0.46655 0.0
C987 C 0.44703 0.41566 0.43288 0.0
C988 C 0.45056 0.43653 0.38269 0.0
C989 C 0.42547 0.39845 0.42496 0.0
C990 C 0.43028 0.44216 0.3318 0.0
C991 C 0.40859 0.42537 0.32443 0.0
H992 H 0.20129 0.41401 0.46306 0.0
H993 H 0.15154 0.34936 0.39046 0.0
H994 H 0.1124 0.37558 0.42164 0.0
H995 H 0.09406 0.42082 0.42947 0.0
H996 H 0.14519 0.48562 0.49315 0.0
H997 H 0.18206 0.45538 0.50404 0.0
C998 C 0.18202 0.40499 0.45652 0.0
C999 C 0.17941 0.38019 0.4201 0.0
C1000 C 0.15978 0.42078 0.46943 0.0
C1001 C 0.15411 0.36884 0.41515 0.0
C1002 C 0.13172 0.38402 0.43169 0.0
C1003 C 0.11306 0.42822 0.44776 0.0
C1004 C 0.11689 0.45557 0.45881 0.0
C1005 C 0.13449 0.41076 0.45214 0.0
C1006 C 0.14159 0.46474 0.48384 0.0
C1007 C 0.16281 0.44745 0.48974 0.0
H1008 H 0.88606 0.89314 0.02793 0.0
H1009 H 0.85405 0.85336 0.833 0.0
H1010 H 0.87721 0.88414 0.75193 0.0
H1011 H 0.91764 0.91077 0.73919 0.0
H1012 H 0.9541 0.94381 0.93852 0.0
H1013 H 0.91764 0.92857 1.01371 0.0
C1014 C 0.883 0.89187 0.96785 0.0
C1015 C 0.86963 0.87001 0.93629 0.0
C1016 C 0.89819 0.90806 0.92189 0.0
C1017 C 0.86503 0.86949 0.85857 0.0
C1018 C 0.8787 0.88682 0.81215 0.0
C1019 C 0.91749 0.9149 0.79899 0.0
C1020 C 0.93952 0.92708 0.83325 0.0
C1021 C 0.89734 0.9043 0.84338 0.0
C1022 C 0.93799 0.93391 0.91 0.0
C1023 C 0.91714 0.92492 0.9537 0.0
H1024 H 0.68347 0.89165 0.78791 0.0
H1025 H 0.63525 0.89444 0.98825 0.0
H1026 H 0.60908 0.92922 0.93648 0.0
H1027 H 0.60915 0.96735 0.85586 0.0
H1028 H 0.65966 0.96836 0.66059 0.0
H1029 H 0.67616 0.92453 0.69061 0.0
C1030 C 0.66699 0.89953 0.82001 0.0
C1031 C 0.66306 0.89169 0.89473 0.0
C1032 C 0.65299 0.92118 0.79221 0.0
C1033 C 0.63999 0.90052 0.93201 0.0
C1034 C 0.62499 0.92094 0.90284 0.0
C1035 C 0.62303 0.95776 0.81791 0.0
C1036 C 0.63378 0.97165 0.75736 0.0
C1037 C 0.63285 0.93288 0.83631 0.0
C1038 C 0.65171 0.95857 0.70914 0.0
C1039 C 0.66105 0.9334 0.72602 0.0
H1040 H 0.66364 0.64645 0.89616 0.0
H1041 H 0.62097 0.6967 0.74843 0.0
H1042 H 0.59022 0.66113 0.71919 0.0
H1043 H 0.56564 0.62547 0.77995 0.0
H1044 H 0.60291 0.58147 0.95525 0.0
H1045 H 0.64432 0.60467 0.93361 0.0
C1046 C 0.64843 0.64898 0.8542 0.0
C1047 C 0.64246 0.67481 0.83167 0.0
C1048 C 0.62843 0.62984 0.84796 0.0
C1049 C 0.62465 0.67749 0.77197 0.0
C1050 C 0.60642 0.65732 0.757 0.0
C1051 C 0.58311 0.62017 0.81127 0.0
C1052 C 0.58105 0.60222 0.87031 0.0
C1053 C 0.60635 0.63485 0.80198 0.0
C1054 C 0.60385 0.5957 0.91072 0.0
C1055 C 0.62762 0.60883 0.89795 0.0
H1056 H 0.8219 0.61959 0.83482 0.0
H1057 H 0.86211 0.68267 0.95287 0.0
H1058 H 0.90454 0.66146 0.92673 0.0
H1059 H 0.92722 0.61906 0.90529 0.0
H1060 H 0.88523 0.55434 0.79905 0.0
H1061 H 0.84666 0.58214 0.78525 0.0
C1062 C 0.83998 0.62953 0.85149 0.0
C1063 C 0.83878 0.65211 0.89852 0.0
C1064 C 0.86399 0.61624 0.84106 0.0
C1065 C 0.86249 0.66494 0.91804 0.0
C1066 C 0.88672 0.6525 0.90441 0.0
C1067 C 0.9099 0.6112 0.87737 0.0
C1068 C 0.90913 0.58438 0.85487 0.0
C1069 C 0.88732 0.62708 0.87184 0.0
C1070 C 0.8866 0.57479 0.81732 0.0
C1071 C 0.86433 0.59068 0.80974 0.0
H1072 H 0.06083 0.16364 0.85853 0.0
H1073 H 0.98126 0.17488 0.94118 0.0
H1074 H 0.96715 0.1358 0.8706 0.0
H1075 H 0.97704 0.09727 0.78685 0.0
H1076 H 0.05678 0.08448 0.7105 0.0
H1077 H 0.07105 0.12449 0.77872 0.0
C1078 C 0.04041 0.15761 0.86281 0.0
C1079 C 0.02235 0.17303 0.90685 0.0
C1080 C 0.03236 0.1343 0.82327 0.0
C1081 C 0.99586 0.1644 0.90784 0.0
C1082 C 0.9877 0.14162 0.86771 0.0
C1083 C 0.99762 0.10313 0.78559 0.0
C1084 C 0.01587 0.08734 0.74438 0.0
C1085 C 1.00574 0.12628 0.82552 0.0
C1086 C 0.04235 0.09566 0.74275 0.0
C1087 C 0.05048 0.11877 0.7815 0.0
H1088 H 0.38564 1.01205 0.95861 0.0
H1089 H 0.37097 0.08415 0.84113 0.0
H1090 H 0.40904 0.07585 0.76056 0.0
H1091 H 0.44817 0.0488 0.72414 0.0
H1092 H 0.46096 0.97491 0.83371 0.0
H1093 H 0.42252 0.9829 0.91426 0.0
C1094 C 0.39022 0.02551 0.91386 0.0
C1095 C 0.37508 0.04882 0.90692 0.0
C1096 C 0.41236 0.02043 0.86602 0.0
C1097 C 0.38199 0.06607 0.84862 0.0
C1098 C 0.40401 0.0614 0.80231 0.0
C1099 C 0.44267 0.03458 0.76608 0.0
C1100 C 0.45811 1.01158 0.77391 0.0
C1101 C 0.41974 0.0389 0.81108 0.0
C1102 C 0.44989 0.99301 0.82707 0.0
C1103 C 0.42771 0.99751 0.87311 0.0
H1104 H 0.49963 0.37917 0.96978 0.0
H1105 H 0.50445 0.32932 0.77272 0.0
H1106 H 0.51324 0.36806 0.69538 0.0
H1107 H 0.51454 0.41725 0.68223 0.0
H1108 H 0.50862 0.46622 0.88124 0.0
H1109 H 0.50514 0.42724 0.95871 0.0
C1110 C 0.50361 0.37672 0.9103 0.0
C1111 C 0.50218 0.35125 0.8775 0.0
C1112 C 0.50768 0.39922 0.86599 0.0
C1113 C 0.50629 0.34855 0.79977 0.0
C1114 C 0.51091 0.37081 0.75538 0.0
C1115 C 0.51278 0.41928 0.74261 0.0
C1116 C 0.5109 0.4448 0.77562 0.0
C1117 C 0.51088 0.39642 0.78747 0.0
C1118 C 0.50888 0.447 0.85402 0.0
C1119 C 0.50727 0.42462 0.8986 0.0
H1120 H 0.16487 0.5255 0.93733 0.0
H1121 H 0.17344 0.44384 0.86852 0.0
H1122 H 0.13468 0.44704 0.78947 0.0
H1123 H 0.09629 0.47201 0.74342 0.0
H1124 H 0.0892 0.55456 0.80153 0.0
H1125 H 0.1288 0.55205 0.8793 0.0
C1126 C 0.1586 0.50854 0.90405 0.0
C1127 C 0.1721 0.48423 0.91136 0.0
C1128 C 0.1361 0.51056 0.85651 0.0
C1129 C 0.16334 0.46265 0.86666 0.0
C1130 C 0.14103 0.46443 0.82081 0.0
C1131 C 0.10352 0.48951 0.77264 0.0
C1132 C 0.08955 0.51346 0.76616 0.0
C1133 C 0.12685 0.48808 0.81628 0.0
C1134 C 0.0995 0.5359 0.80441 0.0
C1135 C 0.12222 0.53445 0.84946 0.0
H1136 H 0.96971 0.87966 0.43168 0.0
H1137 H 0.04864 0.87003 0.34212 0.0
H1138 H 0.06295 0.90857 0.41384 0.0
H1139 H 0.05353 0.94631 0.50057 0.0
H1140 H 0.97431 0.95821 0.58217 0.0
H1141 H 0.95978 0.91843 0.51331 0.0
C1142 C 0.99002 0.88589 0.42604 0.0
C1143 C 1.00781 0.87092 0.37985 0.0
C1144 C 0.99818 0.9091 0.46594 0.0
C1145 C 0.03419 0.87994 0.37723 0.0
C1146 C 0.04249 0.90251 0.418 0.0
C1147 C 0.033 0.94033 0.50279 0.0
C1148 C 0.01498 0.95576 0.54578 0.0
C1149 C 0.02471 0.91737 0.46226 0.0
C1150 C 0.98855 0.9473 0.54853 0.0
C1151 C 0.98029 0.92431 0.50943 0.0
H1152 H 0.65322 0.02758 0.36074 0.0
H1153 H 0.66779 0.9523 0.46138 0.0
H1154 H 0.62954 0.95843 0.54351 0.0
H1155 H 0.59137 0.98546 0.58924 0.0
H1156 H 0.5769 0.06061 0.48794 0.0
H1157 H 0.61503 0.05434 0.40552 0.0
C1158 C 0.64834 0.01272 0.40148 0.0
C1159 C 0.66385 0.98955 0.40445 0.0
C1160 C 0.62585 0.01623 0.44879 0.0
C1161 C 0.65652 0.97038 0.45723 0.0
C1162 C 0.63448 0.97384 0.50453 0.0
C1163 C 0.59626 1.00019 0.54808 0.0
C1164 C 0.58061 0.02322 0.54373 0.0
C1165 C 0.61878 0.99661 0.50078 0.0
C1166 C 0.58812 0.04248 0.49179 0.0
C1167 C 0.61014 0.03898 0.44471 0.0
H1168 H 0.49726 0.65977 0.37002 0.0
H1169 H 0.57275 0.68542 0.45361 0.0
H1170 H 0.57269 0.64936 0.54389 0.0
H1171 H 0.55304 0.60719 0.58982 0.0
H1172 H 0.47708 0.58274 0.50553 0.0
H1173 H 0.47549 0.62117 0.42522 0.0
C1174 C 0.51322 0.65808 0.41001 0.0
C1175 C 0.53474 0.67572 0.40585 0.0
C1176 C 0.51325 0.63692 0.46067 0.0
C1177 C 0.55561 0.67269 0.45678 0.0
C1178 C 0.55579 0.6517 0.50755 0.0
C1179 C 0.53606 0.6105 0.55438 0.0
C1180 C 0.51508 0.59208 0.55427 0.0
C1181 C 0.53508 0.63314 0.50848 0.0
C1182 C 0.49324 0.59672 0.50798 0.0
C1183 C 0.49237 0.61871 0.46156 0.0
H1184 H 0.88211 0.5348 0.32436 0.0
H1185 H 0.82726 0.53058 0.50798 0.0
H1186 H 0.8639 0.52222 0.59474 0.0
H1187 H 0.91284 0.52087 0.62026 0.0
H1188 H 0.96642 0.52567 0.43309 0.0
H1189 H 0.92952 0.52918 0.34699 0.0
C1190 C 0.87807 0.53112 0.38299 0.0
C1191 C 0.85177 0.53268 0.40899 0.0
C1192 C 0.89934 0.52717 0.43269 0.0
C1193 C 0.8471 0.52872 0.48576 0.0
C1194 C 0.8682 0.52436 0.53566 0.0
C1195 C 0.91635 0.52242 0.56057 0.0
C1196 C 0.94266 0.52395 0.53372 0.0
C1197 C 0.8946 0.52427 0.51024 0.0
C1198 C 0.94664 0.52566 0.45596 0.0
C1199 C 0.92543 0.52731 0.40629 0.0
loop_
_geom_bond_atom_site_label_1
_geom_bond_atom_site_label_2
_geom_bond_distance
_geom_bond_site_symmetry_2
_ccdc_geom_bond_type
C0 C1 1.391 . S
C0 C4 1.391 . S
C0 H42 0.948 . S
C1 C0 1.391 . S
C1 C2 1.391 . S
C2 C1 1.391 . S
C2 H58 0.947 . S
C2 C59 1.392 . S
C3 C4 1.391 . S
C3 C7 1.397 . S
C3 C59 1.419 . S
C4 C0 1.391 . S
C4 C3 1.391 . S
C4 C5 1.399 . S
C5 C4 1.399 . S
C5 C8 1.396 . S
C5 C17 1.453 . S
C5 C18 1.684 . S
H6 C30 0.948 . S
C7 C3 1.397 . S
C7 C8 1.394 . S
C7 C26 1.723 . S
C8 C5 1.396 . S
C8 C7 1.394 . S
C8 C38 1.723 . S
H9 C32 0.947 . S
H10 C33 0.948 . S
H11 C39 0.982 . S
H12 C40 0.979 . S
H13 C40 0.980 . S
H14 C40 0.983 . S
H15 C39 0.979 . S
H16 C39 0.977 . S
C17 C5 1.453 . S
C17 H46 0.982 . S
C17 H47 0.979 . S
C17 H48 0.977 . S
C18 C5 1.684 . S
C18 H43 0.979 . S
C18 H44 0.980 . S
C18 H45 0.983 . S
C19 C20 1.391 . S
C19 C24 1.391 . S
C19 H49 0.948 . S
C20 C19 1.391 . S
C20 C21 1.391 1_554 S
C21 C20 1.391 1_556 S
C21 C22 1.392 1_556 S
C21 H50 0.947 . S
C22 C21 1.392 1_554 S
C22 C23 1.419 . S
C22 H51 0.948 . S
C23 C22 1.419 . S
C23 C24 1.391 . S
C23 C27 1.397 . S
C24 C19 1.391 . S
C24 C23 1.391 . S
C24 C25 1.399 . S
C25 C24 1.399 . S
C25 C26 1.396 . S
C25 C28 1.453 . S
C25 C29 1.684 . S
C26 C7 1.723 . S
C26 C25 1.396 . S
C26 C27 1.394 . S
C27 C23 1.397 . S
C27 C26 1.394 . S
C27 C37 1.723 . S
C28 C25 1.453 . S
C28 H52 0.982 . S
C28 H53 0.979 . S
C28 H54 0.977 . S
C29 C25 1.684 . S
C29 H55 0.979 . S
C29 H56 0.980 . S
C29 H57 0.983 . S
C30 H6 0.948 . S
C30 C31 1.391 . S
C30 C35 1.391 . S
C31 C30 1.391 . S
C31 C32 1.391 . S
C32 H9 0.947 . S
C32 C31 1.391 . S
C32 C33 1.392 . S
C33 H10 0.948 . S
C33 C32 1.392 . S
C33 C34 1.419 . S
C34 C33 1.419 . S
C34 C35 1.391 . S
C34 C38 1.397 . S
C35 C30 1.391 . S
C35 C34 1.391 . S
C35 C36 1.399 . S
C36 C35 1.399 . S
C36 C37 1.396 . S
C36 C39 1.453 . S
C36 C40 1.684 . S
C37 C27 1.723 . S
C37 C36 1.396 . S
C37 C38 1.394 . S
C38 C8 1.723 . S
C38 C34 1.397 . S
C38 C37 1.394 . S
C39 H11 0.982 . S
C39 H15 0.979 . S
C39 H16 0.977 . S
C39 C36 1.453 . S
C40 H12 0.979 . S
C40 H13 0.980 . S
C40 H14 0.983 . S
C40 C36 1.684 . S
H41 C59 0.948 . S
H42 C0 0.948 . S
H43 C18 0.979 . S
H44 C18 0.980 . S
H45 C18 0.983 . S
H46 C17 0.982 . S
H47 C17 0.979 . S
H48 C17 0.977 . S
H49 C19 0.948 . S
H50 C21 0.947 . S
H51 C22 0.948 . S
H52 C28 0.982 . S
H53 C28 0.979 . S
H54 C28 0.977 . S
H55 C29 0.979 . S
H56 C29 0.980 . S
H57 C29 0.983 . S
H58 C2 0.947 . S
C59 C2 1.392 . S
C59 C3 1.419 . S
C59 H41 0.948 . S
C60 C61 1.391 . S
C60 C64 1.391 . S
C60 H102 0.948 1_554 S
C61 C60 1.391 . S
C61 C62 1.391 . S
C62 C61 1.391 . S
C62 H118 0.947 . S
C62 C119 1.392 . S
C63 C64 1.391 . S
C63 C67 1.397 . S
C63 C119 1.419 . S
C64 C60 1.391 . S
C64 C63 1.391 . S
C64 C65 1.399 . S
C65 C64 1.399 . S
C65 C68 1.396 . S
C65 C77 1.453 . S
C65 C78 1.684 . S
H66 C90 0.948 . S
C67 C63 1.397 . S
C67 C68 1.394 . S
C67 C86 1.723 . S
C68 C65 1.396 . S
C68 C67 1.394 . S
C68 C98 1.723 . S
H69 C92 0.947 . S
H70 C93 0.948 . S
H71 C99 0.982 . S
H72 C100 0.979 . S
H73 C100 0.980 . S
H74 C100 0.983 . S
H75 C99 0.979 . S
H76 C99 0.977 . S
C77 C65 1.453 . S
C77 H106 0.982 . S
C77 H107 0.992 . S
C77 H108 0.977 . S
C78 C65 1.684 . S
C78 H103 0.979 . S
C78 H104 0.980 . S
C78 H105 0.983 1_554 S
C79 C80 1.391 . S
C79 C84 1.391 . S
C79 H109 0.948 . S
C80 C79 1.391 . S
C80 C81 1.391 . S
C81 C80 1.391 . S
C81 C82 1.392 . S
C81 H110 0.947 . S
C82 C81 1.392 . S
C82 C83 1.419 . S
C82 H111 0.948 . S
C83 C82 1.419 . S
C83 C84 1.391 . S
C83 C87 1.397 . S
C84 C79 1.391 . S
C84 C83 1.391 . S
C84 C85 1.399 . S
C85 C84 1.399 . S
C85 C86 1.396 . S
C85 C88 1.453 . S
C85 C89 1.684 . S
C86 C67 1.723 . S
C86 C85 1.396 . S
C86 C87 1.394 . S
C87 C83 1.397 . S
C87 C86 1.394 . S
C87 C97 1.723 . S
C88 C85 1.453 . S
C88 H112 0.982 . S
C88 H113 0.979 . S
C88 H114 0.977 . S
C89 C85 1.684 . S
C89 H115 0.979 . S
C89 H116 0.980 . S
C89 H117 0.983 . S
C90 H66 0.948 . S
C90 C91 1.391 . S
C90 C95 1.391 . S
C91 C90 1.391 . S
C91 C92 1.391 . S
C92 H69 0.947 . S
C92 C91 1.391 . S
C92 C93 1.392 . S
C93 H70 0.948 . S
C93 C92 1.392 . S
C93 C94 1.419 . S
C94 C93 1.419 . S
C94 C95 1.391 . S
C94 C98 1.397 . S
C95 C90 1.391 . S
C95 C94 1.391 . S
C95 C96 1.399 . S
C96 C95 1.399 . S
C96 C97 1.396 . S
C96 C99 1.453 . S
C96 C100 1.684 . S
C97 C87 1.723 . S
C97 C96 1.396 . S
C97 C98 1.394 . S
C98 C68 1.723 . S
C98 C94 1.397 . S
C98 C97 1.394 . S
C99 H71 0.982 . S
C99 H75 0.979 . S
C99 H76 0.977 . S
C99 C96 1.453 . S
C100 H72 0.979 . S
C100 H73 0.980 . S
C100 H74 0.983 . S
C100 C96 1.684 . S
H101 C119 0.948 . S
H102 C60 0.948 1_556 S
H103 C78 0.979 . S
H104 C78 0.980 . S
H105 C78 0.983 1_556 S
H106 C77 0.982 . S
H107 C77 0.992 . S
H108 C77 0.977 . S
H109 C79 0.948 . S
H110 C81 0.947 . S
H111 C82 0.948 . S
H112 C88 0.982 . S
H113 C88 0.979 . S
H114 C88 0.977 . S
H115 C89 0.979 . S
H116 C89 0.980 . S
H117 C89 0.983 . S
H118 C62 0.947 . S
C119 C62 1.392 . S
C119 C63 1.419 . S
C119 H101 0.948 . S
C120 C121 1.391 . S
C120 C124 1.391 . S
C120 H162 0.948 . S
C121 C120 1.391 . S
C121 C122 1.391 . S
C122 C121 1.391 . S
C122 H178 0.947 . S
C122 C179 1.392 . S
C123 C124 1.391 . S
C123 C127 1.397 . S
C123 C179 1.419 . S
C124 C120 1.391 . S
C124 C123 1.391 . S
C124 C125 1.399 . S
C125 C124 1.399 . S
C125 C128 1.396 . S
C125 C137 1.453 . S
C125 C138 1.684 . S
H126 C150 0.948 . S
C127 C123 1.397 . S
C127 C128 1.394 . S
C127 C146 1.723 . S
C128 C125 1.396 . S
C128 C127 1.394 . S
C128 C158 1.723 . S
H129 C152 0.947 . S
H130 C153 0.948 . S
H131 C159 0.982 . S
H132 C160 0.979 . S
H133 C160 0.980 . S
H134 C160 0.983 . S
H135 C159 0.979 . S
H136 C159 0.977 . S
C137 C125 1.453 . S
C137 H166 0.982 . S
C137 H167 0.979 . S
C137 H168 0.977 . S
C138 C125 1.684 . S
C138 H163 0.979 . S
C138 H164 0.980 . S
C138 H165 0.983 . S
C139 C140 1.391 . S
C139 C144 1.391 . S
C139 H169 0.948 1_554 S
C140 C139 1.391 . S
C140 C141 1.391 . S
C141 C140 1.391 . S
C141 C142 1.392 . S
C141 H170 0.947 . S
C142 C141 1.392 . S
C142 C143 1.419 . S
C142 H171 0.948 . S
C143 C142 1.419 . S
C143 C144 1.391 . S
C143 C147 1.397 . S
C144 C139 1.391 . S
C144 C143 1.391 . S
C144 C145 1.399 . S
C145 C144 1.399 . S
C145 C146 1.396 . S
C145 C148 1.453 . S
C145 C149 1.684 . S
C146 C127 1.723 . S
C146 C145 1.396 . S
C146 C147 1.394 . S
C147 C143 1.397 . S
C147 C146 1.394 . S
C147 C157 1.723 . S
C148 C145 1.453 . S
C148 H172 0.982 . S
C148 H173 0.979 . S
C148 H174 0.977 . S
C149 C145 1.684 . S
C149 H175 0.979 . S
C149 H176 0.980 . S
C149 H177 0.983 1_554 S
C150 H126 0.948 . S
C150 C151 1.391 . S
C150 C155 1.391 . S
C151 C150 1.391 . S
C151 C152 1.391 . S
C152 H129 0.947 . S
C152 C151 1.391 . S
C152 C153 1.392 . S
C153 H130 0.948 . S
C153 C152 1.392 . S
C153 C154 1.419 . S
C154 C153 1.419 . S
C154 C155 1.391 . S
C154 C158 1.397 . S
C155 C150 1.391 . S
C155 C154 1.391 . S
C155 C156 1.399 . S
C156 C155 1.399 . S
C156 C157 1.396 . S
C156 C159 1.453 . S
C156 C160 1.684 . S
C157 C147 1.723 . S
C157 C156 1.396 . S
C157 C158 1.394 . S
C158 C128 1.723 . S
C158 C154 1.397 . S
C158 C157 1.394 . S
C159 H131 0.982 . S
C159 H135 0.979 . S
C159 H136 0.977 . S
C159 C156 1.453 . S
C160 H132 0.979 . S
C160 H133 0.980 . S
C160 H134 0.983 . S
C160 C156 1.684 . S
H161 C179 0.948 . S
H162 C120 0.948 . S
H163 C138 0.979 . S
H164 C138 0.980 . S
H165 C138 0.983 . S
H166 C137 0.982 . S
H167 C137 0.979 . S
H168 C137 0.977 . S
H169 C139 0.948 1_556 S
H170 C141 0.947 . S
H171 C142 0.948 . S
H172 C148 0.982 . S
H173 C148 0.979 . S
H174 C148 0.977 . S
H175 C149 0.979 . S
H176 C149 0.980 . S
H177 C149 0.983 1_556 S
H178 C122 0.947 . S
C179 C122 1.392 . S
C179 C123 1.419 . S
C179 H161 0.948 . S
C180 C181 1.391 . S
C180 C184 1.391 . S
C180 H222 0.948 . S
C181 C180 1.391 . S
C181 C182 1.391 . S
C182 C181 1.391 . S
C182 H238 0.947 . S
C182 C239 1.392 . S
C183 C184 1.391 . S
C183 C187 1.397 . S
C183 C239 1.419 . S
C184 C180 1.391 . S
C184 C183 1.391 . S
C184 C185 1.399 . S
C185 C184 1.399 . S
C185 C188 1.396 . S
C185 C197 1.453 . S
C185 C198 1.684 . S
H186 C210 0.948 . S
C187 C183 1.397 . S
C187 C188 1.394 . S
C187 C206 1.723 . S
C188 C185 1.396 . S
C188 C187 1.394 . S
C188 C218 1.723 . S
H189 C212 0.947 . S
H190 C213 0.948 . S
H191 C219 0.982 . S
H192 C220 0.979 . S
H193 C220 0.980 . S
H194 C220 0.983 . S
H195 C219 0.979 . S
H196 C219 0.977 . S
C197 C185 1.453 . S
C197 H226 0.982 . S
C197 H227 0.979 . S
C197 H228 0.977 . S
C198 C185 1.684 . S
C198 H223 0.979 . S
C198 H224 0.980 . S
C198 H225 0.983 . S
C199 C200 1.391 . S
C199 C204 1.391 . S
C199 H229 0.948 . S
C200 C199 1.391 . S
C200 C201 1.391 1_554 S
C201 C200 1.391 1_556 S
C201 C202 1.392 1_556 S
C201 H230 0.947 . S
C202 C201 1.392 1_554 S
C202 C203 1.419 . S
C202 H231 0.948 . S
C203 C202 1.419 . S
C203 C204 1.391 . S
C203 C207 1.397 . S
C204 C199 1.391 . S
C204 C203 1.391 . S
C204 C205 1.399 . S
C205 C204 1.399 . S
C205 C206 1.396 . S
C205 C208 1.453 . S
C205 C209 1.684 . S
C206 C187 1.723 . S
C206 C205 1.396 . S
C206 C207 1.394 . S
C207 C203 1.397 . S
C207 C206 1.394 . S
C207 C217 1.723 . S
C208 C205 1.453 . S
C208 H232 0.982 . S
C208 H233 0.979 . S
C208 H234 0.977 . S
C209 C205 1.684 . S
C209 H235 0.979 . S
C209 H236 0.980 . S
C209 H237 0.983 . S
C210 H186 0.948 . S
C210 C211 1.391 . S
C210 C215 1.391 . S
C211 C210 1.391 . S
C211 C212 1.391 . S
C212 H189 0.947 . S
C212 C211 1.391 . S
C212 C213 1.392 . S
C213 H190 0.948 . S
C213 C212 1.392 . S
C213 C214 1.419 . S
C214 C213 1.419 . S
C214 C215 1.391 . S
C214 C218 1.397 . S
C215 C210 1.391 . S
C215 C214 1.391 . S
C215 C216 1.399 . S
C216 C215 1.399 . S
C216 C217 1.396 . S
C216 C219 1.453 . S
C216 C220 1.684 . S
C217 C207 1.723 . S
C217 C216 1.396 . S
C217 C218 1.394 . S
C218 C188 1.723 . S
C218 C214 1.397 . S
C218 C217 1.394 . S
C219 H191 0.982 . S
C219 H195 0.979 . S
C219 H196 0.977 . S
C219 C216 1.453 . S
C220 H192 0.979 . S
C220 H193 0.980 . S
C220 H194 0.983 . S
C220 C216 1.684 . S
H221 C239 0.948 . S
H222 C180 0.948 . S
H223 C198 0.979 . S
H224 C198 0.980 . S
H225 C198 0.983 . S
H226 C197 0.982 . S
H227 C197 0.979 . S
H228 C197 0.977 . S
H229 C199 0.948 . S
H230 C201 0.947 . S
H231 C202 0.948 . S
H232 C208 0.982 . S
H233 C208 0.979 . S
H234 C208 0.977 . S
H235 C209 0.979 . S
H236 C209 0.980 . S
H237 C209 0.983 . S
H238 C182 0.947 . S
C239 C182 1.392 . S
C239 C183 1.419 . S
C239 H221 0.948 . S
C240 C241 1.391 . S
C240 C244 1.391 . S
C240 H282 0.948 1_554 S
C241 C240 1.391 . S
C241 C242 1.391 . S
C242 C241 1.391 . S
C242 H298 0.947 . S
C242 C299 1.392 . S
C243 C244 1.391 . S
C243 C247 1.397 . S
C243 C299 1.419 . S
C244 C240 1.391 . S
C244 C243 1.391 . S
C244 C245 1.399 1_554 S
C245 C244 1.399 1_556 S
C245 C248 1.396 . S
C245 C257 1.453 . S
C245 C258 1.684 . S
H246 C270 0.948 . S
C247 C243 1.397 . S
C247 C248 1.394 1_554 S
C247 C266 1.723 . S
C248 C245 1.396 . S
C248 C247 1.394 1_556 S
C248 C278 1.723 . S
H249 C272 0.947 . S
H250 C273 0.948 . S
H251 C279 0.982 . S
H252 C280 0.979 . S
H253 C280 0.980 . S
H254 C280 0.983 . S
H255 C279 0.979 . S
H256 C279 0.977 . S
C257 C245 1.453 . S
C257 H286 0.982 . S
C257 H287 0.979 . S
C257 H288 0.977 . S
C258 C245 1.684 . S
C258 H283 0.979 . S
C258 H284 0.980 . S
C258 H285 0.983 . S
C259 C260 1.391 . S
C259 C264 1.391 . S
C259 H289 0.948 . S
C260 C259 1.391 . S
C260 C261 1.391 . S
C261 C260 1.391 . S
C261 C262 1.392 . S
C261 H290 0.947 . S
C262 C261 1.392 . S
C262 C263 1.419 . S
C262 H291 0.948 . S
C263 C262 1.419 . S
C263 C264 1.391 . S
C263 C267 1.397 . S
C264 C259 1.391 . S
C264 C263 1.391 . S
C264 C265 1.399 . S
C265 C264 1.399 . S
C265 C266 1.396 . S
C265 C268 1.453 . S
C265 C269 1.684 . S
C266 C247 1.723 . S
C266 C265 1.396 . S
C266 C267 1.394 . S
C267 C263 1.397 . S
C267 C266 1.394 . S
C267 C277 1.723 1_554 S
C268 C265 1.453 . S
C268 H292 0.982 . S
C268 H293 0.979 . S
C268 H294 0.977 . S
C269 C265 1.684 . S
C269 H295 0.979 . S
C269 H296 0.980 . S
C269 H297 0.983 . S
C270 H246 0.948 . S
C270 C271 1.391 . S
C270 C275 1.391 . S
C271 C270 1.391 . S
C271 C272 1.391 . S
C272 H249 0.947 . S
C272 C271 1.391 . S
C272 C273 1.392 . S
C273 H250 0.948 . S
C273 C272 1.392 . S
C273 C274 1.419 . S
C274 C273 1.419 . S
C274 C275 1.391 . S
C274 C278 1.397 . S
C275 C270 1.391 . S
C275 C274 1.391 . S
C275 C276 1.399 . S
C276 C275 1.399 . S
C276 C277 1.396 . S
C276 C279 1.453 . S
C276 C280 1.684 . S
C277 C267 1.723 1_556 S
C277 C276 1.396 . S
C277 C278 1.394 . S
C278 C248 1.723 . S
C278 C274 1.397 . S
C278 C277 1.394 . S
C279 H251 0.982 . S
C279 H255 0.979 . S
C279 H256 0.977 . S
C279 C276 1.453 . S
C280 H252 0.979 . S
C280 H253 0.980 . S
C280 H254 0.983 . S
C280 C276 1.684 . S
H281 C299 0.948 . S
H282 C240 0.948 1_556 S
H283 C258 0.979 . S
H284 C258 0.980 . S
H285 C258 0.983 . S
H286 C257 0.982 . S
H287 C257 0.979 . S
H288 C257 0.977 . S
H289 C259 0.948 . S
H290 C261 0.947 . S
H291 C262 0.948 . S
H292 C268 0.982 . S
H293 C268 0.979 . S
H294 C268 0.977 . S
H295 C269 0.979 . S
H296 C269 0.980 . S
H297 C269 0.983 . S
H298 C242 0.947 . S
C299 C242 1.392 . S
C299 C243 1.419 . S
C299 H281 0.948 . S
C300 C301 1.391 . S
C300 C304 1.391 . S
C300 H342 0.948 . S
C301 C300 1.391 . S
C301 C302 1.391 . S
C302 C301 1.391 . S
C302 H358 0.947 . S
C302 C359 1.392 . S
C303 C304 1.391 . S
C303 C307 1.397 . S
C303 C359 1.419 . S
C304 C300 1.391 . S
C304 C303 1.391 . S
C304 C305 1.399 . S
C305 C304 1.399 . S
C305 C308 1.396 . S
C305 C317 1.453 . S
C305 C318 1.684 . S
H306 C330 0.948 1_556 S
C307 C303 1.397 . S
C307 C308 1.394 . S
C307 C326 1.723 1_554 S
C308 C305 1.396 . S
C308 C307 1.394 . S
C308 C338 1.723 . S
H309 C332 0.947 . S
H310 C333 0.948 . S
H311 C339 0.982 . S
H312 C340 0.979 . S
H313 C340 0.980 . S
H314 C340 0.983 . S
H315 C339 0.979 . S
H316 C339 0.977 . S
C317 C305 1.453 . S
C317 H346 0.982 . S
C317 H347 0.979 . S
C317 H348 0.977 . S
C318 C305 1.684 . S
C318 H343 0.979 . S
C318 H344 0.980 . S
C318 H345 0.983 . S
C319 C320 1.391 . S
C319 C324 1.391 . S
C319 H349 0.948 . S
C320 C319 1.391 . S
C320 C321 1.391 . S
C321 C320 1.391 . S
C321 C322 1.392 . S
C321 H350 0.947 . S
C322 C321 1.392 . S
C322 C323 1.419 . S
C322 H351 0.948 . S
C323 C322 1.419 . S
C323 C324 1.391 . S
C323 C327 1.397 . S
C324 C319 1.391 . S
C324 C323 1.391 . S
C324 C325 1.399 . S
C325 C324 1.399 . S
C325 C326 1.396 . S
C325 C328 1.453 . S
C325 C329 1.684 . S
C326 C307 1.723 1_556 S
C326 C325 1.396 . S
C326 C327 1.394 . S
C327 C323 1.397 . S
C327 C326 1.394 . S
C327 C337 1.723 . S
C328 C325 1.453 . S
C328 H352 0.982 . S
C328 H353 0.979 . S
C328 H354 0.977 . S
C329 C325 1.684 . S
C329 H355 0.979 . S
C329 H356 0.980 . S
C329 H357 0.983 . S
C330 H306 0.948 1_554 S
C330 C331 1.391 . S
C330 C335 1.391 . S
C331 C330 1.391 . S
C331 C332 1.391 . S
C332 H309 0.947 . S
C332 C331 1.391 . S
C332 C333 1.392 . S
C333 H310 0.948 . S
C333 C332 1.392 . S
C333 C334 1.419 . S
C334 C333 1.419 . S
C334 C335 1.391 . S
C334 C338 1.397 . S
C335 C330 1.391 . S
C335 C334 1.391 . S
C335 C336 1.399 1_554 S
C336 C335 1.399 1_556 S
C336 C337 1.396 . S
C336 C339 1.453 . S
C336 C340 1.684 . S
C337 C327 1.723 . S
C337 C336 1.396 . S
C337 C338 1.394 1_556 S
C338 C308 1.723 . S
C338 C334 1.397 . S
C338 C337 1.394 1_554 S
C339 H311 0.982 . S
C339 H315 0.979 . S
C339 H316 0.977 . S
C339 C336 1.453 . S
C340 H312 0.979 . S
C340 H313 0.980 . S
C340 H314 0.983 . S
C340 C336 1.684 . S
H341 C359 0.948 . S
H342 C300 0.948 . S
H343 C318 0.979 . S
H344 C318 0.980 . S
H345 C318 0.983 . S
H346 C317 0.982 . S
H347 C317 0.979 . S
H348 C317 0.977 . S
H349 C319 0.948 . S
H350 C321 0.947 . S
H351 C322 0.948 . S
H352 C328 0.982 . S
H353 C328 0.979 . S
H354 C328 0.977 . S
H355 C329 0.979 . S
H356 C329 0.980 . S
H357 C329 0.983 . S
H358 C302 0.947 . S
C359 C302 1.392 . S
C359 C303 1.419 . S
C359 H341 0.948 . S
C360 C361 1.391 . S
C360 C364 1.391 . S
C360 H402 0.948 . S
C361 C360 1.391 . S
C361 C362 1.391 . S
C362 C361 1.391 . S
C362 H418 0.947 . S
C362 C419 1.392 . S
C363 C364 1.391 . S
C363 C367 1.397 . S
C363 C419 1.419 . S
C364 C360 1.391 . S
C364 C363 1.391 . S
C364 C365 1.399 . S
C365 C364 1.399 . S
C365 C368 1.396 . S
C365 C377 1.453 . S
C365 C378 1.684 . S
H366 C390 0.948 . S
C367 C363 1.397 . S
C367 C368 1.394 . S
C367 C386 1.723 1_556 S
C368 C365 1.396 . S
C368 C367 1.394 . S
C368 C398 1.723 1_556 S
H369 C392 0.947 1_556 S
H370 C393 0.948 . S
H371 C399 0.982 . S
H372 C400 0.979 . S
H373 C400 0.980 . S
H374 C400 0.983 . S
H375 C399 0.979 . S
H376 C399 0.977 . S
C377 C365 1.453 . S
C377 H406 0.982 . S
C377 H407 0.979 . S
C377 H408 0.977 . S
C378 C365 1.684 . S
C378 H403 0.979 . S
C378 H404 0.980 . S
C378 H405 0.983 . S
C379 C380 1.391 . S
C379 C384 1.391 . S
C379 H409 0.948 . S
C380 C379 1.391 . S
C380 C381 1.391 . S
C381 C380 1.391 . S
C381 C382 1.392 . S
C381 H410 0.947 . S
C382 C381 1.392 . S
C382 C383 1.419 . S
C382 H411 0.948 . S
C383 C382 1.419 . S
C383 C384 1.391 . S
C383 C387 1.397 . S
C384 C379 1.391 . S
C384 C383 1.391 . S
C384 C385 1.399 . S
C385 C384 1.399 . S
C385 C386 1.396 . S
C385 C388 1.453 . S
C385 C389 1.684 . S
C386 C367 1.723 1_554 S
C386 C385 1.396 . S
C386 C387 1.394 . S
C387 C383 1.397 . S
C387 C386 1.394 . S
C387 C397 1.723 . S
C388 C385 1.453 . S
C388 H412 0.982 . S
C388 H413 0.979 . S
C388 H414 0.977 1_554 S
C389 C385 1.684 . S
C389 H415 0.979 . S
C389 H416 0.980 1_554 S
C389 H417 0.983 . S
C390 H366 0.948 . S
C390 C391 1.391 . S
C390 C395 1.391 . S
C391 C390 1.391 . S
C391 C392 1.391 . S
C392 H369 0.947 1_554 S
C392 C391 1.391 . S
C392 C393 1.392 1_554 S
C393 H370 0.948 . S
C393 C392 1.392 1_556 S
C393 C394 1.419 1_556 S
C394 C393 1.419 1_554 S
C394 C395 1.391 . S
C394 C398 1.397 . S
C395 C390 1.391 . S
C395 C394 1.391 . S
C395 C396 1.399 . S
C396 C395 1.399 . S
C396 C397 1.396 . S
C396 C399 1.453 . S
C396 C400 1.684 . S
C397 C387 1.723 . S
C397 C396 1.396 . S
C397 C398 1.394 . S
C398 C368 1.723 1_554 S
C398 C394 1.397 . S
C398 C397 1.394 . S
C399 H371 0.982 . S
C399 H375 0.979 . S
C399 H376 0.977 . S
C399 C396 1.453 . S
C400 H372 0.979 . S
C400 H373 0.980 . S
C400 H374 0.983 . S
C400 C396 1.684 . S
H401 C419 0.948 . S
H402 C360 0.948 . S
H403 C378 0.979 . S
H404 C378 0.980 . S
H405 C378 0.983 . S
H406 C377 0.982 . S
H407 C377 0.979 . S
H408 C377 0.977 . S
H409 C379 0.948 . S
H410 C381 0.947 . S
H411 C382 0.948 . S
H412 C388 0.982 . S
H413 C388 0.979 . S
H414 C388 0.977 1_556 S
H415 C389 0.979 . S
H416 C389 0.980 1_556 S
H417 C389 0.983 . S
H418 C362 0.947 . S
C419 C362 1.392 . S
C419 C363 1.419 . S
C419 H401 0.948 . S
C420 C421 1.391 . S
C420 C424 1.391 . S
C420 H462 0.948 . S
C421 C420 1.391 . S
C421 C422 1.391 . S
C422 C421 1.391 . S
C422 H478 0.947 . S
C422 C479 1.392 . S
C423 C424 1.391 . S
C423 C427 1.397 . S
C423 C479 1.419 . S
C424 C420 1.391 . S
C424 C423 1.391 . S
C424 C425 1.399 . S
C425 C424 1.399 . S
C425 C428 1.396 . S
C425 C437 1.453 . S
C425 C438 1.684 . S
H426 C450 0.948 . S
C427 C423 1.397 . S
C427 C428 1.394 . S
C427 C446 1.723 1_556 S
C428 C425 1.396 . S
C428 C427 1.394 . S
C428 C458 1.723 1_556 S
H429 C452 0.947 1_556 S
H430 C453 0.948 . S
H431 C459 0.982 . S
H432 C460 0.979 . S
H433 C460 0.980 . S
H434 C460 0.983 . S
H435 C459 0.979 . S
H436 C459 0.977 . S
C437 C425 1.453 . S
C437 H466 0.982 . S
C437 H467 0.979 . S
C437 H468 0.977 . S
C438 C425 1.684 . S
C438 H463 0.979 . S
C438 H464 0.980 . S
C438 H465 0.983 . S
C439 C440 1.391 . S
C439 C444 1.391 . S
C439 H469 0.948 . S
C440 C439 1.391 . S
C440 C441 1.391 . S
C441 C440 1.391 . S
C441 C442 1.392 . S
C441 H470 0.947 . S
C442 C441 1.392 . S
C442 C443 1.419 . S
C442 H471 0.948 . S
C443 C442 1.419 . S
C443 C444 1.391 . S
C443 C447 1.397 . S
C444 C439 1.391 . S
C444 C443 1.391 . S
C444 C445 1.399 . S
C445 C444 1.399 . S
C445 C446 1.396 . S
C445 C448 1.453 . S
C445 C449 1.684 . S
C446 C427 1.723 1_554 S
C446 C445 1.396 . S
C446 C447 1.394 . S
C447 C443 1.397 . S
C447 C446 1.394 . S
C447 C457 1.723 . S
C448 C445 1.453 . S
C448 H472 0.982 . S
C448 H473 0.979 . S
C448 H474 0.977 1_554 S
C449 C445 1.684 . S
C449 H475 0.979 . S
C449 H476 0.980 1_554 S
C449 H477 0.983 . S
C450 H426 0.948 . S
C450 C451 1.391 . S
C450 C455 1.391 . S
C451 C450 1.391 . S
C451 C452 1.391 . S
C452 H429 0.947 1_554 S
C452 C451 1.391 . S
C452 C453 1.392 1_554 S
C453 H430 0.948 . S
C453 C452 1.392 1_556 S
C453 C454 1.419 1_556 S
C454 C453 1.419 1_554 S
C454 C455 1.391 . S
C454 C458 1.397 . S
C455 C450 1.391 . S
C455 C454 1.391 . S
C455 C456 1.399 . S
C456 C455 1.399 . S
C456 C457 1.396 . S
C456 C459 1.453 . S
C456 C460 1.684 . S
C457 C447 1.723 . S
C457 C456 1.396 . S
C457 C458 1.394 . S
C458 C428 1.723 1_554 S
C458 C454 1.397 . S
C458 C457 1.394 . S
C459 H431 0.982 . S
C459 H435 0.979 . S
C459 H436 0.977 . S
C459 C456 1.453 . S
C460 H432 0.979 . S
C460 H433 0.980 . S
C460 H434 0.983 . S
C460 C456 1.684 . S
H461 C479 0.948 . S
H462 C420 0.948 . S
H463 C438 0.979 . S
H464 C438 0.980 . S
H465 C438 0.983 . S
H466 C437 0.982 . S
H467 C437 0.979 . S
H468 C437 0.977 . S
H469 C439 0.948 . S
H470 C441 0.947 . S
H471 C442 0.948 . S
H472 C448 0.982 . S
H473 C448 0.979 . S
H474 C448 0.977 1_556 S
H475 C449 0.979 . S
H476 C449 0.980 1_556 S
H477 C449 0.983 . S
H478 C422 0.947 . S
C479 C422 1.392 . S
C479 C423 1.419 . S
C479 H461 0.948 . S
Eu480 N511 2.657 1_565 S
Eu480 N518 2.609 . S
Eu480 O524 2.558 . S
Eu480 O525 2.612 1_455 S
Eu480 O527 2.339 1_455 S
Eu480 O528 2.563 . S
Eu480 O529 2.419 . S
Eu480 O531 2.380 1_565 S
Eu480 O532 2.432 . S
Eu480 C544 2.848 . S
C481 C484 1.429 1_545 S
C481 C485 1.411 1_545 S
C481 N488 1.377 . S
C482 C484 1.420 . S
C482 C486 1.423 . S
C482 C494 1.392 . S
C483 C485 1.423 . S
C483 C486 1.351 . S
C483 H506 0.931 . S
C484 C481 1.429 1_565 S
C484 C482 1.420 . S
C484 N492 1.362 . S
C485 C481 1.411 1_565 S
C485 C483 1.423 . S
C485 C490 1.393 1_565 S
C486 C482 1.423 . S
C486 C483 1.351 . S
C486 H498 0.930 . S
C487 C489 1.400 . S
C487 C490 1.386 . S
C487 H499 0.930 . S
N488 C481 1.377 . S
N488 C489 1.321 . S
N488 Eu491 2.609 . S
C489 C487 1.400 . S
C489 N488 1.321 . S
C489 H496 0.930 . S
C490 C485 1.393 1_545 S
C490 C487 1.386 . S
C490 H509 0.930 . S
Eu491 N488 2.609 . S
Eu491 N492 2.657 1_545 S
Eu491 O525 2.380 1_545 S
Eu491 O526 2.432 . S
Eu491 O530 2.558 . S
Eu491 O531 2.612 1_655 S
Eu491 O533 2.339 1_655 S
Eu491 O534 2.563 1_655 S
Eu491 O535 2.419 . S
Eu491 C555 2.848 . S
N492 C484 1.362 . S
N492 Eu491 2.657 1_565 S
N492 C493 1.347 . S
C493 N492 1.347 . S
C493 C495 1.415 . S
C493 H500 0.913 1_655 S
C494 C482 1.392 . S
C494 C495 1.367 . S
C494 H502 0.930 . S
C495 C493 1.415 . S
C495 C494 1.367 . S
C495 H497 0.930 1_655 S
H496 C489 0.930 . S
H497 C495 0.930 1_455 S
H498 C486 0.930 . S
H499 C487 0.930 . S
H500 C493 0.913 1_455 S
H501 C515 0.930 1_655 S
H502 C494 0.930 . S
H503 C521 0.930 . S
H504 C512 0.929 1_655 S
H505 C519 0.930 . S
H506 C483 0.931 . S
H507 C513 0.930 . S
H508 C546 0.930 . S
H509 C490 0.930 . S
H510 C545 0.931 . S
N511 Eu480 2.657 1_545 S
N511 C512 1.334 . S
N511 C516 1.362 . S
C512 H504 0.929 1_455 S
C512 N511 1.334 . S
C512 C515 1.413 . S
C513 H507 0.930 . S
C513 C514 1.392 . S
C513 C515 1.367 . S
C514 C513 1.392 . S
C514 C516 1.420 . S
C514 C546 1.423 . S
C515 H501 0.930 1_455 S
C515 C512 1.413 . S
C515 C513 1.367 . S
C516 N511 1.362 . S
C516 C514 1.420 . S
C516 C520 1.429 . S
H517 C522 0.931 . S
N518 Eu480 2.609 . S
N518 C520 1.377 1_565 S
N518 C521 1.321 . S
C519 H505 0.930 . S
C519 C521 1.400 . S
C519 C522 1.375 1_565 S
C520 C516 1.429 . S
C520 N518 1.377 1_545 S
C520 C523 1.411 . S
C521 H503 0.930 . S
C521 N518 1.321 . S
C521 C519 1.400 . S
C522 H517 0.931 . S
C522 C519 1.375 1_545 S
C522 C523 1.404 . S
C523 C520 1.411 . S
C523 C522 1.404 . S
C523 C545 1.420 . S
O524 Eu480 2.558 . S
O524 C544 1.257 . S
O525 Eu480 2.612 1_655 S
O525 Eu491 2.380 1_565 S
O525 C536 1.276 . S
O526 Eu491 2.432 . S
O526 C543 1.264 . S
O527 Eu480 2.339 1_655 S
O527 C543 1.254 1_565 S
O528 Eu480 2.563 . S
O528 C536 1.235 1_455 S
O529 Eu480 2.419 . S
O529 C544 1.249 . S
O530 Eu491 2.558 . S
O530 C555 1.257 . S
O531 Eu480 2.380 1_545 S
O531 Eu491 2.612 1_455 S
O531 C547 1.276 . S
O532 Eu480 2.432 . S
O532 C554 1.264 1_565 S
O533 Eu491 2.339 1_455 S
O533 C554 1.254 . S
O534 Eu491 2.563 1_455 S
O534 C547 1.235 . S
O535 Eu491 2.419 . S
O535 C555 1.249 . S
C536 O525 1.276 . S
C536 O528 1.235 1_655 S
C537 C539 1.393 . S
C537 C541 1.395 . S
C537 C544 1.492 . S
C538 C539 1.392 . S
C538 C540 1.386 . S
C539 C537 1.393 . S
C539 C538 1.392 . S
C539 H556 0.930 . S
C540 C538 1.386 . S
C540 C542 1.395 . S
C540 H557 0.930 . S
C541 C537 1.395 . S
C541 C542 1.379 . S
C541 H558 0.930 . S
C542 C540 1.395 . S
C542 C541 1.379 . S
C542 H559 0.930 . S
C543 O526 1.264 . S
C543 O527 1.254 1_545 S
C544 Eu480 2.848 . S
C544 O524 1.257 . S
C544 O529 1.249 . S
C544 C537 1.492 . S
C545 H510 0.931 . S
C545 C523 1.420 . S
C545 C546 1.351 . S
C546 H508 0.930 . S
C546 C514 1.423 . S
C546 C545 1.351 . S
C547 O531 1.276 . S
C547 O534 1.235 . S
C548 C549 1.393 . S
C548 C552 1.395 . S
C548 C555 1.492 . S
C549 C548 1.393 . S
C549 C550 1.392 . S
C549 H560 0.930 1_655 S
C550 C549 1.392 . S
C550 C551 1.386 . S
C551 C550 1.386 . S
C551 C553 1.395 . S
C551 H561 0.930 . S
C552 C548 1.395 . S
C552 C553 1.379 . S
C552 H562 0.930 . S
C553 C551 1.395 . S
C553 C552 1.379 . S
C553 H563 0.930 . S
C554 O532 1.264 1_545 S
C554 O533 1.254 . S
C555 Eu491 2.848 . S
C555 O530 1.257 . S
C555 O535 1.249 . S
C555 C548 1.492 . S
H556 C539 0.930 . S
H557 C540 0.930 . S
H558 C541 0.930 . S
H559 C542 0.930 . S
H560 C549 0.930 1_455 S
H561 C551 0.930 . S
H562 C552 0.930 . S
H563 C553 0.930 . S
Eu564 N595 2.657 . S
Eu564 N602 2.609 . S
Eu564 O608 2.558 . S
Eu564 O609 2.612 1_545 S
Eu564 O611 2.339 1_545 S
Eu564 O612 2.563 . S
Eu564 O613 2.419 . S
Eu564 O615 2.380 . S
Eu564 O616 2.432 . S
Eu564 C628 2.848 . S
C565 C568 1.429 . S
C565 C569 1.411 . S
C565 N572 1.377 . S
C566 C568 1.420 . S
C566 C570 1.423 . S
C566 C578 1.392 . S
C567 C569 1.420 . S
C567 C570 1.351 . S
C567 H590 0.931 . S
C568 C565 1.429 . S
C568 C566 1.420 . S
C568 N576 1.362 . S
C569 C565 1.411 . S
C569 C567 1.420 . S
C569 C574 1.395 . S
C570 C566 1.423 . S
C570 C567 1.351 . S
C570 H582 0.930 . S
C571 C573 1.400 . S
C571 C574 1.386 . S
C571 H583 0.930 . S
N572 C565 1.377 . S
N572 C573 1.321 . S
N572 Eu575 2.609 . S
C573 C571 1.400 . S
C573 N572 1.321 . S
C573 H580 0.930 . S
C574 C569 1.395 . S
C574 C571 1.386 . S
C574 H593 0.930 . S
Eu575 N572 2.609 . S
Eu575 N576 2.657 . S
Eu575 O609 2.380 . S
Eu575 O610 2.432 . S
Eu575 O614 2.558 . S
Eu575 O615 2.612 1_565 S
Eu575 O617 2.339 1_565 S
Eu575 O618 2.563 1_565 S
Eu575 O619 2.419 . S
Eu575 C639 2.848 . S
N576 C568 1.362 . S
N576 Eu575 2.657 . S
N576 C577 1.334 1_565 S
C577 N576 1.334 1_545 S
C577 C579 1.413 . S
C577 H584 0.929 . S
C578 C566 1.392 . S
C578 C579 1.367 1_565 S
C578 H586 0.930 . S
C579 C577 1.413 . S
C579 C578 1.367 1_545 S
C579 H581 0.930 . S
H580 C573 0.930 . S
H581 C579 0.930 . S
H582 C570 0.930 . S
H583 C571 0.930 . S
H584 C577 0.929 . S
H585 C599 0.930 1_565 S
H586 C578 0.930 . S
H587 C605 0.930 . S
H588 C596 0.929 1_565 S
H589 C603 0.930 . S
H590 C567 0.931 . S
H591 C597 0.930 . S
H592 C630 0.930 . S
H593 C574 0.930 . S
H594 C629 0.931 . S
N595 Eu564 2.657 . S
N595 C596 1.334 . S
N595 C600 1.362 . S
C596 H588 0.929 1_545 S
C596 N595 1.334 . S
C596 C599 1.413 . S
C597 H591 0.930 . S
C597 C598 1.392 . S
C597 C599 1.367 . S
C598 C597 1.392 . S
C598 C600 1.420 . S
C598 C630 1.423 . S
C599 H585 0.930 1_545 S
C599 C596 1.413 . S
C599 C597 1.367 . S
C600 N595 1.362 . S
C600 C598 1.420 . S
C600 C604 1.429 . S
H601 C606 0.930 . S
N602 Eu564 2.609 . S
N602 C604 1.377 . S
N602 C605 1.321 . S
C603 H589 0.930 . S
C603 C605 1.400 . S
C603 C606 1.386 . S
C604 C600 1.429 . S
C604 N602 1.377 . S
C604 C607 1.411 . S
C605 H587 0.930 . S
C605 N602 1.321 . S
C605 C603 1.400 . S
C606 H601 0.930 . S
C606 C603 1.386 . S
C606 C607 1.395 . S
C607 C604 1.411 . S
C607 C606 1.395 . S
C607 C629 1.420 . S
O608 Eu564 2.558 . S
O608 C628 1.257 . S
O609 Eu564 2.612 1_565 S
O609 Eu575 2.380 . S
O609 C620 1.276 . S
O610 Eu575 2.432 . S
O610 C627 1.264 . S
O611 Eu564 2.339 1_565 S
O611 C627 1.254 . S
O612 Eu564 2.563 . S
O612 C620 1.235 1_545 S
O613 Eu564 2.419 . S
O613 C628 1.249 . S
O614 Eu575 2.558 . S
O614 C639 1.257 . S
O615 Eu564 2.380 . S
O615 Eu575 2.612 1_545 S
O615 C631 1.276 . S
O616 Eu564 2.432 . S
O616 C638 1.264 . S
O617 Eu575 2.339 1_545 S
O617 C638 1.254 . S
O618 Eu575 2.563 1_545 S
O618 C631 1.235 . S
O619 Eu575 2.419 . S
O619 C639 1.249 . S
C620 O609 1.276 . S
C620 O612 1.235 1_565 S
C621 C623 1.393 . S
C621 C625 1.395 . S
C621 C628 1.492 . S
C622 C623 1.392 . S
C622 C624 1.386 . S
C623 C621 1.393 . S
C623 C622 1.392 . S
C623 H640 0.930 . S
C624 C622 1.386 . S
C624 C626 1.395 . S
C624 H641 0.930 . S
C625 C621 1.395 . S
C625 C626 1.379 . S
C625 H642 0.930 . S
C626 C624 1.395 . S
C626 C625 1.379 . S
C626 H643 0.930 . S
C627 O610 1.264 . S
C627 O611 1.254 . S
C628 Eu564 2.848 . S
C628 O608 1.257 . S
C628 O613 1.249 . S
C628 C621 1.492 . S
C629 H594 0.931 . S
C629 C607 1.420 . S
C629 C630 1.351 . S
C630 H592 0.930 . S
C630 C598 1.423 . S
C630 C629 1.351 . S
C631 O615 1.276 . S
C631 O618 1.235 . S
C632 C633 1.393 . S
C632 C636 1.395 . S
C632 C639 1.492 . S
C633 C632 1.393 . S
C633 C634 1.392 . S
C633 H644 0.930 1_565 S
C634 C633 1.392 . S
C634 C635 1.386 . S
C635 C634 1.386 . S
C635 C637 1.395 . S
C635 H645 0.930 . S
C636 C632 1.395 . S
C636 C637 1.379 . S
C636 H646 0.930 . S
C637 C635 1.395 . S
C637 C636 1.379 . S
C637 H647 0.930 . S
C638 O616 1.264 . S
C638 O617 1.254 . S
C639 Eu575 2.848 . S
C639 O614 1.257 . S
C639 O619 1.249 . S
C639 C632 1.492 . S
H640 C623 0.930 . S
H641 C624 0.930 . S
H642 C625 0.930 . S
H643 C626 0.930 . S
H644 C633 0.930 1_545 S
H645 C635 0.930 . S
H646 C636 0.930 . S
H647 C637 0.930 . S
Eu648 N679 2.657 . S
Eu648 N686 2.609 . S
Eu648 O692 2.558 . S
Eu648 O693 2.612 . S
Eu648 O695 2.339 . S
Eu648 O696 2.563 . S
Eu648 O697 2.419 . S
Eu648 O699 2.380 . S
Eu648 O700 2.432 . S
Eu648 C712 2.848 . S
C649 C652 1.429 . S
C649 C653 1.411 . S
C649 N656 1.377 . S
C650 C652 1.420 . S
C650 C654 1.423 . S
C650 C662 1.392 . S
C651 C653 1.420 . S
C651 C654 1.351 . S
C651 H674 0.931 . S
C652 C649 1.429 . S
C652 C650 1.420 . S
C652 N660 1.362 . S
C653 C649 1.411 . S
C653 C651 1.420 . S
C653 C658 1.395 . S
C654 C650 1.423 . S
C654 C651 1.351 . S
C654 H666 0.930 . S
C655 C657 1.400 . S
C655 C658 1.386 . S
C655 H667 0.930 . S
N656 C649 1.377 . S
N656 C657 1.321 . S
N656 Eu659 2.609 . S
C657 C655 1.400 . S
C657 N656 1.321 . S
C657 H664 0.930 . S
C658 C653 1.395 . S
C658 C655 1.386 . S
C658 H677 0.930 . S
Eu659 N656 2.609 . S
Eu659 N660 2.657 . S
Eu659 O693 2.380 . S
Eu659 O694 2.432 . S
Eu659 O698 2.558 . S
Eu659 O699 2.612 . S
Eu659 O701 2.339 . S
Eu659 O702 2.563 . S
Eu659 O703 2.419 . S
Eu659 C723 2.848 . S
N660 C652 1.362 . S
N660 Eu659 2.657 . S
N660 C661 1.334 . S
C661 N660 1.334 . S
C661 C663 1.413 . S
C661 H668 0.929 . S
C662 C650 1.392 . S
C662 C663 1.367 . S
C662 H670 0.930 . S
C663 C661 1.413 . S
C663 C662 1.367 . S
C663 H665 0.930 . S
H664 C657 0.930 . S
H665 C663 0.930 . S
H666 C654 0.930 . S
H667 C655 0.930 . S
H668 C661 0.929 . S
H669 C683 0.930 . S
H670 C662 0.930 . S
H671 C689 0.930 . S
H672 C680 0.929 . S
H673 C687 0.930 . S
H674 C651 0.931 . S
H675 C681 0.930 . S
H676 C714 0.930 . S
H677 C658 0.930 . S
H678 C713 0.931 . S
N679 Eu648 2.657 . S
N679 C680 1.334 . S
N679 C684 1.362 . S
C680 H672 0.929 . S
C680 N679 1.334 . S
C680 C683 1.413 . S
C681 H675 0.930 . S
C681 C682 1.392 . S
C681 C683 1.367 . S
C682 C681 1.392 . S
C682 C684 1.420 . S
C682 C714 1.423 . S
C683 H669 0.930 . S
C683 C680 1.413 . S
C683 C681 1.367 . S
C684 N679 1.362 . S
C684 C682 1.420 . S
C684 C688 1.429 . S
H685 C690 0.930 . S
N686 Eu648 2.609 . S
N686 C688 1.377 . S
N686 C689 1.321 . S
C687 H673 0.930 . S
C687 C689 1.400 . S
C687 C690 1.386 . S
C688 C684 1.429 . S
C688 N686 1.377 . S
C688 C691 1.411 . S
C689 H671 0.930 . S
C689 N686 1.321 . S
C689 C687 1.400 . S
C690 H685 0.930 . S
C690 C687 1.386 . S
C690 C691 1.395 . S
C691 C688 1.411 . S
C691 C690 1.395 . S
C691 C713 1.420 . S
O692 Eu648 2.558 . S
O692 C712 1.257 . S
O693 Eu648 2.612 . S
O693 Eu659 2.380 . S
O693 C704 1.276 . S
O694 Eu659 2.432 . S
O694 C711 1.264 . S
O695 Eu648 2.339 . S
O695 C711 1.254 . S
O696 Eu648 2.563 . S
O696 C704 1.235 . S
O697 Eu648 2.419 . S
O697 C712 1.249 . S
O698 Eu659 2.558 . S
O698 C723 1.257 . S
O699 Eu648 2.380 . S
O699 Eu659 2.612 . S
O699 C715 1.276 . S
O700 Eu648 2.432 . S
O700 C722 1.264 . S
O701 Eu659 2.339 . S
O701 C722 1.254 . S
O702 Eu659 2.563 . S
O702 C715 1.235 . S
O703 Eu659 2.419 . S
O703 C723 1.249 . S
C704 O693 1.276 . S
C704 O696 1.235 . S
C705 C707 1.393 . S
C705 C709 1.395 . S
C705 C712 1.492 . S
C706 C707 1.392 . S
C706 C708 1.386 . S
C707 C705 1.393 . S
C707 C706 1.392 . S
C707 H724 0.930 . S
C708 C706 1.386 . S
C708 C710 1.395 . S
C708 H725 0.930 . S
C709 C705 1.395 . S
C709 C710 1.379 . S
C709 H726 0.930 . S
C710 C708 1.395 . S
C710 C709 1.379 . S
C710 H727 0.930 . S
C711 O694 1.264 . S
C711 O695 1.254 . S
C712 Eu648 2.848 . S
C712 O692 1.257 . S
C712 O697 1.249 . S
C712 C705 1.492 . S
C713 H678 0.931 . S
C713 C691 1.420 . S
C713 C714 1.351 . S
C714 H676 0.930 . S
C714 C682 1.423 . S
C714 C713 1.351 . S
C715 O699 1.276 . S
C715 O702 1.235 . S
C716 C717 1.393 . S
C716 C720 1.395 . S
C716 C723 1.492 . S
C717 C716 1.393 . S
C717 C718 1.392 . S
C717 H728 0.930 . S
C718 C717 1.392 . S
C718 C719 1.386 . S
C719 C718 1.386 . S
C719 C721 1.396 . S
C719 H729 0.930 1_556 S
C720 C716 1.395 . S
C720 C721 1.389 . S
C720 H730 0.930 . S
C721 C719 1.396 . S
C721 C720 1.389 . S
C721 H731 0.918 1_556 S
C722 O700 1.264 . S
C722 O701 1.254 . S
C723 Eu659 2.848 . S
C723 O698 1.257 . S
C723 O703 1.249 . S
C723 C716 1.492 . S
H724 C707 0.930 . S
H725 C708 0.930 . S
H726 C709 0.930 . S
H727 C710 0.930 . S
H728 C717 0.930 . S
H729 C719 0.930 1_554 S
H730 C720 0.930 . S
H731 C721 0.918 1_554 S
Eu732 N763 2.657 . S
Eu732 N770 2.609 . S
Eu732 O776 2.558 . S
Eu732 O777 2.612 . S
Eu732 O779 2.339 . S
Eu732 O780 2.563 . S
Eu732 O781 2.419 . S
Eu732 O783 2.371 1_455 S
Eu732 O784 2.432 1_455 S
Eu732 C796 2.848 . S
C733 C736 1.429 . S
C733 C737 1.411 . S
C733 N740 1.377 . S
C734 C736 1.420 . S
C734 C738 1.423 . S
C734 C746 1.392 . S
C735 C737 1.420 . S
C735 C738 1.351 . S
C735 H758 0.931 . S
C736 C733 1.429 . S
C736 C734 1.420 . S
C736 N744 1.362 . S
C737 C733 1.411 . S
C737 C735 1.420 . S
C737 C742 1.395 . S
C738 C734 1.423 . S
C738 C735 1.351 . S
C738 H750 0.930 . S
C739 C741 1.400 . S
C739 C742 1.386 1_455 S
C739 H751 0.930 . S
N740 C733 1.377 . S
N740 C741 1.321 1_655 S
N740 Eu743 2.609 . S
C741 C739 1.400 . S
C741 N740 1.321 1_455 S
C741 H748 0.930 . S
C742 C737 1.395 . S
C742 C739 1.386 1_655 S
C742 H761 0.931 . S
Eu743 N740 2.609 . S
Eu743 N744 2.657 . S
Eu743 O777 2.380 1_655 S
Eu743 O778 2.432 1_655 S
Eu743 O782 2.558 . S
Eu743 O783 2.618 . S
Eu743 O785 2.339 . S
Eu743 O786 2.563 . S
Eu743 O787 2.419 . S
Eu743 C807 2.848 . S
N744 C736 1.362 . S
N744 Eu743 2.657 . S
N744 C745 1.334 . S
C745 N744 1.334 . S
C745 C747 1.413 . S
C745 H752 0.929 . S
C746 C734 1.392 . S
C746 C747 1.367 . S
C746 H754 0.930 . S
C747 C745 1.413 . S
C747 C746 1.367 . S
C747 H749 0.930 . S
H748 C741 0.930 . S
H749 C747 0.930 . S
H750 C738 0.930 . S
H751 C739 0.930 . S
H752 C745 0.929 . S
H753 C767 0.930 . S
H754 C746 0.930 . S
H755 C773 0.914 1_655 S
H756 C764 0.929 . S
H757 C771 0.930 . S
H758 C735 0.931 . S
H759 C765 0.930 . S
H760 C798 0.930 . S
H761 C742 0.931 . S
H762 C797 0.931 . S
N763 Eu732 2.657 . S
N763 C764 1.334 . S
N763 C768 1.362 . S
C764 H756 0.929 . S
C764 N763 1.334 . S
C764 C767 1.413 . S
C765 H759 0.930 . S
C765 C766 1.392 . S
C765 C767 1.367 . S
C766 C765 1.392 . S
C766 C768 1.420 . S
C766 C798 1.423 . S
C767 H753 0.930 . S
C767 C764 1.413 . S
C767 C765 1.367 . S
C768 N763 1.362 . S
C768 C766 1.420 . S
C768 C772 1.429 . S
H769 C774 0.930 . S
N770 Eu732 2.609 . S
N770 C772 1.377 . S
N770 C773 1.342 . S
C771 H757 0.930 . S
C771 C773 1.395 1_655 S
C771 C774 1.386 1_655 S
C772 C768 1.429 . S
C772 N770 1.377 . S
C772 C775 1.411 . S
C773 H755 0.914 1_455 S
C773 N770 1.342 . S
C773 C771 1.395 1_455 S
C774 H769 0.930 . S
C774 C771 1.386 1_455 S
C774 C775 1.395 . S
C775 C772 1.411 . S
C775 C774 1.395 . S
C775 C797 1.420 . S
O776 Eu732 2.558 . S
O776 C796 1.257 . S
O777 Eu732 2.612 . S
O777 Eu743 2.380 1_455 S
O777 C788 1.276 . S
O778 Eu743 2.432 1_455 S
O778 C795 1.264 . S
O779 Eu732 2.339 . S
O779 C795 1.254 . S
O780 Eu732 2.563 . S
O780 C788 1.235 . S
O781 Eu732 2.419 . S
O781 C796 1.249 . S
O782 Eu743 2.558 . S
O782 C807 1.257 . S
O783 Eu732 2.371 1_655 S
O783 Eu743 2.618 . S
O783 C799 1.283 . S
O784 Eu732 2.432 1_655 S
O784 C806 1.264 . S
O785 Eu743 2.339 . S
O785 C806 1.254 . S
O786 Eu743 2.563 . S
O786 C799 1.235 . S
O787 Eu743 2.419 . S
O787 C807 1.249 . S
C788 O777 1.276 . S
C788 O780 1.235 . S
C789 C791 1.393 . S
C789 C793 1.395 . S
C789 C796 1.492 . S
C790 C791 1.392 . S
C790 C792 1.386 . S
C791 C789 1.393 . S
C791 C790 1.392 . S
C791 H808 0.930 . S
C792 C790 1.386 . S
C792 C794 1.395 . S
C792 H809 0.930 . S
C793 C789 1.395 . S
C793 C794 1.379 . S
C793 H810 0.930 . S
C794 C792 1.395 . S
C794 C793 1.379 . S
C794 H811 0.930 . S
C795 O778 1.264 . S
C795 O779 1.254 . S
C796 Eu732 2.848 . S
C796 O776 1.257 . S
C796 O781 1.249 . S
C796 C789 1.492 . S
C797 H762 0.931 . S
C797 C775 1.420 . S
C797 C798 1.351 . S
C798 H760 0.930 . S
C798 C766 1.423 . S
C798 C797 1.351 . S
C799 O783 1.283 . S
C799 O786 1.235 . S
C800 C801 1.393 . S
C800 C804 1.395 . S
C800 C807 1.492 . S
C801 C800 1.393 . S
C801 C802 1.392 . S
C801 H812 0.930 . S
C802 C801 1.392 . S
C802 C803 1.386 . S
C803 C802 1.386 . S
C803 C805 1.395 . S
C803 H813 0.930 1_556 S
C804 C800 1.395 . S
C804 C805 1.379 . S
C804 H814 0.930 . S
C805 C803 1.395 . S
C805 C804 1.379 . S
C805 H815 0.930 1_556 S
C806 O784 1.264 . S
C806 O785 1.254 . S
C807 Eu743 2.848 . S
C807 O782 1.257 . S
C807 O787 1.249 . S
C807 C800 1.492 . S
H808 C791 0.930 . S
H809 C792 0.930 . S
H810 C793 0.930 . S
H811 C794 0.930 . S
H812 C801 0.930 . S
H813 C803 0.930 1_554 S
H814 C804 0.930 . S
H815 C805 0.930 1_554 S
H816 C822 0.930 . S
H817 C825 0.930 . S
H818 C826 0.930 . S
H819 C827 0.930 . S
H820 C830 0.930 1_565 S
H821 C831 0.930 1_565 S
C822 H816 0.930 . S
C822 C823 1.355 . S
C822 C824 1.415 . S
C823 C822 1.355 . S
C823 C825 1.419 . S
C824 C822 1.415 . S
C824 C829 1.425 . S
C824 C831 1.409 . S
C825 H817 0.930 . S
C825 C823 1.419 . S
C825 C826 1.362 . S
C826 H818 0.930 . S
C826 C825 1.362 . S
C826 C829 1.409 . S
C827 H819 0.930 . S
C827 C828 1.355 . S
C827 C829 1.415 . S
C828 C827 1.355 . S
C828 C830 1.419 . S
C829 C824 1.425 . S
C829 C826 1.409 . S
C829 C827 1.415 . S
C830 H820 0.930 1_545 S
C830 C828 1.419 . S
C830 C831 1.362 . S
C831 H821 0.930 1_545 S
C831 C824 1.409 . S
C831 C830 1.362 . S
H832 C838 0.930 . S
H833 C841 0.930 . S
H834 C842 0.930 . S
H835 C843 0.930 . S
H836 C846 0.930 . S
H837 C847 0.930 . S
C838 H832 0.930 . S
C838 C839 1.355 . S
C838 C840 1.415 . S
C839 C838 1.355 . S
C839 C841 1.419 . S
C840 C838 1.415 . S
C840 C845 1.425 . S
C840 C847 1.409 . S
C841 H833 0.930 . S
C841 C839 1.419 . S
C841 C842 1.362 . S
C842 H834 0.930 . S
C842 C841 1.362 . S
C842 C845 1.409 . S
C843 H835 0.930 . S
C843 C844 1.355 . S
C843 C845 1.415 . S
C844 C843 1.355 . S
C844 C846 1.419 . S
C845 C840 1.425 . S
C845 C842 1.409 . S
C845 C843 1.415 . S
C846 H836 0.930 . S
C846 C844 1.419 . S
C846 C847 1.362 . S
C847 H837 0.930 . S
C847 C840 1.409 . S
C847 C846 1.362 . S
H848 C854 0.930 . S
H849 C857 0.930 . S
H850 C858 0.930 . S
H851 C859 0.930 . S
H852 C862 0.930 . S
H853 C863 0.930 . S
C854 H848 0.930 . S
C854 C855 1.355 . S
C854 C856 1.415 . S
C855 C854 1.355 . S
C855 C857 1.419 . S
C856 C854 1.415 . S
C856 C861 1.425 . S
C856 C863 1.409 . S
C857 H849 0.930 . S
C857 C855 1.419 . S
C857 C858 1.362 . S
C858 H850 0.930 . S
C858 C857 1.362 . S
C858 C861 1.409 . S
C859 H851 0.930 . S
C859 C860 1.355 . S
C859 C861 1.415 . S
C860 C859 1.355 . S
C860 C862 1.419 . S
C861 C856 1.425 . S
C861 C858 1.409 . S
C861 C859 1.415 . S
C862 H852 0.930 . S
C862 C860 1.419 . S
C862 C863 1.362 . S
C863 H853 0.930 . S
C863 C856 1.409 . S
C863 C862 1.362 . S
H864 C870 0.930 . S
H865 C873 0.930 . S
H866 C874 0.930 . S
H867 C875 0.930 . S
H868 C878 0.930 . S
H869 C879 0.930 . S
C870 H864 0.930 . S
C870 C871 1.355 . S
C870 C872 1.415 . S
C871 C870 1.355 . S
C871 C873 1.419 . S
C872 C870 1.415 . S
C872 C877 1.425 . S
C872 C879 1.409 . S
C873 H865 0.930 . S
C873 C871 1.419 . S
C873 C874 1.362 . S
C874 H866 0.930 . S
C874 C873 1.362 . S
C874 C877 1.409 . S
C875 H867 0.930 . S
C875 C876 1.355 . S
C875 C877 1.415 . S
C876 C875 1.355 . S
C876 C878 1.419 . S
C877 C872 1.425 . S
C877 C874 1.409 . S
C877 C875 1.415 . S
C878 H868 0.930 . S
C878 C876 1.419 . S
C878 C879 1.362 . S
C879 H869 0.930 . S
C879 C872 1.409 . S
C879 C878 1.362 . S
H880 C886 0.930 . S
H881 C889 0.930 . S
H882 C890 0.930 . S
H883 C891 0.930 . S
H884 C894 0.964 . S
H885 C895 0.930 1_545 S
C886 H880 0.930 . S
C886 C887 1.355 . S
C886 C888 1.415 1_554 S
C887 C886 1.355 . S
C887 C889 1.419 . S
C888 C886 1.415 1_556 S
C888 C893 1.425 . S
C888 C895 1.409 . S
C889 H881 0.930 . S
C889 C887 1.419 . S
C889 C890 1.362 1_554 S
C890 H882 0.930 . S
C890 C889 1.362 1_556 S
C890 C893 1.409 . S
C891 H883 0.930 . S
C891 C892 1.355 . S
C891 C893 1.415 . S
C892 C891 1.355 . S
C892 C894 1.392 1_565 S
C893 C888 1.425 . S
C893 C890 1.409 . S
C893 C891 1.415 . S
C894 H884 0.964 . S
C894 C892 1.392 1_545 S
C894 C895 1.357 1_545 S
C895 H885 0.930 1_565 S
C895 C888 1.409 . S
C895 C894 1.357 1_565 S
H896 C902 0.930 . S
H897 C905 0.930 . S
H898 C906 0.930 . S
H899 C907 0.930 . S
H900 C910 0.930 . S
H901 C911 0.930 . S
C902 H896 0.930 . S
C902 C903 1.355 . S
C902 C904 1.415 1_554 S
C903 C902 1.355 . S
C903 C905 1.419 . S
C904 C902 1.415 1_556 S
C904 C909 1.425 . S
C904 C911 1.409 . S
C905 H897 0.930 . S
C905 C903 1.419 . S
C905 C906 1.362 . S
C906 H898 0.930 . S
C906 C905 1.362 . S
C906 C909 1.409 1_554 S
C907 H899 0.930 . S
C907 C908 1.355 . S
C907 C909 1.415 . S
C908 C907 1.355 . S
C908 C910 1.419 . S
C909 C904 1.425 . S
C909 C906 1.409 1_556 S
C909 C907 1.415 . S
C910 H900 0.930 . S
C910 C908 1.419 . S
C910 C911 1.362 . S
C911 H901 0.930 . S
C911 C904 1.409 . S
C911 C910 1.362 . S
H912 C918 0.930 . S
H913 C921 0.930 . S
H914 C922 0.930 . S
H915 C923 0.930 . S
H916 C926 0.930 . S
H917 C927 0.930 . S
C918 H912 0.930 . S
C918 C919 1.355 . S
C918 C920 1.415 1_554 S
C919 C918 1.355 . S
C919 C921 1.419 . S
C920 C918 1.415 1_556 S
C920 C925 1.425 . S
C920 C927 1.409 . S
C921 H913 0.930 . S
C921 C919 1.419 . S
C921 C922 1.362 . S
C922 H914 0.930 . S
C922 C921 1.362 . S
C922 C925 1.409 1_554 S
C923 H915 0.930 . S
C923 C924 1.355 . S
C923 C925 1.415 . S
C924 C923 1.355 . S
C924 C926 1.419 . S
C925 C920 1.425 . S
C925 C922 1.409 1_556 S
C925 C923 1.415 . S
C926 H916 0.930 . S
C926 C924 1.419 . S
C926 C927 1.362 . S
C927 H917 0.930 . S
C927 C920 1.409 . S
C927 C926 1.362 . S
H928 C934 0.930 . S
H929 C937 0.930 . S
H930 C938 0.930 . S
H931 C939 0.930 . S
H932 C942 0.930 . S
H933 C943 0.906 1_455 S
C934 H928 0.930 . S
C934 C935 1.355 . S
C934 C936 1.415 1_554 S
C935 C934 1.355 . S
C935 C937 1.419 . S
C936 C934 1.415 1_556 S
C936 C941 1.425 . S
C936 C943 1.437 . S
C937 H929 0.930 . S
C937 C935 1.419 . S
C937 C938 1.362 1_554 S
C938 H930 0.930 . S
C938 C937 1.362 1_556 S
C938 C941 1.409 . S
C939 H931 0.930 . S
C939 C940 1.355 . S
C939 C941 1.415 . S
C940 C939 1.355 . S
C940 C942 1.419 1_655 S
C941 C936 1.425 . S
C941 C938 1.409 . S
C941 C939 1.415 . S
C942 H932 0.930 . S
C942 C940 1.419 1_455 S
C942 C943 1.359 1_455 S
C943 H933 0.906 1_655 S
C943 C936 1.437 . S
C943 C942 1.359 1_655 S
H944 C950 0.930 . S
H945 C953 0.930 . S
H946 C954 0.930 . S
H947 C955 0.925 1_655 S
H948 C958 0.930 . S
H949 C959 0.930 . S
C950 H944 0.930 . S
C950 C951 1.355 . S
C950 C952 1.415 . S
C951 C950 1.355 . S
C951 C953 1.419 . S
C952 C950 1.415 . S
C952 C957 1.425 . S
C952 C959 1.409 . S
C953 H945 0.930 . S
C953 C951 1.419 . S
C953 C954 1.362 . S
C954 H946 0.930 . S
C954 C953 1.362 . S
C954 C957 1.409 . S
C955 H947 0.925 1_455 S
C955 C956 1.355 . S
C955 C957 1.419 . S
C956 C955 1.355 . S
C956 C958 1.419 . S
C957 C952 1.425 . S
C957 C954 1.409 . S
C957 C955 1.419 . S
C958 H948 0.930 . S
C958 C956 1.419 . S
C958 C959 1.362 . S
C959 H949 0.930 . S
C959 C952 1.409 . S
C959 C958 1.362 . S
H960 C966 0.930 . S
H961 C969 0.930 . S
H962 C970 0.930 . S
H963 C971 0.930 . S
H964 C974 0.930 . S
H965 C975 0.930 . S
C966 H960 0.930 . S
C966 C967 1.355 . S
C966 C968 1.415 . S
C967 C966 1.355 . S
C967 C969 1.419 . S
C968 C966 1.415 . S
C968 C973 1.425 . S
C968 C975 1.409 . S
C969 H961 0.930 . S
C969 C967 1.419 . S
C969 C970 1.362 . S
C970 H962 0.930 . S
C970 C969 1.362 . S
C970 C973 1.409 . S
C971 H963 0.930 . S
C971 C972 1.353 1_565 S
C971 C973 1.415 1_565 S
C972 C971 1.353 1_545 S
C972 C974 1.435 . S
C973 C968 1.425 . S
C973 C970 1.409 . S
C973 C971 1.415 1_545 S
C974 H964 0.930 . S
C974 C972 1.435 . S
C974 C975 1.362 . S
C975 H965 0.930 . S
C975 C968 1.409 . S
C975 C974 1.362 . S
H976 C982 0.930 . S
H977 C985 0.930 . S
H978 C986 0.930 . S
H979 C987 0.930 . S
H980 C990 0.930 . S
H981 C991 0.930 . S
C982 H976 0.930 . S
C982 C983 1.355 . S
C982 C984 1.415 . S
C983 C982 1.355 . S
C983 C985 1.419 . S
C984 C982 1.415 . S
C984 C989 1.425 . S
C984 C991 1.409 . S
C985 H977 0.930 . S
C985 C983 1.419 . S
C985 C986 1.362 . S
C986 H978 0.930 . S
C986 C985 1.362 . S
C986 C989 1.409 . S
C987 H979 0.930 . S
C987 C988 1.355 . S
C987 C989 1.415 . S
C988 C987 1.355 . S
C988 C990 1.419 . S
C989 C984 1.425 . S
C989 C986 1.409 . S
C989 C987 1.415 . S
C990 H980 0.930 . S
C990 C988 1.419 . S
C990 C991 1.362 . S
C991 H981 0.930 . S
C991 C984 1.409 . S
C991 C990 1.362 . S
H992 C998 0.930 . S
H993 C1001 0.930 . S
H994 C1002 0.930 . S
H995 C1003 0.930 . S
H996 C1006 0.930 . S
H997 C1007 0.930 . S
C998 H992 0.930 . S
C998 C999 1.355 . S
C998 C1000 1.415 . S
C999 C998 1.355 . S
C999 C1001 1.419 . S
C1000 C998 1.415 . S
C1000 C1005 1.425 . S
C1000 C1007 1.409 . S
C1001 H993 0.930 . S
C1001 C999 1.419 . S
C1001 C1002 1.362 . S
C1002 H994 0.930 . S
C1002 C1001 1.362 . S
C1002 C1005 1.409 . S
C1003 H995 0.930 . S
C1003 C1004 1.355 . S
C1003 C1005 1.415 . S
C1004 C1003 1.355 . S
C1004 C1006 1.419 . S
C1005 C1000 1.425 . S
C1005 C1002 1.409 . S
C1005 C1003 1.415 . S
C1006 H996 0.930 . S
C1006 C1004 1.419 . S
C1006 C1007 1.362 . S
C1007 H997 0.930 . S
C1007 C1000 1.409 . S
C1007 C1006 1.362 . S
H1008 C1014 0.930 . S
H1009 C1017 0.930 . S
H1010 C1018 0.930 . S
H1011 C1019 0.930 . S
H1012 C1022 0.930 1_554 S
H1013 C1023 0.930 . S
C1014 H1008 0.930 . S
C1014 C1015 1.355 1_554 S
C1014 C1016 1.415 1_554 S
C1015 C1014 1.355 1_556 S
C1015 C1017 1.419 . S
C1016 C1014 1.415 1_556 S
C1016 C1021 1.425 . S
C1016 C1023 1.409 1_556 S
C1017 H1009 0.930 . S
C1017 C1015 1.419 . S
C1017 C1018 1.362 . S
C1018 H1010 0.930 . S
C1018 C1017 1.362 . S
C1018 C1021 1.409 . S
C1019 H1011 0.930 . S
C1019 C1020 1.355 1_655 S
C1019 C1021 1.415 . S
C1020 C1019 1.355 1_455 S
C1020 C1022 1.419 . S
C1021 C1016 1.425 . S
C1021 C1018 1.409 . S
C1021 C1019 1.415 . S
C1022 H1012 0.930 1_556 S
C1022 C1020 1.419 . S
C1022 C1023 1.362 1_456 S
C1023 H1013 0.930 . S
C1023 C1016 1.409 1_554 S
C1023 C1022 1.362 1_654 S
H1024 C1030 0.930 . S
H1025 C1033 0.930 . S
H1026 C1034 0.930 . S
H1027 C1035 0.930 1_554 S
H1028 C1038 0.930 . S
H1029 C1039 0.930 . S
C1030 H1024 0.930 . S
C1030 C1031 1.355 1_556 S
C1030 C1032 1.415 . S
C1031 C1030 1.355 1_554 S
C1031 C1033 1.419 . S
C1032 C1030 1.415 . S
C1032 C1037 1.425 . S
C1032 C1039 1.409 . S
C1033 H1025 0.930 . S
C1033 C1031 1.419 . S
C1033 C1034 1.362 . S
C1034 H1026 0.930 . S
C1034 C1033 1.362 . S
C1034 C1037 1.409 1_554 S
C1035 H1027 0.930 1_556 S
C1035 C1036 1.355 . S
C1035 C1037 1.415 1_545 S
C1036 C1035 1.355 . S
C1036 C1038 1.419 1_545 S
C1037 C1032 1.425 . S
C1037 C1034 1.409 1_556 S
C1037 C1035 1.415 1_565 S
C1038 H1028 0.930 . S
C1038 C1036 1.419 1_565 S
C1038 C1039 1.362 . S
C1039 H1029 0.930 . S
C1039 C1032 1.409 . S
C1039 C1038 1.362 . S
H1040 C1046 0.930 . S
H1041 C1049 0.930 1_554 S
H1042 C1050 0.930 . S
H1043 C1051 0.930 . S
H1044 C1054 0.930 . S
H1045 C1055 0.930 . S
C1046 H1040 0.930 . S
C1046 C1047 1.355 . S
C1046 C1048 1.415 . S
C1047 C1046 1.355 . S
C1047 C1049 1.419 . S
C1048 C1046 1.415 . S
C1048 C1053 1.425 . S
C1048 C1055 1.409 . S
C1049 H1041 0.930 1_556 S
C1049 C1047 1.419 . S
C1049 C1050 1.362 . S
C1050 H1042 0.930 . S
C1050 C1049 1.362 . S
C1050 C1053 1.409 . S
C1051 H1043 0.930 . S
C1051 C1052 1.355 . S
C1051 C1053 1.415 . S
C1052 C1051 1.355 . S
C1052 C1054 1.419 . S
C1053 C1048 1.425 . S
C1053 C1050 1.409 . S
C1053 C1051 1.415 . S
C1054 H1044 0.930 . S
C1054 C1052 1.419 . S
C1054 C1055 1.362 . S
C1055 H1045 0.930 . S
C1055 C1048 1.409 . S
C1055 C1054 1.362 . S
H1056 C1062 0.930 . S
H1057 C1065 0.930 . S
H1058 C1066 0.930 . S
H1059 C1067 0.930 . S
H1060 C1070 0.930 . S
H1061 C1071 0.930 . S
C1062 H1056 0.930 . S
C1062 C1063 1.359 . S
C1062 C1064 1.415 . S
C1063 C1062 1.359 . S
C1063 C1065 1.416 1_556 S
C1064 C1062 1.415 . S
C1064 C1069 1.425 . S
C1064 C1071 1.409 . S
C1065 H1057 0.930 . S
C1065 C1063 1.416 1_554 S
C1065 C1066 1.362 . S
C1066 H1058 0.930 . S
C1066 C1065 1.362 . S
C1066 C1069 1.409 1_554 S
C1067 H1059 0.930 . S
C1067 C1068 1.355 . S
C1067 C1069 1.415 . S
C1068 C1067 1.355 . S
C1068 C1070 1.419 . S
C1069 C1064 1.425 . S
C1069 C1066 1.409 1_556 S
C1069 C1067 1.415 . S
C1070 H1060 0.930 . S
C1070 C1068 1.419 . S
C1070 C1071 1.362 . S
C1071 H1061 0.930 . S
C1071 C1064 1.409 . S
C1071 C1070 1.362 . S
H1072 C1078 0.930 . S
H1073 C1081 0.930 . S
H1074 C1082 0.930 . S
H1075 C1083 0.930 . S
H1076 C1086 0.930 . S
H1077 C1087 0.930 . S
C1078 H1072 0.930 . S
C1078 C1079 1.355 . S
C1078 C1080 1.415 . S
C1079 C1078 1.355 . S
C1079 C1081 1.419 . S
C1080 C1078 1.415 . S
C1080 C1085 1.425 . S
C1080 C1087 1.409 . S
C1081 H1073 0.930 . S
C1081 C1079 1.419 . S
C1081 C1082 1.362 . S
C1082 H1074 0.930 . S
C1082 C1081 1.362 . S
C1082 C1085 1.409 . S
C1083 H1075 0.930 . S
C1083 C1084 1.355 . S
C1083 C1085 1.415 . S
C1084 C1083 1.355 . S
C1084 C1086 1.419 . S
C1085 C1080 1.425 . S
C1085 C1082 1.409 . S
C1085 C1083 1.415 . S
C1086 H1076 0.930 . S
C1086 C1084 1.419 . S
C1086 C1087 1.362 . S
C1087 H1077 0.930 . S
C1087 C1080 1.409 . S
C1087 C1086 1.362 . S
H1088 C1094 0.930 . S
H1089 C1097 0.930 . S
H1090 C1098 0.930 . S
H1091 C1099 0.930 . S
H1092 C1102 0.930 . S
H1093 C1103 0.930 . S
C1094 H1088 0.930 . S
C1094 C1095 1.355 . S
C1094 C1096 1.415 . S
C1095 C1094 1.355 . S
C1095 C1097 1.419 . S
C1096 C1094 1.415 . S
C1096 C1101 1.425 . S
C1096 C1103 1.409 . S
C1097 H1089 0.930 . S
C1097 C1095 1.419 . S
C1097 C1098 1.362 . S
C1098 H1090 0.930 . S
C1098 C1097 1.362 . S
C1098 C1101 1.409 . S
C1099 H1091 0.930 . S
C1099 C1100 1.355 . S
C1099 C1101 1.415 . S
C1100 C1099 1.355 . S
C1100 C1102 1.419 . S
C1101 C1096 1.425 . S
C1101 C1098 1.409 . S
C1101 C1099 1.415 . S
C1102 H1092 0.930 . S
C1102 C1100 1.419 . S
C1102 C1103 1.362 . S
C1103 H1093 0.930 . S
C1103 C1096 1.409 . S
C1103 C1102 1.362 . S
H1104 C1110 0.930 . S
H1105 C1113 0.930 . S
H1106 C1114 0.930 . S
H1107 C1115 0.930 . S
H1108 C1118 0.930 . S
H1109 C1119 0.930 . S
C1110 H1104 0.930 . S
C1110 C1111 1.355 . S
C1110 C1112 1.415 . S
C1111 C1110 1.355 . S
C1111 C1113 1.419 . S
C1112 C1110 1.415 . S
C1112 C1117 1.425 . S
C1112 C1119 1.409 . S
C1113 H1105 0.930 . S
C1113 C1111 1.419 . S
C1113 C1114 1.362 . S
C1114 H1106 0.930 . S
C1114 C1113 1.362 . S
C1114 C1117 1.409 . S
C1115 H1107 0.930 . S
C1115 C1116 1.355 . S
C1115 C1117 1.415 . S
C1116 C1115 1.355 . S
C1116 C1118 1.419 . S
C1117 C1112 1.425 . S
C1117 C1114 1.409 . S
C1117 C1115 1.415 . S
C1118 H1108 0.930 . S
C1118 C1116 1.419 . S
C1118 C1119 1.362 . S
C1119 H1109 0.930 . S
C1119 C1112 1.409 . S
C1119 C1118 1.362 . S
H1120 C1126 0.930 . S
H1121 C1129 0.930 . S
H1122 C1130 0.930 . S
H1123 C1131 0.930 . S
H1124 C1134 0.930 . S
H1125 C1135 0.930 . S
C1126 H1120 0.930 . S
C1126 C1127 1.355 . S
C1126 C1128 1.415 . S
C1127 C1126 1.355 . S
C1127 C1129 1.419 . S
C1128 C1126 1.415 . S
C1128 C1133 1.425 . S
C1128 C1135 1.409 . S
C1129 H1121 0.930 . S
C1129 C1127 1.419 . S
C1129 C1130 1.362 . S
C1130 H1122 0.930 . S
C1130 C1129 1.362 . S
C1130 C1133 1.409 . S
C1131 H1123 0.930 . S
C1131 C1132 1.355 . S
C1131 C1133 1.415 . S
C1132 C1131 1.355 . S
C1132 C1134 1.419 . S
C1133 C1128 1.425 . S
C1133 C1130 1.409 . S
C1133 C1131 1.415 . S
C1134 H1124 0.930 . S
C1134 C1132 1.419 . S
C1134 C1135 1.362 . S
C1135 H1125 0.930 . S
C1135 C1128 1.409 . S
C1135 C1134 1.362 . S
H1136 C1142 0.930 . S
H1137 C1145 0.930 . S
H1138 C1146 0.930 . S
H1139 C1147 0.930 . S
H1140 C1150 0.930 . S
H1141 C1151 0.930 . S
C1142 H1136 0.930 . S
C1142 C1143 1.355 . S
C1142 C1144 1.415 . S
C1143 C1142 1.355 . S
C1143 C1145 1.419 . S
C1144 C1142 1.415 . S
C1144 C1149 1.425 . S
C1144 C1151 1.409 . S
C1145 H1137 0.930 . S
C1145 C1143 1.419 . S
C1145 C1146 1.362 . S
C1146 H1138 0.930 . S
C1146 C1145 1.362 . S
C1146 C1149 1.409 . S
C1147 H1139 0.930 . S
C1147 C1148 1.355 . S
C1147 C1149 1.415 . S
C1148 C1147 1.355 . S
C1148 C1150 1.419 . S
C1149 C1144 1.425 . S
C1149 C1146 1.409 . S
C1149 C1147 1.415 . S
C1150 H1140 0.930 . S
C1150 C1148 1.419 . S
C1150 C1151 1.362 . S
C1151 H1141 0.930 . S
C1151 C1144 1.409 . S
C1151 C1150 1.362 . S
H1152 C1158 0.930 . S
H1153 C1161 0.930 . S
H1154 C1162 0.930 . S
H1155 C1163 0.930 . S
H1156 C1166 0.909 1_545 S
H1157 C1167 0.930 1_545 S
C1158 H1152 0.930 . S
C1158 C1159 1.355 . S
C1158 C1160 1.415 . S
C1159 C1158 1.355 . S
C1159 C1161 1.419 . S
C1160 C1158 1.415 . S
C1160 C1165 1.425 . S
C1160 C1167 1.409 . S
C1161 H1153 0.930 . S
C1161 C1159 1.419 . S
C1161 C1162 1.362 . S
C1162 H1154 0.930 . S
C1162 C1161 1.362 . S
C1162 C1165 1.409 . S
C1163 H1155 0.930 . S
C1163 C1164 1.355 . S
C1163 C1165 1.415 . S
C1164 C1163 1.355 . S
C1164 C1166 1.440 . S
C1165 C1160 1.425 . S
C1165 C1162 1.409 . S
C1165 C1163 1.415 . S
C1166 H1156 0.909 1_565 S
C1166 C1164 1.440 . S
C1166 C1167 1.363 . S
C1167 H1157 0.930 1_565 S
C1167 C1160 1.409 . S
C1167 C1166 1.363 . S
H1168 C1174 0.930 . S
H1169 C1177 0.930 . S
H1170 C1178 0.930 . S
H1171 C1179 0.930 . S
H1172 C1182 0.930 . S
H1173 C1183 0.930 . S
C1174 H1168 0.930 . S
C1174 C1175 1.355 . S
C1174 C1176 1.415 . S
C1175 C1174 1.355 . S
C1175 C1177 1.419 . S
C1176 C1174 1.415 . S
C1176 C1181 1.425 . S
C1176 C1183 1.409 . S
C1177 H1169 0.930 . S
C1177 C1175 1.419 . S
C1177 C1178 1.362 . S
C1178 H1170 0.930 . S
C1178 C1177 1.362 . S
C1178 C1181 1.409 . S
C1179 H1171 0.930 . S
C1179 C1180 1.355 . S
C1179 C1181 1.415 . S
C1180 C1179 1.355 . S
C1180 C1182 1.419 . S
C1181 C1176 1.425 . S
C1181 C1178 1.409 . S
C1181 C1179 1.415 . S
C1182 H1172 0.930 . S
C1182 C1180 1.419 . S
C1182 C1183 1.362 . S
C1183 H1173 0.930 . S
C1183 C1176 1.409 . S
C1183 C1182 1.362 . S
H1184 C1190 0.930 . S
H1185 C1193 0.930 . S
H1186 C1194 0.930 . S
H1187 C1195 0.930 . S
H1188 C1198 0.930 . S
H1189 C1199 0.930 . S
C1190 H1184 0.930 . S
C1190 C1191 1.355 . S
C1190 C1192 1.415 . S
C1191 C1190 1.355 . S
C1191 C1193 1.419 . S
C1192 C1190 1.415 . S
C1192 C1197 1.425 . S
C1192 C1199 1.409 . S
C1193 H1185 0.930 . S
C1193 C1191 1.419 . S
C1193 C1194 1.362 . S
C1194 H1186 0.930 . S
C1194 C1193 1.362 . S
C1194 C1197 1.409 . S
C1195 H1187 0.930 . S
C1195 C1196 1.355 . S
C1195 C1197 1.415 . S
C1196 C1195 1.355 . S
C1196 C1198 1.419 . S
C1197 C1192 1.425 . S
C1197 C1194 1.409 . S
C1197 C1195 1.415 . S
C1198 H1188 0.930 . S
C1198 C1196 1.419 . S
C1198 C1199 1.362 . S
C1199 H1189 0.930 . S
C1199 C1192 1.409 . S
C1199 C1198 1.362 . S
C823 C391 2.541 . S
C828 C554 2.481 . S
C844 C638 2.492 . S
C839 C451 2.522 . S
C860 C704 2.348 . S
C855 C241 2.234 . S
C876 C788 2.410 . S
C871 C331 2.308 . S
C892 C543 2.459 1_565 S
C887 C121 2.192 . S
C903 C211 2.509 . S
C908 C627 2.525 . S
C919 C31 2.592 . S
C924 C715 2.415 . S
C935 C91 2.312 . S
C940 C799 2.356 . S
C956 C550 0.849 1_455 S
C951 C301 0.684 . S
C972 C634 0.764 1_545 S
C967 C380 0.702 . S
C988 C706 0.704 . S
C983 C440 0.695 . S
C999 C260 0.877 . S
C1004 C790 0.796 . S
C1015 C61 0.897 1_556 S
C1020 C538 0.820 . S
C1036 C622 0.781 . S
C1031 C140 0.667 . S
C1052 C718 0.708 . S
C1047 C200 0.661 1_556 S
C1063 C20 0.824 1_556 S
C1068 C802 0.845 . S
C1079 C320 2.982 . S
C1084 C547 3.067 . S
C1095 C361 2.597 . S
C1100 C631 2.988 . S
C1116 C711 3.111 . S
C1111 C421 2.560 . S
C1132 C795 3.132 . S
C1127 C271 2.884 . S
C1143 C80 3.019 . S
C1148 C536 3.021 . S
C1164 C620 3.011 . S
C1159 C151 3.023 . S
C1180 C722 3.103 . S
C1175 C181 2.474 . S
C1191 C1 2.534 . S
C1196 C806 3.139 . S
