# Generated by pormake.
# Topology ant, (3,6)-cn, num edge types: 1
# Building blocks:
#     Node 0, Type 0, BuildingBlock: QEWDON_clean_linker_0, # of connection points: 3
#     Node 1, Type 0, BuildingBlock: QEWDON_clean_linker_0, # of connection points: 3
#     Node 2, Type 0, BuildingBlock: QEWDON_clean_linker_0, # of connection points: 3
#     Node 3, Type 0, BuildingBlock: QEWDON_clean_linker_0, # of connection points: 3
#     Node 4, Type 0, BuildingBlock: QEWDON_clean_linker_0, # of connection points: 3
#     Node 5, Type 0, BuildingBlock: QEWDON_clean_linker_0, # of connection points: 3
#     Node 6, Type 0, BuildingBlock: QEWDON_clean_linker_0, # of connection points: 3
#     Node 7, Type 0, BuildingBlock: QEWDON_clean_linker_0, # of connection points: 3
#     Node 8, Type 1, BuildingBlock: MIDCAF_clean_sbu_0, # of connection points: 6
#     Node 9, Type 1, BuildingBlock: MIDCAF_clean_sbu_0, # of connection points: 6
#     Node 10, Type 1, BuildingBlock: MIDCAF_clean_sbu_0, # of connection points: 6
#     Node 11, Type 1, BuildingBlock: MIDCAF_clean_sbu_0, # of connection points: 6
#     Edge 12, Type (0, 1), BuildingBlock: MIFKUJ_clean_linker_0, # of connection points: 2
#     Edge 13, Type (0, 1), BuildingBlock: MIFKUJ_clean_linker_0, # of connection points: 2
#     Edge 14, Type (0, 1), BuildingBlock: MIFKUJ_clean_linker_0, # of connection points: 2
#     Edge 15, Type (0, 1), BuildingBlock: MIFKUJ_clean_linker_0, # of connection points: 2
#     Edge 16, Type (0, 1), BuildingBlock: MIFKUJ_clean_linker_0, # of connection points: 2
#     Edge 17, Type (0, 1), BuildingBlock: MIFKUJ_clean_linker_0, # of connection points: 2
#     Edge 18, Type (0, 1), BuildingBlock: MIFKUJ_clean_linker_0, # of connection points: 2
#     Edge 19, Type (0, 1), BuildingBlock: MIFKUJ_clean_linker_0, # of connection points: 2
#     Edge 20, Type (0, 1), BuildingBlock: MIFKUJ_clean_linker_0, # of connection points: 2
#     Edge 21, Type (0, 1), BuildingBlock: MIFKUJ_clean_linker_0, # of connection points: 2
#     Edge 22, Type (0, 1), BuildingBlock: MIFKUJ_clean_linker_0, # of connection points: 2
#     Edge 23, Type (0, 1), BuildingBlock: MIFKUJ_clean_linker_0, # of connection points: 2
#     Edge 24, Type (0, 1), BuildingBlock: MIFKUJ_clean_linker_0, # of connection points: 2
#     Edge 25, Type (0, 1), BuildingBlock: MIFKUJ_clean_linker_0, # of connection points: 2
#     Edge 26, Type (0, 1), BuildingBlock: MIFKUJ_clean_linker_0, # of connection points: 2
#     Edge 27, Type (0, 1), BuildingBlock: MIFKUJ_clean_linker_0, # of connection points: 2
#     Edge 28, Type (0, 1), BuildingBlock: MIFKUJ_clean_linker_0, # of connection points: 2
#     Edge 29, Type (0, 1), BuildingBlock: MIFKUJ_clean_linker_0, # of connection points: 2
#     Edge 30, Type (0, 1), BuildingBlock: MIFKUJ_clean_linker_0, # of connection points: 2
#     Edge 31, Type (0, 1), BuildingBlock: MIFKUJ_clean_linker_0, # of connection points: 2
#     Edge 32, Type (0, 1), BuildingBlock: MIFKUJ_clean_linker_0, # of connection points: 2
#     Edge 33, Type (0, 1), BuildingBlock: MIFKUJ_clean_linker_0, # of connection points: 2
#     Edge 34, Type (0, 1), BuildingBlock: MIFKUJ_clean_linker_0, # of connection points: 2
#     Edge 35, Type (0, 1), BuildingBlock: MIFKUJ_clean_linker_0, # of connection points: 2
# Relax obj value: 0.063
# Max RMSD: 0.161
# Mean RMSD: 0.133
data_MOF--net-ant--node1-MIDCAF_clean_sbu_0--node2-QEWDON_clean_linker_0--edge1-MIFKUJ_clean_linker_0
_symmetry_space_group_name_H-M    P1
_symmetry_Int_Tables_number       1
_symmetry_cell_setting            triclinic
loop_
_symmetry_equiv_pos_as_xyz
'x, y, z'
_cell_length_a     39.13092
_cell_length_b     38.852555
_cell_length_c     90.478231
_cell_angle_alpha  96.560592
_cell_angle_beta   100.12421
_cell_angle_gamma 89.808555
loop_
_atom_site_label
_atom_site_type_symbol
_atom_site_fract_x
_atom_site_fract_y
_atom_site_fract_z
_atom_type_partial_charge
H0 H 0.16445 0.181 0.06955 0.0
C1 C 0.16699 0.2089 0.07212 0.0
C2 C 0.16797 0.22911 0.06033 0.0
C3 C 0.16848 0.22463 0.08703 0.0
H4 H 0.16914 0.28058 0.05393 0.0
C5 C 0.16974 0.26532 0.06328 0.0
C6 C 0.17048 0.28186 0.07797 0.0
C7 C 0.1704 0.26123 0.08982 0.0
C8 C 0.16614 0.20297 0.09949 0.0
H9 H 0.17201 0.27377 0.10125 0.0
C10 C 0.1815 0.16995 0.09984 0.0
C11 C 0.17766 0.14899 0.11125 0.0
C12 C 0.14722 0.21481 0.11088 0.0
H13 H 0.13432 0.2395 0.11083 0.0
C14 C 0.14369 0.19448 0.12226 0.0
H15 H 0.1967 0.16069 0.09133 0.0
C16 C 0.15855 0.16185 0.12244 0.0
H17 H 0.15422 0.14635 0.13117 0.0
H18 H 0.12876 0.20381 0.13086 0.0
H19 H 0.0625 0.83823 0.31507 0.0
C20 C 0.09009 0.83765 0.31945 0.0
C21 C 0.11322 0.83203 0.30926 0.0
C22 C 0.1025 0.84395 0.3351 0.0
H23 H 0.16648 0.82676 0.30668 0.0
C24 C 0.14902 0.83225 0.31469 0.0
C25 C 0.16234 0.83829 0.33024 0.0
C26 C 0.13878 0.84386 0.34038 0.0
C27 C 0.07777 0.85221 0.34583 0.0
H28 H 0.14874 0.84844 0.35239 0.0
C29 C 0.04447 0.83619 0.3434 0.0
C30 C 0.02131 0.8447 0.35354 0.0
C31 C 0.08714 0.87713 0.35847 0.0
H32 H 0.11191 0.89075 0.3605 0.0
C33 C 0.06436 0.88551 0.36851 0.0
H34 H 0.03678 0.81663 0.33386 0.0
C35 C 0.03176 0.86947 0.36611 0.0
H36 H 0.01443 0.87688 0.37399 0.0
H37 H 0.0719 0.90482 0.37815 0.0
H38 H 0.63869 0.69829 0.56619 0.0
C39 C 0.64225 0.72619 0.56795 0.0
C40 C 0.63967 0.74452 0.5553 0.0
C41 C 0.64752 0.74379 0.58269 0.0
H42 H 0.64068 0.79505 0.54764 0.0
C43 C 0.64274 0.78083 0.55739 0.0
C44 C 0.64803 0.799 0.57193 0.0
C45 C 0.6506 0.78034 0.58451 0.0
C46 C 0.64786 0.72429 0.59608 0.0
H47 H 0.65538 0.79449 0.59572 0.0
C48 C 0.66122 0.69039 0.59643 0.0
C49 C 0.65922 0.6716 0.60873 0.0
C50 C 0.63324 0.73912 0.60844 0.0
H51 H 0.62183 0.76453 0.6085 0.0
C52 C 0.63216 0.72098 0.62078 0.0
H53 H 0.67256 0.67832 0.58708 0.0
C54 C 0.64491 0.6875 0.62093 0.0
H55 H 0.64347 0.67393 0.63063 0.0
H56 H 0.62088 0.73278 0.63019 0.0
H57 H 0.57026 0.30873 0.81129 0.0
C58 C 0.59691 0.30703 0.81696 0.0
C59 C 0.62193 0.29279 0.80878 0.0
C60 C 0.60627 0.31968 0.83234 0.0
H61 H 0.67612 0.28144 0.80966 0.0
C62 C 0.65656 0.29122 0.81611 0.0
C63 C 0.66654 0.30381 0.83144 0.0
C64 C 0.64117 0.31792 0.83949 0.0
C65 C 0.57988 0.33566 0.84084 0.0
H66 H 0.64853 0.32719 0.85138 0.0
C67 C 0.54658 0.3204 0.83928 0.0
C68 C 0.522 0.33535 0.84762 0.0
C69 C 0.58799 0.36643 0.85064 0.0
H70 H 0.61312 0.37909 0.85189 0.0
C71 C 0.56358 0.38152 0.85879 0.0
H72 H 0.54018 0.29637 0.83197 0.0
C73 C 0.53086 0.3661 0.85735 0.0
H74 H 0.51234 0.3784 0.86377 0.0
H75 H 0.57006 0.40529 0.86625 0.0
H76 H 0.04808 0.7605 0.93737 0.0
C77 C 0.04407 0.73632 0.93 0.0
C78 C 0.05164 0.70467 0.93602 0.0
C79 C 0.02994 0.73677 0.91456 0.0
H80 H 0.04927 0.64892 0.93086 0.0
C81 C 0.04497 0.67359 0.92636 0.0
C82 C 0.0318 0.67357 0.91096 0.0
C83 C 0.02474 0.70512 0.90504 0.0
C84 C 0.01712 0.76965 0.90868 0.0
H85 H 0.01406 0.70491 0.89313 0.0
C86 C 0.03661 0.80101 0.91242 0.0
C87 C 0.02303 0.83173 0.90696 0.0
C88 C 0.98408 0.7698 0.89952 0.0
H89 H 0.96818 0.74641 0.89668 0.0
C90 C 0.97074 0.80023 0.89418 0.0
H91 H 0.06217 0.8015 0.91939 0.0
C92 C 0.99004 0.83102 0.89786 0.0
H93 H 0.97928 0.85439 0.89355 0.0
H94 H 0.94525 0.79997 0.88718 0.0
H95 H 0.68705 0.82163 0.19136 0.0
C96 C 0.65959 0.81889 0.1867 0.0
C97 C 0.63648 0.81154 0.19615 0.0
C98 C 0.64736 0.8242 0.17158 0.0
H99 H 0.58305 0.80427 0.19794 0.0
C100 C 0.60074 0.80947 0.19046 0.0
C101 C 0.58777 0.81356 0.17525 0.0
C102 C 0.61138 0.821 0.1659 0.0
C103 C 0.67202 0.83471 0.16201 0.0
H104 H 0.60185 0.82364 0.15411 0.0
C105 C 0.70595 0.82142 0.16336 0.0
C106 C 0.73003 0.83411 0.15538 0.0
C107 C 0.66243 0.85992 0.1521 0.0
H108 H 0.63688 0.87116 0.15096 0.0
C109 C 0.68617 0.87195 0.14395 0.0
H110 H 0.71396 0.80179 0.17079 0.0
C111 C 0.7199 0.85941 0.14568 0.0
H112 H 0.73817 0.86948 0.13946 0.0
H113 H 0.67858 0.89155 0.13647 0.0
H114 H 0.54893 0.25826 0.43433 0.0
C115 C 0.54977 0.23479 0.42667 0.0
C116 C 0.56415 0.20467 0.43234 0.0
C117 C 0.53471 0.23418 0.41134 0.0
H118 H 0.57425 0.15066 0.42682 0.0
C119 C 0.56443 0.17427 0.4224 0.0
C120 C 0.54933 0.17311 0.40709 0.0
C121 C 0.53438 0.2031 0.40163 0.0
C122 C 0.5163 0.26494 0.40579 0.0
H123 H 0.52218 0.20215 0.38986 0.0
C124 C 0.53218 0.29816 0.40864 0.0
C125 C 0.51391 0.32718 0.40357 0.0
C126 C 0.48207 0.26108 0.39781 0.0
H127 H 0.46917 0.23592 0.39561 0.0
C128 C 0.46388 0.28971 0.39286 0.0
H129 H 0.55861 0.30138 0.41475 0.0
C130 C 0.47959 0.32251 0.3957 0.0
H131 H 0.46505 0.34419 0.39147 0.0
H132 H 0.4375 0.28645 0.38675 0.0
H133 H 0.19463 0.31115 0.68891 0.0
C134 C 0.16736 0.31053 0.68391 0.0
C135 C 0.14289 0.30663 0.69324 0.0
C136 C 0.15674 0.31516 0.66856 0.0
H137 H 0.08861 0.3047 0.69457 0.0
C138 C 0.10739 0.30794 0.68732 0.0
C139 C 0.09587 0.31231 0.67208 0.0
C140 C 0.12067 0.31503 0.6627 0.0
C141 C 0.18304 0.32228 0.65897 0.0
H142 H 0.11163 0.31776 0.65089 0.0
C143 C 0.21744 0.30981 0.66184 0.0
C144 C 0.24254 0.3192 0.65349 0.0
C145 C 0.17433 0.34348 0.64725 0.0
H146 H 0.14893 0.35478 0.64491 0.0
C147 C 0.19863 0.35151 0.63857 0.0
H148 H 0.22508 0.29348 0.67074 0.0
C149 C 0.23241 0.33959 0.64165 0.0
H150 H 0.25077 0.34657 0.63477 0.0
H151 H 0.19139 0.36766 0.62957 0.0
Zn152 Zn 0.17494 0.68806 0.14671 0.0
Zn153 Zn 0.10657 0.76762 0.10865 0.0
Zn154 Zn 0.14517 0.72787 0.12636 0.0
C155 C 0.11069 0.70289 0.09195 0.0
C156 C 0.17311 0.79836 0.11644 0.0
O157 O 0.11904 0.73117 0.14658 0.0
O158 O 0.14724 0.69835 0.16296 0.0
C159 C 0.15369 0.64461 0.11972 0.0
O160 O 0.13099 0.69646 0.10412 0.0
O161 O 0.09562 0.73157 0.0913 0.0
O162 O 0.14378 0.80161 0.10836 0.0
O163 O 0.17898 0.77258 0.12429 0.0
O164 O 0.16511 0.64361 0.13361 0.0
O165 O 0.14632 0.6739 0.11458 0.0
O166 O 0.19863 0.74907 0.13312 0.0
O167 O 0.22118 0.71158 0.14863 0.0
C168 C 0.22486 0.73762 0.1418 0.0
O169 O 0.09694 0.7451 0.13493 0.0
O170 O 0.0689 0.78109 0.11991 0.0
C171 C 0.12319 0.7192 0.1595 0.0
C172 C 0.07097 0.7649 0.13132 0.0
Zn173 Zn 0.56215 0.70517 0.34771 0.0
Zn174 Zn 0.6392 0.78019 0.39422 0.0
Zn175 Zn 0.60046 0.74409 0.37111 0.0
C176 C 0.58203 0.8208 0.38454 0.0
C177 C 0.6812 0.76789 0.37244 0.0
O178 O 0.59116 0.69203 0.37816 0.0
O179 O 0.55978 0.66287 0.35788 0.0
C180 C 0.52245 0.76305 0.35522 0.0
O181 O 0.57304 0.793 0.3755 0.0
O182 O 0.61043 0.82227 0.39374 0.0
O183 O 0.68302 0.77936 0.38618 0.0
O184 O 0.65209 0.75547 0.36464 0.0
O185 O 0.52135 0.7362 0.34583 0.0
O186 O 0.54984 0.77041 0.36534 0.0
O187 O 0.62826 0.74075 0.35179 0.0
O188 O 0.59474 0.70745 0.33338 0.0
C189 C 0.62184 0.7258 0.3381 0.0
O190 O 0.60669 0.71395 0.39094 0.0
O191 O 0.6355 0.74982 0.40978 0.0
C192 C 0.57506 0.66402 0.37144 0.0
C193 C 0.62017 0.72119 0.40503 0.0
Zn194 Zn 0.6041 0.27471 0.60637 0.0
Zn195 Zn 0.69878 0.2058 0.63806 0.0
Zn196 Zn 0.65234 0.24309 0.62186 0.0
C197 C 0.73306 0.266 0.63314 0.0
C198 C 0.67531 0.16366 0.61148 0.0
O199 O 0.60746 0.25328 0.63443 0.0
O200 O 0.57111 0.28473 0.62017 0.0
C201 C 0.66386 0.3165 0.60997 0.0
O202 O 0.70269 0.2727 0.62597 0.0
O203 O 0.738 0.2388 0.63957 0.0
O204 O 0.69727 0.16353 0.62349 0.0
O205 O 0.6567 0.19065 0.60911 0.0
O206 O 0.63278 0.31374 0.60316 0.0
O207 O 0.67676 0.29273 0.61807 0.0
O208 O 0.63534 0.21142 0.59968 0.0
O209 O 0.59008 0.23938 0.58901 0.0
C210 C 0.61037 0.21416 0.58852 0.0
O211 O 0.63488 0.23802 0.6435 0.0
O212 O 0.67434 0.2053 0.65555 0.0
C213 C 0.57881 0.27008 0.63201 0.0
C214 C 0.64678 0.22245 0.65514 0.0
Zn215 Zn 0.06646 0.2007 0.85035 0.0
Zn216 Zn 0.14343 0.28274 0.89093 0.0
Zn217 Zn 0.10587 0.24396 0.87152 0.0
C218 C 0.12546 0.23228 0.9064 0.0
C219 C 0.09199 0.32436 0.87892 0.0
O220 O 0.12972 0.23883 0.85096 0.0
O221 O 0.09214 0.20631 0.83381 0.0
C222 C 0.08918 0.16342 0.87487 0.0
O223 O 0.11639 0.21858 0.8926 0.0
O224 O 0.1348 0.26371 0.90928 0.0
O225 O 0.1231 0.32726 0.88562 0.0
O226 O 0.07829 0.29403 0.87433 0.0
O227 O 0.07497 0.15876 0.86112 0.0
O228 O 0.10034 0.19388 0.881 0.0
O229 O 0.05441 0.26833 0.86711 0.0
O230 O 0.02309 0.22801 0.85115 0.0
C231 C 0.02514 0.25706 0.85916 0.0
O232 O 0.15611 0.25172 0.86315 0.0
O233 O 0.18839 0.2717 0.88488 0.0
C234 C 0.11962 0.22449 0.8373 0.0
C235 C 0.18623 0.26043 0.87111 0.0
H236 H 0.20475 0.32967 0.06541 0.0
H237 H 0.19954 0.39271 0.06837 0.0
H238 H 0.12918 0.38501 0.09961 0.0
H239 H 0.13332 0.32188 0.09632 0.0
H240 H 0.10522 0.42943 0.07972 0.0
H241 H 0.21475 0.41109 0.11161 0.0
H242 H 0.27421 0.38901 0.11732 0.0
H243 H 0.30548 0.44739 0.08427 0.0
H244 H 0.24604 0.46948 0.07823 0.0
H245 H 0.11769 0.58992 0.12493 0.0
H246 H 0.11771 0.53046 0.11291 0.0
H247 H 0.17868 0.56301 0.08147 0.0
H248 H 0.17816 0.62332 0.0935 0.0
H249 H 0.20771 0.50794 0.09686 0.0
H250 H 0.09951 0.53308 0.06784 0.0
H251 H 0.04035 0.55614 0.06299 0.0
H252 H 0.00646 0.4858 0.09099 0.0
H253 H 0.06558 0.46268 0.09623 0.0
C254 C 0.18808 0.34134 0.07289 0.0
C255 C 0.16951 0.32054 0.08065 0.0
C256 C 0.18531 0.37748 0.07465 0.0
C257 C 0.1641 0.39377 0.08429 0.0
C258 C 0.1457 0.37312 0.0921 0.0
C259 C 0.14843 0.33698 0.09035 0.0
C260 C 0.16087 0.43226 0.08623 0.0
C261 C 0.12763 0.44656 0.08356 0.0
C262 C 0.19015 0.45484 0.09071 0.0
C263 C 0.22587 0.4416 0.09434 0.0
C264 C 0.23423 0.41898 0.10547 0.0
C265 C 0.26794 0.40651 0.10879 0.0
C266 C 0.29358 0.4167 0.10113 0.0
C267 C 0.28558 0.43947 0.09017 0.0
C268 C 0.2519 0.45198 0.0868 0.0
C269 C 0.13019 0.58459 0.11515 0.0
C270 C 0.14768 0.61115 0.11005 0.0
C271 C 0.13023 0.55057 0.10829 0.0
C272 C 0.14815 0.54217 0.09627 0.0
C273 C 0.16459 0.56893 0.09071 0.0
C274 C 0.16402 0.60334 0.09747 0.0
C275 C 0.15201 0.50501 0.0907 0.0
C276 C 0.18535 0.49088 0.09272 0.0
C277 C 0.12282 0.48259 0.08566 0.0
C278 C 0.0871 0.49626 0.0825 0.0
C279 C 0.07952 0.52268 0.07306 0.0
C280 C 0.04597 0.53575 0.07023 0.0
C281 C 0.01967 0.52247 0.07669 0.0
C282 C 0.02686 0.49605 0.08599 0.0
C283 C 0.06039 0.48292 0.08888 0.0
H284 H 0.99371 0.53261 0.07448 0.0
H285 H 0.31966 0.40703 0.10372 0.0
H286 H 0.99033 0.8178 0.37448 0.0
H287 H 0.93072 0.79657 0.3717 0.0
H288 H 0.91248 0.81326 0.32466 0.0
H289 H 0.97249 0.83517 0.32748 0.0
H290 H 0.86003 0.839 0.33855 0.0
H291 H 0.91564 0.73153 0.33368 0.0
H292 H 0.95973 0.68728 0.33948 0.0
H293 H 0.93064 0.68337 0.38286 0.0
H294 H 0.88672 0.72799 0.37743 0.0
H295 H 0.68991 0.77911 0.3438 0.0
H296 H 0.74448 0.78102 0.33409 0.0
H297 H 0.8009 0.76424 0.3781 0.0
H298 H 0.7464 0.75911 0.38716 0.0
H299 H 0.83103 0.73039 0.35795 0.0
H300 H 0.78557 0.84973 0.36367 0.0
H301 H 0.74033 0.89247 0.35689 0.0
H302 H 0.74911 0.87065 0.3101 0.0
H303 H 0.79429 0.82769 0.31662 0.0
C304 C 0.97374 0.81675 0.36351 0.0
C305 C 0.98612 0.82827 0.35121 0.0
C306 C 0.93968 0.80436 0.36189 0.0
C307 C 0.91706 0.80301 0.34793 0.0
C308 C 0.92945 0.81395 0.33553 0.0
C309 C 0.96379 0.8262 0.33712 0.0
C310 C 0.8802 0.79174 0.34678 0.0
C311 C 0.8536 0.81489 0.34249 0.0
C312 C 0.87158 0.76021 0.3518 0.0
C313 C 0.89795 0.73327 0.35516 0.0
C314 C 0.91879 0.72142 0.3445 0.0
C315 C 0.94374 0.69624 0.34772 0.0
C316 C 0.94801 0.68255 0.36154 0.0
C317 C 0.9273 0.69399 0.37216 0.0
C318 C 0.90232 0.71919 0.36901 0.0
C319 C 0.71379 0.77413 0.35107 0.0
C320 C 0.71362 0.76789 0.36603 0.0
C321 C 0.74519 0.77618 0.34569 0.0
C322 C 0.77714 0.7732 0.3554 0.0
C323 C 0.7768 0.76649 0.37031 0.0
C324 C 0.74554 0.76383 0.37553 0.0
C325 C 0.81124 0.7786 0.35066 0.0
C326 C 0.83735 0.7542 0.35375 0.0
C327 C 0.8193 0.8088 0.34441 0.0
C328 C 0.79308 0.83543 0.34061 0.0
C329 C 0.77784 0.85411 0.35194 0.0
C330 C 0.75221 0.87833 0.34815 0.0
C331 C 0.74182 0.88424 0.33307 0.0
C332 C 0.75718 0.86606 0.32177 0.0
C333 C 0.78284 0.84184 0.32551 0.0
H334 H 0.7219 0.90291 0.33015 0.0
H335 H 0.96734 0.66305 0.36401 0.0
H336 H 0.62401 0.61721 0.61572 0.0
H337 H 0.64271 0.55763 0.61706 0.0
H338 H 0.73888 0.583 0.60335 0.0
H339 H 0.71978 0.64305 0.60173 0.0
H340 H 0.71647 0.52276 0.58956 0.0
H341 H 0.73692 0.56971 0.64057 0.0
H342 H 0.72539 0.60284 0.66404 0.0
H343 H 0.64076 0.53344 0.66487 0.0
H344 H 0.65141 0.50019 0.64128 0.0
H345 H 0.71683 0.35022 0.63084 0.0
H346 H 0.73703 0.41027 0.63126 0.0
H347 H 0.67086 0.41655 0.58814 0.0
H348 H 0.65258 0.35695 0.58733 0.0
H349 H 0.70102 0.4638 0.63383 0.0
H350 H 0.68957 0.47803 0.56907 0.0
H351 H 0.70647 0.44538 0.54657 0.0
H352 H 0.78443 0.39298 0.57487 0.0
H353 H 0.76864 0.42592 0.59756 0.0
C354 C 0.64926 0.61022 0.61308 0.0
C355 C 0.67059 0.63497 0.60879 0.0
C356 C 0.66003 0.57611 0.61391 0.0
C357 C 0.69267 0.56587 0.61071 0.0
C358 C 0.71374 0.59029 0.60602 0.0
C359 C 0.70277 0.62455 0.60505 0.0
C360 C 0.70376 0.52935 0.61189 0.0
C361 C 0.71343 0.50987 0.59928 0.0
C362 C 0.70142 0.51273 0.62484 0.0
C363 C 0.69492 0.5325 0.6391 0.0
C364 C 0.71572 0.56162 0.64571 0.0
C365 C 0.70935 0.58041 0.65904 0.0
C366 C 0.68234 0.57026 0.66593 0.0
C367 C 0.66169 0.54126 0.65952 0.0
C368 C 0.66792 0.52238 0.64618 0.0
C369 C 0.70792 0.36403 0.62119 0.0
C370 C 0.68303 0.34886 0.60909 0.0
C371 C 0.71914 0.39851 0.62149 0.0
C372 C 0.70567 0.41824 0.60969 0.0
C373 C 0.6825 0.40209 0.59723 0.0
C374 C 0.67169 0.36786 0.59686 0.0
C375 C 0.71141 0.45659 0.61107 0.0
C376 C 0.70494 0.4766 0.6242 0.0
C377 C 0.71761 0.47375 0.59873 0.0
C378 C 0.72787 0.45447 0.58507 0.0
C379 C 0.71061 0.45986 0.57052 0.0
C380 C 0.71996 0.44124 0.55772 0.0
C381 C 0.74655 0.41714 0.55929 0.0
C382 C 0.76391 0.41169 0.57367 0.0
C383 C 0.75477 0.43032 0.58651 0.0
H384 H 0.75368 0.40267 0.54937 0.0
H385 H 0.67745 0.58486 0.67626 0.0
H386 H 0.71289 0.25164 0.82849 0.0
H387 H 0.77511 0.25295 0.83836 0.0
H388 H 0.76682 0.35577 0.86099 0.0
H389 H 0.70456 0.35508 0.8507 0.0
H390 H 0.81933 0.35387 0.84648 0.0
H391 H 0.78295 0.2859 0.88123 0.0
H392 H 0.75171 0.23911 0.88983 0.0
H393 H 0.80813 0.16293 0.86605 0.0
H394 H 0.83937 0.20925 0.85711 0.0
H395 H 0.99929 0.28202 0.88424 0.0
H396 H 0.9398 0.30202 0.88498 0.0
H397 H 0.91885 0.2946 0.8363 0.0
H398 H 0.9777 0.27363 0.83555 0.0
H399 H 0.88229 0.25792 0.87051 0.0
H400 H 0.86115 0.36042 0.82749 0.0
H401 H 0.88933 0.41314 0.82206 0.0
H402 H 0.94685 0.42692 0.8674 0.0
H403 H 0.91923 0.37419 0.87306 0.0
C404 C 0.72426 0.27452 0.8356 0.0
C405 C 0.70374 0.30332 0.83874 0.0
C406 C 0.75982 0.27509 0.84138 0.0
C407 C 0.77569 0.30434 0.85055 0.0
C408 C 0.75516 0.33287 0.85398 0.0
C409 C 0.71952 0.33232 0.84819 0.0
C410 C 0.81401 0.30577 0.85564 0.0
C411 C 0.83306 0.33298 0.85182 0.0
C412 C 0.83201 0.27913 0.86306 0.0
C413 C 0.81338 0.2511 0.86843 0.0
C414 C 0.78854 0.25918 0.87774 0.0
C415 C 0.77085 0.23273 0.88269 0.0
C416 C 0.77789 0.19807 0.87847 0.0
C417 C 0.8027 0.18979 0.86931 0.0
C418 C 0.82044 0.21614 0.86432 0.0
C419 C 0.98224 0.28574 0.87376 0.0
C420 C 0.99294 0.27653 0.85984 0.0
C421 C 0.9483 0.29699 0.87419 0.0
C422 C 0.92498 0.29991 0.8607 0.0
C423 C 0.93652 0.29291 0.84684 0.0
C424 C 0.97008 0.2809 0.84641 0.0
C425 C 0.88742 0.30521 0.86074 0.0
C426 C 0.86849 0.27908 0.8654 0.0
C427 C 0.86954 0.33316 0.85438 0.0
C428 C 0.88824 0.36324 0.85066 0.0
C429 C 0.87998 0.37458 0.83626 0.0
C430 C 0.89584 0.40446 0.83315 0.0
C431 C 0.91976 0.42341 0.84439 0.0
C432 C 0.92834 0.41219 0.85869 0.0
C433 C 0.91279 0.38215 0.86183 0.0
H434 H 0.93164 0.4468 0.84201 0.0
H435 H 0.76417 0.17764 0.88231 0.0
H436 H 0.98517 0.6245 0.91372 0.0
H437 H 0.98231 0.56395 0.90257 0.0
H438 H 0.06069 0.58542 0.87661 0.0
H439 H 0.06289 0.64647 0.88756 0.0
H440 H 0.01623 0.53374 0.8614 0.0
H441 H 0.08541 0.56006 0.90931 0.0
H442 H 0.10082 0.58513 0.93591 0.0
H443 H 0.02517 0.5188 0.94801 0.0
H444 H 0.00839 0.49417 0.92133 0.0
H445 H 0.11445 0.3777 0.86654 0.0
H446 H 0.09062 0.43589 0.86642 0.0
H447 H 0.00455 0.40255 0.88555 0.0
H448 H 0.0285 0.34384 0.88559 0.0
H449 H 0.04616 0.45898 0.9026 0.0
H450 H 0.99451 0.42257 0.85131 0.0
H451 H 0.99187 0.40031 0.82462 0.0
H452 H 0.05472 0.48625 0.81866 0.0
H453 H 0.058 0.50899 0.84541 0.0
C454 C 1.0009 0.61647 0.90525 0.0
C455 C 0.02438 0.63988 0.90152 0.0
C456 C 0.99932 0.58192 0.89891 0.0
C457 C 0.02175 0.57 0.88897 0.0
C458 C 0.04314 0.59404 0.88424 0.0
C459 C 0.04445 0.62884 0.8905 0.0
C460 C 0.02651 0.53214 0.88545 0.0
C461 C 0.02291 0.51728 0.87035 0.0
C462 C 0.03555 0.51084 0.89719 0.0
C463 C 0.04523 0.52565 0.91327 0.0
C464 C 0.07167 0.55116 0.91759 0.0
C465 C 0.08067 0.5653 0.93269 0.0
C466 C 0.06388 0.55369 0.94363 0.0
C467 C 0.03799 0.52794 0.9395 0.0
C468 C 0.02865 0.51393 0.92438 0.0
C469 C 0.08988 0.38256 0.87029 0.0
C470 C 0.0731 0.35639 0.87599 0.0
C471 C 0.07627 0.41576 0.87018 0.0
C472 C 0.0458 0.42352 0.87593 0.0
C473 C 0.02801 0.39696 0.88097 0.0
C474 C 0.04145 0.36343 0.88087 0.0
C475 C 0.03552 0.46019 0.87851 0.0
C476 C 0.03861 0.47507 0.89356 0.0
C477 C 0.02807 0.48159 0.86668 0.0
C478 C 0.0263 0.46767 0.8505 0.0
C479 C 0.00782 0.4368 0.84439 0.0
C480 C 0.00623 0.42403 0.8292 0.0
C481 C 0.02308 0.44187 0.81993 0.0
C482 C 0.04158 0.4725 0.82584 0.0
C483 C 0.04321 0.48538 0.84103 0.0
H484 H 0.02184 0.43194 0.80817 0.0
H485 H 0.07116 0.56454 0.95531 0.0
H486 H 0.78748 0.87117 0.16924 0.0
H487 H 0.84817 0.85462 0.17001 0.0
H488 H 0.81466 0.75452 0.14612 0.0
H489 H 0.75379 0.7707 0.14598 0.0
H490 H 0.87342 0.7483 0.16572 0.0
H491 H 0.83403 0.82157 0.12723 0.0
H492 H 0.80763 0.87356 0.11699 0.0
H493 H 0.88729 0.93771 0.14582 0.0
H494 H 0.91387 0.88611 0.15641 0.0
H495 H 0.02243 0.71507 0.13004 0.0
H496 H 0.96625 0.72232 0.13825 0.0
H497 H 0.99763 0.82572 0.15898 0.0
H498 H 0.0528 0.819 0.14986 0.0
H499 H 0.93996 0.82901 0.14239 0.0
H500 H 0.98553 0.74796 0.1768 0.0
H501 H 0.00876 0.69348 0.18546 0.0
H502 H 0.91699 0.63869 0.16143 0.0
H503 H 0.89302 0.69291 0.15262 0.0
C504 C 0.79323 0.84541 0.16444 0.0
C505 C 0.76626 0.82222 0.15746 0.0
C506 C 0.82781 0.836 0.16482 0.0
C507 C 0.83602 0.80359 0.15782 0.0
C508 C 0.80901 0.77967 0.15156 0.0
C509 C 0.77431 0.78891 0.15143 0.0
C510 C 0.87237 0.79609 0.15581 0.0
C511 C 0.88807 0.76568 0.16052 0.0
C512 C 0.89148 0.819 0.14914 0.0
C513 C 0.87571 0.85004 0.14271 0.0
C514 C 0.84577 0.8468 0.13145 0.0
C515 C 0.8308 0.87618 0.12558 0.0
C516 C 0.84573 0.90893 0.13078 0.0
C517 C 0.87572 0.91234 0.14183 0.0
C518 C 0.89076 0.88303 0.14776 0.0
C519 C 0.01751 0.7389 0.13675 0.0
C520 C 0.04171 0.76643 0.13948 0.0
C521 C 0.98546 0.74303 0.14149 0.0
C522 C 0.97759 0.77446 0.14945 0.0
C523 C 1.00296 0.80117 0.15294 0.0
C524 C 0.03454 0.79736 0.14782 0.0
C525 C 0.94182 0.78123 0.15251 0.0
C526 C 0.92589 0.81157 0.14782 0.0
C527 C 0.9225 0.75768 0.15889 0.0
C528 C 0.9373 0.72486 0.1641 0.0
C529 C 0.97014 0.72447 0.17339 0.0
C530 C 0.98353 0.69353 0.1783 0.0
C531 C 0.96439 0.66265 0.174 0.0
C532 C 0.93179 0.66265 0.16478 0.0
C533 C 0.91824 0.69354 0.15986 0.0
H534 H 0.97483 0.63871 0.17781 0.0
H535 H 0.8341 0.93165 0.12621 0.0
H536 H 0.57814 0.34498 0.39845 0.0
H537 H 0.6011 0.40357 0.39824 0.0
H538 H 0.50931 0.44692 0.41287 0.0
H539 H 0.48663 0.38865 0.41332 0.0
H540 H 0.57151 0.44796 0.37981 0.0
H541 H 0.52376 0.52458 0.43079 0.0
H542 H 0.51997 0.51832 0.45727 0.0
H543 H 0.60423 0.44691 0.45948 0.0
H544 H 0.60904 0.45347 0.43312 0.0
H545 H 0.52453 0.6144 0.36591 0.0
H546 H 0.52523 0.55884 0.37605 0.0
H547 H 0.62414 0.58592 0.4044 0.0
H548 H 0.62406 0.64157 0.39383 0.0
H549 H 0.57447 0.54962 0.41863 0.0
H550 H 0.62946 0.53684 0.37523 0.0
H551 H 0.63535 0.54439 0.3491 0.0
H552 H 0.54076 0.48613 0.3322 0.0
H553 H 0.53401 0.4787 0.35826 0.0
C554 C 0.56336 0.36704 0.40203 0.0
C555 C 0.53047 0.36223 0.40579 0.0
C556 C 0.57641 0.4005 0.40184 0.0
C557 C 0.55703 0.42972 0.4056 0.0
C558 C 0.52503 0.4249 0.41013 0.0
C559 C 0.51192 0.39154 0.41024 0.0
C560 C 0.56783 0.46491 0.403 0.0
C561 C 0.57255 0.47007 0.38838 0.0
C562 C 0.56961 0.49384 0.41418 0.0
C563 C 0.56686 0.48971 0.43001 0.0
C564 C 0.54178 0.50794 0.437 0.0
C565 C 0.53937 0.50423 0.45197 0.0
C566 C 0.56187 0.48224 0.46006 0.0
C567 C 0.58681 0.46392 0.4532 0.0
C568 C 0.58938 0.46763 0.43824 0.0
C569 C 0.54631 0.60878 0.37443 0.0
C570 C 0.57416 0.63253 0.37919 0.0
C571 C 0.54661 0.57703 0.38023 0.0
C572 C 0.57483 0.56816 0.39089 0.0
C573 C 0.60203 0.59237 0.39624 0.0
C574 C 0.60182 0.62427 0.39032 0.0
C575 C 0.57651 0.53251 0.39534 0.0
C576 C 0.57398 0.52735 0.4102 0.0
C577 C 0.57696 0.50343 0.38443 0.0
C578 C 0.58115 0.50738 0.36871 0.0
C579 C 0.60981 0.52582 0.36595 0.0
C580 C 0.61331 0.53006 0.35115 0.0
C581 C 0.58842 0.51578 0.339 0.0
C582 C 0.56002 0.49717 0.34163 0.0
C583 C 0.55637 0.49289 0.35641 0.0
H584 H 0.59117 0.51911 0.32755 0.0
H585 H 0.55994 0.47936 0.47165 0.0
H586 H 0.0475 0.34856 0.6856 0.0
H587 H 0.98479 0.34939 0.67706 0.0
H588 H 0.99514 0.28239 0.63673 0.0
H589 H 0.05821 0.28142 0.64525 0.0
H590 H 0.9474 0.33272 0.63054 0.0
H591 H 0.97 0.2494 0.66616 0.0
H592 H 0.99475 0.22852 0.69045 0.0
H593 H 0.93727 0.30446 0.71382 0.0
H594 H 0.91256 0.32615 0.68967 0.0
H595 H 0.7753 0.26002 0.6125 0.0
H596 H 0.83638 0.27805 0.6172 0.0
H597 H 0.82299 0.33597 0.65938 0.0
H598 H 0.76209 0.31661 0.65484 0.0
H599 H 0.87269 0.29348 0.66453 0.0
H600 H 0.84693 0.37454 0.62806 0.0
H601 H 0.8235 0.39498 0.60355 0.0
H602 H 0.88618 0.32218 0.58137 0.0
H603 H 0.90985 0.30108 0.60574 0.0
C604 C 0.03649 0.3339 0.67492 0.0
C605 C 0.0579 0.31453 0.66621 0.0
C606 C 1.00058 0.3345 0.67003 0.0
C607 C 0.98509 0.31551 0.65636 0.0
C608 C 0.00647 0.29721 0.64733 0.0
C609 C 0.04253 0.29669 0.65221 0.0
C610 C 0.94654 0.31368 0.65189 0.0
C611 C 0.93099 0.32385 0.63789 0.0
C612 C 0.92506 0.30277 0.6616 0.0
C613 C 0.93971 0.28963 0.67612 0.0
C614 C 0.96284 0.26182 0.67649 0.0
C615 C 0.97684 0.24982 0.69023 0.0
C616 C 0.96767 0.26522 0.70367 0.0
C617 C 0.9444 0.2926 0.7034 0.0
C618 C 0.93038 0.30475 0.68969 0.0
C619 C 0.78505 0.27801 0.6224 0.0
C620 C 0.76392 0.28757 0.63316 0.0
C621 C 0.8201 0.28824 0.62513 0.0
C622 C 0.83459 0.3085 0.63867 0.0
C623 C 0.81259 0.32032 0.64886 0.0
C624 C 0.77765 0.30969 0.64619 0.0
C625 C 0.87311 0.31295 0.64317 0.0
C626 C 0.88882 0.30288 0.65719 0.0
C627 C 0.89461 0.32379 0.63342 0.0
C628 C 0.87998 0.33607 0.61872 0.0
C629 C 0.85549 0.36267 0.61794 0.0
C630 C 0.84221 0.37442 0.60407 0.0
C631 C 0.85327 0.35983 0.5909 0.0
C632 C 0.87763 0.33345 0.59158 0.0
C633 C 0.89104 0.32163 0.60542 0.0
H634 H 0.84311 0.36904 0.58018 0.0
H635 H 0.97853 0.25588 0.7143 0.0
H636 H 0.2998 0.3601 0.65523 0.0
H637 H 0.36039 0.34343 0.65866 0.0
H638 H 0.33086 0.2396 0.66448 0.0
H639 H 0.26948 0.256 0.66045 0.0
H640 H 0.40584 0.32042 0.68013 0.0
H641 H 0.38828 0.18333 0.64947 0.0
H642 H 0.34531 0.14715 0.63095 0.0
H643 H 0.30623 0.23766 0.61091 0.0
H644 H 0.34921 0.27426 0.62919 0.0
H645 H 0.55664 0.21732 0.646 0.0
H646 H 0.50443 0.21745 0.65777 0.0
H647 H 0.48995 0.32542 0.65171 0.0
H648 H 0.54164 0.32532 0.64017 0.0
H649 H 0.43998 0.22931 0.64273 0.0
H650 H 0.44709 0.36683 0.6769 0.0
H651 H 0.49107 0.40547 0.69351 0.0
H652 H 0.55355 0.318 0.70462 0.0
H653 H 0.50963 0.27856 0.68836 0.0
C654 C 0.30607 0.33365 0.65719 0.0
C655 C 0.27965 0.30922 0.65726 0.0
C656 C 0.34088 0.32423 0.65934 0.0
C657 C 0.35036 0.29013 0.66167 0.0
C658 C 0.32423 0.26597 0.66251 0.0
C659 C 0.28916 0.27542 0.6603 0.0
C660 C 0.38737 0.28012 0.66215 0.0
C661 C 0.41337 0.30042 0.672 0.0
C662 C 0.39737 0.25318 0.65193 0.0
C663 C 0.37158 0.23151 0.64083 0.0
C664 C 0.37051 0.19546 0.6411 0.0
C665 C 0.34618 0.17489 0.63064 0.0
C666 C 0.32295 0.19012 0.6198 0.0
C667 C 0.32412 0.22592 0.61935 0.0
C668 C 0.34844 0.24658 0.62976 0.0
C669 C 0.5429 0.24128 0.64771 0.0
C670 C 0.55317 0.27136 0.64225 0.0
C671 C 0.51298 0.2413 0.65432 0.0
C672 C 0.49328 0.2715 0.65572 0.0
C673 C 0.50489 0.30195 0.65104 0.0
C674 C 0.53443 0.30185 0.64438 0.0
C675 C 0.4584 0.27086 0.66017 0.0
C676 C 0.43273 0.24854 0.65126 0.0
C677 C 0.44873 0.29628 0.67113 0.0
C678 C 0.47497 0.31967 0.68133 0.0
C679 C 0.47002 0.35571 0.683 0.0
C680 C 0.495 0.37777 0.69233 0.0
C681 C 0.52512 0.36416 0.70007 0.0
C682 C 0.53028 0.32845 0.69853 0.0
C683 C 0.5053 0.30621 0.68928 0.0
H684 H 0.54446 0.38129 0.70728 0.0
H685 H 0.30412 0.17416 0.61173 0.0
H686 H 0.5423 0.76707 0.18219 0.0
H687 H 0.48024 0.76083 0.17317 0.0
H688 H 0.48437 0.84216 0.14479 0.0
H689 H 0.54671 0.85023 0.1546 0.0
H690 H 0.42759 0.84897 0.15671 0.0
H691 H 0.47584 0.75618 0.12951 0.0
H692 H 0.51328 0.70635 0.12493 0.0
H693 H 0.46293 0.64872 0.153 0.0
H694 H 0.42552 0.69838 0.15794 0.0
H695 H 0.25067 0.77936 0.12339 0.0
H696 H 0.3111 0.79934 0.12559 0.0
H697 H 0.33955 0.74854 0.16581 0.0
H698 H 0.27959 0.72977 0.16405 0.0
H699 H 0.37875 0.72998 0.1413 0.0
H700 H 0.33554 0.83084 0.17011 0.0
H701 H 0.29621 0.88033 0.17175 0.0
H702 H 0.33561 0.92235 0.13608 0.0
H703 H 0.37484 0.87275 0.13406 0.0
C704 C 0.53014 0.78409 0.1742 0.0
C705 C 0.54975 0.80927 0.1692 0.0
C706 C 0.49454 0.78012 0.16886 0.0
C707 C 0.47756 0.80053 0.15804 0.0
C708 C 0.49687 0.82592 0.15305 0.0
C709 C 0.53262 0.83023 0.15856 0.0
C710 C 0.43969 0.79495 0.15216 0.0
C711 C 0.417 0.82302 0.15305 0.0
C712 C 0.4256 0.76123 0.14711 0.0
C713 C 0.44796 0.73113 0.14415 0.0
C714 C 0.47289 0.73297 0.13479 0.0
C715 C 0.49409 0.70473 0.13212 0.0
C716 C 0.49051 0.6744 0.13869 0.0
C717 C 0.46567 0.67223 0.14792 0.0
C718 C 0.44441 0.7004 0.15064 0.0
C719 C 0.26955 0.77346 0.13295 0.0
C720 C 0.26014 0.75322 0.1436 0.0
C721 C 0.30413 0.78456 0.1341 0.0
C722 C 0.32975 0.77521 0.14582 0.0
C723 C 0.32019 0.75586 0.15664 0.0
C724 C 0.28583 0.74517 0.1556 0.0
C725 C 0.36701 0.78357 0.14666 0.0
C726 C 0.38953 0.75596 0.1447 0.0
C727 C 0.38073 0.81769 0.15031 0.0
C728 C 0.35786 0.84792 0.15183 0.0
C729 C 0.33565 0.8505 0.16254 0.0
C730 C 0.3134 0.87858 0.16355 0.0
C731 C 0.31335 0.90442 0.154 0.0
C732 C 0.33565 0.90229 0.14345 0.0
C733 C 0.35792 0.87421 0.14238 0.0
H734 H 0.29611 0.92612 0.1548 0.0
H735 H 0.50696 0.65257 0.13661 0.0
H736 H 0.48924 0.3238 0.87079 0.0
H737 H 0.43107 0.29979 0.8693 0.0
H738 H 0.41793 0.28528 0.82063 0.0
H739 H 0.47647 0.3098 0.82207 0.0
H740 H 0.36136 0.3161 0.83071 0.0
H741 H 0.42642 0.21533 0.83851 0.0
H742 H 0.47394 0.17963 0.84988 0.0
H743 H 0.44071 0.19861 0.8928 0.0
H744 H 0.39329 0.23488 0.88177 0.0
H745 H 0.19542 0.25227 0.84124 0.0
H746 H 0.2501 0.25255 0.83164 0.0
H747 H 0.30607 0.26707 0.87752 0.0
H748 H 0.25201 0.26493 0.88693 0.0
H749 H 0.33909 0.22343 0.86141 0.0
H750 H 0.28042 0.33404 0.85324 0.0
H751 H 0.23382 0.36961 0.84096 0.0
H752 H 0.25613 0.33069 0.79737 0.0
H753 H 0.30207 0.29415 0.80935 0.0
C754 C 0.47402 0.31546 0.85976 0.0
C755 C 0.48735 0.3188 0.84655 0.0
C756 C 0.44088 0.30146 0.85892 0.0
C757 C 0.42026 0.29041 0.84486 0.0
C758 C 0.43348 0.29349 0.8316 0.0
C759 C 0.46693 0.30729 0.83244 0.0
C760 C 0.38443 0.27718 0.84429 0.0
C761 C 0.35636 0.2953 0.83714 0.0
C762 C 0.37792 0.24991 0.85257 0.0
C763 C 0.40633 0.22797 0.8593 0.0
C764 C 0.42936 0.21209 0.8504 0.0
C765 C 0.45627 0.19172 0.85678 0.0
C766 C 0.46036 0.18688 0.87206 0.0
C767 C 0.4375 0.20237 0.88097 0.0
C768 C 0.41055 0.22279 0.87465 0.0
C769 C 0.21926 0.25463 0.84919 0.0
C770 C 0.21894 0.2584 0.86479 0.0
C771 C 0.25066 0.25525 0.84373 0.0
C772 C 0.28237 0.26023 0.85385 0.0
C773 C 0.28209 0.26312 0.86943 0.0
C774 C 0.25092 0.26212 0.87481 0.0
C775 C 0.31613 0.26388 0.84869 0.0
C776 C 0.34392 0.24371 0.85469 0.0
C777 C 0.32226 0.28915 0.83928 0.0
C778 C 0.2943 0.31094 0.83218 0.0
C779 C 0.27507 0.33275 0.84103 0.0
C780 C 0.24874 0.35308 0.83411 0.0
C781 C 0.2418 0.35222 0.81838 0.0
C782 C 0.26126 0.33113 0.80954 0.0
C783 C 0.28737 0.31054 0.81638 0.0
H784 H 0.22148 0.36802 0.81305 0.0
H785 H 0.48121 0.1711 0.87698 0.0
H786 H 0.21351 0.86363 0.31701 0.0
H787 H 0.27614 0.8574 0.32389 0.0
H788 H 0.26196 0.80901 0.36295 0.0
H789 H 0.19881 0.81338 0.35575 0.0
H790 H 0.32277 0.86672 0.36499 0.0
H791 H 0.2737 0.75475 0.34022 0.0
H792 H 0.23613 0.71817 0.31967 0.0
H793 H 0.28981 0.75585 0.28708 0.0
H794 H 0.32734 0.7931 0.30743 0.0
H795 H 0.49074 0.7876 0.37885 0.0
H796 H 0.43101 0.80826 0.37699 0.0
H797 H 0.42336 0.80658 0.32871 0.0
H798 H 0.48198 0.78386 0.33052 0.0
H799 H 0.37184 0.77443 0.33273 0.0
H800 H 0.42197 0.8842 0.35543 0.0
H801 H 0.45815 0.92596 0.37418 0.0
H802 H 0.40398 0.89901 0.40871 0.0
H803 H 0.3675 0.85687 0.39013 0.0
C804 C 0.22349 0.85147 0.32704 0.0
C805 C 0.20079 0.83841 0.33564 0.0
C806 C 0.25941 0.84836 0.33105 0.0
C807 C 0.27363 0.83272 0.3439 0.0
C808 C 0.25143 0.82137 0.35303 0.0
C809 C 0.21531 0.82397 0.34889 0.0
C810 C 0.31132 0.82541 0.34683 0.0
C811 C 0.33366 0.84624 0.35814 0.0
C812 C 0.32544 0.79949 0.33753 0.0
C813 C 0.30307 0.77693 0.32532 0.0
C814 C 0.27726 0.75548 0.32865 0.0
C815 C 0.25602 0.73458 0.31705 0.0
C816 C 0.26056 0.73472 0.30208 0.0
C817 C 0.28633 0.75578 0.29868 0.0
C818 C 0.30759 0.77677 0.31024 0.0
C819 C 0.47651 0.79259 0.36793 0.0
C820 C 0.49079 0.78402 0.35482 0.0
C821 C 0.44231 0.80446 0.36685 0.0
C822 C 0.42225 0.80891 0.35267 0.0
C823 C 0.43785 0.80295 0.33976 0.0
C824 C 0.47151 0.79024 0.3408 0.0
C825 C 0.38421 0.81604 0.3509 0.0
C826 C 0.36147 0.795 0.33973 0.0
C827 C 0.36998 0.84225 0.36017 0.0
C828 C 0.39225 0.86712 0.37142 0.0
C829 C 0.41799 0.88693 0.36705 0.0
C830 C 0.43853 0.91073 0.37766 0.0
C831 C 0.4335 0.91504 0.39267 0.0
C832 C 0.40788 0.89559 0.39709 0.0
C833 C 0.38723 0.8718 0.38652 0.0
H834 H 0.44929 0.93354 0.40088 0.0
H835 H 0.24422 0.71842 0.29312 0.0
H836 H 0.61147 0.84405 0.58842 0.0
H837 H 0.61389 0.90772 0.59113 0.0
H838 H 0.69191 0.9045 0.56282 0.0
H839 H 0.68896 0.84085 0.55974 0.0
H840 H 0.69674 0.94821 0.5984 0.0
H841 H 0.64173 0.9307 0.5446 0.0
H842 H 0.59606 0.90532 0.52391 0.0
H843 H 0.51763 0.9518 0.5471 0.0
H844 H 0.56291 0.97696 0.56805 0.0
H845 H 0.72447 0.12433 0.60051 0.0
H846 H 0.71805 0.06394 0.58926 0.0
H847 H 0.60785 0.06791 0.58935 0.0
H848 H 0.6141 0.12924 0.59976 0.0
H849 H 0.61837 0.02278 0.56694 0.0
H850 H 0.66749 0.04134 0.61964 0.0
H851 H 0.70876 0.06574 0.6422 0.0
H852 H 0.79305 0.01606 0.62404 0.0
H853 H 0.75231 0.99175 0.60126 0.0
C854 C 0.62909 0.85696 0.58277 0.0
C855 C 0.65006 0.83753 0.57388 0.0
C856 C 0.63026 0.89325 0.58423 0.0
C857 C 0.65271 0.91073 0.57699 0.0
C858 C 0.67403 0.89145 0.5683 0.0
C859 C 0.67239 0.85517 0.56659 0.0
C860 C 0.65546 0.94911 0.57935 0.0
C861 C 0.68005 0.96458 0.59138 0.0
C862 C 0.63277 0.97031 0.57053 0.0
C863 C 0.60565 0.95521 0.55797 0.0
C864 C 0.61474 0.93509 0.54537 0.0
C865 C 0.58893 0.92087 0.53358 0.0
C866 C 0.55395 0.92682 0.53422 0.0
C867 C 0.54472 0.94712 0.54664 0.0
C868 C 0.57045 0.96137 0.55847 0.0
C869 C 0.69872 0.11261 0.59761 0.0
C870 C 0.66981 0.13124 0.60107 0.0
C871 C 0.69508 0.07799 0.59133 0.0
C872 C 0.66268 0.06084 0.589 0.0
C873 C 0.63322 0.08034 0.5912 0.0
C874 C 0.63675 0.11542 0.5971 0.0
C875 C 0.66032 0.02224 0.58589 0.0
C876 C 0.6355 1.0066 0.57387 0.0
C877 C 0.6824 1.00073 0.59494 0.0
C878 C 0.70691 0.01502 0.60869 0.0
C879 C 0.69486 0.03579 0.62042 0.0
C880 C 0.71815 0.04959 0.63325 0.0
C881 C 0.75352 0.04253 0.63454 0.0
C882 C 0.76565 0.02155 0.62302 0.0
C883 C 0.74248 0.00774 0.61015 0.0
H884 H 0.77151 0.05324 0.64447 0.0
H885 H 0.53401 0.9158 0.52507 0.0
H886 H 0.20625 0.11591 0.1357 0.0
H887 H 0.22104 0.05508 0.13601 0.0
H888 H 0.19812 0.03992 0.08728 0.0
H889 H 0.18104 0.10038 0.08692 0.0
H890 H 0.16754 0.99212 0.09707 0.0
H891 H 0.28336 0.03636 0.10924 0.0
H892 H 0.3331 0.07285 0.12273 0.0
H893 H 0.3258 0.03054 0.1639 0.0
H894 H 0.27564 0.99421 0.15073 0.0
H895 H 0.20036 0.81921 0.0935 0.0
H896 H 0.22088 0.87809 0.09249 0.0
H897 H 0.21982 0.90221 0.14013 0.0
H898 H 0.20021 0.84273 0.1412 0.0
H899 H 0.26852 0.94415 0.12907 0.0
H900 H 0.14591 0.90869 0.11688 0.0
H901 H 0.09921 0.86891 0.10289 0.0
H902 H 0.12315 0.89393 0.06079 0.0
H903 H 0.17026 0.93361 0.07456 0.0
C904 C 0.20433 0.09973 0.12501 0.0
C905 C 0.19191 0.11318 0.11128 0.0
C906 C 0.21341 0.0649 0.12521 0.0
C907 C 0.21104 0.04267 0.11167 0.0
C908 C 0.20022 0.05641 0.09791 0.0
C909 C 0.19074 0.0912 0.09771 0.0
C910 C 0.21643 1.00461 0.11195 0.0
C911 C 0.19009 0.98184 0.10384 0.0
C912 C 0.24544 0.99074 0.121 0.0
C913 C 0.27546 0.01279 0.12901 0.0
C914 C 0.29212 0.03507 0.1212 0.0
C915 C 0.32045 0.05569 0.12879 0.0
C916 C 0.33254 0.05409 0.14417 0.0
C917 C 0.31637 0.0318 0.15199 0.0
C918 C 0.288 0.01117 0.14447 0.0
C919 C 0.20635 0.83655 0.1039 0.0
C920 C 0.19854 0.82669 0.11739 0.0
C921 C 0.21791 0.87024 0.10332 0.0
C922 C 0.22083 0.89483 0.11614 0.0
C923 C 0.21748 0.88373 0.13008 0.0
C924 C 0.2064 0.84971 0.1307 0.0
C925 C 0.2197 0.93242 0.11431 0.0
C926 C 0.24645 0.95485 0.12218 0.0
C927 C 0.19124 0.94617 0.10499 0.0
C928 C 0.16166 0.92393 0.09673 0.0
C929 C 0.14114 0.90573 0.10464 0.0
C930 C 0.11466 0.88317 0.09675 0.0
C931 C 0.10826 0.87885 0.08096 0.0
C932 C 0.12815 0.8973 0.07302 0.0
C933 C 0.15469 0.91988 0.08086 0.0
H934 H 0.08787 0.86123 0.07487 0.0
H935 H 0.3545 0.07005 0.15002 0.0
H936 H 0.49083 0.14262 0.38961 0.0
H937 H 0.48352 0.08173 0.37875 0.0
H938 H 0.59314 0.0663 0.39275 0.0
H939 H 0.60054 0.12701 0.40348 0.0
H940 H 0.56742 0.02617 0.36601 0.0
H941 H 0.53848 0.05609 0.41609 0.0
H942 H 0.50533 0.08666 0.43424 0.0
H943 H 0.41049 0.04071 0.40847 0.0
H944 H 0.44309 0.01032 0.39002 0.0
H945 H 0.5763 0.87033 0.40745 0.0
H946 H 0.55598 0.92912 0.4053 0.0
H947 H 0.52195 0.90296 0.35732 0.0
H948 H 0.54282 0.84369 0.35942 0.0
H949 H 0.49889 0.96341 0.39597 0.0
H950 H 0.54823 0.97267 0.34064 0.0
H951 H 0.58746 0.9422 0.3251 0.0
H952 H 0.649 0.90886 0.3649 0.0
H953 H 0.61038 0.93947 0.38067 0.0
C954 C 0.51351 0.1265 0.38987 0.0
C955 C 0.54621 0.13933 0.3975 0.0
C956 C 0.50928 0.09173 0.38372 0.0
C957 C 0.53771 0.06942 0.38512 0.0
C958 C 0.57086 0.08304 0.39154 0.0
C959 C 0.57505 0.11765 0.39774 0.0
C960 C 0.53268 0.03129 0.38211 0.0
C961 C 0.55165 0.01239 0.37223 0.0
C962 C 0.51261 0.01327 0.39044 0.0
C963 C 0.49311 0.03146 0.40155 0.0
C964 C 0.51052 0.0528 0.41422 0.0
C965 C 0.49184 0.07004 0.42457 0.0
C966 C 0.4558 0.06576 0.42247 0.0
C967 C 0.43838 0.04412 0.41005 0.0
C968 C 0.45693 0.02692 0.39963 0.0
C969 C 0.56363 0.87681 0.3965 0.0
C970 C 0.56145 0.85261 0.38358 0.0
C971 C 0.55191 0.91041 0.39528 0.0
C972 C 0.53808 0.92062 0.38111 0.0
C973 C 0.53299 0.89568 0.36834 0.0
C974 C 0.54461 0.86178 0.36957 0.0
C975 C 0.53332 0.95812 0.37978 0.0
C976 C 0.51296 0.977 0.38904 0.0
C977 C 0.55255 0.97606 0.37109 0.0
C978 C 0.57617 0.95793 0.36177 0.0
C979 C 0.57017 0.95886 0.34605 0.0
C980 C 0.5923 0.94159 0.33722 0.0
C981 C 0.62062 0.92349 0.344 0.0
C982 C 0.62698 0.92277 0.35965 0.0
C983 C 0.60497 0.94005 0.36854 0.0
H984 H 0.6377 0.91011 0.33714 0.0
H985 H 0.44139 0.0791 0.43051 0.0
H986 H 0.0697 0.85439 0.89126 0.0
H987 H 0.09122 0.91388 0.89246 0.0
H988 H 0.04034 0.94407 0.93048 0.0
H989 H 0.01795 0.88451 0.92889 0.0
H990 H 0.02336 0.98639 0.91089 0.0
H991 H 0.13203 0.94655 0.93356 0.0
H992 H 0.18248 0.90833 0.93728 0.0
H993 H 0.20721 0.92824 0.89462 0.0
H994 H 0.15662 0.9662 0.89052 0.0
H995 H 0.07646 0.15834 0.9034 0.0
H996 H 0.07644 0.10542 0.91594 0.0
H997 H 0.10823 0.04662 0.87739 0.0
H998 H 0.10902 0.09941 0.86516 0.0
H999 H 0.14004 0.02383 0.90404 0.0
H1000 H 0.02277 0.05426 0.88036 0.0
H1001 H 0.97288 0.09346 0.87757 0.0
H1002 H 0.96641 0.0921 0.9244 0.0
H1003 H 0.01645 0.05312 0.92747 0.0
C1004 C 0.0642 0.87354 0.90018 0.0
C1005 C 0.04276 0.86493 0.91015 0.0
C1006 C 0.0765 0.90759 0.9009 0.0
C1007 C 0.06778 0.93366 0.91168 0.0
C1008 C 0.04757 0.92454 0.9221 0.0
C1009 C 0.03505 0.8905 0.92129 0.0
C1010 C 0.07632 0.97078 0.91084 0.0
C1011 C 0.04915 0.99465 0.90979 0.0
C1012 C 0.10985 0.98192 0.90932 0.0
C1013 C 0.14036 0.9591 0.9117 0.0
C1014 C 0.14807 0.94259 0.92491 0.0
C1015 C 0.17673 0.921 0.9271 0.0
C1016 C 0.19801 0.91582 0.91618 0.0
C1017 C 0.19071 0.93228 0.90307 0.0
C1018 C 0.16207 0.95389 0.90082 0.0
C1019 C 0.08474 0.13436 0.89795 0.0
C1020 C 0.09321 0.13303 0.88345 0.0
C1021 C 0.08431 0.10403 0.905 0.0
C1022 C 0.09219 0.07192 0.89757 0.0
C1023 C 0.10221 0.07102 0.88338 0.0
C1024 C 0.10246 0.10117 0.87636 0.0
C1025 C 0.08689 0.03862 0.90359 0.0
C1026 C 0.11457 0.01554 0.90556 0.0
C1027 C 0.05396 0.02826 0.90612 0.0
C1028 C 0.02357 0.05118 0.90419 0.0
C1029 C 0.0108 0.0625 0.89007 0.0
C1030 C 0.98249 0.08463 0.88844 0.0
C1031 C 0.96655 0.09536 0.90081 0.0
C1032 C 0.97882 0.08385 0.91483 0.0
C1033 C 0.00715 0.06173 0.91653 0.0
H1034 H 0.94465 0.11252 0.89953 0.0
H1035 H 0.22018 0.89909 0.9179 0.0
H1036 H 0.21899 0.22502 0.04357 0.0
H1037 H 0.21257 0.20831 0.01626 0.0
H1038 H 0.10453 0.18268 0.01436 0.0
H1039 H 0.11144 0.19815 0.04186 0.0
H1040 H 0.13224 0.14099 0.99272 0.0
H1041 H 0.12609 0.26201 0.00942 0.0
H1042 H 0.14638 0.31699 0.02484 0.0
H1043 H 0.23843 0.3152 0.00501 0.0
H1044 H 0.21901 0.25978 0.98969 0.0
H1045 H 0.07346 0.21843 0.92123 0.0
H1046 H 0.08094 0.19959 0.94662 0.0
H1047 H 0.19023 0.18603 0.9464 0.0
H1048 H 0.18259 0.20383 0.92089 0.0
H1049 H 0.16133 0.2429 0.96856 0.0
H1050 H 0.16296 0.12136 0.95034 0.0
H1051 H 0.13954 0.06707 0.93521 0.0
H1052 H 0.05043 0.07253 0.95704 0.0
H1053 H 0.07311 0.12718 0.97219 0.0
C1054 C 0.19423 0.21478 0.03734 0.0
C1055 C 0.16565 0.21294 0.04464 0.0
C1056 C 0.19052 0.20529 0.02179 0.0
C1057 C 0.15789 0.19488 0.01324 0.0
C1058 C 0.12991 0.19062 0.02073 0.0
C1059 C 0.1338 0.19957 0.03637 0.0
C1060 C 0.152 0.1936 0.99653 0.0
C1061 C 0.13842 0.16328 0.98742 0.0
C1062 C 0.15989 0.22279 0.98961 0.0
C1063 C 0.17126 0.25657 0.99852 0.0
C1064 C 0.15075 0.27324 0.00841 0.0
C1065 C 0.1621 0.30447 0.01713 0.0
C1066 C 0.19371 0.31954 0.01593 0.0
C1067 C 0.21398 0.30346 0.00595 0.0
C1068 C 0.20282 0.27213 0.99725 0.0
C1069 C 0.09866 0.20972 0.92635 0.0
C1070 C 0.12737 0.21182 0.91913 0.0
C1071 C 0.10292 0.19904 0.9408 0.0
C1072 C 0.13607 0.19118 0.94826 0.0
C1073 C 0.16439 0.19144 0.94068 0.0
C1074 C 0.16001 0.20154 0.92616 0.0
C1075 C 0.1424 0.19012 0.96476 0.0
C1076 C 0.15556 0.22042 0.97385 0.0
C1077 C 0.13352 0.16118 0.97153 0.0
C1078 C 0.11959 0.12858 0.9623 0.0
C1079 C 0.13817 0.11125 0.95179 0.0
C1080 C 0.1251 0.08032 0.94326 0.0
C1081 C 0.09354 0.06636 0.94518 0.0
C1082 C 0.0749 0.08337 0.95559 0.0
C1083 C 0.08788 0.1143 0.96417 0.0
H1084 H 0.08361 0.04228 0.93865 0.0
H1085 H 0.20247 0.34371 0.0227 0.0
H1086 H 0.06955 0.7802 0.29422 0.0
H1087 H 0.05623 0.76384 0.26674 0.0
H1088 H 0.11501 0.85259 0.25994 0.0
H1089 H 0.12906 0.8685 0.28739 0.0
H1090 H 0.04756 0.83362 0.23754 0.0
H1091 H 0.15827 0.78909 0.2609 0.0
H1092 H 0.19433 0.75825 0.2802 0.0
H1093 H 0.13118 0.6664 0.26529 0.0
H1094 H 0.09428 0.69703 0.24609 0.0
H1095 H 0.1088 0.78616 0.16828 0.0
H1096 H 0.09047 0.80799 0.192 0.0
H1097 H 0.07234 0.703 0.20045 0.0
H1098 H 0.09285 0.68132 0.1772 0.0
H1099 H 0.11352 0.73022 0.22239 0.0
H1100 H 0.99699 0.77446 0.20313 0.0
H1101 H 0.95416 0.80529 0.18612 0.0
H1102 H 0.02297 0.89377 0.19323 0.0
H1103 H 0.0658 0.8636 0.21051 0.0
C1104 C 0.07887 0.79658 0.2868 0.0
C1105 C 0.10043 0.82543 0.29281 0.0
C1106 C 0.07125 0.78729 0.27117 0.0
C1107 C 0.08465 0.80708 0.26138 0.0
C1108 C 0.10425 0.8372 0.26733 0.0
C1109 C 0.11242 0.84611 0.28296 0.0
C1110 C 0.08236 0.79384 0.24525 0.0
C1111 C 0.06199 0.81107 0.23414 0.0
C1112 C 0.10065 0.76411 0.24091 0.0
C1113 C 0.12329 0.74546 0.2522 0.0
C1114 C 0.1519 0.76242 0.26183 0.0
C1115 C 0.17252 0.74496 0.27274 0.0
C1116 C 0.165 0.7104 0.274 0.0
C1117 C 0.13693 0.69319 0.26432 0.0
C1118 C 0.11615 0.71059 0.25343 0.0
C1119 C 0.09966 0.76788 0.17497 0.0
C1120 C 0.10247 0.73211 0.17104 0.0
C1121 C 0.08885 0.78038 0.18852 0.0
C1122 C 0.0799 0.75725 0.19818 0.0
C1123 C 0.07937 0.72149 0.19335 0.0
C1124 C 0.09099 0.70904 0.18003 0.0
C1125 C 0.07796 0.76945 0.21426 0.0
C1126 C 0.09824 0.75231 0.22555 0.0
C1127 C 0.05922 0.799 0.21871 0.0
C1128 C 0.03477 0.81652 0.20775 0.0
C1129 C 1.00309 0.80029 0.20084 0.0
C1130 C 0.97874 0.81773 0.19128 0.0
C1131 C 0.98595 0.85135 0.18849 0.0
C1132 C 0.01746 0.86768 0.19535 0.0
C1133 C 0.04169 0.8505 0.20508 0.0
H1134 H 0.9671 0.86473 0.18104 0.0
H1135 H 0.18095 0.69691 0.28246 0.0
H1136 H 0.67455 0.68926 0.54405 0.0
H1137 H 0.66782 0.66322 0.51762 0.0
H1138 H 0.5835 0.73202 0.50531 0.0
H1139 H 0.59023 0.75815 0.53161 0.0
H1140 H 0.57359 0.66254 0.48961 0.0
H1141 H 0.66017 0.75724 0.50262 0.0
H1142 H 0.71383 0.78482 0.51765 0.0
H1143 H 0.77208 0.69589 0.5048 0.0
H1144 H 0.71858 0.66759 0.48986 0.0
H1145 H 0.565 0.72052 0.41885 0.0
H1146 H 0.56538 0.70228 0.44373 0.0
H1147 H 0.66468 0.65429 0.44225 0.0
H1148 H 0.66522 0.67517 0.41774 0.0
H1149 H 0.67137 0.69537 0.46559 0.0
H1150 H 0.58551 0.61004 0.44537 0.0
H1151 H 0.53155 0.58535 0.42956 0.0
H1152 H 0.47116 0.65266 0.4554 0.0
H1153 H 0.52463 0.67923 0.47088 0.0
C1154 C 0.65417 0.69829 0.53573 0.0
C1155 C 0.63319 0.72598 0.53979 0.0
C1156 C 0.65031 0.68339 0.52068 0.0
C1157 C 0.62519 0.69575 0.50954 0.0
C1158 C 0.60289 0.72198 0.51376 0.0
C1159 C 0.60701 0.73713 0.52873 0.0
C1160 C 0.62491 0.68503 0.49326 0.0
C1161 C 0.59487 0.66945 0.48424 0.0
C1162 C 0.65325 0.69301 0.48644 0.0
C1163 C 0.68538 0.71014 0.49531 0.0
C1164 C 0.68439 0.74347 0.5031 0.0
C1165 C 0.71476 0.75925 0.51159 0.0
C1166 C 0.74633 0.74207 0.51222 0.0
C1167 C 0.74759 0.70912 0.50433 0.0
C1168 C 0.71726 0.6932 0.49586 0.0
C1169 C 0.58608 0.70467 0.42357 0.0
C1170 C 0.61481 0.69871 0.41639 0.0
C1171 C 0.58633 0.69411 0.43783 0.0
C1172 C 0.61502 0.67664 0.44498 0.0
C1173 C 0.64227 0.66778 0.43705 0.0
C1174 C 0.64245 0.6793 0.42297 0.0
C1175 C 0.61932 0.67367 0.4615 0.0
C1176 C 0.65025 0.68696 0.47072 0.0
C1177 C 0.59173 0.6633 0.4684 0.0
C1178 C 0.5593 0.64673 0.45933 0.0
C1179 C 0.56078 0.61979 0.44766 0.0
C1180 C 0.53024 0.60544 0.43874 0.0
C1181 C 0.49798 0.61716 0.44156 0.0
C1182 C 0.49618 0.64349 0.45326 0.0
C1183 C 0.52663 0.65831 0.46209 0.0
H1184 H 0.47439 0.60592 0.43465 0.0
H1185 H 0.76983 0.75432 0.51879 0.0
H1186 H 0.58333 0.32675 0.78685 0.0
H1187 H 0.57564 0.31126 0.75944 0.0
H1188 H 0.63244 0.21733 0.7663 0.0
H1189 H 0.6404 0.23285 0.79365 0.0
H1190 H 0.65951 0.25316 0.74815 0.0
H1191 H 0.54478 0.21443 0.75081 0.0
H1192 H 0.48665 0.2191 0.7578 0.0
H1193 H 0.46453 0.30538 0.73212 0.0
H1194 H 0.52277 0.30161 0.72526 0.0
H1195 H 0.64457 0.17508 0.67477 0.0
H1196 H 0.62733 0.18473 0.69958 0.0
H1197 H 0.59536 0.288 0.69111 0.0
H1198 H 0.61295 0.27864 0.6663 0.0
H1199 H 0.55233 0.24871 0.70933 0.0
H1200 H 0.66942 0.28694 0.70754 0.0
H1201 H 0.72699 0.2792 0.7002 0.0
H1202 H 0.74426 0.19092 0.72495 0.0
H1203 H 0.68648 0.19782 0.73221 0.0
C1204 C 0.59342 0.30239 0.78249 0.0
C1205 C 0.61274 0.28113 0.79236 0.0
C1206 C 0.58897 0.29354 0.76683 0.0
C1207 C 0.60347 0.26312 0.76081 0.0
C1208 C 0.62118 0.24101 0.77069 0.0
C1209 C 0.62579 0.24993 0.7863 0.0
C1210 C 0.60367 0.25614 0.74435 0.0
C1211 C 0.63595 0.25174 0.73973 0.0
C1212 C 0.57308 0.25525 0.73328 0.0
C1213 C 0.53816 0.25779 0.73752 0.0
C1214 C 0.5276 0.23455 0.74674 0.0
C1215 C 0.49463 0.23702 0.75069 0.0
C1216 C 0.4719 0.26252 0.74541 0.0
C1217 C 0.48212 0.28561 0.73618 0.0
C1218 C 0.51509 0.28327 0.73224 0.0
C1219 C 0.633 0.19952 0.67804 0.0
C1220 C 0.63 0.22609 0.66861 0.0
C1221 C 0.62298 0.20491 0.69216 0.0
C1222 C 0.61008 0.23706 0.69716 0.0
C1223 C 0.60475 0.26285 0.68737 0.0
C1224 C 0.61484 0.25746 0.67319 0.0
C1225 C 0.60806 0.24532 0.71335 0.0
C1226 C 0.57569 0.25017 0.71786 0.0
C1227 C 0.63854 0.24652 0.72442 0.0
C1228 C 0.67352 0.24269 0.72029 0.0
C1229 C 0.68539 0.26572 0.71131 0.0
C1230 C 0.71806 0.26151 0.70718 0.0
C1231 C 0.73924 0.23453 0.71208 0.0
C1232 C 0.72781 0.21178 0.72115 0.0
C1233 C 0.69512 0.21584 0.72528 0.0
H1234 H 0.76453 0.23131 0.70887 0.0
H1235 H 0.44638 0.26438 0.74847 0.0
H1236 H 0.09838 0.65976 0.94941 0.0
H1237 H 0.11151 0.65106 0.97608 0.0
H1238 H 0.04794 0.73789 0.98691 0.0
H1239 H 0.03296 0.74572 0.96011 0.0
H1240 H 0.11222 0.7356 0.00724 0.0
H1241 H 0.01375 0.66577 0.98454 0.0
H1242 H 0.97756 0.62209 0.96678 0.0
H1243 H 0.04801 0.54248 0.98099 0.0
H1244 H 0.0854 0.58593 0.99848 0.0
H1245 H 0.05247 0.67763 0.07328 0.0
H1246 H 0.04736 0.66651 0.04586 0.0
H1247 H 0.15889 0.67094 0.05048 0.0
H1248 H 0.16402 0.68138 0.07802 0.0
H1249 H 0.0718 0.62589 0.02232 0.0
H1250 H 0.1736 0.73627 0.02874 0.0
H1251 H 0.19923 0.78442 0.04761 0.0
H1252 H 0.10665 0.78903 0.0671 0.0
H1253 H 0.08029 0.7414 0.0482 0.0
C1254 C 0.08701 0.67702 0.95741 0.0
C1255 C 0.06409 0.70315 0.9525 0.0
C1256 C 0.09476 0.67208 0.97267 0.0
C1257 C 0.08038 0.69358 0.98341 0.0
C1258 C 0.05926 0.72101 0.97875 0.0
C1259 C 0.05093 0.7256 0.96342 0.0
C1260 C 0.0862 0.68646 -0.00061 0.0
C1261 C 0.10377 0.71144 0.01051 0.0
C1262 C 0.0743 0.65528 0.00367 0.0
C1263 C 0.05276 0.62927 0.99265 0.0
C1264 C 0.02198 0.63909 0.98367 0.0
C1265 C 1.00116 0.61434 0.97368 0.0
C1266 C 0.0105 0.57955 0.97274 0.0
C1267 C 0.04081 0.56946 0.98173 0.0
C1268 C 0.06193 0.59417 0.99162 0.0
C1269 C 0.0759 0.67405 0.06848 0.0
C1270 C 0.10861 0.68034 0.07767 0.0
C1271 C 0.07298 0.66794 0.05281 0.0
C1272 C 0.10271 0.66875 0.04617 0.0
C1273 C 0.13564 0.67053 0.05543 0.0
C1274 C 0.13857 0.67607 0.07116 0.0
C1275 C 0.09879 0.67449 0.03006 0.0
C1276 C 0.08122 0.64951 0.01895 0.0
C1277 C 0.10964 0.70614 0.02582 0.0
C1278 C 0.12523 0.73493 0.03719 0.0
C1279 C 0.15874 0.7476 0.03705 0.0
C1280 C 0.17336 0.77482 0.04774 0.0
C1281 C 0.15461 0.78969 0.05858 0.0
C1282 C 0.12118 0.77741 0.05874 0.0
C1283 C 0.10642 0.75028 0.04805 0.0
H1284 H 0.16591 0.81084 0.0668 0.0
H1285 H 0.99419 0.5604 0.96508 0.0
H1286 H 0.6174 0.84404 0.22167 0.0
H1287 H 0.63489 0.82989 0.24762 0.0
H1288 H 0.70146 0.7501 0.23211 0.0
H1289 H 0.68453 0.76472 0.20614 0.0
H1290 H 0.65073 0.72817 0.24849 0.0
H1291 H 0.74 0.81321 0.2537 0.0
H1292 H 0.76654 0.86982 0.25216 0.0
H1293 H 0.70457 0.91915 0.28294 0.0
H1294 H 0.67711 0.86297 0.28444 0.0
H1295 H 0.66588 0.68644 0.32315 0.0
H1296 H 0.68874 0.70089 0.30092 0.0
H1297 H 0.64087 0.80108 0.3048 0.0
H1298 H 0.61927 0.78703 0.32716 0.0
H1299 H 0.69898 0.80702 0.29446 0.0
H1300 H 0.59863 0.72835 0.28291 0.0
H1301 H 0.56751 0.67388 0.28411 0.0
H1302 H 0.64562 0.61553 0.26484 0.0
H1303 H 0.6774 0.66971 0.26371 0.0
C1304 C 0.6362 0.8239 0.22388 0.0
C1305 C 0.64958 0.80536 0.21197 0.0
C1306 C 0.64635 0.816 0.23867 0.0
C1307 C 0.66966 0.78914 0.24177 0.0
C1308 C 0.68369 0.77112 0.22995 0.0
C1309 C 0.67404 0.77946 0.21517 0.0
C1310 C 0.67583 0.77746 0.25701 0.0
C1311 C 0.66217 0.74501 0.25854 0.0
C1312 C 0.69011 0.79979 0.27008 0.0
C1313 C 0.70625 0.83381 0.26908 0.0
C1314 C 0.73171 0.83616 0.26001 0.0
C1315 C 0.74699 0.86819 0.25917 0.0
C1316 C 0.73719 0.89807 0.26742 0.0
C1317 C 0.7121 0.89599 0.27654 0.0
C1318 C 0.69668 0.86404 0.27739 0.0
C1319 C 0.66132 0.71187 0.31945 0.0
C1320 C 0.64128 0.73585 0.32681 0.0
C1321 C 0.67417 0.72008 0.30676 0.0
C1322 C 0.66608 0.7519 0.30105 0.0
C1323 C 0.6476 0.77646 0.30899 0.0
C1324 C 0.63514 0.76842 0.32171 0.0
C1325 C 0.6726 0.75835 0.28592 0.0
C1326 C 0.68853 0.78979 0.28439 0.0
C1327 C 0.65971 0.73546 0.27279 0.0
C1328 C 0.64059 0.70296 0.27341 0.0
C1329 C 0.60925 0.70387 0.27902 0.0
C1330 C 0.5915 0.67307 0.27968 0.0
C1331 C 0.60465 0.64126 0.27461 0.0
C1332 C 0.63552 0.64019 0.26881 0.0
C1333 C 0.65342 0.67091 0.26816 0.0
H1334 H 0.59086 0.61744 0.27512 0.0
H1335 H 0.7491 0.92283 0.26677 0.0
H1336 H 0.52874 0.22811 0.45467 0.0
H1337 H 0.54286 0.2203 0.4814 0.0
H1338 H 0.63754 0.16924 0.47403 0.0
H1339 H 0.623 0.17639 0.44704 0.0
H1340 H 0.60689 0.13496 0.49208 0.0
H1341 H 0.63956 0.25246 0.49174 0.0
H1342 H 0.63368 0.31243 0.4853 0.0
H1343 H 0.54654 0.32664 0.5082 0.0
H1344 H 0.55156 0.26659 0.5146 0.0
H1345 H 0.66367 0.18469 0.5759 0.0
H1346 H 0.66164 0.17023 0.54862 0.0
H1347 H 0.5506 0.18201 0.54094 0.0
H1348 H 0.55235 0.19623 0.56801 0.0
H1349 H 0.60007 0.23441 0.53097 0.0
H1350 H 0.56814 0.1128 0.52989 0.0
H1351 H 0.57961 0.05441 0.53761 0.0
H1352 H 0.67289 0.05005 0.51863 0.0
H1353 H 0.66232 0.10874 0.51106 0.0
C1354 C 0.5529 0.21584 0.45879 0.0
C1355 C 0.575 0.2033 0.44882 0.0
C1356 C 0.5609 0.21121 0.47407 0.0
C1357 C 0.59151 0.19454 0.47979 0.0
C1358 C 0.61379 0.18215 0.46988 0.0
C1359 C 0.60558 0.18645 0.45451 0.0
C1360 C 0.5998 0.19019 0.49614 0.0
C1361 C 0.60592 0.1568 0.5006 0.0
C1362 C 0.59886 0.21865 0.50731 0.0
C1363 C 0.59582 0.25491 0.50356 0.0
C1364 C 0.619 0.2683 0.49532 0.0
C1365 C 0.61583 0.30232 0.49169 0.0
C1366 C 0.58972 0.32331 0.49632 0.0
C1367 C 0.56675 0.31035 0.50462 0.0
C1368 C 0.56978 0.27633 0.50827 0.0
C1369 C 0.63866 0.18235 0.56847 0.0
C1370 C 0.6082 0.19215 0.57399 0.0
C1371 C 0.63758 0.17426 0.55289 0.0
C1372 C 0.60601 0.17554 0.54284 0.0
C1373 C 0.57517 0.18098 0.54856 0.0
C1374 C 0.57622 0.18904 0.56403 0.0
C1375 C 0.60558 0.17922 0.52675 0.0
C1376 C 0.60131 0.21268 0.52241 0.0
C1377 C 0.60882 0.15098 0.51585 0.0
C1378 C 0.61467 0.11537 0.52008 0.0
C1379 C 0.59129 0.09956 0.5275 0.0
C1380 C 0.59758 0.06637 0.53182 0.0
C1381 C 0.62703 0.04858 0.52867 0.0
C1382 C 0.65013 0.06388 0.5211 0.0
C1383 C 0.64398 0.0971 0.51678 0.0
H1384 H 0.63188 0.02291 0.53205 0.0
H1385 H 0.58731 0.34965 0.4935 0.0
H1386 H 0.12509 0.34347 0.71812 0.0
H1387 H 0.13767 0.32944 0.74425 0.0
H1388 H 0.19712 0.2417 0.73038 0.0
H1389 H 0.18513 0.25612 0.70423 0.0
H1390 H 0.14065 0.22717 0.74545 0.0
H1391 H 0.24029 0.30197 0.75256 0.0
H1392 H 0.27307 0.3556 0.75179 0.0
H1393 H 0.21151 0.4121 0.78091 0.0
H1394 H 0.17795 0.35894 0.78165 0.0
H1395 H 0.15173 0.18042 0.81875 0.0
H1396 H 0.17246 0.19371 0.79594 0.0
H1397 H 0.14298 0.30036 0.80474 0.0
H1398 H 0.12478 0.28743 0.82805 0.0
H1399 H 0.19509 0.30067 0.79203 0.0
H1400 H 0.08817 0.2335 0.78072 0.0
H1401 H 0.05039 0.18306 0.78119 0.0
H1402 H 0.11901 0.11645 0.7594 0.0
H1403 H 0.15739 0.16649 0.75896 0.0
C1404 C 0.1414 0.32162 0.72074 0.0
C1405 C 0.15409 0.30077 0.70923 0.0
C1406 C 0.14873 0.31375 0.73564 0.0
C1407 C 0.16847 0.28466 0.73922 0.0
C1408 C 0.18207 0.26441 0.72783 0.0
C1409 C 0.17526 0.27265 0.71295 0.0
C1410 C 0.17109 0.27327 0.75443 0.0
C1411 C 0.15333 0.24275 0.75565 0.0
C1412 C 0.18664 0.29428 0.76768 0.0
C1413 C 0.20637 0.32647 0.76704 0.0
C1414 C 0.23346 0.3259 0.75866 0.0
C1415 C 0.25225 0.35621 0.75826 0.0
C1416 C 0.24432 0.38726 0.76626 0.0
C1417 C 0.21759 0.38805 0.77469 0.0
C1418 C 0.19866 0.35783 0.7751 0.0
C1419 C 0.15059 0.2068 0.81592 0.0
C1420 C 0.13676 0.23297 0.825 0.0
C1421 C 0.16212 0.21437 0.80286 0.0
C1422 C 0.15831 0.24784 0.79832 0.0
C1423 C 0.14612 0.27432 0.80791 0.0
C1424 C 0.1356 0.26696 0.82119 0.0
C1425 C 0.16405 0.25486 0.7831 0.0
C1426 C 0.18317 0.28461 0.78185 0.0
C1427 C 0.1489 0.23367 0.76975 0.0
C1428 C 0.12583 0.20361 0.76998 0.0
C1429 C 0.09528 0.20805 0.77611 0.0
C1430 C 0.07376 0.17955 0.77637 0.0
C1431 C 0.08236 0.14655 0.77038 0.0
C1432 C 0.11243 0.14201 0.76407 0.0
C1433 C 0.13407 0.17042 0.76381 0.0
H1434 H 0.06567 0.12452 0.77058 0.0
H1435 H 0.25895 0.41068 0.76596 0.0
loop_
_geom_bond_atom_site_label_1
_geom_bond_atom_site_label_2
_geom_bond_distance
_geom_bond_site_symmetry_2
_ccdc_geom_bond_type
H0 C1 0.949 . S
C1 H0 0.949 . S
C1 C2 1.395 . S
C1 C3 1.391 . S
C2 C1 1.395 . S
C2 C5 1.390 . S
C3 C1 1.391 . S
C3 C7 1.387 . S
C3 C8 1.491 . S
H4 C5 0.950 . S
C5 C2 1.390 . S
C5 H4 0.950 . S
C5 C6 1.378 . S
C6 C5 1.378 . S
C6 C7 1.409 . S
C7 C3 1.387 . S
C7 C6 1.409 . S
C7 H9 0.951 . S
C8 C3 1.491 . S
C8 C10 1.382 . S
C8 C12 1.404 . S
H9 C7 0.951 . S
C10 C8 1.382 . S
C10 C11 1.390 . S
C10 H15 0.949 . S
C11 C10 1.390 . S
C11 C16 1.399 . S
C12 C8 1.404 . S
C12 H13 0.950 . S
C12 C14 1.375 . S
H13 C12 0.950 . S
C14 C12 1.375 . S
C14 C16 1.382 . S
C14 H18 0.950 . S
H15 C10 0.949 . S
C16 C11 1.399 . S
C16 C14 1.382 . S
C16 H17 0.952 . S
H17 C16 0.952 . S
H18 C14 0.950 . S
H19 C20 0.949 . S
C20 H19 0.949 . S
C20 C21 1.395 . S
C20 C22 1.391 . S
C21 C20 1.395 . S
C21 C24 1.390 . S
C22 C20 1.391 . S
C22 C26 1.387 . S
C22 C27 1.491 . S
H23 C24 0.950 . S
C24 C21 1.390 . S
C24 H23 0.950 . S
C24 C25 1.378 . S
C25 C24 1.378 . S
C25 C26 1.409 . S
C26 C22 1.387 . S
C26 C25 1.409 . S
C26 H28 0.951 . S
C27 C22 1.491 . S
C27 C29 1.382 . S
C27 C31 1.404 . S
H28 C26 0.951 . S
C29 C27 1.382 . S
C29 C30 1.390 1_455 S
C29 H34 0.949 . S
C30 C29 1.390 1_655 S
C30 C35 1.399 1_655 S
C31 C27 1.404 . S
C31 H32 0.950 . S
C31 C33 1.375 . S
H32 C31 0.950 . S
C33 C31 1.375 . S
C33 C35 1.382 . S
C33 H37 0.950 . S
H34 C29 0.949 . S
C35 C30 1.399 1_455 S
C35 C33 1.382 . S
C35 H36 0.952 1_455 S
H36 C35 0.952 1_655 S
H37 C33 0.950 . S
H38 C39 0.949 . S
C39 H38 0.949 . S
C39 C40 1.395 . S
C39 C41 1.391 . S
C40 C39 1.395 . S
C40 C43 1.390 . S
C41 C39 1.391 . S
C41 C45 1.387 . S
C41 C46 1.491 . S
H42 C43 0.950 . S
C43 C40 1.390 . S
C43 H42 0.950 . S
C43 C44 1.378 . S
C44 C43 1.378 . S
C44 C45 1.409 . S
C45 C41 1.387 . S
C45 C44 1.409 . S
C45 H47 0.951 . S
C46 C41 1.491 . S
C46 C48 1.382 . S
C46 C50 1.404 . S
H47 C45 0.951 . S
C48 C46 1.382 . S
C48 C49 1.390 . S
C48 H53 0.949 . S
C49 C48 1.390 . S
C49 C54 1.399 . S
C50 C46 1.404 . S
C50 H51 0.950 . S
C50 C52 1.375 . S
H51 C50 0.950 . S
C52 C50 1.375 . S
C52 C54 1.382 . S
C52 H56 0.950 . S
H53 C48 0.949 . S
C54 C49 1.399 . S
C54 C52 1.382 . S
C54 H55 0.952 . S
H55 C54 0.952 . S
H56 C52 0.950 . S
H57 C58 0.949 . S
C58 H57 0.949 . S
C58 C59 1.395 . S
C58 C60 1.391 . S
C59 C58 1.395 . S
C59 C62 1.390 . S
C60 C58 1.391 . S
C60 C64 1.387 . S
C60 C65 1.491 . S
H61 C62 0.950 . S
C62 C59 1.390 . S
C62 H61 0.950 . S
C62 C63 1.378 . S
C63 C62 1.378 . S
C63 C64 1.409 . S
C64 C60 1.387 . S
C64 C63 1.409 . S
C64 H66 0.951 . S
C65 C60 1.491 . S
C65 C67 1.382 . S
C65 C69 1.404 . S
H66 C64 0.951 . S
C67 C65 1.382 . S
C67 C68 1.390 . S
C67 H72 0.949 . S
C68 C67 1.390 . S
C68 C73 1.399 . S
C69 C65 1.404 . S
C69 H70 0.950 . S
C69 C71 1.375 . S
H70 C69 0.950 . S
C71 C69 1.375 . S
C71 C73 1.382 . S
C71 H75 0.950 . S
H72 C67 0.949 . S
C73 C68 1.399 . S
C73 C71 1.382 . S
C73 H74 0.952 . S
H74 C73 0.952 . S
H75 C71 0.950 . S
H76 C77 0.949 . S
C77 H76 0.949 . S
C77 C78 1.395 . S
C77 C79 1.391 . S
C78 C77 1.395 . S
C78 C81 1.390 . S
C79 C77 1.391 . S
C79 C83 1.387 . S
C79 C84 1.491 . S
H80 C81 0.950 . S
C81 C78 1.390 . S
C81 H80 0.950 . S
C81 C82 1.378 . S
C82 C81 1.378 . S
C82 C83 1.409 . S
C83 C79 1.387 . S
C83 C82 1.409 . S
C83 H85 0.951 . S
C84 C79 1.491 . S
C84 C86 1.382 . S
C84 C88 1.404 1_455 S
H85 C83 0.951 . S
C86 C84 1.382 . S
C86 C87 1.390 . S
C86 H91 0.949 . S
C87 C86 1.390 . S
C87 C92 1.399 1_455 S
C88 C84 1.404 1_655 S
C88 H89 0.950 . S
C88 C90 1.375 . S
H89 C88 0.950 . S
C90 C88 1.375 . S
C90 C92 1.382 . S
C90 H94 0.950 . S
H91 C86 0.949 . S
C92 C87 1.399 1_655 S
C92 C90 1.382 . S
C92 H93 0.952 . S
H93 C92 0.952 . S
H94 C90 0.950 . S
H95 C96 0.949 . S
C96 H95 0.949 . S
C96 C97 1.395 . S
C96 C98 1.391 . S
C97 C96 1.395 . S
C97 C100 1.390 . S
C98 C96 1.391 . S
C98 C102 1.387 . S
C98 C103 1.491 . S
H99 C100 0.950 . S
C100 C97 1.390 . S
C100 H99 0.950 . S
C100 C101 1.378 . S
C101 C100 1.378 . S
C101 C102 1.409 . S
C102 C98 1.387 . S
C102 C101 1.409 . S
C102 H104 0.951 . S
C103 C98 1.491 . S
C103 C105 1.382 . S
C103 C107 1.404 . S
H104 C102 0.951 . S
C105 C103 1.382 . S
C105 C106 1.390 . S
C105 H110 0.949 . S
C106 C105 1.390 . S
C106 C111 1.399 . S
C107 C103 1.404 . S
C107 H108 0.950 . S
C107 C109 1.375 . S
H108 C107 0.950 . S
C109 C107 1.375 . S
C109 C111 1.382 . S
C109 H113 0.950 . S
H110 C105 0.949 . S
C111 C106 1.399 . S
C111 C109 1.382 . S
C111 H112 0.952 . S
H112 C111 0.952 . S
H113 C109 0.950 . S
H114 C115 0.949 . S
C115 H114 0.949 . S
C115 C116 1.395 . S
C115 C117 1.391 . S
C116 C115 1.395 . S
C116 C119 1.390 . S
C117 C115 1.391 . S
C117 C121 1.387 . S
C117 C122 1.491 . S
H118 C119 0.950 . S
C119 C116 1.390 . S
C119 H118 0.950 . S
C119 C120 1.378 . S
C120 C119 1.378 . S
C120 C121 1.409 . S
C121 C117 1.387 . S
C121 C120 1.409 . S
C121 H123 0.951 . S
C122 C117 1.491 . S
C122 C124 1.382 . S
C122 C126 1.404 . S
H123 C121 0.951 . S
C124 C122 1.382 . S
C124 C125 1.390 . S
C124 H129 0.949 . S
C125 C124 1.390 . S
C125 C130 1.399 . S
C126 C122 1.404 . S
C126 H127 0.950 . S
C126 C128 1.375 . S
H127 C126 0.950 . S
C128 C126 1.375 . S
C128 C130 1.382 . S
C128 H132 0.950 . S
H129 C124 0.949 . S
C130 C125 1.399 . S
C130 C128 1.382 . S
C130 H131 0.952 . S
H131 C130 0.952 . S
H132 C128 0.950 . S
H133 C134 0.949 . S
C134 H133 0.949 . S
C134 C135 1.395 . S
C134 C136 1.391 . S
C135 C134 1.395 . S
C135 C138 1.390 . S
C136 C134 1.391 . S
C136 C140 1.387 . S
C136 C141 1.491 . S
H137 C138 0.950 . S
C138 C135 1.390 . S
C138 H137 0.950 . S
C138 C139 1.378 . S
C139 C138 1.378 . S
C139 C140 1.409 . S
C140 C136 1.387 . S
C140 C139 1.409 . S
C140 H142 0.951 . S
C141 C136 1.491 . S
C141 C143 1.382 . S
C141 C145 1.404 . S
H142 C140 0.951 . S
C143 C141 1.382 . S
C143 C144 1.390 . S
C143 H148 0.949 . S
C144 C143 1.390 . S
C144 C149 1.399 . S
C145 C141 1.404 . S
C145 H146 0.950 . S
C145 C147 1.375 . S
H146 C145 0.950 . S
C147 C145 1.375 . S
C147 C149 1.382 . S
C147 H151 0.950 . S
H148 C143 0.949 . S
C149 C144 1.399 . S
C149 C147 1.382 . S
C149 H150 0.952 . S
H150 C149 0.952 . S
H151 C147 0.950 . S
Zn152 O158 1.920 . S
Zn152 O164 1.898 . S
Zn152 O167 1.905 . S
Zn153 O161 1.905 . S
Zn153 O162 1.898 . S
Zn153 O170 1.920 . S
Zn154 O157 2.080 . S
Zn154 O160 2.114 . S
Zn154 O163 2.120 . S
Zn154 O165 2.120 . S
Zn154 O166 2.114 . S
Zn154 O169 2.080 . S
C155 O160 1.166 . S
C155 O161 1.182 . S
C156 O162 1.167 . S
C156 O163 1.299 . S
O157 Zn154 2.080 . S
O157 C171 1.305 . S
O158 Zn152 1.920 . S
O158 C171 1.234 . S
C159 O164 1.167 . S
C159 O165 1.299 . S
O160 Zn154 2.114 . S
O160 C155 1.166 . S
O161 Zn153 1.905 . S
O161 C155 1.182 . S
O162 Zn153 1.898 . S
O162 C156 1.167 . S
O163 Zn154 2.120 . S
O163 C156 1.299 . S
O164 Zn152 1.898 . S
O164 C159 1.167 . S
O165 Zn154 2.120 . S
O165 C159 1.299 . S
O166 Zn154 2.114 . S
O166 C168 1.166 . S
O167 Zn152 1.905 . S
O167 C168 1.182 . S
C168 O166 1.166 . S
C168 O167 1.182 . S
O169 Zn154 2.080 . S
O169 C172 1.305 . S
O170 Zn153 1.920 . S
O170 C172 1.234 . S
C171 O157 1.305 . S
C171 O158 1.234 . S
C172 O169 1.305 . S
C172 O170 1.234 . S
Zn173 O179 1.920 . S
Zn173 O185 1.898 . S
Zn173 O188 1.905 . S
Zn174 O182 1.905 . S
Zn174 O183 1.898 . S
Zn174 O191 1.920 . S
Zn175 O178 2.080 . S
Zn175 O181 2.114 . S
Zn175 O184 2.120 . S
Zn175 O186 2.120 . S
Zn175 O187 2.114 . S
Zn175 O190 2.080 . S
C176 O181 1.166 . S
C176 O182 1.182 . S
C177 O183 1.167 . S
C177 O184 1.299 . S
O178 Zn175 2.080 . S
O178 C192 1.305 . S
O179 Zn173 1.920 . S
O179 C192 1.234 . S
C180 O185 1.167 . S
C180 O186 1.299 . S
O181 Zn175 2.114 . S
O181 C176 1.166 . S
O182 Zn174 1.905 . S
O182 C176 1.182 . S
O183 Zn174 1.898 . S
O183 C177 1.167 . S
O184 Zn175 2.120 . S
O184 C177 1.299 . S
O185 Zn173 1.898 . S
O185 C180 1.167 . S
O186 Zn175 2.120 . S
O186 C180 1.299 . S
O187 Zn175 2.114 . S
O187 C189 1.166 . S
O188 Zn173 1.905 . S
O188 C189 1.182 . S
C189 O187 1.166 . S
C189 O188 1.182 . S
O190 Zn175 2.080 . S
O190 C193 1.305 . S
O191 Zn174 1.920 . S
O191 C193 1.234 . S
C192 O178 1.305 . S
C192 O179 1.234 . S
C193 O190 1.305 . S
C193 O191 1.234 . S
Zn194 O200 1.920 . S
Zn194 O206 1.898 . S
Zn194 O209 1.905 . S
Zn195 O203 1.905 . S
Zn195 O204 1.898 . S
Zn195 O212 1.920 . S
Zn196 O199 2.080 . S
Zn196 O202 2.114 . S
Zn196 O205 2.120 . S
Zn196 O207 2.120 . S
Zn196 O208 2.114 . S
Zn196 O211 2.080 . S
C197 O202 1.166 . S
C197 O203 1.182 . S
C198 O204 1.167 . S
C198 O205 1.299 . S
O199 Zn196 2.080 . S
O199 C213 1.305 . S
O200 Zn194 1.920 . S
O200 C213 1.234 . S
C201 O206 1.167 . S
C201 O207 1.299 . S
O202 Zn196 2.114 . S
O202 C197 1.166 . S
O203 Zn195 1.905 . S
O203 C197 1.182 . S
O204 Zn195 1.898 . S
O204 C198 1.167 . S
O205 Zn196 2.120 . S
O205 C198 1.299 . S
O206 Zn194 1.898 . S
O206 C201 1.167 . S
O207 Zn196 2.120 . S
O207 C201 1.299 . S
O208 Zn196 2.114 . S
O208 C210 1.166 . S
O209 Zn194 1.905 . S
O209 C210 1.182 . S
C210 O208 1.166 . S
C210 O209 1.182 . S
O211 Zn196 2.080 . S
O211 C214 1.305 . S
O212 Zn195 1.920 . S
O212 C214 1.234 . S
C213 O199 1.305 . S
C213 O200 1.234 . S
C214 O211 1.305 . S
C214 O212 1.234 . S
Zn215 O221 1.920 . S
Zn215 O227 1.898 . S
Zn215 O230 1.905 1_455 S
Zn216 O224 1.905 . S
Zn216 O225 1.898 . S
Zn216 O233 1.920 . S
Zn217 O220 2.080 . S
Zn217 O223 2.114 . S
Zn217 O226 2.120 . S
Zn217 O228 2.120 . S
Zn217 O229 2.114 . S
Zn217 O232 2.080 . S
C218 O223 1.166 . S
C218 O224 1.182 . S
C219 O225 1.167 . S
C219 O226 1.299 . S
O220 Zn217 2.080 . S
O220 C234 1.305 . S
O221 Zn215 1.920 . S
O221 C234 1.234 . S
C222 O227 1.167 . S
C222 O228 1.299 . S
O223 Zn217 2.114 . S
O223 C218 1.166 . S
O224 Zn216 1.905 . S
O224 C218 1.182 . S
O225 Zn216 1.898 . S
O225 C219 1.167 . S
O226 Zn217 2.120 . S
O226 C219 1.299 . S
O227 Zn215 1.898 . S
O227 C222 1.167 . S
O228 Zn217 2.120 . S
O228 C222 1.299 . S
O229 Zn217 2.114 . S
O229 C231 1.166 . S
O230 Zn215 1.905 1_655 S
O230 C231 1.182 1_655 S
C231 O229 1.166 . S
C231 O230 1.182 1_455 S
O232 Zn217 2.080 . S
O232 C235 1.305 . S
O233 Zn216 1.920 . S
O233 C235 1.234 . S
C234 O220 1.305 . S
C234 O221 1.234 . S
C235 O232 1.305 . S
C235 O233 1.234 . S
H236 C254 0.951 . S
H237 C256 0.951 . S
H238 C258 0.950 . S
H239 C259 0.950 . S
H240 C261 0.950 . S
H241 C264 0.950 . S
H242 C265 0.950 . S
H243 C267 0.950 . S
H244 C268 0.950 . S
H245 C269 0.951 . S
H246 C271 0.951 . S
H247 C273 0.950 . S
H248 C274 0.950 . S
H249 C276 0.950 . S
H250 C279 0.950 . S
H251 C280 0.950 . S
H252 C282 0.950 . S
H253 C283 0.950 . S
C254 H236 0.951 . S
C254 C255 1.366 . S
C254 C256 1.388 . S
C255 C254 1.366 . S
C255 C259 1.385 . S
C256 H237 0.951 . S
C256 C254 1.388 . S
C256 C257 1.366 . S
C257 C256 1.366 . S
C257 C258 1.414 . S
C257 C260 1.499 . S
C258 H238 0.950 . S
C258 C257 1.414 . S
C258 C259 1.374 . S
C259 H239 0.950 . S
C259 C255 1.385 . S
C259 C258 1.374 . S
C260 C257 1.499 . S
C260 C261 1.373 . S
C260 C262 1.389 . S
C261 H240 0.950 . S
C261 C260 1.373 . S
C261 C277 1.377 . S
C262 C260 1.389 . S
C262 C263 1.524 . S
C262 C276 1.377 . S
C263 C262 1.524 . S
C263 C264 1.397 . S
C263 C268 1.363 . S
C264 H241 0.950 . S
C264 C263 1.397 . S
C264 C265 1.334 . S
C265 H242 0.950 . S
C265 C264 1.334 . S
C265 C266 1.287 . S
C266 C265 1.287 . S
C266 C267 1.524 . S
C266 H285 0.913 . S
C267 H243 0.950 . S
C267 C266 1.524 . S
C267 C268 1.415 . S
C268 H244 0.950 . S
C268 C263 1.363 . S
C268 C267 1.415 . S
C269 H245 0.951 . S
C269 C270 1.366 . S
C269 C271 1.388 . S
C270 C269 1.366 . S
C270 C274 1.385 . S
C271 H246 0.951 . S
C271 C269 1.388 . S
C271 C272 1.366 . S
C272 C271 1.366 . S
C272 C273 1.414 . S
C272 C275 1.499 . S
C273 H247 0.950 . S
C273 C272 1.414 . S
C273 C274 1.374 . S
C274 H248 0.950 . S
C274 C270 1.385 . S
C274 C273 1.374 . S
C275 C272 1.499 . S
C275 C276 1.373 . S
C275 C277 1.389 . S
C276 H249 0.950 . S
C276 C262 1.377 . S
C276 C275 1.373 . S
C277 C261 1.377 . S
C277 C275 1.389 . S
C277 C278 1.524 . S
C278 C277 1.524 . S
C278 C279 1.397 . S
C278 C283 1.363 . S
C279 H250 0.950 . S
C279 C278 1.397 . S
C279 C280 1.334 . S
C280 H251 0.950 . S
C280 C279 1.334 . S
C280 C281 1.287 . S
C281 C280 1.287 . S
C281 C282 1.524 . S
C281 H284 0.999 . S
C282 H252 0.950 . S
C282 C281 1.524 . S
C282 C283 1.415 . S
C283 H253 0.950 . S
C283 C278 1.363 . S
C283 C282 1.415 . S
H284 C281 0.999 . S
H285 C266 0.913 . S
H286 C304 0.951 . S
H287 C306 0.951 . S
H288 C308 0.950 . S
H289 C309 0.950 . S
H290 C311 0.950 . S
H291 C314 0.950 . S
H292 C315 0.950 . S
H293 C317 0.950 . S
H294 C318 0.950 . S
H295 C319 0.951 . S
H296 C321 0.951 . S
H297 C323 0.950 . S
H298 C324 0.950 . S
H299 C326 0.950 . S
H300 C329 0.950 . S
H301 C330 0.950 . S
H302 C332 0.950 . S
H303 C333 0.950 . S
C304 H286 0.951 . S
C304 C305 1.366 . S
C304 C306 1.388 . S
C305 C304 1.366 . S
C305 C309 1.385 . S
C306 H287 0.951 . S
C306 C304 1.388 . S
C306 C307 1.366 . S
C307 C306 1.366 . S
C307 C308 1.414 . S
C307 C310 1.499 . S
C308 H288 0.950 . S
C308 C307 1.414 . S
C308 C309 1.374 . S
C309 H289 0.950 . S
C309 C305 1.385 . S
C309 C308 1.374 . S
C310 C307 1.499 . S
C310 C311 1.373 . S
C310 C312 1.389 . S
C311 H290 0.950 . S
C311 C310 1.373 . S
C311 C327 1.377 . S
C312 C310 1.389 . S
C312 C313 1.524 . S
C312 C326 1.377 . S
C313 C312 1.524 . S
C313 C314 1.397 . S
C313 C318 1.363 . S
C314 H291 0.950 . S
C314 C313 1.397 . S
C314 C315 1.334 . S
C315 H292 0.950 . S
C315 C314 1.334 . S
C315 C316 1.287 . S
C316 C315 1.287 . S
C316 C317 1.524 . S
C316 H335 0.913 . S
C317 H293 0.950 . S
C317 C316 1.524 . S
C317 C318 1.415 . S
C318 H294 0.950 . S
C318 C313 1.363 . S
C318 C317 1.415 . S
C319 H295 0.951 . S
C319 C320 1.366 . S
C319 C321 1.388 . S
C320 C319 1.366 . S
C320 C324 1.385 . S
C321 H296 0.951 . S
C321 C319 1.388 . S
C321 C322 1.366 . S
C322 C321 1.366 . S
C322 C323 1.414 . S
C322 C325 1.499 . S
C323 H297 0.950 . S
C323 C322 1.414 . S
C323 C324 1.374 . S
C324 H298 0.950 . S
C324 C320 1.385 . S
C324 C323 1.374 . S
C325 C322 1.499 . S
C325 C326 1.373 . S
C325 C327 1.389 . S
C326 H299 0.950 . S
C326 C312 1.377 . S
C326 C325 1.373 . S
C327 C311 1.377 . S
C327 C325 1.389 . S
C327 C328 1.524 . S
C328 C327 1.524 . S
C328 C329 1.397 . S
C328 C333 1.363 . S
C329 H300 0.950 . S
C329 C328 1.397 . S
C329 C330 1.334 . S
C330 H301 0.950 . S
C330 C329 1.334 . S
C330 C331 1.287 . S
C331 C330 1.287 . S
C331 C332 1.524 . S
C331 H334 0.999 . S
C332 H302 0.950 . S
C332 C331 1.524 . S
C332 C333 1.415 . S
C333 H303 0.950 . S
C333 C328 1.363 . S
C333 C332 1.415 . S
H334 C331 0.999 . S
H335 C316 0.913 . S
H336 C354 0.951 . S
H337 C356 0.951 . S
H338 C358 0.950 . S
H339 C359 0.950 . S
H340 C361 0.950 . S
H341 C364 0.950 . S
H342 C365 0.950 . S
H343 C367 0.950 . S
H344 C368 0.950 . S
H345 C369 0.951 . S
H346 C371 0.951 . S
H347 C373 0.950 . S
H348 C374 0.950 . S
H349 C376 0.950 . S
H350 C379 0.950 . S
H351 C380 0.950 . S
H352 C382 0.950 . S
H353 C383 0.950 . S
C354 H336 0.951 . S
C354 C355 1.366 . S
C354 C356 1.388 . S
C355 C354 1.366 . S
C355 C359 1.385 . S
C356 H337 0.951 . S
C356 C354 1.388 . S
C356 C357 1.366 . S
C357 C356 1.366 . S
C357 C358 1.414 . S
C357 C360 1.499 . S
C358 H338 0.950 . S
C358 C357 1.414 . S
C358 C359 1.374 . S
C359 H339 0.950 . S
C359 C355 1.385 . S
C359 C358 1.374 . S
C360 C357 1.499 . S
C360 C361 1.373 . S
C360 C362 1.389 . S
C361 H340 0.950 . S
C361 C360 1.373 . S
C361 C377 1.377 . S
C362 C360 1.389 . S
C362 C363 1.524 . S
C362 C376 1.377 . S
C363 C362 1.524 . S
C363 C364 1.397 . S
C363 C368 1.363 . S
C364 H341 0.950 . S
C364 C363 1.397 . S
C364 C365 1.334 . S
C365 H342 0.950 . S
C365 C364 1.334 . S
C365 C366 1.287 . S
C366 C365 1.287 . S
C366 C367 1.524 . S
C366 H385 0.913 . S
C367 H343 0.950 . S
C367 C366 1.524 . S
C367 C368 1.415 . S
C368 H344 0.950 . S
C368 C363 1.363 . S
C368 C367 1.415 . S
C369 H345 0.951 . S
C369 C370 1.366 . S
C369 C371 1.388 . S
C370 C369 1.366 . S
C370 C374 1.385 . S
C371 H346 0.951 . S
C371 C369 1.388 . S
C371 C372 1.366 . S
C372 C371 1.366 . S
C372 C373 1.414 . S
C372 C375 1.499 . S
C373 H347 0.950 . S
C373 C372 1.414 . S
C373 C374 1.374 . S
C374 H348 0.950 . S
C374 C370 1.385 . S
C374 C373 1.374 . S
C375 C372 1.499 . S
C375 C376 1.373 . S
C375 C377 1.389 . S
C376 H349 0.950 . S
C376 C362 1.377 . S
C376 C375 1.373 . S
C377 C361 1.377 . S
C377 C375 1.389 . S
C377 C378 1.524 . S
C378 C377 1.524 . S
C378 C379 1.397 . S
C378 C383 1.363 . S
C379 H350 0.950 . S
C379 C378 1.397 . S
C379 C380 1.334 . S
C380 H351 0.950 . S
C380 C379 1.334 . S
C380 C381 1.287 . S
C381 C380 1.287 . S
C381 C382 1.524 . S
C381 H384 0.999 . S
C382 H352 0.950 . S
C382 C381 1.524 . S
C382 C383 1.415 . S
C383 H353 0.950 . S
C383 C378 1.363 . S
C383 C382 1.415 . S
H384 C381 0.999 . S
H385 C366 0.913 . S
H386 C404 0.951 . S
H387 C406 0.951 . S
H388 C408 0.950 . S
H389 C409 0.950 . S
H390 C411 0.950 . S
H391 C414 0.950 . S
H392 C415 0.950 . S
H393 C417 0.950 . S
H394 C418 0.950 . S
H395 C419 0.951 . S
H396 C421 0.951 . S
H397 C423 0.950 . S
H398 C424 0.950 . S
H399 C426 0.950 . S
H400 C429 0.950 . S
H401 C430 0.950 . S
H402 C432 0.950 . S
H403 C433 0.950 . S
C404 H386 0.951 . S
C404 C405 1.366 . S
C404 C406 1.388 . S
C405 C404 1.366 . S
C405 C409 1.385 . S
C406 H387 0.951 . S
C406 C404 1.388 . S
C406 C407 1.366 . S
C407 C406 1.366 . S
C407 C408 1.414 . S
C407 C410 1.499 . S
C408 H388 0.950 . S
C408 C407 1.414 . S
C408 C409 1.374 . S
C409 H389 0.950 . S
C409 C405 1.385 . S
C409 C408 1.374 . S
C410 C407 1.499 . S
C410 C411 1.373 . S
C410 C412 1.389 . S
C411 H390 0.950 . S
C411 C410 1.373 . S
C411 C427 1.377 . S
C412 C410 1.389 . S
C412 C413 1.524 . S
C412 C426 1.377 . S
C413 C412 1.524 . S
C413 C414 1.397 . S
C413 C418 1.363 . S
C414 H391 0.950 . S
C414 C413 1.397 . S
C414 C415 1.334 . S
C415 H392 0.950 . S
C415 C414 1.334 . S
C415 C416 1.287 . S
C416 C415 1.287 . S
C416 C417 1.524 . S
C416 H435 0.913 . S
C417 H393 0.950 . S
C417 C416 1.524 . S
C417 C418 1.415 . S
C418 H394 0.950 . S
C418 C413 1.363 . S
C418 C417 1.415 . S
C419 H395 0.951 . S
C419 C420 1.366 . S
C419 C421 1.388 . S
C420 C419 1.366 . S
C420 C424 1.385 . S
C421 H396 0.951 . S
C421 C419 1.388 . S
C421 C422 1.366 . S
C422 C421 1.366 . S
C422 C423 1.414 . S
C422 C425 1.499 . S
C423 H397 0.950 . S
C423 C422 1.414 . S
C423 C424 1.374 . S
C424 H398 0.950 . S
C424 C420 1.385 . S
C424 C423 1.374 . S
C425 C422 1.499 . S
C425 C426 1.373 . S
C425 C427 1.389 . S
C426 H399 0.950 . S
C426 C412 1.377 . S
C426 C425 1.373 . S
C427 C411 1.377 . S
C427 C425 1.389 . S
C427 C428 1.524 . S
C428 C427 1.524 . S
C428 C429 1.397 . S
C428 C433 1.363 . S
C429 H400 0.950 . S
C429 C428 1.397 . S
C429 C430 1.334 . S
C430 H401 0.950 . S
C430 C429 1.334 . S
C430 C431 1.287 . S
C431 C430 1.287 . S
C431 C432 1.524 . S
C431 H434 0.999 . S
C432 H402 0.950 . S
C432 C431 1.524 . S
C432 C433 1.415 . S
C433 H403 0.950 . S
C433 C428 1.363 . S
C433 C432 1.415 . S
H434 C431 0.999 . S
H435 C416 0.913 . S
H436 C454 0.951 1_655 S
H437 C456 0.951 1_655 S
H438 C458 0.950 . S
H439 C459 0.950 . S
H440 C461 0.950 . S
H441 C464 0.950 . S
H442 C465 0.950 . S
H443 C467 0.950 1_655 S
H444 C468 0.950 1_655 S
H445 C469 0.951 . S
H446 C471 0.951 . S
H447 C473 0.950 . S
H448 C474 0.950 . S
H449 C476 0.950 . S
H450 C479 0.950 . S
H451 C480 0.950 . S
H452 C482 0.950 . S
H453 C483 0.950 . S
C454 H436 0.951 1_455 S
C454 C455 1.366 . S
C454 C456 1.388 . S
C455 C454 1.366 . S
C455 C459 1.385 . S
C456 H437 0.951 1_455 S
C456 C454 1.388 . S
C456 C457 1.366 . S
C457 C456 1.366 . S
C457 C458 1.414 . S
C457 C460 1.499 . S
C458 H438 0.950 . S
C458 C457 1.414 . S
C458 C459 1.374 . S
C459 H439 0.950 . S
C459 C455 1.385 . S
C459 C458 1.374 . S
C460 C457 1.499 . S
C460 C461 1.373 . S
C460 C462 1.389 . S
C461 H440 0.950 . S
C461 C460 1.373 . S
C461 C477 1.377 . S
C462 C460 1.389 . S
C462 C463 1.524 . S
C462 C476 1.377 . S
C463 C462 1.524 . S
C463 C464 1.397 . S
C463 C468 1.363 . S
C464 H441 0.950 . S
C464 C463 1.397 . S
C464 C465 1.334 . S
C465 H442 0.950 . S
C465 C464 1.334 . S
C465 C466 1.287 . S
C466 C465 1.287 . S
C466 C467 1.524 . S
C466 H485 0.913 . S
C467 H443 0.950 1_455 S
C467 C466 1.524 . S
C467 C468 1.415 . S
C468 H444 0.950 1_455 S
C468 C463 1.363 . S
C468 C467 1.415 . S
C469 H445 0.951 . S
C469 C470 1.366 . S
C469 C471 1.388 . S
C470 C469 1.366 . S
C470 C474 1.385 . S
C471 H446 0.951 . S
C471 C469 1.388 . S
C471 C472 1.366 . S
C472 C471 1.366 . S
C472 C473 1.414 . S
C472 C475 1.499 . S
C473 H447 0.950 . S
C473 C472 1.414 . S
C473 C474 1.374 . S
C474 H448 0.950 . S
C474 C470 1.385 . S
C474 C473 1.374 . S
C475 C472 1.499 . S
C475 C476 1.373 . S
C475 C477 1.389 . S
C476 H449 0.950 . S
C476 C462 1.377 . S
C476 C475 1.373 . S
C477 C461 1.377 . S
C477 C475 1.389 . S
C477 C478 1.524 . S
C478 C477 1.524 . S
C478 C479 1.397 . S
C478 C483 1.363 . S
C479 H450 0.950 . S
C479 C478 1.397 . S
C479 C480 1.334 . S
C480 H451 0.950 . S
C480 C479 1.334 . S
C480 C481 1.287 . S
C481 C480 1.287 . S
C481 C482 1.524 . S
C481 H484 0.999 . S
C482 H452 0.950 . S
C482 C481 1.524 . S
C482 C483 1.415 . S
C483 H453 0.950 . S
C483 C478 1.363 . S
C483 C482 1.415 . S
H484 C481 0.999 . S
H485 C466 0.913 . S
H486 C504 0.951 . S
H487 C506 0.951 . S
H488 C508 0.950 . S
H489 C509 0.950 . S
H490 C511 0.950 . S
H491 C514 0.950 . S
H492 C515 0.950 . S
H493 C517 0.950 . S
H494 C518 0.950 . S
H495 C519 0.951 . S
H496 C521 0.951 . S
H497 C523 0.950 . S
H498 C524 0.950 . S
H499 C526 0.950 . S
H500 C529 0.950 . S
H501 C530 0.950 . S
H502 C532 0.950 . S
H503 C533 0.950 . S
C504 H486 0.951 . S
C504 C505 1.366 . S
C504 C506 1.388 . S
C505 C504 1.366 . S
C505 C509 1.385 . S
C506 H487 0.951 . S
C506 C504 1.388 . S
C506 C507 1.366 . S
C507 C506 1.366 . S
C507 C508 1.414 . S
C507 C510 1.499 . S
C508 H488 0.950 . S
C508 C507 1.414 . S
C508 C509 1.374 . S
C509 H489 0.950 . S
C509 C505 1.385 . S
C509 C508 1.374 . S
C510 C507 1.499 . S
C510 C511 1.373 . S
C510 C512 1.389 . S
C511 H490 0.950 . S
C511 C510 1.373 . S
C511 C527 1.377 . S
C512 C510 1.389 . S
C512 C513 1.524 . S
C512 C526 1.377 . S
C513 C512 1.524 . S
C513 C514 1.397 . S
C513 C518 1.363 . S
C514 H491 0.950 . S
C514 C513 1.397 . S
C514 C515 1.334 . S
C515 H492 0.950 . S
C515 C514 1.334 . S
C515 C516 1.287 . S
C516 C515 1.287 . S
C516 C517 1.524 . S
C516 H535 0.913 . S
C517 H493 0.950 . S
C517 C516 1.524 . S
C517 C518 1.415 . S
C518 H494 0.950 . S
C518 C513 1.363 . S
C518 C517 1.415 . S
C519 H495 0.951 . S
C519 C520 1.366 . S
C519 C521 1.388 1_455 S
C520 C519 1.366 . S
C520 C524 1.385 . S
C521 H496 0.951 . S
C521 C519 1.388 1_655 S
C521 C522 1.366 . S
C522 C521 1.366 . S
C522 C523 1.414 . S
C522 C525 1.499 . S
C523 H497 0.950 . S
C523 C522 1.414 . S
C523 C524 1.374 1_655 S
C524 H498 0.950 . S
C524 C520 1.385 . S
C524 C523 1.374 1_455 S
C525 C522 1.499 . S
C525 C526 1.373 . S
C525 C527 1.389 . S
C526 H499 0.950 . S
C526 C512 1.377 . S
C526 C525 1.373 . S
C527 C511 1.377 . S
C527 C525 1.389 . S
C527 C528 1.524 . S
C528 C527 1.524 . S
C528 C529 1.397 . S
C528 C533 1.363 . S
C529 H500 0.950 . S
C529 C528 1.397 . S
C529 C530 1.334 1_655 S
C530 H501 0.950 . S
C530 C529 1.334 1_455 S
C530 C531 1.287 . S
C531 C530 1.287 . S
C531 C532 1.524 1_455 S
C531 H534 0.999 . S
C532 H502 0.950 . S
C532 C531 1.524 1_655 S
C532 C533 1.415 . S
C533 H503 0.950 . S
C533 C528 1.363 . S
C533 C532 1.415 . S
H534 C531 0.999 . S
H535 C516 0.913 . S
H536 C554 0.951 . S
H537 C556 0.951 . S
H538 C558 0.950 . S
H539 C559 0.950 . S
H540 C561 0.950 . S
H541 C564 0.950 . S
H542 C565 0.950 . S
H543 C567 0.950 . S
H544 C568 0.950 . S
H545 C569 0.951 . S
H546 C571 0.951 . S
H547 C573 0.950 . S
H548 C574 0.950 . S
H549 C576 0.950 . S
H550 C579 0.950 . S
H551 C580 0.950 . S
H552 C582 0.950 . S
H553 C583 0.950 . S
C554 H536 0.951 . S
C554 C555 1.366 . S
C554 C556 1.388 . S
C555 C554 1.366 . S
C555 C559 1.385 . S
C556 H537 0.951 . S
C556 C554 1.388 . S
C556 C557 1.366 . S
C557 C556 1.366 . S
C557 C558 1.414 . S
C557 C560 1.499 . S
C558 H538 0.950 . S
C558 C557 1.414 . S
C558 C559 1.374 . S
C559 H539 0.950 . S
C559 C555 1.385 . S
C559 C558 1.374 . S
C560 C557 1.499 . S
C560 C561 1.373 . S
C560 C562 1.389 . S
C561 H540 0.950 . S
C561 C560 1.373 . S
C561 C577 1.377 . S
C562 C560 1.389 . S
C562 C563 1.524 . S
C562 C576 1.377 . S
C563 C562 1.524 . S
C563 C564 1.397 . S
C563 C568 1.363 . S
C564 H541 0.950 . S
C564 C563 1.397 . S
C564 C565 1.334 . S
C565 H542 0.950 . S
C565 C564 1.334 . S
C565 C566 1.287 . S
C566 C565 1.287 . S
C566 C567 1.524 . S
C566 H585 0.913 . S
C567 H543 0.950 . S
C567 C566 1.524 . S
C567 C568 1.415 . S
C568 H544 0.950 . S
C568 C563 1.363 . S
C568 C567 1.415 . S
C569 H545 0.951 . S
C569 C570 1.366 . S
C569 C571 1.388 . S
C570 C569 1.366 . S
C570 C574 1.385 . S
C571 H546 0.951 . S
C571 C569 1.388 . S
C571 C572 1.366 . S
C572 C571 1.366 . S
C572 C573 1.414 . S
C572 C575 1.499 . S
C573 H547 0.950 . S
C573 C572 1.414 . S
C573 C574 1.374 . S
C574 H548 0.950 . S
C574 C570 1.385 . S
C574 C573 1.374 . S
C575 C572 1.499 . S
C575 C576 1.373 . S
C575 C577 1.389 . S
C576 H549 0.950 . S
C576 C562 1.377 . S
C576 C575 1.373 . S
C577 C561 1.377 . S
C577 C575 1.389 . S
C577 C578 1.524 . S
C578 C577 1.524 . S
C578 C579 1.397 . S
C578 C583 1.363 . S
C579 H550 0.950 . S
C579 C578 1.397 . S
C579 C580 1.334 . S
C580 H551 0.950 . S
C580 C579 1.334 . S
C580 C581 1.287 . S
C581 C580 1.287 . S
C581 C582 1.524 . S
C581 H584 0.999 . S
C582 H552 0.950 . S
C582 C581 1.524 . S
C582 C583 1.415 . S
C583 H553 0.950 . S
C583 C578 1.363 . S
C583 C582 1.415 . S
H584 C581 0.999 . S
H585 C566 0.913 . S
H586 C604 0.951 . S
H587 C606 0.951 1_655 S
H588 C608 0.950 1_655 S
H589 C609 0.950 . S
H590 C611 0.950 . S
H591 C614 0.950 . S
H592 C615 0.950 1_455 S
H593 C617 0.950 . S
H594 C618 0.950 . S
H595 C619 0.951 . S
H596 C621 0.951 . S
H597 C623 0.950 . S
H598 C624 0.950 . S
H599 C626 0.950 . S
H600 C629 0.950 . S
H601 C630 0.950 . S
H602 C632 0.950 . S
H603 C633 0.950 . S
C604 H586 0.951 . S
C604 C605 1.366 . S
C604 C606 1.388 . S
C605 C604 1.366 . S
C605 C609 1.385 . S
C606 H587 0.951 1_455 S
C606 C604 1.388 . S
C606 C607 1.366 1_455 S
C607 C606 1.366 1_655 S
C607 C608 1.414 1_655 S
C607 C610 1.499 . S
C608 H588 0.950 1_455 S
C608 C607 1.414 1_455 S
C608 C609 1.374 . S
C609 H589 0.950 . S
C609 C605 1.385 . S
C609 C608 1.374 . S
C610 C607 1.499 . S
C610 C611 1.373 . S
C610 C612 1.389 . S
C611 H590 0.950 . S
C611 C610 1.373 . S
C611 C627 1.377 . S
C612 C610 1.389 . S
C612 C613 1.524 . S
C612 C626 1.377 . S
C613 C612 1.524 . S
C613 C614 1.397 . S
C613 C618 1.363 . S
C614 H591 0.950 . S
C614 C613 1.397 . S
C614 C615 1.334 . S
C615 H592 0.950 1_655 S
C615 C614 1.334 . S
C615 C616 1.287 . S
C616 C615 1.287 . S
C616 C617 1.524 . S
C616 H635 0.913 . S
C617 H593 0.950 . S
C617 C616 1.524 . S
C617 C618 1.415 . S
C618 H594 0.950 . S
C618 C613 1.363 . S
C618 C617 1.415 . S
C619 H595 0.951 . S
C619 C620 1.366 . S
C619 C621 1.388 . S
C620 C619 1.366 . S
C620 C624 1.385 . S
C621 H596 0.951 . S
C621 C619 1.388 . S
C621 C622 1.366 . S
C622 C621 1.366 . S
C622 C623 1.414 . S
C622 C625 1.499 . S
C623 H597 0.950 . S
C623 C622 1.414 . S
C623 C624 1.374 . S
C624 H598 0.950 . S
C624 C620 1.385 . S
C624 C623 1.374 . S
C625 C622 1.499 . S
C625 C626 1.373 . S
C625 C627 1.389 . S
C626 H599 0.950 . S
C626 C612 1.377 . S
C626 C625 1.373 . S
C627 C611 1.377 . S
C627 C625 1.389 . S
C627 C628 1.524 . S
C628 C627 1.524 . S
C628 C629 1.397 . S
C628 C633 1.363 . S
C629 H600 0.950 . S
C629 C628 1.397 . S
C629 C630 1.334 . S
C630 H601 0.950 . S
C630 C629 1.334 . S
C630 C631 1.287 . S
C631 C630 1.287 . S
C631 C632 1.524 . S
C631 H634 0.999 . S
C632 H602 0.950 . S
C632 C631 1.524 . S
C632 C633 1.415 . S
C633 H603 0.950 . S
C633 C628 1.363 . S
C633 C632 1.415 . S
H634 C631 0.999 . S
H635 C616 0.913 . S
H636 C654 0.951 . S
H637 C656 0.951 . S
H638 C658 0.950 . S
H639 C659 0.950 . S
H640 C661 0.950 . S
H641 C664 0.950 . S
H642 C665 0.950 . S
H643 C667 0.950 . S
H644 C668 0.950 . S
H645 C669 0.951 . S
H646 C671 0.951 . S
H647 C673 0.950 . S
H648 C674 0.950 . S
H649 C676 0.950 . S
H650 C679 0.950 . S
H651 C680 0.950 . S
H652 C682 0.950 . S
H653 C683 0.950 . S
C654 H636 0.951 . S
C654 C655 1.366 . S
C654 C656 1.388 . S
C655 C654 1.366 . S
C655 C659 1.385 . S
C656 H637 0.951 . S
C656 C654 1.388 . S
C656 C657 1.366 . S
C657 C656 1.366 . S
C657 C658 1.414 . S
C657 C660 1.499 . S
C658 H638 0.950 . S
C658 C657 1.414 . S
C658 C659 1.374 . S
C659 H639 0.950 . S
C659 C655 1.385 . S
C659 C658 1.374 . S
C660 C657 1.499 . S
C660 C661 1.373 . S
C660 C662 1.389 . S
C661 H640 0.950 . S
C661 C660 1.373 . S
C661 C677 1.377 . S
C662 C660 1.389 . S
C662 C663 1.524 . S
C662 C676 1.377 . S
C663 C662 1.524 . S
C663 C664 1.397 . S
C663 C668 1.363 . S
C664 H641 0.950 . S
C664 C663 1.397 . S
C664 C665 1.334 . S
C665 H642 0.950 . S
C665 C664 1.334 . S
C665 C666 1.287 . S
C666 C665 1.287 . S
C666 C667 1.524 . S
C666 H685 0.913 . S
C667 H643 0.950 . S
C667 C666 1.524 . S
C667 C668 1.415 . S
C668 H644 0.950 . S
C668 C663 1.363 . S
C668 C667 1.415 . S
C669 H645 0.951 . S
C669 C670 1.366 . S
C669 C671 1.388 . S
C670 C669 1.366 . S
C670 C674 1.385 . S
C671 H646 0.951 . S
C671 C669 1.388 . S
C671 C672 1.366 . S
C672 C671 1.366 . S
C672 C673 1.414 . S
C672 C675 1.499 . S
C673 H647 0.950 . S
C673 C672 1.414 . S
C673 C674 1.374 . S
C674 H648 0.950 . S
C674 C670 1.385 . S
C674 C673 1.374 . S
C675 C672 1.499 . S
C675 C676 1.373 . S
C675 C677 1.389 . S
C676 H649 0.950 . S
C676 C662 1.377 . S
C676 C675 1.373 . S
C677 C661 1.377 . S
C677 C675 1.389 . S
C677 C678 1.524 . S
C678 C677 1.524 . S
C678 C679 1.397 . S
C678 C683 1.363 . S
C679 H650 0.950 . S
C679 C678 1.397 . S
C679 C680 1.334 . S
C680 H651 0.950 . S
C680 C679 1.334 . S
C680 C681 1.287 . S
C681 C680 1.287 . S
C681 C682 1.524 . S
C681 H684 0.999 . S
C682 H652 0.950 . S
C682 C681 1.524 . S
C682 C683 1.415 . S
C683 H653 0.950 . S
C683 C678 1.363 . S
C683 C682 1.415 . S
H684 C681 0.999 . S
H685 C666 0.913 . S
H686 C704 0.951 . S
H687 C706 0.951 . S
H688 C708 0.950 . S
H689 C709 0.950 . S
H690 C711 0.950 . S
H691 C714 0.950 . S
H692 C715 0.950 . S
H693 C717 0.950 . S
H694 C718 0.950 . S
H695 C719 0.951 . S
H696 C721 0.951 . S
H697 C723 0.950 . S
H698 C724 0.950 . S
H699 C726 0.950 . S
H700 C729 0.950 . S
H701 C730 0.950 . S
H702 C732 0.950 . S
H703 C733 0.950 . S
C704 H686 0.951 . S
C704 C705 1.366 . S
C704 C706 1.388 . S
C705 C704 1.366 . S
C705 C709 1.385 . S
C706 H687 0.951 . S
C706 C704 1.388 . S
C706 C707 1.366 . S
C707 C706 1.366 . S
C707 C708 1.414 . S
C707 C710 1.499 . S
C708 H688 0.950 . S
C708 C707 1.414 . S
C708 C709 1.374 . S
C709 H689 0.950 . S
C709 C705 1.385 . S
C709 C708 1.374 . S
C710 C707 1.499 . S
C710 C711 1.373 . S
C710 C712 1.389 . S
C711 H690 0.950 . S
C711 C710 1.373 . S
C711 C727 1.377 . S
C712 C710 1.389 . S
C712 C713 1.524 . S
C712 C726 1.377 . S
C713 C712 1.524 . S
C713 C714 1.397 . S
C713 C718 1.363 . S
C714 H691 0.950 . S
C714 C713 1.397 . S
C714 C715 1.334 . S
C715 H692 0.950 . S
C715 C714 1.334 . S
C715 C716 1.287 . S
C716 C715 1.287 . S
C716 C717 1.524 . S
C716 H735 0.913 . S
C717 H693 0.950 . S
C717 C716 1.524 . S
C717 C718 1.415 . S
C718 H694 0.950 . S
C718 C713 1.363 . S
C718 C717 1.415 . S
C719 H695 0.951 . S
C719 C720 1.366 . S
C719 C721 1.388 . S
C720 C719 1.366 . S
C720 C724 1.385 . S
C721 H696 0.951 . S
C721 C719 1.388 . S
C721 C722 1.366 . S
C722 C721 1.366 . S
C722 C723 1.414 . S
C722 C725 1.499 . S
C723 H697 0.950 . S
C723 C722 1.414 . S
C723 C724 1.374 . S
C724 H698 0.950 . S
C724 C720 1.385 . S
C724 C723 1.374 . S
C725 C722 1.499 . S
C725 C726 1.373 . S
C725 C727 1.389 . S
C726 H699 0.950 . S
C726 C712 1.377 . S
C726 C725 1.373 . S
C727 C711 1.377 . S
C727 C725 1.389 . S
C727 C728 1.524 . S
C728 C727 1.524 . S
C728 C729 1.397 . S
C728 C733 1.363 . S
C729 H700 0.950 . S
C729 C728 1.397 . S
C729 C730 1.334 . S
C730 H701 0.950 . S
C730 C729 1.334 . S
C730 C731 1.287 . S
C731 C730 1.287 . S
C731 C732 1.524 . S
C731 H734 0.999 . S
C732 H702 0.950 . S
C732 C731 1.524 . S
C732 C733 1.415 . S
C733 H703 0.950 . S
C733 C728 1.363 . S
C733 C732 1.415 . S
H734 C731 0.999 . S
H735 C716 0.913 . S
H736 C754 0.951 . S
H737 C756 0.951 . S
H738 C758 0.950 . S
H739 C759 0.950 . S
H740 C761 0.950 . S
H741 C764 0.950 . S
H742 C765 0.950 . S
H743 C767 0.950 . S
H744 C768 0.950 . S
H745 C769 0.951 . S
H746 C771 0.951 . S
H747 C773 0.950 . S
H748 C774 0.950 . S
H749 C776 0.950 . S
H750 C779 0.950 . S
H751 C780 0.950 . S
H752 C782 0.950 . S
H753 C783 0.950 . S
C754 H736 0.951 . S
C754 C755 1.366 . S
C754 C756 1.388 . S
C755 C754 1.366 . S
C755 C759 1.385 . S
C756 H737 0.951 . S
C756 C754 1.388 . S
C756 C757 1.366 . S
C757 C756 1.366 . S
C757 C758 1.414 . S
C757 C760 1.499 . S
C758 H738 0.950 . S
C758 C757 1.414 . S
C758 C759 1.374 . S
C759 H739 0.950 . S
C759 C755 1.385 . S
C759 C758 1.374 . S
C760 C757 1.499 . S
C760 C761 1.373 . S
C760 C762 1.389 . S
C761 H740 0.950 . S
C761 C760 1.373 . S
C761 C777 1.377 . S
C762 C760 1.389 . S
C762 C763 1.524 . S
C762 C776 1.377 . S
C763 C762 1.524 . S
C763 C764 1.397 . S
C763 C768 1.363 . S
C764 H741 0.950 . S
C764 C763 1.397 . S
C764 C765 1.334 . S
C765 H742 0.950 . S
C765 C764 1.334 . S
C765 C766 1.287 . S
C766 C765 1.287 . S
C766 C767 1.524 . S
C766 H785 0.913 . S
C767 H743 0.950 . S
C767 C766 1.524 . S
C767 C768 1.415 . S
C768 H744 0.950 . S
C768 C763 1.363 . S
C768 C767 1.415 . S
C769 H745 0.951 . S
C769 C770 1.366 . S
C769 C771 1.388 . S
C770 C769 1.366 . S
C770 C774 1.385 . S
C771 H746 0.951 . S
C771 C769 1.388 . S
C771 C772 1.366 . S
C772 C771 1.366 . S
C772 C773 1.414 . S
C772 C775 1.499 . S
C773 H747 0.950 . S
C773 C772 1.414 . S
C773 C774 1.374 . S
C774 H748 0.950 . S
C774 C770 1.385 . S
C774 C773 1.374 . S
C775 C772 1.499 . S
C775 C776 1.373 . S
C775 C777 1.389 . S
C776 H749 0.950 . S
C776 C762 1.377 . S
C776 C775 1.373 . S
C777 C761 1.377 . S
C777 C775 1.389 . S
C777 C778 1.524 . S
C778 C777 1.524 . S
C778 C779 1.397 . S
C778 C783 1.363 . S
C779 H750 0.950 . S
C779 C778 1.397 . S
C779 C780 1.334 . S
C780 H751 0.950 . S
C780 C779 1.334 . S
C780 C781 1.287 . S
C781 C780 1.287 . S
C781 C782 1.524 . S
C781 H784 0.999 . S
C782 H752 0.950 . S
C782 C781 1.524 . S
C782 C783 1.415 . S
C783 H753 0.950 . S
C783 C778 1.363 . S
C783 C782 1.415 . S
H784 C781 0.999 . S
H785 C766 0.913 . S
H786 C804 0.951 . S
H787 C806 0.951 . S
H788 C808 0.950 . S
H789 C809 0.950 . S
H790 C811 0.950 . S
H791 C814 0.950 . S
H792 C815 0.950 . S
H793 C817 0.950 . S
H794 C818 0.950 . S
H795 C819 0.951 . S
H796 C821 0.951 . S
H797 C823 0.950 . S
H798 C824 0.950 . S
H799 C826 0.950 . S
H800 C829 0.950 . S
H801 C830 0.950 . S
H802 C832 0.950 . S
H803 C833 0.950 . S
C804 H786 0.951 . S
C804 C805 1.366 . S
C804 C806 1.388 . S
C805 C804 1.366 . S
C805 C809 1.385 . S
C806 H787 0.951 . S
C806 C804 1.388 . S
C806 C807 1.366 . S
C807 C806 1.366 . S
C807 C808 1.414 . S
C807 C810 1.499 . S
C808 H788 0.950 . S
C808 C807 1.414 . S
C808 C809 1.374 . S
C809 H789 0.950 . S
C809 C805 1.385 . S
C809 C808 1.374 . S
C810 C807 1.499 . S
C810 C811 1.373 . S
C810 C812 1.389 . S
C811 H790 0.950 . S
C811 C810 1.373 . S
C811 C827 1.377 . S
C812 C810 1.389 . S
C812 C813 1.524 . S
C812 C826 1.377 . S
C813 C812 1.524 . S
C813 C814 1.397 . S
C813 C818 1.363 . S
C814 H791 0.950 . S
C814 C813 1.397 . S
C814 C815 1.334 . S
C815 H792 0.950 . S
C815 C814 1.334 . S
C815 C816 1.287 . S
C816 C815 1.287 . S
C816 C817 1.524 . S
C816 H835 0.913 . S
C817 H793 0.950 . S
C817 C816 1.524 . S
C817 C818 1.415 . S
C818 H794 0.950 . S
C818 C813 1.363 . S
C818 C817 1.415 . S
C819 H795 0.951 . S
C819 C820 1.366 . S
C819 C821 1.388 . S
C820 C819 1.366 . S
C820 C824 1.385 . S
C821 H796 0.951 . S
C821 C819 1.388 . S
C821 C822 1.366 . S
C822 C821 1.366 . S
C822 C823 1.414 . S
C822 C825 1.499 . S
C823 H797 0.950 . S
C823 C822 1.414 . S
C823 C824 1.374 . S
C824 H798 0.950 . S
C824 C820 1.385 . S
C824 C823 1.374 . S
C825 C822 1.499 . S
C825 C826 1.373 . S
C825 C827 1.389 . S
C826 H799 0.950 . S
C826 C812 1.377 . S
C826 C825 1.373 . S
C827 C811 1.377 . S
C827 C825 1.389 . S
C827 C828 1.524 . S
C828 C827 1.524 . S
C828 C829 1.397 . S
C828 C833 1.363 . S
C829 H800 0.950 . S
C829 C828 1.397 . S
C829 C830 1.334 . S
C830 H801 0.950 . S
C830 C829 1.334 . S
C830 C831 1.287 . S
C831 C830 1.287 . S
C831 C832 1.524 . S
C831 H834 0.999 . S
C832 H802 0.950 . S
C832 C831 1.524 . S
C832 C833 1.415 . S
C833 H803 0.950 . S
C833 C828 1.363 . S
C833 C832 1.415 . S
H834 C831 0.999 . S
H835 C816 0.913 . S
H836 C854 0.951 . S
H837 C856 0.951 . S
H838 C858 0.950 . S
H839 C859 0.950 . S
H840 C861 0.950 . S
H841 C864 0.950 . S
H842 C865 0.950 . S
H843 C867 0.950 . S
H844 C868 0.950 . S
H845 C869 0.951 . S
H846 C871 0.951 . S
H847 C873 0.950 . S
H848 C874 0.950 . S
H849 C876 0.950 . S
H850 C879 0.950 . S
H851 C880 0.950 . S
H852 C882 0.950 . S
H853 C883 0.950 . S
C854 H836 0.951 . S
C854 C855 1.366 . S
C854 C856 1.388 . S
C855 C854 1.366 . S
C855 C859 1.385 . S
C856 H837 0.951 . S
C856 C854 1.388 . S
C856 C857 1.366 . S
C857 C856 1.366 . S
C857 C858 1.414 . S
C857 C860 1.499 . S
C858 H838 0.950 . S
C858 C857 1.414 . S
C858 C859 1.374 . S
C859 H839 0.950 . S
C859 C855 1.385 . S
C859 C858 1.374 . S
C860 C857 1.499 . S
C860 C861 1.373 . S
C860 C862 1.389 . S
C861 H840 0.950 . S
C861 C860 1.373 . S
C861 C877 1.377 . S
C862 C860 1.389 . S
C862 C863 1.524 . S
C862 C876 1.377 . S
C863 C862 1.524 . S
C863 C864 1.397 . S
C863 C868 1.363 . S
C864 H841 0.950 . S
C864 C863 1.397 . S
C864 C865 1.334 . S
C865 H842 0.950 . S
C865 C864 1.334 . S
C865 C866 1.287 . S
C866 C865 1.287 . S
C866 C867 1.524 . S
C866 H885 0.913 . S
C867 H843 0.950 . S
C867 C866 1.524 . S
C867 C868 1.415 . S
C868 H844 0.950 . S
C868 C863 1.363 . S
C868 C867 1.415 . S
C869 H845 0.951 . S
C869 C870 1.366 . S
C869 C871 1.388 . S
C870 C869 1.366 . S
C870 C874 1.385 . S
C871 H846 0.951 . S
C871 C869 1.388 . S
C871 C872 1.366 . S
C872 C871 1.366 . S
C872 C873 1.414 . S
C872 C875 1.499 1_545 S
C873 H847 0.950 . S
C873 C872 1.414 . S
C873 C874 1.374 . S
C874 H848 0.950 . S
C874 C870 1.385 . S
C874 C873 1.374 . S
C875 C872 1.499 1_565 S
C875 C876 1.373 . S
C875 C877 1.389 . S
C876 H849 0.950 . S
C876 C862 1.377 . S
C876 C875 1.373 . S
C877 C861 1.377 . S
C877 C875 1.389 . S
C877 C878 1.524 . S
C878 C877 1.524 . S
C878 C879 1.397 1_565 S
C878 C883 1.363 . S
C879 H850 0.950 . S
C879 C878 1.397 1_545 S
C879 C880 1.334 . S
C880 H851 0.950 . S
C880 C879 1.334 . S
C880 C881 1.287 . S
C881 C880 1.287 . S
C881 C882 1.524 . S
C881 H884 0.999 . S
C882 H852 0.950 . S
C882 C881 1.524 . S
C882 C883 1.415 1_545 S
C883 H853 0.950 . S
C883 C878 1.363 . S
C883 C882 1.415 1_565 S
H884 C881 0.999 . S
H885 C866 0.913 . S
H886 C904 0.951 . S
H887 C906 0.951 . S
H888 C908 0.950 . S
H889 C909 0.950 . S
H890 C911 0.950 . S
H891 C914 0.950 . S
H892 C915 0.950 . S
H893 C917 0.950 . S
H894 C918 0.950 . S
H895 C919 0.951 . S
H896 C921 0.951 . S
H897 C923 0.950 . S
H898 C924 0.950 . S
H899 C926 0.950 . S
H900 C929 0.950 . S
H901 C930 0.950 . S
H902 C932 0.950 . S
H903 C933 0.950 . S
C904 H886 0.951 . S
C904 C905 1.366 . S
C904 C906 1.388 . S
C905 C904 1.366 . S
C905 C909 1.385 . S
C906 H887 0.951 . S
C906 C904 1.388 . S
C906 C907 1.366 . S
C907 C906 1.366 . S
C907 C908 1.414 . S
C907 C910 1.499 1_545 S
C908 H888 0.950 . S
C908 C907 1.414 . S
C908 C909 1.374 . S
C909 H889 0.950 . S
C909 C905 1.385 . S
C909 C908 1.374 . S
C910 C907 1.499 1_565 S
C910 C911 1.373 . S
C910 C912 1.389 . S
C911 H890 0.950 . S
C911 C910 1.373 . S
C911 C927 1.377 . S
C912 C910 1.389 . S
C912 C913 1.524 . S
C912 C926 1.377 . S
C913 C912 1.524 . S
C913 C914 1.397 . S
C913 C918 1.363 . S
C914 H891 0.950 . S
C914 C913 1.397 . S
C914 C915 1.334 1_565 S
C915 H892 0.950 . S
C915 C914 1.334 1_545 S
C915 C916 1.287 . S
C916 C915 1.287 . S
C916 C917 1.524 1_545 S
C916 H935 0.913 . S
C917 H893 0.950 . S
C917 C916 1.524 1_565 S
C917 C918 1.415 . S
C918 H894 0.950 . S
C918 C913 1.363 . S
C918 C917 1.415 . S
C919 H895 0.951 . S
C919 C920 1.366 . S
C919 C921 1.388 . S
C920 C919 1.366 . S
C920 C924 1.385 . S
C921 H896 0.951 . S
C921 C919 1.388 . S
C921 C922 1.366 . S
C922 C921 1.366 . S
C922 C923 1.414 . S
C922 C925 1.499 . S
C923 H897 0.950 . S
C923 C922 1.414 . S
C923 C924 1.374 . S
C924 H898 0.950 . S
C924 C920 1.385 . S
C924 C923 1.374 . S
C925 C922 1.499 . S
C925 C926 1.373 . S
C925 C927 1.389 . S
C926 H899 0.950 . S
C926 C912 1.377 . S
C926 C925 1.373 . S
C927 C911 1.377 . S
C927 C925 1.389 . S
C927 C928 1.524 . S
C928 C927 1.524 . S
C928 C929 1.397 . S
C928 C933 1.363 . S
C929 H900 0.950 . S
C929 C928 1.397 . S
C929 C930 1.334 . S
C930 H901 0.950 . S
C930 C929 1.334 . S
C930 C931 1.287 . S
C931 C930 1.287 . S
C931 C932 1.524 . S
C931 H934 0.999 . S
C932 H902 0.950 . S
C932 C931 1.524 . S
C932 C933 1.415 . S
C933 H903 0.950 . S
C933 C928 1.363 . S
C933 C932 1.415 . S
H934 C931 0.999 . S
H935 C916 0.913 . S
H936 C954 0.951 . S
H937 C956 0.951 . S
H938 C958 0.950 . S
H939 C959 0.950 . S
H940 C961 0.950 . S
H941 C964 0.950 . S
H942 C965 0.950 . S
H943 C967 0.950 . S
H944 C968 0.950 . S
H945 C969 0.951 . S
H946 C971 0.951 . S
H947 C973 0.950 . S
H948 C974 0.950 . S
H949 C976 0.950 . S
H950 C979 0.950 . S
H951 C980 0.950 . S
H952 C982 0.950 . S
H953 C983 0.950 . S
C954 H936 0.951 . S
C954 C955 1.366 . S
C954 C956 1.388 . S
C955 C954 1.366 . S
C955 C959 1.385 . S
C956 H937 0.951 . S
C956 C954 1.388 . S
C956 C957 1.366 . S
C957 C956 1.366 . S
C957 C958 1.414 . S
C957 C960 1.499 . S
C958 H938 0.950 . S
C958 C957 1.414 . S
C958 C959 1.374 . S
C959 H939 0.950 . S
C959 C955 1.385 . S
C959 C958 1.374 . S
C960 C957 1.499 . S
C960 C961 1.373 . S
C960 C962 1.389 . S
C961 H940 0.950 . S
C961 C960 1.373 . S
C961 C977 1.377 . S
C962 C960 1.389 . S
C962 C963 1.524 . S
C962 C976 1.377 1_545 S
C963 C962 1.524 . S
C963 C964 1.397 . S
C963 C968 1.363 . S
C964 H941 0.950 . S
C964 C963 1.397 . S
C964 C965 1.334 . S
C965 H942 0.950 . S
C965 C964 1.334 . S
C965 C966 1.287 . S
C966 C965 1.287 . S
C966 C967 1.524 . S
C966 H985 0.913 . S
C967 H943 0.950 . S
C967 C966 1.524 . S
C967 C968 1.415 . S
C968 H944 0.950 . S
C968 C963 1.363 . S
C968 C967 1.415 . S
C969 H945 0.951 . S
C969 C970 1.366 . S
C969 C971 1.388 . S
C970 C969 1.366 . S
C970 C974 1.385 . S
C971 H946 0.951 . S
C971 C969 1.388 . S
C971 C972 1.366 . S
C972 C971 1.366 . S
C972 C973 1.414 . S
C972 C975 1.499 . S
C973 H947 0.950 . S
C973 C972 1.414 . S
C973 C974 1.374 . S
C974 H948 0.950 . S
C974 C970 1.385 . S
C974 C973 1.374 . S
C975 C972 1.499 . S
C975 C976 1.373 . S
C975 C977 1.389 1_565 S
C976 H949 0.950 . S
C976 C962 1.377 1_565 S
C976 C975 1.373 . S
C977 C961 1.377 . S
C977 C975 1.389 1_545 S
C977 C978 1.524 1_545 S
C978 C977 1.524 1_565 S
C978 C979 1.397 . S
C978 C983 1.363 1_565 S
C979 H950 0.950 . S
C979 C978 1.397 . S
C979 C980 1.334 . S
C980 H951 0.950 . S
C980 C979 1.334 . S
C980 C981 1.287 . S
C981 C980 1.287 . S
C981 C982 1.524 1_565 S
C981 H984 0.999 . S
C982 H952 0.950 . S
C982 C981 1.524 1_545 S
C982 C983 1.415 . S
C983 H953 0.950 . S
C983 C978 1.363 1_545 S
C983 C982 1.415 . S
H984 C981 0.999 . S
H985 C966 0.913 . S
H986 C1004 0.951 . S
H987 C1006 0.951 . S
H988 C1008 0.950 . S
H989 C1009 0.950 . S
H990 C1011 0.950 1_655 S
H991 C1014 0.950 . S
H992 C1015 0.950 . S
H993 C1017 0.950 . S
H994 C1018 0.950 . S
H995 C1019 0.951 . S
H996 C1021 0.951 . S
H997 C1023 0.950 . S
H998 C1024 0.950 . S
H999 C1026 0.950 . S
H1000 C1029 0.950 . S
H1001 C1030 0.950 . S
H1002 C1032 0.950 . S
H1003 C1033 0.950 . S
C1004 H986 0.951 . S
C1004 C1005 1.366 . S
C1004 C1006 1.388 . S
C1005 C1004 1.366 . S
C1005 C1009 1.385 . S
C1006 H987 0.951 . S
C1006 C1004 1.388 . S
C1006 C1007 1.366 . S
C1007 C1006 1.366 . S
C1007 C1008 1.414 . S
C1007 C1010 1.499 . S
C1008 H988 0.950 . S
C1008 C1007 1.414 . S
C1008 C1009 1.374 . S
C1009 H989 0.950 . S
C1009 C1005 1.385 . S
C1009 C1008 1.374 . S
C1010 C1007 1.499 . S
C1010 C1011 1.373 1_565 S
C1010 C1012 1.389 1_565 S
C1011 H990 0.950 1_455 S
C1011 C1010 1.373 1_545 S
C1011 C1027 1.377 . S
C1012 C1010 1.389 1_545 S
C1012 C1013 1.524 1_545 S
C1012 C1026 1.377 . S
C1013 C1012 1.524 1_565 S
C1013 C1014 1.397 . S
C1013 C1018 1.363 . S
C1014 H991 0.950 . S
C1014 C1013 1.397 . S
C1014 C1015 1.334 . S
C1015 H992 0.950 . S
C1015 C1014 1.334 . S
C1015 C1016 1.287 . S
C1016 C1015 1.287 . S
C1016 C1017 1.524 . S
C1016 H1035 0.913 . S
C1017 H993 0.950 . S
C1017 C1016 1.524 . S
C1017 C1018 1.415 . S
C1018 H994 0.950 . S
C1018 C1013 1.363 . S
C1018 C1017 1.415 . S
C1019 H995 0.951 . S
C1019 C1020 1.366 . S
C1019 C1021 1.388 . S
C1020 C1019 1.366 . S
C1020 C1024 1.385 . S
C1021 H996 0.951 . S
C1021 C1019 1.388 . S
C1021 C1022 1.366 . S
C1022 C1021 1.366 . S
C1022 C1023 1.414 . S
C1022 C1025 1.499 . S
C1023 H997 0.950 . S
C1023 C1022 1.414 . S
C1023 C1024 1.374 . S
C1024 H998 0.950 . S
C1024 C1020 1.385 . S
C1024 C1023 1.374 . S
C1025 C1022 1.499 . S
C1025 C1026 1.373 . S
C1025 C1027 1.389 . S
C1026 H999 0.950 . S
C1026 C1012 1.377 . S
C1026 C1025 1.373 . S
C1027 C1011 1.377 . S
C1027 C1025 1.389 . S
C1027 C1028 1.524 1_455 S
C1028 C1027 1.524 1_655 S
C1028 C1029 1.397 . S
C1028 C1033 1.363 . S
C1029 H1000 0.950 . S
C1029 C1028 1.397 . S
C1029 C1030 1.334 . S
C1030 H1001 0.950 . S
C1030 C1029 1.334 . S
C1030 C1031 1.287 . S
C1031 C1030 1.287 . S
C1031 C1032 1.524 . S
C1031 H1034 0.999 . S
C1032 H1002 0.950 . S
C1032 C1031 1.524 . S
C1032 C1033 1.415 . S
C1033 H1003 0.950 . S
C1033 C1028 1.363 . S
C1033 C1032 1.415 . S
H1034 C1031 0.999 . S
H1035 C1016 0.913 . S
H1036 C1054 0.951 . S
H1037 C1056 0.951 . S
H1038 C1058 0.950 . S
H1039 C1059 0.950 . S
H1040 C1061 0.950 . S
H1041 C1064 0.950 . S
H1042 C1065 0.950 . S
H1043 C1067 0.950 . S
H1044 C1068 1.010 . S
H1045 C1069 0.951 . S
H1046 C1071 0.951 . S
H1047 C1073 0.950 . S
H1048 C1074 0.950 . S
H1049 C1076 0.950 . S
H1050 C1079 0.950 . S
H1051 C1080 0.950 . S
H1052 C1082 0.950 . S
H1053 C1083 0.950 . S
C1054 H1036 0.951 . S
C1054 C1055 1.366 . S
C1054 C1056 1.388 . S
C1055 C1054 1.366 . S
C1055 C1059 1.385 . S
C1056 H1037 0.951 . S
C1056 C1054 1.388 . S
C1056 C1057 1.366 . S
C1057 C1056 1.366 . S
C1057 C1058 1.414 . S
C1057 C1060 1.463 1_554 S
C1058 H1038 0.950 . S
C1058 C1057 1.414 . S
C1058 C1059 1.374 . S
C1059 H1039 0.950 . S
C1059 C1055 1.385 . S
C1059 C1058 1.374 . S
C1060 C1057 1.463 1_556 S
C1060 C1061 1.391 . S
C1060 C1062 1.410 . S
C1061 H1040 0.950 . S
C1061 C1060 1.391 . S
C1061 C1077 1.377 . S
C1062 C1060 1.410 . S
C1062 C1063 1.524 1_556 S
C1062 C1076 1.377 . S
C1063 C1062 1.524 1_554 S
C1063 C1064 1.397 . S
C1063 C1068 1.333 1_554 S
C1064 H1041 0.950 . S
C1064 C1063 1.397 . S
C1064 C1065 1.334 . S
C1065 H1042 0.950 . S
C1065 C1064 1.334 . S
C1065 C1066 1.287 . S
C1066 C1065 1.287 . S
C1066 C1067 1.524 . S
C1066 H1085 0.913 . S
C1067 H1043 0.950 . S
C1067 C1066 1.524 . S
C1067 C1068 1.390 1_554 S
C1068 H1044 1.010 . S
C1068 C1063 1.333 1_556 S
C1068 C1067 1.390 1_556 S
C1069 H1045 0.951 . S
C1069 C1070 1.366 . S
C1069 C1071 1.388 . S
C1070 C1069 1.366 . S
C1070 C1074 1.385 . S
C1071 H1046 0.951 . S
C1071 C1069 1.388 . S
C1071 C1072 1.366 . S
C1072 C1071 1.366 . S
C1072 C1073 1.414 . S
C1072 C1075 1.499 . S
C1073 H1047 0.950 . S
C1073 C1072 1.414 . S
C1073 C1074 1.374 . S
C1074 H1048 0.950 . S
C1074 C1070 1.385 . S
C1074 C1073 1.374 . S
C1075 C1072 1.499 . S
C1075 C1076 1.373 . S
C1075 C1077 1.389 . S
C1076 H1049 0.950 . S
C1076 C1062 1.377 . S
C1076 C1075 1.373 . S
C1077 C1061 1.377 . S
C1077 C1075 1.389 . S
C1077 C1078 1.524 . S
C1078 C1077 1.524 . S
C1078 C1079 1.397 . S
C1078 C1083 1.363 . S
C1079 H1050 0.950 . S
C1079 C1078 1.397 . S
C1079 C1080 1.334 . S
C1080 H1051 0.950 . S
C1080 C1079 1.334 . S
C1080 C1081 1.287 . S
C1081 C1080 1.287 . S
C1081 C1082 1.524 . S
C1081 H1084 0.999 . S
C1082 H1052 0.950 . S
C1082 C1081 1.524 . S
C1082 C1083 1.415 . S
C1083 H1053 0.950 . S
C1083 C1078 1.363 . S
C1083 C1082 1.415 . S
H1084 C1081 0.999 . S
H1085 C1066 0.913 . S
H1086 C1104 0.951 . S
H1087 C1106 0.951 . S
H1088 C1108 0.950 . S
H1089 C1109 0.950 . S
H1090 C1111 0.950 . S
H1091 C1114 0.950 . S
H1092 C1115 0.950 . S
H1093 C1117 0.950 . S
H1094 C1118 0.950 . S
H1095 C1119 0.951 . S
H1096 C1121 0.951 . S
H1097 C1123 0.950 . S
H1098 C1124 0.950 . S
H1099 C1126 0.950 . S
H1100 C1129 0.950 . S
H1101 C1130 0.950 . S
H1102 C1132 0.950 . S
H1103 C1133 0.950 . S
C1104 H1086 0.951 . S
C1104 C1105 1.366 . S
C1104 C1106 1.388 . S
C1105 C1104 1.366 . S
C1105 C1109 1.385 . S
C1106 H1087 0.951 . S
C1106 C1104 1.388 . S
C1106 C1107 1.366 . S
C1107 C1106 1.366 . S
C1107 C1108 1.414 . S
C1107 C1110 1.499 . S
C1108 H1088 0.950 . S
C1108 C1107 1.414 . S
C1108 C1109 1.374 . S
C1109 H1089 0.950 . S
C1109 C1105 1.385 . S
C1109 C1108 1.374 . S
C1110 C1107 1.499 . S
C1110 C1111 1.373 . S
C1110 C1112 1.389 . S
C1111 H1090 0.950 . S
C1111 C1110 1.373 . S
C1111 C1127 1.377 . S
C1112 C1110 1.389 . S
C1112 C1113 1.524 . S
C1112 C1126 1.377 . S
C1113 C1112 1.524 . S
C1113 C1114 1.397 . S
C1113 C1118 1.363 . S
C1114 H1091 0.950 . S
C1114 C1113 1.397 . S
C1114 C1115 1.334 . S
C1115 H1092 0.950 . S
C1115 C1114 1.334 . S
C1115 C1116 1.287 . S
C1116 C1115 1.287 . S
C1116 C1117 1.524 . S
C1116 H1135 0.913 . S
C1117 H1093 0.950 . S
C1117 C1116 1.524 . S
C1117 C1118 1.415 . S
C1118 H1094 0.950 . S
C1118 C1113 1.363 . S
C1118 C1117 1.415 . S
C1119 H1095 0.951 . S
C1119 C1120 1.366 . S
C1119 C1121 1.388 . S
C1120 C1119 1.366 . S
C1120 C1124 1.385 . S
C1121 H1096 0.951 . S
C1121 C1119 1.388 . S
C1121 C1122 1.366 . S
C1122 C1121 1.366 . S
C1122 C1123 1.414 . S
C1122 C1125 1.499 . S
C1123 H1097 0.950 . S
C1123 C1122 1.414 . S
C1123 C1124 1.374 . S
C1124 H1098 0.950 . S
C1124 C1120 1.385 . S
C1124 C1123 1.374 . S
C1125 C1122 1.499 . S
C1125 C1126 1.373 . S
C1125 C1127 1.389 . S
C1126 H1099 0.950 . S
C1126 C1112 1.377 . S
C1126 C1125 1.373 . S
C1127 C1111 1.377 . S
C1127 C1125 1.389 . S
C1127 C1128 1.524 . S
C1128 C1127 1.524 . S
C1128 C1129 1.397 . S
C1128 C1133 1.363 . S
C1129 H1100 0.950 . S
C1129 C1128 1.397 . S
C1129 C1130 1.334 . S
C1130 H1101 0.950 . S
C1130 C1129 1.334 . S
C1130 C1131 1.287 . S
C1131 C1130 1.287 . S
C1131 C1132 1.524 . S
C1131 H1134 0.999 1_455 S
C1132 H1102 0.950 . S
C1132 C1131 1.524 . S
C1132 C1133 1.415 . S
C1133 H1103 0.950 . S
C1133 C1128 1.363 . S
C1133 C1132 1.415 . S
H1134 C1131 0.999 1_655 S
H1135 C1116 0.913 . S
H1136 C1154 0.951 . S
H1137 C1156 0.951 . S
H1138 C1158 0.950 . S
H1139 C1159 0.950 . S
H1140 C1161 0.950 . S
H1141 C1164 0.950 . S
H1142 C1165 0.950 . S
H1143 C1167 0.950 . S
H1144 C1168 0.950 . S
H1145 C1169 0.951 . S
H1146 C1171 0.951 . S
H1147 C1173 0.950 . S
H1148 C1174 0.950 . S
H1149 C1176 0.950 . S
H1150 C1179 0.950 . S
H1151 C1180 0.950 . S
H1152 C1182 0.950 . S
H1153 C1183 0.950 . S
C1154 H1136 0.951 . S
C1154 C1155 1.366 . S
C1154 C1156 1.388 . S
C1155 C1154 1.366 . S
C1155 C1159 1.385 . S
C1156 H1137 0.951 . S
C1156 C1154 1.388 . S
C1156 C1157 1.366 . S
C1157 C1156 1.366 . S
C1157 C1158 1.414 . S
C1157 C1160 1.499 . S
C1158 H1138 0.950 . S
C1158 C1157 1.414 . S
C1158 C1159 1.374 . S
C1159 H1139 0.950 . S
C1159 C1155 1.385 . S
C1159 C1158 1.374 . S
C1160 C1157 1.499 . S
C1160 C1161 1.373 . S
C1160 C1162 1.389 . S
C1161 H1140 0.950 . S
C1161 C1160 1.373 . S
C1161 C1177 1.377 . S
C1162 C1160 1.389 . S
C1162 C1163 1.524 . S
C1162 C1176 1.377 . S
C1163 C1162 1.524 . S
C1163 C1164 1.397 . S
C1163 C1168 1.363 . S
C1164 H1141 0.950 . S
C1164 C1163 1.397 . S
C1164 C1165 1.334 . S
C1165 H1142 0.950 . S
C1165 C1164 1.334 . S
C1165 C1166 1.287 . S
C1166 C1165 1.287 . S
C1166 C1167 1.524 . S
C1166 H1185 0.913 . S
C1167 H1143 0.950 . S
C1167 C1166 1.524 . S
C1167 C1168 1.415 . S
C1168 H1144 0.950 . S
C1168 C1163 1.363 . S
C1168 C1167 1.415 . S
C1169 H1145 0.951 . S
C1169 C1170 1.366 . S
C1169 C1171 1.388 . S
C1170 C1169 1.366 . S
C1170 C1174 1.385 . S
C1171 H1146 0.951 . S
C1171 C1169 1.388 . S
C1171 C1172 1.366 . S
C1172 C1171 1.366 . S
C1172 C1173 1.414 . S
C1172 C1175 1.499 . S
C1173 H1147 0.950 . S
C1173 C1172 1.414 . S
C1173 C1174 1.374 . S
C1174 H1148 0.950 . S
C1174 C1170 1.385 . S
C1174 C1173 1.374 . S
C1175 C1172 1.499 . S
C1175 C1176 1.373 . S
C1175 C1177 1.389 . S
C1176 H1149 0.950 . S
C1176 C1162 1.377 . S
C1176 C1175 1.373 . S
C1177 C1161 1.377 . S
C1177 C1175 1.389 . S
C1177 C1178 1.524 . S
C1178 C1177 1.524 . S
C1178 C1179 1.397 . S
C1178 C1183 1.363 . S
C1179 H1150 0.950 . S
C1179 C1178 1.397 . S
C1179 C1180 1.334 . S
C1180 H1151 0.950 . S
C1180 C1179 1.334 . S
C1180 C1181 1.287 . S
C1181 C1180 1.287 . S
C1181 C1182 1.524 . S
C1181 H1184 0.999 . S
C1182 H1152 0.950 . S
C1182 C1181 1.524 . S
C1182 C1183 1.415 . S
C1183 H1153 0.950 . S
C1183 C1178 1.363 . S
C1183 C1182 1.415 . S
H1184 C1181 0.999 . S
H1185 C1166 0.913 . S
H1186 C1204 0.951 . S
H1187 C1206 0.951 . S
H1188 C1208 0.950 . S
H1189 C1209 0.950 . S
H1190 C1211 0.950 . S
H1191 C1214 0.950 . S
H1192 C1215 0.950 . S
H1193 C1217 0.950 . S
H1194 C1218 0.950 . S
H1195 C1219 0.951 . S
H1196 C1221 0.951 . S
H1197 C1223 0.950 . S
H1198 C1224 0.950 . S
H1199 C1226 0.950 . S
H1200 C1229 0.950 . S
H1201 C1230 0.950 . S
H1202 C1232 0.950 . S
H1203 C1233 0.950 . S
C1204 H1186 0.951 . S
C1204 C1205 1.366 . S
C1204 C1206 1.388 . S
C1205 C1204 1.366 . S
C1205 C1209 1.385 . S
C1206 H1187 0.951 . S
C1206 C1204 1.388 . S
C1206 C1207 1.366 . S
C1207 C1206 1.366 . S
C1207 C1208 1.414 . S
C1207 C1210 1.499 . S
C1208 H1188 0.950 . S
C1208 C1207 1.414 . S
C1208 C1209 1.374 . S
C1209 H1189 0.950 . S
C1209 C1205 1.385 . S
C1209 C1208 1.374 . S
C1210 C1207 1.499 . S
C1210 C1211 1.373 . S
C1210 C1212 1.389 . S
C1211 H1190 0.950 . S
C1211 C1210 1.373 . S
C1211 C1227 1.377 . S
C1212 C1210 1.389 . S
C1212 C1213 1.524 . S
C1212 C1226 1.377 . S
C1213 C1212 1.524 . S
C1213 C1214 1.397 . S
C1213 C1218 1.363 . S
C1214 H1191 0.950 . S
C1214 C1213 1.397 . S
C1214 C1215 1.334 . S
C1215 H1192 0.950 . S
C1215 C1214 1.334 . S
C1215 C1216 1.287 . S
C1216 C1215 1.287 . S
C1216 C1217 1.524 . S
C1216 H1235 0.913 . S
C1217 H1193 0.950 . S
C1217 C1216 1.524 . S
C1217 C1218 1.415 . S
C1218 H1194 0.950 . S
C1218 C1213 1.363 . S
C1218 C1217 1.415 . S
C1219 H1195 0.951 . S
C1219 C1220 1.366 . S
C1219 C1221 1.388 . S
C1220 C1219 1.366 . S
C1220 C1224 1.385 . S
C1221 H1196 0.951 . S
C1221 C1219 1.388 . S
C1221 C1222 1.366 . S
C1222 C1221 1.366 . S
C1222 C1223 1.414 . S
C1222 C1225 1.499 . S
C1223 H1197 0.950 . S
C1223 C1222 1.414 . S
C1223 C1224 1.374 . S
C1224 H1198 0.950 . S
C1224 C1220 1.385 . S
C1224 C1223 1.374 . S
C1225 C1222 1.499 . S
C1225 C1226 1.373 . S
C1225 C1227 1.389 . S
C1226 H1199 0.950 . S
C1226 C1212 1.377 . S
C1226 C1225 1.373 . S
C1227 C1211 1.377 . S
C1227 C1225 1.389 . S
C1227 C1228 1.524 . S
C1228 C1227 1.524 . S
C1228 C1229 1.397 . S
C1228 C1233 1.363 . S
C1229 H1200 0.950 . S
C1229 C1228 1.397 . S
C1229 C1230 1.334 . S
C1230 H1201 0.950 . S
C1230 C1229 1.334 . S
C1230 C1231 1.287 . S
C1231 C1230 1.287 . S
C1231 C1232 1.524 . S
C1231 H1234 0.999 . S
C1232 H1202 0.950 . S
C1232 C1231 1.524 . S
C1232 C1233 1.415 . S
C1233 H1203 0.950 . S
C1233 C1228 1.363 . S
C1233 C1232 1.415 . S
H1234 C1231 0.999 . S
H1235 C1216 0.913 . S
H1236 C1254 0.951 . S
H1237 C1256 0.951 . S
H1238 C1258 0.950 . S
H1239 C1259 0.950 . S
H1240 C1261 0.950 . S
H1241 C1264 0.950 . S
H1242 C1265 0.950 . S
H1243 C1267 0.950 . S
H1244 C1268 0.950 1_554 S
H1245 C1269 0.951 . S
H1246 C1271 0.951 . S
H1247 C1273 0.950 . S
H1248 C1274 0.950 . S
H1249 C1276 0.950 . S
H1250 C1279 0.950 . S
H1251 C1280 0.950 . S
H1252 C1282 0.950 . S
H1253 C1283 0.950 . S
C1254 H1236 0.951 . S
C1254 C1255 1.366 . S
C1254 C1256 1.388 . S
C1255 C1254 1.366 . S
C1255 C1259 1.385 . S
C1256 H1237 0.951 . S
C1256 C1254 1.388 . S
C1256 C1257 1.366 . S
C1257 C1256 1.366 . S
C1257 C1258 1.414 . S
C1257 C1260 1.499 . S
C1258 H1238 0.950 . S
C1258 C1257 1.414 . S
C1258 C1259 1.374 . S
C1259 H1239 0.950 . S
C1259 C1255 1.385 . S
C1259 C1258 1.374 . S
C1260 C1257 1.499 . S
C1260 C1261 1.373 1_556 S
C1260 C1262 1.389 1_556 S
C1261 H1240 0.950 . S
C1261 C1260 1.373 1_554 S
C1261 C1277 1.377 . S
C1262 C1260 1.389 1_554 S
C1262 C1263 1.524 1_554 S
C1262 C1276 1.377 . S
C1263 C1262 1.524 1_556 S
C1263 C1264 1.397 1_455 S
C1263 C1268 1.363 . S
C1264 H1241 0.950 . S
C1264 C1263 1.397 1_655 S
C1264 C1265 1.334 . S
C1265 H1242 0.950 . S
C1265 C1264 1.334 . S
C1265 C1266 1.287 . S
C1266 C1265 1.287 . S
C1266 C1267 1.524 1_655 S
C1266 H1285 0.913 . S
C1267 H1243 0.950 . S
C1267 C1266 1.524 1_455 S
C1267 C1268 1.415 . S
C1268 H1244 0.950 1_556 S
C1268 C1263 1.363 . S
C1268 C1267 1.415 . S
C1269 H1245 0.951 . S
C1269 C1270 1.366 . S
C1269 C1271 1.388 . S
C1270 C1269 1.366 . S
C1270 C1274 1.385 . S
C1271 H1246 0.951 . S
C1271 C1269 1.388 . S
C1271 C1272 1.366 . S
C1272 C1271 1.366 . S
C1272 C1273 1.414 . S
C1272 C1275 1.499 . S
C1273 H1247 0.950 . S
C1273 C1272 1.414 . S
C1273 C1274 1.374 . S
C1274 H1248 0.950 . S
C1274 C1270 1.385 . S
C1274 C1273 1.374 . S
C1275 C1272 1.499 . S
C1275 C1276 1.373 . S
C1275 C1277 1.389 . S
C1276 H1249 0.950 . S
C1276 C1262 1.377 . S
C1276 C1275 1.373 . S
C1277 C1261 1.377 . S
C1277 C1275 1.389 . S
C1277 C1278 1.524 . S
C1278 C1277 1.524 . S
C1278 C1279 1.397 . S
C1278 C1283 1.363 . S
C1279 H1250 0.950 . S
C1279 C1278 1.397 . S
C1279 C1280 1.334 . S
C1280 H1251 0.950 . S
C1280 C1279 1.334 . S
C1280 C1281 1.287 . S
C1281 C1280 1.287 . S
C1281 C1282 1.524 . S
C1281 H1284 0.999 . S
C1282 H1252 0.950 . S
C1282 C1281 1.524 . S
C1282 C1283 1.415 . S
C1283 H1253 0.950 . S
C1283 C1278 1.363 . S
C1283 C1282 1.415 . S
H1284 C1281 0.999 . S
H1285 C1266 0.913 . S
H1286 C1304 0.951 . S
H1287 C1306 0.951 . S
H1288 C1308 0.950 . S
H1289 C1309 0.950 . S
H1290 C1311 0.950 . S
H1291 C1314 0.950 . S
H1292 C1315 0.950 . S
H1293 C1317 0.950 . S
H1294 C1318 0.950 . S
H1295 C1319 0.951 . S
H1296 C1321 0.951 . S
H1297 C1323 0.950 . S
H1298 C1324 0.950 . S
H1299 C1326 0.950 . S
H1300 C1329 0.950 . S
H1301 C1330 0.950 . S
H1302 C1332 0.950 . S
H1303 C1333 0.950 . S
C1304 H1286 0.951 . S
C1304 C1305 1.366 . S
C1304 C1306 1.388 . S
C1305 C1304 1.366 . S
C1305 C1309 1.385 . S
C1306 H1287 0.951 . S
C1306 C1304 1.388 . S
C1306 C1307 1.366 . S
C1307 C1306 1.366 . S
C1307 C1308 1.414 . S
C1307 C1310 1.499 . S
C1308 H1288 0.950 . S
C1308 C1307 1.414 . S
C1308 C1309 1.374 . S
C1309 H1289 0.950 . S
C1309 C1305 1.385 . S
C1309 C1308 1.374 . S
C1310 C1307 1.499 . S
C1310 C1311 1.373 . S
C1310 C1312 1.389 . S
C1311 H1290 0.950 . S
C1311 C1310 1.373 . S
C1311 C1327 1.377 . S
C1312 C1310 1.389 . S
C1312 C1313 1.524 . S
C1312 C1326 1.377 . S
C1313 C1312 1.524 . S
C1313 C1314 1.397 . S
C1313 C1318 1.363 . S
C1314 H1291 0.950 . S
C1314 C1313 1.397 . S
C1314 C1315 1.334 . S
C1315 H1292 0.950 . S
C1315 C1314 1.334 . S
C1315 C1316 1.287 . S
C1316 C1315 1.287 . S
C1316 C1317 1.524 . S
C1316 H1335 0.913 . S
C1317 H1293 0.950 . S
C1317 C1316 1.524 . S
C1317 C1318 1.415 . S
C1318 H1294 0.950 . S
C1318 C1313 1.363 . S
C1318 C1317 1.415 . S
C1319 H1295 0.951 . S
C1319 C1320 1.366 . S
C1319 C1321 1.388 . S
C1320 C1319 1.366 . S
C1320 C1324 1.385 . S
C1321 H1296 0.951 . S
C1321 C1319 1.388 . S
C1321 C1322 1.366 . S
C1322 C1321 1.366 . S
C1322 C1323 1.414 . S
C1322 C1325 1.499 . S
C1323 H1297 0.950 . S
C1323 C1322 1.414 . S
C1323 C1324 1.374 . S
C1324 H1298 0.950 . S
C1324 C1320 1.385 . S
C1324 C1323 1.374 . S
C1325 C1322 1.499 . S
C1325 C1326 1.373 . S
C1325 C1327 1.389 . S
C1326 H1299 0.950 . S
C1326 C1312 1.377 . S
C1326 C1325 1.373 . S
C1327 C1311 1.377 . S
C1327 C1325 1.389 . S
C1327 C1328 1.524 . S
C1328 C1327 1.524 . S
C1328 C1329 1.397 . S
C1328 C1333 1.363 . S
C1329 H1300 0.950 . S
C1329 C1328 1.397 . S
C1329 C1330 1.334 . S
C1330 H1301 0.950 . S
C1330 C1329 1.334 . S
C1330 C1331 1.287 . S
C1331 C1330 1.287 . S
C1331 C1332 1.524 . S
C1331 H1334 0.999 . S
C1332 H1302 0.950 . S
C1332 C1331 1.524 . S
C1332 C1333 1.415 . S
C1333 H1303 0.950 . S
C1333 C1328 1.363 . S
C1333 C1332 1.415 . S
H1334 C1331 0.999 . S
H1335 C1316 0.913 . S
H1336 C1354 0.951 . S
H1337 C1356 0.951 . S
H1338 C1358 0.950 . S
H1339 C1359 0.950 . S
H1340 C1361 0.950 . S
H1341 C1364 0.950 . S
H1342 C1365 0.950 . S
H1343 C1367 0.950 . S
H1344 C1368 0.950 . S
H1345 C1369 0.951 . S
H1346 C1371 0.951 . S
H1347 C1373 0.950 . S
H1348 C1374 0.950 . S
H1349 C1376 0.950 . S
H1350 C1379 0.950 . S
H1351 C1380 0.950 . S
H1352 C1382 0.950 . S
H1353 C1383 0.950 . S
C1354 H1336 0.951 . S
C1354 C1355 1.366 . S
C1354 C1356 1.388 . S
C1355 C1354 1.366 . S
C1355 C1359 1.385 . S
C1356 H1337 0.951 . S
C1356 C1354 1.388 . S
C1356 C1357 1.366 . S
C1357 C1356 1.366 . S
C1357 C1358 1.414 . S
C1357 C1360 1.499 . S
C1358 H1338 0.950 . S
C1358 C1357 1.414 . S
C1358 C1359 1.374 . S
C1359 H1339 0.950 . S
C1359 C1355 1.385 . S
C1359 C1358 1.374 . S
C1360 C1357 1.499 . S
C1360 C1361 1.373 . S
C1360 C1362 1.389 . S
C1361 H1340 0.950 . S
C1361 C1360 1.373 . S
C1361 C1377 1.377 . S
C1362 C1360 1.389 . S
C1362 C1363 1.524 . S
C1362 C1376 1.377 . S
C1363 C1362 1.524 . S
C1363 C1364 1.397 . S
C1363 C1368 1.363 . S
C1364 H1341 0.950 . S
C1364 C1363 1.397 . S
C1364 C1365 1.334 . S
C1365 H1342 0.950 . S
C1365 C1364 1.334 . S
C1365 C1366 1.287 . S
C1366 C1365 1.287 . S
C1366 C1367 1.524 . S
C1366 H1385 0.913 . S
C1367 H1343 0.950 . S
C1367 C1366 1.524 . S
C1367 C1368 1.415 . S
C1368 H1344 0.950 . S
C1368 C1363 1.363 . S
C1368 C1367 1.415 . S
C1369 H1345 0.951 . S
C1369 C1370 1.366 . S
C1369 C1371 1.388 . S
C1370 C1369 1.366 . S
C1370 C1374 1.385 . S
C1371 H1346 0.951 . S
C1371 C1369 1.388 . S
C1371 C1372 1.366 . S
C1372 C1371 1.366 . S
C1372 C1373 1.414 . S
C1372 C1375 1.499 . S
C1373 H1347 0.950 . S
C1373 C1372 1.414 . S
C1373 C1374 1.374 . S
C1374 H1348 0.950 . S
C1374 C1370 1.385 . S
C1374 C1373 1.374 . S
C1375 C1372 1.499 . S
C1375 C1376 1.373 . S
C1375 C1377 1.389 . S
C1376 H1349 0.950 . S
C1376 C1362 1.377 . S
C1376 C1375 1.373 . S
C1377 C1361 1.377 . S
C1377 C1375 1.389 . S
C1377 C1378 1.524 . S
C1378 C1377 1.524 . S
C1378 C1379 1.397 . S
C1378 C1383 1.363 . S
C1379 H1350 0.950 . S
C1379 C1378 1.397 . S
C1379 C1380 1.334 . S
C1380 H1351 0.950 . S
C1380 C1379 1.334 . S
C1380 C1381 1.287 . S
C1381 C1380 1.287 . S
C1381 C1382 1.524 . S
C1381 H1384 0.999 . S
C1382 H1352 0.950 . S
C1382 C1381 1.524 . S
C1382 C1383 1.415 . S
C1383 H1353 0.950 . S
C1383 C1378 1.363 . S
C1383 C1382 1.415 . S
H1384 C1381 0.999 . S
H1385 C1366 0.913 . S
H1386 C1404 0.951 . S
H1387 C1406 0.951 . S
H1388 C1408 0.950 . S
H1389 C1409 0.950 . S
H1390 C1411 0.950 . S
H1391 C1414 0.950 . S
H1392 C1415 0.950 . S
H1393 C1417 0.950 . S
H1394 C1418 0.950 . S
H1395 C1419 0.951 . S
H1396 C1421 0.951 . S
H1397 C1423 0.950 . S
H1398 C1424 0.950 . S
H1399 C1426 0.950 . S
H1400 C1429 0.950 . S
H1401 C1430 0.950 . S
H1402 C1432 0.950 . S
H1403 C1433 0.950 . S
C1404 H1386 0.951 . S
C1404 C1405 1.366 . S
C1404 C1406 1.388 . S
C1405 C1404 1.366 . S
C1405 C1409 1.385 . S
C1406 H1387 0.951 . S
C1406 C1404 1.388 . S
C1406 C1407 1.366 . S
C1407 C1406 1.366 . S
C1407 C1408 1.414 . S
C1407 C1410 1.499 . S
C1408 H1388 0.950 . S
C1408 C1407 1.414 . S
C1408 C1409 1.374 . S
C1409 H1389 0.950 . S
C1409 C1405 1.385 . S
C1409 C1408 1.374 . S
C1410 C1407 1.499 . S
C1410 C1411 1.373 . S
C1410 C1412 1.389 . S
C1411 H1390 0.950 . S
C1411 C1410 1.373 . S
C1411 C1427 1.377 . S
C1412 C1410 1.389 . S
C1412 C1413 1.524 . S
C1412 C1426 1.377 . S
C1413 C1412 1.524 . S
C1413 C1414 1.397 . S
C1413 C1418 1.363 . S
C1414 H1391 0.950 . S
C1414 C1413 1.397 . S
C1414 C1415 1.334 . S
C1415 H1392 0.950 . S
C1415 C1414 1.334 . S
C1415 C1416 1.287 . S
C1416 C1415 1.287 . S
C1416 C1417 1.524 . S
C1416 H1435 0.913 . S
C1417 H1393 0.950 . S
C1417 C1416 1.524 . S
C1417 C1418 1.415 . S
C1418 H1394 0.950 . S
C1418 C1413 1.363 . S
C1418 C1417 1.415 . S
C1419 H1395 0.951 . S
C1419 C1420 1.366 . S
C1419 C1421 1.388 . S
C1420 C1419 1.366 . S
C1420 C1424 1.385 . S
C1421 H1396 0.951 . S
C1421 C1419 1.388 . S
C1421 C1422 1.366 . S
C1422 C1421 1.366 . S
C1422 C1423 1.414 . S
C1422 C1425 1.499 . S
C1423 H1397 0.950 . S
C1423 C1422 1.414 . S
C1423 C1424 1.374 . S
C1424 H1398 0.950 . S
C1424 C1420 1.385 . S
C1424 C1423 1.374 . S
C1425 C1422 1.499 . S
C1425 C1426 1.373 . S
C1425 C1427 1.389 . S
C1426 H1399 0.950 . S
C1426 C1412 1.377 . S
C1426 C1425 1.373 . S
C1427 C1411 1.377 . S
C1427 C1425 1.389 . S
C1427 C1428 1.524 . S
C1428 C1427 1.524 . S
C1428 C1429 1.397 . S
C1428 C1433 1.363 . S
C1429 H1400 0.950 . S
C1429 C1428 1.397 . S
C1429 C1430 1.334 . S
C1430 H1401 0.950 . S
C1430 C1429 1.334 . S
C1430 C1431 1.287 . S
C1431 C1430 1.287 . S
C1431 C1432 1.524 . S
C1431 H1434 0.999 . S
C1432 H1402 0.950 . S
C1432 C1431 1.524 . S
C1432 C1433 1.415 . S
C1433 H1403 0.950 . S
C1433 C1428 1.363 . S
C1433 C1432 1.415 . S
H1434 C1431 0.999 . S
H1435 C1416 0.913 . S
C270 C159 1.460 . S
C255 C6 1.600 . S
C320 C177 1.375 . S
C305 C30 1.409 . S
C355 C49 1.314 . S
C370 C201 1.270 . S
C420 C231 1.273 1_655 S
C405 C63 1.409 . S
C470 C219 1.213 . S
C455 C82 1.312 . S
C505 C106 1.424 . S
C520 C172 1.394 . S
C555 C125 1.639 . S
C570 C192 1.557 . S
C605 C139 1.423 . S
C620 C197 1.302 . S
C655 C144 1.415 . S
C670 C213 1.384 . S
C705 C101 1.422 . S
C720 C168 1.300 . S
C770 C235 1.390 . S
C755 C68 1.415 . S
C820 C180 1.272 . S
C805 C25 1.416 . S
C855 C44 1.598 . S
C870 C198 1.460 . S
C905 C11 1.323 . S
C920 C156 1.282 . S
C970 C176 1.203 . S
C955 C120 1.294 . S
C1020 C222 1.554 . S
C1005 C87 1.645 . S
C1070 C218 1.450 . S
C1055 C2 1.566 . S
C1120 C171 1.529 . S
C1105 C21 1.568 . S
C1155 C40 1.545 . S
C1170 C193 1.425 . S
C1205 C59 1.586 . S
C1220 C214 1.547 . S
C1270 C155 1.408 . S
C1255 C78 1.652 . S
C1305 C97 1.542 . S
C1320 C189 1.491 . S
C1370 C210 1.421 . S
C1355 C116 1.668 . S
C1420 C234 1.463 . S
C1405 C135 1.515 . S
