# Generated by pormake.
# Topology anh, (6,3)-cn, num edge types: 1
# Building blocks:
#     Node 0, Type 0, BuildingBlock: VOLQOD_clean_sbu_1, # of connection points: 6
#     Node 1, Type 0, BuildingBlock: VOLQOD_clean_sbu_1, # of connection points: 6
#     Node 2, Type 0, BuildingBlock: VOLQOD_clean_sbu_1, # of connection points: 6
#     Node 3, Type 1, BuildingBlock: QEWDON_clean_linker_0, # of connection points: 3
#     Node 4, Type 1, BuildingBlock: QEWDON_clean_linker_0, # of connection points: 3
#     Node 5, Type 1, BuildingBlock: QEWDON_clean_linker_0, # of connection points: 3
#     Node 6, Type 1, BuildingBlock: QEWDON_clean_linker_0, # of connection points: 3
#     Node 7, Type 1, BuildingBlock: QEWDON_clean_linker_0, # of connection points: 3
#     Node 8, Type 1, BuildingBlock: QEWDON_clean_linker_0, # of connection points: 3
#     Edge 9, Type (0, 1), BuildingBlock: EZIPEK_clean_linker_0, # of connection points: 2
#     Edge 10, Type (0, 1), BuildingBlock: EZIPEK_clean_linker_0, # of connection points: 2
#     Edge 11, Type (0, 1), BuildingBlock: EZIPEK_clean_linker_0, # of connection points: 2
#     Edge 12, Type (0, 1), BuildingBlock: EZIPEK_clean_linker_0, # of connection points: 2
#     Edge 13, Type (0, 1), BuildingBlock: EZIPEK_clean_linker_0, # of connection points: 2
#     Edge 14, Type (0, 1), BuildingBlock: EZIPEK_clean_linker_0, # of connection points: 2
#     Edge 15, Type (0, 1), BuildingBlock: EZIPEK_clean_linker_0, # of connection points: 2
#     Edge 16, Type (0, 1), BuildingBlock: EZIPEK_clean_linker_0, # of connection points: 2
#     Edge 17, Type (0, 1), BuildingBlock: EZIPEK_clean_linker_0, # of connection points: 2
#     Edge 18, Type (0, 1), BuildingBlock: EZIPEK_clean_linker_0, # of connection points: 2
#     Edge 19, Type (0, 1), BuildingBlock: EZIPEK_clean_linker_0, # of connection points: 2
#     Edge 20, Type (0, 1), BuildingBlock: EZIPEK_clean_linker_0, # of connection points: 2
#     Edge 21, Type (0, 1), BuildingBlock: EZIPEK_clean_linker_0, # of connection points: 2
#     Edge 22, Type (0, 1), BuildingBlock: EZIPEK_clean_linker_0, # of connection points: 2
#     Edge 23, Type (0, 1), BuildingBlock: EZIPEK_clean_linker_0, # of connection points: 2
#     Edge 24, Type (0, 1), BuildingBlock: EZIPEK_clean_linker_0, # of connection points: 2
#     Edge 25, Type (0, 1), BuildingBlock: EZIPEK_clean_linker_0, # of connection points: 2
#     Edge 26, Type (0, 1), BuildingBlock: EZIPEK_clean_linker_0, # of connection points: 2
# Relax obj value: 0.175
# Max RMSD: 0.225
# Mean RMSD: 0.172
data_MOF--net-anh--node1-VOLQOD_clean_sbu_1--node2-QEWDON_clean_linker_0--edge1-EZIPEK_clean_linker_0
_symmetry_space_group_name_H-M    P1
_symmetry_Int_Tables_number       1
_symmetry_cell_setting            triclinic
loop_
_symmetry_equiv_pos_as_xyz
'x, y, z'
_cell_length_a     23.582729
_cell_length_b     23.585873
_cell_length_c     41.080396
_cell_angle_alpha  94.595513
_cell_angle_beta   94.467881
_cell_angle_gamma 121.12163
loop_
_atom_site_label
_atom_site_type_symbol
_atom_site_fract_x
_atom_site_fract_y
_atom_site_fract_z
_atom_type_partial_charge
O0 O 0.04846 0.59398 0.24089 0.0
Zn1 Zn 0.04811 0.61026 0.19352 0.0
O2 O 0.05157 0.54138 0.16524 0.0
Zn3 Zn 0.96899 0.48381 0.13558 0.0
Zn4 Zn 0.06992 0.4868 0.19248 0.0
Zn5 Zn 0.1198 0.58523 0.13757 0.0
O6 O 0.97868 0.4825 0.08683 0.0
O7 O 0.08261 0.56899 0.09004 0.0
O8 O 0.96481 0.61011 0.1784 0.0
O9 O 0.91107 0.52066 0.13973 0.0
O10 O 0.91933 0.39325 0.14968 0.0
O11 O -0.00603 0.38936 0.18443 0.0
O12 O 0.16136 0.50234 0.1869 0.0
O13 O 0.12774 0.70281 0.19223 0.0
O14 O 0.18651 0.55861 0.14378 0.0
O15 O 0.17277 0.68435 0.15098 0.0
C16 C 0.06031 0.55524 0.25595 0.0
C17 C 0.02684 0.52512 0.07322 0.0
C18 C 0.93497 0.36241 0.16901 0.0
C19 C 0.91505 0.57033 0.15662 0.0
C20 C 0.20031 0.53094 0.16579 0.0
C21 C 0.17155 0.72494 0.17273 0.0
O22 O 0.07146 0.51367 0.24062 0.0
O23 O 0.50226 0.05967 0.43545 0.0
Zn24 Zn 0.49139 0.05985 0.48385 0.0
O25 O 0.55997 0.05019 0.50824 0.0
Zn26 Zn 0.61806 0.12706 0.54122 0.0
Zn27 Zn 0.61264 0.03465 0.47864 0.0
Zn28 Zn 0.51564 0.97552 0.53177 0.0
O29 O 0.61174 0.10603 0.58807 0.0
O30 O 0.51937 0.00476 0.57951 0.0
O31 O 0.49771 0.14493 0.50206 0.0
O32 O 0.58711 0.19093 0.54054 0.0
O33 O 0.71175 0.17632 0.53025 0.0
O34 O 0.70871 0.11244 0.4867 0.0
O35 O 0.60291 0.94455 0.48262 0.0
O36 O 0.39783 0.98187 0.48548 0.0
O37 O 0.55371 0.9182 0.52781 0.0
O38 O 0.42041 0.9155 0.51113 0.0
C39 C 0.53763 0.04599 0.41835 0.0
C40 C 0.5637 0.05693 0.59881 0.0
C41 C 0.74033 0.16562 0.50753 0.0
C42 C 0.53923 0.19186 0.5247 0.0
C43 C 0.58074 0.90645 0.50477 0.0
C44 C 0.37912 0.92512 0.49452 0.0
O45 O 0.57984 0.03339 0.43163 0.0
O46 O 0.48413 0.50639 0.76202 0.0
Zn47 Zn 0.46811 0.48989 0.80906 0.0
O48 O 0.54561 0.56017 0.83967 0.0
Zn49 Zn 0.51787 0.60504 0.86971 0.0
Zn50 Zn 0.61362 0.62596 0.81579 0.0
Zn51 Zn 0.58243 0.51977 0.86608 0.0
O52 O 0.54476 0.60579 0.91731 0.0
O53 O 0.57007 0.52696 0.91436 0.0
O54 O 0.38259 0.48598 0.81718 0.0
O55 O 0.41958 0.56256 0.86142 0.0
O56 O 0.54919 0.6966 0.85974 0.0
O57 O 0.61347 0.71168 0.82049 0.0
O58 O 0.70591 0.64211 0.83087 0.0
O59 O 0.45688 0.39975 0.81164 0.0
O60 O 0.68003 0.56693 0.86552 0.0
O61 O 0.54784 0.4261 0.84527 0.0
C62 C 0.53478 0.54749 0.74918 0.0
C63 C 0.56022 0.56827 0.93109 0.0
C64 C 0.5839 0.73119 0.83878 0.0
C65 C 0.37248 0.51917 0.83948 0.0
C66 C 0.72248 0.61304 0.85105 0.0
C67 C 0.4969 0.38418 0.82461 0.0
O68 O 0.58849 0.59369 0.76691 0.0
H69 H 0.58469 0.1204 0.27004 0.0
C70 C 0.53712 0.07858 0.25773 0.0
C71 C 0.49251 0.031 0.27619 0.0
C72 C 0.51883 0.07386 0.22375 0.0
H73 H 0.39669 0.93963 0.27421 0.0
C74 C 0.43087 0.97693 0.26019 0.0
C75 C 0.41303 0.97088 0.2262 0.0
C76 C 0.4565 0.02008 0.20828 0.0
C77 C 0.56277 0.12623 0.20436 0.0
H78 H 0.44208 0.01565 0.18205 0.0
C79 C 0.63084 0.14748 0.2052 0.0
C80 C 0.67117 0.19675 0.18619 0.0
C81 C 0.53577 0.15455 0.18428 0.0
H82 H 0.48368 0.13934 0.18336 0.0
C83 C 0.57576 0.20324 0.16545 0.0
H84 H 0.65229 0.12578 0.22035 0.0
C85 C 0.64306 0.22427 0.16636 0.0
H86 H 0.6735 0.26236 0.15166 0.0
H87 H 0.55454 0.22487 0.15015 0.0
H88 H 0.4982 0.5697 0.58856 0.0
C89 C 0.50274 0.52693 0.58206 0.0
C90 C 0.51265 0.49437 0.60731 0.0
C91 C 0.4974 0.50297 0.5486 0.0
H92 H 0.52462 0.4126 0.61807 0.0
C93 C 0.51721 0.43815 0.59891 0.0
C94 C 0.51397 0.41571 0.56597 0.0
C95 C 0.50495 0.44832 0.54116 0.0
C96 C 0.48412 0.53333 0.52081 0.0
H97 H 0.50432 0.43076 0.51584 0.0
C98 C 0.51244 0.60289 0.52273 0.0
C99 C 0.50328 0.63036 0.4951 0.0
C100 C 0.44468 0.49204 0.49116 0.0
H101 H 0.41977 0.43811 0.48906 0.0
C102 C 0.43697 0.51955 0.46365 0.0
H103 H 0.54187 0.63576 0.54535 0.0
C104 C 0.46673 0.58844 0.46543 0.0
H105 H 0.45922 0.60904 0.44401 0.0
H106 H 0.40728 0.48727 0.44097 0.0
H107 H 0.09974 0.59154 0.93374 0.0
C108 C 0.05917 0.59602 0.92271 0.0
C109 C 0.00485 0.58085 0.9398 0.0
C110 C 0.06277 0.61991 0.89221 0.0
H111 H 0.91082 0.57619 0.93882 0.0
C112 C 0.95289 0.58776 0.92572 0.0
C113 C 0.95627 0.61165 0.89526 0.0
C114 C 0.0115 0.62826 0.87881 0.0
C115 C 0.1213 0.63859 0.87491 0.0
H116 H 0.014 0.64691 0.85534 0.0
C117 C 0.14356 0.59415 0.86954 0.0
C118 C 0.2014 0.61351 0.85472 0.0
C119 C 0.1558 0.70153 0.86414 0.0
H120 H 0.13944 0.73654 0.86802 0.0
C121 C 0.21259 0.72037 0.84887 0.0
H122 H 0.11658 0.54499 0.87722 0.0
C123 C 0.2357 0.67691 0.84439 0.0
H124 H 0.28038 0.69267 0.83285 0.0
H125 H 0.23904 0.76896 0.84071 0.0
H126 H 0.97722 0.50485 0.40494 0.0
C127 C 0.01949 0.55296 0.41643 0.0
C128 C 0.06857 0.59347 0.39751 0.0
C129 C 0.02283 0.57634 0.44953 0.0
H130 H 0.16276 0.68526 0.39824 0.0
C131 C 0.12382 0.65498 0.41262 0.0
C132 C 0.12818 0.67891 0.4457 0.0
C133 C 0.07623 0.64019 0.46366 0.0
C134 C 0.96947 0.53523 0.46909 0.0
H135 H 0.0785 0.65901 0.489 0.0
C136 C 0.94983 0.46834 0.47107 0.0
C137 C 0.89841 0.42942 0.48934 0.0
C138 C 0.93794 0.56302 0.48598 0.0
H139 H 0.95212 0.61434 0.48473 0.0
C140 C 0.88704 0.52447 0.50418 0.0
H141 H 0.97439 0.44658 0.45853 0.0
C142 C 0.86722 0.458 0.50584 0.0
H143 H 0.82749 0.42871 0.52001 0.0
H144 H 0.86274 0.54612 0.51697 0.0
H145 H 0.49415 0.98637 0.74139 0.0
C146 C 0.4945 0.0304 0.75162 0.0
C147 C 0.51404 0.08358 0.73329 0.0
C148 C 0.47339 0.03299 0.78248 0.0
H149 H 0.53064 0.18216 0.73229 0.0
C150 C 0.51469 0.1407 0.74636 0.0
C151 C 0.49162 0.14308 0.77669 0.0
C152 C 0.46995 0.08848 0.79426 0.0
C153 C 0.45574 0.97821 0.80256 0.0
H154 H 0.45245 0.09041 0.81772 0.0
C155 C 0.49542 0.94991 0.80509 0.0
C156 C 0.47822 0.89702 0.82337 0.0
C157 C 0.39975 0.95417 0.81949 0.0
H158 H 0.36804 0.97477 0.81786 0.0
C159 C 0.38347 0.90233 0.83828 0.0
H160 H 0.53921 0.9682 0.79256 0.0
C161 C 0.42221 0.8734 0.84005 0.0
H162 H 0.40831 0.83232 0.85417 0.0
H163 H 0.34035 0.88413 0.85122 0.0
H164 H 0.54541 0.62064 0.08967 0.0
C165 C 0.58622 0.61363 0.0971 0.0
C166 C 0.61759 0.59908 0.07279 0.0
C167 C 0.60894 0.62051 0.13086 0.0
H168 H 0.69644 0.58136 0.06362 0.0
C169 C 0.6716 0.59182 0.08221 0.0
C170 C 0.69392 0.59845 0.11558 0.0
C171 C 0.66233 0.61185 0.13962 0.0
C172 C 0.57791 0.63602 0.15751 0.0
H173 H 0.67955 0.61497 0.16533 0.0
C174 C 0.50826 0.60669 0.15479 0.0
C175 C 0.47937 0.61756 0.18132 0.0
C176 C 0.61808 0.67785 0.18688 0.0
H177 H 0.67207 0.70292 0.1895 0.0
C178 C 0.58915 0.68765 0.21338 0.0
H179 H 0.47634 0.57505 0.13235 0.0
C180 C 0.52 0.65718 0.21078 0.0
H181 H 0.49818 0.66618 0.23133 0.0
H182 H 0.62047 0.71939 0.23588 0.0
C183 C 0.32015 0.61932 0.17883 0.0
C184 C 0.27074 0.55001 0.17214 0.0
C185 C 0.3585 0.52366 0.17521 0.0
C186 C 0.40714 0.59302 0.17741 0.0
N187 N 0.4329 0.70547 0.17384 0.0
N188 N 0.24138 0.43557 0.16099 0.0
C189 C 0.38757 0.64048 0.17706 0.0
C190 C 0.28936 0.50174 0.16963 0.0
N191 N 0.30296 0.66492 0.18805 0.0
N192 N 0.37836 0.47928 0.17935 0.0
H193 H 0.1904 0.41822 0.15727 0.0
H194 H 0.25219 0.39862 0.15536 0.0
H195 H 0.42856 0.49381 0.18352 0.0
H196 H 0.34534 0.42911 0.18123 0.0
H197 H 0.3381 0.71535 0.19611 0.0
H198 H 0.25428 0.65133 0.19127 0.0
H199 H 0.41924 0.74017 0.16998 0.0
H200 H 0.48285 0.72307 0.17151 0.0
C201 C 0.81235 0.24016 0.469 0.0
C202 C 0.80545 0.22353 0.50142 0.0
C203 C 0.88727 0.34105 0.52314 0.0
C204 C 0.87675 0.35867 0.49196 0.0
N205 N 0.82874 0.3241 0.43441 0.0
N206 N 0.84909 0.25451 0.55896 0.0
C207 C 0.84037 0.30807 0.46441 0.0
C208 C 0.84824 0.27301 0.52837 0.0
N209 N 0.79297 0.19163 0.44284 0.0
N210 N 0.93405 0.38953 0.54751 0.0
H211 H 0.82434 0.20421 0.56238 0.0
H212 H 0.87289 0.2881 0.5806 0.0
H213 H 0.96366 0.43943 0.54388 0.0
H214 H 0.94739 0.37986 0.57019 0.0
H215 H 0.80059 0.20199 0.41882 0.0
H216 H 0.77873 0.14277 0.44592 0.0
H217 H 0.79604 0.28825 0.41466 0.0
H218 H 0.84752 0.37314 0.4299 0.0
C219 C 0.52515 0.76925 0.80202 0.0
C220 C 0.57294 0.78439 0.82987 0.0
C221 C 0.56613 0.88032 0.85114 0.0
C222 C 0.51699 0.86384 0.82384 0.0
N223 N 0.46178 0.80438 0.76939 0.0
N224 N 0.64969 0.86038 0.8768 0.0
C225 C 0.50096 0.81247 0.79786 0.0
C226 C 0.59716 0.84233 0.85305 0.0
N227 N 0.49856 0.71067 0.78102 0.0
N228 N 0.58128 0.9308 0.87562 0.0
H229 H 0.67304 0.83304 0.87823 0.0
H230 H 0.67357 0.90465 0.89322 0.0
H231 H 0.56146 0.96129 0.87417 0.0
H232 H 0.61116 0.94098 0.89792 0.0
H233 H 0.45682 0.6923 0.76329 0.0
H234 H 0.5151 0.67754 0.78243 0.0
H235 H 0.45495 0.77313 0.74812 0.0
H236 H 0.44023 0.83287 0.76595 0.0
C237 C 0.87177 0.63812 0.13408 0.0
C238 C 0.8603 0.58202 0.14944 0.0
C239 C 0.73957 0.53365 0.13917 0.0
C240 C 0.75123 0.59192 0.12603 0.0
N241 N 0.82763 0.70493 0.1163 0.0
N242 N 0.78579 0.48298 0.17249 0.0
C243 C 0.81716 0.64585 0.12506 0.0
C244 C 0.79482 0.53169 0.15377 0.0
N245 N 0.93399 0.68211 0.12661 0.0
N246 N 0.67585 0.47954 0.13678 0.0
H247 H 0.82557 0.48083 0.18399 0.0
H248 H 0.73977 0.44859 0.1792 0.0
H249 H 0.63403 0.47913 0.12605 0.0
H250 H 0.66484 0.43318 0.1428 0.0
H251 H 0.94333 0.71913 0.11186 0.0
H252 H 0.97565 0.67862 0.13296 0.0
H253 H 0.87482 0.74832 0.11872 0.0
H254 H 0.78877 0.71227 0.10906 0.0
C255 C 0.27334 0.85776 0.45258 0.0
C256 C 0.30931 0.86723 0.48411 0.0
C257 C 0.22646 0.75194 0.49065 0.0
C258 C 0.18714 0.74523 0.46093 0.0
N259 N 0.16345 0.80224 0.4207 0.0
N260 N 0.3035 0.82951 0.53757 0.0
C261 C 0.2072 0.80178 0.44433 0.0
C262 C 0.28048 0.81637 0.50465 0.0
N263 N 0.30283 0.89786 0.42923 0.0
N264 N 0.21555 0.69715 0.50464 0.0
H265 H 0.33941 0.87749 0.54931 0.0
H266 H 0.28063 0.79463 0.55365 0.0
H267 H 0.17998 0.64827 0.49404 0.0
H268 H 0.2473 0.70029 0.52479 0.0
H269 H 0.27875 0.88814 0.40525 0.0
H270 H 0.3533 0.93484 0.43188 0.0
H271 H 0.1749 0.84465 0.40974 0.0
H272 H 0.11361 0.76311 0.41502 0.0
C273 C 0.50826 0.28662 0.83516 0.0
C274 C 0.4886 0.31856 0.81299 0.0
C275 C 0.45635 0.22603 0.76951 0.0
C276 C 0.48878 0.20225 0.78975 0.0
N277 N 0.56043 0.22217 0.84034 0.0
N278 N 0.46267 0.32578 0.75544 0.0
C279 C 0.51893 0.23586 0.82226 0.0
C280 C 0.46739 0.29028 0.77909 0.0
N281 N 0.5152 0.30324 0.86846 0.0
N282 N 0.41425 0.18734 0.74145 0.0
H283 H 0.4781 0.37609 0.76003 0.0
H284 H 0.45217 0.30763 0.73033 0.0
H285 H 0.40165 0.13826 0.73456 0.0
H286 H 0.38601 0.20147 0.7274 0.0
H287 H 0.5248 0.27747 0.88535 0.0
H288 H 0.50313 0.33674 0.87896 0.0
H289 H 0.58756 0.24978 0.86312 0.0
H290 H 0.57372 0.18886 0.83105 0.0
C291 C 0.49674 0.78602 0.49042 0.0
C292 C 0.56517 0.83715 0.49845 0.0
C293 C 0.59515 0.75241 0.50109 0.0
C294 C 0.52596 0.70222 0.49761 0.0
N295 N 0.41136 0.67349 0.49628 0.0
N296 N 0.67993 0.87103 0.51391 0.0
C297 C 0.47683 0.71966 0.49433 0.0
C298 C 0.61477 0.82103 0.50438 0.0
N299 N 0.45086 0.80082 0.4784 0.0
N300 N 0.64163 0.73444 0.50029 0.0
H301 H 0.69556 0.92154 0.51545 0.0
H302 H 0.71748 0.86253 0.52204 0.0
H303 H 0.62887 0.68471 0.49783 0.0
H304 H 0.69213 0.76836 0.49952 0.0
H305 H 0.40124 0.76442 0.46941 0.0
H306 H 0.46408 0.84882 0.47398 0.0
H307 H 0.37485 0.6857 0.49737 0.0
H308 H 0.39474 0.62454 0.50036 0.0
C309 C 0.80596 0.58404 0.83856 0.0
C310 C 0.79144 0.62761 0.85655 0.0
C311 C 0.89406 0.67169 0.89514 0.0
C312 C 0.902 0.62 0.88055 0.0
N313 N 0.86314 0.52338 0.83971 0.0
N314 N 0.81932 0.71241 0.9021 0.0
C315 C 0.85791 0.57574 0.85226 0.0
C316 C 0.83536 0.67203 0.88468 0.0
N317 N 0.76916 0.54999 0.80859 0.0
N318 N 0.94309 0.72082 0.91855 0.0
H319 H 0.77829 0.71592 0.89402 0.0
H320 H 0.8446 0.73986 0.92512 0.0
H321 H 0.98702 0.7223 0.92646 0.0
H322 H 0.94306 0.7631 0.928 0.0
H323 H 0.78082 0.52189 0.79278 0.0
H324 H 0.73061 0.55526 0.79817 0.0
H325 H 0.82796 0.48526 0.82144 0.0
H326 H 0.89985 0.5148 0.84932 0.0
C327 C 0.28861 0.81575 0.16607 0.0
C328 C 0.22783 0.79715 0.1786 0.0
C329 C 0.28683 0.90462 0.21549 0.0
C330 C 0.34871 0.9125 0.20905 0.0
N331 N 0.40826 0.87135 0.17975 0.0
N332 N 0.16546 0.83416 0.20794 0.0
C333 C 0.3496 0.86708 0.18464 0.0
C334 C 0.22578 0.84491 0.20119 0.0
N335 N 0.28819 0.78791 0.13554 0.0
N336 N 0.28669 0.95523 0.23417 0.0
H337 H 0.12066 0.79874 0.19318 0.0
H338 H 0.15968 0.86092 0.22742 0.0
H339 H 0.33046 2e-05 0.24419 0.0
H340 H 0.2437 0.95541 0.23796 0.0
H341 H 0.3315 0.80314 0.12472 0.0
H342 H 0.24437 0.75846 0.11897 0.0
H343 H 0.41014 0.83576 0.16392 0.0
H344 H 0.45417 0.90661 0.19368 0.0
C345 C 0.58396 0.3143 0.53195 0.0
C346 C 0.53106 0.24848 0.53408 0.0
C347 C 0.46566 0.29216 0.55627 0.0
C348 C 0.52092 0.35802 0.55684 0.0
N349 N 0.63662 0.43277 0.55083 0.0
N350 N 0.42713 0.17471 0.55406 0.0
C351 C 0.58136 0.36942 0.54634 0.0
C352 C 0.47324 0.23722 0.54776 0.0
N353 N 0.63548 0.324 0.51517 0.0
N354 N 0.40546 0.28207 0.56297 0.0
H355 H 0.43093 0.13299 0.54847 0.0
H356 H 0.38813 0.16521 0.56747 0.0
H357 H 0.39816 0.32114 0.56985 0.0
H358 H 0.36149 0.23516 0.55922 0.0
H359 H 0.67203 0.37061 0.50996 0.0
H360 H 0.63839 0.28464 0.50372 0.0
H361 H 0.68398 0.44334 0.54682 0.0
H362 H 0.63649 0.47442 0.56142 0.0
C363 C 0.27812 0.52777 0.8119 0.0
C364 C 0.30702 0.51387 0.83945 0.0
C365 C 0.25273 0.55056 0.87668 0.0
C366 C 0.22688 0.56804 0.84951 0.0
N367 N 0.19357 0.55004 0.79088 0.0
N368 N 0.29969 0.48596 0.89452 0.0
C369 C 0.23216 0.54838 0.81692 0.0
C370 C 0.2857 0.5156 0.87057 0.0
N371 N 0.29787 0.52657 0.78159 0.0
N372 N 0.25099 0.57187 0.90832 0.0
H373 H 0.32399 0.46011 0.89017 0.0
H374 H 0.28123 0.48113 0.91703 0.0
H375 H 0.22965 0.59986 0.91418 0.0
H376 H 0.27577 0.56648 0.92883 0.0
H377 H 0.28564 0.54596 0.7622 0.0
H378 H 0.32863 0.50885 0.77588 0.0
H379 H 0.19089 0.53079 0.76669 0.0
H380 H 0.15896 0.56432 0.79405 0.0
C381 C 0.83256 0.24912 0.1524 0.0
C382 C 0.8788 0.29998 0.17805 0.0
C383 C 0.79085 0.26787 0.21329 0.0
C384 C 0.74338 0.22122 0.18656 0.0
N385 N 0.72052 0.15219 0.13506 0.0
N386 N 0.90764 0.33834 0.23664 0.0
C387 C 0.76505 0.20638 0.1576 0.0
C388 C 0.85994 0.30228 0.20988 0.0
N389 N 0.853 0.24438 0.12264 0.0
N390 N 0.76985 0.28298 0.24095 0.0
H391 H 0.95864 0.36213 0.23529 0.0
H392 H 0.89688 0.33786 0.26076 0.0
H393 H 0.71982 0.25839 0.24465 0.0
H394 H 0.80149 0.32288 0.25933 0.0
H395 H 0.82071 0.2139 0.10148 0.0
H396 H 0.90316 0.27308 0.11919 0.0
H397 H 0.73374 0.13561 0.11442 0.0
H398 H 0.67096 0.12029 0.13868 0.0
C399 C 0.00638 0.4882 0.01178 0.0
C400 C 0.01396 0.53416 0.03872 0.0
C401 C 0.01668 0.61057 1.00098 0.0
C402 C 0.00546 0.56326 0.97377 0.0
N403 N 0.97785 0.45234 0.9526 0.0
N404 N 0.00851 0.63011 0.05865 0.0
C405 C -0.00326 0.50051 0.97897 0.0
C406 C 0.01357 0.59258 0.03319 0.0
N407 N 0.01063 0.43419 0.01758 0.0
N408 N 0.0336 0.67394 0.99633 0.0
H409 H 0.00503 0.61806 0.0826 0.0
H410 H 0.00084 0.66912 0.05538 0.0
H411 H 0.03796 0.68998 0.97323 0.0
H412 H 0.04957 0.71253 0.01567 0.0
H413 H 0.01292 0.40275 0.99915 0.0
H414 H 0.01624 0.42328 0.04131 0.0
H415 H 0.96443 0.40343 0.95483 0.0
H416 H 0.9703 0.4598 0.92834 0.0
C417 C 0.51643 0.98635 0.36098 0.0
C418 C 0.52883 0.04365 0.38195 0.0
C419 C 0.51448 0.09179 0.33353 0.0
C420 C 0.50901 0.03777 0.31259 0.0
N421 N 0.5203 0.94161 0.30663 0.0
N422 N 0.55559 0.15795 0.3876 0.0
C423 C 0.51487 0.98751 0.32642 0.0
C424 C 0.53251 0.09852 0.36807 0.0
N425 N 0.50246 0.9294 0.37372 0.0
N426 N 0.49965 0.1351 0.32074 0.0
H427 H 0.5716 0.16581 0.41284 0.0
H428 H 0.56548 0.20142 0.37817 0.0
H429 H 0.48467 0.13121 0.29569 0.0
H430 H 0.49602 0.17095 0.33538 0.0
H431 H 0.48646 0.88425 0.35906 0.0
H432 H 0.49979 0.92499 0.39869 0.0
H433 H 0.53122 0.90792 0.31585 0.0
H434 H 0.52068 0.94171 0.28125 0.0
C435 C 0.47554 0.53335 0.69252 0.0
C436 C 0.53144 0.54062 0.71262 0.0
C437 C 0.58187 0.53856 0.66295 0.0
C438 C 0.52111 0.51901 0.64299 0.0
N439 N 0.40594 0.48906 0.63933 0.0
N440 N 0.63251 0.53704 0.71597 0.0
C441 C 0.46679 0.51442 0.65786 0.0
C442 C 0.5836 0.54031 0.69762 0.0
N443 N 0.43195 0.54657 0.70629 0.0
N444 N 0.63804 0.55554 0.64871 0.0
H445 H 0.63373 0.53367 0.74112 0.0
H446 H 0.66768 0.53004 0.7055 0.0
H447 H 0.63874 0.55598 0.62335 0.0
H448 H 0.68513 0.57591 0.66235 0.0
H449 H 0.39397 0.54798 0.69233 0.0
H450 H 0.43814 0.56331 0.73134 0.0
H451 H 0.36291 0.47781 0.64963 0.0
H452 H 0.39709 0.47399 0.61396 0.0
C453 C 0.49476 0.0655 0.63977 0.0
C454 C 0.55282 0.06494 0.63346 0.0
C455 C 0.58933 0.08336 0.69298 0.0
C456 C 0.52792 0.07691 0.699 0.0
N457 N 0.41642 0.04834 0.67813 0.0
N458 N 0.65176 0.06518 0.65344 0.0
C459 C 0.47896 0.06412 0.67238 0.0
C460 C 0.59937 0.07185 0.65991 0.0
N461 N 0.45615 0.07033 0.61483 0.0
N462 N 0.6385 0.10202 0.71878 0.0
H463 H 0.66054 0.05694 0.62952 0.0
H464 H 0.68345 0.06266 0.67158 0.0
H465 H 0.63242 0.11013 0.74326 0.0
H466 H 0.68685 0.11436 0.71585 0.0
H467 H 0.41758 0.07837 0.61877 0.0
H468 H 0.46671 0.07322 0.59062 0.0
H469 H 0.37666 0.03155 0.65936 0.0
H470 H 0.40231 0.04566 0.70166 0.0
C471 C 0.62688 0.63754 0.98498 0.0
C472 C 0.57188 0.57678 0.96758 0.0
C473 C 0.54345 0.53144 0.01967 0.0
C474 C 0.59647 0.5934 0.03708 0.0
N475 N 0.68032 0.70946 0.03739 0.0
N476 N 0.47076 0.47051 0.96806 0.0
C477 C 0.63546 0.64779 0.02001 0.0
C478 C 0.52803 0.52497 0.98485 0.0
N479 N 0.67288 0.68405 0.96807 0.0
N480 N 0.50946 0.47817 0.03629 0.0
H481 H 0.45818 0.4641 0.94255 0.0
H482 H 0.43319 0.43437 0.97955 0.0
H483 H 0.51801 0.48167 0.06188 0.0
H484 H 0.47576 0.42962 0.02466 0.0
H485 H 0.71795 0.72578 0.97943 0.0
H486 H 0.66902 0.67819 0.9424 0.0
H487 H 0.70538 0.75275 0.02647 0.0
H488 H 0.6881 0.71853 0.06312 0.0
C489 C 0.00389 0.55393 0.30541 0.0
C490 C 0.05934 0.55772 0.29214 0.0
C491 C 0.11085 0.56627 0.34797 0.0
C492 C 0.06133 0.57434 0.3613 0.0
N493 N 0.96638 0.58751 0.35207 0.0
N494 N 0.17126 0.57792 0.30153 0.0
C495 C 0.00903 0.57094 0.33989 0.0
C496 C 0.11425 0.5661 0.31357 0.0
N497 N 0.94552 0.53225 0.28526 0.0
N498 N 0.15421 0.55814 0.36817 0.0
H499 H 0.17727 0.58105 0.27675 0.0
H500 H 0.21509 0.59125 0.31665 0.0
H501 H 0.15228 0.55698 0.39342 0.0
H502 H 0.1873 0.54582 0.35936 0.0
H503 H 0.90165 0.52258 0.2942 0.0
H504 H 0.93882 0.51676 0.26001 0.0
H505 H 0.93214 0.59264 0.33698 0.0
H506 H 0.96932 0.60251 0.37702 0.0
loop_
_geom_bond_atom_site_label_1
_geom_bond_atom_site_label_2
_geom_bond_distance
_geom_bond_site_symmetry_2
_ccdc_geom_bond_type
O0 Zn1 1.953 . S
O0 C16 1.225 . S
Zn1 O0 1.953 . S
Zn1 O2 1.949 . S
Zn1 O8 1.919 1_455 S
Zn1 O13 1.924 . S
O2 Zn1 1.949 . S
O2 Zn3 1.923 1_455 S
O2 Zn4 1.950 . S
O2 Zn5 1.945 . S
Zn3 O2 1.923 1_655 S
Zn3 O6 1.933 . S
Zn3 O9 1.941 . S
Zn3 O10 1.965 . S
Zn4 O2 1.950 . S
Zn4 O11 1.938 1_455 S
Zn4 O12 1.906 . S
Zn4 O22 1.953 . S
Zn5 O2 1.945 . S
Zn5 O7 1.932 . S
Zn5 O14 1.977 . S
Zn5 O15 1.910 . S
O6 Zn3 1.933 . S
O6 C17 1.226 1_655 S
O7 Zn5 1.932 . S
O7 C17 1.307 . S
O8 Zn1 1.919 1_655 S
O8 C19 1.253 . S
O9 Zn3 1.941 . S
O9 C19 1.283 . S
O10 Zn3 1.965 . S
O10 C18 1.303 . S
O11 Zn4 1.938 1_655 S
O11 C18 1.247 . S
O12 Zn4 1.906 . S
O12 C20 1.304 . S
O13 Zn1 1.924 . S
O13 C21 1.311 . S
O14 Zn5 1.977 . S
O14 C20 1.272 . S
O15 Zn5 1.910 . S
O15 C21 1.231 . S
C16 O0 1.225 . S
C16 O22 1.298 . S
C17 O6 1.226 1_455 S
C17 O7 1.307 . S
C18 O10 1.303 . S
C18 O11 1.247 . S
C19 O8 1.253 . S
C19 O9 1.283 . S
C20 O12 1.304 . S
C20 O14 1.272 . S
C21 O13 1.311 . S
C21 O15 1.231 . S
O22 Zn4 1.953 . S
O22 C16 1.298 . S
O23 Zn24 1.953 . S
O23 C39 1.225 . S
Zn24 O23 1.953 . S
Zn24 O25 1.949 . S
Zn24 O31 1.919 . S
Zn24 O36 1.916 1_545 S
O25 Zn24 1.949 . S
O25 Zn26 1.923 . S
O25 Zn27 1.950 . S
O25 Zn28 1.945 1_545 S
Zn26 O25 1.923 . S
Zn26 O29 1.933 . S
Zn26 O32 1.941 . S
Zn26 O33 1.965 . S
Zn27 O25 1.950 . S
Zn27 O34 1.938 . S
Zn27 O35 1.906 1_545 S
Zn27 O45 1.953 . S
Zn28 O25 1.945 1_565 S
Zn28 O30 1.932 1_565 S
Zn28 O37 1.977 . S
Zn28 O38 1.910 . S
O29 Zn26 1.933 . S
O29 C40 1.226 . S
O30 Zn28 1.932 1_545 S
O30 C40 1.307 . S
O31 Zn24 1.919 . S
O31 C42 1.253 . S
O32 Zn26 1.941 . S
O32 C42 1.283 . S
O33 Zn26 1.965 . S
O33 C41 1.303 . S
O34 Zn27 1.938 . S
O34 C41 1.247 . S
O35 Zn27 1.906 1_565 S
O35 C43 1.304 . S
O36 Zn24 1.916 1_565 S
O36 C44 1.329 . S
O37 Zn28 1.977 . S
O37 C43 1.272 . S
O38 Zn28 1.910 . S
O38 C44 1.231 . S
C39 O23 1.225 . S
C39 O45 1.298 . S
C40 O29 1.226 . S
C40 O30 1.307 . S
C41 O33 1.303 . S
C41 O34 1.247 . S
C42 O31 1.253 . S
C42 O32 1.283 . S
C43 O35 1.304 . S
C43 O37 1.272 . S
C44 O36 1.329 . S
C44 O38 1.231 . S
O45 Zn27 1.953 . S
O45 C39 1.298 . S
O46 Zn47 1.953 . S
O46 C62 1.225 . S
Zn47 O46 1.953 . S
Zn47 O48 1.949 . S
Zn47 O54 1.919 . S
Zn47 O59 1.924 . S
O48 Zn47 1.949 . S
O48 Zn49 1.923 . S
O48 Zn50 1.950 . S
O48 Zn51 1.945 . S
Zn49 O48 1.923 . S
Zn49 O52 1.933 . S
Zn49 O55 1.941 . S
Zn49 O56 1.965 . S
Zn50 O48 1.950 . S
Zn50 O57 1.938 . S
Zn50 O58 1.906 . S
Zn50 O68 1.953 . S
Zn51 O48 1.945 . S
Zn51 O53 1.932 . S
Zn51 O60 1.977 . S
Zn51 O61 1.910 . S
O52 Zn49 1.933 . S
O52 C63 1.226 . S
O53 Zn51 1.932 . S
O53 C63 1.307 . S
O54 Zn47 1.919 . S
O54 C65 1.253 . S
O55 Zn49 1.941 . S
O55 C65 1.283 . S
O56 Zn49 1.965 . S
O56 C64 1.303 . S
O57 Zn50 1.938 . S
O57 C64 1.247 . S
O58 Zn50 1.906 . S
O58 C66 1.304 . S
O59 Zn47 1.924 . S
O59 C67 1.311 . S
O60 Zn51 1.977 . S
O60 C66 1.272 . S
O61 Zn51 1.910 . S
O61 C67 1.231 . S
C62 O46 1.225 . S
C62 O68 1.298 . S
C63 O52 1.226 . S
C63 O53 1.307 . S
C64 O56 1.303 . S
C64 O57 1.247 . S
C65 O54 1.253 . S
C65 O55 1.283 . S
C66 O58 1.304 . S
C66 O60 1.272 . S
C67 O59 1.311 . S
C67 O61 1.231 . S
O68 Zn50 1.953 . S
O68 C62 1.298 . S
H69 C70 0.949 . S
C70 H69 0.949 . S
C70 C71 1.395 . S
C70 C72 1.391 . S
C71 C70 1.395 . S
C71 C74 1.390 1_545 S
C72 C70 1.391 . S
C72 C76 1.387 . S
C72 C77 1.491 . S
H73 C74 0.950 . S
C74 C71 1.390 1_565 S
C74 H73 0.950 . S
C74 C75 1.378 . S
C75 C74 1.378 . S
C75 C76 1.409 1_565 S
C76 C72 1.387 . S
C76 C75 1.409 1_545 S
C76 H78 0.951 . S
C77 C72 1.491 . S
C77 C79 1.382 . S
C77 C81 1.404 . S
H78 C76 0.951 . S
C79 C77 1.382 . S
C79 C80 1.390 . S
C79 H84 0.949 . S
C80 C79 1.390 . S
C80 C85 1.399 . S
C81 C77 1.404 . S
C81 H82 0.950 . S
C81 C83 1.375 . S
H82 C81 0.950 . S
C83 C81 1.375 . S
C83 C85 1.382 . S
C83 H87 0.950 . S
H84 C79 0.949 . S
C85 C80 1.399 . S
C85 C83 1.382 . S
C85 H86 0.952 . S
H86 C85 0.952 . S
H87 C83 0.950 . S
H88 C89 0.949 . S
C89 H88 0.949 . S
C89 C90 1.395 . S
C89 C91 1.391 . S
C90 C89 1.395 . S
C90 C93 1.390 . S
C91 C89 1.391 . S
C91 C95 1.387 . S
C91 C96 1.491 . S
H92 C93 0.950 . S
C93 C90 1.390 . S
C93 H92 0.950 . S
C93 C94 1.378 . S
C94 C93 1.378 . S
C94 C95 1.409 . S
C95 C91 1.387 . S
C95 C94 1.409 . S
C95 H97 0.951 . S
C96 C91 1.491 . S
C96 C98 1.382 . S
C96 C100 1.404 . S
H97 C95 0.951 . S
C98 C96 1.382 . S
C98 C99 1.390 . S
C98 H103 0.949 . S
C99 C98 1.390 . S
C99 C104 1.399 . S
C100 C96 1.404 . S
C100 H101 0.950 . S
C100 C102 1.375 . S
H101 C100 0.950 . S
C102 C100 1.375 . S
C102 C104 1.382 . S
C102 H106 0.950 . S
H103 C98 0.949 . S
C104 C99 1.399 . S
C104 C102 1.382 . S
C104 H105 0.952 . S
H105 C104 0.952 . S
H106 C102 0.950 . S
H107 C108 0.949 . S
C108 H107 0.949 . S
C108 C109 1.395 . S
C108 C110 1.391 . S
C109 C108 1.395 . S
C109 C112 1.390 1_455 S
C110 C108 1.391 . S
C110 C114 1.387 . S
C110 C115 1.491 . S
H111 C112 0.950 . S
C112 C109 1.390 1_655 S
C112 H111 0.950 . S
C112 C113 1.378 . S
C113 C112 1.378 . S
C113 C114 1.409 1_655 S
C114 C110 1.387 . S
C114 C113 1.409 1_455 S
C114 H116 0.951 . S
C115 C110 1.491 . S
C115 C117 1.382 . S
C115 C119 1.404 . S
H116 C114 0.951 . S
C117 C115 1.382 . S
C117 C118 1.390 . S
C117 H122 0.949 . S
C118 C117 1.390 . S
C118 C123 1.399 . S
C119 C115 1.404 . S
C119 H120 0.950 . S
C119 C121 1.375 . S
H120 C119 0.950 . S
C121 C119 1.375 . S
C121 C123 1.382 . S
C121 H125 0.950 . S
H122 C117 0.949 . S
C123 C118 1.399 . S
C123 C121 1.382 . S
C123 H124 0.952 . S
H124 C123 0.952 . S
H125 C121 0.950 . S
H126 C127 0.949 1_655 S
C127 H126 0.949 1_455 S
C127 C128 1.395 . S
C127 C129 1.391 . S
C128 C127 1.395 . S
C128 C131 1.390 . S
C129 C127 1.391 . S
C129 C133 1.387 . S
C129 C134 1.491 1_455 S
H130 C131 0.950 . S
C131 C128 1.390 . S
C131 H130 0.950 . S
C131 C132 1.378 . S
C132 C131 1.378 . S
C132 C133 1.409 . S
C133 C129 1.387 . S
C133 C132 1.409 . S
C133 H135 0.951 . S
C134 C129 1.491 1_655 S
C134 C136 1.382 . S
C134 C138 1.404 . S
H135 C133 0.951 . S
C136 C134 1.382 . S
C136 C137 1.390 . S
C136 H141 0.949 . S
C137 C136 1.390 . S
C137 C142 1.399 . S
C138 C134 1.404 . S
C138 H139 0.950 . S
C138 C140 1.375 . S
H139 C138 0.950 . S
C140 C138 1.375 . S
C140 C142 1.382 . S
C140 H144 0.950 . S
H141 C136 0.949 . S
C142 C137 1.399 . S
C142 C140 1.382 . S
C142 H143 0.952 . S
H143 C142 0.952 . S
H144 C140 0.950 . S
H145 C146 0.949 1_565 S
C146 H145 0.949 1_545 S
C146 C147 1.395 . S
C146 C148 1.391 . S
C147 C146 1.395 . S
C147 C150 1.390 . S
C148 C146 1.391 . S
C148 C152 1.387 . S
C148 C153 1.491 1_545 S
H149 C150 0.950 . S
C150 C147 1.390 . S
C150 H149 0.950 . S
C150 C151 1.378 . S
C151 C150 1.378 . S
C151 C152 1.409 . S
C152 C148 1.387 . S
C152 C151 1.409 . S
C152 H154 0.951 . S
C153 C148 1.491 1_565 S
C153 C155 1.382 . S
C153 C157 1.404 . S
H154 C152 0.951 . S
C155 C153 1.382 . S
C155 C156 1.390 . S
C155 H160 0.949 . S
C156 C155 1.390 . S
C156 C161 1.399 . S
C157 C153 1.404 . S
C157 H158 0.950 . S
C157 C159 1.375 . S
H158 C157 0.950 . S
C159 C157 1.375 . S
C159 C161 1.382 . S
C159 H163 0.950 . S
H160 C155 0.949 . S
C161 C156 1.399 . S
C161 C159 1.382 . S
C161 H162 0.952 . S
H162 C161 0.952 . S
H163 C159 0.950 . S
H164 C165 0.949 . S
C165 H164 0.949 . S
C165 C166 1.395 . S
C165 C167 1.391 . S
C166 C165 1.395 . S
C166 C169 1.390 . S
C167 C165 1.391 . S
C167 C171 1.387 . S
C167 C172 1.491 . S
H168 C169 0.950 . S
C169 C166 1.390 . S
C169 H168 0.950 . S
C169 C170 1.378 . S
C170 C169 1.378 . S
C170 C171 1.409 . S
C171 C167 1.387 . S
C171 C170 1.409 . S
C171 H173 0.951 . S
C172 C167 1.491 . S
C172 C174 1.382 . S
C172 C176 1.404 . S
H173 C171 0.951 . S
C174 C172 1.382 . S
C174 C175 1.390 . S
C174 H179 0.949 . S
C175 C174 1.390 . S
C175 C180 1.399 . S
C176 C172 1.404 . S
C176 H177 0.950 . S
C176 C178 1.375 . S
H177 C176 0.950 . S
C178 C176 1.375 . S
C178 C180 1.382 . S
C178 H182 0.950 . S
H179 C174 0.949 . S
C180 C175 1.399 . S
C180 C178 1.382 . S
C180 H181 0.952 . S
H181 C180 0.952 . S
H182 C178 0.950 . S
C183 C184 1.363 . S
C183 C189 1.379 . S
C183 N191 1.356 . S
C184 C183 1.363 . S
C184 C190 1.363 . S
C185 C186 1.363 . S
C185 C190 1.379 . S
C185 N192 1.356 . S
C186 C185 1.363 . S
C186 C189 1.363 . S
N187 C189 1.356 . S
N187 H199 0.984 . S
N187 H200 0.985 . S
N188 C190 1.356 . S
N188 H193 0.984 . S
N188 H194 0.985 . S
C189 C183 1.379 . S
C189 C186 1.363 . S
C189 N187 1.356 . S
C190 C184 1.363 . S
C190 C185 1.379 . S
C190 N188 1.356 . S
N191 C183 1.356 . S
N191 H197 0.984 . S
N191 H198 0.984 . S
N192 C185 1.356 . S
N192 H195 0.984 . S
N192 H196 0.985 . S
H193 N188 0.984 . S
H194 N188 0.985 . S
H195 N192 0.984 . S
H196 N192 0.985 . S
H197 N191 0.984 . S
H198 N191 0.984 . S
H199 N187 0.984 . S
H200 N187 0.985 . S
C201 C202 1.363 . S
C201 C207 1.379 . S
C201 N209 1.356 . S
C202 C201 1.363 . S
C202 C208 1.363 . S
C203 C204 1.363 . S
C203 C208 1.379 . S
C203 N210 1.356 . S
C204 C203 1.363 . S
C204 C207 1.363 . S
N205 C207 1.356 . S
N205 H217 0.984 . S
N205 H218 0.985 . S
N206 C208 1.356 . S
N206 H211 0.984 . S
N206 H212 0.985 . S
C207 C201 1.379 . S
C207 C204 1.363 . S
C207 N205 1.356 . S
C208 C202 1.363 . S
C208 C203 1.379 . S
C208 N206 1.356 . S
N209 C201 1.356 . S
N209 H215 0.984 . S
N209 H216 0.984 . S
N210 C203 1.356 . S
N210 H213 0.984 . S
N210 H214 0.985 . S
H211 N206 0.984 . S
H212 N206 0.985 . S
H213 N210 0.984 . S
H214 N210 0.985 . S
H215 N209 0.984 . S
H216 N209 0.984 . S
H217 N205 0.984 . S
H218 N205 0.985 . S
C219 C220 1.363 . S
C219 C225 1.379 . S
C219 N227 1.356 . S
C220 C219 1.363 . S
C220 C226 1.363 . S
C221 C222 1.363 . S
C221 C226 1.379 . S
C221 N228 1.356 . S
C222 C221 1.363 . S
C222 C225 1.363 . S
N223 C225 1.356 . S
N223 H235 0.984 . S
N223 H236 0.985 . S
N224 C226 1.356 . S
N224 H229 0.984 . S
N224 H230 0.985 . S
C225 C219 1.379 . S
C225 C222 1.363 . S
C225 N223 1.356 . S
C226 C220 1.363 . S
C226 C221 1.379 . S
C226 N224 1.356 . S
N227 C219 1.356 . S
N227 H233 0.984 . S
N227 H234 0.984 . S
N228 C221 1.356 . S
N228 H231 0.984 . S
N228 H232 0.985 . S
H229 N224 0.984 . S
H230 N224 0.985 . S
H231 N228 0.984 . S
H232 N228 0.985 . S
H233 N227 0.984 . S
H234 N227 0.984 . S
H235 N223 0.984 . S
H236 N223 0.985 . S
C237 C238 1.363 . S
C237 C243 1.379 . S
C237 N245 1.356 . S
C238 C237 1.363 . S
C238 C244 1.363 . S
C239 C240 1.363 . S
C239 C244 1.379 . S
C239 N246 1.356 . S
C240 C239 1.363 . S
C240 C243 1.363 . S
N241 C243 1.356 . S
N241 H253 0.984 . S
N241 H254 0.985 . S
N242 C244 1.356 . S
N242 H247 0.984 . S
N242 H248 0.985 . S
C243 C237 1.379 . S
C243 C240 1.363 . S
C243 N241 1.356 . S
C244 C238 1.363 . S
C244 C239 1.379 . S
C244 N242 1.356 . S
N245 C237 1.356 . S
N245 H251 0.984 . S
N245 H252 0.984 . S
N246 C239 1.356 . S
N246 H249 0.984 . S
N246 H250 0.985 . S
H247 N242 0.984 . S
H248 N242 0.985 . S
H249 N246 0.984 . S
H250 N246 0.985 . S
H251 N245 0.984 . S
H252 N245 0.984 . S
H253 N241 0.984 . S
H254 N241 0.985 . S
C255 C256 1.363 . S
C255 C261 1.379 . S
C255 N263 1.356 . S
C256 C255 1.363 . S
C256 C262 1.363 . S
C257 C258 1.363 . S
C257 C262 1.379 . S
C257 N264 1.356 . S
C258 C257 1.363 . S
C258 C261 1.363 . S
N259 C261 1.356 . S
N259 H271 0.984 . S
N259 H272 0.985 . S
N260 C262 1.356 . S
N260 H265 0.984 . S
N260 H266 0.985 . S
C261 C255 1.379 . S
C261 C258 1.363 . S
C261 N259 1.356 . S
C262 C256 1.363 . S
C262 C257 1.379 . S
C262 N260 1.356 . S
N263 C255 1.356 . S
N263 H269 0.984 . S
N263 H270 0.984 . S
N264 C257 1.356 . S
N264 H267 0.984 . S
N264 H268 0.985 . S
H265 N260 0.984 . S
H266 N260 0.985 . S
H267 N264 0.984 . S
H268 N264 0.985 . S
H269 N263 0.984 . S
H270 N263 0.984 . S
H271 N259 0.984 . S
H272 N259 0.985 . S
C273 C274 1.363 . S
C273 C279 1.379 . S
C273 N281 1.356 . S
C274 C273 1.363 . S
C274 C280 1.363 . S
C275 C276 1.363 . S
C275 C280 1.379 . S
C275 N282 1.356 . S
C276 C275 1.363 . S
C276 C279 1.363 . S
N277 C279 1.356 . S
N277 H289 0.984 . S
N277 H290 0.985 . S
N278 C280 1.356 . S
N278 H283 0.984 . S
N278 H284 0.985 . S
C279 C273 1.379 . S
C279 C276 1.363 . S
C279 N277 1.356 . S
C280 C274 1.363 . S
C280 C275 1.379 . S
C280 N278 1.356 . S
N281 C273 1.356 . S
N281 H287 0.984 . S
N281 H288 0.984 . S
N282 C275 1.356 . S
N282 H285 0.984 . S
N282 H286 0.985 . S
H283 N278 0.984 . S
H284 N278 0.985 . S
H285 N282 0.984 . S
H286 N282 0.985 . S
H287 N281 0.984 . S
H288 N281 0.984 . S
H289 N277 0.984 . S
H290 N277 0.985 . S
C291 C292 1.363 . S
C291 C297 1.379 . S
C291 N299 1.356 . S
C292 C291 1.363 . S
C292 C298 1.363 . S
C293 C294 1.363 . S
C293 C298 1.379 . S
C293 N300 1.356 . S
C294 C293 1.363 . S
C294 C297 1.363 . S
N295 C297 1.356 . S
N295 H307 0.984 . S
N295 H308 0.985 . S
N296 C298 1.356 . S
N296 H301 0.984 . S
N296 H302 0.985 . S
C297 C291 1.379 . S
C297 C294 1.363 . S
C297 N295 1.356 . S
C298 C292 1.363 . S
C298 C293 1.379 . S
C298 N296 1.356 . S
N299 C291 1.356 . S
N299 H305 0.984 . S
N299 H306 0.984 . S
N300 C293 1.356 . S
N300 H303 0.984 . S
N300 H304 0.985 . S
H301 N296 0.984 . S
H302 N296 0.985 . S
H303 N300 0.984 . S
H304 N300 0.985 . S
H305 N299 0.984 . S
H306 N299 0.984 . S
H307 N295 0.984 . S
H308 N295 0.985 . S
C309 C310 1.363 . S
C309 C315 1.379 . S
C309 N317 1.356 . S
C310 C309 1.363 . S
C310 C316 1.363 . S
C311 C312 1.363 . S
C311 C316 1.379 . S
C311 N318 1.356 . S
C312 C311 1.363 . S
C312 C315 1.363 . S
N313 C315 1.356 . S
N313 H325 0.984 . S
N313 H326 0.985 . S
N314 C316 1.356 . S
N314 H319 0.984 . S
N314 H320 0.985 . S
C315 C309 1.379 . S
C315 C312 1.363 . S
C315 N313 1.356 . S
C316 C310 1.363 . S
C316 C311 1.379 . S
C316 N314 1.356 . S
N317 C309 1.356 . S
N317 H323 0.984 . S
N317 H324 0.984 . S
N318 C311 1.356 . S
N318 H321 0.984 1_655 S
N318 H322 0.985 1_655 S
H319 N314 0.984 . S
H320 N314 0.985 . S
H321 N318 0.984 1_455 S
H322 N318 0.985 1_455 S
H323 N317 0.984 . S
H324 N317 0.984 . S
H325 N313 0.984 . S
H326 N313 0.985 . S
C327 C328 1.363 . S
C327 C333 1.379 . S
C327 N335 1.356 . S
C328 C327 1.363 . S
C328 C334 1.363 . S
C329 C330 1.363 . S
C329 C334 1.379 . S
C329 N336 1.356 . S
C330 C329 1.363 . S
C330 C333 1.363 . S
N331 C333 1.356 . S
N331 H343 0.984 . S
N331 H344 0.985 . S
N332 C334 1.356 . S
N332 H337 0.984 . S
N332 H338 0.985 . S
C333 C327 1.379 . S
C333 C330 1.363 . S
C333 N331 1.356 . S
C334 C328 1.363 . S
C334 C329 1.379 . S
C334 N332 1.356 . S
N335 C327 1.356 . S
N335 H341 0.984 . S
N335 H342 0.984 . S
N336 C329 1.356 . S
N336 H339 0.984 . S
N336 H340 0.985 . S
H337 N332 0.984 . S
H338 N332 0.985 . S
H339 N336 0.984 . S
H340 N336 0.985 . S
H341 N335 0.984 . S
H342 N335 0.984 . S
H343 N331 0.984 . S
H344 N331 0.985 . S
C345 C346 1.363 . S
C345 C351 1.379 . S
C345 N353 1.356 . S
C346 C345 1.363 . S
C346 C352 1.363 . S
C347 C348 1.363 . S
C347 C352 1.379 . S
C347 N354 1.356 . S
C348 C347 1.363 . S
C348 C351 1.363 . S
N349 C351 1.356 . S
N349 H361 0.984 . S
N349 H362 0.985 . S
N350 C352 1.356 . S
N350 H355 0.984 . S
N350 H356 0.985 . S
C351 C345 1.379 . S
C351 C348 1.363 . S
C351 N349 1.356 . S
C352 C346 1.363 . S
C352 C347 1.379 . S
C352 N350 1.356 . S
N353 C345 1.356 . S
N353 H359 0.984 . S
N353 H360 0.984 . S
N354 C347 1.356 . S
N354 H357 0.984 . S
N354 H358 0.985 . S
H355 N350 0.984 . S
H356 N350 0.985 . S
H357 N354 0.984 . S
H358 N354 0.985 . S
H359 N353 0.984 . S
H360 N353 0.984 . S
H361 N349 0.984 . S
H362 N349 0.985 . S
C363 C364 1.363 . S
C363 C369 1.379 . S
C363 N371 1.356 . S
C364 C363 1.363 . S
C364 C370 1.363 . S
C365 C366 1.363 . S
C365 C370 1.379 . S
C365 N372 1.356 . S
C366 C365 1.363 . S
C366 C369 1.363 . S
N367 C369 1.356 . S
N367 H379 0.984 . S
N367 H380 0.985 . S
N368 C370 1.356 . S
N368 H373 0.984 . S
N368 H374 0.985 . S
C369 C363 1.379 . S
C369 C366 1.363 . S
C369 N367 1.356 . S
C370 C364 1.363 . S
C370 C365 1.379 . S
C370 N368 1.356 . S
N371 C363 1.356 . S
N371 H377 0.984 . S
N371 H378 0.984 . S
N372 C365 1.356 . S
N372 H375 0.984 . S
N372 H376 0.985 . S
H373 N368 0.984 . S
H374 N368 0.985 . S
H375 N372 0.984 . S
H376 N372 0.985 . S
H377 N371 0.984 . S
H378 N371 0.984 . S
H379 N367 0.984 . S
H380 N367 0.985 . S
C381 C382 1.363 . S
C381 C387 1.379 . S
C381 N389 1.356 . S
C382 C381 1.363 . S
C382 C388 1.363 . S
C383 C384 1.363 . S
C383 C388 1.379 . S
C383 N390 1.356 . S
C384 C383 1.363 . S
C384 C387 1.363 . S
N385 C387 1.356 . S
N385 H397 0.984 . S
N385 H398 0.985 . S
N386 C388 1.356 . S
N386 H391 0.984 . S
N386 H392 0.985 . S
C387 C381 1.379 . S
C387 C384 1.363 . S
C387 N385 1.356 . S
C388 C382 1.363 . S
C388 C383 1.379 . S
C388 N386 1.356 . S
N389 C381 1.356 . S
N389 H395 0.984 . S
N389 H396 0.984 . S
N390 C383 1.356 . S
N390 H393 0.984 . S
N390 H394 0.985 . S
H391 N386 0.984 . S
H392 N386 0.985 . S
H393 N390 0.984 . S
H394 N390 0.985 . S
H395 N389 0.984 . S
H396 N389 0.984 . S
H397 N385 0.984 . S
H398 N385 0.985 . S
C399 C400 1.363 . S
C399 C405 1.382 1_554 S
C399 N407 1.356 . S
C400 C399 1.363 . S
C400 C406 1.363 . S
C401 C402 1.363 . S
C401 C406 1.379 1_556 S
C401 N408 1.356 . S
C402 C401 1.363 . S
C402 C405 1.360 . S
N403 C405 1.354 . S
N403 H415 0.984 . S
N403 H416 0.985 . S
N404 C406 1.356 . S
N404 H409 0.984 . S
N404 H410 0.985 . S
C405 C399 1.382 1_556 S
C405 C402 1.360 . S
C405 N403 1.354 . S
C406 C400 1.363 . S
C406 C401 1.379 1_554 S
C406 N404 1.356 . S
N407 C399 1.356 . S
N407 H413 0.984 . S
N407 H414 0.984 . S
N408 C401 1.356 . S
N408 H411 0.984 . S
N408 H412 0.985 . S
H409 N404 0.984 . S
H410 N404 0.985 . S
H411 N408 0.984 . S
H412 N408 0.985 . S
H413 N407 0.984 . S
H414 N407 0.984 . S
H415 N403 0.984 . S
H416 N403 0.985 . S
C417 C418 1.363 . S
C417 C423 1.379 . S
C417 N425 1.356 1_545 S
C418 C417 1.363 . S
C418 C424 1.363 . S
C419 C420 1.363 . S
C419 C424 1.379 . S
C419 N426 1.356 . S
C420 C419 1.363 . S
C420 C423 1.363 . S
N421 C423 1.356 1_565 S
N421 H433 0.984 . S
N421 H434 0.985 . S
N422 C424 1.356 . S
N422 H427 0.984 . S
N422 H428 0.985 . S
C423 C417 1.379 . S
C423 C420 1.363 . S
C423 N421 1.356 1_545 S
C424 C418 1.363 . S
C424 C419 1.379 . S
C424 N422 1.356 . S
N425 C417 1.356 1_565 S
N425 H431 0.984 . S
N425 H432 0.984 . S
N426 C419 1.356 . S
N426 H429 0.984 . S
N426 H430 0.985 . S
H427 N422 0.984 . S
H428 N422 0.985 . S
H429 N426 0.984 . S
H430 N426 0.985 . S
H431 N425 0.984 . S
H432 N425 0.984 . S
H433 N421 0.984 . S
H434 N421 0.985 . S
C435 C436 1.363 . S
C435 C441 1.379 . S
C435 N443 1.356 . S
C436 C435 1.363 . S
C436 C442 1.363 . S
C437 C438 1.363 . S
C437 C442 1.379 . S
C437 N444 1.356 . S
C438 C437 1.363 . S
C438 C441 1.363 . S
N439 C441 1.356 . S
N439 H451 0.984 . S
N439 H452 0.985 . S
N440 C442 1.356 . S
N440 H445 0.984 . S
N440 H446 0.985 . S
C441 C435 1.379 . S
C441 C438 1.363 . S
C441 N439 1.356 . S
C442 C436 1.363 . S
C442 C437 1.379 . S
C442 N440 1.356 . S
N443 C435 1.356 . S
N443 H449 0.984 . S
N443 H450 0.984 . S
N444 C437 1.356 . S
N444 H447 0.984 . S
N444 H448 0.985 . S
H445 N440 0.984 . S
H446 N440 0.985 . S
H447 N444 0.984 . S
H448 N444 0.985 . S
H449 N443 0.984 . S
H450 N443 0.984 . S
H451 N439 0.984 . S
H452 N439 0.985 . S
C453 C454 1.363 . S
C453 C459 1.379 . S
C453 N461 1.356 1_545 S
C454 C453 1.363 . S
C454 C460 1.363 . S
C455 C456 1.363 . S
C455 C460 1.379 . S
C455 N462 1.356 . S
C456 C455 1.363 . S
C456 C459 1.363 . S
N457 C459 1.356 1_565 S
N457 H469 0.984 . S
N457 H470 0.985 . S
N458 C460 1.356 . S
N458 H463 0.984 . S
N458 H464 0.985 . S
C459 C453 1.379 . S
C459 C456 1.363 . S
C459 N457 1.356 1_545 S
C460 C454 1.363 . S
C460 C455 1.379 . S
C460 N458 1.356 . S
N461 C453 1.356 1_565 S
N461 H467 0.984 . S
N461 H468 0.984 1_565 S
N462 C455 1.356 . S
N462 H465 0.984 . S
N462 H466 0.985 . S
H463 N458 0.984 . S
H464 N458 0.985 . S
H465 N462 0.984 . S
H466 N462 0.985 . S
H467 N461 0.984 . S
H468 N461 0.984 1_545 S
H469 N457 0.984 . S
H470 N457 0.985 . S
C471 C472 1.363 . S
C471 C477 1.379 1_556 S
C471 N479 1.356 . S
C472 C471 1.363 . S
C472 C478 1.363 . S
C473 C474 1.341 1_556 S
C473 C478 1.414 . S
C473 N480 1.333 1_556 S
C474 C473 1.341 1_554 S
C474 C477 1.363 . S
N475 C477 1.356 . S
N475 H487 0.984 . S
N475 H488 0.985 . S
N476 C478 1.356 . S
N476 H481 0.984 . S
N476 H482 0.985 . S
C477 C471 1.379 1_554 S
C477 C474 1.363 . S
C477 N475 1.356 . S
C478 C472 1.363 . S
C478 C473 1.414 . S
C478 N476 1.356 . S
N479 C471 1.356 . S
N479 H485 0.984 . S
N479 H486 0.984 . S
N480 C473 1.333 1_554 S
N480 H483 0.984 . S
N480 H484 0.985 . S
H481 N476 0.984 . S
H482 N476 0.985 . S
H483 N480 0.984 . S
H484 N480 0.985 . S
H485 N479 0.984 . S
H486 N479 0.984 . S
H487 N475 0.984 . S
H488 N475 0.985 . S
C489 C490 1.363 . S
C489 C495 1.379 . S
C489 N497 1.356 1_455 S
C490 C489 1.363 . S
C490 C496 1.363 . S
C491 C492 1.363 . S
C491 C496 1.379 . S
C491 N498 1.356 . S
C492 C491 1.363 . S
C492 C495 1.363 . S
N493 C495 1.356 1_655 S
N493 H505 0.984 . S
N493 H506 0.985 . S
N494 C496 1.356 . S
N494 H499 0.984 . S
N494 H500 0.985 . S
C495 C489 1.379 . S
C495 C492 1.363 . S
C495 N493 1.356 1_455 S
C496 C490 1.363 . S
C496 C491 1.379 . S
C496 N494 1.356 . S
N497 C489 1.356 1_655 S
N497 H503 0.984 . S
N497 H504 0.984 . S
N498 C491 1.356 . S
N498 H501 0.984 . S
N498 H502 0.985 . S
H499 N494 0.984 . S
H500 N494 0.985 . S
H501 N498 0.984 . S
H502 N498 0.985 . S
H503 N497 0.984 . S
H504 N497 0.984 . S
H505 N493 0.984 . S
H506 N493 0.985 . S
C184 C20 1.363 . S
C186 C175 1.326 . S
C202 C41 1.394 . S
C204 C137 1.339 . S
C220 C64 1.425 . S
C222 C156 1.378 . S
C238 C19 1.386 . S
C240 C170 1.488 . S
C258 C132 1.437 . S
C256 C44 1.420 . S
C276 C151 1.368 . S
C274 C67 1.363 . S
C292 C43 1.354 . S
C294 C99 1.325 . S
C310 C66 1.285 . S
C312 C113 1.353 . S
C328 C21 1.418 . S
C330 C75 1.436 . S
C348 C94 1.466 . S
C346 C42 1.369 . S
C366 C118 1.377 . S
C364 C65 1.364 . S
C382 C18 1.395 . S
C384 C80 1.340 . S
C402 C109 1.575 . S
C400 C17 1.579 . S
C418 C39 1.595 . S
C420 C71 1.580 . S
C436 C62 1.578 . S
C438 C90 1.561 . S
C456 C147 1.573 . S
C454 C40 1.575 . S
C474 C166 1.551 . S
C472 C63 1.569 . S
C490 C16 1.592 . S
C492 C128 1.576 . S
