# Generated by pormake.
# Topology pth, (4,4)-cn, num edge types: 1
# Building blocks:
#     Node 0, Type 0, BuildingBlock: TATPOV_clean_sbu_0, # of connection points: 4
#     Node 1, Type 0, BuildingBlock: TATPOV_clean_sbu_0, # of connection points: 4
#     Node 2, Type 0, BuildingBlock: TATPOV_clean_sbu_0, # of connection points: 4
#     Node 3, Type 1, BuildingBlock: MUDLON_clean_linker_0, # of connection points: 4
#     Node 4, Type 1, BuildingBlock: MUDLON_clean_linker_0, # of connection points: 4
#     Node 5, Type 1, BuildingBlock: MUDLON_clean_linker_0, # of connection points: 4
#     Edge 6, Type (0, 1), BuildingBlock: EZIPEK_clean_linker_0, # of connection points: 2
#     Edge 7, Type (0, 1), BuildingBlock: EZIPEK_clean_linker_0, # of connection points: 2
#     Edge 8, Type (0, 1), BuildingBlock: EZIPEK_clean_linker_0, # of connection points: 2
#     Edge 9, Type (0, 1), BuildingBlock: EZIPEK_clean_linker_0, # of connection points: 2
#     Edge 10, Type (0, 1), BuildingBlock: EZIPEK_clean_linker_0, # of connection points: 2
#     Edge 11, Type (0, 1), BuildingBlock: EZIPEK_clean_linker_0, # of connection points: 2
#     Edge 12, Type (0, 1), BuildingBlock: EZIPEK_clean_linker_0, # of connection points: 2
#     Edge 13, Type (0, 1), BuildingBlock: EZIPEK_clean_linker_0, # of connection points: 2
#     Edge 14, Type (0, 1), BuildingBlock: EZIPEK_clean_linker_0, # of connection points: 2
#     Edge 15, Type (0, 1), BuildingBlock: EZIPEK_clean_linker_0, # of connection points: 2
#     Edge 16, Type (0, 1), BuildingBlock: EZIPEK_clean_linker_0, # of connection points: 2
#     Edge 17, Type (0, 1), BuildingBlock: EZIPEK_clean_linker_0, # of connection points: 2
# Relax obj value: 0.057
# Max RMSD: 0.167
# Mean RMSD: 0.112
data_MOF--net-pth--node1-TATPOV_clean_sbu_0--node2-MUDLON_clean_linker_0--edge1-EZIPEK_clean_linker_0
_symmetry_space_group_name_H-M    P1
_symmetry_Int_Tables_number       1
_symmetry_cell_setting            triclinic
loop_
_symmetry_equiv_pos_as_xyz
'x, y, z'
_cell_length_a     27.346379
_cell_length_b     27.010475
_cell_length_c     53.640297
_cell_angle_alpha  92.469623
_cell_angle_beta   92.534726
_cell_angle_gamma 120.87053
loop_
_atom_site_label
_atom_site_type_symbol
_atom_site_fract_x
_atom_site_fract_y
_atom_site_fract_z
_atom_type_partial_charge
Zn0 Zn 0.09413 0.98474 0.00151 0.0
Zn1 Zn 0.0393 0.02473 0.02811 0.0
O2 O 0.05433 0.97436 0.05112 0.0
O3 O 0.10341 0.94415 0.03071 0.0
O4 O 0.01208 0.06408 0.05162 0.0
O5 O 0.15512 0.06434 -0.00679 0.0
O6 O 0.1028 0.09362 0.01143 0.0
C7 C 0.07851 0.94477 0.04996 0.0
C8 C 0.97459 0.94476 0.98312 0.0
O9 O 0.97343 0.97311 0.00245 0.0
O10 O 0.01971 0.94433 0.97884 0.0
C11 C 0.98732 0.09058 0.04449 0.0
O12 O 0.97545 0.0906 0.02049 0.0
C13 C 0.14499 0.10401 -0.0012 0.0
Zn14 Zn 0.12359 0.09021 0.33472 0.0
Zn15 Zn 0.033 0.04806 0.36251 0.0
O16 O 0.10175 0.06651 0.38687 0.0
O17 O 0.17772 0.10897 0.36527 0.0
O18 O 0.97053 0.03092 0.38545 0.0
O19 O 0.10599 0.14742 0.32004 0.0
O20 O 0.0323 0.11174 0.34307 0.0
C21 C 0.15557 0.0905 0.38562 0.0
C22 C 0.03417 0.96863 0.32192 0.0
O23 O 0.00694 0.97546 0.33911 0.0
O24 O 0.08307 0.00954 0.31728 0.0
C25 C 0.95747 -0.00224 0.40321 0.0
O26 O 0.98271 0.96801 0.4066 0.0
C27 C 0.06125 0.1455 0.32666 0.0
Zn28 Zn 0.09646 0.95479 0.72286 0.0
Zn29 Zn 0.03782 0.98978 0.69471 0.0
O30 O 0.09324 0.98316 0.67175 0.0
O31 O 0.14025 0.95209 0.69411 0.0
O32 O 0.98852 0.00396 0.6704 0.0
O33 O 0.02458 0.88402 0.73216 0.0
O34 O 0.97902 0.92147 0.71345 0.0
C35 C 0.13103 0.969 0.67376 0.0
C36 C 0.11339 0.06957 0.73818 0.0
O37 O 0.08027 0.06143 0.71901 0.0
O38 O 0.12523 0.03144 0.74367 0.0
C39 C 0.96844 0.03622 0.6754 0.0
O40 O 0.97974 0.06333 0.69772 0.0
C41 C 0.97888 0.88386 0.72704 0.0
H42 H 0.86867 0.69487 0.20126 0.0
N43 N 0.94492 0.67083 0.185 0.0
H44 H 0.88095 0.75912 0.23794 0.0
H45 H 0.03277 0.71556 0.22143 0.0
H46 H 0.04606 0.78143 0.2577 0.0
H47 H 0.05876 0.74918 0.18112 0.0
H48 H 0.09927 0.81656 0.14834 0.0
H49 H 0.89024 0.67682 0.14422 0.0
H50 H 0.93067 0.74536 0.11169 0.0
H51 H 0.86096 0.5721 0.19905 0.0
H52 H 0.03124 0.65014 0.17436 0.0
H53 H 0.85725 0.4804 0.20138 0.0
H54 H 0.0265 0.55792 0.17489 0.0
H55 H 0.95895 0.21149 0.19302 0.0
H56 H -0.00599 0.18907 0.23027 0.0
H57 H 0.96695 0.30752 0.27521 0.0
H58 H 0.932 0.3319 0.23769 0.0
H59 H 0.02153 0.32408 0.1685 0.0
H60 H 0.0353 0.2782 0.13107 0.0
H61 H 0.85296 0.16209 0.11909 0.0
H62 H 0.83948 0.20689 0.15701 0.0
H63 H 0.83843 0.30959 0.1779 0.0
H64 H 0.84642 0.40346 0.17615 0.0
H65 H 0.02696 0.48804 0.1989 0.0
N66 N 0.9203 0.28775 0.1895 0.0
H67 H 0.01872 0.3935 0.19897 0.0
C68 C 0.9501 0.70143 0.2085 0.0
C69 C 0.90681 0.71254 0.21388 0.0
C70 C 0.91374 0.74888 0.23473 0.0
C71 C 0.96456 0.77519 0.25031 0.0
C72 C 0.00661 0.76147 0.24581 0.0
C73 C -0.00072 0.72441 0.22508 0.0
C74 C 0.97124 0.7073 0.16492 0.0
C75 C 0.0305 0.74722 0.16587 0.0
C76 C 0.05367 0.78595 0.14726 0.0
C77 C 0.01787 0.78622 0.12777 0.0
C78 C 0.95894 0.7459 0.12665 0.0
C79 C 0.93595 0.70673 0.14505 0.0
C80 C 0.94574 0.61799 0.18625 0.0
C81 C 0.89734 0.56925 0.19389 0.0
C82 C 0.89518 0.51665 0.19495 0.0
C83 C 0.94121 0.51106 0.1879 0.0
C84 C 0.99033 0.56039 0.18065 0.0
C85 C -0.00713 0.61346 0.18009 0.0
C86 C 0.94597 0.27716 0.21159 0.0
C87 C 0.96235 0.23524 0.2104 0.0
C88 C 0.98209 0.22159 0.23187 0.0
C89 C 0.98448 0.24778 0.25532 0.0
C90 C 0.96689 0.28813 0.2571 0.0
C91 C 0.94724 0.30217 0.23552 0.0
C92 C 0.92935 0.26819 0.16561 0.0
C93 C 0.98452 0.28959 0.15754 0.0
C94 C 0.99235 0.26332 0.13629 0.0
C95 C 0.94515 0.21639 0.12252 0.0
C96 C 0.88987 0.19796 0.12958 0.0
C97 C 0.88216 0.22345 0.15109 0.0
C98 C 0.92754 0.34452 0.1889 0.0
C99 C 0.87966 0.34853 0.18244 0.0
C100 C 0.88437 0.40236 0.18169 0.0
C101 C 0.93722 0.45379 0.1878 0.0
C102 C 0.98563 0.44965 0.19387 0.0
C103 C 0.981 0.39557 0.19412 0.0
H104 H 0.83388 0.1625 0.56076 0.0
N105 N 0.74911 0.0766 0.53159 0.0
H106 H 0.88502 0.15409 0.59772 0.0
H107 H 0.71771 0.97793 0.55497 0.0
H108 H 0.76892 0.96938 0.59171 0.0
H109 H 0.70755 0.96745 0.51013 0.0
H110 H 0.75198 0.94028 0.47755 0.0
H111 H 0.83205 0.14744 0.50436 0.0
H112 H 0.87598 0.12051 0.47157 0.0
H113 H 0.73645 0.16637 0.52611 0.0
H114 H 0.64166 0.98319 0.53441 0.0
H115 H 0.64818 0.16857 0.52585 0.0
H116 H 0.55291 0.98491 0.53493 0.0
H117 H 0.3638 0.15267 0.56588 0.0
H118 H 0.29843 0.11512 0.59937 0.0
H119 H 0.27476 0.94606 0.58322 0.0
H120 H 0.33984 0.98363 0.54948 0.0
H121 H 0.30618 -0.00094 0.5076 0.0
H122 H 0.24951 -0.00059 0.4709 0.0
H123 H 0.35422 0.18536 0.47338 0.0
H124 H 0.4107 0.18501 0.51035 0.0
H125 H 0.49594 0.16776 0.55611 0.0
H126 H 0.5815 0.16088 0.55504 0.0
H127 H 0.48461 -0.00133 0.50989 0.0
N128 N 0.39245 0.0944 0.5349 0.0
H129 H 0.3988 0.00539 0.51172 0.0
C130 C 0.7721 0.07105 0.55522 0.0
C131 C 0.81873 0.12046 0.56782 0.0
C132 C 0.84787 0.11563 0.58875 0.0
C133 C 0.83076 0.0611 0.59729 0.0
C134 C 0.78258 0.01179 0.58536 0.0
C135 C 0.75334 0.0167 0.56445 0.0
C136 C 0.76675 0.05961 0.5096 0.0
C137 C 0.74352 0.0011 0.50147 0.0
C138 C 0.76881 0.9856 0.48293 0.0
C139 C 0.81727 0.02847 0.47227 0.0
C140 C 0.83855 0.08691 0.47955 0.0
C141 C 0.81346 0.10226 0.49809 0.0
C142 C 0.69566 0.07494 0.53042 0.0
C143 C 0.69638 0.12662 0.52788 0.0
C144 C 0.64592 0.12776 0.52794 0.0
C145 C 0.59334 0.07702 0.53069 0.0
C146 C 0.59252 0.02473 0.53264 0.0
C147 C 0.64329 0.02368 0.5325 0.0
C148 C 0.35705 0.07126 0.55542 0.0
C149 C 0.34481 0.10765 0.5697 0.0
C150 C 0.30743 0.08621 0.58862 0.0
C151 C 0.28162 0.02783 0.59358 0.0
C152 C 0.29412 0.99118 0.5795 0.0
C153 C 0.33145 0.01269 0.56042 0.0
C154 C 0.36285 0.09223 0.51163 0.0
C155 C 0.31753 0.03983 0.5001 0.0
C156 C 0.28503 0.04002 0.47927 0.0
C157 C 0.29753 0.09246 0.46965 0.0
C158 C 0.34386 0.14456 0.48066 0.0
C159 C 0.37617 0.14435 0.50154 0.0
C160 C 0.44129 0.08761 0.53388 0.0
C161 C 0.49329 0.13074 0.54603 0.0
C162 C 0.54217 0.12683 0.54523 0.0
C163 C 0.54025 0.07952 0.53211 0.0
C164 C 0.48763 0.03555 0.52026 0.0
C165 C 0.43852 0.0395 0.52115 0.0
H166 H 0.75528 0.85035 0.84827 0.0
N167 N 0.67204 0.7398 0.84134 0.0
H168 H 0.82578 0.89817 0.88419 0.0
H169 H 0.67461 0.69171 0.88571 0.0
H170 H 0.74208 0.74099 0.92217 0.0
H171 H 0.74345 0.69734 0.8379 0.0
H172 H 0.81153 0.71891 0.8059 0.0
H173 H 0.67035 0.78166 0.79757 0.0
H174 H 0.73908 0.80395 0.76564 0.0
H175 H 0.57885 0.73814 0.85419 0.0
H176 H 0.64302 0.62574 0.83622 0.0
H177 H 0.4878 0.65456 0.86332 0.0
H178 H 0.55169 0.542 0.84408 0.0
H179 H 0.32138 0.3081 0.88284 0.0
H180 H 0.28939 0.24739 0.91798 0.0
H181 H 0.22517 0.35048 0.94952 0.0
H182 H 0.25524 0.41044 0.91353 0.0
H183 H 0.34679 0.3493 0.84208 0.0
H184 H 0.29886 0.2749 0.80736 0.0
H185 H 0.14194 0.27221 0.81731 0.0
H186 H 0.18984 0.34641 0.85253 0.0
H187 H 0.31366 0.48771 0.85305 0.0
H188 H 0.40446 0.57198 0.84428 0.0
H189 H 0.49443 0.49496 0.8773 0.0
N190 N 0.29649 0.39207 0.87236 0.0
H191 H 0.40352 0.41003 0.88489 0.0
C192 C 0.70935 0.76743 0.86397 0.0
C193 C 0.75202 0.82614 0.86433 0.0
C194 C 0.79213 0.85341 0.88481 0.0
C195 C 0.78921 0.82307 0.90582 0.0
C196 C 0.74519 0.76507 0.90607 0.0
C197 C 0.7064 0.73703 0.88516 0.0
C198 C 0.70183 0.7381 0.82006 0.0
C199 C 0.74037 0.71819 0.82162 0.0
C200 C 0.77922 0.73049 0.80338 0.0
C201 C 0.78021 0.76303 0.7835 0.0
C202 C 0.73852 0.77835 0.78076 0.0
C203 C 0.69949 0.76579 0.79893 0.0
C204 C 0.61753 0.68851 0.84418 0.0
C205 C 0.57281 0.69529 0.85173 0.0
C206 C 0.52082 0.64741 0.85688 0.0
C207 C 0.51225 0.59138 0.85442 0.0
C208 C 0.55699 0.58453 0.84654 0.0
C209 C 0.60922 0.63256 0.84164 0.0
C210 C 0.28936 0.36325 0.89519 0.0
C211 C 0.30116 0.3185 0.89733 0.0
C212 C 0.28329 0.28394 0.91751 0.0
C213 C 0.25446 0.29417 0.93611 0.0
C214 C 0.24736 0.34201 0.93527 0.0
C215 C 0.26434 0.37601 0.91479 0.0
C216 C 0.27161 0.35326 0.85003 0.0
C217 C 0.30235 0.33352 0.83667 0.0
C218 C 0.2751 0.29112 0.81683 0.0
C219 C 0.21698 0.26816 0.80991 0.0
C220 C 0.18689 0.28962 0.82243 0.0
C221 C 0.21405 0.3317 0.84243 0.0
C222 C 0.35151 0.44286 0.86983 0.0
C223 C 0.35312 0.48944 0.85857 0.0
C224 C 0.4051 0.5376 0.85366 0.0
C225 C 0.45694 0.54041 0.86008 0.0
C226 C 0.45536 0.49394 0.87174 0.0
C227 C 0.4032 0.44547 0.87643 0.0
C228 C -0.00725 0.18183 0.06177 0.0
C229 C 0.97323 0.12218 0.06342 0.0
C230 C 0.93969 0.12593 0.10465 0.0
C231 C 0.95383 0.18376 0.10187 0.0
N232 N 0.98321 0.26293 0.0755 0.0
N233 N 0.91581 0.03434 0.0837 0.0
C234 C 0.97711 0.21057 0.0797 0.0
C235 C 0.94302 0.09328 0.08407 0.0
N236 N 0.02886 0.21201 0.04403 0.0
N237 N 0.92546 0.10285 0.12727 0.0
H238 H 0.9155 0.00858 0.06856 0.0
H239 H 0.88853 0.01071 0.09719 0.0
H240 H 0.92414 0.12575 0.14312 0.0
H241 H 0.9206 0.06306 0.13094 0.0
H242 H 0.04906 0.2568 0.04374 0.0
H243 H 0.04328 0.19344 0.0311 0.0
H244 H -0.00551 0.28172 0.05853 0.0
H245 H 0.97177 0.28503 0.08813 0.0
C246 C 0.86242 0.98353 0.41317 0.0
C247 C 0.91864 -0.00164 0.42154 0.0
C248 C 0.90201 0.01965 0.46417 0.0
C249 C 0.84925 0.01285 0.45506 0.0
N250 N 0.78053 0.99293 0.42061 0.0
N251 N -0.00448 0.0394 0.4543 0.0
C252 C 0.82952 -0.00439 0.42949 0.0
C253 C 0.9393 0.01824 0.44692 0.0
N254 N 0.84007 0.95665 0.38982 0.0
N255 N 0.91623 0.02693 0.48937 0.0
H256 H 0.02503 0.04087 0.44225 0.0
H257 H 0.01429 0.06056 0.47183 0.0
H258 H 0.88994 0.02823 0.50258 0.0
H259 H 0.95129 0.02611 0.49724 0.0
H260 H 0.79751 0.93963 0.38347 0.0
H261 H 0.8628 0.94657 0.37754 0.0
H262 H 0.76735 0.98718 0.40166 0.0
H263 H 0.75488 0.0005 0.4321 0.0
C264 C 0.93205 0.86604 0.76727 0.0
C265 C 0.92877 0.84915 0.74148 0.0
C266 C 0.82924 0.77099 0.74381 0.0
C267 C 0.83134 0.79129 0.7689 0.0
N268 N 0.88089 0.86445 0.80316 0.0
N269 N 0.87385 0.78952 0.70433 0.0
C270 C 0.88179 0.84035 0.78031 0.0
C271 C 0.87714 0.80271 0.72946 0.0
N272 N 0.98322 0.90686 0.77943 0.0
N273 N 0.78194 0.7208 0.73398 0.0
H274 H 0.90891 0.81021 0.6936 0.0
H275 H 0.83595 0.76047 0.69382 0.0
H276 H 0.74616 0.69717 0.744 0.0
H277 H 0.77951 0.70037 0.71668 0.0
H278 H 0.98952 0.91512 0.79881 0.0
H279 H 0.02086 0.92992 0.77058 0.0
H280 H 0.914 0.90438 0.81097 0.0
H281 H 0.84508 0.84741 0.81352 0.0
C282 C 0.0462 0.84521 0.06383 0.0
C283 C 0.07097 0.90558 0.06998 0.0
C284 C 0.0624 0.88824 0.11453 0.0
C285 C 0.04138 0.82865 0.10838 0.0
N286 N 0.02814 0.75374 0.07791 0.0
N287 N 0.11512 0.98585 0.10136 0.0
C288 C 0.03833 0.80832 0.08325 0.0
C289 C 0.08304 0.92752 0.09543 0.0
N290 N 0.02603 0.82205 0.0398 0.0
N291 N 0.06007 0.907 0.13828 0.0
H292 H 0.13197 0.01571 0.08782 0.0
H293 H 0.12983 0.00415 0.11963 0.0
H294 H 0.04462 0.87964 0.15277 0.0
H295 H 0.06889 0.94872 0.14309 0.0
H296 H 0.00221 0.77764 0.03502 0.0
H297 H 0.02741 0.84628 0.02498 0.0
H298 H 0.03104 0.73871 0.06014 0.0
H299 H 0.02262 0.72567 0.09175 0.0
C300 C 0.19251 0.11732 0.43101 0.0
C301 C 0.19183 0.09149 0.40729 0.0
C302 C 0.26478 0.07198 0.42396 0.0
C303 C 0.2615 0.09277 0.44816 0.0
N304 N 0.21497 0.12572 0.47579 0.0
N305 N 0.21701 0.03159 0.38284 0.0
C306 C 0.22326 0.11279 0.45201 0.0
C307 C 0.22523 0.06541 0.40417 0.0
N308 N 0.16561 0.14801 0.43331 0.0
N309 N 0.30654 0.05976 0.41972 0.0
H310 H 0.18664 0.0232 0.36826 0.0
H311 H 0.23595 0.00677 0.38072 0.0
H312 H 0.33642 0.06407 0.43375 0.0
H313 H 0.31479 0.0505 0.40188 0.0
H314 H 0.16958 0.17278 0.44955 0.0
H315 H 0.14342 0.15308 0.41829 0.0
H316 H 0.18312 0.1344 0.47993 0.0
H317 H 0.2366 0.12284 0.49165 0.0
C318 C 0.11845 0.11546 0.78025 0.0
C319 C 0.13537 0.12195 0.75544 0.0
C320 C 0.19766 0.22647 0.76527 0.0
C321 C 0.18678 0.21839 0.79086 0.0
N322 N 0.14342 0.15369 0.82348 0.0
N323 N 0.19479 0.1823 0.72445 0.0
C324 C 0.14875 0.16249 0.79858 0.0
C325 C 0.17569 0.17722 0.74786 0.0
N326 N 0.07217 0.06477 0.78609 0.0
N327 N 0.22809 0.28122 0.7576 0.0
H328 H 0.17934 0.14725 0.71115 0.0
H329 H 0.2288 0.22034 0.71879 0.0
H330 H 0.2447 0.31814 0.76991 0.0
H331 H 0.23265 0.29013 0.73887 0.0
H332 H 0.05443 0.05934 0.80328 0.0
H333 H 0.04769 0.03018 0.77281 0.0
H334 H 0.12118 0.11273 0.83016 0.0
H335 H 0.16536 0.18677 0.83766 0.0
C336 C 0.95567 0.06247 0.63227 0.0
C337 C 0.93349 0.04407 0.65577 0.0
C338 C 0.84621 0.04305 0.6418 0.0
C339 C 0.86595 0.05526 0.61754 0.0
N340 N 0.93475 0.06601 0.58828 0.0
N341 N 0.8534 0.00678 0.68148 0.0
C342 C 0.91937 0.06194 0.61236 0.0
C343 C 0.87763 0.03182 0.66023 0.0
N344 N 0.01214 0.08295 0.62924 0.0
N345 N 0.79812 0.04342 0.6474 0.0
H346 H 0.87425 -0.00363 0.69514 0.0
H347 H 0.81072 0.99132 0.68448 0.0
H348 H 0.77382 0.05103 0.6343 0.0
H349 H 0.78509 0.0411 0.66549 0.0
H350 H 0.0319 0.10245 0.61333 0.0
H351 H 0.04078 0.08599 0.64358 0.0
H352 H 0.97021 0.06447 0.58306 0.0
H353 H 0.90931 0.06558 0.5731 0.0
C354 C 0.90745 0.85511 0.95575 0.0
C355 C 0.92334 0.9117 0.96522 0.0
C356 C 0.84252 0.90353 0.93981 0.0
C357 C 0.83351 0.85192 0.92717 0.0
N358 N 0.86689 0.78544 0.91995 0.0
N359 N 0.91205 -0.00543 0.96197 0.0
C360 C 0.86847 0.82937 0.93428 0.0
C361 C 0.89237 0.93729 0.95624 0.0
N362 N 0.92813 0.82508 0.96763 0.0
N363 N 0.8031 0.91985 0.93651 0.0
H364 H 0.95028 0.02224 0.97258 0.0
H365 H 0.89358 0.01606 0.95381 0.0
H366 H 0.76512 0.89521 0.92522 0.0
H367 H 0.80534 0.95439 0.94705 0.0
H368 H 0.9138 0.78179 0.96258 0.0
H369 H 0.95429 0.84107 0.98427 0.0
H370 H 0.89567 0.77156 0.92323 0.0
H371 H 0.84127 0.76715 0.90327 0.0
C372 C -0.00246 0.92102 0.27913 0.0
C373 C 0.00691 0.91558 0.30478 0.0
C374 C 0.97764 0.81407 0.29522 0.0
C375 C 0.97673 0.8225 0.26929 0.0
N376 N -0.00576 0.88681 0.23638 0.0
N377 N 0.00959 0.85874 0.33764 0.0
C378 C 0.98856 0.87663 0.26116 0.0
C379 C -0.00263 0.86235 0.31304 0.0
N380 N -0.00363 0.96843 0.27199 0.0
N381 N 0.95888 0.75985 0.30271 0.0
H382 H 0.02303 0.89295 0.3512 0.0
H383 H 0.00981 0.82324 0.34434 0.0
H384 H 0.94447 0.7238 0.29007 0.0
H385 H 0.95322 0.74975 0.32128 0.0
H386 H 0.98401 0.97206 0.25384 0.0
H387 H 0.00199 0.00152 0.28477 0.0
H388 H 0.00916 0.92754 0.22985 0.0
H389 H 0.98923 0.856 0.22249 0.0
C390 C 0.14624 0.95408 0.62874 0.0
C391 C 0.16936 0.97952 0.65333 0.0
C392 C 0.26613 0.02511 0.63917 0.0
C393 C 0.24274 0.00631 0.61412 0.0
N394 N 0.16022 0.9583 0.58436 0.0
N395 N 0.25103 0.04915 0.68087 0.0
C396 C 0.18264 0.97193 0.60867 0.0
C397 C 0.22931 0.01739 0.65835 0.0
N398 N 0.08992 0.91182 0.62468 0.0
N399 N 0.32363 0.04999 0.64468 0.0
H400 H 0.22575 0.04746 0.69517 0.0
H401 H 0.29367 0.08186 0.68442 0.0
H402 H 0.35193 0.05614 0.63105 0.0
H403 H 0.34234 0.05915 0.66292 0.0
H404 H 0.07188 0.88759 0.60763 0.0
H405 H 0.0623 0.89724 0.639 0.0
H406 H 0.11674 0.93906 0.57924 0.0
H407 H 0.18546 0.97015 0.56918 0.0
C408 C 0.22865 0.2019 0.99167 0.0
C409 C 0.17179 0.1566 0.98484 0.0
C410 C 0.16649 0.20747 0.94897 0.0
C411 C 0.22519 0.24998 0.95431 0.0
N412 N 0.31354 0.28792 0.97977 0.0
N413 N 0.08787 0.11201 0.95572 0.0
C414 C 0.25665 0.24745 0.97551 0.0
C415 C 0.14078 0.15857 0.96332 0.0
N416 N 0.25522 0.2016 0.01381 0.0
N417 N 0.13529 0.21361 0.93 0.0
H418 H 0.06677 0.07533 0.96569 0.0
H419 H 0.06621 0.10741 0.93852 0.0
H420 H 0.15297 0.2464 0.91779 0.0
H421 H 0.09094 0.18854 0.92731 0.0
H422 H 0.29476 0.23565 0.02119 0.0
H423 H 0.23561 0.1685 0.02581 0.0
H424 H 0.34071 0.2854 -0.00683 0.0
H425 H 0.33447 0.3232 0.96896 0.0
C426 C 0.98216 0.14311 0.29977 0.0
C427 C 0.0379 0.17557 0.31227 0.0
C428 C 0.05662 0.2601 0.28975 0.0
C429 C 0.00052 0.22783 0.27792 0.0
N430 N 0.90489 0.14577 0.27728 0.0
N431 N 0.12256 0.26832 0.32379 0.0
C432 C 0.96157 0.17183 0.28501 0.0
C433 C 0.07337 0.2353 0.30875 0.0
N434 N 0.95057 0.08418 0.30004 0.0
N435 N 0.09456 0.31324 0.28208 0.0
H436 H 0.13526 0.25145 0.33813 0.0
H437 H 0.14771 0.31312 0.32365 0.0
H438 H 0.08321 0.33319 0.26869 0.0
H439 H 0.13794 0.33596 0.28788 0.0
H440 H 0.91269 0.05842 0.28887 0.0
H441 H 0.96446 0.0599 0.3092 0.0
H442 H 0.8736 0.10721 0.28388 0.0
H443 H 0.88857 0.16579 0.26632 0.0
loop_
_geom_bond_atom_site_label_1
_geom_bond_atom_site_label_2
_geom_bond_distance
_geom_bond_site_symmetry_2
_ccdc_geom_bond_type
Zn0 O3 2.031 . S
Zn0 O5 2.049 1_564 S
Zn0 O10 2.067 1_554 S
Zn1 O2 1.962 . S
Zn1 O4 1.986 . S
Zn1 O6 1.996 . S
Zn1 O9 1.943 1_455 S
O2 Zn1 1.962 . S
O2 C7 1.254 1_545 S
O3 Zn0 2.031 . S
O3 C7 1.269 . S
O4 Zn1 1.986 . S
O4 C11 1.262 . S
O5 Zn0 2.049 1_546 S
O5 C13 1.273 . S
O6 Zn1 1.996 . S
O6 C13 1.235 1_554 S
C7 O2 1.254 1_565 S
C7 O3 1.269 . S
C8 O9 1.249 1_565 S
C8 O10 1.270 1_654 S
O9 Zn1 1.943 1_655 S
O9 C8 1.249 1_545 S
O10 Zn0 2.067 1_556 S
O10 C8 1.270 1_456 S
C11 O4 1.262 . S
C11 O12 1.231 1_455 S
O12 C11 1.231 1_655 S
C13 O5 1.273 . S
C13 O6 1.235 1_556 S
Zn14 O17 2.031 . S
Zn14 O19 2.049 . S
Zn14 O24 2.067 . S
Zn15 O16 1.962 . S
Zn15 O18 1.986 1_455 S
Zn15 O20 1.996 . S
Zn15 O23 1.943 1_445 S
O16 Zn15 1.962 . S
O16 C21 1.254 . S
O17 Zn14 2.031 . S
O17 C21 1.269 . S
O18 Zn15 1.986 1_655 S
O18 C25 1.262 . S
O19 Zn14 2.049 . S
O19 C27 1.260 . S
O20 Zn15 1.996 . S
O20 C27 1.257 . S
C21 O16 1.254 . S
C21 O17 1.269 . S
C22 O23 1.249 1_455 S
C22 O24 1.270 1_565 S
O23 Zn15 1.943 1_665 S
O23 C22 1.249 1_655 S
O24 Zn14 2.067 . S
O24 C22 1.270 1_545 S
C25 O18 1.262 . S
C25 O26 1.232 1_545 S
O26 C25 1.232 1_565 S
C27 O19 1.260 . S
C27 O20 1.257 . S
Zn28 O31 2.031 1_565 S
Zn28 O33 2.049 . S
Zn28 O38 2.067 1_565 S
Zn29 O30 1.962 1_645 S
Zn29 O32 1.986 1_545 S
Zn29 O34 1.996 1_545 S
Zn29 O37 1.943 1_655 S
O30 Zn29 1.962 1_465 S
O30 C35 1.254 . S
O31 Zn28 2.031 1_545 S
O31 C35 1.269 1_545 S
O32 Zn29 1.986 1_565 S
O32 C39 1.262 1_565 S
O33 Zn28 2.049 . S
O33 C41 1.260 1_455 S
O34 Zn29 1.996 1_565 S
O34 C41 1.257 . S
C35 O30 1.254 . S
C35 O31 1.269 1_565 S
C36 O37 1.249 . S
C36 O38 1.270 . S
O37 Zn29 1.943 1_455 S
O37 C36 1.249 . S
O38 Zn28 2.067 1_545 S
O38 C36 1.270 . S
C39 O32 1.262 1_545 S
C39 O40 1.232 . S
O40 C39 1.232 . S
C41 O33 1.260 1_655 S
C41 O34 1.257 . S
H42 C69 0.929 . S
N43 C68 1.433 . S
N43 C74 1.435 . S
N43 C80 1.423 1_455 S
H44 C70 0.930 . S
H45 C73 0.931 . S
H46 C72 0.929 . S
H47 C75 0.930 . S
H48 C76 0.932 . S
H49 C79 0.929 . S
H50 C78 0.931 . S
H51 C81 0.929 . S
H52 C85 0.932 . S
H53 C82 0.931 . S
H54 C84 0.929 . S
H55 C87 0.929 . S
H56 C88 0.930 . S
H57 C90 0.929 . S
H58 C91 0.931 . S
H59 C93 0.930 . S
H60 C94 0.932 . S
H61 C96 0.931 . S
H62 C97 0.929 . S
H63 C99 0.929 . S
H64 C100 0.931 . S
H65 C102 0.929 . S
N66 C86 1.433 . S
N66 C92 1.435 . S
N66 C98 1.423 1_455 S
H67 C103 0.932 . S
C68 N43 1.433 . S
C68 C69 1.363 1_455 S
C68 C73 1.370 . S
C69 H42 0.929 . S
C69 C68 1.363 1_655 S
C69 C70 1.385 . S
C70 H44 0.930 . S
C70 C69 1.385 . S
C70 C71 1.357 1_655 S
C71 C70 1.357 1_455 S
C71 C72 1.406 . S
C72 H46 0.929 . S
C72 C71 1.406 . S
C72 C73 1.391 . S
C73 H45 0.931 . S
C73 C68 1.370 . S
C73 C72 1.391 . S
C74 N43 1.435 . S
C74 C75 1.358 . S
C74 C79 1.371 1_455 S
C75 H47 0.930 . S
C75 C74 1.358 . S
C75 C76 1.405 . S
C76 H48 0.932 . S
C76 C75 1.405 . S
C76 C77 1.383 . S
C77 C76 1.383 . S
C77 C78 1.393 1_455 S
C78 H50 0.931 . S
C78 C77 1.393 1_655 S
C78 C79 1.382 . S
C79 H49 0.929 . S
C79 C74 1.371 1_655 S
C79 C78 1.382 . S
C80 N43 1.423 1_655 S
C80 C81 1.362 . S
C80 C85 1.388 1_655 S
C81 H51 0.929 . S
C81 C80 1.362 . S
C81 C82 1.376 . S
C82 H53 0.931 . S
C82 C81 1.376 . S
C82 C83 1.396 . S
C83 C82 1.396 . S
C83 C84 1.348 1_655 S
C83 C101 1.472 . S
C84 H54 0.929 . S
C84 C83 1.348 1_455 S
C84 C85 1.443 . S
C85 H52 0.932 . S
C85 C80 1.388 1_455 S
C85 C84 1.443 . S
C86 N66 1.433 . S
C86 C87 1.363 1_455 S
C86 C91 1.370 . S
C87 H55 0.929 . S
C87 C86 1.363 1_655 S
C87 C88 1.385 . S
C88 H56 0.930 . S
C88 C87 1.385 . S
C88 C89 1.357 1_655 S
C89 C88 1.357 1_455 S
C89 C90 1.406 . S
C90 H57 0.929 . S
C90 C89 1.406 . S
C90 C91 1.391 . S
C91 H58 0.931 . S
C91 C86 1.370 . S
C91 C90 1.391 . S
C92 N66 1.435 . S
C92 C93 1.358 . S
C92 C97 1.371 1_455 S
C93 H59 0.930 . S
C93 C92 1.358 . S
C93 C94 1.405 . S
C94 H60 0.932 . S
C94 C93 1.405 . S
C94 C95 1.383 . S
C95 C94 1.383 . S
C95 C96 1.393 1_455 S
C96 H61 0.931 . S
C96 C95 1.393 1_655 S
C96 C97 1.382 . S
C97 H62 0.929 . S
C97 C92 1.371 1_655 S
C97 C96 1.382 . S
C98 N66 1.423 1_655 S
C98 C99 1.362 . S
C98 C103 1.388 1_655 S
C99 H63 0.929 . S
C99 C98 1.362 . S
C99 C100 1.376 . S
C100 H64 0.931 . S
C100 C99 1.376 . S
C100 C101 1.396 . S
C101 C83 1.472 . S
C101 C100 1.396 . S
C101 C102 1.348 1_655 S
C102 H65 0.929 . S
C102 C101 1.348 1_455 S
C102 C103 1.443 . S
C103 H67 0.932 . S
C103 C98 1.388 1_455 S
C103 C102 1.443 . S
H104 C131 0.929 . S
N105 C130 1.433 . S
N105 C136 1.435 . S
N105 C142 1.423 . S
H106 C132 0.930 . S
H107 C135 0.930 . S
H108 C134 0.929 1_565 S
H109 C137 0.930 1_565 S
H110 C138 0.932 1_565 S
H111 C141 0.929 . S
H112 C140 0.931 . S
H113 C143 0.929 . S
H114 C147 0.932 . S
H115 C144 0.931 . S
H116 C146 0.929 . S
H117 C149 0.929 . S
H118 C150 0.930 . S
H119 C152 0.929 1_565 S
H120 C153 0.939 . S
H121 C155 0.930 1_565 S
H122 C156 0.932 1_565 S
H123 C158 0.931 . S
H124 C159 0.929 . S
H125 C161 0.929 . S
H126 C162 0.931 . S
H127 C164 0.929 . S
N128 C148 1.433 . S
N128 C154 1.435 . S
N128 C160 1.423 . S
H129 C165 0.932 . S
C130 N105 1.433 . S
C130 C131 1.363 . S
C130 C135 1.370 . S
C131 H104 0.929 . S
C131 C130 1.363 . S
C131 C132 1.385 . S
C132 H106 0.930 . S
C132 C131 1.385 . S
C132 C133 1.357 . S
C133 C132 1.357 . S
C133 C134 1.406 . S
C134 H108 0.929 1_545 S
C134 C133 1.406 . S
C134 C135 1.391 . S
C135 H107 0.930 . S
C135 C130 1.370 . S
C135 C134 1.391 . S
C136 N105 1.435 . S
C136 C137 1.358 . S
C136 C141 1.371 . S
C137 H109 0.930 1_545 S
C137 C136 1.358 . S
C137 C138 1.405 . S
C138 H110 0.932 1_545 S
C138 C137 1.405 . S
C138 C139 1.383 . S
C139 C138 1.383 . S
C139 C140 1.393 . S
C140 H112 0.931 . S
C140 C139 1.393 . S
C140 C141 1.382 . S
C141 H111 0.929 . S
C141 C136 1.371 . S
C141 C140 1.382 . S
C142 N105 1.423 . S
C142 C143 1.362 . S
C142 C147 1.388 . S
C143 H113 0.929 . S
C143 C142 1.362 . S
C143 C144 1.376 . S
C144 H115 0.931 . S
C144 C143 1.376 . S
C144 C145 1.396 . S
C145 C144 1.396 . S
C145 C146 1.348 . S
C145 C163 1.472 . S
C146 H116 0.929 . S
C146 C145 1.348 . S
C146 C147 1.443 . S
C147 H114 0.932 . S
C147 C142 1.388 . S
C147 C146 1.443 . S
C148 N128 1.433 . S
C148 C149 1.363 . S
C148 C153 1.370 . S
C149 H117 0.929 . S
C149 C148 1.363 . S
C149 C150 1.385 . S
C150 H118 0.930 . S
C150 C149 1.385 . S
C150 C151 1.357 . S
C151 C150 1.357 . S
C151 C152 1.406 . S
C152 H119 0.929 1_545 S
C152 C151 1.406 . S
C152 C153 1.391 . S
C153 H120 0.939 . S
C153 C148 1.370 . S
C153 C152 1.391 . S
C154 N128 1.435 . S
C154 C155 1.358 . S
C154 C159 1.371 . S
C155 H121 0.930 1_545 S
C155 C154 1.358 . S
C155 C156 1.405 . S
C156 H122 0.932 1_545 S
C156 C155 1.405 . S
C156 C157 1.383 . S
C157 C156 1.383 . S
C157 C158 1.393 . S
C158 H123 0.931 . S
C158 C157 1.393 . S
C158 C159 1.382 . S
C159 H124 0.929 . S
C159 C154 1.371 . S
C159 C158 1.382 . S
C160 N128 1.423 . S
C160 C161 1.362 . S
C160 C165 1.388 . S
C161 H125 0.929 . S
C161 C160 1.362 . S
C161 C162 1.376 . S
C162 H126 0.931 . S
C162 C161 1.376 . S
C162 C163 1.396 . S
C163 C145 1.472 . S
C163 C162 1.396 . S
C163 C164 1.348 . S
C164 H127 0.929 . S
C164 C163 1.348 . S
C164 C165 1.443 . S
C165 H129 0.932 . S
C165 C160 1.388 . S
C165 C164 1.443 . S
H166 C193 0.929 . S
N167 C192 1.433 . S
N167 C198 1.435 . S
N167 C204 1.423 . S
H168 C194 0.930 . S
H169 C197 0.931 . S
H170 C196 0.929 . S
H171 C199 0.930 . S
H172 C200 0.932 . S
H173 C203 0.929 . S
H174 C202 0.931 . S
H175 C205 0.929 . S
H176 C209 0.932 . S
H177 C206 0.931 . S
H178 C208 0.929 . S
H179 C211 0.929 . S
H180 C212 0.930 . S
H181 C214 0.929 . S
H182 C215 0.931 . S
H183 C217 0.930 . S
H184 C218 0.932 . S
H185 C220 0.931 . S
H186 C221 0.929 . S
H187 C223 0.929 . S
H188 C224 0.931 . S
H189 C226 0.929 . S
N190 C210 1.433 . S
N190 C216 1.435 . S
N190 C222 1.423 . S
H191 C227 0.932 . S
C192 N167 1.433 . S
C192 C193 1.363 . S
C192 C197 1.370 . S
C193 H166 0.929 . S
C193 C192 1.363 . S
C193 C194 1.385 . S
C194 H168 0.930 . S
C194 C193 1.385 . S
C194 C195 1.357 . S
C195 C194 1.357 . S
C195 C196 1.406 . S
C196 H170 0.929 . S
C196 C195 1.406 . S
C196 C197 1.391 . S
C197 H169 0.931 . S
C197 C192 1.370 . S
C197 C196 1.391 . S
C198 N167 1.435 . S
C198 C199 1.358 . S
C198 C203 1.371 . S
C199 H171 0.930 . S
C199 C198 1.358 . S
C199 C200 1.405 . S
C200 H172 0.932 . S
C200 C199 1.405 . S
C200 C201 1.383 . S
C201 C200 1.383 . S
C201 C202 1.393 . S
C202 H174 0.931 . S
C202 C201 1.393 . S
C202 C203 1.382 . S
C203 H173 0.929 . S
C203 C198 1.371 . S
C203 C202 1.382 . S
C204 N167 1.423 . S
C204 C205 1.362 . S
C204 C209 1.388 . S
C205 H175 0.929 . S
C205 C204 1.362 . S
C205 C206 1.376 . S
C206 H177 0.931 . S
C206 C205 1.376 . S
C206 C207 1.396 . S
C207 C206 1.396 . S
C207 C208 1.348 . S
C207 C225 1.472 . S
C208 H178 0.929 . S
C208 C207 1.348 . S
C208 C209 1.443 . S
C209 H176 0.932 . S
C209 C204 1.388 . S
C209 C208 1.443 . S
C210 N190 1.433 . S
C210 C211 1.363 . S
C210 C215 1.370 . S
C211 H179 0.929 . S
C211 C210 1.363 . S
C211 C212 1.385 . S
C212 H180 0.930 . S
C212 C211 1.385 . S
C212 C213 1.357 . S
C213 C212 1.357 . S
C213 C214 1.406 . S
C214 H181 0.929 . S
C214 C213 1.406 . S
C214 C215 1.391 . S
C215 H182 0.931 . S
C215 C210 1.370 . S
C215 C214 1.391 . S
C216 N190 1.435 . S
C216 C217 1.358 . S
C216 C221 1.371 . S
C217 H183 0.930 . S
C217 C216 1.358 . S
C217 C218 1.405 . S
C218 H184 0.932 . S
C218 C217 1.405 . S
C218 C219 1.383 . S
C219 C218 1.383 . S
C219 C220 1.393 . S
C220 H185 0.931 . S
C220 C219 1.393 . S
C220 C221 1.382 . S
C221 H186 0.929 . S
C221 C216 1.371 . S
C221 C220 1.382 . S
C222 N190 1.423 . S
C222 C223 1.362 . S
C222 C227 1.388 . S
C223 H187 0.929 . S
C223 C222 1.362 . S
C223 C224 1.376 . S
C224 H188 0.931 . S
C224 C223 1.376 . S
C224 C225 1.396 . S
C225 C207 1.472 . S
C225 C224 1.396 . S
C225 C226 1.348 . S
C226 H189 0.929 . S
C226 C225 1.348 . S
C226 C227 1.443 . S
C227 H191 0.932 . S
C227 C222 1.388 . S
C227 C226 1.443 . S
C228 C229 1.363 . S
C228 C234 1.379 . S
C228 N236 1.356 . S
C229 C228 1.363 . S
C229 C235 1.363 . S
C230 C231 1.363 . S
C230 C235 1.379 . S
C230 N237 1.356 1_455 S
C231 C230 1.363 . S
C231 C234 1.363 . S
N232 C234 1.356 . S
N232 H244 0.984 . S
N232 H245 0.985 . S
N233 C235 1.356 1_655 S
N233 H238 0.984 . S
N233 H239 0.985 . S
C234 C228 1.379 . S
C234 C231 1.363 . S
C234 N232 1.356 . S
C235 C229 1.363 . S
C235 C230 1.379 . S
C235 N233 1.356 1_455 S
N236 C228 1.356 . S
N236 H242 0.984 . S
N236 H243 0.984 . S
N237 C230 1.356 1_655 S
N237 H240 0.984 1_655 S
N237 H241 0.985 . S
H238 N233 0.984 . S
H239 N233 0.985 . S
H240 N237 0.984 1_455 S
H241 N237 0.985 . S
H242 N236 0.984 . S
H243 N236 0.984 . S
H244 N232 0.984 . S
H245 N232 0.985 . S
C246 C247 1.363 1_565 S
C246 C252 1.379 . S
C246 N254 1.356 . S
C247 C246 1.363 1_545 S
C247 C253 1.363 . S
C248 C249 1.363 . S
C248 C253 1.379 . S
C248 N255 1.356 . S
C249 C248 1.363 . S
C249 C252 1.363 1_545 S
N250 C252 1.356 . S
N250 H262 0.984 . S
N250 H263 0.985 . S
N251 C253 1.356 . S
N251 H256 0.984 . S
N251 H257 0.985 . S
C252 C246 1.379 . S
C252 C249 1.363 1_565 S
C252 N250 1.356 . S
C253 C247 1.363 . S
C253 C248 1.379 . S
C253 N251 1.356 . S
N254 C246 1.356 . S
N254 H260 0.984 . S
N254 H261 0.984 . S
N255 C248 1.356 . S
N255 H258 0.984 . S
N255 H259 0.985 . S
H256 N251 0.984 . S
H257 N251 0.985 . S
H258 N255 0.984 . S
H259 N255 0.985 . S
H260 N254 0.984 . S
H261 N254 0.984 . S
H262 N250 0.984 . S
H263 N250 0.985 . S
C264 C265 1.363 . S
C264 C270 1.379 . S
C264 N272 1.356 1_655 S
C265 C264 1.363 . S
C265 C271 1.363 . S
C266 C267 1.363 . S
C266 C271 1.379 . S
C266 N273 1.356 . S
C267 C266 1.363 . S
C267 C270 1.363 . S
N268 C270 1.356 . S
N268 H280 0.984 . S
N268 H281 0.985 . S
N269 C271 1.356 . S
N269 H274 0.984 . S
N269 H275 0.985 . S
C270 C264 1.379 . S
C270 C267 1.363 . S
C270 N268 1.356 . S
C271 C265 1.363 . S
C271 C266 1.379 . S
C271 N269 1.356 . S
N272 C264 1.356 1_455 S
N272 H278 0.984 . S
N272 H279 0.984 . S
N273 C266 1.356 . S
N273 H276 0.984 . S
N273 H277 0.985 . S
H274 N269 0.984 . S
H275 N269 0.985 . S
H276 N273 0.984 . S
H277 N273 0.985 . S
H278 N272 0.984 . S
H279 N272 0.984 . S
H280 N268 0.984 . S
H281 N268 0.985 . S
C282 C283 1.363 . S
C282 C288 1.379 . S
C282 N290 1.356 . S
C283 C282 1.363 . S
C283 C289 1.363 . S
C284 C285 1.363 . S
C284 C289 1.379 . S
C284 N291 1.356 . S
C285 C284 1.363 . S
C285 C288 1.363 . S
N286 C288 1.356 1_655 S
N286 H298 0.984 . S
N286 H299 0.985 . S
N287 C289 1.356 1_545 S
N287 H292 0.984 . S
N287 H293 0.985 . S
C288 C282 1.379 . S
C288 C285 1.363 . S
C288 N286 1.356 1_455 S
C289 C283 1.363 . S
C289 C284 1.379 . S
C289 N287 1.356 1_565 S
N290 C282 1.356 . S
N290 H296 0.984 1_455 S
N290 H297 0.984 . S
N291 C284 1.356 . S
N291 H294 0.984 . S
N291 H295 0.985 . S
H292 N287 0.984 . S
H293 N287 0.985 . S
H294 N291 0.984 . S
H295 N291 0.985 . S
H296 N290 0.984 1_655 S
H297 N290 0.984 . S
H298 N286 0.984 . S
H299 N286 0.985 . S
C300 C301 1.363 . S
C300 C306 1.379 . S
C300 N308 1.356 . S
C301 C300 1.363 . S
C301 C307 1.363 . S
C302 C303 1.363 . S
C302 C307 1.379 . S
C302 N309 1.356 . S
C303 C302 1.363 . S
C303 C306 1.363 . S
N304 C306 1.356 . S
N304 H316 0.984 . S
N304 H317 0.985 . S
N305 C307 1.356 . S
N305 H310 0.984 . S
N305 H311 0.985 . S
C306 C300 1.379 . S
C306 C303 1.363 . S
C306 N304 1.356 . S
C307 C301 1.363 . S
C307 C302 1.379 . S
C307 N305 1.356 . S
N308 C300 1.356 . S
N308 H314 0.984 . S
N308 H315 0.984 . S
N309 C302 1.356 . S
N309 H312 0.984 . S
N309 H313 0.985 . S
H310 N305 0.984 . S
H311 N305 0.985 . S
H312 N309 0.984 . S
H313 N309 0.985 . S
H314 N308 0.984 . S
H315 N308 0.984 . S
H316 N304 0.984 . S
H317 N304 0.985 . S
C318 C319 1.363 . S
C318 C324 1.379 . S
C318 N326 1.356 . S
C319 C318 1.363 . S
C319 C325 1.363 . S
C320 C321 1.363 . S
C320 C325 1.379 . S
C320 N327 1.356 . S
C321 C320 1.363 . S
C321 C324 1.363 . S
N322 C324 1.356 . S
N322 H334 0.984 . S
N322 H335 0.985 . S
N323 C325 1.356 . S
N323 H328 0.984 . S
N323 H329 0.985 . S
C324 C318 1.379 . S
C324 C321 1.363 . S
C324 N322 1.356 . S
C325 C319 1.363 . S
C325 C320 1.379 . S
C325 N323 1.356 . S
N326 C318 1.356 . S
N326 H332 0.984 . S
N326 H333 0.984 . S
N327 C320 1.356 . S
N327 H330 0.984 . S
N327 H331 0.985 . S
H328 N323 0.984 . S
H329 N323 0.985 . S
H330 N327 0.984 . S
H331 N327 0.985 . S
H332 N326 0.984 . S
H333 N326 0.984 . S
H334 N322 0.984 . S
H335 N322 0.985 . S
C336 C337 1.363 1_565 S
C336 C342 1.379 . S
C336 N344 1.356 . S
C337 C336 1.363 1_545 S
C337 C343 1.363 . S
C338 C339 1.363 . S
C338 C343 1.379 . S
C338 N345 1.356 . S
C339 C338 1.363 . S
C339 C342 1.363 1_545 S
N340 C342 1.356 . S
N340 H352 0.984 . S
N340 H353 0.985 . S
N341 C343 1.356 . S
N341 H346 0.984 . S
N341 H347 0.985 . S
C342 C336 1.379 . S
C342 C339 1.363 1_565 S
C342 N340 1.356 . S
C343 C337 1.363 . S
C343 C338 1.379 . S
C343 N341 1.356 . S
N344 C336 1.356 . S
N344 H350 0.984 . S
N344 H351 0.984 . S
N345 C338 1.356 . S
N345 H348 0.984 . S
N345 H349 0.985 . S
H346 N341 0.984 . S
H347 N341 0.985 . S
H348 N345 0.984 . S
H349 N345 0.985 . S
H350 N344 0.984 . S
H351 N344 0.984 . S
H352 N340 0.984 . S
H353 N340 0.985 . S
C354 C355 1.363 . S
C354 C360 1.379 . S
C354 N362 1.356 1_556 S
C355 C354 1.363 . S
C355 C361 1.363 . S
C356 C357 1.363 . S
C356 C361 1.379 . S
C356 N363 1.356 . S
C357 C356 1.363 . S
C357 C360 1.363 . S
N358 C360 1.356 . S
N358 H370 0.984 . S
N358 H371 0.985 . S
N359 C361 1.356 . S
N359 H364 0.984 . S
N359 H365 0.985 . S
C360 C354 1.379 . S
C360 C357 1.363 . S
C360 N358 1.356 . S
C361 C355 1.363 . S
C361 C356 1.379 . S
C361 N359 1.356 . S
N362 C354 1.356 1_554 S
N362 H368 0.984 . S
N362 H369 0.984 . S
N363 C356 1.356 . S
N363 H366 0.984 . S
N363 H367 0.985 . S
H364 N359 0.984 . S
H365 N359 0.985 . S
H366 N363 0.984 . S
H367 N363 0.985 . S
H368 N362 0.984 . S
H369 N362 0.984 . S
H370 N358 0.984 . S
H371 N358 0.985 . S
C372 C373 1.355 1_455 S
C372 C378 1.379 . S
C372 N380 1.356 . S
C373 C372 1.355 1_655 S
C373 C379 1.363 . S
C374 C375 1.363 1_655 S
C374 C379 1.379 . S
C374 N381 1.356 . S
C375 C374 1.363 1_455 S
C375 C378 1.363 . S
N376 C378 1.356 . S
N376 H388 0.984 . S
N376 H389 0.985 . S
N377 C379 1.356 . S
N377 H382 0.984 . S
N377 H383 0.985 . S
C378 C372 1.379 . S
C378 C375 1.363 . S
C378 N376 1.356 . S
C379 C373 1.363 . S
C379 C374 1.379 . S
C379 N377 1.356 . S
N380 C372 1.356 . S
N380 H386 0.984 1_565 S
N380 H387 0.984 1_565 S
N381 C374 1.356 . S
N381 H384 0.984 . S
N381 H385 0.985 . S
H382 N377 0.984 . S
H383 N377 0.985 . S
H384 N381 0.984 . S
H385 N381 0.985 . S
H386 N380 0.984 1_545 S
H387 N380 0.984 1_545 S
H388 N376 0.984 . S
H389 N376 0.985 . S
C390 C391 1.376 . S
C390 C396 1.379 . S
C390 N398 1.356 . S
C391 C390 1.376 . S
C391 C397 1.355 1_565 S
C392 C393 1.363 . S
C392 C397 1.379 . S
C392 N399 1.356 . S
C393 C392 1.363 . S
C393 C396 1.363 1_545 S
N394 C396 1.356 . S
N394 H406 0.984 . S
N394 H407 0.985 . S
N395 C397 1.356 . S
N395 H400 0.984 . S
N395 H401 0.985 . S
C396 C390 1.379 . S
C396 C393 1.363 1_565 S
C396 N394 1.356 . S
C397 C391 1.355 1_545 S
C397 C392 1.379 . S
C397 N395 1.356 . S
N398 C390 1.356 . S
N398 H404 0.984 . S
N398 H405 0.984 . S
N399 C392 1.356 . S
N399 H402 0.984 . S
N399 H403 0.985 . S
H400 N395 0.984 . S
H401 N395 0.985 . S
H402 N399 0.984 . S
H403 N399 0.985 . S
H404 N398 0.984 . S
H405 N398 0.984 . S
H406 N394 0.984 . S
H407 N394 0.985 . S
C408 C409 1.363 . S
C408 C414 1.379 . S
C408 N416 1.356 . S
C409 C408 1.363 . S
C409 C415 1.363 . S
C410 C411 1.363 . S
C410 C415 1.379 . S
C410 N417 1.356 . S
C411 C410 1.363 . S
C411 C414 1.363 . S
N412 C414 1.356 . S
N412 H424 0.984 . S
N412 H425 0.985 . S
N413 C415 1.356 . S
N413 H418 0.984 1_556 S
N413 H419 0.987 . S
C414 C408 1.379 . S
C414 C411 1.363 . S
C414 N412 1.356 . S
C415 C409 1.363 . S
C415 C410 1.379 . S
C415 N413 1.356 . S
N416 C408 1.356 . S
N416 H422 0.984 . S
N416 H423 0.984 . S
N417 C410 1.356 . S
N417 H420 0.984 . S
N417 H421 0.985 . S
H418 N413 0.984 1_554 S
H419 N413 0.987 . S
H420 N417 0.984 . S
H421 N417 0.985 . S
H422 N416 0.984 . S
H423 N416 0.984 . S
H424 N412 0.984 . S
H425 N412 0.985 . S
C426 C427 1.363 1_655 S
C426 C432 1.379 . S
C426 N434 1.356 . S
C427 C426 1.363 1_455 S
C427 C433 1.363 . S
C428 C429 1.363 . S
C428 C433 1.379 . S
C428 N435 1.356 . S
C429 C428 1.363 . S
C429 C432 1.363 1_455 S
N430 C432 1.356 . S
N430 H442 0.984 . S
N430 H443 0.985 . S
N431 C433 1.356 . S
N431 H436 0.984 . S
N431 H437 0.985 . S
C432 C426 1.379 . S
C432 C429 1.363 1_655 S
C432 N430 1.356 . S
C433 C427 1.363 . S
C433 C428 1.379 . S
C433 N431 1.356 . S
N434 C426 1.356 . S
N434 H440 0.984 . S
N434 H441 0.984 . S
N435 C428 1.356 . S
N435 H438 0.984 . S
N435 H439 0.985 . S
H436 N431 0.984 . S
H437 N431 0.985 . S
H438 N435 0.984 . S
H439 N435 0.985 . S
H440 N434 0.984 . S
H441 N434 0.984 . S
H442 N430 0.984 . S
H443 N430 0.985 . S
C231 C95 1.297 . S
C229 C11 1.266 . S
C247 C25 1.312 . S
C249 C139 1.348 . S
C265 C41 1.316 . S
C267 C201 1.405 . S
C283 C7 1.325 . S
C285 C77 1.329 . S
C303 C157 1.367 . S
C301 C21 1.370 . S
C319 C36 1.342 . S
C321 C219 1.440 . S
C339 C133 1.499 . S
C337 C39 1.623 . S
C355 C8 1.639 1_556 S
C357 C195 1.561 . S
C375 C71 1.598 . S
C373 C22 1.676 1_655 S
C393 C151 1.531 . S
C391 C35 1.617 . S
C411 C213 1.542 . S
C409 C13 1.614 . S
C427 C27 1.691 . S
C429 C89 1.592 . S
