# Generated by pormake.
# Topology dag, (6,3)-cn, num edge types: 1
# Building blocks:
#     Node 0, Type 0, BuildingBlock: OJICUG_clean_sbu_0, # of connection points: 6
#     Node 1, Type 0, BuildingBlock: OJICUG_clean_sbu_0, # of connection points: 6
#     Node 2, Type 0, BuildingBlock: OJICUG_clean_sbu_0, # of connection points: 6
#     Node 3, Type 0, BuildingBlock: OJICUG_clean_sbu_0, # of connection points: 6
#     Node 4, Type 1, BuildingBlock: BELTOD_clean_linker_0, # of connection points: 3
#     Node 5, Type 1, BuildingBlock: BELTOD_clean_linker_0, # of connection points: 3
#     Node 6, Type 1, BuildingBlock: BELTOD_clean_linker_0, # of connection points: 3
#     Node 7, Type 1, BuildingBlock: BELTOD_clean_linker_0, # of connection points: 3
#     Node 8, Type 1, BuildingBlock: BELTOD_clean_linker_0, # of connection points: 3
#     Node 9, Type 1, BuildingBlock: BELTOD_clean_linker_0, # of connection points: 3
#     Node 10, Type 1, BuildingBlock: BELTOD_clean_linker_0, # of connection points: 3
#     Node 11, Type 1, BuildingBlock: BELTOD_clean_linker_0, # of connection points: 3
#     Edge 12, Type (0, 1), None
#     Edge 13, Type (0, 1), None
#     Edge 14, Type (0, 1), None
#     Edge 15, Type (0, 1), None
#     Edge 16, Type (0, 1), None
#     Edge 17, Type (0, 1), None
#     Edge 18, Type (0, 1), None
#     Edge 19, Type (0, 1), None
#     Edge 20, Type (0, 1), None
#     Edge 21, Type (0, 1), None
#     Edge 22, Type (0, 1), None
#     Edge 23, Type (0, 1), None
#     Edge 24, Type (0, 1), None
#     Edge 25, Type (0, 1), None
#     Edge 26, Type (0, 1), None
#     Edge 27, Type (0, 1), None
#     Edge 28, Type (0, 1), None
#     Edge 29, Type (0, 1), None
#     Edge 30, Type (0, 1), None
#     Edge 31, Type (0, 1), None
#     Edge 32, Type (0, 1), None
#     Edge 33, Type (0, 1), None
#     Edge 34, Type (0, 1), None
#     Edge 35, Type (0, 1), None
# Relax obj value: 0.235
# Max RMSD: 0.196
# Mean RMSD: 0.162
data_MOF--net-dag--node1-OJICUG_clean_sbu_0--node2-BELTOD_clean_linker_0--edge1-none
_symmetry_space_group_name_H-M    P1
_symmetry_Int_Tables_number       1
_symmetry_cell_setting            triclinic
loop_
_symmetry_equiv_pos_as_xyz
'x, y, z'
_cell_length_a     20.966912
_cell_length_b     22.894217
_cell_length_c     21.885539
_cell_angle_alpha  95.687569
_cell_angle_beta   90.684118
_cell_angle_gamma 90.113591
loop_
_atom_site_label
_atom_site_type_symbol
_atom_site_fract_x
_atom_site_fract_y
_atom_site_fract_z
_atom_type_partial_charge
Sc0 Sc 0.08507 0.88662 0.01673 0.0
Sc1 Sc 0.1154 0.73651 0.01415 0.0
Sc2 Sc 0.2155 0.83898 0.1014 0.0
O3 O 0.13903 0.82071 0.04418 0.0
C4 C 0.22447 0.9425 0.01495 0.0
C5 C 0.08936 0.8015 0.89403 0.0
C6 C 0.26604 0.73571 0.00496 0.0
C7 C 0.97996 0.79122 0.04153 0.0
C8 C 0.11068 0.92912 0.15826 0.0
C9 C 0.16009 0.72299 0.1512 0.0
O10 O 0.16584 0.93924 0.00033 0.0
O11 O 0.09424 0.75572 0.92201 0.0
O12 O 0.27531 0.77871 0.04571 0.0
O13 O 0.99687 0.84192 0.02906 0.0
O14 O 0.16293 0.90133 0.16169 0.0
O15 O 0.13295 0.70551 0.10078 0.0
O16 O 0.07628 0.92692 0.10976 0.0
O17 O 0.01818 0.74842 0.04183 0.0
O18 O 0.19036 0.77142 0.15986 0.0
O19 O 0.08908 0.85285 0.92192 0.0
O20 O 0.25071 0.90915 0.05096 0.0
O21 O 0.21115 0.71683 0.9873 0.0
Sc22 Sc 0.69268 0.63562 0.44154 0.0
Sc23 Sc 0.57883 0.73823 0.50134 0.0
Sc24 Sc 0.56704 0.59353 0.52867 0.0
O25 O 0.61451 0.65601 0.49056 0.0
C26 C 0.58963 0.53658 0.39453 0.0
C27 C 0.63244 0.73352 0.36607 0.0
C28 C 0.46058 0.66257 0.47338 0.0
C29 C 0.72626 0.75534 0.5262 0.0
C30 C 0.70818 0.54633 0.54172 0.0
C31 C 0.56503 0.69207 0.63279 0.0
O32 O 0.64444 0.56084 0.3914 0.0
O33 O 0.60559 0.7603 0.41223 0.0
O34 O 0.47757 0.63743 0.51981 0.0
O35 O 0.74218 0.71066 0.48963 0.0
O36 O 0.64838 0.54209 0.54682 0.0
O37 O 0.54691 0.72807 0.59508 0.0
O38 O 0.73392 0.58172 0.50812 0.0
O39 O 0.66853 0.76947 0.53823 0.0
O40 O 0.5838 0.64065 0.61529 0.0
O41 O 0.66205 0.68556 0.36874 0.0
O42 O 0.55297 0.54629 0.44045 0.0
O43 O 0.49186 0.70588 0.45786 0.0
Sc44 Sc 0.89319 0.26558 0.02725 0.0
Sc45 Sc 0.79416 0.14893 0.96779 0.0
Sc46 Sc 0.94374 0.12291 0.02747 0.0
O47 O 0.87629 0.17941 0.00655 0.0
C48 C 0.02733 0.21307 0.97545 0.0
C49 C 0.83372 0.25636 0.89208 0.0
C50 C 0.88183 0.05016 0.91009 0.0
C51 C 0.74383 0.25682 0.05463 0.0
C52 C 0.95576 0.21802 0.13988 0.0
C53 C 0.82015 0.07215 0.08058 0.0
O54 O 0.99492 0.25443 0.00397 0.0
O55 O 0.80028 0.21127 0.90061 0.0
O56 O 0.91821 0.05421 0.95692 0.0
O57 O 0.79597 0.28556 0.05599 0.0
O58 O 0.98294 0.18012 0.10299 0.0
O59 O 0.78572 0.08469 0.03489 0.0
O60 O 0.91216 0.25106 0.12216 0.0
O61 O 0.73716 0.20608 0.02678 0.0
O62 O 0.87849 0.08737 0.08785 0.0
O63 O 0.87167 0.28173 0.93268 0.0
O64 O 0.00732 0.16041 0.96702 0.0
O65 O 0.83954 0.08785 0.90178 0.0
Sc66 Sc 0.40837 0.37136 0.52461 0.0
Sc67 Sc 0.28025 0.33352 0.61149 0.0
Sc68 Sc 0.38819 0.22479 0.5516 0.0
O69 O 0.35881 0.30952 0.56263 0.0
C70 C 0.4097 0.26997 0.41867 0.0
C71 C 0.26458 0.41385 0.50625 0.0
C72 C 0.23809 0.21362 0.53351 0.0
C73 C 0.38153 0.43439 0.65557 0.0
C74 C 0.52034 0.28807 0.56562 0.0
C75 C 0.34411 0.24184 0.69177 0.0
O76 O 0.39888 0.32354 0.43624 0.0
O77 O 0.23914 0.37905 0.5401 0.0
O78 O 0.29423 0.19609 0.51976 0.0
O79 O 0.42043 0.42087 0.61239 0.0
O80 O 0.4841 0.24804 0.58206 0.0
O81 O 0.3141 0.28904 0.68605 0.0
O82 O 0.49973 0.33122 0.5389 0.0
O83 O 0.32579 0.41209 0.65699 0.0
O84 O 0.36756 0.21006 0.64641 0.0
O85 O 0.32458 0.42024 0.50242 0.0
O86 O 0.41477 0.23031 0.45561 0.0
O87 O 0.22682 0.25872 0.57061 0.0
P88 P 0.02654 0.1098 0.36308 0.0
H89 H 0.95743 0.01852 0.28735 0.0
H90 H 0.99011 0.94774 0.20198 0.0
H91 H 0.18628 0.00106 0.23377 0.0
H92 H 0.15308 0.07423 0.31561 0.0
H93 H 0.04769 0.22609 0.42667 0.0
H94 H 0.1315 0.26754 0.49631 0.0
H95 H 0.22176 0.09767 0.49052 0.0
H96 H 0.13523 0.05555 0.42339 0.0
H97 H 0.90186 0.15033 0.32162 0.0
H98 H 0.1006 0.18311 0.28937 0.0
O99 O 0.96363 0.08889 0.40159 0.0
H100 H 0.87283 0.19577 0.22859 0.0
H101 H 0.07177 0.22676 0.19538 0.0
C102 C 0.05312 0.0496 0.31022 0.0
C103 C 0.00765 0.01388 0.27697 0.0
C104 C 0.02623 0.9739 0.22791 0.0
C105 C 0.09083 0.96841 0.21211 0.0
C106 C 0.13637 0.00348 0.24605 0.0
C107 C 0.11746 0.04481 0.29357 0.0
C108 C 0.08688 0.1384 0.41751 0.0
C109 C 0.08516 0.19759 0.44068 0.0
C110 C 0.13284 0.22109 0.48096 0.0
C111 C 0.18352 0.18585 0.49836 0.0
C112 C 0.18365 0.12589 0.47729 0.0
C113 C 0.13463 0.10202 0.43842 0.0
C114 C 0.00341 0.16369 0.31258 0.0
C115 C 0.939 0.17003 0.29643 0.0
C116 C 0.92235 0.19635 0.24341 0.0
C117 C 0.97011 0.21523 0.2054 0.0
C118 C 0.03413 0.21352 0.22465 0.0
C119 C 0.0506 0.18837 0.27821 0.0
P120 P 0.47858 0.61504 0.85824 0.0
H121 H 0.60834 0.63976 0.8221 0.0
H122 H 0.64464 0.67246 0.72586 0.0
H123 H 0.45401 0.7295 0.6858 0.0
H124 H 0.41777 0.69712 0.78268 0.0
H125 H 0.36577 0.56998 0.91489 0.0
H126 H 0.27861 0.61925 0.97227 0.0
H127 H 0.37789 0.7849 0.97343 0.0
H128 H 0.464 0.73566 0.91373 0.0
H129 H 0.53815 0.51472 0.79014 0.0
H130 H 0.3509 0.59236 0.80217 0.0
O131 O 0.53619 0.589 0.90118 0.0
H132 H 0.5005 0.44416 0.70609 0.0
H133 H 0.31213 0.51965 0.72068 0.0
C134 C 0.51037 0.66559 0.80906 0.0
C135 C 0.57512 0.66257 0.79465 0.0
C136 C 0.59588 0.68151 0.7397 0.0
C137 C 0.55178 0.70274 0.69846 0.0
C138 C 0.48893 0.71387 0.7172 0.0
C139 C 0.46817 0.69498 0.77241 0.0
C140 C 0.41943 0.64979 0.90756 0.0
C141 C 0.36855 0.61693 0.92705 0.0
C142 C 0.31904 0.64501 0.95993 0.0
C143 C 0.3213 0.7059 0.97593 0.0
C144 C 0.375 0.73796 0.96098 0.0
C145 C 0.42384 0.70997 0.9267 0.0
C146 C 0.44671 0.55705 0.80464 0.0
C147 C 0.48845 0.51539 0.77615 0.0
C148 C 0.46707 0.47557 0.72768 0.0
C149 C 0.40326 0.4763 0.70729 0.0
C150 C 0.36126 0.51763 0.73619 0.0
C151 C 0.38326 0.55866 0.78344 0.0
P152 P 0.77502 0.86339 0.21007 0.0
H153 H 0.85113 0.96668 0.24548 0.0
H154 H 0.87221 0.05076 0.1904 0.0
H155 H 0.71033 0.00519 0.07047 0.0
H156 H 0.68787 0.92136 0.12854 0.0
H157 H 0.66544 0.90485 0.28076 0.0
H158 H 0.6095 0.84925 0.35267 0.0
H159 H 0.67311 0.68757 0.25331 0.0
H160 H 0.7283 0.74355 0.18162 0.0
H161 H 0.78059 0.86529 0.0751 0.0
H162 H 0.8675 0.76902 0.214 0.0
O163 O 0.81853 0.86556 0.27467 0.0
H164 H 0.86789 0.83775 0.00614 0.0
H165 H 0.95312 0.73843 0.14349 0.0
C166 C 0.7686 0.93728 0.19034 0.0
C167 C 0.81816 0.97611 0.20932 0.0
C168 C 0.83073 0.02397 0.17701 0.0
C169 C 0.79462 0.03305 0.12425 0.0
C170 C 0.73972 -0.00136 0.11024 0.0
C171 C 0.72646 0.95105 0.14368 0.0
C172 C 0.70238 0.82831 0.22713 0.0
C173 C 0.66381 0.85744 0.2721 0.0
C174 C 0.63244 0.82543 0.31374 0.0
C175 C 0.64005 0.76417 0.31043 0.0
C176 C 0.66838 0.73492 0.25822 0.0
C177 C 0.69948 0.76702 0.21663 0.0
C178 C 0.81986 0.82226 0.15109 0.0
C179 C 0.81718 0.83687 0.09037 0.0
C180 C 0.86658 0.82027 0.05037 0.0
C181 C 0.91759 0.78715 0.07021 0.0
C182 C 0.91427 0.76421 0.12726 0.0
C183 C 0.8657 0.78217 0.16782 0.0
P184 P 0.79847 0.32755 0.63323 0.0
H185 H 0.85588 0.39744 0.54253 0.0
H186 H 0.8153 0.48626 0.50192 0.0
H187 H 0.68649 0.51242 0.65449 0.0
H188 H 0.72706 0.42413 0.69479 0.0
H189 H 0.80833 0.21626 0.68231 0.0
H190 H 0.82027 0.18719 0.78571 0.0
H191 H 0.84249 0.36895 0.85716 0.0
H192 H 0.82917 0.39819 0.75231 0.0
H193 H 0.73025 0.32187 0.5168 0.0
H194 H 0.69006 0.28251 0.70139 0.0
O195 O 0.85102 0.29386 0.58521 0.0
H196 H 0.61713 0.30912 0.48975 0.0
H197 H 0.57791 0.26658 0.67329 0.0
C198 C 0.79485 0.40433 0.62209 0.0
C199 C 0.82143 0.42402 0.56908 0.0
C200 C 0.79804 0.47472 0.54562 0.0
C201 C 0.74714 0.5055 0.57454 0.0
C202 C 0.72553 0.48913 0.63104 0.0
C203 C 0.74929 0.43903 0.65466 0.0
C204 C 0.81679 0.30928 0.70973 0.0
C205 C 0.81619 0.24997 0.72003 0.0
C206 C 0.82256 0.23348 0.77929 0.0
C207 C 0.83113 0.27593 0.82967 0.0
C208 C 0.83542 0.33543 0.81915 0.0
C209 C 0.8277 0.3521 0.75936 0.0
C210 C 0.71925 0.30216 0.61073 0.0
C211 C 0.69772 0.30833 0.55084 0.0
C212 C 0.63312 0.30134 0.53551 0.0
C213 C 0.58919 0.28663 0.57948 0.0
C214 C 0.61115 0.27707 0.63843 0.0
C215 C 0.67556 0.2859 0.65432 0.0
P216 P 0.50981 0.34403 0.1972 0.0
H217 H 0.60929 0.43665 0.19992 0.0
H218 H 0.64424 0.51085 0.28142 0.0
H219 H 0.48172 0.46952 0.38945 0.0
H220 H 0.44818 0.39571 0.3092 0.0
H221 H 0.52724 0.29184 0.07156 0.0
H222 H 0.62175 0.25886 0.01335 0.0
H223 H 0.74053 0.30526 0.17321 0.0
H224 H 0.6455 0.33522 0.23247 0.0
H225 H 0.3791 0.30967 0.22143 0.0
H226 H 0.56869 0.26646 0.2803 0.0
O227 O 0.45458 0.36295 0.14734 0.0
H228 H 0.33672 0.28239 0.31789 0.0
H229 H 0.52588 0.23719 0.37592 0.0
C230 C 0.52851 0.40756 0.25001 0.0
C231 C 0.58167 0.44305 0.24147 0.0
C232 C 0.60157 0.48564 0.28809 0.0
C233 C 0.56726 0.49454 0.34306 0.0
C234 C 0.51057 0.46273 0.34863 0.0
C235 C 0.49127 0.42004 0.30244 0.0
C236 C 0.57945 0.31734 0.15589 0.0
C237 C 0.57352 0.29504 0.09416 0.0
C238 C 0.62748 0.27669 0.06084 0.0
C239 C 0.68833 0.28138 0.08849 0.0
C240 C 0.69427 0.3031 0.15049 0.0
C241 C 0.63996 0.31975 0.18433 0.0
C242 C 0.47726 0.29074 0.24377 0.0
C243 C 0.41111 0.29028 0.25289 0.0
C244 C 0.38673 0.27466 0.3082 0.0
C245 C 0.42811 0.25775 0.35409 0.0
C246 C 0.49293 0.24917 0.34076 0.0
C247 C 0.51749 0.26602 0.28592 0.0
P248 P 0.30849 0.17683 0.94821 0.0
H249 H 0.35265 0.10742 0.04656 0.0
H250 H 0.317 0.01173 0.07483 0.0
H251 H 0.21088 0.98373 0.90415 0.0
H252 H 0.24632 0.07834 0.87619 0.0
H253 H 0.33321 0.28676 0.90108 0.0
H254 H 0.34497 0.31387 0.79733 0.0
H255 H 0.35716 0.13065 0.72864 0.0
H256 H 0.34692 0.10367 0.8338 0.0
H257 H 0.23322 0.2362 0.04861 0.0
H258 H 0.20478 0.17348 0.85774 0.0
O259 O 0.35319 0.2121 0.0038 0.0
H260 H 0.118 0.25252 0.0588 0.0
H261 H 0.08987 0.18703 0.86875 0.0
C262 C 0.30247 0.10008 0.95904 0.0
C263 C 0.3239 0.07962 0.0141 0.0
C264 C 0.30364 0.02488 0.03024 0.0
C265 C 0.26082 -0.00927 0.99187 0.0
C266 C 0.24373 0.00936 0.93469 0.0
C267 C 0.26429 0.06351 0.91851 0.0
C268 C 0.3378 0.19335 0.87505 0.0
C269 C 0.34024 0.25238 0.86406 0.0
C270 C 0.34629 0.26773 0.80455 0.0
C271 C 0.35004 0.2242 0.75466 0.0
C272 C 0.35352 0.165 0.76618 0.0
C273 C 0.34728 0.14961 0.82628 0.0
C274 C 0.22766 0.20363 0.95248 0.0
C275 C 0.20264 0.22782 0.00847 0.0
C276 C 0.13693 0.23755 0.01412 0.0
C277 C 0.0955 0.22171 0.96422 0.0
C278 C 0.12105 0.20049 0.90746 0.0
C279 C 0.1867 0.19226 0.90145 0.0
P280 P 0.25505 0.54367 0.30693 0.0
H281 H 0.2237 0.41915 0.30517 0.0
H282 H 0.23526 0.36383 0.39386 0.0
H283 H 0.2108 0.52265 0.51441 0.0
H284 H 0.19639 0.5779 0.42518 0.0
H285 H 0.17871 0.53223 0.19603 0.0
H286 H 0.14175 0.60527 0.13125 0.0
H287 H 0.18791 0.74299 0.27505 0.0
H288 H 0.22023 0.66807 0.34197 0.0
H289 H 0.33298 0.50469 0.40607 0.0
H290 H 0.32997 0.65353 0.29975 0.0
O291 O 0.28615 0.49753 0.25137 0.0
H292 H 0.40854 0.55452 0.47731 0.0
H293 H 0.40728 0.70401 0.37101 0.0
C294 C 0.21186 0.50289 0.35891 0.0
C295 C 0.21587 0.44159 0.35037 0.0
C296 C 0.22281 0.40992 0.40119 0.0
C297 C 0.22544 0.43964 0.46033 0.0
C298 C 0.20885 0.4991 0.46898 0.0
C299 C 0.20008 0.53053 0.41788 0.0
C300 C 0.20591 0.59525 0.27198 0.0
C301 C 0.17883 0.57792 0.21449 0.0
C302 C 0.15786 0.62004 0.17743 0.0
C303 C 0.16484 0.68019 0.19714 0.0
C304 C 0.18404 0.69704 0.25803 0.0
C305 C 0.20276 0.65431 0.29605 0.0
C306 C 0.32089 0.57757 0.35089 0.0
C307 C 0.34709 0.54892 0.39893 0.0
C308 C 0.39052 0.57763 0.43986 0.0
C309 C 0.41122 0.63469 0.43181 0.0
C310 C 0.38981 0.66119 0.38007 0.0
C311 C 0.34547 0.63239 0.33936 0.0
P312 P 0.88715 0.82411 0.74037 0.0
H313 H 0.89703 0.84893 0.87139 0.0
H314 H 0.89914 0.93964 0.94001 0.0
H315 H 0.86869 0.03972 0.78503 0.0
H316 H 0.87076 0.94858 0.71568 0.0
H317 H 0.92115 0.75789 0.62505 0.0
H318 H 0.85251 0.72618 0.53734 0.0
H319 H 0.71264 0.85555 0.60294 0.0
H320 H 0.77982 0.88465 0.69111 0.0
H321 H 0.00606 0.89053 0.73608 0.0
H322 H 0.94972 0.71268 0.7571 0.0
O323 O 0.84374 0.77482 0.77312 0.0
H324 H 0.09168 0.88358 0.81093 0.0
H325 H 0.03625 0.70444 0.83018 0.0
C326 C 0.88082 0.89188 0.78882 0.0
C327 C 0.89015 0.89032 0.85213 0.0
C328 C 0.89224 0.94212 0.89117 0.0
C329 C 0.88387 -0.00361 0.86759 0.0
C330 C 0.87468 -0.00184 0.80411 0.0
C331 C 0.87481 0.94615 0.76468 0.0
C332 C 0.85597 0.82413 0.66419 0.0
C333 C 0.87714 0.78138 0.61876 0.0
C334 C 0.83759 0.76305 0.56871 0.0
C335 C 0.77628 0.78713 0.5642 0.0
C336 C 0.75913 0.83532 0.60556 0.0
C337 C 0.79819 0.85288 0.65581 0.0
C338 C 0.96924 0.80354 0.74503 0.0
C339 C 0.01473 0.8486 0.7536 0.0
C340 C 0.06356 0.84471 0.79683 0.0
C341 C 0.06751 0.7949 0.82942 0.0
C342 C 0.03263 0.74438 0.80766 0.0
C343 C 0.98305 0.74889 0.76541 0.0
loop_
_geom_bond_atom_site_label_1
_geom_bond_atom_site_label_2
_geom_bond_distance
_geom_bond_site_symmetry_2
_ccdc_geom_bond_type
Sc0 O3 2.025 . S
Sc0 O10 2.105 1_554 S
Sc0 O13 2.105 . S
Sc0 O16 2.105 . S
Sc0 O19 2.105 1_554 S
Sc1 O3 2.025 . S
Sc1 O11 2.105 1_554 S
Sc1 O15 2.105 . S
Sc1 O17 2.105 . S
Sc1 O21 2.105 1_554 S
Sc2 O3 2.025 . S
Sc2 O12 2.105 . S
Sc2 O14 2.105 . S
Sc2 O18 2.105 . S
Sc2 O20 2.105 . S
O3 Sc0 2.025 . S
O3 Sc1 2.025 . S
O3 Sc2 2.025 . S
C4 O10 1.268 . S
C4 O20 1.268 1_556 S
C5 O11 1.268 . S
C5 O19 1.268 . S
C6 O12 1.268 1_556 S
C6 O21 1.268 . S
C7 O13 1.268 1_655 S
C7 O17 1.268 1_655 S
C8 O14 1.268 . S
C8 O16 1.268 . S
C9 O15 1.268 . S
C9 O18 1.268 . S
O10 Sc0 2.105 1_556 S
O10 C4 1.268 . S
O11 Sc1 2.105 1_556 S
O11 C5 1.268 . S
O12 Sc2 2.105 . S
O12 C6 1.268 1_554 S
O13 Sc0 2.105 . S
O13 C7 1.268 1_455 S
O14 Sc2 2.105 . S
O14 C8 1.268 . S
O15 Sc1 2.105 . S
O15 C9 1.268 . S
O16 Sc0 2.105 . S
O16 C8 1.268 . S
O17 Sc1 2.105 . S
O17 C7 1.268 1_455 S
O18 Sc2 2.105 . S
O18 C9 1.268 . S
O19 Sc0 2.105 1_556 S
O19 C5 1.268 . S
O20 Sc2 2.105 . S
O20 C4 1.268 1_554 S
O21 Sc1 2.105 1_556 S
O21 C6 1.268 . S
Sc22 O25 2.025 . S
Sc22 O32 2.105 . S
Sc22 O35 2.105 . S
Sc22 O38 2.105 . S
Sc22 O41 2.105 . S
Sc23 O25 2.025 . S
Sc23 O33 2.105 . S
Sc23 O37 2.105 . S
Sc23 O39 2.105 . S
Sc23 O43 2.105 . S
Sc24 O25 2.025 . S
Sc24 O34 2.105 . S
Sc24 O36 2.105 . S
Sc24 O40 2.105 . S
Sc24 O42 2.105 . S
O25 Sc22 2.025 . S
O25 Sc23 2.025 . S
O25 Sc24 2.025 . S
C26 O32 1.268 . S
C26 O42 1.268 . S
C27 O33 1.268 . S
C27 O41 1.268 . S
C28 O34 1.268 . S
C28 O43 1.268 . S
C29 O35 1.268 . S
C29 O39 1.268 . S
C30 O36 1.268 . S
C30 O38 1.268 . S
C31 O37 1.268 . S
C31 O40 1.268 . S
O32 Sc22 2.105 . S
O32 C26 1.268 . S
O33 Sc23 2.105 . S
O33 C27 1.268 . S
O34 Sc24 2.105 . S
O34 C28 1.268 . S
O35 Sc22 2.105 . S
O35 C29 1.268 . S
O36 Sc24 2.105 . S
O36 C30 1.268 . S
O37 Sc23 2.105 . S
O37 C31 1.268 . S
O38 Sc22 2.105 . S
O38 C30 1.268 . S
O39 Sc23 2.105 . S
O39 C29 1.268 . S
O40 Sc24 2.105 . S
O40 C31 1.268 . S
O41 Sc22 2.105 . S
O41 C27 1.268 . S
O42 Sc24 2.105 . S
O42 C26 1.268 . S
O43 Sc23 2.105 . S
O43 C28 1.268 . S
Sc44 O47 2.025 . S
Sc44 O54 2.105 1_554 S
Sc44 O57 2.105 . S
Sc44 O60 2.105 . S
Sc44 O63 2.105 1_554 S
Sc45 O47 2.025 1_556 S
Sc45 O55 2.105 . S
Sc45 O59 2.105 1_556 S
Sc45 O61 2.105 1_556 S
Sc45 O65 2.105 . S
Sc46 O47 2.025 . S
Sc46 O56 2.105 1_554 S
Sc46 O58 2.105 . S
Sc46 O62 2.105 . S
Sc46 O64 2.105 1_554 S
O47 Sc44 2.025 . S
O47 Sc45 2.025 1_554 S
O47 Sc46 2.025 . S
C48 O54 1.268 1_455 S
C48 O64 1.268 1_455 S
C49 O55 1.268 . S
C49 O63 1.268 . S
C50 O56 1.268 . S
C50 O65 1.268 . S
C51 O57 1.268 . S
C51 O61 1.268 . S
C52 O58 1.268 . S
C52 O60 1.268 . S
C53 O59 1.268 . S
C53 O62 1.268 . S
O54 Sc44 2.105 1_556 S
O54 C48 1.268 1_655 S
O55 Sc45 2.105 . S
O55 C49 1.268 . S
O56 Sc46 2.105 1_556 S
O56 C50 1.268 . S
O57 Sc44 2.105 . S
O57 C51 1.268 . S
O58 Sc46 2.105 . S
O58 C52 1.268 . S
O59 Sc45 2.105 1_554 S
O59 C53 1.268 . S
O60 Sc44 2.105 . S
O60 C52 1.268 . S
O61 Sc45 2.105 1_554 S
O61 C51 1.268 . S
O62 Sc46 2.105 . S
O62 C53 1.268 . S
O63 Sc44 2.105 1_556 S
O63 C49 1.268 . S
O64 Sc46 2.105 1_556 S
O64 C48 1.268 1_655 S
O65 Sc45 2.105 . S
O65 C50 1.268 . S
Sc66 O69 2.025 . S
Sc66 O76 2.105 . S
Sc66 O79 2.105 . S
Sc66 O82 2.105 . S
Sc66 O85 2.105 . S
Sc67 O69 2.025 . S
Sc67 O77 2.105 . S
Sc67 O81 2.105 . S
Sc67 O83 2.105 . S
Sc67 O87 2.105 . S
Sc68 O69 2.025 . S
Sc68 O78 2.105 . S
Sc68 O80 2.105 . S
Sc68 O84 2.105 . S
Sc68 O86 2.105 . S
O69 Sc66 2.025 . S
O69 Sc67 2.025 . S
O69 Sc68 2.025 . S
C70 O76 1.268 . S
C70 O86 1.268 . S
C71 O77 1.268 . S
C71 O85 1.268 . S
C72 O78 1.268 . S
C72 O87 1.268 . S
C73 O79 1.268 . S
C73 O83 1.268 . S
C74 O80 1.268 . S
C74 O82 1.268 . S
C75 O81 1.268 . S
C75 O84 1.268 . S
O76 Sc66 2.105 . S
O76 C70 1.268 . S
O77 Sc67 2.105 . S
O77 C71 1.268 . S
O78 Sc68 2.105 . S
O78 C72 1.268 . S
O79 Sc66 2.105 . S
O79 C73 1.268 . S
O80 Sc68 2.105 . S
O80 C74 1.268 . S
O81 Sc67 2.105 . S
O81 C75 1.268 . S
O82 Sc66 2.105 . S
O82 C74 1.268 . S
O83 Sc67 2.105 . S
O83 C73 1.268 . S
O84 Sc68 2.105 . S
O84 C75 1.268 . S
O85 Sc66 2.105 . S
O85 C71 1.268 . S
O86 Sc68 2.105 . S
O86 C70 1.268 . S
O87 Sc67 2.105 . S
O87 C72 1.268 . S
P88 O99 1.490 1_455 S
P88 C102 1.812 . S
P88 C108 1.803 . S
P88 C114 1.819 1_455 S
H89 C103 0.941 . S
H90 C104 0.939 . S
H91 C106 0.940 . S
H92 C107 0.940 . S
H93 C109 0.939 . S
H94 C110 0.942 . S
H95 C112 0.940 . S
H96 C113 0.939 . S
H97 C115 0.941 . S
H98 C119 0.939 1_455 S
O99 P88 1.490 1_655 S
H100 C116 0.939 . S
H101 C118 0.940 . S
C102 P88 1.812 . S
C102 C103 1.389 1_545 S
C102 C107 1.391 . S
C103 H89 0.941 . S
C103 C102 1.389 1_565 S
C103 C104 1.397 . S
C104 H90 0.939 . S
C104 C103 1.397 . S
C104 C105 1.378 . S
C105 C104 1.378 . S
C105 C106 1.378 . S
C106 H91 0.940 . S
C106 C105 1.378 . S
C106 C107 1.396 1_565 S
C107 H92 0.940 . S
C107 C102 1.391 . S
C107 C106 1.396 1_545 S
C108 P88 1.803 . S
C108 C109 1.378 . S
C108 C113 1.400 . S
C109 H93 0.939 . S
C109 C108 1.378 . S
C109 C110 1.361 . S
C110 H94 0.942 . S
C110 C109 1.361 . S
C110 C111 1.369 . S
C111 C110 1.369 . S
C111 C112 1.404 . S
C112 H95 0.940 . S
C112 C111 1.404 . S
C112 C113 1.389 . S
C113 H96 0.939 . S
C113 C108 1.400 . S
C113 C112 1.389 . S
C114 P88 1.819 1_655 S
C114 C115 1.391 . S
C114 C119 1.391 . S
C115 H97 0.941 . S
C115 C114 1.391 . S
C115 C116 1.396 . S
C116 H100 0.939 . S
C116 C115 1.396 . S
C116 C117 1.397 . S
C117 C116 1.397 . S
C117 C118 1.385 . S
C118 H101 0.940 . S
C118 C117 1.385 . S
C118 C119 1.388 . S
C119 H98 0.939 1_655 S
C119 C114 1.391 . S
C119 C118 1.388 . S
P120 O131 1.490 . S
P120 C134 1.812 . S
P120 C140 1.803 . S
P120 C146 1.819 . S
H121 C135 0.941 . S
H122 C136 0.939 . S
H123 C138 0.940 . S
H124 C139 0.940 . S
H125 C141 0.940 1_554 S
H126 C142 0.942 . S
H127 C144 0.940 . S
H128 C145 0.939 . S
H129 C147 0.941 . S
H130 C151 0.939 . S
O131 P120 1.490 . S
H132 C148 0.939 . S
H133 C150 0.940 . S
C134 P120 1.812 . S
C134 C135 1.389 . S
C134 C139 1.391 . S
C135 H121 0.941 . S
C135 C134 1.389 . S
C135 C136 1.397 . S
C136 H122 0.939 . S
C136 C135 1.397 . S
C136 C137 1.378 . S
C137 C136 1.378 . S
C137 C138 1.378 . S
C138 H123 0.940 . S
C138 C137 1.378 . S
C138 C139 1.396 . S
C139 H124 0.940 . S
C139 C134 1.391 . S
C139 C138 1.396 . S
C140 P120 1.803 . S
C140 C141 1.378 . S
C140 C145 1.400 . S
C141 H125 0.940 1_556 S
C141 C140 1.378 . S
C141 C142 1.361 1_556 S
C142 H126 0.942 . S
C142 C141 1.361 1_554 S
C142 C143 1.369 1_554 S
C143 C142 1.369 1_556 S
C143 C144 1.404 . S
C144 H127 0.940 . S
C144 C143 1.404 . S
C144 C145 1.389 . S
C145 H128 0.939 . S
C145 C140 1.400 . S
C145 C144 1.389 . S
C146 P120 1.819 . S
C146 C147 1.391 . S
C146 C151 1.391 . S
C147 H129 0.941 . S
C147 C146 1.391 . S
C147 C148 1.396 . S
C148 H132 0.939 . S
C148 C147 1.396 . S
C148 C149 1.397 . S
C149 C148 1.397 . S
C149 C150 1.385 . S
C150 H133 0.940 . S
C150 C149 1.385 . S
C150 C151 1.388 . S
C151 H130 0.939 . S
C151 C146 1.391 . S
C151 C150 1.388 . S
P152 O163 1.490 . S
P152 C166 1.812 . S
P152 C172 1.803 . S
P152 C178 1.819 . S
H153 C167 0.941 1_545 S
H154 C168 0.939 . S
H155 C170 0.940 . S
H156 C171 0.940 . S
H157 C173 0.939 . S
H158 C174 0.942 . S
H159 C176 0.940 . S
H160 C177 0.939 . S
H161 C179 0.941 . S
H162 C183 0.939 . S
O163 P152 1.490 . S
H164 C180 0.939 . S
H165 C182 0.940 . S
C166 P152 1.812 . S
C166 C167 1.389 . S
C166 C171 1.391 . S
C167 H153 0.941 1_565 S
C167 C166 1.389 . S
C167 C168 1.397 1_565 S
C168 H154 0.939 . S
C168 C167 1.397 1_545 S
C168 C169 1.378 . S
C169 C168 1.378 . S
C169 C170 1.378 1_545 S
C170 H155 0.940 . S
C170 C169 1.378 1_565 S
C170 C171 1.396 . S
C171 H156 0.940 . S
C171 C166 1.391 . S
C171 C170 1.396 . S
C172 P152 1.803 . S
C172 C173 1.378 . S
C172 C177 1.400 . S
C173 H157 0.939 . S
C173 C172 1.378 . S
C173 C174 1.361 . S
C174 H158 0.942 . S
C174 C173 1.361 . S
C174 C175 1.369 . S
C175 C174 1.369 . S
C175 C176 1.404 . S
C176 H159 0.940 . S
C176 C175 1.404 . S
C176 C177 1.389 . S
C177 H160 0.939 . S
C177 C172 1.400 . S
C177 C176 1.389 . S
C178 P152 1.819 . S
C178 C179 1.391 . S
C178 C183 1.391 . S
C179 H161 0.941 . S
C179 C178 1.391 . S
C179 C180 1.396 . S
C180 H164 0.939 . S
C180 C179 1.396 . S
C180 C181 1.397 . S
C181 C180 1.397 . S
C181 C182 1.385 . S
C182 H165 0.940 . S
C182 C181 1.385 . S
C182 C183 1.388 . S
C183 H162 0.939 . S
C183 C178 1.391 . S
C183 C182 1.388 . S
P184 O195 1.490 . S
P184 C198 1.812 . S
P184 C204 1.803 . S
P184 C210 1.819 . S
H185 C199 0.941 . S
H186 C200 0.939 . S
H187 C202 0.940 . S
H188 C203 0.940 . S
H189 C205 0.939 . S
H190 C206 0.942 . S
H191 C208 0.940 . S
H192 C209 0.939 . S
H193 C211 0.941 . S
H194 C215 0.939 . S
O195 P184 1.490 . S
H196 C212 0.939 . S
H197 C214 0.940 . S
C198 P184 1.812 . S
C198 C199 1.389 . S
C198 C203 1.391 . S
C199 H185 0.941 . S
C199 C198 1.389 . S
C199 C200 1.397 . S
C200 H186 0.939 . S
C200 C199 1.397 . S
C200 C201 1.378 . S
C201 C200 1.378 . S
C201 C202 1.378 . S
C202 H187 0.940 . S
C202 C201 1.378 . S
C202 C203 1.396 . S
C203 H188 0.940 . S
C203 C198 1.391 . S
C203 C202 1.396 . S
C204 P184 1.803 . S
C204 C205 1.378 . S
C204 C209 1.400 . S
C205 H189 0.939 . S
C205 C204 1.378 . S
C205 C206 1.361 . S
C206 H190 0.942 . S
C206 C205 1.361 . S
C206 C207 1.369 . S
C207 C206 1.369 . S
C207 C208 1.404 . S
C208 H191 0.940 . S
C208 C207 1.404 . S
C208 C209 1.389 . S
C209 H192 0.939 . S
C209 C204 1.400 . S
C209 C208 1.389 . S
C210 P184 1.819 . S
C210 C211 1.391 . S
C210 C215 1.391 . S
C211 H193 0.941 . S
C211 C210 1.391 . S
C211 C212 1.396 . S
C212 H196 0.939 . S
C212 C211 1.396 . S
C212 C213 1.397 . S
C213 C212 1.397 . S
C213 C214 1.385 . S
C214 H197 0.940 . S
C214 C213 1.385 . S
C214 C215 1.388 . S
C215 H194 0.939 . S
C215 C210 1.391 . S
C215 C214 1.388 . S
P216 O227 1.490 . S
P216 C230 1.812 . S
P216 C236 1.803 . S
P216 C242 1.819 . S
H217 C231 0.941 . S
H218 C232 0.939 . S
H219 C234 0.940 . S
H220 C235 0.940 . S
H221 C237 0.939 . S
H222 C238 0.942 . S
H223 C240 0.940 . S
H224 C241 0.939 . S
H225 C243 0.941 . S
H226 C247 0.939 . S
O227 P216 1.490 . S
H228 C244 0.939 . S
H229 C246 0.940 . S
C230 P216 1.812 . S
C230 C231 1.389 . S
C230 C235 1.391 . S
C231 H217 0.941 . S
C231 C230 1.389 . S
C231 C232 1.397 . S
C232 H218 0.939 . S
C232 C231 1.397 . S
C232 C233 1.378 . S
C233 C232 1.378 . S
C233 C234 1.378 . S
C234 H219 0.940 . S
C234 C233 1.378 . S
C234 C235 1.396 . S
C235 H220 0.940 . S
C235 C230 1.391 . S
C235 C234 1.396 . S
C236 P216 1.803 . S
C236 C237 1.378 . S
C236 C241 1.400 . S
C237 H221 0.939 . S
C237 C236 1.378 . S
C237 C238 1.361 . S
C238 H222 0.942 . S
C238 C237 1.361 . S
C238 C239 1.369 . S
C239 C238 1.369 . S
C239 C240 1.404 . S
C240 H223 0.940 . S
C240 C239 1.404 . S
C240 C241 1.389 . S
C241 H224 0.939 . S
C241 C236 1.400 . S
C241 C240 1.389 . S
C242 P216 1.819 . S
C242 C243 1.391 . S
C242 C247 1.391 . S
C243 H225 0.941 . S
C243 C242 1.391 . S
C243 C244 1.396 . S
C244 H228 0.939 . S
C244 C243 1.396 . S
C244 C245 1.397 . S
C245 C244 1.397 . S
C245 C246 1.385 . S
C246 H229 0.940 . S
C246 C245 1.385 . S
C246 C247 1.388 . S
C247 H226 0.939 . S
C247 C242 1.391 . S
C247 C246 1.388 . S
P248 O259 1.490 1_556 S
P248 C262 1.812 . S
P248 C268 1.803 . S
P248 C274 1.819 . S
H249 C263 0.941 1_554 S
H250 C264 0.939 1_554 S
H251 C266 0.940 1_565 S
H252 C267 0.940 . S
H253 C269 0.939 . S
H254 C270 0.942 . S
H255 C272 0.940 . S
H256 C273 0.939 . S
H257 C275 0.941 . S
H258 C279 0.939 . S
O259 P248 1.490 1_554 S
H260 C276 0.939 . S
H261 C278 0.940 . S
C262 P248 1.812 . S
C262 C263 1.389 . S
C262 C267 1.391 . S
C263 H249 0.941 1_556 S
C263 C262 1.389 . S
C263 C264 1.397 . S
C264 H250 0.939 1_556 S
C264 C263 1.397 . S
C264 C265 1.378 1_545 S
C265 C264 1.378 1_565 S
C265 C266 1.378 1_565 S
C266 H251 0.940 1_545 S
C266 C265 1.378 1_545 S
C266 C267 1.396 . S
C267 H252 0.940 . S
C267 C262 1.391 . S
C267 C266 1.396 . S
C268 P248 1.803 . S
C268 C269 1.378 . S
C268 C273 1.400 . S
C269 H253 0.939 . S
C269 C268 1.378 . S
C269 C270 1.361 . S
C270 H254 0.942 . S
C270 C269 1.361 . S
C270 C271 1.369 . S
C271 C270 1.369 . S
C271 C272 1.404 . S
C272 H255 0.940 . S
C272 C271 1.404 . S
C272 C273 1.389 . S
C273 H256 0.939 . S
C273 C268 1.400 . S
C273 C272 1.389 . S
C274 P248 1.819 . S
C274 C275 1.391 1_556 S
C274 C279 1.391 . S
C275 H257 0.941 . S
C275 C274 1.391 1_554 S
C275 C276 1.396 . S
C276 H260 0.939 . S
C276 C275 1.396 . S
C276 C277 1.397 1_554 S
C277 C276 1.397 1_556 S
C277 C278 1.385 . S
C278 H261 0.940 . S
C278 C277 1.385 . S
C278 C279 1.388 . S
C279 H258 0.939 . S
C279 C274 1.391 . S
C279 C278 1.388 . S
P280 O291 1.490 . S
P280 C294 1.812 . S
P280 C300 1.803 . S
P280 C306 1.819 . S
H281 C295 0.941 . S
H282 C296 0.939 . S
H283 C298 0.940 . S
H284 C299 0.940 . S
H285 C301 0.939 . S
H286 C302 0.942 . S
H287 C304 0.940 . S
H288 C305 0.939 . S
H289 C307 0.941 . S
H290 C311 0.939 . S
O291 P280 1.490 . S
H292 C308 0.939 . S
H293 C310 0.940 . S
C294 P280 1.812 . S
C294 C295 1.389 . S
C294 C299 1.391 . S
C295 H281 0.941 . S
C295 C294 1.389 . S
C295 C296 1.397 . S
C296 H282 0.939 . S
C296 C295 1.397 . S
C296 C297 1.378 . S
C297 C296 1.378 . S
C297 C298 1.378 . S
C298 H283 0.940 . S
C298 C297 1.378 . S
C298 C299 1.396 . S
C299 H284 0.940 . S
C299 C294 1.391 . S
C299 C298 1.396 . S
C300 P280 1.803 . S
C300 C301 1.378 . S
C300 C305 1.400 . S
C301 H285 0.939 . S
C301 C300 1.378 . S
C301 C302 1.361 . S
C302 H286 0.942 . S
C302 C301 1.361 . S
C302 C303 1.369 . S
C303 C302 1.369 . S
C303 C304 1.404 . S
C304 H287 0.940 . S
C304 C303 1.404 . S
C304 C305 1.389 . S
C305 H288 0.939 . S
C305 C300 1.400 . S
C305 C304 1.389 . S
C306 P280 1.819 . S
C306 C307 1.391 . S
C306 C311 1.391 . S
C307 H289 0.941 . S
C307 C306 1.391 . S
C307 C308 1.396 . S
C308 H292 0.939 . S
C308 C307 1.396 . S
C308 C309 1.397 . S
C309 C308 1.397 . S
C309 C310 1.385 . S
C310 H293 0.940 . S
C310 C309 1.385 . S
C310 C311 1.388 . S
C311 H290 0.939 . S
C311 C306 1.391 . S
C311 C310 1.388 . S
P312 O323 1.490 . S
P312 C326 1.812 . S
P312 C332 1.803 . S
P312 C338 1.819 . S
H313 C327 0.941 . S
H314 C328 0.939 . S
H315 C330 0.940 . S
H316 C331 0.940 . S
H317 C333 0.939 . S
H318 C334 0.942 . S
H319 C336 0.940 . S
H320 C337 0.939 . S
H321 C339 0.941 . S
H322 C343 0.939 . S
O323 P312 1.490 . S
H324 C340 0.939 . S
H325 C342 0.940 . S
C326 P312 1.812 . S
C326 C327 1.389 . S
C326 C331 1.391 . S
C327 H313 0.941 . S
C327 C326 1.389 . S
C327 C328 1.397 1_565 S
C328 H314 0.939 . S
C328 C327 1.397 1_545 S
C328 C329 1.378 . S
C329 C328 1.378 . S
C329 C330 1.378 . S
C330 H315 0.940 . S
C330 C329 1.378 . S
C330 C331 1.396 1_545 S
C331 H316 0.940 . S
C331 C326 1.391 . S
C331 C330 1.396 1_565 S
C332 P312 1.803 . S
C332 C333 1.378 . S
C332 C337 1.400 . S
C333 H317 0.939 . S
C333 C332 1.378 . S
C333 C334 1.361 . S
C334 H318 0.942 . S
C334 C333 1.361 . S
C334 C335 1.369 . S
C335 C334 1.369 . S
C335 C336 1.404 . S
C336 H319 0.940 . S
C336 C335 1.404 . S
C336 C337 1.389 . S
C337 H320 0.939 . S
C337 C332 1.400 . S
C337 C336 1.389 . S
C338 P312 1.819 . S
C338 C339 1.391 . S
C338 C343 1.391 . S
C339 H321 0.941 . S
C339 C338 1.391 . S
C339 C340 1.396 1_655 S
C340 H324 0.939 . S
C340 C339 1.396 1_455 S
C340 C341 1.397 . S
C341 C340 1.397 . S
C341 C342 1.385 . S
C342 H325 0.940 . S
C342 C341 1.385 . S
C342 C343 1.388 1_455 S
C343 H322 0.939 . S
C343 C338 1.391 . S
C343 C342 1.388 1_655 S
C8 C105 2.388 . S
C31 C137 2.383 . S
C53 C169 2.293 . S
C213 C74 1.781 . S
C233 C26 2.313 . S
C48 C277 1.820 . S
C71 C297 2.286 . S
C5 C341 1.967 . S
C50 C329 1.964 . S
C245 C70 2.477 . S
C265 C4 2.545 . S
C28 C309 1.469 . S
C149 C73 2.414 . S
C7 C181 1.481 . S
C201 C30 2.516 . S
C117 C52 2.446 . S
C303 C9 2.093 . S
C335 C29 1.431 . S
C51 C239 1.828 . S
C271 C75 2.595 . S
C175 C27 2.131 . S
C49 C207 2.570 . S
C111 C72 1.818 . S
C143 C6 1.803 . S
