# Generated by pormake.
# Topology pyr, (3,6)-cn, num edge types: 1
# Building blocks:
#     Node 0, Type 0, BuildingBlock: BELTOD_clean_linker_0, # of connection points: 3
#     Node 1, Type 0, BuildingBlock: BELTOD_clean_linker_0, # of connection points: 3
#     Node 2, Type 0, BuildingBlock: BELTOD_clean_linker_0, # of connection points: 3
#     Node 3, Type 0, BuildingBlock: BELTOD_clean_linker_0, # of connection points: 3
#     Node 4, Type 0, BuildingBlock: BELTOD_clean_linker_0, # of connection points: 3
#     Node 5, Type 0, BuildingBlock: BELTOD_clean_linker_0, # of connection points: 3
#     Node 6, Type 0, BuildingBlock: BELTOD_clean_linker_0, # of connection points: 3
#     Node 7, Type 0, BuildingBlock: BELTOD_clean_linker_0, # of connection points: 3
#     Node 8, Type 1, BuildingBlock: BETDEL_clean_sbu_0, # of connection points: 6
#     Node 9, Type 1, BuildingBlock: BETDEL_clean_sbu_0, # of connection points: 6
#     Node 10, Type 1, BuildingBlock: BETDEL_clean_sbu_0, # of connection points: 6
#     Node 11, Type 1, BuildingBlock: BETDEL_clean_sbu_0, # of connection points: 6
#     Edge 12, Type (0, 1), BuildingBlock: MIFKUJ_clean_linker_0, # of connection points: 2
#     Edge 13, Type (0, 1), BuildingBlock: MIFKUJ_clean_linker_0, # of connection points: 2
#     Edge 14, Type (0, 1), BuildingBlock: MIFKUJ_clean_linker_0, # of connection points: 2
#     Edge 15, Type (0, 1), BuildingBlock: MIFKUJ_clean_linker_0, # of connection points: 2
#     Edge 16, Type (0, 1), BuildingBlock: MIFKUJ_clean_linker_0, # of connection points: 2
#     Edge 17, Type (0, 1), BuildingBlock: MIFKUJ_clean_linker_0, # of connection points: 2
#     Edge 18, Type (0, 1), BuildingBlock: MIFKUJ_clean_linker_0, # of connection points: 2
#     Edge 19, Type (0, 1), BuildingBlock: MIFKUJ_clean_linker_0, # of connection points: 2
#     Edge 20, Type (0, 1), BuildingBlock: MIFKUJ_clean_linker_0, # of connection points: 2
#     Edge 21, Type (0, 1), BuildingBlock: MIFKUJ_clean_linker_0, # of connection points: 2
#     Edge 22, Type (0, 1), BuildingBlock: MIFKUJ_clean_linker_0, # of connection points: 2
#     Edge 23, Type (0, 1), BuildingBlock: MIFKUJ_clean_linker_0, # of connection points: 2
#     Edge 24, Type (0, 1), BuildingBlock: MIFKUJ_clean_linker_0, # of connection points: 2
#     Edge 25, Type (0, 1), BuildingBlock: MIFKUJ_clean_linker_0, # of connection points: 2
#     Edge 26, Type (0, 1), BuildingBlock: MIFKUJ_clean_linker_0, # of connection points: 2
#     Edge 27, Type (0, 1), BuildingBlock: MIFKUJ_clean_linker_0, # of connection points: 2
#     Edge 28, Type (0, 1), BuildingBlock: MIFKUJ_clean_linker_0, # of connection points: 2
#     Edge 29, Type (0, 1), BuildingBlock: MIFKUJ_clean_linker_0, # of connection points: 2
#     Edge 30, Type (0, 1), BuildingBlock: MIFKUJ_clean_linker_0, # of connection points: 2
#     Edge 31, Type (0, 1), BuildingBlock: MIFKUJ_clean_linker_0, # of connection points: 2
#     Edge 32, Type (0, 1), BuildingBlock: MIFKUJ_clean_linker_0, # of connection points: 2
#     Edge 33, Type (0, 1), BuildingBlock: MIFKUJ_clean_linker_0, # of connection points: 2
#     Edge 34, Type (0, 1), BuildingBlock: MIFKUJ_clean_linker_0, # of connection points: 2
#     Edge 35, Type (0, 1), BuildingBlock: MIFKUJ_clean_linker_0, # of connection points: 2
# Relax obj value: 0.025
# Max RMSD: 0.090
# Mean RMSD: 0.039
data_MOF--net-pyr--node1-BETDEL_clean_sbu_0--node2-BELTOD_clean_linker_0--edge1-MIFKUJ_clean_linker_0
_symmetry_space_group_name_H-M    P1
_symmetry_Int_Tables_number       1
_symmetry_cell_setting            triclinic
loop_
_symmetry_equiv_pos_as_xyz
'x, y, z'
_cell_length_a     53.013085
_cell_length_b     55.370524
_cell_length_c     50.236042
_cell_angle_alpha  91.847962
_cell_angle_beta   89.450527
_cell_angle_gamma 94.485373
loop_
_atom_site_label
_atom_site_type_symbol
_atom_site_fract_x
_atom_site_fract_y
_atom_site_fract_z
_atom_type_partial_charge
P0 P 0.23358 0.23025 0.21878 0.0
H1 H 0.28564 0.21662 0.22238 0.0
H2 H 0.31039 0.18989 0.19484 0.0
H3 H 0.24668 0.17512 0.14211 0.0
H4 H 0.22188 0.20151 0.17017 0.0
H5 H 0.18831 0.25587 0.22862 0.0
H6 H 0.16493 0.28189 0.20143 0.0
H7 H 0.22236 0.27896 0.13991 0.0
H8 H 0.24519 0.25207 0.16698 0.0
H9 H 0.23259 0.20882 0.27129 0.0
H10 H 0.18422 0.20757 0.20262 0.0
O11 O 0.25197 0.24595 0.24106 0.0
H12 H 0.20094 0.18207 0.29414 0.0
H13 H 0.15247 0.1811 0.22543 0.0
C14 C 0.2521 0.21129 0.19803 0.0
C15 C 0.27706 0.20774 0.20481 0.0
C16 C 0.29121 0.1925 0.18899 0.0
C17 C 0.28056 0.18048 0.16617 0.0
C18 C 0.25537 0.18393 0.15966 0.0
C19 C 0.24124 0.19914 0.17555 0.0
C20 C 0.21795 0.25132 0.1994 0.0
C21 C 0.19582 0.26073 0.20922 0.0
C22 C 0.1826 0.27586 0.19372 0.0
C23 C 0.19162 0.28237 0.16831 0.0
C24 C 0.21456 0.27384 0.1591 0.0
C25 C 0.22768 0.25852 0.1746 0.0
C26 C 0.21041 0.21066 0.23559 0.0
C27 C 0.2151 0.20292 0.26122 0.0
C28 C 0.19711 0.18756 0.27416 0.0
C29 C 0.17418 0.17975 0.26161 0.0
C30 C 0.16979 0.1872 0.23571 0.0
C31 C 0.18792 0.20229 0.22269 0.0
P32 P 0.33134 0.8509 0.61503 0.0
H33 H 0.37681 0.87698 0.63704 0.0
H34 H 0.38798 0.89249 0.68166 0.0
H35 H 0.31376 0.86679 0.71017 0.0
H36 H 0.30242 0.85238 0.66527 0.0
H37 H 0.33844 0.817 0.57077 0.0
H38 H 0.3468 0.7742 0.56838 0.0
H39 H 0.33897 0.77114 0.65396 0.0
H40 H 0.33118 0.81395 0.65621 0.0
H41 H 0.31312 0.88652 0.57986 0.0
H42 H 0.28067 0.82953 0.62916 0.0
O43 O 0.35201 0.86355 0.59332 0.0
H44 H 0.2707 0.89628 0.56745 0.0
H45 H 0.23798 0.84008 0.6176 0.0
C46 C 0.33867 0.86379 0.64769 0.0
C47 C 0.3628 0.87502 0.6528 0.0
C48 C 0.36926 0.88365 0.67846 0.0
C49 C 0.35183 0.88081 0.69965 0.0
C50 C 0.32754 0.86969 0.69433 0.0
C51 C 0.32102 0.86133 0.66858 0.0
C52 C 0.33469 0.8188 0.61366 0.0
C53 C 0.33838 0.80705 0.58899 0.0
C54 C 0.34297 0.78253 0.58765 0.0
C55 C 0.34376 0.76929 0.61102 0.0
C56 C 0.33895 0.78094 0.63564 0.0
C57 C 0.33438 0.80546 0.63693 0.0
C58 C 0.30002 0.85724 0.60535 0.0
C59 C 0.2969 0.87605 0.58797 0.0
C60 C 0.2727 0.88164 0.5809 0.0
C61 C 0.25125 0.86888 0.59161 0.0
C62 C 0.25433 0.85016 0.6092 0.0
C63 C 0.27862 0.84418 0.61579 0.0
P64 P 0.6753 0.30671 0.81649 0.0
H65 H 0.70202 0.29547 0.86442 0.0
H66 H 0.73457 0.31825 0.89112 0.0
H67 H 0.72737 0.38091 0.84347 0.0
H68 H 0.69445 0.35818 0.81726 0.0
H69 H 0.66693 0.25418 0.80871 0.0
H70 H 0.6448 0.22263 0.83482 0.0
H71 H 0.61894 0.27718 0.88966 0.0
H72 H 0.6418 0.30895 0.86361 0.0
H73 H 0.68712 0.3291 0.76599 0.0
H74 H 0.62408 0.32481 0.82095 0.0
O75 O 0.69488 0.29222 0.79653 0.0
H76 H 0.6639 0.35345 0.73672 0.0
H77 H 0.6007 0.34976 0.79181 0.0
C78 C 0.69538 0.3252 0.83915 0.0
C79 C 0.70696 0.3143 0.86016 0.0
C80 C 0.72582 0.32728 0.87521 0.0
C81 C 0.73374 0.35139 0.86935 0.0
C82 C 0.72154 0.36249 0.84876 0.0
C83 C 0.70266 0.34946 0.8337 0.0
C84 C 0.65612 0.28397 0.83424 0.0
C85 C 0.65645 0.25949 0.82625 0.0
C86 C 0.64387 0.24141 0.84126 0.0
C87 C 0.63035 0.24743 0.86441 0.0
C88 C 0.62919 0.27204 0.87187 0.0
C89 C 0.64216 0.29017 0.857 0.0
C90 C 0.65721 0.32474 0.79547 0.0
C91 C 0.6682 0.33337 0.77177 0.0
C92 C 0.65496 0.34756 0.75513 0.0
C93 C 0.6304 0.35368 0.76188 0.0
C94 C 0.61946 0.34518 0.78584 0.0
C95 C 0.63284 0.33095 0.80258 0.0
P96 P 0.79513 0.68667 0.29817 0.0
H97 H 0.83158 0.72499 0.28097 0.0
H98 H 0.85661 0.75761 0.30469 0.0
H99 H 0.82608 0.73151 0.37951 0.0
H100 H 0.80211 0.69834 0.35568 0.0
H101 H 0.78041 0.65167 0.25583 0.0
H102 H 0.80443 0.62693 0.22504 0.0
H103 H 0.8738 0.65415 0.26374 0.0
H104 H 0.84966 0.67867 0.29464 0.0
H105 H 0.75019 0.6989 0.32749 0.0
H106 H 0.79337 0.63642 0.3167 0.0
O107 O 0.7774 0.70155 0.27799 0.0
H108 H 0.71986 0.67567 0.35553 0.0
H109 H 0.76304 0.61301 0.34478 0.0
C110 C 0.81495 0.70926 0.31649 0.0
C111 C 0.83053 0.72617 0.30251 0.0
C112 C 0.84465 0.74496 0.31613 0.0
C113 C 0.84321 0.74744 0.34407 0.0
C114 C 0.82791 0.73009 0.35805 0.0
C115 C 0.81398 0.71114 0.34438 0.0
C116 C 0.81324 0.66726 0.27725 0.0
C117 C 0.80078 0.65219 0.25778 0.0
C118 C 0.81451 0.638 0.24028 0.0
C119 C 0.84102 0.63874 0.24185 0.0
C120 C 0.85342 0.65349 0.2618 0.0
C121 C 0.83961 0.66749 0.2795 0.0
C122 C 0.77379 0.6693 0.31972 0.0
C123 C 0.75314 0.68017 0.33121 0.0
C124 C 0.73591 0.66691 0.34736 0.0
C125 C 0.73899 0.64246 0.35229 0.0
C126 C 0.75998 0.63171 0.34105 0.0
C127 C 0.77736 0.6451 0.32505 0.0
P128 P 0.83158 0.84682 0.89304 0.0
H129 H 0.80948 0.85845 0.94436 0.0
H130 H 0.76671 0.86623 0.95868 0.0
H131 H 0.74049 0.85303 0.87788 0.0
H132 H 0.78329 0.84427 0.86397 0.0
H133 H 0.8785 0.82674 0.90692 0.0
H134 H 0.88916 0.78568 0.91607 0.0
H135 H 0.81103 0.75931 0.90473 0.0
H136 H 0.80048 0.80052 0.89527 0.0
H137 H 0.81729 0.88483 0.85861 0.0
H138 H 0.86068 0.82216 0.85163 0.0
O139 O 0.85087 0.86642 0.91061 0.0
H140 H 0.82943 0.89548 0.81322 0.0
H141 H 0.87393 0.8333 0.80701 0.0
C142 C 0.79966 0.85163 0.90299 0.0
C143 C 0.79451 0.85725 0.92974 0.0
C144 C 0.77006 0.86177 0.93787 0.0
C145 C 0.75024 0.86072 0.91934 0.0
C146 C 0.7553 0.854 0.89267 0.0
C147 C 0.77982 0.84928 0.88461 0.0
C148 C 0.83866 0.81668 0.9009 0.0
C149 C 0.86363 0.81216 0.90658 0.0
C150 C 0.86973 0.7887 0.91157 0.0
C151 C 0.85089 0.76938 0.91106 0.0
C152 C 0.82583 0.77395 0.90543 0.0
C153 C 0.8198 0.79745 0.90008 0.0
C154 C 0.83765 0.85248 0.8584 0.0
C155 C 0.82912 0.87316 0.84718 0.0
C156 C 0.83636 0.87939 0.82132 0.0
C157 C 0.8528 0.86533 0.80641 0.0
C158 C 0.86092 0.84433 0.81763 0.0
C159 C 0.85342 0.838 0.84336 0.0
P160 P 0.75895 0.22764 0.3143 0.0
H161 H 0.76284 0.27905 0.33041 0.0
H162 H 0.73395 0.30445 0.35423 0.0
H163 H 0.68267 0.24125 0.36746 0.0
H164 H 0.71128 0.21616 0.34261 0.0
H165 H 0.81342 0.22668 0.3225 0.0
H166 H 0.83847 0.20179 0.34958 0.0
H167 H 0.76979 0.16456 0.37939 0.0
H168 H 0.74478 0.18946 0.35199 0.0
H169 H 0.72001 0.23997 0.27824 0.0
H170 H 0.75489 0.17537 0.29895 0.0
O171 O 0.77849 0.24588 0.29632 0.0
H172 H 0.69292 0.2163 0.24646 0.0
H173 H 0.72706 0.15134 0.26815 0.0
C174 C 0.73906 0.24579 0.33454 0.0
C175 C 0.74545 0.27064 0.33857 0.0
C176 C 0.72896 0.28513 0.35241 0.0
C177 C 0.70587 0.27494 0.36268 0.0
C178 C 0.70006 0.24978 0.35944 0.0
C179 C 0.71651 0.23536 0.34545 0.0
C180 C 0.77723 0.20984 0.33514 0.0
C181 C 0.8037 0.21324 0.33491 0.0
C182 C 0.81802 0.19908 0.35052 0.0
C183 C 0.8061 0.18119 0.36659 0.0
C184 C 0.77952 0.17803 0.367 0.0
C185 C 0.7652 0.19235 0.3515 0.0
C186 C 0.73914 0.20941 0.29131 0.0
C187 C 0.72162 0.22061 0.27616 0.0
C188 C 0.706 0.207 0.25811 0.0
C189 C 0.70758 0.18182 0.25489 0.0
C190 C 0.72543 0.1707 0.26995 0.0
C191 C 0.74121 0.18442 0.28786 0.0
P192 P 0.37002 0.65669 0.14205 0.0
H193 H 0.33595 0.6702 0.10099 0.0
H194 H 0.29221 0.65673 0.09003 0.0
H195 H 0.28635 0.61552 0.16173 0.0
H196 H 0.33022 0.62871 0.17227 0.0
H197 H 0.41002 0.67922 0.10847 0.0
H198 H 0.42142 0.72104 0.09649 0.0
H199 H 0.36316 0.7453 0.14928 0.0
H200 H 0.35144 0.70307 0.16095 0.0
H201 H 0.38156 0.60968 0.16028 0.0
H202 H 0.38058 0.68209 0.19425 0.0
O203 O 0.38348 0.6396 0.1188 0.0
H204 H 0.39598 0.59542 0.20246 0.0
H205 H 0.39552 0.66799 0.23671 0.0
C206 C 0.33635 0.65071 0.13757 0.0
C207 C 0.32506 0.6587 0.11466 0.0
C208 C 0.29999 0.65098 0.10843 0.0
C209 C 0.28572 0.6349 0.12492 0.0
C210 C 0.29687 0.62761 0.14838 0.0
C211 C 0.32197 0.63535 0.15458 0.0
C212 C 0.37975 0.68798 0.13551 0.0
C213 C 0.39966 0.69346 0.11757 0.0
C214 C 0.40613 0.7174 0.11061 0.0
C215 C 0.39306 0.73644 0.12176 0.0
C216 C 0.37362 0.731 0.14043 0.0
C217 C 0.36691 0.70692 0.14711 0.0
C218 C 0.38047 0.64704 0.17389 0.0
C219 C 0.38469 0.6226 0.17679 0.0
C220 C 0.39305 0.61447 0.20096 0.0
C221 C 0.3973 0.6306 0.22295 0.0
C222 C 0.39241 0.65505 0.22021 0.0
C223 C 0.38401 0.6632 0.19587 0.0
P224 P 0.19006 0.3193 0.69272 0.0
H225 H 0.20499 0.27796 0.66089 0.0
H226 H 0.18111 0.24425 0.63752 0.0
H227 H 0.11118 0.27414 0.66118 0.0
H228 H 0.13519 0.3081 0.6842 0.0
H229 H 0.21662 0.36646 0.70398 0.0
H230 H 0.24439 0.39353 0.67733 0.0
H231 H 0.23092 0.34528 0.60868 0.0
H232 H 0.20227 0.31905 0.6351 0.0
H233 H 0.17615 0.30956 0.74787 0.0
H234 H 0.16056 0.36198 0.68983 0.0
O235 O 0.21187 0.30616 0.70971 0.0
H236 H 0.15204 0.3311 0.78137 0.0
H237 H 0.13597 0.38355 0.72319 0.0
C238 C 0.17191 0.29551 0.67432 0.0
C239 C 0.18452 0.27739 0.66084 0.0
C240 C 0.17087 0.25818 0.64742 0.0
C241 C 0.14429 0.25656 0.64755 0.0
C242 C 0.13166 0.27486 0.66092 0.0
C243 C 0.14538 0.2943 0.67402 0.0
C244 C 0.2071 0.34082 0.67156 0.0
C245 C 0.21917 0.36202 0.68302 0.0
C246 C 0.23532 0.37735 0.66779 0.0
C247 C 0.24015 0.37155 0.64083 0.0
C248 C 0.22745 0.35056 0.62925 0.0
C249 C 0.2111 0.33536 0.64447 0.0
C250 C 0.17064 0.33451 0.71658 0.0
C251 C 0.16743 0.32568 0.74231 0.0
C252 C 0.15344 0.33793 0.7614 0.0
C253 C 0.14221 0.3592 0.75505 0.0
C254 C 0.14475 0.3675 0.72888 0.0
C255 C 0.15873 0.35516 0.70977 0.0
Dy256 Dy 0.00521 0.00597 0.47523 0.0
C257 C 0.97202 0.96749 0.57499 0.0
C258 C 0.0206 0.02849 0.42969 0.0
Dy259 Dy 0.98506 0.99086 0.52925 0.0
O260 O 0.03184 0.01145 0.44066 0.0
O261 O 0.00065 0.03326 0.4435 0.0
O262 O 0.02867 0.97421 0.47389 0.0
O263 O 0.02231 0.99191 0.51071 0.0
C264 C 0.03209 0.97418 0.49943 0.0
C265 C 0.95746 0.02208 0.5051 0.0
O266 O 0.0138 0.0205 0.54237 0.0
O267 O 0.01767 0.03842 0.50133 0.0
O268 O 0.96774 0.98965 0.57015 0.0
O269 O 0.98368 0.958 0.55486 0.0
O270 O 0.9591 0.021 0.53074 0.0
O271 O 0.96812 0.00486 0.49399 0.0
O272 O 0.97732 0.97607 0.46132 0.0
O273 O 0.97151 0.95886 0.50267 0.0
C274 C 0.0213 0.03906 0.52743 0.0
C275 C 0.96878 0.95794 0.47638 0.0
Dy276 Dy 0.51139 0.01759 0.03704 0.0
C277 C 0.45101 0.97033 0.94991 0.0
C278 C 0.54481 0.04624 0.06719 0.0
Dy279 Dy 0.47635 0.99631 0.98948 0.0
O280 O 0.52466 0.05351 0.05635 0.0
O281 O 0.54674 0.02341 0.06142 0.0
O282 O 0.49784 0.99012 0.06796 0.0
O283 O 0.48319 0.98836 0.03007 0.0
C284 C 0.48218 0.97792 0.05183 0.0
C285 C 0.50044 0.0404 0.98291 0.0
O286 O 0.4482 0.01347 0.01584 0.0
O287 O 0.47739 0.0392 0.03977 0.0
O288 O 0.47438 0.97918 0.94855 0.0
O289 O 0.44128 0.97558 0.97308 0.0
O290 O 0.47863 0.0335 0.97255 0.0
O291 O 0.5092 0.02287 0.99416 0.0
O292 O 0.53759 0.99558 0.01333 0.0
O293 O 0.50715 0.97079 0.99024 0.0
C294 C 0.45388 0.03235 0.03226 0.0
C295 C 0.5307 0.9759 0.99858 0.0
Dy296 Dy 0.50731 0.4796 0.48783 0.0
C297 C 0.45402 0.54827 0.55404 0.0
C298 C 0.53748 0.44808 0.46286 0.0
Dy299 Dy 0.48666 0.52141 0.52615 0.0
O300 O 0.51289 0.44615 0.46241 0.0
O301 O 0.54551 0.46735 0.47662 0.0
O302 O 0.46687 0.46468 0.48176 0.0
O303 O 0.47749 0.48295 0.51757 0.0
C304 C 0.45901 0.4734 0.50447 0.0
C305 C 0.53194 0.53538 0.50422 0.0
O306 O 0.50172 0.49741 0.55664 0.0
O307 O 0.5214 0.4702 0.52807 0.0
O308 O 0.47734 0.54592 0.56078 0.0
O309 O 0.44845 0.53555 0.53236 0.0
O310 O 0.52033 0.54915 0.52103 0.0
O311 O 0.51859 0.5158 0.50144 0.0
O312 O 0.4987 0.50683 0.45809 0.0
O313 O 0.47168 0.52837 0.48526 0.0
C314 C 0.51623 0.47905 0.55232 0.0
C315 C 0.48153 0.52293 0.46149 0.0
Dy316 Dy 0.00958 0.47475 0.01986 0.0
C317 C 0.96983 0.56076 0.98528 0.0
C318 C 0.03265 0.43553 0.03612 0.0
Dy319 Dy 0.99555 0.52166 0.99638 0.0
O320 O 0.01948 0.4493 0.0512 0.0
O321 O 0.03302 0.44293 0.01183 0.0
O322 O 0.9777 0.47724 0.04925 0.0
O323 O 0.99798 0.50905 0.03656 0.0
C324 C 0.9795 0.50079 0.05039 0.0
C325 C 0.02493 0.49569 0.96477 0.0
O326 O 0.02928 0.53667 0.01955 0.0
O327 O 0.04529 0.49938 0.02513 0.0
O328 O 0.9888 0.55352 0.97144 0.0
O329 O 0.96519 0.54689 0.00533 0.0
O330 O 0.02563 0.51922 0.96491 0.0
O331 O 0.00713 0.4874 0.97951 0.0
O332 O 0.97559 0.45929 0.99736 0.0
O333 O 0.96058 0.49653 0.98866 0.0
C334 C 0.0478 0.52345 0.02648 0.0
C335 C 0.95764 0.47248 0.98885 0.0
H336 H 0.12352 0.18493 0.26619 0.0
H337 H 0.09175 0.15881 0.28973 0.0
H338 H 0.14962 0.11268 0.31157 0.0
H339 H 0.18142 0.13871 0.2881 0.0
H340 H 0.10462 0.0873 0.292 0.0
H341 H 0.13127 0.15201 0.35556 0.0
H342 H 0.13798 0.19469 0.37114 0.0
H343 H 0.05872 0.20339 0.36251 0.0
H344 H 0.05161 0.16082 0.34648 0.0
H345 H 0.06496 0.02291 0.40406 0.0
H346 H 0.0847 0.04807 0.36958 0.0
H347 H 0.01935 0.08987 0.36893 0.0
H348 H 0.99959 0.06477 0.40414 0.0
H349 H 0.06127 0.11881 0.37238 0.0
H350 H 0.03307 0.05281 0.3153 0.0
H351 H 0.0256 0.0102 0.29975 0.0
H352 H 0.10572 0.00377 0.29503 0.0
H353 H 0.1137 0.04625 0.31093 0.0
C354 C 0.12938 0.16912 0.27588 0.0
C355 C 0.1549 0.16383 0.27544 0.0
C356 C 0.11128 0.1543 0.28936 0.0
C357 C 0.11841 0.1339 0.30239 0.0
C358 C 0.14378 0.12836 0.30157 0.0
C359 C 0.16192 0.1433 0.28837 0.0
C360 C 0.09965 0.11855 0.31753 0.0
C361 C 0.09518 0.09408 0.30965 0.0
C362 C 0.08667 0.12775 0.33989 0.0
C363 C 0.09097 0.15334 0.34946 0.0
C364 C 0.11532 0.1631 0.35671 0.0
C365 C 0.11919 0.18725 0.36568 0.0
C366 C 0.09881 0.20178 0.36772 0.0
C367 C 0.0745 0.19214 0.36085 0.0
C368 C 0.07054 0.16801 0.35182 0.0
C369 C 0.05462 0.03723 0.39631 0.0
C370 C 0.03084 0.04206 0.4068 0.0
C371 C 0.06585 0.05153 0.37647 0.0
C372 C 0.05339 0.07073 0.36647 0.0
C373 C 0.02925 0.07513 0.37638 0.0
C374 C 0.01801 0.06084 0.3964 0.0
C375 C 0.0667 0.08723 0.34736 0.0
C376 C 0.07021 0.112 0.35443 0.0
C377 C 0.07863 0.07831 0.32412 0.0
C378 C 0.07398 0.05272 0.31446 0.0
C379 C 0.04911 0.04228 0.31113 0.0
C380 C 0.04478 0.01814 0.30222 0.0
C381 C 0.06517 0.00428 0.29644 0.0
C382 C 0.08994 0.01453 0.29951 0.0
C383 C 0.09438 0.03866 0.30843 0.0
H384 H 0.06178 0.98559 0.28955 0.0
H385 H 0.10184 0.22047 0.37469 0.0
H386 H 0.3227 0.90132 0.73854 0.0
H387 H 0.33487 0.91339 0.7841 0.0
H388 H 0.41009 0.8915 0.7685 0.0
H389 H 0.39764 0.87794 0.72361 0.0
H390 H 0.39561 0.87748 0.81524 0.0
H391 H 0.39504 0.95228 0.769 0.0
H392 H 0.37665 0.98293 0.74214 0.0
H393 H 0.31937 0.99182 0.8019 0.0
H394 H 0.33725 0.96098 0.82897 0.0
H395 H 0.47175 0.95073 0.90565 0.0
H396 H 0.44976 0.93221 0.86666 0.0
H397 H 0.37785 0.94335 0.90409 0.0
H398 H 0.39989 0.9616 0.94361 0.0
H399 H 0.38491 0.96091 0.85022 0.0
H400 H 0.39138 0.8888 0.89897 0.0
H401 H 0.41339 0.86007 0.92517 0.0
H402 H 0.4636 0.84807 0.85932 0.0
H403 H 0.44214 0.87702 0.83285 0.0
C404 C 0.34174 0.89877 0.74488 0.0
C405 C 0.35921 0.88875 0.72727 0.0
C406 C 0.34876 0.90595 0.77088 0.0
C407 C 0.3735 0.90366 0.77965 0.0
C408 C 0.39089 0.8935 0.7622 0.0
C409 C 0.38383 0.88605 0.73636 0.0
C410 C 0.38152 0.91192 0.80691 0.0
C411 C 0.39337 0.89578 0.82279 0.0
C412 C 0.37808 0.93561 0.81711 0.0
C413 C 0.36728 0.95411 0.80084 0.0
C414 C 0.37839 0.96062 0.7763 0.0
C415 C 0.36809 0.97806 0.76106 0.0
C416 C 0.3468 0.98926 0.77026 0.0
C417 C 0.33582 0.98309 0.79477 0.0
C418 C 0.34603 0.96565 0.81007 0.0
C419 C 0.45125 0.94897 0.9057 0.0
C420 C 0.43745 0.95755 0.92755 0.0
C421 C 0.43874 0.93836 0.88348 0.0
C422 C 0.41223 0.93637 0.88261 0.0
C423 C 0.39834 0.9447 0.90451 0.0
C424 C 0.41089 0.955 0.92702 0.0
C425 C 0.39938 0.92663 0.85811 0.0
C426 C 0.38668 0.9425 0.84278 0.0
C427 C 0.40244 0.90285 0.84822 0.0
C428 C 0.41524 0.88521 0.86398 0.0
C429 C 0.40723 0.88017 0.89014 0.0
C430 C 0.41959 0.86382 0.90503 0.0
C431 C 0.43991 0.85228 0.89393 0.0
C432 C 0.44787 0.85702 0.86789 0.0
C433 C 0.43558 0.87338 0.85292 0.0
H434 H 0.44946 0.83964 0.9055 0.0
H435 H 0.33886 0.00276 0.75844 0.0
H436 H 0.58014 0.34804 0.74811 0.0
H437 H 0.55829 0.37076 0.71553 0.0
H438 H 0.62729 0.41513 0.70109 0.0
H439 H 0.64894 0.39317 0.73425 0.0
H440 H 0.58865 0.44235 0.70103 0.0
H441 H 0.60822 0.36654 0.65949 0.0
H442 H 0.6079 0.32203 0.65489 0.0
H443 H 0.52673 0.31631 0.65184 0.0
H444 H 0.52656 0.36079 0.65678 0.0
H445 H 0.55068 0.44475 0.55168 0.0
H446 H 0.56783 0.42499 0.58936 0.0
H447 H 0.52221 0.46573 0.64329 0.0
H448 H 0.50527 0.48608 0.60557 0.0
H449 H 0.54765 0.39609 0.62479 0.0
H450 H 0.55288 0.47517 0.7029 0.0
H451 H 0.55783 0.51988 0.70468 0.0
H452 H 0.59725 0.51955 0.62962 0.0
H453 H 0.59282 0.47486 0.62756 0.0
C454 C 0.59055 0.36291 0.73835 0.0
C455 C 0.6164 0.36858 0.74363 0.0
C456 C 0.57808 0.37576 0.71953 0.0
C457 C 0.59122 0.39444 0.7055 0.0
C458 C 0.61674 0.40075 0.71153 0.0
C459 C 0.62918 0.38798 0.73034 0.0
C460 C 0.57887 0.40678 0.68373 0.0
C461 C 0.57952 0.43222 0.68446 0.0
C462 C 0.56732 0.39368 0.66181 0.0
C463 C 0.56737 0.36695 0.65881 0.0
C464 C 0.5903 0.35577 0.65805 0.0
C465 C 0.59021 0.33055 0.65535 0.0
C466 C 0.56731 0.31635 0.65316 0.0
C467 C 0.54445 0.32733 0.6536 0.0
C468 C 0.54443 0.35254 0.65633 0.0
C469 C 0.54424 0.44961 0.57152 0.0
C470 C 0.52659 0.46712 0.57551 0.0
C471 C 0.55405 0.43818 0.59311 0.0
C472 C 0.54649 0.44392 0.61927 0.0
C473 C 0.52867 0.46122 0.62336 0.0
C474 C 0.51894 0.47282 0.60173 0.0
C475 C 0.5574 0.43169 0.64205 0.0
C476 C 0.55646 0.40625 0.64152 0.0
C477 C 0.56924 0.44483 0.6638 0.0
C478 C 0.57224 0.47169 0.66495 0.0
C479 C 0.56266 0.48465 0.68682 0.0
C480 C 0.56537 0.50998 0.68787 0.0
C481 C 0.57776 0.52255 0.66723 0.0
C482 C 0.58756 0.5098 0.64554 0.0
C483 C 0.58493 0.48447 0.6444 0.0
H484 H 0.57982 0.54216 0.66807 0.0
H485 H 0.56727 0.29683 0.65106 0.0
H486 H 0.88392 0.65406 0.21459 0.0
H487 H 0.90726 0.6311 0.18135 0.0
H488 H 0.85441 0.56875 0.19149 0.0
H489 H 0.83109 0.59156 0.22487 0.0
H490 H 0.90439 0.55737 0.19118 0.0
H491 H 0.85008 0.60229 0.1386 0.0
H492 H 0.83178 0.63881 0.1229 0.0
H493 H 0.90535 0.66766 0.09761 0.0
H494 H 0.92418 0.63147 0.1136 0.0
H495 H 0.9385 0.48554 0.08013 0.0
H496 H 0.91477 0.50958 0.11186 0.0
H497 H 0.96331 0.57332 0.09394 0.0
H498 H 0.98669 0.54941 0.06162 0.0
H499 H 0.91606 0.58465 0.09843 0.0
H500 H 0.97095 0.54125 0.15102 0.0
H501 H 0.99044 0.50535 0.16674 0.0
H502 H 0.91772 0.47478 0.19259 0.0
H503 H 0.89773 0.51036 0.17667 0.0
C504 C 0.8774 0.63539 0.20988 0.0
C505 C 0.85565 0.62461 0.22231 0.0
C506 C 0.89063 0.62237 0.19075 0.0
C507 C 0.88242 0.5983 0.18378 0.0
C508 C 0.861 0.58734 0.19651 0.0
C509 C 0.84763 0.60042 0.21546 0.0
C510 C 0.89626 0.58443 0.16335 0.0
C511 C 0.90668 0.56316 0.17081 0.0
C512 C 0.89986 0.5924 0.13699 0.0
C513 C 0.88859 0.61428 0.12759 0.0
C514 C 0.86241 0.61653 0.12997 0.0
C515 C 0.85193 0.63716 0.12096 0.0
C516 C 0.8674 0.65558 0.10933 0.0
C517 C 0.89339 0.6534 0.10667 0.0
C518 C 0.90398 0.63283 0.1157 0.0
C519 C 0.94403 0.5047 0.0829 0.0
C520 C 0.96454 0.51559 0.06861 0.0
C521 C 0.93055 0.51841 0.10113 0.0
C522 C 0.93755 0.54319 0.10571 0.0
C523 C 0.95762 0.55423 0.09086 0.0
C524 C 0.971 0.54055 0.07245 0.0
C525 C 0.92414 0.55748 0.12621 0.0
C526 C 0.91383 0.57886 0.11881 0.0
C527 C 0.92085 0.54976 0.15272 0.0
C528 C 0.93282 0.52837 0.16242 0.0
C529 C 0.95909 0.52679 0.15988 0.0
C530 C 0.97023 0.50651 0.16885 0.0
C531 C 0.95532 0.48777 0.1806 0.0
C532 C 0.92924 0.4893 0.18345 0.0
C533 C 0.918 0.50953 0.17448 0.0
H534 H 0.96398 0.47208 0.18753 0.0
H535 H 0.85925 0.67151 0.10232 0.0
H536 H 0.33016 0.18832 0.15131 0.0
H537 H 0.35546 0.1616 0.12453 0.0
H538 H 0.29054 0.11007 0.1151 0.0
H539 H 0.26528 0.13636 0.14285 0.0
H540 H 0.3315 0.08766 0.12674 0.0
H541 H 0.31138 0.14498 0.06343 0.0
H542 H 0.30691 0.18539 0.04564 0.0
H543 H 0.38712 0.2023 0.05169 0.0
H544 H 0.39205 0.16211 0.06989 0.0
H545 H 0.4027 0.02011 0.03158 0.0
H546 H 0.36921 0.04392 0.05016 0.0
H547 H 0.42526 0.10075 0.07465 0.0
H548 H 0.45869 0.07725 0.05629 0.0
H549 H 0.38355 0.11803 0.05042 0.0
H550 H 0.40189 0.06213 0.1189 0.0
H551 H 0.40592 0.02151 0.13638 0.0
H552 H 0.3277 0.00165 0.11923 0.0
H553 H 0.32332 0.04208 0.10129 0.0
C554 C 0.32128 0.17123 0.14372 0.0
C555 C 0.29571 0.16447 0.14924 0.0
C556 C 0.33569 0.1561 0.12812 0.0
C557 C 0.32478 0.134 0.11747 0.0
C558 C 0.29928 0.12712 0.12298 0.0
C559 C 0.28484 0.14225 0.13866 0.0
C560 C 0.34039 0.11785 0.10133 0.0
C561 C 0.34247 0.09414 0.1097 0.0
C562 C 0.35488 0.12637 0.07925 0.0
C563 C 0.35205 0.15056 0.06821 0.0
C564 C 0.32805 0.15737 0.06115 0.0
C565 C 0.32543 0.18023 0.05097 0.0
C566 C 0.34671 0.19642 0.04758 0.0
C567 C 0.37065 0.18975 0.05433 0.0
C568 C 0.37337 0.16691 0.06455 0.0
C569 C 0.40786 0.03772 0.04081 0.0
C570 C 0.43336 0.04672 0.0426 0.0
C571 C 0.38872 0.05126 0.05144 0.0
C572 C 0.39483 0.07402 0.06385 0.0
C573 C 0.42018 0.08323 0.06511 0.0
C574 C 0.43927 0.06968 0.05474 0.0
C575 C 0.37505 0.08818 0.07627 0.0
C576 C 0.37221 0.11148 0.06718 0.0
C577 C 0.35976 0.07924 0.09755 0.0
C578 C 0.36236 0.055 0.10845 0.0
C579 C 0.38561 0.04903 0.11864 0.0
C580 C 0.38795 0.02605 0.12867 0.0
C581 C 0.3671 0.00898 0.12883 0.0
C582 C 0.34385 0.01487 0.11904 0.0
C583 C 0.34142 0.03781 0.10894 0.0
H584 H 0.36894 0.9912 0.13661 0.0
H585 H 0.34465 0.21411 0.03969 0.0
H586 H 0.23098 0.86853 0.54226 0.0
H587 H 0.19075 0.8836 0.52967 0.0
H588 H 0.17485 0.90077 0.61229 0.0
H589 H 0.21467 0.88449 0.62497 0.0
H590 H 0.13244 0.88616 0.58877 0.0
H591 H 0.20018 0.94443 0.5695 0.0
H592 H 0.24127 0.9601 0.55101 0.0
H593 H 0.2149 0.94194 0.47178 0.0
H594 H 0.17375 0.92581 0.48983 0.0
H595 H 0.04625 0.97517 0.55173 0.0
H596 H 0.08116 0.95478 0.57072 0.0
H597 H 0.0958 0.92172 0.49377 0.0
H598 H 0.06105 0.94183 0.47479 0.0
H599 H 0.13848 0.94669 0.5178 0.0
H600 H 0.06945 0.88746 0.54093 0.0
H601 H 0.02814 0.8765 0.56213 0.0
H602 H 0.05755 0.90275 0.63793 0.0
H603 H 0.09893 0.91398 0.61714 0.0
C604 C 0.21866 0.87521 0.5577 0.0
C605 C 0.22583 0.87557 0.5845 0.0
C606 C 0.19579 0.88394 0.55053 0.0
C607 C 0.18007 0.89394 0.56997 0.0
C608 C 0.1867 0.89327 0.59694 0.0
C609 C 0.2094 0.88403 0.60417 0.0
C610 C 0.15752 0.90619 0.56186 0.0
C611 C 0.13385 0.89958 0.57346 0.0
C612 C 0.15927 0.9239 0.54203 0.0
C613 C 0.18395 0.93371 0.53105 0.0
C614 C 0.2032 0.94363 0.54815 0.0
C615 C 0.22649 0.9526 0.53774 0.0
C616 C 0.23071 0.95196 0.51024 0.0
C617 C 0.21161 0.9424 0.49308 0.0
C618 C 0.18829 0.93335 0.50338 0.0
C619 C 0.05675 0.9633 0.53901 0.0
C620 C 0.05113 0.96018 0.51178 0.0
C621 C 0.07661 0.95166 0.54986 0.0
C622 C 0.09104 0.93682 0.53358 0.0
C623 C 0.08492 0.93318 0.50659 0.0
C624 C 0.06504 0.94463 0.49582 0.0
C625 C 0.11348 0.92609 0.54408 0.0
C626 C 0.13717 0.93322 0.53307 0.0
C627 C 0.11178 0.90939 0.56483 0.0
C628 C 0.08721 0.9017 0.57746 0.0
C629 C 0.06706 0.89092 0.56211 0.0
C630 C 0.04363 0.88464 0.57406 0.0
C631 C 0.04017 0.88895 0.60136 0.0
C632 C 0.0602 0.89937 0.6168 0.0
C633 C 0.08367 0.90565 0.60496 0.0
H634 H 0.02198 0.8842 0.61052 0.0
H635 H 0.24876 0.95893 0.50222 0.0
H636 H 0.77813 0.33327 0.88327 0.0
H637 H 0.81457 0.35455 0.9053 0.0
H638 H 0.77592 0.4203 0.90916 0.0
H639 H 0.73921 0.39902 0.88705 0.0
H640 H 0.82383 0.42938 0.89298 0.0
H641 H 0.78273 0.38721 0.96486 0.0
H642 H 0.76275 0.35197 0.988 0.0
H643 H 0.83211 0.31689 0.98218 0.0
H644 H 0.85241 0.35179 0.95865 0.0
H645 H 0.9135 0.49279 0.97867 0.0
H646 H 0.87449 0.47291 0.96036 0.0
H647 H 0.90865 0.40467 0.95616 0.0
H648 H 0.94759 0.42434 0.97526 0.0
H649 H 0.86165 0.39809 0.97371 0.0
H650 H 0.90205 0.44012 0.90003 0.0
H651 H 0.92185 0.47596 0.87778 0.0
H652 H 0.85336 0.51193 0.88786 0.0
H653 H 0.83322 0.47637 0.91043 0.0
C654 C 0.77716 0.35216 0.88916 0.0
C655 C 0.75561 0.36437 0.88357 0.0
C656 C 0.79809 0.36434 0.90172 0.0
C657 C 0.79791 0.38898 0.90923 0.0
C658 C 0.7765 0.40129 0.90357 0.0
C659 C 0.75554 0.38911 0.89091 0.0
C660 C 0.82032 0.4019 0.92248 0.0
C661 C 0.83186 0.42274 0.91087 0.0
C662 C 0.83114 0.39303 0.94555 0.0
C663 C 0.81902 0.37204 0.95978 0.0
C664 C 0.79367 0.37191 0.96833 0.0
C665 C 0.78229 0.352 0.98155 0.0
C666 C 0.79614 0.33218 0.9865 0.0
C667 C 0.8214 0.33225 0.9783 0.0
C668 C 0.83286 0.3521 0.96505 0.0
C669 C 0.91276 0.47354 0.97387 0.0
C670 C 0.93377 0.46019 0.97828 0.0
C671 C 0.89042 0.4622 0.96328 0.0
C672 C 0.88872 0.43735 0.95637 0.0
C673 C 0.90951 0.42388 0.96123 0.0
C674 C 0.93179 0.43516 0.97212 0.0
C675 C 0.86533 0.4254 0.94405 0.0
C676 C 0.85358 0.40475 0.95585 0.0
C677 C 0.8543 0.43449 0.92119 0.0
C678 C 0.86621 0.45567 0.90712 0.0
C679 C 0.89125 0.45572 0.8976 0.0
C680 C 0.90253 0.47597 0.88492 0.0
C681 C 0.88889 0.49624 0.88147 0.0
C682 C 0.8639 0.49623 0.89057 0.0
C683 C 0.85253 0.47602 0.90327 0.0
H684 H 0.89767 0.51193 0.87171 0.0
H685 H 0.7873 0.31679 0.99674 0.0
H686 H 0.71722 0.65653 0.39926 0.0
H687 H 0.68441 0.63407 0.42507 0.0
H688 H 0.68511 0.5738 0.36856 0.0
H689 H 0.71774 0.59639 0.34235 0.0
H690 H 0.63694 0.58533 0.38072 0.0
H691 H 0.71092 0.5694 0.42849 0.0
H692 H 0.75126 0.57936 0.45187 0.0
H693 H 0.71348 0.6222 0.51029 0.0
H694 H 0.67295 0.61279 0.48705 0.0
H695 H 0.55324 0.51189 0.46191 0.0
H696 H 0.59115 0.52564 0.43661 0.0
H697 H 0.6009 0.58959 0.48802 0.0
H698 H 0.56349 0.57554 0.51371 0.0
H699 H 0.64562 0.57169 0.47723 0.0
H700 H 0.57251 0.59037 0.42744 0.0
H701 H 0.53198 0.58043 0.40435 0.0
H702 H 0.56813 0.53265 0.34968 0.0
H703 H 0.60878 0.54195 0.37278 0.0
C704 C 0.7104 0.63849 0.39231 0.0
C705 C 0.72007 0.62824 0.36875 0.0
C706 C 0.69178 0.6256 0.40719 0.0
C707 C 0.68244 0.60217 0.39886 0.0
C708 C 0.6921 0.59182 0.37539 0.0
C709 C 0.71087 0.60467 0.36056 0.0
C710 C 0.66206 0.58891 0.41432 0.0
C711 C 0.63898 0.58193 0.40171 0.0
C712 C 0.66458 0.58485 0.4418 0.0
C713 C 0.68892 0.59054 0.45589 0.0
C714 C 0.71124 0.5811 0.4462 0.0
C715 C 0.73414 0.58662 0.45945 0.0
C716 C 0.73494 0.60144 0.48252 0.0
C717 C 0.71283 0.61074 0.49241 0.0
C718 C 0.68988 0.60529 0.47922 0.0
C719 C 0.5638 0.52859 0.4681 0.0
C720 C 0.55558 0.54257 0.48985 0.0
C721 C 0.5853 0.53657 0.45349 0.0
C722 C 0.59874 0.55878 0.46026 0.0
C723 C 0.59088 0.57239 0.48245 0.0
C724 C 0.56945 0.5644 0.49705 0.0
C725 C 0.62038 0.56848 0.44375 0.0
C726 C 0.64368 0.57483 0.45617 0.0
C727 C 0.61802 0.57201 0.41611 0.0
C728 C 0.59364 0.56666 0.40202 0.0
C729 C 0.57178 0.57761 0.41062 0.0
C730 C 0.54879 0.5721 0.39753 0.0
C731 C 0.54749 0.55589 0.37559 0.0
C732 C 0.56917 0.54518 0.3667 0.0
C733 C 0.59219 0.55056 0.37979 0.0
H734 H 0.52971 0.5517 0.36542 0.0
H735 H 0.75269 0.60569 0.49275 0.0
H736 H 0.1842 0.27774 0.11432 0.0
H737 H 0.15723 0.30088 0.08709 0.0
H738 H 0.13746 0.34323 0.15663 0.0
H739 H 0.16501 0.32092 0.18383 0.0
H740 H 0.09548 0.32225 0.12619 0.0
H741 H 0.17654 0.36832 0.11411 0.0
H742 H 0.2215 0.37299 0.10079 0.0
H743 H 0.20206 0.34784 0.02131 0.0
H744 H 0.15698 0.3427 0.03428 0.0
H745 H 0.03836 0.42409 0.08747 0.0
H746 H 0.06463 0.39422 0.10488 0.0
H747 H 0.08553 0.37276 0.02478 0.0
H748 H 0.05978 0.4036 0.0072 0.0
H749 H 0.12571 0.3772 0.05455 0.0
H750 H 0.04479 0.33549 0.06374 0.0
H751 H 0.99958 0.32957 0.07572 0.0
H752 H 0.01762 0.34353 0.15821 0.0
H753 H 0.06292 0.34988 0.1467 0.0
C754 C 0.17453 0.2923 0.12375 0.0
C755 C 0.17668 0.29738 0.15132 0.0
C756 C 0.15901 0.30537 0.10817 0.0
C757 C 0.14532 0.32362 0.11994 0.0
C758 C 0.14774 0.32903 0.14728 0.0
C759 C 0.16341 0.31618 0.16279 0.0
C760 C 0.12784 0.33677 0.10409 0.0
C761 C 0.10202 0.33439 0.11061 0.0
C762 C 0.13637 0.3517 0.08302 0.0
C763 C 0.16344 0.35484 0.07525 0.0
C764 C 0.18188 0.36356 0.09387 0.0
C765 C 0.20738 0.36634 0.08637 0.0
C766 C 0.21465 0.36064 0.06025 0.0
C767 C 0.19641 0.35221 0.04155 0.0
C768 C 0.17089 0.34937 0.04896 0.0
C769 C 0.04833 0.41285 0.07353 0.0
C770 C 0.047 0.41602 0.04601 0.0
C771 C 0.06324 0.39565 0.0835 0.0
C772 C 0.07669 0.38088 0.06614 0.0
C773 C 0.07519 0.38386 0.03853 0.0
C774 C 0.06045 0.40137 0.02852 0.0
C775 C 0.09327 0.36336 0.07721 0.0
C776 C 0.11894 0.36478 0.06977 0.0
C777 C 0.08453 0.34723 0.09722 0.0
C778 C 0.05728 0.34328 0.10431 0.0
C779 C 0.03912 0.33745 0.08442 0.0
C780 C 0.01346 0.33399 0.09113 0.0
C781 C 0.00573 0.3362 0.1177 0.0
C782 C 0.02364 0.34182 0.13763 0.0
C783 C 0.04932 0.3453 0.13102 0.0
H784 H 0.98586 0.33354 0.12286 0.0
H785 H 0.2344 0.36281 0.05447 0.0
H786 H 0.58166 0.24289 0.88348 0.0
H787 H 0.56112 0.2092 0.90812 0.0
H788 H 0.63135 0.17461 0.90775 0.0
H789 H 0.65152 0.20776 0.88224 0.0
H790 H 0.59651 0.14241 0.89608 0.0
H791 H 0.60503 0.20308 0.96558 0.0
H792 H 0.6011 0.24299 0.98778 0.0
H793 H 0.52016 0.2326 0.98259 0.0
H794 H 0.52361 0.19274 0.96002 0.0
H795 H 0.55149 0.05203 0.98732 0.0
H796 H 0.57534 0.08894 0.97199 0.0
H797 H 0.50558 0.11782 0.94982 0.0
H798 H 0.48178 0.0809 0.96458 0.0
H799 H 0.54201 0.15262 0.97585 0.0
H800 H 0.53575 0.09232 0.90329 0.0
H801 H 0.54128 0.05192 0.88296 0.0
H802 H 0.62124 0.06181 0.89705 0.0
H803 H 0.61611 0.10216 0.91784 0.0
C804 C 0.59271 0.22818 0.88891 0.0
C805 C 0.61815 0.2279 0.88088 0.0
C806 C 0.58101 0.20895 0.90312 0.0
C807 C 0.5947 0.18934 0.91018 0.0
C808 C 0.62027 0.18937 0.90254 0.0
C809 C 0.63182 0.20835 0.88796 0.0
C810 C 0.58217 0.16825 0.92433 0.0
C811 C 0.58501 0.14476 0.91382 0.0
C812 C 0.56677 0.17106 0.94732 0.0
C813 C 0.5646 0.19502 0.96088 0.0
C814 C 0.5864 0.20938 0.96899 0.0
C815 C 0.58425 0.23198 0.98167 0.0
C816 C 0.5604 0.24035 0.98653 0.0
C817 C 0.53863 0.2261 0.97878 0.0
C818 C 0.54066 0.2035 0.96607 0.0
C819 C 0.54127 0.06641 0.97948 0.0
C820 C 0.51483 0.06356 0.97687 0.0
C821 C 0.55488 0.08744 0.97073 0.0
C822 C 0.54221 0.10605 0.95962 0.0
C823 C 0.51571 0.10371 0.95834 0.0
C824 C 0.50216 0.08258 0.96667 0.0
C825 C 0.5565 0.12715 0.94751 0.0
C826 C 0.55384 0.1505 0.95832 0.0
C827 C 0.5724 0.12426 0.92507 0.0
C828 C 0.57551 0.10011 0.91238 0.0
C829 C 0.55448 0.08579 0.90226 0.0
C830 C 0.55755 0.06292 0.89061 0.0
C831 C 0.58159 0.05427 0.88879 0.0
C832 C 0.60263 0.06851 0.89853 0.0
C833 C 0.59965 0.09138 0.91023 0.0
H834 H 0.58393 0.03656 0.87977 0.0
H835 H 0.55878 0.25785 0.99636 0.0
H836 H 0.85058 0.79439 0.32812 0.0
H837 H 0.87304 0.82881 0.35142 0.0
H838 H 0.8886 0.78323 0.4163 0.0
H839 H 0.8668 0.74836 0.39275 0.0
H840 H 0.87053 0.8276 0.43302 0.0
H841 H 0.93495 0.79886 0.37518 0.0
H842 H 0.9532 0.78572 0.33228 0.0
H843 H 0.94383 0.85549 0.30049 0.0
H844 H 0.92517 0.86895 0.3431 0.0
H845 H 0.95759 0.91364 0.49805 0.0
H846 H 0.93706 0.87722 0.47649 0.0
H847 H 0.92929 0.91624 0.4044 0.0
H848 H 0.95056 0.95251 0.42557 0.0
H849 H 0.94429 0.87368 0.39226 0.0
H850 H 0.87844 0.90231 0.4485 0.0
H851 H 0.85923 0.91595 0.49072 0.0
H852 H 0.8699 0.84734 0.52471 0.0
H853 H 0.88948 0.8334 0.48278 0.0
C854 C 0.85911 0.79148 0.34713 0.0
C855 C 0.85698 0.76845 0.35841 0.0
C856 C 0.87182 0.81127 0.3605 0.0
C857 C 0.88264 0.80854 0.38549 0.0
C858 C 0.88034 0.78572 0.39703 0.0
C859 C 0.86777 0.76583 0.38357 0.0
C860 C 0.89618 0.82963 0.39956 0.0
C861 C 0.8869 0.83749 0.42434 0.0
C862 C 0.91714 0.84284 0.38788 0.0
C863 C 0.92844 0.83483 0.36226 0.0
C864 C 0.93658 0.81133 0.35897 0.0
C865 C 0.94704 0.80384 0.33472 0.0
C866 C 0.94961 0.81974 0.31365 0.0
C867 C 0.94179 0.84319 0.31682 0.0
C868 C 0.9313 0.85076 0.34102 0.0
C869 C 0.9514 0.91453 0.47764 0.0
C870 C 0.95563 0.93604 0.46357 0.0
C871 C 0.93957 0.89368 0.46535 0.0
C872 C 0.93126 0.89401 0.43889 0.0
C873 C 0.93551 0.91548 0.42481 0.0
C874 C 0.94762 0.93625 0.43698 0.0
C875 C 0.91851 0.87193 0.4257 0.0
C876 C 0.92796 0.86383 0.40105 0.0
C877 C 0.89756 0.85862 0.43741 0.0
C878 C 0.88565 0.86691 0.46259 0.0
C879 C 0.87685 0.8902 0.46504 0.0
C880 C 0.86587 0.89797 0.48891 0.0
C881 C 0.86341 0.88255 0.51041 0.0
C882 C 0.87185 0.85928 0.50806 0.0
C883 C 0.88287 0.85143 0.48423 0.0
H884 H 0.85491 0.8886 0.52888 0.0
H885 H 0.95771 0.8139 0.29489 0.0
H886 H 0.37537 0.7482 0.64441 0.0
H887 H 0.39003 0.70751 0.64046 0.0
H888 H 0.34428 0.6925 0.57044 0.0
H889 H 0.32885 0.73299 0.57475 0.0
H890 H 0.34332 0.65321 0.60248 0.0
H891 H 0.4059 0.70973 0.56398 0.0
H892 H 0.43557 0.74631 0.5634 0.0
H893 H 0.47643 0.72022 0.6286 0.0
H894 H 0.44677 0.68362 0.62981 0.0
H895 H 0.41049 0.56326 0.53443 0.0
H896 H 0.38732 0.59715 0.55105 0.0
H897 H 0.4383 0.60788 0.61758 0.0
H898 H 0.46168 0.57399 0.60083 0.0
H899 H 0.43591 0.64843 0.59129 0.0
H900 H 0.373 0.59248 0.63083 0.0
H901 H 0.34267 0.55638 0.63239 0.0
H902 H 0.30362 0.58064 0.56494 0.0
H903 H 0.33345 0.61713 0.56333 0.0
C904 C 0.36799 0.73609 0.62848 0.0
C905 C 0.35103 0.74389 0.6098 0.0
C906 C 0.37656 0.71291 0.62613 0.0
C907 C 0.3685 0.69712 0.60495 0.0
C908 C 0.3508 0.70445 0.58688 0.0
C909 C 0.34219 0.72765 0.58923 0.0
C910 C 0.37962 0.67353 0.60078 0.0
C911 C 0.36355 0.65215 0.59985 0.0
C912 C 0.40606 0.67211 0.59792 0.0
C913 C 0.42395 0.69408 0.59718 0.0
C914 C 0.42109 0.71189 0.57834 0.0
C915 C 0.43792 0.73261 0.57787 0.0
C916 C 0.45783 0.73562 0.59601 0.0
C917 C 0.46098 0.71789 0.6146 0.0
C918 C 0.44417 0.69715 0.61518 0.0
C919 C 0.41634 0.57245 0.55298 0.0
C920 C 0.43783 0.56604 0.56638 0.0
C921 C 0.40301 0.59176 0.56253 0.0
C922 C 0.41094 0.60498 0.58569 0.0
C923 C 0.43179 0.59789 0.59973 0.0
C924 C 0.44512 0.57855 0.59016 0.0
C925 C 0.39965 0.62799 0.59309 0.0
C926 C 0.41572 0.64937 0.59437 0.0
C927 C 0.37326 0.62938 0.59625 0.0
C928 C 0.35553 0.60738 0.59684 0.0
C929 C 0.35797 0.59006 0.6163 0.0
C930 C 0.34078 0.56963 0.6173 0.0
C931 C 0.3213 0.56616 0.5987 0.0
C932 C 0.31876 0.58331 0.57929 0.0
C933 C 0.33568 0.60395 0.57844 0.0
H934 H 0.30816 0.55021 0.59936 0.0
H935 H 0.47085 0.75167 0.59561 0.0
H936 H 0.86629 0.91168 0.79149 0.0
H937 H 0.88489 0.92488 0.74939 0.0
H938 H 0.88232 0.85072 0.71999 0.0
H939 H 0.86275 0.83725 0.76189 0.0
H940 H 0.92968 0.87692 0.71286 0.0
H941 H 0.84271 0.88482 0.69447 0.0
H942 H 0.79971 0.89735 0.70318 0.0
H943 H 0.82843 0.97207 0.70589 0.0
H944 H 0.87169 0.95997 0.69759 0.0
H945 H 0.96947 0.91875 0.58312 0.0
H946 H 0.94892 0.89747 0.62061 0.0
H947 H 0.93325 0.96619 0.65769 0.0
H948 H 0.9529 0.9873 0.62 0.0
H949 H 0.89238 0.93723 0.65729 0.0
H950 H 0.97977 0.92934 0.68036 0.0
H951 H 0.02316 0.91686 0.67428 0.0
H952 H 0.99414 0.8426 0.66388 0.0
H953 H 0.95054 0.85467 0.66959 0.0
C954 C 0.86907 0.89814 0.77593 0.0
C955 C 0.86285 0.87337 0.78012 0.0
C956 C 0.87989 0.90574 0.75191 0.0
C957 C 0.88485 0.88877 0.73159 0.0
C958 C 0.87865 0.86406 0.73551 0.0
C959 C 0.86757 0.85642 0.7595 0.0
C960 C 0.89725 0.89708 0.70663 0.0
C961 C 0.92139 0.88976 0.70034 0.0
C962 C 0.8865 0.91408 0.69068 0.0
C963 C 0.86048 0.92146 0.6956 0.0
C964 C 0.8399 0.90391 0.69713 0.0
C965 C 0.81547 0.91094 0.70196 0.0
C966 C 0.81135 0.93549 0.70513 0.0
C967 C 0.83165 0.95306 0.70344 0.0
C968 C 0.85613 0.94613 0.69864 0.0
C969 C 0.96188 0.92923 0.59948 0.0
C970 C 0.96259 0.95461 0.5987 0.0
C971 C 0.95022 0.91709 0.6209 0.0
C972 C 0.93953 0.93023 0.642 0.0
C973 C 0.94117 0.95565 0.64156 0.0
C974 C 0.95249 0.96771 0.62008 0.0
C975 C 0.92534 0.91779 0.66392 0.0
C976 C 0.90069 0.92422 0.66957 0.0
C977 C 0.93572 0.90007 0.67931 0.0
C978 C 0.96188 0.89294 0.67512 0.0
C979 C 0.98262 0.91038 0.67649 0.0
C980 C 0.00726 0.90337 0.6732 0.0
C981 C 0.0114 0.87895 0.66874 0.0
C982 C 0.99091 0.8615 0.66738 0.0
C983 C 0.96624 0.86841 0.67064 0.0
H984 H 0.03048 0.87352 0.66635 0.0
H985 H 0.79242 0.94089 0.70886 0.0
H986 H 0.65772 0.18724 0.24434 0.0
H987 H 0.6306 0.16457 0.21186 0.0
H988 H 0.69146 0.12011 0.19059 0.0
H989 H 0.71923 0.14368 0.22195 0.0
H990 H 0.6693 0.13198 0.14749 0.0
H991 H 0.64028 0.09933 0.23008 0.0
H992 H 0.62454 0.09993 0.27642 0.0
H993 H 0.55836 0.13316 0.252 0.0
H994 H 0.57388 0.13307 0.20554 0.0
H995 H 0.59112 0.03564 0.08405 0.0
H996 H 0.61915 0.05958 0.11516 0.0
H997 H 0.56526 0.11395 0.12188 0.0
H998 H 0.53734 0.09029 0.09033 0.0
H999 H 0.58361 0.09669 0.17195 0.0
H1000 H 0.6142 0.12819 0.08829 0.0
H1001 H 0.63041 0.12489 0.04226 0.0
H1002 H 0.69456 0.09024 0.06977 0.0
H1003 H 0.67852 0.093 0.11596 0.0
C1004 C 0.66548 0.17282 0.23258 0.0
C1005 C 0.69073 0.16734 0.23579 0.0
C1006 C 0.6498 0.15964 0.21423 0.0
C1007 C 0.65885 0.14038 0.19902 0.0
C1008 C 0.68402 0.13483 0.20217 0.0
C1009 C 0.69981 0.14817 0.22034 0.0
C1010 C 0.64221 0.12639 0.17944 0.0
C1011 C 0.65071 0.12399 0.15298 0.0
C1012 C 0.61775 0.11627 0.18642 0.0
C1013 C 0.60838 0.11642 0.21436 0.0
C1014 C 0.62247 0.10695 0.23462 0.0
C1015 C 0.61357 0.10717 0.2609 0.0
C1016 C 0.5905 0.11664 0.26716 0.0
C1017 C 0.57625 0.12587 0.24713 0.0
C1018 C 0.58508 0.12572 0.22081 0.0
C1019 C 0.58538 0.05279 0.09202 0.0
C1020 C 0.56215 0.06119 0.08484 0.0
C1021 C 0.60137 0.06642 0.10972 0.0
C1022 C 0.59422 0.08849 0.12073 0.0
C1023 C 0.57104 0.09694 0.11355 0.0
C1024 C 0.55522 0.0835 0.0955 0.0
C1025 C 0.61075 0.10244 0.14023 0.0
C1026 C 0.60221 0.10475 0.16661 0.0
C1027 C 0.63528 0.11214 0.13328 0.0
C1028 C 0.64502 0.11058 0.10555 0.0
C1029 C 0.63165 0.11966 0.0845 0.0
C1030 C 0.64083 0.11793 0.05839 0.0
C1031 C 0.66347 0.1073 0.05308 0.0
C1032 C 0.67701 0.09844 0.0739 0.0
C1033 C 0.66789 0.1001 0.10006 0.0
H1034 H 0.67055 0.10599 0.03285 0.0
H1035 H 0.58363 0.11678 0.28752 0.0
H1036 H 0.38277 0.64218 0.27427 0.0
H1037 H 0.39728 0.62577 0.31567 0.0
H1038 H 0.44785 0.5824 0.27068 0.0
H1039 H 0.43359 0.59876 0.22939 0.0
H1040 H 0.42222 0.55566 0.30629 0.0
H1041 H 0.4696 0.63326 0.30743 0.0
H1042 H 0.47556 0.67782 0.30613 0.0
H1043 H 0.42938 0.68414 0.37632 0.0
H1044 H 0.42285 0.63959 0.37783 0.0
H1045 H 0.49752 0.51746 0.40972 0.0
H1046 H 0.48308 0.53725 0.3706 0.0
H1047 H 0.43227 0.57672 0.41981 0.0
H1048 H 0.44663 0.55701 0.45924 0.0
H1049 H 0.45649 0.60583 0.38323 0.0
H1050 H 0.40974 0.52816 0.3824 0.0
H1051 H 0.40419 0.48359 0.38383 0.0
H1052 H 0.44941 0.4775 0.31291 0.0
H1053 H 0.45553 0.52206 0.31126 0.0
C1054 C 0.39723 0.6294 0.27322 0.0
C1055 C 0.40689 0.62171 0.24843 0.0
C1056 C 0.4055 0.61999 0.29693 0.0
C1057 C 0.42375 0.60286 0.29637 0.0
C1058 C 0.43365 0.59545 0.27168 0.0
C1059 C 0.42539 0.60479 0.24804 0.0
C1060 C 0.43207 0.59202 0.32131 0.0
C1061 C 0.43 0.56667 0.32296 0.0
C1062 C 0.44161 0.60631 0.34343 0.0
C1063 C 0.44551 0.63309 0.34256 0.0
C1064 C 0.46053 0.64416 0.32245 0.0
C1065 C 0.46405 0.66941 0.32171 0.0
C1066 C 0.45279 0.68381 0.34108 0.0
C1067 C 0.43805 0.67297 0.3613 0.0
C1068 C 0.43445 0.64772 0.36212 0.0
C1069 C 0.48324 0.53031 0.41234 0.0
C1070 C 0.47308 0.53541 0.43772 0.0
C1071 C 0.475 0.54163 0.38987 0.0
C1072 C 0.45637 0.55829 0.39217 0.0
C1073 C 0.44662 0.56389 0.41751 0.0
C1074 C 0.4548 0.55251 0.44004 0.0
C1075 C 0.44686 0.56951 0.36802 0.0
C1076 C 0.44865 0.59488 0.36655 0.0
C1077 C 0.43706 0.55526 0.34602 0.0
C1078 C 0.43327 0.52845 0.34684 0.0
C1079 C 0.41865 0.51732 0.36721 0.0
C1080 C 0.41538 0.49206 0.36805 0.0
C1081 C 0.42649 0.47772 0.34851 0.0
C1082 C 0.44084 0.48863 0.32805 0.0
C1083 C 0.44419 0.51389 0.32714 0.0
H1084 H 0.42393 0.45817 0.34919 0.0
H1085 H 0.45555 0.70336 0.34048 0.0
H1086 H 0.10989 0.3413 0.79397 0.0
H1087 H 0.08997 0.36398 0.82992 0.0
H1088 H 0.12361 0.43099 0.79923 0.0
H1089 H 0.14423 0.40839 0.76371 0.0
H1090 H 0.12963 0.42983 0.85195 0.0
H1091 H 0.06054 0.41405 0.79128 0.0
H1092 H 0.03075 0.38883 0.76266 0.0
H1093 H 0.00319 0.34927 0.8305 0.0
H1094 H 0.03307 0.37404 0.85949 0.0
H1095 H 0.05847 0.51192 0.92678 0.0
H1096 H 0.07844 0.48806 0.89189 0.0
H1097 H 0.04161 0.42246 0.92289 0.0
H1098 H 0.02095 0.44642 0.95738 0.0
H1099 H 0.03737 0.42202 0.87066 0.0
H1100 H 0.10607 0.43901 0.93165 0.0
H1101 H 0.13632 0.46424 0.95973 0.0
H1102 H 0.16493 0.50175 0.89091 0.0
H1103 H 0.13456 0.47704 0.86247 0.0
C1104 C 0.1131 0.36087 0.79489 0.0
C1105 C 0.12868 0.37302 0.77593 0.0
C1106 C 0.10151 0.37383 0.81533 0.0
C1107 C 0.10512 0.39923 0.81718 0.0
C1108 C 0.1205 0.41142 0.79818 0.0
C1109 C 0.13209 0.39847 0.77773 0.0
C1110 C 0.09352 0.41306 0.83937 0.0
C1111 C 0.10941 0.42838 0.85584 0.0
C1112 C 0.06723 0.41065 0.8449 0.0
C1113 C 0.04923 0.39574 0.82751 0.0
C1114 C 0.04828 0.39984 0.80006 0.0
C1115 C 0.03135 0.38565 0.78378 0.0
C1116 C 0.01514 0.36742 0.79474 0.0
C1117 C 0.01578 0.36337 0.82203 0.0
C1118 C 0.0327 0.37749 0.8384 0.0
C1119 C 0.05476 0.4924 0.92626 0.0
C1120 C 0.03821 0.48101 0.94482 0.0
C1121 C 0.06629 0.47874 0.90638 0.0
C1122 C 0.0618 0.45339 0.9049 0.0
C1123 C 0.04542 0.44198 0.92363 0.0
C1124 C 0.03373 0.45566 0.94342 0.0
C1125 C 0.07348 0.43891 0.88325 0.0
C1126 C 0.05761 0.42344 0.86686 0.0
C1127 C 0.09981 0.44121 0.87777 0.0
C1128 C 0.11789 0.45628 0.89495 0.0
C1129 C 0.11865 0.45279 0.92254 0.0
C1130 C 0.13585 0.46698 0.93852 0.0
C1131 C 0.15254 0.48459 0.9271 0.0
C1132 C 0.152 0.4881 0.89971 0.0
C1133 C 0.1348 0.474 0.88366 0.0
H1134 H 0.16596 0.49547 0.93942 0.0
H1135 H 0.00204 0.35646 0.7821 0.0
H1136 H 0.70364 0.83963 0.90407 0.0
H1137 H 0.66192 0.85225 0.91754 0.0
H1138 H 0.69771 0.90993 0.96699 0.0
H1139 H 0.73919 0.89785 0.95336 0.0
H1140 H 0.65833 0.88522 0.99265 0.0
H1141 H 0.67555 0.92102 0.90638 0.0
H1142 H 0.68472 0.91944 0.85815 0.0
H1143 H 0.61624 0.87416 0.84464 0.0
H1144 H 0.60684 0.87523 0.89287 0.0
H1145 H 0.58065 0.97995 0.01199 0.0
H1146 H 0.61292 0.9528 0.99916 0.0
H1147 H 0.5574 0.90632 0.95582 0.0
H1148 H 0.52476 0.93359 0.96844 0.0
H1149 H 0.60072 0.91617 0.9267 0.0
H1150 H 0.57996 0.88608 0.01228 0.0
H1151 H 0.57078 0.88776 0.06052 0.0
H1152 H 0.64498 0.92194 0.07547 0.0
H1153 H 0.65465 0.92053 0.02736 0.0
C1154 C 0.70259 0.85507 0.9177 0.0
C1155 C 0.72477 0.86767 0.92772 0.0
C1156 C 0.67877 0.86218 0.92545 0.0
C1157 C 0.67677 0.88201 0.94327 0.0
C1158 C 0.69884 0.89443 0.95343 0.0
C1159 C 0.72256 0.88743 0.94567 0.0
C1160 C 0.65188 0.89053 0.95107 0.0
C1161 C 0.64571 0.89201 0.97826 0.0
C1162 C 0.63501 0.89855 0.93218 0.0
C1163 C 0.64067 0.89793 0.90323 0.0
C1164 C 0.66257 0.91055 0.89314 0.0
C1165 C 0.66779 0.90978 0.86581 0.0
C1166 C 0.65112 0.89663 0.84835 0.0
C1167 C 0.62916 0.88429 0.85819 0.0
C1168 C 0.62388 0.88497 0.88551 0.0
C1169 C 0.57517 0.96393 0.99983 0.0
C1170 C 0.5501 0.95903 0.99117 0.0
C1171 C 0.59364 0.94832 0.99265 0.0
C1172 C 0.58748 0.9274 0.97681 0.0
C1173 C 0.5625 0.92234 0.96814 0.0
C1174 C 0.54391 0.93796 0.97538 0.0
C1175 C 0.60767 0.91171 0.96838 0.0
C1176 C 0.61296 0.90884 0.94109 0.0
C1177 C 0.62372 0.90234 0.98717 0.0
C1178 C 0.61799 0.90328 0.01617 0.0
C1179 C 0.59427 0.89409 0.02583 0.0
C1180 C 0.58899 0.89497 0.05315 0.0
C1181 C 0.60724 0.90503 0.07101 0.0
C1182 C 0.63086 0.91415 0.06161 0.0
C1183 C 0.63629 0.91324 0.03432 0.0
H1184 H 0.60309 0.90572 0.09215 0.0
H1185 H 0.65518 0.89607 0.8272 0.0
H1186 H 0.79936 0.13213 0.37179 0.0
H1187 H 0.82539 0.10632 0.39676 0.0
H1188 H 0.87352 0.16917 0.42204 0.0
H1189 H 0.84767 0.19504 0.39686 0.0
H1190 H 0.90142 0.13397 0.40717 0.0
H1191 H 0.83004 0.1413 0.4647 0.0
H1192 H 0.78484 0.13967 0.47714 0.0
H1193 H 0.77711 0.0634 0.45757 0.0
H1194 H 0.8222 0.06464 0.44466 0.0
H1195 H 0.93043 0.05697 0.52791 0.0
H1196 H 0.90518 0.08534 0.50561 0.0
H1197 H 0.92535 0.05422 0.42925 0.0
H1198 H 0.95023 0.02535 0.45155 0.0
H1199 H 0.86412 0.07585 0.47255 0.0
H1200 H 0.93308 0.10542 0.38607 0.0
H1201 H 0.97894 0.11098 0.37725 0.0
H1202 H 0.99323 0.11824 0.4612 0.0
H1203 H 0.94745 0.11388 0.47052 0.0
C1204 C 0.81533 0.14047 0.3829 0.0
C1205 C 0.82143 0.16562 0.38243 0.0
C1206 C 0.83021 0.1257 0.39715 0.0
C1207 C 0.85129 0.13583 0.41149 0.0
C1208 C 0.85741 0.16095 0.41106 0.0
C1209 C 0.84263 0.1757 0.39666 0.0
C1210 C 0.86713 0.12018 0.42665 0.0
C1211 C 0.89327 0.12122 0.42143 0.0
C1212 C 0.85657 0.10393 0.44569 0.0
C1213 C 0.82945 0.10311 0.45348 0.0
C1214 C 0.81866 0.12421 0.46286 0.0
C1215 C 0.79307 0.12336 0.47002 0.0
C1216 C 0.7781 0.10146 0.46808 0.0
C1217 C 0.78872 0.08036 0.45903 0.0
C1218 C 0.8143 0.08112 0.45181 0.0
C1219 C 0.92944 0.05614 0.50637 0.0
C1220 C 0.94237 0.03908 0.49141 0.0
C1221 C 0.91499 0.07231 0.49369 0.0
C1222 C 0.91353 0.07194 0.46582 0.0
C1223 C 0.92645 0.05492 0.45079 0.0
C1224 C 0.94066 0.0385 0.46351 0.0
C1225 C 0.89825 0.08925 0.45256 0.0
C1226 C 0.87224 0.08851 0.45818 0.0
C1227 C 0.90905 0.10614 0.43435 0.0
C1228 C 0.93674 0.10893 0.42899 0.0
C1229 C 0.94598 0.10835 0.40266 0.0
C1230 C 0.97198 0.11143 0.39757 0.0
C1231 C 0.989 0.11501 0.41866 0.0
C1232 C 0.98003 0.11556 0.44488 0.0
C1233 C 0.95404 0.1128 0.45008 0.0
H1234 H 0.00913 0.1173 0.41468 0.0
H1235 H 0.75829 0.10084 0.47365 0.0
H1236 H 0.24793 0.65807 0.10161 0.0
H1237 H 0.20704 0.64017 0.08543 0.0
H1238 H 0.22419 0.57064 0.11375 0.0
H1239 H 0.26537 0.58816 0.12912 0.0
H1240 H 0.20621 0.56611 0.06446 0.0
H1241 H 0.18142 0.60525 0.14629 0.0
H1242 H 0.17849 0.63947 0.17853 0.0
H1243 H 0.13969 0.6782 0.12083 0.0
H1244 H 0.14269 0.64433 0.0881 0.0
H1245 H 0.08592 0.50299 0.05176 0.0
H1246 H 0.12522 0.523 0.06914 0.0
H1247 H 0.10383 0.59156 0.04187 0.0
H1248 H 0.06395 0.57173 0.02512 0.0
H1249 H 0.12395 0.59765 0.08963 0.0
H1250 H 0.14788 0.55784 0.00807 0.0
H1251 H 0.15032 0.52325 0.97628 0.0
H1252 H 0.19109 0.48573 0.03346 0.0
H1253 H 0.18843 0.51991 0.06581 0.0
C1254 C 0.24302 0.63896 0.10438 0.0
C1255 C 0.25999 0.6246 0.11675 0.0
C1256 C 0.21951 0.62879 0.09532 0.0
C1257 C 0.21239 0.60407 0.09854 0.0
C1258 C 0.2292 0.58976 0.11108 0.0
C1259 C 0.25267 0.59989 0.12012 0.0
C1260 C 0.18786 0.59285 0.08809 0.0
C1261 C 0.1882 0.57283 0.07024 0.0
C1262 C 0.16437 0.60199 0.095 0.0
C1263 C 0.16252 0.62236 0.11466 0.0
C1264 C 0.17245 0.62115 0.1404 0.0
C1265 C 0.17074 0.64047 0.15878 0.0
C1266 C 0.15898 0.66103 0.15171 0.0
C1267 C 0.14884 0.66228 0.12626 0.0
C1268 C 0.15052 0.64302 0.1078 0.0
C1269 C 0.08954 0.52233 0.04937 0.0
C1270 C 0.0718 0.53572 0.03685 0.0
C1271 C 0.11212 0.53376 0.05927 0.0
C1272 C 0.11779 0.55876 0.05643 0.0
C1273 C 0.09997 0.57225 0.04425 0.0
C1274 C 0.07719 0.56086 0.0346 0.0
C1275 C 0.14229 0.57076 0.06616 0.0
C1276 C 0.14196 0.59096 0.0838 0.0
C1277 C 0.16583 0.5618 0.05904 0.0
C1278 C 0.16777 0.54137 0.03945 0.0
C1279 C 0.15722 0.54215 0.01393 0.0
C1280 C 0.15866 0.52261 0.9958 0.0
C1281 C 0.17084 0.50228 0.00285 0.0
C1282 C 0.18164 0.50148 0.02803 0.0
C1283 C 0.18018 0.52093 0.04627 0.0
H1284 H 0.17197 0.48716 0.98882 0.0
H1285 H 0.15767 0.67596 0.16597 0.0
H1286 H 0.23917 0.38321 0.58797 0.0
H1287 H 0.27284 0.40453 0.56211 0.0
H1288 H 0.31851 0.41508 0.63269 0.0
H1289 H 0.2854 0.39331 0.65851 0.0
H1290 H 0.32038 0.4562 0.60193 0.0
H1291 H 0.32859 0.36985 0.59008 0.0
H1292 H 0.31323 0.32786 0.57756 0.0
H1293 H 0.29904 0.34939 0.49806 0.0
H1294 H 0.314 0.3916 0.51025 0.0
H1295 H 0.44559 0.47626 0.55668 0.0
H1296 H 0.40525 0.46262 0.57683 0.0
H1297 H 0.37451 0.44419 0.49885 0.0
H1298 H 0.41568 0.45652 0.47868 0.0
H1299 H 0.36112 0.40969 0.52956 0.0
H1300 H 0.35509 0.49547 0.53963 0.0
H1301 H 0.37198 0.53718 0.55118 0.0
H1302 H 0.3822 0.51751 0.63212 0.0
H1303 H 0.36505 0.47568 0.62111 0.0
C1304 C 0.25638 0.39002 0.59802 0.0
C1305 C 0.25953 0.38638 0.62537 0.0
C1306 C 0.27555 0.40233 0.58322 0.0
C1307 C 0.29824 0.41126 0.59546 0.0
C1308 C 0.30109 0.40845 0.62288 0.0
C1309 C 0.28204 0.39605 0.63764 0.0
C1310 C 0.31966 0.42231 0.57958 0.0
C1311 C 0.32934 0.44605 0.58613 0.0
C1312 C 0.33095 0.4093 0.55852 0.0
C1313 C 0.32212 0.38391 0.55116 0.0
C1314 C 0.322 0.36566 0.57 0.0
C1315 C 0.3134 0.34182 0.56295 0.0
C1316 C 0.30509 0.33598 0.53706 0.0
C1317 C 0.30544 0.35395 0.51813 0.0
C1318 C 0.31398 0.37783 0.52509 0.0
C1319 C 0.43016 0.46953 0.5438 0.0
C1320 C 0.43372 0.46744 0.51612 0.0
C1321 C 0.40695 0.46192 0.55534 0.0
C1322 C 0.38649 0.45281 0.5394 0.0
C1323 C 0.38991 0.45121 0.51161 0.0
C1324 C 0.41338 0.45833 0.50008 0.0
C1325 C 0.36215 0.44363 0.55198 0.0
C1326 C 0.35191 0.42015 0.54492 0.0
C1327 C 0.35019 0.45699 0.57238 0.0
C1328 C 0.35901 0.48243 0.57949 0.0
C1329 C 0.36091 0.50006 0.5599 0.0
C1330 C 0.37058 0.52371 0.56634 0.0
C1331 C 0.37856 0.52988 0.59227 0.0
C1332 C 0.37621 0.51262 0.61199 0.0
C1333 C 0.36634 0.48899 0.60571 0.0
H1334 H 0.38642 0.54808 0.59715 0.0
H1335 H 0.29844 0.31751 0.53164 0.0
H1336 H 0.8275 0.73735 0.94535 0.0
H1337 H 0.84156 0.69801 0.95762 0.0
H1338 H 0.90353 0.7066 0.90158 0.0
H1339 H 0.88957 0.74579 0.88925 0.0
H1340 H 0.87976 0.65903 0.90183 0.0
H1341 H 0.91313 0.72281 0.96409 0.0
H1342 H 0.90915 0.75589 0.99755 0.0
H1343 H 0.86498 0.70728 0.04783 0.0
H1344 H 0.86833 0.674 0.0144 0.0
H1345 H 0.9769 0.59032 0.94325 0.0
H1346 H 0.95059 0.6224 0.9306 0.0
H1347 H 0.90174 0.60757 0.99833 0.0
H1348 H 0.92832 0.57572 0.01132 0.0
H1349 H 0.91191 0.65478 0.9939 0.0
H1350 H 0.88219 0.58983 0.93622 0.0
H1351 H 0.88489 0.55565 0.90391 0.0
H1352 H 0.91909 0.60397 0.8464 0.0
H1353 H 0.91696 0.63842 0.87851 0.0
C1354 C 0.84385 0.7306 0.93537 0.0
C1355 C 0.85763 0.74463 0.91657 0.0
C1356 C 0.85188 0.70823 0.94243 0.0
C1357 C 0.87367 0.69957 0.93062 0.0
C1358 C 0.88668 0.71301 0.91089 0.0
C1359 C 0.87882 0.73543 0.90404 0.0
C1360 C 0.88422 0.67748 0.94007 0.0
C1361 C 0.88688 0.65805 0.92192 0.0
C1362 C 0.89267 0.67599 0.96655 0.0
C1363 C 0.89067 0.69602 0.98659 0.0
C1364 C 0.90234 0.71924 0.98215 0.0
C1365 C 0.90023 0.73802 0.00113 0.0
C1366 C 0.88673 0.73372 0.02475 0.0
C1367 C 0.87536 0.71061 0.02948 0.0
C1368 C 0.87734 0.69179 0.01052 0.0
C1369 C 0.96058 0.59397 0.95544 0.0
C1370 C 0.95457 0.58061 0.9782 0.0
C1371 C 0.94546 0.61214 0.94811 0.0
C1372 C 0.92396 0.61706 0.96328 0.0
C1373 C 0.91816 0.60395 0.98628 0.0
C1374 C 0.93334 0.58581 0.99367 0.0
C1375 C 0.90808 0.63647 0.95547 0.0
C1376 C 0.90441 0.65544 0.97394 0.0
C1377 C 0.89837 0.63734 0.9294 0.0
C1378 C 0.89958 0.61671 0.90988 0.0
C1379 C 0.89046 0.59316 0.91675 0.0
C1380 C 0.89186 0.57373 0.89846 0.0
C1381 C 0.90219 0.57763 0.87314 0.0
C1382 C 0.9111 0.60098 0.86603 0.0
C1383 C 0.90977 0.62048 0.88426 0.0
H1384 H 0.90327 0.56256 0.85901 0.0
H1385 H 0.88515 0.74827 0.03944 0.0
H1386 H 0.40126 0.77734 0.15357 0.0
H1387 H 0.41328 0.81868 0.1398 0.0
H1388 H 0.41087 0.7941 0.05737 0.0
H1389 H 0.39974 0.75263 0.0712 0.0
H1390 H 0.44987 0.8238 0.06324 0.0
H1391 H 0.36333 0.82751 0.08813 0.0
H1392 H 0.32532 0.82239 0.11667 0.0
H1393 H 0.36072 0.87107 0.17589 0.0
H1394 H 0.3991 0.87624 0.14785 0.0
H1395 H 0.45833 0.94511 0.01664 0.0
H1396 H 0.43907 0.90449 0.02644 0.0
H1397 H 0.45537 0.91769 0.10983 0.0
H1398 H 0.47476 0.95805 0.10012 0.0
H1399 H 0.40678 0.89406 0.10008 0.0
H1400 H 0.4943 0.88858 0.07285 0.0
H1401 H 0.52952 0.89559 0.04093 0.0
H1402 H 0.48894 0.85028 0.98221 0.0
H1403 H 0.45306 0.84365 0.0135 0.0
C1404 C 0.40314 0.78082 0.13252 0.0
C1405 C 0.39952 0.76175 0.11347 0.0
C1406 C 0.40993 0.80449 0.12462 0.0
C1407 C 0.41264 0.80973 0.09745 0.0
C1408 C 0.40897 0.79064 0.07843 0.0
C1409 C 0.40258 0.76693 0.08635 0.0
C1410 C 0.41975 0.83498 0.08892 0.0
C1411 C 0.44012 0.83906 0.07102 0.0
C1412 C 0.40725 0.85511 0.09905 0.0
C1413 C 0.38419 0.85209 0.11598 0.0
C1414 C 0.36309 0.83699 0.10732 0.0
C1415 C 0.34146 0.8341 0.1234 0.0
C1416 C 0.34063 0.84635 0.14811 0.0
C1417 C 0.3614 0.86157 0.15676 0.0
C1418 C 0.38309 0.8645 0.14077 0.0
C1419 C 0.45744 0.93942 0.03707 0.0
C1420 C 0.4681 0.95461 0.05763 0.0
C1421 C 0.44652 0.91624 0.04264 0.0
C1422 C 0.44596 0.90803 0.06886 0.0
C1423 C 0.45558 0.92366 0.08949 0.0
C1424 C 0.46672 0.94666 0.08391 0.0
C1425 C 0.43689 0.88269 0.07479 0.0
C1426 C 0.41626 0.87866 0.0922 0.0
C1427 C 0.44886 0.86262 0.06386 0.0
C1428 C 0.47087 0.86581 0.04545 0.0
C1429 C 0.49281 0.88022 0.05309 0.0
C1430 C 0.5129 0.88413 0.03511 0.0
C1431 C 0.5115 0.87336 0.00958 0.0
C1432 C 0.49 0.85862 0.00199 0.0
C1433 C 0.46976 0.85482 0.01983 0.0
H1434 H 0.52708 0.87644 0.9957 0.0
H1435 H 0.32386 0.84409 0.16052 0.0
H1436 H 0.10467 0.22824 0.66793 0.0
H1437 H 0.08279 0.19176 0.64735 0.0
H1438 H 0.12968 0.20056 0.57718 0.0
H1439 H 0.1517 0.23699 0.59771 0.0
H1440 H 0.07703 0.18899 0.56658 0.0
H1441 H 0.14445 0.16104 0.6187 0.0
H1442 H 0.16881 0.15768 0.6598 0.0
H1443 H 0.10247 0.12596 0.69893 0.0
H1444 H 0.07761 0.12948 0.65815 0.0
H1445 H 0.05215 0.07393 0.50359 0.0
H1446 H 0.07229 0.11105 0.52397 0.0
H1447 H 0.03861 0.09207 0.59979 0.0
H1448 H 0.0194 0.05428 0.5797 0.0
H1449 H 0.0837 0.1097 0.60818 0.0
H1450 H 0.01585 0.13623 0.55719 0.0
H1451 H 0.98991 0.14081 0.51743 0.0
H1452 H 0.05398 0.17619 0.47773 0.0
H1453 H 0.08043 0.17147 0.51708 0.0
C1454 C 0.1101 0.22254 0.648 0.0
C1455 C 0.12993 0.2354 0.63444 0.0
C1456 C 0.0977 0.20165 0.63634 0.0
C1457 C 0.10475 0.1934 0.61082 0.0
C1458 C 0.12399 0.20663 0.5969 0.0
C1459 C 0.13662 0.22732 0.60869 0.0
C1460 C 0.09256 0.17058 0.59894 0.0
C1461 C 0.07866 0.17157 0.57545 0.0
C1462 C 0.09415 0.14802 0.611 0.0
C1463 C 0.10912 0.14576 0.63546 0.0
C1464 C 0.135 0.15354 0.63614 0.0
C1465 C 0.14891 0.15157 0.65937 0.0
C1466 C 0.13718 0.14167 0.68199 0.0
C1467 C 0.11153 0.13366 0.68141 0.0
C1468 C 0.09752 0.13562 0.65824 0.0
C1469 C 0.04908 0.07763 0.52463 0.0
C1470 C 0.03411 0.0612 0.54003 0.0
C1471 C 0.06047 0.09899 0.53624 0.0
C1472 C 0.05655 0.10476 0.56335 0.0
C1473 C 0.0419 0.08815 0.57883 0.0
C1474 C 0.03091 0.06653 0.56733 0.0
C1475 C 0.06798 0.12791 0.57561 0.0
C1476 C 0.08183 0.12703 0.59923 0.0
C1477 C 0.06602 0.15063 0.56382 0.0
C1478 C 0.05018 0.15332 0.54004 0.0
C1479 C 0.02447 0.14481 0.53991 0.0
C1480 C 0.00966 0.14746 0.51745 0.0
C1481 C 0.0203 0.15879 0.49508 0.0
C1482 C 0.04577 0.16743 0.49508 0.0
C1483 C 0.06067 0.16478 0.51746 0.0
H1484 H 0.00879 0.16095 0.47777 0.0
H1485 H 0.14798 0.14016 0.69995 0.0
H1486 H 0.65424 0.27118 0.35791 0.0
H1487 H 0.62428 0.29853 0.37655 0.0
H1488 H 0.68567 0.34249 0.41385 0.0
H1489 H 0.71568 0.31451 0.39639 0.0
H1490 H 0.64568 0.33858 0.44638 0.0
H1491 H 0.66012 0.35781 0.35432 0.0
H1492 H 0.66177 0.34885 0.30595 0.0
H1493 H 0.58246 0.32605 0.30635 0.0
H1494 H 0.58042 0.33457 0.35482 0.0
H1495 H 0.58869 0.44898 0.46586 0.0
H1496 H 0.61583 0.41784 0.4496 0.0
H1497 H 0.55048 0.37521 0.41841 0.0
H1498 H 0.5232 0.40644 0.43457 0.0
H1499 H 0.59054 0.37686 0.38337 0.0
H1500 H 0.57573 0.35981 0.47524 0.0
H1501 H 0.57416 0.36945 0.52346 0.0
H1502 H 0.65422 0.38863 0.52343 0.0
H1503 H 0.65622 0.37947 0.4751 0.0
C1504 C 0.66137 0.28637 0.37052 0.0
C1505 C 0.68745 0.2907 0.37549 0.0
C1506 C 0.64422 0.30217 0.38091 0.0
C1507 C 0.65278 0.32283 0.39616 0.0
C1508 C 0.67865 0.32675 0.40198 0.0
C1509 C 0.69581 0.31086 0.39176 0.0
C1510 C 0.63495 0.34078 0.40533 0.0
C1511 C 0.63383 0.34713 0.43257 0.0
C1512 C 0.61903 0.35154 0.38739 0.0
C1513 C 0.62018 0.3466 0.35822 0.0
C1514 C 0.64307 0.35073 0.34412 0.0
C1515 C 0.64407 0.34575 0.31668 0.0
C1516 C 0.62225 0.33683 0.3031 0.0
C1517 C 0.59936 0.33293 0.31691 0.0
C1518 C 0.59827 0.33784 0.34435 0.0
C1519 C 0.58014 0.43303 0.4554 0.0
C1520 C 0.55387 0.43002 0.45152 0.0
C1521 C 0.59563 0.41521 0.44625 0.0
C1522 C 0.58511 0.39407 0.43315 0.0
C1523 C 0.55894 0.39135 0.42858 0.0
C1524 C 0.5434 0.40916 0.43781 0.0
C1525 C 0.60148 0.37479 0.42434 0.0
C1526 C 0.60232 0.3682 0.39718 0.0
C1527 C 0.61716 0.36386 0.44235 0.0
C1528 C 0.61608 0.36916 0.47148 0.0
C1529 C 0.59298 0.36626 0.48547 0.0
C1530 C 0.59201 0.37161 0.51283 0.0
C1531 C 0.61407 0.3797 0.52649 0.0
C1532 C 0.63715 0.38239 0.51282 0.0
C1533 C 0.63821 0.3771 0.48544 0.0
H1534 H 0.61328 0.38384 0.54767 0.0
H1535 H 0.62306 0.33298 0.28186 0.0
loop_
_geom_bond_atom_site_label_1
_geom_bond_atom_site_label_2
_geom_bond_distance
_geom_bond_site_symmetry_2
_ccdc_geom_bond_type
P0 O11 1.490 . S
P0 C14 1.812 . S
P0 C20 1.803 . S
P0 C26 1.819 . S
H1 C15 0.941 . S
H2 C16 0.939 . S
H3 C18 0.940 . S
H4 C19 0.940 . S
H5 C21 0.939 . S
H6 C22 0.942 . S
H7 C24 0.940 . S
H8 C25 0.939 . S
H9 C27 0.941 . S
H10 C31 0.939 . S
O11 P0 1.490 . S
H12 C28 0.939 . S
H13 C30 0.940 . S
C14 P0 1.812 . S
C14 C15 1.389 . S
C14 C19 1.391 . S
C15 H1 0.941 . S
C15 C14 1.389 . S
C15 C16 1.397 . S
C16 H2 0.939 . S
C16 C15 1.397 . S
C16 C17 1.378 . S
C17 C16 1.378 . S
C17 C18 1.378 . S
C18 H3 0.940 . S
C18 C17 1.378 . S
C18 C19 1.396 . S
C19 H4 0.940 . S
C19 C14 1.391 . S
C19 C18 1.396 . S
C20 P0 1.803 . S
C20 C21 1.378 . S
C20 C25 1.400 . S
C21 H5 0.939 . S
C21 C20 1.378 . S
C21 C22 1.361 . S
C22 H6 0.942 . S
C22 C21 1.361 . S
C22 C23 1.369 . S
C23 C22 1.369 . S
C23 C24 1.404 . S
C24 H7 0.940 . S
C24 C23 1.404 . S
C24 C25 1.389 . S
C25 H8 0.939 . S
C25 C20 1.400 . S
C25 C24 1.389 . S
C26 P0 1.819 . S
C26 C27 1.391 . S
C26 C31 1.391 . S
C27 H9 0.941 . S
C27 C26 1.391 . S
C27 C28 1.396 . S
C28 H12 0.939 . S
C28 C27 1.396 . S
C28 C29 1.397 . S
C29 C28 1.397 . S
C29 C30 1.385 . S
C30 H13 0.940 . S
C30 C29 1.385 . S
C30 C31 1.388 . S
C31 H10 0.939 . S
C31 C26 1.391 . S
C31 C30 1.388 . S
P32 O43 1.490 . S
P32 C46 1.812 . S
P32 C52 1.803 . S
P32 C58 1.819 . S
H33 C47 0.941 . S
H34 C48 0.939 . S
H35 C50 0.940 . S
H36 C51 0.940 . S
H37 C53 0.939 . S
H38 C54 0.942 . S
H39 C56 0.940 . S
H40 C57 0.939 . S
H41 C59 0.941 . S
H42 C63 0.939 . S
O43 P32 1.490 . S
H44 C60 0.939 . S
H45 C62 0.940 . S
C46 P32 1.812 . S
C46 C47 1.389 . S
C46 C51 1.391 . S
C47 H33 0.941 . S
C47 C46 1.389 . S
C47 C48 1.397 . S
C48 H34 0.939 . S
C48 C47 1.397 . S
C48 C49 1.378 . S
C49 C48 1.378 . S
C49 C50 1.378 . S
C50 H35 0.940 . S
C50 C49 1.378 . S
C50 C51 1.396 . S
C51 H36 0.940 . S
C51 C46 1.391 . S
C51 C50 1.396 . S
C52 P32 1.803 . S
C52 C53 1.378 . S
C52 C57 1.400 . S
C53 H37 0.939 . S
C53 C52 1.378 . S
C53 C54 1.361 . S
C54 H38 0.942 . S
C54 C53 1.361 . S
C54 C55 1.369 . S
C55 C54 1.369 . S
C55 C56 1.404 . S
C56 H39 0.940 . S
C56 C55 1.404 . S
C56 C57 1.389 . S
C57 H40 0.939 . S
C57 C52 1.400 . S
C57 C56 1.389 . S
C58 P32 1.819 . S
C58 C59 1.391 . S
C58 C63 1.391 . S
C59 H41 0.941 . S
C59 C58 1.391 . S
C59 C60 1.396 . S
C60 H44 0.939 . S
C60 C59 1.396 . S
C60 C61 1.397 . S
C61 C60 1.397 . S
C61 C62 1.385 . S
C62 H45 0.940 . S
C62 C61 1.385 . S
C62 C63 1.388 . S
C63 H42 0.939 . S
C63 C58 1.391 . S
C63 C62 1.388 . S
P64 O75 1.490 . S
P64 C78 1.812 . S
P64 C84 1.803 . S
P64 C90 1.819 . S
H65 C79 0.941 . S
H66 C80 0.939 . S
H67 C82 0.940 . S
H68 C83 0.940 . S
H69 C85 0.939 . S
H70 C86 0.942 . S
H71 C88 0.940 . S
H72 C89 0.939 . S
H73 C91 0.941 . S
H74 C95 0.939 . S
O75 P64 1.490 . S
H76 C92 0.939 . S
H77 C94 0.940 . S
C78 P64 1.812 . S
C78 C79 1.389 . S
C78 C83 1.391 . S
C79 H65 0.941 . S
C79 C78 1.389 . S
C79 C80 1.397 . S
C80 H66 0.939 . S
C80 C79 1.397 . S
C80 C81 1.378 . S
C81 C80 1.378 . S
C81 C82 1.378 . S
C82 H67 0.940 . S
C82 C81 1.378 . S
C82 C83 1.396 . S
C83 H68 0.940 . S
C83 C78 1.391 . S
C83 C82 1.396 . S
C84 P64 1.803 . S
C84 C85 1.378 . S
C84 C89 1.400 . S
C85 H69 0.939 . S
C85 C84 1.378 . S
C85 C86 1.361 . S
C86 H70 0.942 . S
C86 C85 1.361 . S
C86 C87 1.369 . S
C87 C86 1.369 . S
C87 C88 1.404 . S
C88 H71 0.940 . S
C88 C87 1.404 . S
C88 C89 1.389 . S
C89 H72 0.939 . S
C89 C84 1.400 . S
C89 C88 1.389 . S
C90 P64 1.819 . S
C90 C91 1.391 . S
C90 C95 1.391 . S
C91 H73 0.941 . S
C91 C90 1.391 . S
C91 C92 1.396 . S
C92 H76 0.939 . S
C92 C91 1.396 . S
C92 C93 1.397 . S
C93 C92 1.397 . S
C93 C94 1.385 . S
C94 H77 0.940 . S
C94 C93 1.385 . S
C94 C95 1.388 . S
C95 H74 0.939 . S
C95 C90 1.391 . S
C95 C94 1.388 . S
P96 O107 1.490 . S
P96 C110 1.812 . S
P96 C116 1.803 . S
P96 C122 1.819 . S
H97 C111 0.941 . S
H98 C112 0.939 . S
H99 C114 0.940 . S
H100 C115 0.940 . S
H101 C117 0.939 . S
H102 C118 0.942 . S
H103 C120 0.940 . S
H104 C121 0.939 . S
H105 C123 0.941 . S
H106 C127 0.939 . S
O107 P96 1.490 . S
H108 C124 0.939 . S
H109 C126 0.940 . S
C110 P96 1.812 . S
C110 C111 1.389 . S
C110 C115 1.391 . S
C111 H97 0.941 . S
C111 C110 1.389 . S
C111 C112 1.397 . S
C112 H98 0.939 . S
C112 C111 1.397 . S
C112 C113 1.378 . S
C113 C112 1.378 . S
C113 C114 1.378 . S
C114 H99 0.940 . S
C114 C113 1.378 . S
C114 C115 1.396 . S
C115 H100 0.940 . S
C115 C110 1.391 . S
C115 C114 1.396 . S
C116 P96 1.803 . S
C116 C117 1.378 . S
C116 C121 1.400 . S
C117 H101 0.939 . S
C117 C116 1.378 . S
C117 C118 1.361 . S
C118 H102 0.942 . S
C118 C117 1.361 . S
C118 C119 1.369 . S
C119 C118 1.369 . S
C119 C120 1.404 . S
C120 H103 0.940 . S
C120 C119 1.404 . S
C120 C121 1.389 . S
C121 H104 0.939 . S
C121 C116 1.400 . S
C121 C120 1.389 . S
C122 P96 1.819 . S
C122 C123 1.391 . S
C122 C127 1.391 . S
C123 H105 0.941 . S
C123 C122 1.391 . S
C123 C124 1.396 . S
C124 H108 0.939 . S
C124 C123 1.396 . S
C124 C125 1.397 . S
C125 C124 1.397 . S
C125 C126 1.385 . S
C126 H109 0.940 . S
C126 C125 1.385 . S
C126 C127 1.388 . S
C127 H106 0.939 . S
C127 C122 1.391 . S
C127 C126 1.388 . S
P128 O139 1.490 . S
P128 C142 1.812 . S
P128 C148 1.803 . S
P128 C154 1.819 . S
H129 C143 0.941 . S
H130 C144 0.939 . S
H131 C146 0.940 . S
H132 C147 0.940 . S
H133 C149 0.939 . S
H134 C150 0.942 . S
H135 C152 0.940 . S
H136 C153 0.939 . S
H137 C155 0.941 . S
H138 C159 0.939 . S
O139 P128 1.490 . S
H140 C156 0.939 . S
H141 C158 0.940 . S
C142 P128 1.812 . S
C142 C143 1.389 . S
C142 C147 1.391 . S
C143 H129 0.941 . S
C143 C142 1.389 . S
C143 C144 1.397 . S
C144 H130 0.939 . S
C144 C143 1.397 . S
C144 C145 1.378 . S
C145 C144 1.378 . S
C145 C146 1.378 . S
C146 H131 0.940 . S
C146 C145 1.378 . S
C146 C147 1.396 . S
C147 H132 0.940 . S
C147 C142 1.391 . S
C147 C146 1.396 . S
C148 P128 1.803 . S
C148 C149 1.378 . S
C148 C153 1.400 . S
C149 H133 0.939 . S
C149 C148 1.378 . S
C149 C150 1.361 . S
C150 H134 0.942 . S
C150 C149 1.361 . S
C150 C151 1.369 . S
C151 C150 1.369 . S
C151 C152 1.404 . S
C152 H135 0.940 . S
C152 C151 1.404 . S
C152 C153 1.389 . S
C153 H136 0.939 . S
C153 C148 1.400 . S
C153 C152 1.389 . S
C154 P128 1.819 . S
C154 C155 1.391 . S
C154 C159 1.391 . S
C155 H137 0.941 . S
C155 C154 1.391 . S
C155 C156 1.396 . S
C156 H140 0.939 . S
C156 C155 1.396 . S
C156 C157 1.397 . S
C157 C156 1.397 . S
C157 C158 1.385 . S
C158 H141 0.940 . S
C158 C157 1.385 . S
C158 C159 1.388 . S
C159 H138 0.939 . S
C159 C154 1.391 . S
C159 C158 1.388 . S
P160 O171 1.490 . S
P160 C174 1.812 . S
P160 C180 1.803 . S
P160 C186 1.819 . S
H161 C175 0.941 . S
H162 C176 0.939 . S
H163 C178 0.940 . S
H164 C179 0.940 . S
H165 C181 0.939 . S
H166 C182 0.942 . S
H167 C184 0.940 . S
H168 C185 0.939 . S
H169 C187 0.941 . S
H170 C191 0.939 . S
O171 P160 1.490 . S
H172 C188 0.939 . S
H173 C190 0.940 . S
C174 P160 1.812 . S
C174 C175 1.389 . S
C174 C179 1.391 . S
C175 H161 0.941 . S
C175 C174 1.389 . S
C175 C176 1.397 . S
C176 H162 0.939 . S
C176 C175 1.397 . S
C176 C177 1.378 . S
C177 C176 1.378 . S
C177 C178 1.378 . S
C178 H163 0.940 . S
C178 C177 1.378 . S
C178 C179 1.396 . S
C179 H164 0.940 . S
C179 C174 1.391 . S
C179 C178 1.396 . S
C180 P160 1.803 . S
C180 C181 1.378 . S
C180 C185 1.400 . S
C181 H165 0.939 . S
C181 C180 1.378 . S
C181 C182 1.361 . S
C182 H166 0.942 . S
C182 C181 1.361 . S
C182 C183 1.369 . S
C183 C182 1.369 . S
C183 C184 1.404 . S
C184 H167 0.940 . S
C184 C183 1.404 . S
C184 C185 1.389 . S
C185 H168 0.939 . S
C185 C180 1.400 . S
C185 C184 1.389 . S
C186 P160 1.819 . S
C186 C187 1.391 . S
C186 C191 1.391 . S
C187 H169 0.941 . S
C187 C186 1.391 . S
C187 C188 1.396 . S
C188 H172 0.939 . S
C188 C187 1.396 . S
C188 C189 1.397 . S
C189 C188 1.397 . S
C189 C190 1.385 . S
C190 H173 0.940 . S
C190 C189 1.385 . S
C190 C191 1.388 . S
C191 H170 0.939 . S
C191 C186 1.391 . S
C191 C190 1.388 . S
P192 O203 1.490 . S
P192 C206 1.812 . S
P192 C212 1.803 . S
P192 C218 1.819 . S
H193 C207 0.941 . S
H194 C208 0.939 . S
H195 C210 0.940 . S
H196 C211 0.940 . S
H197 C213 0.939 . S
H198 C214 0.942 . S
H199 C216 0.940 . S
H200 C217 0.939 . S
H201 C219 0.941 . S
H202 C223 0.939 . S
O203 P192 1.490 . S
H204 C220 0.939 . S
H205 C222 0.940 . S
C206 P192 1.812 . S
C206 C207 1.389 . S
C206 C211 1.391 . S
C207 H193 0.941 . S
C207 C206 1.389 . S
C207 C208 1.397 . S
C208 H194 0.939 . S
C208 C207 1.397 . S
C208 C209 1.378 . S
C209 C208 1.378 . S
C209 C210 1.378 . S
C210 H195 0.940 . S
C210 C209 1.378 . S
C210 C211 1.396 . S
C211 H196 0.940 . S
C211 C206 1.391 . S
C211 C210 1.396 . S
C212 P192 1.803 . S
C212 C213 1.378 . S
C212 C217 1.400 . S
C213 H197 0.939 . S
C213 C212 1.378 . S
C213 C214 1.361 . S
C214 H198 0.942 . S
C214 C213 1.361 . S
C214 C215 1.369 . S
C215 C214 1.369 . S
C215 C216 1.404 . S
C216 H199 0.940 . S
C216 C215 1.404 . S
C216 C217 1.389 . S
C217 H200 0.939 . S
C217 C212 1.400 . S
C217 C216 1.389 . S
C218 P192 1.819 . S
C218 C219 1.391 . S
C218 C223 1.391 . S
C219 H201 0.941 . S
C219 C218 1.391 . S
C219 C220 1.396 . S
C220 H204 0.939 . S
C220 C219 1.396 . S
C220 C221 1.397 . S
C221 C220 1.397 . S
C221 C222 1.385 . S
C222 H205 0.940 . S
C222 C221 1.385 . S
C222 C223 1.388 . S
C223 H202 0.939 . S
C223 C218 1.391 . S
C223 C222 1.388 . S
P224 O235 1.490 . S
P224 C238 1.812 . S
P224 C244 1.803 . S
P224 C250 1.819 . S
H225 C239 0.941 . S
H226 C240 0.939 . S
H227 C242 0.940 . S
H228 C243 0.940 . S
H229 C245 0.939 . S
H230 C246 0.942 . S
H231 C248 0.940 . S
H232 C249 0.939 . S
H233 C251 0.941 . S
H234 C255 0.939 . S
O235 P224 1.490 . S
H236 C252 0.939 . S
H237 C254 0.940 . S
C238 P224 1.812 . S
C238 C239 1.389 . S
C238 C243 1.391 . S
C239 H225 0.941 . S
C239 C238 1.389 . S
C239 C240 1.397 . S
C240 H226 0.939 . S
C240 C239 1.397 . S
C240 C241 1.378 . S
C241 C240 1.378 . S
C241 C242 1.378 . S
C242 H227 0.940 . S
C242 C241 1.378 . S
C242 C243 1.396 . S
C243 H228 0.940 . S
C243 C238 1.391 . S
C243 C242 1.396 . S
C244 P224 1.803 . S
C244 C245 1.378 . S
C244 C249 1.400 . S
C245 H229 0.939 . S
C245 C244 1.378 . S
C245 C246 1.361 . S
C246 H230 0.942 . S
C246 C245 1.361 . S
C246 C247 1.369 . S
C247 C246 1.369 . S
C247 C248 1.404 . S
C248 H231 0.940 . S
C248 C247 1.404 . S
C248 C249 1.389 . S
C249 H232 0.939 . S
C249 C244 1.400 . S
C249 C248 1.389 . S
C250 P224 1.819 . S
C250 C251 1.391 . S
C250 C255 1.391 . S
C251 H233 0.941 . S
C251 C250 1.391 . S
C251 C252 1.396 . S
C252 H236 0.939 . S
C252 C251 1.396 . S
C252 C253 1.397 . S
C253 C252 1.397 . S
C253 C254 1.385 . S
C254 H237 0.940 . S
C254 C253 1.385 . S
C254 C255 1.388 . S
C255 H234 0.939 . S
C255 C250 1.391 . S
C255 C254 1.388 . S
Dy256 O260 2.398 . S
Dy256 O261 2.491 . S
Dy256 O262 2.403 1_545 S
Dy256 O263 2.664 1_545 S
Dy256 O267 2.326 . S
Dy256 O271 2.310 1_455 S
Dy256 O272 2.351 1_445 S
C257 O268 1.185 . S
C257 O269 1.355 . S
C258 O260 1.185 . S
C258 O261 1.355 . S
Dy259 O263 2.325 1_655 S
Dy259 O266 2.311 1_665 S
Dy259 O268 2.421 . S
Dy259 O269 2.536 . S
Dy259 O270 2.382 1_565 S
Dy259 O271 2.643 1_565 S
Dy259 O273 2.357 . S
O260 Dy256 2.398 . S
O260 C258 1.185 . S
O261 Dy256 2.491 . S
O261 C258 1.355 . S
O262 Dy256 2.403 1_565 S
O262 C264 1.254 . S
O263 Dy256 2.664 1_565 S
O263 Dy259 2.325 1_455 S
O263 C264 1.268 . S
C264 O262 1.254 . S
C264 O263 1.268 . S
C265 O270 1.254 . S
C265 O271 1.268 . S
O266 Dy259 2.311 1_445 S
O266 C274 1.249 . S
O267 Dy256 2.326 . S
O267 C274 1.267 . S
O268 C257 1.185 . S
O268 Dy259 2.421 . S
O269 C257 1.355 . S
O269 Dy259 2.536 . S
O270 Dy259 2.382 1_545 S
O270 C265 1.254 . S
O271 Dy256 2.310 1_655 S
O271 Dy259 2.643 1_545 S
O271 C265 1.268 . S
O272 Dy256 2.351 1_665 S
O272 C275 1.249 . S
O273 Dy259 2.357 . S
O273 C275 1.267 . S
C274 O266 1.249 . S
C274 O267 1.267 . S
C275 O272 1.249 . S
C275 O273 1.267 . S
Dy276 O280 2.398 . S
Dy276 O281 2.491 . S
Dy276 O282 2.403 1_545 S
Dy276 O283 2.664 1_545 S
Dy276 O287 2.326 . S
Dy276 O291 2.310 . S
Dy276 O292 2.331 1_544 S
C277 O288 1.185 . S
C277 O289 1.355 . S
C278 O280 1.185 . S
C278 O281 1.355 . S
Dy279 O283 2.310 1_546 S
Dy279 O286 2.351 1_556 S
Dy279 O288 2.398 1_545 S
Dy279 O289 2.491 1_545 S
Dy279 O290 2.403 . S
Dy279 O291 2.664 1_556 S
Dy279 O293 2.326 1_545 S
O280 Dy276 2.398 . S
O280 C278 1.185 . S
O281 Dy276 2.491 . S
O281 C278 1.355 . S
O282 Dy276 2.403 1_565 S
O282 C284 1.254 . S
O283 Dy276 2.664 1_565 S
O283 Dy279 2.310 1_564 S
O283 C284 1.268 . S
C284 O282 1.254 . S
C284 O283 1.268 . S
C285 O290 1.254 . S
C285 O291 1.268 1_556 S
O286 Dy279 2.351 1_554 S
O286 C294 1.249 . S
O287 Dy276 2.326 . S
O287 C294 1.267 . S
O288 C277 1.185 . S
O288 Dy279 2.398 1_565 S
O289 C277 1.355 . S
O289 Dy279 2.491 1_565 S
O290 Dy279 2.403 . S
O290 C285 1.254 . S
O291 Dy276 2.310 . S
O291 Dy279 2.664 1_554 S
O291 C285 1.268 1_554 S
O292 Dy276 2.331 1_566 S
O292 C295 1.274 . S
O293 Dy279 2.326 1_565 S
O293 C295 1.267 . S
C294 O286 1.249 . S
C294 O287 1.267 . S
C295 O292 1.274 . S
C295 O293 1.267 . S
Dy296 O300 2.398 . S
Dy296 O301 2.491 . S
Dy296 O302 2.403 . S
Dy296 O303 2.664 . S
Dy296 O307 2.326 . S
Dy296 O311 2.310 . S
Dy296 O312 2.351 . S
C297 O308 1.185 . S
C297 O309 1.355 . S
C298 O300 1.185 . S
C298 O301 1.355 . S
Dy299 O303 2.310 . S
Dy299 O306 2.351 . S
Dy299 O308 2.398 . S
Dy299 O309 2.491 . S
Dy299 O310 2.403 . S
Dy299 O311 2.664 . S
Dy299 O313 2.326 . S
O300 Dy296 2.398 . S
O300 C298 1.185 . S
O301 Dy296 2.491 . S
O301 C298 1.355 . S
O302 Dy296 2.403 . S
O302 C304 1.254 . S
O303 Dy296 2.664 . S
O303 Dy299 2.310 . S
O303 C304 1.268 . S
C304 O302 1.254 . S
C304 O303 1.268 . S
C305 O310 1.254 . S
C305 O311 1.268 . S
O306 Dy299 2.351 . S
O306 C314 1.249 . S
O307 Dy296 2.326 . S
O307 C314 1.267 . S
O308 C297 1.185 . S
O308 Dy299 2.398 . S
O309 C297 1.355 . S
O309 Dy299 2.491 . S
O310 Dy299 2.403 . S
O310 C305 1.254 . S
O311 Dy296 2.310 . S
O311 Dy299 2.664 . S
O311 C305 1.268 . S
O312 Dy296 2.351 . S
O312 C315 1.249 . S
O313 Dy299 2.326 . S
O313 C315 1.267 . S
C314 O306 1.249 . S
C314 O307 1.267 . S
C315 O312 1.249 . S
C315 O313 1.267 . S
Dy316 O320 2.398 . S
Dy316 O321 2.491 . S
Dy316 O322 2.403 1_455 S
Dy316 O323 2.664 1_455 S
Dy316 O327 2.326 . S
Dy316 O331 2.310 1_554 S
Dy316 O332 2.351 1_455 S
C317 O328 1.185 . S
C317 O329 1.355 . S
C318 O320 1.185 . S
C318 O321 1.355 . S
Dy319 O323 2.310 1_556 S
Dy319 O326 2.351 1_656 S
Dy319 O328 2.398 . S
Dy319 O329 2.491 . S
Dy319 O330 2.403 1_655 S
Dy319 O331 2.664 1_655 S
Dy319 O333 2.326 . S
O320 Dy316 2.398 . S
O320 C318 1.185 . S
O321 Dy316 2.491 . S
O321 C318 1.355 . S
O322 Dy316 2.403 1_655 S
O322 C324 1.254 . S
O323 Dy316 2.664 1_655 S
O323 Dy319 2.310 1_554 S
O323 C324 1.268 . S
C324 O322 1.254 . S
C324 O323 1.268 . S
C325 O330 1.254 . S
C325 O331 1.268 . S
O326 Dy319 2.351 1_454 S
O326 C334 1.249 . S
O327 Dy316 2.326 . S
O327 C334 1.267 . S
O328 C317 1.185 . S
O328 Dy319 2.398 . S
O329 C317 1.355 . S
O329 Dy319 2.491 . S
O330 Dy319 2.403 1_455 S
O330 C325 1.254 . S
O331 Dy316 2.310 1_556 S
O331 Dy319 2.664 1_455 S
O331 C325 1.268 . S
O332 Dy316 2.351 1_655 S
O332 C335 1.249 1_554 S
O333 Dy319 2.326 . S
O333 C335 1.267 . S
C334 O326 1.249 . S
C334 O327 1.267 . S
C335 O332 1.249 1_556 S
C335 O333 1.267 . S
H336 C354 0.951 . S
H337 C356 0.951 . S
H338 C358 0.950 . S
H339 C359 0.950 . S
H340 C361 0.950 . S
H341 C364 0.950 . S
H342 C365 0.950 . S
H343 C367 0.950 . S
H344 C368 0.950 . S
H345 C369 0.951 . S
H346 C371 0.951 . S
H347 C373 0.950 . S
H348 C374 0.950 . S
H349 C376 0.950 . S
H350 C379 0.950 . S
H351 C380 0.950 . S
H352 C382 0.950 . S
H353 C383 0.950 . S
C354 H336 0.951 . S
C354 C355 1.366 . S
C354 C356 1.388 . S
C355 C354 1.366 . S
C355 C359 1.385 . S
C356 H337 0.951 . S
C356 C354 1.388 . S
C356 C357 1.366 . S
C357 C356 1.366 . S
C357 C358 1.414 . S
C357 C360 1.499 . S
C358 H338 0.950 . S
C358 C357 1.414 . S
C358 C359 1.374 . S
C359 H339 0.950 . S
C359 C355 1.385 . S
C359 C358 1.374 . S
C360 C357 1.499 . S
C360 C361 1.373 . S
C360 C362 1.389 . S
C361 H340 0.950 . S
C361 C360 1.373 . S
C361 C377 1.377 . S
C362 C360 1.389 . S
C362 C363 1.524 . S
C362 C376 1.377 . S
C363 C362 1.524 . S
C363 C364 1.397 . S
C363 C368 1.363 . S
C364 H341 0.950 . S
C364 C363 1.397 . S
C364 C365 1.334 . S
C365 H342 0.950 . S
C365 C364 1.334 . S
C365 C366 1.287 . S
C366 C365 1.287 . S
C366 C367 1.524 . S
C366 H385 0.913 . S
C367 H343 0.950 . S
C367 C366 1.524 . S
C367 C368 1.415 . S
C368 H344 0.950 . S
C368 C363 1.363 . S
C368 C367 1.415 . S
C369 H345 0.951 . S
C369 C370 1.366 . S
C369 C371 1.388 . S
C370 C369 1.366 . S
C370 C374 1.385 . S
C371 H346 0.951 . S
C371 C369 1.388 . S
C371 C372 1.366 . S
C372 C371 1.366 . S
C372 C373 1.414 . S
C372 C375 1.499 . S
C373 H347 0.950 . S
C373 C372 1.414 . S
C373 C374 1.374 . S
C374 H348 0.950 . S
C374 C370 1.385 . S
C374 C373 1.374 . S
C375 C372 1.499 . S
C375 C376 1.373 . S
C375 C377 1.389 . S
C376 H349 0.950 . S
C376 C362 1.377 . S
C376 C375 1.373 . S
C377 C361 1.377 . S
C377 C375 1.389 . S
C377 C378 1.524 . S
C378 C377 1.524 . S
C378 C379 1.397 . S
C378 C383 1.363 . S
C379 H350 0.950 . S
C379 C378 1.397 . S
C379 C380 1.334 . S
C380 H351 0.950 . S
C380 C379 1.334 . S
C380 C381 1.287 . S
C381 C380 1.287 . S
C381 C382 1.524 . S
C381 H384 0.999 . S
C382 H352 0.950 . S
C382 C381 1.524 . S
C382 C383 1.415 . S
C383 H353 0.950 . S
C383 C378 1.363 . S
C383 C382 1.415 . S
H384 C381 0.999 . S
H385 C366 0.913 . S
H386 C404 0.951 . S
H387 C406 0.951 . S
H388 C408 0.950 . S
H389 C409 0.950 . S
H390 C411 0.950 . S
H391 C414 0.950 . S
H392 C415 0.950 . S
H393 C417 0.950 . S
H394 C418 0.950 . S
H395 C419 0.951 . S
H396 C421 0.951 . S
H397 C423 0.950 . S
H398 C424 0.950 . S
H399 C426 0.950 . S
H400 C429 0.950 . S
H401 C430 0.950 . S
H402 C432 0.950 . S
H403 C433 0.950 . S
C404 H386 0.951 . S
C404 C405 1.366 . S
C404 C406 1.388 . S
C405 C404 1.366 . S
C405 C409 1.385 . S
C406 H387 0.951 . S
C406 C404 1.388 . S
C406 C407 1.366 . S
C407 C406 1.366 . S
C407 C408 1.414 . S
C407 C410 1.499 . S
C408 H388 0.950 . S
C408 C407 1.414 . S
C408 C409 1.374 . S
C409 H389 0.950 . S
C409 C405 1.385 . S
C409 C408 1.374 . S
C410 C407 1.499 . S
C410 C411 1.373 . S
C410 C412 1.389 . S
C411 H390 0.950 . S
C411 C410 1.373 . S
C411 C427 1.377 . S
C412 C410 1.389 . S
C412 C413 1.524 . S
C412 C426 1.377 . S
C413 C412 1.524 . S
C413 C414 1.397 . S
C413 C418 1.363 . S
C414 H391 0.950 . S
C414 C413 1.397 . S
C414 C415 1.334 . S
C415 H392 0.950 . S
C415 C414 1.334 . S
C415 C416 1.287 . S
C416 C415 1.287 . S
C416 C417 1.524 . S
C416 H435 0.913 1_565 S
C417 H393 0.950 . S
C417 C416 1.524 . S
C417 C418 1.415 . S
C418 H394 0.950 . S
C418 C413 1.363 . S
C418 C417 1.415 . S
C419 H395 0.951 . S
C419 C420 1.366 . S
C419 C421 1.388 . S
C420 C419 1.366 . S
C420 C424 1.385 . S
C421 H396 0.951 . S
C421 C419 1.388 . S
C421 C422 1.366 . S
C422 C421 1.366 . S
C422 C423 1.414 . S
C422 C425 1.499 . S
C423 H397 0.950 . S
C423 C422 1.414 . S
C423 C424 1.374 . S
C424 H398 0.950 . S
C424 C420 1.385 . S
C424 C423 1.374 . S
C425 C422 1.499 . S
C425 C426 1.373 . S
C425 C427 1.389 . S
C426 H399 0.950 . S
C426 C412 1.377 . S
C426 C425 1.373 . S
C427 C411 1.377 . S
C427 C425 1.389 . S
C427 C428 1.524 . S
C428 C427 1.524 . S
C428 C429 1.397 . S
C428 C433 1.363 . S
C429 H400 0.950 . S
C429 C428 1.397 . S
C429 C430 1.334 . S
C430 H401 0.950 . S
C430 C429 1.334 . S
C430 C431 1.287 . S
C431 C430 1.287 . S
C431 C432 1.524 . S
C431 H434 0.999 . S
C432 H402 0.950 . S
C432 C431 1.524 . S
C432 C433 1.415 . S
C433 H403 0.950 . S
C433 C428 1.363 . S
C433 C432 1.415 . S
H434 C431 0.999 . S
H435 C416 0.913 1_545 S
H436 C454 0.951 . S
H437 C456 0.951 . S
H438 C458 0.950 . S
H439 C459 0.950 . S
H440 C461 0.950 . S
H441 C464 0.950 . S
H442 C465 0.950 . S
H443 C467 0.950 . S
H444 C468 0.950 . S
H445 C469 0.951 . S
H446 C471 0.951 . S
H447 C473 0.950 . S
H448 C474 0.950 . S
H449 C476 0.950 . S
H450 C479 0.950 . S
H451 C480 0.950 . S
H452 C482 0.950 . S
H453 C483 0.950 . S
C454 H436 0.951 . S
C454 C455 1.366 . S
C454 C456 1.388 . S
C455 C454 1.366 . S
C455 C459 1.385 . S
C456 H437 0.951 . S
C456 C454 1.388 . S
C456 C457 1.366 . S
C457 C456 1.366 . S
C457 C458 1.414 . S
C457 C460 1.499 . S
C458 H438 0.950 . S
C458 C457 1.414 . S
C458 C459 1.374 . S
C459 H439 0.950 . S
C459 C455 1.385 . S
C459 C458 1.374 . S
C460 C457 1.499 . S
C460 C461 1.373 . S
C460 C462 1.389 . S
C461 H440 0.950 . S
C461 C460 1.373 . S
C461 C477 1.377 . S
C462 C460 1.389 . S
C462 C463 1.524 . S
C462 C476 1.377 . S
C463 C462 1.524 . S
C463 C464 1.397 . S
C463 C468 1.363 . S
C464 H441 0.950 . S
C464 C463 1.397 . S
C464 C465 1.334 . S
C465 H442 0.950 . S
C465 C464 1.334 . S
C465 C466 1.287 . S
C466 C465 1.287 . S
C466 C467 1.524 . S
C466 H485 0.913 . S
C467 H443 0.950 . S
C467 C466 1.524 . S
C467 C468 1.415 . S
C468 H444 0.950 . S
C468 C463 1.363 . S
C468 C467 1.415 . S
C469 H445 0.951 . S
C469 C470 1.366 . S
C469 C471 1.388 . S
C470 C469 1.366 . S
C470 C474 1.385 . S
C471 H446 0.951 . S
C471 C469 1.388 . S
C471 C472 1.366 . S
C472 C471 1.366 . S
C472 C473 1.414 . S
C472 C475 1.499 . S
C473 H447 0.950 . S
C473 C472 1.414 . S
C473 C474 1.374 . S
C474 H448 0.950 . S
C474 C470 1.385 . S
C474 C473 1.374 . S
C475 C472 1.499 . S
C475 C476 1.373 . S
C475 C477 1.389 . S
C476 H449 0.950 . S
C476 C462 1.377 . S
C476 C475 1.373 . S
C477 C461 1.377 . S
C477 C475 1.389 . S
C477 C478 1.524 . S
C478 C477 1.524 . S
C478 C479 1.397 . S
C478 C483 1.363 . S
C479 H450 0.950 . S
C479 C478 1.397 . S
C479 C480 1.334 . S
C480 H451 0.950 . S
C480 C479 1.334 . S
C480 C481 1.287 . S
C481 C480 1.287 . S
C481 C482 1.524 . S
C481 H484 0.999 . S
C482 H452 0.950 . S
C482 C481 1.524 . S
C482 C483 1.415 . S
C483 H453 0.950 . S
C483 C478 1.363 . S
C483 C482 1.415 . S
H484 C481 0.999 . S
H485 C466 0.913 . S
H486 C504 0.951 . S
H487 C506 0.951 . S
H488 C508 0.950 . S
H489 C509 0.950 . S
H490 C511 0.950 . S
H491 C514 0.950 . S
H492 C515 0.950 . S
H493 C517 0.950 . S
H494 C518 0.950 . S
H495 C519 0.951 . S
H496 C521 0.951 . S
H497 C523 0.950 . S
H498 C524 0.950 . S
H499 C526 0.950 . S
H500 C529 0.950 . S
H501 C530 0.950 . S
H502 C532 0.950 . S
H503 C533 0.950 . S
C504 H486 0.951 . S
C504 C505 1.366 . S
C504 C506 1.388 . S
C505 C504 1.366 . S
C505 C509 1.385 . S
C506 H487 0.951 . S
C506 C504 1.388 . S
C506 C507 1.366 . S
C507 C506 1.366 . S
C507 C508 1.414 . S
C507 C510 1.499 . S
C508 H488 0.950 . S
C508 C507 1.414 . S
C508 C509 1.374 . S
C509 H489 0.950 . S
C509 C505 1.385 . S
C509 C508 1.374 . S
C510 C507 1.499 . S
C510 C511 1.373 . S
C510 C512 1.389 . S
C511 H490 0.950 . S
C511 C510 1.373 . S
C511 C527 1.377 . S
C512 C510 1.389 . S
C512 C513 1.524 . S
C512 C526 1.377 . S
C513 C512 1.524 . S
C513 C514 1.397 . S
C513 C518 1.363 . S
C514 H491 0.950 . S
C514 C513 1.397 . S
C514 C515 1.334 . S
C515 H492 0.950 . S
C515 C514 1.334 . S
C515 C516 1.287 . S
C516 C515 1.287 . S
C516 C517 1.524 . S
C516 H535 0.913 . S
C517 H493 0.950 . S
C517 C516 1.524 . S
C517 C518 1.415 . S
C518 H494 0.950 . S
C518 C513 1.363 . S
C518 C517 1.415 . S
C519 H495 0.951 . S
C519 C520 1.366 . S
C519 C521 1.388 . S
C520 C519 1.366 . S
C520 C524 1.385 . S
C521 H496 0.951 . S
C521 C519 1.388 . S
C521 C522 1.366 . S
C522 C521 1.366 . S
C522 C523 1.414 . S
C522 C525 1.499 . S
C523 H497 0.950 . S
C523 C522 1.414 . S
C523 C524 1.374 . S
C524 H498 0.950 . S
C524 C520 1.385 . S
C524 C523 1.374 . S
C525 C522 1.499 . S
C525 C526 1.373 . S
C525 C527 1.389 . S
C526 H499 0.950 . S
C526 C512 1.377 . S
C526 C525 1.373 . S
C527 C511 1.377 . S
C527 C525 1.389 . S
C527 C528 1.524 . S
C528 C527 1.524 . S
C528 C529 1.397 . S
C528 C533 1.363 . S
C529 H500 0.950 . S
C529 C528 1.397 . S
C529 C530 1.334 . S
C530 H501 0.950 . S
C530 C529 1.334 . S
C530 C531 1.287 . S
C531 C530 1.287 . S
C531 C532 1.524 . S
C531 H534 0.999 . S
C532 H502 0.950 . S
C532 C531 1.524 . S
C532 C533 1.415 . S
C533 H503 0.950 . S
C533 C528 1.363 . S
C533 C532 1.415 . S
H534 C531 0.999 . S
H535 C516 0.913 . S
H536 C554 0.951 . S
H537 C556 0.951 . S
H538 C558 0.950 . S
H539 C559 0.950 . S
H540 C561 0.950 . S
H541 C564 0.950 . S
H542 C565 0.950 . S
H543 C567 0.950 . S
H544 C568 0.950 . S
H545 C569 0.951 . S
H546 C571 0.951 . S
H547 C573 0.950 . S
H548 C574 0.950 . S
H549 C576 0.950 . S
H550 C579 0.950 . S
H551 C580 0.950 . S
H552 C582 0.950 . S
H553 C583 0.950 . S
C554 H536 0.951 . S
C554 C555 1.366 . S
C554 C556 1.388 . S
C555 C554 1.366 . S
C555 C559 1.385 . S
C556 H537 0.951 . S
C556 C554 1.388 . S
C556 C557 1.366 . S
C557 C556 1.366 . S
C557 C558 1.414 . S
C557 C560 1.499 . S
C558 H538 0.950 . S
C558 C557 1.414 . S
C558 C559 1.374 . S
C559 H539 0.950 . S
C559 C555 1.385 . S
C559 C558 1.374 . S
C560 C557 1.499 . S
C560 C561 1.373 . S
C560 C562 1.389 . S
C561 H540 0.950 . S
C561 C560 1.373 . S
C561 C577 1.377 . S
C562 C560 1.389 . S
C562 C563 1.524 . S
C562 C576 1.377 . S
C563 C562 1.524 . S
C563 C564 1.397 . S
C563 C568 1.363 . S
C564 H541 0.950 . S
C564 C563 1.397 . S
C564 C565 1.334 . S
C565 H542 0.950 . S
C565 C564 1.334 . S
C565 C566 1.287 . S
C566 C565 1.287 . S
C566 C567 1.524 . S
C566 H585 0.913 . S
C567 H543 0.950 . S
C567 C566 1.524 . S
C567 C568 1.415 . S
C568 H544 0.950 . S
C568 C563 1.363 . S
C568 C567 1.415 . S
C569 H545 0.951 . S
C569 C570 1.366 . S
C569 C571 1.388 . S
C570 C569 1.366 . S
C570 C574 1.385 . S
C571 H546 0.951 . S
C571 C569 1.388 . S
C571 C572 1.366 . S
C572 C571 1.366 . S
C572 C573 1.414 . S
C572 C575 1.499 . S
C573 H547 0.950 . S
C573 C572 1.414 . S
C573 C574 1.374 . S
C574 H548 0.950 . S
C574 C570 1.385 . S
C574 C573 1.374 . S
C575 C572 1.499 . S
C575 C576 1.373 . S
C575 C577 1.389 . S
C576 H549 0.950 . S
C576 C562 1.377 . S
C576 C575 1.373 . S
C577 C561 1.377 . S
C577 C575 1.389 . S
C577 C578 1.524 . S
C578 C577 1.524 . S
C578 C579 1.397 . S
C578 C583 1.363 . S
C579 H550 0.950 . S
C579 C578 1.397 . S
C579 C580 1.334 . S
C580 H551 0.950 . S
C580 C579 1.334 . S
C580 C581 1.287 . S
C581 C580 1.287 . S
C581 C582 1.524 . S
C581 H584 0.999 . S
C582 H552 0.950 . S
C582 C581 1.524 . S
C582 C583 1.415 . S
C583 H553 0.950 . S
C583 C578 1.363 . S
C583 C582 1.415 . S
H584 C581 0.999 . S
H585 C566 0.913 . S
H586 C604 0.951 . S
H587 C606 0.951 . S
H588 C608 0.950 . S
H589 C609 0.950 . S
H590 C611 0.950 . S
H591 C614 0.950 . S
H592 C615 0.950 . S
H593 C617 0.950 . S
H594 C618 0.950 . S
H595 C619 0.951 . S
H596 C621 0.951 . S
H597 C623 0.950 . S
H598 C624 0.950 . S
H599 C626 0.950 . S
H600 C629 0.950 . S
H601 C630 0.950 . S
H602 C632 0.950 . S
H603 C633 0.950 . S
C604 H586 0.951 . S
C604 C605 1.366 . S
C604 C606 1.388 . S
C605 C604 1.366 . S
C605 C609 1.385 . S
C606 H587 0.951 . S
C606 C604 1.388 . S
C606 C607 1.366 . S
C607 C606 1.366 . S
C607 C608 1.414 . S
C607 C610 1.499 . S
C608 H588 0.950 . S
C608 C607 1.414 . S
C608 C609 1.374 . S
C609 H589 0.950 . S
C609 C605 1.385 . S
C609 C608 1.374 . S
C610 C607 1.499 . S
C610 C611 1.373 . S
C610 C612 1.389 . S
C611 H590 0.950 . S
C611 C610 1.373 . S
C611 C627 1.377 . S
C612 C610 1.389 . S
C612 C613 1.524 . S
C612 C626 1.377 . S
C613 C612 1.524 . S
C613 C614 1.397 . S
C613 C618 1.363 . S
C614 H591 0.950 . S
C614 C613 1.397 . S
C614 C615 1.334 . S
C615 H592 0.950 . S
C615 C614 1.334 . S
C615 C616 1.287 . S
C616 C615 1.287 . S
C616 C617 1.524 . S
C616 H635 0.913 1_565 S
C617 H593 0.950 . S
C617 C616 1.524 . S
C617 C618 1.415 . S
C618 H594 0.950 . S
C618 C613 1.363 . S
C618 C617 1.415 . S
C619 H595 0.951 . S
C619 C620 1.366 . S
C619 C621 1.388 . S
C620 C619 1.366 . S
C620 C624 1.385 . S
C621 H596 0.951 . S
C621 C619 1.388 . S
C621 C622 1.366 . S
C622 C621 1.366 . S
C622 C623 1.414 . S
C622 C625 1.499 . S
C623 H597 0.950 . S
C623 C622 1.414 . S
C623 C624 1.374 . S
C624 H598 0.950 . S
C624 C620 1.385 . S
C624 C623 1.374 . S
C625 C622 1.499 . S
C625 C626 1.373 . S
C625 C627 1.389 . S
C626 H599 0.950 . S
C626 C612 1.377 . S
C626 C625 1.373 . S
C627 C611 1.377 . S
C627 C625 1.389 . S
C627 C628 1.524 . S
C628 C627 1.524 . S
C628 C629 1.397 . S
C628 C633 1.363 . S
C629 H600 0.950 . S
C629 C628 1.397 . S
C629 C630 1.334 . S
C630 H601 0.950 . S
C630 C629 1.334 . S
C630 C631 1.287 . S
C631 C630 1.287 . S
C631 C632 1.524 . S
C631 H634 0.999 . S
C632 H602 0.950 . S
C632 C631 1.524 . S
C632 C633 1.415 . S
C633 H603 0.950 . S
C633 C628 1.363 . S
C633 C632 1.415 . S
H634 C631 0.999 . S
H635 C616 0.913 1_545 S
H636 C654 0.951 . S
H637 C656 0.951 . S
H638 C658 0.950 . S
H639 C659 0.950 . S
H640 C661 0.950 . S
H641 C664 0.950 . S
H642 C665 0.950 . S
H643 C667 0.950 . S
H644 C668 0.950 . S
H645 C669 0.951 . S
H646 C671 0.951 . S
H647 C673 0.950 . S
H648 C674 0.950 . S
H649 C676 0.950 . S
H650 C679 0.950 . S
H651 C680 0.950 . S
H652 C682 0.950 . S
H653 C683 0.950 . S
C654 H636 0.951 . S
C654 C655 1.366 . S
C654 C656 1.388 . S
C655 C654 1.366 . S
C655 C659 1.385 . S
C656 H637 0.951 . S
C656 C654 1.388 . S
C656 C657 1.366 . S
C657 C656 1.366 . S
C657 C658 1.414 . S
C657 C660 1.499 . S
C658 H638 0.950 . S
C658 C657 1.414 . S
C658 C659 1.374 . S
C659 H639 0.950 . S
C659 C655 1.385 . S
C659 C658 1.374 . S
C660 C657 1.499 . S
C660 C661 1.373 . S
C660 C662 1.389 . S
C661 H640 0.950 . S
C661 C660 1.373 . S
C661 C677 1.377 . S
C662 C660 1.389 . S
C662 C663 1.524 . S
C662 C676 1.377 . S
C663 C662 1.524 . S
C663 C664 1.397 . S
C663 C668 1.363 . S
C664 H641 0.950 . S
C664 C663 1.397 . S
C664 C665 1.334 . S
C665 H642 0.950 . S
C665 C664 1.334 . S
C665 C666 1.287 . S
C666 C665 1.287 . S
C666 C667 1.524 . S
C666 H685 0.913 . S
C667 H643 0.950 . S
C667 C666 1.524 . S
C667 C668 1.415 . S
C668 H644 0.950 . S
C668 C663 1.363 . S
C668 C667 1.415 . S
C669 H645 0.951 . S
C669 C670 1.366 . S
C669 C671 1.388 . S
C670 C669 1.366 . S
C670 C674 1.385 . S
C671 H646 0.951 . S
C671 C669 1.388 . S
C671 C672 1.366 . S
C672 C671 1.366 . S
C672 C673 1.414 . S
C672 C675 1.499 . S
C673 H647 0.950 . S
C673 C672 1.414 . S
C673 C674 1.374 . S
C674 H648 0.950 . S
C674 C670 1.385 . S
C674 C673 1.374 . S
C675 C672 1.499 . S
C675 C676 1.373 . S
C675 C677 1.389 . S
C676 H649 0.950 . S
C676 C662 1.377 . S
C676 C675 1.373 . S
C677 C661 1.377 . S
C677 C675 1.389 . S
C677 C678 1.524 . S
C678 C677 1.524 . S
C678 C679 1.397 . S
C678 C683 1.363 . S
C679 H650 0.950 . S
C679 C678 1.397 . S
C679 C680 1.334 . S
C680 H651 0.950 . S
C680 C679 1.334 . S
C680 C681 1.287 . S
C681 C680 1.287 . S
C681 C682 1.524 . S
C681 H684 0.999 . S
C682 H652 0.950 . S
C682 C681 1.524 . S
C682 C683 1.415 . S
C683 H653 0.950 . S
C683 C678 1.363 . S
C683 C682 1.415 . S
H684 C681 0.999 . S
H685 C666 0.913 . S
H686 C704 0.951 . S
H687 C706 0.951 . S
H688 C708 0.950 . S
H689 C709 0.950 . S
H690 C711 0.950 . S
H691 C714 0.950 . S
H692 C715 0.950 . S
H693 C717 0.950 . S
H694 C718 0.950 . S
H695 C719 0.951 . S
H696 C721 0.951 . S
H697 C723 0.950 . S
H698 C724 0.950 . S
H699 C726 0.950 . S
H700 C729 0.950 . S
H701 C730 0.950 . S
H702 C732 0.950 . S
H703 C733 0.950 . S
C704 H686 0.951 . S
C704 C705 1.366 . S
C704 C706 1.388 . S
C705 C704 1.366 . S
C705 C709 1.385 . S
C706 H687 0.951 . S
C706 C704 1.388 . S
C706 C707 1.366 . S
C707 C706 1.366 . S
C707 C708 1.414 . S
C707 C710 1.499 . S
C708 H688 0.950 . S
C708 C707 1.414 . S
C708 C709 1.374 . S
C709 H689 0.950 . S
C709 C705 1.385 . S
C709 C708 1.374 . S
C710 C707 1.499 . S
C710 C711 1.373 . S
C710 C712 1.389 . S
C711 H690 0.950 . S
C711 C710 1.373 . S
C711 C727 1.377 . S
C712 C710 1.389 . S
C712 C713 1.524 . S
C712 C726 1.377 . S
C713 C712 1.524 . S
C713 C714 1.397 . S
C713 C718 1.363 . S
C714 H691 0.950 . S
C714 C713 1.397 . S
C714 C715 1.334 . S
C715 H692 0.950 . S
C715 C714 1.334 . S
C715 C716 1.287 . S
C716 C715 1.287 . S
C716 C717 1.524 . S
C716 H735 0.913 . S
C717 H693 0.950 . S
C717 C716 1.524 . S
C717 C718 1.415 . S
C718 H694 0.950 . S
C718 C713 1.363 . S
C718 C717 1.415 . S
C719 H695 0.951 . S
C719 C720 1.366 . S
C719 C721 1.388 . S
C720 C719 1.366 . S
C720 C724 1.385 . S
C721 H696 0.951 . S
C721 C719 1.388 . S
C721 C722 1.366 . S
C722 C721 1.366 . S
C722 C723 1.414 . S
C722 C725 1.499 . S
C723 H697 0.950 . S
C723 C722 1.414 . S
C723 C724 1.374 . S
C724 H698 0.950 . S
C724 C720 1.385 . S
C724 C723 1.374 . S
C725 C722 1.499 . S
C725 C726 1.373 . S
C725 C727 1.389 . S
C726 H699 0.950 . S
C726 C712 1.377 . S
C726 C725 1.373 . S
C727 C711 1.377 . S
C727 C725 1.389 . S
C727 C728 1.524 . S
C728 C727 1.524 . S
C728 C729 1.397 . S
C728 C733 1.363 . S
C729 H700 0.950 . S
C729 C728 1.397 . S
C729 C730 1.334 . S
C730 H701 0.950 . S
C730 C729 1.334 . S
C730 C731 1.287 . S
C731 C730 1.287 . S
C731 C732 1.524 . S
C731 H734 0.999 . S
C732 H702 0.950 . S
C732 C731 1.524 . S
C732 C733 1.415 . S
C733 H703 0.950 . S
C733 C728 1.363 . S
C733 C732 1.415 . S
H734 C731 0.999 . S
H735 C716 0.913 . S
H736 C754 0.951 . S
H737 C756 0.951 . S
H738 C758 0.950 . S
H739 C759 0.950 . S
H740 C761 0.950 . S
H741 C764 0.950 . S
H742 C765 0.950 . S
H743 C767 0.950 . S
H744 C768 0.950 . S
H745 C769 0.951 . S
H746 C771 0.951 . S
H747 C773 0.950 . S
H748 C774 0.950 . S
H749 C776 0.950 . S
H750 C779 0.950 . S
H751 C780 0.950 . S
H752 C782 0.950 . S
H753 C783 0.950 . S
C754 H736 0.951 . S
C754 C755 1.366 . S
C754 C756 1.388 . S
C755 C754 1.366 . S
C755 C759 1.385 . S
C756 H737 0.951 . S
C756 C754 1.388 . S
C756 C757 1.366 . S
C757 C756 1.366 . S
C757 C758 1.414 . S
C757 C760 1.499 . S
C758 H738 0.950 . S
C758 C757 1.414 . S
C758 C759 1.374 . S
C759 H739 0.950 . S
C759 C755 1.385 . S
C759 C758 1.374 . S
C760 C757 1.499 . S
C760 C761 1.373 . S
C760 C762 1.389 . S
C761 H740 0.950 . S
C761 C760 1.373 . S
C761 C777 1.377 . S
C762 C760 1.389 . S
C762 C763 1.524 . S
C762 C776 1.377 . S
C763 C762 1.524 . S
C763 C764 1.397 . S
C763 C768 1.363 . S
C764 H741 0.950 . S
C764 C763 1.397 . S
C764 C765 1.334 . S
C765 H742 0.950 . S
C765 C764 1.334 . S
C765 C766 1.287 . S
C766 C765 1.287 . S
C766 C767 1.524 . S
C766 H785 0.913 . S
C767 H743 0.950 . S
C767 C766 1.524 . S
C767 C768 1.415 . S
C768 H744 0.950 . S
C768 C763 1.363 . S
C768 C767 1.415 . S
C769 H745 0.951 . S
C769 C770 1.366 . S
C769 C771 1.388 . S
C770 C769 1.366 . S
C770 C774 1.385 . S
C771 H746 0.951 . S
C771 C769 1.388 . S
C771 C772 1.366 . S
C772 C771 1.366 . S
C772 C773 1.414 . S
C772 C775 1.499 . S
C773 H747 0.950 . S
C773 C772 1.414 . S
C773 C774 1.374 . S
C774 H748 0.950 . S
C774 C770 1.385 . S
C774 C773 1.374 . S
C775 C772 1.499 . S
C775 C776 1.373 . S
C775 C777 1.389 . S
C776 H749 0.950 . S
C776 C762 1.377 . S
C776 C775 1.373 . S
C777 C761 1.377 . S
C777 C775 1.389 . S
C777 C778 1.524 . S
C778 C777 1.524 . S
C778 C779 1.397 . S
C778 C783 1.363 . S
C779 H750 0.950 . S
C779 C778 1.397 . S
C779 C780 1.334 . S
C780 H751 0.950 . S
C780 C779 1.334 . S
C780 C781 1.287 . S
C781 C780 1.287 . S
C781 C782 1.524 . S
C781 H784 0.999 . S
C782 H752 0.950 . S
C782 C781 1.524 . S
C782 C783 1.415 . S
C783 H753 0.950 . S
C783 C778 1.363 . S
C783 C782 1.415 . S
H784 C781 0.999 . S
H785 C766 0.913 . S
H786 C804 0.951 . S
H787 C806 0.951 . S
H788 C808 0.950 . S
H789 C809 0.950 . S
H790 C811 0.950 . S
H791 C814 0.950 . S
H792 C815 0.950 . S
H793 C817 0.945 1_554 S
H794 C818 0.950 . S
H795 C819 0.951 . S
H796 C821 0.951 . S
H797 C823 0.950 . S
H798 C824 0.950 . S
H799 C826 0.950 . S
H800 C829 0.950 . S
H801 C830 0.950 . S
H802 C832 0.950 . S
H803 C833 0.950 . S
C804 H786 0.951 . S
C804 C805 1.366 . S
C804 C806 1.388 . S
C805 C804 1.366 . S
C805 C809 1.385 . S
C806 H787 0.951 . S
C806 C804 1.388 . S
C806 C807 1.366 . S
C807 C806 1.366 . S
C807 C808 1.414 . S
C807 C810 1.499 . S
C808 H788 0.950 . S
C808 C807 1.414 . S
C808 C809 1.374 . S
C809 H789 0.950 . S
C809 C805 1.385 . S
C809 C808 1.374 . S
C810 C807 1.499 . S
C810 C811 1.373 . S
C810 C812 1.389 . S
C811 H790 0.950 . S
C811 C810 1.373 . S
C811 C827 1.377 . S
C812 C810 1.389 . S
C812 C813 1.524 . S
C812 C826 1.377 . S
C813 C812 1.524 . S
C813 C814 1.397 . S
C813 C818 1.363 . S
C814 H791 0.950 . S
C814 C813 1.397 . S
C814 C815 1.334 . S
C815 H792 0.950 . S
C815 C814 1.334 . S
C815 C816 1.287 1_556 S
C816 C815 1.287 1_554 S
C816 C817 1.523 1_554 S
C816 H835 0.913 . S
C817 H793 0.945 1_556 S
C817 C816 1.523 1_556 S
C817 C818 1.421 . S
C818 H794 0.950 . S
C818 C813 1.363 . S
C818 C817 1.421 . S
C819 H795 0.951 . S
C819 C820 1.366 . S
C819 C821 1.388 . S
C820 C819 1.366 . S
C820 C824 1.385 . S
C821 H796 0.951 . S
C821 C819 1.388 . S
C821 C822 1.366 . S
C822 C821 1.366 . S
C822 C823 1.414 . S
C822 C825 1.499 . S
C823 H797 0.950 . S
C823 C822 1.414 . S
C823 C824 1.374 . S
C824 H798 0.950 . S
C824 C820 1.385 . S
C824 C823 1.374 . S
C825 C822 1.499 . S
C825 C826 1.373 . S
C825 C827 1.389 . S
C826 H799 0.950 . S
C826 C812 1.377 . S
C826 C825 1.373 . S
C827 C811 1.377 . S
C827 C825 1.389 . S
C827 C828 1.524 . S
C828 C827 1.524 . S
C828 C829 1.397 . S
C828 C833 1.363 . S
C829 H800 0.950 . S
C829 C828 1.397 . S
C829 C830 1.334 . S
C830 H801 0.950 . S
C830 C829 1.334 . S
C830 C831 1.287 . S
C831 C830 1.287 . S
C831 C832 1.524 . S
C831 H834 0.999 . S
C832 H802 0.950 . S
C832 C831 1.524 . S
C832 C833 1.415 . S
C833 H803 0.950 . S
C833 C828 1.363 . S
C833 C832 1.415 . S
H834 C831 0.999 . S
H835 C816 0.913 . S
H836 C854 0.951 . S
H837 C856 0.951 . S
H838 C858 0.950 . S
H839 C859 0.950 . S
H840 C861 0.950 . S
H841 C864 0.950 . S
H842 C865 0.950 . S
H843 C867 0.950 . S
H844 C868 0.950 . S
H845 C869 0.951 . S
H846 C871 0.951 . S
H847 C873 0.950 . S
H848 C874 0.950 . S
H849 C876 0.950 . S
H850 C879 0.950 . S
H851 C880 0.950 . S
H852 C882 0.950 . S
H853 C883 0.950 . S
C854 H836 0.951 . S
C854 C855 1.366 . S
C854 C856 1.388 . S
C855 C854 1.366 . S
C855 C859 1.385 . S
C856 H837 0.951 . S
C856 C854 1.388 . S
C856 C857 1.366 . S
C857 C856 1.366 . S
C857 C858 1.414 . S
C857 C860 1.499 . S
C858 H838 0.950 . S
C858 C857 1.414 . S
C858 C859 1.374 . S
C859 H839 0.950 . S
C859 C855 1.385 . S
C859 C858 1.374 . S
C860 C857 1.499 . S
C860 C861 1.373 . S
C860 C862 1.389 . S
C861 H840 0.950 . S
C861 C860 1.373 . S
C861 C877 1.377 . S
C862 C860 1.389 . S
C862 C863 1.524 . S
C862 C876 1.377 . S
C863 C862 1.524 . S
C863 C864 1.397 . S
C863 C868 1.363 . S
C864 H841 0.950 . S
C864 C863 1.397 . S
C864 C865 1.334 . S
C865 H842 0.950 . S
C865 C864 1.334 . S
C865 C866 1.287 . S
C866 C865 1.287 . S
C866 C867 1.524 . S
C866 H885 0.913 . S
C867 H843 0.950 . S
C867 C866 1.524 . S
C867 C868 1.415 . S
C868 H844 0.950 . S
C868 C863 1.363 . S
C868 C867 1.415 . S
C869 H845 0.951 . S
C869 C870 1.366 . S
C869 C871 1.388 . S
C870 C869 1.366 . S
C870 C874 1.385 . S
C871 H846 0.951 . S
C871 C869 1.388 . S
C871 C872 1.366 . S
C872 C871 1.366 . S
C872 C873 1.414 . S
C872 C875 1.499 . S
C873 H847 0.950 . S
C873 C872 1.414 . S
C873 C874 1.374 . S
C874 H848 0.950 . S
C874 C870 1.385 . S
C874 C873 1.374 . S
C875 C872 1.499 . S
C875 C876 1.373 . S
C875 C877 1.389 . S
C876 H849 0.950 . S
C876 C862 1.377 . S
C876 C875 1.373 . S
C877 C861 1.377 . S
C877 C875 1.389 . S
C877 C878 1.524 . S
C878 C877 1.524 . S
C878 C879 1.397 . S
C878 C883 1.363 . S
C879 H850 0.950 . S
C879 C878 1.397 . S
C879 C880 1.334 . S
C880 H851 0.950 . S
C880 C879 1.334 . S
C880 C881 1.287 . S
C881 C880 1.287 . S
C881 C882 1.524 . S
C881 H884 0.999 . S
C882 H852 0.950 . S
C882 C881 1.524 . S
C882 C883 1.415 . S
C883 H853 0.950 . S
C883 C878 1.363 . S
C883 C882 1.415 . S
H884 C881 0.999 . S
H885 C866 0.913 . S
H886 C904 0.951 . S
H887 C906 0.951 . S
H888 C908 0.950 . S
H889 C909 0.950 . S
H890 C911 0.950 . S
H891 C914 0.950 . S
H892 C915 0.950 . S
H893 C917 0.950 . S
H894 C918 0.950 . S
H895 C919 0.951 . S
H896 C921 0.951 . S
H897 C923 0.950 . S
H898 C924 0.950 . S
H899 C926 0.950 . S
H900 C929 0.950 . S
H901 C930 0.950 . S
H902 C932 0.950 . S
H903 C933 0.950 . S
C904 H886 0.951 . S
C904 C905 1.366 . S
C904 C906 1.388 . S
C905 C904 1.366 . S
C905 C909 1.385 . S
C906 H887 0.951 . S
C906 C904 1.388 . S
C906 C907 1.366 . S
C907 C906 1.366 . S
C907 C908 1.414 . S
C907 C910 1.499 . S
C908 H888 0.950 . S
C908 C907 1.414 . S
C908 C909 1.374 . S
C909 H889 0.950 . S
C909 C905 1.385 . S
C909 C908 1.374 . S
C910 C907 1.499 . S
C910 C911 1.373 . S
C910 C912 1.389 . S
C911 H890 0.950 . S
C911 C910 1.373 . S
C911 C927 1.377 . S
C912 C910 1.389 . S
C912 C913 1.524 . S
C912 C926 1.377 . S
C913 C912 1.524 . S
C913 C914 1.397 . S
C913 C918 1.363 . S
C914 H891 0.950 . S
C914 C913 1.397 . S
C914 C915 1.334 . S
C915 H892 0.950 . S
C915 C914 1.334 . S
C915 C916 1.287 . S
C916 C915 1.287 . S
C916 C917 1.524 . S
C916 H935 0.913 . S
C917 H893 0.950 . S
C917 C916 1.524 . S
C917 C918 1.415 . S
C918 H894 0.950 . S
C918 C913 1.363 . S
C918 C917 1.415 . S
C919 H895 0.951 . S
C919 C920 1.366 . S
C919 C921 1.388 . S
C920 C919 1.366 . S
C920 C924 1.385 . S
C921 H896 0.951 . S
C921 C919 1.388 . S
C921 C922 1.366 . S
C922 C921 1.366 . S
C922 C923 1.414 . S
C922 C925 1.499 . S
C923 H897 0.950 . S
C923 C922 1.414 . S
C923 C924 1.374 . S
C924 H898 0.950 . S
C924 C920 1.385 . S
C924 C923 1.374 . S
C925 C922 1.499 . S
C925 C926 1.373 . S
C925 C927 1.389 . S
C926 H899 0.950 . S
C926 C912 1.377 . S
C926 C925 1.373 . S
C927 C911 1.377 . S
C927 C925 1.389 . S
C927 C928 1.524 . S
C928 C927 1.524 . S
C928 C929 1.397 . S
C928 C933 1.363 . S
C929 H900 0.950 . S
C929 C928 1.397 . S
C929 C930 1.334 . S
C930 H901 0.950 . S
C930 C929 1.334 . S
C930 C931 1.287 . S
C931 C930 1.287 . S
C931 C932 1.524 . S
C931 H934 0.999 . S
C932 H902 0.950 . S
C932 C931 1.524 . S
C932 C933 1.415 . S
C933 H903 0.950 . S
C933 C928 1.363 . S
C933 C932 1.415 . S
H934 C931 0.999 . S
H935 C916 0.913 . S
H936 C954 0.951 . S
H937 C956 0.951 . S
H938 C958 0.950 . S
H939 C959 0.950 . S
H940 C961 0.950 . S
H941 C964 0.950 . S
H942 C965 0.950 . S
H943 C967 0.950 . S
H944 C968 0.950 . S
H945 C969 0.951 . S
H946 C971 0.951 . S
H947 C973 0.950 . S
H948 C974 0.950 . S
H949 C976 0.950 . S
H950 C979 0.950 . S
H951 C980 0.950 . S
H952 C982 0.950 . S
H953 C983 0.950 . S
C954 H936 0.951 . S
C954 C955 1.366 . S
C954 C956 1.388 . S
C955 C954 1.366 . S
C955 C959 1.385 . S
C956 H937 0.951 . S
C956 C954 1.388 . S
C956 C957 1.366 . S
C957 C956 1.366 . S
C957 C958 1.414 . S
C957 C960 1.499 . S
C958 H938 0.950 . S
C958 C957 1.414 . S
C958 C959 1.374 . S
C959 H939 0.950 . S
C959 C955 1.385 . S
C959 C958 1.374 . S
C960 C957 1.499 . S
C960 C961 1.373 . S
C960 C962 1.389 . S
C961 H940 0.950 . S
C961 C960 1.373 . S
C961 C977 1.377 . S
C962 C960 1.389 . S
C962 C963 1.524 . S
C962 C976 1.377 . S
C963 C962 1.524 . S
C963 C964 1.397 . S
C963 C968 1.363 . S
C964 H941 0.950 . S
C964 C963 1.397 . S
C964 C965 1.334 . S
C965 H942 0.950 . S
C965 C964 1.334 . S
C965 C966 1.287 . S
C966 C965 1.287 . S
C966 C967 1.524 . S
C966 H985 0.913 . S
C967 H943 0.950 . S
C967 C966 1.524 . S
C967 C968 1.415 . S
C968 H944 0.950 . S
C968 C963 1.363 . S
C968 C967 1.415 . S
C969 H945 0.951 . S
C969 C970 1.366 . S
C969 C971 1.388 . S
C970 C969 1.366 . S
C970 C974 1.385 . S
C971 H946 0.951 . S
C971 C969 1.388 . S
C971 C972 1.366 . S
C972 C971 1.366 . S
C972 C973 1.414 . S
C972 C975 1.499 . S
C973 H947 0.950 . S
C973 C972 1.414 . S
C973 C974 1.374 . S
C974 H948 0.950 . S
C974 C970 1.385 . S
C974 C973 1.374 . S
C975 C972 1.499 . S
C975 C976 1.373 . S
C975 C977 1.389 . S
C976 H949 0.950 . S
C976 C962 1.377 . S
C976 C975 1.373 . S
C977 C961 1.377 . S
C977 C975 1.389 . S
C977 C978 1.524 . S
C978 C977 1.524 . S
C978 C979 1.397 . S
C978 C983 1.363 . S
C979 H950 0.950 . S
C979 C978 1.397 . S
C979 C980 1.334 . S
C980 H951 0.950 . S
C980 C979 1.334 . S
C980 C981 1.287 . S
C981 C980 1.287 . S
C981 C982 1.524 . S
C981 H984 0.999 . S
C982 H952 0.950 . S
C982 C981 1.524 . S
C982 C983 1.415 . S
C983 H953 0.950 . S
C983 C978 1.363 . S
C983 C982 1.415 . S
H984 C981 0.999 . S
H985 C966 0.913 . S
H986 C1004 0.951 . S
H987 C1006 0.951 . S
H988 C1008 0.950 . S
H989 C1009 0.950 . S
H990 C1011 0.950 . S
H991 C1014 0.950 . S
H992 C1015 0.950 . S
H993 C1017 0.950 . S
H994 C1018 0.950 . S
H995 C1019 0.951 . S
H996 C1021 0.951 . S
H997 C1023 0.950 . S
H998 C1024 0.950 . S
H999 C1026 0.950 . S
H1000 C1029 0.950 . S
H1001 C1030 0.950 . S
H1002 C1032 0.950 . S
H1003 C1033 0.950 . S
C1004 H986 0.951 . S
C1004 C1005 1.366 . S
C1004 C1006 1.388 . S
C1005 C1004 1.366 . S
C1005 C1009 1.385 . S
C1006 H987 0.951 . S
C1006 C1004 1.388 . S
C1006 C1007 1.366 . S
C1007 C1006 1.366 . S
C1007 C1008 1.414 . S
C1007 C1010 1.499 . S
C1008 H988 0.950 . S
C1008 C1007 1.414 . S
C1008 C1009 1.374 . S
C1009 H989 0.950 . S
C1009 C1005 1.385 . S
C1009 C1008 1.374 . S
C1010 C1007 1.499 . S
C1010 C1011 1.373 . S
C1010 C1012 1.389 . S
C1011 H990 0.950 . S
C1011 C1010 1.373 . S
C1011 C1027 1.377 . S
C1012 C1010 1.389 . S
C1012 C1013 1.524 . S
C1012 C1026 1.377 . S
C1013 C1012 1.524 . S
C1013 C1014 1.397 . S
C1013 C1018 1.363 . S
C1014 H991 0.950 . S
C1014 C1013 1.397 . S
C1014 C1015 1.334 . S
C1015 H992 0.950 . S
C1015 C1014 1.334 . S
C1015 C1016 1.287 . S
C1016 C1015 1.287 . S
C1016 C1017 1.524 . S
C1016 H1035 0.913 . S
C1017 H993 0.950 . S
C1017 C1016 1.524 . S
C1017 C1018 1.415 . S
C1018 H994 0.950 . S
C1018 C1013 1.363 . S
C1018 C1017 1.415 . S
C1019 H995 0.951 . S
C1019 C1020 1.366 . S
C1019 C1021 1.388 . S
C1020 C1019 1.366 . S
C1020 C1024 1.385 . S
C1021 H996 0.951 . S
C1021 C1019 1.388 . S
C1021 C1022 1.366 . S
C1022 C1021 1.366 . S
C1022 C1023 1.414 . S
C1022 C1025 1.499 . S
C1023 H997 0.950 . S
C1023 C1022 1.414 . S
C1023 C1024 1.374 . S
C1024 H998 0.950 . S
C1024 C1020 1.385 . S
C1024 C1023 1.374 . S
C1025 C1022 1.499 . S
C1025 C1026 1.373 . S
C1025 C1027 1.389 . S
C1026 H999 0.950 . S
C1026 C1012 1.377 . S
C1026 C1025 1.373 . S
C1027 C1011 1.377 . S
C1027 C1025 1.389 . S
C1027 C1028 1.524 . S
C1028 C1027 1.524 . S
C1028 C1029 1.397 . S
C1028 C1033 1.363 . S
C1029 H1000 0.950 . S
C1029 C1028 1.397 . S
C1029 C1030 1.334 . S
C1030 H1001 0.950 . S
C1030 C1029 1.334 . S
C1030 C1031 1.287 . S
C1031 C1030 1.287 . S
C1031 C1032 1.524 . S
C1031 H1034 0.999 . S
C1032 H1002 0.950 . S
C1032 C1031 1.524 . S
C1032 C1033 1.415 . S
C1033 H1003 0.950 . S
C1033 C1028 1.363 . S
C1033 C1032 1.415 . S
H1034 C1031 0.999 . S
H1035 C1016 0.913 . S
H1036 C1054 0.951 . S
H1037 C1056 0.951 . S
H1038 C1058 0.950 . S
H1039 C1059 0.950 . S
H1040 C1061 0.950 . S
H1041 C1064 0.950 . S
H1042 C1065 0.950 . S
H1043 C1067 0.950 . S
H1044 C1068 0.950 . S
H1045 C1069 0.951 . S
H1046 C1071 0.951 . S
H1047 C1073 0.950 . S
H1048 C1074 0.950 . S
H1049 C1076 0.950 . S
H1050 C1079 0.950 . S
H1051 C1080 0.950 . S
H1052 C1082 0.950 . S
H1053 C1083 0.950 . S
C1054 H1036 0.951 . S
C1054 C1055 1.366 . S
C1054 C1056 1.388 . S
C1055 C1054 1.366 . S
C1055 C1059 1.385 . S
C1056 H1037 0.951 . S
C1056 C1054 1.388 . S
C1056 C1057 1.366 . S
C1057 C1056 1.366 . S
C1057 C1058 1.414 . S
C1057 C1060 1.499 . S
C1058 H1038 0.950 . S
C1058 C1057 1.414 . S
C1058 C1059 1.374 . S
C1059 H1039 0.950 . S
C1059 C1055 1.385 . S
C1059 C1058 1.374 . S
C1060 C1057 1.499 . S
C1060 C1061 1.373 . S
C1060 C1062 1.389 . S
C1061 H1040 0.950 . S
C1061 C1060 1.373 . S
C1061 C1077 1.377 . S
C1062 C1060 1.389 . S
C1062 C1063 1.524 . S
C1062 C1076 1.377 . S
C1063 C1062 1.524 . S
C1063 C1064 1.397 . S
C1063 C1068 1.363 . S
C1064 H1041 0.950 . S
C1064 C1063 1.397 . S
C1064 C1065 1.334 . S
C1065 H1042 0.950 . S
C1065 C1064 1.334 . S
C1065 C1066 1.287 . S
C1066 C1065 1.287 . S
C1066 C1067 1.524 . S
C1066 H1085 0.913 . S
C1067 H1043 0.950 . S
C1067 C1066 1.524 . S
C1067 C1068 1.415 . S
C1068 H1044 0.950 . S
C1068 C1063 1.363 . S
C1068 C1067 1.415 . S
C1069 H1045 0.951 . S
C1069 C1070 1.366 . S
C1069 C1071 1.388 . S
C1070 C1069 1.366 . S
C1070 C1074 1.385 . S
C1071 H1046 0.951 . S
C1071 C1069 1.388 . S
C1071 C1072 1.366 . S
C1072 C1071 1.366 . S
C1072 C1073 1.414 . S
C1072 C1075 1.499 . S
C1073 H1047 0.950 . S
C1073 C1072 1.414 . S
C1073 C1074 1.374 . S
C1074 H1048 0.950 . S
C1074 C1070 1.385 . S
C1074 C1073 1.374 . S
C1075 C1072 1.499 . S
C1075 C1076 1.373 . S
C1075 C1077 1.389 . S
C1076 H1049 0.950 . S
C1076 C1062 1.377 . S
C1076 C1075 1.373 . S
C1077 C1061 1.377 . S
C1077 C1075 1.389 . S
C1077 C1078 1.524 . S
C1078 C1077 1.524 . S
C1078 C1079 1.397 . S
C1078 C1083 1.363 . S
C1079 H1050 0.950 . S
C1079 C1078 1.397 . S
C1079 C1080 1.334 . S
C1080 H1051 0.950 . S
C1080 C1079 1.334 . S
C1080 C1081 1.287 . S
C1081 C1080 1.287 . S
C1081 C1082 1.524 . S
C1081 H1084 0.999 . S
C1082 H1052 0.950 . S
C1082 C1081 1.524 . S
C1082 C1083 1.415 . S
C1083 H1053 0.950 . S
C1083 C1078 1.363 . S
C1083 C1082 1.415 . S
H1084 C1081 0.999 . S
H1085 C1066 0.913 . S
H1086 C1104 0.951 . S
H1087 C1106 0.951 . S
H1088 C1108 0.950 . S
H1089 C1109 0.950 . S
H1090 C1111 0.950 . S
H1091 C1114 0.950 . S
H1092 C1115 0.950 . S
H1093 C1117 0.950 . S
H1094 C1118 0.950 . S
H1095 C1119 0.951 . S
H1096 C1121 0.951 . S
H1097 C1123 0.950 . S
H1098 C1124 0.950 . S
H1099 C1126 0.950 . S
H1100 C1129 0.950 . S
H1101 C1130 0.950 . S
H1102 C1132 0.950 . S
H1103 C1133 0.950 . S
C1104 H1086 0.951 . S
C1104 C1105 1.366 . S
C1104 C1106 1.388 . S
C1105 C1104 1.366 . S
C1105 C1109 1.385 . S
C1106 H1087 0.951 . S
C1106 C1104 1.388 . S
C1106 C1107 1.366 . S
C1107 C1106 1.366 . S
C1107 C1108 1.414 . S
C1107 C1110 1.499 . S
C1108 H1088 0.950 . S
C1108 C1107 1.414 . S
C1108 C1109 1.374 . S
C1109 H1089 0.950 . S
C1109 C1105 1.385 . S
C1109 C1108 1.374 . S
C1110 C1107 1.499 . S
C1110 C1111 1.373 . S
C1110 C1112 1.389 . S
C1111 H1090 0.950 . S
C1111 C1110 1.373 . S
C1111 C1127 1.377 . S
C1112 C1110 1.389 . S
C1112 C1113 1.524 . S
C1112 C1126 1.377 . S
C1113 C1112 1.524 . S
C1113 C1114 1.397 . S
C1113 C1118 1.363 . S
C1114 H1091 0.950 . S
C1114 C1113 1.397 . S
C1114 C1115 1.334 . S
C1115 H1092 0.950 . S
C1115 C1114 1.334 . S
C1115 C1116 1.287 1_455 S
C1116 C1115 1.287 1_655 S
C1116 C1117 1.524 . S
C1116 H1135 0.913 . S
C1117 H1093 0.950 . S
C1117 C1116 1.524 . S
C1117 C1118 1.415 1_655 S
C1118 H1094 0.950 . S
C1118 C1113 1.363 . S
C1118 C1117 1.415 1_455 S
C1119 H1095 0.951 . S
C1119 C1120 1.366 . S
C1119 C1121 1.388 . S
C1120 C1119 1.366 . S
C1120 C1124 1.385 . S
C1121 H1096 0.951 . S
C1121 C1119 1.388 . S
C1121 C1122 1.366 . S
C1122 C1121 1.366 . S
C1122 C1123 1.414 . S
C1122 C1125 1.499 . S
C1123 H1097 0.950 . S
C1123 C1122 1.414 . S
C1123 C1124 1.374 . S
C1124 H1098 0.950 . S
C1124 C1120 1.385 . S
C1124 C1123 1.374 . S
C1125 C1122 1.499 . S
C1125 C1126 1.373 . S
C1125 C1127 1.389 . S
C1126 H1099 0.950 . S
C1126 C1112 1.377 . S
C1126 C1125 1.373 . S
C1127 C1111 1.377 . S
C1127 C1125 1.389 . S
C1127 C1128 1.524 . S
C1128 C1127 1.524 . S
C1128 C1129 1.397 . S
C1128 C1133 1.363 . S
C1129 H1100 0.950 . S
C1129 C1128 1.397 . S
C1129 C1130 1.334 . S
C1130 H1101 0.950 . S
C1130 C1129 1.334 . S
C1130 C1131 1.287 . S
C1131 C1130 1.287 . S
C1131 C1132 1.524 . S
C1131 H1134 0.999 . S
C1132 H1102 0.950 . S
C1132 C1131 1.524 . S
C1132 C1133 1.415 . S
C1133 H1103 0.950 . S
C1133 C1128 1.363 . S
C1133 C1132 1.415 . S
H1134 C1131 0.999 . S
H1135 C1116 0.913 . S
H1136 C1154 0.951 . S
H1137 C1156 0.951 . S
H1138 C1158 0.950 . S
H1139 C1159 0.950 . S
H1140 C1161 0.950 . S
H1141 C1164 0.950 . S
H1142 C1165 0.950 . S
H1143 C1167 0.950 . S
H1144 C1168 0.950 . S
H1145 C1169 0.951 . S
H1146 C1171 0.951 . S
H1147 C1173 0.950 . S
H1148 C1174 0.950 . S
H1149 C1176 0.950 . S
H1150 C1179 0.950 . S
H1151 C1180 0.950 1_554 S
H1152 C1182 0.950 . S
H1153 C1183 0.950 . S
C1154 H1136 0.951 . S
C1154 C1155 1.366 . S
C1154 C1156 1.388 . S
C1155 C1154 1.366 . S
C1155 C1159 1.385 . S
C1156 H1137 0.951 . S
C1156 C1154 1.388 . S
C1156 C1157 1.366 . S
C1157 C1156 1.366 . S
C1157 C1158 1.414 . S
C1157 C1160 1.499 . S
C1158 H1138 0.950 . S
C1158 C1157 1.414 . S
C1158 C1159 1.374 . S
C1159 H1139 0.950 . S
C1159 C1155 1.385 . S
C1159 C1158 1.374 . S
C1160 C1157 1.499 . S
C1160 C1161 1.373 . S
C1160 C1162 1.389 . S
C1161 H1140 0.950 . S
C1161 C1160 1.373 . S
C1161 C1177 1.377 . S
C1162 C1160 1.389 . S
C1162 C1163 1.524 . S
C1162 C1176 1.377 . S
C1163 C1162 1.524 . S
C1163 C1164 1.397 . S
C1163 C1168 1.363 . S
C1164 H1141 0.950 . S
C1164 C1163 1.397 . S
C1164 C1165 1.334 . S
C1165 H1142 0.950 . S
C1165 C1164 1.334 . S
C1165 C1166 1.287 . S
C1166 C1165 1.287 . S
C1166 C1167 1.524 . S
C1166 H1185 0.913 . S
C1167 H1143 0.950 . S
C1167 C1166 1.524 . S
C1167 C1168 1.415 . S
C1168 H1144 0.950 . S
C1168 C1163 1.363 . S
C1168 C1167 1.415 . S
C1169 H1145 0.951 . S
C1169 C1170 1.366 . S
C1169 C1171 1.388 . S
C1170 C1169 1.366 . S
C1170 C1174 1.385 . S
C1171 H1146 0.951 . S
C1171 C1169 1.388 . S
C1171 C1172 1.366 . S
C1172 C1171 1.366 . S
C1172 C1173 1.414 . S
C1172 C1175 1.499 . S
C1173 H1147 0.950 . S
C1173 C1172 1.414 . S
C1173 C1174 1.374 . S
C1174 H1148 0.950 . S
C1174 C1170 1.385 . S
C1174 C1173 1.374 . S
C1175 C1172 1.499 . S
C1175 C1176 1.373 . S
C1175 C1177 1.389 . S
C1176 H1149 0.950 . S
C1176 C1162 1.377 . S
C1176 C1175 1.373 . S
C1177 C1161 1.377 . S
C1177 C1175 1.389 . S
C1177 C1178 1.524 . S
C1178 C1177 1.524 . S
C1178 C1179 1.397 . S
C1178 C1183 1.363 . S
C1179 H1150 0.950 . S
C1179 C1178 1.397 . S
C1179 C1180 1.334 . S
C1180 H1151 0.950 1_556 S
C1180 C1179 1.334 . S
C1180 C1181 1.287 . S
C1181 C1180 1.287 . S
C1181 C1182 1.524 . S
C1181 H1184 0.999 1_556 S
C1182 H1152 0.950 . S
C1182 C1181 1.524 . S
C1182 C1183 1.415 . S
C1183 H1153 0.950 . S
C1183 C1178 1.363 . S
C1183 C1182 1.415 . S
H1184 C1181 0.999 1_554 S
H1185 C1166 0.913 . S
H1186 C1204 0.951 . S
H1187 C1206 0.951 . S
H1188 C1208 0.950 . S
H1189 C1209 0.950 . S
H1190 C1211 0.950 . S
H1191 C1214 0.950 . S
H1192 C1215 0.950 . S
H1193 C1217 0.950 . S
H1194 C1218 0.950 . S
H1195 C1219 0.951 . S
H1196 C1221 0.951 . S
H1197 C1223 0.950 . S
H1198 C1224 0.950 . S
H1199 C1226 0.950 . S
H1200 C1229 0.950 . S
H1201 C1230 0.950 . S
H1202 C1232 0.950 . S
H1203 C1233 0.950 . S
C1204 H1186 0.951 . S
C1204 C1205 1.366 . S
C1204 C1206 1.388 . S
C1205 C1204 1.366 . S
C1205 C1209 1.385 . S
C1206 H1187 0.951 . S
C1206 C1204 1.388 . S
C1206 C1207 1.366 . S
C1207 C1206 1.366 . S
C1207 C1208 1.414 . S
C1207 C1210 1.499 . S
C1208 H1188 0.950 . S
C1208 C1207 1.414 . S
C1208 C1209 1.374 . S
C1209 H1189 0.950 . S
C1209 C1205 1.385 . S
C1209 C1208 1.374 . S
C1210 C1207 1.499 . S
C1210 C1211 1.373 . S
C1210 C1212 1.389 . S
C1211 H1190 0.950 . S
C1211 C1210 1.373 . S
C1211 C1227 1.377 . S
C1212 C1210 1.389 . S
C1212 C1213 1.524 . S
C1212 C1226 1.377 . S
C1213 C1212 1.524 . S
C1213 C1214 1.397 . S
C1213 C1218 1.363 . S
C1214 H1191 0.950 . S
C1214 C1213 1.397 . S
C1214 C1215 1.334 . S
C1215 H1192 0.950 . S
C1215 C1214 1.334 . S
C1215 C1216 1.287 . S
C1216 C1215 1.287 . S
C1216 C1217 1.524 . S
C1216 H1235 0.913 . S
C1217 H1193 0.950 . S
C1217 C1216 1.524 . S
C1217 C1218 1.415 . S
C1218 H1194 0.950 . S
C1218 C1213 1.363 . S
C1218 C1217 1.415 . S
C1219 H1195 0.951 . S
C1219 C1220 1.366 . S
C1219 C1221 1.388 . S
C1220 C1219 1.366 . S
C1220 C1224 1.385 . S
C1221 H1196 0.951 . S
C1221 C1219 1.388 . S
C1221 C1222 1.366 . S
C1222 C1221 1.366 . S
C1222 C1223 1.414 . S
C1222 C1225 1.499 . S
C1223 H1197 0.950 . S
C1223 C1222 1.414 . S
C1223 C1224 1.374 . S
C1224 H1198 0.950 . S
C1224 C1220 1.385 . S
C1224 C1223 1.374 . S
C1225 C1222 1.499 . S
C1225 C1226 1.373 . S
C1225 C1227 1.389 . S
C1226 H1199 0.950 . S
C1226 C1212 1.377 . S
C1226 C1225 1.373 . S
C1227 C1211 1.377 . S
C1227 C1225 1.389 . S
C1227 C1228 1.524 . S
C1228 C1227 1.524 . S
C1228 C1229 1.397 . S
C1228 C1233 1.363 . S
C1229 H1200 0.950 . S
C1229 C1228 1.397 . S
C1229 C1230 1.334 . S
C1230 H1201 0.950 . S
C1230 C1229 1.334 . S
C1230 C1231 1.287 . S
C1231 C1230 1.287 . S
C1231 C1232 1.524 . S
C1231 H1234 0.999 . S
C1232 H1202 0.950 . S
C1232 C1231 1.524 . S
C1232 C1233 1.415 . S
C1233 H1203 0.950 . S
C1233 C1228 1.363 . S
C1233 C1232 1.415 . S
H1234 C1231 0.999 . S
H1235 C1216 0.913 . S
H1236 C1254 0.951 . S
H1237 C1256 0.951 . S
H1238 C1258 0.950 . S
H1239 C1259 0.950 . S
H1240 C1261 0.950 . S
H1241 C1264 0.950 . S
H1242 C1265 0.950 . S
H1243 C1267 0.950 . S
H1244 C1268 0.950 . S
H1245 C1269 0.951 . S
H1246 C1271 0.951 . S
H1247 C1273 0.950 . S
H1248 C1274 0.950 . S
H1249 C1276 0.950 . S
H1250 C1279 0.950 . S
H1251 C1280 0.950 . S
H1252 C1282 0.950 . S
H1253 C1283 0.950 . S
C1254 H1236 0.951 . S
C1254 C1255 1.366 . S
C1254 C1256 1.388 . S
C1255 C1254 1.366 . S
C1255 C1259 1.385 . S
C1256 H1237 0.951 . S
C1256 C1254 1.388 . S
C1256 C1257 1.366 . S
C1257 C1256 1.366 . S
C1257 C1258 1.414 . S
C1257 C1260 1.499 . S
C1258 H1238 0.950 . S
C1258 C1257 1.414 . S
C1258 C1259 1.374 . S
C1259 H1239 0.950 . S
C1259 C1255 1.385 . S
C1259 C1258 1.374 . S
C1260 C1257 1.499 . S
C1260 C1261 1.373 . S
C1260 C1262 1.389 . S
C1261 H1240 0.950 . S
C1261 C1260 1.373 . S
C1261 C1277 1.377 . S
C1262 C1260 1.389 . S
C1262 C1263 1.524 . S
C1262 C1276 1.377 . S
C1263 C1262 1.524 . S
C1263 C1264 1.397 . S
C1263 C1268 1.363 . S
C1264 H1241 0.950 . S
C1264 C1263 1.397 . S
C1264 C1265 1.334 . S
C1265 H1242 0.950 . S
C1265 C1264 1.334 . S
C1265 C1266 1.287 . S
C1266 C1265 1.287 . S
C1266 C1267 1.524 . S
C1266 H1285 0.913 . S
C1267 H1243 0.950 . S
C1267 C1266 1.524 . S
C1267 C1268 1.415 . S
C1268 H1244 0.950 . S
C1268 C1263 1.363 . S
C1268 C1267 1.415 . S
C1269 H1245 0.951 . S
C1269 C1270 1.366 . S
C1269 C1271 1.388 . S
C1270 C1269 1.366 . S
C1270 C1274 1.385 . S
C1271 H1246 0.951 . S
C1271 C1269 1.388 . S
C1271 C1272 1.366 . S
C1272 C1271 1.366 . S
C1272 C1273 1.414 . S
C1272 C1275 1.499 . S
C1273 H1247 0.950 . S
C1273 C1272 1.414 . S
C1273 C1274 1.374 . S
C1274 H1248 0.950 . S
C1274 C1270 1.385 . S
C1274 C1273 1.374 . S
C1275 C1272 1.499 . S
C1275 C1276 1.373 . S
C1275 C1277 1.389 . S
C1276 H1249 0.950 . S
C1276 C1262 1.377 . S
C1276 C1275 1.373 . S
C1277 C1261 1.377 . S
C1277 C1275 1.389 . S
C1277 C1278 1.524 . S
C1278 C1277 1.524 . S
C1278 C1279 1.397 . S
C1278 C1283 1.363 . S
C1279 H1250 0.950 . S
C1279 C1278 1.397 . S
C1279 C1280 1.334 . S
C1280 H1251 0.950 . S
C1280 C1279 1.334 . S
C1280 C1281 1.287 . S
C1281 C1280 1.287 . S
C1281 C1282 1.524 . S
C1281 H1284 0.999 . S
C1282 H1252 0.950 . S
C1282 C1281 1.524 . S
C1282 C1283 1.415 . S
C1283 H1253 0.950 . S
C1283 C1278 1.363 . S
C1283 C1282 1.415 . S
H1284 C1281 0.999 . S
H1285 C1266 0.913 . S
H1286 C1304 0.951 . S
H1287 C1306 0.951 . S
H1288 C1308 0.950 . S
H1289 C1309 0.950 . S
H1290 C1311 0.950 . S
H1291 C1314 0.950 . S
H1292 C1315 0.950 . S
H1293 C1317 0.950 . S
H1294 C1318 0.950 . S
H1295 C1319 0.951 . S
H1296 C1321 0.951 . S
H1297 C1323 0.950 . S
H1298 C1324 0.950 . S
H1299 C1326 0.950 . S
H1300 C1329 0.950 . S
H1301 C1330 0.950 . S
H1302 C1332 0.950 . S
H1303 C1333 0.950 . S
C1304 H1286 0.951 . S
C1304 C1305 1.366 . S
C1304 C1306 1.388 . S
C1305 C1304 1.366 . S
C1305 C1309 1.385 . S
C1306 H1287 0.951 . S
C1306 C1304 1.388 . S
C1306 C1307 1.366 . S
C1307 C1306 1.366 . S
C1307 C1308 1.414 . S
C1307 C1310 1.499 . S
C1308 H1288 0.950 . S
C1308 C1307 1.414 . S
C1308 C1309 1.374 . S
C1309 H1289 0.950 . S
C1309 C1305 1.385 . S
C1309 C1308 1.374 . S
C1310 C1307 1.499 . S
C1310 C1311 1.373 . S
C1310 C1312 1.389 . S
C1311 H1290 0.950 . S
C1311 C1310 1.373 . S
C1311 C1327 1.377 . S
C1312 C1310 1.389 . S
C1312 C1313 1.524 . S
C1312 C1326 1.377 . S
C1313 C1312 1.524 . S
C1313 C1314 1.397 . S
C1313 C1318 1.363 . S
C1314 H1291 0.950 . S
C1314 C1313 1.397 . S
C1314 C1315 1.334 . S
C1315 H1292 0.950 . S
C1315 C1314 1.334 . S
C1315 C1316 1.287 . S
C1316 C1315 1.287 . S
C1316 C1317 1.524 . S
C1316 H1335 0.913 . S
C1317 H1293 0.950 . S
C1317 C1316 1.524 . S
C1317 C1318 1.415 . S
C1318 H1294 0.950 . S
C1318 C1313 1.363 . S
C1318 C1317 1.415 . S
C1319 H1295 0.951 . S
C1319 C1320 1.366 . S
C1319 C1321 1.388 . S
C1320 C1319 1.366 . S
C1320 C1324 1.385 . S
C1321 H1296 0.951 . S
C1321 C1319 1.388 . S
C1321 C1322 1.366 . S
C1322 C1321 1.366 . S
C1322 C1323 1.414 . S
C1322 C1325 1.499 . S
C1323 H1297 0.950 . S
C1323 C1322 1.414 . S
C1323 C1324 1.374 . S
C1324 H1298 0.950 . S
C1324 C1320 1.385 . S
C1324 C1323 1.374 . S
C1325 C1322 1.499 . S
C1325 C1326 1.373 . S
C1325 C1327 1.389 . S
C1326 H1299 0.950 . S
C1326 C1312 1.377 . S
C1326 C1325 1.373 . S
C1327 C1311 1.377 . S
C1327 C1325 1.389 . S
C1327 C1328 1.524 . S
C1328 C1327 1.524 . S
C1328 C1329 1.397 . S
C1328 C1333 1.363 . S
C1329 H1300 0.950 . S
C1329 C1328 1.397 . S
C1329 C1330 1.334 . S
C1330 H1301 0.950 . S
C1330 C1329 1.334 . S
C1330 C1331 1.287 . S
C1331 C1330 1.287 . S
C1331 C1332 1.524 . S
C1331 H1334 0.999 . S
C1332 H1302 0.950 . S
C1332 C1331 1.524 . S
C1332 C1333 1.415 . S
C1333 H1303 0.950 . S
C1333 C1328 1.363 . S
C1333 C1332 1.415 . S
H1334 C1331 0.999 . S
H1335 C1316 0.913 . S
H1336 C1354 0.951 . S
H1337 C1356 0.951 . S
H1338 C1358 0.950 . S
H1339 C1359 0.950 . S
H1340 C1361 0.950 . S
H1341 C1364 0.950 . S
H1342 C1365 0.950 . S
H1343 C1367 0.950 . S
H1344 C1368 0.950 . S
H1345 C1369 0.951 . S
H1346 C1371 0.951 . S
H1347 C1373 0.950 . S
H1348 C1374 0.950 . S
H1349 C1376 0.950 . S
H1350 C1379 0.950 . S
H1351 C1380 0.950 . S
H1352 C1382 0.950 . S
H1353 C1383 0.950 . S
C1354 H1336 0.951 . S
C1354 C1355 1.366 . S
C1354 C1356 1.388 . S
C1355 C1354 1.366 . S
C1355 C1359 1.385 . S
C1356 H1337 0.951 . S
C1356 C1354 1.388 . S
C1356 C1357 1.366 . S
C1357 C1356 1.366 . S
C1357 C1358 1.414 . S
C1357 C1360 1.499 . S
C1358 H1338 0.950 . S
C1358 C1357 1.414 . S
C1358 C1359 1.374 . S
C1359 H1339 0.950 . S
C1359 C1355 1.385 . S
C1359 C1358 1.374 . S
C1360 C1357 1.499 . S
C1360 C1361 1.373 . S
C1360 C1362 1.389 . S
C1361 H1340 0.950 . S
C1361 C1360 1.373 . S
C1361 C1377 1.377 . S
C1362 C1360 1.389 . S
C1362 C1363 1.524 . S
C1362 C1376 1.377 . S
C1363 C1362 1.524 . S
C1363 C1364 1.397 . S
C1363 C1368 1.363 . S
C1364 H1341 0.950 . S
C1364 C1363 1.397 . S
C1364 C1365 1.334 . S
C1365 H1342 0.950 . S
C1365 C1364 1.334 . S
C1365 C1366 1.287 . S
C1366 C1365 1.287 . S
C1366 C1367 1.524 . S
C1366 H1385 0.913 . S
C1367 H1343 0.950 . S
C1367 C1366 1.524 . S
C1367 C1368 1.415 . S
C1368 H1344 0.950 . S
C1368 C1363 1.363 . S
C1368 C1367 1.415 . S
C1369 H1345 0.951 . S
C1369 C1370 1.366 . S
C1369 C1371 1.388 . S
C1370 C1369 1.366 . S
C1370 C1374 1.385 . S
C1371 H1346 0.951 . S
C1371 C1369 1.388 . S
C1371 C1372 1.366 . S
C1372 C1371 1.366 . S
C1372 C1373 1.414 . S
C1372 C1375 1.499 . S
C1373 H1347 0.950 . S
C1373 C1372 1.414 . S
C1373 C1374 1.374 . S
C1374 H1348 0.950 . S
C1374 C1370 1.385 . S
C1374 C1373 1.374 . S
C1375 C1372 1.499 . S
C1375 C1376 1.373 . S
C1375 C1377 1.389 . S
C1376 H1349 0.950 . S
C1376 C1362 1.377 . S
C1376 C1375 1.373 . S
C1377 C1361 1.377 . S
C1377 C1375 1.389 . S
C1377 C1378 1.524 . S
C1378 C1377 1.524 . S
C1378 C1379 1.397 . S
C1378 C1383 1.363 . S
C1379 H1350 0.950 . S
C1379 C1378 1.397 . S
C1379 C1380 1.334 . S
C1380 H1351 0.950 . S
C1380 C1379 1.334 . S
C1380 C1381 1.287 . S
C1381 C1380 1.287 . S
C1381 C1382 1.524 . S
C1381 H1384 0.999 . S
C1382 H1352 0.950 . S
C1382 C1381 1.524 . S
C1382 C1383 1.415 . S
C1383 H1353 0.950 . S
C1383 C1378 1.363 . S
C1383 C1382 1.415 . S
H1384 C1381 0.999 . S
H1385 C1366 0.913 . S
H1386 C1404 0.951 . S
H1387 C1406 0.951 . S
H1388 C1408 0.950 . S
H1389 C1409 0.950 . S
H1390 C1411 0.950 . S
H1391 C1414 0.950 . S
H1392 C1415 0.950 . S
H1393 C1417 0.950 . S
H1394 C1418 0.950 . S
H1395 C1419 0.951 . S
H1396 C1421 0.951 . S
H1397 C1423 0.950 . S
H1398 C1424 0.950 . S
H1399 C1426 0.950 . S
H1400 C1429 0.950 . S
H1401 C1430 0.950 . S
H1402 C1432 0.950 . S
H1403 C1433 0.950 . S
C1404 H1386 0.951 . S
C1404 C1405 1.366 . S
C1404 C1406 1.388 . S
C1405 C1404 1.366 . S
C1405 C1409 1.385 . S
C1406 H1387 0.951 . S
C1406 C1404 1.388 . S
C1406 C1407 1.366 . S
C1407 C1406 1.366 . S
C1407 C1408 1.414 . S
C1407 C1410 1.499 . S
C1408 H1388 0.950 . S
C1408 C1407 1.414 . S
C1408 C1409 1.374 . S
C1409 H1389 0.950 . S
C1409 C1405 1.385 . S
C1409 C1408 1.374 . S
C1410 C1407 1.499 . S
C1410 C1411 1.373 . S
C1410 C1412 1.389 . S
C1411 H1390 0.950 . S
C1411 C1410 1.373 . S
C1411 C1427 1.377 . S
C1412 C1410 1.389 . S
C1412 C1413 1.524 . S
C1412 C1426 1.377 . S
C1413 C1412 1.524 . S
C1413 C1414 1.397 . S
C1413 C1418 1.363 . S
C1414 H1391 0.950 . S
C1414 C1413 1.397 . S
C1414 C1415 1.334 . S
C1415 H1392 0.950 . S
C1415 C1414 1.334 . S
C1415 C1416 1.287 . S
C1416 C1415 1.287 . S
C1416 C1417 1.524 . S
C1416 H1435 0.913 . S
C1417 H1393 0.950 . S
C1417 C1416 1.524 . S
C1417 C1418 1.415 . S
C1418 H1394 0.950 . S
C1418 C1413 1.363 . S
C1418 C1417 1.415 . S
C1419 H1395 0.951 . S
C1419 C1420 1.366 . S
C1419 C1421 1.388 . S
C1420 C1419 1.366 . S
C1420 C1424 1.385 . S
C1421 H1396 0.951 . S
C1421 C1419 1.388 . S
C1421 C1422 1.366 . S
C1422 C1421 1.366 . S
C1422 C1423 1.414 . S
C1422 C1425 1.499 . S
C1423 H1397 0.950 . S
C1423 C1422 1.414 . S
C1423 C1424 1.374 . S
C1424 H1398 0.950 . S
C1424 C1420 1.385 . S
C1424 C1423 1.374 . S
C1425 C1422 1.499 . S
C1425 C1426 1.373 . S
C1425 C1427 1.389 . S
C1426 H1399 0.950 . S
C1426 C1412 1.377 . S
C1426 C1425 1.373 . S
C1427 C1411 1.377 . S
C1427 C1425 1.389 . S
C1427 C1428 1.524 . S
C1428 C1427 1.524 . S
C1428 C1429 1.397 . S
C1428 C1433 1.363 . S
C1429 H1400 0.950 . S
C1429 C1428 1.397 . S
C1429 C1430 1.334 . S
C1430 H1401 0.950 . S
C1430 C1429 1.334 . S
C1430 C1431 1.287 . S
C1431 C1430 1.287 . S
C1431 C1432 1.524 . S
C1431 H1434 0.999 . S
C1432 H1402 0.950 . S
C1432 C1431 1.524 . S
C1432 C1433 1.415 . S
C1433 H1403 0.950 . S
C1433 C1428 1.363 . S
C1433 C1432 1.415 . S
H1434 C1431 0.999 . S
H1435 C1416 0.913 . S
H1436 C1454 0.951 . S
H1437 C1456 0.951 . S
H1438 C1458 0.950 . S
H1439 C1459 0.950 . S
H1440 C1461 0.950 . S
H1441 C1464 0.950 . S
H1442 C1465 0.950 . S
H1443 C1467 0.950 1_655 S
H1444 C1468 0.950 . S
H1445 C1469 0.951 . S
H1446 C1471 0.951 . S
H1447 C1473 0.950 . S
H1448 C1474 0.950 1_655 S
H1449 C1476 0.950 . S
H1450 C1479 0.950 . S
H1451 C1480 0.950 . S
H1452 C1482 0.950 . S
H1453 C1483 0.950 . S
C1454 H1436 0.951 . S
C1454 C1455 1.366 . S
C1454 C1456 1.388 . S
C1455 C1454 1.366 . S
C1455 C1459 1.385 . S
C1456 H1437 0.951 . S
C1456 C1454 1.388 . S
C1456 C1457 1.366 . S
C1457 C1456 1.366 . S
C1457 C1458 1.414 . S
C1457 C1460 1.499 . S
C1458 H1438 0.950 . S
C1458 C1457 1.414 . S
C1458 C1459 1.374 . S
C1459 H1439 0.950 . S
C1459 C1455 1.385 . S
C1459 C1458 1.374 . S
C1460 C1457 1.499 . S
C1460 C1461 1.373 . S
C1460 C1462 1.389 . S
C1461 H1440 0.950 . S
C1461 C1460 1.373 . S
C1461 C1477 1.377 . S
C1462 C1460 1.389 . S
C1462 C1463 1.524 . S
C1462 C1476 1.377 . S
C1463 C1462 1.524 . S
C1463 C1464 1.397 . S
C1463 C1468 1.363 . S
C1464 H1441 0.950 . S
C1464 C1463 1.397 . S
C1464 C1465 1.334 . S
C1465 H1442 0.950 . S
C1465 C1464 1.334 . S
C1465 C1466 1.287 . S
C1466 C1465 1.287 . S
C1466 C1467 1.524 . S
C1466 H1485 0.913 . S
C1467 H1443 0.950 1_455 S
C1467 C1466 1.524 . S
C1467 C1468 1.415 . S
C1468 H1444 0.950 . S
C1468 C1463 1.363 . S
C1468 C1467 1.415 . S
C1469 H1445 0.951 . S
C1469 C1470 1.366 . S
C1469 C1471 1.388 . S
C1470 C1469 1.366 . S
C1470 C1474 1.385 . S
C1471 H1446 0.951 . S
C1471 C1469 1.388 . S
C1471 C1472 1.366 . S
C1472 C1471 1.366 . S
C1472 C1473 1.414 . S
C1472 C1475 1.499 . S
C1473 H1447 0.950 . S
C1473 C1472 1.414 . S
C1473 C1474 1.374 . S
C1474 H1448 0.950 1_455 S
C1474 C1470 1.385 . S
C1474 C1473 1.374 . S
C1475 C1472 1.499 . S
C1475 C1476 1.373 . S
C1475 C1477 1.389 . S
C1476 H1449 0.950 . S
C1476 C1462 1.377 . S
C1476 C1475 1.373 . S
C1477 C1461 1.377 . S
C1477 C1475 1.389 . S
C1477 C1478 1.524 . S
C1478 C1477 1.524 . S
C1478 C1479 1.397 . S
C1478 C1483 1.363 . S
C1479 H1450 0.950 . S
C1479 C1478 1.397 . S
C1479 C1480 1.334 . S
C1480 H1451 0.950 . S
C1480 C1479 1.334 . S
C1480 C1481 1.287 . S
C1481 C1480 1.287 . S
C1481 C1482 1.524 . S
C1481 H1484 0.999 . S
C1482 H1452 0.950 . S
C1482 C1481 1.524 . S
C1482 C1483 1.415 . S
C1483 H1453 0.950 . S
C1483 C1478 1.363 . S
C1483 C1482 1.415 . S
H1484 C1481 0.999 . S
H1485 C1466 0.913 . S
H1486 C1504 0.951 . S
H1487 C1506 0.951 . S
H1488 C1508 0.950 . S
H1489 C1509 0.950 . S
H1490 C1511 0.950 . S
H1491 C1514 0.950 . S
H1492 C1515 0.950 . S
H1493 C1517 0.950 . S
H1494 C1518 0.950 . S
H1495 C1519 0.951 . S
H1496 C1521 0.951 . S
H1497 C1523 0.950 . S
H1498 C1524 0.950 . S
H1499 C1526 0.950 . S
H1500 C1529 0.950 . S
H1501 C1530 0.950 . S
H1502 C1532 0.950 . S
H1503 C1533 0.950 . S
C1504 H1486 0.951 . S
C1504 C1505 1.366 . S
C1504 C1506 1.388 . S
C1505 C1504 1.366 . S
C1505 C1509 1.385 . S
C1506 H1487 0.951 . S
C1506 C1504 1.388 . S
C1506 C1507 1.366 . S
C1507 C1506 1.366 . S
C1507 C1508 1.414 . S
C1507 C1510 1.499 . S
C1508 H1488 0.950 . S
C1508 C1507 1.414 . S
C1508 C1509 1.374 . S
C1509 H1489 0.950 . S
C1509 C1505 1.385 . S
C1509 C1508 1.374 . S
C1510 C1507 1.499 . S
C1510 C1511 1.373 . S
C1510 C1512 1.389 . S
C1511 H1490 0.950 . S
C1511 C1510 1.373 . S
C1511 C1527 1.377 . S
C1512 C1510 1.389 . S
C1512 C1513 1.524 . S
C1512 C1526 1.377 . S
C1513 C1512 1.524 . S
C1513 C1514 1.397 . S
C1513 C1518 1.363 . S
C1514 H1491 0.950 . S
C1514 C1513 1.397 . S
C1514 C1515 1.334 . S
C1515 H1492 0.950 . S
C1515 C1514 1.334 . S
C1515 C1516 1.287 . S
C1516 C1515 1.287 . S
C1516 C1517 1.524 . S
C1516 H1535 0.913 . S
C1517 H1493 0.950 . S
C1517 C1516 1.524 . S
C1517 C1518 1.415 . S
C1518 H1494 0.950 . S
C1518 C1513 1.363 . S
C1518 C1517 1.415 . S
C1519 H1495 0.951 . S
C1519 C1520 1.366 . S
C1519 C1521 1.388 . S
C1520 C1519 1.366 . S
C1520 C1524 1.385 . S
C1521 H1496 0.951 . S
C1521 C1519 1.388 . S
C1521 C1522 1.366 . S
C1522 C1521 1.366 . S
C1522 C1523 1.414 . S
C1522 C1525 1.499 . S
C1523 H1497 0.950 . S
C1523 C1522 1.414 . S
C1523 C1524 1.374 . S
C1524 H1498 0.950 . S
C1524 C1520 1.385 . S
C1524 C1523 1.374 . S
C1525 C1522 1.499 . S
C1525 C1526 1.373 . S
C1525 C1527 1.389 . S
C1526 H1499 0.950 . S
C1526 C1512 1.377 . S
C1526 C1525 1.373 . S
C1527 C1511 1.377 . S
C1527 C1525 1.389 . S
C1527 C1528 1.524 . S
C1528 C1527 1.524 . S
C1528 C1529 1.397 . S
C1528 C1533 1.363 . S
C1529 H1500 0.950 . S
C1529 C1528 1.397 . S
C1529 C1530 1.334 . S
C1530 H1501 0.950 . S
C1530 C1529 1.334 . S
C1530 C1531 1.287 . S
C1531 C1530 1.287 . S
C1531 C1532 1.524 . S
C1531 H1534 0.999 . S
C1532 H1502 0.950 . S
C1532 C1531 1.524 . S
C1532 C1533 1.415 . S
C1533 H1503 0.950 . S
C1533 C1528 1.363 . S
C1533 C1532 1.415 . S
H1534 C1531 0.999 . S
H1535 C1516 0.913 . S
C355 C29 1.566 . S
C370 C258 1.550 . S
C405 C49 1.325 . S
C420 C277 1.310 . S
C470 C314 1.758 . S
C455 C93 1.738 . S
C505 C119 1.571 . S
C520 C324 1.575 . S
C570 C294 1.955 . S
C555 C17 1.960 . S
C620 C264 1.470 . S
C605 C61 1.531 . S
C670 C335 1.465 . S
C655 C81 1.462 . S
C720 C305 1.395 . S
C705 C125 1.374 . S
C755 C23 1.741 . S
C770 C318 1.725 . S
C820 C285 1.667 . S
C805 C87 1.682 . S
C855 C113 1.715 . S
C870 C275 1.759 . S
C905 C55 1.200 . S
C920 C297 1.203 . S
C970 C257 1.496 . S
C955 C157 1.402 . S
C1005 C189 1.344 . S
C1020 C278 1.364 . S
C1055 C221 1.719 . S
C1070 C315 1.722 . S
C1105 C253 1.639 . S
C1120 C325 1.653 . S
C1155 C145 1.918 . S
C1170 C295 2.024 . S
C1220 C265 1.402 . S
C1205 C183 1.413 . S
C1270 C334 1.511 . S
C1255 C209 1.510 . S
C1320 C304 1.340 . S
C1305 C247 1.325 . S
C1355 C151 1.653 . S
C1370 C317 1.736 . S
C1420 C284 1.666 . S
C1405 C215 1.690 . S
C1470 C274 1.716 . S
C1455 C241 1.672 . S
C1505 C177 1.197 . S
C1520 C298 1.213 . S
