# Generated by pormake.
# Topology eea, (3,6)-cn, num edge types: 1
# Building blocks:
#     Node 0, Type 0, BuildingBlock: PAMTOO_clean_linker_0, # of connection points: 3
#     Node 1, Type 0, BuildingBlock: PAMTOO_clean_linker_0, # of connection points: 3
#     Node 2, Type 0, BuildingBlock: PAMTOO_clean_linker_0, # of connection points: 3
#     Node 3, Type 0, BuildingBlock: PAMTOO_clean_linker_0, # of connection points: 3
#     Node 4, Type 0, BuildingBlock: PAMTOO_clean_linker_0, # of connection points: 3
#     Node 5, Type 0, BuildingBlock: PAMTOO_clean_linker_0, # of connection points: 3
#     Node 6, Type 0, BuildingBlock: PAMTOO_clean_linker_0, # of connection points: 3
#     Node 7, Type 0, BuildingBlock: PAMTOO_clean_linker_0, # of connection points: 3
#     Node 8, Type 0, BuildingBlock: PAMTOO_clean_linker_0, # of connection points: 3
#     Node 9, Type 0, BuildingBlock: PAMTOO_clean_linker_0, # of connection points: 3
#     Node 10, Type 0, BuildingBlock: PAMTOO_clean_linker_0, # of connection points: 3
#     Node 11, Type 0, BuildingBlock: PAMTOO_clean_linker_0, # of connection points: 3
#     Node 12, Type 0, BuildingBlock: PAMTOO_clean_linker_0, # of connection points: 3
#     Node 13, Type 0, BuildingBlock: PAMTOO_clean_linker_0, # of connection points: 3
#     Node 14, Type 0, BuildingBlock: PAMTOO_clean_linker_0, # of connection points: 3
#     Node 15, Type 0, BuildingBlock: PAMTOO_clean_linker_0, # of connection points: 3
#     Node 16, Type 0, BuildingBlock: PAMTOO_clean_linker_0, # of connection points: 3
#     Node 17, Type 0, BuildingBlock: PAMTOO_clean_linker_0, # of connection points: 3
#     Node 18, Type 1, BuildingBlock: CUWYAW_clean_sbu_0, # of connection points: 6
#     Node 19, Type 1, BuildingBlock: CUWYAW_clean_sbu_0, # of connection points: 6
#     Node 20, Type 1, BuildingBlock: CUWYAW_clean_sbu_0, # of connection points: 6
#     Node 21, Type 1, BuildingBlock: CUWYAW_clean_sbu_0, # of connection points: 6
#     Node 22, Type 1, BuildingBlock: CUWYAW_clean_sbu_0, # of connection points: 6
#     Node 23, Type 1, BuildingBlock: CUWYAW_clean_sbu_0, # of connection points: 6
#     Node 24, Type 1, BuildingBlock: CUWYAW_clean_sbu_0, # of connection points: 6
#     Node 25, Type 1, BuildingBlock: CUWYAW_clean_sbu_0, # of connection points: 6
#     Node 26, Type 1, BuildingBlock: CUWYAW_clean_sbu_0, # of connection points: 6
#     Edge 27, Type (0, 1), BuildingBlock: UVAHIK_clean_linker_0, # of connection points: 2
#     Edge 28, Type (0, 1), BuildingBlock: UVAHIK_clean_linker_0, # of connection points: 2
#     Edge 29, Type (0, 1), BuildingBlock: UVAHIK_clean_linker_0, # of connection points: 2
#     Edge 30, Type (0, 1), BuildingBlock: UVAHIK_clean_linker_0, # of connection points: 2
#     Edge 31, Type (0, 1), BuildingBlock: UVAHIK_clean_linker_0, # of connection points: 2
#     Edge 32, Type (0, 1), BuildingBlock: UVAHIK_clean_linker_0, # of connection points: 2
#     Edge 33, Type (0, 1), BuildingBlock: UVAHIK_clean_linker_0, # of connection points: 2
#     Edge 34, Type (0, 1), BuildingBlock: UVAHIK_clean_linker_0, # of connection points: 2
#     Edge 35, Type (0, 1), BuildingBlock: UVAHIK_clean_linker_0, # of connection points: 2
#     Edge 36, Type (0, 1), BuildingBlock: UVAHIK_clean_linker_0, # of connection points: 2
#     Edge 37, Type (0, 1), BuildingBlock: UVAHIK_clean_linker_0, # of connection points: 2
#     Edge 38, Type (0, 1), BuildingBlock: UVAHIK_clean_linker_0, # of connection points: 2
#     Edge 39, Type (0, 1), BuildingBlock: UVAHIK_clean_linker_0, # of connection points: 2
#     Edge 40, Type (0, 1), BuildingBlock: UVAHIK_clean_linker_0, # of connection points: 2
#     Edge 41, Type (0, 1), BuildingBlock: UVAHIK_clean_linker_0, # of connection points: 2
#     Edge 42, Type (0, 1), BuildingBlock: UVAHIK_clean_linker_0, # of connection points: 2
#     Edge 43, Type (0, 1), BuildingBlock: UVAHIK_clean_linker_0, # of connection points: 2
#     Edge 44, Type (0, 1), BuildingBlock: UVAHIK_clean_linker_0, # of connection points: 2
#     Edge 45, Type (0, 1), BuildingBlock: UVAHIK_clean_linker_0, # of connection points: 2
#     Edge 46, Type (0, 1), BuildingBlock: UVAHIK_clean_linker_0, # of connection points: 2
#     Edge 47, Type (0, 1), BuildingBlock: UVAHIK_clean_linker_0, # of connection points: 2
#     Edge 48, Type (0, 1), BuildingBlock: UVAHIK_clean_linker_0, # of connection points: 2
#     Edge 49, Type (0, 1), BuildingBlock: UVAHIK_clean_linker_0, # of connection points: 2
#     Edge 50, Type (0, 1), BuildingBlock: UVAHIK_clean_linker_0, # of connection points: 2
#     Edge 51, Type (0, 1), BuildingBlock: UVAHIK_clean_linker_0, # of connection points: 2
#     Edge 52, Type (0, 1), BuildingBlock: UVAHIK_clean_linker_0, # of connection points: 2
#     Edge 53, Type (0, 1), BuildingBlock: UVAHIK_clean_linker_0, # of connection points: 2
#     Edge 54, Type (0, 1), BuildingBlock: UVAHIK_clean_linker_0, # of connection points: 2
#     Edge 55, Type (0, 1), BuildingBlock: UVAHIK_clean_linker_0, # of connection points: 2
#     Edge 56, Type (0, 1), BuildingBlock: UVAHIK_clean_linker_0, # of connection points: 2
#     Edge 57, Type (0, 1), BuildingBlock: UVAHIK_clean_linker_0, # of connection points: 2
#     Edge 58, Type (0, 1), BuildingBlock: UVAHIK_clean_linker_0, # of connection points: 2
#     Edge 59, Type (0, 1), BuildingBlock: UVAHIK_clean_linker_0, # of connection points: 2
#     Edge 60, Type (0, 1), BuildingBlock: UVAHIK_clean_linker_0, # of connection points: 2
#     Edge 61, Type (0, 1), BuildingBlock: UVAHIK_clean_linker_0, # of connection points: 2
#     Edge 62, Type (0, 1), BuildingBlock: UVAHIK_clean_linker_0, # of connection points: 2
#     Edge 63, Type (0, 1), BuildingBlock: UVAHIK_clean_linker_0, # of connection points: 2
#     Edge 64, Type (0, 1), BuildingBlock: UVAHIK_clean_linker_0, # of connection points: 2
#     Edge 65, Type (0, 1), BuildingBlock: UVAHIK_clean_linker_0, # of connection points: 2
#     Edge 66, Type (0, 1), BuildingBlock: UVAHIK_clean_linker_0, # of connection points: 2
#     Edge 67, Type (0, 1), BuildingBlock: UVAHIK_clean_linker_0, # of connection points: 2
#     Edge 68, Type (0, 1), BuildingBlock: UVAHIK_clean_linker_0, # of connection points: 2
#     Edge 69, Type (0, 1), BuildingBlock: UVAHIK_clean_linker_0, # of connection points: 2
#     Edge 70, Type (0, 1), BuildingBlock: UVAHIK_clean_linker_0, # of connection points: 2
#     Edge 71, Type (0, 1), BuildingBlock: UVAHIK_clean_linker_0, # of connection points: 2
#     Edge 72, Type (0, 1), BuildingBlock: UVAHIK_clean_linker_0, # of connection points: 2
#     Edge 73, Type (0, 1), BuildingBlock: UVAHIK_clean_linker_0, # of connection points: 2
#     Edge 74, Type (0, 1), BuildingBlock: UVAHIK_clean_linker_0, # of connection points: 2
#     Edge 75, Type (0, 1), BuildingBlock: UVAHIK_clean_linker_0, # of connection points: 2
#     Edge 76, Type (0, 1), BuildingBlock: UVAHIK_clean_linker_0, # of connection points: 2
#     Edge 77, Type (0, 1), BuildingBlock: UVAHIK_clean_linker_0, # of connection points: 2
#     Edge 78, Type (0, 1), BuildingBlock: UVAHIK_clean_linker_0, # of connection points: 2
#     Edge 79, Type (0, 1), BuildingBlock: UVAHIK_clean_linker_0, # of connection points: 2
#     Edge 80, Type (0, 1), BuildingBlock: UVAHIK_clean_linker_0, # of connection points: 2
# Relax obj value: 0.055
# Max RMSD: 0.195
# Mean RMSD: 0.137
data_MOF--net-eea--node1-CUWYAW_clean_sbu_0--node2-PAMTOO_clean_linker_0--edge1-UVAHIK_clean_linker_0
_symmetry_space_group_name_H-M    P1
_symmetry_Int_Tables_number       1
_symmetry_cell_setting            triclinic
loop_
_symmetry_equiv_pos_as_xyz
'x, y, z'
_cell_length_a     71.154603
_cell_length_b     70.860942
_cell_length_c     85.577791
_cell_angle_alpha  93.387837
_cell_angle_beta   93.521651
_cell_angle_gamma 119.83723
loop_
_atom_site_label
_atom_site_type_symbol
_atom_site_fract_x
_atom_site_fract_y
_atom_site_fract_z
_atom_type_partial_charge
H0 H 0.23395 0.08456 0.41916 0.0
H1 H 0.23611 0.14648 0.42131 0.0
H2 H 0.2178 0.10663 0.37725 0.0
H3 H 0.24296 0.15317 0.37351 0.0
C4 C 0.23982 0.15992 0.38446 0.0
O5 O 0.22366 0.14313 0.39146 0.0
H6 H 0.25518 0.16827 0.39258 0.0
C7 C 0.23207 0.0968 0.41335 0.0
C8 C 0.22559 0.09321 0.39708 0.0
C9 C 0.23593 0.11594 0.42223 0.0
C10 C 0.23344 0.13172 0.41465 0.0
C11 C 0.22686 0.12825 0.39849 0.0
C12 C 0.22284 0.10904 0.38975 0.0
H13 H 0.92841 0.16056 0.42979 0.0
H14 H 0.87109 0.09666 0.42084 0.0
H15 H 0.91421 0.12224 0.38508 0.0
H16 H 0.86882 0.09444 0.3709 0.0
C17 C 0.86186 0.08706 0.38175 0.0
O18 O 0.87833 0.08901 0.39231 0.0
H19 H 0.8541 0.09606 0.38677 0.0
C20 C 0.91789 0.14591 0.4219 0.0
C21 C 0.92371 0.14367 0.40677 0.0
C22 C 0.89904 0.12901 0.42718 0.0
C23 C 0.88582 0.10979 0.41708 0.0
C24 C 0.8913 0.1075 0.40195 0.0
C25 C 0.91024 0.12428 0.39686 0.0
H26 H 0.85054 0.76534 0.43664 0.0
H27 H 0.91268 0.76822 0.44048 0.0
H28 H 0.8907 0.78494 0.3985 0.0
H29 H 0.9099 0.75585 0.39405 0.0
C30 C 0.9228 0.76323 0.40419 0.0
O31 O 0.92165 0.77997 0.41231 0.0
H32 H 0.92004 0.75031 0.41204 0.0
C33 C 0.86543 0.76854 0.43174 0.0
C34 C 0.86881 0.77548 0.41664 0.0
C35 C 0.88121 0.76603 0.44059 0.0
C36 C 0.90022 0.76996 0.43389 0.0
C37 C 0.90345 0.77648 0.41869 0.0
C38 C 0.88793 0.77955 0.41016 0.0
H39 H 0.07457 0.23267 0.58211 0.0
H40 H 0.13186 0.22672 0.58898 0.0
H41 H 0.09186 0.21648 0.62648 0.0
H42 H 0.13973 0.23863 0.638 0.0
C43 C 0.14498 0.23461 0.62692 0.0
O44 O 0.12699 0.21773 0.61796 0.0
H45 H 0.15248 0.2495 0.62053 0.0
C46 C 0.08532 0.2294 0.5895 0.0
C47 C 0.0806 0.22408 0.60492 0.0
C48 C 0.10389 0.23063 0.5836 0.0
C49 C 0.11762 0.22623 0.59328 0.0
C50 C 0.11326 0.22127 0.60867 0.0
C51 C 0.09483 0.22014 0.61446 0.0
H52 H 0.77086 0.84723 0.60381 0.0
H53 H 0.77182 0.90864 0.60769 0.0
H54 H 0.79043 0.88696 0.64836 0.0
H55 H 0.76938 0.91264 0.65693 0.0
C56 C 0.7706 0.92004 0.64567 0.0
O57 O 0.78589 0.91831 0.6375 0.0
H58 H 0.75428 0.91101 0.63873 0.0
C59 C 0.77333 0.86162 0.61089 0.0
C60 C 0.78071 0.86489 0.62699 0.0
C61 C 0.77021 0.87735 0.60371 0.0
C62 C 0.77425 0.89635 0.61291 0.0
C63 C 0.78146 0.89968 0.62893 0.0
C64 C 0.78477 0.88408 0.63593 0.0
H65 H 0.1576 0.92254 0.59209 0.0
H66 H 0.09624 0.86209 0.58655 0.0
H67 H 0.11742 0.90293 0.63036 0.0
H68 H 0.09788 0.8553 0.63247 0.0
C69 C 0.08524 0.84906 0.62218 0.0
O70 O 0.08646 0.86649 0.61496 0.0
H71 H 0.08846 0.83863 0.61381 0.0
C72 C 0.14307 0.91076 0.59695 0.0
C73 C 0.13965 0.91514 0.61244 0.0
C74 C 0.1276 0.8917 0.58747 0.0
C75 C 0.10833 0.87697 0.5936 0.0
C76 C 0.10481 0.88103 0.60905 0.0
C77 C 0.12035 0.90009 0.6184 0.0
H78 H 0.90195 0.41973 0.75372 0.0
H79 H 0.90433 0.48175 0.75549 0.0
H80 H 0.88561 0.44133 0.71163 0.0
H81 H 0.91083 0.48762 0.70757 0.0
C82 C 0.90773 0.49462 0.71842 0.0
O83 O 0.89167 0.47803 0.72562 0.0
H84 H 0.92313 0.50319 0.72648 0.0
C85 C 0.90009 0.43192 0.74782 0.0
C86 C 0.89351 0.42815 0.73157 0.0
C87 C 0.90405 0.45117 0.7566 0.0
C88 C 0.90159 0.4669 0.74891 0.0
C89 C 0.8949 0.46324 0.73276 0.0
C90 C 0.89076 0.4439 0.72413 0.0
H91 H 0.59659 0.4951 0.76553 0.0
H92 H 0.53861 0.43169 0.75656 0.0
H93 H 0.58215 0.45645 0.72095 0.0
H94 H 0.53617 0.42942 0.70677 0.0
C95 C 0.52925 0.42194 0.71759 0.0
O96 O 0.54574 0.42375 0.72806 0.0
H97 H 0.52154 0.4309 0.72275 0.0
C98 C 0.58612 0.48033 0.75775 0.0
C99 C 0.59184 0.47795 0.74261 0.0
C100 C 0.56701 0.46372 0.76296 0.0
C101 C 0.55351 0.44462 0.75283 0.0
C102 C 0.5589 0.4422 0.73769 0.0
C103 C 0.57802 0.45875 0.73261 0.0
H104 H 0.52294 0.10738 0.77338 0.0
H105 H 0.58346 0.1074 0.77345 0.0
H106 H 0.55573 0.11799 0.73131 0.0
H107 H 0.57559 0.08978 0.72662 0.0
C108 C 0.58855 0.0973 0.73671 0.0
O109 O 0.58837 0.11504 0.74407 0.0
H110 H 0.58521 0.0848 0.74507 0.0
C111 C 0.53645 0.10891 0.76726 0.0
C112 C 0.53718 0.11291 0.75136 0.0
C113 C 0.55299 0.10682 0.77535 0.0
C114 C 0.57046 0.10883 0.76739 0.0
C115 C 0.57137 0.11287 0.75157 0.0
C116 C 0.55484 0.11498 0.74359 0.0
H117 H 0.74211 0.56726 0.91637 0.0
H118 H 0.79945 0.56128 0.92269 0.0
H119 H 0.75974 0.55058 0.96041 0.0
H120 H 0.80753 0.57295 0.97164 0.0
C121 C 0.81281 0.56885 0.9606 0.0
O122 O 0.79481 0.55201 0.95162 0.0
H123 H 0.82042 0.58371 0.95419 0.0
C124 C 0.75292 0.56391 0.92363 0.0
C125 C 0.7483 0.5584 0.93903 0.0
C126 C 0.77144 0.56522 0.91757 0.0
C127 C 0.78525 0.56073 0.9271 0.0
C128 C 0.781 0.5556 0.94247 0.0
C129 C 0.76261 0.55437 0.94841 0.0
H130 H 0.43625 0.18155 0.93625 0.0
H131 H 0.43849 0.24351 0.94137 0.0
H132 H 0.45804 0.22088 0.98107 0.0
H133 H 0.43777 0.24673 0.99092 0.0
C134 C 0.4385 0.25423 0.97976 0.0
O135 O 0.45342 0.2526 0.97106 0.0
H136 H 0.42194 0.24524 0.97317 0.0
C137 C 0.43926 0.19598 0.94359 0.0
C138 C 0.4473 0.19902 0.95952 0.0
C139 C 0.43617 0.21198 0.93685 0.0
C140 C 0.44087 0.23101 0.94629 0.0
C141 C 0.44861 0.23406 0.96219 0.0
C142 C 0.45194 0.21821 0.96875 0.0
H143 H 0.82492 0.25709 0.92515 0.0
H144 H 0.76362 0.19659 0.91999 0.0
H145 H 0.78511 0.23774 0.96365 0.0
H146 H 0.76549 0.19023 0.96612 0.0
C147 C 0.75304 0.18385 0.9557 0.0
O148 O 0.7541 0.20118 0.94844 0.0
H149 H 0.75664 0.17361 0.94744 0.0
C150 C 0.81045 0.24536 0.9301 0.0
C151 C 0.80716 0.24985 0.9456 0.0
C152 C 0.79492 0.22622 0.92072 0.0
C153 C 0.77574 0.21153 0.92696 0.0
C154 C 0.77235 0.2157 0.94242 0.0
C155 C 0.78793 0.23483 0.95167 0.0
H156 H 0.57869 0.75786 0.08699 0.0
H157 H 0.57894 0.81885 0.08889 0.0
H158 H 0.55631 0.77633 0.04586 0.0
H159 H 0.57991 0.82211 0.04047 0.0
C160 C 0.5778 0.82955 0.05155 0.0
O161 O 0.56286 0.8133 0.05965 0.0
H162 H 0.59387 0.83863 0.05881 0.0
C163 C 0.57596 0.76961 0.08119 0.0
C164 C 0.56727 0.76472 0.06531 0.0
C165 C 0.58018 0.78902 0.08987 0.0
C166 C 0.57575 0.80374 0.08245 0.0
C167 C 0.56726 0.79914 0.06662 0.0
C168 C 0.56291 0.77965 0.05811 0.0
H169 H 0.26384 0.82875 0.09818 0.0
H170 H 0.20527 0.76586 0.08829 0.0
H171 H 0.2486 0.79183 0.05276 0.0
H172 H 0.2022 0.76462 0.0386 0.0
C173 C 0.19559 0.75708 0.04948 0.0
O174 O 0.21232 0.75881 0.05964 0.0
H175 H 0.18802 0.76602 0.05491 0.0
C176 C 0.25312 0.81433 0.09017 0.0
C177 C 0.2586 0.81258 0.07483 0.0
C178 C 0.23397 0.79756 0.09525 0.0
C179 C 0.22023 0.77892 0.08475 0.0
C180 C 0.22549 0.77703 0.06948 0.0
C181 C 0.2446 0.79375 0.06455 0.0
H182 H 0.18561 0.43191 0.10562 0.0
H183 H 0.24664 0.4329 0.10545 0.0
H184 H 0.22208 0.45062 0.0654 0.0
H185 H 0.24256 0.42375 0.0582 0.0
C186 C 0.25476 0.42959 0.06872 0.0
O187 O 0.25401 0.44609 0.07754 0.0
H188 H 0.25071 0.4156 0.07578 0.0
C189 C 0.19957 0.4344 0.09967 0.0
C190 C 0.20164 0.44141 0.08452 0.0
C191 C 0.21564 0.43122 0.10741 0.0
C192 C 0.23411 0.43544 0.09985 0.0
C193 C 0.23631 0.44237 0.08475 0.0
C194 C 0.22019 0.44542 0.07713 0.0
H195 H 0.41074 0.90696 0.25148 0.0
H196 H 0.4667 0.89826 0.25513 0.0
H197 H 0.42388 0.87961 0.29145 0.0
H198 H 0.47065 0.90123 0.30388 0.0
C199 C 0.47718 0.89854 0.29301 0.0
O200 O 0.45999 0.88331 0.2825 0.0
H201 H 0.48611 0.91441 0.2879 0.0
C202 C 0.42078 0.90168 0.25769 0.0
C203 C 0.41496 0.8928 0.27205 0.0
C204 C 0.43938 0.90365 0.25133 0.0
C205 C 0.45232 0.89701 0.25975 0.0
C206 C 0.44685 0.88865 0.27423 0.0
C207 C 0.42804 0.88621 0.28025 0.0
H208 H 0.10157 0.5144 0.27142 0.0
H209 H 0.10324 0.57612 0.27617 0.0
H210 H 0.12437 0.55472 0.31582 0.0
H211 H 0.10429 0.58046 0.3258 0.0
C212 C 0.10465 0.58783 0.31463 0.0
O213 O 0.11924 0.58605 0.30563 0.0
H214 H 0.08792 0.57878 0.3083 0.0
C215 C 0.10465 0.52894 0.27864 0.0
C216 C 0.11312 0.53237 0.2945 0.0
C217 C 0.10114 0.54466 0.27181 0.0
C218 C 0.10596 0.56384 0.28112 0.0
C219 C 0.11425 0.56733 0.29692 0.0
C220 C 0.11792 0.55173 0.30356 0.0
H221 H 0.492 0.59078 0.2613 0.0
H222 H 0.4306 0.53034 0.25533 0.0
H223 H 0.4513 0.57076 0.29928 0.0
H224 H 0.43135 0.52303 0.30122 0.0
C225 C 0.41895 0.51698 0.2908 0.0
O226 O 0.42044 0.53454 0.28363 0.0
H227 H 0.42228 0.5066 0.28247 0.0
C228 C 0.47739 0.57895 0.26606 0.0
C229 C 0.47378 0.58319 0.28152 0.0
C230 C 0.46199 0.55996 0.25646 0.0
C231 C 0.44264 0.54517 0.26246 0.0
C232 C 0.43893 0.54909 0.27788 0.0
C233 C 0.45438 0.56805 0.28735 0.0
C234 C 0.52624 0.01668 0.05992 0.0
Eu235 Eu 0.51132 0.01544 0.03108 0.0
C236 C 0.51801 0.0068 0.07441 0.0
C237 C 0.5281 0.01905 0.08895 0.0
C238 C 0.52075 0.01007 0.10293 0.0
C239 C 0.50316 0.98859 0.10264 0.0
C240 C 0.49289 0.97642 0.08799 0.0
C241 C 0.50025 0.98547 0.07398 0.0
C242 C 0.49984 0.04369 0.02027 0.0
C243 C 0.45899 0.98019 0.02427 0.0
C244 C 0.47502 0.00261 0.96869 0.0
Eu245 Eu 0.48915 0.00317 0.9976 0.0
C246 C 0.48442 0.01334 0.95469 0.0
C247 C 0.47696 0.00116 0.9399 0.0
C248 C 0.48585 0.01084 0.92643 0.0
C249 C 0.5023 0.03293 0.92754 0.0
C250 C 0.50979 0.04513 0.9424 0.0
C251 C 0.501 0.03538 0.95589 0.0
C252 C 0.50103 0.97514 0.00838 0.0
C253 C 0.54159 0.03792 0.00435 0.0
O254 O 0.52589 0.00371 0.04822 0.0
O255 O 0.52023 0.03034 0.05538 0.0
O256 O 0.5177 0.04976 0.02919 0.0
O257 O 0.48846 0.02314 0.01802 0.0
O258 O 0.47724 0.98756 0.03368 0.0
O259 O 0.45903 0.98631 0.01 0.0
O260 O 0.47465 0.01501 0.98049 0.0
O261 O 0.48072 0.9887 0.9732 0.0
O262 O 0.48314 0.9689 0.99942 0.0
O263 O 0.51218 0.99569 0.01059 0.0
O264 O 0.52339 0.03088 0.99495 0.0
O265 O 0.54136 0.03171 0.0186 0.0
H266 H 0.54172 0.03561 0.08948 0.0
H267 H 0.52876 0.02003 0.11399 0.0
H268 H 0.47943 0.95978 0.08734 0.0
H269 H 0.49219 0.97576 0.06284 0.0
H270 H 0.46422 0.98412 0.93876 0.0
H271 H 0.4796 0.00112 0.91512 0.0
H272 H 0.52259 0.06213 0.9436 0.0
H273 H 0.50718 0.04504 0.96724 0.0
C274 C 0.00999 0.52207 0.0587 0.0
Eu275 Eu 0.00233 0.50337 0.03005 0.0
C276 C 0.01679 0.52009 0.07493 0.0
C277 C 0.00108 0.51011 0.08546 0.0
C278 C 0.00735 0.50967 0.10116 0.0
C279 C 0.02951 0.51941 0.10676 0.0
C280 C 0.04522 0.52907 0.09616 0.0
C281 C 0.03895 0.52946 0.08043 0.0
C282 C 0.97139 0.46153 0.02004 0.0
C283 C 0.03347 0.48242 0.02408 0.0
C284 C 0.9966 0.46897 0.96817 0.0
Eu285 Eu 0.00462 0.48764 0.99683 0.0
C286 C 0.9883 0.47057 0.95234 0.0
C287 C 0.00215 0.47648 0.94032 0.0
C288 C 0.9945 0.4772 0.92507 0.0
C289 C 0.97276 0.4718 0.92148 0.0
C290 C 0.95892 0.46609 0.93355 0.0
C291 C 0.96662 0.46554 0.94885 0.0
C292 C 0.03567 0.52944 0.00689 0.0
C293 C 0.97425 0.50948 0.00276 0.0
O294 O 0.02457 0.52849 0.04861 0.0
O295 O 0.99068 0.50679 0.05238 0.0
O296 O 0.96795 0.47459 0.02907 0.0
O297 O 0.9911 0.47056 0.01756 0.0
O298 O 0.02958 0.49551 0.03327 0.0
O299 O 0.02291 0.47415 0.00992 0.0
O300 O 0.98276 0.46152 0.97875 0.0
O301 O 0.01566 0.48523 0.974 0.0
O302 O 0.03902 0.51635 0.99779 0.0
O303 O 0.01594 0.52047 0.00933 0.0
O304 O 0.97755 0.49592 0.99358 0.0
O305 O 0.98512 0.51771 0.01683 0.0
H306 H 0.98389 0.50292 0.08164 0.0
H307 H 0.99481 0.50183 0.10895 0.0
H308 H 0.06244 0.53697 0.10012 0.0
H309 H 0.05149 0.53751 0.07268 0.0
H310 H 0.01886 0.48026 0.94267 0.0
H311 H 0.00547 0.48138 0.91598 0.0
H312 H 0.94212 0.46201 0.93114 0.0
H313 H 0.95554 0.46096 0.95787 0.0
C314 C 0.48312 0.48656 0.96288 0.0
Eu315 Eu 0.49776 0.5068 0.99114 0.0
C316 C 0.49143 0.48623 0.94754 0.0
C317 C 0.48217 0.49054 0.93427 0.0
C318 C 0.4893 0.48982 0.91951 0.0
C319 C 0.50572 0.48454 0.91767 0.0
C320 C 0.51513 0.48044 0.93104 0.0
C321 C 0.50811 0.48133 0.94584 0.0
C322 C 0.50934 0.54881 -0.00021 0.0
C323 C 0.55058 0.52822 0.99701 0.0
C324 C 0.53611 0.54624 0.05217 0.0
Eu325 Eu 0.52104 0.52488 0.02425 0.0
C326 C 0.52868 0.54532 0.06787 0.0
C327 C 0.5081 0.52864 0.0709 0.0
C328 C 0.50149 0.52789 0.08603 0.0
C329 C 0.51541 0.54377 0.09836 0.0
C330 C 0.53594 0.56053 0.09515 0.0
C331 C 0.54249 0.56127 0.08004 0.0
C332 C 0.50937 0.48275 0.01587 0.0
C333 C 0.46782 0.50233 0.01832 0.0
O334 O 0.48925 0.47874 0.97436 0.0
O335 O 0.48271 0.50425 0.96755 0.0
O336 O 0.4914 0.53512 0.99119 0.0
O337 O 0.52074 0.54016 0.00269 0.0
O338 O 0.53226 0.51434 0.98821 0.0
O339 O 0.55049 0.53746 0.01086 0.0
O340 O 0.52654 0.55171 0.04126 0.0
O341 O 0.53894 0.53014 0.04715 0.0
O342 O 0.52694 0.4963 0.02491 0.0
O343 O 0.49812 0.49149 0.01275 0.0
O344 O 0.48599 0.51578 0.02749 0.0
O345 O 0.46818 0.49404 0.00419 0.0
H346 H 0.46934 0.49441 0.9353 0.0
H347 H 0.48196 0.4935 0.90957 0.0
H348 H 0.52764 0.47609 0.93005 0.0
H349 H 0.51561 0.47798 0.95588 0.0
H350 H 0.49726 0.51616 0.06159 0.0
H351 H 0.48566 0.51468 0.08814 0.0
H352 H 0.54689 0.57322 0.10429 0.0
H353 H 0.55839 0.5743 0.07786 0.0
C354 C 0.19183 0.34917 0.39493 0.0
Eu355 Eu 0.17719 0.34887 0.36621 0.0
C356 C 0.18367 0.33705 0.40862 0.0
C357 C 0.19279 0.34773 0.42373 0.0
C358 C 0.18519 0.3367 0.43697 0.0
C359 C 0.16832 0.31472 0.43534 0.0
C360 C 0.1591 0.30408 0.42012 0.0
C361 C 0.16672 0.31518 0.40686 0.0
C362 C 0.16537 0.37727 0.3562 0.0
C363 C 0.12508 0.31365 0.3593 0.0
C364 C 0.14047 0.33793 0.30424 0.0
Eu365 Eu 0.15486 0.33751 0.33285 0.0
C366 C 0.14985 0.34607 0.28954 0.0
C367 C 0.14062 0.33242 0.2754 0.0
C368 C 0.14927 0.33967 0.26129 0.0
C369 C 0.16725 0.36077 0.26108 0.0
C370 C 0.17652 0.37443 0.27528 0.0
C371 C 0.16797 0.36711 0.28942 0.0
C372 C 0.16718 0.30931 0.34264 0.0
C373 C 0.20749 0.37227 0.33959 0.0
O374 O 0.19388 0.33852 0.38275 0.0
O375 O 0.18359 0.36131 0.39101 0.0
O376 O 0.18335 0.38322 0.36495 0.0
O377 O 0.15409 0.35673 0.35369 0.0
O378 O 0.14348 0.31993 0.36822 0.0
O379 O 0.12501 0.32122 0.34558 0.0
O380 O 0.144 0.35259 0.31582 0.0
O381 O 0.1423 0.32164 0.30893 0.0
O382 O 0.14934 0.30325 0.33369 0.0
O383 O 0.17814 0.32984 0.34528 0.0
O384 O 0.18934 0.36451 0.32998 0.0
O385 O 0.20733 0.3666 0.35401 0.0
H386 H 0.20576 0.36468 0.42529 0.0
H387 H 0.19237 0.3455 0.44851 0.0
H388 H 0.14621 0.28712 0.41845 0.0
H389 H 0.15944 0.30667 0.39525 0.0
H390 H 0.12666 0.31614 0.27526 0.0
H391 H 0.14164 0.32889 0.2505 0.0
H392 H 0.19051 0.3907 0.27547 0.0
H393 H 0.17551 0.37789 0.30022 0.0
C394 C 0.67891 0.85863 0.39175 0.0
Eu395 Eu 0.66913 0.83678 0.36403 0.0
C396 C 0.6881 0.8588 0.4076 0.0
C397 C 0.69099 0.84149 0.41176 0.0
C398 C 0.69911 0.84171 0.42713 0.0
C399 C 0.70455 0.85931 0.43851 0.0
C400 C 0.70182 0.8767 0.43414 0.0
C401 C 0.69366 0.87642 0.41882 0.0
C402 C 0.63816 0.79421 0.35635 0.0
C403 C 0.69983 0.8155 0.3583 0.0
C404 C 0.65879 0.79606 0.30333 0.0
Eu405 Eu 0.66892 0.8176 0.33115 0.0
C406 C 0.65228 0.79808 0.28703 0.0
C407 C 0.66775 0.81235 0.27763 0.0
C408 C 0.66162 0.81329 0.262 0.0
C409 C 0.6399 0.79996 0.25539 0.0
C410 C 0.6244 0.78589 0.26486 0.0
C411 C 0.63055 0.78491 0.28048 0.0
C412 C 0.69978 0.86024 0.33858 0.0
C413 C 0.63847 0.83955 0.33686 0.0
O414 O 0.69223 0.8643 0.38081 0.0
O415 O 0.6597 0.84183 0.38691 0.0
O416 O 0.63512 0.80792 0.36497 0.0
O417 O 0.65753 0.8031 0.3531 0.0
O418 O 0.69735 0.83028 0.36665 0.0
O419 O 0.68729 0.80486 0.34512 0.0
O420 O 0.64466 0.79211 0.31358 0.0
O421 O 0.67882 0.80996 0.30926 0.0
O422 O 0.70263 0.84663 0.32968 0.0
O423 O 0.68048 0.85128 0.34201 0.0
O424 O 0.64153 0.82549 0.32804 0.0
O425 O 0.65014 0.84906 0.35053 0.0
H426 H 0.68684 0.82779 0.40317 0.0
H427 H 0.70124 0.8282 0.4301 0.0
H428 H 0.70556 0.89034 0.44266 0.0
H429 H 0.69146 0.88988 0.41578 0.0
H430 H 0.6847 0.82258 0.28224 0.0
H431 H 0.67404 0.82405 0.25498 0.0
H432 H 0.60749 0.77559 0.26019 0.0
H433 H 0.6183 0.77365 0.2874 0.0
C434 C 0.14844 0.81547 0.29524 0.0
Eu435 Eu 0.16326 0.83827 0.3227 0.0
C436 C 0.15698 0.81445 0.28024 0.0
C437 C 0.17767 0.83089 0.27719 0.0
C438 C 0.18538 0.82985 0.2627 0.0
C439 C 0.17256 0.81229 0.25109 0.0
C440 C 0.15193 0.79576 0.25433 0.0
C441 C 0.14422 0.79687 0.26878 0.0
C442 C 0.17504 0.88083 0.32918 0.0
C443 C 0.216 0.86005 0.32883 0.0
C444 C 0.20175 0.88223 0.3828 0.0
Eu445 Eu 0.18678 0.85912 0.35547 0.0
C446 C 0.19443 0.88115 0.39854 0.0
C447 C 0.17405 0.86415 0.40159 0.0
C448 C 0.16748 0.86317 0.41675 0.0
C449 C 0.18125 0.87912 0.42908 0.0
C450 C 0.20159 0.8962 0.42585 0.0
C451 C 0.20811 0.89718 0.41071 0.0
C452 C 0.17477 0.81645 0.34922 0.0
C453 C 0.13356 0.83641 0.34944 0.0
O454 O 0.15567 0.80931 0.30718 0.0
O455 O 0.1475 0.83312 0.29898 0.0
O456 O 0.15717 0.86662 0.32073 0.0
O457 O 0.18631 0.87235 0.33295 0.0
O458 O 0.19768 0.84489 0.32066 0.0
O459 O 0.21591 0.87116 0.34175 0.0
O460 O 0.19092 0.88607 0.37174 0.0
O461 O 0.20608 0.86702 0.37813 0.0
O462 O 0.19243 0.83054 0.35794 0.0
O463 O 0.16368 0.82508 0.3453 0.0
O464 O 0.1518 0.85064 0.35824 0.0
O465 O 0.1338 0.82677 0.33583 0.0
H466 H 0.18779 0.84453 0.28598 0.0
H467 H 0.20142 0.84269 0.26062 0.0
H468 H 0.14156 0.78217 0.24557 0.0
H469 H 0.12821 0.78406 0.27097 0.0
H470 H 0.16332 0.85159 0.39229 0.0
H471 H 0.1518 0.84971 0.41887 0.0
H472 H 0.21243 0.90894 0.43501 0.0
H473 H 0.22386 0.91044 0.40851 0.0
C474 C 0.85938 0.68107 0.72783 0.0
Eu475 Eu 0.84436 0.68164 0.69944 0.0
C476 C 0.851 0.6695 0.74172 0.0
C477 C 0.8605 0.68043 0.75671 0.0
C478 C 0.85279 0.6699 0.77013 0.0
C479 C 0.83543 0.64815 0.76879 0.0
C480 C 0.82582 0.63728 0.75369 0.0
C481 C 0.83354 0.64787 0.74025 0.0
C482 C 0.83211 0.71011 0.69033 0.0
C483 C 0.79216 0.64653 0.69272 0.0
C484 C 0.80603 0.67248 0.63813 0.0
Eu485 Eu 0.82156 0.67112 0.66615 0.0
C486 C 0.81431 0.68078 0.62327 0.0
C487 C 0.83529 0.68579 0.62001 0.0
C488 C 0.84287 0.69382 0.60577 0.0
C489 C 0.8296 0.69708 0.59467 0.0
C490 C 0.80863 0.69208 0.59808 0.0
C491 C 0.80106 0.684 0.61227 0.0
C492 C 0.83428 0.64284 0.67501 0.0
C493 C 0.87432 0.70545 0.67266 0.0
O494 O 0.85982 0.66951 0.7155 0.0
O495 O 0.85269 0.69457 0.72419 0.0
O496 O 0.8502 0.71599 0.6989 0.0
O497 O 0.82098 0.68959 0.68751 0.0
O498 O 0.81061 0.65292 0.70161 0.0
O499 O 0.79193 0.65414 0.67905 0.0
O500 O 0.81088 0.68729 0.64991 0.0
O501 O 0.80796 0.65599 0.64224 0.0
O502 O 0.81642 0.63688 0.66609 0.0
O503 O 0.84506 0.66332 0.67799 0.0
O504 O 0.85609 0.69807 0.6632 0.0
O505 O 0.87425 0.69935 0.68696 0.0
H506 H 0.87387 0.69719 0.75805 0.0
H507 H 0.86029 0.67889 0.78157 0.0
H508 H 0.81255 0.62048 0.75224 0.0
H509 H 0.82594 0.63917 0.72875 0.0
H510 H 0.84578 0.68352 0.62847 0.0
H511 H 0.85917 0.69772 0.60352 0.0
H512 H 0.79793 0.69415 0.58969 0.0
H513 H 0.78483 0.68022 0.61464 0.0
C514 C 0.34235 0.18781 0.7244 0.0
Eu515 Eu 0.3348 0.16928 0.69572 0.0
C516 C 0.35062 0.18665 0.74037 0.0
C517 C 0.33639 0.17988 0.75214 0.0
C518 C 0.34403 0.17993 0.76758 0.0
C519 C 0.36613 0.18698 0.7716 0.0
C520 C 0.38035 0.19349 0.75978 0.0
C521 C 0.37267 0.19328 0.74429 0.0
C522 C 0.30378 0.12752 0.68564 0.0
C523 C 0.36611 0.14858 0.68976 0.0
C524 C 0.32901 0.13475 0.63389 0.0
Eu525 Eu 0.33707 0.15352 0.66252 0.0
C526 C 0.32061 0.1362 0.61805 0.0
C527 C 0.33444 0.14224 0.60602 0.0
C528 C 0.3267 0.1428 0.59076 0.0
C529 C 0.30487 0.13711 0.58717 0.0
C530 C 0.29104 0.13127 0.59924 0.0
C531 C 0.29884 0.13088 0.61456 0.0
C532 C 0.36814 0.19529 0.67255 0.0
C533 C 0.30658 0.17529 0.66849 0.0
O534 O 0.35629 0.19543 0.71391 0.0
O535 O 0.32349 0.17128 0.71852 0.0
O536 O 0.3003 0.14071 0.6945 0.0
O537 O 0.32353 0.13644 0.68324 0.0
O538 O 0.36228 0.16178 0.69887 0.0
O539 O 0.3554 0.14009 0.67566 0.0
O540 O 0.31523 0.12729 0.6445 0.0
O541 O 0.34805 0.1511 0.63966 0.0
O542 O 0.3715 0.18217 0.6635 0.0
O543 O 0.3484 0.18635 0.67498 0.0
O544 O 0.31009 0.16194 0.65923 0.0
O545 O 0.31721 0.18333 0.68264 0.0
H546 H 0.31938 0.17491 0.74947 0.0
H547 H 0.33274 0.17511 0.77647 0.0
H548 H 0.39744 0.19883 0.76253 0.0
H549 H 0.38408 0.1986 0.73548 0.0
H550 H 0.35123 0.14624 0.60837 0.0
H551 H 0.33766 0.14708 0.58166 0.0
H552 H 0.27418 0.12697 0.59683 0.0
H553 H 0.28776 0.1262 0.62358 0.0
C554 C 0.81492 0.15284 0.62669 0.0
Eu555 Eu 0.82924 0.17286 0.65503 0.0
C556 C 0.82378 0.1522 0.61165 0.0
C557 C 0.81475 0.15587 0.59794 0.0
C558 C 0.82262 0.15514 0.5835 0.0
C559 C 0.83958 0.15052 0.58246 0.0
C560 C 0.84869 0.1469 0.5962 0.0
C561 C 0.84094 0.14784 0.61069 0.0
C562 C 0.84043 0.21473 0.66379 0.0
C563 C 0.88207 0.19447 0.66099 0.0
C564 C 0.86741 0.21216 0.71609 0.0
Eu565 Eu 0.85244 0.19089 0.68813 0.0
C566 C 0.86005 0.21105 0.73182 0.0
C567 C 0.83953 0.19426 0.73485 0.0
C568 C 0.83296 0.19337 0.75001 0.0
C569 C 0.84687 0.20922 0.76235 0.0
C570 C 0.86734 0.22609 0.75914 0.0
C571 C 0.87384 0.22696 0.74401 0.0
C572 C 0.84104 0.14883 0.6797 0.0
C573 C 0.79918 0.16817 0.68219 0.0
O574 O 0.81999 0.14449 0.63835 0.0
O575 O 0.81528 0.17099 0.63118 0.0
O576 O 0.8225 0.20091 0.65522 0.0
O577 O 0.85201 0.20625 0.66665 0.0
O578 O 0.86379 0.18041 0.65222 0.0
O579 O 0.88189 0.20379 0.67476 0.0
O580 O 0.85759 0.21746 0.70525 0.0
O581 O 0.87051 0.19626 0.71099 0.0
O582 O 0.85858 0.16246 0.68873 0.0
O583 O 0.82968 0.15747 0.67659 0.0
O584 O 0.81736 0.18151 0.69139 0.0
O585 O 0.79952 0.1601 0.66797 0.0
H586 H 0.80148 0.15921 0.5984 0.0
H587 H 0.81513 0.15776 0.57308 0.0
H588 H 0.86192 0.14351 0.59576 0.0
H589 H 0.84835 0.14509 0.6211 0.0
H590 H 0.8287 0.1818 0.72553 0.0
H591 H 0.81717 0.18009 0.75212 0.0
H592 H 0.87828 0.23876 0.7683 0.0
H593 H 0.8897 0.24008 0.74183 0.0
C594 C 0.2985 0.84049 0.07973 0.0
C595 C 0.27899 0.8303 0.06963 0.0
C596 C 0.31767 0.85716 0.07486 0.0
C597 C 0.34356 0.88019 0.03918 0.0
H598 H 0.3828 0.93072 0.06849 0.0
C599 C 0.41849 0.95511 0.01975 0.0
C600 C 0.43802 0.96419 0.02977 0.0
C601 C 0.39885 0.93934 0.02469 0.0
C602 C 0.37212 0.91662 0.06021 0.0
H603 H 0.26429 0.82987 0.04656 0.0
H604 H 0.29773 0.859 0.03807 0.0
H605 H 0.349 0.90208 0.07689 0.0
H606 H 0.45208 0.96397 0.05295 0.0
H607 H 0.41787 0.93638 0.06149 0.0
H608 H 0.3667 0.8947 0.02251 0.0
C609 C 0.29828 0.85387 0.04967 0.0
C610 C 0.35274 0.90019 0.06502 0.0
C611 C 0.27911 0.83717 0.05454 0.0
C612 C 0.43737 0.95735 0.04492 0.0
C613 C 0.41772 0.9416 0.04986 0.0
C614 C 0.36292 0.89663 0.03436 0.0
C615 C 0.3178 0.86407 0.05978 0.0
C616 C 0.33826 0.88173 0.05458 0.0
C617 C 0.39825 0.93229 0.03976 0.0
C618 C 0.37746 0.91502 0.04483 0.0
H619 H 0.29905 0.83533 0.09133 0.0
H620 H 0.33248 0.86439 0.08284 0.0
H621 H 0.33295 0.86604 0.03091 0.0
H622 H 0.41835 0.96002 0.00802 0.0
H623 H 0.3841 0.93272 0.0167 0.0
C624 C 0.18998 0.46319 0.0686 0.0
C625 C 0.18444 0.44464 0.07659 0.0
C626 C 0.17374 0.46677 0.06191 0.0
C627 C 0.11475 0.43912 0.04871 0.0
H628 H 0.12332 0.4976 0.05545 0.0
C629 C 0.05486 0.46337 0.02033 0.0
C630 C 0.0501 0.47701 0.02984 0.0
C631 C 0.0712 0.45903 0.02553 0.0
C632 C 0.12062 0.48115 0.05355 0.0
H633 H 0.15753 0.41487 0.08329 0.0
H634 H 0.12924 0.42127 0.07183 0.0
H635 H 0.152 0.49064 0.06513 0.0
H636 H 0.0586 0.4965 0.05241 0.0
H637 H 0.08691 0.48874 0.06151 0.0
H638 H 0.08314 0.42955 0.03744 0.0
C639 C 0.1461 0.43301 0.07067 0.0
C640 C 0.13717 0.47722 0.05891 0.0
C641 C 0.16232 0.42947 0.07739 0.0
C642 C 0.06187 0.48598 0.04475 0.0
C643 C 0.07822 0.48166 0.04993 0.0
C644 C 0.0982 0.44307 0.0433 0.0
C645 C 0.15162 0.45182 0.063 0.0
C646 C 0.13438 0.45614 0.05665 0.0
C647 C 0.08317 0.46826 0.04035 0.0
C648 C 0.1009 0.4641 0.04577 0.0
H649 H 0.20688 0.47524 0.06787 0.0
H650 H 0.17851 0.48129 0.05592 0.0
H651 H 0.11217 0.42273 0.04665 0.0
H652 H 0.04615 0.45623 0.00876 0.0
H653 H 0.07476 0.4488 0.01781 0.0
C654 C 0.54251 0.73114 0.0468 0.0
C655 C 0.56219 0.74372 0.05653 0.0
C656 C 0.53711 0.7107 0.03941 0.0
C657 C 0.56047 0.67603 0.02793 0.0
H658 H 0.50151 0.62831 0.02926 0.0
C659 C 0.53597 0.58545 0.01392 0.0
C660 C 0.51569 0.57152 0.00526 0.0
C661 C 0.5418 0.60686 0.01932 0.0
C662 C 0.51796 0.6415 0.02859 0.0
H663 H 0.59201 0.74507 0.06563 0.0
H664 H 0.58244 0.70928 0.05295 0.0
H665 H 0.51149 0.66514 0.03984 0.0
H666 H 0.48569 0.56898 0.99529 0.0
H667 H 0.49593 0.60644 0.00458 0.0
H668 H 0.56697 0.65231 0.01681 0.0
C669 C 0.57122 0.71524 0.05095 0.0
C670 C 0.52368 0.66263 0.03465 0.0
C671 C 0.5766 0.73566 0.05835 0.0
C672 C 0.50141 0.57938 0.00198 0.0
C673 C 0.50722 0.60078 0.00738 0.0
C674 C 0.55474 0.65489 0.02187 0.0
C675 C 0.55129 0.7024 0.04154 0.0
C676 C 0.54503 0.68013 0.03447 0.0
C677 C 0.52746 0.61475 0.01616 0.0
C678 C 0.53345 0.63735 0.02221 0.0
H679 H 0.53099 0.73682 0.04525 0.0
H680 H 0.52175 0.70132 0.03208 0.0
H681 H 0.57697 0.68921 0.02741 0.0
H682 H 0.54729 0.57978 0.0166 0.0
H683 H 0.55738 0.61709 0.02622 0.0
C684 C 0.8461 0.27804 0.95463 0.0
C685 C 0.82375 0.27036 0.95522 0.0
C686 C 0.86176 0.29799 0.96283 0.0
C687 C 0.86873 0.35045 0.97984 0.0
H688 H 0.92319 0.35863 0.99955 0.0
C689 C 0.93265 0.43125 0.01615 0.0
C690 C 0.95452 0.43917 0.01362 0.0
C691 C 0.91652 0.41026 0.00981 0.0
C692 C 0.90814 0.35665 0.99398 0.0
H693 H 0.8004 0.27747 0.96521 0.0
H694 H 0.82777 0.31209 0.97981 0.0
H695 H 0.89518 0.32245 0.98754 0.0
H696 H 0.97678 0.43137 0.00263 0.0
H697 H 0.94859 0.39469 0.99144 0.0
H698 H 0.88172 0.38466 0.98623 0.0
C699 C 0.83316 0.30282 0.97279 0.0
C700 C 0.89207 0.33591 0.9871 0.0
C701 C 0.81747 0.28284 0.96457 0.0
C702 C 0.96003 0.42565 0.00476 0.0
C703 C 0.9439 0.40462 0.99844 0.0
C704 C 0.88476 0.37116 0.98676 0.0
C705 C 0.8555 0.31076 0.97187 0.0
C706 C 0.87222 0.33258 0.97985 0.0
C707 C 0.92194 0.39671 0.00084 0.0
C708 C 0.90471 0.37454 0.99383 0.0
H709 H 0.85151 0.26869 0.94772 0.0
H710 H 0.87879 0.30366 0.96173 0.0
H711 H 0.85381 0.34858 0.97413 0.0
H712 H 0.92796 0.44133 0.02296 0.0
H713 H 0.8998 0.40457 0.01203 0.0
C714 C 0.71617 0.54004 0.95456 0.0
C715 C 0.72863 0.55687 0.94534 0.0
C716 C 0.69764 0.53849 0.96045 0.0
C717 C 0.6561 0.55424 0.95346 0.0
H718 H 0.64442 0.53997 0.99617 0.0
C719 C 0.59135 0.54649 0.00066 0.0
C720 C 0.5716 0.53358 0.99107 0.0
C721 C 0.61109 0.55081 0.9952 0.0
C722 C 0.64755 0.54416 0.98426 0.0
H723 H 0.73154 0.58553 0.93533 0.0
H724 H 0.69899 0.58264 0.94548 0.0
H725 H 0.67807 0.54495 0.98662 0.0
H726 H 0.55716 0.51539 0.96809 0.0
H727 H 0.59155 0.52292 0.95863 0.0
H728 H 0.62556 0.55344 0.9511 0.0
C729 C 0.7035 0.57053 0.94801 0.0
C730 C 0.6667 0.54678 0.97875 0.0
C731 C 0.72211 0.57214 0.94217 0.0
C732 C 0.57206 0.5254 0.97581 0.0
C733 C 0.59179 0.52981 0.97033 0.0
C734 C 0.63688 0.5515 0.95895 0.0
C735 C 0.69107 0.55368 0.95722 0.0
C736 C 0.67112 0.55171 0.96325 0.0
C737 C 0.61151 0.54243 0.98001 0.0
C738 C 0.63234 0.54629 0.97438 0.0
H739 H 0.72052 0.5278 0.95701 0.0
H740 H 0.6882 0.52512 0.96731 0.0
H741 H 0.65897 0.55788 0.94143 0.0
H742 H 0.59158 0.55308 0.01247 0.0
H743 H 0.62605 0.56077 0.00287 0.0
C744 C 0.47105 0.18922 0.97588 0.0
C745 C 0.45162 0.18255 0.96628 0.0
C746 C 0.47561 0.17376 0.98169 0.0
C747 C 0.45021 0.11619 0.99001 0.0
H748 H 0.50853 0.12557 0.98809 0.0
C749 C 0.47325 0.05119 0.00536 0.0
C750 C 0.49363 0.05895 0.01392 0.0
C751 C 0.46764 0.06584 0.99928 0.0
C752 C 0.49223 0.12281 0.98889 0.0
H753 H 0.42148 0.15442 0.95556 0.0
H754 H 0.42954 0.12737 0.96563 0.0
H755 H 0.49955 0.15202 0.97834 0.0
H756 H 0.52403 0.08799 0.02302 0.0
H757 H 0.51415 0.11355 0.01272 0.0
H758 H 0.44296 0.08706 0.0007 0.0
C759 C 0.4412 0.14458 0.9687 0.0
C760 C 0.48709 0.13798 0.98328 0.0
C761 C 0.43668 0.16006 0.96282 0.0
C762 C 0.50823 0.08156 0.01641 0.0
C763 C 0.50262 0.09619 0.01039 0.0
C764 C 0.45538 0.10104 0.99568 0.0
C765 C 0.46082 0.15127 0.97807 0.0
C766 C 0.46607 0.13491 0.98386 0.0
C767 C 0.48229 0.08853 0.00171 0.0
C768 C 0.4765 0.10424 0.99527 0.0
H769 H 0.48297 0.20642 0.97865 0.0
H770 H 0.49075 0.17944 0.98903 0.0
H771 H 0.43393 0.11349 0.99074 0.0
H772 H 0.46164 0.03382 0.00336 0.0
H773 H 0.45194 0.05938 0.99252 0.0
C774 C 0.72769 0.16462 0.97612 0.0
C775 C 0.73054 0.16977 0.96053 0.0
C776 C 0.70694 0.15054 0.98038 0.0
C777 C 0.64828 0.12706 0.96837 0.0
H778 H 0.64212 0.08262 0.99532 0.0
C779 C 0.56413 0.05877 0.98325 0.0
C780 C 0.56283 0.05305 0.99877 0.0
C781 C 0.58431 0.07294 0.97808 0.0
C782 C 0.64356 0.09508 0.98794 0.0
H783 H 0.71412 0.16424 0.93717 0.0
H784 H 0.67766 0.13962 0.94463 0.0
H785 H 0.67777 0.10776 0.98742 0.0
H786 H 0.58174 0.05808 0.02109 0.0
H787 H 0.61667 0.08292 0.01219 0.0
H788 H 0.61407 0.11449 0.96904 0.0
C789 C 0.69144 0.14667 0.95358 0.0
C790 C 0.66402 0.10949 0.9834 0.0
C791 C 0.71224 0.16068 0.9493 0.0
C792 C 0.58211 0.06196 0.00902 0.0
C793 C 0.60222 0.07614 0.00388 0.0
C794 C 0.62779 0.11268 0.97298 0.0
C795 C 0.68859 0.14128 0.96915 0.0
C796 C 0.66666 0.12574 0.97366 0.0
C797 C 0.60362 0.08173 0.98833 0.0
C798 C 0.62521 0.09661 0.98293 0.0
H799 H 0.74155 0.17132 0.98498 0.0
H800 H 0.70526 0.14692 0.99251 0.0
H801 H 0.64983 0.13952 0.96096 0.0
H802 H 0.5496 0.05219 0.97503 0.0
H803 H 0.58481 0.07672 0.96598 0.0
C804 C 0.8405 0.56701 0.97933 0.0
C805 C 0.82955 0.56221 0.96416 0.0
C806 C 0.8567 0.5617 0.9825 0.0
C807 C 0.87637 0.52534 0.96856 0.0
H808 H 0.92995 0.5676 0.99381 0.0
C809 C 0.94795 0.50944 0.98174 0.0
C810 C 0.95847 0.51605 0.99715 0.0
C811 C 0.93284 0.51557 0.97669 0.0
C812 C 0.915 0.55552 0.98688 0.0
H813 H 0.82745 0.54892 0.94025 0.0
H814 H 0.85564 0.53928 0.94584 0.0
H815 H 0.90217 0.57717 0.98712 0.0
H816 H 0.96121 0.53414 0.01937 0.0
H817 H 0.93474 0.54438 0.01071 0.0
H818 H 0.88897 0.50348 0.9686 0.0
C819 C 0.85143 0.54683 0.95532 0.0
C820 C 0.89911 0.56103 0.98303 0.0
C821 C 0.83534 0.55233 0.95213 0.0
C822 C 0.95356 0.52888 0.00738 0.0
C823 C 0.93845 0.5349 0.00237 0.0
C824 C 0.89222 0.51974 0.9725 0.0
C825 C 0.86231 0.55152 0.97054 0.0
C826 C 0.87954 0.54593 0.97398 0.0
C827 C 0.92791 0.52837 0.98697 0.0
C828 C 0.91162 0.53469 0.98187 0.0
H829 H 0.83655 0.57494 0.98874 0.0
H830 H 0.86471 0.56537 0.99437 0.0
H831 H 0.86136 0.51331 0.96166 0.0
H832 H 0.9514 0.49957 0.97355 0.0
H833 H 0.92518 0.51044 0.96469 0.0
C834 C 0.43344 0.28678 0.9768 0.0
C835 C 0.44552 0.27797 0.98348 0.0
C836 C 0.44024 0.30892 0.98019 0.0
C837 C 0.47586 0.35699 0.00905 0.0
H838 H 0.46982 0.3896 0.97618 0.0
C839 C 0.51524 0.45092 0.01687 0.0
C840 C 0.50217 0.45949 0.01172 0.0
C841 C 0.50829 0.42879 0.01326 0.0
C842 C 0.47143 0.38065 0.98551 0.0
H843 H 0.47426 0.28525 0.99864 0.0
H844 H 0.48649 0.32409 0.00437 0.0
H845 H 0.45787 0.35094 0.9702 0.0
H846 H 0.4717 0.45178 0.99869 0.0
H847 H 0.4596 0.41307 0.99223 0.0
H848 H 0.48966 0.38681 0.02429 0.0
C849 C 0.4715 0.31387 0.99681 0.0
C850 C 0.46454 0.35848 0.98211 0.0
C851 C 0.46461 0.2917 0.99348 0.0
C852 C 0.48214 0.4456 0.00274 0.0
C853 C 0.47525 0.42348 0.99901 0.0
C854 C 0.48286 0.37917 0.01242 0.0
C855 C 0.45937 0.32276 0.99024 0.0
C856 C 0.46667 0.34636 0.99384 0.0
C857 C 0.48821 0.41482 0.00432 0.0
C858 C 0.48073 0.39124 0.00069 0.0
H859 H 0.41869 0.27651 0.969 0.0
H860 H 0.43036 0.31513 0.97508 0.0
H861 H 0.47738 0.3481 0.01845 0.0
H862 H 0.5308 0.46129 0.02377 0.0
H863 H 0.51874 0.42264 0.01735 0.0
C864 C 0.18335 0.72 0.03535 0.0
C865 C 0.17881 0.73331 0.04534 0.0
C866 C 0.16794 0.69785 0.03156 0.0
C867 C 0.11811 0.65223 0.04467 0.0
H868 H 0.11061 0.62613 0.00198 0.0
C869 C 0.04683 0.56579 0.02134 0.0
C870 C 0.05207 0.5525 0.01193 0.0
C871 C 0.06236 0.58776 0.02583 0.0
C872 C 0.11266 0.63312 0.01399 0.0
H873 H 0.15496 0.73397 0.05955 0.0
H874 H 0.12776 0.69539 0.05267 0.0
H875 H 0.1375 0.66462 0.00897 0.0
H876 H 0.07761 0.55156 -3e-05 0.0
H877 H 0.1047 0.58991 0.00776 0.0
H878 H 0.09302 0.62068 0.04958 0.0
C879 C 0.14327 0.70192 0.04785 0.0
C880 C 0.12811 0.65519 0.01802 0.0
C881 C 0.15874 0.72405 0.0517 0.0
C882 C 0.07311 0.56148 0.00718 0.0
C883 C 0.08858 0.58345 0.01157 0.0
C884 C 0.10257 0.63017 0.04061 0.0
C885 C 0.14765 0.68854 0.03769 0.0
C886 C 0.1311 0.66503 0.03342 0.0
C887 C 0.08336 0.59688 0.02089 0.0
C888 C 0.09972 0.62035 0.02523 0.0
H889 H 0.19887 0.72677 0.03051 0.0
H890 H 0.17205 0.68797 0.02394 0.0
H891 H 0.12018 0.65916 0.0567 0.0
H892 H 0.0307 0.55926 0.02516 0.0
H893 H 0.05779 0.59773 0.03291 0.0
C894 C 0.28046 0.43464 0.04821 0.0
C895 C 0.27733 0.43787 0.06395 0.0
C896 C 0.30139 0.44173 0.0439 0.0
C897 C 0.35932 0.4803 0.05632 0.0
H898 H 0.36841 0.44178 0.0277 0.0
C899 C 0.44499 0.50102 0.03997 0.0
C900 C 0.44646 0.49555 0.0242 0.0
C901 C 0.42464 0.49405 0.04544 0.0
C902 C 0.36612 0.45285 0.03556 0.0
H903 H 0.29337 0.45052 0.0876 0.0
H904 H 0.33013 0.46317 0.08005 0.0
H905 H 0.33231 0.42957 0.03595 0.0
H906 H 0.42771 0.47893 0.00175 0.0
H907 H 0.39246 0.46724 0.01117 0.0
H908 H 0.39308 0.50373 0.05574 0.0
C909 C 0.31644 0.45541 0.07102 0.0
C910 C 0.34543 0.44583 0.0403 0.0
C911 C 0.29547 0.44816 0.07535 0.0
C912 C 0.4272 0.48326 0.014 0.0
C913 C 0.40693 0.47642 0.01944 0.0
C914 C 0.38003 0.4874 0.0515 0.0
C915 C 0.3196 0.45219 0.05525 0.0
C916 C 0.34176 0.45953 0.05063 0.0
C917 C 0.40536 0.48156 0.03524 0.0
C918 C 0.38363 0.47382 0.04094 0.0
H919 H 0.26671 0.42657 0.03923 0.0
H920 H 0.30335 0.4392 0.03163 0.0
H921 H 0.35692 0.49128 0.0642 0.0
H922 H 0.45952 0.51045 0.04814 0.0
H923 H 0.42401 0.49814 0.05772 0.0
C924 C 0.5818 0.86714 0.05283 0.0
C925 C 0.56964 0.84477 0.04751 0.0
C926 C 0.57418 0.8812 0.04891 0.0
C927 C 0.53557 0.88553 0.02027 0.0
H928 H 0.5437 0.93219 0.05095 0.0
C929 C 0.49516 0.93756 0.00991 0.0
C930 C 0.50847 0.96025 0.01361 0.0
C931 C 0.50239 0.92341 0.0144 0.0
C932 C 0.54147 0.91934 0.04222 0.0
H933 H 0.54009 0.81947 0.034 0.0
H934 H 0.52642 0.84387 0.02739 0.0
H935 H 0.55665 0.90748 0.0581 0.0
H936 H 0.53967 0.98601 0.02495 0.0
H937 H 0.55226 0.96125 0.03294 0.0
H938 H 0.52022 0.89731 0.00445 0.0
C939 C 0.54202 0.8507 0.03436 0.0
C940 C 0.54893 0.9052 0.0463 0.0
C941 C 0.54972 0.83668 0.03822 0.0
C942 C 0.52902 0.96855 0.02206 0.0
C943 C 0.5362 0.95439 0.02665 0.0
C944 C 0.52801 0.89958 0.01624 0.0
C945 C 0.55418 0.87315 0.03963 0.0
C946 C 0.54611 0.88813 0.03536 0.0
C947 C 0.52302 0.93167 0.02276 0.0
C948 C 0.5309 0.91666 0.02716 0.0
H949 H 0.59728 0.87379 0.05995 0.0
H950 H 0.58413 0.89844 0.05296 0.0
H951 H 0.53347 0.87284 0.01145 0.0
H952 H 0.47921 0.93073 0.00345 0.0
H953 H 0.49177 0.90597 0.01141 0.0
C954 C 0.95781 0.15654 0.3933 0.0
C955 C 0.94397 0.16145 0.40147 0.0
C956 C 0.97717 0.17328 0.38872 0.0
C957 C 0.00483 0.23144 0.38129 0.0
H958 H 0.0571 0.22725 0.38666 0.0
C959 C 0.08436 0.29004 0.3553 0.0
C960 C 0.10415 0.29727 0.36462 0.0
C961 C 0.06472 0.27394 0.36001 0.0
C962 C 0.04269 0.22876 0.3852 0.0
H963 H 0.93939 0.18779 0.41091 0.0
H964 H 0.97333 0.21702 0.40309 0.0
H965 H 0.02302 0.19825 0.39442 0.0
H966 H 0.1187 0.29345 0.38637 0.0
H967 H 0.08444 0.26551 0.39461 0.0
H968 H 0.02459 0.2621 0.37226 0.0
C969 C 0.96915 0.20022 0.40016 0.0
C970 C 0.0231 0.21201 0.38947 0.0
C971 C 0.94981 0.18348 0.40478 0.0
C972 C 0.1038 0.28823 0.37886 0.0
C973 C 0.08415 0.2721 0.38356 0.0
C974 C 0.02442 0.24817 0.37697 0.0
C975 C 0.98312 0.19532 0.39215 0.0
C976 C 0.00393 0.21314 0.38755 0.0
C977 C 0.0644 0.26466 0.37413 0.0
C978 C 0.04359 0.24702 0.37888 0.0
H979 H 0.95388 0.13975 0.39069 0.0
H980 H 0.98745 0.16895 0.38242 0.0
H981 H 0.99032 0.23272 0.37954 0.0
H982 H 0.08402 0.29661 0.34424 0.0
H983 H 0.04982 0.26842 0.3524 0.0
C984 C 0.83155 0.76164 0.40321 0.0
C985 C 0.85257 0.77921 0.40806 0.0
C986 C 0.81549 0.76544 0.39649 0.0
C987 C 0.79767 0.8044 0.39897 0.0
H988 H 0.76519 0.77828 0.35803 0.0
C989 C 0.73543 0.82685 0.3736 0.0
C990 C 0.71702 0.81089 0.36387 0.0
C991 C 0.75218 0.82296 0.37843 0.0
C992 C 0.77379 0.78541 0.36961 0.0
H993 H 0.87357 0.81434 0.40971 0.0
H994 H 0.84517 0.82111 0.39836 0.0
H995 H 0.79413 0.77122 0.36709 0.0
H996 H 0.70142 0.77814 0.35182 0.0
H997 H 0.73006 0.77081 0.36091 0.0
H998 H 0.77694 0.81774 0.40204 0.0
C999 C 0.84128 0.80444 0.39951 0.0
C1000 C 0.79048 0.78149 0.3747 0.0
C1001 C 0.85747 0.80059 0.4059 0.0
C1002 C 0.71552 0.7908 0.35924 0.0
C1003 C 0.73206 0.7867 0.36436 0.0
C1004 C 0.7807 0.80793 0.39407 0.0
C1005 C 0.82014 0.7869 0.39491 0.0
C1006 C 0.80262 0.79109 0.38936 0.0
C1007 C 0.75072 0.80279 0.37395 0.0
C1008 C 0.76859 0.79863 0.37927 0.0
H1009 H 0.8275 0.74505 0.4049 0.0
H1010 H 0.79924 0.75172 0.3931 0.0
H1011 H 0.80666 0.8117 0.41044 0.0
H1012 H 0.73715 0.8426 0.37718 0.0
H1013 H 0.76643 0.83598 0.38548 0.0
C1014 C 0.20277 0.06088 0.37705 0.0
C1015 C 0.22136 0.07274 0.38795 0.0
C1016 C 0.19816 0.04094 0.36918 0.0
C1017 C 0.22292 0.00734 0.35857 0.0
H1018 H 0.16371 0.95881 0.35664 0.0
C1019 C 0.20071 0.91765 0.34347 0.0
C1020 C 0.18092 0.90352 0.33428 0.0
C1021 C 0.20589 0.93887 0.34883 0.0
C1022 C 0.18026 0.97224 0.35685 0.0
H1023 H 0.25011 0.0734 0.39869 0.0
H1024 H 0.24195 0.03853 0.38512 0.0
H1025 H 0.17238 0.99499 0.36783 0.0
H1026 H 0.15125 0.90056 0.32319 0.0
H1027 H 0.16042 0.93774 0.33234 0.0
H1028 H 0.23084 0.98455 0.3477 0.0
C1029 C 0.23097 0.04465 0.3826 0.0
C1030 C 0.18522 0.99299 0.36327 0.0
C1031 C 0.23553 0.06452 0.3905 0.0
C1032 C 0.16658 0.9111 0.33031 0.0
C1033 C 0.17178 0.93234 0.33564 0.0
C1034 C 0.21795 0.98659 0.35211 0.0
C1035 C 0.21211 0.0325 0.37198 0.0
C1036 C 0.20665 0.01074 0.36434 0.0
C1037 C 0.19143 0.94644 0.34507 0.0
C1038 C 0.19659 0.96874 0.3513 0.0
H1039 H 0.19148 0.06673 0.3749 0.0
H1040 H 0.18362 0.03208 0.36095 0.0
H1041 H 0.23953 0.02074 0.35902 0.0
H1042 H 0.21208 0.91221 0.34668 0.0
H1043 H 0.22103 0.94916 0.35623 0.0
C1044 C 0.48372 0.61582 0.30076 0.0
C1045 C 0.49021 0.60355 0.29137 0.0
C1046 C 0.49926 0.63564 0.30925 0.0
C1047 C 0.55799 0.66847 0.32418 0.0
H1048 H 0.54785 0.71738 0.32367 0.0
C1049 C 0.62625 0.75798 0.34149 0.0
C1050 C 0.62105 0.77173 0.35039 0.0
C1051 C 0.60995 0.73693 0.33541 0.0
C1052 C 0.55082 0.70382 0.3241 0.0
H1053 H 0.51816 0.6021 0.28407 0.0
H1054 H 0.54518 0.63681 0.29853 0.0
H1055 H 0.51994 0.68146 0.31128 0.0
H1056 H 0.59488 0.77426 0.36008 0.0
H1057 H 0.56637 0.7374 0.34952 0.0
H1058 H 0.58905 0.69098 0.33678 0.0
C1059 C 0.52811 0.63109 0.29946 0.0
C1060 C 0.53479 0.6832 0.31702 0.0
C1061 C 0.51259 0.6113 0.291 0.0
C1062 C 0.59932 0.76399 0.35324 0.0
C1063 C 0.58299 0.74295 0.34711 0.0
C1064 C 0.57404 0.6891 0.33122 0.0
C1065 C 0.52165 0.64364 0.30857 0.0
C1066 C 0.53824 0.6653 0.31686 0.0
C1067 C 0.58811 0.7292 0.33807 0.0
C1068 C 0.57071 0.70706 0.33116 0.0
H1069 H 0.46662 0.61041 0.30123 0.0
H1070 H 0.49371 0.64475 0.3163 0.0
H1071 H 0.56106 0.65497 0.32451 0.0
H1072 H 0.64288 0.76357 0.33909 0.0
H1073 H 0.6144 0.72686 0.32833 0.0
C1074 C 0.39261 0.90856 0.28147 0.0
C1075 C 0.39516 0.89034 0.27847 0.0
C1076 C 0.37389 0.90619 0.28762 0.0
C1077 C 0.32575 0.86652 0.3069 0.0
H1078 H 0.30258 0.90338 0.29458 0.0
C1079 C 0.23808 0.84841 0.31379 0.0
C1080 C 0.23693 0.86461 0.32328 0.0
C1081 C 0.25794 0.8523 0.30887 0.0
C1082 C 0.30901 0.89311 0.29816 0.0
H1083 H 0.38028 0.85539 0.27917 0.0
H1084 H 0.34708 0.85088 0.2891 0.0
H1085 H 0.33602 0.9084 0.28462 0.0
H1086 H 0.25549 0.89773 0.33477 0.0
H1087 H 0.29023 0.90478 0.32562 0.0
H1088 H 0.29792 0.85056 0.31977 0.0
C1089 C 0.35975 0.8672 0.28737 0.0
C1090 C 0.32824 0.89603 0.29256 0.0
C1091 C 0.37868 0.86968 0.28155 0.0
C1092 C 0.25595 0.88493 0.32752 0.0
C1093 C 0.27574 0.889 0.32227 0.0
C1094 C 0.30629 0.86331 0.31218 0.0
C1095 C 0.35711 0.88544 0.29058 0.0
C1096 C 0.33687 0.88272 0.29682 0.0
C1097 C 0.27688 0.87262 0.31305 0.0
C1098 C 0.29778 0.87655 0.30783 0.0
H1099 H 0.40527 0.92468 0.27928 0.0
H1100 H 0.37274 0.92069 0.29021 0.0
H1101 H 0.33206 0.85631 0.3108 0.0
H1102 H 0.2237 0.83256 0.31039 0.0
H1103 H 0.2585 0.8395 0.3017 0.0
C1104 C 0.10259 0.49352 0.29817 0.0
C1105 C 0.11756 0.51604 0.30138 0.0
C1106 C 0.10713 0.47816 0.30423 0.0
C1107 C 0.15305 0.47173 0.31919 0.0
H1108 H 0.10871 0.42103 0.33668 0.0
C1109 C 0.17376 0.41522 0.35264 0.0
C1110 C 0.15917 0.39262 0.35001 0.0
C1111 C 0.16822 0.42992 0.34665 0.0
C1112 C 0.1212 0.43495 0.33166 0.0
H1113 H 0.14903 0.54007 0.31351 0.0
H1114 H 0.15684 0.51329 0.32425 0.0
H1115 H 0.09982 0.44741 0.32646 0.0
H1116 H 0.12726 0.36757 0.33926 0.0
H1117 H 0.11765 0.39325 0.32852 0.0
H1118 H 0.17441 0.4593 0.32427 0.0
C1119 C 0.14165 0.50751 0.31693 0.0
C1120 C 0.11611 0.45008 0.32583 0.0
C1121 C 0.13707 0.52286 0.31093 0.0
C1122 C 0.13884 0.38494 0.34139 0.0
C1123 C 0.1333 0.39965 0.33535 0.0
C1124 C 0.15812 0.4566 0.32497 0.0
C1125 C 0.1268 0.48498 0.31358 0.0
C1126 C 0.13202 0.46871 0.31961 0.0
C1127 C 0.14797 0.42233 0.33787 0.0
C1128 C 0.1423 0.43809 0.33136 0.0
H1129 H 0.08732 0.48777 0.29097 0.0
H1130 H 0.09542 0.46093 0.30134 0.0
H1131 H 0.16556 0.48569 0.3142 0.0
H1132 H 0.18951 0.4216 0.3593 0.0
H1133 H 0.17975 0.44727 0.34904 0.0
C1134 C 0.3783 0.49336 0.28411 0.0
C1135 C 0.39635 0.50333 0.29556 0.0
C1136 C 0.35733 0.48005 0.28839 0.0
C1137 C 0.32533 0.4668 0.3229 0.0
H1138 H 0.28586 0.41294 0.29666 0.0
C1139 C 0.24776 0.39803 0.3445 0.0
C1140 C 0.22862 0.3877 0.33401 0.0
C1141 C 0.2677 0.41274 0.33938 0.0
C1142 C 0.2966 0.42805 0.30401 0.0
H1143 H 0.40677 0.50723 0.32043 0.0
H1144 H 0.37029 0.48374 0.32794 0.0
H1145 H 0.32165 0.43762 0.28855 0.0
H1146 H 0.2155 0.38475 0.30984 0.0
H1147 H 0.25041 0.41044 0.3009 0.0
H1148 H 0.3004 0.457 0.33849 0.0
C1149 C 0.37216 0.48649 0.31567 0.0
C1150 C 0.31711 0.44223 0.29936 0.0
C1151 C 0.39309 0.49984 0.31139 0.0
C1152 C 0.22992 0.3924 0.31824 0.0
C1153 C 0.24993 0.40704 0.31309 0.0
C1154 C 0.30488 0.45258 0.32758 0.0
C1155 C 0.35401 0.47636 0.30423 0.0
C1156 C 0.33181 0.46171 0.30882 0.0
C1157 C 0.26903 0.41742 0.32362 0.0
C1158 C 0.29036 0.43296 0.31826 0.0
H1159 H 0.38047 0.49582 0.27183 0.0
H1160 H 0.34372 0.47275 0.2793 0.0
H1161 H 0.33604 0.48185 0.33032 0.0
H1162 H 0.24739 0.39482 0.35673 0.0
H1163 H 0.28216 0.42025 0.34774 0.0
C1164 C 0.50355 0.89532 0.3121 0.0
C1165 C 0.49303 0.89084 0.2968 0.0
C1166 C 0.5194 0.88962 0.31552 0.0
C1167 C 0.53922 0.85319 0.30212 0.0
H1168 H 0.59269 0.89588 0.32729 0.0
C1169 C 0.61135 0.83817 0.31589 0.0
C1170 C 0.6221 0.84535 0.33122 0.0
C1171 C 0.59591 0.84383 0.31075 0.0
C1172 C 0.57777 0.88367 0.3204 0.0
H1173 H 0.49141 0.87769 0.27292 0.0
H1174 H 0.51893 0.8673 0.27897 0.0
H1175 H 0.56485 0.90523 0.3203 0.0
H1176 H 0.62479 0.86377 0.35325 0.0
H1177 H 0.59773 0.87318 0.34446 0.0
H1178 H 0.55192 0.83143 0.30251 0.0
C1179 C 0.51461 0.87489 0.28836 0.0
C1180 C 0.56185 0.88906 0.31637 0.0
C1181 C 0.49888 0.88079 0.28491 0.0
C1182 C 0.61699 0.85814 0.34131 0.0
C1183 C 0.60153 0.86366 0.33622 0.0
C1184 C 0.5551 0.8477 0.30626 0.0
C1185 C 0.52513 0.87939 0.30368 0.0
C1186 C 0.54232 0.87382 0.30734 0.0
C1187 C 0.59087 0.8567 0.32086 0.0
C1188 C 0.57446 0.86281 0.31561 0.0
H1189 H 0.49962 0.90342 0.3214 0.0
H1190 H 0.52716 0.89317 0.32745 0.0
H1191 H 0.52425 0.84108 0.29522 0.0
H1192 H 0.61494 0.82831 0.30781 0.0
H1193 H 0.58815 0.83836 0.29879 0.0
C1194 C 0.09971 0.62042 0.3116 0.0
C1195 C 0.11176 0.6116 0.3183 0.0
C1196 C 0.10657 0.64259 0.31493 0.0
C1197 C 0.14232 0.69082 0.34362 0.0
H1198 H 0.13602 0.7231 0.31061 0.0
C1199 C 0.18089 0.78484 0.35101 0.0
C1200 C 0.16769 0.79313 0.34558 0.0
C1201 C 0.17415 0.76271 0.34765 0.0
C1202 C 0.13771 0.71425 0.31998 0.0
H1203 H 0.14054 0.61889 0.3334 0.0
H1204 H 0.15288 0.65778 0.33904 0.0
H1205 H 0.12425 0.68448 0.30476 0.0
H1206 H 0.13711 0.78488 0.33245 0.0
H1207 H 0.12539 0.74622 0.32645 0.0
H1208 H 0.15602 0.72072 0.35878 0.0
C1209 C 0.13785 0.64754 0.33151 0.0
C1210 C 0.13092 0.6921 0.31665 0.0
C1211 C 0.13091 0.62535 0.32824 0.0
C1212 C 0.14767 0.77893 0.33669 0.0
C1213 C 0.141 0.75683 0.33322 0.0
C1214 C 0.14923 0.713 0.34692 0.0
C1215 C 0.12575 0.65645 0.32492 0.0
C1216 C 0.13309 0.68008 0.32844 0.0
C1217 C 0.15414 0.74847 0.3387 0.0
C1218 C 0.14696 0.72494 0.33515 0.0
H1219 H 0.08492 0.61014 0.30383 0.0
H1220 H 0.09669 0.6488 0.30981 0.0
H1221 H 0.14391 0.68201 0.35305 0.0
H1222 H 0.19643 0.79546 0.35787 0.0
H1223 H 0.18473 0.75679 0.35189 0.0
C1224 C 0.84984 0.04989 0.36785 0.0
C1225 C 0.84515 0.06327 0.37764 0.0
C1226 C 0.83436 0.02778 0.36394 0.0
C1227 C 0.78375 0.98238 0.37635 0.0
H1228 H 0.77677 0.95664 0.33361 0.0
C1229 C 0.71151 0.89704 0.35246 0.0
C1230 C 0.71641 0.88334 0.34321 0.0
C1231 C 0.72737 0.91889 0.35692 0.0
C1232 C 0.77867 0.96353 0.34563 0.0
H1233 H 0.821 0.06408 0.39142 0.0
H1234 H 0.79371 0.02558 0.38434 0.0
H1235 H 0.80419 0.9949 0.34098 0.0
H1236 H 0.74164 0.88163 0.33134 0.0
H1237 H 0.76935 0.91983 0.33906 0.0
H1238 H 0.758 0.951 0.3809 0.0
C1239 C 0.80937 0.03202 0.37977 0.0
C1240 C 0.79442 0.98546 0.34988 0.0
C1241 C 0.8249 0.0541 0.38372 0.0
C1242 C 0.73741 0.89187 0.33844 0.0
C1243 C 0.75324 0.91375 0.3428 0.0
C1244 C 0.76792 0.96047 0.37207 0.0
C1245 C 0.81387 0.01859 0.36976 0.0
C1246 C 0.79718 0.99517 0.3653 0.0
C1247 C 0.7484 0.92751 0.3521 0.0
C1248 C 0.76521 0.95079 0.35667 0.0
H1249 H 0.86549 0.05659 0.36322 0.0
H1250 H 0.83854 0.01785 0.35645 0.0
H1251 H 0.78565 0.98921 0.38839 0.0
H1252 H 0.6954 0.89089 0.35624 0.0
H1253 H 0.72307 0.92914 0.36393 0.0
C1254 C 0.94724 0.76785 0.38282 0.0
C1255 C 0.94501 0.77188 0.39866 0.0
C1256 C 0.96788 0.7753 0.37782 0.0
C1257 C 0.02588 0.81576 0.38813 0.0
H1258 H 0.0349 0.77637 0.36038 0.0
C1259 C 0.11115 0.83666 0.37091 0.0
C1260 C 0.11232 0.83014 0.35533 0.0
C1261 C 0.09093 0.82996 0.37652 0.0
C1262 C 0.03261 0.78769 0.36796 0.0
H1263 H 0.96235 0.78644 0.42175 0.0
H1264 H 0.9986 0.7997 0.41299 0.0
H1265 H 0.99921 0.76397 0.36945 0.0
H1266 H 0.09321 0.81201 0.33332 0.0
H1267 H 0.05814 0.80078 0.34297 0.0
H1268 H 0.05923 0.83959 0.38649 0.0
C1269 C 0.98442 0.79101 0.40442 0.0
C1270 C 0.01216 0.78055 0.37318 0.0
C1271 C 0.96375 0.78341 0.40943 0.0
C1272 C 0.0929 0.81715 0.34543 0.0
C1273 C 0.07275 0.81058 0.351 0.0
C1274 C 0.04634 0.82297 0.38283 0.0
C1275 C 0.98668 0.78694 0.38857 0.0
C1276 C 0.00854 0.79453 0.38326 0.0
C1277 C 0.07149 0.81671 0.36665 0.0
C1278 C 0.04992 0.80904 0.37261 0.0
H1279 H 0.93302 0.75886 0.37431 0.0
H1280 H 0.96914 0.77209 0.36551 0.0
H1281 H 0.0235 0.82696 0.39579 0.0
H1282 H 0.12581 0.84664 0.37886 0.0
H1283 H 0.09055 0.8348 0.38869 0.0
C1284 C 0.21322 0.16855 0.3705 0.0
C1285 C 0.23256 0.17582 0.38033 0.0
C1286 C 0.20629 0.18316 0.36662 0.0
C1287 C 0.21402 0.23779 0.37936 0.0
H1288 H 0.18687 0.23177 0.33726 0.0
C1289 C 0.19512 0.3024 0.35607 0.0
C1290 C 0.17467 0.29431 0.3475 0.0
C1291 C 0.20226 0.28809 0.3604 0.0
C1292 C 0.19425 0.23354 0.3491 0.0
H1293 H 0.26009 0.20407 0.3936 0.0
H1294 H 0.24831 0.22977 0.38657 0.0
H1295 H 0.19946 0.20669 0.344 0.0
H1296 H 0.14559 0.26501 0.33682 0.0
H1297 H 0.1581 0.24003 0.34427 0.0
H1298 H 0.20902 0.26488 0.38433 0.0
C1299 C 0.23817 0.21269 0.38214 0.0
C1300 C 0.20143 0.21913 0.35299 0.0
C1301 C 0.24502 0.19803 0.38608 0.0
C1302 C 0.16147 0.27169 0.34338 0.0
C1303 C 0.16866 0.25741 0.34759 0.0
C1304 C 0.20697 0.2523 0.37542 0.0
C1305 C 0.21869 0.20543 0.37238 0.0
C1306 C 0.21132 0.221 0.36819 0.0
C1307 C 0.18916 0.26545 0.3561 0.0
C1308 C 0.19692 0.25026 0.36027 0.0
H1309 H 0.2034 0.15149 0.3659 0.0
H1310 H 0.19106 0.17691 0.35926 0.0
H1311 H 0.22126 0.23953 0.39124 0.0
H1312 H 0.2057 0.31979 0.35928 0.0
H1313 H 0.21821 0.29478 0.36682 0.0
C1314 C 0.6317 0.50575 0.74756 0.0
C1315 C 0.61229 0.49544 0.73736 0.0
C1316 C 0.65093 0.52233 0.74271 0.0
C1317 C 0.67713 0.54542 0.70705 0.0
H1318 H 0.71621 0.59574 0.7366 0.0
C1319 C 0.75171 0.6213 0.68819 0.0
C1320 C 0.7713 0.63012 0.6981 0.0
C1321 C 0.73215 0.60524 0.69302 0.0
C1322 C 0.70555 0.5817 0.72825 0.0
H1323 H 0.59782 0.49461 0.7141 0.0
H1324 H 0.63135 0.52369 0.70566 0.0
H1325 H 0.68234 0.56699 0.74483 0.0
H1326 H 0.78557 0.62914 0.72098 0.0
H1327 H 0.75144 0.6011 0.72936 0.0
H1328 H 0.70033 0.56023 0.69046 0.0
C1329 C 0.6318 0.5187 0.71733 0.0
C1330 C 0.68615 0.5652 0.73297 0.0
C1331 C 0.61257 0.50205 0.72217 0.0
C1332 C 0.77081 0.62271 0.71304 0.0
C1333 C 0.75122 0.60672 0.71789 0.0
C1334 C 0.69649 0.56197 0.70232 0.0
C1335 C 0.65122 0.52907 0.72756 0.0
C1336 C 0.67173 0.5468 0.72245 0.0
C1337 C 0.73169 0.59769 0.70789 0.0
C1338 C 0.71096 0.58027 0.71288 0.0
H1339 H 0.6321 0.50079 0.75925 0.0
H1340 H 0.66565 0.52965 0.75079 0.0
H1341 H 0.66659 0.53134 0.69871 0.0
H1342 H 0.75147 0.62663 0.67661 0.0
H1343 H 0.71733 0.59881 0.68512 0.0
C1344 C 0.52449 0.13215 0.73353 0.0
C1345 C 0.51954 0.11509 0.74303 0.0
C1346 C 0.50791 0.13498 0.72653 0.0
C1347 C 0.47152 0.14572 0.72329 0.0
H1348 H 0.41621 0.09652 0.70496 0.0
C1349 C 0.39555 0.15352 0.71 0.0
C1350 C 0.38294 0.14344 0.6955 0.0
C1351 C 0.41216 0.14955 0.71513 0.0
C1352 C 0.43162 0.11044 0.70993 0.0
H1353 H 0.4933 0.0871 0.75212 0.0
H1354 H 0.46439 0.09217 0.74004 0.0
H1355 H 0.44568 0.09041 0.71434 0.0
H1356 H 0.37768 0.12099 0.67513 0.0
H1357 H 0.40671 0.11407 0.68412 0.0
H1358 H 0.45752 0.16576 0.71888 0.0
C1359 C 0.48106 0.10332 0.73796 0.0
C1360 C 0.44842 0.10691 0.71542 0.0
C1361 C 0.49763 0.10056 0.74501 0.0
C1362 C 0.38708 0.12901 0.68636 0.0
C1363 C 0.40365 0.12497 0.69153 0.0
C1364 C 0.4547 0.14922 0.71788 0.0
C1365 C 0.48603 0.12073 0.72881 0.0
C1366 C 0.46852 0.12451 0.72225 0.0
C1367 C 0.4165 0.13535 0.70591 0.0
C1368 C 0.43451 0.13161 0.71125 0.0
H1369 H 0.54124 0.14367 0.73185 0.0
H1370 H 0.51223 0.14842 0.7194 0.0
H1371 H 0.48673 0.15958 0.72863 0.0
H1372 H 0.3928 0.16469 0.71737 0.0
H1373 H 0.42156 0.15753 0.72637 0.0
C1374 C 0.87033 0.39553 0.71186 0.0
C1375 C 0.8891 0.40753 0.72259 0.0
C1376 C 0.86549 0.37539 0.70421 0.0
C1377 C 0.88968 0.34124 0.69375 0.0
H1378 H 0.83041 0.2931 0.69269 0.0
C1379 C 0.86645 0.25124 0.6784 0.0
C1380 C 0.84647 0.23732 0.66937 0.0
C1381 C 0.87189 0.27247 0.684 0.0
C1382 C 0.84697 0.30641 0.69266 0.0
H1383 H 0.91793 0.40824 0.73321 0.0
H1384 H 0.90939 0.37304 0.71999 0.0
H1385 H 0.83957 0.32954 0.70363 0.0
H1386 H 0.81668 0.2347 0.65885 0.0
H1387 H 0.8263 0.27187 0.66836 0.0
H1388 H 0.89711 0.3181 0.68284 0.0
C1389 C 0.89844 0.37919 0.71745 0.0
C1390 C 0.85222 0.32731 0.69894 0.0
C1391 C 0.90322 0.39925 0.72515 0.0
C1392 C 0.83216 0.24507 0.66585 0.0
C1393 C 0.83762 0.26632 0.67139 0.0
C1394 C 0.88442 0.32035 0.68742 0.0
C1395 C 0.87938 0.3669 0.70705 0.0
C1396 C 0.87366 0.34494 0.69966 0.0
C1397 C 0.8575 0.28025 0.68061 0.0
C1398 C 0.86302 0.30264 0.68689 0.0
H1399 H 0.85907 0.40141 0.70971 0.0
H1400 H 0.8508 0.36641 0.69613 0.0
H1401 H 0.9063 0.35455 0.69394 0.0
H1402 H 0.8778 0.24566 0.68127 0.0
H1403 H 0.88721 0.28264 0.69122 0.0
C1404 C 0.17855 0.94325 0.62163 0.0
C1405 C 0.1562 0.9356 0.62212 0.0
C1406 C 0.19419 0.96324 0.62978 0.0
C1407 C 0.20107 0.01587 0.64625 0.0
H1408 H 0.2556 0.02443 0.66613 0.0
C1409 C 0.26504 0.09726 0.68185 0.0
C1410 C 0.2869 0.10511 0.67934 0.0
C1411 C 0.24891 0.07619 0.67568 0.0
C1412 C 0.24053 0.02234 0.66052 0.0
H1413 H 0.1328 0.94278 0.63193 0.0
H1414 H 0.16012 0.97751 0.64645 0.0
H1415 H 0.22758 0.98807 0.65444 0.0
H1416 H 0.30916 0.0971 0.66855 0.0
H1417 H 0.28095 0.06027 0.65766 0.0
H1418 H 0.21406 0.05015 0.65226 0.0
C1419 C 0.16554 0.96817 0.63953 0.0
C1420 C 0.22446 0.00149 0.65382 0.0
C1421 C 0.14987 0.94814 0.63136 0.0
C1422 C 0.2924 0.09144 0.67066 0.0
C1423 C 0.27628 0.07032 0.66452 0.0
C1424 C 0.21711 0.03668 0.65298 0.0
C1425 C 0.18789 0.9761 0.63867 0.0
C1426 C 0.20458 0.99802 0.64651 0.0
C1427 C 0.25432 0.06247 0.66691 0.0
C1428 C 0.23708 0.0402 0.6601 0.0
H1429 H 0.18399 0.93384 0.6148 0.0
H1430 H 0.21123 0.9689 0.62873 0.0
H1431 H 0.18613 0.01389 0.64048 0.0
H1432 H 0.26036 0.10746 0.68853 0.0
H1433 H 0.2322 0.07056 0.67789 0.0
C1434 C 0.05438 0.23787 0.60765 0.0
C1435 C 0.06087 0.22264 0.61106 0.0
C1436 C 0.03567 0.23629 0.61328 0.0
C1437 C 0.99842 0.21283 0.6438 0.0
H1438 H 0.9576 0.21915 0.61555 0.0
C1439 C 0.90375 0.19148 0.63999 0.0
C1440 C 0.90315 0.19983 0.65516 0.0
C1441 C 0.92355 0.19583 0.63467 0.0
C1442 C 0.96883 0.21731 0.62356 0.0
H1443 H 0.05263 0.19372 0.62297 0.0
H1444 H 0.02014 0.19111 0.6329 0.0
H1445 H 0.99117 0.2235 0.60625 0.0
H1446 H 0.92296 0.21959 0.67654 0.0
H1447 H 0.95753 0.22717 0.66721 0.0
H1448 H 0.9759 0.20622 0.66101 0.0
C1449 C 0.02967 0.20441 0.62601 0.0
C1450 C 0.98814 0.22 0.61829 0.0
C1451 C 0.0483 0.20592 0.62033 0.0
C1452 C 0.92283 0.21287 0.6648 0.0
C1453 C 0.94263 0.21712 0.6595 0.0
C1454 C 0.97918 0.21026 0.6491 0.0
C1455 C 0.02311 0.21953 0.62252 0.0
C1456 C 0.00305 0.21759 0.62831 0.0
C1457 C 0.94319 0.20854 0.64442 0.0
C1458 C 0.96408 0.21229 0.63899 0.0
H1459 H 0.06389 0.25117 0.60078 0.0
H1460 H 0.03118 0.24835 0.61057 0.0
H1461 H 0.0097 0.2111 0.65184 0.0
H1462 H 0.8889 0.18138 0.63224 0.0
H1463 H 0.92342 0.18879 0.62306 0.0
C1464 C 0.80401 0.85558 0.64435 0.0
C1465 C 0.78491 0.84865 0.63427 0.0
C1466 C 0.80845 0.84032 0.6507 0.0
C1467 C 0.7829 0.78294 0.65956 0.0
H1468 H 0.84145 0.79248 0.65906 0.0
C1469 C 0.80547 0.7179 0.67581 0.0
C1470 C 0.82582 0.72552 0.68439 0.0
C1471 C 0.79995 0.73265 0.66981 0.0
C1472 C 0.82509 0.78969 0.65949 0.0
H1473 H 0.75523 0.82026 0.62324 0.0
H1474 H 0.76305 0.79357 0.63426 0.0
H1475 H 0.83275 0.81877 0.64864 0.0
H1476 H 0.85613 0.75446 0.69378 0.0
H1477 H 0.84638 0.78021 0.68365 0.0
H1478 H 0.77528 0.75392 0.67053 0.0
C1479 C 0.77455 0.81083 0.63729 0.0
C1480 C 0.8201 0.80476 0.6535 0.0
C1481 C 0.77017 0.8261 0.63087 0.0
C1482 C 0.84037 0.74812 0.68712 0.0
C1483 C 0.83484 0.76286 0.6812 0.0
C1484 C 0.78792 0.76788 0.66564 0.0
C1485 C 0.79385 0.81777 0.64716 0.0
C1486 C 0.79899 0.80161 0.6535 0.0
C1487 C 0.81464 0.75533 0.67235 0.0
C1488 C 0.8091 0.77112 0.66573 0.0
H1489 H 0.81578 0.87283 0.64709 0.0
H1490 H 0.82334 0.84619 0.6584 0.0
H1491 H 0.76653 0.78018 0.65987 0.0
H1492 H 0.79388 0.70053 0.67364 0.0
H1493 H 0.78434 0.72626 0.66294 0.0
C1494 C 0.06015 0.83103 0.64301 0.0
C1495 C 0.06283 0.83534 0.62725 0.0
C1496 C 0.03946 0.81729 0.64752 0.0
C1497 C 0.98069 0.79337 0.6356 0.0
H1498 H 0.97486 0.75039 0.66387 0.0
C1499 C 0.89676 0.72572 0.65133 0.0
C1500 C 0.8955 0.72058 0.667 0.0
C1501 C 0.91691 0.73976 0.64606 0.0
C1502 C 0.97621 0.76246 0.65613 0.0
H1503 H 0.04615 0.82877 0.60386 0.0
H1504 H 0.00981 0.80473 0.61174 0.0
H1505 H 0.01042 0.7751 0.65563 0.0
H1506 H 0.91445 0.72656 0.68947 0.0
H1507 H 0.94931 0.75119 0.68039 0.0
H1508 H 0.94647 0.78082 0.63623 0.0
C1509 C 0.02367 0.81215 0.62063 0.0
C1510 C 0.99662 0.77662 0.65139 0.0
C1511 C 0.04442 0.82582 0.6161 0.0
C1512 C 0.91479 0.72998 0.67729 0.0
C1513 C 0.93486 0.74404 0.67205 0.0
C1514 C 0.96025 0.77924 0.64041 0.0
C1515 C 0.021 0.80756 0.63637 0.0
C1516 C 0.99914 0.79233 0.64115 0.0
C1517 C 0.93622 0.74901 0.65635 0.0
C1518 C 0.95778 0.7637 0.65082 0.0
H1519 H 0.0741 0.83812 0.65182 0.0
H1520 H 0.03791 0.81431 0.65977 0.0
H1521 H 0.98214 0.80542 0.62781 0.0
H1522 H 0.88223 0.71875 0.64308 0.0
H1523 H 0.91737 0.74306 0.63385 0.0
C1524 C 0.16771 0.21843 0.61822 0.0
C1525 C 0.16183 0.22809 0.63035 0.0
C1526 C 0.18385 0.21298 0.62131 0.0
C1527 C 0.23149 0.22692 0.64899 0.0
H1528 H 0.22148 0.16956 0.63414 0.0
C1529 C 0.28571 0.19449 0.67316 0.0
C1530 C 0.29078 0.18184 0.66288 0.0
C1531 C 0.27063 0.20054 0.66816 0.0
C1532 C 0.22469 0.18577 0.63816 0.0
H1533 H 0.16874 0.24046 0.65501 0.0
H1534 H 0.197 0.23098 0.66044 0.0
H1535 H 0.19386 0.17943 0.62731 0.0
H1536 H 0.28399 0.16571 0.63918 0.0
H1537 H 0.2578 0.17663 0.63034 0.0
H1538 H 0.26228 0.2334 0.65979 0.0
C1539 C 0.18901 0.22745 0.64858 0.0
C1540 C 0.20884 0.19139 0.63428 0.0
C1541 C 0.17276 0.23272 0.64552 0.0
C1542 C 0.28042 0.17543 0.64741 0.0
C1543 C 0.26534 0.1816 0.64237 0.0
C1544 C 0.24737 0.22139 0.65277 0.0
C1545 C 0.1947 0.21749 0.63652 0.0
C1546 C 0.21195 0.2119 0.63986 0.0
C1547 C 0.26028 0.19424 0.65271 0.0
C1548 C 0.24403 0.20062 0.64763 0.0
H1549 H 0.15982 0.21515 0.60635 0.0
H1550 H 0.18811 0.20559 0.61175 0.0
H1551 H 0.2345 0.24301 0.6532 0.0
H1552 H 0.29323 0.19958 0.6852 0.0
H1553 H 0.26681 0.20988 0.67654 0.0
C1554 C 0.79665 0.95773 0.65909 0.0
C1555 C 0.77756 0.94381 0.64914 0.0
C1556 C 0.80346 0.97991 0.66221 0.0
C1557 C 0.79621 0.02412 0.64699 0.0
H1558 H 0.82163 0.05323 0.68896 0.0
C1559 C 0.81379 0.11151 0.66681 0.0
C1560 C 0.83388 0.12555 0.67569 0.0
C1561 C 0.80692 0.08936 0.66327 0.0
C1562 C 0.81474 0.04538 0.67714 0.0
H1563 H 0.7506 0.94201 0.6346 0.0
H1564 H 0.76213 0.98065 0.64032 0.0
H1565 H 0.8094 0.01448 0.6835 0.0
H1566 H 0.86262 0.12758 0.68773 0.0
H1567 H 0.85059 0.08888 0.68164 0.0
H1568 H 0.80134 0.05507 0.64075 0.0
C1569 C 0.7721 0.97459 0.64553 0.0
C1570 C 0.80777 0.02317 0.67399 0.0
C1571 C 0.76538 0.95243 0.64234 0.0
C1572 C 0.84701 0.11709 0.68091 0.0
C1573 C 0.84009 0.09493 0.67748 0.0
C1574 C 0.80306 0.04632 0.65018 0.0
C1575 C 0.79125 0.98863 0.65549 0.0
C1576 C 0.79848 0.01226 0.65886 0.0
C1577 C 0.81994 0.08081 0.66867 0.0
C1578 C 0.81247 0.0572 0.66527 0.0
H1579 H 0.80636 0.95142 0.66436 0.0
H1580 H 0.81847 0.99028 0.66972 0.0
H1581 H 0.78945 0.01637 0.63514 0.0
H1582 H 0.80329 0.11759 0.66272 0.0
H1583 H 0.79123 0.07884 0.65658 0.0
C1584 C 0.49213 0.38902 0.71928 0.0
C1585 C 0.51252 0.39817 0.7134 0.0
C1586 C 0.47661 0.36694 0.71525 0.0
C1587 C 0.46213 0.32046 0.68541 0.0
H1588 H 0.42511 0.28578 0.71609 0.0
C1589 C 0.40591 0.22699 0.67351 0.0
C1590 C 0.38466 0.21824 0.67781 0.0
C1591 C 0.42155 0.24883 0.67818 0.0
C1592 C 0.4352 0.29532 0.70735 0.0
H1593 H 0.53307 0.39148 0.69922 0.0
H1594 H 0.50615 0.35277 0.69233 0.0
H1595 H 0.45255 0.32404 0.72373 0.0
H1596 H 0.36306 0.22532 0.69048 0.0
H1597 H 0.39045 0.26355 0.69872 0.0
H1598 H 0.44488 0.29168 0.66908 0.0
C1599 C 0.50186 0.3627 0.69972 0.0
C1600 C 0.45091 0.31726 0.71172 0.0
C1601 C 0.51733 0.38479 0.70371 0.0
C1602 C 0.37936 0.23165 0.68703 0.0
C1603 C 0.39506 0.25349 0.69179 0.0
C1604 C 0.44651 0.29852 0.68108 0.0
C1605 C 0.48124 0.35352 0.70535 0.0
C1606 C 0.46458 0.33011 0.70079 0.0
C1607 C 0.41629 0.26236 0.68732 0.0
C1608 C 0.43286 0.28569 0.69199 0.0
H1609 H 0.48813 0.39899 0.72688 0.0
H1610 H 0.46085 0.36051 0.71967 0.0
H1611 H 0.47207 0.32995 0.6766 0.0
H1612 H 0.41046 0.21697 0.66646 0.0
H1613 H 0.43784 0.25508 0.67472 0.0
C1614 C 0.61288 0.10115 0.71537 0.0
C1615 C 0.61063 0.10461 0.73129 0.0
C1616 C 0.63346 0.10792 0.71045 0.0
C1617 C 0.69176 0.14639 0.72159 0.0
H1618 H 0.69965 0.1078 0.69213 0.0
C1619 C 0.77662 0.1667 0.70402 0.0
C1620 C 0.77788 0.16131 0.68819 0.0
C1621 C 0.75639 0.15976 0.70966 0.0
C1622 C 0.69768 0.1189 0.70021 0.0
H1623 H 0.62783 0.11751 0.75459 0.0
H1624 H 0.66397 0.12953 0.746 0.0
H1625 H 0.66395 0.09572 0.70116 0.0
H1626 H 0.75886 0.14475 0.66581 0.0
H1627 H 0.72374 0.1331 0.67554 0.0
H1628 H 0.7254 0.16971 0.72048 0.0
C1629 C 0.64987 0.12176 0.73731 0.0
C1630 C 0.67723 0.11194 0.7054 0.0
C1631 C 0.62926 0.11485 0.74223 0.0
C1632 C 0.7585 0.14905 0.67811 0.0
C1633 C 0.73832 0.14224 0.68371 0.0
C1634 C 0.71221 0.15342 0.71632 0.0
C1635 C 0.65218 0.11835 0.72136 0.0
C1636 C 0.67402 0.12564 0.71609 0.0
C1637 C 0.73698 0.14738 0.69958 0.0
C1638 C 0.71539 0.13979 0.70551 0.0
H1639 H 0.59874 0.09324 0.70672 0.0
H1640 H 0.63477 0.10526 0.69806 0.0
H1641 H 0.68971 0.1574 0.7297 0.0
H1642 H 0.79124 0.17607 0.71212 0.0
H1643 H 0.75596 0.16381 0.72199 0.0
C1644 C 0.91271 0.53262 0.7195 0.0
C1645 C 0.90035 0.51033 0.71398 0.0
C1646 C 0.90573 0.54709 0.7153 0.0
C1647 C 0.86873 0.55275 0.68589 0.0
H1648 H 0.87621 0.59892 0.71677 0.0
C1649 C 0.82868 0.60522 0.67562 0.0
C1650 C 0.84186 0.62785 0.67972 0.0
C1651 C 0.8359 0.59097 0.67988 0.0
C1652 C 0.87419 0.58622 0.70798 0.0
H1653 H 0.87124 0.48564 0.69969 0.0
H1654 H 0.85868 0.51074 0.6926 0.0
H1655 H 0.88858 0.5738 0.72403 0.0
H1656 H 0.87294 0.65339 0.69139 0.0
H1657 H 0.88548 0.62846 0.69901 0.0
H1658 H 0.85407 0.56505 0.66992 0.0
C1659 C 0.87393 0.5172 0.69998 0.0
C1660 C 0.88132 0.57185 0.71212 0.0
C1661 C 0.88099 0.50277 0.70411 0.0
C1662 C 0.86235 0.63599 0.68823 0.0
C1663 C 0.86951 0.62172 0.6926 0.0
C1664 C 0.86147 0.56703 0.68179 0.0
C1665 C 0.88621 0.53956 0.70552 0.0
C1666 C 0.87869 0.55492 0.70112 0.0
C1667 C 0.8564 0.59907 0.6884 0.0
C1668 C 0.86413 0.58392 0.69279 0.0
H1669 H 0.9278 0.53887 0.72704 0.0
H1670 H 0.9158 0.56424 0.71958 0.0
H1671 H 0.86679 0.54018 0.67702 0.0
H1672 H 0.81278 0.59851 0.66909 0.0
H1673 H 0.82534 0.57358 0.67663 0.0
C1674 C 0.46715 0.92662 0.23365 0.0
C1675 C 0.44525 0.9125 0.23594 0.0
C1676 C 0.47277 0.93439 0.21904 0.0
C1677 C 0.45094 0.94388 0.18214 0.0
H1678 H 0.50034 0.94373 0.16548 0.0
C1679 C 0.47353 0.96587 0.11929 0.0
C1680 C 0.49582 0.97894 0.11759 0.0
C1681 C 0.46676 0.9571 0.13348 0.0
C1682 C 0.48665 0.94411 0.17003 0.0
H1683 H 0.41209 0.89551 0.22463 0.0
H1684 H 0.42193 0.90932 0.19916 0.0
H1685 H 0.48974 0.93015 0.19085 0.0
H1686 H 0.52847 0.99264 0.12938 0.0
H1687 H 0.51669 0.97789 0.15418 0.0
H1688 H 0.448 0.9581 0.16141 0.0
C1689 C 0.43471 0.91447 0.20873 0.0
C1690 C 0.48057 0.93631 0.18457 0.0
C1691 C 0.42908 0.9066 0.22333 0.0
C1692 C 0.51117 0.98289 0.13035 0.0
C1693 C 0.50441 0.97419 0.14452 0.0
C1694 C 0.45708 0.95179 0.16762 0.0
C1695 C 0.45663 0.92831 0.20641 0.0
C1696 C 0.46274 0.93623 0.19082 0.0
C1697 C 0.48214 0.96119 0.14627 0.0
C1698 C 0.47509 0.95212 0.16144 0.0
H1699 H 0.47997 0.93182 0.24319 0.0
H1700 H 0.48978 0.94535 0.21768 0.0
H1701 H 0.43725 0.94421 0.18674 0.0
H1702 H 0.46129 0.96266 0.10974 0.0
H1703 H 0.44949 0.94698 0.13439 0.0
C1704 C 0.07627 0.52076 0.24801 0.0
C1705 C 0.09311 0.54131 0.25487 0.0
C1706 C 0.06906 0.51754 0.232 0.0
C1707 C 0.08635 0.54019 0.19435 0.0
H1708 H 0.02455 0.5073 0.18027 0.0
C1709 C 0.05374 0.51727 0.12843 0.0
C1710 C 0.03619 0.52025 0.12372 0.0
C1711 C 0.06039 0.5188 0.14441 0.0
C1712 C 0.04186 0.51659 0.18403 0.0
H1713 H 0.11568 0.57454 0.25026 0.0
H1714 H 0.10291 0.56899 0.22237 0.0
H1715 H 0.03675 0.51248 0.20829 0.0
H1716 H 0.01201 0.52738 0.13216 0.0
H1717 H 0.02351 0.52989 0.15996 0.0
H1718 H 0.09146 0.54466 0.17014 0.0
C1719 C 0.09539 0.55533 0.22935 0.0
C1720 C 0.04885 0.51937 0.20006 0.0
C1721 C 0.10252 0.55857 0.24537 0.0
C1722 C 0.02533 0.52459 0.13536 0.0
C1723 C 0.03194 0.52605 0.15131 0.0
C1724 C 0.07937 0.53733 0.17833 0.0
C1725 C 0.07862 0.53476 0.22247 0.0
C1726 C 0.07117 0.53134 0.20541 0.0
C1727 C 0.04961 0.5233 0.15602 0.0
C1728 C 0.05704 0.52561 0.17299 0.0
H1729 H 0.06857 0.50719 0.25506 0.0
H1730 H 0.05622 0.50146 0.22702 0.0
H1731 H 0.10367 0.54928 0.19808 0.0
H1732 H 0.06227 0.51361 0.11978 0.0
H1733 H 0.07389 0.5163 0.14767 0.0
C1734 C 0.48705 0.55963 0.23725 0.0
C1735 C 0.46629 0.55578 0.24022 0.0
C1736 C 0.49155 0.55677 0.22192 0.0
C1737 C 0.46578 0.53102 0.1816 0.0
H1738 H 0.5215 0.57494 0.16969 0.0
C1739 C 0.48743 0.53794 0.11705 0.0
C1740 C 0.50872 0.54298 0.11455 0.0
C1741 C 0.48157 0.53823 0.13234 0.0
C1742 C 0.50597 0.56239 0.17286 0.0
H1743 H 0.43385 0.54556 0.22945 0.0
H1744 H 0.44175 0.54071 0.2026 0.0
H1745 H 0.5125 0.5777 0.19637 0.0
H1746 H 0.54022 0.55128 0.12618 0.0
H1747 H 0.53004 0.55185 0.15277 0.0
H1748 H 0.45926 0.51585 0.15795 0.0
C1749 C 0.45448 0.54569 0.21217 0.0
C1750 C 0.50081 0.56395 0.18818 0.0
C1751 C 0.44996 0.54849 0.22754 0.0
C1752 C 0.52383 0.54779 0.12768 0.0
C1753 C 0.51799 0.5481 0.14293 0.0
C1754 C 0.47095 0.52948 0.16623 0.0
C1755 C 0.47542 0.55006 0.20916 0.0
C1756 C 0.4807 0.54825 0.19278 0.0
C1757 C 0.49688 0.54359 0.14545 0.0
C1758 C 0.49115 0.54511 0.16171 0.0
H1759 H 0.49986 0.56485 0.24681 0.0
H1760 H 0.50771 0.55981 0.22008 0.0
H1761 H 0.45024 0.51852 0.1848 0.0
H1762 H 0.47546 0.53436 0.10719 0.0
H1763 H 0.46523 0.53488 0.13389 0.0
C1764 C 0.89878 0.43744 0.78316 0.0
C1765 C 0.91021 0.45445 0.77382 0.0
C1766 C 0.90485 0.44014 0.79932 0.0
C1767 C 0.93711 0.48219 0.83298 0.0
H1768 H 0.93477 0.43275 0.85189 0.0
C1769 C 0.97668 0.48807 0.89576 0.0
C1770 C 0.96439 0.47125 0.90505 0.0
C1771 C 0.96939 0.48681 0.87998 0.0
C1772 C 0.93529 0.44663 0.84681 0.0
H1773 H 0.93685 0.48771 0.77406 0.0
H1774 H 0.94784 0.49235 0.80229 0.0
H1775 H 0.92373 0.42914 0.82389 0.0
H1776 H 0.93474 0.44005 0.90513 0.0
H1777 H 0.92201 0.43787 0.87756 0.0
H1778 H 0.94919 0.49976 0.85597 0.0
C1779 C 0.9339 0.47703 0.79718 0.0
C1780 C 0.92892 0.44457 0.83076 0.0
C1781 C 0.92767 0.47437 0.78101 0.0
C1782 C 0.94448 0.45335 0.8983 0.0
C1783 C 0.9373 0.45199 0.8825 0.0
C1784 C 0.94368 0.4843 0.84904 0.0
C1785 C 0.92265 0.45987 0.80652 0.0
C1786 C 0.92964 0.46228 0.82363 0.0
C1787 C 0.94978 0.4686 0.87313 0.0
C1788 C 0.94274 0.4665 0.85613 0.0
H1789 H 0.885 0.42204 0.77797 0.0
H1790 H 0.89549 0.42675 0.80617 0.0
H1791 H 0.93762 0.49607 0.82794 0.0
H1792 H 0.99201 0.50214 0.90069 0.0
H1793 H 0.97941 0.49979 0.87302 0.0
C1794 C 0.55448 0.44926 0.78868 0.0
C1795 C 0.56121 0.46634 0.77898 0.0
C1796 C 0.54916 0.45179 0.80382 0.0
C1797 C 0.53063 0.48263 0.82786 0.0
H1798 H 0.55233 0.46442 0.86318 0.0
C1799 C 0.49731 0.47421 0.88842 0.0
C1800 C 0.51268 0.48299 0.90181 0.0
C1801 C 0.50375 0.47278 0.87351 0.0
C1802 C 0.54626 0.46969 0.85344 0.0
H1803 H 0.56737 0.49933 0.77741 0.0
H1804 H 0.55797 0.50371 0.80387 0.0
H1805 H 0.56275 0.46086 0.83693 0.0
H1806 H 0.54699 0.49731 0.90989 0.0
H1807 H 0.55812 0.49434 0.88385 0.0
H1808 H 0.51407 0.49135 0.84434 0.0
C1809 C 0.55686 0.4884 0.79976 0.0
C1810 C 0.55206 0.46747 0.83841 0.0
C1811 C 0.5624 0.48596 0.78468 0.0
C1812 C 0.53466 0.49015 0.8999 0.0
C1813 C 0.54106 0.48852 0.88498 0.0
C1814 C 0.52465 0.48462 0.84285 0.0
C1815 C 0.55024 0.47136 0.80949 0.0
C1816 C 0.54429 0.47391 0.82547 0.0
C1817 C 0.52568 0.47989 0.87164 0.0
C1818 C 0.53238 0.47814 0.85579 0.0
H1819 H 0.55357 0.43403 0.78462 0.0
H1820 H 0.54393 0.43831 0.81101 0.0
H1821 H 0.52428 0.48758 0.81808 0.0
H1822 H 0.48019 0.46811 0.88945 0.0
H1823 H 0.49149 0.46575 0.86347 0.0
C1824 C 0.55477 0.08532 0.79703 0.0
C1825 C 0.55172 0.10221 0.79203 0.0
C1826 C 0.55202 0.07996 0.8125 0.0
C1827 C 0.52479 0.08527 0.84658 0.0
H1828 H 0.55905 0.06443 0.86866 0.0
C1829 C 0.51373 0.06367 0.91053 0.0
C1830 C 0.51129 0.04322 0.91315 0.0
C1831 C 0.52086 0.07269 0.89649 0.0
C1832 C 0.54933 0.07017 0.8626 0.0
H1833 H 0.54446 0.12746 0.79941 0.0
H1834 H 0.54015 0.11851 0.82652 0.0
H1835 H 0.56786 0.07729 0.84279 0.0
H1836 H 0.51521 0.01657 0.90344 0.0
H1837 H 0.52768 0.03235 0.87889 0.0
H1838 H 0.5063 0.07816 0.8664 0.0
C1839 C 0.54404 0.10893 0.81842 0.0
C1840 C 0.55431 0.07747 0.84777 0.0
C1841 C 0.54658 0.11413 0.80292 0.0
C1842 C 0.51675 0.03227 0.90166 0.0
C1843 C 0.52407 0.04139 0.88769 0.0
C1844 C 0.51995 0.07816 0.86145 0.0
C1845 C 0.54635 0.09154 0.82334 0.0
C1846 C 0.54195 0.0849 0.8395 0.0
C1847 C 0.5259 0.06154 0.88487 0.0
C1848 C 0.53202 0.07033 0.86954 0.0
H1849 H 0.55856 0.07575 0.78882 0.0
H1850 H 0.55363 0.06628 0.81579 0.0
H1851 H 0.51464 0.09046 0.84046 0.0
H1852 H 0.50953 0.0724 0.91915 0.0
H1853 H 0.52228 0.08833 0.89467 0.0
C1854 C 0.13097 0.251 0.56473 0.0
C1855 C 0.10925 0.23696 0.5675 0.0
C1856 C 0.13614 0.25711 0.54968 0.0
C1857 C 0.11322 0.26346 0.51223 0.0
H1858 H 0.16372 0.26485 0.49631 0.0
C1859 C 0.13809 0.28904 0.45043 0.0
C1860 C 0.16045 0.30308 0.44951 0.0
C1861 C 0.13076 0.27884 0.46407 0.0
C1862 C 0.14967 0.26472 0.50063 0.0
H1863 H 0.07595 0.21819 0.55651 0.0
H1864 H 0.08501 0.22922 0.53023 0.0
H1865 H 0.15292 0.2512 0.52165 0.0
H1866 H 0.19268 0.31682 0.46203 0.0
H1867 H 0.17992 0.29958 0.48589 0.0
H1868 H 0.11028 0.27751 0.49141 0.0
C1869 C 0.09798 0.23551 0.53978 0.0
C1870 C 0.14347 0.25687 0.51513 0.0
C1871 C 0.0928 0.22926 0.55484 0.0
C1872 C 0.17532 0.30635 0.46242 0.0
C1873 C 0.16802 0.29621 0.47604 0.0
C1874 C 0.1195 0.27144 0.49775 0.0
C1875 C 0.11972 0.24946 0.53705 0.0
C1876 C 0.12536 0.25642 0.52118 0.0
C1877 C 0.14564 0.28243 0.47708 0.0
C1878 C 0.13798 0.27245 0.49188 0.0
H1879 H 0.14399 0.25761 0.57425 0.0
H1880 H 0.153 0.26819 0.54799 0.0
H1881 H 0.09931 0.26349 0.51667 0.0
H1882 H 0.12619 0.28629 0.44074 0.0
H1883 H 0.11344 0.26814 0.46443 0.0
C1884 C 0.74731 0.85375 0.57914 0.0
C1885 C 0.76347 0.87429 0.58654 0.0
C1886 C 0.74124 0.85089 0.56294 0.0
C1887 C 0.76077 0.87549 0.52613 0.0
H1888 H 0.69968 0.8422 0.51003 0.0
C1889 C 0.72964 0.87886 0.46317 0.0
C1890 C 0.71259 0.85946 0.45497 0.0
C1891 C 0.73637 0.87941 0.47895 0.0
C1892 C 0.71683 0.85127 0.51431 0.0
H1893 H 0.78607 0.90785 0.58268 0.0
H1894 H 0.77521 0.90297 0.55452 0.0
H1895 H 0.71019 0.8456 0.53818 0.0
H1896 H 0.68945 0.82533 0.45686 0.0
H1897 H 0.70145 0.82621 0.4844 0.0
H1898 H 0.7674 0.88136 0.50229 0.0
C1899 C 0.76737 0.88901 0.5612 0.0
C1900 C 0.72285 0.85323 0.53044 0.0
C1901 C 0.7734 0.89188 0.57738 0.0
C1902 C 0.70274 0.84049 0.46282 0.0
C1903 C 0.70945 0.84105 0.47864 0.0
C1904 C 0.75475 0.87353 0.51001 0.0
C1905 C 0.75126 0.86848 0.55378 0.0
C1906 C 0.74488 0.86556 0.53656 0.0
C1907 C 0.72622 0.86058 0.48692 0.0
C1908 C 0.7327 0.86158 0.50393 0.0
H1909 H 0.73923 0.83991 0.5859 0.0
H1910 H 0.72888 0.83482 0.55756 0.0
H1911 H 0.77791 0.88476 0.53042 0.0
H1912 H 0.73772 0.89369 0.45741 0.0
H1913 H 0.7492 0.89477 0.48501 0.0
C1914 C 0.11538 0.88024 0.55857 0.0
C1915 C 0.13176 0.88744 0.57121 0.0
C1916 C 0.1199 0.87767 0.54315 0.0
C1917 C 0.16625 0.89694 0.51919 0.0
H1918 H 0.12515 0.84926 0.48851 0.0
C1919 C 0.18979 0.88291 0.45837 0.0
C1920 C 0.17459 0.87804 0.44528 0.0
C1921 C 0.1839 0.88278 0.47364 0.0
C1922 C 0.13671 0.86278 0.49692 0.0
H1923 H 0.16533 0.89646 0.5777 0.0
H1924 H 0.17316 0.89184 0.55089 0.0
H1925 H 0.11597 0.85109 0.51542 0.0
H1926 H 0.14116 0.86891 0.43802 0.0
H1927 H 0.13086 0.86869 0.46476 0.0
H1928 H 0.18695 0.9087 0.50077 0.0
C1929 C 0.15699 0.8887 0.5528 0.0
C1930 C 0.13145 0.86382 0.51233 0.0
C1931 C 0.1525 0.89132 0.56817 0.0
C1932 C 0.1532 0.87254 0.44785 0.0
C1933 C 0.1473 0.87241 0.46316 0.0
C1934 C 0.1715 0.89588 0.50384 0.0
C1935 C 0.14086 0.88219 0.54007 0.0
C1936 C 0.14622 0.88089 0.52366 0.0
C1937 C 0.16266 0.87777 0.47623 0.0
C1938 C 0.15684 0.87876 0.49253 0.0
H1939 H 0.09929 0.87727 0.56054 0.0
H1940 H 0.10716 0.87281 0.5336 0.0
H1941 H 0.17781 0.91057 0.52751 0.0
H1942 H 0.20627 0.88676 0.45681 0.0
H1943 H 0.19601 0.88656 0.48344 0.0
C1944 C 0.57907 0.80052 0.11794 0.0
C1945 C 0.58847 0.79336 0.10679 0.0
C1946 C 0.58571 0.80292 0.134 0.0
C1947 C 0.61168 0.78313 0.16216 0.0
H1948 H 0.61526 0.82924 0.19115 0.0
C1949 C 0.61922 0.78056 0.22918 0.0
C1950 C 0.63365 0.8002 0.23852 0.0
C1951 C 0.61399 0.7806 0.21319 0.0
C1952 C 0.61451 0.81637 0.18319 0.0
H1953 H 0.61293 0.78415 0.10364 0.0
H1954 H 0.62475 0.78859 0.13163 0.0
H1955 H 0.60693 0.82874 0.16298 0.0
H1956 H 0.65348 0.83537 0.23842 0.0
H1957 H 0.64472 0.83537 0.21041 0.0
H1958 H 0.61967 0.77098 0.18226 0.0
C1959 C 0.61186 0.79184 0.12802 0.0
C1960 C 0.6095 0.81595 0.16706 0.0
C1961 C 0.60515 0.78935 0.11199 0.0
C1962 C 0.6425 0.81992 0.23152 0.0
C1963 C 0.63729 0.81995 0.2155 0.0
C1964 C 0.61672 0.78357 0.17824 0.0
C1965 C 0.60197 0.79829 0.13925 0.0
C1966 C 0.60796 0.79927 0.15636 0.0
C1967 C 0.6231 0.80026 0.20612 0.0
C1968 C 0.61807 0.80011 0.18898 0.0
H1969 H 0.56602 0.80353 0.11429 0.0
H1970 H 0.57757 0.80767 0.14233 0.0
H1971 H 0.61035 0.76988 0.15429 0.0
H1972 H 0.61229 0.76505 0.23413 0.0
H1973 H 0.60276 0.76517 0.20636 0.0
C1974 C 0.23154 0.81941 0.1185 0.0
C1975 C 0.22837 0.79943 0.11152 0.0
C1976 C 0.22616 0.82108 0.13376 0.0
C1977 C 0.19188 0.78772 0.16315 0.0
H1978 H 0.2304 0.8382 0.19274 0.0
C1979 C 0.17723 0.79138 0.22842 0.0
C1980 C 0.18042 0.81128 0.23555 0.0
C1981 C 0.18378 0.79019 0.21352 0.0
C1982 C 0.21935 0.82411 0.18457 0.0
H1983 H 0.21745 0.76565 0.11527 0.0
H1984 H 0.20793 0.76854 0.14183 0.0
H1985 H 0.24032 0.83569 0.16621 0.0
H1986 H 0.19309 0.84557 0.23263 0.0
H1987 H 0.20442 0.8435 0.20655 0.0
H1988 H 0.17082 0.7762 0.18139 0.0
C1989 C 0.21432 0.78284 0.13541 0.0
C1990 C 0.22504 0.82267 0.16937 0.0
C1991 C 0.21975 0.78119 0.12018 0.0
C1992 C 0.19064 0.83005 0.22753 0.0
C1993 C 0.19714 0.82886 0.21259 0.0
C1994 C 0.18616 0.78919 0.17831 0.0
C1995 C 0.21742 0.80279 0.14237 0.0
C1996 C 0.21139 0.80443 0.15851 0.0
C1997 C 0.19363 0.80887 0.20535 0.0
C1998 C 0.19984 0.80737 0.18923 0.0
H1999 H 0.23785 0.83369 0.11207 0.0
H2000 H 0.22847 0.8366 0.13871 0.0
H2001 H 0.18084 0.77363 0.15497 0.0
H2002 H 0.16973 0.7767 0.23441 0.0
H2003 H 0.18122 0.77463 0.20842 0.0
C2004 C 0.19238 0.40727 0.12693 0.0
C2005 C 0.21294 0.42338 0.12329 0.0
C2006 C 0.18958 0.40028 0.14195 0.0
C2007 C 0.21445 0.41736 0.18315 0.0
H2008 H 0.17368 0.35676 0.18828 0.0
C2009 C 0.18037 0.38936 0.24221 0.0
C2010 C 0.17589 0.3686 0.24599 0.0
C2011 C 0.18713 0.39617 0.22755 0.0
C2012 C 0.18536 0.37369 0.1871 0.0
H2013 H 0.24674 0.44462 0.13261 0.0
H2014 H 0.24196 0.43195 0.15875 0.0
H2015 H 0.18156 0.3678 0.16201 0.0
H2016 H 0.17589 0.3391 0.23775 0.0
H2017 H 0.18809 0.35112 0.21227 0.0
H2018 H 0.21852 0.42316 0.20828 0.0
C2019 C 0.22793 0.42499 0.15002 0.0
C2020 C 0.18965 0.38009 0.172 0.0
C2021 C 0.23072 0.43207 0.13498 0.0
C2022 C 0.17892 0.35506 0.23503 0.0
C2023 C 0.18585 0.36193 0.22043 0.0
C2024 C 0.21025 0.41094 0.19827 0.0
C2025 C 0.20728 0.4091 0.15371 0.0
C2026 C 0.20398 0.40206 0.16982 0.0
C2027 C 0.18972 0.38244 0.21641 0.0
C2028 C 0.19542 0.38908 0.20042 0.0
H2029 H 0.1784 0.4 0.11814 0.0
H2030 H 0.17339 0.38823 0.14441 0.0
H2031 H 0.22545 0.43445 0.18191 0.0
H2032 H 0.17795 0.40004 0.25037 0.0
H2033 H 0.18963 0.41192 0.22478 0.0
C2034 C 0.79841 0.58573 0.89867 0.0
C2035 C 0.7767 0.57174 0.9015 0.0
C2036 C 0.8035 0.5919 0.88362 0.0
C2037 C 0.78062 0.59853 0.84628 0.0
H2038 H 0.83057 0.59902 0.83009 0.0
C2039 C 0.80515 0.62339 0.78425 0.0
C2040 C 0.82754 0.63697 0.78314 0.0
C2041 C 0.79784 0.61347 0.79799 0.0
C2042 C 0.81669 0.59917 0.83449 0.0
H2043 H 0.74333 0.55316 0.89061 0.0
H2044 H 0.75227 0.56432 0.86433 0.0
H2045 H 0.81985 0.58557 0.85549 0.0
H2046 H 0.85982 0.65025 0.79547 0.0
H2047 H 0.84711 0.63356 0.81951 0.0
H2048 H 0.77776 0.61266 0.82548 0.0
C2049 C 0.76529 0.57052 0.87384 0.0
C2050 C 0.81053 0.59142 0.84902 0.0
C2051 C 0.76018 0.56419 0.8889 0.0
C2052 C 0.84244 0.64014 0.796 0.0
C2053 C 0.83515 0.63031 0.80972 0.0
C2054 C 0.78686 0.60643 0.83177 0.0
C2055 C 0.78702 0.58437 0.87105 0.0
C2056 C 0.79261 0.59128 0.85516 0.0
C2057 C 0.81276 0.61692 0.81093 0.0
C2058 C 0.80515 0.60711 0.8258 0.0
H2059 H 0.81149 0.59224 0.90814 0.0
H2060 H 0.82036 0.60291 0.88189 0.0
H2061 H 0.76684 0.59879 0.85079 0.0
H2062 H 0.79322 0.62074 0.77461 0.0
H2063 H 0.78049 0.60308 0.79847 0.0
C2064 C 0.41152 0.18901 0.91274 0.0
C2065 C 0.42877 0.20914 0.91985 0.0
C2066 C 0.40482 0.18629 0.89666 0.0
C2067 C 0.40809 0.21776 0.86276 0.0
H2068 H 0.39114 0.16295 0.83813 0.0
C2069 C 0.39352 0.20731 0.79504 0.0
C2070 C 0.37441 0.18848 0.78823 0.0
C2071 C 0.40052 0.20944 0.81099 0.0
C2072 C 0.39569 0.17829 0.84489 0.0
H2073 H 0.45276 0.24206 0.91566 0.0
H2074 H 0.44135 0.23726 0.88759 0.0
H2075 H 0.40248 0.16754 0.86625 0.0
H2076 H 0.34805 0.1568 0.79267 0.0
H2077 H 0.36032 0.16051 0.82057 0.0
H2078 H 0.40153 0.22856 0.84134 0.0
C2079 C 0.43261 0.2237 0.89446 0.0
C2080 C 0.40211 0.18091 0.86101 0.0
C2081 C 0.43919 0.22647 0.91055 0.0
C2082 C 0.36275 0.17157 0.79763 0.0
C2083 C 0.36986 0.17362 0.81355 0.0
C2084 C 0.40183 0.21518 0.84664 0.0
C2085 C 0.41534 0.20358 0.88731 0.0
C2086 C 0.40839 0.20069 0.87016 0.0
C2087 C 0.38866 0.19271 0.82044 0.0
C2088 C 0.39556 0.19543 0.83753 0.0
H2089 H 0.40304 0.17544 0.91966 0.0
H2090 H 0.39123 0.17069 0.89161 0.0
H2091 H 0.41241 0.23306 0.86947 0.0
H2092 H 0.40274 0.22069 0.78813 0.0
H2093 H 0.4152 0.22424 0.81594 0.0
C2094 C 0.81962 0.2255 0.90136 0.0
C2095 C 0.79894 0.22175 0.90445 0.0
C2096 C 0.82391 0.22246 0.886 0.0
C2097 C 0.79774 0.19651 0.8458 0.0
H2098 H 0.85329 0.24039 0.83361 0.0
C2099 C 0.81894 0.20324 0.78112 0.0
C2100 C 0.84023 0.20832 0.77856 0.0
C2101 C 0.81316 0.20352 0.79643 0.0
C2102 C 0.83781 0.22784 0.83686 0.0
H2103 H 0.76639 0.21147 0.89389 0.0
H2104 H 0.77392 0.20632 0.86697 0.0
H2105 H 0.84452 0.24328 0.86034 0.0
H2106 H 0.87178 0.21663 0.79009 0.0
H2107 H 0.86172 0.21717 0.81673 0.0
H2108 H 0.79104 0.18123 0.82217 0.0
C2109 C 0.78676 0.21137 0.87647 0.0
C2110 C 0.83278 0.22949 0.85221 0.0
C2111 C 0.78245 0.21434 0.89188 0.0
C2112 C 0.85539 0.21311 0.79164 0.0
C2113 C 0.84962 0.21341 0.80692 0.0
C2114 C 0.80277 0.19489 0.8304 0.0
C2115 C 0.80764 0.21568 0.87333 0.0
C2116 C 0.81274 0.2138 0.85691 0.0
C2117 C 0.82853 0.2089 0.8095 0.0
C2118 C 0.82292 0.2105 0.82579 0.0
H2119 H 0.83254 0.2308 0.91084 0.0
H2120 H 0.84002 0.22546 0.88406 0.0
H2121 H 0.78225 0.18403 0.84908 0.0
H2122 H 0.80693 0.19967 0.77129 0.0
H2123 H 0.79683 0.20016 0.79803 0.0
C2124 C 0.25946 0.13908 0.44669 0.0
C2125 C 0.24212 0.11912 0.43946 0.0
C2126 C 0.26567 0.14171 0.46286 0.0
C2127 C 0.2609 0.1093 0.49644 0.0
H2128 H 0.28065 0.16441 0.52161 0.0
C2129 C 0.2766 0.11832 0.56401 0.0
C2130 C 0.29642 0.13639 0.57072 0.0
C2131 C 0.26935 0.11684 0.5482 0.0
C2132 C 0.27528 0.14897 0.51469 0.0
H2133 H 0.21712 0.08657 0.44353 0.0
H2134 H 0.22758 0.09123 0.47173 0.0
H2135 H 0.26906 0.16061 0.49358 0.0
H2136 H 0.32379 0.16742 0.56631 0.0
H2137 H 0.31107 0.16485 0.53864 0.0
H2138 H 0.26692 0.09762 0.51759 0.0
C2139 C 0.23686 0.10468 0.46491 0.0
C2140 C 0.26871 0.1468 0.49862 0.0
C2141 C 0.2308 0.10201 0.44875 0.0
C2142 C 0.30854 0.15323 0.56141 0.0
C2143 C 0.30118 0.15184 0.54562 0.0
C2144 C 0.26728 0.11143 0.5125 0.0
C2145 C 0.25452 0.12448 0.47216 0.0
C2146 C 0.26144 0.12692 0.48929 0.0
C2147 C 0.28167 0.13348 0.5388 0.0
C2148 C 0.27456 0.13127 0.5218 0.0
H2149 H 0.26857 0.15249 0.43978 0.0
H2150 H 0.27951 0.15708 0.468 0.0
H2151 H 0.25586 0.0939 0.48958 0.0
H2152 H 0.267 0.10501 0.57086 0.0
H2153 H 0.25415 0.10259 0.54329 0.0
C2154 C 0.89423 0.15073 0.44917 0.0
C2155 C 0.89335 0.13135 0.44329 0.0
C2156 C 0.88893 0.15295 0.46437 0.0
C2157 C 0.86032 0.12036 0.49653 0.0
H2158 H 0.89237 0.17646 0.52181 0.0
C2159 C 0.85032 0.13142 0.56236 0.0
C2160 C 0.84737 0.14905 0.56699 0.0
C2161 C 0.85662 0.12946 0.54747 0.0
C2162 C 0.88321 0.16073 0.51484 0.0
H2163 H 0.88662 0.09925 0.44876 0.0
H2164 H 0.87781 0.10323 0.4754 0.0
H2165 H 0.90201 0.17253 0.49543 0.0
H2166 H 0.8493 0.17877 0.55989 0.0
H2167 H 0.86044 0.17541 0.53389 0.0
H2168 H 0.84175 0.10855 0.5161 0.0
C2169 C 0.88205 0.11655 0.46817 0.0
C2170 C 0.88865 0.15848 0.4997 0.0
C2171 C 0.88715 0.11426 0.45292 0.0
C2172 C 0.85129 0.16492 0.55657 0.0
C2173 C 0.85782 0.16309 0.54176 0.0
C2174 C 0.85503 0.12257 0.51173 0.0
C2175 C 0.88282 0.13591 0.47409 0.0
C2176 C 0.87722 0.13828 0.49031 0.0
C2177 C 0.86033 0.14522 0.537 0.0
C2178 C 0.86635 0.1428 0.52101 0.0
H2179 H 0.89871 0.16407 0.44192 0.0
H2180 H 0.88932 0.16793 0.4684 0.0
H2181 H 0.85089 0.10466 0.48957 0.0
H2182 H 0.84726 0.11887 0.57011 0.0
H2183 H 0.85861 0.11562 0.54416 0.0
C2184 C 0.88302 0.74431 0.46225 0.0
C2185 C 0.87789 0.75974 0.45686 0.0
C2186 C 0.8791 0.73794 0.47743 0.0
C2187 C 0.84499 0.73544 0.50874 0.0
H2188 H 0.88649 0.72844 0.53569 0.0
C2189 C 0.83344 0.72141 0.57358 0.0
C2190 C 0.8374 0.70551 0.57951 0.0
C2191 C 0.83956 0.72847 0.55889 0.0
C2192 C 0.87465 0.73011 0.52824 0.0
H2193 H 0.86555 0.78128 0.4634 0.0
H2194 H 0.85863 0.7701 0.48977 0.0
H2195 H 0.89497 0.73977 0.50937 0.0
H2196 H 0.85124 0.68481 0.57482 0.0
H2197 H 0.86185 0.69706 0.54903 0.0
H2198 H 0.82461 0.72569 0.52745 0.0
C2199 C 0.86528 0.76261 0.48219 0.0
C2200 C 0.87951 0.73659 0.51318 0.0
C2201 C 0.86922 0.76899 0.46707 0.0
C2202 C 0.84814 0.69722 0.5706 0.0
C2203 C 0.85422 0.70425 0.55585 0.0
C2204 C 0.84013 0.72893 0.52374 0.0
C2205 C 0.86995 0.74685 0.48748 0.0
C2206 C 0.86478 0.73948 0.50333 0.0
C2207 C 0.84972 0.71974 0.54974 0.0
C2208 C 0.85496 0.72635 0.53371 0.0
H2209 H 0.88956 0.73677 0.45462 0.0
H2210 H 0.8827 0.72563 0.48115 0.0
H2211 H 0.83312 0.73709 0.50131 0.0
H2212 H 0.82556 0.7284 0.58031 0.0
H2213 H 0.83629 0.74078 0.55468 0.0
loop_
_geom_bond_atom_site_label_1
_geom_bond_atom_site_label_2
_geom_bond_distance
_geom_bond_site_symmetry_2
_ccdc_geom_bond_type
H0 C7 0.929 . S
H1 C10 0.930 . S
H2 C12 0.929 . S
H3 C4 0.969 . S
C4 H3 0.969 . S
C4 O5 1.550 . S
C4 H6 0.973 . S
O5 C4 1.550 . S
O5 C11 1.412 . S
H6 C4 0.973 . S
C7 H0 0.929 . S
C7 C8 1.400 . S
C7 C9 1.364 . S
C8 C7 1.400 . S
C8 C12 1.377 . S
C9 C7 1.364 . S
C9 C10 1.374 . S
C10 H1 0.930 . S
C10 C9 1.374 . S
C10 C11 1.383 . S
C11 O5 1.412 . S
C11 C10 1.383 . S
C11 C12 1.394 . S
C12 H2 0.929 . S
C12 C8 1.377 . S
C12 C11 1.394 . S
H13 C20 0.929 . S
H14 C23 0.930 . S
H15 C25 0.929 . S
H16 C17 0.969 . S
C17 H16 0.969 . S
C17 O18 1.550 . S
C17 H19 0.973 . S
O18 C17 1.550 . S
O18 C24 1.412 . S
H19 C17 0.973 . S
C20 H13 0.929 . S
C20 C21 1.400 . S
C20 C22 1.364 . S
C21 C20 1.400 . S
C21 C25 1.377 . S
C22 C20 1.364 . S
C22 C23 1.374 . S
C23 H14 0.930 . S
C23 C22 1.374 . S
C23 C24 1.383 . S
C24 O18 1.412 . S
C24 C23 1.383 . S
C24 C25 1.394 . S
C25 H15 0.929 . S
C25 C21 1.377 . S
C25 C24 1.394 . S
H26 C33 0.929 . S
H27 C36 0.930 . S
H28 C38 0.929 . S
H29 C30 0.969 . S
C30 H29 0.969 . S
C30 O31 1.550 . S
C30 H32 0.973 . S
O31 C30 1.550 . S
O31 C37 1.412 . S
H32 C30 0.973 . S
C33 H26 0.929 . S
C33 C34 1.400 . S
C33 C35 1.364 . S
C34 C33 1.400 . S
C34 C38 1.377 . S
C35 C33 1.364 . S
C35 C36 1.374 . S
C36 H27 0.930 . S
C36 C35 1.374 . S
C36 C37 1.383 . S
C37 O31 1.412 . S
C37 C36 1.383 . S
C37 C38 1.394 . S
C38 H28 0.929 . S
C38 C34 1.377 . S
C38 C37 1.394 . S
H39 C46 0.929 . S
H40 C49 0.930 . S
H41 C51 0.929 . S
H42 C43 0.969 . S
C43 H42 0.969 . S
C43 O44 1.550 . S
C43 H45 0.973 . S
O44 C43 1.550 . S
O44 C50 1.412 . S
H45 C43 0.973 . S
C46 H39 0.929 . S
C46 C47 1.400 . S
C46 C48 1.364 . S
C47 C46 1.400 . S
C47 C51 1.377 . S
C48 C46 1.364 . S
C48 C49 1.374 . S
C49 H40 0.930 . S
C49 C48 1.374 . S
C49 C50 1.383 . S
C50 O44 1.412 . S
C50 C49 1.383 . S
C50 C51 1.394 . S
C51 H41 0.929 . S
C51 C47 1.377 . S
C51 C50 1.394 . S
H52 C59 0.929 . S
H53 C62 0.930 . S
H54 C64 0.929 . S
H55 C56 0.969 . S
C56 H55 0.969 . S
C56 O57 1.550 . S
C56 H58 0.973 . S
O57 C56 1.550 . S
O57 C63 1.412 . S
H58 C56 0.973 . S
C59 H52 0.929 . S
C59 C60 1.400 . S
C59 C61 1.364 . S
C60 C59 1.400 . S
C60 C64 1.377 . S
C61 C59 1.364 . S
C61 C62 1.374 . S
C62 H53 0.930 . S
C62 C61 1.374 . S
C62 C63 1.383 . S
C63 O57 1.412 . S
C63 C62 1.383 . S
C63 C64 1.394 . S
C64 H54 0.929 . S
C64 C60 1.377 . S
C64 C63 1.394 . S
H65 C72 0.929 . S
H66 C75 0.930 . S
H67 C77 0.929 . S
H68 C69 0.969 . S
C69 H68 0.969 . S
C69 O70 1.550 . S
C69 H71 0.973 . S
O70 C69 1.550 . S
O70 C76 1.412 . S
H71 C69 0.973 . S
C72 H65 0.929 . S
C72 C73 1.400 . S
C72 C74 1.364 . S
C73 C72 1.400 . S
C73 C77 1.377 . S
C74 C72 1.364 . S
C74 C75 1.374 . S
C75 H66 0.930 . S
C75 C74 1.374 . S
C75 C76 1.383 . S
C76 O70 1.412 . S
C76 C75 1.383 . S
C76 C77 1.394 . S
C77 H67 0.929 . S
C77 C73 1.377 . S
C77 C76 1.394 . S
H78 C85 0.929 . S
H79 C88 0.930 . S
H80 C90 0.929 . S
H81 C82 0.969 . S
C82 H81 0.969 . S
C82 O83 1.550 . S
C82 H84 0.973 . S
O83 C82 1.550 . S
O83 C89 1.412 . S
H84 C82 0.973 . S
C85 H78 0.929 . S
C85 C86 1.400 . S
C85 C87 1.364 . S
C86 C85 1.400 . S
C86 C90 1.377 . S
C87 C85 1.364 . S
C87 C88 1.374 . S
C88 H79 0.930 . S
C88 C87 1.374 . S
C88 C89 1.383 . S
C89 O83 1.412 . S
C89 C88 1.383 . S
C89 C90 1.394 . S
C90 H80 0.929 . S
C90 C86 1.377 . S
C90 C89 1.394 . S
H91 C98 0.929 . S
H92 C101 0.930 . S
H93 C103 0.929 . S
H94 C95 0.969 . S
C95 H94 0.969 . S
C95 O96 1.550 . S
C95 H97 0.973 . S
O96 C95 1.550 . S
O96 C102 1.412 . S
H97 C95 0.973 . S
C98 H91 0.929 . S
C98 C99 1.400 . S
C98 C100 1.364 . S
C99 C98 1.400 . S
C99 C103 1.377 . S
C100 C98 1.364 . S
C100 C101 1.374 . S
C101 H92 0.930 . S
C101 C100 1.374 . S
C101 C102 1.383 . S
C102 O96 1.412 . S
C102 C101 1.383 . S
C102 C103 1.394 . S
C103 H93 0.929 . S
C103 C99 1.377 . S
C103 C102 1.394 . S
H104 C111 0.929 . S
H105 C114 0.930 . S
H106 C116 0.929 . S
H107 C108 0.969 . S
C108 H107 0.969 . S
C108 O109 1.550 . S
C108 H110 0.973 . S
O109 C108 1.550 . S
O109 C115 1.412 . S
H110 C108 0.973 . S
C111 H104 0.929 . S
C111 C112 1.400 . S
C111 C113 1.364 . S
C112 C111 1.400 . S
C112 C116 1.377 . S
C113 C111 1.364 . S
C113 C114 1.374 . S
C114 H105 0.930 . S
C114 C113 1.374 . S
C114 C115 1.383 . S
C115 O109 1.412 . S
C115 C114 1.383 . S
C115 C116 1.394 . S
C116 H106 0.929 . S
C116 C112 1.377 . S
C116 C115 1.394 . S
H117 C124 0.929 . S
H118 C127 0.930 . S
H119 C129 0.929 . S
H120 C121 0.969 . S
C121 H120 0.969 . S
C121 O122 1.550 . S
C121 H123 0.973 . S
O122 C121 1.550 . S
O122 C128 1.412 . S
H123 C121 0.973 . S
C124 H117 0.929 . S
C124 C125 1.400 . S
C124 C126 1.364 . S
C125 C124 1.400 . S
C125 C129 1.377 . S
C126 C124 1.364 . S
C126 C127 1.374 . S
C127 H118 0.930 . S
C127 C126 1.374 . S
C127 C128 1.383 . S
C128 O122 1.412 . S
C128 C127 1.383 . S
C128 C129 1.394 . S
C129 H119 0.929 . S
C129 C125 1.377 . S
C129 C128 1.394 . S
H130 C137 0.929 . S
H131 C140 0.930 . S
H132 C142 0.929 . S
H133 C134 0.969 . S
C134 H133 0.969 . S
C134 O135 1.550 . S
C134 H136 0.973 . S
O135 C134 1.550 . S
O135 C141 1.412 . S
H136 C134 0.973 . S
C137 H130 0.929 . S
C137 C138 1.400 . S
C137 C139 1.364 . S
C138 C137 1.400 . S
C138 C142 1.377 . S
C139 C137 1.364 . S
C139 C140 1.374 . S
C140 H131 0.930 . S
C140 C139 1.374 . S
C140 C141 1.383 . S
C141 O135 1.412 . S
C141 C140 1.383 . S
C141 C142 1.394 . S
C142 H132 0.929 . S
C142 C138 1.377 . S
C142 C141 1.394 . S
H143 C150 0.929 . S
H144 C153 0.930 . S
H145 C155 0.929 . S
H146 C147 0.969 . S
C147 H146 0.969 . S
C147 O148 1.550 . S
C147 H149 0.973 . S
O148 C147 1.550 . S
O148 C154 1.412 . S
H149 C147 0.973 . S
C150 H143 0.929 . S
C150 C151 1.400 . S
C150 C152 1.364 . S
C151 C150 1.400 . S
C151 C155 1.377 . S
C152 C150 1.364 . S
C152 C153 1.374 . S
C153 H144 0.930 . S
C153 C152 1.374 . S
C153 C154 1.383 . S
C154 O148 1.412 . S
C154 C153 1.383 . S
C154 C155 1.394 . S
C155 H145 0.929 . S
C155 C151 1.377 . S
C155 C154 1.394 . S
H156 C163 0.929 . S
H157 C166 0.930 . S
H158 C168 0.929 . S
H159 C160 0.969 . S
C160 H159 0.969 . S
C160 O161 1.550 . S
C160 H162 0.973 . S
O161 C160 1.550 . S
O161 C167 1.412 . S
H162 C160 0.973 . S
C163 H156 0.929 . S
C163 C164 1.400 . S
C163 C165 1.364 . S
C164 C163 1.400 . S
C164 C168 1.377 . S
C165 C163 1.364 . S
C165 C166 1.374 . S
C166 H157 0.930 . S
C166 C165 1.374 . S
C166 C167 1.383 . S
C167 O161 1.412 . S
C167 C166 1.383 . S
C167 C168 1.394 . S
C168 H158 0.929 . S
C168 C164 1.377 . S
C168 C167 1.394 . S
H169 C176 0.929 . S
H170 C179 0.930 . S
H171 C181 0.929 . S
H172 C173 0.969 . S
C173 H172 0.969 . S
C173 O174 1.550 . S
C173 H175 0.973 . S
O174 C173 1.550 . S
O174 C180 1.412 . S
H175 C173 0.973 . S
C176 H169 0.929 . S
C176 C177 1.400 . S
C176 C178 1.364 . S
C177 C176 1.400 . S
C177 C181 1.377 . S
C178 C176 1.364 . S
C178 C179 1.374 . S
C179 H170 0.930 . S
C179 C178 1.374 . S
C179 C180 1.383 . S
C180 O174 1.412 . S
C180 C179 1.383 . S
C180 C181 1.394 . S
C181 H171 0.929 . S
C181 C177 1.377 . S
C181 C180 1.394 . S
H182 C189 0.929 . S
H183 C192 0.930 . S
H184 C194 0.929 . S
H185 C186 0.969 . S
C186 H185 0.969 . S
C186 O187 1.550 . S
C186 H188 0.973 . S
O187 C186 1.550 . S
O187 C193 1.412 . S
H188 C186 0.973 . S
C189 H182 0.929 . S
C189 C190 1.400 . S
C189 C191 1.364 . S
C190 C189 1.400 . S
C190 C194 1.377 . S
C191 C189 1.364 . S
C191 C192 1.374 . S
C192 H183 0.930 . S
C192 C191 1.374 . S
C192 C193 1.383 . S
C193 O187 1.412 . S
C193 C192 1.383 . S
C193 C194 1.394 . S
C194 H184 0.929 . S
C194 C190 1.377 . S
C194 C193 1.394 . S
H195 C202 0.929 . S
H196 C205 0.930 . S
H197 C207 0.929 . S
H198 C199 0.969 . S
C199 H198 0.969 . S
C199 O200 1.550 . S
C199 H201 0.973 . S
O200 C199 1.550 . S
O200 C206 1.412 . S
H201 C199 0.973 . S
C202 H195 0.929 . S
C202 C203 1.400 . S
C202 C204 1.364 . S
C203 C202 1.400 . S
C203 C207 1.377 . S
C204 C202 1.364 . S
C204 C205 1.374 . S
C205 H196 0.930 . S
C205 C204 1.374 . S
C205 C206 1.383 . S
C206 O200 1.412 . S
C206 C205 1.383 . S
C206 C207 1.394 . S
C207 H197 0.929 . S
C207 C203 1.377 . S
C207 C206 1.394 . S
H208 C215 0.929 . S
H209 C218 0.930 . S
H210 C220 0.929 . S
H211 C212 0.969 . S
C212 H211 0.969 . S
C212 O213 1.550 . S
C212 H214 0.973 . S
O213 C212 1.550 . S
O213 C219 1.412 . S
H214 C212 0.973 . S
C215 H208 0.929 . S
C215 C216 1.400 . S
C215 C217 1.364 . S
C216 C215 1.400 . S
C216 C220 1.377 . S
C217 C215 1.364 . S
C217 C218 1.374 . S
C218 H209 0.930 . S
C218 C217 1.374 . S
C218 C219 1.383 . S
C219 O213 1.412 . S
C219 C218 1.383 . S
C219 C220 1.394 . S
C220 H210 0.929 . S
C220 C216 1.377 . S
C220 C219 1.394 . S
H221 C228 0.929 . S
H222 C231 0.930 . S
H223 C233 0.929 . S
H224 C225 0.969 . S
C225 H224 0.969 . S
C225 O226 1.550 . S
C225 H227 0.973 . S
O226 C225 1.550 . S
O226 C232 1.412 . S
H227 C225 0.973 . S
C228 H221 0.929 . S
C228 C229 1.400 . S
C228 C230 1.364 . S
C229 C228 1.400 . S
C229 C233 1.377 . S
C230 C228 1.364 . S
C230 C231 1.374 . S
C231 H222 0.930 . S
C231 C230 1.374 . S
C231 C232 1.383 . S
C232 O226 1.412 . S
C232 C231 1.383 . S
C232 C233 1.394 . S
C233 H223 0.929 . S
C233 C229 1.377 . S
C233 C232 1.394 . S
C234 Eu235 2.848 . S
C234 C236 1.488 1_545 S
C234 O254 1.217 1_545 S
C234 O255 1.314 . S
Eu235 C234 2.848 . S
Eu235 O254 2.473 1_545 S
Eu235 O255 2.480 . S
Eu235 O256 2.430 . S
Eu235 O257 2.670 . S
Eu235 O258 2.394 1_545 S
Eu235 O263 2.355 1_545 S
Eu235 O265 2.374 . S
C236 C234 1.488 1_565 S
C236 C237 1.377 1_565 S
C236 C241 1.377 . S
C237 C236 1.377 1_545 S
C237 C238 1.395 1_545 S
C237 H266 0.931 . S
C238 C237 1.395 1_565 S
C238 C239 1.383 . S
C238 H267 0.931 1_565 S
C239 C238 1.383 . S
C239 C240 1.394 . S
C240 C239 1.394 . S
C240 C241 1.378 . S
C240 H268 0.931 . S
C241 C236 1.377 . S
C241 C240 1.378 . S
C241 H269 0.931 . S
C242 O256 1.259 . S
C242 O257 1.270 . S
C243 O258 1.251 . S
C243 O259 1.251 . S
C244 Eu245 2.835 1_545 S
C244 C246 1.500 . S
C244 O260 1.257 . S
C244 O261 1.260 1_545 S
Eu245 C244 2.835 1_565 S
Eu245 O257 2.355 1_566 S
Eu245 O259 2.374 1_556 S
Eu245 O260 2.473 1_565 S
Eu245 O261 2.480 . S
Eu245 O262 2.430 . S
Eu245 O263 2.670 1_556 S
Eu245 O264 2.394 1_565 S
C246 C244 1.500 . S
C246 C247 1.377 . S
C246 C251 1.377 . S
C247 C246 1.377 . S
C247 C248 1.395 . S
C247 H270 0.931 1_545 S
C248 C247 1.395 . S
C248 C249 1.383 . S
C248 H271 0.931 . S
C249 C248 1.383 . S
C249 C250 1.394 . S
C250 C249 1.394 . S
C250 C251 1.378 . S
C250 H272 0.931 . S
C251 C246 1.377 . S
C251 C250 1.378 . S
C251 H273 0.931 . S
C252 O262 1.259 1_554 S
C252 O263 1.270 . S
C253 O264 1.251 1_554 S
C253 O265 1.251 . S
O254 C234 1.217 1_565 S
O254 Eu235 2.473 1_565 S
O255 C234 1.314 . S
O255 Eu235 2.480 . S
O256 Eu235 2.430 . S
O256 C242 1.259 . S
O257 Eu235 2.670 . S
O257 C242 1.270 . S
O257 Eu245 2.355 1_544 S
O258 Eu235 2.394 1_565 S
O258 C243 1.251 . S
O259 C243 1.251 . S
O259 Eu245 2.374 1_554 S
O260 C244 1.257 . S
O260 Eu245 2.473 1_545 S
O261 C244 1.260 1_565 S
O261 Eu245 2.480 . S
O262 Eu245 2.430 . S
O262 C252 1.259 1_556 S
O263 Eu235 2.355 1_565 S
O263 Eu245 2.670 1_554 S
O263 C252 1.270 . S
O264 Eu245 2.394 1_545 S
O264 C253 1.251 1_556 S
O265 Eu235 2.374 . S
O265 C253 1.251 . S
H266 C237 0.931 . S
H267 C238 0.931 1_545 S
H268 C240 0.931 . S
H269 C241 0.931 . S
H270 C247 0.931 1_565 S
H271 C248 0.931 . S
H272 C250 0.931 . S
H273 C251 0.931 . S
C274 Eu275 2.835 1_455 S
C274 C276 1.500 . S
C274 O294 1.257 . S
C274 O295 1.260 1_455 S
Eu275 C274 2.835 1_655 S
Eu275 O294 2.473 1_655 S
Eu275 O295 2.480 . S
Eu275 O296 2.430 . S
Eu275 O297 2.670 . S
Eu275 O298 2.394 1_655 S
Eu275 O303 2.355 1_655 S
Eu275 O305 2.374 . S
C276 C274 1.500 . S
C276 C277 1.377 . S
C276 C281 1.377 . S
C277 C276 1.377 . S
C277 C278 1.395 . S
C277 H306 0.931 1_455 S
C278 C277 1.395 . S
C278 C279 1.383 . S
C278 H307 0.931 . S
C279 C278 1.383 . S
C279 C280 1.394 . S
C280 C279 1.394 . S
C280 C281 1.378 . S
C280 H308 0.931 . S
C281 C276 1.377 . S
C281 C280 1.378 . S
C281 H309 0.931 . S
C282 O296 1.259 . S
C282 O297 1.270 . S
C283 O298 1.251 . S
C283 O299 1.251 . S
C284 Eu285 2.835 1_655 S
C284 C286 1.500 . S
C284 O300 1.257 . S
C284 O301 1.260 1_655 S
Eu285 C284 2.835 1_455 S
Eu285 O297 2.355 1_456 S
Eu285 O299 2.374 1_556 S
Eu285 O300 2.473 1_455 S
Eu285 O301 2.480 . S
Eu285 O302 2.430 . S
Eu285 O303 2.670 1_556 S
Eu285 O304 2.394 1_455 S
C286 C284 1.500 . S
C286 C287 1.365 1_655 S
C286 C291 1.377 . S
C287 C286 1.365 1_455 S
C287 C288 1.381 1_455 S
C287 H310 0.960 . S
C288 C287 1.381 1_655 S
C288 C289 1.383 . S
C288 H311 0.931 1_655 S
C289 C288 1.383 . S
C289 C290 1.394 . S
C290 C289 1.394 . S
C290 C291 1.378 . S
C290 H312 0.931 . S
C291 C286 1.377 . S
C291 C290 1.378 . S
C291 H313 0.931 . S
C292 O302 1.259 1_554 S
C292 O303 1.270 . S
C293 O304 1.251 . S
C293 O305 1.251 1_556 S
O294 C274 1.257 . S
O294 Eu275 2.473 1_455 S
O295 C274 1.260 1_655 S
O295 Eu275 2.480 . S
O296 Eu275 2.430 . S
O296 C282 1.259 . S
O297 Eu275 2.670 . S
O297 C282 1.270 . S
O297 Eu285 2.355 1_654 S
O298 Eu275 2.394 1_455 S
O298 C283 1.251 . S
O299 C283 1.251 . S
O299 Eu285 2.374 1_554 S
O300 C284 1.257 . S
O300 Eu285 2.473 1_655 S
O301 C284 1.260 1_455 S
O301 Eu285 2.480 . S
O302 Eu285 2.430 . S
O302 C292 1.259 1_556 S
O303 Eu275 2.355 1_455 S
O303 Eu285 2.670 1_554 S
O303 C292 1.270 . S
O304 Eu285 2.394 1_655 S
O304 C293 1.251 . S
O305 Eu275 2.374 . S
O305 C293 1.251 1_554 S
H306 C277 0.931 1_655 S
H307 C278 0.931 . S
H308 C280 0.931 . S
H309 C281 0.931 . S
H310 C287 0.960 . S
H311 C288 0.931 1_455 S
H312 C290 0.931 . S
H313 C291 0.931 . S
C314 Eu315 2.835 . S
C314 C316 1.500 . S
C314 O334 1.257 . S
C314 O335 1.260 . S
Eu315 C314 2.835 . S
Eu315 O334 2.473 . S
Eu315 O335 2.480 . S
Eu315 O336 2.430 1_556 S
Eu315 O337 2.670 1_556 S
Eu315 O338 2.394 . S
Eu315 O343 2.355 1_556 S
Eu315 O345 2.374 1_556 S
C316 C314 1.500 . S
C316 C317 1.377 . S
C316 C321 1.377 . S
C317 C316 1.377 . S
C317 C318 1.395 . S
C317 H346 0.931 . S
C318 C317 1.395 . S
C318 C319 1.383 . S
C318 H347 0.931 . S
C319 C318 1.383 . S
C319 C320 1.394 . S
C320 C319 1.394 . S
C320 C321 1.378 . S
C320 H348 0.931 . S
C321 C316 1.377 . S
C321 C320 1.378 . S
C321 H349 0.931 . S
C322 O336 1.259 . S
C322 O337 1.270 . S
C323 O338 1.251 1_554 S
C323 O339 1.251 . S
C324 Eu325 2.835 . S
C324 C326 1.500 . S
C324 O340 1.257 . S
C324 O341 1.260 . S
Eu325 C324 2.835 . S
Eu325 O337 2.355 . S
Eu325 O339 2.374 . S
Eu325 O340 2.473 . S
Eu325 O341 2.480 . S
Eu325 O342 2.430 . S
Eu325 O343 2.670 . S
Eu325 O344 2.394 . S
C326 C324 1.500 . S
C326 C327 1.377 . S
C326 C331 1.377 . S
C327 C326 1.377 . S
C327 C328 1.395 . S
C327 H350 0.931 . S
C328 C327 1.395 . S
C328 C329 1.383 . S
C328 H351 0.931 . S
C329 C328 1.383 . S
C329 C330 1.394 . S
C330 C329 1.394 . S
C330 C331 1.378 . S
C330 H352 0.931 . S
C331 C326 1.377 . S
C331 C330 1.378 . S
C331 H353 0.931 . S
C332 O342 1.259 . S
C332 O343 1.270 . S
C333 O344 1.251 . S
C333 O345 1.251 . S
O334 C314 1.257 . S
O334 Eu315 2.473 . S
O335 C314 1.260 . S
O335 Eu315 2.480 . S
O336 Eu315 2.430 1_554 S
O336 C322 1.259 . S
O337 Eu315 2.670 1_554 S
O337 C322 1.270 . S
O337 Eu325 2.355 . S
O338 Eu315 2.394 . S
O338 C323 1.251 1_556 S
O339 C323 1.251 . S
O339 Eu325 2.374 . S
O340 C324 1.257 . S
O340 Eu325 2.473 . S
O341 C324 1.260 . S
O341 Eu325 2.480 . S
O342 Eu325 2.430 . S
O342 C332 1.259 . S
O343 Eu315 2.355 1_554 S
O343 Eu325 2.670 . S
O343 C332 1.270 . S
O344 Eu325 2.394 . S
O344 C333 1.251 . S
O345 Eu315 2.374 1_554 S
O345 C333 1.251 . S
H346 C317 0.931 . S
H347 C318 0.931 . S
H348 C320 0.931 . S
H349 C321 0.931 . S
H350 C327 0.931 . S
H351 C328 0.931 . S
H352 C330 0.931 . S
H353 C331 0.931 . S
C354 Eu355 2.835 . S
C354 C356 1.500 . S
C354 O374 1.257 . S
C354 O375 1.260 . S
Eu355 C354 2.835 . S
Eu355 O374 2.473 . S
Eu355 O375 2.480 . S
Eu355 O376 2.430 . S
Eu355 O377 2.670 . S
Eu355 O378 2.394 . S
Eu355 O383 2.355 . S
Eu355 O385 2.374 . S
C356 C354 1.500 . S
C356 C357 1.377 . S
C356 C361 1.377 . S
C357 C356 1.377 . S
C357 C358 1.395 . S
C357 H386 0.931 . S
C358 C357 1.395 . S
C358 C359 1.383 . S
C358 H387 0.931 . S
C359 C358 1.383 . S
C359 C360 1.394 . S
C360 C359 1.394 . S
C360 C361 1.378 . S
C360 H388 0.931 . S
C361 C356 1.377 . S
C361 C360 1.378 . S
C361 H389 0.931 . S
C362 O376 1.259 . S
C362 O377 1.270 . S
C363 O378 1.251 . S
C363 O379 1.251 . S
C364 Eu365 2.835 . S
C364 C366 1.500 . S
C364 O380 1.257 . S
C364 O381 1.260 . S
Eu365 C364 2.835 . S
Eu365 O377 2.355 . S
Eu365 O379 2.374 . S
Eu365 O380 2.473 . S
Eu365 O381 2.480 . S
Eu365 O382 2.430 . S
Eu365 O383 2.670 . S
Eu365 O384 2.394 . S
C366 C364 1.500 . S
C366 C367 1.377 . S
C366 C371 1.377 . S
C367 C366 1.377 . S
C367 C368 1.395 . S
C367 H390 0.931 . S
C368 C367 1.395 . S
C368 C369 1.383 . S
C368 H391 0.931 . S
C369 C368 1.383 . S
C369 C370 1.394 . S
C370 C369 1.394 . S
C370 C371 1.378 . S
C370 H392 0.931 . S
C371 C366 1.377 . S
C371 C370 1.378 . S
C371 H393 0.931 . S
C372 O382 1.259 . S
C372 O383 1.270 . S
C373 O384 1.251 . S
C373 O385 1.251 . S
O374 C354 1.257 . S
O374 Eu355 2.473 . S
O375 C354 1.260 . S
O375 Eu355 2.480 . S
O376 Eu355 2.430 . S
O376 C362 1.259 . S
O377 Eu355 2.670 . S
O377 C362 1.270 . S
O377 Eu365 2.355 . S
O378 Eu355 2.394 . S
O378 C363 1.251 . S
O379 C363 1.251 . S
O379 Eu365 2.374 . S
O380 C364 1.257 . S
O380 Eu365 2.473 . S
O381 C364 1.260 . S
O381 Eu365 2.480 . S
O382 Eu365 2.430 . S
O382 C372 1.259 . S
O383 Eu355 2.355 . S
O383 Eu365 2.670 . S
O383 C372 1.270 . S
O384 Eu365 2.394 . S
O384 C373 1.251 . S
O385 Eu355 2.374 . S
O385 C373 1.251 . S
H386 C357 0.931 . S
H387 C358 0.931 . S
H388 C360 0.931 . S
H389 C361 0.931 . S
H390 C367 0.931 . S
H391 C368 0.931 . S
H392 C370 0.931 . S
H393 C371 0.931 . S
C394 Eu395 2.835 . S
C394 C396 1.500 . S
C394 O414 1.257 . S
C394 O415 1.260 . S
Eu395 C394 2.835 . S
Eu395 O414 2.473 . S
Eu395 O415 2.480 . S
Eu395 O416 2.430 . S
Eu395 O417 2.670 . S
Eu395 O418 2.394 . S
Eu395 O423 2.355 . S
Eu395 O425 2.374 . S
C396 C394 1.500 . S
C396 C397 1.377 . S
C396 C401 1.377 . S
C397 C396 1.377 . S
C397 C398 1.395 . S
C397 H426 0.931 . S
C398 C397 1.395 . S
C398 C399 1.383 . S
C398 H427 0.931 . S
C399 C398 1.383 . S
C399 C400 1.394 . S
C400 C399 1.394 . S
C400 C401 1.378 . S
C400 H428 0.931 . S
C401 C396 1.377 . S
C401 C400 1.378 . S
C401 H429 0.931 . S
C402 O416 1.259 . S
C402 O417 1.270 . S
C403 O418 1.251 . S
C403 O419 1.251 . S
C404 Eu405 2.835 . S
C404 C406 1.500 . S
C404 O420 1.257 . S
C404 O421 1.260 . S
Eu405 C404 2.835 . S
Eu405 O417 2.355 . S
Eu405 O419 2.374 . S
Eu405 O420 2.473 . S
Eu405 O421 2.480 . S
Eu405 O422 2.430 . S
Eu405 O423 2.670 . S
Eu405 O424 2.394 . S
C406 C404 1.500 . S
C406 C407 1.377 . S
C406 C411 1.377 . S
C407 C406 1.377 . S
C407 C408 1.395 . S
C407 H430 0.931 . S
C408 C407 1.395 . S
C408 C409 1.383 . S
C408 H431 0.931 . S
C409 C408 1.383 . S
C409 C410 1.394 . S
C410 C409 1.394 . S
C410 C411 1.378 . S
C410 H432 0.931 . S
C411 C406 1.377 . S
C411 C410 1.378 . S
C411 H433 0.931 . S
C412 O422 1.259 . S
C412 O423 1.270 . S
C413 O424 1.251 . S
C413 O425 1.251 . S
O414 C394 1.257 . S
O414 Eu395 2.473 . S
O415 C394 1.260 . S
O415 Eu395 2.480 . S
O416 Eu395 2.430 . S
O416 C402 1.259 . S
O417 Eu395 2.670 . S
O417 C402 1.270 . S
O417 Eu405 2.355 . S
O418 Eu395 2.394 . S
O418 C403 1.251 . S
O419 C403 1.251 . S
O419 Eu405 2.374 . S
O420 C404 1.257 . S
O420 Eu405 2.473 . S
O421 C404 1.260 . S
O421 Eu405 2.480 . S
O422 Eu405 2.430 . S
O422 C412 1.259 . S
O423 Eu395 2.355 . S
O423 Eu405 2.670 . S
O423 C412 1.270 . S
O424 Eu405 2.394 . S
O424 C413 1.251 . S
O425 Eu395 2.374 . S
O425 C413 1.251 . S
H426 C397 0.931 . S
H427 C398 0.931 . S
H428 C400 0.931 . S
H429 C401 0.931 . S
H430 C407 0.931 . S
H431 C408 0.931 . S
H432 C410 0.931 . S
H433 C411 0.931 . S
C434 Eu435 2.835 . S
C434 C436 1.500 . S
C434 O454 1.257 . S
C434 O455 1.260 . S
Eu435 C434 2.835 . S
Eu435 O454 2.473 . S
Eu435 O455 2.480 . S
Eu435 O456 2.430 . S
Eu435 O457 2.670 . S
Eu435 O458 2.394 . S
Eu435 O463 2.355 . S
Eu435 O465 2.374 . S
C436 C434 1.500 . S
C436 C437 1.377 . S
C436 C441 1.377 . S
C437 C436 1.377 . S
C437 C438 1.395 . S
C437 H466 0.931 . S
C438 C437 1.395 . S
C438 C439 1.383 . S
C438 H467 0.931 . S
C439 C438 1.383 . S
C439 C440 1.394 . S
C440 C439 1.394 . S
C440 C441 1.378 . S
C440 H468 0.931 . S
C441 C436 1.377 . S
C441 C440 1.378 . S
C441 H469 0.931 . S
C442 O456 1.259 . S
C442 O457 1.270 . S
C443 O458 1.251 . S
C443 O459 1.251 . S
C444 Eu445 2.835 . S
C444 C446 1.500 . S
C444 O460 1.257 . S
C444 O461 1.260 . S
Eu445 C444 2.835 . S
Eu445 O457 2.355 . S
Eu445 O459 2.374 . S
Eu445 O460 2.473 . S
Eu445 O461 2.480 . S
Eu445 O462 2.430 . S
Eu445 O463 2.670 . S
Eu445 O464 2.394 . S
C446 C444 1.500 . S
C446 C447 1.377 . S
C446 C451 1.377 . S
C447 C446 1.377 . S
C447 C448 1.395 . S
C447 H470 0.931 . S
C448 C447 1.395 . S
C448 C449 1.383 . S
C448 H471 0.931 . S
C449 C448 1.383 . S
C449 C450 1.394 . S
C450 C449 1.394 . S
C450 C451 1.378 . S
C450 H472 0.931 . S
C451 C446 1.377 . S
C451 C450 1.378 . S
C451 H473 0.931 . S
C452 O462 1.259 . S
C452 O463 1.270 . S
C453 O464 1.251 . S
C453 O465 1.251 . S
O454 C434 1.257 . S
O454 Eu435 2.473 . S
O455 C434 1.260 . S
O455 Eu435 2.480 . S
O456 Eu435 2.430 . S
O456 C442 1.259 . S
O457 Eu435 2.670 . S
O457 C442 1.270 . S
O457 Eu445 2.355 . S
O458 Eu435 2.394 . S
O458 C443 1.251 . S
O459 C443 1.251 . S
O459 Eu445 2.374 . S
O460 C444 1.257 . S
O460 Eu445 2.473 . S
O461 C444 1.260 . S
O461 Eu445 2.480 . S
O462 Eu445 2.430 . S
O462 C452 1.259 . S
O463 Eu435 2.355 . S
O463 Eu445 2.670 . S
O463 C452 1.270 . S
O464 Eu445 2.394 . S
O464 C453 1.251 . S
O465 Eu435 2.374 . S
O465 C453 1.251 . S
H466 C437 0.931 . S
H467 C438 0.931 . S
H468 C440 0.931 . S
H469 C441 0.931 . S
H470 C447 0.931 . S
H471 C448 0.931 . S
H472 C450 0.931 . S
H473 C451 0.931 . S
C474 Eu475 2.835 . S
C474 C476 1.500 . S
C474 O494 1.257 . S
C474 O495 1.260 . S
Eu475 C474 2.835 . S
Eu475 O494 2.473 . S
Eu475 O495 2.480 . S
Eu475 O496 2.430 . S
Eu475 O497 2.670 . S
Eu475 O498 2.394 . S
Eu475 O503 2.355 . S
Eu475 O505 2.374 . S
C476 C474 1.500 . S
C476 C477 1.377 . S
C476 C481 1.377 . S
C477 C476 1.377 . S
C477 C478 1.395 . S
C477 H506 0.931 . S
C478 C477 1.395 . S
C478 C479 1.383 . S
C478 H507 0.931 . S
C479 C478 1.383 . S
C479 C480 1.394 . S
C480 C479 1.394 . S
C480 C481 1.378 . S
C480 H508 0.931 . S
C481 C476 1.377 . S
C481 C480 1.378 . S
C481 H509 0.931 . S
C482 O496 1.259 . S
C482 O497 1.270 . S
C483 O498 1.251 . S
C483 O499 1.251 . S
C484 Eu485 2.835 . S
C484 C486 1.500 . S
C484 O500 1.257 . S
C484 O501 1.260 . S
Eu485 C484 2.835 . S
Eu485 O497 2.355 . S
Eu485 O499 2.374 . S
Eu485 O500 2.473 . S
Eu485 O501 2.480 . S
Eu485 O502 2.430 . S
Eu485 O503 2.670 . S
Eu485 O504 2.394 . S
C486 C484 1.500 . S
C486 C487 1.377 . S
C486 C491 1.377 . S
C487 C486 1.377 . S
C487 C488 1.395 . S
C487 H510 0.931 . S
C488 C487 1.395 . S
C488 C489 1.383 . S
C488 H511 0.931 . S
C489 C488 1.383 . S
C489 C490 1.394 . S
C490 C489 1.394 . S
C490 C491 1.378 . S
C490 H512 0.931 . S
C491 C486 1.377 . S
C491 C490 1.378 . S
C491 H513 0.931 . S
C492 O502 1.259 . S
C492 O503 1.270 . S
C493 O504 1.251 . S
C493 O505 1.251 . S
O494 C474 1.257 . S
O494 Eu475 2.473 . S
O495 C474 1.260 . S
O495 Eu475 2.480 . S
O496 Eu475 2.430 . S
O496 C482 1.259 . S
O497 Eu475 2.670 . S
O497 C482 1.270 . S
O497 Eu485 2.355 . S
O498 Eu475 2.394 . S
O498 C483 1.251 . S
O499 C483 1.251 . S
O499 Eu485 2.374 . S
O500 C484 1.257 . S
O500 Eu485 2.473 . S
O501 C484 1.260 . S
O501 Eu485 2.480 . S
O502 Eu485 2.430 . S
O502 C492 1.259 . S
O503 Eu475 2.355 . S
O503 Eu485 2.670 . S
O503 C492 1.270 . S
O504 Eu485 2.394 . S
O504 C493 1.251 . S
O505 Eu475 2.374 . S
O505 C493 1.251 . S
H506 C477 0.931 . S
H507 C478 0.931 . S
H508 C480 0.931 . S
H509 C481 0.931 . S
H510 C487 0.931 . S
H511 C488 0.931 . S
H512 C490 0.931 . S
H513 C491 0.931 . S
C514 Eu515 2.835 . S
C514 C516 1.500 . S
C514 O534 1.257 . S
C514 O535 1.260 . S
Eu515 C514 2.835 . S
Eu515 O534 2.473 . S
Eu515 O535 2.480 . S
Eu515 O536 2.430 . S
Eu515 O537 2.670 . S
Eu515 O538 2.394 . S
Eu515 O543 2.355 . S
Eu515 O545 2.374 . S
C516 C514 1.500 . S
C516 C517 1.377 . S
C516 C521 1.377 . S
C517 C516 1.377 . S
C517 C518 1.395 . S
C517 H546 0.931 . S
C518 C517 1.395 . S
C518 C519 1.383 . S
C518 H547 0.931 . S
C519 C518 1.383 . S
C519 C520 1.394 . S
C520 C519 1.394 . S
C520 C521 1.378 . S
C520 H548 0.931 . S
C521 C516 1.377 . S
C521 C520 1.378 . S
C521 H549 0.931 . S
C522 O536 1.259 . S
C522 O537 1.270 . S
C523 O538 1.251 . S
C523 O539 1.251 . S
C524 Eu525 2.835 . S
C524 C526 1.500 . S
C524 O540 1.257 . S
C524 O541 1.260 . S
Eu525 C524 2.835 . S
Eu525 O537 2.355 . S
Eu525 O539 2.374 . S
Eu525 O540 2.473 . S
Eu525 O541 2.480 . S
Eu525 O542 2.430 . S
Eu525 O543 2.670 . S
Eu525 O544 2.394 . S
C526 C524 1.500 . S
C526 C527 1.377 . S
C526 C531 1.377 . S
C527 C526 1.377 . S
C527 C528 1.395 . S
C527 H550 0.931 . S
C528 C527 1.395 . S
C528 C529 1.383 . S
C528 H551 0.931 . S
C529 C528 1.383 . S
C529 C530 1.394 . S
C530 C529 1.394 . S
C530 C531 1.378 . S
C530 H552 0.931 . S
C531 C526 1.377 . S
C531 C530 1.378 . S
C531 H553 0.931 . S
C532 O542 1.259 . S
C532 O543 1.270 . S
C533 O544 1.251 . S
C533 O545 1.251 . S
O534 C514 1.257 . S
O534 Eu515 2.473 . S
O535 C514 1.260 . S
O535 Eu515 2.480 . S
O536 Eu515 2.430 . S
O536 C522 1.259 . S
O537 Eu515 2.670 . S
O537 C522 1.270 . S
O537 Eu525 2.355 . S
O538 Eu515 2.394 . S
O538 C523 1.251 . S
O539 C523 1.251 . S
O539 Eu525 2.374 . S
O540 C524 1.257 . S
O540 Eu525 2.473 . S
O541 C524 1.260 . S
O541 Eu525 2.480 . S
O542 Eu525 2.430 . S
O542 C532 1.259 . S
O543 Eu515 2.355 . S
O543 Eu525 2.670 . S
O543 C532 1.270 . S
O544 Eu525 2.394 . S
O544 C533 1.251 . S
O545 Eu515 2.374 . S
O545 C533 1.251 . S
H546 C517 0.931 . S
H547 C518 0.931 . S
H548 C520 0.931 . S
H549 C521 0.931 . S
H550 C527 0.931 . S
H551 C528 0.931 . S
H552 C530 0.931 . S
H553 C531 0.931 . S
C554 Eu555 2.835 . S
C554 C556 1.500 . S
C554 O574 1.257 . S
C554 O575 1.260 . S
Eu555 C554 2.835 . S
Eu555 O574 2.473 . S
Eu555 O575 2.480 . S
Eu555 O576 2.430 . S
Eu555 O577 2.670 . S
Eu555 O578 2.394 . S
Eu555 O583 2.355 . S
Eu555 O585 2.374 . S
C556 C554 1.500 . S
C556 C557 1.377 . S
C556 C561 1.377 . S
C557 C556 1.377 . S
C557 C558 1.395 . S
C557 H586 0.931 . S
C558 C557 1.395 . S
C558 C559 1.383 . S
C558 H587 0.931 . S
C559 C558 1.383 . S
C559 C560 1.394 . S
C560 C559 1.394 . S
C560 C561 1.378 . S
C560 H588 0.931 . S
C561 C556 1.377 . S
C561 C560 1.378 . S
C561 H589 0.931 . S
C562 O576 1.259 . S
C562 O577 1.270 . S
C563 O578 1.251 . S
C563 O579 1.251 . S
C564 Eu565 2.835 . S
C564 C566 1.500 . S
C564 O580 1.257 . S
C564 O581 1.260 . S
Eu565 C564 2.835 . S
Eu565 O577 2.355 . S
Eu565 O579 2.374 . S
Eu565 O580 2.473 . S
Eu565 O581 2.480 . S
Eu565 O582 2.430 . S
Eu565 O583 2.670 . S
Eu565 O584 2.394 . S
C566 C564 1.500 . S
C566 C567 1.377 . S
C566 C571 1.377 . S
C567 C566 1.377 . S
C567 C568 1.395 . S
C567 H590 0.931 . S
C568 C567 1.395 . S
C568 C569 1.383 . S
C568 H591 0.931 . S
C569 C568 1.383 . S
C569 C570 1.394 . S
C570 C569 1.394 . S
C570 C571 1.378 . S
C570 H592 0.931 . S
C571 C566 1.377 . S
C571 C570 1.378 . S
C571 H593 0.931 . S
C572 O582 1.259 . S
C572 O583 1.270 . S
C573 O584 1.251 . S
C573 O585 1.251 . S
O574 C554 1.257 . S
O574 Eu555 2.473 . S
O575 C554 1.260 . S
O575 Eu555 2.480 . S
O576 Eu555 2.430 . S
O576 C562 1.259 . S
O577 Eu555 2.670 . S
O577 C562 1.270 . S
O577 Eu565 2.355 . S
O578 Eu555 2.394 . S
O578 C563 1.251 . S
O579 C563 1.251 . S
O579 Eu565 2.374 . S
O580 C564 1.257 . S
O580 Eu565 2.473 . S
O581 C564 1.260 . S
O581 Eu565 2.480 . S
O582 Eu565 2.430 . S
O582 C572 1.259 . S
O583 Eu555 2.355 . S
O583 Eu565 2.670 . S
O583 C572 1.270 . S
O584 Eu565 2.394 . S
O584 C573 1.251 . S
O585 Eu555 2.374 . S
O585 C573 1.251 . S
H586 C557 0.931 . S
H587 C558 0.931 . S
H588 C560 0.931 . S
H589 C561 0.931 . S
H590 C567 0.931 . S
H591 C568 0.931 . S
H592 C570 0.931 . S
H593 C571 0.931 . S
C594 C595 1.349 . S
C594 C596 1.327 . S
C594 H619 0.950 . S
C595 C594 1.349 . S
C595 C611 1.349 . S
C596 C594 1.327 . S
C596 C615 1.429 . S
C596 H620 0.950 . S
C597 C614 1.574 . S
C597 C616 1.368 . S
C597 H621 0.949 . S
H598 C602 0.949 . S
C599 C600 1.349 . S
C599 C601 1.327 . S
C599 H622 1.007 . S
C600 C599 1.349 . S
C600 C612 1.349 . S
C601 C599 1.327 . S
C601 C617 1.429 . S
C601 H623 0.950 . S
C602 H598 0.949 . S
C602 C610 1.574 . S
C602 C618 1.368 . S
H603 C611 0.950 . S
H604 C609 0.950 . S
H605 C610 0.949 . S
H606 C612 0.950 . S
H607 C613 0.950 . S
H608 C614 0.949 . S
C609 H604 0.950 . S
C609 C611 1.327 . S
C609 C615 1.429 . S
C610 C602 1.574 . S
C610 H605 0.949 . S
C610 C616 1.368 . S
C611 C595 1.349 . S
C611 H603 0.950 . S
C611 C609 1.327 . S
C612 C600 1.349 . S
C612 H606 0.950 . S
C612 C613 1.327 . S
C613 H607 0.950 . S
C613 C612 1.327 . S
C613 C617 1.429 . S
C614 C597 1.574 . S
C614 H608 0.949 . S
C614 C618 1.368 . S
C615 C596 1.429 . S
C615 C609 1.429 . S
C615 C616 1.523 . S
C616 C597 1.368 . S
C616 C610 1.368 . S
C616 C615 1.523 . S
C617 C601 1.429 . S
C617 C613 1.429 . S
C617 C618 1.523 . S
C618 C602 1.368 . S
C618 C614 1.368 . S
C618 C617 1.523 . S
H619 C594 0.950 . S
H620 C596 0.950 . S
H621 C597 0.949 . S
H622 C599 1.007 . S
H623 C601 0.950 . S
C624 C625 1.349 . S
C624 C626 1.327 . S
C624 H649 0.950 . S
C625 C624 1.349 . S
C625 C641 1.349 . S
C626 C624 1.327 . S
C626 C645 1.429 . S
C626 H650 0.950 . S
C627 C644 1.574 . S
C627 C646 1.368 . S
C627 H651 0.949 . S
H628 C632 0.949 . S
C629 C630 1.349 . S
C629 C631 1.327 . S
C629 H652 0.950 . S
C630 C629 1.349 . S
C630 C642 1.349 . S
C631 C629 1.327 . S
C631 C647 1.429 . S
C631 H653 0.950 . S
C632 H628 0.949 . S
C632 C640 1.574 . S
C632 C648 1.368 . S
H633 C641 0.950 . S
H634 C639 0.950 . S
H635 C640 0.949 . S
H636 C642 0.950 . S
H637 C643 0.950 . S
H638 C644 0.949 . S
C639 H634 0.950 . S
C639 C641 1.327 . S
C639 C645 1.429 . S
C640 C632 1.574 . S
C640 H635 0.949 . S
C640 C646 1.368 . S
C641 C625 1.349 . S
C641 H633 0.950 . S
C641 C639 1.327 . S
C642 C630 1.349 . S
C642 H636 0.950 . S
C642 C643 1.327 . S
C643 H637 0.950 . S
C643 C642 1.327 . S
C643 C647 1.429 . S
C644 C627 1.574 . S
C644 H638 0.949 . S
C644 C648 1.368 . S
C645 C626 1.429 . S
C645 C639 1.429 . S
C645 C646 1.523 . S
C646 C627 1.368 . S
C646 C640 1.368 . S
C646 C645 1.523 . S
C647 C631 1.429 . S
C647 C643 1.429 . S
C647 C648 1.523 . S
C648 C632 1.368 . S
C648 C644 1.368 . S
C648 C647 1.523 . S
H649 C624 0.950 . S
H650 C626 0.950 . S
H651 C627 0.949 . S
H652 C629 0.950 . S
H653 C631 0.950 . S
C654 C655 1.349 . S
C654 C656 1.327 . S
C654 H679 0.950 . S
C655 C654 1.349 . S
C655 C671 1.349 . S
C656 C654 1.327 . S
C656 C675 1.429 . S
C656 H680 0.950 . S
C657 C674 1.574 . S
C657 C676 1.368 . S
C657 H681 0.949 . S
H658 C662 0.949 . S
C659 C660 1.349 . S
C659 C661 1.327 . S
C659 H682 0.950 . S
C660 C659 1.349 . S
C660 C672 1.349 . S
C661 C659 1.327 . S
C661 C677 1.429 . S
C661 H683 0.950 . S
C662 H658 0.949 . S
C662 C670 1.574 . S
C662 C678 1.368 . S
H663 C671 0.950 . S
H664 C669 0.950 . S
H665 C670 0.949 . S
H666 C672 0.950 . S
H667 C673 0.950 . S
H668 C674 0.949 . S
C669 H664 0.950 . S
C669 C671 1.327 . S
C669 C675 1.429 . S
C670 C662 1.574 . S
C670 H665 0.949 . S
C670 C676 1.368 . S
C671 C655 1.349 . S
C671 H663 0.950 . S
C671 C669 1.327 . S
C672 C660 1.349 . S
C672 H666 0.950 . S
C672 C673 1.327 . S
C673 H667 0.950 . S
C673 C672 1.327 . S
C673 C677 1.429 . S
C674 C657 1.574 . S
C674 H668 0.949 . S
C674 C678 1.368 . S
C675 C656 1.429 . S
C675 C669 1.429 . S
C675 C676 1.523 . S
C676 C657 1.368 . S
C676 C670 1.368 . S
C676 C675 1.523 . S
C677 C661 1.429 . S
C677 C673 1.429 . S
C677 C678 1.523 . S
C678 C662 1.368 . S
C678 C674 1.368 . S
C678 C677 1.523 . S
H679 C654 0.950 . S
H680 C656 0.950 . S
H681 C657 0.949 . S
H682 C659 0.950 . S
H683 C661 0.950 . S
C684 C685 1.349 . S
C684 C686 1.327 . S
C684 H709 0.950 . S
C685 C684 1.349 . S
C685 C701 1.349 . S
C686 C684 1.327 . S
C686 C705 1.429 . S
C686 H710 0.950 . S
C687 C704 1.574 . S
C687 C706 1.368 . S
C687 H711 0.949 . S
H688 C692 0.943 1_554 S
C689 C690 1.301 1_556 S
C689 C691 1.327 . S
C689 H712 0.950 . S
C690 C689 1.301 1_554 S
C690 C702 1.391 . S
C691 C689 1.327 . S
C691 C707 1.429 . S
C691 H713 0.950 . S
C692 H688 0.943 1_556 S
C692 C700 1.575 . S
C692 C708 1.374 . S
H693 C701 0.950 . S
H694 C699 0.950 . S
H695 C700 0.949 1_554 S
H696 C702 0.950 . S
H697 C703 0.950 . S
H698 C704 0.949 . S
C699 H694 0.950 . S
C699 C701 1.327 . S
C699 C705 1.429 . S
C700 C692 1.575 . S
C700 H695 0.949 1_556 S
C700 C706 1.368 . S
C701 C685 1.349 . S
C701 H693 0.950 . S
C701 C699 1.327 . S
C702 C690 1.391 . S
C702 H696 0.950 . S
C702 C703 1.327 . S
C703 H697 0.950 . S
C703 C702 1.327 . S
C703 C707 1.429 1_554 S
C704 C687 1.574 . S
C704 H698 0.949 . S
C704 C708 1.368 . S
C705 C686 1.429 . S
C705 C699 1.429 . S
C705 C706 1.523 . S
C706 C687 1.368 . S
C706 C700 1.368 . S
C706 C705 1.523 . S
C707 C691 1.429 . S
C707 C703 1.429 1_556 S
C707 C708 1.523 . S
C708 C692 1.374 . S
C708 C704 1.368 . S
C708 C707 1.523 . S
H709 C684 0.950 . S
H710 C686 0.950 . S
H711 C687 0.949 . S
H712 C689 0.950 . S
H713 C691 0.950 . S
C714 C715 1.349 . S
C714 C716 1.327 . S
C714 H739 0.950 . S
C715 C714 1.349 . S
C715 C731 1.349 . S
C716 C714 1.327 . S
C716 C735 1.429 . S
C716 H740 0.950 . S
C717 C734 1.574 . S
C717 C736 1.368 . S
C717 H741 0.949 . S
H718 C722 0.949 . S
C719 C720 1.349 . S
C719 C721 1.327 . S
C719 H742 0.950 . S
C720 C719 1.349 . S
C720 C732 1.345 1_556 S
C721 C719 1.327 . S
C721 C737 1.429 . S
C721 H743 0.950 . S
C722 H718 0.949 . S
C722 C730 1.574 . S
C722 C738 1.368 . S
H723 C731 0.950 . S
H724 C729 0.950 . S
H725 C730 0.949 . S
H726 C732 0.964 . S
H727 C733 0.950 . S
H728 C734 0.949 . S
C729 H724 0.950 . S
C729 C731 1.327 . S
C729 C735 1.429 . S
C730 C722 1.574 . S
C730 H725 0.949 . S
C730 C736 1.368 . S
C731 C715 1.349 . S
C731 H723 0.950 . S
C731 C729 1.327 . S
C732 C720 1.345 1_554 S
C732 H726 0.964 . S
C732 C733 1.318 1_554 S
C733 H727 0.950 . S
C733 C732 1.318 1_556 S
C733 C737 1.429 . S
C734 C717 1.574 . S
C734 H728 0.949 . S
C734 C738 1.368 . S
C735 C716 1.429 . S
C735 C729 1.429 . S
C735 C736 1.523 . S
C736 C717 1.368 . S
C736 C730 1.368 . S
C736 C735 1.523 . S
C737 C721 1.429 . S
C737 C733 1.429 . S
C737 C738 1.523 . S
C738 C722 1.368 . S
C738 C734 1.368 . S
C738 C737 1.523 . S
H739 C714 0.950 . S
H740 C716 0.950 . S
H741 C717 0.949 . S
H742 C719 0.950 . S
H743 C721 0.950 . S
C744 C745 1.349 . S
C744 C746 1.327 . S
C744 H769 0.950 . S
C745 C744 1.349 . S
C745 C761 1.349 . S
C746 C744 1.327 . S
C746 C765 1.429 . S
C746 H770 0.950 . S
C747 C764 1.574 . S
C747 C766 1.368 1_554 S
C747 H771 0.949 . S
H748 C752 0.949 . S
C749 C750 1.349 . S
C749 C751 1.327 . S
C749 H772 0.950 . S
C750 C749 1.349 . S
C750 C762 1.349 1_554 S
C751 C749 1.327 . S
C751 C767 1.398 1_554 S
C751 H773 0.950 . S
C752 H748 0.949 . S
C752 C760 1.574 . S
C752 C768 1.368 . S
H753 C761 0.953 1_554 S
H754 C759 0.950 1_554 S
H755 C760 0.949 . S
H756 C762 0.950 . S
H757 C763 0.950 . S
H758 C764 0.949 . S
C759 H754 0.950 1_556 S
C759 C761 1.327 . S
C759 C765 1.429 . S
C760 C752 1.574 . S
C760 H755 0.949 . S
C760 C766 1.368 . S
C761 C745 1.349 . S
C761 H753 0.953 1_556 S
C761 C759 1.327 . S
C762 C750 1.349 1_556 S
C762 H756 0.950 . S
C762 C763 1.327 . S
C763 H757 0.950 . S
C763 C762 1.327 . S
C763 C767 1.451 . S
C764 C747 1.574 . S
C764 H758 0.949 . S
C764 C768 1.368 1_554 S
C765 C746 1.429 . S
C765 C759 1.429 . S
C765 C766 1.523 . S
C766 C747 1.368 1_556 S
C766 C760 1.368 . S
C766 C765 1.523 . S
C767 C751 1.398 1_556 S
C767 C763 1.451 . S
C767 C768 1.531 . S
C768 C752 1.368 . S
C768 C764 1.368 1_556 S
C768 C767 1.531 . S
H769 C744 0.950 . S
H770 C746 0.950 . S
H771 C747 0.949 . S
H772 C749 0.950 . S
H773 C751 0.950 . S
C774 C775 1.349 . S
C774 C776 1.327 . S
C774 H799 0.950 . S
C775 C774 1.349 . S
C775 C791 1.349 . S
C776 C774 1.327 . S
C776 C795 1.429 . S
C776 H800 0.950 . S
C777 C794 1.574 . S
C777 C796 1.368 . S
C777 H801 0.949 . S
H778 C782 0.949 . S
C779 C780 1.349 . S
C779 C781 1.347 . S
C779 H802 0.934 1_556 S
C780 C779 1.349 . S
C780 C792 1.349 . S
C781 C779 1.347 . S
C781 C797 1.429 . S
C781 H803 0.950 . S
C782 H778 0.949 . S
C782 C790 1.574 . S
C782 C798 1.368 . S
H783 C791 0.950 . S
H784 C789 0.950 . S
H785 C790 0.949 . S
H786 C792 0.950 . S
H787 C793 0.950 . S
H788 C794 0.949 . S
C789 H784 0.950 . S
C789 C791 1.327 . S
C789 C795 1.429 . S
C790 C782 1.574 . S
C790 H785 0.949 . S
C790 C796 1.368 . S
C791 C775 1.349 . S
C791 H783 0.950 . S
C791 C789 1.327 . S
C792 C780 1.349 . S
C792 H786 0.950 . S
C792 C793 1.327 . S
C793 H787 0.950 . S
C793 C792 1.327 . S
C793 C797 1.429 . S
C794 C777 1.574 . S
C794 H788 0.949 . S
C794 C798 1.368 . S
C795 C776 1.429 . S
C795 C789 1.429 . S
C795 C796 1.523 . S
C796 C777 1.368 . S
C796 C790 1.368 . S
C796 C795 1.523 . S
C797 C781 1.429 . S
C797 C793 1.429 . S
C797 C798 1.523 . S
C798 C782 1.368 . S
C798 C794 1.368 . S
C798 C797 1.523 . S
H799 C774 0.950 . S
H800 C776 0.950 . S
H801 C777 0.949 . S
H802 C779 0.934 1_554 S
H803 C781 0.950 . S
C804 C805 1.349 . S
C804 C806 1.327 . S
C804 H829 0.950 . S
C805 C804 1.349 . S
C805 C821 1.349 . S
C806 C804 1.327 . S
C806 C825 1.429 . S
C806 H830 0.950 . S
C807 C824 1.574 . S
C807 C826 1.368 . S
C807 H831 0.949 . S
H808 C812 0.949 1_554 S
C809 C810 1.349 . S
C809 C811 1.327 . S
C809 H832 0.950 . S
C810 C809 1.349 . S
C810 C822 1.349 1_556 S
C811 C809 1.327 . S
C811 C827 1.429 . S
C811 H833 0.950 . S
C812 H808 0.949 1_556 S
C812 C820 1.574 . S
C812 C828 1.368 . S
H813 C821 0.950 . S
H814 C819 0.950 . S
H815 C820 0.949 . S
H816 C822 0.950 . S
H817 C823 0.924 1_554 S
H818 C824 0.949 . S
C819 H814 0.950 . S
C819 C821 1.327 . S
C819 C825 1.429 . S
C820 C812 1.574 . S
C820 H815 0.949 . S
C820 C826 1.368 . S
C821 C805 1.349 . S
C821 H813 0.950 . S
C821 C819 1.327 . S
C822 C810 1.349 1_554 S
C822 H816 0.950 . S
C822 C823 1.321 1_554 S
C823 H817 0.924 1_556 S
C823 C822 1.321 1_556 S
C823 C827 1.461 . S
C824 C807 1.574 . S
C824 H818 0.949 . S
C824 C828 1.368 . S
C825 C806 1.429 . S
C825 C819 1.429 . S
C825 C826 1.523 . S
C826 C807 1.368 . S
C826 C820 1.368 . S
C826 C825 1.523 . S
C827 C811 1.429 . S
C827 C823 1.461 . S
C827 C828 1.523 . S
C828 C812 1.368 . S
C828 C824 1.368 . S
C828 C827 1.523 . S
H829 C804 0.950 . S
H830 C806 0.950 . S
H831 C807 0.949 . S
H832 C809 0.950 . S
H833 C811 0.950 . S
C834 C835 1.349 . S
C834 C836 1.327 . S
C834 H859 0.950 . S
C835 C834 1.349 . S
C835 C851 1.349 . S
C836 C834 1.327 . S
C836 C855 1.429 . S
C836 H860 0.950 . S
C837 C854 1.574 . S
C837 C856 1.368 1_554 S
C837 H861 0.949 . S
H838 C842 0.949 . S
C839 C840 1.349 . S
C839 C841 1.327 . S
C839 H862 0.950 . S
C840 C839 1.349 . S
C840 C852 1.348 . S
C841 C839 1.327 . S
C841 C857 1.429 . S
C841 H863 0.950 . S
C842 H838 0.949 . S
C842 C850 1.574 . S
C842 C858 1.368 1_556 S
H843 C851 0.950 1_554 S
H844 C849 0.951 . S
H845 C850 0.949 . S
H846 C852 0.951 1_556 S
H847 C853 0.950 . S
H848 C854 0.949 . S
C849 H844 0.951 . S
C849 C851 1.327 1_554 S
C849 C855 1.427 1_554 S
C850 C842 1.574 . S
C850 H845 0.949 . S
C850 C856 1.368 . S
C851 C835 1.349 . S
C851 H843 0.950 1_556 S
C851 C849 1.327 1_556 S
C852 C840 1.348 . S
C852 H846 0.951 1_554 S
C852 C853 1.327 1_554 S
C853 H847 0.950 . S
C853 C852 1.327 1_556 S
C853 C857 1.429 1_556 S
C854 C837 1.574 . S
C854 H848 0.949 . S
C854 C858 1.368 . S
C855 C836 1.429 . S
C855 C849 1.427 1_556 S
C855 C856 1.523 . S
C856 C837 1.368 1_556 S
C856 C850 1.368 . S
C856 C855 1.523 . S
C857 C841 1.429 . S
C857 C853 1.429 1_554 S
C857 C858 1.523 . S
C858 C842 1.368 1_554 S
C858 C854 1.368 . S
C858 C857 1.523 . S
H859 C834 0.950 . S
H860 C836 0.950 . S
H861 C837 0.949 . S
H862 C839 0.950 . S
H863 C841 0.950 . S
C864 C865 1.349 . S
C864 C866 1.327 . S
C864 H889 0.950 . S
C865 C864 1.349 . S
C865 C881 1.349 . S
C866 C864 1.327 . S
C866 C885 1.429 . S
C866 H890 0.950 . S
C867 C884 1.574 . S
C867 C886 1.368 . S
C867 H891 0.949 . S
H868 C872 0.949 . S
C869 C870 1.349 . S
C869 C871 1.327 . S
C869 H892 0.950 . S
C870 C869 1.349 . S
C870 C882 1.349 . S
C871 C869 1.327 . S
C871 C887 1.429 . S
C871 H893 0.950 . S
C872 H868 0.949 . S
C872 C880 1.574 . S
C872 C888 1.368 . S
H873 C881 0.950 . S
H874 C879 0.950 . S
H875 C880 0.949 . S
H876 C882 0.950 . S
H877 C883 0.950 . S
H878 C884 0.949 . S
C879 H874 0.950 . S
C879 C881 1.327 . S
C879 C885 1.429 . S
C880 C872 1.574 . S
C880 H875 0.949 . S
C880 C886 1.368 . S
C881 C865 1.349 . S
C881 H873 0.950 . S
C881 C879 1.327 . S
C882 C870 1.349 . S
C882 H876 0.950 . S
C882 C883 1.327 . S
C883 H877 0.950 . S
C883 C882 1.327 . S
C883 C887 1.429 . S
C884 C867 1.574 . S
C884 H878 0.949 . S
C884 C888 1.368 . S
C885 C866 1.429 . S
C885 C879 1.429 . S
C885 C886 1.523 . S
C886 C867 1.368 . S
C886 C880 1.368 . S
C886 C885 1.523 . S
C887 C871 1.429 . S
C887 C883 1.429 . S
C887 C888 1.523 . S
C888 C872 1.368 . S
C888 C884 1.368 . S
C888 C887 1.523 . S
H889 C864 0.950 . S
H890 C866 0.950 . S
H891 C867 0.949 . S
H892 C869 0.950 . S
H893 C871 0.950 . S
C894 C895 1.349 . S
C894 C896 1.327 . S
C894 H919 0.950 . S
C895 C894 1.349 . S
C895 C911 1.349 . S
C896 C894 1.327 . S
C896 C915 1.429 . S
C896 H920 0.950 . S
C897 C914 1.574 . S
C897 C916 1.368 . S
C897 H921 0.949 . S
H898 C902 0.949 . S
C899 C900 1.349 . S
C899 C901 1.327 . S
C899 H922 0.950 . S
C900 C899 1.349 . S
C900 C912 1.349 . S
C901 C899 1.327 . S
C901 C917 1.429 . S
C901 H923 0.950 . S
C902 H898 0.949 . S
C902 C910 1.574 . S
C902 C918 1.368 . S
H903 C911 0.950 . S
H904 C909 0.950 . S
H905 C910 0.949 . S
H906 C912 0.950 . S
H907 C913 0.950 . S
H908 C914 0.949 . S
C909 H904 0.950 . S
C909 C911 1.327 . S
C909 C915 1.429 . S
C910 C902 1.574 . S
C910 H905 0.949 . S
C910 C916 1.368 . S
C911 C895 1.349 . S
C911 H903 0.950 . S
C911 C909 1.327 . S
C912 C900 1.349 . S
C912 H906 0.950 . S
C912 C913 1.327 . S
C913 H907 0.950 . S
C913 C912 1.327 . S
C913 C917 1.429 . S
C914 C897 1.574 . S
C914 H908 0.949 . S
C914 C918 1.368 . S
C915 C896 1.429 . S
C915 C909 1.429 . S
C915 C916 1.523 . S
C916 C897 1.368 . S
C916 C910 1.368 . S
C916 C915 1.523 . S
C917 C901 1.429 . S
C917 C913 1.429 . S
C917 C918 1.523 . S
C918 C902 1.368 . S
C918 C914 1.368 . S
C918 C917 1.523 . S
H919 C894 0.950 . S
H920 C896 0.950 . S
H921 C897 0.949 . S
H922 C899 0.950 . S
H923 C901 0.950 . S
C924 C925 1.349 . S
C924 C926 1.327 . S
C924 H949 0.950 . S
C925 C924 1.349 . S
C925 C941 1.349 . S
C926 C924 1.327 . S
C926 C945 1.429 . S
C926 H950 0.950 . S
C927 C944 1.574 . S
C927 C946 1.368 . S
C927 H951 0.949 . S
H928 C932 0.949 . S
C929 C930 1.349 . S
C929 C931 1.327 . S
C929 H952 0.950 1_554 S
C930 C929 1.349 . S
C930 C942 1.349 . S
C931 C929 1.327 . S
C931 C947 1.429 . S
C931 H953 0.950 1_554 S
C932 H928 0.949 . S
C932 C940 1.574 . S
C932 C948 1.368 . S
H933 C941 0.950 . S
H934 C939 0.950 . S
H935 C940 0.949 . S
H936 C942 0.950 . S
H937 C943 0.950 . S
H938 C944 0.949 . S
C939 H934 0.950 . S
C939 C941 1.327 . S
C939 C945 1.429 . S
C940 C932 1.574 . S
C940 H935 0.949 . S
C940 C946 1.368 . S
C941 C925 1.349 . S
C941 H933 0.950 . S
C941 C939 1.327 . S
C942 C930 1.349 . S
C942 H936 0.950 . S
C942 C943 1.327 . S
C943 H937 0.950 . S
C943 C942 1.327 . S
C943 C947 1.429 . S
C944 C927 1.574 . S
C944 H938 0.949 . S
C944 C948 1.368 . S
C945 C926 1.429 . S
C945 C939 1.429 . S
C945 C946 1.523 . S
C946 C927 1.368 . S
C946 C940 1.368 . S
C946 C945 1.523 . S
C947 C931 1.429 . S
C947 C943 1.429 . S
C947 C948 1.523 . S
C948 C932 1.368 . S
C948 C944 1.368 . S
C948 C947 1.523 . S
H949 C924 0.950 . S
H950 C926 0.950 . S
H951 C927 0.949 . S
H952 C929 0.950 1_556 S
H953 C931 0.950 1_556 S
C954 C955 1.349 . S
C954 C956 1.327 . S
C954 H979 0.950 . S
C955 C954 1.349 . S
C955 C971 1.349 . S
C956 C954 1.327 . S
C956 C975 1.429 . S
C956 H980 0.950 . S
C957 C974 1.557 1_655 S
C957 C976 1.368 . S
C957 H981 0.949 . S
H958 C962 0.949 . S
C959 C960 1.349 . S
C959 C961 1.327 . S
C959 H982 0.950 . S
C960 C959 1.349 . S
C960 C972 1.349 . S
C961 C959 1.327 . S
C961 C977 1.429 . S
C961 H983 0.950 . S
C962 H958 0.949 . S
C962 C970 1.574 1_455 S
C962 C978 1.368 . S
H963 C971 0.950 . S
H964 C969 0.950 . S
H965 C970 0.949 . S
H966 C972 0.950 . S
H967 C973 0.950 . S
H968 C974 0.945 . S
C969 H964 0.950 . S
C969 C971 1.327 . S
C969 C975 1.429 . S
C970 C962 1.574 1_655 S
C970 H965 0.949 . S
C970 C976 1.368 . S
C971 C955 1.349 . S
C971 H963 0.950 . S
C971 C969 1.327 . S
C972 C960 1.349 . S
C972 H966 0.950 . S
C972 C973 1.327 . S
C973 H967 0.950 . S
C973 C972 1.327 . S
C973 C977 1.429 . S
C974 C957 1.557 1_455 S
C974 H968 0.945 . S
C974 C978 1.390 . S
C975 C956 1.429 . S
C975 C969 1.429 . S
C975 C976 1.523 . S
C976 C957 1.368 . S
C976 C970 1.368 . S
C976 C975 1.523 . S
C977 C961 1.429 . S
C977 C973 1.429 . S
C977 C978 1.523 . S
C978 C962 1.368 . S
C978 C974 1.390 . S
C978 C977 1.523 . S
H979 C954 0.950 . S
H980 C956 0.950 . S
H981 C957 0.949 . S
H982 C959 0.950 . S
H983 C961 0.950 . S
C984 C985 1.349 . S
C984 C986 1.327 . S
C984 H1009 0.950 . S
C985 C984 1.349 . S
C985 C1001 1.349 . S
C986 C984 1.327 . S
C986 C1005 1.429 . S
C986 H1010 0.950 . S
C987 C1004 1.574 . S
C987 C1006 1.368 . S
C987 H1011 0.949 . S
H988 C992 0.949 . S
C989 C990 1.349 . S
C989 C991 1.327 . S
C989 H1012 0.950 . S
C990 C989 1.349 . S
C990 C1002 1.349 . S
C991 C989 1.327 . S
C991 C1007 1.429 . S
C991 H1013 0.950 . S
C992 H988 0.949 . S
C992 C1000 1.574 . S
C992 C1008 1.368 . S
H993 C1001 0.950 . S
H994 C999 0.950 . S
H995 C1000 0.949 . S
H996 C1002 0.950 . S
H997 C1003 0.950 . S
H998 C1004 0.949 . S
C999 H994 0.950 . S
C999 C1001 1.327 . S
C999 C1005 1.429 . S
C1000 C992 1.574 . S
C1000 H995 0.949 . S
C1000 C1006 1.368 . S
C1001 C985 1.349 . S
C1001 H993 0.950 . S
C1001 C999 1.327 . S
C1002 C990 1.349 . S
C1002 H996 0.950 . S
C1002 C1003 1.327 . S
C1003 H997 0.950 . S
C1003 C1002 1.327 . S
C1003 C1007 1.429 . S
C1004 C987 1.574 . S
C1004 H998 0.949 . S
C1004 C1008 1.368 . S
C1005 C986 1.429 . S
C1005 C999 1.429 . S
C1005 C1006 1.523 . S
C1006 C987 1.368 . S
C1006 C1000 1.368 . S
C1006 C1005 1.523 . S
C1007 C991 1.429 . S
C1007 C1003 1.429 . S
C1007 C1008 1.523 . S
C1008 C992 1.368 . S
C1008 C1004 1.368 . S
C1008 C1007 1.523 . S
H1009 C984 0.950 . S
H1010 C986 0.950 . S
H1011 C987 0.949 . S
H1012 C989 0.950 . S
H1013 C991 0.950 . S
C1014 C1015 1.349 . S
C1014 C1016 1.327 . S
C1014 H1039 0.950 . S
C1015 C1014 1.349 . S
C1015 C1031 1.349 . S
C1016 C1014 1.327 . S
C1016 C1035 1.429 . S
C1016 H1040 0.950 . S
C1017 C1034 1.574 . S
C1017 C1036 1.368 . S
C1017 H1041 0.949 . S
H1018 C1022 0.937 1_565 S
C1019 C1020 1.349 . S
C1019 C1021 1.327 . S
C1019 H1042 0.950 . S
C1020 C1019 1.349 . S
C1020 C1032 1.349 . S
C1021 C1019 1.327 . S
C1021 C1037 1.429 . S
C1021 H1043 0.950 . S
C1022 H1018 0.937 1_545 S
C1022 C1030 1.598 . S
C1022 C1038 1.358 1_545 S
H1023 C1031 0.950 . S
H1024 C1029 0.950 . S
H1025 C1030 0.949 . S
H1026 C1032 0.950 . S
H1027 C1033 0.950 . S
H1028 C1034 0.949 . S
C1029 H1024 0.950 . S
C1029 C1031 1.327 . S
C1029 C1035 1.429 . S
C1030 C1022 1.598 . S
C1030 H1025 0.949 . S
C1030 C1036 1.368 . S
C1031 C1015 1.349 . S
C1031 H1023 0.950 . S
C1031 C1029 1.327 . S
C1032 C1020 1.349 . S
C1032 H1026 0.950 . S
C1032 C1033 1.327 . S
C1033 H1027 0.950 . S
C1033 C1032 1.327 . S
C1033 C1037 1.429 . S
C1034 C1017 1.574 . S
C1034 H1028 0.949 . S
C1034 C1038 1.368 1_545 S
C1035 C1016 1.429 . S
C1035 C1029 1.429 . S
C1035 C1036 1.523 . S
C1036 C1017 1.368 . S
C1036 C1030 1.368 . S
C1036 C1035 1.523 . S
C1037 C1021 1.429 . S
C1037 C1033 1.429 . S
C1037 C1038 1.523 . S
C1038 C1022 1.358 1_565 S
C1038 C1034 1.368 1_565 S
C1038 C1037 1.523 . S
H1039 C1014 0.950 . S
H1040 C1016 0.950 . S
H1041 C1017 0.949 . S
H1042 C1019 0.950 . S
H1043 C1021 0.950 . S
C1044 C1045 1.349 . S
C1044 C1046 1.327 . S
C1044 H1069 0.950 . S
C1045 C1044 1.349 . S
C1045 C1061 1.349 . S
C1046 C1044 1.327 . S
C1046 C1065 1.429 . S
C1046 H1070 0.950 . S
C1047 C1064 1.574 . S
C1047 C1066 1.368 . S
C1047 H1071 0.949 . S
H1048 C1052 0.949 . S
C1049 C1050 1.349 . S
C1049 C1051 1.327 . S
C1049 H1072 0.950 . S
C1050 C1049 1.349 . S
C1050 C1062 1.349 . S
C1051 C1049 1.327 . S
C1051 C1067 1.429 . S
C1051 H1073 0.950 . S
C1052 H1048 0.949 . S
C1052 C1060 1.574 . S
C1052 C1068 1.368 . S
H1053 C1061 0.950 . S
H1054 C1059 0.950 . S
H1055 C1060 0.949 . S
H1056 C1062 0.950 . S
H1057 C1063 0.950 . S
H1058 C1064 0.949 . S
C1059 H1054 0.950 . S
C1059 C1061 1.327 . S
C1059 C1065 1.429 . S
C1060 C1052 1.574 . S
C1060 H1055 0.949 . S
C1060 C1066 1.368 . S
C1061 C1045 1.349 . S
C1061 H1053 0.950 . S
C1061 C1059 1.327 . S
C1062 C1050 1.349 . S
C1062 H1056 0.950 . S
C1062 C1063 1.327 . S
C1063 H1057 0.950 . S
C1063 C1062 1.327 . S
C1063 C1067 1.429 . S
C1064 C1047 1.574 . S
C1064 H1058 0.949 . S
C1064 C1068 1.368 . S
C1065 C1046 1.429 . S
C1065 C1059 1.429 . S
C1065 C1066 1.523 . S
C1066 C1047 1.368 . S
C1066 C1060 1.368 . S
C1066 C1065 1.523 . S
C1067 C1051 1.429 . S
C1067 C1063 1.429 . S
C1067 C1068 1.523 . S
C1068 C1052 1.368 . S
C1068 C1064 1.368 . S
C1068 C1067 1.523 . S
H1069 C1044 0.950 . S
H1070 C1046 0.950 . S
H1071 C1047 0.949 . S
H1072 C1049 0.950 . S
H1073 C1051 0.950 . S
C1074 C1075 1.349 . S
C1074 C1076 1.327 . S
C1074 H1099 0.950 . S
C1075 C1074 1.349 . S
C1075 C1091 1.349 . S
C1076 C1074 1.327 . S
C1076 C1095 1.429 . S
C1076 H1100 0.950 . S
C1077 C1094 1.574 . S
C1077 C1096 1.368 . S
C1077 H1101 0.949 . S
H1078 C1082 0.949 . S
C1079 C1080 1.349 . S
C1079 C1081 1.327 . S
C1079 H1102 0.950 . S
C1080 C1079 1.349 . S
C1080 C1092 1.349 . S
C1081 C1079 1.327 . S
C1081 C1097 1.429 . S
C1081 H1103 0.950 . S
C1082 H1078 0.949 . S
C1082 C1090 1.574 . S
C1082 C1098 1.368 . S
H1083 C1091 0.950 . S
H1084 C1089 0.950 . S
H1085 C1090 0.949 . S
H1086 C1092 0.950 . S
H1087 C1093 0.950 . S
H1088 C1094 0.949 . S
C1089 H1084 0.950 . S
C1089 C1091 1.327 . S
C1089 C1095 1.429 . S
C1090 C1082 1.574 . S
C1090 H1085 0.949 . S
C1090 C1096 1.368 . S
C1091 C1075 1.349 . S
C1091 H1083 0.950 . S
C1091 C1089 1.327 . S
C1092 C1080 1.349 . S
C1092 H1086 0.950 . S
C1092 C1093 1.327 . S
C1093 H1087 0.950 . S
C1093 C1092 1.327 . S
C1093 C1097 1.429 . S
C1094 C1077 1.574 . S
C1094 H1088 0.949 . S
C1094 C1098 1.368 . S
C1095 C1076 1.429 . S
C1095 C1089 1.429 . S
C1095 C1096 1.523 . S
C1096 C1077 1.368 . S
C1096 C1090 1.368 . S
C1096 C1095 1.523 . S
C1097 C1081 1.429 . S
C1097 C1093 1.429 . S
C1097 C1098 1.523 . S
C1098 C1082 1.368 . S
C1098 C1094 1.368 . S
C1098 C1097 1.523 . S
H1099 C1074 0.950 . S
H1100 C1076 0.950 . S
H1101 C1077 0.949 . S
H1102 C1079 0.950 . S
H1103 C1081 0.950 . S
C1104 C1105 1.349 . S
C1104 C1106 1.327 . S
C1104 H1129 0.950 . S
C1105 C1104 1.349 . S
C1105 C1121 1.349 . S
C1106 C1104 1.327 . S
C1106 C1125 1.429 . S
C1106 H1130 0.950 . S
C1107 C1124 1.574 . S
C1107 C1126 1.368 . S
C1107 H1131 0.949 . S
H1108 C1112 0.949 . S
C1109 C1110 1.349 . S
C1109 C1111 1.327 . S
C1109 H1132 0.950 . S
C1110 C1109 1.349 . S
C1110 C1122 1.349 . S
C1111 C1109 1.327 . S
C1111 C1127 1.429 . S
C1111 H1133 0.950 . S
C1112 H1108 0.949 . S
C1112 C1120 1.574 . S
C1112 C1128 1.368 . S
H1113 C1121 0.950 . S
H1114 C1119 0.950 . S
H1115 C1120 0.949 . S
H1116 C1122 0.950 . S
H1117 C1123 0.950 . S
H1118 C1124 0.949 . S
C1119 H1114 0.950 . S
C1119 C1121 1.327 . S
C1119 C1125 1.429 . S
C1120 C1112 1.574 . S
C1120 H1115 0.949 . S
C1120 C1126 1.368 . S
C1121 C1105 1.349 . S
C1121 H1113 0.950 . S
C1121 C1119 1.327 . S
C1122 C1110 1.349 . S
C1122 H1116 0.950 . S
C1122 C1123 1.327 . S
C1123 H1117 0.950 . S
C1123 C1122 1.327 . S
C1123 C1127 1.429 . S
C1124 C1107 1.574 . S
C1124 H1118 0.949 . S
C1124 C1128 1.368 . S
C1125 C1106 1.429 . S
C1125 C1119 1.429 . S
C1125 C1126 1.523 . S
C1126 C1107 1.368 . S
C1126 C1120 1.368 . S
C1126 C1125 1.523 . S
C1127 C1111 1.429 . S
C1127 C1123 1.429 . S
C1127 C1128 1.523 . S
C1128 C1112 1.368 . S
C1128 C1124 1.368 . S
C1128 C1127 1.523 . S
H1129 C1104 0.950 . S
H1130 C1106 0.950 . S
H1131 C1107 0.949 . S
H1132 C1109 0.950 . S
H1133 C1111 0.950 . S
C1134 C1135 1.349 . S
C1134 C1136 1.327 . S
C1134 H1159 0.950 . S
C1135 C1134 1.349 . S
C1135 C1151 1.349 . S
C1136 C1134 1.327 . S
C1136 C1155 1.429 . S
C1136 H1160 0.950 . S
C1137 C1154 1.574 . S
C1137 C1156 1.368 . S
C1137 H1161 0.949 . S
H1138 C1142 0.949 . S
C1139 C1140 1.349 . S
C1139 C1141 1.327 . S
C1139 H1162 0.950 . S
C1140 C1139 1.349 . S
C1140 C1152 1.349 . S
C1141 C1139 1.327 . S
C1141 C1157 1.429 . S
C1141 H1163 0.950 . S
C1142 H1138 0.949 . S
C1142 C1150 1.574 . S
C1142 C1158 1.368 . S
H1143 C1151 0.950 . S
H1144 C1149 0.950 . S
H1145 C1150 0.949 . S
H1146 C1152 0.950 . S
H1147 C1153 0.950 . S
H1148 C1154 0.949 . S
C1149 H1144 0.950 . S
C1149 C1151 1.327 . S
C1149 C1155 1.429 . S
C1150 C1142 1.574 . S
C1150 H1145 0.949 . S
C1150 C1156 1.368 . S
C1151 C1135 1.349 . S
C1151 H1143 0.950 . S
C1151 C1149 1.327 . S
C1152 C1140 1.349 . S
C1152 H1146 0.950 . S
C1152 C1153 1.327 . S
C1153 H1147 0.950 . S
C1153 C1152 1.327 . S
C1153 C1157 1.429 . S
C1154 C1137 1.574 . S
C1154 H1148 0.949 . S
C1154 C1158 1.368 . S
C1155 C1136 1.429 . S
C1155 C1149 1.429 . S
C1155 C1156 1.523 . S
C1156 C1137 1.368 . S
C1156 C1150 1.368 . S
C1156 C1155 1.523 . S
C1157 C1141 1.429 . S
C1157 C1153 1.429 . S
C1157 C1158 1.523 . S
C1158 C1142 1.368 . S
C1158 C1154 1.368 . S
C1158 C1157 1.523 . S
H1159 C1134 0.950 . S
H1160 C1136 0.950 . S
H1161 C1137 0.949 . S
H1162 C1139 0.950 . S
H1163 C1141 0.950 . S
C1164 C1165 1.349 . S
C1164 C1166 1.327 . S
C1164 H1189 0.950 . S
C1165 C1164 1.349 . S
C1165 C1181 1.349 . S
C1166 C1164 1.327 . S
C1166 C1185 1.429 . S
C1166 H1190 0.950 . S
C1167 C1184 1.574 . S
C1167 C1186 1.368 . S
C1167 H1191 0.949 . S
H1168 C1172 0.949 . S
C1169 C1170 1.349 . S
C1169 C1171 1.327 . S
C1169 H1192 0.950 . S
C1170 C1169 1.349 . S
C1170 C1182 1.349 . S
C1171 C1169 1.327 . S
C1171 C1187 1.429 . S
C1171 H1193 0.950 . S
C1172 H1168 0.949 . S
C1172 C1180 1.574 . S
C1172 C1188 1.368 . S
H1173 C1181 0.950 . S
H1174 C1179 0.950 . S
H1175 C1180 0.949 . S
H1176 C1182 0.950 . S
H1177 C1183 0.950 . S
H1178 C1184 0.949 . S
C1179 H1174 0.950 . S
C1179 C1181 1.327 . S
C1179 C1185 1.429 . S
C1180 C1172 1.574 . S
C1180 H1175 0.949 . S
C1180 C1186 1.368 . S
C1181 C1165 1.349 . S
C1181 H1173 0.950 . S
C1181 C1179 1.327 . S
C1182 C1170 1.349 . S
C1182 H1176 0.950 . S
C1182 C1183 1.327 . S
C1183 H1177 0.950 . S
C1183 C1182 1.327 . S
C1183 C1187 1.429 . S
C1184 C1167 1.574 . S
C1184 H1178 0.949 . S
C1184 C1188 1.368 . S
C1185 C1166 1.429 . S
C1185 C1179 1.429 . S
C1185 C1186 1.523 . S
C1186 C1167 1.368 . S
C1186 C1180 1.368 . S
C1186 C1185 1.523 . S
C1187 C1171 1.429 . S
C1187 C1183 1.429 . S
C1187 C1188 1.523 . S
C1188 C1172 1.368 . S
C1188 C1184 1.368 . S
C1188 C1187 1.523 . S
H1189 C1164 0.950 . S
H1190 C1166 0.950 . S
H1191 C1167 0.949 . S
H1192 C1169 0.950 . S
H1193 C1171 0.950 . S
C1194 C1195 1.349 . S
C1194 C1196 1.327 . S
C1194 H1219 0.950 . S
C1195 C1194 1.349 . S
C1195 C1211 1.349 . S
C1196 C1194 1.327 . S
C1196 C1215 1.429 . S
C1196 H1220 0.950 . S
C1197 C1214 1.574 . S
C1197 C1216 1.368 . S
C1197 H1221 0.949 . S
H1198 C1202 0.949 . S
C1199 C1200 1.349 . S
C1199 C1201 1.327 . S
C1199 H1222 0.950 . S
C1200 C1199 1.349 . S
C1200 C1212 1.349 . S
C1201 C1199 1.327 . S
C1201 C1217 1.429 . S
C1201 H1223 0.950 . S
C1202 H1198 0.949 . S
C1202 C1210 1.574 . S
C1202 C1218 1.368 . S
H1203 C1211 0.950 . S
H1204 C1209 0.950 . S
H1205 C1210 0.949 . S
H1206 C1212 0.950 . S
H1207 C1213 0.950 . S
H1208 C1214 0.949 . S
C1209 H1204 0.950 . S
C1209 C1211 1.327 . S
C1209 C1215 1.429 . S
C1210 C1202 1.574 . S
C1210 H1205 0.949 . S
C1210 C1216 1.368 . S
C1211 C1195 1.349 . S
C1211 H1203 0.950 . S
C1211 C1209 1.327 . S
C1212 C1200 1.349 . S
C1212 H1206 0.950 . S
C1212 C1213 1.327 . S
C1213 H1207 0.950 . S
C1213 C1212 1.327 . S
C1213 C1217 1.429 . S
C1214 C1197 1.574 . S
C1214 H1208 0.949 . S
C1214 C1218 1.368 . S
C1215 C1196 1.429 . S
C1215 C1209 1.429 . S
C1215 C1216 1.523 . S
C1216 C1197 1.368 . S
C1216 C1210 1.368 . S
C1216 C1215 1.523 . S
C1217 C1201 1.429 . S
C1217 C1213 1.429 . S
C1217 C1218 1.523 . S
C1218 C1202 1.368 . S
C1218 C1214 1.368 . S
C1218 C1217 1.523 . S
H1219 C1194 0.950 . S
H1220 C1196 0.950 . S
H1221 C1197 0.949 . S
H1222 C1199 0.950 . S
H1223 C1201 0.950 . S
C1224 C1225 1.349 . S
C1224 C1226 1.327 . S
C1224 H1249 0.950 . S
C1225 C1224 1.349 . S
C1225 C1241 1.349 . S
C1226 C1224 1.327 . S
C1226 C1245 1.429 . S
C1226 H1250 0.950 . S
C1227 C1244 1.574 . S
C1227 C1246 1.368 . S
C1227 H1251 0.949 . S
H1228 C1232 0.949 . S
C1229 C1230 1.349 . S
C1229 C1231 1.327 . S
C1229 H1252 0.950 . S
C1230 C1229 1.349 . S
C1230 C1242 1.349 . S
C1231 C1229 1.327 . S
C1231 C1247 1.429 . S
C1231 H1253 0.950 . S
C1232 H1228 0.949 . S
C1232 C1240 1.574 . S
C1232 C1248 1.368 . S
H1233 C1241 0.950 . S
H1234 C1239 0.950 . S
H1235 C1240 0.949 . S
H1236 C1242 0.950 . S
H1237 C1243 0.950 . S
H1238 C1244 0.949 . S
C1239 H1234 0.950 . S
C1239 C1241 1.327 . S
C1239 C1245 1.429 . S
C1240 C1232 1.574 . S
C1240 H1235 0.949 . S
C1240 C1246 1.368 . S
C1241 C1225 1.349 . S
C1241 H1233 0.950 . S
C1241 C1239 1.327 . S
C1242 C1230 1.349 . S
C1242 H1236 0.950 . S
C1242 C1243 1.327 . S
C1243 H1237 0.950 . S
C1243 C1242 1.327 . S
C1243 C1247 1.429 . S
C1244 C1227 1.574 . S
C1244 H1238 0.949 . S
C1244 C1248 1.368 . S
C1245 C1226 1.429 . S
C1245 C1239 1.429 . S
C1245 C1246 1.523 1_545 S
C1246 C1227 1.368 . S
C1246 C1240 1.368 . S
C1246 C1245 1.523 1_565 S
C1247 C1231 1.429 . S
C1247 C1243 1.429 . S
C1247 C1248 1.523 . S
C1248 C1232 1.368 . S
C1248 C1244 1.368 . S
C1248 C1247 1.523 . S
H1249 C1224 0.950 . S
H1250 C1226 0.950 . S
H1251 C1227 0.949 . S
H1252 C1229 0.950 . S
H1253 C1231 0.950 . S
C1254 C1255 1.349 . S
C1254 C1256 1.327 . S
C1254 H1279 0.950 . S
C1255 C1254 1.349 . S
C1255 C1271 1.349 . S
C1256 C1254 1.327 . S
C1256 C1275 1.429 1_655 S
C1256 H1280 0.950 . S
C1257 C1274 1.574 . S
C1257 C1276 1.368 . S
C1257 H1281 0.949 . S
H1258 C1262 0.949 . S
C1259 C1260 1.349 . S
C1259 C1261 1.327 . S
C1259 H1282 0.950 . S
C1260 C1259 1.349 . S
C1260 C1272 1.349 . S
C1261 C1259 1.327 . S
C1261 C1277 1.429 . S
C1261 H1283 0.950 . S
C1262 H1258 0.949 . S
C1262 C1270 1.574 . S
C1262 C1278 1.368 . S
H1263 C1271 0.950 . S
H1264 C1269 0.950 . S
H1265 C1270 0.949 . S
H1266 C1272 0.950 . S
H1267 C1273 0.950 . S
H1268 C1274 0.949 . S
C1269 H1264 0.950 . S
C1269 C1271 1.327 1_455 S
C1269 C1275 1.429 . S
C1270 C1262 1.574 . S
C1270 H1265 0.949 . S
C1270 C1276 1.368 . S
C1271 C1255 1.349 . S
C1271 H1263 0.950 . S
C1271 C1269 1.327 1_655 S
C1272 C1260 1.349 . S
C1272 H1266 0.950 . S
C1272 C1273 1.327 . S
C1273 H1267 0.950 . S
C1273 C1272 1.327 . S
C1273 C1277 1.429 . S
C1274 C1257 1.574 . S
C1274 H1268 0.949 . S
C1274 C1278 1.368 . S
C1275 C1256 1.429 1_455 S
C1275 C1269 1.429 . S
C1275 C1276 1.523 . S
C1276 C1257 1.368 . S
C1276 C1270 1.368 . S
C1276 C1275 1.523 . S
C1277 C1261 1.429 . S
C1277 C1273 1.429 . S
C1277 C1278 1.523 . S
C1278 C1262 1.368 . S
C1278 C1274 1.368 . S
C1278 C1277 1.523 . S
H1279 C1254 0.950 . S
H1280 C1256 0.950 . S
H1281 C1257 0.949 . S
H1282 C1259 0.950 . S
H1283 C1261 0.950 . S
C1284 C1285 1.349 . S
C1284 C1286 1.327 . S
C1284 H1309 0.950 . S
C1285 C1284 1.349 . S
C1285 C1301 1.349 . S
C1286 C1284 1.327 . S
C1286 C1305 1.429 . S
C1286 H1310 0.950 . S
C1287 C1304 1.574 . S
C1287 C1306 1.368 . S
C1287 H1311 0.949 . S
H1288 C1292 0.949 . S
C1289 C1290 1.349 . S
C1289 C1291 1.327 . S
C1289 H1312 0.950 . S
C1290 C1289 1.349 . S
C1290 C1302 1.349 . S
C1291 C1289 1.327 . S
C1291 C1307 1.429 . S
C1291 H1313 0.950 . S
C1292 H1288 0.949 . S
C1292 C1300 1.574 . S
C1292 C1308 1.368 . S
H1293 C1301 0.950 . S
H1294 C1299 0.950 . S
H1295 C1300 0.949 . S
H1296 C1302 0.950 . S
H1297 C1303 0.950 . S
H1298 C1304 0.949 . S
C1299 H1294 0.950 . S
C1299 C1301 1.327 . S
C1299 C1305 1.429 . S
C1300 C1292 1.574 . S
C1300 H1295 0.949 . S
C1300 C1306 1.368 . S
C1301 C1285 1.349 . S
C1301 H1293 0.950 . S
C1301 C1299 1.327 . S
C1302 C1290 1.349 . S
C1302 H1296 0.950 . S
C1302 C1303 1.327 . S
C1303 H1297 0.950 . S
C1303 C1302 1.327 . S
C1303 C1307 1.429 . S
C1304 C1287 1.574 . S
C1304 H1298 0.949 . S
C1304 C1308 1.368 . S
C1305 C1286 1.429 . S
C1305 C1299 1.429 . S
C1305 C1306 1.523 . S
C1306 C1287 1.368 . S
C1306 C1300 1.368 . S
C1306 C1305 1.523 . S
C1307 C1291 1.429 . S
C1307 C1303 1.429 . S
C1307 C1308 1.523 . S
C1308 C1292 1.368 . S
C1308 C1304 1.368 . S
C1308 C1307 1.523 . S
H1309 C1284 0.950 . S
H1310 C1286 0.950 . S
H1311 C1287 0.949 . S
H1312 C1289 0.950 . S
H1313 C1291 0.950 . S
C1314 C1315 1.349 . S
C1314 C1316 1.327 . S
C1314 H1339 0.950 . S
C1315 C1314 1.349 . S
C1315 C1331 1.349 . S
C1316 C1314 1.327 . S
C1316 C1335 1.429 . S
C1316 H1340 0.950 . S
C1317 C1334 1.574 . S
C1317 C1336 1.368 . S
C1317 H1341 0.949 . S
H1318 C1322 0.949 . S
C1319 C1320 1.349 . S
C1319 C1321 1.327 . S
C1319 H1342 0.950 . S
C1320 C1319 1.349 . S
C1320 C1332 1.349 . S
C1321 C1319 1.327 . S
C1321 C1337 1.429 . S
C1321 H1343 0.950 . S
C1322 H1318 0.949 . S
C1322 C1330 1.574 . S
C1322 C1338 1.368 . S
H1323 C1331 0.950 . S
H1324 C1329 0.950 . S
H1325 C1330 0.949 . S
H1326 C1332 0.950 . S
H1327 C1333 0.950 . S
H1328 C1334 0.949 . S
C1329 H1324 0.950 . S
C1329 C1331 1.327 . S
C1329 C1335 1.429 . S
C1330 C1322 1.574 . S
C1330 H1325 0.949 . S
C1330 C1336 1.368 . S
C1331 C1315 1.349 . S
C1331 H1323 0.950 . S
C1331 C1329 1.327 . S
C1332 C1320 1.349 . S
C1332 H1326 0.950 . S
C1332 C1333 1.327 . S
C1333 H1327 0.950 . S
C1333 C1332 1.327 . S
C1333 C1337 1.429 . S
C1334 C1317 1.574 . S
C1334 H1328 0.949 . S
C1334 C1338 1.368 . S
C1335 C1316 1.429 . S
C1335 C1329 1.429 . S
C1335 C1336 1.523 . S
C1336 C1317 1.368 . S
C1336 C1330 1.368 . S
C1336 C1335 1.523 . S
C1337 C1321 1.429 . S
C1337 C1333 1.429 . S
C1337 C1338 1.523 . S
C1338 C1322 1.368 . S
C1338 C1334 1.368 . S
C1338 C1337 1.523 . S
H1339 C1314 0.950 . S
H1340 C1316 0.950 . S
H1341 C1317 0.949 . S
H1342 C1319 0.950 . S
H1343 C1321 0.950 . S
C1344 C1345 1.349 . S
C1344 C1346 1.327 . S
C1344 H1369 0.950 . S
C1345 C1344 1.349 . S
C1345 C1361 1.349 . S
C1346 C1344 1.327 . S
C1346 C1365 1.429 . S
C1346 H1370 0.950 . S
C1347 C1364 1.574 . S
C1347 C1366 1.368 . S
C1347 H1371 0.949 . S
H1348 C1352 0.949 . S
C1349 C1350 1.349 . S
C1349 C1351 1.327 . S
C1349 H1372 0.950 . S
C1350 C1349 1.349 . S
C1350 C1362 1.349 . S
C1351 C1349 1.327 . S
C1351 C1367 1.429 . S
C1351 H1373 0.950 . S
C1352 H1348 0.949 . S
C1352 C1360 1.574 . S
C1352 C1368 1.368 . S
H1353 C1361 0.950 . S
H1354 C1359 0.950 . S
H1355 C1360 0.949 . S
H1356 C1362 0.950 . S
H1357 C1363 0.950 . S
H1358 C1364 0.949 . S
C1359 H1354 0.950 . S
C1359 C1361 1.327 . S
C1359 C1365 1.429 . S
C1360 C1352 1.574 . S
C1360 H1355 0.949 . S
C1360 C1366 1.368 . S
C1361 C1345 1.349 . S
C1361 H1353 0.950 . S
C1361 C1359 1.327 . S
C1362 C1350 1.349 . S
C1362 H1356 0.950 . S
C1362 C1363 1.327 . S
C1363 H1357 0.950 . S
C1363 C1362 1.327 . S
C1363 C1367 1.429 . S
C1364 C1347 1.574 . S
C1364 H1358 0.949 . S
C1364 C1368 1.368 . S
C1365 C1346 1.429 . S
C1365 C1359 1.429 . S
C1365 C1366 1.523 . S
C1366 C1347 1.368 . S
C1366 C1360 1.368 . S
C1366 C1365 1.523 . S
C1367 C1351 1.429 . S
C1367 C1363 1.429 . S
C1367 C1368 1.523 . S
C1368 C1352 1.368 . S
C1368 C1364 1.368 . S
C1368 C1367 1.523 . S
H1369 C1344 0.950 . S
H1370 C1346 0.950 . S
H1371 C1347 0.949 . S
H1372 C1349 0.950 . S
H1373 C1351 0.950 . S
C1374 C1375 1.349 . S
C1374 C1376 1.327 . S
C1374 H1399 0.950 . S
C1375 C1374 1.349 . S
C1375 C1391 1.349 . S
C1376 C1374 1.327 . S
C1376 C1395 1.429 . S
C1376 H1400 0.950 . S
C1377 C1394 1.574 . S
C1377 C1396 1.368 . S
C1377 H1401 0.949 . S
H1378 C1382 0.949 . S
C1379 C1380 1.349 . S
C1379 C1381 1.327 . S
C1379 H1402 0.950 . S
C1380 C1379 1.349 . S
C1380 C1392 1.349 . S
C1381 C1379 1.327 . S
C1381 C1397 1.429 . S
C1381 H1403 0.950 . S
C1382 H1378 0.949 . S
C1382 C1390 1.574 . S
C1382 C1398 1.368 . S
H1383 C1391 0.950 . S
H1384 C1389 0.950 . S
H1385 C1390 0.949 . S
H1386 C1392 0.950 . S
H1387 C1393 0.950 . S
H1388 C1394 0.949 . S
C1389 H1384 0.950 . S
C1389 C1391 1.327 . S
C1389 C1395 1.429 . S
C1390 C1382 1.574 . S
C1390 H1385 0.949 . S
C1390 C1396 1.368 . S
C1391 C1375 1.349 . S
C1391 H1383 0.950 . S
C1391 C1389 1.327 . S
C1392 C1380 1.349 . S
C1392 H1386 0.950 . S
C1392 C1393 1.327 . S
C1393 H1387 0.950 . S
C1393 C1392 1.327 . S
C1393 C1397 1.429 . S
C1394 C1377 1.574 . S
C1394 H1388 0.949 . S
C1394 C1398 1.368 . S
C1395 C1376 1.429 . S
C1395 C1389 1.429 . S
C1395 C1396 1.523 . S
C1396 C1377 1.368 . S
C1396 C1390 1.368 . S
C1396 C1395 1.523 . S
C1397 C1381 1.429 . S
C1397 C1393 1.429 . S
C1397 C1398 1.523 . S
C1398 C1382 1.368 . S
C1398 C1394 1.368 . S
C1398 C1397 1.523 . S
H1399 C1374 0.950 . S
H1400 C1376 0.950 . S
H1401 C1377 0.949 . S
H1402 C1379 0.950 . S
H1403 C1381 0.950 . S
C1404 C1405 1.349 . S
C1404 C1406 1.327 . S
C1404 H1429 0.950 . S
C1405 C1404 1.349 . S
C1405 C1421 1.349 . S
C1406 C1404 1.327 . S
C1406 C1425 1.429 . S
C1406 H1430 0.950 . S
C1407 C1424 1.574 1_565 S
C1407 C1426 1.368 . S
C1407 H1431 0.949 . S
H1408 C1412 0.949 . S
C1409 C1410 1.349 . S
C1409 C1411 1.327 . S
C1409 H1432 0.950 . S
C1410 C1409 1.349 . S
C1410 C1422 1.349 . S
C1411 C1409 1.327 . S
C1411 C1427 1.429 . S
C1411 H1433 0.950 . S
C1412 H1408 0.949 . S
C1412 C1420 1.574 1_545 S
C1412 C1428 1.368 . S
H1413 C1421 0.950 . S
H1414 C1419 0.950 . S
H1415 C1420 0.949 . S
H1416 C1422 0.950 . S
H1417 C1423 0.950 . S
H1418 C1424 0.949 . S
C1419 H1414 0.950 . S
C1419 C1421 1.327 . S
C1419 C1425 1.429 . S
C1420 C1412 1.574 1_565 S
C1420 H1415 0.949 . S
C1420 C1426 1.368 . S
C1421 C1405 1.349 . S
C1421 H1413 0.950 . S
C1421 C1419 1.327 . S
C1422 C1410 1.349 . S
C1422 H1416 0.950 . S
C1422 C1423 1.327 . S
C1423 H1417 0.950 . S
C1423 C1422 1.327 . S
C1423 C1427 1.429 . S
C1424 C1407 1.574 1_545 S
C1424 H1418 0.949 . S
C1424 C1428 1.368 . S
C1425 C1406 1.429 . S
C1425 C1419 1.429 . S
C1425 C1426 1.523 . S
C1426 C1407 1.368 . S
C1426 C1420 1.368 . S
C1426 C1425 1.523 . S
C1427 C1411 1.429 . S
C1427 C1423 1.429 . S
C1427 C1428 1.523 . S
C1428 C1412 1.368 . S
C1428 C1424 1.368 . S
C1428 C1427 1.523 . S
H1429 C1404 0.950 . S
H1430 C1406 0.950 . S
H1431 C1407 0.949 . S
H1432 C1409 0.950 . S
H1433 C1411 0.950 . S
C1434 C1435 1.349 . S
C1434 C1436 1.327 . S
C1434 H1459 0.950 . S
C1435 C1434 1.349 . S
C1435 C1451 1.349 . S
C1436 C1434 1.327 . S
C1436 C1455 1.429 . S
C1436 H1460 0.950 . S
C1437 C1454 1.574 1_455 S
C1437 C1456 1.368 . S
C1437 H1461 0.949 . S
H1438 C1442 0.949 . S
C1439 C1440 1.349 . S
C1439 C1441 1.327 . S
C1439 H1462 0.950 . S
C1440 C1439 1.349 . S
C1440 C1452 1.349 . S
C1441 C1439 1.327 . S
C1441 C1457 1.429 . S
C1441 H1463 0.950 . S
C1442 H1438 0.949 . S
C1442 C1450 1.574 1_655 S
C1442 C1458 1.368 . S
H1443 C1451 0.950 . S
H1444 C1449 0.950 . S
H1445 C1450 0.949 . S
H1446 C1452 0.950 . S
H1447 C1453 0.950 . S
H1448 C1454 0.949 . S
C1449 H1444 0.950 . S
C1449 C1451 1.327 . S
C1449 C1455 1.429 . S
C1450 C1442 1.574 1_455 S
C1450 H1445 0.949 . S
C1450 C1456 1.368 . S
C1451 C1435 1.349 . S
C1451 H1443 0.950 . S
C1451 C1449 1.327 . S
C1452 C1440 1.349 . S
C1452 H1446 0.950 . S
C1452 C1453 1.327 . S
C1453 H1447 0.950 . S
C1453 C1452 1.327 . S
C1453 C1457 1.429 . S
C1454 C1437 1.574 1_655 S
C1454 H1448 0.949 . S
C1454 C1458 1.368 . S
C1455 C1436 1.429 . S
C1455 C1449 1.429 . S
C1455 C1456 1.523 . S
C1456 C1437 1.368 . S
C1456 C1450 1.368 . S
C1456 C1455 1.523 . S
C1457 C1441 1.429 . S
C1457 C1453 1.429 . S
C1457 C1458 1.523 . S
C1458 C1442 1.368 . S
C1458 C1454 1.368 . S
C1458 C1457 1.523 . S
H1459 C1434 0.950 . S
H1460 C1436 0.950 . S
H1461 C1437 0.949 . S
H1462 C1439 0.950 . S
H1463 C1441 0.950 . S
C1464 C1465 1.349 . S
C1464 C1466 1.327 . S
C1464 H1489 0.950 . S
C1465 C1464 1.349 . S
C1465 C1481 1.349 . S
C1466 C1464 1.327 . S
C1466 C1485 1.429 . S
C1466 H1490 0.950 . S
C1467 C1484 1.574 . S
C1467 C1486 1.368 . S
C1467 H1491 0.949 . S
H1468 C1472 0.949 . S
C1469 C1470 1.349 . S
C1469 C1471 1.327 . S
C1469 H1492 0.950 . S
C1470 C1469 1.349 . S
C1470 C1482 1.349 . S
C1471 C1469 1.327 . S
C1471 C1487 1.429 . S
C1471 H1493 0.950 . S
C1472 H1468 0.949 . S
C1472 C1480 1.574 . S
C1472 C1488 1.368 . S
H1473 C1481 0.950 . S
H1474 C1479 0.950 . S
H1475 C1480 0.949 . S
H1476 C1482 0.950 . S
H1477 C1483 0.950 . S
H1478 C1484 0.949 . S
C1479 H1474 0.950 . S
C1479 C1481 1.327 . S
C1479 C1485 1.429 . S
C1480 C1472 1.574 . S
C1480 H1475 0.949 . S
C1480 C1486 1.368 . S
C1481 C1465 1.349 . S
C1481 H1473 0.950 . S
C1481 C1479 1.327 . S
C1482 C1470 1.349 . S
C1482 H1476 0.950 . S
C1482 C1483 1.327 . S
C1483 H1477 0.950 . S
C1483 C1482 1.327 . S
C1483 C1487 1.429 . S
C1484 C1467 1.574 . S
C1484 H1478 0.949 . S
C1484 C1488 1.368 . S
C1485 C1466 1.429 . S
C1485 C1479 1.429 . S
C1485 C1486 1.523 . S
C1486 C1467 1.368 . S
C1486 C1480 1.368 . S
C1486 C1485 1.523 . S
C1487 C1471 1.429 . S
C1487 C1483 1.429 . S
C1487 C1488 1.523 . S
C1488 C1472 1.368 . S
C1488 C1484 1.368 . S
C1488 C1487 1.523 . S
H1489 C1464 0.950 . S
H1490 C1466 0.950 . S
H1491 C1467 0.949 . S
H1492 C1469 0.950 . S
H1493 C1471 0.950 . S
C1494 C1495 1.349 . S
C1494 C1496 1.327 . S
C1494 H1519 0.950 . S
C1495 C1494 1.349 . S
C1495 C1511 1.349 . S
C1496 C1494 1.327 . S
C1496 C1515 1.429 . S
C1496 H1520 0.950 . S
C1497 C1514 1.574 . S
C1497 C1516 1.368 . S
C1497 H1521 0.949 . S
H1498 C1502 0.949 . S
C1499 C1500 1.349 . S
C1499 C1501 1.327 . S
C1499 H1522 0.950 . S
C1500 C1499 1.349 . S
C1500 C1512 1.349 . S
C1501 C1499 1.327 . S
C1501 C1517 1.429 . S
C1501 H1523 0.950 . S
C1502 H1498 0.949 . S
C1502 C1510 1.574 . S
C1502 C1518 1.368 . S
H1503 C1511 0.950 . S
H1504 C1509 0.950 . S
H1505 C1510 0.949 . S
H1506 C1512 0.950 . S
H1507 C1513 0.950 . S
H1508 C1514 0.949 . S
C1509 H1504 0.950 . S
C1509 C1511 1.327 . S
C1509 C1515 1.429 . S
C1510 C1502 1.574 . S
C1510 H1505 0.949 . S
C1510 C1516 1.368 . S
C1511 C1495 1.349 . S
C1511 H1503 0.950 . S
C1511 C1509 1.327 . S
C1512 C1500 1.349 . S
C1512 H1506 0.950 . S
C1512 C1513 1.327 . S
C1513 H1507 0.950 . S
C1513 C1512 1.327 . S
C1513 C1517 1.429 . S
C1514 C1497 1.574 . S
C1514 H1508 0.949 . S
C1514 C1518 1.368 . S
C1515 C1496 1.429 . S
C1515 C1509 1.429 . S
C1515 C1516 1.523 1_455 S
C1516 C1497 1.368 . S
C1516 C1510 1.368 . S
C1516 C1515 1.523 1_655 S
C1517 C1501 1.429 . S
C1517 C1513 1.429 . S
C1517 C1518 1.523 . S
C1518 C1502 1.368 . S
C1518 C1514 1.368 . S
C1518 C1517 1.523 . S
H1519 C1494 0.950 . S
H1520 C1496 0.950 . S
H1521 C1497 0.949 . S
H1522 C1499 0.950 . S
H1523 C1501 0.950 . S
C1524 C1525 1.349 . S
C1524 C1526 1.327 . S
C1524 H1549 0.950 . S
C1525 C1524 1.349 . S
C1525 C1541 1.349 . S
C1526 C1524 1.327 . S
C1526 C1545 1.429 . S
C1526 H1550 0.950 . S
C1527 C1544 1.574 . S
C1527 C1546 1.368 . S
C1527 H1551 0.949 . S
H1528 C1532 0.949 . S
C1529 C1530 1.349 . S
C1529 C1531 1.327 . S
C1529 H1552 0.950 . S
C1530 C1529 1.349 . S
C1530 C1542 1.349 . S
C1531 C1529 1.327 . S
C1531 C1547 1.429 . S
C1531 H1553 0.950 . S
C1532 H1528 0.949 . S
C1532 C1540 1.574 . S
C1532 C1548 1.368 . S
H1533 C1541 0.950 . S
H1534 C1539 0.950 . S
H1535 C1540 0.949 . S
H1536 C1542 0.950 . S
H1537 C1543 0.950 . S
H1538 C1544 0.949 . S
C1539 H1534 0.950 . S
C1539 C1541 1.327 . S
C1539 C1545 1.429 . S
C1540 C1532 1.574 . S
C1540 H1535 0.949 . S
C1540 C1546 1.368 . S
C1541 C1525 1.349 . S
C1541 H1533 0.950 . S
C1541 C1539 1.327 . S
C1542 C1530 1.349 . S
C1542 H1536 0.950 . S
C1542 C1543 1.327 . S
C1543 H1537 0.950 . S
C1543 C1542 1.327 . S
C1543 C1547 1.429 . S
C1544 C1527 1.574 . S
C1544 H1538 0.949 . S
C1544 C1548 1.368 . S
C1545 C1526 1.429 . S
C1545 C1539 1.429 . S
C1545 C1546 1.523 . S
C1546 C1527 1.368 . S
C1546 C1540 1.368 . S
C1546 C1545 1.523 . S
C1547 C1531 1.429 . S
C1547 C1543 1.429 . S
C1547 C1548 1.523 . S
C1548 C1532 1.368 . S
C1548 C1544 1.368 . S
C1548 C1547 1.523 . S
H1549 C1524 0.950 . S
H1550 C1526 0.950 . S
H1551 C1527 0.949 . S
H1552 C1529 0.950 . S
H1553 C1531 0.950 . S
C1554 C1555 1.349 . S
C1554 C1556 1.327 . S
C1554 H1579 0.950 . S
C1555 C1554 1.349 . S
C1555 C1571 1.349 . S
C1556 C1554 1.327 . S
C1556 C1575 1.429 . S
C1556 H1580 0.950 . S
C1557 C1574 1.574 . S
C1557 C1576 1.368 . S
C1557 H1581 0.949 . S
H1558 C1562 0.949 . S
C1559 C1560 1.349 . S
C1559 C1561 1.327 . S
C1559 H1582 0.950 . S
C1560 C1559 1.349 . S
C1560 C1572 1.349 . S
C1561 C1559 1.327 . S
C1561 C1577 1.429 . S
C1561 H1583 0.950 . S
C1562 H1558 0.949 . S
C1562 C1570 1.574 . S
C1562 C1578 1.368 . S
H1563 C1571 0.950 . S
H1564 C1569 0.950 . S
H1565 C1570 0.949 . S
H1566 C1572 0.950 . S
H1567 C1573 0.950 . S
H1568 C1574 0.949 . S
C1569 H1564 0.950 . S
C1569 C1571 1.327 . S
C1569 C1575 1.429 . S
C1570 C1562 1.574 . S
C1570 H1565 0.949 . S
C1570 C1576 1.368 . S
C1571 C1555 1.349 . S
C1571 H1563 0.950 . S
C1571 C1569 1.327 . S
C1572 C1560 1.349 . S
C1572 H1566 0.950 . S
C1572 C1573 1.327 . S
C1573 H1567 0.950 . S
C1573 C1572 1.327 . S
C1573 C1577 1.429 . S
C1574 C1557 1.574 . S
C1574 H1568 0.949 . S
C1574 C1578 1.368 . S
C1575 C1556 1.429 . S
C1575 C1569 1.429 . S
C1575 C1576 1.523 1_565 S
C1576 C1557 1.368 . S
C1576 C1570 1.368 . S
C1576 C1575 1.523 1_545 S
C1577 C1561 1.429 . S
C1577 C1573 1.429 . S
C1577 C1578 1.523 . S
C1578 C1562 1.368 . S
C1578 C1574 1.368 . S
C1578 C1577 1.523 . S
H1579 C1554 0.950 . S
H1580 C1556 0.950 . S
H1581 C1557 0.949 . S
H1582 C1559 0.950 . S
H1583 C1561 0.950 . S
C1584 C1585 1.349 . S
C1584 C1586 1.327 . S
C1584 H1609 0.950 . S
C1585 C1584 1.349 . S
C1585 C1601 1.349 . S
C1586 C1584 1.327 . S
C1586 C1605 1.429 . S
C1586 H1610 0.950 . S
C1587 C1604 1.574 . S
C1587 C1606 1.368 . S
C1587 H1611 0.949 . S
H1588 C1592 0.949 . S
C1589 C1590 1.349 . S
C1589 C1591 1.327 . S
C1589 H1612 0.950 . S
C1590 C1589 1.349 . S
C1590 C1602 1.349 . S
C1591 C1589 1.327 . S
C1591 C1607 1.429 . S
C1591 H1613 0.950 . S
C1592 H1588 0.949 . S
C1592 C1600 1.574 . S
C1592 C1608 1.368 . S
H1593 C1601 0.950 . S
H1594 C1599 0.950 . S
H1595 C1600 0.949 . S
H1596 C1602 0.950 . S
H1597 C1603 0.950 . S
H1598 C1604 0.949 . S
C1599 H1594 0.950 . S
C1599 C1601 1.327 . S
C1599 C1605 1.429 . S
C1600 C1592 1.574 . S
C1600 H1595 0.949 . S
C1600 C1606 1.368 . S
C1601 C1585 1.349 . S
C1601 H1593 0.950 . S
C1601 C1599 1.327 . S
C1602 C1590 1.349 . S
C1602 H1596 0.950 . S
C1602 C1603 1.327 . S
C1603 H1597 0.950 . S
C1603 C1602 1.327 . S
C1603 C1607 1.429 . S
C1604 C1587 1.574 . S
C1604 H1598 0.949 . S
C1604 C1608 1.368 . S
C1605 C1586 1.429 . S
C1605 C1599 1.429 . S
C1605 C1606 1.523 . S
C1606 C1587 1.368 . S
C1606 C1600 1.368 . S
C1606 C1605 1.523 . S
C1607 C1591 1.429 . S
C1607 C1603 1.429 . S
C1607 C1608 1.523 . S
C1608 C1592 1.368 . S
C1608 C1604 1.368 . S
C1608 C1607 1.523 . S
H1609 C1584 0.950 . S
H1610 C1586 0.950 . S
H1611 C1587 0.949 . S
H1612 C1589 0.950 . S
H1613 C1591 0.950 . S
C1614 C1615 1.349 . S
C1614 C1616 1.327 . S
C1614 H1639 0.950 . S
C1615 C1614 1.349 . S
C1615 C1631 1.349 . S
C1616 C1614 1.327 . S
C1616 C1635 1.429 . S
C1616 H1640 0.950 . S
C1617 C1634 1.574 . S
C1617 C1636 1.368 . S
C1617 H1641 0.949 . S
H1618 C1622 0.949 . S
C1619 C1620 1.349 . S
C1619 C1621 1.327 . S
C1619 H1642 0.950 . S
C1620 C1619 1.349 . S
C1620 C1632 1.349 . S
C1621 C1619 1.327 . S
C1621 C1637 1.429 . S
C1621 H1643 0.950 . S
C1622 H1618 0.949 . S
C1622 C1630 1.574 . S
C1622 C1638 1.368 . S
H1623 C1631 0.950 . S
H1624 C1629 0.950 . S
H1625 C1630 0.949 . S
H1626 C1632 0.950 . S
H1627 C1633 0.950 . S
H1628 C1634 0.949 . S
C1629 H1624 0.950 . S
C1629 C1631 1.327 . S
C1629 C1635 1.429 . S
C1630 C1622 1.574 . S
C1630 H1625 0.949 . S
C1630 C1636 1.368 . S
C1631 C1615 1.349 . S
C1631 H1623 0.950 . S
C1631 C1629 1.327 . S
C1632 C1620 1.349 . S
C1632 H1626 0.950 . S
C1632 C1633 1.327 . S
C1633 H1627 0.950 . S
C1633 C1632 1.327 . S
C1633 C1637 1.429 . S
C1634 C1617 1.574 . S
C1634 H1628 0.949 . S
C1634 C1638 1.368 . S
C1635 C1616 1.429 . S
C1635 C1629 1.429 . S
C1635 C1636 1.523 . S
C1636 C1617 1.368 . S
C1636 C1630 1.368 . S
C1636 C1635 1.523 . S
C1637 C1621 1.429 . S
C1637 C1633 1.429 . S
C1637 C1638 1.523 . S
C1638 C1622 1.368 . S
C1638 C1634 1.368 . S
C1638 C1637 1.523 . S
H1639 C1614 0.950 . S
H1640 C1616 0.950 . S
H1641 C1617 0.949 . S
H1642 C1619 0.950 . S
H1643 C1621 0.950 . S
C1644 C1645 1.349 . S
C1644 C1646 1.327 . S
C1644 H1669 0.950 . S
C1645 C1644 1.349 . S
C1645 C1661 1.349 . S
C1646 C1644 1.327 . S
C1646 C1665 1.429 . S
C1646 H1670 0.950 . S
C1647 C1664 1.574 . S
C1647 C1666 1.368 . S
C1647 H1671 0.949 . S
H1648 C1652 0.949 . S
C1649 C1650 1.349 . S
C1649 C1651 1.327 . S
C1649 H1672 0.950 . S
C1650 C1649 1.349 . S
C1650 C1662 1.349 . S
C1651 C1649 1.327 . S
C1651 C1667 1.429 . S
C1651 H1673 0.950 . S
C1652 H1648 0.949 . S
C1652 C1660 1.574 . S
C1652 C1668 1.368 . S
H1653 C1661 0.950 . S
H1654 C1659 0.950 . S
H1655 C1660 0.949 . S
H1656 C1662 0.950 . S
H1657 C1663 0.950 . S
H1658 C1664 0.949 . S
C1659 H1654 0.950 . S
C1659 C1661 1.327 . S
C1659 C1665 1.429 . S
C1660 C1652 1.574 . S
C1660 H1655 0.949 . S
C1660 C1666 1.368 . S
C1661 C1645 1.349 . S
C1661 H1653 0.950 . S
C1661 C1659 1.327 . S
C1662 C1650 1.349 . S
C1662 H1656 0.950 . S
C1662 C1663 1.327 . S
C1663 H1657 0.950 . S
C1663 C1662 1.327 . S
C1663 C1667 1.429 . S
C1664 C1647 1.574 . S
C1664 H1658 0.949 . S
C1664 C1668 1.368 . S
C1665 C1646 1.429 . S
C1665 C1659 1.429 . S
C1665 C1666 1.523 . S
C1666 C1647 1.368 . S
C1666 C1660 1.368 . S
C1666 C1665 1.523 . S
C1667 C1651 1.429 . S
C1667 C1663 1.429 . S
C1667 C1668 1.523 . S
C1668 C1652 1.368 . S
C1668 C1664 1.368 . S
C1668 C1667 1.523 . S
H1669 C1644 0.950 . S
H1670 C1646 0.950 . S
H1671 C1647 0.949 . S
H1672 C1649 0.950 . S
H1673 C1651 0.950 . S
C1674 C1675 1.349 . S
C1674 C1676 1.327 . S
C1674 H1699 0.950 . S
C1675 C1674 1.349 . S
C1675 C1691 1.349 . S
C1676 C1674 1.327 . S
C1676 C1695 1.429 . S
C1676 H1700 0.950 . S
C1677 C1694 1.574 . S
C1677 C1696 1.368 . S
C1677 H1701 0.949 . S
H1678 C1682 0.949 . S
C1679 C1680 1.349 . S
C1679 C1681 1.327 . S
C1679 H1702 0.950 . S
C1680 C1679 1.349 . S
C1680 C1692 1.349 . S
C1681 C1679 1.327 . S
C1681 C1697 1.429 . S
C1681 H1703 0.950 . S
C1682 H1678 0.949 . S
C1682 C1690 1.574 . S
C1682 C1698 1.368 . S
H1683 C1691 0.950 . S
H1684 C1689 0.950 . S
H1685 C1690 0.949 . S
H1686 C1692 0.950 1_545 S
H1687 C1693 0.950 . S
H1688 C1694 0.949 . S
C1689 H1684 0.950 . S
C1689 C1691 1.327 . S
C1689 C1695 1.429 . S
C1690 C1682 1.574 . S
C1690 H1685 0.949 . S
C1690 C1696 1.368 . S
C1691 C1675 1.349 . S
C1691 H1683 0.950 . S
C1691 C1689 1.327 . S
C1692 C1680 1.349 . S
C1692 H1686 0.950 1_565 S
C1692 C1693 1.327 . S
C1693 H1687 0.950 . S
C1693 C1692 1.327 . S
C1693 C1697 1.429 . S
C1694 C1677 1.574 . S
C1694 H1688 0.949 . S
C1694 C1698 1.368 . S
C1695 C1676 1.429 . S
C1695 C1689 1.429 . S
C1695 C1696 1.523 . S
C1696 C1677 1.368 . S
C1696 C1690 1.368 . S
C1696 C1695 1.523 . S
C1697 C1681 1.429 . S
C1697 C1693 1.429 . S
C1697 C1698 1.523 . S
C1698 C1682 1.368 . S
C1698 C1694 1.368 . S
C1698 C1697 1.523 . S
H1699 C1674 0.950 . S
H1700 C1676 0.950 . S
H1701 C1677 0.949 . S
H1702 C1679 0.950 . S
H1703 C1681 0.950 . S
C1704 C1705 1.349 . S
C1704 C1706 1.327 . S
C1704 H1729 0.950 . S
C1705 C1704 1.349 . S
C1705 C1721 1.349 . S
C1706 C1704 1.327 . S
C1706 C1725 1.429 . S
C1706 H1730 0.950 . S
C1707 C1724 1.574 . S
C1707 C1726 1.368 . S
C1707 H1731 0.949 . S
H1708 C1712 0.949 . S
C1709 C1710 1.349 . S
C1709 C1711 1.327 . S
C1709 H1732 0.950 . S
C1710 C1709 1.349 . S
C1710 C1722 1.349 . S
C1711 C1709 1.327 . S
C1711 C1727 1.429 . S
C1711 H1733 0.950 . S
C1712 H1708 0.949 . S
C1712 C1720 1.574 . S
C1712 C1728 1.368 . S
H1713 C1721 0.950 . S
H1714 C1719 0.950 . S
H1715 C1720 0.949 . S
H1716 C1722 0.950 . S
H1717 C1723 0.950 . S
H1718 C1724 0.949 . S
C1719 H1714 0.950 . S
C1719 C1721 1.327 . S
C1719 C1725 1.429 . S
C1720 C1712 1.574 . S
C1720 H1715 0.949 . S
C1720 C1726 1.368 . S
C1721 C1705 1.349 . S
C1721 H1713 0.950 . S
C1721 C1719 1.327 . S
C1722 C1710 1.349 . S
C1722 H1716 0.950 . S
C1722 C1723 1.327 . S
C1723 H1717 0.950 . S
C1723 C1722 1.327 . S
C1723 C1727 1.429 . S
C1724 C1707 1.574 . S
C1724 H1718 0.949 . S
C1724 C1728 1.368 . S
C1725 C1706 1.429 . S
C1725 C1719 1.429 . S
C1725 C1726 1.523 . S
C1726 C1707 1.368 . S
C1726 C1720 1.368 . S
C1726 C1725 1.523 . S
C1727 C1711 1.429 . S
C1727 C1723 1.429 . S
C1727 C1728 1.523 . S
C1728 C1712 1.368 . S
C1728 C1724 1.368 . S
C1728 C1727 1.523 . S
H1729 C1704 0.950 . S
H1730 C1706 0.950 . S
H1731 C1707 0.949 . S
H1732 C1709 0.950 . S
H1733 C1711 0.950 . S
C1734 C1735 1.349 . S
C1734 C1736 1.327 . S
C1734 H1759 0.950 . S
C1735 C1734 1.349 . S
C1735 C1751 1.349 . S
C1736 C1734 1.327 . S
C1736 C1755 1.429 . S
C1736 H1760 0.950 . S
C1737 C1754 1.574 . S
C1737 C1756 1.368 . S
C1737 H1761 0.949 . S
H1738 C1742 0.949 . S
C1739 C1740 1.349 . S
C1739 C1741 1.327 . S
C1739 H1762 0.950 . S
C1740 C1739 1.349 . S
C1740 C1752 1.349 . S
C1741 C1739 1.327 . S
C1741 C1757 1.429 . S
C1741 H1763 0.950 . S
C1742 H1738 0.949 . S
C1742 C1750 1.574 . S
C1742 C1758 1.368 . S
H1743 C1751 0.950 . S
H1744 C1749 0.950 . S
H1745 C1750 0.949 . S
H1746 C1752 0.950 . S
H1747 C1753 0.950 . S
H1748 C1754 0.949 . S
C1749 H1744 0.950 . S
C1749 C1751 1.327 . S
C1749 C1755 1.429 . S
C1750 C1742 1.574 . S
C1750 H1745 0.949 . S
C1750 C1756 1.368 . S
C1751 C1735 1.349 . S
C1751 H1743 0.950 . S
C1751 C1749 1.327 . S
C1752 C1740 1.349 . S
C1752 H1746 0.950 . S
C1752 C1753 1.327 . S
C1753 H1747 0.950 . S
C1753 C1752 1.327 . S
C1753 C1757 1.429 . S
C1754 C1737 1.574 . S
C1754 H1748 0.949 . S
C1754 C1758 1.368 . S
C1755 C1736 1.429 . S
C1755 C1749 1.429 . S
C1755 C1756 1.523 . S
C1756 C1737 1.368 . S
C1756 C1750 1.368 . S
C1756 C1755 1.523 . S
C1757 C1741 1.429 . S
C1757 C1753 1.429 . S
C1757 C1758 1.523 . S
C1758 C1742 1.368 . S
C1758 C1754 1.368 . S
C1758 C1757 1.523 . S
H1759 C1734 0.950 . S
H1760 C1736 0.950 . S
H1761 C1737 0.949 . S
H1762 C1739 0.950 . S
H1763 C1741 0.950 . S
C1764 C1765 1.349 . S
C1764 C1766 1.327 . S
C1764 H1789 0.950 . S
C1765 C1764 1.349 . S
C1765 C1781 1.349 . S
C1766 C1764 1.327 . S
C1766 C1785 1.429 . S
C1766 H1790 0.950 . S
C1767 C1784 1.574 . S
C1767 C1786 1.368 . S
C1767 H1791 0.949 . S
H1768 C1772 0.949 . S
C1769 C1770 1.349 . S
C1769 C1771 1.327 . S
C1769 H1792 0.950 . S
C1770 C1769 1.349 . S
C1770 C1782 1.349 . S
C1771 C1769 1.327 . S
C1771 C1787 1.429 . S
C1771 H1793 0.950 . S
C1772 H1768 0.949 . S
C1772 C1780 1.574 . S
C1772 C1788 1.368 . S
H1773 C1781 0.950 . S
H1774 C1779 0.950 . S
H1775 C1780 0.949 . S
H1776 C1782 0.950 . S
H1777 C1783 0.950 . S
H1778 C1784 0.949 . S
C1779 H1774 0.950 . S
C1779 C1781 1.327 . S
C1779 C1785 1.429 . S
C1780 C1772 1.574 . S
C1780 H1775 0.949 . S
C1780 C1786 1.368 . S
C1781 C1765 1.349 . S
C1781 H1773 0.950 . S
C1781 C1779 1.327 . S
C1782 C1770 1.349 . S
C1782 H1776 0.950 . S
C1782 C1783 1.327 . S
C1783 H1777 0.950 . S
C1783 C1782 1.327 . S
C1783 C1787 1.429 . S
C1784 C1767 1.574 . S
C1784 H1778 0.949 . S
C1784 C1788 1.368 . S
C1785 C1766 1.429 . S
C1785 C1779 1.429 . S
C1785 C1786 1.523 . S
C1786 C1767 1.368 . S
C1786 C1780 1.368 . S
C1786 C1785 1.523 . S
C1787 C1771 1.429 . S
C1787 C1783 1.429 . S
C1787 C1788 1.523 . S
C1788 C1772 1.368 . S
C1788 C1784 1.368 . S
C1788 C1787 1.523 . S
H1789 C1764 0.950 . S
H1790 C1766 0.950 . S
H1791 C1767 0.949 . S
H1792 C1769 0.950 . S
H1793 C1771 0.950 . S
C1794 C1795 1.349 . S
C1794 C1796 1.327 . S
C1794 H1819 0.950 . S
C1795 C1794 1.349 . S
C1795 C1811 1.349 . S
C1796 C1794 1.327 . S
C1796 C1815 1.429 . S
C1796 H1820 0.950 . S
C1797 C1814 1.574 . S
C1797 C1816 1.368 . S
C1797 H1821 0.949 . S
H1798 C1802 0.949 . S
C1799 C1800 1.349 . S
C1799 C1801 1.327 . S
C1799 H1822 0.950 . S
C1800 C1799 1.349 . S
C1800 C1812 1.349 . S
C1801 C1799 1.327 . S
C1801 C1817 1.429 . S
C1801 H1823 0.950 . S
C1802 H1798 0.949 . S
C1802 C1810 1.574 . S
C1802 C1818 1.368 . S
H1803 C1811 0.950 . S
H1804 C1809 0.950 . S
H1805 C1810 0.949 . S
H1806 C1812 0.950 . S
H1807 C1813 0.950 . S
H1808 C1814 0.949 . S
C1809 H1804 0.950 . S
C1809 C1811 1.327 . S
C1809 C1815 1.429 . S
C1810 C1802 1.574 . S
C1810 H1805 0.949 . S
C1810 C1816 1.368 . S
C1811 C1795 1.349 . S
C1811 H1803 0.950 . S
C1811 C1809 1.327 . S
C1812 C1800 1.349 . S
C1812 H1806 0.950 . S
C1812 C1813 1.327 . S
C1813 H1807 0.950 . S
C1813 C1812 1.327 . S
C1813 C1817 1.429 . S
C1814 C1797 1.574 . S
C1814 H1808 0.949 . S
C1814 C1818 1.368 . S
C1815 C1796 1.429 . S
C1815 C1809 1.429 . S
C1815 C1816 1.523 . S
C1816 C1797 1.368 . S
C1816 C1810 1.368 . S
C1816 C1815 1.523 . S
C1817 C1801 1.429 . S
C1817 C1813 1.429 . S
C1817 C1818 1.523 . S
C1818 C1802 1.368 . S
C1818 C1814 1.368 . S
C1818 C1817 1.523 . S
H1819 C1794 0.950 . S
H1820 C1796 0.950 . S
H1821 C1797 0.949 . S
H1822 C1799 0.950 . S
H1823 C1801 0.950 . S
C1824 C1825 1.349 . S
C1824 C1826 1.327 . S
C1824 H1849 0.950 . S
C1825 C1824 1.349 . S
C1825 C1841 1.349 . S
C1826 C1824 1.327 . S
C1826 C1845 1.429 . S
C1826 H1850 0.950 . S
C1827 C1844 1.574 . S
C1827 C1846 1.368 . S
C1827 H1851 0.949 . S
H1828 C1832 0.949 . S
C1829 C1830 1.349 . S
C1829 C1831 1.327 . S
C1829 H1852 0.950 . S
C1830 C1829 1.349 . S
C1830 C1842 1.349 . S
C1831 C1829 1.327 . S
C1831 C1847 1.429 . S
C1831 H1853 0.950 . S
C1832 H1828 0.949 . S
C1832 C1840 1.574 . S
C1832 C1848 1.368 . S
H1833 C1841 0.950 . S
H1834 C1839 0.950 . S
H1835 C1840 0.949 . S
H1836 C1842 0.950 . S
H1837 C1843 0.950 . S
H1838 C1844 0.949 . S
C1839 H1834 0.950 . S
C1839 C1841 1.327 . S
C1839 C1845 1.429 . S
C1840 C1832 1.574 . S
C1840 H1835 0.949 . S
C1840 C1846 1.368 . S
C1841 C1825 1.349 . S
C1841 H1833 0.950 . S
C1841 C1839 1.327 . S
C1842 C1830 1.349 . S
C1842 H1836 0.950 . S
C1842 C1843 1.327 . S
C1843 H1837 0.950 . S
C1843 C1842 1.327 . S
C1843 C1847 1.429 . S
C1844 C1827 1.574 . S
C1844 H1838 0.949 . S
C1844 C1848 1.368 . S
C1845 C1826 1.429 . S
C1845 C1839 1.429 . S
C1845 C1846 1.523 . S
C1846 C1827 1.368 . S
C1846 C1840 1.368 . S
C1846 C1845 1.523 . S
C1847 C1831 1.429 . S
C1847 C1843 1.429 . S
C1847 C1848 1.523 . S
C1848 C1832 1.368 . S
C1848 C1844 1.368 . S
C1848 C1847 1.523 . S
H1849 C1824 0.950 . S
H1850 C1826 0.950 . S
H1851 C1827 0.949 . S
H1852 C1829 0.950 . S
H1853 C1831 0.950 . S
C1854 C1855 1.349 . S
C1854 C1856 1.327 . S
C1854 H1879 0.950 . S
C1855 C1854 1.349 . S
C1855 C1871 1.349 . S
C1856 C1854 1.327 . S
C1856 C1875 1.429 . S
C1856 H1880 0.950 . S
C1857 C1874 1.574 . S
C1857 C1876 1.368 . S
C1857 H1881 0.949 . S
H1858 C1862 0.949 . S
C1859 C1860 1.349 . S
C1859 C1861 1.327 . S
C1859 H1882 0.950 . S
C1860 C1859 1.349 . S
C1860 C1872 1.349 . S
C1861 C1859 1.327 . S
C1861 C1877 1.429 . S
C1861 H1883 0.950 . S
C1862 H1858 0.949 . S
C1862 C1870 1.574 . S
C1862 C1878 1.368 . S
H1863 C1871 0.950 . S
H1864 C1869 0.950 . S
H1865 C1870 0.949 . S
H1866 C1872 0.950 . S
H1867 C1873 0.950 . S
H1868 C1874 0.949 . S
C1869 H1864 0.950 . S
C1869 C1871 1.327 . S
C1869 C1875 1.429 . S
C1870 C1862 1.574 . S
C1870 H1865 0.949 . S
C1870 C1876 1.368 . S
C1871 C1855 1.349 . S
C1871 H1863 0.950 . S
C1871 C1869 1.327 . S
C1872 C1860 1.349 . S
C1872 H1866 0.950 . S
C1872 C1873 1.327 . S
C1873 H1867 0.950 . S
C1873 C1872 1.327 . S
C1873 C1877 1.429 . S
C1874 C1857 1.574 . S
C1874 H1868 0.949 . S
C1874 C1878 1.368 . S
C1875 C1856 1.429 . S
C1875 C1869 1.429 . S
C1875 C1876 1.523 . S
C1876 C1857 1.368 . S
C1876 C1870 1.368 . S
C1876 C1875 1.523 . S
C1877 C1861 1.429 . S
C1877 C1873 1.429 . S
C1877 C1878 1.523 . S
C1878 C1862 1.368 . S
C1878 C1874 1.368 . S
C1878 C1877 1.523 . S
H1879 C1854 0.950 . S
H1880 C1856 0.950 . S
H1881 C1857 0.949 . S
H1882 C1859 0.950 . S
H1883 C1861 0.950 . S
C1884 C1885 1.349 . S
C1884 C1886 1.327 . S
C1884 H1909 0.950 . S
C1885 C1884 1.349 . S
C1885 C1901 1.349 . S
C1886 C1884 1.327 . S
C1886 C1905 1.429 . S
C1886 H1910 0.950 . S
C1887 C1904 1.574 . S
C1887 C1906 1.368 . S
C1887 H1911 0.949 . S
H1888 C1892 0.949 . S
C1889 C1890 1.349 . S
C1889 C1891 1.327 . S
C1889 H1912 0.950 . S
C1890 C1889 1.349 . S
C1890 C1902 1.349 . S
C1891 C1889 1.327 . S
C1891 C1907 1.429 . S
C1891 H1913 0.950 . S
C1892 H1888 0.949 . S
C1892 C1900 1.574 . S
C1892 C1908 1.368 . S
H1893 C1901 0.950 . S
H1894 C1899 0.950 . S
H1895 C1900 0.949 . S
H1896 C1902 0.950 . S
H1897 C1903 0.950 . S
H1898 C1904 0.949 . S
C1899 H1894 0.950 . S
C1899 C1901 1.327 . S
C1899 C1905 1.429 . S
C1900 C1892 1.574 . S
C1900 H1895 0.949 . S
C1900 C1906 1.368 . S
C1901 C1885 1.349 . S
C1901 H1893 0.950 . S
C1901 C1899 1.327 . S
C1902 C1890 1.349 . S
C1902 H1896 0.950 . S
C1902 C1903 1.327 . S
C1903 H1897 0.950 . S
C1903 C1902 1.327 . S
C1903 C1907 1.429 . S
C1904 C1887 1.574 . S
C1904 H1898 0.949 . S
C1904 C1908 1.368 . S
C1905 C1886 1.429 . S
C1905 C1899 1.429 . S
C1905 C1906 1.523 . S
C1906 C1887 1.368 . S
C1906 C1900 1.368 . S
C1906 C1905 1.523 . S
C1907 C1891 1.429 . S
C1907 C1903 1.429 . S
C1907 C1908 1.523 . S
C1908 C1892 1.368 . S
C1908 C1904 1.368 . S
C1908 C1907 1.523 . S
H1909 C1884 0.950 . S
H1910 C1886 0.950 . S
H1911 C1887 0.949 . S
H1912 C1889 0.950 . S
H1913 C1891 0.950 . S
C1914 C1915 1.349 . S
C1914 C1916 1.327 . S
C1914 H1939 0.950 . S
C1915 C1914 1.349 . S
C1915 C1931 1.349 . S
C1916 C1914 1.327 . S
C1916 C1935 1.429 . S
C1916 H1940 0.950 . S
C1917 C1934 1.574 . S
C1917 C1936 1.368 . S
C1917 H1941 0.949 . S
H1918 C1922 0.949 . S
C1919 C1920 1.349 . S
C1919 C1921 1.327 . S
C1919 H1942 0.950 . S
C1920 C1919 1.349 . S
C1920 C1932 1.349 . S
C1921 C1919 1.327 . S
C1921 C1937 1.429 . S
C1921 H1943 0.950 . S
C1922 H1918 0.949 . S
C1922 C1930 1.574 . S
C1922 C1938 1.368 . S
H1923 C1931 0.950 . S
H1924 C1929 0.950 . S
H1925 C1930 0.949 . S
H1926 C1932 0.950 . S
H1927 C1933 0.950 . S
H1928 C1934 0.949 . S
C1929 H1924 0.950 . S
C1929 C1931 1.327 . S
C1929 C1935 1.429 . S
C1930 C1922 1.574 . S
C1930 H1925 0.949 . S
C1930 C1936 1.368 . S
C1931 C1915 1.349 . S
C1931 H1923 0.950 . S
C1931 C1929 1.327 . S
C1932 C1920 1.349 . S
C1932 H1926 0.950 . S
C1932 C1933 1.327 . S
C1933 H1927 0.950 . S
C1933 C1932 1.327 . S
C1933 C1937 1.429 . S
C1934 C1917 1.574 . S
C1934 H1928 0.949 . S
C1934 C1938 1.368 . S
C1935 C1916 1.429 . S
C1935 C1929 1.429 . S
C1935 C1936 1.523 . S
C1936 C1917 1.368 . S
C1936 C1930 1.368 . S
C1936 C1935 1.523 . S
C1937 C1921 1.429 . S
C1937 C1933 1.429 . S
C1937 C1938 1.523 . S
C1938 C1922 1.368 . S
C1938 C1934 1.368 . S
C1938 C1937 1.523 . S
H1939 C1914 0.950 . S
H1940 C1916 0.950 . S
H1941 C1917 0.949 . S
H1942 C1919 0.950 . S
H1943 C1921 0.950 . S
C1944 C1945 1.349 . S
C1944 C1946 1.327 . S
C1944 H1969 0.950 . S
C1945 C1944 1.349 . S
C1945 C1961 1.349 . S
C1946 C1944 1.327 . S
C1946 C1965 1.429 . S
C1946 H1970 0.950 . S
C1947 C1964 1.574 . S
C1947 C1966 1.368 . S
C1947 H1971 0.949 . S
H1948 C1952 0.949 . S
C1949 C1950 1.349 . S
C1949 C1951 1.327 . S
C1949 H1972 0.950 . S
C1950 C1949 1.349 . S
C1950 C1962 1.349 . S
C1951 C1949 1.327 . S
C1951 C1967 1.429 . S
C1951 H1973 0.950 . S
C1952 H1948 0.949 . S
C1952 C1960 1.574 . S
C1952 C1968 1.368 . S
H1953 C1961 0.950 . S
H1954 C1959 0.950 . S
H1955 C1960 0.949 . S
H1956 C1962 0.950 . S
H1957 C1963 0.950 . S
H1958 C1964 0.949 . S
C1959 H1954 0.950 . S
C1959 C1961 1.327 . S
C1959 C1965 1.429 . S
C1960 C1952 1.574 . S
C1960 H1955 0.949 . S
C1960 C1966 1.368 . S
C1961 C1945 1.349 . S
C1961 H1953 0.950 . S
C1961 C1959 1.327 . S
C1962 C1950 1.349 . S
C1962 H1956 0.950 . S
C1962 C1963 1.327 . S
C1963 H1957 0.950 . S
C1963 C1962 1.327 . S
C1963 C1967 1.429 . S
C1964 C1947 1.574 . S
C1964 H1958 0.949 . S
C1964 C1968 1.368 . S
C1965 C1946 1.429 . S
C1965 C1959 1.429 . S
C1965 C1966 1.523 . S
C1966 C1947 1.368 . S
C1966 C1960 1.368 . S
C1966 C1965 1.523 . S
C1967 C1951 1.429 . S
C1967 C1963 1.429 . S
C1967 C1968 1.523 . S
C1968 C1952 1.368 . S
C1968 C1964 1.368 . S
C1968 C1967 1.523 . S
H1969 C1944 0.950 . S
H1970 C1946 0.950 . S
H1971 C1947 0.949 . S
H1972 C1949 0.950 . S
H1973 C1951 0.950 . S
C1974 C1975 1.349 . S
C1974 C1976 1.327 . S
C1974 H1999 0.950 . S
C1975 C1974 1.349 . S
C1975 C1991 1.349 . S
C1976 C1974 1.327 . S
C1976 C1995 1.429 . S
C1976 H2000 0.950 . S
C1977 C1994 1.574 . S
C1977 C1996 1.368 . S
C1977 H2001 0.949 . S
H1978 C1982 0.949 . S
C1979 C1980 1.349 . S
C1979 C1981 1.327 . S
C1979 H2002 0.950 . S
C1980 C1979 1.349 . S
C1980 C1992 1.349 . S
C1981 C1979 1.327 . S
C1981 C1997 1.429 . S
C1981 H2003 0.950 . S
C1982 H1978 0.949 . S
C1982 C1990 1.574 . S
C1982 C1998 1.368 . S
H1983 C1991 0.950 . S
H1984 C1989 0.950 . S
H1985 C1990 0.949 . S
H1986 C1992 0.950 . S
H1987 C1993 0.950 . S
H1988 C1994 0.949 . S
C1989 H1984 0.950 . S
C1989 C1991 1.327 . S
C1989 C1995 1.429 . S
C1990 C1982 1.574 . S
C1990 H1985 0.949 . S
C1990 C1996 1.368 . S
C1991 C1975 1.349 . S
C1991 H1983 0.950 . S
C1991 C1989 1.327 . S
C1992 C1980 1.349 . S
C1992 H1986 0.950 . S
C1992 C1993 1.327 . S
C1993 H1987 0.950 . S
C1993 C1992 1.327 . S
C1993 C1997 1.429 . S
C1994 C1977 1.574 . S
C1994 H1988 0.949 . S
C1994 C1998 1.368 . S
C1995 C1976 1.429 . S
C1995 C1989 1.429 . S
C1995 C1996 1.523 . S
C1996 C1977 1.368 . S
C1996 C1990 1.368 . S
C1996 C1995 1.523 . S
C1997 C1981 1.429 . S
C1997 C1993 1.429 . S
C1997 C1998 1.523 . S
C1998 C1982 1.368 . S
C1998 C1994 1.368 . S
C1998 C1997 1.523 . S
H1999 C1974 0.950 . S
H2000 C1976 0.950 . S
H2001 C1977 0.949 . S
H2002 C1979 0.950 . S
H2003 C1981 0.950 . S
C2004 C2005 1.349 . S
C2004 C2006 1.327 . S
C2004 H2029 0.950 . S
C2005 C2004 1.349 . S
C2005 C2021 1.349 . S
C2006 C2004 1.327 . S
C2006 C2025 1.429 . S
C2006 H2030 0.950 . S
C2007 C2024 1.574 . S
C2007 C2026 1.368 . S
C2007 H2031 0.949 . S
H2008 C2012 0.949 . S
C2009 C2010 1.349 . S
C2009 C2011 1.327 . S
C2009 H2032 0.950 . S
C2010 C2009 1.349 . S
C2010 C2022 1.349 . S
C2011 C2009 1.327 . S
C2011 C2027 1.429 . S
C2011 H2033 0.950 . S
C2012 H2008 0.949 . S
C2012 C2020 1.574 . S
C2012 C2028 1.368 . S
H2013 C2021 0.950 . S
H2014 C2019 0.950 . S
H2015 C2020 0.949 . S
H2016 C2022 0.950 . S
H2017 C2023 0.950 . S
H2018 C2024 0.949 . S
C2019 H2014 0.950 . S
C2019 C2021 1.327 . S
C2019 C2025 1.429 . S
C2020 C2012 1.574 . S
C2020 H2015 0.949 . S
C2020 C2026 1.368 . S
C2021 C2005 1.349 . S
C2021 H2013 0.950 . S
C2021 C2019 1.327 . S
C2022 C2010 1.349 . S
C2022 H2016 0.950 . S
C2022 C2023 1.327 . S
C2023 H2017 0.950 . S
C2023 C2022 1.327 . S
C2023 C2027 1.429 . S
C2024 C2007 1.574 . S
C2024 H2018 0.949 . S
C2024 C2028 1.368 . S
C2025 C2006 1.429 . S
C2025 C2019 1.429 . S
C2025 C2026 1.523 . S
C2026 C2007 1.368 . S
C2026 C2020 1.368 . S
C2026 C2025 1.523 . S
C2027 C2011 1.429 . S
C2027 C2023 1.429 . S
C2027 C2028 1.523 . S
C2028 C2012 1.368 . S
C2028 C2024 1.368 . S
C2028 C2027 1.523 . S
H2029 C2004 0.950 . S
H2030 C2006 0.950 . S
H2031 C2007 0.949 . S
H2032 C2009 0.950 . S
H2033 C2011 0.950 . S
C2034 C2035 1.349 . S
C2034 C2036 1.327 . S
C2034 H2059 0.950 . S
C2035 C2034 1.349 . S
C2035 C2051 1.349 . S
C2036 C2034 1.327 . S
C2036 C2055 1.429 . S
C2036 H2060 0.950 . S
C2037 C2054 1.574 . S
C2037 C2056 1.368 . S
C2037 H2061 0.949 . S
H2038 C2042 0.949 . S
C2039 C2040 1.349 . S
C2039 C2041 1.327 . S
C2039 H2062 0.950 . S
C2040 C2039 1.349 . S
C2040 C2052 1.349 . S
C2041 C2039 1.327 . S
C2041 C2057 1.429 . S
C2041 H2063 0.950 . S
C2042 H2038 0.949 . S
C2042 C2050 1.574 . S
C2042 C2058 1.368 . S
H2043 C2051 0.950 . S
H2044 C2049 0.950 . S
H2045 C2050 0.949 . S
H2046 C2052 0.950 . S
H2047 C2053 0.950 . S
H2048 C2054 0.949 . S
C2049 H2044 0.950 . S
C2049 C2051 1.327 . S
C2049 C2055 1.429 . S
C2050 C2042 1.574 . S
C2050 H2045 0.949 . S
C2050 C2056 1.368 . S
C2051 C2035 1.349 . S
C2051 H2043 0.950 . S
C2051 C2049 1.327 . S
C2052 C2040 1.349 . S
C2052 H2046 0.950 . S
C2052 C2053 1.327 . S
C2053 H2047 0.950 . S
C2053 C2052 1.327 . S
C2053 C2057 1.429 . S
C2054 C2037 1.574 . S
C2054 H2048 0.949 . S
C2054 C2058 1.368 . S
C2055 C2036 1.429 . S
C2055 C2049 1.429 . S
C2055 C2056 1.523 . S
C2056 C2037 1.368 . S
C2056 C2050 1.368 . S
C2056 C2055 1.523 . S
C2057 C2041 1.429 . S
C2057 C2053 1.429 . S
C2057 C2058 1.523 . S
C2058 C2042 1.368 . S
C2058 C2054 1.368 . S
C2058 C2057 1.523 . S
H2059 C2034 0.950 . S
H2060 C2036 0.950 . S
H2061 C2037 0.949 . S
H2062 C2039 0.950 . S
H2063 C2041 0.950 . S
C2064 C2065 1.349 . S
C2064 C2066 1.327 . S
C2064 H2089 0.950 . S
C2065 C2064 1.349 . S
C2065 C2081 1.349 . S
C2066 C2064 1.327 . S
C2066 C2085 1.429 . S
C2066 H2090 0.950 . S
C2067 C2084 1.574 . S
C2067 C2086 1.368 . S
C2067 H2091 0.949 . S
H2068 C2072 0.949 . S
C2069 C2070 1.349 . S
C2069 C2071 1.327 . S
C2069 H2092 0.950 . S
C2070 C2069 1.349 . S
C2070 C2082 1.349 . S
C2071 C2069 1.327 . S
C2071 C2087 1.429 . S
C2071 H2093 0.950 . S
C2072 H2068 0.949 . S
C2072 C2080 1.574 . S
C2072 C2088 1.368 . S
H2073 C2081 0.950 . S
H2074 C2079 0.950 . S
H2075 C2080 0.949 . S
H2076 C2082 0.950 . S
H2077 C2083 0.950 . S
H2078 C2084 0.949 . S
C2079 H2074 0.950 . S
C2079 C2081 1.327 . S
C2079 C2085 1.429 . S
C2080 C2072 1.574 . S
C2080 H2075 0.949 . S
C2080 C2086 1.368 . S
C2081 C2065 1.349 . S
C2081 H2073 0.950 . S
C2081 C2079 1.327 . S
C2082 C2070 1.349 . S
C2082 H2076 0.950 . S
C2082 C2083 1.327 . S
C2083 H2077 0.950 . S
C2083 C2082 1.327 . S
C2083 C2087 1.429 . S
C2084 C2067 1.574 . S
C2084 H2078 0.949 . S
C2084 C2088 1.368 . S
C2085 C2066 1.429 . S
C2085 C2079 1.429 . S
C2085 C2086 1.523 . S
C2086 C2067 1.368 . S
C2086 C2080 1.368 . S
C2086 C2085 1.523 . S
C2087 C2071 1.429 . S
C2087 C2083 1.429 . S
C2087 C2088 1.523 . S
C2088 C2072 1.368 . S
C2088 C2084 1.368 . S
C2088 C2087 1.523 . S
H2089 C2064 0.950 . S
H2090 C2066 0.950 . S
H2091 C2067 0.949 . S
H2092 C2069 0.950 . S
H2093 C2071 0.950 . S
C2094 C2095 1.349 . S
C2094 C2096 1.327 . S
C2094 H2119 0.950 . S
C2095 C2094 1.349 . S
C2095 C2111 1.349 . S
C2096 C2094 1.327 . S
C2096 C2115 1.429 . S
C2096 H2120 0.950 . S
C2097 C2114 1.574 . S
C2097 C2116 1.368 . S
C2097 H2121 0.949 . S
H2098 C2102 0.949 . S
C2099 C2100 1.349 . S
C2099 C2101 1.327 . S
C2099 H2122 0.950 . S
C2100 C2099 1.349 . S
C2100 C2112 1.349 . S
C2101 C2099 1.327 . S
C2101 C2117 1.429 . S
C2101 H2123 0.950 . S
C2102 H2098 0.949 . S
C2102 C2110 1.574 . S
C2102 C2118 1.368 . S
H2103 C2111 0.950 . S
H2104 C2109 0.950 . S
H2105 C2110 0.949 . S
H2106 C2112 0.950 . S
H2107 C2113 0.950 . S
H2108 C2114 0.949 . S
C2109 H2104 0.950 . S
C2109 C2111 1.327 . S
C2109 C2115 1.429 . S
C2110 C2102 1.574 . S
C2110 H2105 0.949 . S
C2110 C2116 1.368 . S
C2111 C2095 1.349 . S
C2111 H2103 0.950 . S
C2111 C2109 1.327 . S
C2112 C2100 1.349 . S
C2112 H2106 0.950 . S
C2112 C2113 1.327 . S
C2113 H2107 0.950 . S
C2113 C2112 1.327 . S
C2113 C2117 1.429 . S
C2114 C2097 1.574 . S
C2114 H2108 0.949 . S
C2114 C2118 1.368 . S
C2115 C2096 1.429 . S
C2115 C2109 1.429 . S
C2115 C2116 1.523 . S
C2116 C2097 1.368 . S
C2116 C2110 1.368 . S
C2116 C2115 1.523 . S
C2117 C2101 1.429 . S
C2117 C2113 1.429 . S
C2117 C2118 1.523 . S
C2118 C2102 1.368 . S
C2118 C2114 1.368 . S
C2118 C2117 1.523 . S
H2119 C2094 0.950 . S
H2120 C2096 0.950 . S
H2121 C2097 0.949 . S
H2122 C2099 0.950 . S
H2123 C2101 0.950 . S
C2124 C2125 1.349 . S
C2124 C2126 1.327 . S
C2124 H2149 0.950 . S
C2125 C2124 1.349 . S
C2125 C2141 1.349 . S
C2126 C2124 1.327 . S
C2126 C2145 1.429 . S
C2126 H2150 0.950 . S
C2127 C2144 1.574 . S
C2127 C2146 1.368 . S
C2127 H2151 0.949 . S
H2128 C2132 0.949 . S
C2129 C2130 1.349 . S
C2129 C2131 1.327 . S
C2129 H2152 0.950 . S
C2130 C2129 1.349 . S
C2130 C2142 1.349 . S
C2131 C2129 1.327 . S
C2131 C2147 1.429 . S
C2131 H2153 0.950 . S
C2132 H2128 0.949 . S
C2132 C2140 1.574 . S
C2132 C2148 1.368 . S
H2133 C2141 0.950 . S
H2134 C2139 0.950 . S
H2135 C2140 0.949 . S
H2136 C2142 0.950 . S
H2137 C2143 0.950 . S
H2138 C2144 0.949 . S
C2139 H2134 0.950 . S
C2139 C2141 1.327 . S
C2139 C2145 1.429 . S
C2140 C2132 1.574 . S
C2140 H2135 0.949 . S
C2140 C2146 1.368 . S
C2141 C2125 1.349 . S
C2141 H2133 0.950 . S
C2141 C2139 1.327 . S
C2142 C2130 1.349 . S
C2142 H2136 0.950 . S
C2142 C2143 1.327 . S
C2143 H2137 0.950 . S
C2143 C2142 1.327 . S
C2143 C2147 1.429 . S
C2144 C2127 1.574 . S
C2144 H2138 0.949 . S
C2144 C2148 1.368 . S
C2145 C2126 1.429 . S
C2145 C2139 1.429 . S
C2145 C2146 1.523 . S
C2146 C2127 1.368 . S
C2146 C2140 1.368 . S
C2146 C2145 1.523 . S
C2147 C2131 1.429 . S
C2147 C2143 1.429 . S
C2147 C2148 1.523 . S
C2148 C2132 1.368 . S
C2148 C2144 1.368 . S
C2148 C2147 1.523 . S
H2149 C2124 0.950 . S
H2150 C2126 0.950 . S
H2151 C2127 0.949 . S
H2152 C2129 0.950 . S
H2153 C2131 0.950 . S
C2154 C2155 1.349 . S
C2154 C2156 1.327 . S
C2154 H2179 0.950 . S
C2155 C2154 1.349 . S
C2155 C2171 1.349 . S
C2156 C2154 1.327 . S
C2156 C2175 1.429 . S
C2156 H2180 0.950 . S
C2157 C2174 1.574 . S
C2157 C2176 1.368 . S
C2157 H2181 0.949 . S
H2158 C2162 0.949 . S
C2159 C2160 1.349 . S
C2159 C2161 1.327 . S
C2159 H2182 0.950 . S
C2160 C2159 1.349 . S
C2160 C2172 1.349 . S
C2161 C2159 1.327 . S
C2161 C2177 1.429 . S
C2161 H2183 0.950 . S
C2162 H2158 0.949 . S
C2162 C2170 1.574 . S
C2162 C2178 1.368 . S
H2163 C2171 0.950 . S
H2164 C2169 0.950 . S
H2165 C2170 0.949 . S
H2166 C2172 0.950 . S
H2167 C2173 0.950 . S
H2168 C2174 0.949 . S
C2169 H2164 0.950 . S
C2169 C2171 1.327 . S
C2169 C2175 1.429 . S
C2170 C2162 1.574 . S
C2170 H2165 0.949 . S
C2170 C2176 1.368 . S
C2171 C2155 1.349 . S
C2171 H2163 0.950 . S
C2171 C2169 1.327 . S
C2172 C2160 1.349 . S
C2172 H2166 0.950 . S
C2172 C2173 1.327 . S
C2173 H2167 0.950 . S
C2173 C2172 1.327 . S
C2173 C2177 1.429 . S
C2174 C2157 1.574 . S
C2174 H2168 0.949 . S
C2174 C2178 1.368 . S
C2175 C2156 1.429 . S
C2175 C2169 1.429 . S
C2175 C2176 1.523 . S
C2176 C2157 1.368 . S
C2176 C2170 1.368 . S
C2176 C2175 1.523 . S
C2177 C2161 1.429 . S
C2177 C2173 1.429 . S
C2177 C2178 1.523 . S
C2178 C2162 1.368 . S
C2178 C2174 1.368 . S
C2178 C2177 1.523 . S
H2179 C2154 0.950 . S
H2180 C2156 0.950 . S
H2181 C2157 0.949 . S
H2182 C2159 0.950 . S
H2183 C2161 0.950 . S
C2184 C2185 1.349 . S
C2184 C2186 1.327 . S
C2184 H2209 0.950 . S
C2185 C2184 1.349 . S
C2185 C2201 1.349 . S
C2186 C2184 1.327 . S
C2186 C2205 1.429 . S
C2186 H2210 0.950 . S
C2187 C2204 1.574 . S
C2187 C2206 1.368 . S
C2187 H2211 0.949 . S
H2188 C2192 0.949 . S
C2189 C2190 1.349 . S
C2189 C2191 1.327 . S
C2189 H2212 0.950 . S
C2190 C2189 1.349 . S
C2190 C2202 1.349 . S
C2191 C2189 1.327 . S
C2191 C2207 1.429 . S
C2191 H2213 0.950 . S
C2192 H2188 0.949 . S
C2192 C2200 1.574 . S
C2192 C2208 1.368 . S
H2193 C2201 0.950 . S
H2194 C2199 0.950 . S
H2195 C2200 0.949 . S
H2196 C2202 0.950 . S
H2197 C2203 0.950 . S
H2198 C2204 0.949 . S
C2199 H2194 0.950 . S
C2199 C2201 1.327 . S
C2199 C2205 1.429 . S
C2200 C2192 1.574 . S
C2200 H2195 0.949 . S
C2200 C2206 1.368 . S
C2201 C2185 1.349 . S
C2201 H2193 0.950 . S
C2201 C2199 1.327 . S
C2202 C2190 1.349 . S
C2202 H2196 0.950 . S
C2202 C2203 1.327 . S
C2203 H2197 0.950 . S
C2203 C2202 1.327 . S
C2203 C2207 1.429 . S
C2204 C2187 1.574 . S
C2204 H2198 0.949 . S
C2204 C2208 1.368 . S
C2205 C2186 1.429 . S
C2205 C2199 1.429 . S
C2205 C2206 1.523 . S
C2206 C2187 1.368 . S
C2206 C2200 1.368 . S
C2206 C2205 1.523 . S
C2207 C2191 1.429 . S
C2207 C2203 1.429 . S
C2207 C2208 1.523 . S
C2208 C2192 1.368 . S
C2208 C2204 1.368 . S
C2208 C2207 1.523 . S
H2209 C2184 0.950 . S
H2210 C2186 0.950 . S
H2211 C2187 0.949 . S
H2212 C2189 0.950 . S
H2213 C2191 0.950 . S
C595 C177 1.677 . S
C600 C243 1.674 . S
C625 C190 1.828 . S
C630 C283 1.820 . S
C655 C164 1.604 . S
C660 C322 1.573 . S
C685 C151 1.466 . S
C690 C282 1.449 . S
C720 C323 1.485 1_556 S
C715 C125 1.490 . S
C745 C138 1.319 . S
C750 C242 1.301 . S
C780 C253 1.644 1_556 S
C775 C147 1.633 . S
C810 C293 1.674 . S
C805 C121 1.640 . S
C835 C134 1.626 . S
C840 C332 1.676 . S
C865 C173 1.455 . S
C870 C292 1.487 . S
C895 C186 1.412 . S
C900 C333 1.421 . S
C930 C252 1.433 . S
C925 C160 1.398 . S
C960 C363 1.674 . S
C955 C21 1.677 . S
C985 C34 1.828 . S
C990 C403 1.821 . S
C1015 C8 1.604 . S
C1020 C442 1.573 . S
C1045 C229 1.467 . S
C1050 C402 1.428 . S
C1075 C203 1.489 . S
C1080 C443 1.485 . S
C1105 C216 1.319 . S
C1110 C362 1.301 . S
C1135 C225 1.633 . S
C1140 C373 1.643 . S
C1165 C199 1.640 . S
C1170 C413 1.674 . S
C1200 C452 1.676 . S
C1195 C212 1.625 . S
C1225 C17 1.455 . S
C1230 C412 1.488 . S
C1260 C453 1.422 . S
C1255 C30 1.412 . S
C1285 C4 1.398 . S
C1290 C372 1.433 . S
C1320 C483 1.674 . S
C1315 C99 1.677 . S
C1345 C112 1.828 . S
C1350 C523 1.820 . S
C1380 C562 1.573 . S
C1375 C86 1.604 . S
C1410 C522 1.428 . S
C1405 C73 1.467 . S
C1440 C563 1.485 . S
C1435 C47 1.490 . S
C1465 C60 1.319 . S
C1470 C482 1.301 . S
C1495 C69 1.633 . S
C1500 C493 1.644 . S
C1525 C43 1.640 . S
C1530 C533 1.674 . S
C1560 C572 1.676 . S
C1555 C56 1.626 . S
C1585 C95 1.455 . S
C1590 C532 1.488 . S
C1615 C108 1.412 . S
C1620 C573 1.422 . S
C1645 C82 1.398 . S
C1650 C492 1.433 . S
C1675 C204 1.421 . S
C1680 C239 1.415 . S
C1710 C279 1.975 . S
C1705 C217 1.974 . S
C1735 C230 1.564 . S
C1740 C329 1.580 . S
C1765 C87 1.823 . S
C1770 C289 1.840 . S
C1795 C100 1.686 . S
C1800 C319 1.689 . S
C1830 C249 1.264 . S
C1825 C113 1.256 . S
C1855 C48 1.421 . S
C1860 C359 1.414 . S
C1885 C61 1.974 . S
C1890 C399 1.975 . S
C1915 C74 1.564 . S
C1920 C449 1.580 . S
C1945 C165 1.823 . S
C1950 C409 1.839 . S
C1980 C439 1.689 . S
C1975 C178 1.686 . S
C2005 C191 1.256 . S
C2010 C369 1.265 . S
C2035 C126 1.421 . S
C2040 C479 1.415 . S
C2065 C139 1.974 . S
C2070 C519 1.975 . S
C2100 C569 1.580 . S
C2095 C152 1.564 . S
C2125 C9 1.823 . S
C2130 C529 1.840 . S
C2155 C22 1.686 . S
C2160 C559 1.689 . S
C2185 C35 1.256 . S
C2190 C489 1.264 . S
