# Generated by pormake.
# Topology rtl, (3,6)-cn, num edge types: 1
# Building blocks:
#     Node 0, Type 0, BuildingBlock: MIDCAF_clean_linker_0, # of connection points: 3
#     Node 1, Type 0, BuildingBlock: MIDCAF_clean_linker_0, # of connection points: 3
#     Node 2, Type 0, BuildingBlock: MIDCAF_clean_linker_0, # of connection points: 3
#     Node 3, Type 0, BuildingBlock: MIDCAF_clean_linker_0, # of connection points: 3
#     Node 4, Type 1, BuildingBlock: FUNLAD_clean_sbu_0, # of connection points: 6
#     Node 5, Type 1, BuildingBlock: FUNLAD_clean_sbu_0, # of connection points: 6
#     Edge 6, Type (0, 1), BuildingBlock: OJICUG_clean_linker_0, # of connection points: 2
#     Edge 7, Type (0, 1), BuildingBlock: OJICUG_clean_linker_0, # of connection points: 2
#     Edge 8, Type (0, 1), BuildingBlock: OJICUG_clean_linker_0, # of connection points: 2
#     Edge 9, Type (0, 1), BuildingBlock: OJICUG_clean_linker_0, # of connection points: 2
#     Edge 10, Type (0, 1), BuildingBlock: OJICUG_clean_linker_0, # of connection points: 2
#     Edge 11, Type (0, 1), BuildingBlock: OJICUG_clean_linker_0, # of connection points: 2
#     Edge 12, Type (0, 1), BuildingBlock: OJICUG_clean_linker_0, # of connection points: 2
#     Edge 13, Type (0, 1), BuildingBlock: OJICUG_clean_linker_0, # of connection points: 2
#     Edge 14, Type (0, 1), BuildingBlock: OJICUG_clean_linker_0, # of connection points: 2
#     Edge 15, Type (0, 1), BuildingBlock: OJICUG_clean_linker_0, # of connection points: 2
#     Edge 16, Type (0, 1), BuildingBlock: OJICUG_clean_linker_0, # of connection points: 2
#     Edge 17, Type (0, 1), BuildingBlock: OJICUG_clean_linker_0, # of connection points: 2
# Relax obj value: 0.026
# Max RMSD: 0.108
# Mean RMSD: 0.089
data_MOF--net-rtl--node1-FUNLAD_clean_sbu_0--node2-MIDCAF_clean_linker_0--edge1-OJICUG_clean_linker_0
_symmetry_space_group_name_H-M    P1
_symmetry_Int_Tables_number       1
_symmetry_cell_setting            triclinic
loop_
_symmetry_equiv_pos_as_xyz
'x, y, z'
_cell_length_a     39.282159
_cell_length_b     31.268403
_cell_length_c     21.93647
_cell_angle_alpha  89.724542
_cell_angle_beta   90.724554
_cell_angle_gamma 90.414605
loop_
_atom_site_label
_atom_site_type_symbol
_atom_site_fract_x
_atom_site_fract_y
_atom_site_fract_z
_atom_type_partial_charge
C0 C 0.04069 0.83519 0.17147 0.0
C1 C 0.06126 0.8363 0.22426 0.0
C2 C 0.09229 0.81415 0.22476 0.0
C3 C 0.10315 0.79279 0.17265 0.0
H4 H 0.17382 0.70508 0.10439 0.0
H5 H 0.22704 0.66542 0.10238 0.0
H6 H 0.22574 0.67083 0.90564 0.0
H7 H 0.17294 0.7108 0.90726 0.0
H8 H 0.12486 0.77643 0.84031 0.0
H9 H 0.10539 0.81403 0.74874 0.0
H10 H 0.01694 0.8578 0.84461 0.0
H11 H 0.03603 0.82005 0.93587 0.0
H12 H 0.03553 0.81517 0.07892 0.0
H13 H 0.01677 0.85221 0.16944 0.0
H14 H 0.10849 0.81405 0.26509 0.0
H15 H 0.12768 0.77719 0.17389 0.0
N16 N 0.12443 0.75084 0.06056 0.0
N17 N 0.12365 0.75181 0.95351 0.0
N18 N 0.08258 0.78949 0.00732 0.0
C19 C 0.13792 0.73804 0.00682 0.0
C20 C 0.09589 0.77742 0.9534 0.0
C21 C 0.09659 0.77643 0.06104 0.0
C22 C 0.16911 0.71152 0.00602 0.0
C23 C 0.18473 0.69765 0.06063 0.0
C24 C 0.21516 0.67469 0.05954 0.0
C25 C 0.23069 0.66525 0.00386 0.0
C26 C 0.21466 0.67819 0.9493 0.0
C27 C 0.18425 0.70096 0.95032 0.0
C28 C 0.08219 0.79554 0.8957 0.0
C29 C 0.10099 0.7935 0.84167 0.0
C30 C 0.08998 0.81525 0.78929 0.0
C31 C 0.05981 0.83912 0.78971 0.0
C32 C 0.04019 0.83945 0.84277 0.0
C33 C 0.05128 0.818 0.89522 0.0
C34 C 0.08331 0.79356 0.11886 0.0
C35 C 0.0516 0.81417 0.11938 0.0
C36 C 0.53797 0.67992 0.34065 0.0
C37 C 0.55789 0.68079 0.28795 0.0
C38 C 0.58772 0.70583 0.28746 0.0
C39 C 0.59813 0.72824 0.33948 0.0
H40 H 0.66956 0.81234 0.40424 0.0
H41 H 0.72323 0.85148 0.4028 0.0
H42 H 0.72404 0.85636 0.59951 0.0
H43 H 0.67001 0.81757 0.60134 0.0
H44 H 0.62359 0.74675 0.67118 0.0
H45 H 0.60516 0.70902 0.76287 0.0
H46 H 0.51423 0.66634 0.66788 0.0
H47 H 0.53224 0.70423 0.57673 0.0
H48 H 0.53303 0.69955 0.43321 0.0
H49 H 0.51496 0.66067 0.3425 0.0
H50 H 0.60333 0.70749 0.24714 0.0
H51 H 0.62178 0.74623 0.3381 0.0
N52 N 0.62 0.77066 0.45064 0.0
N53 N 0.62044 0.77186 0.5576 0.0
N54 N 0.57883 0.73221 0.50471 0.0
C55 C 0.63407 0.78482 0.50382 0.0
C56 C 0.59265 0.74571 0.55832 0.0
C57 C 0.59229 0.74448 0.45071 0.0
C58 C 0.66548 0.81141 0.50297 0.0
C59 C 0.68094 0.82194 0.44731 0.0
C60 C 0.71184 0.84423 0.44639 0.0
C61 C 0.72799 0.85666 0.50103 0.0
C62 C 0.71207 0.84743 0.55663 0.0
C63 C 0.68117 0.82499 0.55761 0.0
C64 C 0.57957 0.72816 0.61637 0.0
C65 C 0.59938 0.72997 0.67015 0.0
C66 C 0.58897 0.70812 0.72256 0.0
C67 C 0.55841 0.68443 0.72236 0.0
C68 C 0.53779 0.68453 0.66961 0.0
C69 C 0.54827 0.70606 0.61719 0.0
C70 C 0.57906 0.72569 0.39323 0.0
C71 C 0.54847 0.70204 0.39277 0.0
C72 C 0.96197 0.18361 0.83334 0.0
C73 C 0.94137 0.1825 0.78059 0.0
C74 C 0.91035 0.20469 0.78013 0.0
C75 C 0.89954 0.22609 0.83223 0.0
H76 H 0.82884 0.31369 0.90052 0.0
H77 H 0.77556 0.35318 0.9026 0.0
H78 H 0.77708 0.34805 0.09936 0.0
H79 H 0.82995 0.30825 0.09766 0.0
H80 H 0.87791 0.24252 0.16453 0.0
H81 H 0.8973 0.20484 0.25608 0.0
H82 H 0.98572 0.16093 0.16027 0.0
H83 H 0.96671 0.19875 0.06901 0.0
H84 H 0.9672 0.20367 0.92587 0.0
H85 H 0.98588 0.16657 0.83534 0.0
H86 H 0.89413 0.20479 0.73983 0.0
H87 H 0.87503 0.24172 0.83103 0.0
N88 N 0.87834 0.26809 0.94432 0.0
N89 N 0.87915 0.26712 0.05136 0.0
N90 N 0.92019 0.22941 -0.00246 0.0
C91 C 0.86487 0.2809 -0.00194 0.0
C92 C 0.90689 0.2415 0.05146 0.0
C93 C 0.90618 0.24248 0.94382 0.0
C94 C 0.83367 0.30739 -0.00111 0.0
C95 C 0.81797 0.32115 0.94429 0.0
C96 C 0.7875 0.34402 0.94543 0.0
C97 C 0.77201 0.35347 0.00113 0.0
C98 C 0.78812 0.34068 0.05568 0.0
C99 C 0.81858 0.31799 0.05461 0.0
C100 C 0.92057 0.22334 0.10916 0.0
C101 C 0.90176 0.2254 0.16318 0.0
C102 C 0.91272 0.20361 0.21554 0.0
C103 C 0.94286 0.17967 0.21513 0.0
C104 C 0.9625 0.17933 0.1621 0.0
C105 C 0.95144 0.20082 0.10965 0.0
C106 C 0.91941 0.22532 0.88599 0.0
C107 C 0.9511 0.20468 0.88543 0.0
C108 C 0.46469 0.33796 0.66497 0.0
C109 C 0.44473 0.33711 0.71762 0.0
C110 C 0.41491 0.31205 0.71807 0.0
C111 C 0.40455 0.2896 0.66605 0.0
H112 H 0.33313 0.20553 0.6012 0.0
H113 H 0.27939 0.16653 0.60252 0.0
H114 H 0.27872 0.16164 0.40581 0.0
H115 H 0.33282 0.20027 0.4041 0.0
H116 H 0.37918 0.27104 0.33438 0.0
H117 H 0.39754 0.30885 0.2427 0.0
H118 H 0.48841 0.35175 0.33768 0.0
H119 H 0.47046 0.31379 0.42882 0.0
H120 H 0.4697 0.31828 0.57243 0.0
H121 H 0.4877 0.35721 0.66315 0.0
H122 H 0.39927 0.31041 0.75835 0.0
H123 H 0.3809 0.27161 0.66738 0.0
N124 N 0.38276 0.24715 0.55487 0.0
N125 N 0.38234 0.24597 0.44792 0.0
N126 N 0.42393 0.28564 0.50085 0.0
C127 C 0.36871 0.23299 0.50168 0.0
C128 C 0.41012 0.27214 0.44723 0.0
C129 C 0.41046 0.27334 0.55484 0.0
C130 C 0.33728 0.20643 0.50248 0.0
C131 C 0.32177 0.19594 0.55811 0.0
C132 C 0.29084 0.17374 0.55895 0.0
C133 C 0.2747 0.16136 0.50428 0.0
C134 C 0.29067 0.17053 0.44872 0.0
C135 C 0.32161 0.19288 0.4478 0.0
C136 C 0.42317 0.28974 0.38919 0.0
C137 C 0.40337 0.28789 0.33541 0.0
C138 C 0.41373 0.30978 0.28301 0.0
C139 C 0.44425 0.33355 0.28321 0.0
C140 C 0.46488 0.3335 0.33595 0.0
C141 C 0.45444 0.31193 0.38837 0.0
C142 C 0.42366 0.29214 0.61234 0.0
C143 C 0.45424 0.31581 0.61285 0.0
C144 C 0.02073 0.95113 0.41553 0.0
N145 N 0.07527 0.04879 0.50371 0.0
C146 C 0.10271 0.02246 0.50348 0.0
C147 C 0.13566 0.03952 0.50364 0.0
C148 C 0.14038 0.08406 0.50443 0.0
C149 C 0.11159 0.11043 0.50467 0.0
C150 C 0.07914 0.09205 0.50417 0.0
Zn151 Zn 0.02736 0.02323 0.50295 0.0
C152 C 0.98225 0.06622 0.41199 0.0
N153 N 0.9272 0.96987 0.50117 0.0
C154 C 0.92339 0.9266 0.50069 0.0
C155 C 0.89972 0.99613 0.50145 0.0
C156 C 0.86679 0.979 0.50133 0.0
C157 C 0.86214 0.93444 0.50053 0.0
C158 C 0.89096 0.90814 0.50023 0.0
Zn159 Zn 0.9751 0.99547 0.50191 0.0
O160 O 0.04187 0.97852 0.43625 0.0
C161 C 0.02023 0.95248 0.59288 0.0
O162 O 0.99035 0.95104 0.43482 0.0
H163 H 0.90333 0.03045 0.50166 0.0
H164 H 0.09905 0.98815 0.50328 0.0
H165 H 0.94557 0.90632 0.50082 0.0
O166 O 0.04156 0.97951 0.57233 0.0
O167 O 0.98998 0.95213 0.57166 0.0
H168 H 0.05698 0.11238 0.50401 0.0
O169 O 0.96059 0.04019 0.56863 0.0
O170 O 0.01212 0.06765 0.57002 0.0
O171 O 0.9609 0.03921 0.43252 0.0
O172 O 0.0125 0.06656 0.43322 0.0
C173 C 0.98175 0.06758 0.58932 0.0
H174 H 0.15719 0.01808 0.50405 0.0
H175 H 0.11412 0.14495 0.50449 0.0
H176 H 0.84522 1.00039 0.50098 0.0
H177 H 0.88849 0.87362 0.50041 0.0
C178 C 0.48195 0.4521 0.91306 0.0
N179 N 0.57534 0.47051 0.00354 0.0
C180 C 0.57834 0.42719 0.00446 0.0
C181 C 0.61039 0.40831 0.00452 0.0
C182 C 0.63974 0.43419 0.00333 0.0
C183 C 0.63594 0.47883 0.00199 0.0
C184 C 0.60332 0.49641 0.00234 0.0
Zn185 Zn 0.52758 0.49608 0.00325 0.0
C186 C 0.52045 0.56768 0.91519 0.0
N187 N 0.42713 0.54756 0.00195 0.0
C188 C 0.39911 0.52173 0.00308 0.0
C189 C 0.42419 0.59089 0.00104 0.0
C190 C 0.39217 0.60985 0.0009 0.0
C191 C 0.36278 0.58404 0.00199 0.0
C192 C 0.36651 0.53939 0.00334 0.0
Zn193 Zn 0.47488 0.52195 0.00225 0.0
O194 O 0.51222 0.45286 0.93413 0.0
C195 C 0.48203 0.45035 0.09031 0.0
O196 O 0.46027 0.47824 0.93343 0.0
H197 H 0.44677 0.61087 0.00058 0.0
H198 H 0.55579 0.40716 0.00498 0.0
H199 H 0.40202 0.48736 0.0037 0.0
O200 O 0.51235 0.45145 0.07083 0.0
O201 O 0.46045 0.47692 0.06944 0.0
H202 H 0.60036 0.53078 0.00171 0.0
O203 O 0.49025 0.56517 0.0714 0.0
O204 O 0.54219 0.53978 0.07205 0.0
O205 O 0.49012 0.56659 0.93467 0.0
O206 O 0.54201 0.54109 0.93607 0.0
C207 C 0.52053 0.56592 0.09245 0.0
H208 H 0.61216 0.37376 0.00472 0.0
H209 H 0.65793 0.49991 0.00159 0.0
H210 H 0.39046 0.6444 0.00071 0.0
H211 H 0.34449 0.51836 0.00368 0.0
C212 C 0.21527 0.15622 0.54365 0.0
C213 C 0.24064 0.14059 0.50522 0.0
H214 H 0.16386 0.15044 0.57379 0.0
C215 C 0.23297 0.10577 0.46705 0.0
H216 H 0.22029 0.18331 0.57309 0.0
C217 C 0.20054 0.08707 0.46721 0.0
C218 C 0.17508 0.10305 0.5052 0.0
H219 H 0.25209 0.09288 0.43725 0.0
H220 H 0.19521 0.06058 0.43683 0.0
C221 C 0.18284 0.13771 0.54356 0.0
C222 C 0.28973 0.6583 0.96338 0.0
C223 C 0.26414 0.64347 0.00257 0.0
H224 H 0.3407 0.65096 0.93213 0.0
C225 C 0.27101 0.60835 0.04093 0.0
H226 H 0.28536 0.68557 0.93374 0.0
C227 C 0.30285 0.5886 0.0402 0.0
C228 C 0.32854 0.60383 0.0015 0.0
H229 H 0.25171 0.59601 0.0713 0.0
H230 H 0.30758 0.56192 0.07076 0.0
C231 C 0.32155 0.63876 0.96292 0.0
C232 C 0.78737 0.86204 0.46148 0.0
C233 C 0.76199 0.87756 0.5 0.0
H234 H 0.83874 0.86802 0.43119 0.0
C235 C 0.76962 0.9124 0.53815 0.0
H236 H 0.78239 0.83493 0.43205 0.0
C237 C 0.80201 0.93124 0.53789 0.0
C238 C 0.82747 0.91536 0.49983 0.0
H239 H 0.7505 0.92522 0.56801 0.0
H240 H 0.8073 0.95774 0.56827 0.0
C241 C 0.81975 0.88068 0.46147 0.0
C242 C 0.73151 0.41018 0.96408 0.0
C243 C 0.7385 0.37511 0.00248 0.0
H244 H 0.6948 0.45644 0.9343 0.0
C245 C 0.71299 0.36021 0.04177 0.0
H246 H 0.75075 0.42256 0.93363 0.0
C247 C 0.68112 0.37962 0.0423 0.0
C248 C 0.67401 0.4145 0.0037 0.0
H249 H 0.71746 0.33298 0.07144 0.0
H250 H 0.66203 0.36737 0.07317 0.0
C251 C 0.69962 0.4298 0.96488 0.0
C252 C 0.01737 0.86389 0.29621 0.0
C253 C 0.05131 0.86307 0.27673 0.0
H254 H 0.98108 0.89217 0.35551 0.0
C255 C 0.07533 0.89024 0.30496 0.0
H256 H 0.99836 0.84304 0.27566 0.0
C257 C 0.06546 0.91845 0.35052 0.0
C258 C 0.03136 0.92 0.36903 0.0
H259 H 0.10158 0.89076 0.29043 0.0
H260 H 0.08451 0.93949 0.37059 0.0
C261 C 0.00751 0.89197 0.34202 0.0
C262 C 0.51527 0.65483 0.79499 0.0
C263 C 0.54911 0.65715 0.77514 0.0
H264 H 0.47969 0.62492 0.855 0.0
C265 C 0.57368 0.631 0.80337 0.0
H266 H 0.49586 0.67486 0.7744 0.0
C267 C 0.56444 0.6023 0.84935 0.0
C268 C 0.53046 0.59927 0.86825 0.0
H269 H 0.59987 0.63168 0.78853 0.0
H270 H 0.58389 0.58207 0.86944 0.0
C271 C 0.50605 0.62627 0.8412 0.0
C272 C 0.9868 0.15093 0.28826 0.0
C273 C 0.95272 0.15283 0.26827 0.0
H274 H 0.02287 0.12229 0.34964 0.0
C275 C 0.92829 0.12701 0.29718 0.0
H276 H 0.00612 0.17072 0.26709 0.0
C277 C 0.93785 0.09916 0.34419 0.0
C278 C 0.97203 0.09671 0.36353 0.0
H279 H 0.90191 0.12738 0.28224 0.0
H280 H 0.91847 0.07923 0.36492 0.0
C281 C 0.99635 0.12328 0.3356 0.0
C282 C 0.48792 0.36746 0.79092 0.0
C283 C 0.45399 0.36444 0.77034 0.0
H284 H 0.52335 0.39732 0.85241 0.0
C285 C 0.42914 0.38952 0.7983 0.0
H286 H 0.50754 0.34825 0.7705 0.0
C287 C 0.43816 0.41776 0.845 0.0
C288 C 0.47219 0.42131 0.86492 0.0
H289 H 0.40285 0.38825 0.78286 0.0
H290 H 0.41849 0.4371 0.86503 0.0
C291 C 0.49692 0.39549 0.8379 0.0
C292 C 0.57341 0.62842 0.20717 0.0
C293 C 0.54859 0.65349 0.23522 0.0
H294 H 0.58401 0.58089 0.14036 0.0
C295 C 0.51464 0.65048 0.21471 0.0
H296 H 0.59971 0.62968 0.22255 0.0
C297 C 0.50561 0.62248 0.16772 0.0
C298 C 0.53031 0.59668 0.1406 0.0
H299 H 0.49504 0.66968 0.23521 0.0
H300 H 0.47917 0.62066 0.15326 0.0
C301 C 0.56436 0.60022 0.16045 0.0
C302 C 0.92722 0.12854 0.69995 0.0
C303 C 0.95127 0.15571 0.72812 0.0
H304 H 0.91799 0.07927 0.63438 0.0
C305 C 0.9852 0.15486 0.70857 0.0
H306 H 0.90098 0.12805 0.71454 0.0
C307 C 0.99502 0.12676 0.66277 0.0
C308 C 0.97115 0.09873 0.63582 0.0
H309 H 0.00423 0.17571 0.72907 0.0
H310 H 0.02144 0.12654 0.64922 0.0
C311 C 0.93706 0.1003 0.65439 0.0
C312 C 0.48733 0.36323 0.21054 0.0
C313 C 0.4535 0.36086 0.23042 0.0
H314 H 0.52286 0.39319 0.15049 0.0
C315 C 0.42889 0.38695 0.20221 0.0
H316 H 0.50677 0.34324 0.23112 0.0
C317 C 0.43808 0.41566 0.15621 0.0
C318 C 0.47206 0.41875 0.13727 0.0
H319 H 0.4027 0.38622 0.21707 0.0
H320 H 0.41861 0.43586 0.13613 0.0
C321 C 0.4965 0.39179 0.16431 0.0
C322 C 0.0158 0.86778 0.71663 0.0
C323 C 0.04989 0.86593 0.73657 0.0
H324 H 0.97968 0.89637 0.65529 0.0
C325 C 0.07428 0.89178 0.70761 0.0
H326 H 0.99651 0.84797 0.73784 0.0
C327 C 0.06468 0.9196 0.6606 0.0
C328 C 0.03049 0.922 0.64131 0.0
H329 H 0.10068 0.89144 0.72251 0.0
H330 H 0.08403 0.93955 0.63984 0.0
C331 C 0.00621 0.89541 0.6693 0.0
loop_
_geom_bond_atom_site_label_1
_geom_bond_atom_site_label_2
_geom_bond_distance
_geom_bond_site_symmetry_2
_ccdc_geom_bond_type
C0 C1 1.384 . S
C0 H13 0.947 . S
C0 C35 1.382 . S
C1 C0 1.384 . S
C1 C2 1.378 . S
C2 C1 1.378 . S
C2 C3 1.378 . S
C2 H14 0.952 . S
C3 C2 1.378 . S
C3 H15 0.950 . S
C3 C34 1.383 . S
H4 C23 0.947 . S
H5 C24 0.946 . S
H6 C26 0.953 . S
H7 C27 0.945 . S
H8 C29 0.952 . S
H9 C30 0.949 . S
H10 C32 0.950 . S
H11 C33 0.948 . S
H12 C35 0.951 . S
H13 C0 0.947 . S
H14 C2 0.952 . S
H15 C3 0.950 . S
N16 C19 1.382 . S
N16 C21 1.363 . S
N17 C19 1.371 1_556 S
N17 C20 1.372 . S
N18 C20 1.361 1_554 S
N18 C21 1.377 . S
C19 N16 1.382 . S
C19 N17 1.371 1_554 S
C19 C22 1.480 . S
C20 N17 1.372 . S
C20 N18 1.361 1_556 S
C20 C28 1.457 . S
C21 N16 1.363 . S
C21 N18 1.377 . S
C21 C34 1.479 . S
C22 C19 1.480 . S
C22 C23 1.383 . S
C22 C27 1.385 1_554 S
C23 H4 0.947 . S
C23 C22 1.383 . S
C23 C24 1.388 . S
C24 H5 0.946 . S
C24 C23 1.388 . S
C24 C25 1.384 . S
C25 C24 1.384 . S
C25 C26 1.377 1_554 S
C26 H6 0.953 . S
C26 C25 1.377 1_556 S
C26 C27 1.369 . S
C27 H7 0.945 . S
C27 C22 1.385 1_556 S
C27 C26 1.369 . S
C28 C20 1.457 . S
C28 C29 1.372 . S
C28 C33 1.364 . S
C29 H8 0.952 . S
C29 C28 1.372 . S
C29 C30 1.389 . S
C30 H9 0.949 . S
C30 C29 1.389 . S
C30 C31 1.387 . S
C31 C30 1.387 . S
C31 C32 1.372 . S
C32 H10 0.950 . S
C32 C31 1.372 . S
C32 C33 1.379 . S
C33 H11 0.948 . S
C33 C28 1.364 . S
C33 C32 1.379 . S
C34 C3 1.383 . S
C34 C21 1.479 . S
C34 C35 1.398 . S
C35 C0 1.382 . S
C35 H12 0.951 . S
C35 C34 1.398 . S
C36 C37 1.384 . S
C36 H49 0.947 . S
C36 C71 1.382 . S
C37 C36 1.384 . S
C37 C38 1.378 . S
C38 C37 1.378 . S
C38 C39 1.378 . S
C38 H50 0.952 . S
C39 C38 1.378 . S
C39 H51 0.950 . S
C39 C70 1.383 . S
H40 C59 0.947 . S
H41 C60 0.946 . S
H42 C62 0.953 . S
H43 C63 0.945 . S
H44 C65 0.952 . S
H45 C66 0.949 . S
H46 C68 0.950 . S
H47 C69 0.948 . S
H48 C71 0.951 . S
H49 C36 0.947 . S
H50 C38 0.952 . S
H51 C39 0.950 . S
N52 C55 1.382 . S
N52 C57 1.363 . S
N53 C55 1.371 . S
N53 C56 1.372 . S
N54 C56 1.361 . S
N54 C57 1.377 . S
C55 N52 1.382 . S
C55 N53 1.371 . S
C55 C58 1.480 . S
C56 N53 1.372 . S
C56 N54 1.361 . S
C56 C64 1.457 . S
C57 N52 1.363 . S
C57 N54 1.377 . S
C57 C70 1.479 . S
C58 C55 1.480 . S
C58 C59 1.383 . S
C58 C63 1.385 . S
C59 H40 0.947 . S
C59 C58 1.383 . S
C59 C60 1.388 . S
C60 H41 0.946 . S
C60 C59 1.388 . S
C60 C61 1.384 . S
C61 C60 1.384 . S
C61 C62 1.377 . S
C62 H42 0.953 . S
C62 C61 1.377 . S
C62 C63 1.369 . S
C63 H43 0.945 . S
C63 C58 1.385 . S
C63 C62 1.369 . S
C64 C56 1.457 . S
C64 C65 1.372 . S
C64 C69 1.364 . S
C65 H44 0.952 . S
C65 C64 1.372 . S
C65 C66 1.389 . S
C66 H45 0.949 . S
C66 C65 1.389 . S
C66 C67 1.387 . S
C67 C66 1.387 . S
C67 C68 1.372 . S
C68 H46 0.950 . S
C68 C67 1.372 . S
C68 C69 1.379 . S
C69 H47 0.948 . S
C69 C64 1.364 . S
C69 C68 1.379 . S
C70 C39 1.383 . S
C70 C57 1.479 . S
C70 C71 1.398 . S
C71 C36 1.382 . S
C71 H48 0.951 . S
C71 C70 1.398 . S
C72 C73 1.384 . S
C72 H85 0.947 . S
C72 C107 1.382 . S
C73 C72 1.384 . S
C73 C74 1.378 . S
C74 C73 1.378 . S
C74 C75 1.378 . S
C74 H86 0.952 . S
C75 C74 1.378 . S
C75 H87 0.950 . S
C75 C106 1.383 . S
H76 C95 0.947 . S
H77 C96 0.946 . S
H78 C98 0.953 . S
H79 C99 0.945 . S
H80 C101 0.952 . S
H81 C102 0.949 . S
H82 C104 0.950 . S
H83 C105 0.948 . S
H84 C107 0.951 . S
H85 C72 0.947 . S
H86 C74 0.952 . S
H87 C75 0.950 . S
N88 C91 1.382 1_556 S
N88 C93 1.363 . S
N89 C91 1.371 . S
N89 C92 1.372 . S
N90 C92 1.361 . S
N90 C93 1.377 1_554 S
C91 N88 1.382 1_554 S
C91 N89 1.371 . S
C91 C94 1.480 . S
C92 N89 1.372 . S
C92 N90 1.361 . S
C92 C100 1.457 . S
C93 N88 1.363 . S
C93 N90 1.377 1_556 S
C93 C106 1.479 . S
C94 C91 1.480 . S
C94 C95 1.383 1_554 S
C94 C99 1.385 . S
C95 H76 0.947 . S
C95 C94 1.383 1_556 S
C95 C96 1.388 . S
C96 H77 0.946 . S
C96 C95 1.388 . S
C96 C97 1.384 1_556 S
C97 C96 1.384 1_554 S
C97 C98 1.377 . S
C98 H78 0.953 . S
C98 C97 1.377 . S
C98 C99 1.369 . S
C99 H79 0.945 . S
C99 C94 1.385 . S
C99 C98 1.369 . S
C100 C92 1.457 . S
C100 C101 1.372 . S
C100 C105 1.364 . S
C101 H80 0.952 . S
C101 C100 1.372 . S
C101 C102 1.389 . S
C102 H81 0.949 . S
C102 C101 1.389 . S
C102 C103 1.387 . S
C103 C102 1.387 . S
C103 C104 1.372 . S
C104 H82 0.950 . S
C104 C103 1.372 . S
C104 C105 1.379 . S
C105 H83 0.948 . S
C105 C100 1.364 . S
C105 C104 1.379 . S
C106 C75 1.383 . S
C106 C93 1.479 . S
C106 C107 1.398 . S
C107 C72 1.382 . S
C107 H84 0.951 . S
C107 C106 1.398 . S
C108 C109 1.384 . S
C108 H121 0.947 . S
C108 C143 1.382 . S
C109 C108 1.384 . S
C109 C110 1.378 . S
C110 C109 1.378 . S
C110 C111 1.378 . S
C110 H122 0.952 . S
C111 C110 1.378 . S
C111 H123 0.950 . S
C111 C142 1.383 . S
H112 C131 0.947 . S
H113 C132 0.946 . S
H114 C134 0.953 . S
H115 C135 0.945 . S
H116 C137 0.952 . S
H117 C138 0.949 . S
H118 C140 0.950 . S
H119 C141 0.948 . S
H120 C143 0.951 . S
H121 C108 0.947 . S
H122 C110 0.952 . S
H123 C111 0.950 . S
N124 C127 1.382 . S
N124 C129 1.363 . S
N125 C127 1.371 . S
N125 C128 1.372 . S
N126 C128 1.361 . S
N126 C129 1.377 . S
C127 N124 1.382 . S
C127 N125 1.371 . S
C127 C130 1.480 . S
C128 N125 1.372 . S
C128 N126 1.361 . S
C128 C136 1.457 . S
C129 N124 1.363 . S
C129 N126 1.377 . S
C129 C142 1.479 . S
C130 C127 1.480 . S
C130 C131 1.383 . S
C130 C135 1.385 . S
C131 H112 0.947 . S
C131 C130 1.383 . S
C131 C132 1.388 . S
C132 H113 0.946 . S
C132 C131 1.388 . S
C132 C133 1.384 . S
C133 C132 1.384 . S
C133 C134 1.377 . S
C134 H114 0.953 . S
C134 C133 1.377 . S
C134 C135 1.369 . S
C135 H115 0.945 . S
C135 C130 1.385 . S
C135 C134 1.369 . S
C136 C128 1.457 . S
C136 C137 1.372 . S
C136 C141 1.364 . S
C137 H116 0.952 . S
C137 C136 1.372 . S
C137 C138 1.389 . S
C138 H117 0.949 . S
C138 C137 1.389 . S
C138 C139 1.387 . S
C139 C138 1.387 . S
C139 C140 1.372 . S
C140 H118 0.950 . S
C140 C139 1.372 . S
C140 C141 1.379 . S
C141 H119 0.948 . S
C141 C136 1.364 . S
C141 C140 1.379 . S
C142 C111 1.383 . S
C142 C129 1.479 . S
C142 C143 1.398 . S
C143 C108 1.382 . S
C143 H120 0.951 . S
C143 C142 1.398 . S
C144 O160 1.251 . S
C144 O162 1.254 1_455 S
N145 C146 1.333 . S
N145 C150 1.307 . S
N145 Zn151 2.020 . S
C146 N145 1.333 . S
C146 C147 1.379 . S
C146 H164 0.952 . S
C147 C146 1.379 . S
C147 C148 1.390 . S
C147 H174 0.949 . S
C148 C147 1.390 . S
C148 C149 1.357 . S
C149 C148 1.357 . S
C149 C150 1.370 . S
C149 H175 0.950 . S
C150 N145 1.307 . S
C150 C149 1.370 . S
C150 H168 0.948 . S
Zn151 N145 2.020 . S
Zn151 O160 2.039 1_545 S
Zn151 O166 2.034 1_545 S
Zn151 O170 2.025 . S
Zn151 O172 2.024 . S
C152 O171 1.246 . S
C152 O172 1.249 1_655 S
N153 C154 1.307 . S
N153 C155 1.333 . S
N153 Zn159 2.020 . S
C154 N153 1.307 . S
C154 C158 1.370 . S
C154 H165 0.948 . S
C155 N153 1.333 . S
C155 C156 1.379 . S
C155 H163 0.952 1_565 S
C156 C155 1.379 . S
C156 C157 1.390 . S
C156 H176 0.949 . S
C157 C156 1.390 . S
C157 C158 1.357 . S
C158 C154 1.370 . S
C158 C157 1.357 . S
C158 H177 0.950 . S
Zn159 N153 2.020 . S
Zn159 O162 2.025 . S
Zn159 O167 2.024 . S
Zn159 O169 2.039 1_565 S
Zn159 O171 2.034 1_565 S
O160 C144 1.251 . S
O160 Zn151 2.039 1_565 S
C161 O166 1.246 . S
C161 O167 1.249 1_455 S
O162 C144 1.254 1_655 S
O162 Zn159 2.025 . S
H163 C155 0.952 1_545 S
H164 C146 0.952 . S
H165 C154 0.948 . S
O166 Zn151 2.034 1_565 S
O166 C161 1.246 . S
O167 Zn159 2.024 . S
O167 C161 1.249 1_655 S
H168 C150 0.948 . S
O169 Zn159 2.039 1_545 S
O169 C173 1.251 . S
O170 Zn151 2.025 . S
O170 C173 1.254 1_455 S
O171 C152 1.246 . S
O171 Zn159 2.034 1_545 S
O172 Zn151 2.024 . S
O172 C152 1.249 1_455 S
C173 O169 1.251 . S
C173 O170 1.254 1_655 S
H174 C147 0.949 . S
H175 C149 0.950 . S
H176 C156 0.949 . S
H177 C158 0.950 . S
C178 O194 1.251 . S
C178 O196 1.254 . S
N179 C180 1.333 1_554 S
N179 C184 1.307 . S
N179 Zn185 2.020 . S
C180 N179 1.333 1_556 S
C180 C181 1.379 . S
C180 H198 0.952 . S
C181 C180 1.379 . S
C181 C182 1.390 1_556 S
C181 H208 0.949 . S
C182 C181 1.390 1_554 S
C182 C183 1.357 . S
C183 C182 1.357 . S
C183 C184 1.370 . S
C183 H209 0.950 . S
C184 N179 1.307 . S
C184 C183 1.370 . S
C184 H202 0.948 . S
Zn185 N179 2.020 . S
Zn185 O194 2.039 1_554 S
Zn185 O200 2.034 . S
Zn185 O204 2.025 . S
Zn185 O206 2.024 1_554 S
C186 O205 1.246 . S
C186 O206 1.249 . S
N187 C188 1.307 1_554 S
N187 C189 1.333 . S
N187 Zn193 2.020 . S
C188 N187 1.307 1_556 S
C188 C192 1.370 . S
C188 H199 0.948 . S
C189 N187 1.333 . S
C189 C190 1.379 . S
C189 H197 0.952 . S
C190 C189 1.379 . S
C190 C191 1.390 . S
C190 H210 0.949 . S
C191 C190 1.390 . S
C191 C192 1.357 1_554 S
C192 C188 1.370 . S
C192 C191 1.357 1_556 S
C192 H211 0.950 . S
Zn193 N187 2.020 . S
Zn193 O196 2.025 1_554 S
Zn193 O201 2.024 . S
Zn193 O203 2.039 . S
Zn193 O205 2.034 1_554 S
O194 C178 1.251 . S
O194 Zn185 2.039 1_556 S
C195 O200 1.246 . S
C195 O201 1.249 . S
O196 C178 1.254 . S
O196 Zn193 2.025 1_556 S
H197 C189 0.952 . S
H198 C180 0.952 . S
H199 C188 0.948 . S
O200 Zn185 2.034 . S
O200 C195 1.246 . S
O201 Zn193 2.024 . S
O201 C195 1.249 . S
H202 C184 0.948 . S
O203 Zn193 2.039 . S
O203 C207 1.251 . S
O204 Zn185 2.025 . S
O204 C207 1.254 . S
O205 C186 1.246 . S
O205 Zn193 2.034 1_556 S
O206 Zn185 2.024 1_556 S
O206 C186 1.249 . S
C207 O203 1.251 . S
C207 O204 1.254 . S
H208 C181 0.949 . S
H209 C183 0.950 . S
H210 C190 0.949 . S
H211 C192 0.950 . S
C212 C213 1.387 . S
C212 H216 0.950 . S
C212 C221 1.390 . S
C213 C212 1.387 . S
C213 C215 1.387 . S
H214 C221 0.950 . S
C215 C213 1.387 . S
C215 C217 1.390 . S
C215 H219 0.950 . S
H216 C212 0.950 . S
C217 C215 1.390 . S
C217 C218 1.387 . S
C217 H220 0.950 . S
C218 C217 1.387 . S
C218 C221 1.387 . S
H219 C215 0.950 . S
H220 C217 0.950 . S
C221 C212 1.390 . S
C221 H214 0.950 . S
C221 C218 1.387 . S
C222 C223 1.387 1_556 S
C222 H226 0.950 . S
C222 C231 1.390 . S
C223 C222 1.387 1_554 S
C223 C225 1.387 . S
H224 C231 0.950 . S
C225 C223 1.387 . S
C225 C227 1.390 . S
C225 H229 0.950 . S
H226 C222 0.950 . S
C227 C225 1.390 . S
C227 C228 1.387 . S
C227 H230 0.950 . S
C228 C227 1.387 . S
C228 C231 1.387 1_554 S
H229 C225 0.950 . S
H230 C227 0.950 . S
C231 C222 1.390 . S
C231 H224 0.950 . S
C231 C228 1.387 1_556 S
C232 C233 1.387 . S
C232 H236 0.950 . S
C232 C241 1.390 . S
C233 C232 1.387 . S
C233 C235 1.387 . S
H234 C241 0.950 . S
C235 C233 1.387 . S
C235 C237 1.390 . S
C235 H239 0.950 . S
H236 C232 0.950 . S
C237 C235 1.390 . S
C237 C238 1.387 . S
C237 H240 0.950 . S
C238 C237 1.387 . S
C238 C241 1.387 . S
H239 C235 0.950 . S
H240 C237 0.950 . S
C241 C232 1.390 . S
C241 H234 0.950 . S
C241 C238 1.387 . S
C242 C243 1.387 1_556 S
C242 H246 0.950 . S
C242 C251 1.390 . S
C243 C242 1.387 1_554 S
C243 C245 1.387 . S
H244 C251 0.950 . S
C245 C243 1.387 . S
C245 C247 1.390 . S
C245 H249 0.950 . S
H246 C242 0.950 . S
C247 C245 1.390 . S
C247 C248 1.387 . S
C247 H250 0.950 . S
C248 C247 1.387 . S
C248 C251 1.387 1_554 S
H249 C245 0.950 . S
H250 C247 0.950 . S
C251 C242 1.390 . S
C251 H244 0.950 . S
C251 C248 1.387 1_556 S
C252 C253 1.387 . S
C252 H256 0.950 1_455 S
C252 C261 1.390 . S
C253 C252 1.387 . S
C253 C255 1.387 . S
H254 C261 0.950 1_655 S
C255 C253 1.387 . S
C255 C257 1.390 . S
C255 H259 0.950 . S
H256 C252 0.950 1_655 S
C257 C255 1.390 . S
C257 C258 1.387 . S
C257 H260 0.950 . S
C258 C257 1.387 . S
C258 C261 1.387 . S
H259 C255 0.950 . S
H260 C257 0.950 . S
C261 C252 1.390 . S
C261 H254 0.950 1_455 S
C261 C258 1.387 . S
C262 C263 1.387 . S
C262 H266 0.950 . S
C262 C271 1.390 . S
C263 C262 1.387 . S
C263 C265 1.387 . S
H264 C271 0.950 . S
C265 C263 1.387 . S
C265 C267 1.390 . S
C265 H269 0.950 . S
H266 C262 0.950 . S
C267 C265 1.390 . S
C267 C268 1.387 . S
C267 H270 0.950 . S
C268 C267 1.387 . S
C268 C271 1.387 . S
H269 C265 0.950 . S
H270 C267 0.950 . S
C271 C262 1.390 . S
C271 H264 0.950 . S
C271 C268 1.387 . S
C272 C273 1.387 . S
C272 H276 0.950 1_655 S
C272 C281 1.390 . S
C273 C272 1.387 . S
C273 C275 1.387 . S
H274 C281 0.950 1_455 S
C275 C273 1.387 . S
C275 C277 1.390 . S
C275 H279 0.950 . S
H276 C272 0.950 1_455 S
C277 C275 1.390 . S
C277 C278 1.387 . S
C277 H280 0.950 . S
C278 C277 1.387 . S
C278 C281 1.387 . S
H279 C275 0.950 . S
H280 C277 0.950 . S
C281 C272 1.390 . S
C281 H274 0.950 1_655 S
C281 C278 1.387 . S
C282 C283 1.387 . S
C282 H286 0.950 . S
C282 C291 1.390 . S
C283 C282 1.387 . S
C283 C285 1.387 . S
H284 C291 0.950 . S
C285 C283 1.387 . S
C285 C287 1.390 . S
C285 H289 0.950 . S
H286 C282 0.950 . S
C287 C285 1.390 . S
C287 C288 1.387 . S
C287 H290 0.950 . S
C288 C287 1.387 . S
C288 C291 1.387 . S
H289 C285 0.950 . S
H290 C287 0.950 . S
C291 C282 1.390 . S
C291 H284 0.950 . S
C291 C288 1.387 . S
C292 C293 1.387 . S
C292 H296 0.950 . S
C292 C301 1.390 . S
C293 C292 1.387 . S
C293 C295 1.387 . S
H294 C301 0.950 . S
C295 C293 1.387 . S
C295 C297 1.390 . S
C295 H299 0.950 . S
H296 C292 0.950 . S
C297 C295 1.390 . S
C297 C298 1.387 . S
C297 H300 0.950 . S
C298 C297 1.387 . S
C298 C301 1.387 . S
H299 C295 0.950 . S
H300 C297 0.950 . S
C301 C292 1.390 . S
C301 H294 0.950 . S
C301 C298 1.387 . S
C302 C303 1.387 . S
C302 H306 0.950 . S
C302 C311 1.390 . S
C303 C302 1.387 . S
C303 C305 1.387 . S
H304 C311 0.950 . S
C305 C303 1.387 . S
C305 C307 1.390 . S
C305 H309 0.950 1_655 S
H306 C302 0.950 . S
C307 C305 1.390 . S
C307 C308 1.387 . S
C307 H310 0.950 1_655 S
C308 C307 1.387 . S
C308 C311 1.387 . S
H309 C305 0.950 1_455 S
H310 C307 0.950 1_455 S
C311 C302 1.390 . S
C311 H304 0.950 . S
C311 C308 1.387 . S
C312 C313 1.387 . S
C312 H316 0.950 . S
C312 C321 1.390 . S
C313 C312 1.387 . S
C313 C315 1.387 . S
H314 C321 0.950 . S
C315 C313 1.387 . S
C315 C317 1.390 . S
C315 H319 0.950 . S
H316 C312 0.950 . S
C317 C315 1.390 . S
C317 C318 1.387 . S
C317 H320 0.950 . S
C318 C317 1.387 . S
C318 C321 1.387 . S
H319 C315 0.950 . S
H320 C317 0.950 . S
C321 C312 1.390 . S
C321 H314 0.950 . S
C321 C318 1.387 . S
C322 C323 1.387 . S
C322 H326 0.950 1_455 S
C322 C331 1.390 . S
C323 C322 1.387 . S
C323 C325 1.387 . S
H324 C331 0.950 1_655 S
C325 C323 1.387 . S
C325 C327 1.390 . S
C325 H329 0.950 . S
H326 C322 0.950 1_655 S
C327 C325 1.390 . S
C327 C328 1.387 . S
C327 H330 0.950 . S
C328 C327 1.387 . S
C328 C331 1.387 . S
H329 C325 0.950 . S
H330 C327 0.950 . S
C331 C322 1.390 . S
C331 H324 0.950 1_455 S
C331 C328 1.387 . S
C218 C148 1.678 . S
C213 C133 1.661 . S
C223 C25 1.547 . S
C228 C191 1.593 . S
C233 C61 1.598 . S
C238 C157 1.677 . S
C243 C97 1.597 . S
C248 C182 1.594 . S
C258 C144 1.683 . S
C253 C1 1.615 . S
C268 C186 1.786 . S
C263 C67 1.676 . S
C273 C103 1.649 . S
C278 C152 1.664 . S
C283 C109 1.743 . S
C288 C178 1.781 . S
C298 C207 1.780 . S
C293 C37 1.686 . S
C308 C173 1.683 . S
C303 C73 1.661 . S
C318 C195 1.785 . S
C313 C139 1.747 . S
C323 C31 1.593 . S
C328 C161 1.666 . S
