# Generated by pormake.
# Topology anh, (6,3)-cn, num edge types: 1
# Building blocks:
#     Node 0, Type 0, BuildingBlock: PAMTOO_clean_sbu_0, # of connection points: 6
#     Node 1, Type 0, BuildingBlock: PAMTOO_clean_sbu_0, # of connection points: 6
#     Node 2, Type 0, BuildingBlock: PAMTOO_clean_sbu_0, # of connection points: 6
#     Node 3, Type 1, BuildingBlock: CUQRIR_clean_linker_1, # of connection points: 3
#     Node 4, Type 1, BuildingBlock: CUQRIR_clean_linker_1, # of connection points: 3
#     Node 5, Type 1, BuildingBlock: CUQRIR_clean_linker_1, # of connection points: 3
#     Node 6, Type 1, BuildingBlock: CUQRIR_clean_linker_1, # of connection points: 3
#     Node 7, Type 1, BuildingBlock: CUQRIR_clean_linker_1, # of connection points: 3
#     Node 8, Type 1, BuildingBlock: CUQRIR_clean_linker_1, # of connection points: 3
#     Edge 9, Type (0, 1), BuildingBlock: ZUJKAS_clean_linker_0, # of connection points: 2
#     Edge 10, Type (0, 1), BuildingBlock: ZUJKAS_clean_linker_0, # of connection points: 2
#     Edge 11, Type (0, 1), BuildingBlock: ZUJKAS_clean_linker_0, # of connection points: 2
#     Edge 12, Type (0, 1), BuildingBlock: ZUJKAS_clean_linker_0, # of connection points: 2
#     Edge 13, Type (0, 1), BuildingBlock: ZUJKAS_clean_linker_0, # of connection points: 2
#     Edge 14, Type (0, 1), BuildingBlock: ZUJKAS_clean_linker_0, # of connection points: 2
#     Edge 15, Type (0, 1), BuildingBlock: ZUJKAS_clean_linker_0, # of connection points: 2
#     Edge 16, Type (0, 1), BuildingBlock: ZUJKAS_clean_linker_0, # of connection points: 2
#     Edge 17, Type (0, 1), BuildingBlock: ZUJKAS_clean_linker_0, # of connection points: 2
#     Edge 18, Type (0, 1), BuildingBlock: ZUJKAS_clean_linker_0, # of connection points: 2
#     Edge 19, Type (0, 1), BuildingBlock: ZUJKAS_clean_linker_0, # of connection points: 2
#     Edge 20, Type (0, 1), BuildingBlock: ZUJKAS_clean_linker_0, # of connection points: 2
#     Edge 21, Type (0, 1), BuildingBlock: ZUJKAS_clean_linker_0, # of connection points: 2
#     Edge 22, Type (0, 1), BuildingBlock: ZUJKAS_clean_linker_0, # of connection points: 2
#     Edge 23, Type (0, 1), BuildingBlock: ZUJKAS_clean_linker_0, # of connection points: 2
#     Edge 24, Type (0, 1), BuildingBlock: ZUJKAS_clean_linker_0, # of connection points: 2
#     Edge 25, Type (0, 1), BuildingBlock: ZUJKAS_clean_linker_0, # of connection points: 2
#     Edge 26, Type (0, 1), BuildingBlock: ZUJKAS_clean_linker_0, # of connection points: 2
# Relax obj value: 0.170
# Max RMSD: 0.219
# Mean RMSD: 0.159
data_MOF--net-anh--node1-PAMTOO_clean_sbu_0--node2-CUQRIR_clean_linker_1--edge1-ZUJKAS_clean_linker_0
_symmetry_space_group_name_H-M    P1
_symmetry_Int_Tables_number       1
_symmetry_cell_setting            triclinic
loop_
_symmetry_equiv_pos_as_xyz
'x, y, z'
_cell_length_a     36.919551
_cell_length_b     36.058317
_cell_length_c     61.762473
_cell_angle_alpha  85.293745
_cell_angle_beta   94.949443
_cell_angle_gamma 105.13933
loop_
_atom_site_label
_atom_site_type_symbol
_atom_site_fract_x
_atom_site_fract_y
_atom_site_fract_z
_atom_type_partial_charge
Dy0 Dy 1.05868 0.55564 0.14345 0.0
Dy1 Dy 1.03373 0.46169 0.14365 0.0
C2 C 1.04426 0.51258 0.09989 0.0
O3 O 0.99704 0.53992 0.14972 0.0
O4 O 0.97958 0.47994 0.13616 0.0
O5 O 0.08172 0.61027 0.12641 0.0
O6 O 1.063 0.60846 0.15885 0.0
O7 O 1.02585 0.47793 0.17665 0.0
O8 O 0.07337 0.53277 0.17676 0.0
O9 O 0.09714 0.47544 0.14899 0.0
O10 O 0.11311 0.54046 0.13949 0.0
O11 O 1.0352 0.40624 0.15913 0.0
O12 O 1.00305 0.40988 0.12829 0.0
C13 C 0.97077 0.51013 0.14279 0.0
O14 O 1.03539 0.53926 0.10997 0.0
O15 O 1.05368 0.48357 0.11093 0.0
C16 C 0.11615 0.65749 0.14938 0.0
C17 C 0.1849 0.71065 0.16021 0.0
C18 C 0.15369 0.72344 0.15106 0.0
C19 C 0.11961 0.69704 0.14568 0.0
C20 C 0.14706 0.64447 0.15855 0.0
C21 C 0.18116 0.67083 0.16393 0.0
C22 C 0.08069 0.62993 0.14304 0.0
C23 C 1.05067 0.50424 0.18729 0.0
C24 C 0.12262 0.50784 0.14448 0.0
C25 C 0.97839 0.35854 0.15328 0.0
C26 C 0.91499 0.30342 0.16857 0.0
C27 C 0.93037 0.33751 0.17936 0.0
C28 C 0.96165 0.3649 0.17172 0.0
C29 C 0.96335 0.32462 0.14252 0.0
C30 C 0.93191 0.29733 0.15005 0.0
C31 C 1.01076 0.38747 0.14473 0.0
H32 H 0.15578 0.75386 0.14773 0.0
H33 H 0.09605 0.7075 0.13846 0.0
H34 H 0.14481 0.61393 0.16147 0.0
H35 H 0.20446 0.66003 0.1712 0.0
H36 H 0.91842 0.34297 0.19381 0.0
H37 H 0.9727 0.39107 0.1802 0.0
H38 H 0.97571 0.31942 0.12814 0.0
H39 H 0.92047 0.27178 0.1411 0.0
Dy40 Dy 0.5917 0.00916 0.51809 0.0
Dy41 Dy 0.68427 0.03634 0.52411 0.0
C42 C 0.63397 0.00976 0.56505 0.0
O43 O 0.60657 0.07031 0.52709 0.0
O44 O 0.66538 0.08966 0.51419 0.0
O45 O 0.53685 0.99975 0.53076 0.0
O46 O 0.54176 0.98926 0.49722 0.0
O47 O 0.66927 0.02705 0.48883 0.0
O48 O 0.61148 0.03954 0.48668 0.0
O49 O 0.66869 0.97286 0.53224 0.0
O50 O 0.6122 0.95807 0.5121 0.0
O51 O 0.73887 0.03206 0.51621 0.0
O52 O 0.73454 0.07239 0.53935 0.0
C53 C 0.6354 0.09766 0.52059 0.0
O54 O 0.60654 0.99033 0.55227 0.0
O55 O 0.66326 0.03455 0.55711 0.0
C56 C 0.49006 0.94972 0.51472 0.0
C57 C 0.43195 0.88116 0.51389 0.0
C58 C 0.42423 0.91641 0.51726 0.0
C59 C 0.45304 0.95038 0.5176 0.0
C60 C 0.49831 0.91445 0.51242 0.0
C61 C 0.46948 0.88046 0.51195 0.0
C62 C 0.51917 0.98619 0.51275 0.0
C63 C 0.64096 0.03621 0.47735 0.0
C64 C 0.64084 0.9477 0.52261 0.0
C65 C 0.78398 0.09194 0.51626 0.0
C66 C 0.83474 0.15523 0.49621 0.0
C67 C 0.79849 0.14046 0.4864 0.0
C68 C 0.7733 0.10918 0.49638 0.0
C69 C 0.82017 0.10607 0.52594 0.0
C70 C 0.84536 0.13743 0.51603 0.0
C71 C 0.7568 0.06097 0.52763 0.0
H72 H 0.39578 0.91787 0.51922 0.0
H73 H 0.44624 0.97734 0.51954 0.0
H74 H 0.52683 0.91338 0.51027 0.0
H75 H 0.47644 0.85395 0.50914 0.0
H76 H 0.78953 0.15314 0.47103 0.0
H77 H 0.74529 0.09877 0.48874 0.0
H78 H 0.82869 0.09333 0.54141 0.0
H79 H 0.87277 0.14841 0.52423 0.0
Dy80 Dy 0.6516 0.58271 0.8362 0.0
Dy81 Dy 0.55998 0.55851 0.83522 0.0
C82 C 0.60286 0.5678 0.79175 0.0
O83 O 0.63205 0.63608 0.82762 0.0
O84 O 0.5781 0.61887 0.84535 0.0
O85 O 0.70049 0.62041 0.82222 0.0
O86 O 0.70703 0.57718 0.84774 0.0
O87 O 0.58142 0.54758 0.86944 0.0
O88 O 0.63944 0.59048 0.87005 0.0
O89 O 0.57425 0.50496 0.82739 0.0
O90 O 0.63493 0.51858 0.84258 0.0
O91 O 0.50809 0.52264 0.84703 0.0
O92 O 0.5071 0.56884 0.82243 0.0
C93 C 0.60486 0.64543 0.8364 0.0
O94 O 0.63146 0.56048 0.80372 0.0
O95 O 0.57471 0.57514 0.80069 0.0
C96 C 0.74459 0.58627 0.81756 0.0
C97 C 0.78134 0.55912 0.78641 0.0
C98 C 0.78875 0.5988 0.78929 0.0
C99 C 0.77065 0.6122 0.80478 0.0
C100 C 0.73642 0.54672 0.8144 0.0
C101 C 0.75481 0.53327 0.79911 0.0
C102 C 0.72293 0.60103 0.83216 0.0
C103 C 0.61126 0.56792 0.8802 0.0
C104 C 0.60437 0.49394 0.83503 0.0
C105 C 0.46432 0.55867 0.84937 0.0
C106 C 0.41869 0.59036 0.87259 0.0
C107 C 0.45792 0.60495 0.87429 0.0
C108 C 0.4806 0.58906 0.86284 0.0
C109 C 0.42535 0.54357 0.84792 0.0
C110 C 0.40267 0.55925 0.85947 0.0
C111 C 0.48792 0.54371 0.83631 0.0
H112 H 0.80862 0.61956 0.77959 0.0
H113 H 0.77658 0.64289 0.80658 0.0
H114 H 0.7157 0.52613 0.82368 0.0
H115 H 0.74885 0.50251 0.79764 0.0
H116 H 0.47097 0.62876 0.88433 0.0
H117 H 0.5108 0.60087 0.8642 0.0
H118 H 0.41244 0.52019 0.83755 0.0
H119 H 0.37245 0.54784 0.85754 0.0
C120 C 0.55669 0.0033 0.21751 0.0
N121 N 0.58174 0.02405 0.23213 0.0
N122 N 0.52583 0.98238 0.22738 0.0
C123 C 0.56114 0.00538 0.19344 0.0
C124 C 0.53301 0.99107 0.24849 0.0
N125 N 0.56682 0.01672 0.25133 0.0
C126 C 0.50839 0.97203 0.26657 0.0
H127 H 0.53336 0.99826 0.18417 0.0
H128 H 0.57671 0.98425 0.19004 0.0
H129 H 0.57743 0.03447 0.18778 0.0
H130 H 0.49106 0.94314 0.26232 0.0
H131 H 0.48927 0.9901 0.26931 0.0
H132 H 0.52556 0.96902 0.28195 0.0
C133 C 0.63026 0.52018 0.53353 0.0
N134 N 0.63123 0.54604 0.54847 0.0
N135 N 0.62873 0.48494 0.54348 0.0
C136 C 0.63044 0.5291 0.50935 0.0
C137 C 0.62919 0.4903 0.56492 0.0
N138 N 0.63092 0.52741 0.56795 0.0
C139 C 0.62577 0.45871 0.58274 0.0
H140 H 0.60112 0.52657 0.50259 0.0
H141 H 0.64188 0.50858 0.50135 0.0
H142 H 0.64721 0.55895 0.50558 0.0
H143 H 0.63663 0.43486 0.57793 0.0
H144 H 0.59563 0.44713 0.58588 0.0
H145 H 0.64114 0.46958 0.59809 0.0
C146 C 0.08039 0.54927 0.83709 0.0
N147 N 0.0853 0.55552 0.85856 0.0
N148 N 1.0497 0.51996 0.83309 0.0
C149 C 0.10666 0.57025 0.82021 0.0
C150 C 1.03598 0.50875 0.85292 0.0
N151 N 1.05795 0.53011 0.86843 0.0
C152 C 0.99938 0.47952 0.85677 0.0
H153 H 0.10359 0.55327 0.80566 0.0
H154 H 0.13626 0.57642 0.82705 0.0
H155 H 0.10003 0.59811 0.81512 0.0
H156 H 1.00447 0.4504 0.85859 0.0
H157 H 0.97859 0.48022 0.84276 0.0
H158 H 0.9874 0.48465 0.87178 0.0
C159 C 0.12263 0.52499 0.45134 0.0
N160 N 0.10096 0.50499 0.43517 0.0
N161 N 0.14379 0.559 0.4432 0.0
C162 C 0.12127 0.51264 0.47517 0.0
C163 C 0.13429 0.55898 0.42154 0.0
N164 N 0.10792 0.52636 0.41668 0.0
C165 C 0.15325 0.58922 0.40497 0.0
H166 H 0.12961 0.53792 0.48531 0.0
H167 H 0.14117 0.49444 0.47946 0.0
H168 H 0.09265 0.49545 0.47894 0.0
H169 H 0.15467 0.57636 0.38944 0.0
H170 H 0.18217 0.60398 0.41104 0.0
H171 H 0.13676 0.611 0.40165 0.0
C172 C 0.60363 0.07068 0.81948 0.0
N173 N 0.60633 0.04422 0.8057 0.0
N174 N 0.60942 0.10607 0.80901 0.0
C175 C 0.59754 0.06253 0.84331 0.0
C176 C 0.61547 0.1002 0.78842 0.0
N177 N 0.61388 0.06273 0.78645 0.0
C178 C 0.62013 0.13056 0.7699 0.0
H179 H 0.56688 0.05283 0.84538 0.0
H180 H 0.60934 0.08879 0.85241 0.0
H181 H 0.61059 0.03932 0.85022 0.0
H182 H 0.65057 0.14391 0.76841 0.0
H183 H 0.6064 0.15346 0.77286 0.0
H184 H 0.60803 0.11783 0.75429 0.0
C185 C 0.54844 0.51672 0.14026 0.0
N186 N 0.57647 0.5224 0.12623 0.0
N187 N 0.51583 0.52168 0.12962 0.0
C188 C 0.5533 0.50893 0.16442 0.0
C189 C 0.52496 0.53027 0.10875 0.0
N190 N 0.56131 0.53096 0.10672 0.0
C191 C 0.49771 0.53642 0.09003 0.0
H192 H 0.5484 0.47744 0.16808 0.0
H193 H 0.53265 0.51902 0.17289 0.0
H194 H 0.58227 0.52319 0.17066 0.0
H195 H 0.49928 0.56761 0.08758 0.0
H196 H 0.46843 0.52081 0.0934 0.0
H197 H 0.50485 0.52666 0.07473 0.0
H198 H 0.18385 0.56898 0.13661 0.0
H199 H 0.25017 0.56896 0.13696 0.0
H200 H 0.22159 0.44716 0.15442 0.0
H201 H 0.15505 0.44679 0.1537 0.0
H202 H 0.29961 0.55188 0.16869 0.0
H203 H 0.28428 0.45037 0.10384 0.0
H204 H 0.24688 0.4713 0.10924 0.0
H205 H 0.25554 0.43101 0.12614 0.0
C206 C 0.19146 0.54203 0.14041 0.0
C207 C 0.16355 0.5078 0.14494 0.0
C208 C 0.22969 0.5421 0.14066 0.0
C209 C 0.24139 0.50795 0.14532 0.0
C210 C 0.21365 0.47384 0.15019 0.0
H211 H 0.46519 0.45931 0.14642 0.0
H212 H 0.39896 0.45499 0.15254 0.0
C213 C 0.17538 0.47372 0.14993 0.0
C214 C 0.28249 0.50837 0.14537 0.0
H215 H 0.34426 0.4688 0.12261 0.0
C216 C 0.30924 0.53369 0.15856 0.0
C217 C 0.29565 0.48465 0.13229 0.0
C218 C 0.26919 0.45805 0.11692 0.0
C219 C 0.34813 0.53574 0.15916 0.0
C220 C 0.36133 0.51235 0.14589 0.0
C221 C 0.33455 0.48668 0.13291 0.0
C222 C 0.40268 0.51539 0.14438 0.0
C223 C 0.37465 0.56262 0.17436 0.0
C224 C 0.42748 0.55069 0.13805 0.0
C225 C 0.46527 0.55309 0.13477 0.0
C226 C 0.47957 0.52032 0.13766 0.0
C227 C 0.45525 0.48518 0.14458 0.0
C228 C 0.41724 0.48269 0.14781 0.0
H229 H 0.35992 0.56859 0.18811 0.0
H230 H 0.39836 0.55059 0.18109 0.0
H231 H 0.38637 0.59045 0.16528 0.0
H232 H 0.41726 0.57625 0.13471 0.0
H233 H 0.4831 0.58034 0.12896 0.0
H234 H 0.81783 0.22005 0.47639 0.0
H235 H 0.8612 0.27801 0.46148 0.0
H236 H 0.95435 0.22797 0.4798 0.0
H237 H 0.91104 0.16923 0.49385 0.0
H238 H 0.91794 0.32642 0.48368 0.0
H239 H 0.97552 0.26806 0.41791 0.0
H240 H 0.93391 0.24145 0.43107 0.0
H241 H 0.97989 0.24264 0.44381 0.0
C242 C 0.84743 0.22096 0.47679 0.0
C243 C 0.86091 0.18985 0.48627 0.0
C244 C 0.87222 0.25426 0.4684 0.0
C245 C 0.91095 0.25714 0.46923 0.0
C246 C 0.92449 0.2261 0.47853 0.0
H247 H 0.11278 0.43841 0.45336 0.0
H248 H 0.0649 0.37763 0.45996 0.0
C249 C 0.89972 0.19272 0.48685 0.0
C250 C 0.93744 0.29354 0.46173 0.0
H251 H 1.00932 0.33087 0.42853 0.0
C252 C 0.9376 0.32748 0.47142 0.0
C253 C 0.96308 0.29487 0.44573 0.0
C254 C 0.96291 0.25988 0.43387 0.0
C255 C 0.96349 0.36244 0.46607 0.0
C256 C 0.98966 0.36352 0.45048 0.0
C257 C 0.98921 0.32981 0.44052 0.0
C258 C 1.01864 0.39922 0.445 0.0
C259 C 0.96348 0.39774 0.47761 0.0
C260 C 1.00846 0.43104 0.43402 0.0
C261 C 1.03573 0.46557 0.43029 0.0
C262 C 0.07341 0.46869 0.43753 0.0
C263 C 0.08373 0.43652 0.44789 0.0
C264 C 1.05654 0.40195 0.45154 0.0
H265 H 0.94591 0.3906 0.49185 0.0
H266 H 0.99258 0.41289 0.48325 0.0
H267 H 0.95214 0.41791 0.46611 0.0
H268 H 0.97937 0.42932 0.42868 0.0
H269 H 1.02734 0.49019 0.42231 0.0
H270 H 0.65691 0.70817 0.82047 0.0
H271 H 0.65386 0.77524 0.81724 0.0
H272 H 0.54675 0.74268 0.84591 0.0
H273 H 0.54976 0.67541 0.84953 0.0
H274 H 0.59946 0.80526 0.79375 0.0
H275 H 0.60545 0.83269 0.88141 0.0
H276 H 0.61756 0.7915 0.8722 0.0
H277 H 0.56909 0.79181 0.87285 0.0
C278 C 0.63281 0.71522 0.82628 0.0
C279 C 0.60363 0.68635 0.83532 0.0
C280 C 0.63111 0.75362 0.82438 0.0
C281 C 0.60031 0.76408 0.83155 0.0
C282 C 0.57115 0.73541 0.84067 0.0
H283 H 0.55008 0.99005 0.82389 0.0
H284 H 0.54646 0.9209 0.83059 0.0
C285 C 0.57285 0.69692 0.84262 0.0
C286 C 0.59827 0.8048 0.82857 0.0
H287 H 0.59623 0.88274 0.856 0.0
C288 C 0.59874 0.82218 0.80737 0.0
C289 C 0.59704 0.82677 0.84634 0.0
C290 C 0.59755 0.80995 0.86952 0.0
C291 C 0.59826 0.86095 0.80344 0.0
C292 C 0.59794 0.88317 0.82124 0.0
C293 C 0.59657 0.86563 0.84241 0.0
C294 C 0.60052 0.925 0.81816 0.0
C295 C 0.59788 0.87777 0.78024 0.0
C296 C 0.63241 0.95021 0.80948 0.0
C297 C 0.6345 0.98942 0.80582 0.0
C298 C 0.60485 0.00417 0.81084 0.0
C299 C 0.57334 0.97921 0.82007 0.0
C300 C 0.57124 0.93986 0.82378 0.0
H301 H 0.58775 0.85499 0.76846 0.0
H302 H 0.57975 0.89817 0.7778 0.0
H303 H 0.62689 0.89376 0.7765 0.0
H304 H 0.65566 0.93949 0.80545 0.0
H305 H 0.65923 0.00833 0.79895 0.0
H306 H 0.91191 0.47552 0.11469 0.0
H307 H 0.84618 0.47847 0.11315 0.0
H308 H 0.87092 0.54597 0.16963 0.0
H309 H 0.93711 0.54558 0.17004 0.0
H310 H 0.7909 0.45453 0.13495 0.0
H311 H 0.81676 0.612 0.13591 0.0
H312 H 0.85427 0.58955 0.13353 0.0
H313 H 0.83855 0.5936 0.15994 0.0
C314 C 0.9034 0.49135 0.12666 0.0
C315 C 0.93014 0.51078 0.1423 0.0
C316 C 0.86553 0.49296 0.12583 0.0
C317 C 0.85287 0.5134 0.14089 0.0
C318 C 0.87949 0.53146 0.15709 0.0
H319 H 0.63837 0.57502 0.1121 0.0
H320 H 0.70321 0.57031 0.11531 0.0
C321 C 0.91757 0.53086 0.15749 0.0
C322 C 0.81202 0.51504 0.13983 0.0
H323 H 0.7548 0.57543 0.14286 0.0
C324 C 0.78321 0.48118 0.13648 0.0
C325 C 0.80101 0.54965 0.14142 0.0
C326 C 0.8293 0.58826 0.14264 0.0
C327 C 0.7446 0.48088 0.13469 0.0
C328 C 0.73356 0.51507 0.1375 0.0
C329 C 0.76241 0.54888 0.14092 0.0
C330 C 0.69281 0.51729 0.13575 0.0
C331 C 0.71638 0.44399 0.12879 0.0
C332 C 0.66417 0.48963 0.14631 0.0
C333 C 0.62624 0.49142 0.14356 0.0
C334 C 0.61587 0.5217 0.1308 0.0
C335 C 0.64479 0.55051 0.12139 0.0
C336 C 0.68234 0.54809 0.12354 0.0
H337 H 0.72944 0.42543 0.12018 0.0
H338 H 0.7056 0.42754 0.1439 0.0
H339 H 0.69235 0.44972 0.11819 0.0
H340 H 0.67093 0.46636 0.15666 0.0
H341 H 0.60496 0.46867 0.15108 0.0
H342 H 0.36382 0.87601 0.4916 0.0
H343 H 0.31425 0.81815 0.48407 0.0
H344 H 0.38033 0.74836 0.52012 0.0
H345 H 0.42973 0.80646 0.52851 0.0
H346 H 0.32389 0.75893 0.46111 0.0
H347 H 0.27574 0.70442 0.54337 0.0
H348 H 0.30324 0.7531 0.53774 0.0
H349 H 0.32551 0.71408 0.54078 0.0
C350 C 0.36751 0.84852 0.49846 0.0
C351 C 0.40076 0.84596 0.51076 0.0
C352 C 0.33922 0.81541 0.49398 0.0
C353 C 0.34345 0.77901 0.5017 0.0
C354 C 0.37623 0.77623 0.51431 0.0
H355 H 0.20402 0.55128 0.46945 0.0
H356 H 0.25333 0.60368 0.48554 0.0
C357 C 0.40461 0.80943 0.51887 0.0
C358 C 0.31466 0.7441 0.49504 0.0
H359 H 0.24916 0.66517 0.51411 0.0
C360 C 0.30755 0.73845 0.47271 0.0
C361 C 0.29366 0.71728 0.51024 0.0
C362 C 0.29959 0.72251 0.53438 0.0
C363 C 0.27977 0.70691 0.46511 0.0
C364 C 0.25815 0.6806 0.48023 0.0
C365 C 0.26577 0.68559 0.50261 0.0
C366 C 0.22675 0.64853 0.47282 0.0
C367 C 0.27377 0.7019 0.44092 0.0
C368 C 0.19516 0.65644 0.461 0.0
C369 C 0.16722 0.62673 0.45195 0.0
C370 C 0.1704 0.58869 0.45464 0.0
C371 C 0.2011 0.58048 0.46733 0.0
C372 C 0.22914 0.61027 0.47642 0.0
H373 H 0.29824 0.71897 0.43205 0.0
H374 H 0.26869 0.67115 0.43747 0.0
H375 H 0.24868 0.7118 0.43444 0.0
H376 H 0.19264 0.68576 0.4583 0.0
H377 H 0.14349 0.63344 0.4424 0.0
H378 H 0.54366 0.4327 0.82805 0.0
H379 H 0.54304 0.36477 0.82798 0.0
H380 H 0.66347 0.39386 0.84104 0.0
H381 H 0.66423 0.46173 0.84174 0.0
H382 H 0.57527 0.32999 0.80164 0.0
H383 H 0.63223 0.30696 0.88616 0.0
H384 H 0.61664 0.3494 0.87698 0.0
H385 H 0.66263 0.34592 0.87132 0.0
C386 C 0.57002 0.42466 0.83105 0.0
C387 C 0.60398 0.45269 0.83501 0.0
C388 C 0.5696 0.38576 0.83103 0.0
C389 C 0.60309 0.37401 0.83493 0.0
C390 C 0.6371 0.40199 0.83864 0.0
H391 H 0.66663 0.16967 0.81003 0.0
H392 H 0.66385 0.23413 0.81879 0.0
C393 C 0.63752 0.44088 0.83886 0.0
C394 C 0.60261 0.33278 0.83395 0.0
H395 H 0.63052 0.25788 0.86186 0.0
C396 C 0.58696 0.31416 0.81493 0.0
C397 C 0.61774 0.31197 0.85132 0.0
C398 C 0.63291 0.32946 0.87268 0.0
C399 C 0.58702 0.27578 0.81258 0.0
C400 C 0.60311 0.25548 0.82965 0.0
C401 C 0.61826 0.27369 0.8488 0.0
C402 C 0.60594 0.21587 0.82723 0.0
C403 C 0.5707 0.25726 0.79165 0.0
C404 C 0.57458 0.1843 0.82964 0.0
C405 C 0.5763 0.14754 0.82479 0.0
C406 C 0.60928 0.14212 0.81734 0.0
C407 C 0.64103 0.17344 0.81581 0.0
C408 C 0.63943 0.21006 0.82079 0.0
H409 H 0.56113 0.27764 0.77942 0.0
H410 H 0.592 0.24594 0.78454 0.0
H411 H 0.54638 0.23249 0.7951 0.0
H412 H 0.54848 0.18837 0.83454 0.0
H413 H 0.55148 0.12371 0.82585 0.0
H414 H 0.58855 0.88756 0.50459 0.0
H415 H 0.58743 0.81927 0.50856 0.0
H416 H 0.69179 0.84576 0.54819 0.0
H417 H 0.69312 0.91415 0.54449 0.0
H418 H 0.64191 0.78208 0.49733 0.0
H419 H 0.62041 0.76317 0.58588 0.0
H420 H 0.61272 0.80423 0.56913 0.0
H421 H 0.65968 0.8019 0.57822 0.0
C422 C 0.61133 0.87897 0.51415 0.0
C423 C 0.64087 0.90642 0.52431 0.0
C424 C 0.61062 0.83988 0.51638 0.0
C425 C 0.63923 0.82741 0.52892 0.0
C426 C 0.66908 0.85472 0.53876 0.0
H427 H 0.68303 0.605 0.56581 0.0
H428 H 0.68509 0.67374 0.56034 0.0
C429 C 0.66989 0.89385 0.53651 0.0
C430 C 0.63792 0.78584 0.5316 0.0
H431 H 0.63207 0.71056 0.56961 0.0
C432 C 0.63962 0.76635 0.5131 0.0
C433 C 0.63492 0.76546 0.55221 0.0
C434 C 0.63149 0.78458 0.5725 0.0
C435 C 0.63921 0.72714 0.51472 0.0
C436 C 0.63625 0.70675 0.53535 0.0
C437 C 0.63441 0.72625 0.55382 0.0
C438 C 0.63527 0.66522 0.5382 0.0
C439 C 0.6429 0.70817 0.49442 0.0
C440 C 0.60642 0.63762 0.52775 0.0
C441 C 0.60531 0.59847 0.53089 0.0
C442 C 0.63287 0.58635 0.54463 0.0
C443 C 0.66151 0.61387 0.55519 0.0
C444 C 0.66269 0.65298 0.55203 0.0
H445 H 0.65486 0.72968 0.48128 0.0
H446 H 0.66102 0.68789 0.49788 0.0
H447 H 0.61464 0.69163 0.48829 0.0
H448 H 0.58443 0.64629 0.51744 0.0
H449 H 0.58258 0.57755 0.52297 0.0
H450 H 0.75793 0.4978 0.7601 0.0
H451 H 0.79853 0.46575 0.74335 0.0
H452 H 0.8956 0.55512 0.76334 0.0
H453 H 0.85594 0.5866 0.78017 0.0
H454 H 0.90276 0.52173 0.72282 0.0
H455 H 0.85549 0.41026 0.78959 0.0
H456 H 0.82306 0.42158 0.76817 0.0
H457 H 0.8411 0.45434 0.7893 0.0
C458 C 0.7879 0.51093 0.76053 0.0
C459 C 0.80378 0.54434 0.77193 0.0
C460 C 0.81096 0.49275 0.75077 0.0
C461 C 0.8501 0.50776 0.75235 0.0
C462 C 0.86541 0.54312 0.76175 0.0
H463 H 1.02868 0.56624 0.80125 0.0
H464 H 0.98586 0.54654 0.76987 0.0
C465 C 0.84258 0.56115 0.77148 0.0
C466 C 0.87633 0.48424 0.74914 0.0
H467 H 0.92024 0.43221 0.78569 0.0
C468 C 0.90616 0.50057 0.73585 0.0
C469 C 0.88031 0.45508 0.76526 0.0
C470 C 0.84831 0.43399 0.77888 0.0
C471 C 0.94207 0.49504 0.74158 0.0
C472 C 0.94784 0.4737 0.76124 0.0
C473 C 0.91632 0.45015 0.77116 0.0
C474 C 0.98296 0.48555 0.77544 0.0
C475 C 0.97418 0.51586 0.72807 0.0
C476 C 0.9965 0.45825 0.78912 0.0
C477 C 1.02051 0.46976 0.80751 0.0
C478 C 1.03152 0.50866 0.81229 0.0
C479 C 1.02082 0.53619 0.79765 0.0
C480 C 0.99665 0.52479 0.77947 0.0
H481 H 0.96582 0.51191 0.71053 0.0
H482 H 0.98083 0.54721 0.73032 0.0
H483 H 0.99977 0.50541 0.73249 0.0
H484 H 0.98622 0.42784 0.78653 0.0
H485 H 1.02881 0.44821 0.81866 0.0
H486 H 0.19572 0.77877 0.17943 0.0
H487 H 0.25537 0.82504 0.18866 0.0
H488 H 0.31575 0.75189 0.16387 0.0
H489 H 0.25615 0.70594 0.15396 0.0
H490 H 0.31495 0.81119 0.21697 0.0
H491 H 0.36069 0.85781 0.13341 0.0
H492 H 0.31288 0.83247 0.13861 0.0
H493 H 0.34866 0.80671 0.13975 0.0
C494 C 0.22165 0.77276 0.17564 0.0
C495 C 0.22116 0.73873 0.16586 0.0
C496 C 0.2557 0.79912 0.18105 0.0
C497 C 0.2899 0.79212 0.17668 0.0
C498 C 0.28962 0.75814 0.16703 0.0
H499 H 0.52275 0.92055 0.20487 0.0
H500 H 0.46549 0.87346 0.19173 0.0
C501 C 0.25555 0.73172 0.16162 0.0
C502 C 0.32584 0.81981 0.183 0.0
H503 H 0.40394 0.88174 0.16272 0.0
C504 C 0.33439 0.82668 0.20512 0.0
C505 C 0.35122 0.83971 0.16749 0.0
C506 C 0.34291 0.83415 0.14345 0.0
C507 C 0.36772 0.8529 0.21219 0.0
C508 C 0.39278 0.87336 0.19665 0.0
C509 C 0.38456 0.86608 0.17456 0.0
C510 C 0.42729 0.90293 0.2031 0.0
C511 C 0.37604 0.85806 0.23628 0.0
C512 C 0.42467 0.93554 0.21319 0.0
C513 C 0.45715 0.96217 0.22062 0.0
C514 C 0.49272 0.95681 0.21791 0.0
C515 C 0.49547 0.92512 0.207 0.0
C516 C 0.46291 0.89833 0.1996 0.0
H517 H 0.3597 0.83317 0.24618 0.0
H518 H 0.40644 0.86178 0.24096 0.0
H519 H 0.36817 0.8842 0.24037 0.0
H520 H 0.39746 0.94007 0.2156 0.0
H521 H 0.45464 0.98674 0.22879 0.0
H522 H 0.69061 0.16255 0.51028 0.0
H523 H 0.68818 0.22968 0.51074 0.0
H524 H 0.57414 0.19214 0.52997 0.0
H525 H 0.5764 0.12509 0.5299 0.0
H526 H 0.63962 0.27004 0.48783 0.0
H527 H 0.62726 0.26452 0.57701 0.0
H528 H 0.64078 0.22763 0.564 0.0
H529 H 0.59211 0.22812 0.56336 0.0
C530 C 0.66499 0.16853 0.51463 0.0
C531 C 0.63381 0.13838 0.52026 0.0
C532 C 0.66364 0.20693 0.51482 0.0
C533 C 0.63119 0.21588 0.52071 0.0
C534 C 0.59973 0.18588 0.5258 0.0
H535 H 0.56896 0.42402 0.54266 0.0
H536 H 0.56832 0.35859 0.53393 0.0
C537 C 0.60107 0.14753 0.52568 0.0
C538 C 0.63029 0.25656 0.52185 0.0
H539 H 0.6182 0.32042 0.55668 0.0
C540 C 0.63508 0.28117 0.50288 0.0
C541 C 0.62455 0.27101 0.54153 0.0
C542 C 0.62124 0.2466 0.56269 0.0
C543 C 0.63336 0.31967 0.50299 0.0
C544 C 0.62708 0.33387 0.52262 0.0
C545 C 0.62263 0.30932 0.54159 0.0
C546 C 0.62556 0.37423 0.5242 0.0
C547 C 0.6375 0.34461 0.48207 0.0
C548 C 0.65761 0.40481 0.52112 0.0
C549 C 0.65779 0.4421 0.52601 0.0
C550 C 0.62601 0.44917 0.53404 0.0
C551 C 0.59347 0.41901 0.53617 0.0
C552 C 0.59323 0.3818 0.5313 0.0
H553 H 0.63308 0.32717 0.46759 0.0
H554 H 0.61726 0.36284 0.48045 0.0
H555 H 0.66634 0.36394 0.48217 0.0
H556 H 0.68311 0.3995 0.51611 0.0
H557 H 0.68334 0.46499 0.52475 0.0
H558 H 0.35748 0.55496 0.89502 0.0
H559 H 0.30838 0.58363 0.90417 0.0
H560 H 0.37505 0.69628 0.88377 0.0
H561 H 0.42397 0.66738 0.87378 0.0
H562 H 0.2975 0.64423 0.9281 0.0
H563 H 0.28662 0.67641 0.83804 0.0
H564 H 0.317 0.64722 0.8498 0.0
H565 H 0.32913 0.69792 0.85374 0.0
C566 C 0.36201 0.58592 0.89287 0.0
C567 C 0.39396 0.6088 0.88312 0.0
C568 C 0.33416 0.60238 0.89836 0.0
C569 C 0.33779 0.642 0.89423 0.0
C570 C 0.37152 0.66558 0.88677 0.0
H571 H 0.1098 0.63261 0.85154 0.0
H572 H 0.16978 0.6735 0.86611 0.0
C573 C 0.39947 0.64903 0.88116 0.0
C574 C 0.30333 0.65576 0.89361 0.0
H575 H 0.23185 0.66241 0.85612 0.0
C576 C 0.28341 0.64979 0.91249 0.0
C577 C 0.28523 0.66409 0.87333 0.0
C578 C 0.30538 0.67181 0.85251 0.0
C579 C 0.24455 0.64626 0.91111 0.0
C580 C 0.22544 0.64793 0.89036 0.0
C581 C 0.24639 0.6603 0.87202 0.0
C582 C 0.18533 0.6274 0.88638 0.0
C583 C 0.22394 0.63758 0.9317 0.0
C584 C 0.17376 0.58821 0.89326 0.0
C585 C 0.13992 0.56513 0.88488 0.0
C586 C 0.11721 0.58068 0.86935 0.0
C587 C 0.12738 0.62022 0.86339 0.0
C588 C 0.16128 0.6435 0.87186 0.0
H589 H 0.24079 0.65465 0.94499 0.0
H590 H 0.19597 0.64396 0.92936 0.0
H591 H 0.22008 0.60671 0.93702 0.0
H592 H 0.19222 0.57461 0.90378 0.0
H593 H 0.13257 0.53459 0.88946 0.0
H594 H 0.90019 0.22466 0.17002 0.0
H595 H 0.8436 0.17752 0.18163 0.0
H596 H 0.79762 0.2694 0.19762 0.0
H597 H 0.85316 0.31678 0.18501 0.0
H598 H 0.81309 0.16309 0.22106 0.0
H599 H 0.71289 0.20841 0.15888 0.0
H600 H 0.76318 0.22481 0.15731 0.0
H601 H 0.73962 0.24678 0.17496 0.0
C602 C 0.87782 0.23491 0.1757 0.0
C603 C 0.88117 0.27459 0.17638 0.0
C604 C 0.84563 0.20789 0.18251 0.0
C605 C 0.81611 0.21995 0.19014 0.0
C606 C 0.81968 0.25945 0.19135 0.0
H607 H 0.60128 0.09889 0.24053 0.0
H608 H 0.65978 0.14675 0.23155 0.0
C609 C 0.85175 0.28651 0.1844 0.0
C610 C 0.78174 0.19114 0.19698 0.0
H611 H 0.68634 0.16321 0.18707 0.0
C612 C 0.7854 0.16302 0.21357 0.0
C613 C 0.74562 0.19104 0.18715 0.0
C614 C 0.74001 0.21913 0.16845 0.0
C615 C 0.75383 0.13512 0.22079 0.0
C616 C 0.71781 0.1353 0.21107 0.0
C617 C 0.71408 0.16339 0.19454 0.0
C618 C 0.68359 0.10612 0.21752 0.0
C619 C 0.75906 0.10594 0.23893 0.0
C620 C 0.67779 0.06761 0.21257 0.0
C621 C 0.64448 0.0405 0.21762 0.0
C622 C 0.61663 0.05155 0.22768 0.0
C623 C 0.62265 0.08992 0.23289 0.0
C624 C 0.65584 0.1171 0.22773 0.0
H625 H 0.78741 0.11425 0.24755 0.0
H626 H 0.73746 0.10233 0.25092 0.0
H627 H 0.75565 0.07766 0.23204 0.0
H628 H 0.69873 0.05872 0.20447 0.0
H629 H 0.64027 0.01094 0.21361 0.0
H630 H 1.05262 0.45837 0.07366 0.0
H631 H 1.05255 0.46281 0.03395 0.0
H632 H 1.03449 0.57647 0.03187 0.0
H633 H 1.03449 0.5724 0.07166 0.0
H634 H 0.99232 0.47855 0.00268 0.0
H635 H 0.13004 0.58715 0.99689 0.0
H636 H 0.11682 0.55818 0.02163 0.0
H637 H 0.09685 0.59793 0.01351 0.0
C638 C 1.04866 0.48437 0.0648 0.0
C639 C 1.04367 0.5151 0.07584 0.0
C640 C 1.04856 0.48678 0.04212 0.0
C641 C 1.04386 0.52007 0.03008 0.0
C642 C 1.03858 0.55071 0.04096 0.0
H643 H 1.05269 0.58782 0.89186 0.0
H644 H 1.04692 0.58533 0.93131 0.0
C645 C 1.03843 0.54825 0.06367 0.0
C646 C 1.04427 0.52249 0.0061 0.0
H647 H 0.0959 0.56787 0.96389 0.0
C648 C 1.01491 0.49806 0.99414 0.0
C649 C 0.07375 0.54809 0.99513 0.0
C650 C 0.10637 0.57422 0.00737 0.0
C651 C 1.01407 0.49876 0.97135 0.0
C652 C 1.04389 0.52393 0.96037 0.0
C653 C 0.0731 0.5486 0.97236 0.0
C654 C 1.04566 0.52489 0.93645 0.0
C655 C 0.98096 0.47305 0.95925 0.0
C656 C 1.04702 0.49183 0.92633 0.0
C657 C 1.05016 0.49329 0.90387 0.0
C658 C 1.05237 0.52789 0.8913 0.0
C659 C 1.051 0.56091 0.90138 0.0
C660 C 1.04772 0.55946 0.9238 0.0
H661 H 0.95602 0.46421 0.96914 0.0
H662 H 0.9731 0.48761 0.94368 0.0
H663 H 0.98854 0.44658 0.95547 0.0
H664 H 1.04644 0.46512 0.93585 0.0
H665 H 1.05185 0.46776 0.89634 0.0
H666 H 0.58771 0.05581 0.44837 0.0
H667 H 0.58733 0.06148 0.40868 0.0
H668 H 0.69567 0.0363 0.4122 0.0
H669 H 0.69632 0.03028 0.45199 0.0
H670 H 0.64128 0.10964 0.37964 0.0
H671 H 0.62502 0.95249 0.37464 0.0
H672 H 0.61656 0.97252 0.39899 0.0
H673 H 0.66384 0.97776 0.39189 0.0
C674 C 0.6116 0.05167 0.44077 0.0
C675 C 0.64187 0.04216 0.45338 0.0
C676 C 0.61137 0.05507 0.41807 0.0
C677 C 0.64127 0.0489 0.40756 0.0
C678 C 0.67212 0.04069 0.42005 0.0
H679 H 0.63427 0.01013 0.26903 0.0
H680 H 0.66055 0.02488 0.30622 0.0
C681 C 0.67243 0.03732 0.44278 0.0
C682 C 0.63899 0.0492 0.38351 0.0
H683 H 0.62487 0.9897 0.34172 0.0
C684 C 0.63809 0.08355 0.37129 0.0
C685 C 0.63503 0.01513 0.37272 0.0
C686 C 0.63488 0.97724 0.38514 0.0
C687 C 0.6325 0.08454 0.34849 0.0
C688 C 0.6269 0.0501 0.33776 0.0
C689 C 0.62929 0.0161 0.34996 0.0
C690 C 0.61485 0.04749 0.31429 0.0
C691 C 0.63235 0.12237 0.33614 0.0
C692 C 0.58092 0.056 0.30638 0.0
C693 C 0.56621 0.04782 0.28522 0.0
C694 C 0.58492 0.03061 0.27173 0.0
C695 C 0.61966 0.02369 0.2792 0.0
C696 C 0.63449 0.03195 0.30039 0.0
H697 H 0.64953 0.14704 0.34523 0.0
H698 H 0.64329 0.12396 0.3198 0.0
H699 H 0.60309 0.12541 0.33398 0.0
H700 H 0.56482 0.06714 0.31692 0.0
H701 H 0.53941 0.05341 0.27963 0.0
H702 H 0.54725 0.57712 0.76074 0.0
H703 H 0.54798 0.57528 0.72111 0.0
H704 H 0.65935 0.55705 0.72918 0.0
H705 H 0.65885 0.55837 0.76847 0.0
H706 H 0.60047 0.62123 0.69124 0.0
H707 H 0.59771 0.46643 0.69427 0.0
H708 H 0.58577 0.48859 0.7169 0.0
H709 H 0.63424 0.49368 0.71206 0.0
C710 C 0.57185 0.57266 0.75405 0.0
C711 C 0.6028 0.56746 0.7678 0.0
C712 C 0.57224 0.57174 0.73144 0.0
C713 C 0.60348 0.56545 0.72231 0.0
C714 C 0.63468 0.56121 0.73596 0.0
H715 H 0.68421 0.54011 0.6007 0.0
H716 H 0.67612 0.55478 0.63786 0.0
C717 C 0.63432 0.56204 0.75844 0.0
C718 C 0.60379 0.56272 0.69856 0.0
H719 H 0.61502 0.50297 0.66107 0.0
C720 C 0.60316 0.59528 0.68454 0.0
C721 C 0.60709 0.52872 0.68993 0.0
C722 C 0.60588 0.49224 0.70403 0.0
C723 C 0.6075 0.59517 0.66214 0.0
C724 C 0.61236 0.56165 0.65375 0.0
C725 C 0.61172 0.52878 0.66767 0.0
C726 C 0.61911 0.55981 0.63067 0.0
C727 C 0.60823 0.63114 0.64771 0.0
C728 C 0.59008 0.55884 0.6143 0.0
C729 C 0.5948 0.55045 0.59316 0.0
C730 C 0.62843 0.54278 0.58831 0.0
C731 C 0.65814 0.54596 0.60433 0.0
C732 C 0.65347 0.55427 0.62541 0.0
H733 H 0.60957 0.65634 0.65725 0.0
H734 H 0.63275 0.63793 0.63751 0.0
H735 H 0.58241 0.62632 0.63659 0.0
H736 H 0.56321 0.56255 0.61813 0.0
H737 H 0.57164 0.54785 0.58089 0.0
H738 H 0.57758 0.96195 0.58793 0.0
H739 H 0.57177 0.95728 0.62732 0.0
H740 H 0.67799 0.04177 0.6356 0.0
H741 H 0.68439 0.0463 0.59642 0.0
H742 H 0.66852 0.97855 0.66695 0.0
H743 H 0.54577 0.04267 0.65834 0.0
H744 H 0.54113 1.00054 0.64361 0.0
H745 H 0.5751 0.04436 0.63619 0.0
C746 C 0.59984 0.97937 0.59814 0.0
C747 C 0.63129 0.00479 0.58897 0.0
C748 C 0.59639 0.97673 0.62063 0.0
C749 C 0.62419 0.99959 0.63431 0.0
C750 C 0.65618 0.02395 0.6253 0.0
H751 H 0.67178 0.08178 0.76068 0.0
H752 H 0.67328 0.05831 0.7247 0.0
C753 C 0.6597 0.02657 0.60287 0.0
C754 C 0.61955 0.9997 0.65789 0.0
H755 H 0.56843 0.02818 0.69381 0.0
C756 C 0.64641 0.989 0.67287 0.0
C757 C 0.59058 0.01321 0.66554 0.0
C758 C 0.5616 0.02615 0.65014 0.0
C759 C 0.64562 0.99238 0.6953 0.0
C760 C 0.61761 0.00744 0.70284 0.0
C761 C 0.58983 0.01657 0.68796 0.0
C762 C 0.6186 0.01762 0.72568 0.0
C763 C 0.675 0.98023 0.7107 0.0
C764 C 0.58738 1.0026 0.73815 0.0
C765 C 0.58648 0.01629 0.7586 0.0
C766 C 0.61659 0.04539 0.76669 0.0
C767 C 0.6483 0.0594 0.75458 0.0
C768 C 0.64926 0.04574 0.7342 0.0
H769 H 0.6862 0.95844 0.70366 0.0
H770 H 0.69884 0.00569 0.71378 0.0
H771 H 0.66344 0.96816 0.72654 0.0
H772 H 0.56332 0.98113 0.73179 0.0
H773 H 0.56173 0.00537 0.76772 0.0
H774 H 0.663 0.61115 0.90906 0.0
H775 H 0.66307 0.60629 0.9489 0.0
H776 H 0.56357 0.51175 0.94555 0.0
H777 H 0.56277 0.51684 0.90599 0.0
H778 H 0.55638 0.56637 0.97097 0.0
H779 H 0.69105 0.52733 0.99399 0.0
H780 H 0.69523 0.57014 0.9763 0.0
H781 H 0.66928 0.52442 0.96664 0.0
C782 C 0.64132 0.58915 0.91683 0.0
C783 C 0.61282 0.5645 0.90431 0.0
C784 C 0.64157 0.58622 0.93961 0.0
C785 C 0.61359 0.55833 0.95021 0.0
C786 C 0.58549 0.53342 0.93772 0.0
H787 H 0.58459 0.47993 0.08554 0.0
H788 H 0.60261 0.48851 0.04758 0.0
C789 C 0.58507 0.53645 0.91506 0.0
C790 C 0.61167 0.55645 0.97418 0.0
H791 H 0.65872 0.54093 0.02284 0.0
C792 C 0.57879 0.56084 0.98229 0.0
C793 C 0.64077 0.54879 0.98892 0.0
C794 C 0.67597 0.54203 0.98109 0.0
C795 C 0.5741 0.55776 0.00468 0.0
C796 C 0.60356 0.55113 0.01947 0.0
C797 C 0.63644 0.54651 0.01144 0.0
C798 C 0.59978 0.54792 0.04328 0.0
C799 C 0.53716 0.56065 0.01226 0.0
C800 C 0.59399 0.57892 0.05363 0.0
C801 C 0.58345 0.57385 0.07503 0.0
C802 C 0.57927 0.53798 0.08652 0.0
C803 C 0.58793 0.50781 0.07684 0.0
C804 C 0.59813 0.51273 0.05527 0.0
H805 H 0.51448 0.55587 -0.00104 0.0
H806 H 0.52808 0.53938 0.02605 0.0
H807 H 0.54056 0.58988 0.01789 0.0
H808 H 0.59576 0.60647 0.04477 0.0
H809 H 0.57688 0.59734 0.08239 0.0
H810 H 1.01213 0.44642 0.21459 0.0
H811 H 1.0164 0.44259 0.25442 0.0
H812 H 0.09807 0.55269 0.25431 0.0
H813 H 0.09456 0.5565 0.21455 0.0
H814 H 0.11908 0.49832 0.28285 0.0
H815 H 0.97247 0.50247 0.29403 0.0
H816 H 0.97659 0.46505 0.27763 0.0
H817 H 0.99327 0.51459 0.26815 0.0
C818 C 1.03092 0.4699 0.22303 0.0
C819 C 1.05293 0.50184 0.21138 0.0
C820 C 1.03315 0.46774 0.2458 0.0
C821 C 1.05713 0.49761 0.25731 0.0
C822 C 0.07928 0.52938 0.24573 0.0
H823 H 0.07258 0.56637 0.38735 0.0
H824 H 1.05668 0.55385 0.34879 0.0
C825 C 0.07721 0.53151 0.223 0.0
C826 C 1.06001 0.49565 0.28144 0.0
H827 H 1.01046 0.4939 0.32591 0.0
C828 C 0.0953 0.49712 0.2923 0.0
C829 C 1.02896 0.49437 0.29367 0.0
C830 C 0.99073 0.49436 0.28283 0.0
C831 C 0.1006 0.49804 0.31502 0.0
C832 C 0.06952 0.49655 0.32728 0.0
C833 C 1.03409 0.49452 0.31647 0.0
C834 C 0.07418 0.50076 0.3511 0.0
C835 C 0.13978 0.50226 0.32561 0.0
C836 C 0.08785 0.47429 0.36532 0.0
C837 C 0.09719 0.48168 0.38727 0.0
C838 C 0.09269 0.51542 0.39523 0.0
C839 C 0.07659 0.54043 0.38136 0.0
C840 C 0.06742 0.5332 0.35944 0.0
H841 H 0.16159 0.51127 0.31357 0.0
H842 H 0.14595 0.52371 0.33822 0.0
H843 H 0.14199 0.47419 0.33364 0.0
H844 H 0.09258 0.44871 0.35928 0.0
H845 H 0.10962 0.46211 0.39777 0.0
loop_
_geom_bond_atom_site_label_1
_geom_bond_atom_site_label_2
_geom_bond_distance
_geom_bond_site_symmetry_2
_ccdc_geom_bond_type
Dy0 O3 2.307 1_455 S
Dy0 O5 2.395 . S
Dy0 O6 2.379 . S
Dy0 O8 2.339 . S
Dy0 O10 2.298 . S
Dy0 O14 2.275 . S
Dy0 C22 2.738 . S
Dy1 O4 2.298 . S
Dy1 O7 2.274 1_655 S
Dy1 O9 2.307 1_655 S
Dy1 O11 2.395 . S
Dy1 O12 2.379 . S
Dy1 O15 2.339 . S
Dy1 C31 2.738 . S
C2 O14 1.254 . S
C2 O15 1.257 1_455 S
O3 Dy0 2.307 1_655 S
O3 C13 1.266 . S
O4 Dy1 2.298 . S
O4 C13 1.236 . S
O5 Dy0 2.395 . S
O5 C22 1.255 . S
O6 Dy0 2.379 . S
O6 C22 1.249 . S
O7 Dy1 2.274 1_455 S
O7 C23 1.254 . S
O8 Dy0 2.339 . S
O8 C23 1.257 . S
O9 Dy1 2.307 1_455 S
O9 C24 1.266 . S
O10 Dy0 2.298 . S
O10 C24 1.236 . S
O11 Dy1 2.395 . S
O11 C31 1.255 . S
O12 Dy1 2.379 . S
O12 C31 1.249 . S
C13 O3 1.266 . S
C13 O4 1.236 . S
O14 Dy0 2.275 . S
O14 C2 1.254 . S
O15 Dy1 2.339 . S
O15 C2 1.257 1_655 S
C16 C19 1.344 . S
C16 C20 1.328 . S
C16 C22 1.516 . S
C17 C18 1.304 . S
C17 C21 1.323 . S
C18 C17 1.304 . S
C18 C19 1.371 . S
C18 H32 0.930 . S
C19 C16 1.344 . S
C19 C18 1.371 . S
C19 H33 0.931 . S
C20 C16 1.328 . S
C20 C21 1.433 . S
C20 H34 0.931 . S
C21 C17 1.323 . S
C21 C20 1.433 . S
C21 H35 0.933 . S
C22 Dy0 2.738 . S
C22 O5 1.255 . S
C22 O6 1.249 . S
C22 C16 1.516 . S
C23 O7 1.254 . S
C23 O8 1.257 . S
C24 O9 1.266 . S
C24 O10 1.236 . S
C25 C28 1.344 . S
C25 C29 1.328 . S
C25 C31 1.516 . S
C26 C27 1.304 . S
C26 C30 1.323 . S
C27 C26 1.304 . S
C27 C28 1.371 . S
C27 H36 0.930 . S
C28 C25 1.344 . S
C28 C27 1.371 . S
C28 H37 0.931 . S
C29 C25 1.328 . S
C29 C30 1.433 . S
C29 H38 0.931 . S
C30 C26 1.323 . S
C30 C29 1.433 . S
C30 H39 0.933 . S
C31 Dy1 2.738 . S
C31 O11 1.255 . S
C31 O12 1.249 . S
C31 C25 1.516 . S
H32 C18 0.930 . S
H33 C19 0.931 . S
H34 C20 0.931 . S
H35 C21 0.933 . S
H36 C27 0.930 . S
H37 C28 0.931 . S
H38 C29 0.931 . S
H39 C30 0.933 . S
Dy40 O43 2.307 1_565 S
Dy40 O45 2.395 . S
Dy40 O46 2.379 . S
Dy40 O48 2.339 1_565 S
Dy40 O50 2.298 . S
Dy40 O54 2.275 1_565 S
Dy40 C62 2.738 . S
Dy41 O44 2.298 . S
Dy41 O47 2.275 . S
Dy41 O49 2.307 1_545 S
Dy41 O51 2.395 . S
Dy41 O52 2.379 . S
Dy41 O55 2.339 . S
Dy41 C71 2.738 . S
C42 O54 1.254 . S
C42 O55 1.257 . S
O43 Dy40 2.307 1_545 S
O43 C53 1.266 . S
O44 Dy41 2.298 . S
O44 C53 1.236 . S
O45 Dy40 2.395 . S
O45 C62 1.255 . S
O46 Dy40 2.379 . S
O46 C62 1.249 . S
O47 Dy41 2.275 . S
O47 C63 1.254 . S
O48 Dy40 2.339 1_545 S
O48 C63 1.257 . S
O49 Dy41 2.307 1_565 S
O49 C64 1.266 . S
O50 Dy40 2.298 . S
O50 C64 1.236 . S
O51 Dy41 2.395 . S
O51 C71 1.255 . S
O52 Dy41 2.379 . S
O52 C71 1.249 . S
C53 O43 1.266 . S
C53 O44 1.236 . S
O54 Dy40 2.275 1_545 S
O54 C42 1.254 . S
O55 Dy41 2.339 . S
O55 C42 1.257 . S
C56 C59 1.344 . S
C56 C60 1.328 . S
C56 C62 1.516 . S
C57 C58 1.304 . S
C57 C61 1.323 . S
C58 C57 1.304 . S
C58 C59 1.371 . S
C58 H72 0.930 . S
C59 C56 1.344 . S
C59 C58 1.371 . S
C59 H73 0.931 . S
C60 C56 1.328 . S
C60 C61 1.433 . S
C60 H74 0.931 . S
C61 C57 1.323 . S
C61 C60 1.433 . S
C61 H75 0.933 . S
C62 Dy40 2.738 . S
C62 O45 1.255 . S
C62 O46 1.249 . S
C62 C56 1.516 . S
C63 O47 1.254 . S
C63 O48 1.257 . S
C64 O49 1.266 . S
C64 O50 1.236 . S
C65 C68 1.344 . S
C65 C69 1.328 . S
C65 C71 1.516 . S
C66 C67 1.304 . S
C66 C70 1.323 . S
C67 C66 1.304 . S
C67 C68 1.371 . S
C67 H76 0.930 . S
C68 C65 1.344 . S
C68 C67 1.371 . S
C68 H77 0.931 . S
C69 C65 1.328 . S
C69 C70 1.433 . S
C69 H78 0.931 . S
C70 C66 1.323 . S
C70 C69 1.433 . S
C70 H79 0.933 . S
C71 Dy41 2.738 . S
C71 O51 1.255 . S
C71 O52 1.249 . S
C71 C65 1.516 . S
H72 C58 0.930 . S
H73 C59 0.931 . S
H74 C60 0.931 . S
H75 C61 0.933 . S
H76 C67 0.930 . S
H77 C68 0.931 . S
H78 C69 0.931 . S
H79 C70 0.933 . S
Dy80 O83 2.307 . S
Dy80 O85 2.395 . S
Dy80 O86 2.379 . S
Dy80 O88 2.339 . S
Dy80 O90 2.298 . S
Dy80 O94 2.275 . S
Dy80 C102 2.738 . S
Dy81 O84 2.298 . S
Dy81 O87 2.275 . S
Dy81 O89 2.307 . S
Dy81 O91 2.395 . S
Dy81 O92 2.379 . S
Dy81 O95 2.339 . S
Dy81 C111 2.738 . S
C82 O94 1.254 . S
C82 O95 1.257 . S
O83 Dy80 2.307 . S
O83 C93 1.266 . S
O84 Dy81 2.298 . S
O84 C93 1.236 . S
O85 Dy80 2.395 . S
O85 C102 1.255 . S
O86 Dy80 2.379 . S
O86 C102 1.249 . S
O87 Dy81 2.275 . S
O87 C103 1.254 . S
O88 Dy80 2.339 . S
O88 C103 1.257 . S
O89 Dy81 2.307 . S
O89 C104 1.266 . S
O90 Dy80 2.298 . S
O90 C104 1.236 . S
O91 Dy81 2.395 . S
O91 C111 1.255 . S
O92 Dy81 2.379 . S
O92 C111 1.249 . S
C93 O83 1.266 . S
C93 O84 1.236 . S
O94 Dy80 2.275 . S
O94 C82 1.254 . S
O95 Dy81 2.339 . S
O95 C82 1.257 . S
C96 C99 1.344 . S
C96 C100 1.328 . S
C96 C102 1.516 . S
C97 C98 1.304 . S
C97 C101 1.323 . S
C98 C97 1.304 . S
C98 C99 1.371 . S
C98 H112 0.930 . S
C99 C96 1.344 . S
C99 C98 1.371 . S
C99 H113 0.931 . S
C100 C96 1.328 . S
C100 C101 1.433 . S
C100 H114 0.931 . S
C101 C97 1.323 . S
C101 C100 1.433 . S
C101 H115 0.933 . S
C102 Dy80 2.738 . S
C102 O85 1.255 . S
C102 O86 1.249 . S
C102 C96 1.516 . S
C103 O87 1.254 . S
C103 O88 1.257 . S
C104 O89 1.266 . S
C104 O90 1.236 . S
C105 C108 1.344 . S
C105 C109 1.328 . S
C105 C111 1.516 . S
C106 C107 1.304 . S
C106 C110 1.323 . S
C107 C106 1.304 . S
C107 C108 1.371 . S
C107 H116 0.930 . S
C108 C105 1.344 . S
C108 C107 1.371 . S
C108 H117 0.931 . S
C109 C105 1.328 . S
C109 C110 1.433 . S
C109 H118 0.931 . S
C110 C106 1.323 . S
C110 C109 1.433 . S
C110 H119 0.933 . S
C111 Dy81 2.738 . S
C111 O91 1.255 . S
C111 O92 1.249 . S
C111 C105 1.516 . S
H112 C98 0.930 . S
H113 C99 0.931 . S
H114 C100 0.931 . S
H115 C101 0.933 . S
H116 C107 0.930 . S
H117 C108 0.931 . S
H118 C109 0.931 . S
H119 C110 0.933 . S
C120 N121 1.317 . S
C120 N122 1.348 1_545 S
C120 C123 1.485 . S
N121 C120 1.317 . S
N121 N125 1.370 . S
N122 C120 1.348 1_565 S
N122 C124 1.346 . S
C123 C120 1.485 . S
C123 H127 0.960 . S
C123 H128 0.961 . S
C123 H129 0.960 . S
C124 N122 1.346 . S
C124 N125 1.307 1_565 S
C124 C126 1.486 . S
N125 N121 1.370 . S
N125 C124 1.307 1_545 S
C126 C124 1.486 . S
C126 H130 0.960 . S
C126 H131 0.960 . S
C126 H132 0.959 . S
H127 C123 0.960 . S
H128 C123 0.961 . S
H129 C123 0.960 . S
H130 C126 0.960 . S
H131 C126 0.960 . S
H132 C126 0.959 . S
C133 N134 1.317 . S
C133 N135 1.348 . S
C133 C136 1.485 . S
N134 C133 1.317 . S
N134 N138 1.370 . S
N135 C133 1.348 . S
N135 C137 1.346 . S
C136 C133 1.485 . S
C136 H140 0.960 . S
C136 H141 0.961 . S
C136 H142 0.960 . S
C137 N135 1.346 . S
C137 N138 1.307 . S
C137 C139 1.486 . S
N138 N134 1.370 . S
N138 C137 1.307 . S
C139 C137 1.486 . S
C139 H143 0.960 . S
C139 H144 0.960 . S
C139 H145 0.959 . S
H140 C136 0.960 . S
H141 C136 0.961 . S
H142 C136 0.960 . S
H143 C139 0.960 . S
H144 C139 0.960 . S
H145 C139 0.959 . S
C146 N147 1.317 . S
C146 N148 1.348 1_455 S
C146 C149 1.485 . S
N147 C146 1.317 . S
N147 N151 1.370 . S
N148 C146 1.348 1_655 S
N148 C150 1.346 . S
C149 C146 1.485 . S
C149 H153 0.960 . S
C149 H154 0.961 1_455 S
C149 H155 0.960 . S
C150 N148 1.346 . S
C150 N151 1.307 1_655 S
C150 C152 1.486 . S
N151 N147 1.370 . S
N151 C150 1.307 1_455 S
C152 C150 1.486 . S
C152 H156 0.960 . S
C152 H157 0.960 . S
C152 H158 0.959 . S
H153 C149 0.960 . S
H154 C149 0.961 1_655 S
H155 C149 0.960 . S
H156 C152 0.960 . S
H157 C152 0.960 . S
H158 C152 0.959 . S
C159 N160 1.317 . S
C159 N161 1.348 . S
C159 C162 1.485 . S
N160 C159 1.317 . S
N160 N164 1.370 . S
N161 C159 1.348 . S
N161 C163 1.346 . S
C162 C159 1.485 . S
C162 H166 0.960 . S
C162 H167 0.961 . S
C162 H168 0.960 . S
C163 N161 1.346 . S
C163 N164 1.307 . S
C163 C165 1.486 . S
N164 N160 1.370 . S
N164 C163 1.307 . S
C165 C163 1.486 . S
C165 H169 0.960 . S
C165 H170 0.960 . S
C165 H171 0.959 . S
H166 C162 0.960 . S
H167 C162 0.961 . S
H168 C162 0.960 . S
H169 C165 0.960 . S
H170 C165 0.960 . S
H171 C165 0.959 . S
C172 N173 1.317 . S
C172 N174 1.348 . S
C172 C175 1.485 . S
N173 C172 1.317 . S
N173 N177 1.370 . S
N174 C172 1.348 . S
N174 C176 1.346 . S
C175 C172 1.485 . S
C175 H179 0.960 . S
C175 H180 0.961 . S
C175 H181 0.960 . S
C176 N174 1.346 . S
C176 N177 1.307 . S
C176 C178 1.486 . S
N177 N173 1.370 . S
N177 C176 1.307 . S
C178 C176 1.486 . S
C178 H182 0.960 . S
C178 H183 0.960 . S
C178 H184 0.959 . S
H179 C175 0.960 . S
H180 C175 0.961 . S
H181 C175 0.960 . S
H182 C178 0.960 . S
H183 C178 0.960 . S
H184 C178 0.959 . S
C185 N186 1.317 . S
C185 N187 1.348 . S
C185 C188 1.485 . S
N186 C185 1.317 . S
N186 N190 1.370 . S
N187 C185 1.348 . S
N187 C189 1.346 . S
C188 C185 1.485 . S
C188 H192 0.960 . S
C188 H193 0.961 . S
C188 H194 0.960 . S
C189 N187 1.346 . S
C189 N190 1.307 . S
C189 C191 1.486 . S
N190 N186 1.370 . S
N190 C189 1.307 . S
C191 C189 1.486 . S
C191 H195 0.960 . S
C191 H196 0.960 . S
C191 H197 0.959 . S
H192 C188 0.960 . S
H193 C188 0.961 . S
H194 C188 0.960 . S
H195 C191 0.960 . S
H196 C191 0.960 . S
H197 C191 0.959 . S
H198 C206 0.929 . S
H199 C208 0.930 . S
H200 C210 0.930 . S
H201 C213 0.929 . S
H202 C216 0.930 . S
H203 C218 0.960 . S
H204 C218 0.960 . S
H205 C218 0.960 . S
C206 H198 0.929 . S
C206 C207 1.377 . S
C206 C208 1.384 . S
C207 C206 1.377 . S
C207 C213 1.390 . S
C208 H199 0.930 . S
C208 C206 1.384 . S
C208 C209 1.372 . S
C209 C208 1.372 . S
C209 C210 1.400 . S
C209 C214 1.490 . S
C210 H200 0.930 . S
C210 C209 1.400 . S
C210 C213 1.386 . S
H211 C227 0.930 . S
H212 C228 0.931 . S
C213 H201 0.929 . S
C213 C207 1.390 . S
C213 C210 1.386 . S
C214 C209 1.490 . S
C214 C216 1.395 . S
C214 C217 1.403 . S
H215 C221 0.930 . S
C216 H202 0.930 . S
C216 C214 1.395 . S
C216 C219 1.403 . S
C217 C214 1.403 . S
C217 C218 1.524 . S
C217 C221 1.400 . S
C218 H203 0.960 . S
C218 H204 0.960 . S
C218 H205 0.960 . S
C218 C217 1.524 . S
C219 C216 1.403 . S
C219 C220 1.392 . S
C219 C223 1.495 . S
C220 C219 1.392 . S
C220 C221 1.385 . S
C220 C222 1.478 . S
C221 H215 0.930 . S
C221 C217 1.400 . S
C221 C220 1.385 . S
C222 C220 1.478 . S
C222 C224 1.381 . S
C222 C228 1.383 . S
C223 C219 1.495 . S
C223 H229 0.959 . S
C223 H230 0.961 . S
C223 H231 0.960 . S
C224 C222 1.381 . S
C224 C225 1.394 . S
C224 H232 0.930 . S
C225 C224 1.394 . S
C225 C226 1.383 . S
C225 H233 0.929 . S
C226 C225 1.383 . S
C226 C227 1.377 . S
C227 H211 0.930 . S
C227 C226 1.377 . S
C227 C228 1.379 . S
C228 H212 0.931 . S
C228 C222 1.383 . S
C228 C227 1.379 . S
H229 C223 0.959 . S
H230 C223 0.961 . S
H231 C223 0.960 . S
H232 C224 0.930 . S
H233 C225 0.929 . S
H234 C242 0.929 . S
H235 C244 0.930 . S
H236 C246 0.930 . S
H237 C249 0.929 . S
H238 C252 0.930 . S
H239 C254 0.960 . S
H240 C254 0.960 . S
H241 C254 0.960 . S
C242 H234 0.929 . S
C242 C243 1.377 . S
C242 C244 1.384 . S
C243 C242 1.377 . S
C243 C249 1.390 . S
C244 H235 0.930 . S
C244 C242 1.384 . S
C244 C245 1.372 . S
C245 C244 1.372 . S
C245 C246 1.400 . S
C245 C250 1.490 . S
C246 H236 0.930 . S
C246 C245 1.400 . S
C246 C249 1.386 . S
H247 C263 0.930 . S
H248 C264 0.931 . S
C249 H237 0.929 . S
C249 C243 1.390 . S
C249 C246 1.386 . S
C250 C245 1.490 . S
C250 C252 1.395 . S
C250 C253 1.403 . S
H251 C257 0.930 . S
C252 H238 0.930 . S
C252 C250 1.395 . S
C252 C255 1.403 . S
C253 C250 1.403 . S
C253 C254 1.524 . S
C253 C257 1.400 . S
C254 H239 0.960 . S
C254 H240 0.960 . S
C254 H241 0.960 . S
C254 C253 1.524 . S
C255 C252 1.403 . S
C255 C256 1.392 . S
C255 C259 1.495 . S
C256 C255 1.392 . S
C256 C257 1.385 . S
C256 C258 1.478 . S
C257 H251 0.930 . S
C257 C253 1.400 . S
C257 C256 1.385 . S
C258 C256 1.478 . S
C258 C260 1.381 . S
C258 C264 1.383 . S
C259 C255 1.495 . S
C259 H265 0.959 . S
C259 H266 0.961 . S
C259 H267 0.960 . S
C260 C258 1.381 . S
C260 C261 1.394 . S
C260 H268 0.930 . S
C261 C260 1.394 . S
C261 C262 1.383 1_655 S
C261 H269 0.929 . S
C262 C261 1.383 1_455 S
C262 C263 1.377 . S
C263 H247 0.930 . S
C263 C262 1.377 . S
C263 C264 1.379 1_455 S
C264 H248 0.931 . S
C264 C258 1.383 . S
C264 C263 1.379 1_655 S
H265 C259 0.959 . S
H266 C259 0.961 . S
H267 C259 0.960 . S
H268 C260 0.930 . S
H269 C261 0.929 . S
H270 C278 0.929 . S
H271 C280 0.930 . S
H272 C282 0.930 . S
H273 C285 0.929 . S
H274 C288 0.930 . S
H275 C290 0.960 . S
H276 C290 0.960 . S
H277 C290 0.960 . S
C278 H270 0.929 . S
C278 C279 1.377 . S
C278 C280 1.384 . S
C279 C278 1.377 . S
C279 C285 1.390 . S
C280 H271 0.930 . S
C280 C278 1.384 . S
C280 C281 1.372 . S
C281 C280 1.372 . S
C281 C282 1.400 . S
C281 C286 1.490 . S
C282 H272 0.930 . S
C282 C281 1.400 . S
C282 C285 1.386 . S
H283 C299 0.930 . S
H284 C300 0.931 . S
C285 H273 0.929 . S
C285 C279 1.390 . S
C285 C282 1.386 . S
C286 C281 1.490 . S
C286 C288 1.395 . S
C286 C289 1.403 . S
H287 C293 0.930 . S
C288 H274 0.930 . S
C288 C286 1.395 . S
C288 C291 1.403 . S
C289 C286 1.403 . S
C289 C290 1.524 . S
C289 C293 1.400 . S
C290 H275 0.960 . S
C290 H276 0.960 . S
C290 H277 0.960 . S
C290 C289 1.524 . S
C291 C288 1.403 . S
C291 C292 1.392 . S
C291 C295 1.495 . S
C292 C291 1.392 . S
C292 C293 1.385 . S
C292 C294 1.478 . S
C293 H287 0.930 . S
C293 C289 1.400 . S
C293 C292 1.385 . S
C294 C292 1.478 . S
C294 C296 1.381 . S
C294 C300 1.383 . S
C295 C291 1.495 . S
C295 H301 0.959 . S
C295 H302 0.961 . S
C295 H303 0.960 . S
C296 C294 1.381 . S
C296 C297 1.394 . S
C296 H304 0.930 . S
C297 C296 1.394 . S
C297 C298 1.383 . S
C297 H305 0.929 . S
C298 C297 1.383 . S
C298 C299 1.377 . S
C299 H283 0.930 . S
C299 C298 1.377 . S
C299 C300 1.379 . S
C300 H284 0.931 . S
C300 C294 1.383 . S
C300 C299 1.379 . S
H301 C295 0.959 . S
H302 C295 0.961 . S
H303 C295 0.960 . S
H304 C296 0.930 . S
H305 C297 0.929 . S
H306 C314 0.929 . S
H307 C316 0.930 . S
H308 C318 0.930 . S
H309 C321 0.929 . S
H310 C324 0.930 . S
H311 C326 0.960 . S
H312 C326 0.960 . S
H313 C326 0.960 . S
C314 H306 0.929 . S
C314 C315 1.377 . S
C314 C316 1.384 . S
C315 C314 1.377 . S
C315 C321 1.390 . S
C316 H307 0.930 . S
C316 C314 1.384 . S
C316 C317 1.372 . S
C317 C316 1.372 . S
C317 C318 1.400 . S
C317 C322 1.490 . S
C318 H308 0.930 . S
C318 C317 1.400 . S
C318 C321 1.386 . S
H319 C335 0.930 . S
H320 C336 0.931 . S
C321 H309 0.929 . S
C321 C315 1.390 . S
C321 C318 1.386 . S
C322 C317 1.490 . S
C322 C324 1.395 . S
C322 C325 1.403 . S
H323 C329 0.930 . S
C324 H310 0.930 . S
C324 C322 1.395 . S
C324 C327 1.403 . S
C325 C322 1.403 . S
C325 C326 1.524 . S
C325 C329 1.400 . S
C326 H311 0.960 . S
C326 H312 0.960 . S
C326 H313 0.960 . S
C326 C325 1.524 . S
C327 C324 1.403 . S
C327 C328 1.392 . S
C327 C331 1.495 . S
C328 C327 1.392 . S
C328 C329 1.385 . S
C328 C330 1.478 . S
C329 H323 0.930 . S
C329 C325 1.400 . S
C329 C328 1.385 . S
C330 C328 1.478 . S
C330 C332 1.381 . S
C330 C336 1.383 . S
C331 C327 1.495 . S
C331 H337 0.959 . S
C331 H338 0.961 . S
C331 H339 0.960 . S
C332 C330 1.381 . S
C332 C333 1.394 . S
C332 H340 0.930 . S
C333 C332 1.394 . S
C333 C334 1.383 . S
C333 H341 0.929 . S
C334 C333 1.383 . S
C334 C335 1.377 . S
C335 H319 0.930 . S
C335 C334 1.377 . S
C335 C336 1.379 . S
C336 H320 0.931 . S
C336 C330 1.383 . S
C336 C335 1.379 . S
H337 C331 0.959 . S
H338 C331 0.961 . S
H339 C331 0.960 . S
H340 C332 0.930 . S
H341 C333 0.929 . S
H342 C350 0.929 . S
H343 C352 0.930 . S
H344 C354 0.930 . S
H345 C357 0.929 . S
H346 C360 0.930 . S
H347 C362 0.960 . S
H348 C362 0.960 . S
H349 C362 0.960 . S
C350 H342 0.929 . S
C350 C351 1.377 . S
C350 C352 1.384 . S
C351 C350 1.377 . S
C351 C357 1.390 . S
C352 H343 0.930 . S
C352 C350 1.384 . S
C352 C353 1.372 . S
C353 C352 1.372 . S
C353 C354 1.400 . S
C353 C358 1.490 . S
C354 H344 0.930 . S
C354 C353 1.400 . S
C354 C357 1.386 . S
H355 C371 0.930 . S
H356 C372 0.931 . S
C357 H345 0.929 . S
C357 C351 1.390 . S
C357 C354 1.386 . S
C358 C353 1.490 . S
C358 C360 1.395 . S
C358 C361 1.403 . S
H359 C365 0.930 . S
C360 H346 0.930 . S
C360 C358 1.395 . S
C360 C363 1.403 . S
C361 C358 1.403 . S
C361 C362 1.524 . S
C361 C365 1.400 . S
C362 H347 0.960 . S
C362 H348 0.960 . S
C362 H349 0.960 . S
C362 C361 1.524 . S
C363 C360 1.403 . S
C363 C364 1.392 . S
C363 C367 1.495 . S
C364 C363 1.392 . S
C364 C365 1.385 . S
C364 C366 1.478 . S
C365 H359 0.930 . S
C365 C361 1.400 . S
C365 C364 1.385 . S
C366 C364 1.478 . S
C366 C368 1.381 . S
C366 C372 1.383 . S
C367 C363 1.495 . S
C367 H373 0.959 . S
C367 H374 0.961 . S
C367 H375 0.960 . S
C368 C366 1.381 . S
C368 C369 1.394 . S
C368 H376 0.930 . S
C369 C368 1.394 . S
C369 C370 1.383 . S
C369 H377 0.929 . S
C370 C369 1.383 . S
C370 C371 1.377 . S
C371 H355 0.930 . S
C371 C370 1.377 . S
C371 C372 1.379 . S
C372 H356 0.931 . S
C372 C366 1.383 . S
C372 C371 1.379 . S
H373 C367 0.959 . S
H374 C367 0.961 . S
H375 C367 0.960 . S
H376 C368 0.930 . S
H377 C369 0.929 . S
H378 C386 0.929 . S
H379 C388 0.930 . S
H380 C390 0.930 . S
H381 C393 0.929 . S
H382 C396 0.930 . S
H383 C398 0.960 . S
H384 C398 0.960 . S
H385 C398 0.960 . S
C386 H378 0.929 . S
C386 C387 1.377 . S
C386 C388 1.384 . S
C387 C386 1.377 . S
C387 C393 1.390 . S
C388 H379 0.930 . S
C388 C386 1.384 . S
C388 C389 1.372 . S
C389 C388 1.372 . S
C389 C390 1.400 . S
C389 C394 1.490 . S
C390 H380 0.930 . S
C390 C389 1.400 . S
C390 C393 1.386 . S
H391 C407 0.930 . S
H392 C408 0.931 . S
C393 H381 0.929 . S
C393 C387 1.390 . S
C393 C390 1.386 . S
C394 C389 1.490 . S
C394 C396 1.395 . S
C394 C397 1.403 . S
H395 C401 0.930 . S
C396 H382 0.930 . S
C396 C394 1.395 . S
C396 C399 1.403 . S
C397 C394 1.403 . S
C397 C398 1.524 . S
C397 C401 1.400 . S
C398 H383 0.960 . S
C398 H384 0.960 . S
C398 H385 0.960 . S
C398 C397 1.524 . S
C399 C396 1.403 . S
C399 C400 1.392 . S
C399 C403 1.495 . S
C400 C399 1.392 . S
C400 C401 1.385 . S
C400 C402 1.478 . S
C401 H395 0.930 . S
C401 C397 1.400 . S
C401 C400 1.385 . S
C402 C400 1.478 . S
C402 C404 1.381 . S
C402 C408 1.383 . S
C403 C399 1.495 . S
C403 H409 0.959 . S
C403 H410 0.961 . S
C403 H411 0.960 . S
C404 C402 1.381 . S
C404 C405 1.394 . S
C404 H412 0.930 . S
C405 C404 1.394 . S
C405 C406 1.383 . S
C405 H413 0.929 . S
C406 C405 1.383 . S
C406 C407 1.377 . S
C407 H391 0.930 . S
C407 C406 1.377 . S
C407 C408 1.379 . S
C408 H392 0.931 . S
C408 C402 1.383 . S
C408 C407 1.379 . S
H409 C403 0.959 . S
H410 C403 0.961 . S
H411 C403 0.960 . S
H412 C404 0.930 . S
H413 C405 0.929 . S
H414 C422 0.929 . S
H415 C424 0.930 . S
H416 C426 0.930 . S
H417 C429 0.929 . S
H418 C432 0.930 . S
H419 C434 0.960 . S
H420 C434 0.960 . S
H421 C434 0.960 . S
C422 H414 0.929 . S
C422 C423 1.377 . S
C422 C424 1.384 . S
C423 C422 1.377 . S
C423 C429 1.390 . S
C424 H415 0.930 . S
C424 C422 1.384 . S
C424 C425 1.372 . S
C425 C424 1.372 . S
C425 C426 1.400 . S
C425 C430 1.490 . S
C426 H416 0.930 . S
C426 C425 1.400 . S
C426 C429 1.386 . S
H427 C443 0.930 . S
H428 C444 0.931 . S
C429 H417 0.929 . S
C429 C423 1.390 . S
C429 C426 1.386 . S
C430 C425 1.490 . S
C430 C432 1.395 . S
C430 C433 1.403 . S
H431 C437 0.930 . S
C432 H418 0.930 . S
C432 C430 1.395 . S
C432 C435 1.403 . S
C433 C430 1.403 . S
C433 C434 1.524 . S
C433 C437 1.400 . S
C434 H419 0.960 . S
C434 H420 0.960 . S
C434 H421 0.960 . S
C434 C433 1.524 . S
C435 C432 1.403 . S
C435 C436 1.392 . S
C435 C439 1.495 . S
C436 C435 1.392 . S
C436 C437 1.385 . S
C436 C438 1.478 . S
C437 H431 0.930 . S
C437 C433 1.400 . S
C437 C436 1.385 . S
C438 C436 1.478 . S
C438 C440 1.381 . S
C438 C444 1.383 . S
C439 C435 1.495 . S
C439 H445 0.959 . S
C439 H446 0.961 . S
C439 H447 0.960 . S
C440 C438 1.381 . S
C440 C441 1.394 . S
C440 H448 0.930 . S
C441 C440 1.394 . S
C441 C442 1.383 . S
C441 H449 0.929 . S
C442 C441 1.383 . S
C442 C443 1.377 . S
C443 H427 0.930 . S
C443 C442 1.377 . S
C443 C444 1.379 . S
C444 H428 0.931 . S
C444 C438 1.383 . S
C444 C443 1.379 . S
H445 C439 0.959 . S
H446 C439 0.961 . S
H447 C439 0.960 . S
H448 C440 0.930 . S
H449 C441 0.929 . S
H450 C458 0.929 . S
H451 C460 0.930 . S
H452 C462 0.930 . S
H453 C465 0.929 . S
H454 C468 0.930 . S
H455 C470 0.960 . S
H456 C470 0.960 . S
H457 C470 0.960 . S
C458 H450 0.929 . S
C458 C459 1.377 . S
C458 C460 1.384 . S
C459 C458 1.377 . S
C459 C465 1.390 . S
C460 H451 0.930 . S
C460 C458 1.384 . S
C460 C461 1.372 . S
C461 C460 1.372 . S
C461 C462 1.400 . S
C461 C466 1.490 . S
C462 H452 0.930 . S
C462 C461 1.400 . S
C462 C465 1.386 . S
H463 C479 0.930 . S
H464 C480 0.931 . S
C465 H453 0.929 . S
C465 C459 1.390 . S
C465 C462 1.386 . S
C466 C461 1.490 . S
C466 C468 1.395 . S
C466 C469 1.403 . S
H467 C473 0.930 . S
C468 H454 0.930 . S
C468 C466 1.395 . S
C468 C471 1.403 . S
C469 C466 1.403 . S
C469 C470 1.524 . S
C469 C473 1.400 . S
C470 H455 0.960 . S
C470 H456 0.960 . S
C470 H457 0.960 . S
C470 C469 1.524 . S
C471 C468 1.403 . S
C471 C472 1.392 . S
C471 C475 1.495 . S
C472 C471 1.392 . S
C472 C473 1.385 . S
C472 C474 1.478 . S
C473 H467 0.930 . S
C473 C469 1.400 . S
C473 C472 1.385 . S
C474 C472 1.478 . S
C474 C476 1.381 . S
C474 C480 1.383 . S
C475 C471 1.495 . S
C475 H481 0.959 . S
C475 H482 0.961 . S
C475 H483 0.960 . S
C476 C474 1.381 . S
C476 C477 1.394 . S
C476 H484 0.930 . S
C477 C476 1.394 . S
C477 C478 1.383 . S
C477 H485 0.929 . S
C478 C477 1.383 . S
C478 C479 1.377 . S
C479 H463 0.930 . S
C479 C478 1.377 . S
C479 C480 1.379 . S
C480 H464 0.931 . S
C480 C474 1.383 . S
C480 C479 1.379 . S
H481 C475 0.959 . S
H482 C475 0.961 . S
H483 C475 0.960 . S
H484 C476 0.930 . S
H485 C477 0.929 . S
H486 C494 0.929 . S
H487 C496 0.930 . S
H488 C498 0.930 . S
H489 C501 0.929 . S
H490 C504 0.930 . S
H491 C506 0.960 . S
H492 C506 0.960 . S
H493 C506 0.960 . S
C494 H486 0.929 . S
C494 C495 1.377 . S
C494 C496 1.384 . S
C495 C494 1.377 . S
C495 C501 1.390 . S
C496 H487 0.930 . S
C496 C494 1.384 . S
C496 C497 1.372 . S
C497 C496 1.372 . S
C497 C498 1.400 . S
C497 C502 1.490 . S
C498 H488 0.930 . S
C498 C497 1.400 . S
C498 C501 1.386 . S
H499 C515 0.930 . S
H500 C516 0.931 . S
C501 H489 0.929 . S
C501 C495 1.390 . S
C501 C498 1.386 . S
C502 C497 1.490 . S
C502 C504 1.395 . S
C502 C505 1.403 . S
H503 C509 0.930 . S
C504 H490 0.930 . S
C504 C502 1.395 . S
C504 C507 1.403 . S
C505 C502 1.403 . S
C505 C506 1.524 . S
C505 C509 1.400 . S
C506 H491 0.960 . S
C506 H492 0.960 . S
C506 H493 0.960 . S
C506 C505 1.524 . S
C507 C504 1.403 . S
C507 C508 1.392 . S
C507 C511 1.495 . S
C508 C507 1.392 . S
C508 C509 1.385 . S
C508 C510 1.478 . S
C509 H503 0.930 . S
C509 C505 1.400 . S
C509 C508 1.385 . S
C510 C508 1.478 . S
C510 C512 1.381 . S
C510 C516 1.383 . S
C511 C507 1.495 . S
C511 H517 0.959 . S
C511 H518 0.961 . S
C511 H519 0.960 . S
C512 C510 1.381 . S
C512 C513 1.394 . S
C512 H520 0.930 . S
C513 C512 1.394 . S
C513 C514 1.383 . S
C513 H521 0.929 . S
C514 C513 1.383 . S
C514 C515 1.377 . S
C515 H499 0.930 . S
C515 C514 1.377 . S
C515 C516 1.379 . S
C516 H500 0.931 . S
C516 C510 1.383 . S
C516 C515 1.379 . S
H517 C511 0.959 . S
H518 C511 0.961 . S
H519 C511 0.960 . S
H520 C512 0.930 . S
H521 C513 0.929 . S
H522 C530 0.929 . S
H523 C532 0.930 . S
H524 C534 0.930 . S
H525 C537 0.929 . S
H526 C540 0.930 . S
H527 C542 0.960 . S
H528 C542 0.960 . S
H529 C542 0.960 . S
C530 H522 0.929 . S
C530 C531 1.377 . S
C530 C532 1.384 . S
C531 C530 1.377 . S
C531 C537 1.390 . S
C532 H523 0.930 . S
C532 C530 1.384 . S
C532 C533 1.372 . S
C533 C532 1.372 . S
C533 C534 1.400 . S
C533 C538 1.490 . S
C534 H524 0.930 . S
C534 C533 1.400 . S
C534 C537 1.386 . S
H535 C551 0.930 . S
H536 C552 0.931 . S
C537 H525 0.929 . S
C537 C531 1.390 . S
C537 C534 1.386 . S
C538 C533 1.490 . S
C538 C540 1.395 . S
C538 C541 1.403 . S
H539 C545 0.930 . S
C540 H526 0.930 . S
C540 C538 1.395 . S
C540 C543 1.403 . S
C541 C538 1.403 . S
C541 C542 1.524 . S
C541 C545 1.400 . S
C542 H527 0.960 . S
C542 H528 0.960 . S
C542 H529 0.960 . S
C542 C541 1.524 . S
C543 C540 1.403 . S
C543 C544 1.392 . S
C543 C547 1.495 . S
C544 C543 1.392 . S
C544 C545 1.385 . S
C544 C546 1.478 . S
C545 H539 0.930 . S
C545 C541 1.400 . S
C545 C544 1.385 . S
C546 C544 1.478 . S
C546 C548 1.381 . S
C546 C552 1.383 . S
C547 C543 1.495 . S
C547 H553 0.959 . S
C547 H554 0.961 . S
C547 H555 0.960 . S
C548 C546 1.381 . S
C548 C549 1.394 . S
C548 H556 0.930 . S
C549 C548 1.394 . S
C549 C550 1.383 . S
C549 H557 0.929 . S
C550 C549 1.383 . S
C550 C551 1.377 . S
C551 H535 0.930 . S
C551 C550 1.377 . S
C551 C552 1.379 . S
C552 H536 0.931 . S
C552 C546 1.383 . S
C552 C551 1.379 . S
H553 C547 0.959 . S
H554 C547 0.961 . S
H555 C547 0.960 . S
H556 C548 0.930 . S
H557 C549 0.929 . S
H558 C566 0.929 . S
H559 C568 0.930 . S
H560 C570 0.930 . S
H561 C573 0.929 . S
H562 C576 0.930 . S
H563 C578 0.960 . S
H564 C578 0.960 . S
H565 C578 0.960 . S
C566 H558 0.929 . S
C566 C567 1.377 . S
C566 C568 1.384 . S
C567 C566 1.377 . S
C567 C573 1.390 . S
C568 H559 0.930 . S
C568 C566 1.384 . S
C568 C569 1.372 . S
C569 C568 1.372 . S
C569 C570 1.400 . S
C569 C574 1.490 . S
C570 H560 0.930 . S
C570 C569 1.400 . S
C570 C573 1.386 . S
H571 C587 0.930 . S
H572 C588 0.931 . S
C573 H561 0.929 . S
C573 C567 1.390 . S
C573 C570 1.386 . S
C574 C569 1.490 . S
C574 C576 1.395 . S
C574 C577 1.403 . S
H575 C581 0.930 . S
C576 H562 0.930 . S
C576 C574 1.395 . S
C576 C579 1.403 . S
C577 C574 1.403 . S
C577 C578 1.524 . S
C577 C581 1.400 . S
C578 H563 0.960 . S
C578 H564 0.960 . S
C578 H565 0.960 . S
C578 C577 1.524 . S
C579 C576 1.403 . S
C579 C580 1.392 . S
C579 C583 1.495 . S
C580 C579 1.392 . S
C580 C581 1.385 . S
C580 C582 1.478 . S
C581 H575 0.930 . S
C581 C577 1.400 . S
C581 C580 1.385 . S
C582 C580 1.478 . S
C582 C584 1.381 . S
C582 C588 1.383 . S
C583 C579 1.495 . S
C583 H589 0.959 . S
C583 H590 0.961 . S
C583 H591 0.960 . S
C584 C582 1.381 . S
C584 C585 1.394 . S
C584 H592 0.930 . S
C585 C584 1.394 . S
C585 C586 1.383 . S
C585 H593 0.929 . S
C586 C585 1.383 . S
C586 C587 1.377 . S
C587 H571 0.930 . S
C587 C586 1.377 . S
C587 C588 1.379 . S
C588 H572 0.931 . S
C588 C582 1.383 . S
C588 C587 1.379 . S
H589 C583 0.959 . S
H590 C583 0.961 . S
H591 C583 0.960 . S
H592 C584 0.930 . S
H593 C585 0.929 . S
H594 C602 0.929 . S
H595 C604 0.930 . S
H596 C606 0.930 . S
H597 C609 0.929 . S
H598 C612 0.930 . S
H599 C614 0.960 . S
H600 C614 0.960 . S
H601 C614 0.960 . S
C602 H594 0.929 . S
C602 C603 1.377 . S
C602 C604 1.384 . S
C603 C602 1.377 . S
C603 C609 1.390 . S
C604 H595 0.930 . S
C604 C602 1.384 . S
C604 C605 1.372 . S
C605 C604 1.372 . S
C605 C606 1.400 . S
C605 C610 1.490 . S
C606 H596 0.930 . S
C606 C605 1.400 . S
C606 C609 1.386 . S
H607 C623 0.930 . S
H608 C624 0.931 . S
C609 H597 0.929 . S
C609 C603 1.390 . S
C609 C606 1.386 . S
C610 C605 1.490 . S
C610 C612 1.395 . S
C610 C613 1.403 . S
H611 C617 0.930 . S
C612 H598 0.930 . S
C612 C610 1.395 . S
C612 C615 1.403 . S
C613 C610 1.403 . S
C613 C614 1.524 . S
C613 C617 1.400 . S
C614 H599 0.960 . S
C614 H600 0.960 . S
C614 H601 0.960 . S
C614 C613 1.524 . S
C615 C612 1.403 . S
C615 C616 1.392 . S
C615 C619 1.495 . S
C616 C615 1.392 . S
C616 C617 1.385 . S
C616 C618 1.478 . S
C617 H611 0.930 . S
C617 C613 1.400 . S
C617 C616 1.385 . S
C618 C616 1.478 . S
C618 C620 1.381 . S
C618 C624 1.383 . S
C619 C615 1.495 . S
C619 H625 0.959 . S
C619 H626 0.961 . S
C619 H627 0.960 . S
C620 C618 1.381 . S
C620 C621 1.394 . S
C620 H628 0.930 . S
C621 C620 1.394 . S
C621 C622 1.383 . S
C621 H629 0.929 . S
C622 C621 1.383 . S
C622 C623 1.377 . S
C623 H607 0.930 . S
C623 C622 1.377 . S
C623 C624 1.379 . S
C624 H608 0.931 . S
C624 C618 1.383 . S
C624 C623 1.379 . S
H625 C619 0.959 . S
H626 C619 0.961 . S
H627 C619 0.960 . S
H628 C620 0.930 . S
H629 C621 0.929 . S
H630 C638 0.929 . S
H631 C640 0.930 . S
H632 C642 0.930 . S
H633 C645 0.929 . S
H634 C648 0.930 . S
H635 C650 0.960 . S
H636 C650 0.960 . S
H637 C650 0.960 . S
C638 H630 0.929 . S
C638 C639 1.377 . S
C638 C640 1.384 . S
C639 C638 1.377 . S
C639 C645 1.390 . S
C640 H631 0.930 . S
C640 C638 1.384 . S
C640 C641 1.372 . S
C641 C640 1.372 . S
C641 C642 1.400 . S
C641 C646 1.490 . S
C642 H632 0.930 . S
C642 C641 1.400 . S
C642 C645 1.386 . S
H643 C659 0.930 . S
H644 C660 0.931 . S
C645 H633 0.929 . S
C645 C639 1.390 . S
C645 C642 1.386 . S
C646 C641 1.490 . S
C646 C648 1.395 1_455 S
C646 C649 1.403 . S
H647 C653 0.943 . S
C648 H634 0.930 . S
C648 C646 1.395 1_655 S
C648 C651 1.403 1_554 S
C649 C646 1.403 . S
C649 C650 1.524 . S
C649 C653 1.374 1_554 S
C650 H635 0.960 . S
C650 H636 0.960 . S
C650 H637 0.960 . S
C650 C649 1.524 . S
C651 C648 1.403 1_556 S
C651 C652 1.392 1_655 S
C651 C655 1.495 . S
C652 C651 1.392 1_455 S
C652 C653 1.399 . S
C652 C654 1.478 . S
C653 H647 0.943 . S
C653 C649 1.374 1_556 S
C653 C652 1.399 . S
C654 C652 1.478 . S
C654 C656 1.381 . S
C654 C660 1.383 . S
C655 C651 1.495 . S
C655 H661 0.959 . S
C655 H662 0.961 . S
C655 H663 0.960 . S
C656 C654 1.381 . S
C656 C657 1.394 . S
C656 H664 0.930 . S
C657 C656 1.394 . S
C657 C658 1.383 . S
C657 H665 0.929 . S
C658 C657 1.383 . S
C658 C659 1.377 . S
C659 H643 0.930 . S
C659 C658 1.377 . S
C659 C660 1.379 . S
C660 H644 0.931 . S
C660 C654 1.383 . S
C660 C659 1.379 . S
H661 C655 0.959 . S
H662 C655 0.961 . S
H663 C655 0.960 . S
H664 C656 0.930 . S
H665 C657 0.929 . S
H666 C674 0.929 . S
H667 C676 0.930 . S
H668 C678 0.930 . S
H669 C681 0.929 . S
H670 C684 0.930 . S
H671 C686 0.960 . S
H672 C686 0.960 . S
H673 C686 0.960 . S
C674 H666 0.929 . S
C674 C675 1.377 . S
C674 C676 1.384 . S
C675 C674 1.377 . S
C675 C681 1.390 . S
C676 H667 0.930 . S
C676 C674 1.384 . S
C676 C677 1.372 . S
C677 C676 1.372 . S
C677 C678 1.400 . S
C677 C682 1.490 . S
C678 H668 0.930 . S
C678 C677 1.400 . S
C678 C681 1.386 . S
H679 C695 0.930 . S
H680 C696 0.931 . S
C681 H669 0.929 . S
C681 C675 1.390 . S
C681 C678 1.386 . S
C682 C677 1.490 . S
C682 C684 1.395 . S
C682 C685 1.403 . S
H683 C689 0.930 1_565 S
C684 H670 0.930 . S
C684 C682 1.395 . S
C684 C687 1.403 . S
C685 C682 1.403 . S
C685 C686 1.524 1_545 S
C685 C689 1.400 . S
C686 H671 0.960 . S
C686 H672 0.960 . S
C686 H673 0.960 . S
C686 C685 1.524 1_565 S
C687 C684 1.403 . S
C687 C688 1.392 . S
C687 C691 1.495 . S
C688 C687 1.392 . S
C688 C689 1.385 . S
C688 C690 1.478 . S
C689 H683 0.930 1_545 S
C689 C685 1.400 . S
C689 C688 1.385 . S
C690 C688 1.478 . S
C690 C692 1.381 . S
C690 C696 1.383 . S
C691 C687 1.495 . S
C691 H697 0.959 . S
C691 H698 0.961 . S
C691 H699 0.960 . S
C692 C690 1.381 . S
C692 C693 1.394 . S
C692 H700 0.930 . S
C693 C692 1.394 . S
C693 C694 1.383 . S
C693 H701 0.929 . S
C694 C693 1.383 . S
C694 C695 1.377 . S
C695 H679 0.930 . S
C695 C694 1.377 . S
C695 C696 1.379 . S
C696 H680 0.931 . S
C696 C690 1.383 . S
C696 C695 1.379 . S
H697 C691 0.959 . S
H698 C691 0.961 . S
H699 C691 0.960 . S
H700 C692 0.930 . S
H701 C693 0.929 . S
H702 C710 0.929 . S
H703 C712 0.930 . S
H704 C714 0.930 . S
H705 C717 0.929 . S
H706 C720 0.930 . S
H707 C722 0.960 . S
H708 C722 0.960 . S
H709 C722 0.960 . S
C710 H702 0.929 . S
C710 C711 1.377 . S
C710 C712 1.384 . S
C711 C710 1.377 . S
C711 C717 1.390 . S
C712 H703 0.930 . S
C712 C710 1.384 . S
C712 C713 1.372 . S
C713 C712 1.372 . S
C713 C714 1.400 . S
C713 C718 1.490 . S
C714 H704 0.930 . S
C714 C713 1.400 . S
C714 C717 1.386 . S
H715 C731 0.930 . S
H716 C732 0.931 . S
C717 H705 0.929 . S
C717 C711 1.390 . S
C717 C714 1.386 . S
C718 C713 1.490 . S
C718 C720 1.395 . S
C718 C721 1.403 . S
H719 C725 0.930 . S
C720 H706 0.930 . S
C720 C718 1.395 . S
C720 C723 1.403 . S
C721 C718 1.403 . S
C721 C722 1.524 . S
C721 C725 1.400 . S
C722 H707 0.960 . S
C722 H708 0.960 . S
C722 H709 0.960 . S
C722 C721 1.524 . S
C723 C720 1.403 . S
C723 C724 1.392 . S
C723 C727 1.495 . S
C724 C723 1.392 . S
C724 C725 1.385 . S
C724 C726 1.478 . S
C725 H719 0.930 . S
C725 C721 1.400 . S
C725 C724 1.385 . S
C726 C724 1.478 . S
C726 C728 1.381 . S
C726 C732 1.383 . S
C727 C723 1.495 . S
C727 H733 0.959 . S
C727 H734 0.961 . S
C727 H735 0.960 . S
C728 C726 1.381 . S
C728 C729 1.394 . S
C728 H736 0.930 . S
C729 C728 1.394 . S
C729 C730 1.383 . S
C729 H737 0.929 . S
C730 C729 1.383 . S
C730 C731 1.377 . S
C731 H715 0.930 . S
C731 C730 1.377 . S
C731 C732 1.379 . S
C732 H716 0.931 . S
C732 C726 1.383 . S
C732 C731 1.379 . S
H733 C727 0.959 . S
H734 C727 0.961 . S
H735 C727 0.960 . S
H736 C728 0.930 . S
H737 C729 0.929 . S
H738 C746 0.929 . S
H739 C748 0.930 . S
H740 C750 0.930 . S
H741 C753 0.929 . S
H742 C756 0.930 . S
H743 C758 0.960 . S
H744 C758 0.960 . S
H745 C758 0.960 . S
C746 H738 0.929 . S
C746 C747 1.377 1_565 S
C746 C748 1.384 . S
C747 C746 1.377 1_545 S
C747 C753 1.390 . S
C748 H739 0.930 . S
C748 C746 1.384 . S
C748 C749 1.372 1_565 S
C749 C748 1.372 1_545 S
C749 C750 1.400 . S
C749 C754 1.490 . S
C750 H740 0.930 . S
C750 C749 1.400 . S
C750 C753 1.386 . S
H751 C767 0.930 . S
H752 C768 0.931 . S
C753 H741 0.929 . S
C753 C747 1.390 . S
C753 C750 1.386 . S
C754 C749 1.490 . S
C754 C756 1.395 1_545 S
C754 C757 1.403 . S
H755 C761 0.930 . S
C756 H742 0.930 . S
C756 C754 1.395 1_565 S
C756 C759 1.403 . S
C757 C754 1.403 . S
C757 C758 1.524 . S
C757 C761 1.400 . S
C758 H743 0.960 . S
C758 H744 0.960 . S
C758 H745 0.960 . S
C758 C757 1.524 . S
C759 C756 1.403 . S
C759 C760 1.392 1_565 S
C759 C763 1.495 . S
C760 C759 1.392 1_545 S
C760 C761 1.385 . S
C760 C762 1.478 . S
C761 H755 0.930 . S
C761 C757 1.400 . S
C761 C760 1.385 . S
C762 C760 1.478 . S
C762 C764 1.381 1_545 S
C762 C768 1.383 . S
C763 C759 1.495 . S
C763 H769 0.959 . S
C763 H770 0.961 . S
C763 H771 0.960 . S
C764 C762 1.381 1_565 S
C764 C765 1.394 . S
C764 H772 0.930 . S
C765 C764 1.394 . S
C765 C766 1.383 1_565 S
C765 H773 0.929 . S
C766 C765 1.383 1_545 S
C766 C767 1.377 . S
C767 H751 0.930 . S
C767 C766 1.377 . S
C767 C768 1.379 . S
C768 H752 0.931 . S
C768 C762 1.383 . S
C768 C767 1.379 . S
H769 C763 0.959 . S
H770 C763 0.961 . S
H771 C763 0.960 . S
H772 C764 0.930 . S
H773 C765 0.929 . S
H774 C782 0.929 . S
H775 C784 0.930 . S
H776 C786 0.930 . S
H777 C789 0.929 . S
H778 C792 0.930 . S
H779 C794 0.960 . S
H780 C794 0.960 . S
H781 C794 0.960 . S
C782 H774 0.929 . S
C782 C783 1.377 . S
C782 C784 1.384 . S
C783 C782 1.377 . S
C783 C789 1.390 . S
C784 H775 0.930 . S
C784 C782 1.384 . S
C784 C785 1.372 . S
C785 C784 1.372 . S
C785 C786 1.400 . S
C785 C790 1.490 . S
C786 H776 0.930 . S
C786 C785 1.400 . S
C786 C789 1.386 . S
H787 C803 0.930 . S
H788 C804 0.931 . S
C789 H777 0.929 . S
C789 C783 1.390 . S
C789 C786 1.386 . S
C790 C785 1.490 . S
C790 C792 1.395 . S
C790 C793 1.403 . S
H791 C797 0.948 . S
C792 H778 0.930 . S
C792 C790 1.395 . S
C792 C795 1.403 . S
C793 C790 1.403 . S
C793 C794 1.524 . S
C793 C797 1.366 1_556 S
C794 H779 0.960 . S
C794 H780 0.960 . S
C794 H781 0.960 . S
C794 C793 1.524 . S
C795 C792 1.403 . S
C795 C796 1.392 1_556 S
C795 C799 1.495 1_556 S
C796 C795 1.392 1_554 S
C796 C797 1.403 . S
C796 C798 1.478 . S
C797 H791 0.948 . S
C797 C793 1.366 1_554 S
C797 C796 1.403 . S
C798 C796 1.478 . S
C798 C800 1.381 . S
C798 C804 1.383 . S
C799 C795 1.495 1_554 S
C799 H805 0.959 1_554 S
C799 H806 0.961 . S
C799 H807 0.960 . S
C800 C798 1.381 . S
C800 C801 1.394 . S
C800 H808 0.930 . S
C801 C800 1.394 . S
C801 C802 1.383 . S
C801 H809 0.929 . S
C802 C801 1.383 . S
C802 C803 1.377 . S
C803 H787 0.930 . S
C803 C802 1.377 . S
C803 C804 1.379 . S
C804 H788 0.931 . S
C804 C798 1.383 . S
C804 C803 1.379 . S
H805 C799 0.959 1_556 S
H806 C799 0.961 . S
H807 C799 0.960 . S
H808 C800 0.930 . S
H809 C801 0.929 . S
H810 C818 0.929 . S
H811 C820 0.930 . S
H812 C822 0.930 . S
H813 C825 0.929 . S
H814 C828 0.930 . S
H815 C830 0.960 . S
H816 C830 0.960 . S
H817 C830 0.960 . S
C818 H810 0.929 . S
C818 C819 1.377 . S
C818 C820 1.384 . S
C819 C818 1.377 . S
C819 C825 1.390 1_455 S
C820 H811 0.930 . S
C820 C818 1.384 . S
C820 C821 1.372 . S
C821 C820 1.372 . S
C821 C822 1.400 1_455 S
C821 C826 1.490 . S
C822 H812 0.930 . S
C822 C821 1.400 1_655 S
C822 C825 1.386 . S
H823 C839 0.930 . S
H824 C840 0.931 . S
C825 H813 0.929 . S
C825 C819 1.390 1_655 S
C825 C822 1.386 . S
C826 C821 1.490 . S
C826 C828 1.395 . S
C826 C829 1.403 1_455 S
H827 C833 0.930 . S
C828 H814 0.930 . S
C828 C826 1.395 . S
C828 C831 1.403 . S
C829 C826 1.403 1_655 S
C829 C830 1.524 . S
C829 C833 1.400 . S
C830 H815 0.960 . S
C830 H816 0.960 . S
C830 H817 0.960 . S
C830 C829 1.524 . S
C831 C828 1.403 . S
C831 C832 1.392 . S
C831 C835 1.495 . S
C832 C831 1.392 . S
C832 C833 1.385 1_455 S
C832 C834 1.478 . S
C833 H827 0.930 . S
C833 C829 1.400 . S
C833 C832 1.385 1_655 S
C834 C832 1.478 . S
C834 C836 1.381 . S
C834 C840 1.383 . S
C835 C831 1.495 . S
C835 H841 0.959 . S
C835 H842 0.961 . S
C835 H843 0.960 . S
C836 C834 1.381 . S
C836 C837 1.394 . S
C836 H844 0.930 . S
C837 C836 1.394 . S
C837 C838 1.383 . S
C837 H845 0.929 . S
C838 C837 1.383 . S
C838 C839 1.377 . S
C839 H823 0.930 . S
C839 C838 1.377 . S
C839 C840 1.379 . S
C840 H824 0.931 . S
C840 C834 1.383 . S
C840 C839 1.379 . S
H841 C835 0.959 . S
H842 C835 0.961 . S
H843 C835 0.960 . S
H844 C836 0.930 . S
H845 C837 0.929 . S
C207 C24 2.586 . S
C226 N187 2.555 . S
C243 C66 1.002 . S
C262 N160 1.025 . S
C279 C93 1.609 . S
C298 N173 1.612 1_565 S
C315 C13 3.336 . S
C334 N186 3.353 . S
C370 N161 1.289 . S
C351 C57 1.297 . S
C406 N174 1.919 . S
C387 C104 1.959 . S
C423 C64 1.785 . S
C442 N134 1.783 . S
C459 C97 0.240 . S
C478 N148 0.384 . S
C495 C17 1.283 . S
C514 N122 1.289 . S
C550 N135 1.783 . S
C531 C53 1.772 . S
C586 N147 0.432 . S
C567 C106 0.468 . S
C603 C26 1.024 . S
C622 N121 1.018 . S
C658 N151 1.236 . S
C639 C2 1.278 . S
C675 C63 1.536 . S
C694 N125 1.614 . S
C711 C82 1.451 . S
C730 N138 1.468 . S
C766 N177 1.567 . S
C747 C42 1.552 . S
C802 N190 1.708 . S
C783 C103 1.687 . S
C819 C23 1.516 . S
C838 N164 1.541 . S
