# Generated by pormake.
# Topology ftw, (4,12)-cn, num edge types: 1
# Building blocks:
#     Node 0, Type 0, BuildingBlock: MIFKUJ_clean_linker_1, # of connection points: 4
#     Node 1, Type 0, BuildingBlock: MIFKUJ_clean_linker_1, # of connection points: 4
#     Node 2, Type 0, BuildingBlock: MIFKUJ_clean_linker_1, # of connection points: 4
#     Node 3, Type 1, BuildingBlock: EZIPEK_clean_sbu_0, # of connection points: 12
#     Edge 4, Type (0, 1), BuildingBlock: MIFKUJ_clean_linker_0, # of connection points: 2
#     Edge 5, Type (0, 1), BuildingBlock: MIFKUJ_clean_linker_0, # of connection points: 2
#     Edge 6, Type (0, 1), BuildingBlock: MIFKUJ_clean_linker_0, # of connection points: 2
#     Edge 7, Type (0, 1), BuildingBlock: MIFKUJ_clean_linker_0, # of connection points: 2
#     Edge 8, Type (0, 1), BuildingBlock: MIFKUJ_clean_linker_0, # of connection points: 2
#     Edge 9, Type (0, 1), BuildingBlock: MIFKUJ_clean_linker_0, # of connection points: 2
#     Edge 10, Type (0, 1), BuildingBlock: MIFKUJ_clean_linker_0, # of connection points: 2
#     Edge 11, Type (0, 1), BuildingBlock: MIFKUJ_clean_linker_0, # of connection points: 2
#     Edge 12, Type (0, 1), BuildingBlock: MIFKUJ_clean_linker_0, # of connection points: 2
#     Edge 13, Type (0, 1), BuildingBlock: MIFKUJ_clean_linker_0, # of connection points: 2
#     Edge 14, Type (0, 1), BuildingBlock: MIFKUJ_clean_linker_0, # of connection points: 2
#     Edge 15, Type (0, 1), BuildingBlock: MIFKUJ_clean_linker_0, # of connection points: 2
# Relax obj value: 0.048
# Max RMSD: 0.168
# Mean RMSD: 0.128
data_MOF--net-ftw--node1-EZIPEK_clean_sbu_0--node2-MIFKUJ_clean_linker_1--edge1-MIFKUJ_clean_linker_0
_symmetry_space_group_name_H-M    P1
_symmetry_Int_Tables_number       1
_symmetry_cell_setting            triclinic
loop_
_symmetry_equiv_pos_as_xyz
'x, y, z'
_cell_length_a     33.616186
_cell_length_b     35.823371
_cell_length_c     34.224549
_cell_angle_alpha  89.951322
_cell_angle_beta   90.096373
_cell_angle_gamma 90.16303
loop_
_atom_site_label
_atom_site_type_symbol
_atom_site_fract_x
_atom_site_fract_y
_atom_site_fract_z
_atom_type_partial_charge
H0 H 0.05781 0.57528 0.58848 0.0
H1 H 0.05754 0.62634 0.63563 0.0
H2 H 0.94852 0.66793 0.58519 0.0
H3 H 0.9486 0.61631 0.53817 0.0
H4 H 0.00743 0.52204 0.58575 0.0
H5 H 0.04759 0.6163 0.49227 0.0
H6 H 0.04869 0.66884 0.44626 0.0
H7 H 0.93922 0.62926 0.39462 0.0
H8 H 0.93783 0.57735 0.44082 0.0
H9 H 0.93559 0.47051 0.4409 0.0
H10 H 0.93489 0.41926 0.39399 0.0
H11 H 0.04466 0.37759 0.44278 0.0
H12 H 0.04548 0.42934 0.48964 0.0
H13 H 0.987 0.5236 0.44266 0.0
H14 H 0.94621 0.43014 0.53746 0.0
H15 H 0.94577 0.3775 0.58329 0.0
H16 H 0.0575 0.41549 0.6316 0.0
H17 H 0.05787 0.46776 0.58585 0.0
C18 C 0.00326 0.5917 0.55952 0.0
C19 C 0.03398 0.59554 0.5872 0.0
C20 C 0.03369 0.6247 0.61437 0.0
C21 C 0.00276 0.65104 0.61457 0.0
C22 C 0.97292 0.64826 0.58575 0.0
C23 C 0.97304 0.61878 0.55866 0.0
C24 C 0.00084 0.55717 0.53504 0.0
C25 C 0.00364 0.52242 0.55426 0.0
C26 C -0.0057 0.55762 0.49406 0.0
C27 C -0.00742 0.59265 0.47026 0.0
C28 C 0.02327 0.61941 0.47174 0.0
C29 C 0.024 0.64939 0.44524 0.0
C30 C -0.00567 0.65299 0.41636 0.0
C31 C 0.96294 0.62697 0.41594 0.0
C32 C 0.96203 0.59733 0.44256 0.0
C33 C -0.00944 0.45401 0.46905 0.0
C34 C 0.95938 0.45018 0.44188 0.0
C35 C 0.9591 0.42091 0.41484 0.0
C36 C 0.98996 0.3945 0.41423 0.0
C37 C 0.0203 0.3973 0.44255 0.0
C38 C 0.0207 0.42686 0.46953 0.0
C39 C -0.00657 0.48858 0.4934 0.0
C40 C -0.00925 0.5233 0.47415 0.0
C41 C 0.00012 0.48814 0.53432 0.0
C42 C 0.00211 0.45309 0.55799 0.0
C43 C 0.97108 0.42668 0.55727 0.0
C44 C 0.9708 0.39659 0.58365 0.0
C45 C 0.00136 0.39246 0.61155 0.0
C46 C 0.03308 0.41815 0.61112 0.0
C47 C 0.03344 0.448 0.58473 0.0
H48 H 0.41246 0.04917 0.46518 0.0
H49 H 0.37807 0.06476 0.40473 0.0
H50 H 0.45021 0.98463 0.34254 0.0
H51 H 0.48268 0.96745 0.40377 0.0
H52 H 0.41124 0.98512 0.50254 0.0
H53 H 0.51666 0.06443 0.45046 0.0
H54 H 0.56194 0.08405 0.39788 0.0
H55 H 0.60986 0.9724 0.3931 0.0
H56 H 0.56498 0.95307 0.44562 0.0
H57 H 0.55558 0.92078 0.56521 0.0
H58 H 0.59826 0.91784 0.62301 0.0
H59 H 0.53096 1.00683 0.67606 0.0
H60 H 0.48847 1.00999 0.61794 0.0
H61 H 0.55727 0.98332 0.52224 0.0
H62 H 0.45665 0.91225 0.59096 0.0
H63 H 0.40585 0.89651 0.64002 0.0
H64 H 0.3445 0.99924 0.614 0.0
H65 H 0.39566 1.01575 0.56668 0.0
C66 C 0.45013 1.00721 0.43899 0.0
C67 C 0.42095 0.03507 0.43848 0.0
C68 C 0.40171 0.04433 0.40373 0.0
C69 C 0.41147 0.02603 0.36869 0.0
C70 C 0.44173 0.999 0.36907 0.0
C71 C 0.46061 0.98942 0.40398 0.0
C72 C 0.46824 0.99577 0.47654 0.0
C73 C 0.44317 0.98517 0.50722 0.0
C74 C 0.50974 0.99495 0.48215 0.0
C75 C 0.53752 1.0073 0.45153 0.0
C76 C 0.53702 0.04431 0.43801 0.0
C77 C 0.56276 0.05547 0.4082 0.0
C78 C 0.5888 0.02955 0.39139 0.0
C79 C 0.5895 0.99267 0.40532 0.0
C80 C 0.56422 0.98169 0.43539 0.0
C81 C 0.51902 0.96568 0.58726 0.0
C82 C 0.54934 0.93896 0.58972 0.0
C83 C 0.57371 0.93736 0.62262 0.0
C84 C 0.56807 0.96243 0.65361 0.0
C85 C 0.53569 0.98709 0.65258 0.0
C86 C 0.5114 0.98885 0.61945 0.0
C87 C 0.50018 0.97334 0.54908 0.0
C88 C 0.52526 0.98315 0.51798 0.0
C89 C 0.45853 0.97444 0.54369 0.0
C90 C 0.42998 0.96523 0.57515 0.0
C91 C 0.43268 0.93169 0.59638 0.0
C92 C 0.40363 0.92255 0.62405 0.0
C93 C 0.37123 0.94645 0.62998 0.0
C94 C 0.36895 0.98012 0.60925 0.0
C95 C 0.39817 0.98955 0.58232 0.0
H96 H 0.55852 0.57951 0.9551 0.0
H97 H 0.60141 0.6343 0.95464 0.0
H98 H 0.55022 0.67027 0.06413 0.0
H99 H 0.50888 0.61403 0.06545 0.0
H100 H 0.56079 0.52451 1.00392 0.0
H101 H 0.46084 0.61407 0.96728 0.0
H102 H 0.41502 0.667 0.97021 0.0
H103 H 0.36825 0.62539 0.0794 0.0
H104 H 0.41437 0.57285 0.07664 0.0
H105 H 0.42072 0.45841 0.07245 0.0
H106 H 0.37766 0.40332 0.06824 0.0
H107 H 0.42046 0.38215 0.95144 0.0
H108 H 0.46351 0.43737 0.95581 0.0
H109 H 0.41503 0.5195 0.02441 0.0
H110 H 0.51314 0.43013 0.06083 0.0
H111 H 0.55921 0.37741 0.05957 0.0
H112 H 0.60894 0.4185 0.95141 0.0
H113 H 0.56269 0.47099 0.95264 0.0
C114 C 0.53034 0.59261 1.01022 0.0
C115 C 0.55637 0.59927 0.97895 0.0
C116 C 0.58064 0.63092 0.97853 0.0
C117 C 0.57932 0.65687 1.00933 0.0
C118 C 0.55239 0.65068 0.04015 0.0
C119 C 0.52832 0.61875 0.04071 0.0
C120 C 0.50764 0.55702 1.01195 0.0
C121 C 0.52877 0.52349 1.00773 0.0
C122 C 0.46612 0.55557 0.01863 0.0
C123 C 0.44122 0.58956 0.02186 0.0
C124 C 0.44136 0.61677 0.99228 0.0
C125 C 0.41512 0.64696 0.99393 0.0
C126 C 0.38794 0.65015 0.02492 0.0
C127 C 0.38852 0.62337 0.05492 0.0
C128 C 0.41492 0.59342 0.05342 0.0
C129 C 0.44539 0.45184 0.01452 0.0
C130 C 0.4212 0.4416 0.04616 0.0
C131 C 0.39679 0.41006 0.04378 0.0
C132 C 0.39572 0.38854 1.00948 0.0
C133 C 0.42058 0.3984 0.97812 0.0
C134 C 0.44534 0.42972 0.98069 0.0
C135 C 0.46815 0.48728 0.01566 0.0
C136 C 0.44705 0.52067 0.02054 0.0
C137 C 0.50965 0.48865 1.00955 0.0
C138 C 0.53434 0.45449 1.00674 0.0
C139 C 0.53331 0.42733 0.03637 0.0
C140 C 0.55972 0.39725 0.03568 0.0
C141 C 0.58788 0.39402 1.00555 0.0
C142 C 0.58798 0.42058 0.97531 0.0
C143 C 0.56149 0.4505 0.97591 0.0
C144 C 0.98591 0.11167 0.91649 0.0
C145 C -0.00499 0.11585 0.10711 0.0
C146 C 0.9868 0.93033 0.92078 0.0
C147 C -0.00867 0.93437 0.11206 0.0
C148 C 0.08381 0.93157 0.01574 0.0
C149 C 0.08635 0.11173 1.00679 0.0
C150 C 0.89054 0.93375 0.01827 0.0
C151 C 0.89348 0.11389 0.01618 0.0
C152 C 0.89738 0.02997 0.11244 0.0
C153 C 0.08941 0.02572 0.10328 0.0
C154 C 0.88694 0.01961 0.9255 0.0
C155 C 0.07924 1.01413 0.91589 0.0
Eu156 Eu 0.98976 0.09415 1.01217 0.0
O157 O 0.0258 0.05668 0.04634 0.0
O158 O 0.95204 0.05612 0.98018 0.0
Eu159 Eu 0.06286 0.02193 1.01071 0.0
Eu160 Eu 0.91448 0.02355 0.01795 0.0
O161 O 0.0225 0.05523 0.97656 0.0
O162 O 0.95625 0.05736 0.04949 0.0
Eu163 Eu 0.98443 0.0214 0.94021 0.0
Eu164 Eu -0.00762 0.02474 0.08831 0.0
O165 O 0.02065 0.98863 0.97908 0.0
O166 O 0.02465 0.98986 0.04823 0.0
O167 O 0.95476 0.99024 0.05206 0.0
O168 O 0.9514 0.98896 0.98205 0.0
Eu169 Eu 0.98746 0.95148 0.01614 0.0
O170 O 0.98777 0.12394 0.95337 0.0
O171 O -0.00695 0.12667 0.06964 0.0
O172 O 0.98859 0.91941 0.95825 0.0
O173 O 0.9885 0.92199 0.07523 0.0
O174 O 0.09579 0.96702 0.01298 0.0
O175 O 0.09755 0.07607 1.00819 0.0
O176 O 0.87971 0.96948 0.02048 0.0
O177 O 0.88155 0.07839 0.0178 0.0
O178 O 0.93552 0.03027 0.12327 0.0
O179 O 0.05267 0.02749 0.1177 0.0
O180 O 0.92379 0.01947 0.91094 0.0
O181 O 0.04114 1.01667 0.90535 0.0
O182 O 0.92794 0.9214 0.01601 0.0
O183 O 0.04599 0.9201 0.01718 0.0
O184 O 0.93123 0.12546 0.01395 0.0
O185 O 0.049 0.12424 1.00729 0.0
O186 O -0.0047 0.08046 0.11946 0.0
O187 O -0.00673 0.9703 0.12264 0.0
O188 O 0.98437 0.07578 0.90578 0.0
O189 O 0.98398 0.96571 0.90867 0.0
O190 O 0.0931 1.01621 0.95233 0.0
O191 O 0.09935 0.0227 0.06583 0.0
O192 O 0.87768 0.02153 0.96323 0.0
O193 O 0.88378 0.02645 0.0761 0.0
H194 H 0.00815 0.31987 0.42122 0.0
H195 H 0.00977 0.27263 0.3695 0.0
H196 H 0.97716 0.35627 0.28461 0.0
H197 H 0.97479 0.40324 0.33619 0.0
H198 H 0.93685 0.29624 0.27003 0.0
H199 H 0.07499 0.3209 0.29586 0.0
H200 H 0.13592 0.32622 0.33573 0.0
H201 H 0.12737 0.21015 0.36613 0.0
H202 H 0.06603 0.20427 0.32692 0.0
H203 H 0.9853 0.19195 0.09914 0.0
H204 H 0.9858 0.2392 0.15082 0.0
H205 H 0.00828 0.15373 0.23677 0.0
H206 H 0.00835 0.10653 0.18559 0.0
H207 H 0.05376 0.21425 0.25047 0.0
H208 H 0.91573 0.18986 0.22373 0.0
H209 H 0.85714 0.18415 0.18074 0.0
H210 H 0.86674 0.30018 0.15046 0.0
H211 H 0.92602 0.30638 0.1926 0.0
C212 C 0.00152 0.3282 0.3915 0.0
C213 C -0.00875 0.36538 0.38296 0.0
C214 C 0.00253 0.30116 0.36185 0.0
C215 C -0.00596 0.31079 0.32281 0.0
C216 C 0.98369 0.34791 0.31435 0.0
C217 C 0.98229 0.3748 0.34398 0.0
C218 C -0.0044 0.28239 0.29075 0.0
C219 C 0.96269 0.2787 0.26555 0.0
C220 C 0.02887 0.25873 0.28506 0.0
C221 C 0.06565 0.26227 0.30882 0.0
C222 C 0.0859 0.2966 0.31134 0.0
C223 C 0.12054 0.2997 0.33377 0.0
C224 C 0.13543 0.26857 0.35356 0.0
C225 C 0.11575 0.23426 0.35087 0.0
C226 C 0.08105 0.23103 0.32854 0.0
C227 C -0.00946 0.18316 0.12898 0.0
C228 C -0.00346 0.14522 0.138 0.0
C229 C -0.00936 0.21025 0.15859 0.0
C230 C -0.00337 0.20004 0.19787 0.0
C231 C 0.00352 0.16237 0.20679 0.0
C232 C 0.00334 0.13532 0.17732 0.0
C233 C -0.00482 0.22835 0.22986 0.0
C234 C 0.02801 0.2319 0.25504 0.0
C235 C 0.96192 0.25192 0.23546 0.0
C236 C 0.92557 0.2485 0.21103 0.0
C237 C 0.90549 0.21412 0.20774 0.0
C238 C 0.87214 0.2108 0.18352 0.0
C239 C 0.85826 0.24179 0.16283 0.0
C240 C 0.87758 0.2762 0.16647 0.0
C241 C 0.91106 0.27963 0.1905 0.0
H242 H 0.83256 0.23919 0.14396 0.0
H243 H 0.16227 0.27103 0.37088 0.0
H244 H 0.597 0.99583 0.3212 0.0
H245 H 0.64973 1.00646 0.27338 0.0
H246 H 0.69497 0.09776 0.34275 0.0
H247 H 0.64159 0.0875 0.39061 0.0
H248 H 0.702 0.10854 0.25955 0.0
H249 H 0.73476 0.01873 0.35851 0.0
H250 H 0.72199 0.96386 0.40023 0.0
H251 H 0.71384 0.89414 0.29852 0.0
H252 H 0.72583 0.94875 0.25614 0.0
H253 H 0.90185 0.07339 0.17782 0.0
H254 H 0.84877 0.08384 0.22604 0.0
H255 H 0.77231 1.00791 0.16306 0.0
H256 H 0.82448 0.99802 0.11457 0.0
H257 H 0.78679 0.9957 0.24931 0.0
H258 H 0.74923 0.08617 0.1505 0.0
H259 H 0.75716 0.14162 0.10848 0.0
H260 H 0.7738 0.21045 0.20985 0.0
H261 H 0.76684 0.15524 0.2525 0.0
C262 C 0.61773 0.01863 0.32576 0.0
C263 C 0.61588 0.0405 0.35966 0.0
C264 C 0.64766 0.02474 0.2985 0.0
C265 C 0.67651 0.0524 0.3051 0.0
C266 C 0.67293 0.07624 0.33736 0.0
C267 C 0.64262 0.07034 0.36459 0.0
C268 C 0.71269 0.0529 0.28091 0.0
C269 C 0.72107 0.08423 0.25774 0.0
C270 C 0.73726 0.02099 0.27869 0.0
C271 C 0.73095 0.9879 0.30414 0.0
C272 C 0.73002 0.99174 0.34503 0.0
C273 C 0.72292 0.96068 0.3688 0.0
C274 C 0.71705 0.92554 0.35203 0.0
C275 C 0.71838 0.92138 0.31146 0.0
C276 C 0.72536 0.95237 0.28755 0.0
C277 C 0.87373 0.05886 0.17453 0.0
C278 C 0.86713 0.03475 0.1428 0.0
C279 C 0.84349 0.06515 0.2017 0.0
C280 C 0.8068 0.04687 0.1976 0.0
C281 C 0.80045 0.02243 0.16629 0.0
C282 C 0.83022 1.01674 0.13881 0.0
C283 C 0.77555 0.05093 0.22717 0.0
C284 C 0.76823 0.02034 0.25159 0.0
C285 C 0.75221 0.08355 0.23047 0.0
C286 C 0.7582 0.11642 0.2047 0.0
C287 C 0.75536 0.11298 0.16384 0.0
C288 C 0.75945 0.14441 0.1399 0.0
C289 C 0.76601 0.1795 0.15651 0.0
C290 C 0.7687 0.18323 0.19705 0.0
C291 C 0.76479 0.15187 0.22111 0.0
H292 H 0.76885 0.20385 0.13801 0.0
H293 H 0.71154 0.90153 0.37048 0.0
H294 H 0.01249 0.72747 0.42533 0.0
H295 H 0.0147 0.77594 0.37459 0.0
H296 H 0.98396 0.694 0.28735 0.0
H297 H 0.98189 0.64555 0.33774 0.0
H298 H 0.04463 0.74163 0.26266 0.0
H299 H 0.91419 0.75114 0.32068 0.0
H300 H 0.86684 0.75872 0.37503 0.0
H301 H 0.91836 0.86534 0.40259 0.0
H302 H 0.96641 0.85814 0.3487 0.0
H303 H 0.98439 0.85801 0.10588 0.0
H304 H 0.98715 0.81167 0.15815 0.0
H305 H 0.00479 0.89923 0.24285 0.0
H306 H 0.00136 0.94588 0.19094 0.0
H307 H 0.95341 0.85001 0.27031 0.0
H308 H 0.08205 0.84335 0.21272 0.0
H309 H 0.13005 0.83794 0.15867 0.0
H310 H 0.0852 0.72859 0.13172 0.0
H311 H 0.03645 0.73358 0.18529 0.0
C312 C 0.00646 0.71976 0.3953 0.0
C313 C -0.00332 0.68266 0.3857 0.0
C314 C 0.00755 0.74752 0.36633 0.0
C315 C -0.00078 0.73872 0.3271 0.0
C316 C -0.00957 0.70154 0.31735 0.0
C317 C 0.98893 0.67391 0.34629 0.0
C318 C -0.00133 0.76826 0.29629 0.0
C319 C 0.02442 0.76513 0.26414 0.0
C320 C 0.97308 0.79952 0.2986 0.0
C321 C 0.94418 0.80391 0.33094 0.0
C322 C 0.91565 0.77605 0.33854 0.0
C323 C 0.88864 0.78031 0.36922 0.0
C324 C 0.88967 0.81244 0.39232 0.0
C325 C 0.91765 0.84044 0.38472 0.0
C326 C 0.94476 0.83629 0.3541 0.0
C327 C 0.98887 0.86756 0.13558 0.0
C328 C -0.00726 0.9059 0.14393 0.0
C329 C -0.00937 0.8409 0.16552 0.0
C330 C -0.00329 0.85178 0.20455 0.0
C331 C 0.00012 0.89001 0.21305 0.0
C332 C -0.00177 0.91672 0.18317 0.0
C333 C -0.00077 0.82337 0.23648 0.0
C334 C 0.97383 0.82666 0.26885 0.0
C335 C 0.02549 0.79251 0.23456 0.0
C336 C 0.05533 0.78899 0.20283 0.0
C337 C 0.08226 0.81822 0.19513 0.0
C338 C 0.10962 0.81523 0.16458 0.0
C339 C 0.11061 0.78299 0.14168 0.0
C340 C 0.08436 0.75358 0.14944 0.0
C341 C 0.05687 0.75646 0.17994 0.0
H342 H 0.13177 0.78076 0.11799 0.0
H343 H 0.86873 0.8157 0.41606 0.0
H344 H 0.38619 0.97436 0.31542 0.0
H345 H 0.3378 0.9832 0.2633 0.0
H346 H 0.3315 0.1006 0.29022 0.0
H347 H 0.38128 0.09238 0.34174 0.0
H348 H 0.25847 0.06224 0.29418 0.0
H349 H 0.36681 0.07735 0.2049 0.0
H350 H 0.43025 0.0611 0.17321 0.0
H351 H 0.38002 0.95748 0.13353 0.0
H352 H 0.31649 0.97283 0.16551 0.0
H353 H 0.10543 0.083 0.15215 0.0
H354 H 0.16525 0.09114 0.19229 0.0
H355 H 0.20636 0.98226 0.15638 0.0
H356 H 0.1481 0.9756 0.11403 0.0
H357 H 0.26491 0.02601 0.15453 0.0
H358 H 0.16279 1.0032 0.2508 0.0
H359 H 0.09899 1.01453 0.28421 0.0
H360 H 0.13689 0.12564 0.31348 0.0
H361 H 0.20079 0.11506 0.27988 0.0
C362 C 0.37574 1.00235 0.30945 0.0
C363 C 0.38738 0.03263 0.33303 0.0
C364 C 0.34793 1.0073 0.27968 0.0
C365 C 0.33118 0.04252 0.27307 0.0
C366 C 0.34416 0.0732 0.29507 0.0
C367 C 0.37235 0.06837 0.3246 0.0
C368 C 0.29666 0.04598 0.24672 0.0
C369 C 0.2599 0.05514 0.26339 0.0
C370 C 0.29863 0.03551 0.20702 0.0
C371 C 0.33692 0.02616 0.18783 0.0
C372 C 0.36938 0.05095 0.18971 0.0
C373 C 0.40536 0.04193 0.17163 0.0
C374 C 0.40919 1.00826 0.15142 0.0
C375 C 0.37703 0.98355 0.1492 0.0
C376 C 0.34101 0.99243 0.16725 0.0
C377 C 0.12721 0.06078 0.15338 0.0
C378 C 0.12243 0.02854 0.13074 0.0
C379 C 0.16126 0.06534 0.17627 0.0
C380 C 0.19011 0.03703 0.17787 0.0
C381 C 0.18467 1.0045 0.15555 0.0
C382 C 0.15133 1.00051 0.13173 0.0
C383 C 0.22631 0.04126 0.2022 0.0
C384 C 0.26341 0.0336 0.18517 0.0
C385 C 0.22457 0.05225 0.24189 0.0
C386 C 0.18637 0.05848 0.26249 0.0
C387 C 0.15741 0.03011 0.26419 0.0
C388 C 0.12126 0.03638 0.28318 0.0
C389 C 0.11385 0.07081 0.30086 0.0
C390 C 0.14265 0.099 0.29973 0.0
C391 C 0.17886 0.09287 0.28076 0.0
H392 H 0.08582 0.07563 0.31551 0.0
H393 H 0.43706 1.00134 0.13744 0.0
H394 H 0.01623 0.64216 0.69292 0.0
H395 H 0.01374 0.68938 0.7444 0.0
H396 H 0.98229 0.77295 0.65915 0.0
H397 H 0.98502 0.72572 0.60725 0.0
H398 H 0.04134 0.79704 0.71076 0.0
H399 H 0.91244 0.73914 0.71851 0.0
H400 H 0.86557 0.68636 0.72429 0.0
H401 H 0.9163 0.65709 0.83535 0.0
H402 H 0.96388 0.7094 0.82997 0.0
H403 H 0.98183 0.9399 0.84128 0.0
H404 H 0.98609 0.8928 0.79026 0.0
H405 H 0.00169 0.80724 0.8776 0.0
H406 H -0.00328 0.85427 0.92919 0.0
H407 H 0.95166 0.78349 0.82484 0.0
H408 H 0.08006 0.84056 0.81885 0.0
H409 H 0.13151 0.88936 0.81194 0.0
H410 H 0.08592 0.91787 0.69859 0.0
H411 H 0.0338 0.86969 0.70501 0.0
C412 C 0.00902 0.67063 0.685 0.0
C413 C 0.00095 0.68012 0.64584 0.0
C414 C 0.0073 0.69757 0.71458 0.0
C415 C -0.00244 0.73475 0.70579 0.0
C416 C 0.9898 0.74445 0.6667 0.0
C417 C -0.00886 0.71738 0.63708 0.0
C418 C -0.00421 0.76342 0.73741 0.0
C419 C 0.0213 0.79445 0.73543 0.0
C420 C 0.97063 0.75938 0.77031 0.0
C421 C 0.94199 0.72797 0.77364 0.0
C422 C 0.91383 0.72126 0.74401 0.0
C423 C 0.88709 0.69146 0.74724 0.0
C424 C 0.88803 0.66833 0.78012 0.0
C425 C 0.91565 0.675 0.80988 0.0
C426 C 0.94249 0.70474 0.80677 0.0
C427 C 0.98618 0.91111 0.8499 0.0
C428 C 0.9889 0.90111 0.88968 0.0
C429 C 0.98894 0.88412 0.82046 0.0
C430 C -0.00513 0.84635 0.82981 0.0
C431 C -0.00275 0.83616 0.86947 0.0
C432 C -0.00561 0.86317 0.89903 0.0
C433 C -0.00281 0.81748 0.79829 0.0
C434 C 0.97177 0.7863 0.80025 0.0
C435 C 0.02275 0.82126 0.76552 0.0
C436 C 0.05276 0.85165 0.76257 0.0
C437 C 0.08063 0.85757 0.79268 0.0
C438 C 0.11003 0.88504 0.78878 0.0
C439 C 0.11203 0.90658 0.75478 0.0
C440 C 0.08436 0.90108 0.72485 0.0
C441 C 0.05489 0.87372 0.72861 0.0
H442 H 0.13509 0.92744 0.75148 0.0
H443 H 0.86729 0.64528 0.78258 0.0
H444 H 0.37873 0.93459 0.70809 0.0
H445 H 0.32467 0.93518 0.75603 0.0
H446 H 0.23859 0.93916 0.66234 0.0
H447 H 0.29265 0.93959 0.61459 0.0
H448 H 0.22977 0.99604 0.70931 0.0
H449 H 0.24277 0.86448 0.72624 0.0
H450 H 0.27698 0.80473 0.73801 0.0
H451 H 0.31478 0.84316 0.85095 0.0
H452 H 0.2813 0.90339 0.83965 0.0
H453 H 0.06485 1.00396 0.83786 0.0
H454 H 0.11206 0.98443 0.78814 0.0
H455 H 0.20635 0.98427 0.87383 0.0
H456 H 0.15946 1.00371 0.92399 0.0
H457 H 0.20672 0.92114 0.82912 0.0
H458 H 0.19952 0.05448 0.80883 0.0
H459 H 0.16408 0.11379 0.79792 0.0
H460 H 0.11488 0.07077 0.69114 0.0
H461 H 0.14966 1.01099 0.70171 0.0
C462 C 0.34819 0.93431 0.69792 0.0
C463 C 0.33954 0.93733 0.65796 0.0
C464 C 0.31735 0.93457 0.72521 0.0
C465 C 0.27762 0.93732 0.71269 0.0
C466 C 0.26903 0.93721 0.67257 0.0
C467 C 0.2998 0.93738 0.64539 0.0
C468 C 0.24583 0.94614 0.74097 0.0
C469 C 0.2242 0.97917 0.73508 0.0
C470 C 0.23937 0.92473 0.77511 0.0
C471 C 0.2598 0.88861 0.78192 0.0
C472 C 0.25869 0.86035 0.75344 0.0
C473 C 0.27789 0.82635 0.76006 0.0
C474 C 0.29812 0.82018 0.79517 0.0
C475 C 0.29914 0.84799 0.82376 0.0
C476 C 0.28001 0.88205 0.81727 0.0
C477 C 0.09567 1.00015 0.84619 0.0
C478 C 0.10833 1.00559 0.88496 0.0
C479 C 0.12258 0.9888 0.81771 0.0
C480 C 0.1626 0.98284 0.82744 0.0
C481 C 0.17547 0.98854 0.86591 0.0
C482 C 0.14863 0.99995 0.89443 0.0
C483 C 0.19125 0.97099 0.79739 0.0
C484 C 0.21222 0.93761 0.80305 0.0
C485 C 0.19723 0.99202 0.76299 0.0
C486 C 0.17694 0.0282 0.7562 0.0
C487 C 0.18099 0.05762 0.78312 0.0
C488 C 0.16103 0.09131 0.777 0.0
C489 C 0.13716 0.09602 0.74391 0.0
C490 C 0.13335 0.06708 0.71678 0.0
C491 C 0.15321 0.0333 0.72279 0.0
H492 H 0.12168 0.12211 0.73927 0.0
H493 H 0.31294 0.79383 0.80025 0.0
H494 H 0.97943 0.31873 0.60325 0.0
H495 H 0.97657 0.27041 0.65388 0.0
H496 H 0.01561 0.35055 0.73989 0.0
H497 H 0.01897 0.39867 0.68944 0.0
H498 H 0.05311 0.28809 0.75187 0.0
H499 H 0.9162 0.32043 0.73164 0.0
H500 H 0.8546 0.33047 0.69389 0.0
H501 H 0.85469 0.21553 0.65842 0.0
H502 H 0.91662 0.20491 0.69556 0.0
H503 H -0.00073 0.1872 0.9228 0.0
H504 H 0.00124 0.23358 0.87048 0.0
H505 H 0.97534 0.14789 0.78575 0.0
H506 H 0.97302 0.10121 0.83786 0.0
H507 H 0.93163 0.21172 0.77269 0.0
H508 H 0.06892 0.18 0.79481 0.0
H509 H 0.12822 0.17041 0.83609 0.0
H510 H 0.12542 0.28551 0.87087 0.0
H511 H 0.06574 0.29568 0.83014 0.0
C512 C 0.9872 0.3261 0.63298 0.0
C513 C -0.00049 0.36265 0.64215 0.0
C514 C 0.98552 0.29842 0.66199 0.0
C515 C -0.00453 0.30675 0.70101 0.0
C516 C 0.00793 0.34319 0.71011 0.0
C517 C 0.00992 0.37075 0.68112 0.0
C518 C -0.00695 0.27769 0.7324 0.0
C519 C 0.02634 0.27174 0.75659 0.0
C520 C 0.95846 0.25566 0.73844 0.0
C521 C 0.92128 0.26199 0.71603 0.0
C522 C 0.90326 0.29737 0.71553 0.0
C523 C 0.86826 0.30315 0.69429 0.0
C524 C 0.85081 0.27369 0.67368 0.0
C525 C 0.86828 0.23834 0.67434 0.0
C526 C 0.90332 0.23242 0.6955 0.0
C527 C -0.00619 0.17808 0.89311 0.0
C528 C 0.98613 0.14024 0.88473 0.0
C529 C -0.00486 0.20471 0.86314 0.0
C530 C 0.98886 0.19422 0.82405 0.0
C531 C 0.98037 0.15668 0.81564 0.0
C532 C 0.97922 0.12996 0.84556 0.0
C533 C -0.00844 0.22232 0.79196 0.0
C534 C 0.95838 0.22805 0.76773 0.0
C535 C 0.02612 0.2443 0.78605 0.0
C536 C 0.06267 0.23853 0.80966 0.0
C537 C 0.08084 0.20323 0.81139 0.0
C538 C 0.11453 0.19769 0.83468 0.0
C539 C 0.13052 0.22731 0.85617 0.0
C540 C 0.11298 0.26259 0.85423 0.0
C541 C 0.07926 0.26827 0.831 0.0
H542 H 0.15654 0.22295 0.87426 0.0
H543 H 0.8237 0.27821 0.65726 0.0
H544 H 0.64703 0.97054 0.64196 0.0
H545 H 0.69887 0.97995 0.69076 0.0
H546 H 0.61116 0.97305 0.78251 0.0
H547 H 0.5586 0.96475 0.73316 0.0
H548 H 0.66142 0.02848 0.79616 0.0
H549 H 0.67565 0.89958 0.76317 0.0
H550 H 0.68221 0.84548 0.71916 0.0
H551 H 0.79158 0.89018 0.67415 0.0
H552 H 0.7854 0.94481 0.7175 0.0
H553 H 0.80837 1.01154 0.94376 0.0
H554 H 0.75297 1.00239 0.89946 0.0
H555 H 0.83235 1.01005 0.80086 0.0
H556 H 0.88871 0.01889 0.84523 0.0
H557 H 0.78387 0.95145 0.7943 0.0
H558 H 0.76704 0.08219 0.8255 0.0
H559 H 0.76048 0.13539 0.87071 0.0
H560 H 0.65611 0.08559 0.92093 0.0
H561 H 0.66223 0.03189 0.87622 0.0
C562 C 0.63887 0.97051 0.67258 0.0
C563 C 0.59902 0.96626 0.68397 0.0
C564 C 0.66849 0.97589 0.70043 0.0
C565 C 0.65901 0.97633 0.74032 0.0
C566 C 0.61911 0.97251 0.75186 0.0
C567 C 0.58922 0.96767 0.7238 0.0
C568 C 0.69099 0.98162 0.7696 0.0
C569 C 0.68792 1.01126 0.79619 0.0
C570 C 0.72584 0.95952 0.76919 0.0
C571 C 0.72991 0.92641 0.74343 0.0
C572 C 0.70099 0.89797 0.74374 0.0
C573 C 0.70465 0.8672 0.71892 0.0
C574 C 0.73726 0.86442 0.69384 0.0
C575 C 0.76634 0.89236 0.6936 0.0
C576 C 0.7628 0.92321 0.71832 0.0
C577 C 0.81429 1.01163 0.91267 0.0
C578 C 0.85317 1.01603 0.89808 0.0
C579 C 0.78237 1.00641 0.88734 0.0
C580 C 0.78845 1.00579 0.84689 0.0
C581 C 0.82708 1.01046 0.83208 0.0
C582 C 0.85921 1.01559 0.85745 0.0
C583 C 0.75467 0.99877 0.82017 0.0
C584 C 0.75733 0.96862 0.79426 0.0
C585 C 0.71944 0.02027 0.82138 0.0
C586 C 0.71523 0.05294 0.84767 0.0
C587 C 0.74278 0.08253 0.84628 0.0
C588 C 0.73915 0.11277 0.87182 0.0
C589 C 0.70799 0.11384 0.89875 0.0
C590 C 0.68025 0.08473 0.90006 0.0
C591 C 0.68373 0.05442 0.87458 0.0
H592 H 0.70531 0.13724 0.91855 0.0
H593 H 0.74002 0.84059 0.67462 0.0
H594 H 0.34519 0.37432 0.94887 0.0
H595 H 0.29409 0.32556 0.94487 0.0
H596 H 0.32991 0.28387 0.05778 0.0
H597 H 0.38111 0.33263 0.06198 0.0
H598 H 0.31577 0.22728 0.99955 0.0
H599 H 0.25303 0.33726 0.05443 0.0
H600 H 0.2339 0.40366 0.05442 0.0
H601 H 0.17066 0.38822 0.94649 0.0
H602 H 0.18993 0.3218 0.94557 0.0
H603 H 0.15323 0.11387 0.05083 0.0
H604 H 0.20669 0.16013 0.04848 0.0
H605 H 0.14612 0.21729 0.95449 0.0
H606 H 0.09112 0.17238 0.959 0.0
H607 H 0.17423 0.2662 0.9987 0.0
H608 H 0.23283 0.15782 0.94204 0.0
H609 H 0.25202 0.09155 0.93783 0.0
H610 H 0.32344 0.10315 0.04128 0.0
H611 H 0.30428 0.16939 0.0464 0.0
C612 C 0.34254 0.35441 0.97256 0.0
C613 C 0.36703 0.35725 1.00578 0.0
C614 C 0.31324 0.32675 0.97033 0.0
C615 C 0.30814 0.30135 1.00115 0.0
C616 C 0.33343 0.30328 0.03373 0.0
C617 C 0.36245 0.3312 0.03618 0.0
C618 C 0.27536 0.2737 1.00015 0.0
C619 C 0.28477 0.23562 0.9997 0.0
C620 C 0.23506 0.28482 0.99902 0.0
C621 C 0.2233 0.32468 0.99972 0.0
C622 C 0.23534 0.3481 0.03052 0.0
C623 C 0.22442 0.38572 0.03072 0.0
C624 C 0.20118 0.40018 1.00041 0.0
C625 C 0.18872 0.377 0.96991 0.0
C626 C 0.19961 0.33937 0.96955 0.0
C627 C 0.15146 0.13638 0.02973 0.0
C628 C 0.11836 0.13967 1.005 0.0
C629 C 0.18216 0.16263 0.0281 0.0
C630 C 0.18115 0.19176 1.00055 0.0
C631 C 0.14779 0.19507 0.97591 0.0
C632 C 0.11642 0.16945 0.97843 0.0
C633 C 0.21434 0.21928 0.99825 0.0
C634 C 0.20511 0.25751 0.99815 0.0
C635 C 0.25485 0.20824 0.99803 0.0
C636 C 0.26688 0.16852 0.99474 0.0
C637 C 0.25248 0.1462 0.96399 0.0
C638 C 0.26336 0.10864 0.96144 0.0
C639 C 0.28888 0.09314 0.9893 0.0
C640 C 0.30367 0.1152 0.01972 0.0
C641 C 0.29286 0.15276 0.02243 0.0
H642 H 0.29723 0.06405 0.9873 0.0
H643 H 0.19274 0.42931 1.00062 0.0
H644 H 0.30872 0.64315 0.03983 0.0
H645 H 0.25814 0.69203 0.03887 0.0
H646 H 0.34764 0.77356 1.00873 0.0
H647 H 0.39866 0.72465 1.00993 0.0
H648 H 0.29551 0.79744 0.06783 0.0
H649 H 0.2888 0.7445 0.93946 0.0
H650 H 0.2834 0.6939 0.89094 0.0
H651 H 0.16919 0.66301 0.93696 0.0
H652 H 0.17416 0.71314 0.98615 0.0
H653 H 0.16422 0.94139 1.00756 0.0
H654 H 0.21606 0.89414 1.01105 0.0
H655 H 0.12745 0.8093 0.03257 0.0
H656 H 0.07507 0.85632 0.02868 0.0
H657 H 0.18005 0.78754 0.97784 0.0
H658 H 0.18615 0.84142 0.10566 0.0
H659 H 0.19223 0.89122 0.15505 0.0
H660 H 0.30772 0.92021 0.11081 0.0
H661 H 0.30203 0.87104 0.0607 0.0
C662 C 0.31771 0.67155 0.03335 0.0
C663 C 0.35764 0.68014 0.02502 0.0
C664 C 0.28875 0.69936 0.03254 0.0
C665 C 0.29915 0.7363 0.02345 0.0
C666 C 0.33907 0.74516 0.01573 0.0
C667 C 0.36807 0.71723 0.01621 0.0
C668 C 0.26811 0.7655 0.0218 0.0
C669 C 0.27053 0.79566 0.04779 0.0
C670 C 0.23513 0.76252 0.99627 0.0
C671 C 0.23205 0.73233 0.96675 0.0
C672 C 0.26269 0.7267 0.93947 0.0
C673 C 0.25968 0.69816 0.9118 0.0
C674 C 0.22603 0.67519 0.91094 0.0
C675 C 0.19527 0.68079 0.9377 0.0
C676 C 0.19815 0.70928 0.96546 0.0
C677 C 0.15558 0.91273 0.01313 0.0
C678 C 0.11532 0.90274 0.01779 0.0
C679 C 0.18538 0.88576 0.01529 0.0
C680 C 0.17565 0.84829 0.02246 0.0
C681 C 0.13557 0.83811 0.02701 0.0
C682 C 0.10568 0.86507 0.02477 0.0
C683 C 0.20725 0.81956 0.02402 0.0
C684 C 0.20498 0.78943 0.99794 0.0
C685 C 0.24035 0.82263 0.0495 0.0
C686 C 0.2435 0.85272 0.07918 0.0
C687 C 0.21265 0.85868 0.10618 0.0
C688 C 0.21606 0.88675 0.13437 0.0
C689 C 0.25035 0.90885 0.13607 0.0
C690 C 0.28119 0.90307 0.10946 0.0
C691 C 0.27788 0.8751 0.08116 0.0
H692 H 0.25314 0.93031 0.15814 0.0
H693 H 0.22374 0.65311 0.88948 0.0
H694 H 0.57777 0.31976 0.02242 0.0
H695 H 0.62904 0.27133 0.02499 0.0
H696 H 0.71832 0.35313 0.99466 0.0
H697 H 0.66729 0.40137 0.99166 0.0
H698 H 0.72953 0.29247 0.95396 0.0
H699 H 0.70535 0.31999 0.08874 0.0
H700 H 0.6671 0.32713 0.14965 0.0
H701 H 0.63487 0.21111 0.14611 0.0
H702 H 0.67231 0.20341 0.08476 0.0
H703 H 0.9017 0.18958 1.00631 0.0
H704 H 0.84899 0.23636 1.00501 0.0
H705 H 0.76126 0.15041 0.02509 0.0
H706 H 0.81353 0.10349 0.027 0.0
H707 H 0.74857 0.21152 0.07005 0.0
H708 H 0.7752 0.18508 0.93489 0.0
H709 H 0.81859 0.17853 0.87725 0.0
H710 H 0.85041 0.29442 0.8847 0.0
H711 H 0.80797 0.30153 0.94294 0.0
C712 C 0.60838 0.32736 0.01646 0.0
C713 C 0.61851 0.3643 1.0067 0.0
C714 C 0.63764 0.29971 0.018 0.0
C715 C 0.67762 0.30866 1.01038 0.0
C716 C 0.68768 0.34552 1.0005 0.0
C717 C 0.65846 0.37304 0.99868 0.0
C718 C 0.70906 0.2797 1.01216 0.0
C719 C 0.73396 0.27511 0.97959 0.0
C720 C 0.71441 0.25649 0.04529 0.0
C721 C 0.69112 0.26128 0.08175 0.0
C722 C 0.68966 0.29611 0.10063 0.0
C723 C 0.66821 0.30023 0.13532 0.0
C724 C 0.64842 0.26964 0.15164 0.0
C725 C 0.65008 0.23483 0.13335 0.0
C726 C 0.67138 0.23058 0.0986 0.0
C727 C 0.87124 0.18056 1.01058 0.0
C728 C 0.86193 0.14266 0.01645 0.0
C729 C 0.84114 0.20734 1.00964 0.0
C730 C 0.80123 0.19671 0.01439 0.0
C731 C 0.79189 0.15912 0.02117 0.0
C732 C 0.82189 0.13233 0.02209 0.0
C733 C 0.76908 0.22474 1.01222 0.0
C734 C 0.74401 0.22899 0.04457 0.0
C735 C 0.76383 0.24786 0.97911 0.0
C736 C 0.78865 0.24377 0.94352 0.0
C737 C 0.79164 0.20913 0.9244 0.0
C738 C 0.81604 0.20531 0.89161 0.0
C739 C 0.83724 0.23602 0.87734 0.0
C740 C 0.834 0.27065 0.89579 0.0
C741 C 0.80978 0.27459 0.92871 0.0
H742 H 0.85614 0.23299 0.85197 0.0
H743 H 0.6319 0.27287 0.17854 0.0
H744 H 0.6048 0.69986 0.94773 0.0
H745 H 0.65693 0.7474 0.94807 0.0
H746 H 0.66848 0.7358 0.07305 0.0
H747 H 0.6182 0.68662 0.07268 0.0
H748 H 0.66714 0.81283 0.97811 0.0
H749 H 0.76384 0.74682 0.10074 0.0
H750 H 0.77858 0.68456 0.12795 0.0
H751 H 0.74746 0.63378 0.01844 0.0
H752 H 0.73308 0.69574 0.99043 0.0
H753 H 0.81279 0.94304 0.03964 0.0
H754 H 0.75899 0.89735 0.03614 0.0
H755 H 0.84045 0.81572 0.98988 0.0
H756 H 0.89473 0.86098 0.99426 0.0
H757 H 0.79644 0.78407 0.04123 0.0
H758 H 0.77069 0.8622 0.93136 0.0
H759 H 0.75787 0.91976 0.89382 0.0
H760 H 0.65313 0.94029 0.96202 0.0
H761 H 0.66558 0.88313 1.00031 0.0
C762 C 0.6186 0.7072 0.9753 0.0
C763 C 0.60759 0.68895 1.0101 0.0
C764 C 0.64815 0.7347 0.97548 0.0
C765 C 0.66718 0.74473 1.01047 0.0
C766 C 0.65482 0.72799 0.04555 0.0
C767 C 0.62561 0.70017 0.04535 0.0
C768 C 0.70077 0.77179 1.01006 0.0
C769 C 0.69539 0.80661 0.99199 0.0
C770 C 0.73805 0.76329 0.02717 0.0
C771 C 0.74697 0.72591 0.04366 0.0
C772 C 0.76027 0.72237 0.08244 0.0
C773 C 0.76855 0.68714 0.09801 0.0
C774 C 0.76382 0.65523 0.07498 0.0
C775 C 0.75096 0.6585 0.03629 0.0
C776 C 0.7427 0.69367 0.02057 0.0
C777 C 0.81933 0.91537 0.02869 0.0
C778 C 0.85813 0.90569 0.01721 0.0
C779 C 0.78842 0.88932 0.02649 0.0
C780 C 0.79547 0.85324 1.01216 0.0
C781 C 0.83425 0.8434 1.00102 0.0
C782 C 0.86529 0.86931 1.0036 0.0
C783 C 0.76269 0.82544 1.00978 0.0
C784 C 0.76819 0.79043 0.0274 0.0
C785 C 0.72603 0.83335 0.99105 0.0
C786 C 0.71926 0.86849 0.96894 0.0
C787 C 0.74518 0.8792 0.93867 0.0
C788 C 0.73791 0.91172 0.91717 0.0
C789 C 0.70469 0.93364 0.92553 0.0
C790 C 0.67883 0.92326 0.95557 0.0
C791 C 0.68597 0.8908 0.97716 0.0
H792 H 0.6988 0.95856 0.90861 0.0
H793 H 0.77022 0.62797 0.0871 0.0
loop_
_geom_bond_atom_site_label_1
_geom_bond_atom_site_label_2
_geom_bond_distance
_geom_bond_site_symmetry_2
_ccdc_geom_bond_type
H0 C19 0.949 . S
H1 C20 0.950 . S
H2 C22 0.950 . S
H3 C23 0.950 . S
H4 C25 0.950 . S
H5 C28 0.950 . S
H6 C29 0.950 . S
H7 C31 0.951 . S
H8 C32 0.949 . S
H9 C34 0.949 . S
H10 C35 0.950 . S
H11 C37 0.950 . S
H12 C38 0.950 . S
H13 C40 0.950 . S
H14 C43 0.950 . S
H15 C44 0.950 . S
H16 C46 0.951 . S
H17 C47 0.949 . S
C18 C19 1.376 . S
C18 C23 1.386 1_455 S
C18 C24 1.483 . S
C19 H0 0.949 . S
C19 C18 1.376 . S
C19 C20 1.397 . S
C20 H1 0.950 . S
C20 C19 1.397 . S
C20 C21 1.391 . S
C21 C20 1.391 . S
C21 C22 1.405 1_455 S
C22 H2 0.950 . S
C22 C21 1.405 1_655 S
C22 C23 1.367 . S
C23 H3 0.950 . S
C23 C18 1.386 1_655 S
C23 C22 1.367 . S
C24 C18 1.483 . S
C24 C25 1.382 . S
C24 C26 1.403 1_455 S
C25 H4 0.950 . S
C25 C24 1.382 . S
C25 C41 1.411 . S
C26 C24 1.403 1_655 S
C26 C27 1.489 . S
C26 C40 1.411 . S
C27 C26 1.489 . S
C27 C28 1.383 1_655 S
C27 C32 1.382 . S
C28 H5 0.950 . S
C28 C27 1.383 1_455 S
C28 C29 1.395 . S
C29 H6 0.950 . S
C29 C28 1.395 . S
C29 C30 1.288 1_455 S
C30 C29 1.288 1_655 S
C30 C31 1.392 . S
C31 H7 0.951 . S
C31 C30 1.392 . S
C31 C32 1.392 . S
C32 H8 0.949 . S
C32 C27 1.382 . S
C32 C31 1.392 . S
C33 C34 1.376 . S
C33 C38 1.386 1_655 S
C33 C39 1.483 . S
C34 H9 0.949 . S
C34 C33 1.376 . S
C34 C35 1.397 . S
C35 H10 0.950 . S
C35 C34 1.397 . S
C35 C36 1.391 . S
C36 C35 1.391 . S
C36 C37 1.405 1_655 S
C37 H11 0.950 . S
C37 C36 1.405 1_455 S
C37 C38 1.367 . S
C38 H12 0.950 . S
C38 C33 1.386 1_455 S
C38 C37 1.367 . S
C39 C33 1.483 . S
C39 C40 1.382 . S
C39 C41 1.403 1_655 S
C40 H13 0.950 . S
C40 C26 1.411 . S
C40 C39 1.382 . S
C41 C25 1.411 . S
C41 C39 1.403 1_455 S
C41 C42 1.489 . S
C42 C41 1.489 . S
C42 C43 1.383 1_455 S
C42 C47 1.382 . S
C43 H14 0.950 . S
C43 C42 1.383 1_655 S
C43 C44 1.395 . S
C44 H15 0.950 . S
C44 C43 1.395 . S
C44 C45 1.288 1_655 S
C45 C44 1.288 1_455 S
C45 C46 1.392 . S
C46 H16 0.951 . S
C46 C45 1.392 . S
C46 C47 1.392 . S
C47 H17 0.949 . S
C47 C42 1.382 . S
C47 C46 1.392 . S
H48 C67 0.949 . S
H49 C68 0.950 . S
H50 C70 0.950 . S
H51 C71 0.950 . S
H52 C73 0.950 . S
H53 C76 0.950 . S
H54 C77 0.950 . S
H55 C79 0.951 . S
H56 C80 0.949 . S
H57 C82 0.949 . S
H58 C83 0.950 . S
H59 C85 0.950 . S
H60 C86 0.950 . S
H61 C88 0.950 . S
H62 C91 0.950 . S
H63 C92 0.950 . S
H64 C94 0.951 . S
H65 C95 0.949 . S
C66 C67 1.376 . S
C66 C71 1.386 1_545 S
C66 C72 1.483 . S
C67 H48 0.949 . S
C67 C66 1.376 . S
C67 C68 1.397 . S
C68 H49 0.950 . S
C68 C67 1.397 . S
C68 C69 1.391 . S
C69 C68 1.391 . S
C69 C70 1.405 1_545 S
C70 H50 0.950 . S
C70 C69 1.405 1_565 S
C70 C71 1.367 . S
C71 H51 0.950 . S
C71 C66 1.386 1_565 S
C71 C70 1.367 . S
C72 C66 1.483 . S
C72 C73 1.382 . S
C72 C74 1.403 1_545 S
C73 H52 0.950 . S
C73 C72 1.382 . S
C73 C89 1.411 . S
C74 C72 1.403 1_565 S
C74 C75 1.489 . S
C74 C88 1.411 . S
C75 C74 1.489 . S
C75 C76 1.383 1_565 S
C75 C80 1.382 . S
C76 H53 0.950 . S
C76 C75 1.383 1_545 S
C76 C77 1.395 . S
C77 H54 0.950 . S
C77 C76 1.395 . S
C77 C78 1.288 1_545 S
C78 C77 1.288 1_565 S
C78 C79 1.392 . S
C79 H55 0.951 . S
C79 C78 1.392 . S
C79 C80 1.392 . S
C80 H56 0.949 . S
C80 C75 1.382 . S
C80 C79 1.392 . S
C81 C82 1.376 . S
C81 C86 1.386 1_565 S
C81 C87 1.483 . S
C82 H57 0.949 . S
C82 C81 1.376 . S
C82 C83 1.397 . S
C83 H58 0.950 . S
C83 C82 1.397 . S
C83 C84 1.391 . S
C84 C83 1.391 . S
C84 C85 1.405 1_565 S
C85 H59 0.950 . S
C85 C84 1.405 1_545 S
C85 C86 1.367 . S
C86 H60 0.950 . S
C86 C81 1.386 1_545 S
C86 C85 1.367 . S
C87 C81 1.483 . S
C87 C88 1.382 . S
C87 C89 1.403 1_565 S
C88 H61 0.950 . S
C88 C74 1.411 . S
C88 C87 1.382 . S
C89 C73 1.411 . S
C89 C87 1.403 1_545 S
C89 C90 1.489 . S
C90 C89 1.489 . S
C90 C91 1.383 1_545 S
C90 C95 1.382 . S
C91 H62 0.950 . S
C91 C90 1.383 1_565 S
C91 C92 1.395 . S
C92 H63 0.950 . S
C92 C91 1.395 . S
C92 C93 1.288 1_565 S
C93 C92 1.288 1_545 S
C93 C94 1.392 . S
C94 H64 0.951 . S
C94 C93 1.392 . S
C94 C95 1.392 . S
C95 H65 0.949 . S
C95 C90 1.382 . S
C95 C94 1.392 . S
H96 C115 0.949 . S
H97 C116 0.950 . S
H98 C118 0.950 . S
H99 C119 0.950 . S
H100 C121 0.950 . S
H101 C124 0.950 . S
H102 C125 0.950 . S
H103 C127 0.951 . S
H104 C128 0.949 . S
H105 C130 0.949 . S
H106 C131 0.950 . S
H107 C133 0.950 . S
H108 C134 0.950 . S
H109 C136 0.950 . S
H110 C139 0.950 . S
H111 C140 0.950 . S
H112 C142 0.951 . S
H113 C143 0.949 . S
C114 C115 1.376 . S
C114 C119 1.386 1_556 S
C114 C120 1.483 . S
C115 H96 0.949 . S
C115 C114 1.376 . S
C115 C116 1.397 . S
C116 H97 0.950 . S
C116 C115 1.397 . S
C116 C117 1.391 . S
C117 C116 1.391 . S
C117 C118 1.405 1_556 S
C118 H98 0.950 . S
C118 C117 1.405 1_554 S
C118 C119 1.367 . S
C119 H99 0.950 . S
C119 C114 1.386 1_554 S
C119 C118 1.367 . S
C120 C114 1.483 . S
C120 C121 1.382 . S
C120 C122 1.403 1_556 S
C121 H100 0.950 . S
C121 C120 1.382 . S
C121 C137 1.411 . S
C122 C120 1.403 1_554 S
C122 C123 1.489 . S
C122 C136 1.411 . S
C123 C122 1.489 . S
C123 C124 1.383 1_554 S
C123 C128 1.382 . S
C124 H101 0.950 . S
C124 C123 1.383 1_556 S
C124 C125 1.395 . S
C125 H102 0.950 . S
C125 C124 1.395 . S
C125 C126 1.288 1_556 S
C126 C125 1.288 1_554 S
C126 C127 1.392 . S
C127 H103 0.951 . S
C127 C126 1.392 . S
C127 C128 1.392 . S
C128 H104 0.949 . S
C128 C123 1.382 . S
C128 C127 1.392 . S
C129 C130 1.376 . S
C129 C134 1.386 1_554 S
C129 C135 1.483 . S
C130 H105 0.949 . S
C130 C129 1.376 . S
C130 C131 1.397 . S
C131 H106 0.950 . S
C131 C130 1.397 . S
C131 C132 1.391 . S
C132 C131 1.391 . S
C132 C133 1.405 1_554 S
C133 H107 0.950 . S
C133 C132 1.405 1_556 S
C133 C134 1.367 . S
C134 H108 0.950 . S
C134 C129 1.386 1_556 S
C134 C133 1.367 . S
C135 C129 1.483 . S
C135 C136 1.382 . S
C135 C137 1.403 1_554 S
C136 H109 0.950 . S
C136 C122 1.411 . S
C136 C135 1.382 . S
C137 C121 1.411 . S
C137 C135 1.403 1_556 S
C137 C138 1.489 . S
C138 C137 1.489 . S
C138 C139 1.383 1_556 S
C138 C143 1.382 . S
C139 H110 0.950 . S
C139 C138 1.383 1_554 S
C139 C140 1.395 . S
C140 H111 0.950 . S
C140 C139 1.395 . S
C140 C141 1.288 1_554 S
C141 C140 1.288 1_556 S
C141 C142 1.392 . S
C142 H112 0.951 . S
C142 C141 1.392 . S
C142 C143 1.392 . S
C143 H113 0.949 . S
C143 C138 1.382 . S
C143 C142 1.392 . S
C144 O170 1.283 . S
C144 O188 1.283 . S
C145 O171 1.283 . S
C145 O186 1.283 . S
C146 O172 1.283 . S
C146 O189 1.283 . S
C147 O173 1.283 . S
C147 O187 1.283 . S
C148 O174 1.283 . S
C148 O183 1.283 . S
C149 O175 1.283 . S
C149 O185 1.283 . S
C150 O176 1.283 . S
C150 O182 1.283 . S
C151 O177 1.283 . S
C151 O184 1.283 . S
C152 O178 1.283 . S
C152 O193 1.283 . S
C153 O179 1.283 . S
C153 O191 1.283 . S
C154 O180 1.283 . S
C154 O192 1.283 . S
C155 O181 1.283 . S
C155 O190 1.283 . S
Eu156 O157 2.370 . S
Eu156 O158 2.370 1_454 S
Eu156 O161 2.370 1_554 S
Eu156 O162 2.370 1_455 S
Eu156 O170 2.363 1_554 S
Eu156 O171 2.363 . S
Eu156 O184 2.363 1_455 S
Eu156 O185 2.363 . S
O157 Eu156 2.370 . S
O157 Eu159 2.371 . S
O157 Eu164 2.371 . S
O158 Eu156 2.370 1_656 S
O158 Eu160 2.370 1_556 S
O158 Eu163 2.370 1_655 S
Eu159 O157 2.371 . S
Eu159 O161 2.370 1_554 S
Eu159 O165 2.370 1_544 S
Eu159 O166 2.370 1_545 S
Eu159 O174 2.363 1_545 S
Eu159 O175 2.363 . S
Eu159 O190 2.363 1_554 S
Eu159 O191 2.363 . S
Eu160 O158 2.370 1_554 S
Eu160 O162 2.370 . S
Eu160 O167 2.370 1_545 S
Eu160 O168 2.371 1_544 S
Eu160 O176 2.363 1_545 S
Eu160 O177 2.363 . S
Eu160 O192 2.363 1_554 S
Eu160 O193 2.363 . S
O161 Eu156 2.370 1_556 S
O161 Eu159 2.370 1_556 S
O161 Eu163 2.370 . S
O162 Eu156 2.370 1_655 S
O162 Eu160 2.370 . S
O162 Eu164 2.370 1_655 S
Eu163 O158 2.370 1_455 S
Eu163 O161 2.370 . S
Eu163 O165 2.370 1_545 S
Eu163 O168 2.371 1_445 S
Eu163 O180 2.363 1_455 S
Eu163 O181 2.363 . S
Eu163 O188 2.363 . S
Eu163 O189 2.363 1_545 S
Eu164 O157 2.371 . S
Eu164 O162 2.370 1_455 S
Eu164 O166 2.370 1_545 S
Eu164 O167 2.370 1_445 S
Eu164 O178 2.363 1_455 S
Eu164 O179 2.363 . S
Eu164 O186 2.363 . S
Eu164 O187 2.363 1_545 S
O165 Eu159 2.370 1_566 S
O165 Eu163 2.370 1_565 S
O165 Eu169 2.370 1_556 S
O166 Eu159 2.370 1_565 S
O166 Eu164 2.370 1_565 S
O166 Eu169 2.370 . S
O167 Eu160 2.370 1_565 S
O167 Eu164 2.370 1_665 S
O167 Eu169 2.370 1_655 S
O168 Eu160 2.371 1_566 S
O168 Eu163 2.371 1_665 S
O168 Eu169 2.370 1_656 S
Eu169 O165 2.370 1_554 S
Eu169 O166 2.370 . S
Eu169 O167 2.370 1_455 S
Eu169 O168 2.370 1_454 S
Eu169 O172 2.363 1_554 S
Eu169 O173 2.363 . S
Eu169 O182 2.363 1_455 S
Eu169 O183 2.363 . S
O170 C144 1.283 . S
O170 Eu156 2.363 1_556 S
O171 C145 1.283 . S
O171 Eu156 2.363 . S
O172 C146 1.283 . S
O172 Eu169 2.363 1_556 S
O173 C147 1.283 . S
O173 Eu169 2.363 . S
O174 C148 1.283 . S
O174 Eu159 2.363 1_565 S
O175 C149 1.283 . S
O175 Eu159 2.363 . S
O176 C150 1.283 . S
O176 Eu160 2.363 1_565 S
O177 C151 1.283 . S
O177 Eu160 2.363 . S
O178 C152 1.283 . S
O178 Eu164 2.363 1_655 S
O179 C153 1.283 . S
O179 Eu164 2.363 . S
O180 C154 1.283 . S
O180 Eu163 2.363 1_655 S
O181 C155 1.283 . S
O181 Eu163 2.363 . S
O182 C150 1.283 . S
O182 Eu169 2.363 1_655 S
O183 C148 1.283 . S
O183 Eu169 2.363 . S
O184 C151 1.283 . S
O184 Eu156 2.363 1_655 S
O185 C149 1.283 . S
O185 Eu156 2.363 . S
O186 C145 1.283 . S
O186 Eu164 2.363 . S
O187 C147 1.283 . S
O187 Eu164 2.363 1_565 S
O188 C144 1.283 . S
O188 Eu163 2.363 . S
O189 C146 1.283 . S
O189 Eu163 2.363 1_565 S
O190 C155 1.283 . S
O190 Eu159 2.363 1_556 S
O191 C153 1.283 . S
O191 Eu159 2.363 . S
O192 C154 1.283 . S
O192 Eu160 2.363 1_556 S
O193 C152 1.283 . S
O193 Eu160 2.363 . S
H194 C212 0.951 . S
H195 C214 0.951 . S
H196 C216 0.950 . S
H197 C217 0.950 . S
H198 C219 0.950 . S
H199 C222 0.950 . S
H200 C223 0.950 . S
H201 C225 0.950 . S
H202 C226 0.950 . S
H203 C227 0.951 . S
H204 C229 0.951 . S
H205 C231 0.950 . S
H206 C232 0.950 . S
H207 C234 0.950 . S
H208 C237 0.950 . S
H209 C238 0.950 . S
H210 C240 0.950 . S
H211 C241 0.950 . S
C212 H194 0.951 . S
C212 C213 1.366 1_655 S
C212 C214 1.388 . S
C213 C212 1.366 1_455 S
C213 C217 1.384 . S
C214 H195 0.951 . S
C214 C212 1.388 . S
C214 C215 1.366 1_655 S
C215 C214 1.366 1_455 S
C215 C216 1.414 . S
C215 C218 1.499 . S
C216 H196 0.950 . S
C216 C215 1.414 . S
C216 C217 1.374 . S
C217 H197 0.950 . S
C217 C213 1.384 . S
C217 C216 1.374 . S
C218 C215 1.499 . S
C218 C219 1.373 1_455 S
C218 C220 1.389 . S
C219 H198 0.950 . S
C219 C218 1.373 1_655 S
C219 C235 1.377 . S
C220 C218 1.389 . S
C220 C221 1.524 . S
C220 C234 1.377 . S
C221 C220 1.524 . S
C221 C222 1.397 . S
C221 C226 1.363 . S
C222 H199 0.950 . S
C222 C221 1.397 . S
C222 C223 1.334 . S
C223 H200 0.950 . S
C223 C222 1.334 . S
C223 C224 1.287 . S
C224 C223 1.287 . S
C224 C225 1.524 . S
C224 H243 0.913 . S
C225 H201 0.950 . S
C225 C224 1.524 . S
C225 C226 1.415 . S
C226 H202 0.950 . S
C226 C221 1.363 . S
C226 C225 1.415 . S
C227 H203 0.951 . S
C227 C228 1.366 . S
C227 C229 1.388 . S
C228 C227 1.366 . S
C228 C232 1.384 1_455 S
C229 H204 0.951 . S
C229 C227 1.388 . S
C229 C230 1.366 1_455 S
C230 C229 1.366 1_655 S
C230 C231 1.414 . S
C230 C233 1.499 . S
C231 H205 0.950 . S
C231 C230 1.414 . S
C231 C232 1.374 . S
C232 H206 0.950 . S
C232 C228 1.384 1_655 S
C232 C231 1.374 . S
C233 C230 1.499 . S
C233 C234 1.373 1_655 S
C233 C235 1.389 . S
C234 H207 0.950 . S
C234 C220 1.377 . S
C234 C233 1.373 1_455 S
C235 C219 1.377 . S
C235 C233 1.389 . S
C235 C236 1.524 . S
C236 C235 1.524 . S
C236 C237 1.397 . S
C236 C241 1.363 . S
C237 H208 0.950 . S
C237 C236 1.397 . S
C237 C238 1.334 . S
C238 H209 0.950 . S
C238 C237 1.334 . S
C238 C239 1.287 . S
C239 C238 1.287 . S
C239 C240 1.524 . S
C239 H242 0.999 . S
C240 H210 0.950 . S
C240 C239 1.524 . S
C240 C241 1.415 . S
C241 H211 0.950 . S
C241 C236 1.363 . S
C241 C240 1.415 . S
H242 C239 0.999 . S
H243 C224 0.913 . S
H244 C262 0.951 . S
H245 C264 0.951 . S
H246 C266 0.950 . S
H247 C267 0.950 . S
H248 C269 0.950 . S
H249 C272 0.950 . S
H250 C273 0.950 . S
H251 C275 0.950 . S
H252 C276 0.950 . S
H253 C277 0.951 . S
H254 C279 0.951 . S
H255 C281 0.950 . S
H256 C282 0.950 . S
H257 C284 0.950 . S
H258 C287 0.950 . S
H259 C288 0.950 . S
H260 C290 0.950 . S
H261 C291 0.950 . S
C262 H244 0.951 . S
C262 C263 1.365 1_565 S
C262 C264 1.388 . S
C263 C262 1.365 1_545 S
C263 C267 1.386 . S
C264 H245 0.951 . S
C264 C262 1.388 . S
C264 C265 1.366 . S
C265 C264 1.366 . S
C265 C266 1.414 1_565 S
C265 C268 1.499 . S
C266 H246 0.950 . S
C266 C265 1.414 1_545 S
C266 C267 1.374 . S
C267 H247 0.950 . S
C267 C263 1.386 . S
C267 C266 1.374 . S
C268 C265 1.499 . S
C268 C269 1.358 1_565 S
C268 C270 1.404 . S
C269 H248 0.950 . S
C269 C268 1.358 1_545 S
C269 C285 1.377 . S
C270 C268 1.404 . S
C270 C271 1.524 . S
C270 C284 1.377 . S
C271 C270 1.524 . S
C271 C272 1.397 . S
C271 C276 1.363 . S
C272 H249 0.950 . S
C272 C271 1.397 . S
C272 C273 1.334 . S
C273 H250 0.950 . S
C273 C272 1.334 . S
C273 C274 1.287 . S
C274 C273 1.287 . S
C274 C275 1.524 . S
C274 H293 0.913 . S
C275 H251 0.950 . S
C275 C274 1.524 . S
C275 C276 1.415 . S
C276 H252 0.950 . S
C276 C271 1.363 . S
C276 C275 1.415 . S
C277 H253 0.951 . S
C277 C278 1.365 . S
C277 C279 1.388 . S
C278 C277 1.365 . S
C278 C282 1.386 1_545 S
C279 H254 0.951 . S
C279 C277 1.388 . S
C279 C280 1.366 . S
C280 C279 1.366 . S
C280 C281 1.414 1_545 S
C280 C283 1.499 . S
C281 H255 0.950 . S
C281 C280 1.414 1_565 S
C281 C282 1.374 . S
C282 H256 0.950 . S
C282 C278 1.386 1_565 S
C282 C281 1.374 . S
C283 C280 1.499 . S
C283 C284 1.352 1_545 S
C283 C285 1.410 . S
C284 H257 0.950 . S
C284 C270 1.377 . S
C284 C283 1.352 1_565 S
C285 C269 1.377 . S
C285 C283 1.410 . S
C285 C286 1.524 . S
C286 C285 1.524 . S
C286 C287 1.397 . S
C286 C291 1.363 . S
C287 H258 0.950 . S
C287 C286 1.397 . S
C287 C288 1.334 . S
C288 H259 0.950 . S
C288 C287 1.334 . S
C288 C289 1.287 . S
C289 C288 1.287 . S
C289 C290 1.524 . S
C289 H292 0.999 . S
C290 H260 0.950 . S
C290 C289 1.524 . S
C290 C291 1.415 . S
C291 H261 0.950 . S
C291 C286 1.363 . S
C291 C290 1.415 . S
H292 C289 0.999 . S
H293 C274 0.913 . S
H294 C312 0.951 . S
H295 C314 0.951 . S
H296 C316 0.950 . S
H297 C317 0.950 . S
H298 C319 0.950 . S
H299 C322 0.950 . S
H300 C323 0.950 . S
H301 C325 0.950 . S
H302 C326 0.950 . S
H303 C327 0.951 . S
H304 C329 0.951 . S
H305 C331 0.950 . S
H306 C332 0.950 . S
H307 C334 0.950 . S
H308 C337 0.950 . S
H309 C338 0.950 . S
H310 C340 0.950 . S
H311 C341 0.950 . S
C312 H294 0.951 . S
C312 C313 1.366 . S
C312 C314 1.388 . S
C313 C312 1.366 . S
C313 C317 1.384 1_455 S
C314 H295 0.951 . S
C314 C312 1.388 . S
C314 C315 1.366 1_455 S
C315 C314 1.366 1_655 S
C315 C316 1.414 . S
C315 C318 1.499 . S
C316 H296 0.950 . S
C316 C315 1.414 . S
C316 C317 1.374 . S
C317 H297 0.950 . S
C317 C313 1.384 1_655 S
C317 C316 1.374 . S
C318 C315 1.499 . S
C318 C319 1.373 . S
C318 C320 1.390 . S
C319 H298 0.950 . S
C319 C318 1.373 . S
C319 C335 1.375 1_655 S
C320 C318 1.390 . S
C320 C321 1.526 . S
C320 C334 1.376 1_655 S
C321 C320 1.526 . S
C321 C322 1.397 . S
C321 C326 1.363 1_655 S
C322 H299 0.950 . S
C322 C321 1.397 . S
C322 C323 1.334 . S
C323 H300 0.950 . S
C323 C322 1.334 . S
C323 C324 1.287 . S
C324 C323 1.287 . S
C324 C325 1.524 1_655 S
C324 H343 0.913 . S
C325 H301 0.950 . S
C325 C324 1.524 1_455 S
C325 C326 1.415 . S
C326 H302 0.950 . S
C326 C321 1.363 1_455 S
C326 C325 1.415 . S
C327 H303 0.951 . S
C327 C328 1.366 1_655 S
C327 C329 1.388 . S
C328 C327 1.366 1_455 S
C328 C332 1.384 . S
C329 H304 0.951 . S
C329 C327 1.388 . S
C329 C330 1.366 1_655 S
C330 C329 1.366 1_455 S
C330 C331 1.414 . S
C330 C333 1.499 . S
C331 H305 0.950 . S
C331 C330 1.414 . S
C331 C332 1.374 . S
C332 H306 0.950 . S
C332 C328 1.384 . S
C332 C331 1.374 . S
C333 C330 1.499 . S
C333 C334 1.373 . S
C333 C335 1.390 . S
C334 H307 0.950 . S
C334 C320 1.376 1_455 S
C334 C333 1.373 . S
C335 C319 1.375 1_455 S
C335 C333 1.390 . S
C335 C336 1.526 . S
C336 C335 1.526 . S
C336 C337 1.397 . S
C336 C341 1.363 1_455 S
C337 H308 0.950 . S
C337 C336 1.397 . S
C337 C338 1.334 . S
C338 H309 0.950 . S
C338 C337 1.334 . S
C338 C339 1.287 . S
C339 C338 1.287 . S
C339 C340 1.524 1_455 S
C339 H342 0.999 . S
C340 H310 0.950 . S
C340 C339 1.524 1_655 S
C340 C341 1.415 . S
C341 H311 0.950 . S
C341 C336 1.363 1_655 S
C341 C340 1.415 . S
H342 C339 0.999 . S
H343 C324 0.913 . S
H344 C362 0.951 . S
H345 C364 0.951 . S
H346 C366 0.950 . S
H347 C367 0.950 . S
H348 C369 0.950 . S
H349 C372 0.950 . S
H350 C373 0.950 . S
H351 C375 0.950 . S
H352 C376 0.950 . S
H353 C377 0.951 . S
H354 C379 0.951 . S
H355 C381 0.950 . S
H356 C382 0.950 . S
H357 C384 0.950 . S
H358 C387 0.950 . S
H359 C388 0.950 . S
H360 C390 0.950 . S
H361 C391 0.950 . S
C362 H344 0.951 . S
C362 C363 1.366 1_565 S
C362 C364 1.388 . S
C363 C362 1.366 1_545 S
C363 C367 1.384 . S
C364 H345 0.951 . S
C364 C362 1.388 . S
C364 C365 1.342 1_565 S
C365 C364 1.342 1_545 S
C365 C366 1.437 . S
C365 C368 1.500 . S
C366 H346 0.950 . S
C366 C365 1.437 . S
C366 C367 1.374 . S
C367 H347 0.950 . S
C367 C363 1.384 . S
C367 C366 1.374 . S
C368 C365 1.500 . S
C368 C369 1.373 . S
C368 C370 1.389 1_545 S
C369 H348 0.950 . S
C369 C368 1.373 . S
C369 C385 1.377 . S
C370 C368 1.389 1_565 S
C370 C371 1.524 . S
C370 C384 1.377 . S
C371 C370 1.524 . S
C371 C372 1.397 1_565 S
C371 C376 1.363 . S
C372 H349 0.950 . S
C372 C371 1.397 1_545 S
C372 C373 1.334 . S
C373 H350 0.950 . S
C373 C372 1.334 . S
C373 C374 1.287 1_545 S
C374 C373 1.287 1_565 S
C374 C375 1.524 . S
C374 H393 0.913 . S
C375 H351 0.950 . S
C375 C374 1.524 . S
C375 C376 1.415 . S
C376 H352 0.950 . S
C376 C371 1.363 . S
C376 C375 1.415 . S
C377 H353 0.951 . S
C377 C378 1.367 . S
C377 C379 1.388 . S
C378 C377 1.367 . S
C378 C382 1.383 1_545 S
C379 H354 0.951 . S
C379 C377 1.388 . S
C379 C380 1.349 1_545 S
C380 C379 1.349 1_565 S
C380 C381 1.431 . S
C380 C383 1.499 . S
C381 H355 0.950 . S
C381 C380 1.431 . S
C381 C382 1.374 . S
C382 H356 0.950 . S
C382 C378 1.383 1_565 S
C382 C381 1.374 . S
C383 C380 1.499 . S
C383 C384 1.373 . S
C383 C385 1.389 1_565 S
C384 H357 0.950 . S
C384 C370 1.377 . S
C384 C383 1.373 . S
C385 C369 1.377 . S
C385 C383 1.389 1_545 S
C385 C386 1.524 . S
C386 C385 1.524 . S
C386 C387 1.397 1_545 S
C386 C391 1.363 . S
C387 H358 0.950 . S
C387 C386 1.397 1_565 S
C387 C388 1.334 . S
C388 H359 0.950 . S
C388 C387 1.334 . S
C388 C389 1.287 1_565 S
C389 C388 1.287 1_545 S
C389 C390 1.524 . S
C389 H392 0.999 . S
C390 H360 0.950 . S
C390 C389 1.524 . S
C390 C391 1.415 . S
C391 H361 0.950 . S
C391 C386 1.363 . S
C391 C390 1.415 . S
H392 C389 0.999 . S
H393 C374 0.913 . S
H394 C412 0.951 . S
H395 C414 0.951 . S
H396 C416 0.950 . S
H397 C417 0.950 . S
H398 C419 0.950 . S
H399 C422 0.950 . S
H400 C423 0.950 . S
H401 C425 0.950 . S
H402 C426 0.950 . S
H403 C427 0.951 . S
H404 C429 0.951 . S
H405 C431 0.950 . S
H406 C432 0.950 . S
H407 C434 0.950 . S
H408 C437 0.950 . S
H409 C438 0.950 . S
H410 C440 0.950 . S
H411 C441 0.950 . S
C412 H394 0.951 . S
C412 C413 1.366 . S
C412 C414 1.388 . S
C413 C412 1.366 . S
C413 C417 1.384 1_455 S
C414 H395 0.951 . S
C414 C412 1.388 . S
C414 C415 1.366 1_455 S
C415 C414 1.366 1_655 S
C415 C416 1.414 . S
C415 C418 1.499 . S
C416 H396 0.950 . S
C416 C415 1.414 . S
C416 C417 1.374 . S
C417 H397 0.950 . S
C417 C413 1.384 1_655 S
C417 C416 1.374 . S
C418 C415 1.499 . S
C418 C419 1.373 . S
C418 C420 1.389 1_655 S
C419 H398 0.950 . S
C419 C418 1.373 . S
C419 C435 1.377 . S
C420 C418 1.389 1_455 S
C420 C421 1.524 . S
C420 C434 1.377 . S
C421 C420 1.524 . S
C421 C422 1.397 1_455 S
C421 C426 1.363 . S
C422 H399 0.950 . S
C422 C421 1.397 1_655 S
C422 C423 1.334 . S
C423 H400 0.950 . S
C423 C422 1.334 . S
C423 C424 1.287 1_655 S
C424 C423 1.287 1_455 S
C424 C425 1.524 . S
C424 H443 0.913 . S
C425 H401 0.950 . S
C425 C424 1.524 . S
C425 C426 1.415 . S
C426 H402 0.950 . S
C426 C421 1.363 . S
C426 C425 1.415 . S
C427 H403 0.951 . S
C427 C428 1.367 1_655 S
C427 C429 1.388 . S
C428 C427 1.367 1_455 S
C428 C432 1.383 . S
C429 H404 0.951 . S
C429 C427 1.388 . S
C429 C430 1.366 1_655 S
C430 C429 1.366 1_455 S
C430 C431 1.414 . S
C430 C433 1.499 . S
C431 H405 0.950 . S
C431 C430 1.414 . S
C431 C432 1.374 . S
C432 H406 0.950 . S
C432 C428 1.383 . S
C432 C431 1.374 . S
C433 C430 1.499 . S
C433 C434 1.373 . S
C433 C435 1.389 1_455 S
C434 H407 0.950 . S
C434 C420 1.377 . S
C434 C433 1.373 . S
C435 C419 1.377 . S
C435 C433 1.389 1_655 S
C435 C436 1.524 . S
C436 C435 1.524 . S
C436 C437 1.397 1_655 S
C436 C441 1.363 . S
C437 H408 0.950 . S
C437 C436 1.397 1_455 S
C437 C438 1.334 . S
C438 H409 0.950 . S
C438 C437 1.334 . S
C438 C439 1.287 1_455 S
C439 C438 1.287 1_655 S
C439 C440 1.524 . S
C439 H442 0.999 . S
C440 H410 0.950 . S
C440 C439 1.524 . S
C440 C441 1.415 . S
C441 H411 0.950 . S
C441 C436 1.363 . S
C441 C440 1.415 . S
H442 C439 0.999 . S
H443 C424 0.913 . S
H444 C462 0.952 . S
H445 C464 0.951 1_545 S
H446 C466 0.950 . S
H447 C467 0.950 . S
H448 C469 0.950 . S
H449 C472 0.950 . S
H450 C473 0.950 . S
H451 C475 0.950 . S
H452 C476 0.950 . S
H453 C477 0.951 . S
H454 C479 0.951 1_565 S
H455 C481 0.950 . S
H456 C482 0.950 . S
H457 C484 0.950 . S
H458 C487 0.950 . S
H459 C488 0.950 . S
H460 C490 0.950 . S
H461 C491 0.950 . S
C462 H444 0.952 . S
C462 C463 1.366 . S
C462 C464 1.387 1_545 S
C463 C462 1.366 . S
C463 C467 1.384 1_545 S
C464 H445 0.951 1_565 S
C464 C462 1.387 1_565 S
C464 C465 1.366 . S
C465 C464 1.366 . S
C465 C466 1.414 . S
C465 C468 1.499 . S
C466 H446 0.950 . S
C466 C465 1.414 . S
C466 C467 1.374 . S
C467 H447 0.950 . S
C467 C463 1.384 1_565 S
C467 C466 1.374 . S
C468 C465 1.499 . S
C468 C469 1.373 1_565 S
C468 C470 1.389 . S
C469 H448 0.950 . S
C469 C468 1.373 1_545 S
C469 C485 1.377 . S
C470 C468 1.389 . S
C470 C471 1.524 . S
C470 C484 1.377 . S
C471 C470 1.524 . S
C471 C472 1.397 . S
C471 C476 1.363 . S
C472 H449 0.950 . S
C472 C471 1.397 . S
C472 C473 1.334 . S
C473 H450 0.950 . S
C473 C472 1.334 . S
C473 C474 1.287 . S
C474 C473 1.287 . S
C474 C475 1.524 . S
C474 H493 0.913 . S
C475 H451 0.950 . S
C475 C474 1.524 . S
C475 C476 1.415 . S
C476 H452 0.950 . S
C476 C471 1.363 . S
C476 C475 1.415 . S
C477 H453 0.951 . S
C477 C478 1.366 1_565 S
C477 C479 1.387 1_565 S
C478 C477 1.366 1_545 S
C478 C482 1.384 . S
C479 H454 0.951 1_545 S
C479 C477 1.387 1_545 S
C479 C480 1.366 . S
C480 C479 1.366 . S
C480 C481 1.414 . S
C480 C483 1.499 . S
C481 H455 0.950 . S
C481 C480 1.414 . S
C481 C482 1.374 . S
C482 H456 0.950 . S
C482 C478 1.384 . S
C482 C481 1.374 . S
C483 C480 1.499 . S
C483 C484 1.373 1_545 S
C483 C485 1.389 . S
C484 H457 0.950 . S
C484 C470 1.377 . S
C484 C483 1.373 1_565 S
C485 C469 1.377 . S
C485 C483 1.389 . S
C485 C486 1.524 . S
C486 C485 1.524 . S
C486 C487 1.397 . S
C486 C491 1.363 . S
C487 H458 0.950 . S
C487 C486 1.397 . S
C487 C488 1.334 . S
C488 H459 0.950 . S
C488 C487 1.334 . S
C488 C489 1.287 . S
C489 C488 1.287 . S
C489 C490 1.524 . S
C489 H492 0.999 . S
C490 H460 0.950 . S
C490 C489 1.524 . S
C490 C491 1.415 . S
C491 H461 0.950 . S
C491 C486 1.363 . S
C491 C490 1.415 . S
H492 C489 0.999 . S
H493 C474 0.913 . S
H494 C512 0.951 . S
H495 C514 0.951 . S
H496 C516 0.950 . S
H497 C517 0.950 . S
H498 C519 0.950 . S
H499 C522 0.950 . S
H500 C523 0.950 . S
H501 C525 0.950 . S
H502 C526 0.950 . S
H503 C527 0.951 . S
H504 C529 0.951 . S
H505 C531 0.950 . S
H506 C532 0.950 . S
H507 C534 0.950 . S
H508 C537 0.950 . S
H509 C538 0.950 . S
H510 C540 0.950 . S
H511 C541 0.950 . S
C512 H494 0.951 . S
C512 C513 1.365 1_655 S
C512 C514 1.388 . S
C513 C512 1.365 1_455 S
C513 C517 1.386 . S
C514 H495 0.951 . S
C514 C512 1.388 . S
C514 C515 1.366 . S
C515 C514 1.366 . S
C515 C516 1.414 1_655 S
C515 C518 1.499 . S
C516 H496 0.950 . S
C516 C515 1.414 1_455 S
C516 C517 1.374 . S
C517 H497 0.950 . S
C517 C513 1.386 . S
C517 C516 1.374 . S
C518 C515 1.499 . S
C518 C519 1.364 1_655 S
C518 C520 1.399 . S
C519 H498 0.950 . S
C519 C518 1.364 1_455 S
C519 C535 1.377 . S
C520 C518 1.399 . S
C520 C521 1.524 . S
C520 C534 1.377 . S
C521 C520 1.524 . S
C521 C522 1.397 . S
C521 C526 1.363 . S
C522 H499 0.950 . S
C522 C521 1.397 . S
C522 C523 1.334 . S
C523 H500 0.950 . S
C523 C522 1.334 . S
C523 C524 1.287 . S
C524 C523 1.287 . S
C524 C525 1.524 . S
C524 H543 0.913 . S
C525 H501 0.950 . S
C525 C524 1.524 . S
C525 C526 1.415 . S
C526 H502 0.950 . S
C526 C521 1.363 . S
C526 C525 1.415 . S
C527 H503 0.951 . S
C527 C528 1.365 . S
C527 C529 1.388 . S
C528 C527 1.365 . S
C528 C532 1.386 1_455 S
C529 H504 0.951 . S
C529 C527 1.388 . S
C529 C530 1.366 . S
C530 C529 1.366 . S
C530 C531 1.414 1_455 S
C530 C533 1.499 . S
C531 H505 0.950 . S
C531 C530 1.414 1_655 S
C531 C532 1.374 . S
C532 H506 0.950 . S
C532 C528 1.386 1_655 S
C532 C531 1.374 . S
C533 C530 1.499 . S
C533 C534 1.358 1_455 S
C533 C535 1.404 . S
C534 H507 0.950 . S
C534 C520 1.377 . S
C534 C533 1.358 1_655 S
C535 C519 1.377 . S
C535 C533 1.404 . S
C535 C536 1.524 . S
C536 C535 1.524 . S
C536 C537 1.397 . S
C536 C541 1.363 . S
C537 H508 0.950 . S
C537 C536 1.397 . S
C537 C538 1.334 . S
C538 H509 0.950 . S
C538 C537 1.334 . S
C538 C539 1.287 . S
C539 C538 1.287 . S
C539 C540 1.524 . S
C539 H542 0.999 . S
C540 H510 0.950 . S
C540 C539 1.524 . S
C540 C541 1.415 . S
C541 H511 0.950 . S
C541 C536 1.363 . S
C541 C540 1.415 . S
H542 C539 0.999 . S
H543 C524 0.913 . S
H544 C562 0.951 . S
H545 C564 0.951 . S
H546 C566 0.950 . S
H547 C567 0.950 . S
H548 C569 0.950 . S
H549 C572 0.950 . S
H550 C573 0.950 . S
H551 C575 0.950 . S
H552 C576 0.950 . S
H553 C577 0.951 . S
H554 C579 0.951 . S
H555 C581 0.950 . S
H556 C582 0.950 . S
H557 C584 0.950 . S
H558 C587 0.950 . S
H559 C588 0.950 . S
H560 C590 0.950 . S
H561 C591 0.950 . S
C562 H544 0.951 . S
C562 C563 1.366 . S
C562 C564 1.388 . S
C563 C562 1.366 . S
C563 C567 1.384 1_545 S
C564 H545 0.951 . S
C564 C562 1.388 . S
C564 C565 1.366 1_545 S
C565 C564 1.366 1_565 S
C565 C566 1.414 . S
C565 C568 1.499 . S
C566 H546 0.950 . S
C566 C565 1.414 . S
C566 C567 1.374 . S
C567 H547 0.950 . S
C567 C563 1.384 1_565 S
C567 C566 1.374 . S
C568 C565 1.499 . S
C568 C569 1.373 1_565 S
C568 C570 1.389 . S
C569 H548 0.950 . S
C569 C568 1.373 1_545 S
C569 C585 1.377 . S
C570 C568 1.389 . S
C570 C571 1.524 . S
C570 C584 1.377 . S
C571 C570 1.524 . S
C571 C572 1.397 . S
C571 C576 1.363 . S
C572 H549 0.950 . S
C572 C571 1.397 . S
C572 C573 1.334 . S
C573 H550 0.950 . S
C573 C572 1.334 . S
C573 C574 1.287 . S
C574 C573 1.287 . S
C574 C575 1.524 . S
C574 H593 0.913 . S
C575 H551 0.950 . S
C575 C574 1.524 . S
C575 C576 1.415 . S
C576 H552 0.950 . S
C576 C571 1.363 . S
C576 C575 1.415 . S
C577 H553 0.951 . S
C577 C578 1.366 1_565 S
C577 C579 1.388 . S
C578 C577 1.366 1_545 S
C578 C582 1.384 . S
C579 H554 0.951 . S
C579 C577 1.388 . S
C579 C580 1.366 1_565 S
C580 C579 1.366 1_545 S
C580 C581 1.414 . S
C580 C583 1.499 . S
C581 H555 0.950 . S
C581 C580 1.414 . S
C581 C582 1.374 . S
C582 H556 0.950 . S
C582 C578 1.384 . S
C582 C581 1.374 . S
C583 C580 1.499 . S
C583 C584 1.373 1_545 S
C583 C585 1.389 . S
C584 H557 0.950 . S
C584 C570 1.377 . S
C584 C583 1.373 1_565 S
C585 C569 1.377 . S
C585 C583 1.389 . S
C585 C586 1.524 . S
C586 C585 1.524 . S
C586 C587 1.397 . S
C586 C591 1.363 . S
C587 H558 0.950 . S
C587 C586 1.397 . S
C587 C588 1.334 . S
C588 H559 0.950 . S
C588 C587 1.334 . S
C588 C589 1.287 . S
C589 C588 1.287 . S
C589 C590 1.524 . S
C589 H592 0.999 . S
C590 H560 0.950 . S
C590 C589 1.524 . S
C590 C591 1.415 . S
C591 H561 0.950 . S
C591 C586 1.363 . S
C591 C590 1.415 . S
H592 C589 0.999 . S
H593 C574 0.913 . S
H594 C612 0.951 . S
H595 C614 0.951 . S
H596 C616 0.950 . S
H597 C617 0.950 . S
H598 C619 0.950 . S
H599 C622 0.950 1_554 S
H600 C623 0.950 . S
H601 C625 0.950 . S
H602 C626 0.950 . S
H603 C627 0.951 . S
H604 C629 0.951 . S
H605 C631 0.950 . S
H606 C632 0.950 . S
H607 C634 0.950 . S
H608 C637 0.950 1_556 S
H609 C638 0.950 . S
H610 C640 0.950 . S
H611 C641 0.950 . S
C612 H594 0.951 . S
C612 C613 1.365 1_556 S
C612 C614 1.388 . S
C613 C612 1.365 1_554 S
C613 C617 1.385 . S
C614 H595 0.951 . S
C614 C612 1.388 . S
C614 C615 1.352 1_556 S
C615 C614 1.352 1_554 S
C615 C616 1.428 . S
C615 C618 1.499 . S
C616 H596 0.950 . S
C616 C615 1.428 . S
C616 C617 1.374 . S
C617 H597 0.950 . S
C617 C613 1.385 . S
C617 C616 1.374 . S
C618 C615 1.499 . S
C618 C619 1.373 . S
C618 C620 1.389 1_554 S
C619 H598 0.950 . S
C619 C618 1.373 . S
C619 C635 1.377 . S
C620 C618 1.389 1_556 S
C620 C621 1.524 . S
C620 C634 1.377 . S
C621 C620 1.524 . S
C621 C622 1.397 . S
C621 C626 1.363 . S
C622 H599 0.950 1_556 S
C622 C621 1.397 . S
C622 C623 1.334 . S
C623 H600 0.950 . S
C623 C622 1.334 . S
C623 C624 1.287 . S
C624 C623 1.287 . S
C624 C625 1.524 . S
C624 H643 0.913 . S
C625 H601 0.950 . S
C625 C624 1.524 . S
C625 C626 1.415 . S
C626 H602 0.950 . S
C626 C621 1.363 . S
C626 C625 1.415 . S
C627 H603 0.951 . S
C627 C628 1.367 . S
C627 C629 1.388 . S
C628 C627 1.367 . S
C628 C632 1.384 1_554 S
C629 H604 0.951 . S
C629 C627 1.388 . S
C629 C630 1.359 1_554 S
C630 C629 1.359 1_556 S
C630 C631 1.421 . S
C630 C633 1.499 . S
C631 H605 0.950 . S
C631 C630 1.421 . S
C631 C632 1.374 . S
C632 H606 0.950 . S
C632 C628 1.384 1_556 S
C632 C631 1.374 . S
C633 C630 1.499 . S
C633 C634 1.373 . S
C633 C635 1.389 1_556 S
C634 H607 0.950 . S
C634 C620 1.377 . S
C634 C633 1.373 . S
C635 C619 1.377 . S
C635 C633 1.389 1_554 S
C635 C636 1.524 . S
C636 C635 1.524 . S
C636 C637 1.397 . S
C636 C641 1.363 . S
C637 H608 0.950 1_554 S
C637 C636 1.397 . S
C637 C638 1.334 . S
C638 H609 0.950 . S
C638 C637 1.334 . S
C638 C639 1.287 . S
C639 C638 1.287 . S
C639 C640 1.524 . S
C639 H642 0.999 . S
C640 H610 0.950 . S
C640 C639 1.524 . S
C640 C641 1.415 . S
C641 H611 0.950 . S
C641 C636 1.363 . S
C641 C640 1.415 . S
H642 C639 0.999 . S
H643 C624 0.913 . S
H644 C662 0.951 . S
H645 C664 0.951 . S
H646 C666 0.950 . S
H647 C667 0.950 . S
H648 C669 0.950 . S
H649 C672 0.950 . S
H650 C673 0.950 . S
H651 C675 0.950 . S
H652 C676 0.950 . S
H653 C677 0.951 . S
H654 C679 0.951 . S
H655 C681 0.950 . S
H656 C682 0.950 . S
H657 C684 0.950 . S
H658 C687 0.950 . S
H659 C688 0.950 . S
H660 C690 0.950 . S
H661 C691 0.950 . S
C662 H644 0.951 . S
C662 C663 1.365 1_556 S
C662 C664 1.388 . S
C663 C662 1.365 1_554 S
C663 C667 1.385 . S
C664 H645 0.951 . S
C664 C662 1.388 . S
C664 C665 1.366 . S
C665 C664 1.366 . S
C665 C666 1.414 1_556 S
C665 C668 1.499 . S
C666 H646 0.950 . S
C666 C665 1.414 1_554 S
C666 C667 1.374 . S
C667 H647 0.950 . S
C667 C663 1.385 . S
C667 C666 1.374 . S
C668 C665 1.499 . S
C668 C669 1.373 1_556 S
C668 C670 1.389 . S
C669 H648 0.950 . S
C669 C668 1.373 1_554 S
C669 C685 1.377 . S
C670 C668 1.389 . S
C670 C671 1.524 . S
C670 C684 1.377 . S
C671 C670 1.524 . S
C671 C672 1.397 . S
C671 C676 1.363 . S
C672 H649 0.950 . S
C672 C671 1.397 . S
C672 C673 1.334 . S
C673 H650 0.950 . S
C673 C672 1.334 . S
C673 C674 1.287 . S
C674 C673 1.287 . S
C674 C675 1.524 . S
C674 H693 0.913 . S
C675 H651 0.950 . S
C675 C674 1.524 . S
C675 C676 1.415 . S
C676 H652 0.950 . S
C676 C671 1.363 . S
C676 C675 1.415 . S
C677 H653 0.951 . S
C677 C678 1.365 . S
C677 C679 1.388 . S
C678 C677 1.365 . S
C678 C682 1.385 1_554 S
C679 H654 0.951 . S
C679 C677 1.388 . S
C679 C680 1.366 . S
C680 C679 1.366 . S
C680 C681 1.414 1_554 S
C680 C683 1.499 . S
C681 H655 0.950 . S
C681 C680 1.414 1_556 S
C681 C682 1.374 . S
C682 H656 0.950 . S
C682 C678 1.385 1_556 S
C682 C681 1.374 . S
C683 C680 1.499 . S
C683 C684 1.373 1_554 S
C683 C685 1.389 . S
C684 H657 0.950 . S
C684 C670 1.377 . S
C684 C683 1.373 1_556 S
C685 C669 1.377 . S
C685 C683 1.389 . S
C685 C686 1.524 . S
C686 C685 1.524 . S
C686 C687 1.397 . S
C686 C691 1.363 . S
C687 H658 0.950 . S
C687 C686 1.397 . S
C687 C688 1.334 . S
C688 H659 0.950 . S
C688 C687 1.334 . S
C688 C689 1.287 . S
C689 C688 1.287 . S
C689 C690 1.524 . S
C689 H692 0.999 . S
C690 H660 0.950 . S
C690 C689 1.524 . S
C690 C691 1.415 . S
C691 H661 0.950 . S
C691 C686 1.363 . S
C691 C690 1.415 . S
H692 C689 0.999 . S
H693 C674 0.913 . S
H694 C712 0.951 . S
H695 C714 0.951 . S
H696 C716 0.950 . S
H697 C717 0.950 . S
H698 C719 0.950 . S
H699 C722 0.950 . S
H700 C723 0.950 . S
H701 C725 0.950 . S
H702 C726 0.950 . S
H703 C727 0.951 . S
H704 C729 0.951 . S
H705 C731 0.950 . S
H706 C732 0.950 . S
H707 C734 0.950 . S
H708 C737 0.950 . S
H709 C738 0.950 . S
H710 C740 0.950 . S
H711 C741 0.950 . S
C712 H694 0.951 . S
C712 C713 1.365 . S
C712 C714 1.388 . S
C713 C712 1.365 . S
C713 C717 1.385 1_554 S
C714 H695 0.951 . S
C714 C712 1.388 . S
C714 C715 1.366 . S
C715 C714 1.366 . S
C715 C716 1.414 1_554 S
C715 C718 1.499 . S
C716 H696 0.950 . S
C716 C715 1.414 1_556 S
C716 C717 1.374 . S
C717 H697 0.950 . S
C717 C713 1.385 1_556 S
C717 C716 1.374 . S
C718 C715 1.499 . S
C718 C719 1.373 1_554 S
C718 C720 1.389 . S
C719 H698 0.950 . S
C719 C718 1.373 1_556 S
C719 C735 1.377 . S
C720 C718 1.389 . S
C720 C721 1.524 . S
C720 C734 1.377 . S
C721 C720 1.524 . S
C721 C722 1.397 . S
C721 C726 1.363 . S
C722 H699 0.950 . S
C722 C721 1.397 . S
C722 C723 1.334 . S
C723 H700 0.950 . S
C723 C722 1.334 . S
C723 C724 1.287 . S
C724 C723 1.287 . S
C724 C725 1.524 . S
C724 H743 0.913 . S
C725 H701 0.950 . S
C725 C724 1.524 . S
C725 C726 1.415 . S
C726 H702 0.950 . S
C726 C721 1.363 . S
C726 C725 1.415 . S
C727 H703 0.951 . S
C727 C728 1.365 1_556 S
C727 C729 1.388 . S
C728 C727 1.365 1_554 S
C728 C732 1.385 . S
C729 H704 0.951 . S
C729 C727 1.388 . S
C729 C730 1.366 . S
C730 C729 1.366 . S
C730 C731 1.414 1_556 S
C730 C733 1.499 . S
C731 H705 0.950 . S
C731 C730 1.414 1_554 S
C731 C732 1.374 . S
C732 H706 0.950 . S
C732 C728 1.385 . S
C732 C731 1.374 . S
C733 C730 1.499 . S
C733 C734 1.373 1_556 S
C733 C735 1.389 . S
C734 H707 0.950 . S
C734 C720 1.377 . S
C734 C733 1.373 1_554 S
C735 C719 1.377 . S
C735 C733 1.389 . S
C735 C736 1.524 . S
C736 C735 1.524 . S
C736 C737 1.397 . S
C736 C741 1.363 . S
C737 H708 0.950 . S
C737 C736 1.397 . S
C737 C738 1.334 . S
C738 H709 0.950 . S
C738 C737 1.334 . S
C738 C739 1.287 . S
C739 C738 1.287 . S
C739 C740 1.524 . S
C739 H742 0.999 . S
C740 H710 0.950 . S
C740 C739 1.524 . S
C740 C741 1.415 . S
C741 H711 0.950 . S
C741 C736 1.363 . S
C741 C740 1.415 . S
H742 C739 0.999 . S
H743 C724 0.913 . S
H744 C762 0.951 . S
H745 C764 0.951 . S
H746 C766 0.950 . S
H747 C767 0.950 . S
H748 C769 0.950 . S
H749 C772 0.950 . S
H750 C773 0.950 . S
H751 C775 0.950 . S
H752 C776 0.950 . S
H753 C777 0.951 . S
H754 C779 0.951 . S
H755 C781 0.950 . S
H756 C782 0.950 . S
H757 C784 0.950 . S
H758 C787 0.950 . S
H759 C788 0.950 . S
H760 C790 0.950 . S
H761 C791 0.950 . S
C762 H744 0.951 . S
C762 C763 1.366 1_556 S
C762 C764 1.388 . S
C763 C762 1.366 1_554 S
C763 C767 1.384 . S
C764 H745 0.951 . S
C764 C762 1.388 . S
C764 C765 1.366 1_556 S
C765 C764 1.366 1_554 S
C765 C766 1.414 . S
C765 C768 1.499 . S
C766 H746 0.950 . S
C766 C765 1.414 . S
C766 C767 1.374 . S
C767 H747 0.950 . S
C767 C763 1.384 . S
C767 C766 1.374 . S
C768 C765 1.499 . S
C768 C769 1.373 . S
C768 C770 1.389 1_554 S
C769 H748 0.950 . S
C769 C768 1.373 . S
C769 C785 1.377 . S
C770 C768 1.389 1_556 S
C770 C771 1.524 . S
C770 C784 1.377 . S
C771 C770 1.524 . S
C771 C772 1.397 1_556 S
C771 C776 1.363 . S
C772 H749 0.950 . S
C772 C771 1.397 1_554 S
C772 C773 1.334 . S
C773 H750 0.950 . S
C773 C772 1.334 . S
C773 C774 1.287 1_554 S
C774 C773 1.287 1_556 S
C774 C775 1.524 . S
C774 H793 0.913 . S
C775 H751 0.950 . S
C775 C774 1.524 . S
C775 C776 1.415 . S
C776 H752 0.950 . S
C776 C771 1.363 . S
C776 C775 1.415 . S
C777 H753 0.951 . S
C777 C778 1.365 . S
C777 C779 1.388 . S
C778 C777 1.365 . S
C778 C782 1.385 1_554 S
C779 H754 0.951 . S
C779 C777 1.388 . S
C779 C780 1.345 1_554 S
C780 C779 1.345 1_556 S
C780 C781 1.434 . S
C780 C783 1.500 . S
C781 H755 0.950 . S
C781 C780 1.434 . S
C781 C782 1.374 . S
C782 H756 0.950 . S
C782 C778 1.385 1_556 S
C782 C781 1.374 . S
C783 C780 1.500 . S
C783 C784 1.373 . S
C783 C785 1.389 1_556 S
C784 H757 0.950 . S
C784 C770 1.377 . S
C784 C783 1.373 . S
C785 C769 1.377 . S
C785 C783 1.389 1_554 S
C785 C786 1.524 . S
C786 C785 1.524 . S
C786 C787 1.397 1_554 S
C786 C791 1.363 . S
C787 H758 0.950 . S
C787 C786 1.397 1_556 S
C787 C788 1.334 . S
C788 H759 0.950 . S
C788 C787 1.334 . S
C788 C789 1.287 1_556 S
C789 C788 1.287 1_554 S
C789 C790 1.524 . S
C789 H792 0.999 . S
C790 H760 0.950 . S
C790 C789 1.524 . S
C790 C791 1.415 . S
C791 H761 0.950 . S
C791 C786 1.363 . S
C791 C790 1.415 . S
H792 C789 0.999 . S
H793 C774 0.913 . S
C228 C145 1.921 . S
C213 C36 1.910 1_455 S
C278 C152 1.190 . S
C263 C78 1.177 1_545 S
C328 C147 1.919 . S
C313 C30 1.898 1_455 S
C378 C153 1.192 . S
C363 C69 1.183 . S
C413 C21 1.915 . S
C428 C146 1.925 . S
C478 C155 1.190 . S
C463 C93 1.178 . S
C513 C45 1.898 . S
C528 C144 1.919 . S
C563 C84 1.188 1_545 S
C578 C154 1.197 . S
C613 C132 1.539 . S
C628 C149 1.537 . S
C663 C126 1.526 . S
C678 C148 1.540 . S
C728 C151 1.540 . S
C713 C141 1.526 1_554 S
C778 C150 1.541 . S
C763 C117 1.543 1_554 S
