# Generated by pormake.
# Topology ptr, (4,4)-cn, num edge types: 1
# Building blocks:
#     Node 0, Type 0, BuildingBlock: GALJAG_clean_sbu_0, # of connection points: 4
#     Node 1, Type 0, BuildingBlock: GALJAG_clean_sbu_0, # of connection points: 4
#     Node 2, Type 0, BuildingBlock: GALJAG_clean_sbu_0, # of connection points: 4
#     Node 3, Type 0, BuildingBlock: GALJAG_clean_sbu_0, # of connection points: 4
#     Node 4, Type 0, BuildingBlock: GALJAG_clean_sbu_0, # of connection points: 4
#     Node 5, Type 0, BuildingBlock: GALJAG_clean_sbu_0, # of connection points: 4
#     Node 6, Type 0, BuildingBlock: GALJAG_clean_sbu_0, # of connection points: 4
#     Node 7, Type 0, BuildingBlock: GALJAG_clean_sbu_0, # of connection points: 4
#     Node 8, Type 0, BuildingBlock: GALJAG_clean_sbu_0, # of connection points: 4
#     Node 9, Type 0, BuildingBlock: GALJAG_clean_sbu_0, # of connection points: 4
#     Node 10, Type 0, BuildingBlock: GALJAG_clean_sbu_0, # of connection points: 4
#     Node 11, Type 0, BuildingBlock: GALJAG_clean_sbu_0, # of connection points: 4
#     Node 12, Type 0, BuildingBlock: GALJAG_clean_sbu_0, # of connection points: 4
#     Node 13, Type 0, BuildingBlock: GALJAG_clean_sbu_0, # of connection points: 4
#     Node 14, Type 0, BuildingBlock: GALJAG_clean_sbu_0, # of connection points: 4
#     Node 15, Type 0, BuildingBlock: GALJAG_clean_sbu_0, # of connection points: 4
#     Node 16, Type 0, BuildingBlock: GALJAG_clean_sbu_0, # of connection points: 4
#     Node 17, Type 0, BuildingBlock: GALJAG_clean_sbu_0, # of connection points: 4
#     Node 18, Type 1, BuildingBlock: MUDLON_clean_linker_0, # of connection points: 4
#     Node 19, Type 1, BuildingBlock: MUDLON_clean_linker_0, # of connection points: 4
#     Node 20, Type 1, BuildingBlock: MUDLON_clean_linker_0, # of connection points: 4
#     Node 21, Type 1, BuildingBlock: MUDLON_clean_linker_0, # of connection points: 4
#     Node 22, Type 1, BuildingBlock: MUDLON_clean_linker_0, # of connection points: 4
#     Node 23, Type 1, BuildingBlock: MUDLON_clean_linker_0, # of connection points: 4
#     Node 24, Type 1, BuildingBlock: MUDLON_clean_linker_0, # of connection points: 4
#     Node 25, Type 1, BuildingBlock: MUDLON_clean_linker_0, # of connection points: 4
#     Node 26, Type 1, BuildingBlock: MUDLON_clean_linker_0, # of connection points: 4
#     Node 27, Type 1, BuildingBlock: MUDLON_clean_linker_0, # of connection points: 4
#     Node 28, Type 1, BuildingBlock: MUDLON_clean_linker_0, # of connection points: 4
#     Node 29, Type 1, BuildingBlock: MUDLON_clean_linker_0, # of connection points: 4
#     Node 30, Type 1, BuildingBlock: MUDLON_clean_linker_0, # of connection points: 4
#     Node 31, Type 1, BuildingBlock: MUDLON_clean_linker_0, # of connection points: 4
#     Node 32, Type 1, BuildingBlock: MUDLON_clean_linker_0, # of connection points: 4
#     Node 33, Type 1, BuildingBlock: MUDLON_clean_linker_0, # of connection points: 4
#     Node 34, Type 1, BuildingBlock: MUDLON_clean_linker_0, # of connection points: 4
#     Node 35, Type 1, BuildingBlock: MUDLON_clean_linker_0, # of connection points: 4
#     Edge 36, Type (0, 1), BuildingBlock: KIFKEQ_clean_linker_1, # of connection points: 2
#     Edge 37, Type (0, 1), BuildingBlock: KIFKEQ_clean_linker_1, # of connection points: 2
#     Edge 38, Type (0, 1), BuildingBlock: KIFKEQ_clean_linker_1, # of connection points: 2
#     Edge 39, Type (0, 1), BuildingBlock: KIFKEQ_clean_linker_1, # of connection points: 2
#     Edge 40, Type (0, 1), BuildingBlock: KIFKEQ_clean_linker_1, # of connection points: 2
#     Edge 41, Type (0, 1), BuildingBlock: KIFKEQ_clean_linker_1, # of connection points: 2
#     Edge 42, Type (0, 1), BuildingBlock: KIFKEQ_clean_linker_1, # of connection points: 2
#     Edge 43, Type (0, 1), BuildingBlock: KIFKEQ_clean_linker_1, # of connection points: 2
#     Edge 44, Type (0, 1), BuildingBlock: KIFKEQ_clean_linker_1, # of connection points: 2
#     Edge 45, Type (0, 1), BuildingBlock: KIFKEQ_clean_linker_1, # of connection points: 2
#     Edge 46, Type (0, 1), BuildingBlock: KIFKEQ_clean_linker_1, # of connection points: 2
#     Edge 47, Type (0, 1), BuildingBlock: KIFKEQ_clean_linker_1, # of connection points: 2
#     Edge 48, Type (0, 1), BuildingBlock: KIFKEQ_clean_linker_1, # of connection points: 2
#     Edge 49, Type (0, 1), BuildingBlock: KIFKEQ_clean_linker_1, # of connection points: 2
#     Edge 50, Type (0, 1), BuildingBlock: KIFKEQ_clean_linker_1, # of connection points: 2
#     Edge 51, Type (0, 1), BuildingBlock: KIFKEQ_clean_linker_1, # of connection points: 2
#     Edge 52, Type (0, 1), BuildingBlock: KIFKEQ_clean_linker_1, # of connection points: 2
#     Edge 53, Type (0, 1), BuildingBlock: KIFKEQ_clean_linker_1, # of connection points: 2
#     Edge 54, Type (0, 1), BuildingBlock: KIFKEQ_clean_linker_1, # of connection points: 2
#     Edge 55, Type (0, 1), BuildingBlock: KIFKEQ_clean_linker_1, # of connection points: 2
#     Edge 56, Type (0, 1), BuildingBlock: KIFKEQ_clean_linker_1, # of connection points: 2
#     Edge 57, Type (0, 1), BuildingBlock: KIFKEQ_clean_linker_1, # of connection points: 2
#     Edge 58, Type (0, 1), BuildingBlock: KIFKEQ_clean_linker_1, # of connection points: 2
#     Edge 59, Type (0, 1), BuildingBlock: KIFKEQ_clean_linker_1, # of connection points: 2
#     Edge 60, Type (0, 1), BuildingBlock: KIFKEQ_clean_linker_1, # of connection points: 2
#     Edge 61, Type (0, 1), BuildingBlock: KIFKEQ_clean_linker_1, # of connection points: 2
#     Edge 62, Type (0, 1), BuildingBlock: KIFKEQ_clean_linker_1, # of connection points: 2
#     Edge 63, Type (0, 1), BuildingBlock: KIFKEQ_clean_linker_1, # of connection points: 2
#     Edge 64, Type (0, 1), BuildingBlock: KIFKEQ_clean_linker_1, # of connection points: 2
#     Edge 65, Type (0, 1), BuildingBlock: KIFKEQ_clean_linker_1, # of connection points: 2
#     Edge 66, Type (0, 1), BuildingBlock: KIFKEQ_clean_linker_1, # of connection points: 2
#     Edge 67, Type (0, 1), BuildingBlock: KIFKEQ_clean_linker_1, # of connection points: 2
#     Edge 68, Type (0, 1), BuildingBlock: KIFKEQ_clean_linker_1, # of connection points: 2
#     Edge 69, Type (0, 1), BuildingBlock: KIFKEQ_clean_linker_1, # of connection points: 2
#     Edge 70, Type (0, 1), BuildingBlock: KIFKEQ_clean_linker_1, # of connection points: 2
#     Edge 71, Type (0, 1), BuildingBlock: KIFKEQ_clean_linker_1, # of connection points: 2
#     Edge 72, Type (0, 1), BuildingBlock: KIFKEQ_clean_linker_1, # of connection points: 2
#     Edge 73, Type (0, 1), BuildingBlock: KIFKEQ_clean_linker_1, # of connection points: 2
#     Edge 74, Type (0, 1), BuildingBlock: KIFKEQ_clean_linker_1, # of connection points: 2
#     Edge 75, Type (0, 1), BuildingBlock: KIFKEQ_clean_linker_1, # of connection points: 2
#     Edge 76, Type (0, 1), BuildingBlock: KIFKEQ_clean_linker_1, # of connection points: 2
#     Edge 77, Type (0, 1), BuildingBlock: KIFKEQ_clean_linker_1, # of connection points: 2
#     Edge 78, Type (0, 1), BuildingBlock: KIFKEQ_clean_linker_1, # of connection points: 2
#     Edge 79, Type (0, 1), BuildingBlock: KIFKEQ_clean_linker_1, # of connection points: 2
#     Edge 80, Type (0, 1), BuildingBlock: KIFKEQ_clean_linker_1, # of connection points: 2
#     Edge 81, Type (0, 1), BuildingBlock: KIFKEQ_clean_linker_1, # of connection points: 2
#     Edge 82, Type (0, 1), BuildingBlock: KIFKEQ_clean_linker_1, # of connection points: 2
#     Edge 83, Type (0, 1), BuildingBlock: KIFKEQ_clean_linker_1, # of connection points: 2
#     Edge 84, Type (0, 1), BuildingBlock: KIFKEQ_clean_linker_1, # of connection points: 2
#     Edge 85, Type (0, 1), BuildingBlock: KIFKEQ_clean_linker_1, # of connection points: 2
#     Edge 86, Type (0, 1), BuildingBlock: KIFKEQ_clean_linker_1, # of connection points: 2
#     Edge 87, Type (0, 1), BuildingBlock: KIFKEQ_clean_linker_1, # of connection points: 2
#     Edge 88, Type (0, 1), BuildingBlock: KIFKEQ_clean_linker_1, # of connection points: 2
#     Edge 89, Type (0, 1), BuildingBlock: KIFKEQ_clean_linker_1, # of connection points: 2
#     Edge 90, Type (0, 1), BuildingBlock: KIFKEQ_clean_linker_1, # of connection points: 2
#     Edge 91, Type (0, 1), BuildingBlock: KIFKEQ_clean_linker_1, # of connection points: 2
#     Edge 92, Type (0, 1), BuildingBlock: KIFKEQ_clean_linker_1, # of connection points: 2
#     Edge 93, Type (0, 1), BuildingBlock: KIFKEQ_clean_linker_1, # of connection points: 2
#     Edge 94, Type (0, 1), BuildingBlock: KIFKEQ_clean_linker_1, # of connection points: 2
#     Edge 95, Type (0, 1), BuildingBlock: KIFKEQ_clean_linker_1, # of connection points: 2
#     Edge 96, Type (0, 1), BuildingBlock: KIFKEQ_clean_linker_1, # of connection points: 2
#     Edge 97, Type (0, 1), BuildingBlock: KIFKEQ_clean_linker_1, # of connection points: 2
#     Edge 98, Type (0, 1), BuildingBlock: KIFKEQ_clean_linker_1, # of connection points: 2
#     Edge 99, Type (0, 1), BuildingBlock: KIFKEQ_clean_linker_1, # of connection points: 2
#     Edge 100, Type (0, 1), BuildingBlock: KIFKEQ_clean_linker_1, # of connection points: 2
#     Edge 101, Type (0, 1), BuildingBlock: KIFKEQ_clean_linker_1, # of connection points: 2
#     Edge 102, Type (0, 1), BuildingBlock: KIFKEQ_clean_linker_1, # of connection points: 2
#     Edge 103, Type (0, 1), BuildingBlock: KIFKEQ_clean_linker_1, # of connection points: 2
#     Edge 104, Type (0, 1), BuildingBlock: KIFKEQ_clean_linker_1, # of connection points: 2
#     Edge 105, Type (0, 1), BuildingBlock: KIFKEQ_clean_linker_1, # of connection points: 2
#     Edge 106, Type (0, 1), BuildingBlock: KIFKEQ_clean_linker_1, # of connection points: 2
#     Edge 107, Type (0, 1), BuildingBlock: KIFKEQ_clean_linker_1, # of connection points: 2
# Relax obj value: 0.051
# Max RMSD: 0.091
# Mean RMSD: 0.081
data_MOF--net-ptr--node1-GALJAG_clean_sbu_0--node2-MUDLON_clean_linker_0--edge1-KIFKEQ_clean_linker_1
_symmetry_space_group_name_H-M    P1
_symmetry_Int_Tables_number       1
_symmetry_cell_setting            triclinic
loop_
_symmetry_equiv_pos_as_xyz
'x, y, z'
_cell_length_a     105.31842
_cell_length_b     105.44683
_cell_length_c     67.345552
_cell_angle_alpha  89.96334
_cell_angle_beta   90.0265
_cell_angle_gamma 120.12464
loop_
_atom_site_label
_atom_site_type_symbol
_atom_site_fract_x
_atom_site_fract_y
_atom_site_fract_z
_atom_type_partial_charge
In0 In 0.01195 0.37733 0.01637 0.0
O1 O 0.00287 0.37688 0.04754 0.0
O2 O 0.01502 0.39746 0.03328 0.0
C3 C 0.99103 0.35066 0.00349 0.0
C4 C 0.03504 0.3748 0.02874 0.0
C5 C 0.0136 0.39261 0.98329 0.0
O6 O 0.98817 0.3585 0.01472 0.0
O7 O 0.0044 0.35626 0.99884 0.0
O8 O 0.02438 0.39164 0.98962 0.0
O9 O 1.00209 0.38587 0.99359 0.0
C10 C 0.00811 0.39055 0.04854 0.0
O11 O 0.03666 0.38588 0.01938 0.0
O12 O 0.02187 0.36503 0.03161 0.0
In13 In 0.64684 0.6468 0.01798 0.0
O14 O 0.64414 0.63223 0.04471 0.0
O15 O 0.62687 0.63651 0.03808 0.0
C16 C 0.67329 0.65267 0.00382 0.0
C17 C 0.65182 0.67299 0.03183 0.0
C18 C 0.62959 0.63035 0.98772 0.0
O19 O 0.66753 0.64465 0.01888 0.0
O20 O 0.6658 0.65773 0.99625 0.0
O21 O 0.63383 0.64383 0.98933 0.0
O22 O 0.63392 0.62525 0.0014 0.0
C23 C 0.63162 0.63022 0.04931 0.0
O24 O 0.64334 0.66662 0.01736 0.0
O25 O 0.65784 0.66625 0.03899 0.0
In26 In 0.37599 0.01109 0.01355 0.0
O27 O 0.38299 0.03546 0.01233 0.0
O28 O 0.3638 0.02041 0.99652 0.0
C29 C 0.39207 0.0114 0.04511 0.0
C30 C 0.3899 0.00894 0.98106 0.0
C31 C 0.34943 0.98982 0.02649 0.0
O32 O 0.38831 0.02095 0.0428 0.0
O33 O 0.3878 0.00191 0.03155 0.0
O34 O 0.35706 0.98736 0.01433 0.0
O35 O 0.35509 0.00302 0.0319 0.0
C36 C 0.37255 0.03359 0.00116 0.0
O37 O 0.37653 0.99999 0.98456 0.0
O38 O 0.39616 0.0189 0.99387 0.0
In39 In 0.0116 0.64766 0.01437 0.0
O40 O 0.02068 0.64471 0.9849 0.0
O41 O 0.0038 0.62571 0.99911 0.0
C42 C 0.03247 0.6752 0.02441 0.0
C43 C 0.98933 0.65112 0.00107 0.0
C44 C 0.0126 0.6331 0.04679 0.0
O45 O 0.03515 0.66702 0.01364 0.0
O46 O 0.01925 0.66958 0.02981 0.0
O47 O 1.00086 0.63259 0.04132 0.0
O48 O 0.02359 0.6409 0.03599 0.0
C49 C 0.01228 0.63098 0.9844 0.0
O50 O 0.98892 0.64566 0.01795 0.0
O51 O 1.0009 0.65487 0.99131 0.0
In52 In 0.37648 0.37393 0.01897 0.0
O53 O 0.38091 0.39092 0.99457 0.0
O54 O 0.39379 0.38063 0.9948 0.0
C55 C 0.35063 0.37011 0.03255 0.0
C56 C 0.36936 0.34636 0.00845 0.0
C57 C 0.39468 0.38916 0.04922 0.0
O58 O 0.35487 0.37399 0.01489 0.0
O59 O 0.35935 0.36813 0.04315 0.0
O60 O 0.39003 0.37569 0.04646 0.0
O61 O 0.39029 0.39496 0.0366 0.0
C62 C 0.39106 0.38971 0.9865 0.0
O63 O 0.38066 0.3546 0.01851 0.0
O64 O 0.36158 0.35193 0.00399 0.0
In65 In 0.64532 0.01176 0.01614 0.0
O66 O 0.64174 0.02366 0.04199 0.0
O67 O 0.62544 1.00147 0.03686 0.0
C68 C 0.67117 0.03461 0.00345 0.0
C69 C 0.6522 0.99216 0.03117 0.0
C70 C 0.628 0.00732 0.98401 0.0
O71 O 0.66264 0.03614 0.01503 0.0
O72 O 0.66678 0.02154 0.99842 0.0
O73 O 0.63309 0.99906 0.98816 0.0
O74 O 0.63155 0.01768 0.99609 0.0
C75 C 0.62967 0.01283 0.04731 0.0
O76 O 0.6436 0.98924 0.01663 0.0
O77 O 0.65746 0.00499 0.03793 0.0
In78 In 0.67875 0.71065 0.35003 0.0
O79 O 0.6692 0.71119 0.38034 0.0
O80 O 0.68331 0.73155 0.36636 0.0
C81 C 0.65793 0.68405 0.33637 0.0
C82 C 0.70136 0.70761 0.3635 0.0
C83 C 0.68046 0.7271 0.31833 0.0
O84 O 0.65538 0.69083 0.34976 0.0
O85 O 0.67094 0.69062 0.32999 0.0
O86 O 0.69087 0.72509 0.32341 0.0
O87 O 0.66922 0.72084 0.32927 0.0
C88 C 0.6755 0.72498 0.38123 0.0
O89 O 0.70281 0.71607 0.34934 0.0
O90 O 0.68859 0.70067 0.3706 0.0
In91 In 0.3129 0.98124 0.35093 0.0
O92 O 0.31083 0.96725 0.37792 0.0
O93 O 0.29321 0.97109 0.37178 0.0
C94 C 0.33879 0.98568 0.33632 0.0
C95 C 0.31848 0.00779 0.36412 0.0
C96 C 0.29503 0.96459 0.32123 0.0
O97 O 0.33307 0.97828 0.35185 0.0
O98 O 0.33162 0.991 0.32851 0.0
O99 O 0.29985 0.97822 0.32227 0.0
O100 O 0.29905 0.95946 0.33521 0.0
C101 C 0.29834 0.96511 0.38294 0.0
O102 O 0.30951 1.00114 0.35022 0.0
O103 O 0.32471 1.00117 0.37098 0.0
In104 In 0.04295 0.3468 0.35088 0.0
O105 O 0.04666 0.37015 0.35244 0.0
O106 O 0.02795 0.35408 0.33682 0.0
C107 C 0.06095 0.34803 0.38033 0.0
C108 C 0.05845 0.34829 0.31814 0.0
C109 C 0.01757 0.3235 0.36347 0.0
O110 O 0.05474 0.35563 0.38059 0.0
O111 O 0.05827 0.34009 0.36514 0.0
O112 O 0.02201 0.32454 0.34578 0.0
O113 O 0.02583 0.33417 0.37448 0.0
C114 C 0.03547 0.36727 0.34224 0.0
O115 O 0.04783 0.3363 0.32424 0.0
O116 O 0.06105 0.35932 0.32844 0.0
In117 In 0.67916 0.98143 0.3486 0.0
O118 O 0.69109 0.97933 0.32157 0.0
O119 O 0.67145 0.96038 0.33092 0.0
C120 C 0.69909 0.00925 0.35896 0.0
C121 C 0.65669 0.98434 0.33462 0.0
C122 C 0.67983 0.96635 0.38078 0.0
O123 O 0.70207 0.00174 0.34731 0.0
O124 O 0.686 0.00285 0.36506 0.0
O125 O 0.668 0.96514 0.37436 0.0
O126 O 0.69107 0.97506 0.37103 0.0
C127 C 0.68191 0.96595 0.31865 0.0
O128 O 0.65669 0.97983 0.35202 0.0
O129 O 0.668 0.98748 0.32457 0.0
In130 In 0.04467 0.70816 0.35196 0.0
O131 O 0.04441 0.71692 0.32076 0.0
O132 O 0.06494 0.72511 0.33519 0.0
C133 C 0.01841 0.70306 0.36582 0.0
C134 C 0.04173 0.6825 0.33896 0.0
C135 C 0.06073 0.72183 0.38446 0.0
O136 O 0.02536 0.71251 0.35253 0.0
O137 O 0.02469 0.69629 0.37195 0.0
O138 O 0.05764 0.70901 0.37963 0.0
O139 O 0.0557 0.72769 0.37291 0.0
C140 C 0.05815 0.72521 0.31986 0.0
O141 O 0.05319 0.69212 0.34756 0.0
O142 O 0.03179 0.68574 0.33721 0.0
In143 In 0.31033 0.34336 0.34906 0.0
O144 O 0.30678 0.32006 0.35041 0.0
O145 O 0.32246 0.3361 0.36992 0.0
C146 C 0.29314 0.34057 0.31762 0.0
C147 C 0.29515 0.34512 0.38021 0.0
C148 C 0.33674 0.3643 0.33497 0.0
O149 O 0.29817 0.33208 0.32049 0.0
O150 O 0.29665 0.35033 0.33069 0.0
O151 O 0.33029 0.36679 0.34893 0.0
O152 O 0.3299 0.35139 0.32832 0.0
C153 C 0.3161 0.32298 0.36402 0.0
O154 O 0.30746 0.35572 0.37498 0.0
O155 O 0.29051 0.33377 0.36963 0.0
In156 In 0.34711 0.04366 0.68083 0.0
O157 O 0.36925 0.04447 0.67949 0.0
O158 O 0.35485 0.03294 0.70341 0.0
C159 C 0.34928 0.06066 0.6495 0.0
C160 C 0.34755 0.06079 0.71091 0.0
C161 C 0.32583 0.01701 0.66822 0.0
O162 O 0.35923 0.05779 0.65388 0.0
O163 O 0.33831 0.055 0.66092 0.0
O164 O 0.32395 0.02342 0.68281 0.0
O165 O 0.33833 0.02401 0.66028 0.0
C166 C 0.36711 0.03713 0.69522 0.0
O167 O 0.33605 0.04896 0.70636 0.0
O168 O 0.35856 0.0639 0.70022 0.0
In169 In 0.97697 0.31428 0.68106 0.0
O170 O 0.97022 0.3318 0.6838 0.0
O171 O 0.99045 0.33623 0.69667 0.0
C172 C 0.96042 0.30062 0.64878 0.0
C173 C 0.96327 0.29864 0.71396 0.0
C174 C 0.00253 0.31695 0.66809 0.0
O175 O 0.96689 0.31437 0.65086 0.0
O176 O 0.96227 0.29387 0.66291 0.0
O177 O 0.99363 0.30635 0.6788 0.0
O178 O 0.99857 0.32613 0.66411 0.0
C179 C 0.98152 0.34065 0.69345 0.0
O180 O 0.97691 0.3042 0.7113 0.0
O181 O 0.95664 0.30095 0.70008 0.0
In182 In 0.70811 0.67702 0.68046 0.0
O183 O 0.70819 0.69876 0.68262 0.0
O184 O 0.69796 0.68517 0.65756 0.0
C185 C 0.72427 0.67949 0.713 0.0
C186 C 0.72556 0.67778 0.65047 0.0
C187 C 0.68188 0.65415 0.69166 0.0
O188 O 0.72179 0.68952 0.70767 0.0
O189 O 0.71864 0.66833 0.70195 0.0
O190 O 0.69055 0.65269 0.68022 0.0
O191 O 0.68633 0.66714 0.69716 0.0
C192 C 0.70147 0.69703 0.66641 0.0
O193 O 0.71245 0.66751 0.65236 0.0
O194 O 0.72983 0.6875 0.66374 0.0
In195 In 0.3451 0.31418 0.68325 0.0
O196 O 0.35705 0.31445 0.65461 0.0
O197 O 0.33752 0.29481 0.6623 0.0
C198 C 0.36704 0.34057 0.69549 0.0
C199 C 0.32242 0.31731 0.6707 0.0
C200 C 0.34316 0.29805 0.71569 0.0
O201 O 0.36942 0.3318 0.68561 0.0
O202 O 0.35368 0.33605 0.69904 0.0
O203 O 0.33615 0.30481 0.71422 0.0
O204 O 0.35098 0.29934 0.70085 0.0
C205 C 0.34793 0.30131 0.65014 0.0
O206 O 0.32053 0.3061 0.68003 0.0
O207 O 0.33567 0.32691 0.66785 0.0
In208 In 0.7115 0.04403 0.68408 0.0
O209 O 0.71302 0.0556 0.65443 0.0
O210 O 0.73188 0.05525 0.66474 0.0
C211 C 0.68639 0.04224 0.69734 0.0
C212 C 0.70621 0.01653 0.676 0.0
C213 C 0.72866 0.0609 0.71393 0.0
O214 O 0.68969 0.04376 0.67912 0.0
O215 O 0.69554 0.04145 0.70856 0.0
O216 O 0.72287 0.04709 0.71401 0.0
O217 O 0.72588 0.06613 0.69874 0.0
C218 C 0.72625 0.05924 0.6514 0.0
O219 O 0.71786 0.02611 0.6842 0.0
O220 O 0.6971 0.02066 0.6725 0.0
In221 In 0.97909 0.67857 0.68298 0.0
O222 O 0.97313 0.65444 0.68429 0.0
O223 O 0.99387 0.67035 0.69552 0.0
C224 C 0.96129 0.67548 0.65226 0.0
C225 C 0.96526 0.68128 0.7153 0.0
C226 C 0.00484 0.7012 0.66989 0.0
O227 O 0.96677 0.66731 0.65454 0.0
O228 O 0.96473 0.68513 0.66552 0.0
O229 O 1.00191 0.69862 0.68813 0.0
O230 O 0.9949 0.69235 0.65836 0.0
C231 C 0.98493 0.65697 0.69251 0.0
O232 O 0.97671 0.69194 0.70813 0.0
O233 O 0.96083 0.66936 0.70619 0.0
H234 H 0.2473 0.36424 0.15358 0.0
N235 N 0.22235 0.34179 0.13672 0.0
H236 H 0.25813 0.36351 0.18526 0.0
H237 H 0.2112 0.32048 0.16371 0.0
H238 H 0.22189 0.31987 0.1959 0.0
H239 H 0.22771 0.32319 0.11706 0.0
H240 H 0.24793 0.32916 0.09398 0.0
H241 H 0.24049 0.36893 0.11995 0.0
H242 H 0.26062 0.37492 0.0971 0.0
H243 H 0.22696 0.369 0.14679 0.0
H244 H 0.1944 0.32619 0.12607 0.0
H245 H 0.2088 0.37676 0.14679 0.0
H246 H 0.17572 0.33342 0.12751 0.0
H247 H 0.1445 0.39136 0.16962 0.0
H248 H 0.13037 0.38563 0.20048 0.0
H249 H 0.11714 0.33991 0.19351 0.0
H250 H 0.13152 0.34582 0.16275 0.0
H251 H 0.12238 0.34799 0.13131 0.0
H252 H 0.10465 0.34705 0.10718 0.0
H253 H 0.1316 0.39374 0.09782 0.0
H254 H 0.14937 0.39456 0.12207 0.0
H255 H 0.17054 0.3816 0.16697 0.0
H256 H 0.189 0.37428 0.16449 0.0
H257 H 0.16604 0.34698 0.11401 0.0
N258 N 0.14659 0.37281 0.1451 0.0
H259 H 0.14717 0.35353 0.11743 0.0
C260 C 0.22849 0.34225 0.15606 0.0
C261 C 0.24163 0.35449 0.1626 0.0
C262 C 0.24784 0.35408 0.18074 0.0
C263 C 0.24089 0.34159 0.19291 0.0
C264 C 0.22745 0.32963 0.1868 0.0
C265 C 0.22136 0.32995 0.16847 0.0
C266 C 0.23253 0.34552 0.1204 0.0
C267 C 0.23462 0.33445 0.11232 0.0
C268 C 0.24616 0.33788 0.09914 0.0
C269 C 0.25594 0.35253 0.0939 0.0
C270 C 0.25335 0.36355 0.10108 0.0
C271 C 0.24173 0.36009 0.11412 0.0
C272 C 0.21209 0.34705 0.13601 0.0
C273 C 0.21592 0.36129 0.14202 0.0
C274 C 0.20537 0.36563 0.14238 0.0
C275 C 0.19064 0.35572 0.13728 0.0
C276 C 0.18693 0.34149 0.13119 0.0
C277 C 0.19757 0.33728 0.13045 0.0
C278 C 0.13901 0.36906 0.1639 0.0
C279 C 0.13869 0.38015 0.17492 0.0
C280 C 0.13065 0.37685 0.19252 0.0
C281 C 0.12263 0.36231 0.19938 0.0
C282 C 0.1231 0.35118 0.18847 0.0
C283 C 0.13131 0.35454 0.17093 0.0
C284 C 0.13722 0.37142 0.12859 0.0
C285 C 0.1246 0.358 0.12391 0.0
C286 C 0.11444 0.35748 0.11014 0.0
C287 C 0.11664 0.37035 0.10076 0.0
C288 C 0.12963 0.38362 0.10467 0.0
C289 C 0.13979 0.38412 0.11851 0.0
C290 C 0.1573 0.36814 0.14263 0.0
C291 C 0.16943 0.37394 0.15546 0.0
C292 C 0.18011 0.36986 0.15383 0.0
C293 C 0.17917 0.36006 0.13894 0.0
C294 C 0.16708 0.35434 0.1259 0.0
C295 C 0.15621 0.35821 0.1278 0.0
H296 H 0.70825 0.79747 0.15418 0.0
N297 N 0.6884 0.80265 0.13773 0.0
H298 H 0.70699 0.78634 0.18656 0.0
H299 H 0.66691 0.79517 0.16555 0.0
H300 H 0.66552 0.78405 0.19808 0.0
H301 H 0.6599 0.78021 0.13533 0.0
H302 H 0.6507 0.75897 0.11335 0.0
H303 H 0.70206 0.79968 0.10645 0.0
H304 H 0.69291 0.77846 0.08427 0.0
H305 H 0.70915 0.82948 0.14718 0.0
H306 H 0.66471 0.80512 0.1255 0.0
H307 H 0.70803 0.85195 0.14638 0.0
H308 H 0.66377 0.82772 0.12321 0.0
H309 H 0.7086 0.91935 0.15631 0.0
H310 H 0.70833 0.92984 0.18859 0.0
H311 H 0.66347 0.89516 0.1974 0.0
H312 H 0.66372 0.88524 0.16487 0.0
H313 H 0.65891 0.89217 0.13219 0.0
H314 H 0.65259 0.90662 0.11015 0.0
H315 H 0.69687 0.92863 0.08699 0.0
H316 H 0.70318 0.91463 0.10989 0.0
H317 H 0.70857 0.89269 0.12864 0.0
H318 H 0.70853 0.86961 0.1261 0.0
H319 H 0.66221 0.84599 0.14042 0.0
N320 N 0.6864 0.89658 0.13834 0.0
H321 H 0.66224 0.86918 0.14106 0.0
C322 C 0.68771 0.79711 0.1575 0.0
C323 C 0.69899 0.7947 0.16383 0.0
C324 C 0.69826 0.7884 0.18234 0.0
C325 C 0.68614 0.7843 0.1949 0.0
C326 C 0.67492 0.78695 0.18866 0.0
C327 C 0.67572 0.79335 0.17014 0.0
C328 C 0.68177 0.79151 0.12261 0.0
C329 C 0.6671 0.78008 0.12399 0.0
C330 C 0.66186 0.7679 0.11145 0.0
C331 C 0.67113 0.76697 0.09722 0.0
C332 C 0.68546 0.77889 0.09498 0.0
C333 C 0.69072 0.79101 0.10763 0.0
C334 C 0.68717 0.81564 0.1362 0.0
C335 C 0.69922 0.82906 0.14191 0.0
C336 C 0.69858 0.84194 0.14122 0.0
C337 C 0.68588 0.84184 0.13439 0.0
C338 C 0.67371 0.82831 0.1287 0.0
C339 C 0.67428 0.81531 0.1298 0.0
C340 C 0.68628 0.90149 0.15824 0.0
C341 C 0.6988 0.91396 0.16538 0.0
C342 C 0.69862 0.91989 0.18387 0.0
C343 C 0.68586 0.91338 0.19565 0.0
C344 C 0.67342 0.90061 0.18863 0.0
C345 C 0.67359 0.89478 0.17006 0.0
C346 C 0.68159 0.90252 0.12279 0.0
C347 C 0.66716 0.89995 0.12215 0.0
C348 C 0.66356 0.9082 0.10943 0.0
C349 C 0.6743 0.91903 0.097 0.0
C350 C 0.68842 0.9207 0.09671 0.0
C351 C 0.69203 0.91259 0.10957 0.0
C352 C 0.68554 0.88266 0.13551 0.0
C353 C 0.6984 0.88248 0.13096 0.0
C354 C 0.69835 0.86924 0.12978 0.0
C355 C 0.68545 0.85581 0.13361 0.0
C356 C 0.67238 0.85602 0.13738 0.0
C357 C 0.6724 0.86933 0.13808 0.0
H358 H 0.13594 0.76446 0.16291 0.0
N359 N 0.14008 0.78755 0.14181 0.0
H360 H 0.12172 0.75505 0.19365 0.0
H361 H 0.1274 0.80036 0.16286 0.0
H362 H 0.11335 0.79117 0.19365 0.0
H363 H 0.11752 0.79067 0.12827 0.0
H364 H 0.09981 0.77558 0.10253 0.0
H365 H 0.14269 0.76954 0.11672 0.0
H366 H 0.12527 0.75462 0.09075 0.0
H367 H 0.16634 0.78996 0.1398 0.0
H368 H 0.14467 0.81534 0.13944 0.0
H369 H 0.19019 0.81239 0.13844 0.0
H370 H 0.16849 0.83803 0.1397 0.0
H371 H 0.26231 0.88659 0.16599 0.0
H372 H 0.26973 0.90047 0.19698 0.0
H373 H 0.22983 0.90269 0.19635 0.0
H374 H 0.22279 0.88917 0.16489 0.0
H375 H 0.23611 0.90281 0.13297 0.0
H376 H 0.25132 0.92101 0.10796 0.0
H377 H 0.27088 0.89483 0.09261 0.0
H378 H 0.25578 0.87679 0.11789 0.0
H379 H 0.23021 0.85318 0.16 0.0
H380 H 0.20608 0.83122 0.1588 0.0
H381 H 0.19012 0.85445 0.12308 0.0
N382 N 0.23852 0.87923 0.1445 0.0
H383 H 0.21418 0.87668 0.1256 0.0
C384 C 0.13287 0.78315 0.16076 0.0
C385 C 0.13117 0.7704 0.16972 0.0
C386 C 0.12297 0.76501 0.18714 0.0
C387 C 0.11639 0.77236 0.196 0.0
C388 C 0.1184 0.78536 0.18725 0.0
C389 C 0.12648 0.79065 0.16967 0.0
C390 C 0.13131 0.78108 0.1244 0.0
C391 C 0.1194 0.78303 0.11984 0.0
C392 C 0.1093 0.77438 0.10521 0.0
C393 C 0.11112 0.76386 0.09473 0.0
C394 C 0.12363 0.76271 0.09845 0.0
C395 C 0.13358 0.77119 0.11324 0.0
C396 C 0.15383 0.80102 0.14014 0.0
C397 C 0.1668 0.80046 0.13961 0.0
C398 C 0.18042 0.81334 0.13905 0.0
C399 C 0.1814 0.82717 0.13943 0.0
C400 C 0.16826 0.82766 0.13935 0.0
C401 C 0.15459 0.81469 0.13949 0.0
C402 C 0.24201 0.88676 0.16329 0.0
C403 C 0.25515 0.89001 0.17266 0.0
C404 C 0.25931 0.89787 0.19041 0.0
C405 C 0.25032 0.90262 0.19929 0.0
C406 C 0.23707 0.89932 0.18986 0.0
C407 C 0.23296 0.89149 0.17198 0.0
C408 C 0.24496 0.88851 0.1274 0.0
C409 C 0.24346 0.90085 0.12397 0.0
C410 C 0.25219 0.91127 0.10973 0.0
C411 C 0.26239 0.90941 0.09848 0.0
C412 C 0.26307 0.89653 0.10096 0.0
C413 C 0.25447 0.88622 0.11537 0.0
C414 C 0.22409 0.86648 0.1427 0.0
C415 C 0.22148 0.85349 0.15189 0.0
C416 C 0.20767 0.84089 0.151 0.0
C417 C 0.19607 0.84086 0.14053 0.0
C418 C 0.19869 0.854 0.13139 0.0
C419 C 0.21253 0.86674 0.13262 0.0
H420 H 0.36338 0.24734 0.87986 0.0
N421 N 0.33995 0.2219 0.89372 0.0
H422 H 0.36447 0.25971 0.84864 0.0
H423 H 0.32015 0.21215 0.86473 0.0
H424 H 0.32123 0.22442 0.83328 0.0
H425 H 0.32102 0.22867 0.90926 0.0
H426 H 0.32587 0.24765 0.93371 0.0
H427 H 0.36538 0.23727 0.91581 0.0
H428 H 0.37012 0.25572 0.94076 0.0
H429 H 0.36765 0.22665 0.88668 0.0
H430 H 0.32351 0.19354 0.90174 0.0
H431 H 0.37526 0.20838 0.88721 0.0
H432 H 0.33063 0.17481 0.90065 0.0
H433 H 0.38885 0.14419 0.86111 0.0
H434 H 0.38319 0.13097 0.82946 0.0
H435 H 0.33735 0.1172 0.83712 0.0
H436 H 0.34319 0.13082 0.86855 0.0
H437 H 0.34532 0.12094 0.89908 0.0
H438 H 0.34433 0.10296 0.92276 0.0
H439 H 0.39076 0.13043 0.93389 0.0
H440 H 0.39169 0.14842 0.90994 0.0
H441 H 0.38137 0.1709 0.86709 0.0
H442 H 0.37426 0.18951 0.86935 0.0
H443 H 0.34273 0.16406 0.91499 0.0
N444 N 0.3702 0.14559 0.88625 0.0
H445 H 0.34913 0.14505 0.91148 0.0
C446 C 0.34156 0.22884 0.87469 0.0
C447 C 0.35417 0.2422 0.86976 0.0
C448 C 0.35477 0.2493 0.85194 0.0
C449 C 0.34289 0.24308 0.83861 0.0
C450 C 0.33057 0.22944 0.84322 0.0
C451 C 0.32992 0.22244 0.86114 0.0
C452 C 0.34271 0.23141 0.9106 0.0
C453 C 0.33167 0.23436 0.91639 0.0
C454 C 0.33448 0.2452 0.93044 0.0
C455 C 0.34844 0.25334 0.93919 0.0
C456 C 0.35932 0.24988 0.93409 0.0
C457 C 0.35654 0.23913 0.91986 0.0
C458 C 0.34502 0.21149 0.89461 0.0
C459 C 0.35959 0.21543 0.89025 0.0
C460 C 0.36387 0.20484 0.89021 0.0
C461 C 0.35359 0.18996 0.89386 0.0
C462 C 0.339 0.18612 0.89818 0.0
C463 C 0.33483 0.1968 0.89868 0.0
C464 C 0.36648 0.13838 0.8672 0.0
C465 C 0.37763 0.13844 0.85582 0.0
C466 C 0.37438 0.13093 0.83778 0.0
C467 C 0.35983 0.12304 0.8309 0.0
C468 C 0.34864 0.1231 0.84219 0.0
C469 C 0.35195 0.13084 0.86012 0.0
C470 C 0.36867 0.13604 0.90259 0.0
C471 C 0.35527 0.12323 0.90674 0.0
C472 C 0.35471 0.11292 0.92028 0.0
C473 C 0.3675 0.1152 0.93002 0.0
C474 C 0.38071 0.12839 0.92671 0.0
C475 C 0.38127 0.13867 0.91305 0.0
C476 C 0.3659 0.15653 0.88902 0.0
C477 C 0.3729 0.16935 0.87755 0.0
C478 C 0.3689 0.18008 0.87906 0.0
C479 C 0.35794 0.17847 0.89249 0.0
C480 C 0.35103 0.16567 0.90422 0.0
C481 C 0.35482 0.15474 0.90235 0.0
H482 H 0.76298 0.14221 0.86691 0.0
N483 N 0.7856 0.14752 0.88987 0.0
H484 H 0.75531 0.1282 0.83602 0.0
H485 H 0.7999 0.13533 0.87093 0.0
H486 H 0.7927 0.12178 0.83959 0.0
H487 H 0.78401 0.12183 0.90137 0.0
H488 H 0.76675 0.1043 0.92523 0.0
H489 H 0.76931 0.15217 0.91575 0.0
H490 H 0.75253 0.13506 0.94062 0.0
H491 H 0.79953 0.17292 0.87091 0.0
H492 H 0.80637 0.14685 0.91429 0.0
H493 H 0.82539 0.19145 0.87251 0.0
H494 H 0.83198 0.16586 0.91734 0.0
H495 H 0.89433 0.2484 0.87937 0.0
H496 H 0.90538 0.26023 0.84791 0.0
H497 H 0.9132 0.22471 0.83383 0.0
H498 H 0.90261 0.21327 0.86584 0.0
H499 H 0.91886 0.2307 0.90889 0.0
H500 H 0.93375 0.25043 0.93204 0.0
H501 H 0.89773 0.25858 0.94001 0.0
H502 H 0.88325 0.23938 0.9163 0.0
H503 H 0.86978 0.22834 0.88795 0.0
H504 H 0.84381 0.21026 0.8895 0.0
H505 H 0.85466 0.17661 0.90273 0.0
N506 N 0.89273 0.2235 0.89435 0.0
H507 H 0.88065 0.19522 0.90296 0.0
C508 C 0.78202 0.13992 0.87109 0.0
C509 C 0.76953 0.13784 0.8609 0.0
C510 C 0.76524 0.1299 0.84319 0.0
C511 C 0.77343 0.12391 0.83519 0.0
C512 C 0.78605 0.12609 0.8454 0.0
C513 C 0.79027 0.13396 0.86323 0.0
C514 C 0.77776 0.13825 0.90654 0.0
C515 C 0.77729 0.12486 0.91001 0.0
C516 C 0.76744 0.11486 0.92384 0.0
C517 C 0.758 0.11811 0.93471 0.0
C518 C 0.75931 0.13198 0.93218 0.0
C519 C 0.76903 0.14188 0.91816 0.0
C520 C 0.80088 0.15852 0.89249 0.0
C521 C 0.80659 0.17135 0.88109 0.0
C522 C 0.82142 0.18203 0.88222 0.0
C523 C 0.83097 0.18036 0.89522 0.0
C524 C 0.82515 0.16753 0.9069 0.0
C525 C 0.81034 0.15664 0.90536 0.0
C526 C 0.89777 0.22997 0.87501 0.0
C527 C 0.89832 0.2431 0.86947 0.0
C528 C 0.90459 0.24982 0.85137 0.0
C529 C 0.91032 0.2435 0.83833 0.0
C530 C 0.90921 0.23007 0.84364 0.0
C531 C 0.90303 0.22342 0.86182 0.0
C532 C 0.89992 0.23342 0.91073 0.0
C533 C 0.9141 0.23657 0.91595 0.0
C534 C 0.92258 0.24786 0.92927 0.0
C535 C 0.91702 0.25624 0.93786 0.0
C536 C 0.90251 0.25258 0.9334 0.0
C537 C 0.89409 0.24138 0.9199 0.0
C538 C 0.8772 0.21319 0.89582 0.0
C539 C 0.86657 0.21717 0.89174 0.0
C540 C 0.85163 0.20666 0.89226 0.0
C541 C 0.84692 0.19179 0.89612 0.0
C542 C 0.85767 0.18791 0.90013 0.0
C543 C 0.87259 0.19852 0.90013 0.0
H544 H 0.80008 0.70827 0.87464 0.0
N545 N 0.8007 0.68615 0.89263 0.0
H546 H 0.78825 0.70766 0.84305 0.0
H547 H 0.78801 0.66304 0.86689 0.0
H548 H 0.77662 0.6624 0.83513 0.0
H549 H 0.7778 0.65873 0.89998 0.0
H550 H 0.75796 0.65254 0.92371 0.0
H551 H 0.80057 0.70313 0.92159 0.0
H552 H 0.78128 0.69694 0.94621 0.0
H553 H 0.82695 0.70841 0.90158 0.0
H554 H 0.80399 0.66214 0.88913 0.0
H555 H 0.85002 0.70837 0.90417 0.0
H556 H 0.82717 0.66209 0.88993 0.0
H557 H 0.92191 0.70884 0.88081 0.0
H558 H 0.93292 0.70859 0.84896 0.0
H559 H 0.89546 0.66596 0.83619 0.0
H560 H 0.88431 0.66671 0.86775 0.0
H561 H 0.88947 0.65926 0.8991 0.0
H562 H 0.90052 0.64945 0.92173 0.0
H563 H 0.92517 0.69196 0.9496 0.0
H564 H 0.91377 0.70158 0.92709 0.0
H565 H 0.89103 0.70873 0.88518 0.0
H566 H 0.86744 0.70768 0.88451 0.0
H567 H 0.84664 0.66361 0.90826 0.0
N568 N 0.89679 0.68806 0.89604 0.0
H569 H 0.87015 0.66445 0.90749 0.0
C570 C 0.79502 0.68578 0.87307 0.0
C571 C 0.79512 0.6983 0.8659 0.0
C572 C 0.7884 0.69792 0.84783 0.0
C573 C 0.78142 0.68495 0.83654 0.0
C574 C 0.78169 0.67251 0.84356 0.0
C575 C 0.78837 0.6729 0.86168 0.0
C576 C 0.79048 0.68148 0.90885 0.0
C577 C 0.77868 0.66705 0.91018 0.0
C578 C 0.76739 0.66352 0.9239 0.0
C579 C 0.76784 0.67432 0.93668 0.0
C580 C 0.78033 0.68845 0.93626 0.0
C581 C 0.79146 0.69199 0.92238 0.0
C582 C 0.81389 0.68541 0.89472 0.0
C583 C 0.82698 0.69826 0.89918 0.0
C584 C 0.84018 0.69821 0.90042 0.0
C585 C 0.84065 0.68529 0.89679 0.0
C586 C 0.82733 0.67226 0.89287 0.0
C587 C 0.81404 0.67229 0.89208 0.0
C588 C 0.90241 0.6878 0.87664 0.0
C589 C 0.91606 0.69954 0.87099 0.0
C590 C 0.92237 0.69928 0.85288 0.0
C591 C 0.91517 0.68717 0.84006 0.0
C592 C 0.90127 0.67552 0.84559 0.0
C593 C 0.89492 0.67585 0.8637 0.0
C594 C 0.90083 0.68122 0.91142 0.0
C595 C 0.89695 0.66638 0.9104 0.0
C596 C 0.90337 0.6608 0.92328 0.0
C597 C 0.91388 0.66995 0.93734 0.0
C598 C 0.91703 0.68455 0.93911 0.0
C599 C 0.91056 0.69009 0.92624 0.0
C600 C 0.88251 0.68682 0.89656 0.0
C601 C 0.88135 0.69884 0.89022 0.0
C602 C 0.86782 0.69824 0.89005 0.0
C603 C 0.85502 0.68563 0.89664 0.0
C604 C 0.85617 0.67348 0.90291 0.0
C605 C 0.86973 0.674 0.90267 0.0
H606 H 0.78655 0.67529 0.48501 0.0
N607 N 0.81195 0.70058 0.47583 0.0
H608 H 0.77261 0.67019 0.51587 0.0
H609 H 0.81997 0.71668 0.50861 0.0
H610 H 0.80636 0.71153 0.53982 0.0
H611 H 0.80942 0.72354 0.46616 0.0
H612 H 0.79248 0.72451 0.44229 0.0
H613 H 0.79509 0.67905 0.44873 0.0
H614 H 0.7786 0.68006 0.42431 0.0
H615 H 0.80661 0.67243 0.47182 0.0
H616 H 0.84079 0.71774 0.47348 0.0
H617 H 0.82487 0.66498 0.46768 0.0
H618 H 0.85934 0.71044 0.47118 0.0
H619 H 0.89169 0.649 0.48675 0.0
H620 H 0.90263 0.64957 0.519 0.0
H621 H 0.90714 0.69195 0.53087 0.0
H622 H 0.89671 0.69146 0.49827 0.0
H623 H 0.91357 0.69612 0.46862 0.0
H624 H 0.93408 0.70235 0.44632 0.0
H625 H 0.90812 0.66128 0.41537 0.0
H626 H 0.88781 0.65489 0.43844 0.0
H627 H 0.86064 0.65485 0.48417 0.0
H628 H 0.84201 0.66204 0.4846 0.0
H629 H 0.87149 0.70169 0.45258 0.0
N630 N 0.88786 0.66976 0.47036 0.0
H631 H 0.89035 0.69496 0.45368 0.0
C632 C 0.80426 0.69646 0.49451 0.0
C633 C 0.79101 0.68317 0.49697 0.0
C634 C 0.78307 0.68025 0.51469 0.0
C635 C 0.78827 0.69053 0.53028 0.0
C636 C 0.80187 0.70351 0.52799 0.0
C637 C 0.80973 0.70644 0.51027 0.0
C638 C 0.80364 0.70132 0.45928 0.0
C639 C 0.80292 0.71413 0.45676 0.0
C640 C 0.79324 0.71465 0.44303 0.0
C641 C 0.78407 0.70232 0.43137 0.0
C642 C 0.7853 0.68968 0.43326 0.0
C643 C 0.79491 0.68914 0.44715 0.0
C644 C 0.82234 0.69573 0.47245 0.0
C645 C 0.81806 0.68082 0.47105 0.0
C646 C 0.82862 0.67655 0.46908 0.0
C647 C 0.84373 0.68705 0.46914 0.0
C648 C 0.84789 0.70198 0.47058 0.0
C649 C 0.83731 0.70622 0.47205 0.0
C650 C 0.8933 0.67008 0.49015 0.0
C651 C 0.89494 0.65833 0.49644 0.0
C652 C 0.90113 0.65867 0.51492 0.0
C653 C 0.90577 0.67081 0.52761 0.0
C654 C 0.90388 0.68251 0.5214 0.0
C655 C 0.89778 0.6822 0.50283 0.0
C656 C 0.89917 0.6749 0.45533 0.0
C657 C 0.91221 0.68852 0.45691 0.0
C658 C 0.92394 0.69213 0.44399 0.0
C659 C 0.92286 0.68225 0.42914 0.0
C660 C 0.90947 0.66903 0.42688 0.0
C661 C 0.89778 0.6654 0.4399 0.0
C662 C 0.87693 0.67422 0.46892 0.0
C663 C 0.86305 0.66509 0.47723 0.0
C664 C 0.85233 0.66919 0.47726 0.0
C665 C 0.85509 0.68248 0.46854 0.0
C666 C 0.86895 0.69151 0.45981 0.0
C667 C 0.87981 0.68755 0.46022 0.0
H668 H 0.37632 0.13153 0.48571 0.0
N669 N 0.35665 0.13742 0.47033 0.0
H670 H 0.37527 0.1201 0.51777 0.0
H671 H 0.33561 0.13013 0.49879 0.0
H672 H 0.33447 0.11878 0.53104 0.0
H673 H 0.32803 0.11521 0.46832 0.0
H674 H 0.3184 0.09403 0.44616 0.0
H675 H 0.36981 0.13448 0.43846 0.0
H676 H 0.36022 0.11333 0.41609 0.0
H677 H 0.3771 0.1639 0.48164 0.0
H678 H 0.33332 0.14036 0.4575 0.0
H679 H 0.37611 0.18643 0.48162 0.0
H680 H 0.33258 0.16308 0.45595 0.0
H681 H 0.37656 0.25648 0.48644 0.0
H682 H 0.37609 0.26798 0.51779 0.0
H683 H 0.3332 0.23094 0.53054 0.0
H684 H 0.33361 0.21985 0.49904 0.0
H685 H 0.32742 0.22716 0.46724 0.0
H686 H 0.31974 0.24006 0.44443 0.0
H687 H 0.3621 0.25954 0.41556 0.0
H688 H 0.36989 0.24723 0.43927 0.0
H689 H 0.37758 0.22769 0.46353 0.0
H690 H 0.37743 0.20455 0.46157 0.0
H691 H 0.33069 0.18113 0.47327 0.0
N692 N 0.35525 0.23179 0.47086 0.0
H693 H 0.33091 0.20443 0.47334 0.0
C694 C 0.35609 0.13165 0.48992 0.0
C695 C 0.36725 0.1289 0.49567 0.0
C696 C 0.36665 0.12243 0.514 0.0
C697 C 0.35478 0.11853 0.52697 0.0
C698 C 0.34367 0.12151 0.5213 0.0
C699 C 0.34433 0.12805 0.50294 0.0
C700 C 0.34973 0.1264 0.45512 0.0
C701 C 0.33504 0.11505 0.45672 0.0
C702 C 0.32956 0.10291 0.44408 0.0
C703 C 0.3386 0.10194 0.42953 0.0
C704 C 0.35295 0.1138 0.42706 0.0
C705 C 0.35845 0.12587 0.43981 0.0
C706 C 0.35545 0.15046 0.46939 0.0
C707 C 0.36735 0.16367 0.47603 0.0
C708 C 0.36678 0.1766 0.47579 0.0
C709 C 0.35435 0.17677 0.46843 0.0
C710 C 0.34231 0.16344 0.46187 0.0
C711 C 0.34278 0.15038 0.46254 0.0
C712 C 0.35522 0.2373 0.49042 0.0
C713 C 0.36717 0.25079 0.49619 0.0
C714 C 0.36688 0.25731 0.51412 0.0
C715 C 0.35457 0.25043 0.52668 0.0
C716 C 0.34276 0.23667 0.5211 0.0
C717 C 0.34305 0.2302 0.50312 0.0
C718 C 0.34935 0.23651 0.45513 0.0
C719 C 0.33495 0.23404 0.45582 0.0
C720 C 0.33055 0.24138 0.44263 0.0
C721 C 0.3404 0.25112 0.42836 0.0
C722 C 0.35436 0.25248 0.4267 0.0
C723 C 0.3588 0.24533 0.44006 0.0
C724 C 0.35439 0.21779 0.46908 0.0
C725 C 0.36732 0.21752 0.46551 0.0
C726 C 0.36719 0.20424 0.46464 0.0
C727 C 0.3541 0.19083 0.46778 0.0
C728 C 0.341 0.19114 0.47076 0.0
C729 C 0.34112 0.2045 0.47115 0.0
H730 H 0.80229 0.09742 0.49228 0.0
N731 N 0.80901 0.12227 0.4739 0.0
H732 H 0.78818 0.08768 0.52302 0.0
H733 H 0.7996 0.13672 0.49883 0.0
H734 H 0.78589 0.12719 0.52961 0.0
H735 H 0.78345 0.12225 0.46643 0.0
H736 H 0.76488 0.10704 0.44186 0.0
H737 H 0.8119 0.10696 0.44477 0.0
H738 H 0.7934 0.09172 0.42008 0.0
H739 H 0.83764 0.13226 0.47588 0.0
H740 H 0.8061 0.14619 0.46583 0.0
H741 H 0.85766 0.15753 0.47234 0.0
H742 H 0.82584 0.17159 0.46375 0.0
H743 H 0.91262 0.22935 0.48635 0.0
H744 H 0.92327 0.24125 0.51769 0.0
H745 H 0.88869 0.25161 0.52493 0.0
H746 H 0.87838 0.24011 0.49279 0.0
H747 H 0.89568 0.25145 0.44612 0.0
H748 H 0.91609 0.26375 0.42273 0.0
H749 H 0.92621 0.2291 0.43054 0.0
H750 H 0.90571 0.21685 0.45388 0.0
H751 H 0.88909 0.20522 0.48776 0.0
H752 H 0.86971 0.17977 0.48838 0.0
H753 H 0.8451 0.18947 0.44557 0.0
N754 N 0.88865 0.22782 0.46777 0.0
H755 H 0.86422 0.21529 0.44628 0.0
C756 C 0.80223 0.11785 0.49324 0.0
C757 C 0.79891 0.10406 0.50052 0.0
C758 C 0.79077 0.09847 0.51794 0.0
C759 C 0.78593 0.10669 0.52861 0.0
C760 C 0.78959 0.12069 0.52171 0.0
C761 C 0.79752 0.12617 0.50407 0.0
C762 C 0.79904 0.11562 0.45748 0.0
C763 C 0.78585 0.11588 0.45609 0.0
C764 C 0.7752 0.10712 0.44212 0.0
C765 C 0.77763 0.09808 0.42917 0.0
C766 C 0.79124 0.09863 0.42974 0.0
C767 C 0.80181 0.10729 0.44383 0.0
C768 C 0.82041 0.13734 0.47141 0.0
C769 C 0.83506 0.14085 0.47309 0.0
C770 C 0.84648 0.15535 0.47124 0.0
C771 C 0.84348 0.16679 0.46797 0.0
C772 C 0.8287 0.16316 0.46599 0.0
C773 C 0.81731 0.1486 0.46744 0.0
C774 C 0.8947 0.23394 0.48703 0.0
C775 C 0.9073 0.23419 0.49454 0.0
C776 C 0.91333 0.24091 0.51269 0.0
C777 C 0.90687 0.24743 0.52392 0.0
C778 C 0.8941 0.24691 0.51656 0.0
C779 C 0.88811 0.24024 0.4983 0.0
C780 C 0.89921 0.23333 0.45181 0.0
C781 C 0.9021 0.24636 0.44239 0.0
C782 C 0.91373 0.25333 0.429 0.0
C783 C 0.92281 0.24743 0.42487 0.0
C784 C 0.91948 0.23397 0.43358 0.0
C785 C 0.90773 0.22693 0.44686 0.0
C786 C 0.87799 0.21233 0.46725 0.0
C787 C 0.87952 0.20197 0.47861 0.0
C788 C 0.86841 0.18725 0.47874 0.0
C789 C 0.85565 0.18241 0.46714 0.0
C790 C 0.8545 0.19274 0.45514 0.0
C791 C 0.86549 0.20751 0.45533 0.0
H792 H 0.05481 0.58877 0.19433 0.0
N793 N 0.03622 0.56862 0.21945 0.0
H794 H 0.04901 0.59714 0.1635 0.0
H795 H 0.00901 0.55709 0.2025 0.0
H796 H 0.00304 0.5656 0.17182 0.0
H797 H 0.01191 0.56872 0.23377 0.0
H798 H 0.01174 0.58566 0.25824 0.0
H799 H 0.05848 0.58726 0.24216 0.0
H800 H 0.05845 0.60443 0.26668 0.0
H801 H 0.04623 0.55391 0.19917 0.0
H802 H 0.01556 0.54837 0.24549 0.0
H803 H 0.03884 0.52809 0.2017 0.0
H804 H 0.0089 0.5229 0.24911 0.0
H805 H 0.02825 0.45978 0.21362 0.0
H806 H 0.02885 0.44853 0.18217 0.0
H807 H 0.98512 0.43992 0.16871 0.0
H808 H 0.9846 0.4512 0.20031 0.0
H809 H 0.98637 0.43628 0.24476 0.0
H810 H 0.99153 0.42244 0.2693 0.0
H811 H 0.03601 0.45862 0.27464 0.0
H812 H 0.03094 0.47203 0.24955 0.0
H813 H 0.0327 0.48462 0.22024 0.0
H814 H 0.04039 0.51055 0.22001 0.0
H815 H 0.99616 0.4998 0.23519 0.0
N816 N 0.00509 0.46178 0.22841 0.0
H817 H 0.98894 0.4739 0.23689 0.0
C818 C 0.03239 0.57242 0.2007 0.0
C819 C 0.04352 0.58357 0.18933 0.0
C820 C 0.04018 0.58829 0.17176 0.0
C821 C 0.02556 0.58203 0.16529 0.0
C822 C 0.01438 0.5707 0.17656 0.0
C823 C 0.01777 0.56583 0.19405 0.0
C824 C 0.03528 0.57675 0.23607 0.0
C825 C 0.02208 0.5763 0.24106 0.0
C826 C 0.02201 0.58606 0.25501 0.0
C827 C 0.03511 0.59651 0.26424 0.0
C828 C 0.04815 0.59645 0.25996 0.0
C829 C 0.0482 0.58667 0.24596 0.0
C830 C 0.03156 0.55326 0.22202 0.0
C831 C 0.03801 0.54716 0.21005 0.0
C832 C 0.03387 0.53238 0.2117 0.0
C833 C 0.02331 0.52327 0.22575 0.0
C834 C 0.01689 0.52942 0.23788 0.0
C835 C 0.02083 0.54418 0.23592 0.0
C836 C 0.00628 0.45622 0.20936 0.0
C837 C 0.01883 0.45557 0.20388 0.0
C838 C 0.01913 0.44906 0.18593 0.0
C839 C 0.00699 0.44326 0.17303 0.0
C840 C 0.99467 0.44438 0.17827 0.0
C841 C 0.99433 0.45077 0.19629 0.0
C842 C 0.00814 0.4552 0.24523 0.0
C843 C 0.99715 0.44131 0.25152 0.0
C844 C 1.00013 0.43344 0.26563 0.0
C845 C 0.01424 0.43935 0.27397 0.0
C846 C 0.0251 0.45359 0.26831 0.0
C847 C 0.02213 0.46139 0.25401 0.0
C848 C 0.01026 0.4773 0.22899 0.0
C849 C 0.02474 0.48786 0.224 0.0
C850 C 0.02907 0.50275 0.22354 0.0
C851 C 0.01891 0.50744 0.22746 0.0
C852 C 0.00442 0.49677 0.23246 0.0
C853 C 1.00021 0.48192 0.23334 0.0
H854 H 0.57515 0.55828 0.21319 0.0
N855 N 0.55228 0.5609 0.22668 0.0
H856 H 0.5886 0.56844 0.18203 0.0
H857 H 0.54482 0.57269 0.19737 0.0
H858 H 0.55774 0.5824 0.16596 0.0
H859 H 0.55128 0.58428 0.23889 0.0
H860 H 0.5679 0.60299 0.26216 0.0
H861 H 0.57211 0.55884 0.2505 0.0
H862 H 0.58829 0.57702 0.2747 0.0
H863 H 0.55423 0.53693 0.2368 0.0
H864 H 0.52391 0.55165 0.22241 0.0
H865 H 0.53385 0.51184 0.24031 0.0
H866 H 0.50348 0.5265 0.22429 0.0
H867 H 0.46423 0.43237 0.21426 0.0
H868 H 0.45336 0.42224 0.18188 0.0
H869 H 0.45028 0.46088 0.16973 0.0
H870 H 0.46079 0.47069 0.20239 0.0
H871 H 0.44391 0.45943 0.23184 0.0
H872 H 0.42319 0.44617 0.25427 0.0
H873 H 0.44747 0.42956 0.28609 0.0
H874 H 0.46798 0.44246 0.26294 0.0
H875 H 0.49667 0.46674 0.22189 0.0
H876 H 0.51713 0.49189 0.22204 0.0
H877 H 0.48809 0.50669 0.24376 0.0
N878 N 0.46877 0.45723 0.23053 0.0
H879 H 0.4676 0.48169 0.24218 0.0
C880 C 0.5591 0.5649 0.20751 0.0
C881 C 0.57126 0.5634 0.20279 0.0
C882 C 0.57888 0.56916 0.18497 0.0
C883 C 0.57438 0.57644 0.17162 0.0
C884 C 0.56172 0.57718 0.17608 0.0
C885 C 0.55422 0.57152 0.19388 0.0
C886 C 0.56034 0.57014 0.24312 0.0
C887 C 0.55914 0.58253 0.24703 0.0
C888 C 0.56866 0.59319 0.26042 0.0
C889 C 0.57956 0.59163 0.27037 0.0
C890 C 0.58024 0.57877 0.2671 0.0
C891 C 0.57081 0.5682 0.25347 0.0
C892 C 0.5405 0.54616 0.22975 0.0
C893 C 0.54314 0.53476 0.23459 0.0
C894 C 0.53143 0.52034 0.23625 0.0
C895 C 0.51687 0.51698 0.23257 0.0
C896 C 0.51439 0.52855 0.22772 0.0
C897 C 0.52607 0.54296 0.22647 0.0
C898 C 0.46339 0.45225 0.21069 0.0
C899 C 0.46133 0.43868 0.20448 0.0
C900 C 0.45518 0.43297 0.18593 0.0
C901 C 0.45095 0.44075 0.17314 0.0
C902 C 0.45325 0.45451 0.17928 0.0
C903 C 0.45937 0.4602 0.1979 0.0
C904 C 0.45747 0.45177 0.24558 0.0
C905 C 0.44488 0.45311 0.24379 0.0
C906 C 0.43303 0.44557 0.25677 0.0
C907 C 0.43354 0.4366 0.27187 0.0
C908 C 0.44655 0.43609 0.27437 0.0
C909 C 0.45835 0.44356 0.26131 0.0
C910 C 0.48062 0.47222 0.23214 0.0
C911 C 0.49478 0.47545 0.22674 0.0
C912 C 0.50651 0.48987 0.22702 0.0
C913 C 0.50441 0.50148 0.23301 0.0
C914 C 0.49018 0.49816 0.23873 0.0
C915 C 0.47839 0.48374 0.23807 0.0
H916 H 0.55529 0.98877 0.20673 0.0
N917 N 0.55726 0.01196 0.22794 0.0
H918 H 0.56621 0.98994 0.17448 0.0
H919 H 0.57246 0.03548 0.2052 0.0
H920 H 0.58381 0.03675 0.17282 0.0
H921 H 0.58016 0.02968 0.25013 0.0
H922 H 0.59374 0.02285 0.27313 0.0
H923 H 0.54857 0.98403 0.24074 0.0
H924 H 0.56217 0.9771 0.26349 0.0
H925 H 0.53322 0.98621 0.21551 0.0
H926 H 0.54653 0.02767 0.24381 0.0
H927 H 0.50786 0.98041 0.21599 0.0
H928 H 0.52086 0.02166 0.24522 0.0
H929 H 0.44534 0.97212 0.1861 0.0
H930 H 0.43821 0.97913 0.15517 0.0
H931 H 0.44616 0.01952 0.18255 0.0
H932 H 0.45317 0.01239 0.21333 0.0
H933 H 0.45776 0.00734 0.24861 0.0
H934 H 0.43973 0.00714 0.27186 0.0
H935 H 0.40766 0.96387 0.25147 0.0
H936 H 0.4257 0.9642 0.22826 0.0
H937 H 0.46167 0.96822 0.23095 0.0
H938 H 0.48703 0.97397 0.23573 0.0
H939 H 0.50204 0.01967 0.22392 0.0
N940 N 0.45226 0.98635 0.22051 0.0
H941 H 0.47667 0.01387 0.22019 0.0
C942 C 0.56285 0.01207 0.20834 0.0
C943 C 0.56117 0.99926 0.19937 0.0
C944 C 0.56747 0.99993 0.18087 0.0
C945 C 0.57582 0.01343 0.17112 0.0
C946 C 0.57746 0.02621 0.18004 0.0
C947 C 0.57095 0.0255 0.19843 0.0
C948 C 0.56346 0.00744 0.2436 0.0
C949 C 0.57601 0.0182 0.25337 0.0
C950 C 0.58372 0.01427 0.26651 0.0
C951 C 0.57907 0.99943 0.27001 0.0
C952 C 0.56609 0.98862 0.2609 0.0
C953 C 0.55829 0.99258 0.2479 0.0
C954 C 0.54191 0.00753 0.22944 0.0
C955 C 0.53073 0.99404 0.22205 0.0
C956 C 0.51609 0.99065 0.22252 0.0
C957 C 0.51221 1.00057 0.2306 0.0
C958 C 0.5234 0.01385 0.23856 0.0
C959 C 0.53807 0.01727 0.23793 0.0
C960 C 0.44971 0.99163 0.20202 0.0
C961 C 0.44574 0.98257 0.18527 0.0
C962 C 0.44172 0.98663 0.16763 0.0
C963 C 0.44154 0.99986 0.16645 0.0
C964 C 0.446 0.00918 0.18308 0.0
C965 C 0.45009 0.00514 0.20067 0.0
C966 C 0.44301 0.98573 0.23669 0.0
C967 C 0.44697 0.99769 0.24948 0.0
C968 C 0.43666 0.99756 0.26277 0.0
C969 C 0.42224 0.98555 0.2633 0.0
C970 C 0.41862 0.97335 0.2512 0.0
C971 C 0.42891 0.97346 0.23807 0.0
C972 C 0.46725 0.99052 0.22499 0.0
C973 C 0.47046 0.9795 0.2297 0.0
C974 C 0.48498 0.98281 0.23223 0.0
C975 C 0.49667 0.99727 0.22992 0.0
C976 C 0.49337 0.00843 0.22597 0.0
C977 C 0.4788 0.00511 0.22365 0.0
H978 H 0.43337 0.97992 0.81816 0.0
N979 N 0.45903 0.99945 0.80279 0.0
H980 H 0.42278 0.98131 0.84981 0.0
H981 H 0.47286 0.02057 0.83112 0.0
H982 H 0.46253 0.02198 0.8631 0.0
H983 H 0.46508 0.02785 0.80011 0.0
H984 H 0.45304 0.0369 0.77788 0.0
H985 H 0.44247 0.98565 0.77149 0.0
H986 H 0.4303 0.99458 0.74917 0.0
H987 H 0.46548 0.9792 0.81339 0.0
H988 H 0.48519 0.02319 0.79032 0.0
H989 H 0.48923 0.98058 0.81276 0.0
H990 H 0.50887 0.02436 0.78827 0.0
H991 H 0.56063 0.98135 0.81439 0.0
H992 H 0.57071 0.97991 0.84659 0.0
H993 H 0.57189 0.01974 0.86498 0.0
H994 H 0.56172 0.02097 0.83307 0.0
H995 H 0.5789 0.03029 0.80439 0.0
H996 H 0.60088 0.0409 0.78344 0.0
H997 H 0.58033 0.00294 0.74531 0.0
H998 H 0.55856 0.99207 0.76681 0.0
H999 H 0.52928 0.98 0.79331 0.0
H1000 H 0.50609 0.97987 0.79189 0.0
H1001 H 0.52904 0.02626 0.80542 0.0
N1002 N 0.55563 0.00228 0.80154 0.0
H1003 H 0.55232 0.02637 0.80512 0.0
C1004 C 0.45385 1.00006 0.82236 0.0
C1005 C 0.43982 0.98902 0.82806 0.0
C1006 C 0.43384 0.98983 0.84617 0.0
C1007 C 0.4418 0.00177 0.85903 0.0
C1008 C 0.45603 0.01273 0.85345 0.0
C1009 C 0.46201 0.0119 0.83526 0.0
C1010 C 0.4546 0.006 0.78748 0.0
C1011 C 0.45779 0.02062 0.78874 0.0
C1012 C 0.45082 0.02576 0.77609 0.0
C1013 C 0.44059 0.01641 0.76191 0.0
C1014 C 0.4382 0.0021 0.75982 0.0
C1015 C 0.44513 0.99697 0.77254 0.0
C1016 C 0.47341 1.00092 0.80169 0.0
C1017 C 0.47494 0.98909 0.80791 0.0
C1018 C 0.48856 0.98988 0.80732 0.0
C1019 C 0.50107 0.0025 0.8001 0.0
C1020 C 0.49957 0.01449 0.79404 0.0
C1021 C 0.48592 0.01378 0.79501 0.0
C1022 C 0.5603 1.00115 0.82129 0.0
C1023 C 0.56288 0.98963 0.82552 0.0
C1024 C 0.56874 0.9889 0.84384 0.0
C1025 C 0.57215 0.99974 0.85834 0.0
C1026 C 0.56921 0.01111 0.85425 0.0
C1027 C 0.56339 0.01184 0.83591 0.0
C1028 C 0.56718 0.01022 0.78732 0.0
C1029 C 0.57899 0.02434 0.79137 0.0
C1030 C 0.59153 0.03041 0.77939 0.0
C1031 C 0.59228 0.02266 0.76288 0.0
C1032 C 0.57998 0.00914 0.7579 0.0
C1033 C 0.56757 0.00294 0.77013 0.0
C1034 C 0.54242 0.00306 0.79973 0.0
C1035 C 0.52926 0.99014 0.79576 0.0
C1036 C 0.51599 0.9901 0.79521 0.0
C1037 C 0.51551 0.00299 0.79904 0.0
C1038 C 0.52888 0.01611 0.80237 0.0
C1039 C 0.54223 0.01617 0.80248 0.0
H1040 H 0.97041 0.55081 0.82864 0.0
N1041 N 0.98927 0.54703 0.80697 0.0
H1042 H 0.97504 0.56417 0.85991 0.0
H1043 H 0.01489 0.55917 0.82866 0.0
H1044 H 0.01942 0.57185 0.86023 0.0
H1045 H 0.01463 0.57204 0.79665 0.0
H1046 H 0.01687 0.5901 0.77202 0.0
H1047 H 0.96921 0.54417 0.78074 0.0
H1048 H 0.97127 0.56222 0.75617 0.0
H1049 H 0.97053 0.51849 0.80929 0.0
H1050 H 0.01593 0.54982 0.79761 0.0
H1051 H 0.97573 0.49847 0.80629 0.0
H1052 H 0.02158 0.53012 0.7962 0.0
H1053 H 0.99174 0.44502 0.82387 0.0
H1054 H 0.99241 0.43407 0.85551 0.0
H1055 H 0.03887 0.46484 0.86027 0.0
H1056 H 0.03807 0.47601 0.82858 0.0
H1057 H 0.03244 0.46049 0.78511 0.0
H1058 H 0.02532 0.44056 0.76142 0.0
H1059 H 0.98028 0.4308 0.76472 0.0
H1060 H 0.98756 0.45057 0.78898 0.0
H1061 H 0.99216 0.46785 0.82425 0.0
H1062 H 0.98611 0.4871 0.8233 0.0
H1063 H 0.02017 0.51033 0.77956 0.0
N1064 N 0.01509 0.46757 0.80464 0.0
H1065 H 0.02691 0.49133 0.78182 0.0
C1066 C 0.99216 0.5538 0.82632 0.0
C1067 C 0.98108 0.55527 0.83561 0.0
C1068 C 0.98375 0.56286 0.85354 0.0
C1069 C 0.99762 0.56911 0.8627 0.0
C1070 C 0.00867 0.56739 0.85352 0.0
C1071 C 0.00602 0.55992 0.83547 0.0
C1072 C 0.99168 0.55675 0.79054 0.0
C1073 C 0.00521 0.56966 0.78758 0.0
C1074 C 0.00645 0.58003 0.77358 0.0
C1075 C 0.99421 0.57766 0.76224 0.0
C1076 C 0.98094 0.56435 0.7645 0.0
C1077 C 0.97972 0.55403 0.77854 0.0
C1078 C 0.99282 0.53562 0.80403 0.0
C1079 C 0.98166 0.52102 0.80621 0.0
C1080 C 0.98472 0.50961 0.8047 0.0
C1081 C 0.99916 0.51257 0.80133 0.0
C1082 C 0.01029 0.52728 0.79861 0.0
C1083 C 0.00712 0.53867 0.7997 0.0
C1084 C 0.01487 0.46152 0.82397 0.0
C1085 C 1.00203 0.44961 0.83182 0.0
C1086 C 0.00241 0.44335 0.84993 0.0
C1087 C 0.01569 0.44863 0.86034 0.0
C1088 C 0.02851 0.46053 0.8525 0.0
C1089 C 0.02806 0.46696 0.83453 0.0
C1090 C 0.0106 0.45704 0.78873 0.0
C1091 C 0.02109 0.45419 0.78042 0.0
C1092 C 0.01697 0.44282 0.7668 0.0
C1093 C 1.00219 0.43402 0.76108 0.0
C1094 C 0.99172 0.43722 0.76895 0.0
C1095 C 0.99587 0.44861 0.7827 0.0
C1096 C 0.0103 0.47823 0.80337 0.0
C1097 C 0.99846 0.47705 0.81453 0.0
C1098 C 0.99484 0.48811 0.81376 0.0
C1099 C 0.00266 0.50045 0.80141 0.0
C1100 C 0.01409 0.50125 0.78964 0.0
C1101 C 0.0179 0.49032 0.79075 0.0
H1102 H 0.46644 0.44311 0.82594 0.0
N1103 N 0.46467 0.4655 0.80809 0.0
H1104 H 0.45537 0.43143 0.85745 0.0
H1105 H 0.45007 0.47295 0.83316 0.0
H1106 H 0.43831 0.4609 0.86438 0.0
H1107 H 0.44008 0.45988 0.78997 0.0
H1108 H 0.4259 0.44049 0.76601 0.0
H1109 H 0.47381 0.44811 0.7895 0.0
H1110 H 0.4601 0.42922 0.76502 0.0
H1111 H 0.4886 0.46204 0.81424 0.0
H1112 H 0.47554 0.49379 0.80064 0.0
H1113 H 0.51416 0.48098 0.81282 0.0
H1114 H 0.50123 0.51328 0.80104 0.0
H1115 H 0.59442 0.55059 0.8329 0.0
H1116 H 0.60275 0.56499 0.8634 0.0
H1117 H 0.56469 0.57042 0.86202 0.0
H1118 H 0.55687 0.55656 0.83094 0.0
H1119 H 0.57248 0.56989 0.79934 0.0
H1120 H 0.58872 0.58648 0.77381 0.0
H1121 H 0.60169 0.5548 0.75821 0.0
H1122 H 0.58595 0.53864 0.78465 0.0
H1123 H 0.55783 0.51915 0.83092 0.0
H1124 H 0.53212 0.50009 0.83007 0.0
H1125 H 0.52383 0.52491 0.7859 0.0
N1126 N 0.5709 0.54433 0.81136 0.0
H1127 H 0.54931 0.54442 0.7882 0.0
C1128 C 0.4592 0.45905 0.82731 0.0
C1129 C 0.46062 0.44728 0.83443 0.0
C1130 C 0.45407 0.44046 0.85237 0.0
C1131 C 0.44584 0.44513 0.86346 0.0
C1132 C 0.44472 0.45711 0.85643 0.0
C1133 C 0.45137 0.46399 0.83857 0.0
C1134 C 0.45804 0.4556 0.79157 0.0
C1135 C 0.44462 0.45339 0.78426 0.0
C1136 C 0.43655 0.44231 0.77049 0.0
C1137 C 0.44179 0.43318 0.76358 0.0
C1138 C 0.45559 0.43585 0.77025 0.0
C1139 C 0.46358 0.44685 0.7842 0.0
C1140 C 0.48005 0.47641 0.80703 0.0
C1141 C 0.49118 0.47307 0.81077 0.0
C1142 C 0.50594 0.4841 0.81036 0.0
C1143 C 0.50997 0.49884 0.80693 0.0
C1144 C 0.49873 0.5021 0.80332 0.0
C1145 C 0.48399 0.49099 0.80323 0.0
C1146 C 0.575 0.55236 0.82982 0.0
C1147 C 0.58788 0.55486 0.83928 0.0
C1148 C 0.59255 0.56302 0.85678 0.0
C1149 C 0.58433 0.56878 0.86536 0.0
C1150 C 0.57137 0.56628 0.85579 0.0
C1151 C 0.56679 0.55822 0.83812 0.0
C1152 C 0.57822 0.55311 0.79411 0.0
C1153 C 0.57871 0.56646 0.7903 0.0
C1154 C 0.58795 0.57591 0.77553 0.0
C1155 C 0.59675 0.57213 0.76407 0.0
C1156 C 0.59539 0.55828 0.76705 0.0
C1157 C 0.58629 0.54893 0.78199 0.0
C1158 C 0.55562 0.53315 0.80955 0.0
C1159 C 0.55042 0.52044 0.82108 0.0
C1160 C 0.53569 0.50946 0.82037 0.0
C1161 C 0.52574 0.51073 0.8077 0.0
C1162 C 0.53101 0.52352 0.79605 0.0
C1163 C 0.54573 0.5347 0.79716 0.0
H1164 H 0.72025 0.92387 0.5325 0.0
N1165 N 0.70122 0.9035 0.55699 0.0
H1166 H 0.71507 0.93205 0.50104 0.0
H1167 H 0.67441 0.89165 0.5387 0.0
H1168 H 0.66908 0.8999 0.50736 0.0
H1169 H 0.67644 0.90351 0.56962 0.0
H1170 H 0.67534 0.9195 0.59479 0.0
H1171 H 0.72249 0.92118 0.58164 0.0
H1172 H 0.72154 0.93747 0.6068 0.0
H1173 H 0.71721 0.89181 0.5458 0.0
H1174 H 0.67609 0.88092 0.57347 0.0
H1175 H 0.71086 0.86616 0.54764 0.0
H1176 H 0.66993 0.85543 0.57634 0.0
H1177 H 0.69632 0.80705 0.53355 0.0
H1178 H 0.69562 0.79539 0.5021 0.0
H1179 H 0.64897 0.76583 0.50976 0.0
H1180 H 0.65023 0.77679 0.54215 0.0
H1181 H 0.65784 0.78079 0.59028 0.0
H1182 H 0.66372 0.76578 0.61203 0.0
H1183 H 0.70668 0.78476 0.58521 0.0
H1184 H 0.7007 0.7994 0.5635 0.0
H1185 H 0.7014 0.82144 0.56721 0.0
H1186 H 0.70788 0.84703 0.56848 0.0
H1187 H 0.66261 0.83433 0.55706 0.0
N1188 N 0.67383 0.79771 0.56035 0.0
H1189 H 0.65614 0.80862 0.55684 0.0
C1190 C 0.69777 0.90725 0.53795 0.0
C1191 C 0.70909 0.9185 0.52695 0.0
C1192 C 0.70611 0.92312 0.50899 0.0
C1193 C 0.69166 0.91662 0.50176 0.0
C1194 C 0.68029 0.90519 0.51268 0.0
C1195 C 0.68333 0.90046 0.53056 0.0
C1196 C 0.69963 0.91116 0.57369 0.0
C1197 C 0.68629 0.91064 0.57787 0.0
C1198 C 0.68569 0.9199 0.59222 0.0
C1199 C 0.69839 0.92988 0.60267 0.0
C1200 C 0.71153 0.92984 0.59916 0.0
C1201 C 0.71211 0.92057 0.58477 0.0
C1202 C 0.69726 0.88837 0.5596 0.0
C1203 C 0.70691 0.88389 0.55258 0.0
C1204 C 0.70328 0.86922 0.55379 0.0
C1205 C 0.68988 0.85863 0.56223 0.0
C1206 C 0.68026 0.86319 0.5695 0.0
C1207 C 0.68384 0.87787 0.56805 0.0
C1208 C 0.67336 0.7925 0.54043 0.0
C1209 C 0.68599 0.79797 0.52853 0.0
C1210 C 0.68549 0.79139 0.51031 0.0
C1211 C 0.67226 0.77944 0.5033 0.0
C1212 C 0.65947 0.77465 0.51481 0.0
C1213 C 0.66009 0.78101 0.53323 0.0
C1214 C 0.67873 0.79124 0.57522 0.0
C1215 C 0.66864 0.78195 0.58947 0.0
C1216 C 0.67203 0.7734 0.60188 0.0
C1217 C 0.68561 0.77395 0.60017 0.0
C1218 C 0.69603 0.7839 0.58667 0.0
C1219 C 0.69264 0.79242 0.5743 0.0
C1220 C 0.67816 0.81299 0.56215 0.0
C1221 C 0.6928 0.82406 0.56528 0.0
C1222 C 0.69654 0.83881 0.56579 0.0
C1223 C 0.6858 0.84286 0.56284 0.0
C1224 C 0.67117 0.83171 0.55979 0.0
C1225 C 0.66743 0.81699 0.55953 0.0
H1226 H 0.25532 0.89241 0.54523 0.0
N1227 N 0.23074 0.88769 0.56261 0.0
H1228 H 0.26524 0.90426 0.51323 0.0
H1229 H 0.21739 0.89712 0.53654 0.0
H1230 H 0.22712 0.9089 0.5043 0.0
H1231 H 0.22707 0.91138 0.56785 0.0
H1232 H 0.24052 0.93131 0.59139 0.0
H1233 H 0.24612 0.88736 0.59366 0.0
H1234 H 0.25907 0.9069 0.61805 0.0
H1235 H 0.22432 0.861 0.55204 0.0
H1236 H 0.20481 0.88536 0.57514 0.0
H1237 H 0.20055 0.83859 0.55277 0.0
H1238 H 0.18099 0.86274 0.57727 0.0
H1239 H 0.13109 0.76844 0.55111 0.0
H1240 H 0.12065 0.75644 0.51928 0.0
H1241 H 0.11558 0.79317 0.50216 0.0
H1242 H 0.12622 0.80509 0.53371 0.0
H1243 H 0.10905 0.79479 0.5626 0.0
H1244 H 0.08839 0.78255 0.58517 0.0
H1245 H 0.11462 0.77203 0.62394 0.0
H1246 H 0.13477 0.78318 0.60012 0.0
H1247 H 0.1608 0.79796 0.57278 0.0
H1248 H 0.1839 0.82116 0.57416 0.0
H1249 H 0.16078 0.84426 0.55991 0.0
N1250 N 0.13442 0.79367 0.56434 0.0
H1251 H 0.13754 0.8209 0.56024 0.0
C1252 C 0.23569 0.89391 0.54318 0.0
C1253 C 0.24909 0.89589 0.53624 0.0
C1254 C 0.25468 0.90259 0.51794 0.0
C1255 C 0.24696 0.9075 0.50619 0.0
C1256 C 0.2334 0.90536 0.51309 0.0
C1257 C 0.22778 0.89858 0.53143 0.0
C1258 C 0.23583 0.89799 0.57882 0.0
C1259 C 0.23386 0.91022 0.57895 0.0
C1260 C 0.2415 0.9216 0.59256 0.0
C1261 C 0.25114 0.92088 0.60643 0.0
C1262 C 0.25207 0.90803 0.60726 0.0
C1263 C 0.24456 0.89677 0.5935 0.0
C1264 C 0.21641 0.87477 0.56379 0.0
C1265 C 0.21487 0.86142 0.55756 0.0
C1266 C 0.20126 0.84858 0.5582 0.0
C1267 C 0.18877 0.84868 0.56547 0.0
C1268 C 0.19029 0.86218 0.5715 0.0
C1269 C 0.20396 0.87515 0.57049 0.0
C1270 C 0.12951 0.78764 0.54478 0.0
C1271 C 0.12791 0.77395 0.54031 0.0
C1272 C 0.12184 0.76708 0.52222 0.0
C1273 C 0.11721 0.77381 0.5082 0.0
C1274 C 0.1192 0.78776 0.5125 0.0
C1275 C 0.12528 0.7946 0.53061 0.0
C1276 C 0.12333 0.78952 0.57942 0.0
C1277 C 0.11038 0.78991 0.57598 0.0
C1278 C 0.09855 0.78299 0.58914 0.0
C1279 C 0.09957 0.7759 0.60633 0.0
C1280 C 0.11312 0.77682 0.61056 0.0
C1281 C 0.12478 0.7834 0.59712 0.0
C1282 C 0.14759 0.80771 0.56596 0.0
C1283 C 0.16076 0.80808 0.57013 0.0
C1284 C 0.17397 0.82138 0.57068 0.0
C1285 C 0.17437 0.83468 0.56662 0.0
C1286 C 0.16098 0.83431 0.5631 0.0
C1287 C 0.14767 0.82093 0.56299 0.0
H1288 H 0.21282 0.32237 0.53337 0.0
N1289 N 0.22302 0.34427 0.56113 0.0
H1290 H 0.22428 0.32328 0.5014 0.0
H1291 H 0.24578 0.36728 0.54464 0.0
H1292 H 0.25717 0.36845 0.5125 0.0
H1293 H 0.24072 0.36052 0.59015 0.0
H1294 H 0.25512 0.35437 0.61236 0.0
H1295 H 0.22047 0.31716 0.56499 0.0
H1296 H 0.23368 0.3104 0.5882 0.0
H1297 H 0.19891 0.31677 0.56719 0.0
H1298 H 0.21244 0.36228 0.55802 0.0
H1299 H 0.17343 0.31063 0.56831 0.0
H1300 H 0.18676 0.35613 0.55816 0.0
H1301 H 0.09531 0.30097 0.53275 0.0
H1302 H 0.08801 0.30737 0.50159 0.0
H1303 H 0.12556 0.35116 0.50545 0.0
H1304 H 0.13243 0.34475 0.53696 0.0
H1305 H 0.11772 0.34339 0.56744 0.0
H1306 H 0.1009 0.34489 0.59097 0.0
H1307 H 0.08247 0.29895 0.60479 0.0
H1308 H 0.09946 0.29757 0.58122 0.0
H1309 H 0.12913 0.30232 0.54469 0.0
H1310 H 0.15469 0.30834 0.54698 0.0
H1311 H 0.16542 0.34856 0.57756 0.0
N1312 N 0.11755 0.31831 0.55623 0.0
H1313 H 0.13999 0.34272 0.57436 0.0
C1314 C 0.22851 0.3448 0.54138 0.0
C1315 C 0.22241 0.33249 0.52884 0.0
C1316 C 0.22895 0.33305 0.51051 0.0
C1317 C 0.24171 0.34591 0.50444 0.0
C1318 C 0.2475 0.3583 0.51684 0.0
C1319 C 0.24096 0.35772 0.53511 0.0
C1320 C 0.2293 0.33931 0.57616 0.0
C1321 C 0.23898 0.34949 0.58995 0.0
C1322 C 0.24717 0.34588 0.60272 0.0
C1323 C 0.24569 0.33184 0.60217 0.0
C1324 C 0.23542 0.32141 0.58889 0.0
C1325 C 0.22752 0.32517 0.57581 0.0
C1326 C 0.20774 0.34011 0.56271 0.0
C1327 C 0.19649 0.32551 0.5655 0.0
C1328 C 0.18178 0.32196 0.56593 0.0
C1329 C 0.17793 0.33285 0.56328 0.0
C1330 C 0.18924 0.34745 0.56062 0.0
C1331 C 0.20394 0.351 0.5604 0.0
C1332 C 0.11442 0.32227 0.53709 0.0
C1333 C 0.10202 0.31189 0.52672 0.0
C1334 C 0.09792 0.31557 0.50887 0.0
C1335 C 0.10622 0.32979 0.50092 0.0
C1336 C 0.11882 0.34017 0.51123 0.0
C1337 C 0.12286 0.33647 0.52918 0.0
C1338 C 0.10981 0.32029 0.57252 0.0
C1339 C 0.11032 0.33371 0.57584 0.0
C1340 C 0.1006 0.33454 0.5892 0.0
C1341 C 0.09023 0.322 0.59957 0.0
C1342 C 0.09038 0.30883 0.59714 0.0
C1343 C 0.10006 0.30801 0.5837 0.0
C1344 C 0.13255 0.32193 0.55945 0.0
C1345 C 0.13701 0.31237 0.55203 0.0
C1346 C 0.15163 0.31582 0.55347 0.0
C1347 C 0.1622 0.32894 0.56253 0.0
C1348 C 0.15766 0.33845 0.57026 0.0
C1349 C 0.14302 0.33504 0.56863 0.0
H1350 H 0.01624 0.41938 0.05247 0.0
H1351 H 0.99745 0.37861 0.08503 0.0
H1352 H 0.01561 0.43206 0.08245 0.0
H1353 H 0.9968 0.39132 0.11504 0.0
H1354 H 0.01571 0.42304 0.16836 0.0
H1355 H 0.01535 0.41014 0.13807 0.0
H1356 H 0.99755 0.43304 0.10565 0.0
H1357 H 0.99809 0.44611 0.13593 0.0
C1358 C 0.01188 0.41311 0.06601 0.0
C1359 C 0.00691 0.39801 0.06643 0.0
C1360 C 0.01147 0.42037 0.08314 0.0
C1361 C 0.0062 0.4127 0.10111 0.0
C1362 C 1.00106 0.39755 0.10146 0.0
C1363 C 1.00135 0.39026 0.08426 0.0
C1364 C 0.01183 0.4254 0.15473 0.0
C1365 C 0.00697 0.43562 0.1545 0.0
C1366 C 0.01147 0.4179 0.13745 0.0
C1367 C 0.00637 0.42054 0.11951 0.0
C1368 C 1.00161 0.43084 0.11923 0.0
C1369 C 1.00183 0.43824 0.13658 0.0
H1370 H 0.6051 0.62544 0.06215 0.0
H1371 H 0.63908 0.61524 0.07573 0.0
H1372 H 0.59144 0.61186 0.09136 0.0
H1373 H 0.62541 0.60172 0.10527 0.0
H1374 H 0.58803 0.56688 0.14569 0.0
H1375 H 0.60207 0.57936 0.11584 0.0
H1376 H 0.59473 0.61546 0.12739 0.0
H1377 H 0.58094 0.60318 0.15708 0.0
C1378 C 0.60965 0.62027 0.07137 0.0
C1379 C 0.62321 0.62148 0.06671 0.0
C1380 C 0.60185 0.61255 0.08818 0.0
C1381 C 0.60741 0.60582 0.10073 0.0
C1382 C 0.62081 0.60672 0.09582 0.0
C1383 C 0.62867 0.61452 0.07899 0.0
C1384 C 0.58952 0.57753 0.1419 0.0
C1385 C 0.58318 0.58393 0.15363 0.0
C1386 C 0.59755 0.58466 0.12482 0.0
C1387 C 0.59936 0.59831 0.11914 0.0
C1388 C 0.59326 0.6048 0.1311 0.0
C1389 C 0.58531 0.59773 0.14812 0.0
H1390 H 0.40298 0.03068 0.07627 0.0
H1391 H 0.40018 0.99118 0.05308 0.0
H1392 H 0.41642 0.02945 0.10517 0.0
H1393 H 0.4132 0.98972 0.08201 0.0
H1394 H 0.44744 0.99702 0.12764 0.0
H1395 H 0.43675 1.00119 0.09795 0.0
H1396 H 0.41202 0.01473 0.13467 0.0
H1397 H 0.42286 0.01073 0.16428 0.0
C1398 C 0.40525 0.02175 0.07735 0.0
C1399 C 0.40052 0.01103 0.06243 0.0
C1400 C 0.41287 0.021 0.09393 0.0
C1401 C 0.41592 0.0095 0.09592 0.0
C1402 C 0.41129 0.99888 0.08084 0.0
C1403 C 0.40371 0.99965 0.0643 0.0
C1404 C 0.43975 1.00093 0.12934 0.0
C1405 C 0.43595 0.00348 0.14831 0.0
C1406 C 0.4336 0.0033 0.11234 0.0
C1407 C 0.42343 0.0082 0.1139 0.0
C1408 C 0.41996 0.01114 0.13287 0.0
C1409 C 0.42616 0.00883 0.14987 0.0
H1410 H 0.41822 0.02767 0.97009 0.0
H1411 H 0.37922 0.98779 0.9523 0.0
H1412 H 0.43124 0.02593 0.9412 0.0
H1413 H 0.39219 0.98614 0.92324 0.0
H1414 H 0.42468 0.97987 0.88524 0.0
H1415 H 0.4123 0.98158 0.91485 0.0
H1416 H 0.43108 0.02806 0.90491 0.0
H1417 H 0.44336 0.02635 0.8752 0.0
C1418 C 0.41242 0.01854 0.95997 0.0
C1419 C 0.3977 0.00786 0.96345 0.0
C1420 C 0.41986 0.01759 0.94337 0.0
C1421 C 0.41276 0.0059 0.92992 0.0
C1422 C 0.39803 0.99519 0.93345 0.0
C1423 C 0.39057 0.99618 0.95002 0.0
C1424 C 0.42613 0.99045 0.88931 0.0
C1425 C 0.435 0.00297 0.87779 0.0
C1426 C 0.41902 0.99142 0.90628 0.0
C1427 C 0.42065 0.00494 0.91219 0.0
C1428 C 0.42973 0.01751 0.90089 0.0
C1429 C 0.43681 0.01653 0.88388 0.0
H1430 H 0.03804 0.41262 0.96309 0.0
H1431 H 0.99076 0.39162 0.9631 0.0
H1432 H 0.03911 0.42703 0.9341 0.0
H1433 H 0.99169 0.40541 0.93366 0.0
H1434 H 0.9976 0.4416 0.89242 0.0
H1435 H 0.99765 0.42876 0.9225 0.0
H1436 H 0.0345 0.42582 0.89978 0.0
H1437 H 0.03475 0.43923 0.87012 0.0
C1438 C 0.02787 0.41099 0.95675 0.0
C1439 C 0.01433 0.40104 0.96537 0.0
C1440 C 0.02846 0.41919 0.94006 0.0
C1441 C 0.01549 0.41747 0.93147 0.0
C1442 C 1.00194 0.40733 0.94005 0.0
C1443 C 1.00138 0.3993 0.95687 0.0
C1444 C 0.00573 0.43825 0.89397 0.0
C1445 C 0.01616 0.44139 0.87898 0.0
C1446 C 0.00573 0.43079 0.91114 0.0
C1447 C 0.016 0.42609 0.91359 0.0
C1448 C 0.02656 0.42943 0.89862 0.0
C1449 C 0.02668 0.43708 0.88157 0.0
H1450 H 0.62578 0.63962 0.95145 0.0
H1451 H 0.61397 0.60062 0.98567 0.0
H1452 H 0.61371 0.62453 0.92235 0.0
H1453 H 0.60127 0.58547 0.95704 0.0
H1454 H 0.59743 0.56403 0.89738 0.0
H1455 H 0.60729 0.57895 0.92688 0.0
H1456 H 0.59166 0.60754 0.90631 0.0
H1457 H 0.58273 0.59316 0.87595 0.0
C1458 C 0.62035 0.6278 0.95282 0.0
C1459 C 0.62093 0.62129 0.97073 0.0
C1460 C 0.61335 0.61912 0.93618 0.0
C1461 C 0.60662 0.60373 0.9372 0.0
C1462 C 0.60666 0.59727 0.95548 0.0
C1463 C 0.61384 0.60595 0.97197 0.0
C1464 C 0.59623 0.57359 0.89898 0.0
C1465 C 0.58939 0.57743 0.88411 0.0
C1466 C 0.60167 0.58204 0.91614 0.0
C1467 C 0.60026 0.59448 0.91912 0.0
C1468 C 0.59313 0.59816 0.90446 0.0
C1469 C 0.58781 0.58977 0.88714 0.0
H1470 H 0.99851 0.60117 0.98274 0.0
H1471 H 0.02456 0.6401 0.9477 0.0
H1472 H 0.99604 0.58594 0.95418 0.0
H1473 H 0.02159 0.62493 0.91882 0.0
H1474 H 0.02297 0.59412 0.87354 0.0
H1475 H 0.02769 0.6085 0.90367 0.0
H1476 H 0.98348 0.5787 0.9237 0.0
H1477 H 0.97912 0.56377 0.89427 0.0
C1478 C 0.00372 0.60647 0.9689 0.0
C1479 C 0.0117 0.62182 0.96742 0.0
C1480 C 1.00221 0.59774 0.95246 0.0
C1481 C 0.00848 0.60415 0.93406 0.0
C1482 C 0.01676 0.61956 0.93277 0.0
C1483 C 0.01841 0.62829 0.9493 0.0
C1484 C 0.01434 0.59044 0.88454 0.0
C1485 C 1.00064 0.57774 0.88139 0.0
C1486 C 0.01698 0.59884 0.90173 0.0
C1487 C 0.00596 0.59485 0.91616 0.0
C1488 C 0.99232 0.58206 0.9131 0.0
C1489 C 0.98973 0.57359 0.89601 0.0
H1490 H 0.38933 0.41192 0.96795 0.0
H1491 H 0.41108 0.38647 0.96491 0.0
H1492 H 0.40272 0.42558 0.93835 0.0
H1493 H 0.42443 0.4001 0.93548 0.0
H1494 H 0.43162 0.41555 0.8705 0.0
H1495 H 0.41857 0.40249 0.90034 0.0
H1496 H 0.42865 0.44348 0.92781 0.0
H1497 H 0.44205 0.45668 0.89808 0.0
C1498 C 0.39697 0.40926 0.96098 0.0
C1499 C 0.39914 0.39811 0.96871 0.0
C1500 C 0.40469 0.41713 0.94411 0.0
C1501 C 0.4146 0.41389 0.93457 0.0
C1502 C 0.41675 0.40274 0.94236 0.0
C1503 C 0.40915 0.39498 0.95928 0.0
C1504 C 0.43128 0.42184 0.88298 0.0
C1505 C 0.43799 0.43721 0.88186 0.0
C1506 C 0.42374 0.41433 0.90006 0.0
C1507 C 0.42259 0.42196 0.91642 0.0
C1508 C 0.4292 0.43729 0.91534 0.0
C1509 C 0.43687 0.44484 0.89828 0.0
H1510 H 0.6187 0.98569 0.956 0.0
H1511 H 0.61683 0.02441 0.97182 0.0
H1512 H 0.60423 0.98281 0.92622 0.0
H1513 H 0.6027 0.02175 0.9419 0.0
H1514 H 0.56637 0.00564 0.89583 0.0
H1515 H 0.57902 0.00658 0.92664 0.0
H1516 H 0.60697 0.99465 0.89446 0.0
H1517 H 0.59427 0.99363 0.86374 0.0
C1518 C 0.61519 0.99358 0.95311 0.0
C1519 C 0.61891 0.00528 0.96623 0.0
C1520 C 0.60698 0.99198 0.93599 0.0
C1521 C 0.60231 0.00205 0.93162 0.0
C1522 C 0.60592 0.01366 0.94492 0.0
C1523 C 0.61411 0.01525 0.96202 0.0
C1524 C 0.57522 0.00323 0.89535 0.0
C1525 C 0.57931 0.99958 0.87732 0.0
C1526 C 0.58249 0.00378 0.913 0.0
C1527 C 0.59405 1.00073 0.91304 0.0
C1528 C 0.59797 0.99684 0.89505 0.0
C1529 C 0.59069 0.99626 0.87741 0.0
H1530 H 0.60662 0.98979 0.06583 0.0
H1531 H 0.63387 0.03691 0.06793 0.0
H1532 H 0.59347 0.99037 0.09521 0.0
H1533 H 0.6203 0.03765 0.0968 0.0
H1534 H 0.60439 0.03213 0.16115 0.0
H1535 H 0.6171 0.03222 0.13087 0.0
H1536 H 0.57651 0.99662 0.10762 0.0
H1537 H 0.56403 0.99623 0.13831 0.0
C1538 C 0.60967 1.0003 0.07246 0.0
C1539 C 0.6213 0.01329 0.06463 0.0
C1540 C 0.60206 1.00066 0.08925 0.0
C1541 C 0.60577 0.01407 0.09848 0.0
C1542 C 0.61728 0.0271 0.09037 0.0
C1543 C 0.62501 0.0267 0.07372 0.0
C1544 C 0.59819 0.02443 0.14945 0.0
C1545 C 0.58324 0.01415 0.15208 0.0
C1546 C 0.60545 0.0245 0.13204 0.0
C1547 C 0.59788 0.01439 0.11671 0.0
C1548 C 0.5828 0.00436 0.11921 0.0
C1549 C 0.5756 0.00417 0.13675 0.0
H1550 H 0.9902 0.61249 0.0698 0.0
H1551 H 0.03734 0.63565 0.0631 0.0
H1552 H 0.99223 0.59879 0.09781 0.0
H1553 H 0.03944 0.62245 0.09126 0.0
H1554 H 0.03906 0.5875 0.12924 0.0
H1555 H 0.03493 0.59883 0.1003 0.0
H1556 H 1.00043 0.60127 0.13171 0.0
H1557 H 0.00436 0.58952 0.1605 0.0
C1558 C 1.00098 0.61472 0.0744 0.0
C1559 C 0.0136 0.62509 0.0642 0.0
C1560 C 1.00217 0.60692 0.09048 0.0
C1561 C 0.016 0.6094 0.09671 0.0
C1562 C 0.02858 0.61997 0.08662 0.0
C1563 C 0.02739 0.62765 0.07054 0.0
C1564 C 0.03054 0.59039 0.12989 0.0
C1565 C 0.02211 0.58773 0.14716 0.0
C1566 C 0.02821 0.59695 0.11335 0.0
C1567 C 0.01748 0.60119 0.11374 0.0
C1568 C 0.00869 0.59806 0.13081 0.0
C1569 C 0.01095 0.59135 0.14732 0.0
H1570 H 0.40627 0.37933 0.07751 0.0
H1571 H 0.40406 0.41752 0.05966 0.0
H1572 H 0.42062 0.39252 0.10665 0.0
H1573 H 0.41853 0.43076 0.08871 0.0
H1574 H 0.4278 0.44151 0.15575 0.0
H1575 H 0.41513 0.42974 0.12504 0.0
H1576 H 0.44483 0.41323 0.11615 0.0
H1577 H 0.45766 0.42516 0.14676 0.0
C1578 C 0.40895 0.39058 0.07974 0.0
C1579 C 0.40401 0.39738 0.06633 0.0
C1580 C 0.41723 0.39816 0.09637 0.0
C1581 C 0.4207 0.41269 0.10002 0.0
C1582 C 0.41591 0.41954 0.08644 0.0
C1583 C 0.40769 0.41198 0.06975 0.0
C1584 C 0.43181 0.43559 0.1471 0.0
C1585 C 0.44374 0.43426 0.1538 0.0
C1586 C 0.42451 0.42882 0.12949 0.0
C1587 C 0.42893 0.4205 0.11819 0.0
C1588 C 0.44102 0.41937 0.12468 0.0
C1589 C 0.44835 0.4262 0.14224 0.0
H1590 H 0.66787 0.71479 0.41899 0.0
H1591 H 0.68037 0.75291 0.38251 0.0
H1592 H 0.667 0.72806 0.44799 0.0
H1593 H 0.67854 0.766 0.41116 0.0
H1594 H 0.6889 0.79085 0.46936 0.0
H1595 H 0.68963 0.77772 0.44028 0.0
H1596 H 0.65451 0.73732 0.46466 0.0
H1597 H 0.6549 0.75012 0.49459 0.0
C1598 C 0.67019 0.72597 0.41715 0.0
C1599 C 0.67421 0.73284 0.39855 0.0
C1600 C 0.66959 0.73359 0.43377 0.0
C1601 C 0.67265 0.74819 0.43209 0.0
C1602 C 0.6764 0.75492 0.41326 0.0
C1603 C 0.67734 0.74739 0.39675 0.0
C1604 C 0.68149 0.77912 0.46873 0.0
C1605 C 0.67191 0.77163 0.48459 0.0
C1606 C 0.68171 0.77158 0.45177 0.0
C1607 C 0.67215 0.75636 0.44994 0.0
C1608 C 0.66228 0.74896 0.46555 0.0
C1609 C 0.66229 0.75643 0.48268 0.0
H1610 H 0.27138 0.95896 0.39638 0.0
H1611 H 0.3072 0.95134 0.40915 0.0
H1612 H 0.25815 0.94442 0.42538 0.0
H1613 H 0.29413 0.93705 0.43835 0.0
H1614 H 0.2608 0.90039 0.47765 0.0
H1615 H 0.2727 0.91391 0.44745 0.0
H1616 H 0.25956 0.94565 0.46147 0.0
H1617 H 0.24763 0.9321 0.49166 0.0
C1618 C 0.27644 0.9542 0.40541 0.0
C1619 C 0.29032 0.95628 0.40049 0.0
C1620 C 0.26889 0.94593 0.42209 0.0
C1621 C 0.27507 0.93955 0.43419 0.0
C1622 C 0.28896 0.94162 0.42919 0.0
C1623 C 0.29649 0.94989 0.41253 0.0
C1624 C 0.26048 0.91027 0.4743 0.0
C1625 C 0.25333 0.9152 0.48711 0.0
C1626 C 0.26731 0.91803 0.457 0.0
C1627 C 0.26718 0.93092 0.4521 0.0
C1628 C 0.25973 0.93568 0.46468 0.0
C1629 C 0.25288 0.9279 0.48198 0.0
H1630 H 0.06334 0.359 0.41777 0.0
H1631 H 0.0783 0.33571 0.38071 0.0
H1632 H 0.07563 0.35562 0.44629 0.0
H1633 H 0.09108 0.33281 0.40896 0.0
H1634 H 0.09444 0.31298 0.46762 0.0
H1635 H 0.08479 0.31865 0.43832 0.0
H1636 H 0.09825 0.36168 0.46199 0.0
H1637 H 0.10711 0.35563 0.49193 0.0
C1638 C 0.06949 0.3534 0.41565 0.0
C1639 C 0.06977 0.34752 0.39707 0.0
C1640 C 0.07661 0.35152 0.43198 0.0
C1641 C 0.08426 0.34381 0.43002 0.0
C1642 C 0.08502 0.3385 0.41116 0.0
C1643 C 0.07779 0.34026 0.39492 0.0
C1644 C 0.09526 0.32362 0.46667 0.0
C1645 C 0.10146 0.33379 0.48226 0.0
C1646 C 0.08991 0.32697 0.44968 0.0
C1647 C 0.09073 0.34065 0.44771 0.0
C1648 C 0.09727 0.35097 0.46308 0.0
C1649 C 0.10254 0.34757 0.48016 0.0
H1650 H 0.05774 0.32612 0.29595 0.0
H1651 H 0.07958 0.37328 0.30084 0.0
H1652 H 0.07355 0.32853 0.26786 0.0
H1653 H 0.09497 0.37572 0.2726 0.0
H1654 H 0.13041 0.37655 0.23495 0.0
H1655 H 0.11492 0.37227 0.26391 0.0
H1656 H 0.07855 0.33622 0.23358 0.0
H1657 H 0.09424 0.34034 0.20475 0.0
C1658 C 0.06584 0.33699 0.29093 0.0
C1659 C 0.06747 0.34951 0.30064 0.0
C1660 C 0.07486 0.33838 0.2748 0.0
C1661 C 0.08565 0.35233 0.26805 0.0
C1662 C 0.08705 0.36481 0.27765 0.0
C1663 C 0.07812 0.36341 0.29376 0.0
C1664 C 0.11912 0.36767 0.23453 0.0
C1665 C 0.11351 0.35885 0.21755 0.0
C1666 C 0.11021 0.36525 0.25108 0.0
C1667 C 0.0954 0.35402 0.25101 0.0
C1668 C 0.08992 0.34488 0.23424 0.0
C1669 C 0.0989 0.34724 0.21771 0.0
H1670 H 0.70291 0.74053 0.29168 0.0
H1671 H 0.65996 0.73388 0.30559 0.0
H1672 H 0.70411 0.75481 0.26253 0.0
H1673 H 0.66129 0.74848 0.27671 0.0
H1674 H 0.66205 0.76047 0.2107 0.0
H1675 H 0.66067 0.74713 0.24096 0.0
H1676 H 0.70642 0.77786 0.25273 0.0
H1677 H 0.70781 0.79109 0.22235 0.0
C1678 C 0.69376 0.74221 0.28858 0.0
C1679 C 0.68133 0.73605 0.30089 0.0
C1680 C 0.69449 0.75048 0.27194 0.0
C1681 C 0.6828 0.75283 0.26725 0.0
C1682 C 0.6704 0.74674 0.2797 0.0
C1683 C 0.66967 0.73843 0.29632 0.0
C1684 C 0.67175 0.76449 0.21989 0.0
C1685 C 0.68505 0.77681 0.21407 0.0
C1686 C 0.67097 0.75684 0.23726 0.0
C1687 C 0.68346 0.76136 0.24926 0.0
C1688 C 0.69667 0.7739 0.24365 0.0
C1689 C 0.69746 0.78151 0.22626 0.0
H1690 H 0.29079 0.97356 0.28494 0.0
H1691 H 0.27938 0.93484 0.31961 0.0
H1692 H 0.27853 0.95821 0.25608 0.0
H1693 H 0.26661 0.91946 0.29116 0.0
H1694 H 0.26378 0.89834 0.23124 0.0
H1695 H 0.27321 0.91326 0.26086 0.0
H1696 H 0.25612 0.94068 0.24054 0.0
H1697 H 0.24743 0.92619 0.21016 0.0
C1698 C 0.28541 0.96175 0.28647 0.0
C1699 C 0.28616 0.95539 0.30444 0.0
C1700 C 0.27831 0.95293 0.26997 0.0
C1701 C 0.2717 0.93757 0.27117 0.0
C1702 C 0.27189 0.93125 0.2895 0.0
C1703 C 0.27912 0.94006 0.30588 0.0
C1704 C 0.26211 0.90761 0.23297 0.0
C1705 C 0.25496 0.91112 0.21817 0.0
C1706 C 0.26733 0.91607 0.25016 0.0
C1707 C 0.26542 0.92821 0.25319 0.0
C1708 C 0.25795 0.93153 0.23862 0.0
C1709 C 0.25279 0.92309 0.2213 0.0
H1710 H 0.66176 0.93825 0.30696 0.0
H1711 H 0.70438 0.97484 0.29203 0.0
H1712 H 0.66288 0.92488 0.27806 0.0
H1713 H 0.70547 0.96146 0.26307 0.0
H1714 H 0.70758 0.92682 0.22372 0.0
H1715 H 0.70695 0.93911 0.25411 0.0
H1716 H 0.66227 0.92766 0.2413 0.0
H1717 H 0.66295 0.9157 0.21075 0.0
C1718 C 0.6714 0.9434 0.29757 0.0
C1719 C 0.68296 0.95761 0.30172 0.0
C1720 C 0.67201 0.93577 0.28097 0.0
C1721 C 0.68424 0.94214 0.26827 0.0
C1722 C 0.69596 0.95622 0.27268 0.0
C1723 C 0.6953 0.9639 0.2892 0.0
C1724 C 0.69765 0.927 0.2273 0.0
C1725 C 0.68532 0.92025 0.21473 0.0
C1726 C 0.69729 0.93401 0.24474 0.0
C1727 C 0.68456 0.93433 0.2501 0.0
C1728 C 0.67217 0.92741 0.23772 0.0
C1729 C 0.67256 0.9205 0.22022 0.0
H1730 H 0.04694 0.72278 0.28252 0.0
H1731 H 0.08688 0.74642 0.31661 0.0
H1732 H 0.06044 0.73504 0.25227 0.0
H1733 H 0.10032 0.75867 0.28646 0.0
H1734 H 0.11696 0.78683 0.23001 0.0
H1735 H 0.10206 0.77646 0.25996 0.0
H1736 H 0.08012 0.73372 0.23243 0.0
H1737 H 0.09491 0.74407 0.20253 0.0
C1738 C 0.05855 0.73073 0.28358 0.0
C1739 C 0.06588 0.73361 0.3019 0.0
C1740 C 0.06628 0.73767 0.26627 0.0
C1741 C 0.08144 0.74776 0.26701 0.0
C1742 C 0.08863 0.75103 0.28545 0.0
C1743 C 0.08095 0.74397 0.3027 0.0
C1744 C 0.10886 0.77525 0.23034 0.0
C1745 C 0.10715 0.76624 0.214 0.0
C1746 C 0.1004 0.76931 0.24749 0.0
C1747 C 0.08992 0.75429 0.24851 0.0
C1748 C 0.08801 0.74536 0.232 0.0
C1749 C 0.09658 0.75125 0.21498 0.0
H1750 H 0.27634 0.35327 0.31213 0.0
H1751 H 0.2903 0.32577 0.28321 0.0
H1752 H 0.2629 0.35272 0.28217 0.0
H1753 H 0.27706 0.32544 0.25316 0.0
H1754 H 0.26892 0.34733 0.1977 0.0
H1755 H 0.28078 0.34613 0.22833 0.0
H1756 H 0.24075 0.33314 0.26078 0.0
H1757 H 0.22879 0.33417 0.23 0.0
C1758 C 0.27647 0.34706 0.2994 0.0
C1759 C 0.28438 0.33958 0.29996 0.0
C1760 C 0.26874 0.3467 0.28233 0.0
C1761 C 0.269 0.33908 0.26538 0.0
C1762 C 0.27677 0.33147 0.26601 0.0
C1763 C 0.28428 0.33161 0.2832 0.0
C1764 C 0.26268 0.34424 0.21139 0.0
C1765 C 0.24797 0.34088 0.21155 0.0
C1766 C 0.26941 0.34345 0.22884 0.0
C1767 C 0.26165 0.33951 0.24686 0.0
C1768 C 0.24697 0.33624 0.24707 0.0
C1769 C 0.24013 0.33677 0.22951 0.0
H1770 H 0.26898 0.3234 0.39452 0.0
H1771 H 0.30279 0.36822 0.40532 0.0
H1772 H 0.25589 0.32395 0.42405 0.0
H1773 H 0.28954 0.36889 0.43468 0.0
H1774 H 0.27121 0.35821 0.4982 0.0
H1775 H 0.28378 0.35848 0.46775 0.0
H1776 H 0.24204 0.33463 0.43762 0.0
H1777 H 0.22943 0.33433 0.4682 0.0
C1778 C 0.27355 0.33342 0.40312 0.0
C1779 C 0.28694 0.34575 0.39764 0.0
C1780 C 0.266 0.33377 0.41999 0.0
C1781 C 0.27167 0.34646 0.43177 0.0
C1782 C 0.28497 0.35887 0.42609 0.0
C1783 C 0.29252 0.35852 0.40921 0.0
C1784 C 0.26471 0.35318 0.48502 0.0
C1785 C 0.24931 0.34628 0.48564 0.0
C1786 C 0.27193 0.35334 0.46754 0.0
C1787 C 0.26393 0.34661 0.4502 0.0
C1788 C 0.24853 0.33976 0.45078 0.0
C1789 C 0.2413 0.33958 0.4683 0.0
H1790 H 0.6572 0.94486 0.40254 0.0
H1791 H 0.70449 0.96974 0.39851 0.0
H1792 H 0.65906 0.93144 0.43105 0.0
H1793 H 0.70639 0.9568 0.42713 0.0
H1794 H 0.70638 0.92262 0.46656 0.0
H1795 H 0.70258 0.9335 0.43686 0.0
H1796 H 0.66631 0.9344 0.46547 0.0
H1797 H 0.66995 0.92315 0.49503 0.0
C1798 C 0.66797 0.9475 0.40781 0.0
C1799 C 0.68069 0.9583 0.39825 0.0
C1800 C 0.66906 0.93987 0.42418 0.0
C1801 C 0.68288 0.94294 0.43134 0.0
C1802 C 0.69556 0.95387 0.42181 0.0
C1803 C 0.69447 0.9614 0.40545 0.0
C1804 C 0.69756 0.92509 0.46645 0.0
C1805 C 0.68853 0.92214 0.48316 0.0
C1806 C 0.69541 0.93138 0.44946 0.0
C1807 C 0.68426 0.93503 0.44882 0.0
C1808 C 0.67492 0.93163 0.46534 0.0
C1809 C 0.677 0.9252 0.4823 0.0
H1810 H 0.0687 0.74934 0.39739 0.0
H1811 H 0.07263 0.71151 0.41165 0.0
H1812 H 0.08285 0.76181 0.42693 0.0
H1813 H 0.08704 0.72409 0.44106 0.0
H1814 H 0.09669 0.74481 0.50355 0.0
H1815 H 0.08363 0.73228 0.47342 0.0
H1816 H 0.10757 0.77275 0.44054 0.0
H1817 H 0.12068 0.7853 0.47072 0.0
C1818 C 0.07265 0.74371 0.40679 0.0
C1819 C 0.06952 0.72943 0.40223 0.0
C1820 C 0.08086 0.7509 0.42366 0.0
C1821 C 0.08611 0.74397 0.43636 0.0
C1822 C 0.08302 0.72969 0.43172 0.0
C1823 C 0.07482 0.7225 0.41482 0.0
C1824 C 0.09934 0.751 0.48984 0.0
C1825 C 0.10975 0.76607 0.48956 0.0
C1826 C 0.09183 0.74381 0.47255 0.0
C1827 C 0.09452 0.75151 0.45456 0.0
C1828 C 0.10507 0.76654 0.45422 0.0
C1829 C 0.11259 0.77373 0.47151 0.0
H1830 H 0.32501 0.05866 0.73381 0.0
H1831 H 0.37201 0.08409 0.72607 0.0
H1832 H 0.32679 0.07426 0.76179 0.0
H1833 H 0.37391 0.09922 0.75429 0.0
H1834 H 0.37331 0.13222 0.795 0.0
H1835 H 0.3692 0.11763 0.76513 0.0
H1836 H 0.33495 0.0796 0.79532 0.0
H1837 H 0.33877 0.09446 0.82494 0.0
C1838 C 0.33571 0.06755 0.73813 0.0
C1839 C 0.34836 0.07018 0.72773 0.0
C1840 C 0.33675 0.07645 0.75422 0.0
C1841 C 0.35049 0.08808 0.76032 0.0
C1842 C 0.3631 0.09062 0.74982 0.0
C1843 C 0.36203 0.08185 0.73369 0.0
C1844 C 0.36483 0.12077 0.79514 0.0
C1845 C 0.35642 0.11444 0.81228 0.0
C1846 C 0.36251 0.11236 0.77808 0.0
C1847 C 0.35187 0.09734 0.77783 0.0
C1848 C 0.34313 0.09114 0.79484 0.0
C1849 C 0.34534 0.09963 0.81185 0.0
H1850 H 0.97533 0.29524 0.74809 0.0
H1851 H 0.93377 0.28297 0.72032 0.0
H1852 H 0.9625 0.28188 0.77801 0.0
H1853 H 0.9209 0.26918 0.74984 0.0
H1854 H 0.90296 0.25913 0.81282 0.0
H1855 H 0.91597 0.27252 0.78317 0.0
H1856 H 0.94735 0.25793 0.79114 0.0
H1857 H 0.93488 0.24531 0.82146 0.0
C1858 C 0.96345 0.28958 0.74833 0.0
C1859 C 0.95556 0.29019 0.7319 0.0
C1860 C 0.95607 0.28184 0.76543 0.0
C1861 C 0.94063 0.27444 0.76641 0.0
C1862 C 0.93278 0.27495 0.74981 0.0
C1863 C 0.94016 0.28278 0.73281 0.0
C1864 C 0.91272 0.2589 0.80839 0.0
C1865 C 0.91785 0.25113 0.81962 0.0
C1866 C 0.92009 0.26643 0.79119 0.0
C1867 C 0.93273 0.26632 0.78467 0.0
C1868 C 0.93777 0.25844 0.79581 0.0
C1869 C 0.93047 0.25099 0.81307 0.0
H1870 H 0.73878 0.70283 0.73817 0.0
H1871 H 0.72951 0.65855 0.72799 0.0
H1872 H 0.75289 0.7043 0.76781 0.0
H1873 H 0.74369 0.66006 0.7574 0.0
H1874 H 0.75508 0.6624 0.82359 0.0
H1875 H 0.74165 0.6613 0.7936 0.0
H1876 H 0.77589 0.70487 0.77757 0.0
H1877 H 0.78947 0.70594 0.80752 0.0
C1878 C 0.73979 0.69344 0.74223 0.0
C1879 C 0.73301 0.68057 0.73079 0.0
C1880 C 0.74794 0.6943 0.75913 0.0
C1881 C 0.74938 0.68228 0.76498 0.0
C1882 C 0.74264 0.66944 0.75344 0.0
C1883 C 0.73457 0.66861 0.73653 0.0
C1884 C 0.75988 0.67167 0.81355 0.0
C1885 C 0.77341 0.68423 0.81796 0.0
C1886 C 0.75215 0.67105 0.79637 0.0
C1887 C 0.75771 0.68299 0.78319 0.0
C1888 C 0.77122 0.69557 0.78756 0.0
C1889 C 0.779 0.69617 0.80473 0.0
H1890 H 0.7188 0.65866 0.61944 0.0
H1891 H 0.75378 0.69917 0.64353 0.0
H1892 H 0.73417 0.66124 0.59075 0.0
H1893 H 0.76916 0.70163 0.61511 0.0
H1894 H 0.78419 0.71068 0.55038 0.0
H1895 H 0.76938 0.70698 0.57981 0.0
H1896 H 0.75675 0.66118 0.58064 0.0
H1897 H 0.77175 0.66491 0.55111 0.0
C1898 C 0.72981 0.66804 0.61869 0.0
C1899 C 0.73506 0.67876 0.63367 0.0
C1900 C 0.73863 0.66948 0.60231 0.0
C1901 C 0.75285 0.6817 0.60058 0.0
C1902 C 0.75818 0.69222 0.61583 0.0
C1903 C 0.74939 0.69076 0.63218 0.0
C1904 C 0.77845 0.69986 0.55697 0.0
C1905 C 0.77928 0.68812 0.54844 0.0
C1906 C 0.76993 0.69773 0.57385 0.0
C1907 C 0.76195 0.6838 0.58265 0.0
C1908 C 0.76267 0.67202 0.5741 0.0
C1909 C 0.77126 0.67415 0.55719 0.0
H1910 H 0.32946 0.06866 0.63794 0.0
H1911 H 0.37128 0.07323 0.62204 0.0
H1912 H 0.33083 0.08341 0.60923 0.0
H1913 H 0.37252 0.08771 0.59305 0.0
H1914 H 0.37683 0.12468 0.55352 0.0
H1915 H 0.37559 0.11127 0.58366 0.0
H1916 H 0.32937 0.08163 0.57338 0.0
H1917 H 0.33061 0.09509 0.54332 0.0
C1918 C 0.33894 0.0728 0.62828 0.0
C1919 C 0.35026 0.06978 0.63223 0.0
C1920 C 0.33969 0.08119 0.61176 0.0
C1921 C 0.35178 0.08673 0.5988 0.0
C1922 C 0.36315 0.08378 0.60287 0.0
C1923 C 0.3624 0.07541 0.61941 0.0
C1924 C 0.36641 0.11529 0.5577 0.0
C1925 C 0.35383 0.11093 0.54599 0.0
C1926 C 0.3657 0.10758 0.57495 0.0
C1927 C 0.3524 0.09532 0.58091 0.0
C1928 C 0.33976 0.09113 0.56939 0.0
C1929 C 0.34046 0.09886 0.55215 0.0
H1930 H 0.94242 0.27124 0.64398 0.0
H1931 H 0.95847 0.3126 0.61367 0.0
H1932 H 0.92842 0.2583 0.61465 0.0
H1933 H 0.9449 0.29965 0.58393 0.0
H1934 H 0.90942 0.2729 0.53867 0.0
H1935 H 0.92118 0.2855 0.56941 0.0
H1936 H 0.93225 0.25207 0.58245 0.0
H1937 H 0.91973 0.23904 0.55246 0.0
C1938 C 0.94299 0.27756 0.63099 0.0
C1939 C 0.95158 0.29293 0.63109 0.0
C1940 C 0.93503 0.27014 0.6141 0.0
C1941 C 0.93559 0.27789 0.59679 0.0
C1942 C 0.94404 0.29331 0.59703 0.0
C1943 C 0.9519 0.30075 0.61403 0.0
C1944 C 0.91413 0.26809 0.54828 0.0
C1945 C 0.91363 0.25494 0.54301 0.0
C1946 C 0.92107 0.27545 0.56579 0.0
C1947 C 0.92774 0.26987 0.57844 0.0
C1948 C 0.92709 0.25663 0.57326 0.0
C1949 C 0.92007 0.24924 0.55585 0.0
H1950 H 0.32864 0.27382 0.63704 0.0
H1951 H 0.37011 0.31223 0.62267 0.0
H1952 H 0.33052 0.26154 0.60749 0.0
H1953 H 0.37192 0.29995 0.59287 0.0
H1954 H 0.37657 0.26651 0.55345 0.0
H1955 H 0.37525 0.27905 0.5832 0.0
H1956 H 0.32949 0.26364 0.57126 0.0
H1957 H 0.33082 0.25129 0.54148 0.0
C1958 C 0.33815 0.27965 0.62753 0.0
C1959 C 0.34922 0.294 0.63215 0.0
C1960 C 0.33919 0.27264 0.61055 0.0
C1961 C 0.35134 0.27978 0.5978 0.0
C1962 C 0.36249 0.29411 0.6025 0.0
C1963 C 0.36141 0.30117 0.61948 0.0
C1964 C 0.36626 0.26589 0.55709 0.0
C1965 C 0.35378 0.25782 0.54509 0.0
C1966 C 0.36551 0.27307 0.57413 0.0
C1967 C 0.35226 0.2723 0.57961 0.0
C1968 C 0.33981 0.26425 0.56763 0.0
C1969 C 0.34056 0.25712 0.55057 0.0
H1970 H 0.75587 0.07411 0.64681 0.0
H1971 H 0.71554 0.06248 0.61587 0.0
H1972 H 0.7699 0.08647 0.61707 0.0
H1973 H 0.72966 0.07469 0.58588 0.0
H1974 H 0.76125 0.07995 0.53254 0.0
H1975 H 0.74626 0.06938 0.56234 0.0
H1976 H 0.77493 0.10879 0.59499 0.0
H1977 H 0.78985 0.11943 0.56509 0.0
C1978 C 0.75001 0.07426 0.63366 0.0
C1979 C 0.73461 0.06732 0.63361 0.0
C1980 C 0.75805 0.08139 0.61669 0.0
C1981 C 0.75085 0.08152 0.59921 0.0
C1982 C 0.73545 0.07469 0.59917 0.0
C1983 C 0.7274 0.06777 0.61631 0.0
C1984 C 0.76431 0.08634 0.54609 0.0
C1985 C 0.77673 0.10046 0.54659 0.0
C1986 C 0.75568 0.08036 0.56305 0.0
C1987 C 0.75944 0.08829 0.58092 0.0
C1988 C 0.77182 0.10244 0.5814 0.0
C1989 C 0.78031 0.10854 0.56433 0.0
H1990 H 0.95135 0.69399 0.64185 0.0
H1991 H 0.95061 0.65438 0.6235 0.0
H1992 H 0.93714 0.69269 0.61247 0.0
H1993 H 0.93642 0.6531 0.59408 0.0
H1994 H 0.89895 0.64837 0.55395 0.0
H1995 H 0.9117 0.64919 0.58461 0.0
H1996 H 0.94155 0.69546 0.57586 0.0
H1997 H 0.92909 0.69463 0.54499 0.0
C1998 C 0.94809 0.68497 0.63159 0.0
C1999 C 0.95211 0.6743 0.63495 0.0
C2000 C 0.94002 0.68427 0.61472 0.0
C2001 C 0.93569 0.67281 0.60095 0.0
C2002 C 0.93948 0.66198 0.60452 0.0
C2003 C 0.94766 0.66276 0.62131 0.0
C2004 C 0.9083 0.65871 0.55846 0.0
C2005 C 0.913 0.67143 0.54691 0.0
C2006 C 0.91557 0.65917 0.57606 0.0
C2007 C 0.92763 0.67238 0.58263 0.0
C2008 C 0.93217 0.68515 0.57132 0.0
C2009 C 0.92498 0.68467 0.55364 0.0
H2010 H 0.97425 0.70493 0.73979 0.0
H2011 H 0.93914 0.6604 0.73084 0.0
H2012 H 0.96191 0.70667 0.76954 0.0
H2013 H 0.92686 0.66212 0.76059 0.0
H2014 H 0.90241 0.67646 0.80368 0.0
H2015 H 0.91431 0.67528 0.77318 0.0
H2016 H 0.95611 0.69554 0.80337 0.0
H2017 H 0.94426 0.69645 0.83392 0.0
C2018 C 0.96389 0.69554 0.74415 0.0
C2019 C 0.95768 0.68252 0.73302 0.0
C2020 C 0.95686 0.6965 0.76122 0.0
C2021 C 0.94342 0.68452 0.76741 0.0
C2022 C 0.93712 0.67158 0.75609 0.0
C2023 C 0.9442 0.67058 0.73913 0.0
C2024 C 0.91411 0.68054 0.80388 0.0
C2025 C 0.92236 0.68659 0.82129 0.0
C2026 C 0.92093 0.6799 0.78638 0.0
C2027 C 0.93616 0.68538 0.78586 0.0
C2028 C 0.9444 0.69146 0.80321 0.0
C2029 C 0.93759 0.69201 0.82072 0.0
H2030 H 0.35383 0.27939 0.7196 0.0
H2031 H 0.33132 0.29763 0.75196 0.0
H2032 H 0.35364 0.26591 0.74922 0.0
H2033 H 0.33121 0.28418 0.78166 0.0
H2034 H 0.35066 0.27186 0.83516 0.0
H2035 H 0.35038 0.2849 0.80529 0.0
H2036 H 0.33505 0.24527 0.77099 0.0
H2037 H 0.3354 0.23223 0.80088 0.0
C2038 C 0.3488 0.28048 0.73303 0.0
C2039 C 0.34259 0.28957 0.73349 0.0
C2040 C 0.34864 0.27272 0.74995 0.0
C2041 C 0.34244 0.27402 0.76774 0.0
C2042 C 0.33619 0.28308 0.76819 0.0
C2043 C 0.33618 0.2907 0.75118 0.0
C2044 C 0.34734 0.26597 0.82121 0.0
C2045 C 0.34309 0.25104 0.82032 0.0
C2046 C 0.34704 0.2734 0.80417 0.0
C2047 C 0.34265 0.26609 0.78584 0.0
C2048 C 0.33855 0.2512 0.7849 0.0
C2049 C 0.33867 0.24372 0.802 0.0
H2050 H 0.73095 0.05216 0.75129 0.0
H2051 H 0.74548 0.09067 0.71475 0.0
H2052 H 0.74299 0.06769 0.78 0.0
H2053 H 0.75805 0.10623 0.74318 0.0
H2054 H 0.76153 0.12902 0.8021 0.0
H2055 H 0.75185 0.11384 0.7727 0.0
H2056 H 0.76546 0.08426 0.79581 0.0
H2057 H 0.7743 0.09898 0.82589 0.0
C2058 C 0.73695 0.06395 0.74934 0.0
C2059 C 0.73719 0.07021 0.73084 0.0
C2060 C 0.74393 0.07288 0.76577 0.0
C2061 C 0.75142 0.08826 0.764 0.0
C2062 C 0.75211 0.09446 0.74524 0.0
C2063 C 0.745 0.08554 0.72889 0.0
C2064 C 0.76236 0.11922 0.80103 0.0
C2065 C 0.76859 0.11519 0.81651 0.0
C2066 C 0.757 0.1106 0.78397 0.0
C2067 C 0.75786 0.09778 0.7818 0.0
C2068 C 0.76443 0.09394 0.79706 0.0
C2069 C 0.76969 0.10251 0.81422 0.0
H2070 H 0.06395 0.39616 0.03086 0.0
H2071 H 0.03413 0.35062 0.04458 0.0
H2072 H 0.08393 0.39455 0.04679 0.0
H2073 H 0.05412 0.34881 0.05982 0.0
H2074 H 0.08732 0.35631 0.10848 0.0
H2075 H 0.06809 0.35697 0.08944 0.0
H2076 H 0.10006 0.38464 0.04564 0.0
H2077 H 0.11944 0.38417 0.06508 0.0
C2078 C 0.06173 0.38575 0.037 0.0
C2079 C 0.04747 0.37356 0.03665 0.0
C2080 C 0.0732 0.38479 0.04604 0.0
C2081 C 0.07064 0.37158 0.05478 0.0
C2082 C 0.05645 0.35924 0.05366 0.0
C2083 C 0.04499 0.36025 0.04481 0.0
C2084 C 0.09023 0.36234 0.09463 0.0
C2085 C 0.1049 0.37013 0.08824 0.0
C2086 C 0.07918 0.36272 0.08366 0.0
C2087 C 0.08247 0.37081 0.06591 0.0
C2088 C 0.09714 0.37845 0.05936 0.0
C2089 C 0.10825 0.37815 0.07045 0.0
H2090 H 0.6653 0.68552 0.06665 0.0
H2091 H 0.64372 0.69196 0.01632 0.0
H2092 H 0.66879 0.70812 0.0815 0.0
H2093 H 0.64738 0.71481 0.03122 0.0
H2094 H 0.67478 0.76324 0.05766 0.0
H2095 H 0.66938 0.74041 0.04091 0.0
H2096 H 0.65187 0.71661 0.09563 0.0
H2097 H 0.6573 0.73929 0.11233 0.0
C2098 C 0.66134 0.69179 0.05872 0.0
C2099 C 0.65421 0.68695 0.04034 0.0
C2100 C 0.66327 0.70469 0.06729 0.0
C2101 C 0.65827 0.71316 0.05757 0.0
C2102 C 0.65136 0.70849 0.039 0.0
C2103 C 0.64924 0.69542 0.03052 0.0
C2104 C 0.66965 0.75309 0.06602 0.0
C2105 C 0.66646 0.75306 0.0863 0.0
C2106 C 0.66649 0.74004 0.05642 0.0
C2107 C 0.66031 0.72678 0.06702 0.0
C2108 C 0.65676 0.7267 0.08714 0.0
C2109 C 0.65974 0.73967 0.09665 0.0
H2110 H 0.32879 0.99289 0.04696 0.0
H2111 H 0.3383 0.96026 0.02436 0.0
H2112 H 0.30627 0.97365 0.062 0.0
H2113 H 0.31621 0.94103 0.04019 0.0
H2114 H 0.27082 0.90763 0.06054 0.0
H2115 H 0.29049 0.92716 0.04107 0.0
H2116 H 0.29889 0.95765 0.08902 0.0
H2117 H 0.27894 0.9383 0.10795 0.0
C2118 C 0.32605 0.98158 0.04523 0.0
C2119 C 0.33533 0.97808 0.03456 0.0
C2120 C 0.31318 0.97053 0.05397 0.0
C2121 C 0.30939 0.95571 0.05254 0.0
C2122 C 0.31857 0.95224 0.04142 0.0
C2123 C 0.33133 0.96329 0.03243 0.0
C2124 C 0.27679 0.91857 0.06674 0.0
C2125 C 0.27331 0.92145 0.08573 0.0
C2126 C 0.28814 0.92976 0.05566 0.0
C2127 C 0.29642 0.94404 0.06345 0.0
C2128 C 0.29265 0.94692 0.08229 0.0
C2129 C 0.28119 0.9358 0.09322 0.0
H2130 H 0.39291 0.06284 0.00156 0.0
H2131 H 0.34876 0.03197 0.98275 0.0
H2132 H 0.39113 0.08269 0.98567 0.0
H2133 H 0.34666 0.05182 0.96766 0.0
H2134 H 0.35466 0.08623 0.92088 0.0
H2135 H 0.3554 0.06689 0.9395 0.0
H2136 H 0.38057 0.09796 0.98563 0.0
H2137 H 0.38016 0.11747 0.96649 0.0
C2138 C 0.38273 0.06035 0.99431 0.0
C2139 C 0.37102 0.04584 0.99324 0.0
C2140 C 0.38166 0.07174 0.98529 0.0
C2141 C 0.36878 0.0689 0.97518 0.0
C2142 C 0.35688 0.05442 0.97486 0.0
C2143 C 0.35802 0.04302 0.98365 0.0
C2144 C 0.36018 0.08889 0.93513 0.0
C2145 C 0.36729 0.10336 0.94226 0.0
C2146 C 0.36058 0.07778 0.94588 0.0
C2147 C 0.36799 0.08078 0.96419 0.0
C2148 C 0.37494 0.09525 0.97147 0.0
C2149 C 0.37466 0.10643 0.96057 0.0
H2150 H 0.99512 0.3302 0.98443 0.0
H2151 H 0.96123 0.33849 0.00549 0.0
H2152 H 0.97641 0.30674 0.97075 0.0
H2153 H 0.94248 0.31499 0.99167 0.0
H2154 H 0.91791 0.28269 0.93884 0.0
H2155 H 0.93502 0.30478 0.9568 0.0
H2156 H 0.95568 0.28204 0.98214 0.0
H2157 H 0.93825 0.2597 0.9647 0.0
C2158 C 0.98367 0.32697 0.98622 0.0
C2159 C 0.97963 0.33619 0.99598 0.0
C2160 C 0.97296 0.31349 0.9785 0.0
C2161 C 0.95799 0.30903 0.98016 0.0
C2162 C 0.95394 0.3182 0.99008 0.0
C2163 C 0.96466 0.33161 0.99804 0.0
C2164 C 0.92582 0.28222 0.94861 0.0
C2165 C 0.92667 0.26935 0.95022 0.0
C2166 C 0.93568 0.29494 0.95885 0.0
C2167 C 0.94673 0.29516 0.97077 0.0
C2168 C 0.94738 0.28224 0.97283 0.0
C2169 C 0.93742 0.26946 0.96277 0.0
H2170 H 0.68637 0.66832 0.97053 0.0
H2171 H 0.69225 0.64394 0.01766 0.0
H2172 H 0.70947 0.67335 0.95579 0.0
H2173 H 0.71576 0.64932 0.00308 0.0
H2174 H 0.74876 0.64905 0.95694 0.0
H2175 H 0.72617 0.64373 0.9741 0.0
H2176 H 0.73525 0.68773 0.96188 0.0
H2177 H 0.75721 0.69277 0.94391 0.0
C2178 C 0.69267 0.66412 0.97785 0.0
C2179 C 0.68751 0.65578 0.9953 0.0
C2180 C 0.70599 0.66709 0.96945 0.0
C2181 C 0.71457 0.66187 0.97834 0.0
C2182 C 0.70938 0.65343 0.99579 0.0
C2183 C 0.69597 0.65042 0.0042 0.0
C2184 C 0.74591 0.65757 0.95788 0.0
C2185 C 0.75485 0.67133 0.94895 0.0
C2186 C 0.73303 0.65457 0.96792 0.0
C2187 C 0.72881 0.66526 0.96922 0.0
C2188 C 0.73802 0.67915 0.96088 0.0
C2189 C 0.75079 0.68212 0.95081 0.0
H2190 H 0.98739 0.65999 0.96396 0.0
H2191 H 0.96405 0.64631 0.01971 0.0
H2192 H 0.96781 0.663 0.94994 0.0
H2193 H 0.94423 0.6493 0.00549 0.0
H2194 H 0.92299 0.67535 0.97632 0.0
H2195 H 0.94031 0.66971 0.99278 0.0
H2196 H 0.94194 0.64735 0.94 0.0
H2197 H 0.9251 0.65331 0.9234 0.0
C2198 C 0.97804 0.65759 0.97323 0.0
C2199 C 0.97726 0.65289 0.99294 0.0
C2200 C 0.96676 0.65922 0.96513 0.0
C2201 C 0.9544 0.65626 0.97654 0.0
C2202 C 0.95364 0.65169 0.99636 0.0
C2203 C 0.96494 0.64994 0.00446 0.0
C2204 C 0.92698 0.66914 0.9683 0.0
C2205 C 0.9227 0.66486 0.9485 0.0
C2206 C 0.93679 0.6658 0.97779 0.0
C2207 C 0.9426 0.65822 0.96761 0.0
C2208 C 0.93781 0.65338 0.94815 0.0
C2209 C 0.92799 0.65666 0.93871 0.0
H2210 H 0.3869 0.33413 0.0099 0.0
H2211 H 0.34417 0.32558 0.99073 0.0
H2212 H 0.38194 0.31075 0.9956 0.0
H2213 H 0.33922 0.30225 0.97651 0.0
H2214 H 0.33065 0.25578 0.96702 0.0
H2215 H 0.33554 0.2775 0.98598 0.0
H2216 H 0.37897 0.30129 0.96057 0.0
H2217 H 0.37402 0.27982 0.94119 0.0
C2218 C 0.37639 0.32719 0.00284 0.0
C2219 C 0.36594 0.3317 0.00136 0.0
C2220 C 0.37359 0.31385 0.99458 0.0
C2221 C 0.36021 0.30469 0.9849 0.0
C2222 C 0.34957 0.309 0.98404 0.0
C2223 C 0.35244 0.3224 0.99209 0.0
C2224 C 0.34124 0.26563 0.96543 0.0
C2225 C 0.35189 0.26601 0.95244 0.0
C2226 C 0.34405 0.27806 0.97635 0.0
C2227 C 0.35762 0.2911 0.97472 0.0
C2228 C 0.36847 0.29134 0.96234 0.0
C2229 C 0.36562 0.27898 0.95126 0.0
H2230 H 0.69257 0.0339 0.98136 0.0
H2231 H 0.68064 0.06374 0.0079 0.0
H2232 H 0.71437 0.05467 0.9668 0.0
H2233 H 0.70241 0.08448 0.99332 0.0
H2234 H 0.72999 0.11302 0.93976 0.0
H2235 H 0.71001 0.09345 0.9584 0.0
H2236 H 0.7385 0.07708 0.97623 0.0
H2237 H 0.75879 0.097 0.95807 0.0
C2238 C 0.69467 0.0449 0.98422 0.0
C2239 C 0.68486 0.04719 0.9957 0.0
C2240 C 0.70719 0.05679 0.97597 0.0
C2241 C 0.71007 0.0712 0.97887 0.0
C2242 C 0.7004 0.07349 0.99068 0.0
C2243 C 0.68798 0.06162 0.99909 0.0
C2244 C 0.73219 0.10552 0.94803 0.0
C2245 C 0.74611 0.10669 0.94737 0.0
C2246 C 0.72067 0.09424 0.95866 0.0
C2247 C 0.72267 0.08371 0.96875 0.0
C2248 C 0.73659 0.08495 0.96841 0.0
C2249 C 0.7482 0.09635 0.95794 0.0
H2250 H 0.64345 0.9644 0.01804 0.0
H2251 H 0.66851 0.99538 0.06418 0.0
H2252 H 0.64895 0.94651 0.0328 0.0
H2253 H 0.67365 0.97745 0.07925 0.0
H2254 H 0.69264 0.94842 0.09114 0.0
H2255 H 0.68758 0.96565 0.07405 0.0
H2256 H 0.64353 0.93073 0.06132 0.0
H2257 H 0.64889 0.91323 0.07754 0.0
C2258 C 0.65011 0.96737 0.03137 0.0
C2259 C 0.6556 0.98132 0.03991 0.0
C2260 C 0.65318 0.95709 0.0399 0.0
C2261 C 0.66178 0.96052 0.05721 0.0
C2262 C 0.66722 0.97449 0.06573 0.0
C2263 C 0.66421 0.98477 0.05716 0.0
C2264 C 0.68196 0.94429 0.08435 0.0
C2265 C 0.6712 0.92936 0.08569 0.0
C2266 C 0.67898 0.95426 0.0748 0.0
C2267 C 0.6651 0.94965 0.06644 0.0
C2268 C 0.65438 0.93467 0.06746 0.0
C2269 C 0.6574 0.92465 0.07696 0.0
H2270 H 0.06213 0.68662 0.02326 0.0
H2271 H 0.02883 0.69658 0.04153 0.0
H2272 H 0.08097 0.70938 0.03818 0.0
H2273 H 0.04768 0.71974 0.05562 0.0
H2274 H 0.08187 0.74802 0.10258 0.0
H2275 H 0.06294 0.72786 0.08345 0.0
H2276 H 0.09478 0.73508 0.03783 0.0
H2277 H 0.11386 0.75496 0.05754 0.0
C2278 C 0.05889 0.69385 0.03011 0.0
C2279 C 0.04401 0.68977 0.03139 0.0
C2280 C 0.0697 0.70698 0.03858 0.0
C2281 C 0.06591 0.71645 0.0483 0.0
C2282 C 0.05103 0.71261 0.0487 0.0
C2283 C 0.04021 0.69938 0.0405 0.0
C2284 C 0.08476 0.74548 0.08827 0.0
C2285 C 0.09935 0.75305 0.08157 0.0
C2286 C 0.07388 0.73391 0.07723 0.0
C2287 C 0.07727 0.72971 0.05904 0.0
C2288 C 0.09178 0.73776 0.05193 0.0
C2289 C 0.10271 0.74922 0.06314 0.0
H2290 H 0.32747 0.36844 0.0117 0.0
H2291 H 0.3422 0.36726 0.07118 0.0
H2292 H 0.30426 0.36492 0.02517 0.0
H2293 H 0.3192 0.36392 0.08454 0.0
H2294 H 0.28374 0.37412 0.10256 0.0
H2295 H 0.30655 0.37908 0.08653 0.0
H2296 H 0.28195 0.34444 0.04434 0.0
H2297 H 0.259 0.33948 0.06038 0.0
C2298 C 0.32576 0.36748 0.02762 0.0
C2299 C 0.33663 0.36812 0.0404 0.0
C2300 C 0.31249 0.36541 0.03529 0.0
C2301 C 0.30998 0.36423 0.05589 0.0
C2302 C 0.32091 0.36497 0.06862 0.0
C2303 C 0.33404 0.3668 0.06096 0.0
C2304 C 0.28316 0.36774 0.08963 0.0
C2305 C 0.26957 0.35641 0.08272 0.0
C2306 C 0.29623 0.37049 0.08058 0.0
C2307 C 0.29601 0.36208 0.06428 0.0
C2308 C 0.28242 0.35113 0.05684 0.0
C2309 C 0.26932 0.34824 0.06607 0.0
H2310 H 0.72948 0.71977 0.3493 0.0
H2311 H 0.70098 0.69224 0.39615 0.0
H2312 H 0.74974 0.71768 0.36343 0.0
H2313 H 0.7212 0.69054 0.41063 0.0
H2314 H 0.75602 0.67978 0.42491 0.0
H2315 H 0.73652 0.68032 0.40635 0.0
H2316 H 0.76599 0.72574 0.39132 0.0
H2317 H 0.7858 0.72493 0.40884 0.0
C2318 C 0.72755 0.71328 0.36262 0.0
C2319 C 0.71364 0.70616 0.3716 0.0
C2320 C 0.73918 0.71214 0.37079 0.0
C2321 C 0.73714 0.70391 0.38818 0.0
C2322 C 0.72315 0.69673 0.39703 0.0
C2323 C 0.71155 0.69779 0.3888 0.0
C2324 C 0.75849 0.68979 0.41724 0.0
C2325 C 0.77253 0.70234 0.41851 0.0
C2326 C 0.74721 0.69017 0.40683 0.0
C2327 C 0.74958 0.70313 0.39754 0.0
C2328 C 0.76374 0.71553 0.39818 0.0
C2329 C 0.77508 0.71512 0.40848 0.0
H2330 H 0.33291 0.02082 0.3982 0.0
H2331 H 0.30987 0.02649 0.34902 0.0
H2332 H 0.33656 0.04349 0.41301 0.0
H2333 H 0.31372 0.04942 0.36388 0.0
H2334 H 0.34164 0.09817 0.38978 0.0
H2335 H 0.33605 0.07531 0.37292 0.0
H2336 H 0.3194 0.05161 0.42791 0.0
H2337 H 0.32498 0.07431 0.44471 0.0
C2338 C 0.32869 0.02695 0.3905 0.0
C2339 C 0.32108 0.02186 0.37247 0.0
C2340 C 0.3307 0.03988 0.39905 0.0
C2341 C 0.32533 0.04814 0.38966 0.0
C2342 C 0.31799 0.04326 0.3714 0.0
C2343 C 0.31576 0.03015 0.36295 0.0
C2344 C 0.33664 0.08803 0.39817 0.0
C2345 C 0.33374 0.08803 0.41856 0.0
C2346 C 0.33338 0.07497 0.38851 0.0
C2347 C 0.3274 0.06174 0.39916 0.0
C2348 C 0.32412 0.06169 0.41939 0.0
C2349 C 0.32719 0.07466 0.42895 0.0
H2350 H 0.00922 0.31687 0.40194 0.0
H2351 H 0.99487 0.30179 0.34208 0.0
H2352 H 0.98638 0.29675 0.41486 0.0
H2353 H 0.97178 0.28154 0.35513 0.0
H2354 H 0.92638 0.26237 0.39002 0.0
H2355 H 0.94953 0.27945 0.37367 0.0
H2356 H 0.97325 0.26924 0.41708 0.0
H2357 H 0.95021 0.25235 0.43354 0.0
C2358 C 1.00119 0.3092 0.39153 0.0
C2359 C 0.00382 0.31091 0.37099 0.0
C2360 C 0.98815 0.29761 0.39896 0.0
C2361 C 0.97733 0.28753 0.38602 0.0
C2362 C 0.97993 0.28918 0.36544 0.0
C2363 C 0.99314 0.30071 0.35799 0.0
C2364 C 0.93654 0.26365 0.3959 0.0
C2365 C 0.93648 0.25607 0.41313 0.0
C2366 C 0.94977 0.27334 0.38646 0.0
C2367 C 0.96319 0.27576 0.3942 0.0
C2368 C 0.96307 0.26769 0.41089 0.0
C2369 C 0.94986 0.25792 0.42021 0.0
H2370 H 0.01012 0.363 0.32529 0.0
H2371 H 0.05299 0.39707 0.34431 0.0
H2372 H 0.00516 0.38151 0.31159 0.0
H2373 H 0.04803 0.41563 0.33047 0.0
H2374 H 0.0398 0.43842 0.27568 0.0
H2375 H 0.04485 0.42203 0.29522 0.0
H2376 H 1.00174 0.40276 0.3215 0.0
H2377 H 0.99676 0.41949 0.30244 0.0
C2378 C 0.01842 0.37446 0.32676 0.0
C2379 C 0.03197 0.37859 0.33581 0.0
C2380 C 0.01554 0.38506 0.319 0.0
C2381 C 0.02622 0.40002 0.31992 0.0
C2382 C 0.03964 0.40418 0.32944 0.0
C2383 C 0.04244 0.39357 0.33744 0.0
C2384 C 0.0315 0.43099 0.28599 0.0
C2385 C 0.01782 0.43028 0.28735 0.0
C2386 C 0.03441 0.42155 0.29715 0.0
C2387 C 0.02366 0.41106 0.30981 0.0
C2388 C 0.01016 0.41061 0.31167 0.0
C2389 C 0.0073 0.42017 0.30067 0.0
H2390 H 0.63046 0.66577 0.35116 0.0
H2391 H 0.65969 0.67008 0.3034 0.0
H2392 H 0.61159 0.64239 0.33748 0.0
H2393 H 0.64071 0.64716 0.28916 0.0
H2394 H 0.60885 0.60059 0.27434 0.0
H2395 H 0.62752 0.62165 0.29232 0.0
H2396 H 0.59481 0.63239 0.31117 0.0
H2397 H 0.57592 0.61063 0.29453 0.0
C2398 C 0.63282 0.66173 0.33769 0.0
C2399 C 0.64654 0.66974 0.32836 0.0
C2400 C 0.62198 0.64837 0.32975 0.0
C2401 C 0.62455 0.6428 0.31215 0.0
C2402 C 0.63836 0.65086 0.30293 0.0
C2403 C 0.64924 0.66411 0.311 0.0
C2404 C 0.60551 0.60717 0.28275 0.0
C2405 C 0.59079 0.60385 0.28282 0.0
C2406 C 0.61633 0.61947 0.29281 0.0
C2407 C 0.6128 0.62894 0.303 0.0
C2408 C 0.598 0.62536 0.30362 0.0
C2409 C 0.58715 0.61294 0.29379 0.0
H2410 H 0.35097 0.99849 0.30097 0.0
H2411 H 0.35698 0.97627 0.35087 0.0
H2412 H 0.37191 0.9993 0.28431 0.0
H2413 H 0.37804 0.97711 0.3341 0.0
H2414 H 0.42338 0.99405 0.30216 0.0
H2415 H 0.40399 0.99514 0.32104 0.0
H2416 H 0.37572 0.97957 0.26961 0.0
H2417 H 0.39496 0.97857 0.25088 0.0
C2418 C 0.35685 0.99389 0.30847 0.0
C2419 C 0.35227 0.98723 0.32718 0.0
C2420 C 0.3688 0.99431 0.29888 0.0
C2421 C 0.37653 0.98816 0.30784 0.0
C2422 C 0.37233 0.98199 0.32689 0.0
C2423 C 0.36025 0.98146 0.33644 0.0
C2424 C 0.41301 0.9909 0.29496 0.0
C2425 C 0.41064 0.98615 0.2751 0.0
C2426 C 0.40192 0.99145 0.30576 0.0
C2427 C 0.38837 0.9875 0.29675 0.0
C2428 C 0.38609 0.98283 0.27689 0.0
C2429 C 0.39706 0.98211 0.26622 0.0
H2430 H 0.65227 0.98845 0.29598 0.0
H2431 H 0.63337 0.98321 0.35442 0.0
H2432 H 0.6322 0.99072 0.28183 0.0
H2433 H 0.61323 0.98563 0.34016 0.0
H2434 H 0.59276 0.01065 0.30565 0.0
H2435 H 0.61064 0.00596 0.32246 0.0
H2436 H 0.60473 0.97453 0.27712 0.0
H2437 H 0.58698 0.97926 0.26029 0.0
C2438 C 0.64381 0.98778 0.30582 0.0
C2439 C 0.64439 0.98565 0.32632 0.0
C2440 C 0.63227 0.98898 0.29768 0.0
C2441 C 0.62111 0.98827 0.30988 0.0
C2442 C 0.62171 0.98625 0.33043 0.0
C2443 C 0.63319 0.98482 0.33856 0.0
C2444 C 0.59518 0.00263 0.29942 0.0
C2445 C 0.5885 0.99535 0.28163 0.0
C2446 C 0.60533 0.99988 0.3091 0.0
C2447 C 0.60914 0.98996 0.30101 0.0
C2448 C 0.60209 0.98233 0.28359 0.0
C2449 C 0.59183 0.98494 0.27407 0.0
H2450 H 0.063 0.67499 0.33525 0.0
H2451 H 0.01714 0.65925 0.32367 0.0
H2452 H 0.06096 0.65347 0.31859 0.0
H2453 H 0.01494 0.63754 0.30764 0.0
H2454 H 0.02137 0.61216 0.25756 0.0
H2455 H 0.02261 0.63205 0.2772 0.0
H2456 H 0.05078 0.62726 0.31954 0.0
H2457 H 0.04967 0.60736 0.29957 0.0
C2458 C 0.05244 0.66682 0.32941 0.0
C2459 C 0.04027 0.66886 0.3306 0.0
C2460 C 0.05124 0.65443 0.31995 0.0
C2461 C 0.03781 0.64381 0.31159 0.0
C2462 C 0.02552 0.64564 0.31351 0.0
C2463 C 0.02676 0.65804 0.32282 0.0
C2464 C 0.02764 0.61518 0.27122 0.0
C2465 C 0.03535 0.60811 0.27705 0.0
C2466 C 0.02835 0.6266 0.28253 0.0
C2467 C 0.03674 0.63125 0.30005 0.0
C2468 C 0.04436 0.62409 0.30601 0.0
C2469 C 0.04369 0.61267 0.29461 0.0
H2470 H 0.35187 0.36082 0.30484 0.0
H2471 H 0.35419 0.39292 0.34673 0.0
H2472 H 0.37551 0.37879 0.29119 0.0
H2473 H 0.37819 0.41099 0.33323 0.0
H2474 H 0.41277 0.44259 0.28694 0.0
H2475 H 0.3896 0.42552 0.30311 0.0
H2476 H 0.40109 0.39158 0.30023 0.0
H2477 H 0.42379 0.40832 0.28334 0.0
C2478 C 0.35748 0.37172 0.31122 0.0
C2479 C 0.35117 0.37544 0.3269 0.0
C2480 C 0.37111 0.38202 0.30347 0.0
C2481 C 0.37884 0.39632 0.31123 0.0
C2482 C 0.37248 0.4001 0.32684 0.0
C2483 C 0.35879 0.38974 0.33463 0.0
C2484 C 0.41034 0.43148 0.28976 0.0
C2485 C 0.42017 0.42685 0.28372 0.0
C2486 C 0.39712 0.42174 0.29922 0.0
C2487 C 0.39341 0.40713 0.3028 0.0
C2488 C 0.40347 0.40268 0.29741 0.0
C2489 C 0.41663 0.41238 0.28796 0.0
H2490 H 0.33417 0.32666 0.39502 0.0
H2491 H 0.3053 0.29445 0.35241 0.0
H2492 H 0.33966 0.30881 0.40938 0.0
H2493 H 0.31112 0.27657 0.3665 0.0
H2494 H 0.3138 0.24479 0.41207 0.0
H2495 H 0.30766 0.2618 0.39599 0.0
H2496 H 0.35279 0.29648 0.40162 0.0
H2497 H 0.35872 0.27986 0.41858 0.0
C2498 C 0.32906 0.31577 0.38863 0.0
C2499 C 0.31934 0.31198 0.37254 0.0
C2500 C 0.33229 0.30554 0.39678 0.0
C2501 C 0.32595 0.29127 0.38899 0.0
C2502 C 0.31611 0.28742 0.37296 0.0
C2503 C 0.31283 0.29768 0.36482 0.0
C2504 C 0.32239 0.25606 0.40992 0.0
C2505 C 0.33676 0.2609 0.41669 0.0
C2506 C 0.3189 0.26578 0.40051 0.0
C2507 C 0.3297 0.28056 0.39767 0.0
C2508 C 0.34413 0.28525 0.40387 0.0
C2509 C 0.34759 0.2756 0.41333 0.0
H2510 H 0.69471 0.02884 0.37999 0.0
H2511 H 0.72879 0.02266 0.3544 0.0
H2512 H 0.71328 0.05198 0.39449 0.0
H2513 H 0.74739 0.04543 0.36957 0.0
H2514 H 0.77886 0.09126 0.39018 0.0
H2515 H 0.75954 0.07132 0.3708 0.0
H2516 H 0.73011 0.05959 0.42095 0.0
H2517 H 0.74924 0.07969 0.43992 0.0
C2518 C 0.70618 0.03247 0.37741 0.0
C2519 C 0.7103 0.02391 0.36616 0.0
C2520 C 0.71685 0.04569 0.38583 0.0
C2521 C 0.73189 0.05057 0.38343 0.0
C2522 C 0.73596 0.04219 0.37157 0.0
C2523 C 0.72528 0.02906 0.36295 0.0
C2524 C 0.76819 0.08449 0.39691 0.0
C2525 C 0.76556 0.08705 0.41655 0.0
C2526 C 0.75713 0.07302 0.38586 0.0
C2527 C 0.74324 0.06373 0.39429 0.0
C2528 C 0.74054 0.06662 0.41377 0.0
C2529 C 0.75153 0.07816 0.42471 0.0
H2530 H 0.00252 0.68407 0.39532 0.0
H2531 H 1.00191 0.71532 0.35442 0.0
H2532 H 0.97913 0.67914 0.40899 0.0
H2533 H 0.97816 0.71011 0.36782 0.0
H2534 H 0.9313 0.66266 0.41778 0.0
H2535 H 0.95363 0.66758 0.40072 0.0
H2536 H 0.96719 0.71358 0.39755 0.0
H2537 H 0.9444 0.70854 0.41375 0.0
C2538 C 0.99733 0.68982 0.38915 0.0
C2539 C 0.00406 0.70008 0.37378 0.0
C2540 C 0.98383 0.68691 0.39689 0.0
C2541 C 0.97667 0.69414 0.38942 0.0
C2542 C 0.98342 0.70443 0.37403 0.0
C2543 C 0.99699 0.70737 0.36629 0.0
C2544 C 0.93884 0.67379 0.41305 0.0
C2545 C 0.936 0.6852 0.41722 0.0
C2546 C 0.95179 0.67664 0.40352 0.0
C2547 C 0.96233 0.69101 0.39798 0.0
C2548 C 0.9593 0.70237 0.40152 0.0
C2549 C 0.94629 0.6995 0.41102 0.0
H2550 H 0.36604 0.02479 0.73112 0.0
H2551 H 0.39335 0.0428 0.67912 0.0
H2552 H 0.38464 0.02063 0.74631 0.0
H2553 H 0.41205 0.0386 0.69443 0.0
H2554 H 0.43271 0.01201 0.72251 0.0
H2555 H 0.41532 0.01734 0.70557 0.0
H2556 H 0.41004 0.03628 0.75956 0.0
H2557 H 0.42715 0.03078 0.77651 0.0
C2558 C 0.376 0.02782 0.7229 0.0
C2559 C 0.37824 0.03415 0.70394 0.0
C2560 C 0.3867 0.02553 0.73167 0.0
C2561 C 0.39985 0.0294 0.72162 0.0
C2562 C 0.402 0.03547 0.70248 0.0
C2563 C 0.39132 0.03791 0.69376 0.0
C2564 C 0.42789 0.0174 0.73069 0.0
C2565 C 0.43131 0.02097 0.75085 0.0
C2566 C 0.41802 0.02052 0.72097 0.0
C2567 C 0.41123 0.02712 0.73129 0.0
C2568 C 0.41496 0.03103 0.75128 0.0
C2569 C 0.42491 0.02804 0.76092 0.0
H2570 H 0.00697 0.36322 0.70786 0.0
H2571 H 0.96174 0.35023 0.69602 0.0
H2572 H 0.01106 0.38634 0.72173 0.0
H2573 H 0.96584 0.37343 0.71012 0.0
H2574 H 0.97746 0.40682 0.76372 0.0
H2575 H 0.97178 0.38481 0.74495 0.0
H2576 H 0.01141 0.40952 0.7107 0.0
H2577 H 0.01694 0.43167 0.72898 0.0
C2578 C 0.99792 0.36535 0.70812 0.0
C2579 C 0.98403 0.35492 0.70089 0.0
C2580 C 1.00029 0.37863 0.71595 0.0
C2581 C 0.98878 0.38169 0.71696 0.0
C2582 C 0.97489 0.37131 0.70958 0.0
C2583 C 0.97257 0.35809 0.70146 0.0
C2584 C 0.98479 0.40769 0.75184 0.0
C2585 C 0.99776 0.42104 0.74804 0.0
C2586 C 0.98153 0.39504 0.74113 0.0
C2587 C 0.99123 0.39543 0.72652 0.0
C2588 C 0.00386 0.40887 0.72211 0.0
C2589 C 0.00704 0.42153 0.73265 0.0
H2590 H 0.66047 0.65491 0.71351 0.0
H2591 H 0.67222 0.62498 0.68684 0.0
H2592 H 0.63883 0.63425 0.72841 0.0
H2593 H 0.65055 0.60429 0.70176 0.0
H2594 H 0.62439 0.57676 0.75706 0.0
H2595 H 0.64368 0.59573 0.73687 0.0
H2596 H 0.61466 0.61177 0.72029 0.0
H2597 H 0.59505 0.59244 0.7401 0.0
C2598 C 0.65833 0.6439 0.71064 0.0
C2599 C 0.66808 0.64156 0.6991 0.0
C2600 C 0.64589 0.63206 0.71908 0.0
C2601 C 0.64302 0.61765 0.71631 0.0
C2602 C 0.65255 0.61529 0.7043 0.0
C2603 C 0.66492 0.62712 0.69569 0.0
C2604 C 0.62191 0.58404 0.74873 0.0
C2605 C 0.60808 0.583 0.75028 0.0
C2606 C 0.63303 0.59498 0.73719 0.0
C2607 C 0.6307 0.60526 0.72703 0.0
C2608 C 0.61682 0.60408 0.72815 0.0
C2609 C 0.60561 0.59303 0.73956 0.0
H2610 H 0.68927 0.69629 0.6305 0.0
H2611 H 0.70697 0.72304 0.68299 0.0
H2612 H 0.68543 0.71511 0.61547 0.0
H2613 H 0.70316 0.74201 0.66782 0.0
H2614 H 0.67951 0.76519 0.63919 0.0
H2615 H 0.68298 0.74655 0.65611 0.0
H2616 H 0.70154 0.74016 0.60249 0.0
H2617 H 0.69783 0.75843 0.58557 0.0
C2618 C 0.69229 0.70618 0.63887 0.0
C2619 C 0.69848 0.70821 0.6579 0.0
C2620 C 0.69016 0.717 0.6302 0.0
C2621 C 0.69411 0.7301 0.64039 0.0
C2622 C 0.69995 0.732 0.65965 0.0
C2623 C 0.70218 0.72118 0.66829 0.0
C2624 C 0.68434 0.75979 0.63107 0.0
C2625 C 0.68843 0.76333 0.61106 0.0
C2626 C 0.68641 0.7492 0.64078 0.0
C2627 C 0.69245 0.74182 0.63059 0.0
C2628 C 0.6967 0.74551 0.61068 0.0
C2629 C 0.69473 0.75613 0.60106 0.0
H2630 H 0.29786 0.99932 0.68241 0.0
H2631 H 0.32798 0.00206 0.63684 0.0
H2632 H 0.27923 0.97537 0.66949 0.0
H2633 H 0.30944 0.97849 0.62378 0.0
H2634 H 0.27987 0.93056 0.6155 0.0
H2635 H 0.29719 0.95294 0.6324 0.0
H2636 H 0.26328 0.96411 0.64041 0.0
H2637 H 0.2456 0.94118 0.62428 0.0
C2638 C 0.30049 0.99482 0.66965 0.0
C2639 C 0.3144 0.00254 0.6607 0.0
C2640 C 0.28981 0.98115 0.6622 0.0
C2641 C 0.29287 0.97494 0.64569 0.0
C2642 C 0.30678 0.98277 0.63675 0.0
C2643 C 0.3174 0.99636 0.64417 0.0
C2644 C 0.27593 0.93754 0.62128 0.0
C2645 C 0.26127 0.93399 0.61847 0.0
C2646 C 0.28597 0.95054 0.63073 0.0
C2647 C 0.2817 0.96045 0.63751 0.0
C2648 C 0.26693 0.9567 0.63541 0.0
C2649 C 0.25683 0.94362 0.62597 0.0
H2650 H 0.01122 0.29645 0.66861 0.0
H2651 H 0.02492 0.34062 0.64976 0.0
H2652 H 0.0331 0.29828 0.65334 0.0
H2653 H 0.04704 0.34271 0.63519 0.0
H2654 H 0.07404 0.3346 0.5894 0.0
H2655 H 0.05363 0.33381 0.60725 0.0
H2656 H 0.05921 0.30922 0.65446 0.0
H2657 H 0.07955 0.30978 0.6362 0.0
C2658 C 0.01902 0.30662 0.66144 0.0
C2659 C 0.0163 0.31834 0.66022 0.0
C2660 C 0.03162 0.30771 0.65278 0.0
C2661 C 0.04184 0.32061 0.64286 0.0
C2662 C 0.03929 0.33249 0.6423 0.0
C2663 C 0.02664 0.33134 0.65076 0.0
C2664 C 0.07108 0.32923 0.60374 0.0
C2665 C 0.07848 0.32232 0.61142 0.0
C2666 C 0.05935 0.32878 0.61403 0.0
C2667 C 0.05474 0.32149 0.63239 0.0
C2668 C 0.0623 0.31475 0.64024 0.0
C2669 C 0.074 0.31512 0.62983 0.0
H2670 H 0.32294 0.34262 0.66094 0.0
H2671 H 0.29433 0.29565 0.66302 0.0
H2672 H 0.30307 0.34529 0.64647 0.0
H2673 H 0.27458 0.29834 0.64798 0.0
H2674 H 0.25671 0.31382 0.5926 0.0
H2675 H 0.27381 0.30941 0.61146 0.0
H2676 H 0.27526 0.3385 0.65748 0.0
H2677 H 0.25732 0.34227 0.63939 0.0
C2678 C 0.31239 0.33289 0.65839 0.0
C2679 C 0.31016 0.31893 0.66306 0.0
C2680 C 0.30103 0.33443 0.65022 0.0
C2681 C 0.28735 0.32202 0.64616 0.0
C2682 C 0.28506 0.30806 0.65099 0.0
C2683 C 0.29632 0.30654 0.65962 0.0
C2684 C 0.26023 0.31897 0.607 0.0
C2685 C 0.25551 0.32844 0.61435 0.0
C2686 C 0.27014 0.3165 0.61772 0.0
C2687 C 0.27584 0.32365 0.63584 0.0
C2688 C 0.27107 0.33294 0.64344 0.0
C2689 C 0.26088 0.33517 0.63294 0.0
H2690 H 0.72627 0.00733 0.67492 0.0
H2691 H 0.68111 0.99353 0.66124 0.0
H2692 H 0.72346 0.98521 0.65921 0.0
H2693 H 0.6781 0.97119 0.64614 0.0
H2694 H 0.68504 0.94593 0.59597 0.0
H2695 H 0.68605 0.96548 0.61614 0.0
H2696 H 0.71246 0.95898 0.6596 0.0
H2697 H 0.71159 0.93941 0.63912 0.0
C2698 C 0.71565 0.99941 0.66893 0.0
C2699 C 0.70395 0.00222 0.66914 0.0
C2700 C 0.71401 0.98668 0.65998 0.0
C2701 C 0.70059 0.97646 0.65117 0.0
C2702 C 0.68868 0.97896 0.65237 0.0
C2703 C 0.69037 0.99172 0.66116 0.0
C2704 C 0.69084 0.94846 0.61 0.0
C2705 C 0.6982 0.94106 0.61595 0.0
C2706 C 0.69141 0.95969 0.62162 0.0
C2707 C 0.6993 0.96382 0.63958 0.0
C2708 C 0.70644 0.95623 0.64574 0.0
C2709 C 0.70592 0.945 0.63403 0.0
H2710 H 0.03111 0.71583 0.68936 0.0
H2711 H 0.01004 0.71422 0.63363 0.0
H2712 H 0.05458 0.7353 0.67606 0.0
H2713 H 0.03336 0.73393 0.62064 0.0
H2714 H 0.07586 0.77965 0.61414 0.0
H2715 H 0.05296 0.76252 0.63079 0.0
H2716 H 0.07033 0.73419 0.64425 0.0
H2717 H 0.09279 0.75058 0.62655 0.0
C2718 C 0.03147 0.71977 0.67439 0.0
C2719 C 0.01881 0.71349 0.66247 0.0
C2720 C 0.04486 0.73086 0.66682 0.0
C2721 C 0.04569 0.73611 0.6474 0.0
C2722 C 0.03294 0.73014 0.63572 0.0
C2723 C 0.01966 0.71882 0.64311 0.0
C2724 C 0.07485 0.76975 0.62049 0.0
C2725 C 0.0863 0.76657 0.61875 0.0
C2726 C 0.06175 0.76002 0.63017 0.0
C2727 C 0.05995 0.7471 0.63878 0.0
C2728 C 0.07154 0.74419 0.63791 0.0
C2729 C 0.08449 0.75371 0.62785 0.0
H2730 H 0.96579 0.62743 0.69249 0.0
H2731 H 0.0101 0.65997 0.70852 0.0
H2732 H 0.96935 0.60836 0.70737 0.0
H2733 H 0.01386 0.64087 0.72286 0.0
H2734 H 0.00699 0.60681 0.77084 0.0
H2735 H 0.00586 0.6258 0.75181 0.0
H2736 H 0.98156 0.59434 0.70572 0.0
H2737 H 0.98254 0.57522 0.72501 0.0
C2738 C 0.97638 0.63047 0.69889 0.0
C2739 C 0.98762 0.64521 0.69948 0.0
C2740 C 0.97846 0.61952 0.70733 0.0
C2741 C 0.99187 0.62306 0.71647 0.0
C2742 C 0.0033 0.63776 0.71629 0.0
C2743 C 1.00118 0.64871 0.70796 0.0
C2744 C 1.00167 0.60399 0.75646 0.0
C2745 C 0.99485 0.58949 0.74946 0.0
C2746 C 1.00102 0.61491 0.74551 0.0
C2747 C 0.99358 0.61163 0.72721 0.0
C2748 C 0.98717 0.59721 0.71989 0.0
C2749 C 0.98776 0.58626 0.73092 0.0
H2750 H 0.36421 0.3628 0.71119 0.0
H2751 H 0.39655 0.35054 0.69663 0.0
H2752 H 0.38342 0.38583 0.72519 0.0
H2753 H 0.41583 0.37365 0.7108 0.0
H2754 H 0.43879 0.40579 0.76462 0.0
H2755 H 0.42184 0.38417 0.74569 0.0
H2756 H 0.40601 0.40944 0.71491 0.0
H2757 H 0.42331 0.43128 0.73338 0.0
C2758 C 0.37545 0.36508 0.71086 0.0
C2759 C 0.37888 0.35485 0.70288 0.0
C2760 C 0.38646 0.37831 0.71876 0.0
C2761 C 0.40113 0.38154 0.71907 0.0
C2762 C 0.4046 0.3714 0.71084 0.0
C2763 C 0.39359 0.35822 0.70268 0.0
C2764 C 0.432 0.4069 0.75347 0.0
C2765 C 0.43242 0.42033 0.75064 0.0
C2766 C 0.42224 0.39446 0.74266 0.0
C2767 C 0.41254 0.3951 0.72892 0.0
C2768 C 0.41323 0.40859 0.72561 0.0
C2769 C 0.42311 0.42108 0.73626 0.0
H2770 H 0.68347 0.05292 0.73242 0.0
H2771 H 0.65918 0.02979 0.68024 0.0
H2772 H 0.66131 0.05054 0.74704 0.0
H2773 H 0.63655 0.0262 0.69544 0.0
H2774 H 0.59817 0.02775 0.72308 0.0
H2775 H 0.62127 0.0345 0.70615 0.0
H2776 H 0.64059 0.03386 0.76266 0.0
H2777 H 0.61796 0.02824 0.77931 0.0
C2778 C 0.67328 0.04722 0.72415 0.0
C2779 C 0.67297 0.04145 0.70529 0.0
C2780 C 0.66049 0.04569 0.73261 0.0
C2781 C 0.6469 0.03787 0.72273 0.0
C2782 C 0.64673 0.03243 0.70352 0.0
C2783 C 0.65968 0.03438 0.6948 0.0
C2784 C 0.60752 0.02934 0.73177 0.0
C2785 C 0.6064 0.02768 0.75248 0.0
C2786 C 0.62073 0.03306 0.7221 0.0
C2787 C 0.63299 0.0348 0.73291 0.0
C2788 C 0.63169 0.03309 0.75371 0.0
C2789 C 0.61865 0.02976 0.76335 0.0
loop_
_geom_bond_atom_site_label_1
_geom_bond_atom_site_label_2
_geom_bond_distance
_geom_bond_site_symmetry_2
_ccdc_geom_bond_type
In0 O1 2.294 . S
In0 O2 2.326 . S
In0 O6 2.266 1_455 S
In0 O7 2.326 1_554 S
In0 O8 2.266 1_554 S
In0 O9 2.326 1_454 S
In0 O11 2.294 . S
In0 O12 2.326 . S
O1 In0 2.294 . S
O1 C10 1.240 . S
O2 In0 2.326 . S
O2 C10 1.252 . S
C3 O6 1.252 1_556 S
C3 O7 1.260 1_655 S
C4 O11 1.240 . S
C4 O12 1.252 . S
C5 O8 1.252 . S
C5 O9 1.260 1_455 S
O6 In0 2.266 1_655 S
O6 C3 1.252 1_554 S
O7 In0 2.326 1_556 S
O7 C3 1.260 1_455 S
O8 In0 2.266 1_556 S
O8 C5 1.252 . S
O9 In0 2.326 1_656 S
O9 C5 1.260 1_655 S
C10 O1 1.240 . S
C10 O2 1.252 . S
O11 In0 2.294 . S
O11 C4 1.240 . S
O12 In0 2.326 . S
O12 C4 1.252 . S
In13 O14 2.294 . S
In13 O15 2.326 . S
In13 O19 2.266 . S
In13 O20 2.326 1_554 S
In13 O21 2.266 1_554 S
In13 O22 2.326 1_554 S
In13 O24 2.294 . S
In13 O25 2.326 . S
O14 In13 2.294 . S
O14 C23 1.240 . S
O15 In13 2.326 . S
O15 C23 1.252 . S
C16 O19 1.252 1_556 S
C16 O20 1.260 . S
C17 O24 1.240 . S
C17 O25 1.252 . S
C18 O21 1.252 . S
C18 O22 1.260 . S
O19 In13 2.266 . S
O19 C16 1.252 1_554 S
O20 In13 2.326 1_556 S
O20 C16 1.260 . S
O21 In13 2.266 1_556 S
O21 C18 1.252 . S
O22 In13 2.326 1_556 S
O22 C18 1.260 . S
C23 O14 1.240 . S
C23 O15 1.252 . S
O24 In13 2.294 . S
O24 C17 1.240 . S
O25 In13 2.326 . S
O25 C17 1.252 . S
In26 O27 2.294 . S
In26 O28 2.326 1_554 S
In26 O32 2.266 . S
In26 O33 2.326 1_545 S
In26 O34 2.266 1_545 S
In26 O35 2.326 . S
In26 O37 2.294 1_554 S
In26 O38 2.326 1_554 S
O27 In26 2.294 . S
O27 C36 1.240 1_554 S
O28 In26 2.326 1_556 S
O28 C36 1.252 . S
C29 O32 1.252 . S
C29 O33 1.260 1_545 S
C30 O37 1.240 . S
C30 O38 1.252 . S
C31 O34 1.252 . S
C31 O35 1.260 1_565 S
O32 In26 2.266 . S
O32 C29 1.252 . S
O33 In26 2.326 1_565 S
O33 C29 1.260 1_565 S
O34 In26 2.266 1_565 S
O34 C31 1.252 . S
O35 In26 2.326 . S
O35 C31 1.260 1_545 S
C36 O27 1.240 1_556 S
C36 O28 1.252 . S
O37 In26 2.294 1_556 S
O37 C30 1.240 . S
O38 In26 2.326 1_556 S
O38 C30 1.252 . S
In39 O40 2.294 1_554 S
In39 O41 2.326 1_454 S
In39 O45 2.266 . S
In39 O46 2.326 . S
In39 O47 2.279 . S
In39 O48 2.326 . S
In39 O50 2.294 1_455 S
In39 O51 2.326 1_554 S
O40 In39 2.294 1_556 S
O40 C49 1.240 . S
O41 In39 2.326 1_656 S
O41 C49 1.252 1_655 S
C42 O45 1.252 . S
C42 O46 1.260 . S
C43 O50 1.240 1_556 S
C43 O51 1.252 1_655 S
C44 O47 1.342 . S
C44 O48 1.260 . S
O45 In39 2.266 . S
O45 C42 1.252 . S
O46 In39 2.326 . S
O46 C42 1.260 . S
O47 In39 2.279 . S
O47 C44 1.342 . S
O48 In39 2.326 . S
O48 C44 1.260 . S
C49 O40 1.240 . S
C49 O41 1.252 1_455 S
O50 In39 2.294 1_655 S
O50 C43 1.240 1_554 S
O51 In39 2.326 1_556 S
O51 C43 1.252 1_455 S
In52 O53 2.294 1_554 S
In52 O54 2.326 1_554 S
In52 O58 2.266 . S
In52 O59 2.326 . S
In52 O60 2.266 . S
In52 O61 2.326 . S
In52 O63 2.294 . S
In52 O64 2.326 1_554 S
O53 In52 2.294 1_556 S
O53 C62 1.240 . S
O54 In52 2.326 1_556 S
O54 C62 1.252 . S
C55 O58 1.252 . S
C55 O59 1.260 . S
C56 O63 1.240 1_556 S
C56 O64 1.252 . S
C57 O60 1.252 . S
C57 O61 1.260 . S
O58 In52 2.266 . S
O58 C55 1.252 . S
O59 In52 2.326 . S
O59 C55 1.260 . S
O60 In52 2.266 . S
O60 C57 1.252 . S
O61 In52 2.326 . S
O61 C57 1.260 . S
C62 O53 1.240 . S
C62 O54 1.252 . S
O63 In52 2.294 . S
O63 C56 1.240 1_554 S
O64 In52 2.326 1_556 S
O64 C56 1.252 . S
In65 O66 2.294 . S
In65 O67 2.326 1_545 S
In65 O71 2.266 . S
In65 O72 2.326 1_554 S
In65 O73 2.266 1_554 S
In65 O74 2.326 1_554 S
In65 O76 2.294 1_545 S
In65 O77 2.326 . S
O66 In65 2.294 . S
O66 C75 1.240 . S
O67 In65 2.326 1_565 S
O67 C75 1.252 1_565 S
C68 O71 1.252 1_556 S
C68 O72 1.260 . S
C69 O76 1.240 . S
C69 O77 1.252 1_565 S
C70 O73 1.252 . S
C70 O74 1.260 . S
O71 In65 2.266 . S
O71 C68 1.252 1_554 S
O72 In65 2.326 1_556 S
O72 C68 1.260 . S
O73 In65 2.266 1_556 S
O73 C70 1.252 . S
O74 In65 2.326 1_556 S
O74 C70 1.260 . S
C75 O66 1.240 . S
C75 O67 1.252 1_545 S
O76 In65 2.294 1_565 S
O76 C69 1.240 . S
O77 In65 2.326 . S
O77 C69 1.252 1_545 S
In78 O79 2.294 . S
In78 O80 2.326 . S
In78 O84 2.266 . S
In78 O85 2.326 . S
In78 O86 2.266 . S
In78 O87 2.326 . S
In78 O89 2.294 . S
In78 O90 2.326 . S
O79 In78 2.294 . S
O79 C88 1.240 . S
O80 In78 2.326 . S
O80 C88 1.252 . S
C81 O84 1.252 . S
C81 O85 1.260 . S
C82 O89 1.240 . S
C82 O90 1.252 . S
C83 O86 1.252 . S
C83 O87 1.260 . S
O84 In78 2.266 . S
O84 C81 1.252 . S
O85 In78 2.326 . S
O85 C81 1.260 . S
O86 In78 2.266 . S
O86 C83 1.252 . S
O87 In78 2.326 . S
O87 C83 1.260 . S
C88 O79 1.240 . S
C88 O80 1.252 . S
O89 In78 2.294 . S
O89 C82 1.240 . S
O90 In78 2.326 . S
O90 C82 1.252 . S
In91 O92 2.294 . S
In91 O93 2.326 . S
In91 O97 2.266 . S
In91 O98 2.326 . S
In91 O99 2.266 . S
In91 O100 2.326 . S
In91 O102 2.294 1_565 S
In91 O103 2.293 1_565 S
O92 In91 2.294 . S
O92 C101 1.240 . S
O93 In91 2.326 . S
O93 C101 1.252 . S
C94 O97 1.252 . S
C94 O98 1.260 . S
C95 O102 1.240 . S
C95 O103 1.298 . S
C96 O99 1.252 . S
C96 O100 1.260 . S
O97 In91 2.266 . S
O97 C94 1.252 . S
O98 In91 2.326 . S
O98 C94 1.260 . S
O99 In91 2.266 . S
O99 C96 1.252 . S
O100 In91 2.326 . S
O100 C96 1.260 . S
C101 O92 1.240 . S
C101 O93 1.252 . S
O102 In91 2.294 1_545 S
O102 C95 1.240 . S
O103 In91 2.293 1_545 S
O103 C95 1.298 . S
In104 O105 2.294 . S
In104 O106 2.326 . S
In104 O110 2.266 . S
In104 O111 2.326 . S
In104 O112 2.266 . S
In104 O113 2.326 . S
In104 O115 2.294 . S
In104 O116 2.326 . S
O105 In104 2.294 . S
O105 C114 1.240 . S
O106 In104 2.326 . S
O106 C114 1.252 . S
C107 O110 1.252 . S
C107 O111 1.260 . S
C108 O115 1.240 . S
C108 O116 1.252 . S
C109 O112 1.252 . S
C109 O113 1.260 . S
O110 In104 2.266 . S
O110 C107 1.252 . S
O111 In104 2.326 . S
O111 C107 1.260 . S
O112 In104 2.266 . S
O112 C109 1.252 . S
O113 In104 2.326 . S
O113 C109 1.260 . S
C114 O105 1.240 . S
C114 O106 1.252 . S
O115 In104 2.294 . S
O115 C108 1.240 . S
O116 In104 2.326 . S
O116 C108 1.252 . S
In117 O118 2.294 . S
In117 O119 2.326 . S
In117 O123 2.266 1_565 S
In117 O124 2.309 1_565 S
In117 O125 2.266 . S
In117 O126 2.326 . S
In117 O128 2.294 . S
In117 O129 2.326 . S
O118 In117 2.294 . S
O118 C127 1.240 . S
O119 In117 2.326 . S
O119 C127 1.252 . S
C120 O123 1.252 . S
C120 O124 1.261 . S
C121 O128 1.240 . S
C121 O129 1.252 . S
C122 O125 1.252 . S
C122 O126 1.260 . S
O123 In117 2.266 1_545 S
O123 C120 1.252 . S
O124 In117 2.309 1_545 S
O124 C120 1.261 . S
O125 In117 2.266 . S
O125 C122 1.252 . S
O126 In117 2.326 . S
O126 C122 1.260 . S
C127 O118 1.240 . S
C127 O119 1.252 . S
O128 In117 2.294 . S
O128 C121 1.240 . S
O129 In117 2.326 . S
O129 C121 1.252 . S
In130 O131 2.294 . S
In130 O132 2.326 . S
In130 O136 2.266 . S
In130 O137 2.326 . S
In130 O138 2.266 . S
In130 O139 2.326 . S
In130 O141 2.294 . S
In130 O142 2.326 . S
O131 In130 2.294 . S
O131 C140 1.240 . S
O132 In130 2.326 . S
O132 C140 1.252 . S
C133 O136 1.252 . S
C133 O137 1.260 . S
C134 O141 1.240 . S
C134 O142 1.252 . S
C135 O138 1.252 . S
C135 O139 1.260 . S
O136 In130 2.266 . S
O136 C133 1.252 . S
O137 In130 2.326 . S
O137 C133 1.260 . S
O138 In130 2.266 . S
O138 C135 1.252 . S
O139 In130 2.326 . S
O139 C135 1.260 . S
C140 O131 1.240 . S
C140 O132 1.252 . S
O141 In130 2.294 . S
O141 C134 1.240 . S
O142 In130 2.326 . S
O142 C134 1.252 . S
In143 O144 2.294 . S
In143 O145 2.326 . S
In143 O149 2.266 . S
In143 O150 2.326 . S
In143 O151 2.266 . S
In143 O152 2.326 . S
In143 O154 2.294 . S
In143 O155 2.326 . S
O144 In143 2.294 . S
O144 C153 1.240 . S
O145 In143 2.326 . S
O145 C153 1.252 . S
C146 O149 1.252 . S
C146 O150 1.260 . S
C147 O154 1.240 . S
C147 O155 1.252 . S
C148 O151 1.252 . S
C148 O152 1.260 . S
O149 In143 2.266 . S
O149 C146 1.252 . S
O150 In143 2.326 . S
O150 C146 1.260 . S
O151 In143 2.266 . S
O151 C148 1.252 . S
O152 In143 2.326 . S
O152 C148 1.260 . S
C153 O144 1.240 . S
C153 O145 1.252 . S
O154 In143 2.294 . S
O154 C147 1.240 . S
O155 In143 2.326 . S
O155 C147 1.252 . S
In156 O157 2.294 . S
In156 O158 2.326 . S
In156 O162 2.266 . S
In156 O163 2.326 . S
In156 O164 2.266 . S
In156 O165 2.326 . S
In156 O167 2.294 . S
In156 O168 2.326 . S
O157 In156 2.294 . S
O157 C166 1.240 . S
O158 In156 2.326 . S
O158 C166 1.252 . S
C159 O162 1.252 . S
C159 O163 1.260 . S
C160 O167 1.240 . S
C160 O168 1.252 . S
C161 O164 1.252 . S
C161 O165 1.260 . S
O162 In156 2.266 . S
O162 C159 1.252 . S
O163 In156 2.326 . S
O163 C159 1.260 . S
O164 In156 2.266 . S
O164 C161 1.252 . S
O165 In156 2.326 . S
O165 C161 1.260 . S
C166 O157 1.240 . S
C166 O158 1.252 . S
O167 In156 2.294 . S
O167 C160 1.240 . S
O168 In156 2.326 . S
O168 C160 1.252 . S
In169 O170 2.294 . S
In169 O171 2.326 . S
In169 O175 2.266 . S
In169 O176 2.326 . S
In169 O177 2.266 1_655 S
In169 O178 2.319 1_655 S
In169 O180 2.294 . S
In169 O181 2.326 . S
O170 In169 2.294 . S
O170 C179 1.240 . S
O171 In169 2.326 . S
O171 C179 1.252 . S
C172 O175 1.252 . S
C172 O176 1.260 . S
C173 O180 1.240 . S
C173 O181 1.252 . S
C174 O177 1.252 . S
C174 O178 1.269 . S
O175 In169 2.266 . S
O175 C172 1.252 . S
O176 In169 2.326 . S
O176 C172 1.260 . S
O177 In169 2.266 1_455 S
O177 C174 1.252 . S
O178 In169 2.319 1_455 S
O178 C174 1.269 . S
C179 O170 1.240 . S
C179 O171 1.252 . S
O180 In169 2.294 . S
O180 C173 1.240 . S
O181 In169 2.326 . S
O181 C173 1.252 . S
In182 O183 2.294 . S
In182 O184 2.326 . S
In182 O188 2.266 . S
In182 O189 2.326 . S
In182 O190 2.266 . S
In182 O191 2.326 . S
In182 O193 2.294 . S
In182 O194 2.326 . S
O183 In182 2.294 . S
O183 C192 1.240 . S
O184 In182 2.326 . S
O184 C192 1.252 . S
C185 O188 1.252 . S
C185 O189 1.260 . S
C186 O193 1.240 . S
C186 O194 1.252 . S
C187 O190 1.252 . S
C187 O191 1.260 . S
O188 In182 2.266 . S
O188 C185 1.252 . S
O189 In182 2.326 . S
O189 C185 1.260 . S
O190 In182 2.266 . S
O190 C187 1.252 . S
O191 In182 2.326 . S
O191 C187 1.260 . S
C192 O183 1.240 . S
C192 O184 1.252 . S
O193 In182 2.294 . S
O193 C186 1.240 . S
O194 In182 2.326 . S
O194 C186 1.252 . S
In195 O196 2.294 . S
In195 O197 2.326 . S
In195 O201 2.266 . S
In195 O202 2.326 . S
In195 O203 2.266 . S
In195 O204 2.326 . S
In195 O206 2.294 . S
In195 O207 2.326 . S
O196 In195 2.294 . S
O196 C205 1.240 . S
O197 In195 2.326 . S
O197 C205 1.252 . S
C198 O201 1.252 . S
C198 O202 1.260 . S
C199 O206 1.240 . S
C199 O207 1.252 . S
C200 O203 1.252 . S
C200 O204 1.260 . S
O201 In195 2.266 . S
O201 C198 1.252 . S
O202 In195 2.326 . S
O202 C198 1.260 . S
O203 In195 2.266 . S
O203 C200 1.252 . S
O204 In195 2.326 . S
O204 C200 1.260 . S
C205 O196 1.240 . S
C205 O197 1.252 . S
O206 In195 2.294 . S
O206 C199 1.240 . S
O207 In195 2.326 . S
O207 C199 1.252 . S
In208 O209 2.294 . S
In208 O210 2.326 . S
In208 O214 2.266 . S
In208 O215 2.326 . S
In208 O216 2.266 . S
In208 O217 2.326 . S
In208 O219 2.294 . S
In208 O220 2.326 . S
O209 In208 2.294 . S
O209 C218 1.240 . S
O210 In208 2.326 . S
O210 C218 1.252 . S
C211 O214 1.252 . S
C211 O215 1.260 . S
C212 O219 1.240 . S
C212 O220 1.252 . S
C213 O216 1.252 . S
C213 O217 1.260 . S
O214 In208 2.266 . S
O214 C211 1.252 . S
O215 In208 2.326 . S
O215 C211 1.260 . S
O216 In208 2.266 . S
O216 C213 1.252 . S
O217 In208 2.326 . S
O217 C213 1.260 . S
C218 O209 1.240 . S
C218 O210 1.252 . S
O219 In208 2.294 . S
O219 C212 1.240 . S
O220 In208 2.326 . S
O220 C212 1.252 . S
In221 O222 2.294 . S
In221 O223 2.326 . S
In221 O227 2.266 . S
In221 O228 2.326 . S
In221 O229 2.266 1_655 S
In221 O230 2.321 . S
In221 O232 2.294 . S
In221 O233 2.326 . S
O222 In221 2.294 . S
O222 C231 1.240 . S
O223 In221 2.326 . S
O223 C231 1.252 . S
C224 O227 1.252 . S
C224 O228 1.260 . S
C225 O232 1.240 . S
C225 O233 1.252 . S
C226 O229 1.252 . S
C226 O230 1.260 1_455 S
O227 In221 2.266 . S
O227 C224 1.252 . S
O228 In221 2.326 . S
O228 C224 1.260 . S
O229 In221 2.266 1_455 S
O229 C226 1.252 . S
O230 In221 2.321 . S
O230 C226 1.260 1_655 S
C231 O222 1.240 . S
C231 O223 1.252 . S
O232 In221 2.294 . S
O232 C225 1.240 . S
O233 In221 2.326 . S
O233 C225 1.252 . S
H234 C261 0.929 . S
N235 C260 1.433 . S
N235 C266 1.435 . S
N235 C272 1.423 . S
H236 C262 0.930 . S
H237 C265 0.931 . S
H238 C264 0.929 . S
H239 C267 0.930 . S
H240 C268 0.932 . S
H241 C271 0.929 . S
H242 C270 0.931 . S
H243 C273 0.929 . S
H244 C277 0.932 . S
H245 C274 0.931 . S
H246 C276 0.929 . S
H247 C279 0.929 . S
H248 C280 0.930 . S
H249 C282 0.929 . S
H250 C283 0.931 . S
H251 C285 0.930 . S
H252 C286 0.932 . S
H253 C288 0.931 . S
H254 C289 0.929 . S
H255 C291 0.929 . S
H256 C292 0.931 . S
H257 C294 0.929 . S
N258 C278 1.433 . S
N258 C284 1.435 . S
N258 C290 1.423 . S
H259 C295 0.932 . S
C260 N235 1.433 . S
C260 C261 1.363 . S
C260 C265 1.370 . S
C261 H234 0.929 . S
C261 C260 1.363 . S
C261 C262 1.385 . S
C262 H236 0.930 . S
C262 C261 1.385 . S
C262 C263 1.357 . S
C263 C262 1.357 . S
C263 C264 1.406 . S
C264 H238 0.929 . S
C264 C263 1.406 . S
C264 C265 1.391 . S
C265 H237 0.931 . S
C265 C260 1.370 . S
C265 C264 1.391 . S
C266 N235 1.435 . S
C266 C267 1.358 . S
C266 C271 1.371 . S
C267 H239 0.930 . S
C267 C266 1.358 . S
C267 C268 1.405 . S
C268 H240 0.932 . S
C268 C267 1.405 . S
C268 C269 1.383 . S
C269 C268 1.383 . S
C269 C270 1.393 . S
C270 H242 0.931 . S
C270 C269 1.393 . S
C270 C271 1.382 . S
C271 H241 0.929 . S
C271 C266 1.371 . S
C271 C270 1.382 . S
C272 N235 1.423 . S
C272 C273 1.362 . S
C272 C277 1.388 . S
C273 H243 0.929 . S
C273 C272 1.362 . S
C273 C274 1.376 . S
C274 H245 0.931 . S
C274 C273 1.376 . S
C274 C275 1.396 . S
C275 C274 1.396 . S
C275 C276 1.348 . S
C275 C293 1.472 . S
C276 H246 0.929 . S
C276 C275 1.348 . S
C276 C277 1.443 . S
C277 H244 0.932 . S
C277 C272 1.388 . S
C277 C276 1.443 . S
C278 N258 1.433 . S
C278 C279 1.363 . S
C278 C283 1.370 . S
C279 H247 0.929 . S
C279 C278 1.363 . S
C279 C280 1.385 . S
C280 H248 0.930 . S
C280 C279 1.385 . S
C280 C281 1.357 . S
C281 C280 1.357 . S
C281 C282 1.406 . S
C282 H249 0.929 . S
C282 C281 1.406 . S
C282 C283 1.391 . S
C283 H250 0.931 . S
C283 C278 1.370 . S
C283 C282 1.391 . S
C284 N258 1.435 . S
C284 C285 1.358 . S
C284 C289 1.371 . S
C285 H251 0.930 . S
C285 C284 1.358 . S
C285 C286 1.405 . S
C286 H252 0.932 . S
C286 C285 1.405 . S
C286 C287 1.383 . S
C287 C286 1.383 . S
C287 C288 1.393 . S
C288 H253 0.931 . S
C288 C287 1.393 . S
C288 C289 1.382 . S
C289 H254 0.929 . S
C289 C284 1.371 . S
C289 C288 1.382 . S
C290 N258 1.423 . S
C290 C291 1.362 . S
C290 C295 1.388 . S
C291 H255 0.929 . S
C291 C290 1.362 . S
C291 C292 1.376 . S
C292 H256 0.931 . S
C292 C291 1.376 . S
C292 C293 1.396 . S
C293 C275 1.472 . S
C293 C292 1.396 . S
C293 C294 1.348 . S
C294 H257 0.929 . S
C294 C293 1.348 . S
C294 C295 1.443 . S
C295 H259 0.932 . S
C295 C290 1.388 . S
C295 C294 1.443 . S
H296 C323 0.929 . S
N297 C322 1.433 . S
N297 C328 1.435 . S
N297 C334 1.423 . S
H298 C324 0.930 . S
H299 C327 0.931 . S
H300 C326 0.929 . S
H301 C329 0.930 . S
H302 C330 0.932 . S
H303 C333 0.929 . S
H304 C332 0.931 . S
H305 C335 0.929 . S
H306 C339 0.932 . S
H307 C336 0.931 . S
H308 C338 0.929 . S
H309 C341 0.929 . S
H310 C342 0.930 . S
H311 C344 0.929 . S
H312 C345 0.931 . S
H313 C347 0.930 . S
H314 C348 0.932 . S
H315 C350 0.931 . S
H316 C351 0.929 . S
H317 C353 0.929 . S
H318 C354 0.931 . S
H319 C356 0.929 . S
N320 C340 1.433 . S
N320 C346 1.435 . S
N320 C352 1.423 . S
H321 C357 0.932 . S
C322 N297 1.433 . S
C322 C323 1.363 . S
C322 C327 1.370 . S
C323 H296 0.929 . S
C323 C322 1.363 . S
C323 C324 1.385 . S
C324 H298 0.930 . S
C324 C323 1.385 . S
C324 C325 1.357 . S
C325 C324 1.357 . S
C325 C326 1.406 . S
C326 H300 0.929 . S
C326 C325 1.406 . S
C326 C327 1.391 . S
C327 H299 0.931 . S
C327 C322 1.370 . S
C327 C326 1.391 . S
C328 N297 1.435 . S
C328 C329 1.358 . S
C328 C333 1.371 . S
C329 H301 0.930 . S
C329 C328 1.358 . S
C329 C330 1.405 . S
C330 H302 0.932 . S
C330 C329 1.405 . S
C330 C331 1.383 . S
C331 C330 1.383 . S
C331 C332 1.393 . S
C332 H304 0.931 . S
C332 C331 1.393 . S
C332 C333 1.382 . S
C333 H303 0.929 . S
C333 C328 1.371 . S
C333 C332 1.382 . S
C334 N297 1.423 . S
C334 C335 1.362 . S
C334 C339 1.388 . S
C335 H305 0.929 . S
C335 C334 1.362 . S
C335 C336 1.376 . S
C336 H307 0.931 . S
C336 C335 1.376 . S
C336 C337 1.396 . S
C337 C336 1.396 . S
C337 C338 1.348 . S
C337 C355 1.472 . S
C338 H308 0.929 . S
C338 C337 1.348 . S
C338 C339 1.443 . S
C339 H306 0.932 . S
C339 C334 1.388 . S
C339 C338 1.443 . S
C340 N320 1.433 . S
C340 C341 1.363 . S
C340 C345 1.370 . S
C341 H309 0.929 . S
C341 C340 1.363 . S
C341 C342 1.385 . S
C342 H310 0.930 . S
C342 C341 1.385 . S
C342 C343 1.357 . S
C343 C342 1.357 . S
C343 C344 1.406 . S
C344 H311 0.929 . S
C344 C343 1.406 . S
C344 C345 1.391 . S
C345 H312 0.931 . S
C345 C340 1.370 . S
C345 C344 1.391 . S
C346 N320 1.435 . S
C346 C347 1.358 . S
C346 C351 1.371 . S
C347 H313 0.930 . S
C347 C346 1.358 . S
C347 C348 1.405 . S
C348 H314 0.932 . S
C348 C347 1.405 . S
C348 C349 1.383 . S
C349 C348 1.383 . S
C349 C350 1.393 . S
C350 H315 0.931 . S
C350 C349 1.393 . S
C350 C351 1.382 . S
C351 H316 0.929 . S
C351 C346 1.371 . S
C351 C350 1.382 . S
C352 N320 1.423 . S
C352 C353 1.362 . S
C352 C357 1.388 . S
C353 H317 0.929 . S
C353 C352 1.362 . S
C353 C354 1.376 . S
C354 H318 0.931 . S
C354 C353 1.376 . S
C354 C355 1.396 . S
C355 C337 1.472 . S
C355 C354 1.396 . S
C355 C356 1.348 . S
C356 H319 0.929 . S
C356 C355 1.348 . S
C356 C357 1.443 . S
C357 H321 0.932 . S
C357 C352 1.388 . S
C357 C356 1.443 . S
H358 C385 0.929 . S
N359 C384 1.433 . S
N359 C390 1.435 . S
N359 C396 1.423 . S
H360 C386 0.930 . S
H361 C389 0.931 . S
H362 C388 0.929 . S
H363 C391 0.930 . S
H364 C392 0.932 . S
H365 C395 0.929 . S
H366 C394 0.931 . S
H367 C397 0.929 . S
H368 C401 0.932 . S
H369 C398 0.931 . S
H370 C400 0.929 . S
H371 C403 0.929 . S
H372 C404 0.930 . S
H373 C406 0.929 . S
H374 C407 0.931 . S
H375 C409 0.930 . S
H376 C410 0.932 . S
H377 C412 0.931 . S
H378 C413 0.929 . S
H379 C415 0.929 . S
H380 C416 0.931 . S
H381 C418 0.929 . S
N382 C402 1.433 . S
N382 C408 1.435 . S
N382 C414 1.423 . S
H383 C419 0.932 . S
C384 N359 1.433 . S
C384 C385 1.363 . S
C384 C389 1.370 . S
C385 H358 0.929 . S
C385 C384 1.363 . S
C385 C386 1.385 . S
C386 H360 0.930 . S
C386 C385 1.385 . S
C386 C387 1.357 . S
C387 C386 1.357 . S
C387 C388 1.406 . S
C388 H362 0.929 . S
C388 C387 1.406 . S
C388 C389 1.391 . S
C389 H361 0.931 . S
C389 C384 1.370 . S
C389 C388 1.391 . S
C390 N359 1.435 . S
C390 C391 1.358 . S
C390 C395 1.371 . S
C391 H363 0.930 . S
C391 C390 1.358 . S
C391 C392 1.405 . S
C392 H364 0.932 . S
C392 C391 1.405 . S
C392 C393 1.383 . S
C393 C392 1.383 . S
C393 C394 1.393 . S
C394 H366 0.931 . S
C394 C393 1.393 . S
C394 C395 1.382 . S
C395 H365 0.929 . S
C395 C390 1.371 . S
C395 C394 1.382 . S
C396 N359 1.423 . S
C396 C397 1.362 . S
C396 C401 1.388 . S
C397 H367 0.929 . S
C397 C396 1.362 . S
C397 C398 1.376 . S
C398 H369 0.931 . S
C398 C397 1.376 . S
C398 C399 1.396 . S
C399 C398 1.396 . S
C399 C400 1.348 . S
C399 C417 1.472 . S
C400 H370 0.929 . S
C400 C399 1.348 . S
C400 C401 1.443 . S
C401 H368 0.932 . S
C401 C396 1.388 . S
C401 C400 1.443 . S
C402 N382 1.433 . S
C402 C403 1.363 . S
C402 C407 1.370 . S
C403 H371 0.929 . S
C403 C402 1.363 . S
C403 C404 1.385 . S
C404 H372 0.930 . S
C404 C403 1.385 . S
C404 C405 1.357 . S
C405 C404 1.357 . S
C405 C406 1.406 . S
C406 H373 0.929 . S
C406 C405 1.406 . S
C406 C407 1.391 . S
C407 H374 0.931 . S
C407 C402 1.370 . S
C407 C406 1.391 . S
C408 N382 1.435 . S
C408 C409 1.358 . S
C408 C413 1.371 . S
C409 H375 0.930 . S
C409 C408 1.358 . S
C409 C410 1.405 . S
C410 H376 0.932 . S
C410 C409 1.405 . S
C410 C411 1.383 . S
C411 C410 1.383 . S
C411 C412 1.393 . S
C412 H377 0.931 . S
C412 C411 1.393 . S
C412 C413 1.382 . S
C413 H378 0.929 . S
C413 C408 1.371 . S
C413 C412 1.382 . S
C414 N382 1.423 . S
C414 C415 1.362 . S
C414 C419 1.388 . S
C415 H379 0.929 . S
C415 C414 1.362 . S
C415 C416 1.376 . S
C416 H380 0.931 . S
C416 C415 1.376 . S
C416 C417 1.396 . S
C417 C399 1.472 . S
C417 C416 1.396 . S
C417 C418 1.348 . S
C418 H381 0.929 . S
C418 C417 1.348 . S
C418 C419 1.443 . S
C419 H383 0.932 . S
C419 C414 1.388 . S
C419 C418 1.443 . S
H420 C447 0.929 . S
N421 C446 1.433 . S
N421 C452 1.435 . S
N421 C458 1.423 . S
H422 C448 0.930 . S
H423 C451 0.931 . S
H424 C450 0.929 . S
H425 C453 0.930 . S
H426 C454 0.932 . S
H427 C457 0.929 . S
H428 C456 0.931 . S
H429 C459 0.929 . S
H430 C463 0.932 . S
H431 C460 0.931 . S
H432 C462 0.929 . S
H433 C465 0.929 . S
H434 C466 0.930 . S
H435 C468 0.929 . S
H436 C469 0.931 . S
H437 C471 0.930 . S
H438 C472 0.932 . S
H439 C474 0.931 . S
H440 C475 0.929 . S
H441 C477 0.929 . S
H442 C478 0.931 . S
H443 C480 0.929 . S
N444 C464 1.433 . S
N444 C470 1.435 . S
N444 C476 1.423 . S
H445 C481 0.932 . S
C446 N421 1.433 . S
C446 C447 1.363 . S
C446 C451 1.370 . S
C447 H420 0.929 . S
C447 C446 1.363 . S
C447 C448 1.385 . S
C448 H422 0.930 . S
C448 C447 1.385 . S
C448 C449 1.357 . S
C449 C448 1.357 . S
C449 C450 1.406 . S
C450 H424 0.929 . S
C450 C449 1.406 . S
C450 C451 1.391 . S
C451 H423 0.931 . S
C451 C446 1.370 . S
C451 C450 1.391 . S
C452 N421 1.435 . S
C452 C453 1.358 . S
C452 C457 1.371 . S
C453 H425 0.930 . S
C453 C452 1.358 . S
C453 C454 1.405 . S
C454 H426 0.932 . S
C454 C453 1.405 . S
C454 C455 1.383 . S
C455 C454 1.383 . S
C455 C456 1.393 . S
C456 H428 0.931 . S
C456 C455 1.393 . S
C456 C457 1.382 . S
C457 H427 0.929 . S
C457 C452 1.371 . S
C457 C456 1.382 . S
C458 N421 1.423 . S
C458 C459 1.362 . S
C458 C463 1.388 . S
C459 H429 0.929 . S
C459 C458 1.362 . S
C459 C460 1.376 . S
C460 H431 0.931 . S
C460 C459 1.376 . S
C460 C461 1.396 . S
C461 C460 1.396 . S
C461 C462 1.348 . S
C461 C479 1.472 . S
C462 H432 0.929 . S
C462 C461 1.348 . S
C462 C463 1.443 . S
C463 H430 0.932 . S
C463 C458 1.388 . S
C463 C462 1.443 . S
C464 N444 1.433 . S
C464 C465 1.363 . S
C464 C469 1.370 . S
C465 H433 0.929 . S
C465 C464 1.363 . S
C465 C466 1.385 . S
C466 H434 0.930 . S
C466 C465 1.385 . S
C466 C467 1.357 . S
C467 C466 1.357 . S
C467 C468 1.406 . S
C468 H435 0.929 . S
C468 C467 1.406 . S
C468 C469 1.391 . S
C469 H436 0.931 . S
C469 C464 1.370 . S
C469 C468 1.391 . S
C470 N444 1.435 . S
C470 C471 1.358 . S
C470 C475 1.371 . S
C471 H437 0.930 . S
C471 C470 1.358 . S
C471 C472 1.405 . S
C472 H438 0.932 . S
C472 C471 1.405 . S
C472 C473 1.383 . S
C473 C472 1.383 . S
C473 C474 1.393 . S
C474 H439 0.931 . S
C474 C473 1.393 . S
C474 C475 1.382 . S
C475 H440 0.929 . S
C475 C470 1.371 . S
C475 C474 1.382 . S
C476 N444 1.423 . S
C476 C477 1.362 . S
C476 C481 1.388 . S
C477 H441 0.929 . S
C477 C476 1.362 . S
C477 C478 1.376 . S
C478 H442 0.931 . S
C478 C477 1.376 . S
C478 C479 1.396 . S
C479 C461 1.472 . S
C479 C478 1.396 . S
C479 C480 1.348 . S
C480 H443 0.929 . S
C480 C479 1.348 . S
C480 C481 1.443 . S
C481 H445 0.932 . S
C481 C476 1.388 . S
C481 C480 1.443 . S
H482 C509 0.929 . S
N483 C508 1.433 . S
N483 C514 1.435 . S
N483 C520 1.423 . S
H484 C510 0.930 . S
H485 C513 0.931 . S
H486 C512 0.929 . S
H487 C515 0.930 . S
H488 C516 0.932 . S
H489 C519 0.929 . S
H490 C518 0.931 . S
H491 C521 0.929 . S
H492 C525 0.932 . S
H493 C522 0.931 . S
H494 C524 0.929 . S
H495 C527 0.929 . S
H496 C528 0.930 . S
H497 C530 0.929 . S
H498 C531 0.931 . S
H499 C533 0.930 . S
H500 C534 0.932 . S
H501 C536 0.931 . S
H502 C537 0.929 . S
H503 C539 0.929 . S
H504 C540 0.931 . S
H505 C542 0.929 . S
N506 C526 1.433 . S
N506 C532 1.435 . S
N506 C538 1.423 . S
H507 C543 0.932 . S
C508 N483 1.433 . S
C508 C509 1.363 . S
C508 C513 1.370 . S
C509 H482 0.929 . S
C509 C508 1.363 . S
C509 C510 1.385 . S
C510 H484 0.930 . S
C510 C509 1.385 . S
C510 C511 1.357 . S
C511 C510 1.357 . S
C511 C512 1.406 . S
C512 H486 0.929 . S
C512 C511 1.406 . S
C512 C513 1.391 . S
C513 H485 0.931 . S
C513 C508 1.370 . S
C513 C512 1.391 . S
C514 N483 1.435 . S
C514 C515 1.358 . S
C514 C519 1.371 . S
C515 H487 0.930 . S
C515 C514 1.358 . S
C515 C516 1.405 . S
C516 H488 0.932 . S
C516 C515 1.405 . S
C516 C517 1.383 . S
C517 C516 1.383 . S
C517 C518 1.393 . S
C518 H490 0.931 . S
C518 C517 1.393 . S
C518 C519 1.382 . S
C519 H489 0.929 . S
C519 C514 1.371 . S
C519 C518 1.382 . S
C520 N483 1.423 . S
C520 C521 1.362 . S
C520 C525 1.388 . S
C521 H491 0.929 . S
C521 C520 1.362 . S
C521 C522 1.376 . S
C522 H493 0.931 . S
C522 C521 1.376 . S
C522 C523 1.396 . S
C523 C522 1.396 . S
C523 C524 1.348 . S
C523 C541 1.472 . S
C524 H494 0.929 . S
C524 C523 1.348 . S
C524 C525 1.443 . S
C525 H492 0.932 . S
C525 C520 1.388 . S
C525 C524 1.443 . S
C526 N506 1.433 . S
C526 C527 1.363 . S
C526 C531 1.370 . S
C527 H495 0.929 . S
C527 C526 1.363 . S
C527 C528 1.385 . S
C528 H496 0.930 . S
C528 C527 1.385 . S
C528 C529 1.357 . S
C529 C528 1.357 . S
C529 C530 1.406 . S
C530 H497 0.929 . S
C530 C529 1.406 . S
C530 C531 1.391 . S
C531 H498 0.931 . S
C531 C526 1.370 . S
C531 C530 1.391 . S
C532 N506 1.435 . S
C532 C533 1.358 . S
C532 C537 1.371 . S
C533 H499 0.930 . S
C533 C532 1.358 . S
C533 C534 1.405 . S
C534 H500 0.932 . S
C534 C533 1.405 . S
C534 C535 1.383 . S
C535 C534 1.383 . S
C535 C536 1.393 . S
C536 H501 0.931 . S
C536 C535 1.393 . S
C536 C537 1.382 . S
C537 H502 0.929 . S
C537 C532 1.371 . S
C537 C536 1.382 . S
C538 N506 1.423 . S
C538 C539 1.362 . S
C538 C543 1.388 . S
C539 H503 0.929 . S
C539 C538 1.362 . S
C539 C540 1.376 . S
C540 H504 0.931 . S
C540 C539 1.376 . S
C540 C541 1.396 . S
C541 C523 1.472 . S
C541 C540 1.396 . S
C541 C542 1.348 . S
C542 H505 0.929 . S
C542 C541 1.348 . S
C542 C543 1.443 . S
C543 H507 0.932 . S
C543 C538 1.388 . S
C543 C542 1.443 . S
H544 C571 0.929 . S
N545 C570 1.433 . S
N545 C576 1.435 . S
N545 C582 1.423 . S
H546 C572 0.930 . S
H547 C575 0.931 . S
H548 C574 0.929 . S
H549 C577 0.930 . S
H550 C578 0.932 . S
H551 C581 0.929 . S
H552 C580 0.931 . S
H553 C583 0.929 . S
H554 C587 0.932 . S
H555 C584 0.931 . S
H556 C586 0.929 . S
H557 C589 0.929 . S
H558 C590 0.930 . S
H559 C592 0.929 . S
H560 C593 0.931 . S
H561 C595 0.930 . S
H562 C596 0.932 . S
H563 C598 0.931 . S
H564 C599 0.929 . S
H565 C601 0.929 . S
H566 C602 0.931 . S
H567 C604 0.929 . S
N568 C588 1.433 . S
N568 C594 1.435 . S
N568 C600 1.423 . S
H569 C605 0.932 . S
C570 N545 1.433 . S
C570 C571 1.363 . S
C570 C575 1.370 . S
C571 H544 0.929 . S
C571 C570 1.363 . S
C571 C572 1.385 . S
C572 H546 0.930 . S
C572 C571 1.385 . S
C572 C573 1.357 . S
C573 C572 1.357 . S
C573 C574 1.406 . S
C574 H548 0.929 . S
C574 C573 1.406 . S
C574 C575 1.391 . S
C575 H547 0.931 . S
C575 C570 1.370 . S
C575 C574 1.391 . S
C576 N545 1.435 . S
C576 C577 1.358 . S
C576 C581 1.371 . S
C577 H549 0.930 . S
C577 C576 1.358 . S
C577 C578 1.405 . S
C578 H550 0.932 . S
C578 C577 1.405 . S
C578 C579 1.383 . S
C579 C578 1.383 . S
C579 C580 1.393 . S
C580 H552 0.931 . S
C580 C579 1.393 . S
C580 C581 1.382 . S
C581 H551 0.929 . S
C581 C576 1.371 . S
C581 C580 1.382 . S
C582 N545 1.423 . S
C582 C583 1.362 . S
C582 C587 1.388 . S
C583 H553 0.929 . S
C583 C582 1.362 . S
C583 C584 1.376 . S
C584 H555 0.931 . S
C584 C583 1.376 . S
C584 C585 1.396 . S
C585 C584 1.396 . S
C585 C586 1.348 . S
C585 C603 1.472 . S
C586 H556 0.929 . S
C586 C585 1.348 . S
C586 C587 1.443 . S
C587 H554 0.932 . S
C587 C582 1.388 . S
C587 C586 1.443 . S
C588 N568 1.433 . S
C588 C589 1.363 . S
C588 C593 1.370 . S
C589 H557 0.929 . S
C589 C588 1.363 . S
C589 C590 1.385 . S
C590 H558 0.930 . S
C590 C589 1.385 . S
C590 C591 1.357 . S
C591 C590 1.357 . S
C591 C592 1.406 . S
C592 H559 0.929 . S
C592 C591 1.406 . S
C592 C593 1.391 . S
C593 H560 0.931 . S
C593 C588 1.370 . S
C593 C592 1.391 . S
C594 N568 1.435 . S
C594 C595 1.358 . S
C594 C599 1.371 . S
C595 H561 0.930 . S
C595 C594 1.358 . S
C595 C596 1.405 . S
C596 H562 0.932 . S
C596 C595 1.405 . S
C596 C597 1.383 . S
C597 C596 1.383 . S
C597 C598 1.393 . S
C598 H563 0.931 . S
C598 C597 1.393 . S
C598 C599 1.382 . S
C599 H564 0.929 . S
C599 C594 1.371 . S
C599 C598 1.382 . S
C600 N568 1.423 . S
C600 C601 1.362 . S
C600 C605 1.388 . S
C601 H565 0.929 . S
C601 C600 1.362 . S
C601 C602 1.376 . S
C602 H566 0.931 . S
C602 C601 1.376 . S
C602 C603 1.396 . S
C603 C585 1.472 . S
C603 C602 1.396 . S
C603 C604 1.348 . S
C604 H567 0.929 . S
C604 C603 1.348 . S
C604 C605 1.443 . S
C605 H569 0.932 . S
C605 C600 1.388 . S
C605 C604 1.443 . S
H606 C633 0.929 . S
N607 C632 1.433 . S
N607 C638 1.435 . S
N607 C644 1.423 . S
H608 C634 0.930 . S
H609 C637 0.931 . S
H610 C636 0.929 . S
H611 C639 0.930 . S
H612 C640 0.932 . S
H613 C643 0.929 . S
H614 C642 0.931 . S
H615 C645 0.929 . S
H616 C649 0.932 . S
H617 C646 0.931 . S
H618 C648 0.929 . S
H619 C651 0.929 . S
H620 C652 0.930 . S
H621 C654 0.929 . S
H622 C655 0.931 . S
H623 C657 0.930 . S
H624 C658 0.932 . S
H625 C660 0.931 . S
H626 C661 0.929 . S
H627 C663 0.929 . S
H628 C664 0.931 . S
H629 C666 0.929 . S
N630 C650 1.433 . S
N630 C656 1.435 . S
N630 C662 1.423 . S
H631 C667 0.932 . S
C632 N607 1.433 . S
C632 C633 1.363 . S
C632 C637 1.370 . S
C633 H606 0.929 . S
C633 C632 1.363 . S
C633 C634 1.385 . S
C634 H608 0.930 . S
C634 C633 1.385 . S
C634 C635 1.357 . S
C635 C634 1.357 . S
C635 C636 1.406 . S
C636 H610 0.929 . S
C636 C635 1.406 . S
C636 C637 1.391 . S
C637 H609 0.931 . S
C637 C632 1.370 . S
C637 C636 1.391 . S
C638 N607 1.435 . S
C638 C639 1.358 . S
C638 C643 1.371 . S
C639 H611 0.930 . S
C639 C638 1.358 . S
C639 C640 1.405 . S
C640 H612 0.932 . S
C640 C639 1.405 . S
C640 C641 1.383 . S
C641 C640 1.383 . S
C641 C642 1.393 . S
C642 H614 0.931 . S
C642 C641 1.393 . S
C642 C643 1.382 . S
C643 H613 0.929 . S
C643 C638 1.371 . S
C643 C642 1.382 . S
C644 N607 1.423 . S
C644 C645 1.362 . S
C644 C649 1.388 . S
C645 H615 0.929 . S
C645 C644 1.362 . S
C645 C646 1.376 . S
C646 H617 0.931 . S
C646 C645 1.376 . S
C646 C647 1.396 . S
C647 C646 1.396 . S
C647 C648 1.348 . S
C647 C665 1.472 . S
C648 H618 0.929 . S
C648 C647 1.348 . S
C648 C649 1.443 . S
C649 H616 0.932 . S
C649 C644 1.388 . S
C649 C648 1.443 . S
C650 N630 1.433 . S
C650 C651 1.363 . S
C650 C655 1.370 . S
C651 H619 0.929 . S
C651 C650 1.363 . S
C651 C652 1.385 . S
C652 H620 0.930 . S
C652 C651 1.385 . S
C652 C653 1.357 . S
C653 C652 1.357 . S
C653 C654 1.406 . S
C654 H621 0.929 . S
C654 C653 1.406 . S
C654 C655 1.391 . S
C655 H622 0.931 . S
C655 C650 1.370 . S
C655 C654 1.391 . S
C656 N630 1.435 . S
C656 C657 1.358 . S
C656 C661 1.371 . S
C657 H623 0.930 . S
C657 C656 1.358 . S
C657 C658 1.405 . S
C658 H624 0.932 . S
C658 C657 1.405 . S
C658 C659 1.383 . S
C659 C658 1.383 . S
C659 C660 1.393 . S
C660 H625 0.931 . S
C660 C659 1.393 . S
C660 C661 1.382 . S
C661 H626 0.929 . S
C661 C656 1.371 . S
C661 C660 1.382 . S
C662 N630 1.423 . S
C662 C663 1.362 . S
C662 C667 1.388 . S
C663 H627 0.929 . S
C663 C662 1.362 . S
C663 C664 1.376 . S
C664 H628 0.931 . S
C664 C663 1.376 . S
C664 C665 1.396 . S
C665 C647 1.472 . S
C665 C664 1.396 . S
C665 C666 1.348 . S
C666 H629 0.929 . S
C666 C665 1.348 . S
C666 C667 1.443 . S
C667 H631 0.932 . S
C667 C662 1.388 . S
C667 C666 1.443 . S
H668 C695 0.929 . S
N669 C694 1.433 . S
N669 C700 1.435 . S
N669 C706 1.423 . S
H670 C696 0.930 . S
H671 C699 0.931 . S
H672 C698 0.929 . S
H673 C701 0.930 . S
H674 C702 0.932 . S
H675 C705 0.929 . S
H676 C704 0.931 . S
H677 C707 0.929 . S
H678 C711 0.932 . S
H679 C708 0.931 . S
H680 C710 0.929 . S
H681 C713 0.929 . S
H682 C714 0.930 . S
H683 C716 0.929 . S
H684 C717 0.931 . S
H685 C719 0.930 . S
H686 C720 0.932 . S
H687 C722 0.931 . S
H688 C723 0.929 . S
H689 C725 0.929 . S
H690 C726 0.931 . S
H691 C728 0.929 . S
N692 C712 1.433 . S
N692 C718 1.435 . S
N692 C724 1.423 . S
H693 C729 0.932 . S
C694 N669 1.433 . S
C694 C695 1.363 . S
C694 C699 1.370 . S
C695 H668 0.929 . S
C695 C694 1.363 . S
C695 C696 1.385 . S
C696 H670 0.930 . S
C696 C695 1.385 . S
C696 C697 1.357 . S
C697 C696 1.357 . S
C697 C698 1.406 . S
C698 H672 0.929 . S
C698 C697 1.406 . S
C698 C699 1.391 . S
C699 H671 0.931 . S
C699 C694 1.370 . S
C699 C698 1.391 . S
C700 N669 1.435 . S
C700 C701 1.358 . S
C700 C705 1.371 . S
C701 H673 0.930 . S
C701 C700 1.358 . S
C701 C702 1.405 . S
C702 H674 0.932 . S
C702 C701 1.405 . S
C702 C703 1.383 . S
C703 C702 1.383 . S
C703 C704 1.393 . S
C704 H676 0.931 . S
C704 C703 1.393 . S
C704 C705 1.382 . S
C705 H675 0.929 . S
C705 C700 1.371 . S
C705 C704 1.382 . S
C706 N669 1.423 . S
C706 C707 1.362 . S
C706 C711 1.388 . S
C707 H677 0.929 . S
C707 C706 1.362 . S
C707 C708 1.376 . S
C708 H679 0.931 . S
C708 C707 1.376 . S
C708 C709 1.396 . S
C709 C708 1.396 . S
C709 C710 1.348 . S
C709 C727 1.472 . S
C710 H680 0.929 . S
C710 C709 1.348 . S
C710 C711 1.443 . S
C711 H678 0.932 . S
C711 C706 1.388 . S
C711 C710 1.443 . S
C712 N692 1.433 . S
C712 C713 1.363 . S
C712 C717 1.370 . S
C713 H681 0.929 . S
C713 C712 1.363 . S
C713 C714 1.385 . S
C714 H682 0.930 . S
C714 C713 1.385 . S
C714 C715 1.357 . S
C715 C714 1.357 . S
C715 C716 1.406 . S
C716 H683 0.929 . S
C716 C715 1.406 . S
C716 C717 1.391 . S
C717 H684 0.931 . S
C717 C712 1.370 . S
C717 C716 1.391 . S
C718 N692 1.435 . S
C718 C719 1.358 . S
C718 C723 1.371 . S
C719 H685 0.930 . S
C719 C718 1.358 . S
C719 C720 1.405 . S
C720 H686 0.932 . S
C720 C719 1.405 . S
C720 C721 1.383 . S
C721 C720 1.383 . S
C721 C722 1.393 . S
C722 H687 0.931 . S
C722 C721 1.393 . S
C722 C723 1.382 . S
C723 H688 0.929 . S
C723 C718 1.371 . S
C723 C722 1.382 . S
C724 N692 1.423 . S
C724 C725 1.362 . S
C724 C729 1.388 . S
C725 H689 0.929 . S
C725 C724 1.362 . S
C725 C726 1.376 . S
C726 H690 0.931 . S
C726 C725 1.376 . S
C726 C727 1.396 . S
C727 C709 1.472 . S
C727 C726 1.396 . S
C727 C728 1.348 . S
C728 H691 0.929 . S
C728 C727 1.348 . S
C728 C729 1.443 . S
C729 H693 0.932 . S
C729 C724 1.388 . S
C729 C728 1.443 . S
H730 C757 0.929 . S
N731 C756 1.433 . S
N731 C762 1.435 . S
N731 C768 1.423 . S
H732 C758 0.930 . S
H733 C761 0.931 . S
H734 C760 0.929 . S
H735 C763 0.930 . S
H736 C764 0.932 . S
H737 C767 0.929 . S
H738 C766 0.931 . S
H739 C769 0.929 . S
H740 C773 0.932 . S
H741 C770 0.931 . S
H742 C772 0.929 . S
H743 C775 0.929 . S
H744 C776 0.930 . S
H745 C778 0.929 . S
H746 C779 0.931 . S
H747 C781 0.930 . S
H748 C782 0.932 . S
H749 C784 0.931 . S
H750 C785 0.929 . S
H751 C787 0.929 . S
H752 C788 0.931 . S
H753 C790 0.929 . S
N754 C774 1.433 . S
N754 C780 1.435 . S
N754 C786 1.423 . S
H755 C791 0.932 . S
C756 N731 1.433 . S
C756 C757 1.363 . S
C756 C761 1.370 . S
C757 H730 0.929 . S
C757 C756 1.363 . S
C757 C758 1.385 . S
C758 H732 0.930 . S
C758 C757 1.385 . S
C758 C759 1.357 . S
C759 C758 1.357 . S
C759 C760 1.406 . S
C760 H734 0.929 . S
C760 C759 1.406 . S
C760 C761 1.391 . S
C761 H733 0.931 . S
C761 C756 1.370 . S
C761 C760 1.391 . S
C762 N731 1.435 . S
C762 C763 1.358 . S
C762 C767 1.371 . S
C763 H735 0.930 . S
C763 C762 1.358 . S
C763 C764 1.405 . S
C764 H736 0.932 . S
C764 C763 1.405 . S
C764 C765 1.383 . S
C765 C764 1.383 . S
C765 C766 1.393 . S
C766 H738 0.931 . S
C766 C765 1.393 . S
C766 C767 1.382 . S
C767 H737 0.929 . S
C767 C762 1.371 . S
C767 C766 1.382 . S
C768 N731 1.423 . S
C768 C769 1.362 . S
C768 C773 1.388 . S
C769 H739 0.929 . S
C769 C768 1.362 . S
C769 C770 1.376 . S
C770 H741 0.931 . S
C770 C769 1.376 . S
C770 C771 1.396 . S
C771 C770 1.396 . S
C771 C772 1.348 . S
C771 C789 1.472 . S
C772 H742 0.929 . S
C772 C771 1.348 . S
C772 C773 1.443 . S
C773 H740 0.932 . S
C773 C768 1.388 . S
C773 C772 1.443 . S
C774 N754 1.433 . S
C774 C775 1.363 . S
C774 C779 1.370 . S
C775 H743 0.929 . S
C775 C774 1.363 . S
C775 C776 1.385 . S
C776 H744 0.930 . S
C776 C775 1.385 . S
C776 C777 1.357 . S
C777 C776 1.357 . S
C777 C778 1.406 . S
C778 H745 0.929 . S
C778 C777 1.406 . S
C778 C779 1.391 . S
C779 H746 0.931 . S
C779 C774 1.370 . S
C779 C778 1.391 . S
C780 N754 1.435 . S
C780 C781 1.358 . S
C780 C785 1.371 . S
C781 H747 0.930 . S
C781 C780 1.358 . S
C781 C782 1.405 . S
C782 H748 0.932 . S
C782 C781 1.405 . S
C782 C783 1.383 . S
C783 C782 1.383 . S
C783 C784 1.393 . S
C784 H749 0.931 . S
C784 C783 1.393 . S
C784 C785 1.382 . S
C785 H750 0.929 . S
C785 C780 1.371 . S
C785 C784 1.382 . S
C786 N754 1.423 . S
C786 C787 1.362 . S
C786 C791 1.388 . S
C787 H751 0.929 . S
C787 C786 1.362 . S
C787 C788 1.376 . S
C788 H752 0.931 . S
C788 C787 1.376 . S
C788 C789 1.396 . S
C789 C771 1.472 . S
C789 C788 1.396 . S
C789 C790 1.348 . S
C790 H753 0.929 . S
C790 C789 1.348 . S
C790 C791 1.443 . S
C791 H755 0.932 . S
C791 C786 1.388 . S
C791 C790 1.443 . S
H792 C819 0.929 . S
N793 C818 1.433 . S
N793 C824 1.435 . S
N793 C830 1.423 . S
H794 C820 0.930 . S
H795 C823 0.931 . S
H796 C822 0.929 . S
H797 C825 0.930 . S
H798 C826 0.932 . S
H799 C829 0.929 . S
H800 C828 0.931 . S
H801 C831 0.929 . S
H802 C835 0.932 . S
H803 C832 0.931 . S
H804 C834 0.929 . S
H805 C837 0.929 . S
H806 C838 0.930 . S
H807 C840 0.929 . S
H808 C841 0.931 . S
H809 C843 0.930 . S
H810 C844 0.932 . S
H811 C846 0.931 . S
H812 C847 0.929 . S
H813 C849 0.929 . S
H814 C850 0.931 . S
H815 C852 0.929 . S
N816 C836 1.433 . S
N816 C842 1.435 . S
N816 C848 1.423 . S
H817 C853 0.932 . S
C818 N793 1.433 . S
C818 C819 1.363 . S
C818 C823 1.370 . S
C819 H792 0.929 . S
C819 C818 1.363 . S
C819 C820 1.385 . S
C820 H794 0.930 . S
C820 C819 1.385 . S
C820 C821 1.357 . S
C821 C820 1.357 . S
C821 C822 1.406 . S
C822 H796 0.929 . S
C822 C821 1.406 . S
C822 C823 1.391 . S
C823 H795 0.931 . S
C823 C818 1.370 . S
C823 C822 1.391 . S
C824 N793 1.435 . S
C824 C825 1.358 . S
C824 C829 1.371 . S
C825 H797 0.930 . S
C825 C824 1.358 . S
C825 C826 1.405 . S
C826 H798 0.932 . S
C826 C825 1.405 . S
C826 C827 1.383 . S
C827 C826 1.383 . S
C827 C828 1.393 . S
C828 H800 0.931 . S
C828 C827 1.393 . S
C828 C829 1.382 . S
C829 H799 0.929 . S
C829 C824 1.371 . S
C829 C828 1.382 . S
C830 N793 1.423 . S
C830 C831 1.362 . S
C830 C835 1.388 . S
C831 H801 0.929 . S
C831 C830 1.362 . S
C831 C832 1.376 . S
C832 H803 0.931 . S
C832 C831 1.376 . S
C832 C833 1.396 . S
C833 C832 1.396 . S
C833 C834 1.348 . S
C833 C851 1.472 . S
C834 H804 0.929 . S
C834 C833 1.348 . S
C834 C835 1.443 . S
C835 H802 0.932 . S
C835 C830 1.388 . S
C835 C834 1.443 . S
C836 N816 1.433 . S
C836 C837 1.363 . S
C836 C841 1.370 . S
C837 H805 0.929 . S
C837 C836 1.363 . S
C837 C838 1.385 . S
C838 H806 0.930 . S
C838 C837 1.385 . S
C838 C839 1.357 . S
C839 C838 1.357 . S
C839 C840 1.406 . S
C840 H807 0.929 . S
C840 C839 1.406 . S
C840 C841 1.391 . S
C841 H808 0.931 . S
C841 C836 1.370 . S
C841 C840 1.391 . S
C842 N816 1.435 . S
C842 C843 1.358 . S
C842 C847 1.371 . S
C843 H809 0.930 . S
C843 C842 1.358 . S
C843 C844 1.405 . S
C844 H810 0.932 . S
C844 C843 1.405 . S
C844 C845 1.383 . S
C845 C844 1.383 . S
C845 C846 1.393 . S
C846 H811 0.931 . S
C846 C845 1.393 . S
C846 C847 1.382 . S
C847 H812 0.929 . S
C847 C842 1.371 . S
C847 C846 1.382 . S
C848 N816 1.423 . S
C848 C849 1.362 . S
C848 C853 1.388 . S
C849 H813 0.929 . S
C849 C848 1.362 . S
C849 C850 1.376 . S
C850 H814 0.931 . S
C850 C849 1.376 . S
C850 C851 1.396 . S
C851 C833 1.472 . S
C851 C850 1.396 . S
C851 C852 1.348 . S
C852 H815 0.929 . S
C852 C851 1.348 . S
C852 C853 1.443 . S
C853 H817 0.932 . S
C853 C848 1.388 . S
C853 C852 1.443 . S
H854 C881 0.929 . S
N855 C880 1.433 . S
N855 C886 1.435 . S
N855 C892 1.423 . S
H856 C882 0.930 . S
H857 C885 0.931 . S
H858 C884 0.929 . S
H859 C887 0.930 . S
H860 C888 0.932 . S
H861 C891 0.929 . S
H862 C890 0.931 . S
H863 C893 0.929 . S
H864 C897 0.932 . S
H865 C894 0.931 . S
H866 C896 0.929 . S
H867 C899 0.929 . S
H868 C900 0.930 . S
H869 C902 0.929 . S
H870 C903 0.931 . S
H871 C905 0.930 . S
H872 C906 0.932 . S
H873 C908 0.931 . S
H874 C909 0.929 . S
H875 C911 0.929 . S
H876 C912 0.931 . S
H877 C914 0.929 . S
N878 C898 1.433 . S
N878 C904 1.435 . S
N878 C910 1.423 . S
H879 C915 0.932 . S
C880 N855 1.433 . S
C880 C881 1.363 . S
C880 C885 1.370 . S
C881 H854 0.929 . S
C881 C880 1.363 . S
C881 C882 1.385 . S
C882 H856 0.930 . S
C882 C881 1.385 . S
C882 C883 1.357 . S
C883 C882 1.357 . S
C883 C884 1.406 . S
C884 H858 0.929 . S
C884 C883 1.406 . S
C884 C885 1.391 . S
C885 H857 0.931 . S
C885 C880 1.370 . S
C885 C884 1.391 . S
C886 N855 1.435 . S
C886 C887 1.358 . S
C886 C891 1.371 . S
C887 H859 0.930 . S
C887 C886 1.358 . S
C887 C888 1.405 . S
C888 H860 0.932 . S
C888 C887 1.405 . S
C888 C889 1.383 . S
C889 C888 1.383 . S
C889 C890 1.393 . S
C890 H862 0.931 . S
C890 C889 1.393 . S
C890 C891 1.382 . S
C891 H861 0.929 . S
C891 C886 1.371 . S
C891 C890 1.382 . S
C892 N855 1.423 . S
C892 C893 1.362 . S
C892 C897 1.388 . S
C893 H863 0.929 . S
C893 C892 1.362 . S
C893 C894 1.376 . S
C894 H865 0.931 . S
C894 C893 1.376 . S
C894 C895 1.396 . S
C895 C894 1.396 . S
C895 C896 1.348 . S
C895 C913 1.472 . S
C896 H866 0.929 . S
C896 C895 1.348 . S
C896 C897 1.443 . S
C897 H864 0.932 . S
C897 C892 1.388 . S
C897 C896 1.443 . S
C898 N878 1.433 . S
C898 C899 1.363 . S
C898 C903 1.370 . S
C899 H867 0.929 . S
C899 C898 1.363 . S
C899 C900 1.385 . S
C900 H868 0.930 . S
C900 C899 1.385 . S
C900 C901 1.357 . S
C901 C900 1.357 . S
C901 C902 1.406 . S
C902 H869 0.929 . S
C902 C901 1.406 . S
C902 C903 1.391 . S
C903 H870 0.931 . S
C903 C898 1.370 . S
C903 C902 1.391 . S
C904 N878 1.435 . S
C904 C905 1.358 . S
C904 C909 1.371 . S
C905 H871 0.930 . S
C905 C904 1.358 . S
C905 C906 1.405 . S
C906 H872 0.932 . S
C906 C905 1.405 . S
C906 C907 1.383 . S
C907 C906 1.383 . S
C907 C908 1.393 . S
C908 H873 0.931 . S
C908 C907 1.393 . S
C908 C909 1.382 . S
C909 H874 0.929 . S
C909 C904 1.371 . S
C909 C908 1.382 . S
C910 N878 1.423 . S
C910 C911 1.362 . S
C910 C915 1.388 . S
C911 H875 0.929 . S
C911 C910 1.362 . S
C911 C912 1.376 . S
C912 H876 0.931 . S
C912 C911 1.376 . S
C912 C913 1.396 . S
C913 C895 1.472 . S
C913 C912 1.396 . S
C913 C914 1.348 . S
C914 H877 0.929 . S
C914 C913 1.348 . S
C914 C915 1.443 . S
C915 H879 0.932 . S
C915 C910 1.388 . S
C915 C914 1.443 . S
H916 C943 0.929 . S
N917 C942 1.433 . S
N917 C948 1.435 . S
N917 C954 1.423 . S
H918 C944 0.930 . S
H919 C947 0.931 . S
H920 C946 0.929 . S
H921 C949 0.930 . S
H922 C950 0.932 . S
H923 C953 0.929 . S
H924 C952 0.931 . S
H925 C955 0.929 . S
H926 C959 0.932 1_545 S
H927 C956 0.931 . S
H928 C958 0.982 . S
H929 C961 0.929 . S
H930 C962 0.930 . S
H931 C964 0.929 . S
H932 C965 0.931 . S
H933 C967 0.930 . S
H934 C968 0.932 . S
H935 C970 0.931 . S
H936 C971 0.929 . S
H937 C973 0.929 . S
H938 C974 0.931 . S
H939 C976 0.940 . S
N940 C960 1.433 . S
N940 C966 1.435 . S
N940 C972 1.423 . S
H941 C977 0.932 1_545 S
C942 N917 1.433 . S
C942 C943 1.363 . S
C942 C947 1.370 1_565 S
C943 H916 0.929 . S
C943 C942 1.363 . S
C943 C944 1.385 . S
C944 H918 0.930 . S
C944 C943 1.385 . S
C944 C945 1.357 1_565 S
C945 C944 1.357 1_545 S
C945 C946 1.406 . S
C946 H920 0.929 . S
C946 C945 1.406 . S
C946 C947 1.391 . S
C947 H919 0.931 . S
C947 C942 1.370 1_545 S
C947 C946 1.391 . S
C948 N917 1.435 . S
C948 C949 1.358 1_565 S
C948 C953 1.371 . S
C949 H921 0.930 . S
C949 C948 1.358 1_545 S
C949 C950 1.405 . S
C950 H922 0.932 . S
C950 C949 1.405 . S
C950 C951 1.383 1_545 S
C951 C950 1.383 1_565 S
C951 C952 1.393 . S
C952 H924 0.931 . S
C952 C951 1.393 . S
C952 C953 1.382 . S
C953 H923 0.929 . S
C953 C948 1.371 . S
C953 C952 1.382 . S
C954 N917 1.423 . S
C954 C955 1.362 . S
C954 C959 1.388 . S
C955 H925 0.929 . S
C955 C954 1.362 . S
C955 C956 1.376 . S
C956 H927 0.931 . S
C956 C955 1.376 . S
C956 C957 1.396 . S
C957 C956 1.396 . S
C957 C958 1.348 . S
C957 C975 1.472 . S
C958 H928 0.982 . S
C958 C957 1.348 . S
C958 C959 1.443 . S
C959 H926 0.932 1_565 S
C959 C954 1.388 . S
C959 C958 1.443 . S
C960 N940 1.433 . S
C960 C961 1.363 . S
C960 C965 1.370 1_565 S
C961 H929 0.929 . S
C961 C960 1.363 . S
C961 C962 1.385 . S
C962 H930 0.930 . S
C962 C961 1.385 . S
C962 C963 1.357 1_565 S
C963 C962 1.357 1_545 S
C963 C964 1.406 . S
C964 H931 0.929 . S
C964 C963 1.406 . S
C964 C965 1.391 . S
C965 H932 0.931 . S
C965 C960 1.370 1_545 S
C965 C964 1.391 . S
C966 N940 1.435 . S
C966 C967 1.358 1_565 S
C966 C971 1.371 . S
C967 H933 0.930 . S
C967 C966 1.358 1_545 S
C967 C968 1.405 . S
C968 H934 0.932 . S
C968 C967 1.405 . S
C968 C969 1.383 1_545 S
C969 C968 1.383 1_565 S
C969 C970 1.393 . S
C970 H935 0.931 . S
C970 C969 1.393 . S
C970 C971 1.382 . S
C971 H936 0.929 . S
C971 C966 1.371 . S
C971 C970 1.382 . S
C972 N940 1.423 . S
C972 C973 1.362 . S
C972 C977 1.388 . S
C973 H937 0.929 . S
C973 C972 1.362 . S
C973 C974 1.376 . S
C974 H938 0.931 . S
C974 C973 1.376 . S
C974 C975 1.396 . S
C975 C957 1.472 . S
C975 C974 1.396 . S
C975 C976 1.348 . S
C976 H939 0.940 . S
C976 C975 1.348 . S
C976 C977 1.443 . S
C977 H941 0.932 1_565 S
C977 C972 1.388 . S
C977 C976 1.443 . S
H978 C1005 0.929 . S
N979 C1004 1.433 . S
N979 C1010 1.435 . S
N979 C1016 1.423 . S
H980 C1006 0.930 . S
H981 C1009 0.931 . S
H982 C1008 0.929 . S
H983 C1011 0.930 . S
H984 C1012 0.932 . S
H985 C1015 0.929 . S
H986 C1014 0.931 . S
H987 C1017 0.929 1_565 S
H988 C1021 0.932 . S
H989 C1018 0.931 1_565 S
H990 C1020 0.929 . S
H991 C1023 0.929 . S
H992 C1024 0.930 . S
H993 C1026 0.929 . S
H994 C1027 0.931 . S
H995 C1029 0.930 . S
H996 C1030 0.932 . S
H997 C1032 0.931 . S
H998 C1033 0.929 . S
H999 C1035 0.929 1_565 S
H1000 C1036 0.931 1_565 S
H1001 C1038 0.929 . S
N1002 C1022 1.433 . S
N1002 C1028 1.435 . S
N1002 C1034 1.423 . S
H1003 C1039 0.932 . S
C1004 N979 1.433 . S
C1004 C1005 1.363 . S
C1004 C1009 1.370 . S
C1005 H978 0.929 . S
C1005 C1004 1.363 . S
C1005 C1006 1.385 . S
C1006 H980 0.930 . S
C1006 C1005 1.385 . S
C1006 C1007 1.357 . S
C1007 C1006 1.357 . S
C1007 C1008 1.406 . S
C1008 H982 0.929 . S
C1008 C1007 1.406 . S
C1008 C1009 1.391 . S
C1009 H981 0.931 . S
C1009 C1004 1.370 . S
C1009 C1008 1.391 . S
C1010 N979 1.435 . S
C1010 C1011 1.358 . S
C1010 C1015 1.371 . S
C1011 H983 0.930 . S
C1011 C1010 1.358 . S
C1011 C1012 1.405 . S
C1012 H984 0.932 . S
C1012 C1011 1.405 . S
C1012 C1013 1.383 . S
C1013 C1012 1.383 . S
C1013 C1014 1.393 . S
C1014 H986 0.931 . S
C1014 C1013 1.393 . S
C1014 C1015 1.382 . S
C1015 H985 0.929 . S
C1015 C1010 1.371 . S
C1015 C1014 1.382 . S
C1016 N979 1.423 . S
C1016 C1017 1.362 . S
C1016 C1021 1.388 . S
C1017 H987 0.929 1_545 S
C1017 C1016 1.362 . S
C1017 C1018 1.376 . S
C1018 H989 0.931 1_545 S
C1018 C1017 1.376 . S
C1018 C1019 1.396 . S
C1019 C1018 1.396 . S
C1019 C1020 1.348 . S
C1019 C1037 1.472 . S
C1020 H990 0.929 . S
C1020 C1019 1.348 . S
C1020 C1021 1.443 . S
C1021 H988 0.932 . S
C1021 C1016 1.388 . S
C1021 C1020 1.443 . S
C1022 N1002 1.433 . S
C1022 C1023 1.363 . S
C1022 C1027 1.370 . S
C1023 H991 0.929 . S
C1023 C1022 1.363 . S
C1023 C1024 1.385 . S
C1024 H992 0.930 . S
C1024 C1023 1.385 . S
C1024 C1025 1.357 . S
C1025 C1024 1.357 . S
C1025 C1026 1.406 . S
C1026 H993 0.929 . S
C1026 C1025 1.406 . S
C1026 C1027 1.391 . S
C1027 H994 0.931 . S
C1027 C1022 1.370 . S
C1027 C1026 1.391 . S
C1028 N1002 1.435 . S
C1028 C1029 1.358 . S
C1028 C1033 1.371 . S
C1029 H995 0.930 . S
C1029 C1028 1.358 . S
C1029 C1030 1.405 . S
C1030 H996 0.932 . S
C1030 C1029 1.405 . S
C1030 C1031 1.383 . S
C1031 C1030 1.383 . S
C1031 C1032 1.393 . S
C1032 H997 0.931 . S
C1032 C1031 1.393 . S
C1032 C1033 1.382 . S
C1033 H998 0.929 . S
C1033 C1028 1.371 . S
C1033 C1032 1.382 . S
C1034 N1002 1.423 . S
C1034 C1035 1.362 . S
C1034 C1039 1.388 . S
C1035 H999 0.929 1_545 S
C1035 C1034 1.362 . S
C1035 C1036 1.376 . S
C1036 H1000 0.931 1_545 S
C1036 C1035 1.376 . S
C1036 C1037 1.396 . S
C1037 C1019 1.472 . S
C1037 C1036 1.396 . S
C1037 C1038 1.348 . S
C1038 H1001 0.929 . S
C1038 C1037 1.348 . S
C1038 C1039 1.443 . S
C1039 H1003 0.932 . S
C1039 C1034 1.388 . S
C1039 C1038 1.443 . S
H1040 C1067 0.929 . S
N1041 C1066 1.433 . S
N1041 C1072 1.435 . S
N1041 C1078 1.423 . S
H1042 C1068 0.930 . S
H1043 C1071 0.931 . S
H1044 C1070 0.929 . S
H1045 C1073 0.930 . S
H1046 C1074 0.932 . S
H1047 C1077 0.929 . S
H1048 C1076 0.931 . S
H1049 C1079 0.929 . S
H1050 C1083 0.932 1_455 S
H1051 C1080 0.931 . S
H1052 C1082 0.981 . S
H1053 C1085 0.929 . S
H1054 C1086 0.930 . S
H1055 C1088 0.929 . S
H1056 C1089 0.931 . S
H1057 C1091 0.930 . S
H1058 C1092 0.932 . S
H1059 C1094 0.931 . S
H1060 C1095 0.929 . S
H1061 C1097 0.929 . S
H1062 C1098 0.931 . S
H1063 C1100 0.940 . S
N1064 C1084 1.433 . S
N1064 C1090 1.435 . S
N1064 C1096 1.423 . S
H1065 C1101 0.932 1_455 S
C1066 N1041 1.433 . S
C1066 C1067 1.363 . S
C1066 C1071 1.370 1_655 S
C1067 H1040 0.929 . S
C1067 C1066 1.363 . S
C1067 C1068 1.385 . S
C1068 H1042 0.930 . S
C1068 C1067 1.385 . S
C1068 C1069 1.357 1_655 S
C1069 C1068 1.357 1_455 S
C1069 C1070 1.406 . S
C1070 H1044 0.929 . S
C1070 C1069 1.406 . S
C1070 C1071 1.391 . S
C1071 H1043 0.931 . S
C1071 C1066 1.370 1_455 S
C1071 C1070 1.391 . S
C1072 N1041 1.435 . S
C1072 C1073 1.358 1_655 S
C1072 C1077 1.371 . S
C1073 H1045 0.930 . S
C1073 C1072 1.358 1_455 S
C1073 C1074 1.405 . S
C1074 H1046 0.932 . S
C1074 C1073 1.405 . S
C1074 C1075 1.383 1_455 S
C1075 C1074 1.383 1_655 S
C1075 C1076 1.393 . S
C1076 H1048 0.931 . S
C1076 C1075 1.393 . S
C1076 C1077 1.382 . S
C1077 H1047 0.929 . S
C1077 C1072 1.371 . S
C1077 C1076 1.382 . S
C1078 N1041 1.423 . S
C1078 C1079 1.362 . S
C1078 C1083 1.388 . S
C1079 H1049 0.929 . S
C1079 C1078 1.362 . S
C1079 C1080 1.376 . S
C1080 H1051 0.931 . S
C1080 C1079 1.376 . S
C1080 C1081 1.396 . S
C1081 C1080 1.396 . S
C1081 C1082 1.348 . S
C1081 C1099 1.472 . S
C1082 H1052 0.981 . S
C1082 C1081 1.348 . S
C1082 C1083 1.443 . S
C1083 H1050 0.932 1_655 S
C1083 C1078 1.388 . S
C1083 C1082 1.443 . S
C1084 N1064 1.433 . S
C1084 C1085 1.363 . S
C1084 C1089 1.370 1_655 S
C1085 H1053 0.929 . S
C1085 C1084 1.363 . S
C1085 C1086 1.385 . S
C1086 H1054 0.930 . S
C1086 C1085 1.385 . S
C1086 C1087 1.357 1_655 S
C1087 C1086 1.357 1_455 S
C1087 C1088 1.406 . S
C1088 H1055 0.929 . S
C1088 C1087 1.406 . S
C1088 C1089 1.391 . S
C1089 H1056 0.931 . S
C1089 C1084 1.370 1_455 S
C1089 C1088 1.391 . S
C1090 N1064 1.435 . S
C1090 C1091 1.358 1_655 S
C1090 C1095 1.371 . S
C1091 H1057 0.930 . S
C1091 C1090 1.358 1_455 S
C1091 C1092 1.405 . S
C1092 H1058 0.932 . S
C1092 C1091 1.405 . S
C1092 C1093 1.383 1_455 S
C1093 C1092 1.383 1_655 S
C1093 C1094 1.393 . S
C1094 H1059 0.931 . S
C1094 C1093 1.393 . S
C1094 C1095 1.382 . S
C1095 H1060 0.929 . S
C1095 C1090 1.371 . S
C1095 C1094 1.382 . S
C1096 N1064 1.423 . S
C1096 C1097 1.362 . S
C1096 C1101 1.388 . S
C1097 H1061 0.929 . S
C1097 C1096 1.362 . S
C1097 C1098 1.376 . S
C1098 H1062 0.931 . S
C1098 C1097 1.376 . S
C1098 C1099 1.396 . S
C1099 C1081 1.472 . S
C1099 C1098 1.396 . S
C1099 C1100 1.348 . S
C1100 H1063 0.940 . S
C1100 C1099 1.348 . S
C1100 C1101 1.443 . S
C1101 H1065 0.932 1_655 S
C1101 C1096 1.388 . S
C1101 C1100 1.443 . S
H1102 C1129 0.929 . S
N1103 C1128 1.433 . S
N1103 C1134 1.435 . S
N1103 C1140 1.423 . S
H1104 C1130 0.930 . S
H1105 C1133 0.931 . S
H1106 C1132 0.929 . S
H1107 C1135 0.930 . S
H1108 C1136 0.932 . S
H1109 C1139 0.929 . S
H1110 C1138 0.931 . S
H1111 C1141 0.929 . S
H1112 C1145 0.932 . S
H1113 C1142 0.931 . S
H1114 C1144 0.929 . S
H1115 C1147 0.929 . S
H1116 C1148 0.930 . S
H1117 C1150 0.929 . S
H1118 C1151 0.931 . S
H1119 C1153 0.930 . S
H1120 C1154 0.932 . S
H1121 C1156 0.931 . S
H1122 C1157 0.929 . S
H1123 C1159 0.929 . S
H1124 C1160 0.931 . S
H1125 C1162 0.929 . S
N1126 C1146 1.433 . S
N1126 C1152 1.435 . S
N1126 C1158 1.423 . S
H1127 C1163 0.932 . S
C1128 N1103 1.433 . S
C1128 C1129 1.363 . S
C1128 C1133 1.370 . S
C1129 H1102 0.929 . S
C1129 C1128 1.363 . S
C1129 C1130 1.385 . S
C1130 H1104 0.930 . S
C1130 C1129 1.385 . S
C1130 C1131 1.357 . S
C1131 C1130 1.357 . S
C1131 C1132 1.406 . S
C1132 H1106 0.929 . S
C1132 C1131 1.406 . S
C1132 C1133 1.391 . S
C1133 H1105 0.931 . S
C1133 C1128 1.370 . S
C1133 C1132 1.391 . S
C1134 N1103 1.435 . S
C1134 C1135 1.358 . S
C1134 C1139 1.371 . S
C1135 H1107 0.930 . S
C1135 C1134 1.358 . S
C1135 C1136 1.405 . S
C1136 H1108 0.932 . S
C1136 C1135 1.405 . S
C1136 C1137 1.383 . S
C1137 C1136 1.383 . S
C1137 C1138 1.393 . S
C1138 H1110 0.931 . S
C1138 C1137 1.393 . S
C1138 C1139 1.382 . S
C1139 H1109 0.929 . S
C1139 C1134 1.371 . S
C1139 C1138 1.382 . S
C1140 N1103 1.423 . S
C1140 C1141 1.362 . S
C1140 C1145 1.388 . S
C1141 H1111 0.929 . S
C1141 C1140 1.362 . S
C1141 C1142 1.376 . S
C1142 H1113 0.931 . S
C1142 C1141 1.376 . S
C1142 C1143 1.396 . S
C1143 C1142 1.396 . S
C1143 C1144 1.348 . S
C1143 C1161 1.472 . S
C1144 H1114 0.929 . S
C1144 C1143 1.348 . S
C1144 C1145 1.443 . S
C1145 H1112 0.932 . S
C1145 C1140 1.388 . S
C1145 C1144 1.443 . S
C1146 N1126 1.433 . S
C1146 C1147 1.363 . S
C1146 C1151 1.370 . S
C1147 H1115 0.929 . S
C1147 C1146 1.363 . S
C1147 C1148 1.385 . S
C1148 H1116 0.930 . S
C1148 C1147 1.385 . S
C1148 C1149 1.357 . S
C1149 C1148 1.357 . S
C1149 C1150 1.406 . S
C1150 H1117 0.929 . S
C1150 C1149 1.406 . S
C1150 C1151 1.391 . S
C1151 H1118 0.931 . S
C1151 C1146 1.370 . S
C1151 C1150 1.391 . S
C1152 N1126 1.435 . S
C1152 C1153 1.358 . S
C1152 C1157 1.371 . S
C1153 H1119 0.930 . S
C1153 C1152 1.358 . S
C1153 C1154 1.405 . S
C1154 H1120 0.932 . S
C1154 C1153 1.405 . S
C1154 C1155 1.383 . S
C1155 C1154 1.383 . S
C1155 C1156 1.393 . S
C1156 H1121 0.931 . S
C1156 C1155 1.393 . S
C1156 C1157 1.382 . S
C1157 H1122 0.929 . S
C1157 C1152 1.371 . S
C1157 C1156 1.382 . S
C1158 N1126 1.423 . S
C1158 C1159 1.362 . S
C1158 C1163 1.388 . S
C1159 H1123 0.929 . S
C1159 C1158 1.362 . S
C1159 C1160 1.376 . S
C1160 H1124 0.931 . S
C1160 C1159 1.376 . S
C1160 C1161 1.396 . S
C1161 C1143 1.472 . S
C1161 C1160 1.396 . S
C1161 C1162 1.348 . S
C1162 H1125 0.929 . S
C1162 C1161 1.348 . S
C1162 C1163 1.443 . S
C1163 H1127 0.932 . S
C1163 C1158 1.388 . S
C1163 C1162 1.443 . S
H1164 C1191 0.929 . S
N1165 C1190 1.433 . S
N1165 C1196 1.435 . S
N1165 C1202 1.423 . S
H1166 C1192 0.930 . S
H1167 C1195 0.931 . S
H1168 C1194 0.929 . S
H1169 C1197 0.930 . S
H1170 C1198 0.932 . S
H1171 C1201 0.929 . S
H1172 C1200 0.931 . S
H1173 C1203 0.929 . S
H1174 C1207 0.932 . S
H1175 C1204 0.931 . S
H1176 C1206 0.929 . S
H1177 C1209 0.929 . S
H1178 C1210 0.930 . S
H1179 C1212 0.929 . S
H1180 C1213 0.931 . S
H1181 C1215 0.930 . S
H1182 C1216 0.932 . S
H1183 C1218 0.931 . S
H1184 C1219 0.929 . S
H1185 C1221 0.929 . S
H1186 C1222 0.931 . S
H1187 C1224 0.929 . S
N1188 C1208 1.433 . S
N1188 C1214 1.435 . S
N1188 C1220 1.423 . S
H1189 C1225 0.932 . S
C1190 N1165 1.433 . S
C1190 C1191 1.363 . S
C1190 C1195 1.370 . S
C1191 H1164 0.929 . S
C1191 C1190 1.363 . S
C1191 C1192 1.385 . S
C1192 H1166 0.930 . S
C1192 C1191 1.385 . S
C1192 C1193 1.357 . S
C1193 C1192 1.357 . S
C1193 C1194 1.406 . S
C1194 H1168 0.929 . S
C1194 C1193 1.406 . S
C1194 C1195 1.391 . S
C1195 H1167 0.931 . S
C1195 C1190 1.370 . S
C1195 C1194 1.391 . S
C1196 N1165 1.435 . S
C1196 C1197 1.358 . S
C1196 C1201 1.371 . S
C1197 H1169 0.930 . S
C1197 C1196 1.358 . S
C1197 C1198 1.405 . S
C1198 H1170 0.932 . S
C1198 C1197 1.405 . S
C1198 C1199 1.383 . S
C1199 C1198 1.383 . S
C1199 C1200 1.393 . S
C1200 H1172 0.931 . S
C1200 C1199 1.393 . S
C1200 C1201 1.382 . S
C1201 H1171 0.929 . S
C1201 C1196 1.371 . S
C1201 C1200 1.382 . S
C1202 N1165 1.423 . S
C1202 C1203 1.362 . S
C1202 C1207 1.388 . S
C1203 H1173 0.929 . S
C1203 C1202 1.362 . S
C1203 C1204 1.376 . S
C1204 H1175 0.931 . S
C1204 C1203 1.376 . S
C1204 C1205 1.396 . S
C1205 C1204 1.396 . S
C1205 C1206 1.348 . S
C1205 C1223 1.472 . S
C1206 H1176 0.929 . S
C1206 C1205 1.348 . S
C1206 C1207 1.443 . S
C1207 H1174 0.932 . S
C1207 C1202 1.388 . S
C1207 C1206 1.443 . S
C1208 N1188 1.433 . S
C1208 C1209 1.363 . S
C1208 C1213 1.370 . S
C1209 H1177 0.929 . S
C1209 C1208 1.363 . S
C1209 C1210 1.385 . S
C1210 H1178 0.930 . S
C1210 C1209 1.385 . S
C1210 C1211 1.357 . S
C1211 C1210 1.357 . S
C1211 C1212 1.406 . S
C1212 H1179 0.929 . S
C1212 C1211 1.406 . S
C1212 C1213 1.391 . S
C1213 H1180 0.931 . S
C1213 C1208 1.370 . S
C1213 C1212 1.391 . S
C1214 N1188 1.435 . S
C1214 C1215 1.358 . S
C1214 C1219 1.371 . S
C1215 H1181 0.930 . S
C1215 C1214 1.358 . S
C1215 C1216 1.405 . S
C1216 H1182 0.932 . S
C1216 C1215 1.405 . S
C1216 C1217 1.383 . S
C1217 C1216 1.383 . S
C1217 C1218 1.393 . S
C1218 H1183 0.931 . S
C1218 C1217 1.393 . S
C1218 C1219 1.382 . S
C1219 H1184 0.929 . S
C1219 C1214 1.371 . S
C1219 C1218 1.382 . S
C1220 N1188 1.423 . S
C1220 C1221 1.362 . S
C1220 C1225 1.388 . S
C1221 H1185 0.929 . S
C1221 C1220 1.362 . S
C1221 C1222 1.376 . S
C1222 H1186 0.931 . S
C1222 C1221 1.376 . S
C1222 C1223 1.396 . S
C1223 C1205 1.472 . S
C1223 C1222 1.396 . S
C1223 C1224 1.348 . S
C1224 H1187 0.929 . S
C1224 C1223 1.348 . S
C1224 C1225 1.443 . S
C1225 H1189 0.932 . S
C1225 C1220 1.388 . S
C1225 C1224 1.443 . S
H1226 C1253 0.929 . S
N1227 C1252 1.433 . S
N1227 C1258 1.435 . S
N1227 C1264 1.423 . S
H1228 C1254 0.930 . S
H1229 C1257 0.931 . S
H1230 C1256 0.929 . S
H1231 C1259 0.930 . S
H1232 C1260 0.932 . S
H1233 C1263 0.929 . S
H1234 C1262 0.931 . S
H1235 C1265 0.929 . S
H1236 C1269 0.932 . S
H1237 C1266 0.931 . S
H1238 C1268 0.929 . S
H1239 C1271 0.929 . S
H1240 C1272 0.930 . S
H1241 C1274 0.929 . S
H1242 C1275 0.931 . S
H1243 C1277 0.930 . S
H1244 C1278 0.932 . S
H1245 C1280 0.931 . S
H1246 C1281 0.929 . S
H1247 C1283 0.929 . S
H1248 C1284 0.931 . S
H1249 C1286 0.929 . S
N1250 C1270 1.433 . S
N1250 C1276 1.435 . S
N1250 C1282 1.423 . S
H1251 C1287 0.932 . S
C1252 N1227 1.433 . S
C1252 C1253 1.363 . S
C1252 C1257 1.370 . S
C1253 H1226 0.929 . S
C1253 C1252 1.363 . S
C1253 C1254 1.385 . S
C1254 H1228 0.930 . S
C1254 C1253 1.385 . S
C1254 C1255 1.357 . S
C1255 C1254 1.357 . S
C1255 C1256 1.406 . S
C1256 H1230 0.929 . S
C1256 C1255 1.406 . S
C1256 C1257 1.391 . S
C1257 H1229 0.931 . S
C1257 C1252 1.370 . S
C1257 C1256 1.391 . S
C1258 N1227 1.435 . S
C1258 C1259 1.358 . S
C1258 C1263 1.371 . S
C1259 H1231 0.930 . S
C1259 C1258 1.358 . S
C1259 C1260 1.405 . S
C1260 H1232 0.932 . S
C1260 C1259 1.405 . S
C1260 C1261 1.383 . S
C1261 C1260 1.383 . S
C1261 C1262 1.393 . S
C1262 H1234 0.931 . S
C1262 C1261 1.393 . S
C1262 C1263 1.382 . S
C1263 H1233 0.929 . S
C1263 C1258 1.371 . S
C1263 C1262 1.382 . S
C1264 N1227 1.423 . S
C1264 C1265 1.362 . S
C1264 C1269 1.388 . S
C1265 H1235 0.929 . S
C1265 C1264 1.362 . S
C1265 C1266 1.376 . S
C1266 H1237 0.931 . S
C1266 C1265 1.376 . S
C1266 C1267 1.396 . S
C1267 C1266 1.396 . S
C1267 C1268 1.348 . S
C1267 C1285 1.472 . S
C1268 H1238 0.929 . S
C1268 C1267 1.348 . S
C1268 C1269 1.443 . S
C1269 H1236 0.932 . S
C1269 C1264 1.388 . S
C1269 C1268 1.443 . S
C1270 N1250 1.433 . S
C1270 C1271 1.363 . S
C1270 C1275 1.370 . S
C1271 H1239 0.929 . S
C1271 C1270 1.363 . S
C1271 C1272 1.385 . S
C1272 H1240 0.930 . S
C1272 C1271 1.385 . S
C1272 C1273 1.357 . S
C1273 C1272 1.357 . S
C1273 C1274 1.406 . S
C1274 H1241 0.929 . S
C1274 C1273 1.406 . S
C1274 C1275 1.391 . S
C1275 H1242 0.931 . S
C1275 C1270 1.370 . S
C1275 C1274 1.391 . S
C1276 N1250 1.435 . S
C1276 C1277 1.358 . S
C1276 C1281 1.371 . S
C1277 H1243 0.930 . S
C1277 C1276 1.358 . S
C1277 C1278 1.405 . S
C1278 H1244 0.932 . S
C1278 C1277 1.405 . S
C1278 C1279 1.383 . S
C1279 C1278 1.383 . S
C1279 C1280 1.393 . S
C1280 H1245 0.931 . S
C1280 C1279 1.393 . S
C1280 C1281 1.382 . S
C1281 H1246 0.929 . S
C1281 C1276 1.371 . S
C1281 C1280 1.382 . S
C1282 N1250 1.423 . S
C1282 C1283 1.362 . S
C1282 C1287 1.388 . S
C1283 H1247 0.929 . S
C1283 C1282 1.362 . S
C1283 C1284 1.376 . S
C1284 H1248 0.931 . S
C1284 C1283 1.376 . S
C1284 C1285 1.396 . S
C1285 C1267 1.472 . S
C1285 C1284 1.396 . S
C1285 C1286 1.348 . S
C1286 H1249 0.929 . S
C1286 C1285 1.348 . S
C1286 C1287 1.443 . S
C1287 H1251 0.932 . S
C1287 C1282 1.388 . S
C1287 C1286 1.443 . S
H1288 C1315 0.929 . S
N1289 C1314 1.433 . S
N1289 C1320 1.435 . S
N1289 C1326 1.423 . S
H1290 C1316 0.930 . S
H1291 C1319 0.931 . S
H1292 C1318 0.929 . S
H1293 C1321 0.930 . S
H1294 C1322 0.932 . S
H1295 C1325 0.929 . S
H1296 C1324 0.931 . S
H1297 C1327 0.929 . S
H1298 C1331 0.932 . S
H1299 C1328 0.931 . S
H1300 C1330 0.929 . S
H1301 C1333 0.929 . S
H1302 C1334 0.930 . S
H1303 C1336 0.929 . S
H1304 C1337 0.931 . S
H1305 C1339 0.930 . S
H1306 C1340 0.932 . S
H1307 C1342 0.931 . S
H1308 C1343 0.929 . S
H1309 C1345 0.929 . S
H1310 C1346 0.931 . S
H1311 C1348 0.929 . S
N1312 C1332 1.433 . S
N1312 C1338 1.435 . S
N1312 C1344 1.423 . S
H1313 C1349 0.932 . S
C1314 N1289 1.433 . S
C1314 C1315 1.363 . S
C1314 C1319 1.370 . S
C1315 H1288 0.929 . S
C1315 C1314 1.363 . S
C1315 C1316 1.385 . S
C1316 H1290 0.930 . S
C1316 C1315 1.385 . S
C1316 C1317 1.357 . S
C1317 C1316 1.357 . S
C1317 C1318 1.406 . S
C1318 H1292 0.929 . S
C1318 C1317 1.406 . S
C1318 C1319 1.391 . S
C1319 H1291 0.931 . S
C1319 C1314 1.370 . S
C1319 C1318 1.391 . S
C1320 N1289 1.435 . S
C1320 C1321 1.358 . S
C1320 C1325 1.371 . S
C1321 H1293 0.930 . S
C1321 C1320 1.358 . S
C1321 C1322 1.405 . S
C1322 H1294 0.932 . S
C1322 C1321 1.405 . S
C1322 C1323 1.383 . S
C1323 C1322 1.383 . S
C1323 C1324 1.393 . S
C1324 H1296 0.931 . S
C1324 C1323 1.393 . S
C1324 C1325 1.382 . S
C1325 H1295 0.929 . S
C1325 C1320 1.371 . S
C1325 C1324 1.382 . S
C1326 N1289 1.423 . S
C1326 C1327 1.362 . S
C1326 C1331 1.388 . S
C1327 H1297 0.929 . S
C1327 C1326 1.362 . S
C1327 C1328 1.376 . S
C1328 H1299 0.931 . S
C1328 C1327 1.376 . S
C1328 C1329 1.396 . S
C1329 C1328 1.396 . S
C1329 C1330 1.348 . S
C1329 C1347 1.472 . S
C1330 H1300 0.929 . S
C1330 C1329 1.348 . S
C1330 C1331 1.443 . S
C1331 H1298 0.932 . S
C1331 C1326 1.388 . S
C1331 C1330 1.443 . S
C1332 N1312 1.433 . S
C1332 C1333 1.363 . S
C1332 C1337 1.370 . S
C1333 H1301 0.929 . S
C1333 C1332 1.363 . S
C1333 C1334 1.385 . S
C1334 H1302 0.930 . S
C1334 C1333 1.385 . S
C1334 C1335 1.357 . S
C1335 C1334 1.357 . S
C1335 C1336 1.406 . S
C1336 H1303 0.929 . S
C1336 C1335 1.406 . S
C1336 C1337 1.391 . S
C1337 H1304 0.931 . S
C1337 C1332 1.370 . S
C1337 C1336 1.391 . S
C1338 N1312 1.435 . S
C1338 C1339 1.358 . S
C1338 C1343 1.371 . S
C1339 H1305 0.930 . S
C1339 C1338 1.358 . S
C1339 C1340 1.405 . S
C1340 H1306 0.932 . S
C1340 C1339 1.405 . S
C1340 C1341 1.383 . S
C1341 C1340 1.383 . S
C1341 C1342 1.393 . S
C1342 H1307 0.931 . S
C1342 C1341 1.393 . S
C1342 C1343 1.382 . S
C1343 H1308 0.929 . S
C1343 C1338 1.371 . S
C1343 C1342 1.382 . S
C1344 N1312 1.423 . S
C1344 C1345 1.362 . S
C1344 C1349 1.388 . S
C1345 H1309 0.929 . S
C1345 C1344 1.362 . S
C1345 C1346 1.376 . S
C1346 H1310 0.931 . S
C1346 C1345 1.376 . S
C1346 C1347 1.396 . S
C1347 C1329 1.472 . S
C1347 C1346 1.396 . S
C1347 C1348 1.348 . S
C1348 H1311 0.929 . S
C1348 C1347 1.348 . S
C1348 C1349 1.443 . S
C1349 H1313 0.932 . S
C1349 C1344 1.388 . S
C1349 C1348 1.443 . S
H1350 C1358 0.950 . S
H1351 C1363 0.950 . S
H1352 C1360 0.950 . S
H1353 C1362 0.950 . S
H1354 C1364 0.950 . S
H1355 C1366 0.950 . S
H1356 C1368 0.950 . S
H1357 C1369 0.950 . S
C1358 H1350 0.950 . S
C1358 C1359 1.386 . S
C1358 C1360 1.391 . S
C1359 C1358 1.386 . S
C1359 C1363 1.393 . S
C1360 H1352 0.950 . S
C1360 C1358 1.391 . S
C1360 C1361 1.400 . S
C1361 C1360 1.400 . S
C1361 C1362 1.398 . S
C1361 C1367 1.491 . S
C1362 H1353 0.950 . S
C1362 C1361 1.398 . S
C1362 C1363 1.391 . S
C1363 H1351 0.950 . S
C1363 C1359 1.393 . S
C1363 C1362 1.391 . S
C1364 H1354 0.950 . S
C1364 C1365 1.386 . S
C1364 C1366 1.391 . S
C1365 C1364 1.386 . S
C1365 C1369 1.393 . S
C1366 H1355 0.950 . S
C1366 C1364 1.391 . S
C1366 C1367 1.400 . S
C1367 C1361 1.491 . S
C1367 C1366 1.400 . S
C1367 C1368 1.398 . S
C1368 H1356 0.950 . S
C1368 C1367 1.398 . S
C1368 C1369 1.391 . S
C1369 H1357 0.950 . S
C1369 C1365 1.393 . S
C1369 C1368 1.391 . S
H1370 C1378 0.950 . S
H1371 C1383 0.950 . S
H1372 C1380 0.950 . S
H1373 C1382 0.950 . S
H1374 C1384 0.950 . S
H1375 C1386 0.950 . S
H1376 C1388 0.950 . S
H1377 C1389 0.950 . S
C1378 H1370 0.950 . S
C1378 C1379 1.386 . S
C1378 C1380 1.391 . S
C1379 C1378 1.386 . S
C1379 C1383 1.393 . S
C1380 H1372 0.950 . S
C1380 C1378 1.391 . S
C1380 C1381 1.400 . S
C1381 C1380 1.400 . S
C1381 C1382 1.398 . S
C1381 C1387 1.491 . S
C1382 H1373 0.950 . S
C1382 C1381 1.398 . S
C1382 C1383 1.391 . S
C1383 H1371 0.950 . S
C1383 C1379 1.393 . S
C1383 C1382 1.391 . S
C1384 H1374 0.950 . S
C1384 C1385 1.386 . S
C1384 C1386 1.391 . S
C1385 C1384 1.386 . S
C1385 C1389 1.393 . S
C1386 H1375 0.950 . S
C1386 C1384 1.391 . S
C1386 C1387 1.400 . S
C1387 C1381 1.491 . S
C1387 C1386 1.400 . S
C1387 C1388 1.398 . S
C1388 H1376 0.950 . S
C1388 C1387 1.398 . S
C1388 C1389 1.391 . S
C1389 H1377 0.950 . S
C1389 C1385 1.393 . S
C1389 C1388 1.391 . S
H1390 C1398 0.950 . S
H1391 C1403 0.950 . S
H1392 C1400 0.950 . S
H1393 C1402 0.950 . S
H1394 C1404 0.950 . S
H1395 C1406 0.950 . S
H1396 C1408 0.950 . S
H1397 C1409 0.950 . S
C1398 H1390 0.950 . S
C1398 C1399 1.386 . S
C1398 C1400 1.391 . S
C1399 C1398 1.386 . S
C1399 C1403 1.393 1_545 S
C1400 H1392 0.950 . S
C1400 C1398 1.391 . S
C1400 C1401 1.400 . S
C1401 C1400 1.400 . S
C1401 C1402 1.398 1_545 S
C1401 C1407 1.491 . S
C1402 H1393 0.950 . S
C1402 C1401 1.398 1_565 S
C1402 C1403 1.391 . S
C1403 H1391 0.950 . S
C1403 C1399 1.393 1_565 S
C1403 C1402 1.391 . S
C1404 H1394 0.950 . S
C1404 C1405 1.386 1_565 S
C1404 C1406 1.391 . S
C1405 C1404 1.386 1_545 S
C1405 C1409 1.393 . S
C1406 H1395 0.950 . S
C1406 C1404 1.391 . S
C1406 C1407 1.400 1_565 S
C1407 C1401 1.491 . S
C1407 C1406 1.400 1_545 S
C1407 C1408 1.398 . S
C1408 H1396 0.950 . S
C1408 C1407 1.398 . S
C1408 C1409 1.391 . S
C1409 H1397 0.950 . S
C1409 C1405 1.393 . S
C1409 C1408 1.391 . S
H1410 C1418 0.950 . S
H1411 C1423 0.950 1_565 S
H1412 C1420 0.950 . S
H1413 C1422 0.950 1_565 S
H1414 C1424 0.947 . S
H1415 C1426 0.942 1_565 S
H1416 C1428 0.950 . S
H1417 C1429 0.950 . S
C1418 H1410 0.950 . S
C1418 C1419 1.386 . S
C1418 C1420 1.391 . S
C1419 C1418 1.386 . S
C1419 C1423 1.393 . S
C1420 H1412 0.950 . S
C1420 C1418 1.391 . S
C1420 C1421 1.400 . S
C1421 C1420 1.400 . S
C1421 C1422 1.398 . S
C1421 C1427 1.491 . S
C1422 H1413 0.950 1_545 S
C1422 C1421 1.398 . S
C1422 C1423 1.391 . S
C1423 H1411 0.950 1_545 S
C1423 C1419 1.393 . S
C1423 C1422 1.391 . S
C1424 H1414 0.947 . S
C1424 C1425 1.386 . S
C1424 C1426 1.391 . S
C1425 C1424 1.386 . S
C1425 C1429 1.393 . S
C1426 H1415 0.942 1_545 S
C1426 C1424 1.391 . S
C1426 C1427 1.400 . S
C1427 C1421 1.491 . S
C1427 C1426 1.400 . S
C1427 C1428 1.398 . S
C1428 H1416 0.950 . S
C1428 C1427 1.398 . S
C1428 C1429 1.391 . S
C1429 H1417 0.950 . S
C1429 C1425 1.393 . S
C1429 C1428 1.391 . S
H1430 C1438 0.950 . S
H1431 C1443 0.950 . S
H1432 C1440 0.950 . S
H1433 C1442 0.950 . S
H1434 C1444 0.950 . S
H1435 C1446 0.950 . S
H1436 C1448 0.950 . S
H1437 C1449 0.950 . S
C1438 H1430 0.950 . S
C1438 C1439 1.386 . S
C1438 C1440 1.391 . S
C1439 C1438 1.386 . S
C1439 C1443 1.393 1_455 S
C1440 H1432 0.950 . S
C1440 C1438 1.391 . S
C1440 C1441 1.400 . S
C1441 C1440 1.400 . S
C1441 C1442 1.398 1_455 S
C1441 C1447 1.491 . S
C1442 H1433 0.950 . S
C1442 C1441 1.398 1_655 S
C1442 C1443 1.391 . S
C1443 H1431 0.950 . S
C1443 C1439 1.393 1_655 S
C1443 C1442 1.391 . S
C1444 H1434 0.950 . S
C1444 C1445 1.386 1_655 S
C1444 C1446 1.391 . S
C1445 C1444 1.386 1_455 S
C1445 C1449 1.393 . S
C1446 H1435 0.950 . S
C1446 C1444 1.391 . S
C1446 C1447 1.400 1_655 S
C1447 C1441 1.491 . S
C1447 C1446 1.400 1_455 S
C1447 C1448 1.398 . S
C1448 H1436 0.950 . S
C1448 C1447 1.398 . S
C1448 C1449 1.391 . S
C1449 H1437 0.950 . S
C1449 C1445 1.393 . S
C1449 C1448 1.391 . S
H1450 C1458 0.950 . S
H1451 C1463 0.950 . S
H1452 C1460 0.950 . S
H1453 C1462 0.950 . S
H1454 C1464 0.950 . S
H1455 C1466 0.950 . S
H1456 C1468 0.950 . S
H1457 C1469 0.950 . S
C1458 H1450 0.950 . S
C1458 C1459 1.386 . S
C1458 C1460 1.391 . S
C1459 C1458 1.386 . S
C1459 C1463 1.393 . S
C1460 H1452 0.950 . S
C1460 C1458 1.391 . S
C1460 C1461 1.400 . S
C1461 C1460 1.400 . S
C1461 C1462 1.398 . S
C1461 C1467 1.491 . S
C1462 H1453 0.950 . S
C1462 C1461 1.398 . S
C1462 C1463 1.391 . S
C1463 H1451 0.950 . S
C1463 C1459 1.393 . S
C1463 C1462 1.391 . S
C1464 H1454 0.950 . S
C1464 C1465 1.386 . S
C1464 C1466 1.391 . S
C1465 C1464 1.386 . S
C1465 C1469 1.393 . S
C1466 H1455 0.950 . S
C1466 C1464 1.391 . S
C1466 C1467 1.400 . S
C1467 C1461 1.491 . S
C1467 C1466 1.400 . S
C1467 C1468 1.398 . S
C1468 H1456 0.950 . S
C1468 C1467 1.398 . S
C1468 C1469 1.391 . S
C1469 H1457 0.950 . S
C1469 C1465 1.393 . S
C1469 C1468 1.391 . S
H1470 C1478 0.950 . S
H1471 C1483 0.950 . S
H1472 C1480 0.950 . S
H1473 C1482 0.950 . S
H1474 C1484 0.950 . S
H1475 C1486 0.950 . S
H1476 C1488 0.950 . S
H1477 C1489 0.950 . S
C1478 H1470 0.950 . S
C1478 C1479 1.386 . S
C1478 C1480 1.391 . S
C1479 C1478 1.386 . S
C1479 C1483 1.393 . S
C1480 H1472 0.950 . S
C1480 C1478 1.391 . S
C1480 C1481 1.400 . S
C1481 C1480 1.400 . S
C1481 C1482 1.398 . S
C1481 C1487 1.491 . S
C1482 H1473 0.950 . S
C1482 C1481 1.398 . S
C1482 C1483 1.391 . S
C1483 H1471 0.950 . S
C1483 C1479 1.393 . S
C1483 C1482 1.391 . S
C1484 H1474 0.950 . S
C1484 C1485 1.386 . S
C1484 C1486 1.391 . S
C1485 C1484 1.386 . S
C1485 C1489 1.393 . S
C1486 H1475 0.950 . S
C1486 C1484 1.391 . S
C1486 C1487 1.400 . S
C1487 C1481 1.491 . S
C1487 C1486 1.400 . S
C1487 C1488 1.398 . S
C1488 H1476 0.950 . S
C1488 C1487 1.398 . S
C1488 C1489 1.391 . S
C1489 H1477 0.950 . S
C1489 C1485 1.393 . S
C1489 C1488 1.391 . S
H1490 C1498 0.950 . S
H1491 C1503 0.950 . S
H1492 C1500 0.950 . S
H1493 C1502 0.950 . S
H1494 C1504 0.950 . S
H1495 C1506 0.950 . S
H1496 C1508 0.950 . S
H1497 C1509 0.950 . S
C1498 H1490 0.950 . S
C1498 C1499 1.386 . S
C1498 C1500 1.391 . S
C1499 C1498 1.386 . S
C1499 C1503 1.393 . S
C1500 H1492 0.950 . S
C1500 C1498 1.391 . S
C1500 C1501 1.400 . S
C1501 C1500 1.400 . S
C1501 C1502 1.398 . S
C1501 C1507 1.491 . S
C1502 H1493 0.950 . S
C1502 C1501 1.398 . S
C1502 C1503 1.391 . S
C1503 H1491 0.950 . S
C1503 C1499 1.393 . S
C1503 C1502 1.391 . S
C1504 H1494 0.950 . S
C1504 C1505 1.386 . S
C1504 C1506 1.391 . S
C1505 C1504 1.386 . S
C1505 C1509 1.393 . S
C1506 H1495 0.950 . S
C1506 C1504 1.391 . S
C1506 C1507 1.400 . S
C1507 C1501 1.491 . S
C1507 C1506 1.400 . S
C1507 C1508 1.398 . S
C1508 H1496 0.950 . S
C1508 C1507 1.398 . S
C1508 C1509 1.391 . S
C1509 H1497 0.950 . S
C1509 C1505 1.393 . S
C1509 C1508 1.391 . S
H1510 C1518 0.950 . S
H1511 C1523 0.950 . S
H1512 C1520 0.950 . S
H1513 C1522 0.950 . S
H1514 C1524 0.950 . S
H1515 C1526 0.950 . S
H1516 C1528 0.950 . S
H1517 C1529 0.950 . S
C1518 H1510 0.950 . S
C1518 C1519 1.386 . S
C1518 C1520 1.391 . S
C1519 C1518 1.386 . S
C1519 C1523 1.393 . S
C1520 H1512 0.950 . S
C1520 C1518 1.391 . S
C1520 C1521 1.400 . S
C1521 C1520 1.400 . S
C1521 C1522 1.398 . S
C1521 C1527 1.491 . S
C1522 H1513 0.950 . S
C1522 C1521 1.398 . S
C1522 C1523 1.391 . S
C1523 H1511 0.950 . S
C1523 C1519 1.393 . S
C1523 C1522 1.391 . S
C1524 H1514 0.950 . S
C1524 C1525 1.386 . S
C1524 C1526 1.391 . S
C1525 C1524 1.386 . S
C1525 C1529 1.393 . S
C1526 H1515 0.950 . S
C1526 C1524 1.391 . S
C1526 C1527 1.400 . S
C1527 C1521 1.491 . S
C1527 C1526 1.400 . S
C1527 C1528 1.398 . S
C1528 H1516 0.950 . S
C1528 C1527 1.398 . S
C1528 C1529 1.391 . S
C1529 H1517 0.950 . S
C1529 C1525 1.393 . S
C1529 C1528 1.391 . S
H1530 C1538 0.950 . S
H1531 C1543 0.950 . S
H1532 C1540 0.950 . S
H1533 C1542 0.950 . S
H1534 C1544 0.950 . S
H1535 C1546 0.950 . S
H1536 C1548 0.950 . S
H1537 C1549 0.950 . S
C1538 H1530 0.950 . S
C1538 C1539 1.386 1_565 S
C1538 C1540 1.391 . S
C1539 C1538 1.386 1_545 S
C1539 C1543 1.393 . S
C1540 H1532 0.950 . S
C1540 C1538 1.391 . S
C1540 C1541 1.400 1_565 S
C1541 C1540 1.400 1_545 S
C1541 C1542 1.398 . S
C1541 C1547 1.491 . S
C1542 H1533 0.950 . S
C1542 C1541 1.398 . S
C1542 C1543 1.391 . S
C1543 H1531 0.950 . S
C1543 C1539 1.393 . S
C1543 C1542 1.391 . S
C1544 H1534 0.950 . S
C1544 C1545 1.386 . S
C1544 C1546 1.391 . S
C1545 C1544 1.386 . S
C1545 C1549 1.393 1_545 S
C1546 H1535 0.950 . S
C1546 C1544 1.391 . S
C1546 C1547 1.400 . S
C1547 C1541 1.491 . S
C1547 C1546 1.400 . S
C1547 C1548 1.398 1_545 S
C1548 H1536 0.950 . S
C1548 C1547 1.398 1_565 S
C1548 C1549 1.391 . S
C1549 H1537 0.950 . S
C1549 C1545 1.393 1_565 S
C1549 C1548 1.391 . S
H1550 C1558 0.985 . S
H1551 C1563 0.950 . S
H1552 C1560 0.956 . S
H1553 C1562 0.950 . S
H1554 C1564 0.950 . S
H1555 C1566 0.950 . S
H1556 C1568 0.928 1_655 S
H1557 C1569 0.925 1_655 S
C1558 H1550 0.985 . S
C1558 C1559 1.365 1_655 S
C1558 C1560 1.382 . S
C1559 C1558 1.365 1_455 S
C1559 C1563 1.393 . S
C1560 H1552 0.956 . S
C1560 C1558 1.382 . S
C1560 C1561 1.390 1_655 S
C1561 C1560 1.390 1_455 S
C1561 C1562 1.398 . S
C1561 C1567 1.491 . S
C1562 H1553 0.950 . S
C1562 C1561 1.398 . S
C1562 C1563 1.391 . S
C1563 H1551 0.950 . S
C1563 C1559 1.393 . S
C1563 C1562 1.391 . S
C1564 H1554 0.950 . S
C1564 C1565 1.386 . S
C1564 C1566 1.391 . S
C1565 C1564 1.386 . S
C1565 C1569 1.435 . S
C1566 H1555 0.950 . S
C1566 C1564 1.391 . S
C1566 C1567 1.400 . S
C1567 C1561 1.491 . S
C1567 C1566 1.400 . S
C1567 C1568 1.412 . S
C1568 H1556 0.928 1_455 S
C1568 C1567 1.412 . S
C1568 C1569 1.383 . S
C1569 H1557 0.925 1_455 S
C1569 C1565 1.435 . S
C1569 C1568 1.383 . S
H1570 C1578 0.950 . S
H1571 C1583 0.950 . S
H1572 C1580 0.950 . S
H1573 C1582 0.950 . S
H1574 C1584 0.950 . S
H1575 C1586 0.950 . S
H1576 C1588 0.950 . S
H1577 C1589 0.950 . S
C1578 H1570 0.950 . S
C1578 C1579 1.386 . S
C1578 C1580 1.391 . S
C1579 C1578 1.386 . S
C1579 C1583 1.393 . S
C1580 H1572 0.950 . S
C1580 C1578 1.391 . S
C1580 C1581 1.400 . S
C1581 C1580 1.400 . S
C1581 C1582 1.398 . S
C1581 C1587 1.491 . S
C1582 H1573 0.950 . S
C1582 C1581 1.398 . S
C1582 C1583 1.391 . S
C1583 H1571 0.950 . S
C1583 C1579 1.393 . S
C1583 C1582 1.391 . S
C1584 H1574 0.950 . S
C1584 C1585 1.386 . S
C1584 C1586 1.391 . S
C1585 C1584 1.386 . S
C1585 C1589 1.393 . S
C1586 H1575 0.950 . S
C1586 C1584 1.391 . S
C1586 C1587 1.400 . S
C1587 C1581 1.491 . S
C1587 C1586 1.400 . S
C1587 C1588 1.398 . S
C1588 H1576 0.950 . S
C1588 C1587 1.398 . S
C1588 C1589 1.391 . S
C1589 H1577 0.950 . S
C1589 C1585 1.393 . S
C1589 C1588 1.391 . S
H1590 C1598 0.950 . S
H1591 C1603 0.950 . S
H1592 C1600 0.950 . S
H1593 C1602 0.950 . S
H1594 C1604 0.950 . S
H1595 C1606 0.950 . S
H1596 C1608 0.950 . S
H1597 C1609 0.950 . S
C1598 H1590 0.950 . S
C1598 C1599 1.386 . S
C1598 C1600 1.391 . S
C1599 C1598 1.386 . S
C1599 C1603 1.393 . S
C1600 H1592 0.950 . S
C1600 C1598 1.391 . S
C1600 C1601 1.400 . S
C1601 C1600 1.400 . S
C1601 C1602 1.398 . S
C1601 C1607 1.491 . S
C1602 H1593 0.950 . S
C1602 C1601 1.398 . S
C1602 C1603 1.391 . S
C1603 H1591 0.950 . S
C1603 C1599 1.393 . S
C1603 C1602 1.391 . S
C1604 H1594 0.950 . S
C1604 C1605 1.386 . S
C1604 C1606 1.391 . S
C1605 C1604 1.386 . S
C1605 C1609 1.393 . S
C1606 H1595 0.950 . S
C1606 C1604 1.391 . S
C1606 C1607 1.400 . S
C1607 C1601 1.491 . S
C1607 C1606 1.400 . S
C1607 C1608 1.398 . S
C1608 H1596 0.950 . S
C1608 C1607 1.398 . S
C1608 C1609 1.391 . S
C1609 H1597 0.950 . S
C1609 C1605 1.393 . S
C1609 C1608 1.391 . S
H1610 C1618 0.950 . S
H1611 C1623 0.950 . S
H1612 C1620 0.950 . S
H1613 C1622 0.950 . S
H1614 C1624 0.950 . S
H1615 C1626 0.950 . S
H1616 C1628 0.950 . S
H1617 C1629 0.950 . S
C1618 H1610 0.950 . S
C1618 C1619 1.386 . S
C1618 C1620 1.391 . S
C1619 C1618 1.386 . S
C1619 C1623 1.393 . S
C1620 H1612 0.950 . S
C1620 C1618 1.391 . S
C1620 C1621 1.400 . S
C1621 C1620 1.400 . S
C1621 C1622 1.398 . S
C1621 C1627 1.491 . S
C1622 H1613 0.950 . S
C1622 C1621 1.398 . S
C1622 C1623 1.391 . S
C1623 H1611 0.950 . S
C1623 C1619 1.393 . S
C1623 C1622 1.391 . S
C1624 H1614 0.950 . S
C1624 C1625 1.386 . S
C1624 C1626 1.391 . S
C1625 C1624 1.386 . S
C1625 C1629 1.393 . S
C1626 H1615 0.950 . S
C1626 C1624 1.391 . S
C1626 C1627 1.400 . S
C1627 C1621 1.491 . S
C1627 C1626 1.400 . S
C1627 C1628 1.398 . S
C1628 H1616 0.950 . S
C1628 C1627 1.398 . S
C1628 C1629 1.391 . S
C1629 H1617 0.950 . S
C1629 C1625 1.393 . S
C1629 C1628 1.391 . S
H1630 C1638 0.950 . S
H1631 C1643 0.950 . S
H1632 C1640 0.950 . S
H1633 C1642 0.950 . S
H1634 C1644 0.950 . S
H1635 C1646 0.950 . S
H1636 C1648 0.950 . S
H1637 C1649 0.950 . S
C1638 H1630 0.950 . S
C1638 C1639 1.386 . S
C1638 C1640 1.391 . S
C1639 C1638 1.386 . S
C1639 C1643 1.393 . S
C1640 H1632 0.950 . S
C1640 C1638 1.391 . S
C1640 C1641 1.400 . S
C1641 C1640 1.400 . S
C1641 C1642 1.398 . S
C1641 C1647 1.491 . S
C1642 H1633 0.950 . S
C1642 C1641 1.398 . S
C1642 C1643 1.391 . S
C1643 H1631 0.950 . S
C1643 C1639 1.393 . S
C1643 C1642 1.391 . S
C1644 H1634 0.950 . S
C1644 C1645 1.386 . S
C1644 C1646 1.391 . S
C1645 C1644 1.386 . S
C1645 C1649 1.393 . S
C1646 H1635 0.950 . S
C1646 C1644 1.391 . S
C1646 C1647 1.400 . S
C1647 C1641 1.491 . S
C1647 C1646 1.400 . S
C1647 C1648 1.398 . S
C1648 H1636 0.950 . S
C1648 C1647 1.398 . S
C1648 C1649 1.391 . S
C1649 H1637 0.950 . S
C1649 C1645 1.393 . S
C1649 C1648 1.391 . S
H1650 C1658 0.950 . S
H1651 C1663 0.950 . S
H1652 C1660 0.950 . S
H1653 C1662 0.950 . S
H1654 C1664 0.950 . S
H1655 C1666 0.950 . S
H1656 C1668 0.950 . S
H1657 C1669 0.950 . S
C1658 H1650 0.950 . S
C1658 C1659 1.386 . S
C1658 C1660 1.391 . S
C1659 C1658 1.386 . S
C1659 C1663 1.393 . S
C1660 H1652 0.950 . S
C1660 C1658 1.391 . S
C1660 C1661 1.400 . S
C1661 C1660 1.400 . S
C1661 C1662 1.398 . S
C1661 C1667 1.491 . S
C1662 H1653 0.950 . S
C1662 C1661 1.398 . S
C1662 C1663 1.391 . S
C1663 H1651 0.950 . S
C1663 C1659 1.393 . S
C1663 C1662 1.391 . S
C1664 H1654 0.950 . S
C1664 C1665 1.386 . S
C1664 C1666 1.391 . S
C1665 C1664 1.386 . S
C1665 C1669 1.393 . S
C1666 H1655 0.950 . S
C1666 C1664 1.391 . S
C1666 C1667 1.400 . S
C1667 C1661 1.491 . S
C1667 C1666 1.400 . S
C1667 C1668 1.398 . S
C1668 H1656 0.950 . S
C1668 C1667 1.398 . S
C1668 C1669 1.391 . S
C1669 H1657 0.950 . S
C1669 C1665 1.393 . S
C1669 C1668 1.391 . S
H1670 C1678 0.950 . S
H1671 C1683 0.950 . S
H1672 C1680 0.950 . S
H1673 C1682 0.950 . S
H1674 C1684 0.950 . S
H1675 C1686 0.950 . S
H1676 C1688 0.950 . S
H1677 C1689 0.950 . S
C1678 H1670 0.950 . S
C1678 C1679 1.386 . S
C1678 C1680 1.391 . S
C1679 C1678 1.386 . S
C1679 C1683 1.393 . S
C1680 H1672 0.950 . S
C1680 C1678 1.391 . S
C1680 C1681 1.400 . S
C1681 C1680 1.400 . S
C1681 C1682 1.398 . S
C1681 C1687 1.491 . S
C1682 H1673 0.950 . S
C1682 C1681 1.398 . S
C1682 C1683 1.391 . S
C1683 H1671 0.950 . S
C1683 C1679 1.393 . S
C1683 C1682 1.391 . S
C1684 H1674 0.950 . S
C1684 C1685 1.386 . S
C1684 C1686 1.391 . S
C1685 C1684 1.386 . S
C1685 C1689 1.393 . S
C1686 H1675 0.950 . S
C1686 C1684 1.391 . S
C1686 C1687 1.400 . S
C1687 C1681 1.491 . S
C1687 C1686 1.400 . S
C1687 C1688 1.398 . S
C1688 H1676 0.950 . S
C1688 C1687 1.398 . S
C1688 C1689 1.391 . S
C1689 H1677 0.950 . S
C1689 C1685 1.393 . S
C1689 C1688 1.391 . S
H1690 C1698 0.950 . S
H1691 C1703 0.950 . S
H1692 C1700 0.950 . S
H1693 C1702 0.950 . S
H1694 C1704 0.950 . S
H1695 C1706 0.950 . S
H1696 C1708 0.950 . S
H1697 C1709 0.950 . S
C1698 H1690 0.950 . S
C1698 C1699 1.386 . S
C1698 C1700 1.391 . S
C1699 C1698 1.386 . S
C1699 C1703 1.393 . S
C1700 H1692 0.950 . S
C1700 C1698 1.391 . S
C1700 C1701 1.400 . S
C1701 C1700 1.400 . S
C1701 C1702 1.398 . S
C1701 C1707 1.491 . S
C1702 H1693 0.950 . S
C1702 C1701 1.398 . S
C1702 C1703 1.391 . S
C1703 H1691 0.950 . S
C1703 C1699 1.393 . S
C1703 C1702 1.391 . S
C1704 H1694 0.950 . S
C1704 C1705 1.386 . S
C1704 C1706 1.391 . S
C1705 C1704 1.386 . S
C1705 C1709 1.393 . S
C1706 H1695 0.950 . S
C1706 C1704 1.391 . S
C1706 C1707 1.400 . S
C1707 C1701 1.491 . S
C1707 C1706 1.400 . S
C1707 C1708 1.398 . S
C1708 H1696 0.950 . S
C1708 C1707 1.398 . S
C1708 C1709 1.391 . S
C1709 H1697 0.950 . S
C1709 C1705 1.393 . S
C1709 C1708 1.391 . S
H1710 C1718 0.950 . S
H1711 C1723 0.950 . S
H1712 C1720 0.950 . S
H1713 C1722 0.950 . S
H1714 C1724 0.950 . S
H1715 C1726 0.950 . S
H1716 C1728 0.950 . S
H1717 C1729 0.950 . S
C1718 H1710 0.950 . S
C1718 C1719 1.386 . S
C1718 C1720 1.391 . S
C1719 C1718 1.386 . S
C1719 C1723 1.393 . S
C1720 H1712 0.950 . S
C1720 C1718 1.391 . S
C1720 C1721 1.400 . S
C1721 C1720 1.400 . S
C1721 C1722 1.398 . S
C1721 C1727 1.491 . S
C1722 H1713 0.950 . S
C1722 C1721 1.398 . S
C1722 C1723 1.391 . S
C1723 H1711 0.950 . S
C1723 C1719 1.393 . S
C1723 C1722 1.391 . S
C1724 H1714 0.950 . S
C1724 C1725 1.386 . S
C1724 C1726 1.391 . S
C1725 C1724 1.386 . S
C1725 C1729 1.393 . S
C1726 H1715 0.950 . S
C1726 C1724 1.391 . S
C1726 C1727 1.400 . S
C1727 C1721 1.491 . S
C1727 C1726 1.400 . S
C1727 C1728 1.398 . S
C1728 H1716 0.950 . S
C1728 C1727 1.398 . S
C1728 C1729 1.391 . S
C1729 H1717 0.950 . S
C1729 C1725 1.393 . S
C1729 C1728 1.391 . S
H1730 C1738 0.950 . S
H1731 C1743 0.950 . S
H1732 C1740 0.950 . S
H1733 C1742 0.950 . S
H1734 C1744 0.950 . S
H1735 C1746 0.950 . S
H1736 C1748 0.950 . S
H1737 C1749 0.950 . S
C1738 H1730 0.950 . S
C1738 C1739 1.386 . S
C1738 C1740 1.391 . S
C1739 C1738 1.386 . S
C1739 C1743 1.393 . S
C1740 H1732 0.950 . S
C1740 C1738 1.391 . S
C1740 C1741 1.400 . S
C1741 C1740 1.400 . S
C1741 C1742 1.398 . S
C1741 C1747 1.491 . S
C1742 H1733 0.950 . S
C1742 C1741 1.398 . S
C1742 C1743 1.391 . S
C1743 H1731 0.950 . S
C1743 C1739 1.393 . S
C1743 C1742 1.391 . S
C1744 H1734 0.950 . S
C1744 C1745 1.386 . S
C1744 C1746 1.391 . S
C1745 C1744 1.386 . S
C1745 C1749 1.393 . S
C1746 H1735 0.950 . S
C1746 C1744 1.391 . S
C1746 C1747 1.400 . S
C1747 C1741 1.491 . S
C1747 C1746 1.400 . S
C1747 C1748 1.398 . S
C1748 H1736 0.950 . S
C1748 C1747 1.398 . S
C1748 C1749 1.391 . S
C1749 H1737 0.950 . S
C1749 C1745 1.393 . S
C1749 C1748 1.391 . S
H1750 C1758 0.950 . S
H1751 C1763 0.950 . S
H1752 C1760 0.950 . S
H1753 C1762 0.950 . S
H1754 C1764 0.950 . S
H1755 C1766 0.950 . S
H1756 C1768 0.950 . S
H1757 C1769 0.950 . S
C1758 H1750 0.950 . S
C1758 C1759 1.386 . S
C1758 C1760 1.391 . S
C1759 C1758 1.386 . S
C1759 C1763 1.393 . S
C1760 H1752 0.950 . S
C1760 C1758 1.391 . S
C1760 C1761 1.400 . S
C1761 C1760 1.400 . S
C1761 C1762 1.398 . S
C1761 C1767 1.491 . S
C1762 H1753 0.950 . S
C1762 C1761 1.398 . S
C1762 C1763 1.391 . S
C1763 H1751 0.950 . S
C1763 C1759 1.393 . S
C1763 C1762 1.391 . S
C1764 H1754 0.950 . S
C1764 C1765 1.386 . S
C1764 C1766 1.391 . S
C1765 C1764 1.386 . S
C1765 C1769 1.393 . S
C1766 H1755 0.950 . S
C1766 C1764 1.391 . S
C1766 C1767 1.400 . S
C1767 C1761 1.491 . S
C1767 C1766 1.400 . S
C1767 C1768 1.398 . S
C1768 H1756 0.950 . S
C1768 C1767 1.398 . S
C1768 C1769 1.391 . S
C1769 H1757 0.950 . S
C1769 C1765 1.393 . S
C1769 C1768 1.391 . S
H1770 C1778 0.950 . S
H1771 C1783 0.950 . S
H1772 C1780 0.950 . S
H1773 C1782 0.950 . S
H1774 C1784 0.950 . S
H1775 C1786 0.950 . S
H1776 C1788 0.950 . S
H1777 C1789 0.950 . S
C1778 H1770 0.950 . S
C1778 C1779 1.386 . S
C1778 C1780 1.391 . S
C1779 C1778 1.386 . S
C1779 C1783 1.393 . S
C1780 H1772 0.950 . S
C1780 C1778 1.391 . S
C1780 C1781 1.400 . S
C1781 C1780 1.400 . S
C1781 C1782 1.398 . S
C1781 C1787 1.491 . S
C1782 H1773 0.950 . S
C1782 C1781 1.398 . S
C1782 C1783 1.391 . S
C1783 H1771 0.950 . S
C1783 C1779 1.393 . S
C1783 C1782 1.391 . S
C1784 H1774 0.950 . S
C1784 C1785 1.386 . S
C1784 C1786 1.391 . S
C1785 C1784 1.386 . S
C1785 C1789 1.393 . S
C1786 H1775 0.950 . S
C1786 C1784 1.391 . S
C1786 C1787 1.400 . S
C1787 C1781 1.491 . S
C1787 C1786 1.400 . S
C1787 C1788 1.398 . S
C1788 H1776 0.950 . S
C1788 C1787 1.398 . S
C1788 C1789 1.391 . S
C1789 H1777 0.950 . S
C1789 C1785 1.393 . S
C1789 C1788 1.391 . S
H1790 C1798 0.950 . S
H1791 C1803 0.950 . S
H1792 C1800 0.950 . S
H1793 C1802 0.950 . S
H1794 C1804 0.950 . S
H1795 C1806 0.950 . S
H1796 C1808 0.950 . S
H1797 C1809 0.950 . S
C1798 H1790 0.950 . S
C1798 C1799 1.386 . S
C1798 C1800 1.391 . S
C1799 C1798 1.386 . S
C1799 C1803 1.393 . S
C1800 H1792 0.950 . S
C1800 C1798 1.391 . S
C1800 C1801 1.400 . S
C1801 C1800 1.400 . S
C1801 C1802 1.398 . S
C1801 C1807 1.491 . S
C1802 H1793 0.950 . S
C1802 C1801 1.398 . S
C1802 C1803 1.391 . S
C1803 H1791 0.950 . S
C1803 C1799 1.393 . S
C1803 C1802 1.391 . S
C1804 H1794 0.950 . S
C1804 C1805 1.386 . S
C1804 C1806 1.391 . S
C1805 C1804 1.386 . S
C1805 C1809 1.393 . S
C1806 H1795 0.950 . S
C1806 C1804 1.391 . S
C1806 C1807 1.400 . S
C1807 C1801 1.491 . S
C1807 C1806 1.400 . S
C1807 C1808 1.398 . S
C1808 H1796 0.950 . S
C1808 C1807 1.398 . S
C1808 C1809 1.391 . S
C1809 H1797 0.950 . S
C1809 C1805 1.393 . S
C1809 C1808 1.391 . S
H1810 C1818 0.950 . S
H1811 C1823 0.950 . S
H1812 C1820 0.950 . S
H1813 C1822 0.950 . S
H1814 C1824 0.950 . S
H1815 C1826 0.950 . S
H1816 C1828 0.950 . S
H1817 C1829 0.950 . S
C1818 H1810 0.950 . S
C1818 C1819 1.386 . S
C1818 C1820 1.391 . S
C1819 C1818 1.386 . S
C1819 C1823 1.393 . S
C1820 H1812 0.950 . S
C1820 C1818 1.391 . S
C1820 C1821 1.400 . S
C1821 C1820 1.400 . S
C1821 C1822 1.398 . S
C1821 C1827 1.491 . S
C1822 H1813 0.950 . S
C1822 C1821 1.398 . S
C1822 C1823 1.391 . S
C1823 H1811 0.950 . S
C1823 C1819 1.393 . S
C1823 C1822 1.391 . S
C1824 H1814 0.950 . S
C1824 C1825 1.386 . S
C1824 C1826 1.391 . S
C1825 C1824 1.386 . S
C1825 C1829 1.393 . S
C1826 H1815 0.950 . S
C1826 C1824 1.391 . S
C1826 C1827 1.400 . S
C1827 C1821 1.491 . S
C1827 C1826 1.400 . S
C1827 C1828 1.398 . S
C1828 H1816 0.950 . S
C1828 C1827 1.398 . S
C1828 C1829 1.391 . S
C1829 H1817 0.950 . S
C1829 C1825 1.393 . S
C1829 C1828 1.391 . S
H1830 C1838 0.950 . S
H1831 C1843 0.950 . S
H1832 C1840 0.950 . S
H1833 C1842 0.950 . S
H1834 C1844 0.950 . S
H1835 C1846 0.950 . S
H1836 C1848 0.950 . S
H1837 C1849 0.950 . S
C1838 H1830 0.950 . S
C1838 C1839 1.386 . S
C1838 C1840 1.391 . S
C1839 C1838 1.386 . S
C1839 C1843 1.393 . S
C1840 H1832 0.950 . S
C1840 C1838 1.391 . S
C1840 C1841 1.400 . S
C1841 C1840 1.400 . S
C1841 C1842 1.398 . S
C1841 C1847 1.491 . S
C1842 H1833 0.950 . S
C1842 C1841 1.398 . S
C1842 C1843 1.391 . S
C1843 H1831 0.950 . S
C1843 C1839 1.393 . S
C1843 C1842 1.391 . S
C1844 H1834 0.950 . S
C1844 C1845 1.386 . S
C1844 C1846 1.391 . S
C1845 C1844 1.386 . S
C1845 C1849 1.393 . S
C1846 H1835 0.950 . S
C1846 C1844 1.391 . S
C1846 C1847 1.400 . S
C1847 C1841 1.491 . S
C1847 C1846 1.400 . S
C1847 C1848 1.398 . S
C1848 H1836 0.950 . S
C1848 C1847 1.398 . S
C1848 C1849 1.391 . S
C1849 H1837 0.950 . S
C1849 C1845 1.393 . S
C1849 C1848 1.391 . S
H1850 C1858 0.950 . S
H1851 C1863 0.950 . S
H1852 C1860 0.950 . S
H1853 C1862 0.950 . S
H1854 C1864 0.950 . S
H1855 C1866 0.950 . S
H1856 C1868 0.950 . S
H1857 C1869 0.950 . S
C1858 H1850 0.950 . S
C1858 C1859 1.386 . S
C1858 C1860 1.391 . S
C1859 C1858 1.386 . S
C1859 C1863 1.393 . S
C1860 H1852 0.950 . S
C1860 C1858 1.391 . S
C1860 C1861 1.400 . S
C1861 C1860 1.400 . S
C1861 C1862 1.398 . S
C1861 C1867 1.491 . S
C1862 H1853 0.950 . S
C1862 C1861 1.398 . S
C1862 C1863 1.391 . S
C1863 H1851 0.950 . S
C1863 C1859 1.393 . S
C1863 C1862 1.391 . S
C1864 H1854 0.950 . S
C1864 C1865 1.386 . S
C1864 C1866 1.391 . S
C1865 C1864 1.386 . S
C1865 C1869 1.393 . S
C1866 H1855 0.950 . S
C1866 C1864 1.391 . S
C1866 C1867 1.400 . S
C1867 C1861 1.491 . S
C1867 C1866 1.400 . S
C1867 C1868 1.398 . S
C1868 H1856 0.950 . S
C1868 C1867 1.398 . S
C1868 C1869 1.391 . S
C1869 H1857 0.950 . S
C1869 C1865 1.393 . S
C1869 C1868 1.391 . S
H1870 C1878 0.950 . S
H1871 C1883 0.950 . S
H1872 C1880 0.950 . S
H1873 C1882 0.950 . S
H1874 C1884 0.950 . S
H1875 C1886 0.950 . S
H1876 C1888 0.950 . S
H1877 C1889 0.950 . S
C1878 H1870 0.950 . S
C1878 C1879 1.386 . S
C1878 C1880 1.391 . S
C1879 C1878 1.386 . S
C1879 C1883 1.393 . S
C1880 H1872 0.950 . S
C1880 C1878 1.391 . S
C1880 C1881 1.400 . S
C1881 C1880 1.400 . S
C1881 C1882 1.398 . S
C1881 C1887 1.491 . S
C1882 H1873 0.950 . S
C1882 C1881 1.398 . S
C1882 C1883 1.391 . S
C1883 H1871 0.950 . S
C1883 C1879 1.393 . S
C1883 C1882 1.391 . S
C1884 H1874 0.950 . S
C1884 C1885 1.386 . S
C1884 C1886 1.391 . S
C1885 C1884 1.386 . S
C1885 C1889 1.393 . S
C1886 H1875 0.950 . S
C1886 C1884 1.391 . S
C1886 C1887 1.400 . S
C1887 C1881 1.491 . S
C1887 C1886 1.400 . S
C1887 C1888 1.398 . S
C1888 H1876 0.950 . S
C1888 C1887 1.398 . S
C1888 C1889 1.391 . S
C1889 H1877 0.950 . S
C1889 C1885 1.393 . S
C1889 C1888 1.391 . S
H1890 C1898 0.950 . S
H1891 C1903 0.950 . S
H1892 C1900 0.950 . S
H1893 C1902 0.950 . S
H1894 C1904 0.950 . S
H1895 C1906 0.950 . S
H1896 C1908 0.950 . S
H1897 C1909 0.950 . S
C1898 H1890 0.950 . S
C1898 C1899 1.386 . S
C1898 C1900 1.391 . S
C1899 C1898 1.386 . S
C1899 C1903 1.393 . S
C1900 H1892 0.950 . S
C1900 C1898 1.391 . S
C1900 C1901 1.400 . S
C1901 C1900 1.400 . S
C1901 C1902 1.398 . S
C1901 C1907 1.491 . S
C1902 H1893 0.950 . S
C1902 C1901 1.398 . S
C1902 C1903 1.391 . S
C1903 H1891 0.950 . S
C1903 C1899 1.393 . S
C1903 C1902 1.391 . S
C1904 H1894 0.950 . S
C1904 C1905 1.386 . S
C1904 C1906 1.391 . S
C1905 C1904 1.386 . S
C1905 C1909 1.393 . S
C1906 H1895 0.950 . S
C1906 C1904 1.391 . S
C1906 C1907 1.400 . S
C1907 C1901 1.491 . S
C1907 C1906 1.400 . S
C1907 C1908 1.398 . S
C1908 H1896 0.950 . S
C1908 C1907 1.398 . S
C1908 C1909 1.391 . S
C1909 H1897 0.950 . S
C1909 C1905 1.393 . S
C1909 C1908 1.391 . S
H1910 C1918 0.950 . S
H1911 C1923 0.950 . S
H1912 C1920 0.950 . S
H1913 C1922 0.950 . S
H1914 C1924 0.950 . S
H1915 C1926 0.950 . S
H1916 C1928 0.950 . S
H1917 C1929 0.950 . S
C1918 H1910 0.950 . S
C1918 C1919 1.386 . S
C1918 C1920 1.391 . S
C1919 C1918 1.386 . S
C1919 C1923 1.393 . S
C1920 H1912 0.950 . S
C1920 C1918 1.391 . S
C1920 C1921 1.400 . S
C1921 C1920 1.400 . S
C1921 C1922 1.398 . S
C1921 C1927 1.491 . S
C1922 H1913 0.950 . S
C1922 C1921 1.398 . S
C1922 C1923 1.391 . S
C1923 H1911 0.950 . S
C1923 C1919 1.393 . S
C1923 C1922 1.391 . S
C1924 H1914 0.950 . S
C1924 C1925 1.386 . S
C1924 C1926 1.391 . S
C1925 C1924 1.386 . S
C1925 C1929 1.393 . S
C1926 H1915 0.950 . S
C1926 C1924 1.391 . S
C1926 C1927 1.400 . S
C1927 C1921 1.491 . S
C1927 C1926 1.400 . S
C1927 C1928 1.398 . S
C1928 H1916 0.950 . S
C1928 C1927 1.398 . S
C1928 C1929 1.391 . S
C1929 H1917 0.950 . S
C1929 C1925 1.393 . S
C1929 C1928 1.391 . S
H1930 C1938 0.950 . S
H1931 C1943 0.950 . S
H1932 C1940 0.950 . S
H1933 C1942 0.950 . S
H1934 C1944 0.950 . S
H1935 C1946 0.950 . S
H1936 C1948 0.950 . S
H1937 C1949 0.950 . S
C1938 H1930 0.950 . S
C1938 C1939 1.386 . S
C1938 C1940 1.391 . S
C1939 C1938 1.386 . S
C1939 C1943 1.393 . S
C1940 H1932 0.950 . S
C1940 C1938 1.391 . S
C1940 C1941 1.400 . S
C1941 C1940 1.400 . S
C1941 C1942 1.398 . S
C1941 C1947 1.491 . S
C1942 H1933 0.950 . S
C1942 C1941 1.398 . S
C1942 C1943 1.391 . S
C1943 H1931 0.950 . S
C1943 C1939 1.393 . S
C1943 C1942 1.391 . S
C1944 H1934 0.950 . S
C1944 C1945 1.386 . S
C1944 C1946 1.391 . S
C1945 C1944 1.386 . S
C1945 C1949 1.393 . S
C1946 H1935 0.950 . S
C1946 C1944 1.391 . S
C1946 C1947 1.400 . S
C1947 C1941 1.491 . S
C1947 C1946 1.400 . S
C1947 C1948 1.398 . S
C1948 H1936 0.950 . S
C1948 C1947 1.398 . S
C1948 C1949 1.391 . S
C1949 H1937 0.950 . S
C1949 C1945 1.393 . S
C1949 C1948 1.391 . S
H1950 C1958 0.950 . S
H1951 C1963 0.950 . S
H1952 C1960 0.950 . S
H1953 C1962 0.950 . S
H1954 C1964 0.950 . S
H1955 C1966 0.950 . S
H1956 C1968 0.950 . S
H1957 C1969 0.950 . S
C1958 H1950 0.950 . S
C1958 C1959 1.386 . S
C1958 C1960 1.391 . S
C1959 C1958 1.386 . S
C1959 C1963 1.393 . S
C1960 H1952 0.950 . S
C1960 C1958 1.391 . S
C1960 C1961 1.400 . S
C1961 C1960 1.400 . S
C1961 C1962 1.398 . S
C1961 C1967 1.491 . S
C1962 H1953 0.950 . S
C1962 C1961 1.398 . S
C1962 C1963 1.391 . S
C1963 H1951 0.950 . S
C1963 C1959 1.393 . S
C1963 C1962 1.391 . S
C1964 H1954 0.950 . S
C1964 C1965 1.386 . S
C1964 C1966 1.391 . S
C1965 C1964 1.386 . S
C1965 C1969 1.393 . S
C1966 H1955 0.950 . S
C1966 C1964 1.391 . S
C1966 C1967 1.400 . S
C1967 C1961 1.491 . S
C1967 C1966 1.400 . S
C1967 C1968 1.398 . S
C1968 H1956 0.950 . S
C1968 C1967 1.398 . S
C1968 C1969 1.391 . S
C1969 H1957 0.950 . S
C1969 C1965 1.393 . S
C1969 C1968 1.391 . S
H1970 C1978 0.950 . S
H1971 C1983 0.950 . S
H1972 C1980 0.950 . S
H1973 C1982 0.950 . S
H1974 C1984 0.950 . S
H1975 C1986 0.950 . S
H1976 C1988 0.950 . S
H1977 C1989 0.950 . S
C1978 H1970 0.950 . S
C1978 C1979 1.386 . S
C1978 C1980 1.391 . S
C1979 C1978 1.386 . S
C1979 C1983 1.393 . S
C1980 H1972 0.950 . S
C1980 C1978 1.391 . S
C1980 C1981 1.400 . S
C1981 C1980 1.400 . S
C1981 C1982 1.398 . S
C1981 C1987 1.491 . S
C1982 H1973 0.950 . S
C1982 C1981 1.398 . S
C1982 C1983 1.391 . S
C1983 H1971 0.950 . S
C1983 C1979 1.393 . S
C1983 C1982 1.391 . S
C1984 H1974 0.950 . S
C1984 C1985 1.386 . S
C1984 C1986 1.391 . S
C1985 C1984 1.386 . S
C1985 C1989 1.393 . S
C1986 H1975 0.950 . S
C1986 C1984 1.391 . S
C1986 C1987 1.400 . S
C1987 C1981 1.491 . S
C1987 C1986 1.400 . S
C1987 C1988 1.398 . S
C1988 H1976 0.950 . S
C1988 C1987 1.398 . S
C1988 C1989 1.391 . S
C1989 H1977 0.950 . S
C1989 C1985 1.393 . S
C1989 C1988 1.391 . S
H1990 C1998 0.950 . S
H1991 C2003 0.950 . S
H1992 C2000 0.950 . S
H1993 C2002 0.950 . S
H1994 C2004 0.950 . S
H1995 C2006 0.950 . S
H1996 C2008 0.950 . S
H1997 C2009 0.950 . S
C1998 H1990 0.950 . S
C1998 C1999 1.386 . S
C1998 C2000 1.391 . S
C1999 C1998 1.386 . S
C1999 C2003 1.393 . S
C2000 H1992 0.950 . S
C2000 C1998 1.391 . S
C2000 C2001 1.400 . S
C2001 C2000 1.400 . S
C2001 C2002 1.398 . S
C2001 C2007 1.491 . S
C2002 H1993 0.950 . S
C2002 C2001 1.398 . S
C2002 C2003 1.391 . S
C2003 H1991 0.950 . S
C2003 C1999 1.393 . S
C2003 C2002 1.391 . S
C2004 H1994 0.950 . S
C2004 C2005 1.386 . S
C2004 C2006 1.391 . S
C2005 C2004 1.386 . S
C2005 C2009 1.393 . S
C2006 H1995 0.950 . S
C2006 C2004 1.391 . S
C2006 C2007 1.400 . S
C2007 C2001 1.491 . S
C2007 C2006 1.400 . S
C2007 C2008 1.398 . S
C2008 H1996 0.950 . S
C2008 C2007 1.398 . S
C2008 C2009 1.391 . S
C2009 H1997 0.950 . S
C2009 C2005 1.393 . S
C2009 C2008 1.391 . S
H2010 C2018 0.950 . S
H2011 C2023 0.950 . S
H2012 C2020 0.950 . S
H2013 C2022 0.950 . S
H2014 C2024 0.950 . S
H2015 C2026 0.950 . S
H2016 C2028 0.950 . S
H2017 C2029 0.950 . S
C2018 H2010 0.950 . S
C2018 C2019 1.386 . S
C2018 C2020 1.391 . S
C2019 C2018 1.386 . S
C2019 C2023 1.393 . S
C2020 H2012 0.950 . S
C2020 C2018 1.391 . S
C2020 C2021 1.400 . S
C2021 C2020 1.400 . S
C2021 C2022 1.398 . S
C2021 C2027 1.491 . S
C2022 H2013 0.950 . S
C2022 C2021 1.398 . S
C2022 C2023 1.391 . S
C2023 H2011 0.950 . S
C2023 C2019 1.393 . S
C2023 C2022 1.391 . S
C2024 H2014 0.950 . S
C2024 C2025 1.386 . S
C2024 C2026 1.391 . S
C2025 C2024 1.386 . S
C2025 C2029 1.393 . S
C2026 H2015 0.950 . S
C2026 C2024 1.391 . S
C2026 C2027 1.400 . S
C2027 C2021 1.491 . S
C2027 C2026 1.400 . S
C2027 C2028 1.398 . S
C2028 H2016 0.950 . S
C2028 C2027 1.398 . S
C2028 C2029 1.391 . S
C2029 H2017 0.950 . S
C2029 C2025 1.393 . S
C2029 C2028 1.391 . S
H2030 C2038 0.950 . S
H2031 C2043 0.950 . S
H2032 C2040 0.950 . S
H2033 C2042 0.950 . S
H2034 C2044 0.950 . S
H2035 C2046 0.950 . S
H2036 C2048 0.950 . S
H2037 C2049 0.950 . S
C2038 H2030 0.950 . S
C2038 C2039 1.386 . S
C2038 C2040 1.391 . S
C2039 C2038 1.386 . S
C2039 C2043 1.393 . S
C2040 H2032 0.950 . S
C2040 C2038 1.391 . S
C2040 C2041 1.400 . S
C2041 C2040 1.400 . S
C2041 C2042 1.398 . S
C2041 C2047 1.491 . S
C2042 H2033 0.950 . S
C2042 C2041 1.398 . S
C2042 C2043 1.391 . S
C2043 H2031 0.950 . S
C2043 C2039 1.393 . S
C2043 C2042 1.391 . S
C2044 H2034 0.950 . S
C2044 C2045 1.386 . S
C2044 C2046 1.391 . S
C2045 C2044 1.386 . S
C2045 C2049 1.393 . S
C2046 H2035 0.950 . S
C2046 C2044 1.391 . S
C2046 C2047 1.400 . S
C2047 C2041 1.491 . S
C2047 C2046 1.400 . S
C2047 C2048 1.398 . S
C2048 H2036 0.950 . S
C2048 C2047 1.398 . S
C2048 C2049 1.391 . S
C2049 H2037 0.950 . S
C2049 C2045 1.393 . S
C2049 C2048 1.391 . S
H2050 C2058 0.950 . S
H2051 C2063 0.950 . S
H2052 C2060 0.950 . S
H2053 C2062 0.950 . S
H2054 C2064 0.950 . S
H2055 C2066 0.950 . S
H2056 C2068 0.950 . S
H2057 C2069 0.950 . S
C2058 H2050 0.950 . S
C2058 C2059 1.386 . S
C2058 C2060 1.391 . S
C2059 C2058 1.386 . S
C2059 C2063 1.393 . S
C2060 H2052 0.950 . S
C2060 C2058 1.391 . S
C2060 C2061 1.400 . S
C2061 C2060 1.400 . S
C2061 C2062 1.398 . S
C2061 C2067 1.491 . S
C2062 H2053 0.950 . S
C2062 C2061 1.398 . S
C2062 C2063 1.391 . S
C2063 H2051 0.950 . S
C2063 C2059 1.393 . S
C2063 C2062 1.391 . S
C2064 H2054 0.950 . S
C2064 C2065 1.386 . S
C2064 C2066 1.391 . S
C2065 C2064 1.386 . S
C2065 C2069 1.393 . S
C2066 H2055 0.950 . S
C2066 C2064 1.391 . S
C2066 C2067 1.400 . S
C2067 C2061 1.491 . S
C2067 C2066 1.400 . S
C2067 C2068 1.398 . S
C2068 H2056 0.950 . S
C2068 C2067 1.398 . S
C2068 C2069 1.391 . S
C2069 H2057 0.950 . S
C2069 C2065 1.393 . S
C2069 C2068 1.391 . S
H2070 C2078 0.950 . S
H2071 C2083 0.950 . S
H2072 C2080 0.950 . S
H2073 C2082 0.950 . S
H2074 C2084 0.950 . S
H2075 C2086 0.950 . S
H2076 C2088 0.950 . S
H2077 C2089 0.950 . S
C2078 H2070 0.950 . S
C2078 C2079 1.386 . S
C2078 C2080 1.391 . S
C2079 C2078 1.386 . S
C2079 C2083 1.393 . S
C2080 H2072 0.950 . S
C2080 C2078 1.391 . S
C2080 C2081 1.400 . S
C2081 C2080 1.400 . S
C2081 C2082 1.398 . S
C2081 C2087 1.491 . S
C2082 H2073 0.950 . S
C2082 C2081 1.398 . S
C2082 C2083 1.391 . S
C2083 H2071 0.950 . S
C2083 C2079 1.393 . S
C2083 C2082 1.391 . S
C2084 H2074 0.950 . S
C2084 C2085 1.386 . S
C2084 C2086 1.391 . S
C2085 C2084 1.386 . S
C2085 C2089 1.393 . S
C2086 H2075 0.950 . S
C2086 C2084 1.391 . S
C2086 C2087 1.400 . S
C2087 C2081 1.491 . S
C2087 C2086 1.400 . S
C2087 C2088 1.398 . S
C2088 H2076 0.950 . S
C2088 C2087 1.398 . S
C2088 C2089 1.391 . S
C2089 H2077 0.950 . S
C2089 C2085 1.393 . S
C2089 C2088 1.391 . S
H2090 C2098 0.950 . S
H2091 C2103 0.950 . S
H2092 C2100 0.950 . S
H2093 C2102 0.950 . S
H2094 C2104 0.950 . S
H2095 C2106 0.950 . S
H2096 C2108 0.950 . S
H2097 C2109 0.950 . S
C2098 H2090 0.950 . S
C2098 C2099 1.386 . S
C2098 C2100 1.391 . S
C2099 C2098 1.386 . S
C2099 C2103 1.393 . S
C2100 H2092 0.950 . S
C2100 C2098 1.391 . S
C2100 C2101 1.400 . S
C2101 C2100 1.400 . S
C2101 C2102 1.398 . S
C2101 C2107 1.491 . S
C2102 H2093 0.950 . S
C2102 C2101 1.398 . S
C2102 C2103 1.391 . S
C2103 H2091 0.950 . S
C2103 C2099 1.393 . S
C2103 C2102 1.391 . S
C2104 H2094 0.950 . S
C2104 C2105 1.386 . S
C2104 C2106 1.391 . S
C2105 C2104 1.386 . S
C2105 C2109 1.393 . S
C2106 H2095 0.950 . S
C2106 C2104 1.391 . S
C2106 C2107 1.400 . S
C2107 C2101 1.491 . S
C2107 C2106 1.400 . S
C2107 C2108 1.398 . S
C2108 H2096 0.950 . S
C2108 C2107 1.398 . S
C2108 C2109 1.391 . S
C2109 H2097 0.950 . S
C2109 C2105 1.393 . S
C2109 C2108 1.391 . S
H2110 C2118 0.950 . S
H2111 C2123 0.950 . S
H2112 C2120 0.950 . S
H2113 C2122 0.950 . S
H2114 C2124 0.950 . S
H2115 C2126 0.950 . S
H2116 C2128 0.950 . S
H2117 C2129 0.950 . S
C2118 H2110 0.950 . S
C2118 C2119 1.386 . S
C2118 C2120 1.391 . S
C2119 C2118 1.386 . S
C2119 C2123 1.393 . S
C2120 H2112 0.950 . S
C2120 C2118 1.391 . S
C2120 C2121 1.400 . S
C2121 C2120 1.400 . S
C2121 C2122 1.398 . S
C2121 C2127 1.491 . S
C2122 H2113 0.950 . S
C2122 C2121 1.398 . S
C2122 C2123 1.391 . S
C2123 H2111 0.950 . S
C2123 C2119 1.393 . S
C2123 C2122 1.391 . S
C2124 H2114 0.950 . S
C2124 C2125 1.386 . S
C2124 C2126 1.391 . S
C2125 C2124 1.386 . S
C2125 C2129 1.393 . S
C2126 H2115 0.950 . S
C2126 C2124 1.391 . S
C2126 C2127 1.400 . S
C2127 C2121 1.491 . S
C2127 C2126 1.400 . S
C2127 C2128 1.398 . S
C2128 H2116 0.950 . S
C2128 C2127 1.398 . S
C2128 C2129 1.391 . S
C2129 H2117 0.950 . S
C2129 C2125 1.393 . S
C2129 C2128 1.391 . S
H2130 C2138 0.947 . S
H2131 C2143 0.950 . S
H2132 C2140 0.956 . S
H2133 C2142 0.950 . S
H2134 C2144 0.950 . S
H2135 C2146 0.950 . S
H2136 C2148 0.950 . S
H2137 C2149 0.950 . S
C2138 H2130 0.947 . S
C2138 C2139 1.387 1_554 S
C2138 C2140 1.393 1_554 S
C2139 C2138 1.387 1_556 S
C2139 C2143 1.393 . S
C2140 H2132 0.956 . S
C2140 C2138 1.393 1_556 S
C2140 C2141 1.400 . S
C2141 C2140 1.400 . S
C2141 C2142 1.398 . S
C2141 C2147 1.491 . S
C2142 H2133 0.950 . S
C2142 C2141 1.398 . S
C2142 C2143 1.391 . S
C2143 H2131 0.950 . S
C2143 C2139 1.393 . S
C2143 C2142 1.391 . S
C2144 H2134 0.950 . S
C2144 C2145 1.386 . S
C2144 C2146 1.391 . S
C2145 C2144 1.386 . S
C2145 C2149 1.393 . S
C2146 H2135 0.950 . S
C2146 C2144 1.391 . S
C2146 C2147 1.400 . S
C2147 C2141 1.491 . S
C2147 C2146 1.400 . S
C2147 C2148 1.398 . S
C2148 H2136 0.950 . S
C2148 C2147 1.398 . S
C2148 C2149 1.391 . S
C2149 H2137 0.950 . S
C2149 C2145 1.393 . S
C2149 C2148 1.391 . S
H2150 C2158 0.950 . S
H2151 C2163 0.960 . S
H2152 C2160 0.950 . S
H2153 C2162 0.950 . S
H2154 C2164 0.950 . S
H2155 C2166 0.950 . S
H2156 C2168 0.950 . S
H2157 C2169 0.950 . S
C2158 H2150 0.950 . S
C2158 C2159 1.386 . S
C2158 C2160 1.391 . S
C2159 C2158 1.386 . S
C2159 C2163 1.393 . S
C2160 H2152 0.950 . S
C2160 C2158 1.391 . S
C2160 C2161 1.400 . S
C2161 C2160 1.400 . S
C2161 C2162 1.398 . S
C2161 C2167 1.491 . S
C2162 H2153 0.950 . S
C2162 C2161 1.398 . S
C2162 C2163 1.391 . S
C2163 H2151 0.960 . S
C2163 C2159 1.393 . S
C2163 C2162 1.391 . S
C2164 H2154 0.950 . S
C2164 C2165 1.386 . S
C2164 C2166 1.391 . S
C2165 C2164 1.386 . S
C2165 C2169 1.393 . S
C2166 H2155 0.950 . S
C2166 C2164 1.391 . S
C2166 C2167 1.400 . S
C2167 C2161 1.491 . S
C2167 C2166 1.400 . S
C2167 C2168 1.398 . S
C2168 H2156 0.950 . S
C2168 C2167 1.398 . S
C2168 C2169 1.391 . S
C2169 H2157 0.950 . S
C2169 C2165 1.393 . S
C2169 C2168 1.391 . S
H2170 C2178 0.950 . S
H2171 C2183 0.950 1_554 S
H2172 C2180 0.950 . S
H2173 C2182 0.950 . S
H2174 C2184 0.950 . S
H2175 C2186 0.950 . S
H2176 C2188 0.950 . S
H2177 C2189 0.950 . S
C2178 H2170 0.950 . S
C2178 C2179 1.386 . S
C2178 C2180 1.391 . S
C2179 C2178 1.386 . S
C2179 C2183 1.393 . S
C2180 H2172 0.950 . S
C2180 C2178 1.391 . S
C2180 C2181 1.400 . S
C2181 C2180 1.400 . S
C2181 C2182 1.398 . S
C2181 C2187 1.491 . S
C2182 H2173 0.950 . S
C2182 C2181 1.398 . S
C2182 C2183 1.391 . S
C2183 H2171 0.950 1_556 S
C2183 C2179 1.393 . S
C2183 C2182 1.391 . S
C2184 H2174 0.950 . S
C2184 C2185 1.386 . S
C2184 C2186 1.391 . S
C2185 C2184 1.386 . S
C2185 C2189 1.393 . S
C2186 H2175 0.950 . S
C2186 C2184 1.391 . S
C2186 C2187 1.400 . S
C2187 C2181 1.491 . S
C2187 C2186 1.400 . S
C2187 C2188 1.398 . S
C2188 H2176 0.950 . S
C2188 C2187 1.398 . S
C2188 C2189 1.391 . S
C2189 H2177 0.950 . S
C2189 C2185 1.393 . S
C2189 C2188 1.391 . S
H2190 C2198 0.950 . S
H2191 C2203 0.974 . S
H2192 C2200 0.950 . S
H2193 C2202 0.950 . S
H2194 C2204 0.950 . S
H2195 C2206 0.950 . S
H2196 C2208 0.950 . S
H2197 C2209 0.950 . S
C2198 H2190 0.950 . S
C2198 C2199 1.386 . S
C2198 C2200 1.391 . S
C2199 C2198 1.386 . S
C2199 C2203 1.380 1_556 S
C2200 H2192 0.950 . S
C2200 C2198 1.391 . S
C2200 C2201 1.400 . S
C2201 C2200 1.400 . S
C2201 C2202 1.398 . S
C2201 C2207 1.491 . S
C2202 H2193 0.950 . S
C2202 C2201 1.398 . S
C2202 C2203 1.380 1_556 S
C2203 H2191 0.974 . S
C2203 C2199 1.380 1_554 S
C2203 C2202 1.380 1_554 S
C2204 H2194 0.950 . S
C2204 C2205 1.386 . S
C2204 C2206 1.391 . S
C2205 C2204 1.386 . S
C2205 C2209 1.393 . S
C2206 H2195 0.950 . S
C2206 C2204 1.391 . S
C2206 C2207 1.400 . S
C2207 C2201 1.491 . S
C2207 C2206 1.400 . S
C2207 C2208 1.398 . S
C2208 H2196 0.950 . S
C2208 C2207 1.398 . S
C2208 C2209 1.391 . S
C2209 H2197 0.950 . S
C2209 C2205 1.393 . S
C2209 C2208 1.391 . S
H2210 C2218 0.950 . S
H2211 C2223 0.950 . S
H2212 C2220 0.950 . S
H2213 C2222 0.950 . S
H2214 C2224 0.950 . S
H2215 C2226 0.950 . S
H2216 C2228 0.950 . S
H2217 C2229 0.950 . S
C2218 H2210 0.950 . S
C2218 C2219 1.386 . S
C2218 C2220 1.391 . S
C2219 C2218 1.386 . S
C2219 C2223 1.393 . S
C2220 H2212 0.950 . S
C2220 C2218 1.391 . S
C2220 C2221 1.400 . S
C2221 C2220 1.400 . S
C2221 C2222 1.398 . S
C2221 C2227 1.491 . S
C2222 H2213 0.950 . S
C2222 C2221 1.398 . S
C2222 C2223 1.391 . S
C2223 H2211 0.950 . S
C2223 C2219 1.393 . S
C2223 C2222 1.391 . S
C2224 H2214 0.950 . S
C2224 C2225 1.386 . S
C2224 C2226 1.391 . S
C2225 C2224 1.386 . S
C2225 C2229 1.393 . S
C2226 H2215 0.950 . S
C2226 C2224 1.391 . S
C2226 C2227 1.400 . S
C2227 C2221 1.491 . S
C2227 C2226 1.400 . S
C2227 C2228 1.398 . S
C2228 H2216 0.950 . S
C2228 C2227 1.398 . S
C2228 C2229 1.391 . S
C2229 H2217 0.950 . S
C2229 C2225 1.393 . S
C2229 C2228 1.391 . S
H2230 C2238 0.950 . S
H2231 C2243 0.950 . S
H2232 C2240 0.950 . S
H2233 C2242 0.950 . S
H2234 C2244 0.950 . S
H2235 C2246 0.950 . S
H2236 C2248 0.950 . S
H2237 C2249 0.950 . S
C2238 H2230 0.950 . S
C2238 C2239 1.386 . S
C2238 C2240 1.391 . S
C2239 C2238 1.386 . S
C2239 C2243 1.393 . S
C2240 H2232 0.950 . S
C2240 C2238 1.391 . S
C2240 C2241 1.400 . S
C2241 C2240 1.400 . S
C2241 C2242 1.398 . S
C2241 C2247 1.491 . S
C2242 H2233 0.950 . S
C2242 C2241 1.398 . S
C2242 C2243 1.391 . S
C2243 H2231 0.950 . S
C2243 C2239 1.393 . S
C2243 C2242 1.391 . S
C2244 H2234 0.950 . S
C2244 C2245 1.386 . S
C2244 C2246 1.391 . S
C2245 C2244 1.386 . S
C2245 C2249 1.393 . S
C2246 H2235 0.950 . S
C2246 C2244 1.391 . S
C2246 C2247 1.400 . S
C2247 C2241 1.491 . S
C2247 C2246 1.400 . S
C2247 C2248 1.398 . S
C2248 H2236 0.950 . S
C2248 C2247 1.398 . S
C2248 C2249 1.391 . S
C2249 H2237 0.950 . S
C2249 C2245 1.393 . S
C2249 C2248 1.391 . S
H2250 C2258 0.950 . S
H2251 C2263 0.950 . S
H2252 C2260 0.950 . S
H2253 C2262 0.950 . S
H2254 C2264 0.950 . S
H2255 C2266 0.950 . S
H2256 C2268 0.950 . S
H2257 C2269 0.950 . S
C2258 H2250 0.950 . S
C2258 C2259 1.386 . S
C2258 C2260 1.391 . S
C2259 C2258 1.386 . S
C2259 C2263 1.393 . S
C2260 H2252 0.950 . S
C2260 C2258 1.391 . S
C2260 C2261 1.400 . S
C2261 C2260 1.400 . S
C2261 C2262 1.398 . S
C2261 C2267 1.491 . S
C2262 H2253 0.950 . S
C2262 C2261 1.398 . S
C2262 C2263 1.391 . S
C2263 H2251 0.950 . S
C2263 C2259 1.393 . S
C2263 C2262 1.391 . S
C2264 H2254 0.950 . S
C2264 C2265 1.386 . S
C2264 C2266 1.391 . S
C2265 C2264 1.386 . S
C2265 C2269 1.393 . S
C2266 H2255 0.950 . S
C2266 C2264 1.391 . S
C2266 C2267 1.400 . S
C2267 C2261 1.491 . S
C2267 C2266 1.400 . S
C2267 C2268 1.398 . S
C2268 H2256 0.950 . S
C2268 C2267 1.398 . S
C2268 C2269 1.391 . S
C2269 H2257 0.950 . S
C2269 C2265 1.393 . S
C2269 C2268 1.391 . S
H2270 C2278 0.950 . S
H2271 C2283 0.950 . S
H2272 C2280 0.950 . S
H2273 C2282 0.950 . S
H2274 C2284 0.950 . S
H2275 C2286 0.950 . S
H2276 C2288 0.950 . S
H2277 C2289 0.950 . S
C2278 H2270 0.950 . S
C2278 C2279 1.386 . S
C2278 C2280 1.391 . S
C2279 C2278 1.386 . S
C2279 C2283 1.393 . S
C2280 H2272 0.950 . S
C2280 C2278 1.391 . S
C2280 C2281 1.400 . S
C2281 C2280 1.400 . S
C2281 C2282 1.398 . S
C2281 C2287 1.491 . S
C2282 H2273 0.950 . S
C2282 C2281 1.398 . S
C2282 C2283 1.391 . S
C2283 H2271 0.950 . S
C2283 C2279 1.393 . S
C2283 C2282 1.391 . S
C2284 H2274 0.950 . S
C2284 C2285 1.386 . S
C2284 C2286 1.391 . S
C2285 C2284 1.386 . S
C2285 C2289 1.393 . S
C2286 H2275 0.950 . S
C2286 C2284 1.391 . S
C2286 C2287 1.400 . S
C2287 C2281 1.491 . S
C2287 C2286 1.400 . S
C2287 C2288 1.398 . S
C2288 H2276 0.950 . S
C2288 C2287 1.398 . S
C2288 C2289 1.391 . S
C2289 H2277 0.950 . S
C2289 C2285 1.393 . S
C2289 C2288 1.391 . S
H2290 C2298 0.950 . S
H2291 C2303 0.950 . S
H2292 C2300 0.950 . S
H2293 C2302 0.950 . S
H2294 C2304 0.950 . S
H2295 C2306 0.950 . S
H2296 C2308 0.950 . S
H2297 C2309 0.950 . S
C2298 H2290 0.950 . S
C2298 C2299 1.386 . S
C2298 C2300 1.391 . S
C2299 C2298 1.386 . S
C2299 C2303 1.393 . S
C2300 H2292 0.950 . S
C2300 C2298 1.391 . S
C2300 C2301 1.400 . S
C2301 C2300 1.400 . S
C2301 C2302 1.398 . S
C2301 C2307 1.491 . S
C2302 H2293 0.950 . S
C2302 C2301 1.398 . S
C2302 C2303 1.391 . S
C2303 H2291 0.950 . S
C2303 C2299 1.393 . S
C2303 C2302 1.391 . S
C2304 H2294 0.950 . S
C2304 C2305 1.386 . S
C2304 C2306 1.391 . S
C2305 C2304 1.386 . S
C2305 C2309 1.393 . S
C2306 H2295 0.950 . S
C2306 C2304 1.391 . S
C2306 C2307 1.400 . S
C2307 C2301 1.491 . S
C2307 C2306 1.400 . S
C2307 C2308 1.398 . S
C2308 H2296 0.950 . S
C2308 C2307 1.398 . S
C2308 C2309 1.391 . S
C2309 H2297 0.950 . S
C2309 C2305 1.393 . S
C2309 C2308 1.391 . S
H2310 C2318 0.950 . S
H2311 C2323 0.950 . S
H2312 C2320 0.950 . S
H2313 C2322 0.950 . S
H2314 C2324 0.950 . S
H2315 C2326 0.950 . S
H2316 C2328 0.950 . S
H2317 C2329 0.950 . S
C2318 H2310 0.950 . S
C2318 C2319 1.386 . S
C2318 C2320 1.391 . S
C2319 C2318 1.386 . S
C2319 C2323 1.393 . S
C2320 H2312 0.950 . S
C2320 C2318 1.391 . S
C2320 C2321 1.400 . S
C2321 C2320 1.400 . S
C2321 C2322 1.398 . S
C2321 C2327 1.491 . S
C2322 H2313 0.950 . S
C2322 C2321 1.398 . S
C2322 C2323 1.391 . S
C2323 H2311 0.950 . S
C2323 C2319 1.393 . S
C2323 C2322 1.391 . S
C2324 H2314 0.950 . S
C2324 C2325 1.386 . S
C2324 C2326 1.391 . S
C2325 C2324 1.386 . S
C2325 C2329 1.393 . S
C2326 H2315 0.950 . S
C2326 C2324 1.391 . S
C2326 C2327 1.400 . S
C2327 C2321 1.491 . S
C2327 C2326 1.400 . S
C2327 C2328 1.398 . S
C2328 H2316 0.950 . S
C2328 C2327 1.398 . S
C2328 C2329 1.391 . S
C2329 H2317 0.950 . S
C2329 C2325 1.393 . S
C2329 C2328 1.391 . S
H2330 C2338 0.950 . S
H2331 C2343 0.950 . S
H2332 C2340 0.950 . S
H2333 C2342 0.950 . S
H2334 C2344 0.950 . S
H2335 C2346 0.950 . S
H2336 C2348 0.950 . S
H2337 C2349 0.950 . S
C2338 H2330 0.950 . S
C2338 C2339 1.386 . S
C2338 C2340 1.391 . S
C2339 C2338 1.386 . S
C2339 C2343 1.393 . S
C2340 H2332 0.950 . S
C2340 C2338 1.391 . S
C2340 C2341 1.400 . S
C2341 C2340 1.400 . S
C2341 C2342 1.398 . S
C2341 C2347 1.491 . S
C2342 H2333 0.950 . S
C2342 C2341 1.398 . S
C2342 C2343 1.391 . S
C2343 H2331 0.950 . S
C2343 C2339 1.393 . S
C2343 C2342 1.391 . S
C2344 H2334 0.950 . S
C2344 C2345 1.386 . S
C2344 C2346 1.391 . S
C2345 C2344 1.386 . S
C2345 C2349 1.393 . S
C2346 H2335 0.950 . S
C2346 C2344 1.391 . S
C2346 C2347 1.400 . S
C2347 C2341 1.491 . S
C2347 C2346 1.400 . S
C2347 C2348 1.398 . S
C2348 H2336 0.950 . S
C2348 C2347 1.398 . S
C2348 C2349 1.391 . S
C2349 H2337 0.950 . S
C2349 C2345 1.393 . S
C2349 C2348 1.391 . S
H2350 C2358 0.897 1_455 S
H2351 C2363 0.950 . S
H2352 C2360 0.950 . S
H2353 C2362 0.950 . S
H2354 C2364 0.950 . S
H2355 C2366 0.950 . S
H2356 C2368 0.950 . S
H2357 C2369 0.950 . S
C2358 H2350 0.897 1_655 S
C2358 C2359 1.407 . S
C2358 C2360 1.424 . S
C2359 C2358 1.407 . S
C2359 C2363 1.393 . S
C2360 H2352 0.950 . S
C2360 C2358 1.424 . S
C2360 C2361 1.400 . S
C2361 C2360 1.400 . S
C2361 C2362 1.398 . S
C2361 C2367 1.491 . S
C2362 H2353 0.950 . S
C2362 C2361 1.398 . S
C2362 C2363 1.391 . S
C2363 H2351 0.950 . S
C2363 C2359 1.393 . S
C2363 C2362 1.391 . S
C2364 H2354 0.950 . S
C2364 C2365 1.386 . S
C2364 C2366 1.391 . S
C2365 C2364 1.386 . S
C2365 C2369 1.393 . S
C2366 H2355 0.950 . S
C2366 C2364 1.391 . S
C2366 C2367 1.400 . S
C2367 C2361 1.491 . S
C2367 C2366 1.400 . S
C2367 C2368 1.398 . S
C2368 H2356 0.950 . S
C2368 C2367 1.398 . S
C2368 C2369 1.391 . S
C2369 H2357 0.950 . S
C2369 C2365 1.393 . S
C2369 C2368 1.391 . S
H2370 C2378 0.950 . S
H2371 C2383 0.950 . S
H2372 C2380 0.950 . S
H2373 C2382 0.950 . S
H2374 C2384 0.950 . S
H2375 C2386 0.950 . S
H2376 C2388 0.950 . S
H2377 C2389 0.950 . S
C2378 H2370 0.950 . S
C2378 C2379 1.386 . S
C2378 C2380 1.391 . S
C2379 C2378 1.386 . S
C2379 C2383 1.393 . S
C2380 H2372 0.950 . S
C2380 C2378 1.391 . S
C2380 C2381 1.400 . S
C2381 C2380 1.400 . S
C2381 C2382 1.398 . S
C2381 C2387 1.491 . S
C2382 H2373 0.950 . S
C2382 C2381 1.398 . S
C2382 C2383 1.391 . S
C2383 H2371 0.950 . S
C2383 C2379 1.393 . S
C2383 C2382 1.391 . S
C2384 H2374 0.950 . S
C2384 C2385 1.386 . S
C2384 C2386 1.391 . S
C2385 C2384 1.386 . S
C2385 C2389 1.393 . S
C2386 H2375 0.950 . S
C2386 C2384 1.391 . S
C2386 C2387 1.400 . S
C2387 C2381 1.491 . S
C2387 C2386 1.400 . S
C2387 C2388 1.398 . S
C2388 H2376 0.950 . S
C2388 C2387 1.398 . S
C2388 C2389 1.391 . S
C2389 H2377 0.950 . S
C2389 C2385 1.393 . S
C2389 C2388 1.391 . S
H2390 C2398 0.950 . S
H2391 C2403 0.950 . S
H2392 C2400 0.950 . S
H2393 C2402 0.950 . S
H2394 C2404 0.950 . S
H2395 C2406 0.950 . S
H2396 C2408 0.950 . S
H2397 C2409 0.950 . S
C2398 H2390 0.950 . S
C2398 C2399 1.386 . S
C2398 C2400 1.391 . S
C2399 C2398 1.386 . S
C2399 C2403 1.393 . S
C2400 H2392 0.950 . S
C2400 C2398 1.391 . S
C2400 C2401 1.400 . S
C2401 C2400 1.400 . S
C2401 C2402 1.398 . S
C2401 C2407 1.491 . S
C2402 H2393 0.950 . S
C2402 C2401 1.398 . S
C2402 C2403 1.391 . S
C2403 H2391 0.950 . S
C2403 C2399 1.393 . S
C2403 C2402 1.391 . S
C2404 H2394 0.950 . S
C2404 C2405 1.386 . S
C2404 C2406 1.391 . S
C2405 C2404 1.386 . S
C2405 C2409 1.393 . S
C2406 H2395 0.950 . S
C2406 C2404 1.391 . S
C2406 C2407 1.400 . S
C2407 C2401 1.491 . S
C2407 C2406 1.400 . S
C2407 C2408 1.398 . S
C2408 H2396 0.950 . S
C2408 C2407 1.398 . S
C2408 C2409 1.391 . S
C2409 H2397 0.950 . S
C2409 C2405 1.393 . S
C2409 C2408 1.391 . S
H2410 C2418 0.950 . S
H2411 C2423 0.950 . S
H2412 C2420 0.950 . S
H2413 C2422 0.950 . S
H2414 C2424 0.950 . S
H2415 C2426 0.950 . S
H2416 C2428 0.950 . S
H2417 C2429 0.950 . S
C2418 H2410 0.950 . S
C2418 C2419 1.386 . S
C2418 C2420 1.391 . S
C2419 C2418 1.386 . S
C2419 C2423 1.393 . S
C2420 H2412 0.950 . S
C2420 C2418 1.391 . S
C2420 C2421 1.400 . S
C2421 C2420 1.400 . S
C2421 C2422 1.398 . S
C2421 C2427 1.491 . S
C2422 H2413 0.950 . S
C2422 C2421 1.398 . S
C2422 C2423 1.391 . S
C2423 H2411 0.950 . S
C2423 C2419 1.393 . S
C2423 C2422 1.391 . S
C2424 H2414 0.950 . S
C2424 C2425 1.386 . S
C2424 C2426 1.391 . S
C2425 C2424 1.386 . S
C2425 C2429 1.393 . S
C2426 H2415 0.950 . S
C2426 C2424 1.391 . S
C2426 C2427 1.400 . S
C2427 C2421 1.491 . S
C2427 C2426 1.400 . S
C2427 C2428 1.398 . S
C2428 H2416 0.950 . S
C2428 C2427 1.398 . S
C2428 C2429 1.391 . S
C2429 H2417 0.950 . S
C2429 C2425 1.393 . S
C2429 C2428 1.391 . S
H2430 C2438 0.950 . S
H2431 C2443 0.950 1_545 S
H2432 C2440 0.950 . S
H2433 C2442 0.950 1_545 S
H2434 C2444 0.950 . S
H2435 C2446 0.960 . S
H2436 C2448 0.950 . S
H2437 C2449 0.950 . S
C2438 H2430 0.950 . S
C2438 C2439 1.386 . S
C2438 C2440 1.391 . S
C2439 C2438 1.386 . S
C2439 C2443 1.393 . S
C2440 H2432 0.950 . S
C2440 C2438 1.391 . S
C2440 C2441 1.400 . S
C2441 C2440 1.400 . S
C2441 C2442 1.398 . S
C2441 C2447 1.491 . S
C2442 H2433 0.950 1_565 S
C2442 C2441 1.398 . S
C2442 C2443 1.391 . S
C2443 H2431 0.950 1_565 S
C2443 C2439 1.393 . S
C2443 C2442 1.391 . S
C2444 H2434 0.950 . S
C2444 C2445 1.386 1_545 S
C2444 C2446 1.409 . S
C2445 C2444 1.386 1_565 S
C2445 C2449 1.393 . S
C2446 H2435 0.960 . S
C2446 C2444 1.409 . S
C2446 C2447 1.373 1_545 S
C2447 C2441 1.491 . S
C2447 C2446 1.373 1_565 S
C2447 C2448 1.398 . S
C2448 H2436 0.950 . S
C2448 C2447 1.398 . S
C2448 C2449 1.391 . S
C2449 H2437 0.950 . S
C2449 C2445 1.393 . S
C2449 C2448 1.391 . S
H2450 C2458 0.950 . S
H2451 C2463 0.950 . S
H2452 C2460 0.950 . S
H2453 C2462 0.950 . S
H2454 C2464 0.950 . S
H2455 C2466 0.950 . S
H2456 C2468 0.950 . S
H2457 C2469 0.950 . S
C2458 H2450 0.950 . S
C2458 C2459 1.386 . S
C2458 C2460 1.391 . S
C2459 C2458 1.386 . S
C2459 C2463 1.393 . S
C2460 H2452 0.950 . S
C2460 C2458 1.391 . S
C2460 C2461 1.400 . S
C2461 C2460 1.400 . S
C2461 C2462 1.398 . S
C2461 C2467 1.491 . S
C2462 H2453 0.950 . S
C2462 C2461 1.398 . S
C2462 C2463 1.391 . S
C2463 H2451 0.950 . S
C2463 C2459 1.393 . S
C2463 C2462 1.391 . S
C2464 H2454 0.950 . S
C2464 C2465 1.386 . S
C2464 C2466 1.391 . S
C2465 C2464 1.386 . S
C2465 C2469 1.393 . S
C2466 H2455 0.950 . S
C2466 C2464 1.391 . S
C2466 C2467 1.400 . S
C2467 C2461 1.491 . S
C2467 C2466 1.400 . S
C2467 C2468 1.398 . S
C2468 H2456 0.950 . S
C2468 C2467 1.398 . S
C2468 C2469 1.391 . S
C2469 H2457 0.950 . S
C2469 C2465 1.393 . S
C2469 C2468 1.391 . S
H2470 C2478 0.950 . S
H2471 C2483 0.950 . S
H2472 C2480 0.950 . S
H2473 C2482 0.950 . S
H2474 C2484 0.950 . S
H2475 C2486 0.950 . S
H2476 C2488 0.950 . S
H2477 C2489 0.950 . S
C2478 H2470 0.950 . S
C2478 C2479 1.386 . S
C2478 C2480 1.391 . S
C2479 C2478 1.386 . S
C2479 C2483 1.393 . S
C2480 H2472 0.950 . S
C2480 C2478 1.391 . S
C2480 C2481 1.400 . S
C2481 C2480 1.400 . S
C2481 C2482 1.398 . S
C2481 C2487 1.491 . S
C2482 H2473 0.950 . S
C2482 C2481 1.398 . S
C2482 C2483 1.391 . S
C2483 H2471 0.950 . S
C2483 C2479 1.393 . S
C2483 C2482 1.391 . S
C2484 H2474 0.950 . S
C2484 C2485 1.386 . S
C2484 C2486 1.391 . S
C2485 C2484 1.386 . S
C2485 C2489 1.393 . S
C2486 H2475 0.950 . S
C2486 C2484 1.391 . S
C2486 C2487 1.400 . S
C2487 C2481 1.491 . S
C2487 C2486 1.400 . S
C2487 C2488 1.398 . S
C2488 H2476 0.950 . S
C2488 C2487 1.398 . S
C2488 C2489 1.391 . S
C2489 H2477 0.950 . S
C2489 C2485 1.393 . S
C2489 C2488 1.391 . S
H2490 C2498 0.950 . S
H2491 C2503 0.950 . S
H2492 C2500 0.950 . S
H2493 C2502 0.950 . S
H2494 C2504 0.950 . S
H2495 C2506 0.950 . S
H2496 C2508 0.950 . S
H2497 C2509 0.950 . S
C2498 H2490 0.950 . S
C2498 C2499 1.386 . S
C2498 C2500 1.391 . S
C2499 C2498 1.386 . S
C2499 C2503 1.393 . S
C2500 H2492 0.950 . S
C2500 C2498 1.391 . S
C2500 C2501 1.400 . S
C2501 C2500 1.400 . S
C2501 C2502 1.398 . S
C2501 C2507 1.491 . S
C2502 H2493 0.950 . S
C2502 C2501 1.398 . S
C2502 C2503 1.391 . S
C2503 H2491 0.950 . S
C2503 C2499 1.393 . S
C2503 C2502 1.391 . S
C2504 H2494 0.950 . S
C2504 C2505 1.386 . S
C2504 C2506 1.391 . S
C2505 C2504 1.386 . S
C2505 C2509 1.393 . S
C2506 H2495 0.950 . S
C2506 C2504 1.391 . S
C2506 C2507 1.400 . S
C2507 C2501 1.491 . S
C2507 C2506 1.400 . S
C2507 C2508 1.398 . S
C2508 H2496 0.950 . S
C2508 C2507 1.398 . S
C2508 C2509 1.391 . S
C2509 H2497 0.950 . S
C2509 C2505 1.393 . S
C2509 C2508 1.391 . S
H2510 C2518 0.950 . S
H2511 C2523 0.950 . S
H2512 C2520 0.950 . S
H2513 C2522 0.950 . S
H2514 C2524 0.950 . S
H2515 C2526 0.950 . S
H2516 C2528 0.950 . S
H2517 C2529 0.950 . S
C2518 H2510 0.950 . S
C2518 C2519 1.386 . S
C2518 C2520 1.391 . S
C2519 C2518 1.386 . S
C2519 C2523 1.393 . S
C2520 H2512 0.950 . S
C2520 C2518 1.391 . S
C2520 C2521 1.400 . S
C2521 C2520 1.400 . S
C2521 C2522 1.398 . S
C2521 C2527 1.491 . S
C2522 H2513 0.950 . S
C2522 C2521 1.398 . S
C2522 C2523 1.391 . S
C2523 H2511 0.950 . S
C2523 C2519 1.393 . S
C2523 C2522 1.391 . S
C2524 H2514 0.950 . S
C2524 C2525 1.386 . S
C2524 C2526 1.391 . S
C2525 C2524 1.386 . S
C2525 C2529 1.393 . S
C2526 H2515 0.950 . S
C2526 C2524 1.391 . S
C2526 C2527 1.400 . S
C2527 C2521 1.491 . S
C2527 C2526 1.400 . S
C2527 C2528 1.398 . S
C2528 H2516 0.950 . S
C2528 C2527 1.398 . S
C2528 C2529 1.391 . S
C2529 H2517 0.950 . S
C2529 C2525 1.393 . S
C2529 C2528 1.391 . S
H2530 C2538 0.903 1_455 S
H2531 C2543 0.950 . S
H2532 C2540 0.950 . S
H2533 C2542 0.950 . S
H2534 C2544 0.950 . S
H2535 C2546 0.950 . S
H2536 C2548 0.950 . S
H2537 C2549 0.950 . S
C2538 H2530 0.903 1_655 S
C2538 C2539 1.368 . S
C2538 C2540 1.459 . S
C2539 C2538 1.368 . S
C2539 C2543 1.393 . S
C2540 H2532 0.950 . S
C2540 C2538 1.459 . S
C2540 C2541 1.400 . S
C2541 C2540 1.400 . S
C2541 C2542 1.398 . S
C2541 C2547 1.491 . S
C2542 H2533 0.950 . S
C2542 C2541 1.398 . S
C2542 C2543 1.391 . S
C2543 H2531 0.950 . S
C2543 C2539 1.393 . S
C2543 C2542 1.391 . S
C2544 H2534 0.950 . S
C2544 C2545 1.386 . S
C2544 C2546 1.391 . S
C2545 C2544 1.386 . S
C2545 C2549 1.393 . S
C2546 H2535 0.950 . S
C2546 C2544 1.391 . S
C2546 C2547 1.400 . S
C2547 C2541 1.491 . S
C2547 C2546 1.400 . S
C2547 C2548 1.398 . S
C2548 H2536 0.950 . S
C2548 C2547 1.398 . S
C2548 C2549 1.391 . S
C2549 H2537 0.950 . S
C2549 C2545 1.393 . S
C2549 C2548 1.391 . S
H2550 C2558 0.950 . S
H2551 C2563 0.950 . S
H2552 C2560 0.950 . S
H2553 C2562 0.950 . S
H2554 C2564 0.950 . S
H2555 C2566 0.950 . S
H2556 C2568 0.950 . S
H2557 C2569 0.950 . S
C2558 H2550 0.950 . S
C2558 C2559 1.386 . S
C2558 C2560 1.391 . S
C2559 C2558 1.386 . S
C2559 C2563 1.393 . S
C2560 H2552 0.950 . S
C2560 C2558 1.391 . S
C2560 C2561 1.400 . S
C2561 C2560 1.400 . S
C2561 C2562 1.398 . S
C2561 C2567 1.491 . S
C2562 H2553 0.950 . S
C2562 C2561 1.398 . S
C2562 C2563 1.391 . S
C2563 H2551 0.950 . S
C2563 C2559 1.393 . S
C2563 C2562 1.391 . S
C2564 H2554 0.950 . S
C2564 C2565 1.386 . S
C2564 C2566 1.391 . S
C2565 C2564 1.386 . S
C2565 C2569 1.393 . S
C2566 H2555 0.950 . S
C2566 C2564 1.391 . S
C2566 C2567 1.400 . S
C2567 C2561 1.491 . S
C2567 C2566 1.400 . S
C2567 C2568 1.398 . S
C2568 H2556 0.950 . S
C2568 C2567 1.398 . S
C2568 C2569 1.391 . S
C2569 H2557 0.950 . S
C2569 C2565 1.393 . S
C2569 C2568 1.391 . S
H2570 C2578 0.950 . S
H2571 C2583 0.950 . S
H2572 C2580 0.950 . S
H2573 C2582 0.950 . S
H2574 C2584 0.950 . S
H2575 C2586 0.950 . S
H2576 C2588 0.950 . S
H2577 C2589 0.950 . S
C2578 H2570 0.950 . S
C2578 C2579 1.386 1_455 S
C2578 C2580 1.391 . S
C2579 C2578 1.386 1_655 S
C2579 C2583 1.393 . S
C2580 H2572 0.950 . S
C2580 C2578 1.391 . S
C2580 C2581 1.400 1_455 S
C2581 C2580 1.400 1_655 S
C2581 C2582 1.398 . S
C2581 C2587 1.491 . S
C2582 H2573 0.950 . S
C2582 C2581 1.398 . S
C2582 C2583 1.391 . S
C2583 H2571 0.950 . S
C2583 C2579 1.393 . S
C2583 C2582 1.391 . S
C2584 H2574 0.950 . S
C2584 C2585 1.386 . S
C2584 C2586 1.391 . S
C2585 C2584 1.386 . S
C2585 C2589 1.393 1_655 S
C2586 H2575 0.950 . S
C2586 C2584 1.391 . S
C2586 C2587 1.400 . S
C2587 C2581 1.491 . S
C2587 C2586 1.400 . S
C2587 C2588 1.398 1_655 S
C2588 H2576 0.950 . S
C2588 C2587 1.398 1_455 S
C2588 C2589 1.391 . S
C2589 H2577 0.950 . S
C2589 C2585 1.393 1_455 S
C2589 C2588 1.391 . S
H2590 C2598 0.950 . S
H2591 C2603 0.950 . S
H2592 C2600 0.950 . S
H2593 C2602 0.950 . S
H2594 C2604 0.950 . S
H2595 C2606 0.950 . S
H2596 C2608 0.950 . S
H2597 C2609 0.950 . S
C2598 H2590 0.950 . S
C2598 C2599 1.386 . S
C2598 C2600 1.391 . S
C2599 C2598 1.386 . S
C2599 C2603 1.393 . S
C2600 H2592 0.950 . S
C2600 C2598 1.391 . S
C2600 C2601 1.400 . S
C2601 C2600 1.400 . S
C2601 C2602 1.398 . S
C2601 C2607 1.491 . S
C2602 H2593 0.950 . S
C2602 C2601 1.398 . S
C2602 C2603 1.391 . S
C2603 H2591 0.950 . S
C2603 C2599 1.393 . S
C2603 C2602 1.391 . S
C2604 H2594 0.950 . S
C2604 C2605 1.386 . S
C2604 C2606 1.391 . S
C2605 C2604 1.386 . S
C2605 C2609 1.393 . S
C2606 H2595 0.950 . S
C2606 C2604 1.391 . S
C2606 C2607 1.400 . S
C2607 C2601 1.491 . S
C2607 C2606 1.400 . S
C2607 C2608 1.398 . S
C2608 H2596 0.950 . S
C2608 C2607 1.398 . S
C2608 C2609 1.391 . S
C2609 H2597 0.950 . S
C2609 C2605 1.393 . S
C2609 C2608 1.391 . S
H2610 C2618 0.950 . S
H2611 C2623 0.950 . S
H2612 C2620 0.950 . S
H2613 C2622 0.950 . S
H2614 C2624 0.950 . S
H2615 C2626 0.950 . S
H2616 C2628 0.950 . S
H2617 C2629 0.950 . S
C2618 H2610 0.950 . S
C2618 C2619 1.386 . S
C2618 C2620 1.391 . S
C2619 C2618 1.386 . S
C2619 C2623 1.393 . S
C2620 H2612 0.950 . S
C2620 C2618 1.391 . S
C2620 C2621 1.400 . S
C2621 C2620 1.400 . S
C2621 C2622 1.398 . S
C2621 C2627 1.491 . S
C2622 H2613 0.950 . S
C2622 C2621 1.398 . S
C2622 C2623 1.391 . S
C2623 H2611 0.950 . S
C2623 C2619 1.393 . S
C2623 C2622 1.391 . S
C2624 H2614 0.950 . S
C2624 C2625 1.386 . S
C2624 C2626 1.391 . S
C2625 C2624 1.386 . S
C2625 C2629 1.393 . S
C2626 H2615 0.950 . S
C2626 C2624 1.391 . S
C2626 C2627 1.400 . S
C2627 C2621 1.491 . S
C2627 C2626 1.400 . S
C2627 C2628 1.398 . S
C2628 H2616 0.950 . S
C2628 C2627 1.398 . S
C2628 C2629 1.391 . S
C2629 H2617 0.950 . S
C2629 C2625 1.393 . S
C2629 C2628 1.391 . S
H2630 C2638 0.950 1_545 S
H2631 C2643 0.950 . S
H2632 C2640 0.950 . S
H2633 C2642 0.950 . S
H2634 C2644 0.950 . S
H2635 C2646 0.950 . S
H2636 C2648 0.950 . S
H2637 C2649 0.950 . S
C2638 H2630 0.950 1_565 S
C2638 C2639 1.371 . S
C2638 C2640 1.391 . S
C2639 C2638 1.371 . S
C2639 C2643 1.429 . S
C2640 H2632 0.950 . S
C2640 C2638 1.391 . S
C2640 C2641 1.400 . S
C2641 C2640 1.400 . S
C2641 C2642 1.398 . S
C2641 C2647 1.491 . S
C2642 H2633 0.950 . S
C2642 C2641 1.398 . S
C2642 C2643 1.391 . S
C2643 H2631 0.950 . S
C2643 C2639 1.429 . S
C2643 C2642 1.391 . S
C2644 H2634 0.950 . S
C2644 C2645 1.386 . S
C2644 C2646 1.391 . S
C2645 C2644 1.386 . S
C2645 C2649 1.393 . S
C2646 H2635 0.950 . S
C2646 C2644 1.391 . S
C2646 C2647 1.400 . S
C2647 C2641 1.491 . S
C2647 C2646 1.400 . S
C2647 C2648 1.398 . S
C2648 H2636 0.950 . S
C2648 C2647 1.398 . S
C2648 C2649 1.391 . S
C2649 H2637 0.950 . S
C2649 C2645 1.393 . S
C2649 C2648 1.391 . S
H2650 C2658 0.950 . S
H2651 C2663 0.950 . S
H2652 C2660 0.950 . S
H2653 C2662 0.950 . S
H2654 C2664 0.950 . S
H2655 C2666 0.950 . S
H2656 C2668 0.950 . S
H2657 C2669 0.950 . S
C2658 H2650 0.950 . S
C2658 C2659 1.386 . S
C2658 C2660 1.391 . S
C2659 C2658 1.386 . S
C2659 C2663 1.393 . S
C2660 H2652 0.950 . S
C2660 C2658 1.391 . S
C2660 C2661 1.400 . S
C2661 C2660 1.400 . S
C2661 C2662 1.398 . S
C2661 C2667 1.491 . S
C2662 H2653 0.950 . S
C2662 C2661 1.398 . S
C2662 C2663 1.391 . S
C2663 H2651 0.950 . S
C2663 C2659 1.393 . S
C2663 C2662 1.391 . S
C2664 H2654 0.950 . S
C2664 C2665 1.386 . S
C2664 C2666 1.391 . S
C2665 C2664 1.386 . S
C2665 C2669 1.393 . S
C2666 H2655 0.950 . S
C2666 C2664 1.391 . S
C2666 C2667 1.400 . S
C2667 C2661 1.491 . S
C2667 C2666 1.400 . S
C2667 C2668 1.398 . S
C2668 H2656 0.950 . S
C2668 C2667 1.398 . S
C2668 C2669 1.391 . S
C2669 H2657 0.950 . S
C2669 C2665 1.393 . S
C2669 C2668 1.391 . S
H2670 C2678 0.950 . S
H2671 C2683 0.950 . S
H2672 C2680 0.950 . S
H2673 C2682 0.950 . S
H2674 C2684 0.950 . S
H2675 C2686 0.950 . S
H2676 C2688 0.950 . S
H2677 C2689 0.950 . S
C2678 H2670 0.950 . S
C2678 C2679 1.386 . S
C2678 C2680 1.391 . S
C2679 C2678 1.386 . S
C2679 C2683 1.393 . S
C2680 H2672 0.950 . S
C2680 C2678 1.391 . S
C2680 C2681 1.400 . S
C2681 C2680 1.400 . S
C2681 C2682 1.398 . S
C2681 C2687 1.491 . S
C2682 H2673 0.950 . S
C2682 C2681 1.398 . S
C2682 C2683 1.391 . S
C2683 H2671 0.950 . S
C2683 C2679 1.393 . S
C2683 C2682 1.391 . S
C2684 H2674 0.950 . S
C2684 C2685 1.386 . S
C2684 C2686 1.391 . S
C2685 C2684 1.386 . S
C2685 C2689 1.393 . S
C2686 H2675 0.950 . S
C2686 C2684 1.391 . S
C2686 C2687 1.400 . S
C2687 C2681 1.491 . S
C2687 C2686 1.400 . S
C2687 C2688 1.398 . S
C2688 H2676 0.950 . S
C2688 C2687 1.398 . S
C2688 C2689 1.391 . S
C2689 H2677 0.950 . S
C2689 C2685 1.393 . S
C2689 C2688 1.391 . S
H2690 C2698 0.950 . S
H2691 C2703 0.950 1_545 S
H2692 C2700 0.950 . S
H2693 C2702 0.950 . S
H2694 C2704 0.950 . S
H2695 C2706 0.950 . S
H2696 C2708 0.950 . S
H2697 C2709 0.950 . S
C2698 H2690 0.950 . S
C2698 C2699 1.386 . S
C2698 C2700 1.391 . S
C2699 C2698 1.386 . S
C2699 C2703 1.393 . S
C2700 H2692 0.950 . S
C2700 C2698 1.391 . S
C2700 C2701 1.400 . S
C2701 C2700 1.400 . S
C2701 C2702 1.398 . S
C2701 C2707 1.491 . S
C2702 H2693 0.950 . S
C2702 C2701 1.398 . S
C2702 C2703 1.391 . S
C2703 H2691 0.950 1_565 S
C2703 C2699 1.393 . S
C2703 C2702 1.391 . S
C2704 H2694 0.950 . S
C2704 C2705 1.386 . S
C2704 C2706 1.391 . S
C2705 C2704 1.386 . S
C2705 C2709 1.393 . S
C2706 H2695 0.950 . S
C2706 C2704 1.391 . S
C2706 C2707 1.400 . S
C2707 C2701 1.491 . S
C2707 C2706 1.400 . S
C2707 C2708 1.398 . S
C2708 H2696 0.950 . S
C2708 C2707 1.398 . S
C2708 C2709 1.391 . S
C2709 H2697 0.950 . S
C2709 C2705 1.393 . S
C2709 C2708 1.391 . S
H2710 C2718 0.950 . S
H2711 C2723 0.950 . S
H2712 C2720 0.950 . S
H2713 C2722 0.950 . S
H2714 C2724 0.950 . S
H2715 C2726 0.950 . S
H2716 C2728 0.950 . S
H2717 C2729 0.950 . S
C2718 H2710 0.950 . S
C2718 C2719 1.386 . S
C2718 C2720 1.391 . S
C2719 C2718 1.386 . S
C2719 C2723 1.393 . S
C2720 H2712 0.950 . S
C2720 C2718 1.391 . S
C2720 C2721 1.400 . S
C2721 C2720 1.400 . S
C2721 C2722 1.398 . S
C2721 C2727 1.491 . S
C2722 H2713 0.950 . S
C2722 C2721 1.398 . S
C2722 C2723 1.391 . S
C2723 H2711 0.950 . S
C2723 C2719 1.393 . S
C2723 C2722 1.391 . S
C2724 H2714 0.950 . S
C2724 C2725 1.386 . S
C2724 C2726 1.391 . S
C2725 C2724 1.386 . S
C2725 C2729 1.393 . S
C2726 H2715 0.950 . S
C2726 C2724 1.391 . S
C2726 C2727 1.400 . S
C2727 C2721 1.491 . S
C2727 C2726 1.400 . S
C2727 C2728 1.398 . S
C2728 H2716 0.950 . S
C2728 C2727 1.398 . S
C2728 C2729 1.391 . S
C2729 H2717 0.950 . S
C2729 C2725 1.393 . S
C2729 C2728 1.391 . S
H2730 C2738 0.950 . S
H2731 C2743 0.950 . S
H2732 C2740 0.950 . S
H2733 C2742 0.934 1_455 S
H2734 C2744 0.950 1_455 S
H2735 C2746 0.957 1_455 S
H2736 C2748 0.950 . S
H2737 C2749 0.950 . S
C2738 H2730 0.950 . S
C2738 C2739 1.386 . S
C2738 C2740 1.391 . S
C2739 C2738 1.386 . S
C2739 C2743 1.393 . S
C2740 H2732 0.950 . S
C2740 C2738 1.391 . S
C2740 C2741 1.400 . S
C2741 C2740 1.400 . S
C2741 C2742 1.398 . S
C2741 C2747 1.491 . S
C2742 H2733 0.934 1_655 S
C2742 C2741 1.398 . S
C2742 C2743 1.391 . S
C2743 H2731 0.950 . S
C2743 C2739 1.393 . S
C2743 C2742 1.391 . S
C2744 H2734 0.950 1_655 S
C2744 C2745 1.386 . S
C2744 C2746 1.391 . S
C2745 C2744 1.386 . S
C2745 C2749 1.393 . S
C2746 H2735 0.957 1_655 S
C2746 C2744 1.391 . S
C2746 C2747 1.400 . S
C2747 C2741 1.491 . S
C2747 C2746 1.400 . S
C2747 C2748 1.398 . S
C2748 H2736 0.950 . S
C2748 C2747 1.398 . S
C2748 C2749 1.391 . S
C2749 H2737 0.950 . S
C2749 C2745 1.393 . S
C2749 C2748 1.391 . S
H2750 C2758 0.950 . S
H2751 C2763 0.950 . S
H2752 C2760 0.950 . S
H2753 C2762 0.950 . S
H2754 C2764 0.950 . S
H2755 C2766 0.950 . S
H2756 C2768 0.950 . S
H2757 C2769 0.950 . S
C2758 H2750 0.950 . S
C2758 C2759 1.386 . S
C2758 C2760 1.391 . S
C2759 C2758 1.386 . S
C2759 C2763 1.393 . S
C2760 H2752 0.950 . S
C2760 C2758 1.391 . S
C2760 C2761 1.400 . S
C2761 C2760 1.400 . S
C2761 C2762 1.398 . S
C2761 C2767 1.491 . S
C2762 H2753 0.950 . S
C2762 C2761 1.398 . S
C2762 C2763 1.391 . S
C2763 H2751 0.950 . S
C2763 C2759 1.393 . S
C2763 C2762 1.391 . S
C2764 H2754 0.950 . S
C2764 C2765 1.386 . S
C2764 C2766 1.391 . S
C2765 C2764 1.386 . S
C2765 C2769 1.393 . S
C2766 H2755 0.950 . S
C2766 C2764 1.391 . S
C2766 C2767 1.400 . S
C2767 C2761 1.491 . S
C2767 C2766 1.400 . S
C2767 C2768 1.398 . S
C2768 H2756 0.950 . S
C2768 C2767 1.398 . S
C2768 C2769 1.391 . S
C2769 H2757 0.950 . S
C2769 C2765 1.393 . S
C2769 C2768 1.391 . S
H2770 C2778 0.950 . S
H2771 C2783 0.950 . S
H2772 C2780 0.950 . S
H2773 C2782 0.950 . S
H2774 C2784 0.950 . S
H2775 C2786 0.950 . S
H2776 C2788 0.950 . S
H2777 C2789 0.950 . S
C2778 H2770 0.950 . S
C2778 C2779 1.386 . S
C2778 C2780 1.391 . S
C2779 C2778 1.386 . S
C2779 C2783 1.393 . S
C2780 H2772 0.950 . S
C2780 C2778 1.391 . S
C2780 C2781 1.400 . S
C2781 C2780 1.400 . S
C2781 C2782 1.398 . S
C2781 C2787 1.491 . S
C2782 H2773 0.950 . S
C2782 C2781 1.398 . S
C2782 C2783 1.391 . S
C2783 H2771 0.950 . S
C2783 C2779 1.393 . S
C2783 C2782 1.391 . S
C2784 H2774 0.950 . S
C2784 C2785 1.386 . S
C2784 C2786 1.391 . S
C2785 C2784 1.386 . S
C2785 C2789 1.393 . S
C2786 H2775 0.950 . S
C2786 C2784 1.391 . S
C2786 C2787 1.400 . S
C2787 C2781 1.491 . S
C2787 C2786 1.400 . S
C2787 C2788 1.398 . S
C2788 H2776 0.950 . S
C2788 C2787 1.398 . S
C2788 C2789 1.391 . S
C2789 H2777 0.950 . S
C2789 C2785 1.393 . S
C2789 C2788 1.391 . S
C1359 C10 1.690 . S
C1365 C839 1.635 . S
C1379 C23 1.678 . S
C1385 C883 1.632 . S
C1405 C963 1.651 . S
C1399 C29 1.694 . S
C1419 C30 1.687 . S
C1425 C1007 1.644 . S
C1439 C5 1.699 . S
C1445 C1087 1.662 . S
C1459 C18 1.684 . S
C1465 C1149 1.641 . S
C1479 C49 1.691 . S
C1485 C1069 1.648 . S
C1505 C1131 1.634 . S
C1499 C62 1.679 . S
C1525 C1025 1.649 . S
C1519 C70 1.687 . S
C1539 C75 1.688 . S
C1545 C945 1.639 . S
C1565 C821 1.641 . S
C1559 C44 1.694 . S
C1579 C57 1.683 . S
C1585 C901 1.641 . S
C1599 C88 1.691 . S
C1605 C1211 1.647 . S
C1619 C101 1.678 . S
C1625 C1255 1.630 . S
C1645 C1335 1.643 . S
C1639 C107 1.687 . S
C1659 C108 1.689 . S
C1665 C281 1.645 . S
C1679 C83 1.699 . S
C1685 C325 1.668 . S
C1699 C96 1.684 . S
C1705 C405 1.642 . S
C1719 C127 1.692 . S
C1725 C343 1.660 . S
C1739 C140 1.678 . S
C1745 C387 1.622 . S
C1765 C263 1.652 . S
C1759 C146 1.690 . S
C1785 C1317 1.648 . S
C1779 C147 1.689 . S
C1805 C1193 1.645 . S
C1799 C122 1.695 . S
C1825 C1273 1.645 . S
C1819 C135 1.685 . S
C1839 C160 1.692 . S
C1845 C467 1.651 . S
C1859 C173 1.679 . S
C1865 C529 1.635 . S
C1879 C185 1.690 . S
C1885 C573 1.659 . S
C1899 C186 1.689 . S
C1905 C635 1.657 . S
C1925 C697 1.651 . S
C1919 C159 1.695 . S
C1945 C777 1.636 . S
C1939 C172 1.686 . S
C1965 C715 1.660 . S
C1959 C205 1.692 . S
C1985 C759 1.641 . S
C1979 C218 1.680 . S
C1999 C224 1.690 . S
C2005 C653 1.659 . S
C2025 C591 1.650 . S
C2019 C225 1.688 . S
C2039 C200 1.698 . S
C2045 C449 1.659 . S
C2065 C511 1.633 . S
C2059 C213 1.685 . S
C2085 C287 1.461 . S
C2079 C4 1.509 . S
C2099 C17 1.506 . S
C2105 C331 1.456 . S
C2125 C411 1.449 . S
C2119 C31 1.516 . S
C2145 C473 1.461 . S
C2139 C36 1.508 . S
C2165 C535 1.446 . S
C2159 C3 1.520 . S
C2185 C579 1.443 . S
C2179 C16 1.513 . S
C2199 C43 1.509 . S
C2205 C597 1.443 . S
C2219 C56 1.504 . S
C2225 C455 1.431 . S
C2239 C68 1.513 . S
C2245 C517 1.467 . S
C2259 C69 1.512 . S
C2265 C349 1.442 . S
C2285 C393 1.459 . S
C2279 C42 1.522 . S
C2299 C55 1.514 . S
C2305 C269 1.465 . S
C2325 C641 1.467 . S
C2319 C82 1.511 . S
C2339 C95 1.507 . S
C2345 C703 1.452 . S
C2359 C109 1.516 1_655 S
C2365 C783 1.460 . S
C2385 C845 1.440 . S
C2379 C114 1.509 . S
C2399 C81 1.519 . S
C2405 C889 1.465 . S
C2419 C94 1.515 . S
C2425 C969 1.455 . S
C2439 C121 1.509 . S
C2445 C951 1.440 . S
C2459 C134 1.506 . S
C2465 C827 1.435 . S
C2485 C907 1.468 . S
C2479 C148 1.514 . S
C2499 C153 1.509 . S
C2505 C721 1.462 . S
C2519 C120 1.518 . S
C2525 C765 1.459 . S
C2545 C659 1.443 . S
C2539 C133 1.512 1_655 S
C2565 C1013 1.461 . S
C2559 C166 1.514 . S
C2579 C179 1.503 . S
C2585 C1093 1.438 . S
C2599 C187 1.513 . S
C2605 C1155 1.443 . S
C2625 C1217 1.459 . S
C2619 C192 1.512 . S
C2645 C1261 1.473 . S
C2639 C161 1.498 1_565 S
C2659 C174 1.512 . S
C2665 C1341 1.462 . S
C2679 C199 1.511 . S
C2685 C1323 1.466 . S
C2699 C212 1.507 1_565 S
C2705 C1199 1.445 . S
C2725 C1279 1.468 . S
C2719 C226 1.515 . S
C2745 C1075 1.445 . S
C2739 C231 1.507 . S
C2765 C1137 1.472 . S
C2759 C198 1.519 . S
C2779 C211 1.511 . S
C2785 C1031 1.447 . S
