# Generated by pormake.
# Topology wbl, (4,4)-cn, num edge types: 1
# Building blocks:
#     Node 0, Type 0, BuildingBlock: MIFKUJ_clean_linker_1, # of connection points: 4
#     Node 1, Type 0, BuildingBlock: MIFKUJ_clean_linker_1, # of connection points: 4
#     Node 2, Type 0, BuildingBlock: MIFKUJ_clean_linker_1, # of connection points: 4
#     Node 3, Type 0, BuildingBlock: MIFKUJ_clean_linker_1, # of connection points: 4
#     Node 4, Type 0, BuildingBlock: MIFKUJ_clean_linker_1, # of connection points: 4
#     Node 5, Type 0, BuildingBlock: MIFKUJ_clean_linker_1, # of connection points: 4
#     Node 6, Type 0, BuildingBlock: MIFKUJ_clean_linker_1, # of connection points: 4
#     Node 7, Type 0, BuildingBlock: MIFKUJ_clean_linker_1, # of connection points: 4
#     Node 8, Type 1, BuildingBlock: KUFVIS_clean_sbu_0, # of connection points: 4
#     Node 9, Type 1, BuildingBlock: KUFVIS_clean_sbu_0, # of connection points: 4
#     Node 10, Type 1, BuildingBlock: KUFVIS_clean_sbu_0, # of connection points: 4
#     Node 11, Type 1, BuildingBlock: KUFVIS_clean_sbu_0, # of connection points: 4
#     Node 12, Type 1, BuildingBlock: KUFVIS_clean_sbu_0, # of connection points: 4
#     Node 13, Type 1, BuildingBlock: KUFVIS_clean_sbu_0, # of connection points: 4
#     Node 14, Type 1, BuildingBlock: KUFVIS_clean_sbu_0, # of connection points: 4
#     Node 15, Type 1, BuildingBlock: KUFVIS_clean_sbu_0, # of connection points: 4
#     Edge 16, Type (0, 1), BuildingBlock: UVAHIK_clean_linker_0, # of connection points: 2
#     Edge 17, Type (0, 1), BuildingBlock: UVAHIK_clean_linker_0, # of connection points: 2
#     Edge 18, Type (0, 1), BuildingBlock: UVAHIK_clean_linker_0, # of connection points: 2
#     Edge 19, Type (0, 1), BuildingBlock: UVAHIK_clean_linker_0, # of connection points: 2
#     Edge 20, Type (0, 1), BuildingBlock: UVAHIK_clean_linker_0, # of connection points: 2
#     Edge 21, Type (0, 1), BuildingBlock: UVAHIK_clean_linker_0, # of connection points: 2
#     Edge 22, Type (0, 1), BuildingBlock: UVAHIK_clean_linker_0, # of connection points: 2
#     Edge 23, Type (0, 1), BuildingBlock: UVAHIK_clean_linker_0, # of connection points: 2
#     Edge 24, Type (0, 1), BuildingBlock: UVAHIK_clean_linker_0, # of connection points: 2
#     Edge 25, Type (0, 1), BuildingBlock: UVAHIK_clean_linker_0, # of connection points: 2
#     Edge 26, Type (0, 1), BuildingBlock: UVAHIK_clean_linker_0, # of connection points: 2
#     Edge 27, Type (0, 1), BuildingBlock: UVAHIK_clean_linker_0, # of connection points: 2
#     Edge 28, Type (0, 1), BuildingBlock: UVAHIK_clean_linker_0, # of connection points: 2
#     Edge 29, Type (0, 1), BuildingBlock: UVAHIK_clean_linker_0, # of connection points: 2
#     Edge 30, Type (0, 1), BuildingBlock: UVAHIK_clean_linker_0, # of connection points: 2
#     Edge 31, Type (0, 1), BuildingBlock: UVAHIK_clean_linker_0, # of connection points: 2
#     Edge 32, Type (0, 1), BuildingBlock: UVAHIK_clean_linker_0, # of connection points: 2
#     Edge 33, Type (0, 1), BuildingBlock: UVAHIK_clean_linker_0, # of connection points: 2
#     Edge 34, Type (0, 1), BuildingBlock: UVAHIK_clean_linker_0, # of connection points: 2
#     Edge 35, Type (0, 1), BuildingBlock: UVAHIK_clean_linker_0, # of connection points: 2
#     Edge 36, Type (0, 1), BuildingBlock: UVAHIK_clean_linker_0, # of connection points: 2
#     Edge 37, Type (0, 1), BuildingBlock: UVAHIK_clean_linker_0, # of connection points: 2
#     Edge 38, Type (0, 1), BuildingBlock: UVAHIK_clean_linker_0, # of connection points: 2
#     Edge 39, Type (0, 1), BuildingBlock: UVAHIK_clean_linker_0, # of connection points: 2
#     Edge 40, Type (0, 1), BuildingBlock: UVAHIK_clean_linker_0, # of connection points: 2
#     Edge 41, Type (0, 1), BuildingBlock: UVAHIK_clean_linker_0, # of connection points: 2
#     Edge 42, Type (0, 1), BuildingBlock: UVAHIK_clean_linker_0, # of connection points: 2
#     Edge 43, Type (0, 1), BuildingBlock: UVAHIK_clean_linker_0, # of connection points: 2
#     Edge 44, Type (0, 1), BuildingBlock: UVAHIK_clean_linker_0, # of connection points: 2
#     Edge 45, Type (0, 1), BuildingBlock: UVAHIK_clean_linker_0, # of connection points: 2
#     Edge 46, Type (0, 1), BuildingBlock: UVAHIK_clean_linker_0, # of connection points: 2
#     Edge 47, Type (0, 1), BuildingBlock: UVAHIK_clean_linker_0, # of connection points: 2
# Relax obj value: 0.149
# Max RMSD: 0.141
# Mean RMSD: 0.129
data_MOF--net-wbl--node1-KUFVIS_clean_sbu_0--node2-MIFKUJ_clean_linker_1--edge1-UVAHIK_clean_linker_0
_symmetry_space_group_name_H-M    P1
_symmetry_Int_Tables_number       1
_symmetry_cell_setting            triclinic
loop_
_symmetry_equiv_pos_as_xyz
'x, y, z'
_cell_length_a     57.200156
_cell_length_b     57.209451
_cell_length_c     92.148693
_cell_angle_alpha  90.045558
_cell_angle_beta   90.646882
_cell_angle_gamma 89.994661
loop_
_atom_site_label
_atom_site_type_symbol
_atom_site_fract_x
_atom_site_fract_y
_atom_site_fract_z
_atom_type_partial_charge
H0 H 0.01939 0.08126 0.33341 0.0
H1 H 0.99615 0.10323 0.35085 0.0
H2 H 0.93905 0.05459 0.34455 0.0
H3 H 0.96219 0.03323 0.32679 0.0
H4 H 0.02967 0.0328 0.33852 0.0
H5 H 0.99282 0.08149 0.30082 0.0
H6 H 0.95778 0.09787 0.28924 0.0
H7 H 0.93184 0.02791 0.28143 0.0
H8 H 0.96716 0.0118 0.29262 0.0
H9 H 0.02596 0.9722 0.28711 0.0
H10 H 0.05301 0.94747 0.27348 0.0
H11 H 0.11116 0.98789 0.29028 0.0
H12 H 0.08414 0.01293 0.30331 0.0
H13 H 0.01448 0.01651 0.28637 0.0
H14 H 0.04219 0.96639 0.32286 0.0
H15 H 0.06556 0.94388 0.34015 0.0
H16 H 0.10098 0.00717 0.35371 0.0
H17 H 0.07687 0.02966 0.33666 0.0
C18 C 0.99249 0.05567 0.32882 0.0
C19 C 0.00167 0.07567 0.33559 0.0
C20 C 0.98841 0.08809 0.34562 0.0
C21 C 0.96581 0.08053 0.34927 0.0
C22 C 0.95626 0.0611 0.34191 0.0
C23 C 0.96949 0.04879 0.33178 0.0
C24 C 0.00785 0.04058 0.31999 0.0
C25 C 0.02675 0.02969 0.32702 0.0
C26 C 0.00303 0.03537 0.30527 0.0
C27 C 0.9825 0.04545 0.29761 0.0
C28 C 0.9796 0.06974 0.29652 0.0
C29 C 0.95951 0.07906 0.28997 0.0
C30 C 0.94191 0.06423 0.28442 0.0
C31 C 0.94516 0.03988 0.28533 0.0
C32 C 0.9653 0.03061 0.29179 0.0
C33 C 0.05302 0.99429 0.29634 0.0
C34 C 0.04453 0.97582 0.28773 0.0
C35 C 0.06002 0.96159 0.28005 0.0
C36 C 0.08426 0.9657 0.28077 0.0
C37 C 0.09261 0.9844 0.28929 0.0
C38 C 0.07717 0.99858 0.29691 0.0
C39 C 0.03687 0.00919 0.30482 0.0
C40 C 0.01776 0.01993 0.29779 0.0
C41 C 0.04088 0.01357 0.31975 0.0
C42 C 0.05777 0.99969 0.3285 0.0
C43 C 0.05536 0.97533 0.32933 0.0
C44 C 0.06883 0.96246 0.33922 0.0
C45 C 0.08505 0.97371 0.34845 0.0
C46 C 0.08832 0.99799 0.34699 0.0
C47 C 0.07467 0.01087 0.33719 0.0
H48 H 0.01548 0.43769 0.54624 0.0
H49 H 0.99369 0.40641 0.53423 0.0
H50 H 0.92948 0.44511 0.54023 0.0
H51 H 0.95149 0.47573 0.55293 0.0
H52 H 0.01368 0.4902 0.53851 0.0
H53 H 0.99432 0.43324 0.57817 0.0
H54 H 0.96949 0.41289 0.59572 0.0
H55 H 0.936 0.47835 0.60618 0.0
H56 H 0.96071 0.49846 0.58877 0.0
H57 H 0.00999 0.54167 0.59411 0.0
H58 H 0.03353 0.56762 0.60899 0.0
H59 H 0.09381 0.55205 0.58265 0.0
H60 H 0.07074 0.5238 0.56905 0.0
H61 H 0.00888 0.49962 0.5919 0.0
H62 H 0.0121 0.55557 0.55478 0.0
H63 H 0.03063 0.58661 0.5408 0.0
H64 H 0.08167 0.53738 0.52507 0.0
H65 H 0.06263 0.50602 0.53896 0.0
C66 C 0.98504 0.45887 0.55048 0.0
C67 C 0.99671 0.43938 0.54491 0.0
C68 C 0.98418 0.4216 0.53794 0.0
C69 C 0.95974 0.42318 0.53614 0.0
C70 C 0.94819 0.44305 0.54158 0.0
C71 C 0.96073 0.46066 0.54876 0.0
C72 C 0.9984 0.47721 0.55821 0.0
C73 C 0.01293 0.49209 0.55021 0.0
C74 C 0.99623 0.48064 0.5733 0.0
C75 C 0.97942 0.46738 0.58224 0.0
C76 C 0.98127 0.44306 0.58402 0.0
C77 C 0.96709 0.43147 0.59403 0.0
C78 C 0.95105 0.44411 0.60244 0.0
C79 C 0.94848 0.46823 0.60004 0.0
C80 C 0.96254 0.47972 0.59007 0.0
C81 C 0.03841 0.53069 0.58034 0.0
C82 C 0.02833 0.54367 0.59159 0.0
C83 C 0.04186 0.55896 0.59998 0.0
C84 C 0.0658 0.56224 0.59712 0.0
C85 C 0.07564 0.54982 0.58548 0.0
C86 C 0.06224 0.53394 0.57739 0.0
C87 C 0.02433 0.51284 0.5723 0.0
C88 C 0.00979 0.49786 0.58019 0.0
C89 C 0.02516 0.51042 0.55702 0.0
C90 C 0.03609 0.52859 0.54793 0.0
C91 C 0.02716 0.5514 0.54823 0.0
C92 C 0.03769 0.56906 0.54021 0.0
C93 C 0.05751 0.56431 0.53186 0.0
C94 C 0.06641 0.54142 0.53146 0.0
C95 C 0.05553 0.52356 0.5393 0.0
H96 H 0.51775 0.57 0.83638 0.0
H97 H 0.49488 0.59203 0.85396 0.0
H98 H 0.438 0.54286 0.84862 0.0
H99 H 0.46081 0.52138 0.83069 0.0
H100 H 0.52872 0.52182 0.84127 0.0
H101 H 0.48697 0.57004 0.80643 0.0
H102 H 0.44991 0.58495 0.79696 0.0
H103 H 0.43083 0.51514 0.7832 0.0
H104 H 0.46724 0.50017 0.79359 0.0
H105 H 0.52378 0.46213 0.78933 0.0
H106 H 0.55075 0.4359 0.77661 0.0
H107 H 0.60936 0.47516 0.79364 0.0
H108 H 0.58259 0.50176 0.80581 0.0
H109 H 0.51215 0.50578 0.78925 0.0
H110 H 0.54159 0.45589 0.826 0.0
H111 H 0.5665 0.43418 0.84289 0.0
H112 H 0.6021 0.49829 0.85462 0.0
H113 H 0.57641 0.51996 0.83807 0.0
C114 C 0.49095 0.54411 0.83225 0.0
C115 C 0.50018 0.56425 0.83883 0.0
C116 C 0.48713 0.57672 0.84894 0.0
C117 C 0.46469 0.56907 0.85285 0.0
C118 C 0.4551 0.54941 0.84576 0.0
C119 C 0.46814 0.53704 0.83555 0.0
C120 C 0.50608 0.52932 0.82309 0.0
C121 C 0.52542 0.51873 0.8298 0.0
C122 C 0.50085 0.52424 0.80837 0.0
C123 C 0.4797 0.53389 0.80103 0.0
C124 C 0.47474 0.55792 0.80145 0.0
C125 C 0.45361 0.56648 0.79585 0.0
C126 C 0.43717 0.55123 0.78944 0.0
C127 C 0.44278 0.52733 0.78836 0.0
C128 C 0.46377 0.51876 0.79414 0.0
C129 C 0.55114 0.48366 0.7988 0.0
C130 C 0.54242 0.4653 0.79015 0.0
C131 C 0.55779 0.45031 0.78292 0.0
C132 C 0.58207 0.45336 0.78436 0.0
C133 C 0.59071 0.4722 0.79259 0.0
C134 C 0.57541 0.48734 0.79958 0.0
C135 C 0.53519 0.49863 0.80741 0.0
C136 C 0.51569 0.50916 0.80065 0.0
C137 C 0.53958 0.50296 0.82231 0.0
C138 C 0.55712 0.48953 0.83083 0.0
C139 C 0.55507 0.46517 0.83201 0.0
C140 C 0.56944 0.45277 0.84165 0.0
C141 C 0.58622 0.46449 0.85026 0.0
C142 C 0.58905 0.48876 0.84841 0.0
C143 C 0.57449 0.50117 0.83889 0.0
H144 H 0.4957 0.94672 0.04588 0.0
H145 H 0.4762 0.91467 0.03286 0.0
H146 H 0.41013 0.95064 0.0366 0.0
H147 H 0.42991 0.98294 0.04929 0.0
H148 H 0.48986 0.00189 0.03818 0.0
H149 H 0.4939 0.95156 0.0893 0.0
H150 H 0.47366 0.92551 0.10583 0.0
H151 H 0.40728 0.95366 0.09113 0.0
H152 H 0.42798 0.98082 0.07537 0.0
H153 H 0.48847 0.05075 0.09289 0.0
H154 H 0.51326 0.07563 0.10829 0.0
H155 H 0.57479 0.04599 0.0887 0.0
H156 H 0.54988 0.02112 0.07332 0.0
H157 H 0.4883 0.00201 0.09202 0.0
H158 H 0.50208 0.06627 0.06099 0.0
H159 H 0.52739 0.09496 0.04939 0.0
H160 H 0.55836 0.04032 0.02368 0.0
H161 H 0.53386 0.01123 0.0359 0.0
C162 C 0.46413 0.96691 0.04872 0.0
C163 C 0.47706 0.94776 0.04375 0.0
C164 C 0.46593 0.92956 0.03629 0.0
C165 C 0.44164 0.93016 0.03379 0.0
C166 C 0.42882 0.94964 0.03852 0.0
C167 C 0.44005 0.96802 0.04579 0.0
C168 C 0.47591 0.98544 0.05722 0.0
C169 C 0.48949 0.00207 0.04994 0.0
C170 C 0.47524 0.98563 0.07253 0.0
C171 C 0.46243 0.96782 0.08093 0.0
C172 C 0.47496 0.95186 0.08952 0.0
C173 C 0.46328 0.93681 0.09889 0.0
C174 C 0.43872 0.93731 0.09984 0.0
C175 C 0.42618 0.95289 0.09084 0.0
C176 C 0.43796 0.96818 0.0816 0.0
C177 C 0.51736 0.03419 0.08195 0.0
C178 C 0.50729 0.04972 0.09187 0.0
C179 C 0.52145 0.06402 0.10056 0.0
C180 C 0.54593 0.06277 0.09964 0.0
C181 C 0.55597 0.04724 0.08966 0.0
C182 C 0.54179 0.03312 0.08085 0.0
C183 C 0.50231 0.01859 0.07305 0.0
C184 C 0.48837 0.00226 0.08024 0.0
C185 C 0.50262 0.01883 0.05768 0.0
C186 C 0.51643 0.03646 0.0496 0.0
C187 C 0.5145 0.06032 0.05301 0.0
C188 C 0.52888 0.07673 0.04636 0.0
C189 C 0.54493 0.0697 0.03582 0.0
C190 C 0.54613 0.04605 0.03184 0.0
C191 C 0.53209 0.02951 0.03876 0.0
H192 H 0.98081 0.57121 0.91342 0.0
H193 H 0.00373 0.59284 0.89565 0.0
H194 H 0.06523 0.55361 0.90808 0.0
H195 H 0.04213 0.53154 0.9256 0.0
H196 H 0.97313 0.52516 0.91182 0.0
H197 H 0.00956 0.57705 0.94866 0.0
H198 H 0.04495 0.59414 0.95944 0.0
H199 H 0.07146 0.52465 0.96813 0.0
H200 H 0.0358 0.50792 0.95784 0.0
H201 H 0.9762 0.46869 0.96498 0.0
H202 H 0.94872 0.44554 0.97929 0.0
H203 H 0.89128 0.48567 0.96133 0.0
H204 H 0.91873 0.50918 0.94763 0.0
H205 H 0.98821 0.5132 0.96441 0.0
H206 H 0.96048 0.46019 0.92889 0.0
H207 H 0.93559 0.43678 0.91288 0.0
H208 H 0.89959 0.49952 0.89894 0.0
H209 H 0.92534 0.52285 0.91455 0.0
C210 C 0.00974 0.54982 0.92092 0.0
C211 C 0.9993 0.56747 0.91248 0.0
C212 C 0.01238 0.57982 0.90234 0.0
C213 C 0.03621 0.57485 0.9005 0.0
C214 C 0.04695 0.55798 0.90942 0.0
C215 C 0.03377 0.5454 0.91945 0.0
C216 C 0.99489 0.53468 0.93011 0.0
C217 C 0.97611 0.523 0.92339 0.0
C218 C 0.99966 0.53062 0.945 0.0
C219 C 0.02013 0.54124 0.95243 0.0
C220 C 0.02295 0.56558 0.95305 0.0
C221 C 0.04326 0.57529 0.95912 0.0
C222 C 0.06117 0.56081 0.96464 0.0
C223 C 0.05794 0.53641 0.96426 0.0
C224 C 0.03758 0.52676 0.95832 0.0
C225 C 0.94952 0.4905 0.9551 0.0
C226 C 0.95769 0.47259 0.96425 0.0
C227 C 0.94196 0.45926 0.97233 0.0
C228 C 0.91778 0.46374 0.97147 0.0
C229 C 0.90977 0.48193 0.96244 0.0
C230 C 0.92545 0.49522 0.95443 0.0
C231 C 0.96589 0.50442 0.94618 0.0
C232 C 0.98497 0.5157 0.95289 0.0
C233 C 0.96198 0.50752 0.93113 0.0
C234 C 0.94477 0.49324 0.92287 0.0
C235 C 0.94697 0.46883 0.92254 0.0
C236 C 0.93262 0.45545 0.9134 0.0
C237 C 0.91563 0.46622 0.90448 0.0
C238 C 0.9128 0.49065 0.90538 0.0
C239 C 0.92738 0.50403 0.91438 0.0
H240 H 0.50469 0.54162 0.21 0.0
H241 H 0.48505 0.57472 0.22138 0.0
H242 H 0.41798 0.54511 0.20938 0.0
H243 H 0.43789 0.51249 0.19763 0.0
H244 H 0.50006 0.49075 0.21385 0.0
H245 H 0.49065 0.55093 0.17567 0.0
H246 H 0.4679 0.57863 0.16088 0.0
H247 H 0.41919 0.52363 0.14972 0.0
H248 H 0.4421 0.496 0.16441 0.0
H249 H 0.49068 0.44155 0.15833 0.0
H250 H 0.51236 0.41602 0.14218 0.0
H251 H 0.57666 0.43446 0.16449 0.0
H252 H 0.55491 0.46099 0.18016 0.0
H253 H 0.49234 0.48615 0.16023 0.0
H254 H 0.50326 0.42457 0.19328 0.0
H255 H 0.52395 0.3942 0.20674 0.0
H256 H 0.56421 0.44706 0.22939 0.0
H257 H 0.54406 0.47745 0.21534 0.0
C258 C 0.47273 0.52474 0.20293 0.0
C259 C 0.48575 0.54217 0.21001 0.0
C260 C 0.47446 0.56104 0.21654 0.0
C261 C 0.44988 0.56269 0.21626 0.0
C262 C 0.4369 0.54467 0.20958 0.0
C263 C 0.44823 0.52591 0.20295 0.0
C264 C 0.48477 0.50618 0.19469 0.0
C265 C 0.49868 0.4898 0.20212 0.0
C266 C 0.48219 0.50451 0.17948 0.0
C267 C 0.468 0.52148 0.17109 0.0
C268 C 0.47498 0.54493 0.17011 0.0
C269 C 0.46204 0.56068 0.16166 0.0
C270 C 0.44178 0.55324 0.15421 0.0
C271 C 0.43458 0.52985 0.15548 0.0
C272 C 0.44771 0.51405 0.16376 0.0
C273 C 0.5211 0.45319 0.17051 0.0
C274 C 0.50944 0.44003 0.15979 0.0
C275 C 0.52188 0.42521 0.15065 0.0
C276 C 0.54632 0.42309 0.15202 0.0
C277 C 0.55791 0.43583 0.16302 0.0
C278 C 0.54544 0.45082 0.17211 0.0
C279 C 0.50796 0.47048 0.1793 0.0
C280 C 0.49383 0.48681 0.17197 0.0
C281 C 0.50996 0.47163 0.19464 0.0
C282 C 0.52234 0.45329 0.20313 0.0
C283 C 0.51671 0.42965 0.20103 0.0
C284 C 0.52835 0.41228 0.20889 0.0
C285 C 0.54571 0.41817 0.2192 0.0
C286 C 0.55113 0.44191 0.22143 0.0
C287 C 0.5395 0.4593 0.21349 0.0
H288 H 0.46864 0.94401 0.43229 0.0
H289 H 0.44311 0.91906 0.41734 0.0
H290 H 0.41661 0.98019 0.39515 0.0
H291 H 0.44231 0.00501 0.41002 0.0
H292 H 0.49165 0.00012 0.40993 0.0
H293 H 0.47965 0.96031 0.46657 0.0
H294 H 0.44807 0.94202 0.48039 0.0
H295 H 0.39757 0.98487 0.45749 0.0
H296 H 0.42908 0.00315 0.44391 0.0
H297 H 0.51276 0.05466 0.46067 0.0
H298 H 0.54737 0.07276 0.4721 0.0
H299 H 0.59072 0.01826 0.4542 0.0
H300 H 0.55627 0.0003 0.44302 0.0
H301 H 0.49465 0.00666 0.46366 0.0
H302 H 0.51789 0.06042 0.42391 0.0
H303 H 0.54427 0.07834 0.40641 0.0
H304 H 0.56996 0.00971 0.39488 0.0
H305 H 0.5426 0.99207 0.41179 0.0
C306 C 0.45728 0.97632 0.42225 0.0
C307 C 0.457 0.95204 0.42438 0.0
C308 C 0.44254 0.93782 0.41582 0.0
C309 C 0.42794 0.94773 0.4051 0.0
C310 C 0.42753 0.97214 0.40343 0.0
C311 C 0.44224 0.9863 0.41185 0.0
C312 C 0.47481 0.99096 0.42992 0.0
C313 C 0.49216 0.00171 0.42166 0.0
C314 C 0.47541 0.99309 0.4452 0.0
C315 C 0.45665 0.98299 0.45419 0.0
C316 C 0.46177 0.9659 0.46467 0.0
C317 C 0.44374 0.95537 0.47247 0.0
C318 C 0.42036 0.96203 0.47003 0.0
C319 C 0.41542 0.97956 0.45975 0.0
C320 C 0.43338 0.9899 0.45191 0.0
C321 C 0.53205 0.02623 0.45099 0.0
C322 C 0.52974 0.04661 0.45933 0.0
C323 C 0.54949 0.05697 0.46576 0.0
C324 C 0.57172 0.04687 0.46408 0.0
C325 C 0.57381 0.02629 0.45585 0.0
C326 C 0.55418 0.01609 0.44938 0.0
C327 C 0.5116 0.01559 0.44361 0.0
C328 C 0.49388 0.00535 0.45192 0.0
C329 C 0.51048 0.01402 0.42833 0.0
C330 C 0.52824 0.02497 0.419 0.0
C331 C 0.52938 0.04934 0.41765 0.0
C332 C 0.5446 0.05954 0.4077 0.0
C333 C 0.55914 0.0455 0.39905 0.0
C334 C 0.55863 0.02108 0.40102 0.0
C335 C 0.54314 0.01093 0.41077 0.0
H336 H 0.01988 0.05573 0.70823 0.0
H337 H 0.00135 0.08973 0.71931 0.0
H338 H 0.93348 0.058 0.71231 0.0
H339 H 0.95224 0.02459 0.7007 0.0
H340 H 0.01475 0.00368 0.71451 0.0
H341 H 0.00284 0.06232 0.67525 0.0
H342 H 0.97948 0.08886 0.65999 0.0
H343 H 0.93013 0.03321 0.65152 0.0
H344 H 0.95356 0.00682 0.66672 0.0
H345 H 4e-05 0.95222 0.66016 0.0
H346 H 0.01984 0.9254 0.64388 0.0
H347 H 0.08606 0.94262 0.66432 0.0
H348 H 0.0662 0.97047 0.68007 0.0
H349 H 0.00298 0.99659 0.66125 0.0
H350 H 0.0136 0.93668 0.69504 0.0
H351 H 0.0341 0.90577 0.7081 0.0
H352 H 0.07862 0.95734 0.72876 0.0
H353 H 0.05855 0.98826 0.71507 0.0
C354 C 0.9874 0.03777 0.70365 0.0
C355 C 0.00104 0.05606 0.70927 0.0
C356 C 0.99037 0.07544 0.71564 0.0
C357 C 0.96584 0.07674 0.71667 0.0
C358 C 0.95234 0.05787 0.71146 0.0
C359 C 0.96302 0.03864 0.70495 0.0
C360 C 0.99851 0.01858 0.69547 0.0
C361 C 0.01251 0.0022 0.70284 0.0
C362 C 0.99467 0.01614 0.6804 0.0
C363 C 0.97986 0.03267 0.67208 0.0
C364 C 0.98684 0.05598 0.67023 0.0
C365 C 0.97356 0.07105 0.6615 0.0
C366 C 0.953 0.06307 0.6546 0.0
C367 C 0.94575 0.03989 0.65683 0.0
C368 C 0.95917 0.02478 0.66541 0.0
C369 C 0.03157 0.96339 0.67137 0.0
C370 C 0.01882 0.95017 0.66118 0.0
C371 C 0.03018 0.93459 0.65198 0.0
C372 C 0.0546 0.93175 0.65277 0.0
C373 C 0.06728 0.94453 0.66328 0.0
C374 C 0.0559 0.96028 0.67243 0.0
C375 C 0.01959 0.9815 0.68017 0.0
C376 C 0.00538 0.99783 0.67292 0.0
C377 C 0.02265 0.98331 0.69542 0.0
C378 C 0.03477 0.96477 0.70389 0.0
C379 C 0.0279 0.94135 0.70229 0.0
C380 C 0.03947 0.9237 0.70992 0.0
C381 C 0.05799 0.92905 0.71953 0.0
C382 C 0.0646 0.95259 0.72133 0.0
C383 C 0.05304 0.97029 0.71361 0.0
Mn384 Mn 0.333 0.6689 0.00712 0.0
Mn385 Mn 0.34103 0.61151 0.01398 0.0
C386 C 0.33623 0.65567 0.0308 0.0
C387 C 0.34848 0.70581 0.00254 0.0
C388 C 0.29422 0.63219 0.00498 0.0
O389 O 0.34363 0.65628 0.98759 0.0
O390 O 0.35018 0.61869 0.99372 0.0
C391 C 0.39268 0.61044 0.01234 0.0
N392 N 0.37276 0.60641 0.01989 0.0
C393 C 0.39468 0.59159 0.04034 0.0
C394 C 0.41544 0.59546 0.03275 0.0
C395 C 0.41443 0.60499 0.01871 0.0
C396 C 0.37354 0.5974 0.03345 0.0
H397 H 0.39198 0.61779 0.00156 0.0
C398 C 0.35031 0.63555 0.98456 0.0
O399 O 0.32714 0.70061 0.99879 0.0
O400 O 0.36087 0.68938 0.00852 0.0
N401 N 0.33313 0.60214 0.03325 0.0
C402 C 0.31159 0.60038 0.03932 0.0
C403 C 0.30953 0.59121 0.05338 0.0
C404 C 0.3296 0.58387 0.06102 0.0
C405 C 0.35159 0.58588 0.05456 0.0
C406 C 0.35253 0.59491 0.04046 0.0
H407 H 0.29611 0.60596 0.0335 0.0
O408 O 0.32614 0.6755 0.02803 0.0
O409 O 0.344 0.64429 0.01966 0.0
O410 O 0.30098 0.65341 0.00418 0.0
O411 O 0.30781 0.61527 0.00839 0.0
C412 C 0.37262 0.57949 0.06161 0.0
C413 C 0.39416 0.58247 0.05454 0.0
H414 H 0.43225 0.59131 0.03763 0.0
H415 H 0.43038 0.60812 0.01281 0.0
H416 H 0.29251 0.58979 0.05831 0.0
H417 H 0.32792 0.57678 0.07185 0.0
H418 H 0.37245 0.57253 0.07254 0.0
H419 H 0.41024 0.5778 0.06015 0.0
Mn420 Mn 0.32505 0.82672 0.25567 0.0
Mn421 Mn 0.38252 0.83483 0.26283 0.0
C422 C 0.33781 0.83383 0.27913 0.0
C423 C 0.28844 0.84178 0.24945 0.0
C424 C 0.36122 0.78717 0.25732 0.0
O425 O 0.33803 0.8339 0.23575 0.0
O426 O 0.37605 0.83922 0.24171 0.0
C427 C 0.38482 0.88543 0.25629 0.0
N428 N 0.38826 0.86742 0.26573 0.0
C429 C 0.40313 0.89353 0.28414 0.0
C430 C 0.39989 0.91233 0.27457 0.0
C431 C 0.39065 0.90826 0.2606 0.0
C432 C 0.39709 0.87114 0.27921 0.0
H433 H 0.37764 0.88238 0.24557 0.0
C434 C 0.35914 0.83851 0.23246 0.0
O435 O 0.29332 0.81984 0.24744 0.0
O436 O 0.30495 0.85491 0.25471 0.0
N437 N 0.39133 0.83132 0.28282 0.0
C438 C 0.39208 0.8115 0.291 0.0
C439 C 0.4004 0.81264 0.30539 0.0
C440 C 0.40795 0.8341 0.31118 0.0
C441 C 0.40715 0.85423 0.30253 0.0
C442 C 0.3989 0.85199 0.28822 0.0
H443 H 0.38617 0.795 0.28664 0.0
O444 O 0.31797 0.82344 0.27677 0.0
O445 O 0.34962 0.83959 0.26771 0.0
O446 O 0.34024 0.79414 0.25519 0.0
O447 O 0.37818 0.8009 0.26037 0.0
C448 C 0.41374 0.87653 0.30763 0.0
C449 C 0.41168 0.89617 0.29845 0.0
H450 H 0.40426 0.92999 0.27788 0.0
H451 H 0.38799 0.92271 0.25319 0.0
H452 H 0.40087 0.79704 0.31202 0.0
H453 H 0.41413 0.83495 0.32232 0.0
H454 H 0.42004 0.87883 0.31867 0.0
H455 H 0.41647 0.91327 0.30256 0.0
Mn456 Mn 0.17174 0.83137 0.4964 0.0
Mn457 Mn 0.11361 0.8369 0.49079 0.0
C458 C 0.15719 0.84171 0.47377 0.0
C459 C 0.20762 0.84789 0.50284 0.0
C460 C 0.13811 0.79004 0.49282 0.0
O461 O 0.15941 0.83423 0.51695 0.0
O462 O 0.12091 0.83853 0.51193 0.0
C463 C 0.10826 0.88598 0.5004 0.0
N464 N 0.10565 0.86931 0.48995 0.0
C465 C 0.08793 0.89691 0.47349 0.0
C466 C 0.0903 0.91435 0.48411 0.0
C467 C 0.10058 0.90887 0.4976 0.0
C468 C 0.09591 0.87443 0.4769 0.0
H469 H 0.11616 0.88183 0.51078 0.0
C470 C 0.13825 0.83721 0.52083 0.0
O471 O 0.20436 0.82543 0.5035 0.0
O472 O 0.18991 0.86059 0.49889 0.0
N473 N 0.10414 0.83583 0.47081 0.0
C474 C 0.10433 0.81734 0.46148 0.0
C475 C 0.09528 0.82009 0.44736 0.0
C476 C 0.08595 0.84172 0.44302 0.0
C477 C 0.08575 0.86043 0.45286 0.0
C478 C 0.09498 0.85666 0.46679 0.0
H479 H 0.11149 0.80068 0.46476 0.0
O480 O 0.17775 0.8323 0.47503 0.0
O481 O 0.14578 0.84459 0.48574 0.0
O482 O 0.15879 0.7979 0.49489 0.0
O483 O 0.12022 0.80316 0.49114 0.0
C484 C 0.07704 0.88276 0.44932 0.0
C485 C 0.07822 0.90102 0.4596 0.0
H486 H 0.08443 0.93204 0.48199 0.0
H487 H 0.10256 0.92226 0.50583 0.0
H488 H 0.09553 0.80557 0.43983 0.0
H489 H 0.07911 0.84382 0.43209 0.0
H490 H 0.06973 0.88619 0.43863 0.0
H491 H 0.07183 0.91822 0.45666 0.0
Mn492 Mn 0.17158 0.67287 0.74691 0.0
Mn493 Mn 0.15846 0.6164 0.74042 0.0
C494 C 0.16834 0.65951 0.72323 0.0
C495 C 0.15872 0.71071 0.75159 0.0
C496 C 0.20639 0.63312 0.75065 0.0
O497 O 0.15976 0.66117 0.76647 0.0
O498 O 0.14684 0.62545 0.75982 0.0
C499 C 0.1069 0.62032 0.73875 0.0
N500 N 0.12747 0.61385 0.73263 0.0
C501 C 0.10757 0.59942 0.7113 0.0
C502 C 0.08615 0.60572 0.71743 0.0
C503 C 0.08582 0.61632 0.73119 0.0
C504 C 0.12801 0.60397 0.71932 0.0
H505 H 0.1066 0.62855 0.7493 0.0
C506 C 0.14907 0.64204 0.76908 0.0
O507 O 0.17969 0.70407 0.75527 0.0
O508 O 0.14524 0.69528 0.74547 0.0
N509 N 0.1685 0.60532 0.72191 0.0
C510 C 0.19067 0.60108 0.71731 0.0
C511 C 0.19408 0.59066 0.7037 0.0
C512 C 0.1747 0.58447 0.69503 0.0
C513 C 0.15205 0.58891 0.70001 0.0
C514 C 0.14973 0.59921 0.7137 0.0
H515 H 0.20564 0.60552 0.724 0.0
O516 O 0.17938 0.67881 0.72605 0.0
O517 O 0.15923 0.64902 0.73428 0.0
O518 O 0.20217 0.65499 0.74993 0.0
O519 O 0.19097 0.6174 0.74806 0.0
C520 C 0.13169 0.5836 0.6919 0.0
C521 C 0.10948 0.58905 0.69749 0.0
H522 H 0.06985 0.60265 0.71163 0.0
H523 H 0.06937 0.62137 0.73595 0.0
H524 H 0.21161 0.58728 0.69994 0.0
H525 H 0.17744 0.57632 0.68458 0.0
H526 H 0.13291 0.57554 0.6813 0.0
H527 H 0.09398 0.58523 0.69105 0.0
Mn528 Mn 0.83612 0.17108 0.50603 0.0
Mn529 Mn 0.84707 0.11401 0.51219 0.0
C530 C 0.8424 0.15785 0.52947 0.0
C531 C 0.8501 0.20823 0.50074 0.0
C532 C 0.7987 0.1331 0.50505 0.0
O533 O 0.84469 0.15886 0.48599 0.0
O534 O 0.85467 0.12187 0.49178 0.0
C535 C 0.89855 0.11468 0.50932 0.0
N536 N 0.87927 0.10988 0.51732 0.0
C537 C 0.90292 0.09559 0.53717 0.0
C538 C 0.92304 0.10025 0.52911 0.0
C539 C 0.92084 0.10989 0.51514 0.0
C540 C 0.88119 0.10073 0.5308 0.0
H541 H 0.89693 0.12213 0.49859 0.0
C542 C 0.85263 0.1387 0.48266 0.0
O543 O 0.82839 0.20276 0.49822 0.0
O544 O 0.86364 0.19209 0.50599 0.0
N545 N 0.84068 0.10407 0.53158 0.0
C546 C 0.8196 0.10144 0.53812 0.0
C547 C 0.81873 0.09215 0.55221 0.0
C548 C 0.83949 0.08554 0.55937 0.0
C549 C 0.86097 0.08833 0.5524 0.0
C550 C 0.86073 0.09745 0.5383 0.0
H551 H 0.80356 0.10638 0.53265 0.0
O552 O 0.83162 0.17747 0.5272 0.0
O553 O 0.84928 0.14677 0.51799 0.0
O554 O 0.8043 0.15469 0.50462 0.0
O555 O 0.81346 0.11671 0.50739 0.0
C556 C 0.88262 0.08264 0.55893 0.0
C557 C 0.90359 0.08637 0.55135 0.0
H558 H 0.94026 0.09665 0.53357 0.0
H559 H 0.93629 0.11364 0.50888 0.0
H560 H 0.80209 0.09008 0.55753 0.0
H561 H 0.83874 0.07841 0.57024 0.0
H562 H 0.88337 0.07565 0.56985 0.0
H563 H 0.92014 0.08223 0.55656 0.0
Mn564 Mn 0.82776 0.33334 0.75612 0.0
Mn565 Mn 0.8832 0.34809 0.76497 0.0
C566 C 0.83785 0.34137 0.78003 0.0
C567 C 0.79032 0.34474 0.74883 0.0
C568 C 0.86802 0.29849 0.75761 0.0
O569 O 0.84179 0.34193 0.73659 0.0
O570 O 0.87719 0.35497 0.74409 0.0
C571 C 0.87972 0.3994 0.76134 0.0
N572 N 0.88489 0.38055 0.7698 0.0
C573 C 0.89574 0.4053 0.78991 0.0
C574 C 0.89079 0.42498 0.78134 0.0
C575 C 0.88267 0.422 0.76702 0.0
C576 C 0.89256 0.38321 0.78364 0.0
H577 H 0.8733 0.39718 0.75036 0.0
C578 C 0.86163 0.35138 0.7342 0.0
O579 O 0.79754 0.32343 0.7469 0.0
O580 O 0.80505 0.35939 0.75454 0.0
N581 N 0.89111 0.34262 0.78493 0.0
C582 C 0.89349 0.32187 0.79205 0.0
C583 C 0.90076 0.32179 0.80666 0.0
C584 C 0.90559 0.343 0.81377 0.0
C585 C 0.90308 0.36413 0.80621 0.0
C586 C 0.89597 0.36311 0.79163 0.0
H587 H 0.88976 0.30552 0.78666 0.0
O588 O 0.81931 0.32917 0.77705 0.0
O589 O 0.84978 0.34839 0.76896 0.0
O590 O 0.84621 0.30268 0.75613 0.0
O591 O 0.8832 0.31425 0.76054 0.0
C592 C 0.90692 0.38617 0.81265 0.0
C593 C 0.90319 0.40674 0.80451 0.0
H594 H 0.89291 0.44245 0.78571 0.0
H595 H 0.87863 0.4371 0.76038 0.0
H596 H 0.90256 0.30542 0.81244 0.0
H597 H 0.91102 0.34287 0.82507 0.0
H598 H 0.91235 0.3875 0.82392 0.0
H599 H 0.90578 0.42359 0.80966 0.0
Mn600 Mn 0.67677 0.32598 0.99858 0.0
Mn601 Mn 0.61888 0.33099 0.99176 0.0
C602 C 0.6632 0.33582 0.97564 0.0
C603 C 0.71275 0.34198 0.00533 0.0
C604 C 0.64339 0.28444 0.99438 0.0
O605 O 0.6636 0.32957 0.01888 0.0
O606 O 0.62522 0.33187 0.01306 0.0
C607 C 0.61299 0.37969 0.00201 0.0
N608 N 0.61086 0.36341 0.99128 0.0
C609 C 0.59346 0.39152 0.97503 0.0
C610 C 0.59535 0.40856 0.98593 0.0
C611 C 0.60524 0.40263 0.99946 0.0
C612 C 0.60156 0.36898 0.97819 0.0
H613 H 0.62053 0.3752 0.01243 0.0
C614 C 0.64212 0.33145 0.02232 0.0
O615 O 0.7089 0.31966 0.00627 0.0
O616 O 0.69548 0.35498 0.00098 0.0
N617 N 0.61021 0.33069 0.97164 0.0
C618 C 0.61078 0.31256 0.96205 0.0
C619 C 0.60207 0.31577 0.94788 0.0
C620 C 0.59267 0.33748 0.94377 0.0
C621 C 0.59211 0.35582 0.95386 0.0
C622 C 0.60105 0.3516 0.96782 0.0
H623 H 0.61803 0.29587 0.96515 0.0
O624 O 0.68359 0.32621 0.97731 0.0
O625 O 0.65128 0.33903 0.98738 0.0
O626 O 0.66363 0.2926 0.99739 0.0
O627 O 0.62555 0.2972 0.99171 0.0
C628 C 0.58324 0.37818 0.95057 0.0
C629 C 0.58405 0.39607 0.96112 0.0
H630 H 0.58938 0.42627 0.984 0.0
H631 H 0.60683 0.4157 0.00791 0.0
H632 H 0.60264 0.30154 0.94015 0.0
H633 H 0.58608 0.33993 0.93281 0.0
H634 H 0.57611 0.38193 0.93989 0.0
H635 H 0.57756 0.41331 0.95837 0.0
Mn636 Mn 0.66921 0.16929 0.2464 0.0
Mn637 Mn 0.66212 0.11238 0.23764 0.0
C638 C 0.6619 0.15845 0.22258 0.0
C639 C 0.65379 0.20507 0.2536 0.0
C640 C 0.70937 0.13422 0.24425 0.0
O641 O 0.6629 0.15419 0.26599 0.0
O642 O 0.65653 0.11708 0.2587 0.0
C643 C 0.6113 0.10836 0.24284 0.0
N644 N 0.62982 0.10616 0.23378 0.0
C645 C 0.60501 0.09192 0.21445 0.0
C646 C 0.58568 0.09391 0.2236 0.0
C647 C 0.58884 0.10222 0.23784 0.0
C648 C 0.62697 0.09827 0.22004 0.0
H649 H 0.61366 0.11476 0.25379 0.0
C650 C 0.65756 0.13292 0.26855 0.0
O651 O 0.67579 0.20024 0.25551 0.0
O652 O 0.6407 0.18883 0.24799 0.0
N653 N 0.66677 0.1054 0.21756 0.0
C654 C 0.68699 0.10573 0.20989 0.0
C655 C 0.68678 0.09835 0.19535 0.0
C656 C 0.66582 0.09058 0.18888 0.0
C657 C 0.64525 0.09032 0.197 0.0
C658 C 0.64657 0.09769 0.21148 0.0
H659 H 0.70315 0.11167 0.2148 0.0
O660 O 0.67177 0.17835 0.22547 0.0
O661 O 0.65672 0.14554 0.23367 0.0
O662 O 0.70201 0.15498 0.24635 0.0
O663 O 0.69594 0.11708 0.24107 0.0
C664 C 0.6234 0.08342 0.19123 0.0
C665 C 0.60328 0.08429 0.19993 0.0
H666 H 0.56831 0.08928 0.21977 0.0
H667 H 0.574 0.1039 0.24494 0.0
H668 H 0.70271 0.09867 0.18914 0.0
H669 H 0.66571 0.085 0.17765 0.0
H670 H 0.62181 0.07777 0.18003 0.0
H671 H 0.58652 0.07928 0.1953 0.0
C672 C 0.09808 0.92601 0.27273 0.0
C673 C 0.10101 0.95041 0.27298 0.0
C674 C 0.11505 0.91159 0.26654 0.0
C675 C 0.16845 0.9127 0.24349 0.0
H676 H 0.18655 0.85886 0.26655 0.0
C677 C 0.26151 0.87562 0.24613 0.0
C678 C 0.26474 0.85133 0.24703 0.0
C679 C 0.23905 0.88514 0.24583 0.0
C680 C 0.18144 0.87354 0.25981 0.0
H681 H 0.12344 0.97883 0.26615 0.0
H682 H 0.15327 0.95383 0.25588 0.0
H683 H 0.15129 0.88042 0.27261 0.0
H684 H 0.24705 0.81786 0.2477 0.0
H685 H 0.20758 0.83461 0.24744 0.0
H686 H 0.19947 0.90648 0.23124 0.0
C687 C 0.13778 0.94571 0.26027 0.0
C688 C 0.16118 0.88592 0.26327 0.0
C689 C 0.12081 0.96008 0.26638 0.0
C690 C 0.24505 0.83665 0.24698 0.0
C691 C 0.2225 0.84622 0.2469 0.0
C692 C 0.18883 0.90044 0.24013 0.0
C693 C 0.13535 0.92125 0.26048 0.0
C694 C 0.15479 0.90607 0.25541 0.0
C695 C 0.21932 0.87059 0.2466 0.0
C696 C 0.19585 0.88112 0.2485 0.0
H697 H 0.08308 0.91796 0.27777 0.0
H698 H 0.11245 0.89284 0.26673 0.0
H699 H 0.16378 0.92779 0.237 0.0
H700 H 0.27637 0.88736 0.24612 0.0
H701 H 0.23717 0.90398 0.24574 0.0
C702 C 0.05547 0.59853 0.51517 0.0
C703 C 0.06894 0.58362 0.52398 0.0
C704 C 0.06523 0.61878 0.50941 0.0
C705 C 0.12068 0.65123 0.50339 0.0
H706 H 0.07965 0.7048 0.50717 0.0
C707 C 0.14985 0.74907 0.4998 0.0
C708 C 0.13397 0.76447 0.49302 0.0
C709 C 0.14398 0.72549 0.50174 0.0
C710 C 0.09126 0.69 0.50584 0.0
H711 H 0.10341 0.57746 0.53315 0.0
H712 H 0.12049 0.6133 0.52332 0.0
H713 H 0.0656 0.66634 0.51372 0.0
H714 H 0.10036 0.76674 0.48191 0.0
H715 H 0.09041 0.72587 0.48511 0.0
H716 H 0.14655 0.67543 0.4958 0.0
C717 C 0.10247 0.60915 0.52067 0.0
C718 C 0.08317 0.66789 0.50956 0.0
C719 C 0.09272 0.58867 0.52631 0.0
C720 C 0.11285 0.75549 0.48741 0.0
C721 C 0.10709 0.73205 0.48928 0.0
C722 C 0.12885 0.67354 0.49969 0.0
C723 C 0.0886 0.6248 0.51252 0.0
C724 C 0.09766 0.64817 0.50829 0.0
C725 C 0.12219 0.71696 0.4969 0.0
C726 C 0.11411 0.69312 0.50077 0.0
H727 H 0.03717 0.59482 0.51307 0.0
H728 H 0.05422 0.63011 0.50286 0.0
H729 H 0.13227 0.63639 0.50227 0.0
H730 H 0.16628 0.75544 0.50422 0.0
H731 H 0.15596 0.71425 0.50767 0.0
C732 C 0.41159 0.58224 0.77801 0.0
C733 C 0.41393 0.56 0.78441 0.0
C734 C 0.38958 0.59067 0.7738 0.0
C735 C 0.33039 0.57158 0.7637 0.0
H736 H 0.31137 0.63367 0.77566 0.0
C737 C 0.23484 0.60201 0.75824 0.0
C738 C 0.23043 0.6254 0.75444 0.0
C739 C 0.25752 0.59454 0.76156 0.0
C740 C 0.3165 0.61643 0.77202 0.0
H741 H 0.39471 0.52941 0.79151 0.0
H742 H 0.35656 0.54389 0.78379 0.0
H743 H 0.35066 0.61977 0.7816 0.0
H744 H 0.24655 0.65927 0.75107 0.0
H745 H 0.28618 0.64611 0.75651 0.0
H746 H 0.2965 0.56822 0.75394 0.0
C747 C 0.37181 0.55469 0.78198 0.0
C748 C 0.339 0.60848 0.77547 0.0
C749 C 0.39373 0.54637 0.78634 0.0
C750 C 0.24928 0.64116 0.75406 0.0
C751 C 0.27203 0.63363 0.75724 0.0
C752 C 0.308 0.57961 0.76012 0.0
C753 C 0.36949 0.57696 0.77574 0.0
C754 C 0.34607 0.58588 0.77147 0.0
C755 C 0.27645 0.6102 0.76102 0.0
C756 C 0.30064 0.60204 0.76437 0.0
H757 H 0.42676 0.59309 0.77616 0.0
H758 H 0.3883 0.60782 0.76888 0.0
H759 H 0.3355 0.5542 0.76031 0.0
H760 H 0.22073 0.58942 0.75875 0.0
H761 H 0.26013 0.57649 0.76471 0.0
C762 C 0.43873 0.89965 0.0143 0.0
C763 C 0.42969 0.90998 0.02687 0.0
C764 C 0.42849 0.87949 0.00846 0.0
C765 C 0.37581 0.84094 0.01087 0.0
H766 H 0.41911 0.79333 0.998 0.0
C767 C 0.38045 0.73482 0.00652 0.0
C768 C 0.35792 0.72977 0.00119 0.0
C769 C 0.38873 0.75775 0.00677 0.0
C770 C 0.40675 0.8064 0.00158 0.0
H771 H 0.40267 0.90762 0.04308 0.0
H772 H 0.38518 0.87213 0.03322 0.0
H773 H 0.43367 0.8319 0.00428 0.0
H774 H 0.32673 0.74469 0.99134 0.0
H775 H 0.34141 0.78485 0.9915 0.0
H776 H 0.34912 0.81489 0.00907 0.0
C777 C 0.39976 0.87984 0.02756 0.0
C778 C 0.41507 0.8287 0.005 0.0
C779 C 0.40984 0.90015 0.03328 0.0
C780 C 0.34415 0.74806 0.99557 0.0
C781 C 0.35251 0.77108 0.99575 0.0
C782 C 0.36752 0.81854 0.00759 0.0
C783 C 0.40915 0.86903 0.01519 0.0
C784 C 0.3998 0.84615 0.01 0.0
C785 C 0.37476 0.77625 0.0016 0.0
C786 C 0.38298 0.80082 0.00323 0.0
H787 H 0.45386 0.90707 0.00905 0.0
H788 H 0.43592 0.87197 0.99877 0.0
H789 H 0.36345 0.85404 0.01441 0.0
H790 H 0.3915 0.72116 0.01097 0.0
H791 H 0.40578 0.76102 0.01158 0.0
C792 C 0.09547 0.56031 0.98197 0.0
C793 C 0.08353 0.57087 0.97026 0.0
C794 C 0.11745 0.56839 0.9864 0.0
C795 C 0.1573 0.61829 0.98607 0.0
H796 H 0.20598 0.57122 0.9882 0.0
C797 C 0.25522 0.64213 0.99376 0.0
C798 C 0.26939 0.62666 0.00179 0.0
C799 C 0.23207 0.63627 0.99029 0.0
C800 C 0.19259 0.58459 0.98794 0.0
H801 H 0.08526 0.59879 0.95434 0.0
H802 H 0.12337 0.61329 0.96244 0.0
H803 H 0.16616 0.55973 0.98208 0.0
H804 H 0.27004 0.59323 0.0129 0.0
H805 H 0.22965 0.58351 0.00744 0.0
H806 H 0.18356 0.64313 0.99226 0.0
C807 C 0.11562 0.59867 0.96809 0.0
C808 C 0.16978 0.57797 0.98435 0.0
C809 C 0.09374 0.59039 0.96351 0.0
C810 C 0.25972 0.60548 0.00658 0.0
C811 C 0.23653 0.59981 0.00333 0.0
C812 C 0.18012 0.62491 0.98989 0.0
C813 C 0.12786 0.58743 0.97939 0.0
C814 C 0.15192 0.59473 0.98338 0.0
C815 C 0.22245 0.61493 0.99495 0.0
C816 C 0.19808 0.60812 0.99089 0.0
H817 H 0.08794 0.54562 0.98766 0.0
H818 H 0.1264 0.55964 0.99528 0.0
H819 H 0.14378 0.63152 0.98545 0.0
H820 H 0.26218 0.65854 0.98985 0.0
H821 H 0.22191 0.64824 0.98366 0.0
C822 C 0.44667 0.59455 0.23499 0.0
C823 C 0.43795 0.58358 0.22237 0.0
C824 C 0.43651 0.61513 0.2401 0.0
C825 C 0.38352 0.65152 0.23873 0.0
H826 H 0.42658 0.70249 0.24636 0.0
C827 C 0.35332 0.74765 0.24642 0.0
C828 C 0.36676 0.76206 0.25563 0.0
C829 C 0.36046 0.7247 0.24352 0.0
C830 C 0.41426 0.68838 0.24458 0.0
H831 H 0.41132 0.58561 0.20543 0.0
H832 H 0.39334 0.62125 0.21458 0.0
H833 H 0.4417 0.66444 0.2395 0.0
H834 H 0.39734 0.76322 0.26974 0.0
H835 H 0.40913 0.72317 0.26525 0.0
H836 H 0.35604 0.67543 0.24394 0.0
C837 C 0.40801 0.6138 0.2205 0.0
C838 C 0.42298 0.66657 0.24058 0.0
C839 C 0.41831 0.59332 0.21529 0.0
C840 C 0.38674 0.75269 0.26245 0.0
C841 C 0.39362 0.72972 0.25976 0.0
C842 C 0.37476 0.67334 0.24292 0.0
C843 C 0.41726 0.62512 0.23281 0.0
C844 C 0.40773 0.64794 0.23757 0.0
C845 C 0.381 0.71562 0.24993 0.0
C846 C 0.39004 0.69209 0.24586 0.0
H847 H 0.46145 0.58731 0.24089 0.0
H848 H 0.44381 0.62335 0.24973 0.0
H849 H 0.37139 0.63739 0.23653 0.0
H850 H 0.3379 0.75441 0.24094 0.0
H851 H 0.35037 0.71446 0.2358 0.0
C852 C 0.38218 0.9635 0.48306 0.0
C853 C 0.40094 0.95032 0.47772 0.0
C854 C 0.36267 0.95242 0.48887 0.0
C855 C 0.33965 0.89588 0.50242 0.0
H856 H 0.28075 0.92071 0.48803 0.0
C857 C 0.25139 0.84545 0.50356 0.0
C858 C 0.23085 0.85867 0.50502 0.0
C859 C 0.27318 0.85658 0.50296 0.0
C860 C 0.29697 0.91376 0.49242 0.0
H861 H 0.41435 0.91521 0.4748 0.0
H862 H 0.38011 0.8958 0.48486 0.0
H863 H 0.31692 0.94029 0.48201 0.0
H864 H 0.21709 0.89356 0.50827 0.0
H865 H 0.25497 0.91284 0.50768 0.0
H866 H 0.31946 0.86902 0.51262 0.0
C867 C 0.38063 0.91472 0.48471 0.0
C868 C 0.31776 0.92501 0.48893 0.0
C869 C 0.40023 0.92583 0.47892 0.0
C870 C 0.23261 0.88295 0.50693 0.0
C871 C 0.25432 0.89401 0.50649 0.0
C872 C 0.31873 0.88459 0.50595 0.0
C873 C 0.36139 0.92789 0.48942 0.0
C874 C 0.33937 0.91621 0.49384 0.0
C875 C 0.27477 0.88109 0.50393 0.0
C876 C 0.29713 0.89339 0.50095 0.0
H877 H 0.38243 0.98241 0.48253 0.0
H878 H 0.34836 0.9631 0.4927 0.0
H879 H 0.35602 0.88876 0.50645 0.0
H880 H 0.25053 0.8267 0.50203 0.0
H881 H 0.28856 0.8461 0.50092 0.0
C882 C 0.09499 0.91029 0.72893 0.0
C883 C 0.0705 0.90997 0.72735 0.0
C884 C 0.10681 0.89129 0.73515 0.0
C885 C 0.09739 0.83599 0.75592 0.0
H886 H 0.15247 0.81514 0.73546 0.0
C887 C 0.12676 0.74026 0.75255 0.0
C888 C 0.15072 0.73506 0.75343 0.0
C889 C 0.11907 0.7634 0.75271 0.0
C890 C 0.13738 0.82096 0.74147 0.0
H891 H 0.0392 0.88997 0.73185 0.0
H892 H 0.05971 0.85665 0.74211 0.0
H893 H 0.13509 0.85283 0.72947 0.0
H894 H 0.18544 0.74993 0.75563 0.0
H895 H 0.17195 0.79062 0.75559 0.0
H896 H 0.09903 0.80337 0.76731 0.0
C897 C 0.06988 0.87162 0.73877 0.0
C898 C 0.1274 0.8426 0.73807 0.0
C899 C 0.05809 0.89063 0.73265 0.0
C900 C 0.16685 0.75345 0.75497 0.0
C901 C 0.15917 0.77669 0.75488 0.0
C902 C 0.10722 0.81424 0.7592 0.0
C903 C 0.09443 0.87151 0.73988 0.0
C904 C 0.10691 0.85013 0.74498 0.0
C905 C 0.13522 0.78187 0.75354 0.0
C906 C 0.12697 0.80628 0.75176 0.0
H907 H 0.10512 0.92485 0.72491 0.0
H908 H 0.12569 0.89195 0.73601 0.0
H909 H 0.08195 0.84145 0.76171 0.0
H910 H 0.11392 0.72644 0.7514 0.0
H911 H 0.10053 0.76687 0.75151 0.0
C912 C 0.61649 0.42678 0.78633 0.0
C913 C 0.59864 0.43669 0.77776 0.0
C914 C 0.63326 0.41233 0.78011 0.0
C915 C 0.66086 0.37408 0.76518 0.0
H916 H 0.69424 0.40155 0.73301 0.0
C917 C 0.74779 0.33511 0.7458 0.0
C918 C 0.76581 0.35179 0.74613 0.0
C919 C 0.72436 0.34223 0.746 0.0
C920 C 0.68491 0.3935 0.74187 0.0
H921 H 0.5839 0.43889 0.75606 0.0
H922 H 0.61375 0.41382 0.74502 0.0
H923 H 0.65777 0.41931 0.74116 0.0
H924 H 0.77354 0.38888 0.7458 0.0
H925 H 0.73285 0.40125 0.74597 0.0
H926 H 0.68854 0.34899 0.76639 0.0
C927 C 0.61457 0.41717 0.75658 0.0
C928 C 0.66397 0.40357 0.74647 0.0
C929 C 0.5975 0.43139 0.76288 0.0
C930 C 0.76001 0.37562 0.7456 0.0
C931 C 0.73667 0.38272 0.7456 0.0
C932 C 0.68166 0.36389 0.7605 0.0
C933 C 0.63273 0.40768 0.76514 0.0
C934 C 0.65221 0.39445 0.75851 0.0
C935 C 0.7186 0.36613 0.7463 0.0
C936 C 0.69434 0.37399 0.74913 0.0
H937 H 0.61763 0.43048 0.79785 0.0
H938 H 0.6472 0.40551 0.78695 0.0
H939 H 0.65202 0.36658 0.77441 0.0
H940 H 0.75176 0.31661 0.74622 0.0
H941 H 0.71077 0.32907 0.74644 0.0
C942 C 0.5748 0.10131 0.0379 0.0
C943 C 0.56035 0.08723 0.02912 0.0
C944 C 0.58791 0.1193 0.03179 0.0
C945 C 0.58396 0.16144 0.00336 0.0
H946 H 0.64954 0.17386 0.01118 0.0
C947 C 0.62381 0.24822 0.98532 0.0
C948 C 0.63969 0.25894 0.99493 0.0
C949 C 0.61772 0.22477 0.98707 0.0
C950 C 0.63115 0.17083 0.009 0.0
H951 H 0.54856 0.08035 0.00712 0.0
H952 H 0.57099 0.11252 0.99642 0.0
H953 H 0.63222 0.13706 0.01916 0.0
H954 H 0.66229 0.25349 0.01362 0.0
H955 H 0.65074 0.21298 0.01726 0.0
H956 H 0.58204 0.19554 0.99423 0.0
C957 C 0.57241 0.10933 0.00799 0.0
C958 C 0.62134 0.14965 0.01347 0.0
C959 C 0.55967 0.09099 0.01407 0.0
C960 C 0.65012 0.24555 0.00599 0.0
C961 C 0.64353 0.22224 0.00801 0.0
C962 C 0.59357 0.18277 0.99918 0.0
C963 C 0.58641 0.1238 0.01683 0.0
C964 C 0.59761 0.14492 0.01081 0.0
C965 C 0.62676 0.21167 0.99879 0.0
C966 C 0.61726 0.18795 0.00208 0.0
H967 H 0.57559 0.09863 0.04954 0.0
H968 H 0.59839 0.13038 0.03884 0.0
H969 H 0.56551 0.15832 0.00139 0.0
H970 H 0.61568 0.25809 0.97661 0.0
H971 H 0.60539 0.21716 0.97943 0.0
C972 C 0.90921 0.09366 0.28439 0.0
C973 C 0.91989 0.07397 0.27814 0.0
C974 C 0.88769 0.1018 0.27912 0.0
C975 C 0.83486 0.08073 0.26112 0.0
H976 H 0.82094 0.14623 0.25455 0.0
C977 C 0.74446 0.10911 0.24003 0.0
C978 C 0.73466 0.1294 0.24603 0.0
C979 C 0.76795 0.10363 0.2425 0.0
C980 C 0.82445 0.1279 0.25649 0.0
H981 H 0.91675 0.04816 0.26094 0.0
H982 H 0.87893 0.06204 0.25203 0.0
H983 H 0.86051 0.13449 0.26168 0.0
H984 H 0.74199 0.16011 0.25912 0.0
H985 H 0.78276 0.15016 0.26387 0.0
H986 H 0.79885 0.07401 0.25654 0.0
C987 C 0.8872 0.07103 0.26107 0.0
C988 C 0.84714 0.1212 0.26051 0.0
C989 C 0.90881 0.06304 0.26623 0.0
C990 C 0.74904 0.14439 0.25428 0.0
C991 C 0.77248 0.13873 0.25694 0.0
C992 C 0.81216 0.08742 0.25729 0.0
C993 C 0.8763 0.09029 0.26758 0.0
C994 C 0.85253 0.09755 0.26287 0.0
C995 C 0.78216 0.11809 0.25125 0.0
C996 C 0.80661 0.11109 0.25492 0.0
H997 H 0.91704 0.10233 0.2937 0.0
H998 H 0.87955 0.11656 0.28443 0.0
H999 H 0.83844 0.06241 0.26311 0.0
H1000 H 0.73395 0.09731 0.23348 0.0
H1001 H 0.7749 0.0879 0.23763 0.0
C1002 C 0.92405 0.39749 0.53384 0.0
C1003 C 0.94642 0.40387 0.52898 0.0
C1004 C 0.91232 0.37833 0.52778 0.0
C1005 C 0.92438 0.32199 0.51267 0.0
H1006 H 0.86025 0.32182 0.49859 0.0
C1007 C 0.88232 0.2358 0.49517 0.0
C1008 C 0.85895 0.2322 0.49897 0.0
C1009 C 0.89207 0.25815 0.49579 0.0
C1010 C 0.87808 0.32146 0.50263 0.0
H1011 H 0.97326 0.39566 0.51327 0.0
H1012 H 0.95318 0.36159 0.50324 0.0
H1013 H 0.87863 0.35866 0.50591 0.0
H1014 H 0.82707 0.249 0.50588 0.0
H1015 H 0.84429 0.28787 0.50781 0.0
H1016 H 0.92377 0.28499 0.51043 0.0
C1017 C 0.94482 0.37158 0.51172 0.0
C1018 C 0.8886 0.3426 0.50672 0.0
C1019 C 0.95638 0.39097 0.51758 0.0
C1020 C 0.84512 0.25144 0.50278 0.0
C1021 C 0.85505 0.27375 0.50383 0.0
C1022 C 0.91377 0.30087 0.5089 0.0
C1023 C 0.92284 0.36493 0.5169 0.0
C1024 C 0.91182 0.34299 0.5118 0.0
C1025 C 0.87888 0.2773 0.50075 0.0
C1026 C 0.89043 0.30021 0.50385 0.0
H1027 H 0.91591 0.40673 0.54271 0.0
H1028 H 0.89546 0.37335 0.53205 0.0
H1029 H 0.94221 0.32182 0.51677 0.0
H1030 H 0.89325 0.22121 0.49205 0.0
H1031 H 0.9102 0.2602 0.4928 0.0
C1032 C 0.59705 0.08187 0.46927 0.0
C1033 C 0.59291 0.05774 0.47059 0.0
C1034 C 0.61824 0.09153 0.47411 0.0
C1035 C 0.67921 0.07391 0.48079 0.0
H1036 H 0.68532 0.1335 0.50056 0.0
C1037 C 0.76691 0.10309 0.50485 0.0
C1038 C 0.77396 0.12632 0.50251 0.0
C1039 C 0.74408 0.09606 0.50171 0.0
C1040 C 0.68386 0.11695 0.49492 0.0
H1041 H 0.60698 0.02513 0.47887 0.0
H1042 H 0.64376 0.04195 0.48737 0.0
H1043 H 0.6464 0.11877 0.49396 0.0
H1044 H 0.76215 0.16057 0.49545 0.0
H1045 H 0.72216 0.14812 0.48979 0.0
H1046 H 0.71646 0.072 0.48161 0.0
C1047 C 0.63095 0.05333 0.48228 0.0
C1048 C 0.66161 0.10851 0.49115 0.0
C1049 C 0.60988 0.04369 0.47744 0.0
C1050 C 0.75734 0.14253 0.49736 0.0
C1051 C 0.7344 0.13544 0.49417 0.0
C1052 C 0.70133 0.08231 0.48452 0.0
C1053 C 0.63563 0.07724 0.48036 0.0
C1054 C 0.65906 0.08676 0.48419 0.0
C1055 C 0.72766 0.11201 0.49608 0.0
C1056 C 0.70395 0.10378 0.49177 0.0
H1057 H 0.58433 0.09308 0.46396 0.0
H1058 H 0.62137 0.11 0.47241 0.0
H1059 H 0.6779 0.05739 0.47509 0.0
H1060 H 0.77909 0.09015 0.50899 0.0
H1061 H 0.73932 0.078 0.50362 0.0
C1062 C 0.93336 0.10644 0.71647 0.0
C1063 C 0.95439 0.09805 0.72262 0.0
C1064 C 0.92311 0.12698 0.72161 0.0
C1065 C 0.93801 0.18214 0.73908 0.0
H1066 H 0.87168 0.18682 0.74683 0.0
C1067 C 0.89852 0.26747 0.76084 0.0
C1068 C 0.87648 0.27427 0.75544 0.0
C1069 C 0.90723 0.24513 0.75808 0.0
C1070 C 0.89018 0.18592 0.74455 0.0
H1071 H 0.98066 0.1045 0.73934 0.0
H1072 H 0.96307 0.14072 0.74797 0.0
H1073 H 0.88831 0.14934 0.73954 0.0
H1074 H 0.84615 0.26277 0.74304 0.0
H1075 H 0.86166 0.22407 0.73777 0.0
H1076 H 0.93997 0.21872 0.74349 0.0
C1077 C 0.95461 0.13132 0.73915 0.0
C1078 C 0.89969 0.16441 0.74044 0.0
C1079 C 0.96473 0.11063 0.73415 0.0
C1080 C 0.86314 0.25803 0.74744 0.0
C1081 C 0.87202 0.23576 0.74448 0.0
C1082 C 0.92849 0.20369 0.74299 0.0
C1083 C 0.93379 0.13977 0.73287 0.0
C1084 C 0.9237 0.16233 0.73766 0.0
C1085 C 0.89431 0.2291 0.74962 0.0
C1086 C 0.90443 0.20591 0.74578 0.0
H1087 H 0.92509 0.09754 0.7074 0.0
H1088 H 0.9072 0.13326 0.71645 0.0
H1089 H 0.95652 0.18112 0.73678 0.0
H1090 H 0.90916 0.27946 0.76718 0.0
H1091 H 0.9242 0.24049 0.76254 0.0
C1092 C 0.88097 0.45971 0.98584 0.0
C1093 C 0.90074 0.4493 0.97962 0.0
C1094 C 0.86368 0.44603 0.9922 0.0
C1095 C 0.8396 0.38636 0.99052 0.0
H1096 H 0.80105 0.40921 0.02185 0.0
C1097 C 0.75622 0.33767 0.00775 0.0
C1098 C 0.7363 0.35205 0.00764 0.0
C1099 C 0.77861 0.34754 0.0076 0.0
C1100 C 0.81173 0.40256 0.01313 0.0
H1101 H 0.91828 0.41628 0.97581 0.0
H1102 H 0.8884 0.3924 0.98729 0.0
H1103 H 0.83683 0.43004 0.01566 0.0
H1104 H 0.72418 0.38795 0.00823 0.0
H1105 H 0.76315 0.40512 0.00813 0.0
H1106 H 0.81424 0.35915 0.98783 0.0
C1107 C 0.88605 0.41118 0.98698 0.0
C1108 C 0.83217 0.41453 0.00953 0.0
C1109 C 0.90333 0.42489 0.98054 0.0
C1110 C 0.7392 0.37641 0.00828 0.0
C1111 C 0.76154 0.38625 0.0083 0.0
C1112 C 0.81928 0.3743 0.9942 0.0
C1113 C 0.86576 0.42154 0.99262 0.0
C1114 C 0.84601 0.40698 0.99789 0.0
C1115 C 0.78146 0.37195 0.00754 0.0
C1116 C 0.80479 0.38264 0.00528 0.0
H1117 H 0.87861 0.47849 0.98556 0.0
H1118 H 0.84824 0.45467 0.99627 0.0
H1119 H 0.84959 0.38016 0.98138 0.0
H1120 H 0.75453 0.31883 0.00726 0.0
H1121 H 0.79367 0.3361 0.00714 0.0
C1122 C 0.54617 0.37957 0.23214 0.0
C1123 C 0.55824 0.39948 0.22737 0.0
C1124 C 0.55814 0.36108 0.23873 0.0
C1125 C 0.61681 0.33468 0.24028 0.0
H1126 H 0.58787 0.29457 0.26885 0.0
C1127 C 0.65944 0.24795 0.25787 0.0
C1128 C 0.64436 0.22873 0.25621 0.0
C1129 C 0.65052 0.27073 0.2579 0.0
C1130 C 0.59621 0.30568 0.26092 0.0
H1131 H 0.59237 0.4159 0.22632 0.0
H1132 H 0.6132 0.3839 0.23822 0.0
H1133 H 0.56941 0.33166 0.26234 0.0
H1134 H 0.60805 0.21814 0.25428 0.0
H1135 H 0.59251 0.25777 0.25446 0.0
H1136 H 0.64333 0.30846 0.23866 0.0
C1137 C 0.59448 0.3824 0.2366 0.0
C1138 C 0.58561 0.32687 0.25714 0.0
C1139 C 0.58249 0.40087 0.22992 0.0
C1140 C 0.62012 0.23261 0.25552 0.0
C1141 C 0.6112 0.25533 0.25571 0.0
C1142 C 0.62749 0.31359 0.24416 0.0
C1143 C 0.58251 0.36208 0.24084 0.0
C1144 C 0.59542 0.34131 0.24645 0.0
C1145 C 0.62634 0.27464 0.25646 0.0
C1146 C 0.61697 0.29857 0.25421 0.0
H1147 H 0.52743 0.37808 0.23058 0.0
H1148 H 0.54834 0.34565 0.24169 0.0
H1149 H 0.62474 0.34515 0.23188 0.0
H1150 H 0.67821 0.24549 0.25843 0.0
H1151 H 0.66257 0.2853 0.25862 0.0
C1152 C 0.10379 0.93719 0.35858 0.0
C1153 C 0.09674 0.96057 0.36044 0.0
C1154 C 0.11223 0.92416 0.37038 0.0
C1155 C 0.10891 0.92306 0.41032 0.0
H1156 H 0.15898 0.87762 0.40784 0.0
C1157 C 0.14571 0.8783 0.46127 0.0
C1158 C 0.15089 0.85441 0.46044 0.0
C1159 C 0.14025 0.89093 0.44876 0.0
C1160 C 0.14478 0.89006 0.40866 0.0
H1161 H 0.09379 0.98869 0.37616 0.0
H1162 H 0.10927 0.96636 0.39645 0.0
H1163 H 0.1481 0.90059 0.38645 0.0
H1164 H 0.15606 0.82514 0.44598 0.0
H1165 H 0.14577 0.84705 0.42393 0.0
H1166 H 0.10568 0.91295 0.43245 0.0
C1167 C 0.10782 0.9579 0.38596 0.0
C1168 C 0.13857 0.90324 0.39641 0.0
C1169 C 0.09927 0.97085 0.37423 0.0
C1170 C 0.15162 0.84349 0.44683 0.0
C1171 C 0.14592 0.85609 0.43426 0.0
C1172 C 0.11517 0.91003 0.42253 0.0
C1173 C 0.11385 0.93425 0.38427 0.0
C1174 C 0.12064 0.92 0.39714 0.0
C1175 C 0.13997 0.87994 0.4351 0.0
C1176 C 0.13321 0.8934 0.4219 0.0
H1177 H 0.10239 0.9288 0.34807 0.0
H1178 H 0.11668 0.90597 0.3687 0.0
H1179 H 0.09463 0.93541 0.4112 0.0
H1180 H 0.14594 0.88725 0.47164 0.0
H1181 H 0.13638 0.90938 0.44981 0.0
C1182 C 0.10432 0.5724 0.60929 0.0
C1183 C 0.08053 0.57748 0.60676 0.0
C1184 C 0.11751 0.58536 0.6193 0.0
C1185 C 0.11435 0.63772 0.64426 0.0
H1186 H 0.16062 0.60236 0.66604 0.0
C1187 C 0.13802 0.65348 0.70423 0.0
C1188 C 0.16173 0.65367 0.70823 0.0
C1189 C 0.13128 0.64801 0.69004 0.0
C1190 C 0.14789 0.6125 0.65998 0.0
H1191 H 0.05266 0.60162 0.6123 0.0
H1192 H 0.07469 0.62241 0.6306 0.0
H1193 H 0.14252 0.58509 0.64471 0.0
H1194 H 0.19714 0.64983 0.7006 0.0
H1195 H 0.18527 0.63913 0.67569 0.0
H1196 H 0.11841 0.66417 0.66062 0.0
C1197 C 0.08362 0.60895 0.62455 0.0
C1198 C 0.13758 0.60272 0.64758 0.0
C1199 C 0.07065 0.59651 0.61419 0.0
C1200 C 0.17873 0.64932 0.69773 0.0
C1201 C 0.17197 0.64331 0.68355 0.0
C1202 C 0.12408 0.6471 0.65697 0.0
C1203 C 0.10718 0.60333 0.62748 0.0
C1204 C 0.12023 0.61496 0.63967 0.0
C1205 C 0.14816 0.64251 0.67963 0.0
C1206 C 0.14054 0.63433 0.6651 0.0
H1207 H 0.11275 0.55786 0.60396 0.0
H1208 H 0.13574 0.58082 0.62081 0.0
H1209 H 0.10179 0.64818 0.63828 0.0
H1210 H 0.12468 0.6573 0.71215 0.0
H1211 H 0.11281 0.64728 0.68733 0.0
C1212 C 0.42782 0.58297 0.86494 0.0
C1213 C 0.45228 0.58026 0.86516 0.0
C1214 C 0.41619 0.59152 0.87714 0.0
C1215 C 0.42393 0.59492 0.91671 0.0
H1216 H 0.37049 0.63662 0.91527 0.0
C1217 C 0.36305 0.64851 0.9597 0.0
C1218 C 0.35955 0.63055 0.96989 0.0
C1219 C 0.37331 0.64364 0.94629 0.0
C1220 C 0.38549 0.62509 0.91583 0.0
H1221 H 0.48365 0.58495 0.87834 0.0
H1222 H 0.4635 0.60035 0.89932 0.0
H1223 H 0.39107 0.6269 0.89286 0.0
H1224 H 0.36326 0.59321 0.97361 0.0
H1225 H 0.38082 0.58487 0.95036 0.0
H1226 H 0.41863 0.59315 0.93958 0.0
C1227 C 0.45326 0.5956 0.88981 0.0
C1228 C 0.39713 0.61937 0.903 0.0
C1229 C 0.46485 0.58704 0.87767 0.0
C1230 C 0.36587 0.60758 0.96615 0.0
C1231 C 0.37607 0.60276 0.95282 0.0
C1232 C 0.41231 0.60055 0.92946 0.0
C1233 C 0.42877 0.59747 0.88982 0.0
C1234 C 0.41648 0.60418 0.90332 0.0
C1235 C 0.38031 0.62075 0.94283 0.0
C1236 C 0.39285 0.61555 0.92918 0.0
H1237 H 0.41763 0.57816 0.85543 0.0
H1238 H 0.39729 0.59267 0.87682 0.0
H1239 H 0.43856 0.58293 0.91734 0.0
H1240 H 0.35838 0.6664 0.9622 0.0
H1241 H 0.37644 0.65789 0.93883 0.0
C1242 C 0.43535 0.90075 0.11491 0.0
C1243 C 0.42661 0.92288 0.11094 0.0
C1244 C 0.42598 0.88863 0.12664 0.0
C1245 C 0.37577 0.88175 0.15022 0.0
H1246 H 0.42152 0.87018 0.18071 0.0
C1247 C 0.34895 0.85724 0.20869 0.0
C1248 C 0.36455 0.84408 0.21724 0.0
C1249 C 0.35525 0.8645 0.19477 0.0
C1250 C 0.40848 0.87266 0.17225 0.0
H1251 H 0.40021 0.94894 0.11593 0.0
H1252 H 0.38338 0.92723 0.13603 0.0
H1253 H 0.43409 0.88604 0.15767 0.0
H1254 H 0.39827 0.82691 0.21771 0.0
H1255 H 0.40874 0.83821 0.1932 0.0
H1256 H 0.35016 0.8679 0.16459 0.0
C1257 C 0.39764 0.9195 0.13005 0.0
C1258 C 0.41576 0.88193 0.15906 0.0
C1259 C 0.40727 0.93186 0.11848 0.0
C1260 C 0.38606 0.83734 0.2114 0.0
C1261 C 0.39211 0.84404 0.19737 0.0
C1262 C 0.36851 0.87196 0.16334 0.0
C1263 C 0.40734 0.89811 0.13447 0.0
C1264 C 0.39947 0.88677 0.14798 0.0
C1265 C 0.3771 0.85828 0.18898 0.0
C1266 C 0.38475 0.8675 0.17462 0.0
H1267 H 0.44981 0.89297 0.10916 0.0
H1268 H 0.43359 0.87202 0.12979 0.0
H1269 H 0.36291 0.88531 0.14178 0.0
H1270 H 0.3323 0.86279 0.213 0.0
H1271 H 0.34329 0.87569 0.18881 0.0
C1272 C 0.07155 0.59495 0.89027 0.0
C1273 C 0.0491 0.58537 0.88827 0.0
C1274 C 0.08403 0.60341 0.87836 0.0
C1275 C 0.09213 0.59178 0.84067 0.0
H1276 H 0.11147 0.65604 0.83483 0.0
C1277 C 0.11982 0.62248 0.78476 0.0
C1278 C 0.13835 0.63841 0.78345 0.0
C1279 C 0.11032 0.61758 0.79826 0.0
C1280 C 0.10657 0.63795 0.8364 0.0
H1281 H 0.02212 0.57712 0.87237 0.0
H1282 H 0.04411 0.59137 0.85163 0.0
H1283 H 0.0928 0.6447 0.85763 0.0
H1284 H 0.1611 0.66218 0.79528 0.0
H1285 H 0.14487 0.65303 0.81913 0.0
H1286 H 0.10603 0.58459 0.81978 0.0
C1287 C 0.05186 0.59267 0.86238 0.0
C1288 C 0.09584 0.63153 0.84942 0.0
C1289 C 0.03927 0.58465 0.87425 0.0
C1290 C 0.1468 0.64982 0.79597 0.0
C1291 C 0.13746 0.64462 0.80961 0.0
C1292 C 0.10312 0.59804 0.82783 0.0
C1293 C 0.07439 0.6019 0.86432 0.0
C1294 C 0.08805 0.60851 0.85145 0.0
C1295 C 0.11934 0.6281 0.81092 0.0
C1296 C 0.10987 0.62134 0.82532 0.0
H1297 H 0.07948 0.59571 0.90099 0.0
H1298 H 0.10146 0.61039 0.88005 0.0
H1299 H 0.08653 0.57384 0.84212 0.0
H1300 H 0.1126 0.61367 0.77532 0.0
H1301 H 0.09587 0.60539 0.79873 0.0
C1302 C 0.44106 0.58229 0.13399 0.0
C1303 C 0.42893 0.56938 0.14443 0.0
C1304 C 0.42892 0.5959 0.12385 0.0
C1305 C 0.37031 0.60122 0.10663 0.0
H1306 H 0.39872 0.65566 0.08907 0.0
C1307 C 0.3288 0.64867 0.05715 0.0
C1308 C 0.34442 0.65041 0.04559 0.0
C1309 C 0.33708 0.64278 0.07104 0.0
C1310 C 0.39051 0.64056 0.09394 0.0
H1311 H 0.39473 0.5614 0.15295 0.0
H1312 H 0.37343 0.58583 0.13555 0.0
H1313 H 0.41682 0.63812 0.11051 0.0
H1314 H 0.38083 0.64977 0.03948 0.0
H1315 H 0.39535 0.63968 0.06366 0.0
H1316 H 0.34394 0.6039 0.09006 0.0
C1317 C 0.3923 0.58493 0.13488 0.0
C1318 C 0.40095 0.63037 0.10616 0.0
C1319 C 0.40446 0.57102 0.14489 0.0
C1320 C 0.36846 0.64791 0.04823 0.0
C1321 C 0.37676 0.64243 0.06209 0.0
C1322 C 0.35965 0.61169 0.09457 0.0
C1323 C 0.40434 0.59721 0.12403 0.0
C1324 C 0.39144 0.61008 0.11238 0.0
C1325 C 0.36114 0.63936 0.07358 0.0
C1326 C 0.37009 0.63095 0.0878 0.0
H1327 H 0.45992 0.58109 0.13329 0.0
H1328 H 0.43884 0.60465 0.11553 0.0
H1329 H 0.36252 0.5855 0.11097 0.0
H1330 H 0.31021 0.65103 0.05533 0.0
H1331 H 0.3247 0.64065 0.07975 0.0
C1332 C 0.42606 0.91442 0.38758 0.0
C1333 C 0.41468 0.93266 0.39485 0.0
C1334 C 0.41446 0.90179 0.3767 0.0
C1335 C 0.36452 0.9075 0.35104 0.0
H1336 H 0.38053 0.84331 0.34204 0.0
C1337 C 0.34217 0.83001 0.30603 0.0
C1338 C 0.34295 0.84382 0.29349 0.0
C1339 C 0.34756 0.8398 0.31959 0.0
C1340 C 0.37551 0.86111 0.3445 0.0
H1341 H 0.38195 0.95126 0.39703 0.0
H1342 H 0.36131 0.92867 0.37839 0.0
H1343 H 0.3957 0.86116 0.36417 0.0
H1344 H 0.34727 0.87891 0.28524 0.0
H1345 H 0.35736 0.89595 0.30868 0.0
H1346 H 0.34391 0.9073 0.33157 0.0
C1347 C 0.37943 0.92455 0.38074 0.0
C1348 C 0.38452 0.8715 0.35712 0.0
C1349 C 0.39117 0.93741 0.39147 0.0
C1350 C 0.34744 0.8678 0.29476 0.0
C1351 C 0.3528 0.8776 0.30824 0.0
C1352 C 0.35529 0.89704 0.33854 0.0
C1353 C 0.39109 0.90692 0.37296 0.0
C1354 C 0.37955 0.895 0.3604 0.0
C1355 C 0.35338 0.86366 0.32081 0.0
C1356 C 0.36109 0.87389 0.33493 0.0
H1357 H 0.44429 0.9106 0.38985 0.0
H1358 H 0.4242 0.88868 0.37083 0.0
H1359 H 0.36045 0.92569 0.35306 0.0
H1360 H 0.33805 0.81156 0.30528 0.0
H1361 H 0.34732 0.82865 0.32908 0.0
C1362 C 0.08806 0.92379 0.63594 0.0
C1363 C 0.06674 0.91667 0.64203 0.0
C1364 C 0.09802 0.91108 0.62461 0.0
C1365 C 0.0798 0.87546 0.59411 0.0
H1366 H 0.1455 0.86037 0.5901 0.0
C1367 C 0.11186 0.83261 0.54194 0.0
C1368 C 0.13319 0.84046 0.53637 0.0
C1369 C 0.1055 0.8381 0.55611 0.0
C1370 C 0.12713 0.86466 0.59098 0.0
H1371 H 0.04017 0.88958 0.64162 0.0
H1372 H 0.05726 0.86786 0.62157 0.0
H1373 H 0.13148 0.87725 0.61281 0.0
H1374 H 0.16499 0.8595 0.54133 0.0
H1375 H 0.15349 0.8701 0.56591 0.0
H1376 H 0.07534 0.86426 0.57221 0.0
C1377 C 0.0661 0.88338 0.62554 0.0
C1378 C 0.11913 0.8742 0.60402 0.0
C1379 C 0.05627 0.89591 0.63697 0.0
C1380 C 0.14849 0.85313 0.54542 0.0
C1381 C 0.14189 0.85911 0.55953 0.0
C1382 C 0.0878 0.86631 0.58105 0.0
C1383 C 0.08678 0.89113 0.61904 0.0
C1384 C 0.09538 0.87973 0.60567 0.0
C1385 C 0.12002 0.85215 0.56495 0.0
C1386 C 0.11159 0.8608 0.57925 0.0
H1387 H 0.0965 0.93981 0.63942 0.0
H1388 H 0.11388 0.91755 0.6197 0.0
H1389 H 0.06147 0.87998 0.59498 0.0
H1390 H 0.09988 0.82252 0.53524 0.0
H1391 H 0.08889 0.83174 0.56001 0.0
C1392 C 0.60607 0.42848 0.86033 0.0
C1393 C 0.59899 0.45188 0.86205 0.0
C1394 C 0.61554 0.41597 0.87205 0.0
C1395 C 0.61488 0.41646 0.91203 0.0
H1396 H 0.66466 0.37079 0.90908 0.0
C1397 C 0.65237 0.3724 0.96293 0.0
C1398 C 0.65761 0.34852 0.96218 0.0
C1399 C 0.64712 0.38496 0.95035 0.0
C1400 C 0.65056 0.3833 0.91005 0.0
H1401 H 0.59716 0.4806 0.87743 0.0
H1402 H 0.61441 0.45919 0.89754 0.0
H1403 H 0.65259 0.39302 0.88762 0.0
H1404 H 0.66315 0.31919 0.94782 0.0
H1405 H 0.653 0.34089 0.92568 0.0
H1406 H 0.61284 0.40718 0.93433 0.0
C1407 C 0.61218 0.45031 0.88723 0.0
C1408 C 0.64368 0.39606 0.89775 0.0
C1409 C 0.6026 0.46273 0.87559 0.0
C1410 C 0.65868 0.33755 0.9486 0.0
C1411 C 0.65307 0.35004 0.93596 0.0
C1412 C 0.6218 0.40386 0.92427 0.0
C1413 C 0.61818 0.42661 0.88573 0.0
C1414 C 0.62581 0.41288 0.89864 0.0
C1415 C 0.64692 0.37387 0.93672 0.0
C1416 C 0.63973 0.38711 0.92349 0.0
H1417 H 0.60387 0.41966 0.85 0.0
H1418 H 0.61994 0.39773 0.87053 0.0
H1419 H 0.60067 0.42885 0.91306 0.0
H1420 H 0.65229 0.38139 0.97328 0.0
H1421 H 0.64317 0.40339 0.95136 0.0
C1422 C 0.55608 0.10061 0.11193 0.0
C1423 C 0.56085 0.07684 0.10957 0.0
C1424 C 0.56907 0.11339 0.12212 0.0
C1425 C 0.62291 0.11123 0.14544 0.0
H1426 H 0.58722 0.1527 0.17002 0.0
C1427 C 0.62763 0.14955 0.20693 0.0
C1428 C 0.6516 0.15421 0.20816 0.0
C1429 C 0.61756 0.14445 0.19347 0.0
C1430 C 0.59747 0.14115 0.16328 0.0
H1431 H 0.58313 0.04786 0.11585 0.0
H1432 H 0.60541 0.06988 0.13391 0.0
H1433 H 0.56837 0.13442 0.1492 0.0
H1434 H 0.68354 0.15973 0.19632 0.0
H1435 H 0.66598 0.15079 0.17253 0.0
H1436 H 0.65163 0.11692 0.16006 0.0
C1437 C 0.59208 0.07893 0.12765 0.0
C1438 C 0.58673 0.13089 0.15119 0.0
C1439 C 0.57925 0.06624 0.11734 0.0
C1440 C 0.6651 0.15552 0.19559 0.0
C1441 C 0.65505 0.15034 0.18204 0.0
C1442 C 0.63362 0.12137 0.15762 0.0
C1443 C 0.58695 0.10259 0.13033 0.0
C1444 C 0.59916 0.11541 0.14227 0.0
C1445 C 0.63124 0.14422 0.18087 0.0
C1446 C 0.62087 0.13602 0.16689 0.0
H1447 H 0.54217 0.10927 0.10594 0.0
H1448 H 0.56492 0.13168 0.12369 0.0
H1449 H 0.63316 0.09974 0.13867 0.0
H1450 H 0.61676 0.14922 0.21649 0.0
H1451 H 0.59926 0.13963 0.19308 0.0
C1452 C 0.92879 0.0939 0.36142 0.0
C1453 C 0.95326 0.09133 0.36166 0.0
C1454 C 0.917 0.10169 0.37376 0.0
C1455 C 0.92454 0.10258 0.41338 0.0
H1456 H 0.87059 0.14366 0.41298 0.0
C1457 C 0.86379 0.15296 0.45779 0.0
C1458 C 0.86094 0.13448 0.46769 0.0
C1459 C 0.87362 0.14889 0.44415 0.0
C1460 C 0.88572 0.13228 0.41325 0.0
H1461 H 0.9845 0.09562 0.37502 0.0
H1462 H 0.96409 0.10975 0.39623 0.0
H1463 H 0.89128 0.13567 0.39034 0.0
H1464 H 0.86507 0.09701 0.47063 0.0
H1465 H 0.88183 0.09002 0.44696 0.0
H1466 H 0.9193 0.09927 0.43619 0.0
C1467 C 0.95395 0.10543 0.38659 0.0
C1468 C 0.89744 0.12756 0.40029 0.0
C1469 C 0.96569 0.09762 0.37433 0.0
C1470 C 0.86726 0.11176 0.4634 0.0
C1471 C 0.87699 0.10773 0.44983 0.0
C1472 C 0.91285 0.10722 0.42625 0.0
C1473 C 0.92944 0.10702 0.38659 0.0
C1474 C 0.917 0.11265 0.40024 0.0
C1475 C 0.88077 0.12628 0.44017 0.0
C1476 C 0.89322 0.12198 0.42635 0.0
H1477 H 0.91869 0.08948 0.35179 0.0
H1478 H 0.89809 0.10266 0.37342 0.0
H1479 H 0.93932 0.09075 0.41371 0.0
H1480 H 0.85911 0.17067 0.46073 0.0
H1481 H 0.87639 0.16356 0.43695 0.0
C1482 C 0.92705 0.41126 0.61284 0.0
C1483 C 0.93841 0.43288 0.61456 0.0
C1484 C 0.91505 0.40119 0.62447 0.0
C1485 C 0.89047 0.41664 0.66056 0.0
H1486 H 0.89598 0.35032 0.6686 0.0
C1487 C 0.8833 0.3774 0.71732 0.0
C1488 C 0.86698 0.35935 0.71933 0.0
C1489 C 0.88848 0.38532 0.70342 0.0
C1490 C 0.89401 0.3688 0.66633 0.0
H1491 H 0.94701 0.46038 0.62991 0.0
H1492 H 0.92673 0.44281 0.6501 0.0
H1493 H 0.912 0.36621 0.64611 0.0
H1494 H 0.84359 0.33517 0.70829 0.0
H1495 H 0.8534 0.34869 0.68376 0.0
H1496 H 0.87376 0.41938 0.68118 0.0
C1497 C 0.92619 0.43391 0.63972 0.0
C1498 C 0.90312 0.37792 0.65347 0.0
C1499 C 0.93793 0.44398 0.62815 0.0
C1500 C 0.85615 0.34919 0.70707 0.0
C1501 C 0.86178 0.35682 0.69308 0.0
C1502 C 0.88173 0.4076 0.67346 0.0
C1503 C 0.91438 0.4125 0.63804 0.0
C1504 C 0.90205 0.40209 0.65064 0.0
C1505 C 0.87785 0.37509 0.69119 0.0
C1506 C 0.88392 0.38373 0.67661 0.0
H1507 H 0.92714 0.40234 0.60247 0.0
H1508 H 0.90609 0.38473 0.62278 0.0
H1509 H 0.8887 0.43521 0.65857 0.0
H1510 H 0.89194 0.38565 0.7265 0.0
H1511 H 0.90107 0.39932 0.70221 0.0
C1512 C 0.57649 0.0442 0.37416 0.0
C1513 C 0.57369 0.05602 0.38743 0.0
C1514 C 0.58943 0.05412 0.36301 0.0
C1515 C 0.60716 0.10964 0.34774 0.0
H1516 H 0.65021 0.07117 0.32595 0.0
C1517 C 0.65194 0.14212 0.29508 0.0
C1518 C 0.65174 0.12589 0.28359 0.0
C1519 C 0.64577 0.1352 0.30912 0.0
C1520 C 0.63819 0.08214 0.33188 0.0
H1521 H 0.58267 0.08765 0.3993 0.0
H1522 H 0.60473 0.10529 0.3795 0.0
H1523 H 0.63316 0.056 0.34816 0.0
H1524 H 0.64493 0.08959 0.27797 0.0
H1525 H 0.63399 0.0778 0.30215 0.0
H1526 H 0.61138 0.13539 0.3311 0.0
C1527 C 0.59692 0.08822 0.3779 0.0
C1528 C 0.6285 0.07347 0.34462 0.0
C1529 C 0.58419 0.07813 0.38919 0.0
C1530 C 0.64544 0.10262 0.28651 0.0
C1531 C 0.63931 0.09576 0.30046 0.0
C1532 C 0.61674 0.11829 0.3349 0.0
C1533 C 0.59967 0.07625 0.36472 0.0
C1534 C 0.61242 0.08686 0.35246 0.0
C1535 C 0.63936 0.11191 0.31195 0.0
C1536 C 0.63183 0.10434 0.32661 0.0
H1537 H 0.56819 0.02748 0.37218 0.0
H1538 H 0.59088 0.04469 0.35286 0.0
H1539 H 0.59471 0.12028 0.35356 0.0
H1540 H 0.65671 0.16019 0.29324 0.0
H1541 H 0.64608 0.14805 0.31776 0.0
C1542 C 0.91547 0.07961 0.64471 0.0
C1543 C 0.93997 0.07825 0.64432 0.0
C1544 C 0.90312 0.09228 0.63416 0.0
C1545 C 0.91092 0.13515 0.60396 0.0
H1546 H 0.85453 0.10612 0.58873 0.0
C1547 C 0.87577 0.15048 0.54616 0.0
C1548 C 0.85156 0.15235 0.544 0.0
C1549 C 0.88492 0.14517 0.55985 0.0
C1550 C 0.87006 0.11461 0.59298 0.0
H1551 H 0.9708 0.08926 0.63273 0.0
H1552 H 0.9494 0.11077 0.61412 0.0
H1553 H 0.87378 0.08961 0.61004 0.0
H1554 H 0.81788 0.15201 0.55442 0.0
H1555 H 0.83384 0.14199 0.57852 0.0
H1556 H 0.90775 0.15937 0.58632 0.0
C1557 C 0.9396 0.10269 0.62276 0.0
C1558 C 0.88109 0.10523 0.60526 0.0
C1559 C 0.95193 0.09028 0.63341 0.0
C1560 C 0.8366 0.1501 0.55586 0.0
C1561 C 0.84572 0.1444 0.56957 0.0
C1562 C 0.90007 0.1443 0.59155 0.0
C1563 C 0.91501 0.10361 0.62287 0.0
C1564 C 0.90193 0.1151 0.61076 0.0
C1565 C 0.86997 0.14166 0.57165 0.0
C1566 C 0.8798 0.13383 0.58577 0.0
H1567 H 0.90585 0.07068 0.65311 0.0
H1568 H 0.88424 0.09296 0.63477 0.0
H1569 H 0.92659 0.14358 0.60807 0.0
H1570 H 0.88762 0.1528 0.53718 0.0
H1571 H 0.90364 0.14298 0.56108 0.0
C1572 C 0.89719 0.46169 0.87977 0.0
C1573 C 0.90213 0.4523 0.89357 0.0
C1574 C 0.88594 0.44828 0.86914 0.0
C1575 C 0.87806 0.38818 0.85723 0.0
H1576 H 0.83002 0.4149 0.83228 0.0
C1577 C 0.8419 0.33851 0.80704 0.0
C1578 C 0.84075 0.35211 0.79441 0.0
C1579 C 0.84543 0.34924 0.82057 0.0
C1580 C 0.84348 0.40719 0.83911 0.0
H1581 H 0.89835 0.42145 0.90707 0.0
H1582 H 0.87921 0.39782 0.88827 0.0
H1583 H 0.84397 0.43672 0.8534 0.0
H1584 H 0.83987 0.38732 0.7859 0.0
H1585 H 0.8464 0.40608 0.80929 0.0
H1586 H 0.87833 0.35909 0.84262 0.0
C1587 C 0.88414 0.41564 0.88578 0.0
C1588 C 0.85141 0.41968 0.85122 0.0
C1589 C 0.89517 0.42917 0.89651 0.0
C1590 C 0.84143 0.37651 0.79552 0.0
C1591 C 0.84481 0.38723 0.80896 0.0
C1592 C 0.87023 0.37573 0.84504 0.0
C1593 C 0.87954 0.42505 0.87196 0.0
C1594 C 0.86914 0.41054 0.86021 0.0
C1595 C 0.84731 0.37374 0.82163 0.0
C1596 C 0.85326 0.38536 0.83563 0.0
H1597 H 0.90272 0.47919 0.87694 0.0
H1598 H 0.88297 0.45587 0.85851 0.0
H1599 H 0.89189 0.3808 0.86392 0.0
H1600 H 0.84081 0.31964 0.8064 0.0
H1601 H 0.84692 0.33838 0.83015 0.0
C1602 C 0.58109 0.41662 0.13598 0.0
C1603 C 0.55961 0.40871 0.14144 0.0
C1604 C 0.59225 0.40446 0.12485 0.0
C1605 C 0.57748 0.36833 0.09377 0.0
H1606 H 0.64396 0.35576 0.09159 0.0
C1607 C 0.61472 0.32593 0.04285 0.0
C1608 C 0.63603 0.3346 0.03772 0.0
C1609 C 0.60722 0.33139 0.0568 0.0
C1610 C 0.62539 0.35934 0.09196 0.0
H1611 H 0.53394 0.38082 0.14011 0.0
H1612 H 0.55312 0.36003 0.12043 0.0
H1613 H 0.62772 0.37223 0.11383 0.0
H1614 H 0.66668 0.35507 0.04331 0.0
H1615 H 0.65318 0.36555 0.0675 0.0
H1616 H 0.57499 0.35676 0.07184 0.0
C1617 C 0.56118 0.37576 0.12472 0.0
C1618 C 0.61611 0.36866 0.10473 0.0
C1619 C 0.55015 0.38775 0.13594 0.0
C1620 C 0.65022 0.34805 0.04704 0.0
C1621 C 0.64247 0.35397 0.06094 0.0
C1622 C 0.58674 0.35938 0.08098 0.0
C1623 C 0.58206 0.38426 0.11885 0.0
C1624 C 0.59206 0.37326 0.10573 0.0
C1625 C 0.62056 0.3462 0.06586 0.0
C1626 C 0.61083 0.35476 0.07985 0.0
H1627 H 0.58879 0.43281 0.13981 0.0
H1628 H 0.60824 0.41152 0.12044 0.0
H1629 H 0.55894 0.37213 0.09413 0.0
H1630 H 0.6036 0.31524 0.03594 0.0
H1631 H 0.59064 0.32442 0.06033 0.0
loop_
_geom_bond_atom_site_label_1
_geom_bond_atom_site_label_2
_geom_bond_distance
_geom_bond_site_symmetry_2
_ccdc_geom_bond_type
H0 C19 0.949 . S
H1 C20 0.950 . S
H2 C22 0.950 . S
H3 C23 0.950 . S
H4 C25 0.950 . S
H5 C28 0.950 . S
H6 C29 0.950 . S
H7 C31 0.951 . S
H8 C32 0.949 1_565 S
H9 C34 0.949 . S
H10 C35 0.950 . S
H11 C37 0.950 . S
H12 C38 0.950 . S
H13 C40 0.949 1_655 S
H14 C43 0.950 . S
H15 C44 0.950 . S
H16 C46 0.951 . S
H17 C47 0.949 1_545 S
C18 C19 1.376 . S
C18 C23 1.386 . S
C18 C24 1.483 . S
C19 H0 0.949 . S
C19 C18 1.376 . S
C19 C20 1.397 . S
C20 H1 0.950 . S
C20 C19 1.397 . S
C20 C21 1.391 . S
C21 C20 1.391 . S
C21 C22 1.405 . S
C22 H2 0.950 . S
C22 C21 1.405 . S
C22 C23 1.367 . S
C23 H3 0.950 . S
C23 C18 1.386 . S
C23 C22 1.367 . S
C24 C18 1.483 . S
C24 C25 1.382 1_655 S
C24 C26 1.403 . S
C25 H4 0.950 . S
C25 C24 1.382 1_455 S
C25 C41 1.411 1_545 S
C26 C24 1.403 . S
C26 C27 1.489 . S
C26 C40 1.404 1_645 S
C27 C26 1.489 . S
C27 C28 1.383 . S
C27 C32 1.382 . S
C28 H5 0.950 . S
C28 C27 1.383 . S
C28 C29 1.395 . S
C29 H6 0.950 . S
C29 C28 1.395 . S
C29 C30 1.288 . S
C30 C29 1.288 . S
C30 C31 1.392 . S
C31 H7 0.951 . S
C31 C30 1.392 . S
C31 C32 1.392 . S
C32 H8 0.949 1_545 S
C32 C27 1.382 . S
C32 C31 1.392 . S
C33 C34 1.376 . S
C33 C38 1.386 . S
C33 C39 1.483 . S
C34 H9 0.949 . S
C34 C33 1.376 . S
C34 C35 1.397 . S
C35 H10 0.950 . S
C35 C34 1.397 . S
C35 C36 1.391 . S
C36 C35 1.391 . S
C36 C37 1.405 . S
C37 H11 0.950 . S
C37 C36 1.405 . S
C37 C38 1.367 . S
C38 H12 0.950 . S
C38 C33 1.386 . S
C38 C37 1.367 . S
C39 C33 1.483 . S
C39 C40 1.389 . S
C39 C41 1.403 . S
C40 H13 0.949 1_455 S
C40 C26 1.404 1_465 S
C40 C39 1.389 . S
C41 C25 1.411 1_565 S
C41 C39 1.403 . S
C41 C42 1.489 . S
C42 C41 1.489 . S
C42 C43 1.383 . S
C42 C47 1.382 . S
C43 H14 0.950 . S
C43 C42 1.383 . S
C43 C44 1.395 . S
C44 H15 0.950 . S
C44 C43 1.395 . S
C44 C45 1.288 . S
C45 C44 1.288 . S
C45 C46 1.392 . S
C46 H16 0.951 . S
C46 C45 1.392 . S
C46 C47 1.392 . S
C47 H17 0.949 1_565 S
C47 C42 1.382 . S
C47 C46 1.392 . S
H48 C67 0.949 1_455 S
H49 C68 0.950 . S
H50 C70 0.950 . S
H51 C71 0.950 . S
H52 C73 0.950 . S
H53 C76 0.950 . S
H54 C77 0.950 . S
H55 C79 0.951 . S
H56 C80 0.949 . S
H57 C82 0.949 1_655 S
H58 C83 0.950 . S
H59 C85 0.950 . S
H60 C86 0.950 . S
H61 C88 0.950 . S
H62 C91 0.950 . S
H63 C92 0.950 . S
H64 C94 0.951 . S
H65 C95 0.949 . S
C66 C67 1.376 . S
C66 C71 1.386 . S
C66 C72 1.483 . S
C67 H48 0.949 1_655 S
C67 C66 1.376 . S
C67 C68 1.397 . S
C68 H49 0.950 . S
C68 C67 1.397 . S
C68 C69 1.391 . S
C69 C68 1.391 . S
C69 C70 1.405 . S
C70 H50 0.950 . S
C70 C69 1.405 . S
C70 C71 1.367 . S
C71 H51 0.950 . S
C71 C66 1.386 . S
C71 C70 1.367 . S
C72 C66 1.483 . S
C72 C73 1.382 1_655 S
C72 C74 1.403 . S
C73 H52 0.950 . S
C73 C72 1.382 1_455 S
C73 C89 1.411 . S
C74 C72 1.403 . S
C74 C75 1.489 . S
C74 C88 1.411 . S
C75 C74 1.489 . S
C75 C76 1.383 . S
C75 C80 1.382 . S
C76 H53 0.950 . S
C76 C75 1.383 . S
C76 C77 1.395 . S
C77 H54 0.950 . S
C77 C76 1.395 . S
C77 C78 1.288 . S
C78 C77 1.288 . S
C78 C79 1.392 . S
C79 H55 0.951 . S
C79 C78 1.392 . S
C79 C80 1.392 . S
C80 H56 0.949 . S
C80 C75 1.382 . S
C80 C79 1.392 . S
C81 C82 1.376 . S
C81 C86 1.386 . S
C81 C87 1.483 . S
C82 H57 0.949 1_455 S
C82 C81 1.376 . S
C82 C83 1.397 . S
C83 H58 0.950 . S
C83 C82 1.397 . S
C83 C84 1.391 . S
C84 C83 1.391 . S
C84 C85 1.405 . S
C85 H59 0.950 . S
C85 C84 1.405 . S
C85 C86 1.367 . S
C86 H60 0.950 . S
C86 C81 1.386 . S
C86 C85 1.367 . S
C87 C81 1.483 . S
C87 C88 1.382 1_455 S
C87 C89 1.403 . S
C88 H61 0.950 . S
C88 C74 1.411 . S
C88 C87 1.382 1_655 S
C89 C73 1.411 . S
C89 C87 1.403 . S
C89 C90 1.489 . S
C90 C89 1.489 . S
C90 C91 1.383 . S
C90 C95 1.382 . S
C91 H62 0.950 . S
C91 C90 1.383 . S
C91 C92 1.395 . S
C92 H63 0.950 . S
C92 C91 1.395 . S
C92 C93 1.288 . S
C93 C92 1.288 . S
C93 C94 1.392 . S
C94 H64 0.951 . S
C94 C93 1.392 . S
C94 C95 1.392 . S
C95 H65 0.949 . S
C95 C90 1.382 . S
C95 C94 1.392 . S
H96 C115 0.949 . S
H97 C116 0.950 . S
H98 C118 0.950 . S
H99 C119 0.950 . S
H100 C121 0.950 . S
H101 C124 0.950 . S
H102 C125 0.950 . S
H103 C127 0.951 . S
H104 C128 0.949 . S
H105 C130 0.949 . S
H106 C131 0.950 . S
H107 C133 0.950 . S
H108 C134 0.950 . S
H109 C136 0.950 . S
H110 C139 0.950 . S
H111 C140 0.950 . S
H112 C142 0.951 . S
H113 C143 0.949 . S
C114 C115 1.376 . S
C114 C119 1.386 . S
C114 C120 1.483 . S
C115 H96 0.949 . S
C115 C114 1.376 . S
C115 C116 1.397 . S
C116 H97 0.950 . S
C116 C115 1.397 . S
C116 C117 1.391 . S
C117 C116 1.391 . S
C117 C118 1.405 . S
C118 H98 0.950 . S
C118 C117 1.405 . S
C118 C119 1.367 . S
C119 H99 0.950 . S
C119 C114 1.386 . S
C119 C118 1.367 . S
C120 C114 1.483 . S
C120 C121 1.382 . S
C120 C122 1.403 . S
C121 H100 0.950 . S
C121 C120 1.382 . S
C121 C137 1.411 . S
C122 C120 1.403 . S
C122 C123 1.489 . S
C122 C136 1.411 . S
C123 C122 1.489 . S
C123 C124 1.383 . S
C123 C128 1.382 . S
C124 H101 0.950 . S
C124 C123 1.383 . S
C124 C125 1.395 . S
C125 H102 0.950 . S
C125 C124 1.395 . S
C125 C126 1.288 . S
C126 C125 1.288 . S
C126 C127 1.392 . S
C127 H103 0.951 . S
C127 C126 1.392 . S
C127 C128 1.392 . S
C128 H104 0.949 . S
C128 C123 1.382 . S
C128 C127 1.392 . S
C129 C130 1.376 . S
C129 C134 1.386 . S
C129 C135 1.483 . S
C130 H105 0.949 . S
C130 C129 1.376 . S
C130 C131 1.397 . S
C131 H106 0.950 . S
C131 C130 1.397 . S
C131 C132 1.391 . S
C132 C131 1.391 . S
C132 C133 1.405 . S
C133 H107 0.950 . S
C133 C132 1.405 . S
C133 C134 1.367 . S
C134 H108 0.950 . S
C134 C129 1.386 . S
C134 C133 1.367 . S
C135 C129 1.483 . S
C135 C136 1.382 . S
C135 C137 1.403 . S
C136 H109 0.950 . S
C136 C122 1.411 . S
C136 C135 1.382 . S
C137 C121 1.411 . S
C137 C135 1.403 . S
C137 C138 1.489 . S
C138 C137 1.489 . S
C138 C139 1.383 . S
C138 C143 1.382 . S
C139 H110 0.950 . S
C139 C138 1.383 . S
C139 C140 1.395 . S
C140 H111 0.950 . S
C140 C139 1.395 . S
C140 C141 1.288 . S
C141 C140 1.288 . S
C141 C142 1.392 . S
C142 H112 0.951 . S
C142 C141 1.392 . S
C142 C143 1.392 . S
C143 H113 0.949 . S
C143 C138 1.382 . S
C143 C142 1.392 . S
H144 C163 0.949 . S
H145 C164 0.950 . S
H146 C166 0.950 . S
H147 C167 0.950 . S
H148 C169 0.950 . S
H149 C172 0.950 . S
H150 C173 0.950 . S
H151 C175 0.951 . S
H152 C176 0.949 . S
H153 C178 0.949 . S
H154 C179 0.950 . S
H155 C181 0.950 . S
H156 C182 0.950 . S
H157 C184 0.950 . S
H158 C187 0.950 . S
H159 C188 0.950 . S
H160 C190 0.951 . S
H161 C191 0.949 . S
C162 C163 1.376 . S
C162 C167 1.386 . S
C162 C168 1.483 . S
C163 H144 0.949 . S
C163 C162 1.376 . S
C163 C164 1.397 . S
C164 H145 0.950 . S
C164 C163 1.397 . S
C164 C165 1.391 . S
C165 C164 1.391 . S
C165 C166 1.405 . S
C166 H146 0.950 . S
C166 C165 1.405 . S
C166 C167 1.367 . S
C167 H147 0.950 . S
C167 C162 1.386 . S
C167 C166 1.367 . S
C168 C162 1.483 . S
C168 C169 1.382 1_565 S
C168 C170 1.403 . S
C169 H148 0.950 . S
C169 C168 1.382 1_545 S
C169 C185 1.411 . S
C170 C168 1.403 . S
C170 C171 1.489 . S
C170 C184 1.411 1_565 S
C171 C170 1.489 . S
C171 C172 1.383 . S
C171 C176 1.382 . S
C172 H149 0.950 . S
C172 C171 1.383 . S
C172 C173 1.395 . S
C173 H150 0.950 . S
C173 C172 1.395 . S
C173 C174 1.288 . S
C174 C173 1.288 . S
C174 C175 1.392 . S
C175 H151 0.951 . S
C175 C174 1.392 . S
C175 C176 1.392 . S
C176 H152 0.949 . S
C176 C171 1.382 . S
C176 C175 1.392 . S
C177 C178 1.376 . S
C177 C182 1.386 . S
C177 C183 1.483 . S
C178 H153 0.949 . S
C178 C177 1.376 . S
C178 C179 1.397 . S
C179 H154 0.950 . S
C179 C178 1.397 . S
C179 C180 1.391 . S
C180 C179 1.391 . S
C180 C181 1.405 . S
C181 H155 0.950 . S
C181 C180 1.405 . S
C181 C182 1.367 . S
C182 H156 0.950 . S
C182 C177 1.386 . S
C182 C181 1.367 . S
C183 C177 1.483 . S
C183 C184 1.382 . S
C183 C185 1.403 . S
C184 H157 0.950 . S
C184 C170 1.411 1_545 S
C184 C183 1.382 . S
C185 C169 1.411 . S
C185 C183 1.403 . S
C185 C186 1.489 . S
C186 C185 1.489 . S
C186 C187 1.383 . S
C186 C191 1.382 . S
C187 H158 0.950 . S
C187 C186 1.383 . S
C187 C188 1.395 . S
C188 H159 0.950 . S
C188 C187 1.395 . S
C188 C189 1.288 . S
C189 C188 1.288 . S
C189 C190 1.392 . S
C190 H160 0.951 . S
C190 C189 1.392 . S
C190 C191 1.392 . S
C191 H161 0.949 . S
C191 C186 1.382 . S
C191 C190 1.392 . S
H192 C211 0.949 . S
H193 C212 0.950 . S
H194 C214 0.950 . S
H195 C215 0.950 . S
H196 C217 0.951 . S
H197 C220 0.950 . S
H198 C221 0.950 . S
H199 C223 0.951 . S
H200 C224 0.949 . S
H201 C226 0.949 . S
H202 C227 0.950 . S
H203 C229 0.950 . S
H204 C230 0.950 . S
H205 C232 0.950 . S
H206 C235 0.950 . S
H207 C236 0.950 . S
H208 C238 0.951 . S
H209 C239 0.949 . S
C210 C211 1.376 . S
C210 C215 1.386 . S
C210 C216 1.483 . S
C211 H192 0.949 . S
C211 C210 1.376 . S
C211 C212 1.397 . S
C212 H193 0.950 . S
C212 C211 1.397 . S
C212 C213 1.391 . S
C213 C212 1.391 . S
C213 C214 1.405 . S
C214 H194 0.950 . S
C214 C213 1.405 . S
C214 C215 1.367 . S
C215 H195 0.950 . S
C215 C210 1.386 . S
C215 C214 1.367 . S
C216 C210 1.483 . S
C216 C217 1.373 1_455 S
C216 C218 1.403 . S
C217 H196 0.951 . S
C217 C216 1.373 1_655 S
C217 C233 1.419 . S
C218 C216 1.403 . S
C218 C219 1.489 . S
C218 C232 1.411 . S
C219 C218 1.489 . S
C219 C220 1.383 . S
C219 C224 1.382 . S
C220 H197 0.950 . S
C220 C219 1.383 . S
C220 C221 1.395 . S
C221 H198 0.950 . S
C221 C220 1.395 . S
C221 C222 1.288 . S
C222 C221 1.288 . S
C222 C223 1.392 . S
C223 H199 0.951 . S
C223 C222 1.392 . S
C223 C224 1.392 . S
C224 H200 0.949 . S
C224 C219 1.382 . S
C224 C223 1.392 . S
C225 C226 1.376 . S
C225 C230 1.386 . S
C225 C231 1.483 . S
C226 H201 0.949 . S
C226 C225 1.376 . S
C226 C227 1.397 . S
C227 H202 0.950 . S
C227 C226 1.397 . S
C227 C228 1.391 . S
C228 C227 1.391 . S
C228 C229 1.405 . S
C229 H203 0.950 . S
C229 C228 1.405 . S
C229 C230 1.367 . S
C230 H204 0.950 . S
C230 C225 1.386 . S
C230 C229 1.367 . S
C231 C225 1.483 . S
C231 C232 1.382 1_655 S
C231 C233 1.403 . S
C232 H205 0.950 . S
C232 C218 1.411 . S
C232 C231 1.382 1_455 S
C233 C217 1.419 . S
C233 C231 1.403 . S
C233 C234 1.489 . S
C234 C233 1.489 . S
C234 C235 1.383 . S
C234 C239 1.382 . S
C235 H206 0.950 . S
C235 C234 1.383 . S
C235 C236 1.395 . S
C236 H207 0.950 . S
C236 C235 1.395 . S
C236 C237 1.288 . S
C237 C236 1.288 . S
C237 C238 1.392 . S
C238 H208 0.951 . S
C238 C237 1.392 . S
C238 C239 1.392 . S
C239 H209 0.949 . S
C239 C234 1.382 . S
C239 C238 1.392 . S
H240 C259 0.949 . S
H241 C260 0.950 . S
H242 C262 0.950 . S
H243 C263 0.950 . S
H244 C265 0.950 . S
H245 C268 0.950 . S
H246 C269 0.950 . S
H247 C271 0.951 . S
H248 C272 0.949 . S
H249 C274 0.949 . S
H250 C275 0.950 . S
H251 C277 0.950 . S
H252 C278 0.950 . S
H253 C280 0.950 . S
H254 C283 0.950 . S
H255 C284 0.950 . S
H256 C286 0.951 . S
H257 C287 0.949 . S
C258 C259 1.376 . S
C258 C263 1.386 . S
C258 C264 1.483 . S
C259 H240 0.949 . S
C259 C258 1.376 . S
C259 C260 1.397 . S
C260 H241 0.950 . S
C260 C259 1.397 . S
C260 C261 1.391 . S
C261 C260 1.391 . S
C261 C262 1.405 . S
C262 H242 0.950 . S
C262 C261 1.405 . S
C262 C263 1.367 . S
C263 H243 0.950 . S
C263 C258 1.386 . S
C263 C262 1.367 . S
C264 C258 1.483 . S
C264 C265 1.382 . S
C264 C266 1.403 . S
C265 H244 0.950 . S
C265 C264 1.382 . S
C265 C281 1.411 . S
C266 C264 1.403 . S
C266 C267 1.489 . S
C266 C280 1.411 . S
C267 C266 1.489 . S
C267 C268 1.383 . S
C267 C272 1.382 . S
C268 H245 0.950 . S
C268 C267 1.383 . S
C268 C269 1.395 . S
C269 H246 0.950 . S
C269 C268 1.395 . S
C269 C270 1.288 . S
C270 C269 1.288 . S
C270 C271 1.392 . S
C271 H247 0.951 . S
C271 C270 1.392 . S
C271 C272 1.392 . S
C272 H248 0.949 . S
C272 C267 1.382 . S
C272 C271 1.392 . S
C273 C274 1.376 . S
C273 C278 1.386 . S
C273 C279 1.483 . S
C274 H249 0.949 . S
C274 C273 1.376 . S
C274 C275 1.397 . S
C275 H250 0.950 . S
C275 C274 1.397 . S
C275 C276 1.391 . S
C276 C275 1.391 . S
C276 C277 1.405 . S
C277 H251 0.950 . S
C277 C276 1.405 . S
C277 C278 1.367 . S
C278 H252 0.950 . S
C278 C273 1.386 . S
C278 C277 1.367 . S
C279 C273 1.483 . S
C279 C280 1.382 . S
C279 C281 1.403 . S
C280 H253 0.950 . S
C280 C266 1.411 . S
C280 C279 1.382 . S
C281 C265 1.411 . S
C281 C279 1.403 . S
C281 C282 1.489 . S
C282 C281 1.489 . S
C282 C283 1.383 . S
C282 C287 1.382 . S
C283 H254 0.950 . S
C283 C282 1.383 . S
C283 C284 1.395 . S
C284 H255 0.950 . S
C284 C283 1.395 . S
C284 C285 1.288 . S
C285 C284 1.288 . S
C285 C286 1.392 . S
C286 H256 0.951 . S
C286 C285 1.392 . S
C286 C287 1.392 . S
C287 H257 0.949 . S
C287 C282 1.382 . S
C287 C286 1.392 . S
H288 C307 0.949 . S
H289 C308 0.950 . S
H290 C310 0.950 . S
H291 C311 0.950 . S
H292 C313 0.950 . S
H293 C316 0.950 . S
H294 C317 0.950 . S
H295 C319 0.951 . S
H296 C320 0.949 1_545 S
H297 C322 0.949 . S
H298 C323 0.950 . S
H299 C325 0.950 . S
H300 C326 0.950 . S
H301 C328 0.950 . S
H302 C331 0.950 . S
H303 C332 0.950 . S
H304 C334 0.951 . S
H305 C335 0.949 1_565 S
C306 C307 1.376 . S
C306 C311 1.386 . S
C306 C312 1.483 . S
C307 H288 0.949 . S
C307 C306 1.376 . S
C307 C308 1.397 . S
C308 H289 0.950 . S
C308 C307 1.397 . S
C308 C309 1.391 . S
C309 C308 1.391 . S
C309 C310 1.405 . S
C310 H290 0.950 . S
C310 C309 1.405 . S
C310 C311 1.367 . S
C311 H291 0.950 . S
C311 C306 1.386 . S
C311 C310 1.367 . S
C312 C306 1.483 . S
C312 C313 1.382 . S
C312 C314 1.403 . S
C313 H292 0.950 . S
C313 C312 1.382 . S
C313 C329 1.411 1_565 S
C314 C312 1.403 . S
C314 C315 1.489 . S
C314 C328 1.411 1_565 S
C315 C314 1.489 . S
C315 C316 1.383 . S
C315 C320 1.382 . S
C316 H293 0.950 . S
C316 C315 1.383 . S
C316 C317 1.395 . S
C317 H294 0.950 . S
C317 C316 1.395 . S
C317 C318 1.288 . S
C318 C317 1.288 . S
C318 C319 1.392 . S
C319 H295 0.951 . S
C319 C318 1.392 . S
C319 C320 1.392 . S
C320 H296 0.949 1_565 S
C320 C315 1.382 . S
C320 C319 1.392 . S
C321 C322 1.376 . S
C321 C326 1.386 . S
C321 C327 1.483 . S
C322 H297 0.949 . S
C322 C321 1.376 . S
C322 C323 1.397 . S
C323 H298 0.950 . S
C323 C322 1.397 . S
C323 C324 1.391 . S
C324 C323 1.391 . S
C324 C325 1.405 . S
C325 H299 0.950 . S
C325 C324 1.405 . S
C325 C326 1.367 . S
C326 H300 0.950 . S
C326 C321 1.386 . S
C326 C325 1.367 . S
C327 C321 1.483 . S
C327 C328 1.382 . S
C327 C329 1.403 . S
C328 H301 0.950 . S
C328 C314 1.411 1_545 S
C328 C327 1.382 . S
C329 C313 1.411 1_545 S
C329 C327 1.403 . S
C329 C330 1.489 . S
C330 C329 1.489 . S
C330 C331 1.383 . S
C330 C335 1.382 . S
C331 H302 0.950 . S
C331 C330 1.383 . S
C331 C332 1.395 . S
C332 H303 0.950 . S
C332 C331 1.395 . S
C332 C333 1.288 . S
C333 C332 1.288 . S
C333 C334 1.392 . S
C334 H304 0.951 . S
C334 C333 1.392 . S
C334 C335 1.392 . S
C335 H305 0.949 1_545 S
C335 C330 1.382 . S
C335 C334 1.392 . S
H336 C355 0.949 1_455 S
H337 C356 0.950 . S
H338 C358 0.950 . S
H339 C359 0.950 . S
H340 C361 0.950 . S
H341 C364 0.950 . S
H342 C365 0.950 . S
H343 C367 0.951 . S
H344 C368 0.949 . S
H345 C370 0.949 . S
H346 C371 0.950 . S
H347 C373 0.950 . S
H348 C374 0.950 . S
H349 C376 0.947 1_665 S
H350 C379 0.950 . S
H351 C380 0.950 . S
H352 C382 0.951 . S
H353 C383 0.949 . S
C354 C355 1.376 . S
C354 C359 1.386 . S
C354 C360 1.483 . S
C355 H336 0.949 1_655 S
C355 C354 1.376 . S
C355 C356 1.397 . S
C356 H337 0.950 . S
C356 C355 1.397 . S
C356 C357 1.391 . S
C357 C356 1.391 . S
C357 C358 1.405 . S
C358 H338 0.950 . S
C358 C357 1.405 . S
C358 C359 1.367 . S
C359 H339 0.950 . S
C359 C354 1.386 . S
C359 C358 1.367 . S
C360 C354 1.483 . S
C360 C361 1.382 1_655 S
C360 C362 1.403 . S
C361 H340 0.950 . S
C361 C360 1.382 1_455 S
C361 C377 1.411 1_545 S
C362 C360 1.403 . S
C362 C363 1.489 . S
C362 C376 1.411 1_655 S
C363 C362 1.489 . S
C363 C364 1.383 . S
C363 C368 1.382 . S
C364 H341 0.950 . S
C364 C363 1.383 . S
C364 C365 1.395 . S
C365 H342 0.950 . S
C365 C364 1.395 . S
C365 C366 1.288 . S
C366 C365 1.288 . S
C366 C367 1.392 . S
C367 H343 0.951 . S
C367 C366 1.392 . S
C367 C368 1.392 . S
C368 H344 0.949 . S
C368 C363 1.382 . S
C368 C367 1.392 . S
C369 C370 1.376 . S
C369 C374 1.386 . S
C369 C375 1.483 . S
C370 H345 0.949 . S
C370 C369 1.376 . S
C370 C371 1.397 . S
C371 H346 0.950 . S
C371 C370 1.397 . S
C371 C372 1.391 . S
C372 C371 1.391 . S
C372 C373 1.405 . S
C373 H347 0.950 . S
C373 C372 1.405 . S
C373 C374 1.367 . S
C374 H348 0.950 . S
C374 C369 1.386 . S
C374 C373 1.367 . S
C375 C369 1.483 . S
C375 C376 1.382 1_565 S
C375 C377 1.403 . S
C376 H349 0.947 1_445 S
C376 C362 1.411 1_455 S
C376 C375 1.382 1_545 S
C377 C361 1.411 1_565 S
C377 C375 1.403 . S
C377 C378 1.489 . S
C378 C377 1.489 . S
C378 C379 1.383 . S
C378 C383 1.382 . S
C379 H350 0.950 . S
C379 C378 1.383 . S
C379 C380 1.395 . S
C380 H351 0.950 . S
C380 C379 1.395 . S
C380 C381 1.288 . S
C381 C380 1.288 . S
C381 C382 1.392 . S
C382 H352 0.951 . S
C382 C381 1.392 . S
C382 C383 1.392 . S
C383 H353 0.949 . S
C383 C378 1.382 . S
C383 C382 1.392 . S
Mn384 O389 2.095 1_554 S
Mn384 O399 2.162 . S
Mn384 O400 2.297 . S
Mn384 O408 2.385 . S
Mn384 O409 2.209 . S
Mn384 O410 2.094 1_554 S
Mn385 O390 2.121 . S
Mn385 N392 2.257 1_556 S
Mn385 N401 2.282 1_556 S
Mn385 O409 2.215 1_556 S
Mn385 O411 2.117 . S
C386 O408 1.234 . S
C386 O409 1.283 . S
C387 O399 1.281 . S
C387 O400 1.236 . S
C388 O410 1.240 . S
C388 O411 1.264 . S
O389 Mn384 2.095 1_556 S
O389 C398 1.250 . S
O390 Mn385 2.121 . S
O390 C398 1.258 . S
C391 N392 1.326 1_556 S
C391 C395 1.460 1_556 S
C391 H397 0.929 . S
N392 Mn385 2.257 1_554 S
N392 C391 1.326 1_554 S
N392 C396 1.362 . S
C393 C394 1.258 . S
C393 C396 1.431 . S
C393 C413 1.449 . S
C394 C393 1.258 . S
C394 C395 1.477 . S
C394 H414 0.931 . S
C395 C391 1.460 1_554 S
C395 C394 1.477 . S
C395 H415 0.930 1_554 S
C396 N392 1.362 . S
C396 C393 1.431 . S
C396 C406 1.476 . S
H397 C391 0.929 . S
C398 O389 1.250 . S
C398 O390 1.258 . S
O399 Mn384 2.162 . S
O399 C387 1.281 . S
O400 Mn384 2.297 . S
O400 C387 1.236 . S
N401 Mn385 2.282 1_554 S
N401 C402 1.328 . S
N401 C406 1.318 . S
C402 N401 1.328 . S
C402 C403 1.457 . S
C402 H407 0.929 . S
C403 C402 1.457 . S
C403 C404 1.291 . S
C403 H416 0.931 . S
C404 C403 1.291 . S
C404 C405 1.373 . S
C404 H417 0.929 . S
C405 C404 1.373 . S
C405 C406 1.396 . S
C405 C412 1.403 . S
C406 C396 1.476 . S
C406 N401 1.318 . S
C406 C405 1.396 . S
H407 C402 0.929 . S
O408 Mn384 2.385 . S
O408 C386 1.234 . S
O409 Mn384 2.209 . S
O409 Mn385 2.215 1_554 S
O409 C386 1.283 . S
O410 Mn384 2.094 1_556 S
O410 C388 1.240 . S
O411 Mn385 2.117 . S
O411 C388 1.264 . S
C412 C405 1.403 . S
C412 C413 1.399 . S
C412 H418 0.929 . S
C413 C393 1.449 . S
C413 C412 1.399 . S
C413 H419 0.930 . S
H414 C394 0.931 . S
H415 C395 0.930 1_556 S
H416 C403 0.931 . S
H417 C404 0.929 . S
H418 C412 0.929 . S
H419 C413 0.930 . S
Mn420 O425 2.095 . S
Mn420 O435 2.162 . S
Mn420 O436 2.297 . S
Mn420 O444 2.385 . S
Mn420 O445 2.209 . S
Mn420 O446 2.094 . S
Mn421 O426 2.121 . S
Mn421 N428 2.257 . S
Mn421 N437 2.282 . S
Mn421 O445 2.215 . S
Mn421 O447 2.117 . S
C422 O444 1.234 . S
C422 O445 1.283 . S
C423 O435 1.281 . S
C423 O436 1.236 . S
C424 O446 1.240 . S
C424 O447 1.264 . S
O425 Mn420 2.095 . S
O425 C434 1.250 . S
O426 Mn421 2.121 . S
O426 C434 1.258 . S
C427 N428 1.326 . S
C427 C431 1.460 . S
C427 H433 0.929 . S
N428 Mn421 2.257 . S
N428 C427 1.326 . S
N428 C432 1.362 . S
C429 C430 1.258 . S
C429 C432 1.431 . S
C429 C449 1.449 . S
C430 C429 1.258 . S
C430 C431 1.477 . S
C430 H450 0.931 . S
C431 C427 1.460 . S
C431 C430 1.477 . S
C431 H451 0.930 . S
C432 N428 1.362 . S
C432 C429 1.431 . S
C432 C442 1.476 . S
H433 C427 0.929 . S
C434 O425 1.250 . S
C434 O426 1.258 . S
O435 Mn420 2.162 . S
O435 C423 1.281 . S
O436 Mn420 2.297 . S
O436 C423 1.236 . S
N437 Mn421 2.282 . S
N437 C438 1.328 . S
N437 C442 1.318 . S
C438 N437 1.328 . S
C438 C439 1.457 . S
C438 H443 0.929 . S
C439 C438 1.457 . S
C439 C440 1.291 . S
C439 H452 0.931 . S
C440 C439 1.291 . S
C440 C441 1.373 . S
C440 H453 0.929 . S
C441 C440 1.373 . S
C441 C442 1.396 . S
C441 C448 1.403 . S
C442 C432 1.476 . S
C442 N437 1.318 . S
C442 C441 1.396 . S
H443 C438 0.929 . S
O444 Mn420 2.385 . S
O444 C422 1.234 . S
O445 Mn420 2.209 . S
O445 Mn421 2.215 . S
O445 C422 1.283 . S
O446 Mn420 2.094 . S
O446 C424 1.240 . S
O447 Mn421 2.117 . S
O447 C424 1.264 . S
C448 C441 1.403 . S
C448 C449 1.399 . S
C448 H454 0.929 . S
C449 C429 1.449 . S
C449 C448 1.399 . S
C449 H455 0.930 . S
H450 C430 0.931 . S
H451 C431 0.930 . S
H452 C439 0.931 . S
H453 C440 0.929 . S
H454 C448 0.929 . S
H455 C449 0.930 . S
Mn456 O461 2.095 . S
Mn456 O471 2.162 . S
Mn456 O472 2.297 . S
Mn456 O480 2.385 . S
Mn456 O481 2.209 . S
Mn456 O482 2.094 . S
Mn457 O462 2.121 . S
Mn457 N464 2.257 . S
Mn457 N473 2.282 . S
Mn457 O481 2.215 . S
Mn457 O483 2.117 . S
C458 O480 1.234 . S
C458 O481 1.283 . S
C459 O471 1.281 . S
C459 O472 1.236 . S
C460 O482 1.240 . S
C460 O483 1.264 . S
O461 Mn456 2.095 . S
O461 C470 1.250 . S
O462 Mn457 2.121 . S
O462 C470 1.258 . S
C463 N464 1.326 . S
C463 C467 1.460 . S
C463 H469 0.929 . S
N464 Mn457 2.257 . S
N464 C463 1.326 . S
N464 C468 1.362 . S
C465 C466 1.258 . S
C465 C468 1.431 . S
C465 C485 1.449 . S
C466 C465 1.258 . S
C466 C467 1.477 . S
C466 H486 0.931 . S
C467 C463 1.460 . S
C467 C466 1.477 . S
C467 H487 0.930 . S
C468 N464 1.362 . S
C468 C465 1.431 . S
C468 C478 1.476 . S
H469 C463 0.929 . S
C470 O461 1.250 . S
C470 O462 1.258 . S
O471 Mn456 2.162 . S
O471 C459 1.281 . S
O472 Mn456 2.297 . S
O472 C459 1.236 . S
N473 Mn457 2.282 . S
N473 C474 1.328 . S
N473 C478 1.318 . S
C474 N473 1.328 . S
C474 C475 1.457 . S
C474 H479 0.929 . S
C475 C474 1.457 . S
C475 C476 1.291 . S
C475 H488 0.931 . S
C476 C475 1.291 . S
C476 C477 1.373 . S
C476 H489 0.929 . S
C477 C476 1.373 . S
C477 C478 1.396 . S
C477 C484 1.403 . S
C478 C468 1.476 . S
C478 N473 1.318 . S
C478 C477 1.396 . S
H479 C474 0.929 . S
O480 Mn456 2.385 . S
O480 C458 1.234 . S
O481 Mn456 2.209 . S
O481 Mn457 2.215 . S
O481 C458 1.283 . S
O482 Mn456 2.094 . S
O482 C460 1.240 . S
O483 Mn457 2.117 . S
O483 C460 1.264 . S
C484 C477 1.403 . S
C484 C485 1.399 . S
C484 H490 0.929 . S
C485 C465 1.449 . S
C485 C484 1.399 . S
C485 H491 0.930 . S
H486 C466 0.931 . S
H487 C467 0.930 . S
H488 C475 0.931 . S
H489 C476 0.929 . S
H490 C484 0.929 . S
H491 C485 0.930 . S
Mn492 O497 2.095 . S
Mn492 O507 2.162 . S
Mn492 O508 2.297 . S
Mn492 O516 2.385 . S
Mn492 O517 2.209 . S
Mn492 O518 2.094 . S
Mn493 O498 2.121 . S
Mn493 N500 2.257 . S
Mn493 N509 2.282 . S
Mn493 O517 2.215 . S
Mn493 O519 2.117 . S
C494 O516 1.234 . S
C494 O517 1.283 . S
C495 O507 1.281 . S
C495 O508 1.236 . S
C496 O518 1.240 . S
C496 O519 1.264 . S
O497 Mn492 2.095 . S
O497 C506 1.250 . S
O498 Mn493 2.121 . S
O498 C506 1.258 . S
C499 N500 1.326 . S
C499 C503 1.460 . S
C499 H505 0.929 . S
N500 Mn493 2.257 . S
N500 C499 1.326 . S
N500 C504 1.362 . S
C501 C502 1.258 . S
C501 C504 1.431 . S
C501 C521 1.449 . S
C502 C501 1.258 . S
C502 C503 1.477 . S
C502 H522 0.931 . S
C503 C499 1.460 . S
C503 C502 1.477 . S
C503 H523 0.930 . S
C504 N500 1.362 . S
C504 C501 1.431 . S
C504 C514 1.476 . S
H505 C499 0.929 . S
C506 O497 1.250 . S
C506 O498 1.258 . S
O507 Mn492 2.162 . S
O507 C495 1.281 . S
O508 Mn492 2.297 . S
O508 C495 1.236 . S
N509 Mn493 2.282 . S
N509 C510 1.328 . S
N509 C514 1.318 . S
C510 N509 1.328 . S
C510 C511 1.457 . S
C510 H515 0.929 . S
C511 C510 1.457 . S
C511 C512 1.291 . S
C511 H524 0.931 . S
C512 C511 1.291 . S
C512 C513 1.373 . S
C512 H525 0.929 . S
C513 C512 1.373 . S
C513 C514 1.396 . S
C513 C520 1.403 . S
C514 C504 1.476 . S
C514 N509 1.318 . S
C514 C513 1.396 . S
H515 C510 0.929 . S
O516 Mn492 2.385 . S
O516 C494 1.234 . S
O517 Mn492 2.209 . S
O517 Mn493 2.215 . S
O517 C494 1.283 . S
O518 Mn492 2.094 . S
O518 C496 1.240 . S
O519 Mn493 2.117 . S
O519 C496 1.264 . S
C520 C513 1.403 . S
C520 C521 1.399 . S
C520 H526 0.929 . S
C521 C501 1.449 . S
C521 C520 1.399 . S
C521 H527 0.930 . S
H522 C502 0.931 . S
H523 C503 0.930 . S
H524 C511 0.931 . S
H525 C512 0.929 . S
H526 C520 0.929 . S
H527 C521 0.930 . S
Mn528 O533 2.095 . S
Mn528 O543 2.162 . S
Mn528 O544 2.297 . S
Mn528 O552 2.385 . S
Mn528 O553 2.209 . S
Mn528 O554 2.094 . S
Mn529 O534 2.121 . S
Mn529 N536 2.257 . S
Mn529 N545 2.282 . S
Mn529 O553 2.215 . S
Mn529 O555 2.117 . S
C530 O552 1.234 . S
C530 O553 1.283 . S
C531 O543 1.281 . S
C531 O544 1.236 . S
C532 O554 1.240 . S
C532 O555 1.264 . S
O533 Mn528 2.095 . S
O533 C542 1.250 . S
O534 Mn529 2.121 . S
O534 C542 1.258 . S
C535 N536 1.326 . S
C535 C539 1.460 . S
C535 H541 0.929 . S
N536 Mn529 2.257 . S
N536 C535 1.326 . S
N536 C540 1.362 . S
C537 C538 1.258 . S
C537 C540 1.431 . S
C537 C557 1.449 . S
C538 C537 1.258 . S
C538 C539 1.477 . S
C538 H558 0.931 . S
C539 C535 1.460 . S
C539 C538 1.477 . S
C539 H559 0.930 . S
C540 N536 1.362 . S
C540 C537 1.431 . S
C540 C550 1.476 . S
H541 C535 0.929 . S
C542 O533 1.250 . S
C542 O534 1.258 . S
O543 Mn528 2.162 . S
O543 C531 1.281 . S
O544 Mn528 2.297 . S
O544 C531 1.236 . S
N545 Mn529 2.282 . S
N545 C546 1.328 . S
N545 C550 1.318 . S
C546 N545 1.328 . S
C546 C547 1.457 . S
C546 H551 0.929 . S
C547 C546 1.457 . S
C547 C548 1.291 . S
C547 H560 0.931 . S
C548 C547 1.291 . S
C548 C549 1.373 . S
C548 H561 0.929 . S
C549 C548 1.373 . S
C549 C550 1.396 . S
C549 C556 1.403 . S
C550 C540 1.476 . S
C550 N545 1.318 . S
C550 C549 1.396 . S
H551 C546 0.929 . S
O552 Mn528 2.385 . S
O552 C530 1.234 . S
O553 Mn528 2.209 . S
O553 Mn529 2.215 . S
O553 C530 1.283 . S
O554 Mn528 2.094 . S
O554 C532 1.240 . S
O555 Mn529 2.117 . S
O555 C532 1.264 . S
C556 C549 1.403 . S
C556 C557 1.399 . S
C556 H562 0.929 . S
C557 C537 1.449 . S
C557 C556 1.399 . S
C557 H563 0.930 . S
H558 C538 0.931 . S
H559 C539 0.930 . S
H560 C547 0.931 . S
H561 C548 0.929 . S
H562 C556 0.929 . S
H563 C557 0.930 . S
Mn564 O569 2.095 . S
Mn564 O579 2.162 . S
Mn564 O580 2.297 . S
Mn564 O588 2.385 . S
Mn564 O589 2.209 . S
Mn564 O590 2.094 . S
Mn565 O570 2.121 . S
Mn565 N572 2.257 . S
Mn565 N581 2.282 . S
Mn565 O589 2.215 . S
Mn565 O591 2.117 . S
C566 O588 1.234 . S
C566 O589 1.283 . S
C567 O579 1.281 . S
C567 O580 1.236 . S
C568 O590 1.240 . S
C568 O591 1.264 . S
O569 Mn564 2.095 . S
O569 C578 1.250 . S
O570 Mn565 2.121 . S
O570 C578 1.258 . S
C571 N572 1.326 . S
C571 C575 1.460 . S
C571 H577 0.929 . S
N572 Mn565 2.257 . S
N572 C571 1.326 . S
N572 C576 1.362 . S
C573 C574 1.258 . S
C573 C576 1.431 . S
C573 C593 1.449 . S
C574 C573 1.258 . S
C574 C575 1.477 . S
C574 H594 0.931 . S
C575 C571 1.460 . S
C575 C574 1.477 . S
C575 H595 0.930 . S
C576 N572 1.362 . S
C576 C573 1.431 . S
C576 C586 1.476 . S
H577 C571 0.929 . S
C578 O569 1.250 . S
C578 O570 1.258 . S
O579 Mn564 2.162 . S
O579 C567 1.281 . S
O580 Mn564 2.297 . S
O580 C567 1.236 . S
N581 Mn565 2.282 . S
N581 C582 1.328 . S
N581 C586 1.318 . S
C582 N581 1.328 . S
C582 C583 1.457 . S
C582 H587 0.929 . S
C583 C582 1.457 . S
C583 C584 1.291 . S
C583 H596 0.931 . S
C584 C583 1.291 . S
C584 C585 1.373 . S
C584 H597 0.929 . S
C585 C584 1.373 . S
C585 C586 1.396 . S
C585 C592 1.403 . S
C586 C576 1.476 . S
C586 N581 1.318 . S
C586 C585 1.396 . S
H587 C582 0.929 . S
O588 Mn564 2.385 . S
O588 C566 1.234 . S
O589 Mn564 2.209 . S
O589 Mn565 2.215 . S
O589 C566 1.283 . S
O590 Mn564 2.094 . S
O590 C568 1.240 . S
O591 Mn565 2.117 . S
O591 C568 1.264 . S
C592 C585 1.403 . S
C592 C593 1.399 . S
C592 H598 0.929 . S
C593 C573 1.449 . S
C593 C592 1.399 . S
C593 H599 0.930 . S
H594 C574 0.931 . S
H595 C575 0.930 . S
H596 C583 0.931 . S
H597 C584 0.929 . S
H598 C592 0.929 . S
H599 C593 0.930 . S
Mn600 O605 2.095 . S
Mn600 O615 2.168 . S
Mn600 O616 2.297 1_554 S
Mn600 O624 2.385 1_554 S
Mn600 O625 2.209 1_554 S
Mn600 O626 2.094 . S
Mn601 O606 2.121 . S
Mn601 N608 2.257 1_554 S
Mn601 N617 2.282 1_554 S
Mn601 O625 2.215 1_554 S
Mn601 O627 2.117 . S
C602 O624 1.234 . S
C602 O625 1.283 . S
C603 O615 1.268 1_556 S
C603 O616 1.236 . S
C604 O626 1.240 . S
C604 O627 1.264 . S
O605 Mn600 2.095 . S
O605 C614 1.250 . S
O606 Mn601 2.121 . S
O606 C614 1.258 . S
C607 N608 1.326 1_554 S
C607 C611 1.460 . S
C607 H613 0.929 . S
N608 Mn601 2.257 1_556 S
N608 C607 1.326 1_556 S
N608 C612 1.362 . S
C609 C610 1.258 . S
C609 C612 1.431 . S
C609 C629 1.449 . S
C610 C609 1.258 . S
C610 C611 1.477 1_556 S
C610 H630 0.931 . S
C611 C607 1.460 . S
C611 C610 1.477 1_554 S
C611 H631 0.930 . S
C612 N608 1.362 . S
C612 C609 1.431 . S
C612 C622 1.476 . S
H613 C607 0.929 . S
C614 O605 1.250 . S
C614 O606 1.258 . S
O615 Mn600 2.168 . S
O615 C603 1.268 1_554 S
O616 Mn600 2.297 1_556 S
O616 C603 1.236 . S
N617 Mn601 2.282 1_556 S
N617 C618 1.328 . S
N617 C622 1.318 . S
C618 N617 1.328 . S
C618 C619 1.457 . S
C618 H623 0.929 . S
C619 C618 1.457 . S
C619 C620 1.291 . S
C619 H632 0.931 . S
C620 C619 1.291 . S
C620 C621 1.373 . S
C620 H633 0.929 . S
C621 C620 1.373 . S
C621 C622 1.396 . S
C621 C628 1.403 . S
C622 C612 1.476 . S
C622 N617 1.318 . S
C622 C621 1.396 . S
H623 C618 0.929 . S
O624 Mn600 2.385 1_556 S
O624 C602 1.234 . S
O625 Mn600 2.209 1_556 S
O625 Mn601 2.215 1_556 S
O625 C602 1.283 . S
O626 Mn600 2.094 . S
O626 C604 1.240 . S
O627 Mn601 2.117 . S
O627 C604 1.264 . S
C628 C621 1.403 . S
C628 C629 1.399 . S
C628 H634 0.929 . S
C629 C609 1.449 . S
C629 C628 1.399 . S
C629 H635 0.930 . S
H630 C610 0.931 . S
H631 C611 0.930 . S
H632 C619 0.931 . S
H633 C620 0.929 . S
H634 C628 0.929 . S
H635 C629 0.930 . S
Mn636 O641 2.095 . S
Mn636 O651 2.162 . S
Mn636 O652 2.297 . S
Mn636 O660 2.385 . S
Mn636 O661 2.209 . S
Mn636 O662 2.094 . S
Mn637 O642 2.121 . S
Mn637 N644 2.257 . S
Mn637 N653 2.282 . S
Mn637 O661 2.215 . S
Mn637 O663 2.117 . S
C638 O660 1.234 . S
C638 O661 1.283 . S
C639 O651 1.281 . S
C639 O652 1.236 . S
C640 O662 1.240 . S
C640 O663 1.264 . S
O641 Mn636 2.095 . S
O641 C650 1.250 . S
O642 Mn637 2.121 . S
O642 C650 1.258 . S
C643 N644 1.326 . S
C643 C647 1.460 . S
C643 H649 0.929 . S
N644 Mn637 2.257 . S
N644 C643 1.326 . S
N644 C648 1.362 . S
C645 C646 1.258 . S
C645 C648 1.431 . S
C645 C665 1.449 . S
C646 C645 1.258 . S
C646 C647 1.477 . S
C646 H666 0.931 . S
C647 C643 1.460 . S
C647 C646 1.477 . S
C647 H667 0.930 . S
C648 N644 1.362 . S
C648 C645 1.431 . S
C648 C658 1.476 . S
H649 C643 0.929 . S
C650 O641 1.250 . S
C650 O642 1.258 . S
O651 Mn636 2.162 . S
O651 C639 1.281 . S
O652 Mn636 2.297 . S
O652 C639 1.236 . S
N653 Mn637 2.282 . S
N653 C654 1.328 . S
N653 C658 1.318 . S
C654 N653 1.328 . S
C654 C655 1.457 . S
C654 H659 0.929 . S
C655 C654 1.457 . S
C655 C656 1.291 . S
C655 H668 0.931 . S
C656 C655 1.291 . S
C656 C657 1.373 . S
C656 H669 0.929 . S
C657 C656 1.373 . S
C657 C658 1.396 . S
C657 C664 1.403 . S
C658 C648 1.476 . S
C658 N653 1.318 . S
C658 C657 1.396 . S
H659 C654 0.929 . S
O660 Mn636 2.385 . S
O660 C638 1.234 . S
O661 Mn636 2.209 . S
O661 Mn637 2.215 . S
O661 C638 1.283 . S
O662 Mn636 2.094 . S
O662 C640 1.240 . S
O663 Mn637 2.117 . S
O663 C640 1.264 . S
C664 C657 1.403 . S
C664 C665 1.399 . S
C664 H670 0.929 . S
C665 C645 1.449 . S
C665 C664 1.399 . S
C665 H671 0.930 . S
H666 C646 0.931 . S
H667 C647 0.930 . S
H668 C655 0.931 . S
H669 C656 0.929 . S
H670 C664 0.929 . S
H671 C665 0.930 . S
C672 C673 1.349 . S
C672 C674 1.327 . S
C672 H697 0.950 . S
C673 C672 1.349 . S
C673 C689 1.349 . S
C674 C672 1.327 . S
C674 C693 1.429 . S
C674 H698 0.950 . S
C675 C692 1.574 . S
C675 C694 1.368 . S
C675 H699 0.949 . S
H676 C680 0.949 . S
C677 C678 1.349 . S
C677 C679 1.327 . S
C677 H700 0.950 . S
C678 C677 1.349 . S
C678 C690 1.349 . S
C679 C677 1.327 . S
C679 C695 1.429 . S
C679 H701 0.950 . S
C680 H676 0.949 . S
C680 C688 1.574 . S
C680 C696 1.368 . S
H681 C689 0.950 . S
H682 C687 0.950 . S
H683 C688 0.949 . S
H684 C690 0.950 . S
H685 C691 0.950 . S
H686 C692 0.949 . S
C687 H682 0.950 . S
C687 C689 1.327 . S
C687 C693 1.429 . S
C688 C680 1.574 . S
C688 H683 0.949 . S
C688 C694 1.368 . S
C689 C673 1.349 . S
C689 H681 0.950 . S
C689 C687 1.327 . S
C690 C678 1.349 . S
C690 H684 0.950 . S
C690 C691 1.327 . S
C691 H685 0.950 . S
C691 C690 1.327 . S
C691 C695 1.429 . S
C692 C675 1.574 . S
C692 H686 0.949 . S
C692 C696 1.368 . S
C693 C674 1.429 . S
C693 C687 1.429 . S
C693 C694 1.523 . S
C694 C675 1.368 . S
C694 C688 1.368 . S
C694 C693 1.523 . S
C695 C679 1.429 . S
C695 C691 1.429 . S
C695 C696 1.523 . S
C696 C680 1.368 . S
C696 C692 1.368 . S
C696 C695 1.523 . S
H697 C672 0.950 . S
H698 C674 0.950 . S
H699 C675 0.949 . S
H700 C677 0.950 . S
H701 C679 0.950 . S
C702 C703 1.349 . S
C702 C704 1.327 . S
C702 H727 0.950 . S
C703 C702 1.349 . S
C703 C719 1.349 . S
C704 C702 1.327 . S
C704 C723 1.429 . S
C704 H728 0.950 . S
C705 C722 1.574 . S
C705 C724 1.368 . S
C705 H729 0.949 . S
H706 C710 0.949 . S
C707 C708 1.349 . S
C707 C709 1.327 . S
C707 H730 0.950 . S
C708 C707 1.349 . S
C708 C720 1.349 . S
C709 C707 1.327 . S
C709 C725 1.429 . S
C709 H731 0.950 . S
C710 H706 0.949 . S
C710 C718 1.574 . S
C710 C726 1.368 . S
H711 C719 0.950 . S
H712 C717 0.950 . S
H713 C718 0.949 . S
H714 C720 0.950 . S
H715 C721 0.950 . S
H716 C722 0.949 . S
C717 H712 0.950 . S
C717 C719 1.327 . S
C717 C723 1.429 . S
C718 C710 1.574 . S
C718 H713 0.949 . S
C718 C724 1.368 . S
C719 C703 1.349 . S
C719 H711 0.950 . S
C719 C717 1.327 . S
C720 C708 1.349 . S
C720 H714 0.950 . S
C720 C721 1.327 . S
C721 H715 0.950 . S
C721 C720 1.327 . S
C721 C725 1.429 . S
C722 C705 1.574 . S
C722 H716 0.949 . S
C722 C726 1.368 . S
C723 C704 1.429 . S
C723 C717 1.429 . S
C723 C724 1.523 . S
C724 C705 1.368 . S
C724 C718 1.368 . S
C724 C723 1.523 . S
C725 C709 1.429 . S
C725 C721 1.429 . S
C725 C726 1.523 . S
C726 C710 1.368 . S
C726 C722 1.368 . S
C726 C725 1.523 . S
H727 C702 0.950 . S
H728 C704 0.950 . S
H729 C705 0.949 . S
H730 C707 0.950 . S
H731 C709 0.950 . S
C732 C733 1.349 . S
C732 C734 1.327 . S
C732 H757 0.950 . S
C733 C732 1.349 . S
C733 C749 1.349 . S
C734 C732 1.327 . S
C734 C753 1.429 . S
C734 H758 0.950 . S
C735 C752 1.574 . S
C735 C754 1.368 . S
C735 H759 0.949 . S
H736 C740 0.949 . S
C737 C738 1.349 . S
C737 C739 1.327 . S
C737 H760 0.950 . S
C738 C737 1.349 . S
C738 C750 1.349 . S
C739 C737 1.327 . S
C739 C755 1.429 . S
C739 H761 0.950 . S
C740 H736 0.949 . S
C740 C748 1.574 . S
C740 C756 1.368 . S
H741 C749 0.950 . S
H742 C747 0.950 . S
H743 C748 0.949 . S
H744 C750 0.950 . S
H745 C751 0.950 . S
H746 C752 0.949 . S
C747 H742 0.950 . S
C747 C749 1.327 . S
C747 C753 1.429 . S
C748 C740 1.574 . S
C748 H743 0.949 . S
C748 C754 1.368 . S
C749 C733 1.349 . S
C749 H741 0.950 . S
C749 C747 1.327 . S
C750 C738 1.349 . S
C750 H744 0.950 . S
C750 C751 1.327 . S
C751 H745 0.950 . S
C751 C750 1.327 . S
C751 C755 1.429 . S
C752 C735 1.574 . S
C752 H746 0.949 . S
C752 C756 1.368 . S
C753 C734 1.429 . S
C753 C747 1.429 . S
C753 C754 1.523 . S
C754 C735 1.368 . S
C754 C748 1.368 . S
C754 C753 1.523 . S
C755 C739 1.429 . S
C755 C751 1.429 . S
C755 C756 1.523 . S
C756 C740 1.368 . S
C756 C752 1.368 . S
C756 C755 1.523 . S
H757 C732 0.950 . S
H758 C734 0.950 . S
H759 C735 0.949 . S
H760 C737 0.950 . S
H761 C739 0.950 . S
C762 C763 1.349 . S
C762 C764 1.327 . S
C762 H787 0.950 . S
C763 C762 1.349 . S
C763 C779 1.349 . S
C764 C762 1.327 . S
C764 C783 1.429 . S
C764 H788 0.950 . S
C765 C782 1.574 . S
C765 C784 1.368 . S
C765 H789 0.949 . S
H766 C770 0.949 1_556 S
C767 C768 1.349 . S
C767 C769 1.327 . S
C767 H790 0.950 . S
C768 C767 1.349 . S
C768 C780 1.349 1_554 S
C769 C767 1.327 . S
C769 C785 1.429 . S
C769 H791 0.950 . S
C770 H766 0.949 1_554 S
C770 C778 1.574 . S
C770 C786 1.368 . S
H771 C779 0.950 . S
H772 C777 0.950 . S
H773 C778 0.949 . S
H774 C780 0.950 . S
H775 C781 0.950 1_556 S
H776 C782 0.949 . S
C777 H772 0.950 . S
C777 C779 1.327 . S
C777 C783 1.429 . S
C778 C770 1.574 . S
C778 H773 0.949 . S
C778 C784 1.368 . S
C779 C763 1.349 . S
C779 H771 0.950 . S
C779 C777 1.327 . S
C780 C768 1.349 1_556 S
C780 H774 0.950 . S
C780 C781 1.327 1_556 S
C781 H775 0.950 1_554 S
C781 C780 1.327 1_554 S
C781 C785 1.429 . S
C782 C765 1.574 . S
C782 H776 0.949 . S
C782 C786 1.368 . S
C783 C764 1.429 . S
C783 C777 1.429 . S
C783 C784 1.523 . S
C784 C765 1.368 . S
C784 C778 1.368 . S
C784 C783 1.523 . S
C785 C769 1.429 . S
C785 C781 1.429 . S
C785 C786 1.523 . S
C786 C770 1.368 . S
C786 C782 1.368 . S
C786 C785 1.523 . S
H787 C762 0.950 . S
H788 C764 0.950 . S
H789 C765 0.949 . S
H790 C767 0.950 . S
H791 C769 0.950 . S
C792 C793 1.349 . S
C792 C794 1.327 . S
C792 H817 0.950 . S
C793 C792 1.349 . S
C793 C809 1.349 . S
C794 C792 1.327 . S
C794 C813 1.429 . S
C794 H818 0.950 . S
C795 C812 1.574 . S
C795 C814 1.368 . S
C795 H819 0.949 . S
H796 C800 0.949 . S
C797 C798 1.349 . S
C797 C799 1.327 . S
C797 H820 0.950 . S
C798 C797 1.349 . S
C798 C810 1.349 . S
C799 C797 1.327 . S
C799 C815 1.429 . S
C799 H821 0.950 . S
C800 H796 0.949 . S
C800 C808 1.574 . S
C800 C816 1.368 . S
H801 C809 0.950 . S
H802 C807 0.950 . S
H803 C808 0.949 . S
H804 C810 0.950 1_554 S
H805 C811 0.939 1_554 S
H806 C812 0.949 . S
C807 H802 0.950 . S
C807 C809 1.327 . S
C807 C813 1.429 . S
C808 C800 1.574 . S
C808 H803 0.949 . S
C808 C814 1.368 . S
C809 C793 1.349 . S
C809 H801 0.950 . S
C809 C807 1.327 . S
C810 C798 1.349 . S
C810 H804 0.950 1_556 S
C810 C811 1.327 . S
C811 H805 0.939 1_556 S
C811 C810 1.327 . S
C811 C815 1.429 . S
C812 C795 1.574 . S
C812 H806 0.949 . S
C812 C816 1.368 . S
C813 C794 1.429 . S
C813 C807 1.429 . S
C813 C814 1.523 . S
C814 C795 1.368 . S
C814 C808 1.368 . S
C814 C813 1.523 . S
C815 C799 1.429 . S
C815 C811 1.429 . S
C815 C816 1.523 . S
C816 C800 1.368 . S
C816 C812 1.368 . S
C816 C815 1.523 . S
H817 C792 0.950 . S
H818 C794 0.950 . S
H819 C795 0.949 . S
H820 C797 0.950 . S
H821 C799 0.950 . S
C822 C823 1.349 . S
C822 C824 1.327 . S
C822 H847 0.950 . S
C823 C822 1.349 . S
C823 C839 1.349 . S
C824 C822 1.327 . S
C824 C843 1.429 . S
C824 H848 0.950 . S
C825 C842 1.574 . S
C825 C844 1.368 . S
C825 H849 0.949 . S
H826 C830 0.949 . S
C827 C828 1.349 . S
C827 C829 1.327 . S
C827 H850 0.950 . S
C828 C827 1.349 . S
C828 C840 1.349 . S
C829 C827 1.327 . S
C829 C845 1.429 . S
C829 H851 0.950 . S
C830 H826 0.949 . S
C830 C838 1.574 . S
C830 C846 1.368 . S
H831 C839 0.950 . S
H832 C837 0.950 . S
H833 C838 0.949 . S
H834 C840 0.950 . S
H835 C841 0.950 . S
H836 C842 0.949 . S
C837 H832 0.950 . S
C837 C839 1.327 . S
C837 C843 1.429 . S
C838 C830 1.574 . S
C838 H833 0.949 . S
C838 C844 1.368 . S
C839 C823 1.349 . S
C839 H831 0.950 . S
C839 C837 1.327 . S
C840 C828 1.349 . S
C840 H834 0.950 . S
C840 C841 1.327 . S
C841 H835 0.950 . S
C841 C840 1.327 . S
C841 C845 1.429 . S
C842 C825 1.574 . S
C842 H836 0.949 . S
C842 C846 1.368 . S
C843 C824 1.429 . S
C843 C837 1.429 . S
C843 C844 1.523 . S
C844 C825 1.368 . S
C844 C838 1.368 . S
C844 C843 1.523 . S
C845 C829 1.429 . S
C845 C841 1.429 . S
C845 C846 1.523 . S
C846 C830 1.368 . S
C846 C842 1.368 . S
C846 C845 1.523 . S
H847 C822 0.950 . S
H848 C824 0.950 . S
H849 C825 0.949 . S
H850 C827 0.950 . S
H851 C829 0.950 . S
C852 C853 1.349 . S
C852 C854 1.327 . S
C852 H877 0.950 . S
C853 C852 1.349 . S
C853 C869 1.349 . S
C854 C852 1.327 . S
C854 C873 1.429 . S
C854 H878 0.950 . S
C855 C872 1.574 . S
C855 C874 1.368 . S
C855 H879 0.949 . S
H856 C860 0.949 . S
C857 C858 1.349 . S
C857 C859 1.327 . S
C857 H880 0.950 . S
C858 C857 1.349 . S
C858 C870 1.349 . S
C859 C857 1.327 . S
C859 C875 1.429 . S
C859 H881 0.950 . S
C860 H856 0.949 . S
C860 C868 1.574 . S
C860 C876 1.368 . S
H861 C869 0.950 . S
H862 C867 0.950 . S
H863 C868 0.949 . S
H864 C870 0.950 . S
H865 C871 0.950 . S
H866 C872 0.949 . S
C867 H862 0.950 . S
C867 C869 1.327 . S
C867 C873 1.429 . S
C868 C860 1.574 . S
C868 H863 0.949 . S
C868 C874 1.368 . S
C869 C853 1.349 . S
C869 H861 0.950 . S
C869 C867 1.327 . S
C870 C858 1.349 . S
C870 H864 0.950 . S
C870 C871 1.327 . S
C871 H865 0.950 . S
C871 C870 1.327 . S
C871 C875 1.429 . S
C872 C855 1.574 . S
C872 H866 0.949 . S
C872 C876 1.368 . S
C873 C854 1.429 . S
C873 C867 1.429 . S
C873 C874 1.523 . S
C874 C855 1.368 . S
C874 C868 1.368 . S
C874 C873 1.523 . S
C875 C859 1.429 . S
C875 C871 1.429 . S
C875 C876 1.523 . S
C876 C860 1.368 . S
C876 C872 1.368 . S
C876 C875 1.523 . S
H877 C852 0.950 . S
H878 C854 0.950 . S
H879 C855 0.949 . S
H880 C857 0.950 . S
H881 C859 0.950 . S
C882 C883 1.349 . S
C882 C884 1.327 . S
C882 H907 0.950 . S
C883 C882 1.349 . S
C883 C899 1.349 . S
C884 C882 1.327 . S
C884 C903 1.429 . S
C884 H908 0.950 . S
C885 C902 1.574 . S
C885 C904 1.368 . S
C885 H909 0.949 . S
H886 C890 0.949 . S
C887 C888 1.349 . S
C887 C889 1.327 . S
C887 H910 0.950 . S
C888 C887 1.349 . S
C888 C900 1.349 . S
C889 C887 1.327 . S
C889 C905 1.429 . S
C889 H911 0.950 . S
C890 H886 0.949 . S
C890 C898 1.574 . S
C890 C906 1.368 . S
H891 C899 0.950 . S
H892 C897 0.950 . S
H893 C898 0.949 . S
H894 C900 0.950 . S
H895 C901 0.950 . S
H896 C902 0.949 . S
C897 H892 0.950 . S
C897 C899 1.327 . S
C897 C903 1.429 . S
C898 C890 1.574 . S
C898 H893 0.949 . S
C898 C904 1.368 . S
C899 C883 1.349 . S
C899 H891 0.950 . S
C899 C897 1.327 . S
C900 C888 1.349 . S
C900 H894 0.950 . S
C900 C901 1.327 . S
C901 H895 0.950 . S
C901 C900 1.327 . S
C901 C905 1.429 . S
C902 C885 1.574 . S
C902 H896 0.949 . S
C902 C906 1.368 . S
C903 C884 1.429 . S
C903 C897 1.429 . S
C903 C904 1.523 . S
C904 C885 1.368 . S
C904 C898 1.368 . S
C904 C903 1.523 . S
C905 C889 1.429 . S
C905 C901 1.429 . S
C905 C906 1.523 . S
C906 C890 1.368 . S
C906 C902 1.368 . S
C906 C905 1.523 . S
H907 C882 0.950 . S
H908 C884 0.950 . S
H909 C885 0.949 . S
H910 C887 0.950 . S
H911 C889 0.950 . S
C912 C913 1.349 . S
C912 C914 1.327 . S
C912 H937 0.950 . S
C913 C912 1.349 . S
C913 C929 1.349 . S
C914 C912 1.327 . S
C914 C933 1.429 . S
C914 H938 0.950 . S
C915 C932 1.574 . S
C915 C934 1.368 . S
C915 H939 0.949 . S
H916 C920 0.949 . S
C917 C918 1.349 . S
C917 C919 1.327 . S
C917 H940 0.950 . S
C918 C917 1.349 . S
C918 C930 1.349 . S
C919 C917 1.327 . S
C919 C935 1.429 . S
C919 H941 0.950 . S
C920 H916 0.949 . S
C920 C928 1.574 . S
C920 C936 1.368 . S
H921 C929 0.950 . S
H922 C927 0.950 . S
H923 C928 0.949 . S
H924 C930 0.950 . S
H925 C931 0.950 . S
H926 C932 0.949 . S
C927 H922 0.950 . S
C927 C929 1.327 . S
C927 C933 1.429 . S
C928 C920 1.574 . S
C928 H923 0.949 . S
C928 C934 1.368 . S
C929 C913 1.349 . S
C929 H921 0.950 . S
C929 C927 1.327 . S
C930 C918 1.349 . S
C930 H924 0.950 . S
C930 C931 1.327 . S
C931 H925 0.950 . S
C931 C930 1.327 . S
C931 C935 1.429 . S
C932 C915 1.574 . S
C932 H926 0.949 . S
C932 C936 1.368 . S
C933 C914 1.429 . S
C933 C927 1.429 . S
C933 C934 1.523 . S
C934 C915 1.368 . S
C934 C928 1.368 . S
C934 C933 1.523 . S
C935 C919 1.429 . S
C935 C931 1.429 . S
C935 C936 1.523 . S
C936 C920 1.368 . S
C936 C932 1.368 . S
C936 C935 1.523 . S
H937 C912 0.950 . S
H938 C914 0.950 . S
H939 C915 0.949 . S
H940 C917 0.950 . S
H941 C919 0.950 . S
C942 C943 1.349 . S
C942 C944 1.327 . S
C942 H967 0.950 . S
C943 C942 1.349 . S
C943 C959 1.349 . S
C944 C942 1.327 . S
C944 C963 1.429 . S
C944 H968 0.950 . S
C945 C962 1.574 . S
C945 C964 1.368 . S
C945 H969 0.949 . S
H946 C950 0.949 . S
C947 C948 1.349 . S
C947 C949 1.327 . S
C947 H970 0.950 1_554 S
C948 C947 1.349 . S
C948 C960 1.349 . S
C949 C947 1.327 . S
C949 C965 1.429 . S
C949 H971 0.950 1_554 S
C950 H946 0.949 . S
C950 C958 1.574 . S
C950 C966 1.368 . S
H951 C959 0.950 . S
H952 C957 0.950 . S
H953 C958 0.949 . S
H954 C960 0.950 . S
H955 C961 0.950 . S
H956 C962 0.949 . S
C957 H952 0.950 . S
C957 C959 1.327 . S
C957 C963 1.429 . S
C958 C950 1.574 . S
C958 H953 0.949 . S
C958 C964 1.368 . S
C959 C943 1.349 . S
C959 H951 0.950 . S
C959 C957 1.327 . S
C960 C948 1.349 . S
C960 H954 0.950 . S
C960 C961 1.327 . S
C961 H955 0.950 . S
C961 C960 1.327 . S
C961 C965 1.429 . S
C962 C945 1.574 . S
C962 H956 0.949 . S
C962 C966 1.368 . S
C963 C944 1.429 . S
C963 C957 1.429 . S
C963 C964 1.523 . S
C964 C945 1.368 . S
C964 C958 1.368 . S
C964 C963 1.523 . S
C965 C949 1.429 . S
C965 C961 1.429 . S
C965 C966 1.523 . S
C966 C950 1.368 . S
C966 C962 1.368 . S
C966 C965 1.523 . S
H967 C942 0.950 . S
H968 C944 0.950 . S
H969 C945 0.949 . S
H970 C947 0.950 1_556 S
H971 C949 0.950 1_556 S
C972 C973 1.349 . S
C972 C974 1.327 . S
C972 H997 0.950 . S
C973 C972 1.349 . S
C973 C989 1.349 . S
C974 C972 1.327 . S
C974 C993 1.429 . S
C974 H998 0.950 . S
C975 C992 1.574 . S
C975 C994 1.368 . S
C975 H999 0.949 . S
H976 C980 0.949 . S
C977 C978 1.349 . S
C977 C979 1.327 . S
C977 H1000 0.950 . S
C978 C977 1.349 . S
C978 C990 1.349 . S
C979 C977 1.327 . S
C979 C995 1.429 . S
C979 H1001 0.950 . S
C980 H976 0.949 . S
C980 C988 1.574 . S
C980 C996 1.368 . S
H981 C989 0.950 . S
H982 C987 0.950 . S
H983 C988 0.949 . S
H984 C990 0.950 . S
H985 C991 0.950 . S
H986 C992 0.949 . S
C987 H982 0.950 . S
C987 C989 1.327 . S
C987 C993 1.429 . S
C988 C980 1.574 . S
C988 H983 0.949 . S
C988 C994 1.368 . S
C989 C973 1.349 . S
C989 H981 0.950 . S
C989 C987 1.327 . S
C990 C978 1.349 . S
C990 H984 0.950 . S
C990 C991 1.327 . S
C991 H985 0.950 . S
C991 C990 1.327 . S
C991 C995 1.429 . S
C992 C975 1.574 . S
C992 H986 0.949 . S
C992 C996 1.368 . S
C993 C974 1.429 . S
C993 C987 1.429 . S
C993 C994 1.523 . S
C994 C975 1.368 . S
C994 C988 1.368 . S
C994 C993 1.523 . S
C995 C979 1.429 . S
C995 C991 1.429 . S
C995 C996 1.523 . S
C996 C980 1.368 . S
C996 C992 1.368 . S
C996 C995 1.523 . S
H997 C972 0.950 . S
H998 C974 0.950 . S
H999 C975 0.949 . S
H1000 C977 0.950 . S
H1001 C979 0.950 . S
C1002 C1003 1.349 . S
C1002 C1004 1.327 . S
C1002 H1027 0.950 . S
C1003 C1002 1.349 . S
C1003 C1019 1.349 . S
C1004 C1002 1.327 . S
C1004 C1023 1.429 . S
C1004 H1028 0.950 . S
C1005 C1022 1.574 . S
C1005 C1024 1.368 . S
C1005 H1029 0.949 . S
H1006 C1010 0.949 . S
C1007 C1008 1.349 . S
C1007 C1009 1.327 . S
C1007 H1030 0.950 . S
C1008 C1007 1.349 . S
C1008 C1020 1.349 . S
C1009 C1007 1.327 . S
C1009 C1025 1.429 . S
C1009 H1031 0.950 . S
C1010 H1006 0.949 . S
C1010 C1018 1.574 . S
C1010 C1026 1.368 . S
H1011 C1019 0.950 . S
H1012 C1017 0.950 . S
H1013 C1018 0.949 . S
H1014 C1020 0.950 . S
H1015 C1021 0.950 . S
H1016 C1022 0.949 . S
C1017 H1012 0.950 . S
C1017 C1019 1.327 . S
C1017 C1023 1.429 . S
C1018 C1010 1.574 . S
C1018 H1013 0.949 . S
C1018 C1024 1.368 . S
C1019 C1003 1.349 . S
C1019 H1011 0.950 . S
C1019 C1017 1.327 . S
C1020 C1008 1.349 . S
C1020 H1014 0.950 . S
C1020 C1021 1.327 . S
C1021 H1015 0.950 . S
C1021 C1020 1.327 . S
C1021 C1025 1.429 . S
C1022 C1005 1.574 . S
C1022 H1016 0.949 . S
C1022 C1026 1.368 . S
C1023 C1004 1.429 . S
C1023 C1017 1.429 . S
C1023 C1024 1.523 . S
C1024 C1005 1.368 . S
C1024 C1018 1.368 . S
C1024 C1023 1.523 . S
C1025 C1009 1.429 . S
C1025 C1021 1.429 . S
C1025 C1026 1.523 . S
C1026 C1010 1.368 . S
C1026 C1022 1.368 . S
C1026 C1025 1.523 . S
H1027 C1002 0.950 . S
H1028 C1004 0.950 . S
H1029 C1005 0.949 . S
H1030 C1007 0.950 . S
H1031 C1009 0.950 . S
C1032 C1033 1.349 . S
C1032 C1034 1.327 . S
C1032 H1057 0.950 . S
C1033 C1032 1.349 . S
C1033 C1049 1.349 . S
C1034 C1032 1.327 . S
C1034 C1053 1.429 . S
C1034 H1058 0.950 . S
C1035 C1052 1.574 . S
C1035 C1054 1.368 . S
C1035 H1059 0.949 . S
H1036 C1040 0.949 . S
C1037 C1038 1.349 . S
C1037 C1039 1.327 . S
C1037 H1060 0.950 . S
C1038 C1037 1.349 . S
C1038 C1050 1.349 . S
C1039 C1037 1.327 . S
C1039 C1055 1.429 . S
C1039 H1061 0.950 . S
C1040 H1036 0.949 . S
C1040 C1048 1.574 . S
C1040 C1056 1.368 . S
H1041 C1049 0.950 . S
H1042 C1047 0.950 . S
H1043 C1048 0.949 . S
H1044 C1050 0.950 . S
H1045 C1051 0.950 . S
H1046 C1052 0.949 . S
C1047 H1042 0.950 . S
C1047 C1049 1.327 . S
C1047 C1053 1.429 . S
C1048 C1040 1.574 . S
C1048 H1043 0.949 . S
C1048 C1054 1.368 . S
C1049 C1033 1.349 . S
C1049 H1041 0.950 . S
C1049 C1047 1.327 . S
C1050 C1038 1.349 . S
C1050 H1044 0.950 . S
C1050 C1051 1.327 . S
C1051 H1045 0.950 . S
C1051 C1050 1.327 . S
C1051 C1055 1.429 . S
C1052 C1035 1.574 . S
C1052 H1046 0.949 . S
C1052 C1056 1.368 . S
C1053 C1034 1.429 . S
C1053 C1047 1.429 . S
C1053 C1054 1.523 . S
C1054 C1035 1.368 . S
C1054 C1048 1.368 . S
C1054 C1053 1.523 . S
C1055 C1039 1.429 . S
C1055 C1051 1.429 . S
C1055 C1056 1.523 . S
C1056 C1040 1.368 . S
C1056 C1052 1.368 . S
C1056 C1055 1.523 . S
H1057 C1032 0.950 . S
H1058 C1034 0.950 . S
H1059 C1035 0.949 . S
H1060 C1037 0.950 . S
H1061 C1039 0.950 . S
C1062 C1063 1.349 . S
C1062 C1064 1.327 . S
C1062 H1087 0.950 . S
C1063 C1062 1.349 . S
C1063 C1079 1.349 . S
C1064 C1062 1.327 . S
C1064 C1083 1.429 . S
C1064 H1088 0.950 . S
C1065 C1082 1.574 . S
C1065 C1084 1.368 . S
C1065 H1089 0.949 . S
H1066 C1070 0.949 . S
C1067 C1068 1.349 . S
C1067 C1069 1.327 . S
C1067 H1090 0.950 . S
C1068 C1067 1.349 . S
C1068 C1080 1.349 . S
C1069 C1067 1.327 . S
C1069 C1085 1.429 . S
C1069 H1091 0.950 . S
C1070 H1066 0.949 . S
C1070 C1078 1.574 . S
C1070 C1086 1.368 . S
H1071 C1079 0.950 . S
H1072 C1077 0.950 . S
H1073 C1078 0.949 . S
H1074 C1080 0.950 . S
H1075 C1081 0.950 . S
H1076 C1082 0.949 . S
C1077 H1072 0.950 . S
C1077 C1079 1.327 . S
C1077 C1083 1.429 . S
C1078 C1070 1.574 . S
C1078 H1073 0.949 . S
C1078 C1084 1.368 . S
C1079 C1063 1.349 . S
C1079 H1071 0.950 . S
C1079 C1077 1.327 . S
C1080 C1068 1.349 . S
C1080 H1074 0.950 . S
C1080 C1081 1.327 . S
C1081 H1075 0.950 . S
C1081 C1080 1.327 . S
C1081 C1085 1.429 . S
C1082 C1065 1.574 . S
C1082 H1076 0.949 . S
C1082 C1086 1.368 . S
C1083 C1064 1.429 . S
C1083 C1077 1.429 . S
C1083 C1084 1.523 . S
C1084 C1065 1.368 . S
C1084 C1078 1.368 . S
C1084 C1083 1.523 . S
C1085 C1069 1.429 . S
C1085 C1081 1.429 . S
C1085 C1086 1.523 . S
C1086 C1070 1.368 . S
C1086 C1082 1.368 . S
C1086 C1085 1.523 . S
H1087 C1062 0.950 . S
H1088 C1064 0.950 . S
H1089 C1065 0.949 . S
H1090 C1067 0.950 . S
H1091 C1069 0.950 . S
C1092 C1093 1.349 . S
C1092 C1094 1.327 . S
C1092 H1117 0.950 . S
C1093 C1092 1.349 . S
C1093 C1109 1.349 . S
C1094 C1092 1.327 . S
C1094 C1113 1.429 . S
C1094 H1118 0.950 . S
C1095 C1112 1.574 . S
C1095 C1114 1.368 . S
C1095 H1119 0.949 . S
H1096 C1100 0.949 . S
C1097 C1098 1.349 . S
C1097 C1099 1.327 . S
C1097 H1120 0.950 . S
C1098 C1097 1.349 . S
C1098 C1110 1.317 1_556 S
C1099 C1097 1.327 . S
C1099 C1115 1.429 . S
C1099 H1121 0.950 . S
C1100 H1096 0.949 . S
C1100 C1108 1.574 . S
C1100 C1116 1.368 . S
H1101 C1109 0.950 . S
H1102 C1107 0.950 . S
H1103 C1108 0.949 . S
H1104 C1110 1.005 . S
H1105 C1111 0.950 1_554 S
H1106 C1112 0.949 . S
C1107 H1102 0.950 . S
C1107 C1109 1.327 . S
C1107 C1113 1.429 . S
C1108 C1100 1.574 . S
C1108 H1103 0.949 . S
C1108 C1114 1.368 . S
C1109 C1093 1.349 . S
C1109 H1101 0.950 . S
C1109 C1107 1.327 . S
C1110 C1098 1.317 1_554 S
C1110 H1104 1.005 . S
C1110 C1111 1.311 1_554 S
C1111 H1105 0.950 1_556 S
C1111 C1110 1.311 1_556 S
C1111 C1115 1.429 . S
C1112 C1095 1.574 . S
C1112 H1106 0.949 . S
C1112 C1116 1.368 . S
C1113 C1094 1.429 . S
C1113 C1107 1.429 . S
C1113 C1114 1.523 . S
C1114 C1095 1.368 . S
C1114 C1108 1.368 . S
C1114 C1113 1.523 . S
C1115 C1099 1.429 . S
C1115 C1111 1.429 . S
C1115 C1116 1.523 . S
C1116 C1100 1.368 . S
C1116 C1112 1.368 . S
C1116 C1115 1.523 . S
H1117 C1092 0.950 . S
H1118 C1094 0.950 . S
H1119 C1095 0.949 . S
H1120 C1097 0.950 . S
H1121 C1099 0.950 . S
C1122 C1123 1.349 . S
C1122 C1124 1.327 . S
C1122 H1147 0.950 . S
C1123 C1122 1.349 . S
C1123 C1139 1.349 . S
C1124 C1122 1.327 . S
C1124 C1143 1.429 . S
C1124 H1148 0.950 . S
C1125 C1142 1.574 . S
C1125 C1144 1.368 . S
C1125 H1149 0.949 . S
H1126 C1130 0.949 . S
C1127 C1128 1.349 . S
C1127 C1129 1.327 . S
C1127 H1150 0.950 . S
C1128 C1127 1.349 . S
C1128 C1140 1.349 . S
C1129 C1127 1.327 . S
C1129 C1145 1.429 . S
C1129 H1151 0.950 . S
C1130 H1126 0.949 . S
C1130 C1138 1.574 . S
C1130 C1146 1.368 . S
H1131 C1139 0.950 . S
H1132 C1137 0.950 . S
H1133 C1138 0.949 . S
H1134 C1140 0.950 . S
H1135 C1141 0.950 . S
H1136 C1142 0.949 . S
C1137 H1132 0.950 . S
C1137 C1139 1.327 . S
C1137 C1143 1.429 . S
C1138 C1130 1.574 . S
C1138 H1133 0.949 . S
C1138 C1144 1.368 . S
C1139 C1123 1.349 . S
C1139 H1131 0.950 . S
C1139 C1137 1.327 . S
C1140 C1128 1.349 . S
C1140 H1134 0.950 . S
C1140 C1141 1.327 . S
C1141 H1135 0.950 . S
C1141 C1140 1.327 . S
C1141 C1145 1.429 . S
C1142 C1125 1.574 . S
C1142 H1136 0.949 . S
C1142 C1146 1.368 . S
C1143 C1124 1.429 . S
C1143 C1137 1.429 . S
C1143 C1144 1.523 . S
C1144 C1125 1.368 . S
C1144 C1138 1.368 . S
C1144 C1143 1.523 . S
C1145 C1129 1.429 . S
C1145 C1141 1.429 . S
C1145 C1146 1.523 . S
C1146 C1130 1.368 . S
C1146 C1142 1.368 . S
C1146 C1145 1.523 . S
H1147 C1122 0.950 . S
H1148 C1124 0.950 . S
H1149 C1125 0.949 . S
H1150 C1127 0.950 . S
H1151 C1129 0.950 . S
C1152 C1153 1.349 . S
C1152 C1154 1.327 . S
C1152 H1177 0.950 . S
C1153 C1152 1.349 . S
C1153 C1169 1.349 . S
C1154 C1152 1.327 . S
C1154 C1173 1.429 . S
C1154 H1178 0.950 . S
C1155 C1172 1.574 . S
C1155 C1174 1.368 . S
C1155 H1179 0.949 . S
H1156 C1160 0.949 . S
C1157 C1158 1.349 . S
C1157 C1159 1.327 . S
C1157 H1180 0.950 . S
C1158 C1157 1.349 . S
C1158 C1170 1.349 . S
C1159 C1157 1.327 . S
C1159 C1175 1.429 . S
C1159 H1181 0.950 . S
C1160 H1156 0.949 . S
C1160 C1168 1.574 . S
C1160 C1176 1.368 . S
H1161 C1169 0.950 . S
H1162 C1167 0.950 . S
H1163 C1168 0.949 . S
H1164 C1170 0.950 . S
H1165 C1171 0.950 . S
H1166 C1172 0.949 . S
C1167 H1162 0.950 . S
C1167 C1169 1.327 . S
C1167 C1173 1.429 . S
C1168 C1160 1.574 . S
C1168 H1163 0.949 . S
C1168 C1174 1.368 . S
C1169 C1153 1.349 . S
C1169 H1161 0.950 . S
C1169 C1167 1.327 . S
C1170 C1158 1.349 . S
C1170 H1164 0.950 . S
C1170 C1171 1.327 . S
C1171 H1165 0.950 . S
C1171 C1170 1.327 . S
C1171 C1175 1.429 . S
C1172 C1155 1.574 . S
C1172 H1166 0.949 . S
C1172 C1176 1.368 . S
C1173 C1154 1.429 . S
C1173 C1167 1.429 . S
C1173 C1174 1.523 . S
C1174 C1155 1.368 . S
C1174 C1168 1.368 . S
C1174 C1173 1.523 . S
C1175 C1159 1.429 . S
C1175 C1171 1.429 . S
C1175 C1176 1.523 . S
C1176 C1160 1.368 . S
C1176 C1172 1.368 . S
C1176 C1175 1.523 . S
H1177 C1152 0.950 . S
H1178 C1154 0.950 . S
H1179 C1155 0.949 . S
H1180 C1157 0.950 . S
H1181 C1159 0.950 . S
C1182 C1183 1.349 . S
C1182 C1184 1.327 . S
C1182 H1207 0.950 . S
C1183 C1182 1.349 . S
C1183 C1199 1.349 . S
C1184 C1182 1.327 . S
C1184 C1203 1.429 . S
C1184 H1208 0.950 . S
C1185 C1202 1.574 . S
C1185 C1204 1.368 . S
C1185 H1209 0.949 . S
H1186 C1190 0.949 . S
C1187 C1188 1.349 . S
C1187 C1189 1.327 . S
C1187 H1210 0.950 . S
C1188 C1187 1.349 . S
C1188 C1200 1.349 . S
C1189 C1187 1.327 . S
C1189 C1205 1.429 . S
C1189 H1211 0.950 . S
C1190 H1186 0.949 . S
C1190 C1198 1.574 . S
C1190 C1206 1.368 . S
H1191 C1199 0.950 . S
H1192 C1197 0.950 . S
H1193 C1198 0.949 . S
H1194 C1200 0.950 . S
H1195 C1201 0.950 . S
H1196 C1202 0.949 . S
C1197 H1192 0.950 . S
C1197 C1199 1.327 . S
C1197 C1203 1.429 . S
C1198 C1190 1.574 . S
C1198 H1193 0.949 . S
C1198 C1204 1.368 . S
C1199 C1183 1.349 . S
C1199 H1191 0.950 . S
C1199 C1197 1.327 . S
C1200 C1188 1.349 . S
C1200 H1194 0.950 . S
C1200 C1201 1.327 . S
C1201 H1195 0.950 . S
C1201 C1200 1.327 . S
C1201 C1205 1.429 . S
C1202 C1185 1.574 . S
C1202 H1196 0.949 . S
C1202 C1206 1.368 . S
C1203 C1184 1.429 . S
C1203 C1197 1.429 . S
C1203 C1204 1.523 . S
C1204 C1185 1.368 . S
C1204 C1198 1.368 . S
C1204 C1203 1.523 . S
C1205 C1189 1.429 . S
C1205 C1201 1.429 . S
C1205 C1206 1.523 . S
C1206 C1190 1.368 . S
C1206 C1202 1.368 . S
C1206 C1205 1.523 . S
H1207 C1182 0.950 . S
H1208 C1184 0.950 . S
H1209 C1185 0.949 . S
H1210 C1187 0.950 . S
H1211 C1189 0.950 . S
C1212 C1213 1.349 . S
C1212 C1214 1.327 . S
C1212 H1237 0.950 . S
C1213 C1212 1.349 . S
C1213 C1229 1.349 . S
C1214 C1212 1.327 . S
C1214 C1233 1.429 . S
C1214 H1238 0.950 . S
C1215 C1232 1.574 . S
C1215 C1234 1.368 . S
C1215 H1239 0.949 . S
H1216 C1220 0.949 . S
C1217 C1218 1.349 . S
C1217 C1219 1.327 . S
C1217 H1240 0.950 . S
C1218 C1217 1.349 . S
C1218 C1230 1.349 . S
C1219 C1217 1.327 . S
C1219 C1235 1.429 . S
C1219 H1241 0.950 . S
C1220 H1216 0.949 . S
C1220 C1228 1.574 . S
C1220 C1236 1.368 . S
H1221 C1229 0.950 . S
H1222 C1227 0.950 . S
H1223 C1228 0.949 . S
H1224 C1230 0.950 . S
H1225 C1231 0.950 . S
H1226 C1232 0.949 . S
C1227 H1222 0.950 . S
C1227 C1229 1.327 . S
C1227 C1233 1.429 . S
C1228 C1220 1.574 . S
C1228 H1223 0.949 . S
C1228 C1234 1.368 . S
C1229 C1213 1.349 . S
C1229 H1221 0.950 . S
C1229 C1227 1.327 . S
C1230 C1218 1.349 . S
C1230 H1224 0.950 . S
C1230 C1231 1.327 . S
C1231 H1225 0.950 . S
C1231 C1230 1.327 . S
C1231 C1235 1.429 . S
C1232 C1215 1.574 . S
C1232 H1226 0.949 . S
C1232 C1236 1.368 . S
C1233 C1214 1.429 . S
C1233 C1227 1.429 . S
C1233 C1234 1.523 . S
C1234 C1215 1.368 . S
C1234 C1228 1.368 . S
C1234 C1233 1.523 . S
C1235 C1219 1.429 . S
C1235 C1231 1.429 . S
C1235 C1236 1.523 . S
C1236 C1220 1.368 . S
C1236 C1232 1.368 . S
C1236 C1235 1.523 . S
H1237 C1212 0.950 . S
H1238 C1214 0.950 . S
H1239 C1215 0.949 . S
H1240 C1217 0.950 . S
H1241 C1219 0.950 . S
C1242 C1243 1.349 . S
C1242 C1244 1.327 . S
C1242 H1267 0.950 . S
C1243 C1242 1.349 . S
C1243 C1259 1.349 . S
C1244 C1242 1.327 . S
C1244 C1263 1.429 . S
C1244 H1268 0.950 . S
C1245 C1262 1.574 . S
C1245 C1264 1.368 . S
C1245 H1269 0.949 . S
H1246 C1250 0.949 . S
C1247 C1248 1.349 . S
C1247 C1249 1.327 . S
C1247 H1270 0.950 . S
C1248 C1247 1.349 . S
C1248 C1260 1.349 . S
C1249 C1247 1.327 . S
C1249 C1265 1.429 . S
C1249 H1271 0.950 . S
C1250 H1246 0.949 . S
C1250 C1258 1.574 . S
C1250 C1266 1.368 . S
H1251 C1259 0.950 . S
H1252 C1257 0.950 . S
H1253 C1258 0.949 . S
H1254 C1260 0.950 . S
H1255 C1261 0.950 . S
H1256 C1262 0.949 . S
C1257 H1252 0.950 . S
C1257 C1259 1.327 . S
C1257 C1263 1.429 . S
C1258 C1250 1.574 . S
C1258 H1253 0.949 . S
C1258 C1264 1.368 . S
C1259 C1243 1.349 . S
C1259 H1251 0.950 . S
C1259 C1257 1.327 . S
C1260 C1248 1.349 . S
C1260 H1254 0.950 . S
C1260 C1261 1.327 . S
C1261 H1255 0.950 . S
C1261 C1260 1.327 . S
C1261 C1265 1.429 . S
C1262 C1245 1.574 . S
C1262 H1256 0.949 . S
C1262 C1266 1.368 . S
C1263 C1244 1.429 . S
C1263 C1257 1.429 . S
C1263 C1264 1.523 . S
C1264 C1245 1.368 . S
C1264 C1258 1.368 . S
C1264 C1263 1.523 . S
C1265 C1249 1.429 . S
C1265 C1261 1.429 . S
C1265 C1266 1.523 . S
C1266 C1250 1.368 . S
C1266 C1262 1.368 . S
C1266 C1265 1.523 . S
H1267 C1242 0.950 . S
H1268 C1244 0.950 . S
H1269 C1245 0.949 . S
H1270 C1247 0.950 . S
H1271 C1249 0.950 . S
C1272 C1273 1.349 . S
C1272 C1274 1.327 . S
C1272 H1297 0.950 . S
C1273 C1272 1.349 . S
C1273 C1289 1.349 . S
C1274 C1272 1.327 . S
C1274 C1293 1.429 . S
C1274 H1298 0.950 . S
C1275 C1292 1.574 . S
C1275 C1294 1.368 . S
C1275 H1299 0.949 . S
H1276 C1280 0.949 . S
C1277 C1278 1.349 . S
C1277 C1279 1.327 . S
C1277 H1300 0.950 . S
C1278 C1277 1.349 . S
C1278 C1290 1.349 . S
C1279 C1277 1.327 . S
C1279 C1295 1.429 . S
C1279 H1301 0.950 . S
C1280 H1276 0.949 . S
C1280 C1288 1.574 . S
C1280 C1296 1.368 . S
H1281 C1289 0.950 . S
H1282 C1287 0.950 . S
H1283 C1288 0.949 . S
H1284 C1290 0.950 . S
H1285 C1291 0.950 . S
H1286 C1292 0.949 . S
C1287 H1282 0.950 . S
C1287 C1289 1.327 . S
C1287 C1293 1.429 . S
C1288 C1280 1.574 . S
C1288 H1283 0.949 . S
C1288 C1294 1.368 . S
C1289 C1273 1.349 . S
C1289 H1281 0.950 . S
C1289 C1287 1.327 . S
C1290 C1278 1.349 . S
C1290 H1284 0.950 . S
C1290 C1291 1.327 . S
C1291 H1285 0.950 . S
C1291 C1290 1.327 . S
C1291 C1295 1.429 . S
C1292 C1275 1.574 . S
C1292 H1286 0.949 . S
C1292 C1296 1.368 . S
C1293 C1274 1.429 . S
C1293 C1287 1.429 . S
C1293 C1294 1.523 . S
C1294 C1275 1.368 . S
C1294 C1288 1.368 . S
C1294 C1293 1.523 . S
C1295 C1279 1.429 . S
C1295 C1291 1.429 . S
C1295 C1296 1.523 . S
C1296 C1280 1.368 . S
C1296 C1292 1.368 . S
C1296 C1295 1.523 . S
H1297 C1272 0.950 . S
H1298 C1274 0.950 . S
H1299 C1275 0.949 . S
H1300 C1277 0.950 . S
H1301 C1279 0.950 . S
C1302 C1303 1.349 . S
C1302 C1304 1.327 . S
C1302 H1327 0.950 . S
C1303 C1302 1.349 . S
C1303 C1319 1.349 . S
C1304 C1302 1.327 . S
C1304 C1323 1.429 . S
C1304 H1328 0.950 . S
C1305 C1322 1.574 . S
C1305 C1324 1.368 . S
C1305 H1329 0.949 . S
H1306 C1310 0.949 . S
C1307 C1308 1.349 . S
C1307 C1309 1.327 . S
C1307 H1330 0.950 . S
C1308 C1307 1.349 . S
C1308 C1320 1.349 . S
C1309 C1307 1.327 . S
C1309 C1325 1.429 . S
C1309 H1331 0.950 . S
C1310 H1306 0.949 . S
C1310 C1318 1.574 . S
C1310 C1326 1.368 . S
H1311 C1319 0.950 . S
H1312 C1317 0.950 . S
H1313 C1318 0.949 . S
H1314 C1320 0.950 . S
H1315 C1321 0.950 . S
H1316 C1322 0.949 . S
C1317 H1312 0.950 . S
C1317 C1319 1.327 . S
C1317 C1323 1.429 . S
C1318 C1310 1.574 . S
C1318 H1313 0.949 . S
C1318 C1324 1.368 . S
C1319 C1303 1.349 . S
C1319 H1311 0.950 . S
C1319 C1317 1.327 . S
C1320 C1308 1.349 . S
C1320 H1314 0.950 . S
C1320 C1321 1.327 . S
C1321 H1315 0.950 . S
C1321 C1320 1.327 . S
C1321 C1325 1.429 . S
C1322 C1305 1.574 . S
C1322 H1316 0.949 . S
C1322 C1326 1.368 . S
C1323 C1304 1.429 . S
C1323 C1317 1.429 . S
C1323 C1324 1.523 . S
C1324 C1305 1.368 . S
C1324 C1318 1.368 . S
C1324 C1323 1.523 . S
C1325 C1309 1.429 . S
C1325 C1321 1.429 . S
C1325 C1326 1.523 . S
C1326 C1310 1.368 . S
C1326 C1322 1.368 . S
C1326 C1325 1.523 . S
H1327 C1302 0.950 . S
H1328 C1304 0.950 . S
H1329 C1305 0.949 . S
H1330 C1307 0.950 . S
H1331 C1309 0.950 . S
C1332 C1333 1.349 . S
C1332 C1334 1.327 . S
C1332 H1357 0.950 . S
C1333 C1332 1.349 . S
C1333 C1349 1.349 . S
C1334 C1332 1.327 . S
C1334 C1353 1.429 . S
C1334 H1358 0.950 . S
C1335 C1352 1.574 . S
C1335 C1354 1.368 . S
C1335 H1359 0.949 . S
H1336 C1340 0.949 . S
C1337 C1338 1.349 . S
C1337 C1339 1.327 . S
C1337 H1360 0.950 . S
C1338 C1337 1.349 . S
C1338 C1350 1.349 . S
C1339 C1337 1.327 . S
C1339 C1355 1.429 . S
C1339 H1361 0.950 . S
C1340 H1336 0.949 . S
C1340 C1348 1.574 . S
C1340 C1356 1.368 . S
H1341 C1349 0.950 . S
H1342 C1347 0.950 . S
H1343 C1348 0.949 . S
H1344 C1350 0.950 . S
H1345 C1351 0.950 . S
H1346 C1352 0.949 . S
C1347 H1342 0.950 . S
C1347 C1349 1.327 . S
C1347 C1353 1.429 . S
C1348 C1340 1.574 . S
C1348 H1343 0.949 . S
C1348 C1354 1.368 . S
C1349 C1333 1.349 . S
C1349 H1341 0.950 . S
C1349 C1347 1.327 . S
C1350 C1338 1.349 . S
C1350 H1344 0.950 . S
C1350 C1351 1.327 . S
C1351 H1345 0.950 . S
C1351 C1350 1.327 . S
C1351 C1355 1.429 . S
C1352 C1335 1.574 . S
C1352 H1346 0.949 . S
C1352 C1356 1.368 . S
C1353 C1334 1.429 . S
C1353 C1347 1.429 . S
C1353 C1354 1.523 . S
C1354 C1335 1.368 . S
C1354 C1348 1.368 . S
C1354 C1353 1.523 . S
C1355 C1339 1.429 . S
C1355 C1351 1.429 . S
C1355 C1356 1.523 . S
C1356 C1340 1.368 . S
C1356 C1352 1.368 . S
C1356 C1355 1.523 . S
H1357 C1332 0.950 . S
H1358 C1334 0.950 . S
H1359 C1335 0.949 . S
H1360 C1337 0.950 . S
H1361 C1339 0.950 . S
C1362 C1363 1.349 . S
C1362 C1364 1.327 . S
C1362 H1387 0.950 . S
C1363 C1362 1.349 . S
C1363 C1379 1.349 . S
C1364 C1362 1.327 . S
C1364 C1383 1.429 . S
C1364 H1388 0.950 . S
C1365 C1382 1.574 . S
C1365 C1384 1.368 . S
C1365 H1389 0.949 . S
H1366 C1370 0.949 . S
C1367 C1368 1.349 . S
C1367 C1369 1.327 . S
C1367 H1390 0.950 . S
C1368 C1367 1.349 . S
C1368 C1380 1.349 . S
C1369 C1367 1.327 . S
C1369 C1385 1.429 . S
C1369 H1391 0.950 . S
C1370 H1366 0.949 . S
C1370 C1378 1.574 . S
C1370 C1386 1.368 . S
H1371 C1379 0.950 . S
H1372 C1377 0.950 . S
H1373 C1378 0.949 . S
H1374 C1380 0.950 . S
H1375 C1381 0.950 . S
H1376 C1382 0.949 . S
C1377 H1372 0.950 . S
C1377 C1379 1.327 . S
C1377 C1383 1.429 . S
C1378 C1370 1.574 . S
C1378 H1373 0.949 . S
C1378 C1384 1.368 . S
C1379 C1363 1.349 . S
C1379 H1371 0.950 . S
C1379 C1377 1.327 . S
C1380 C1368 1.349 . S
C1380 H1374 0.950 . S
C1380 C1381 1.327 . S
C1381 H1375 0.950 . S
C1381 C1380 1.327 . S
C1381 C1385 1.429 . S
C1382 C1365 1.574 . S
C1382 H1376 0.949 . S
C1382 C1386 1.368 . S
C1383 C1364 1.429 . S
C1383 C1377 1.429 . S
C1383 C1384 1.523 . S
C1384 C1365 1.368 . S
C1384 C1378 1.368 . S
C1384 C1383 1.523 . S
C1385 C1369 1.429 . S
C1385 C1381 1.429 . S
C1385 C1386 1.523 . S
C1386 C1370 1.368 . S
C1386 C1382 1.368 . S
C1386 C1385 1.523 . S
H1387 C1362 0.950 . S
H1388 C1364 0.950 . S
H1389 C1365 0.949 . S
H1390 C1367 0.950 . S
H1391 C1369 0.950 . S
C1392 C1393 1.349 . S
C1392 C1394 1.327 . S
C1392 H1417 0.950 . S
C1393 C1392 1.349 . S
C1393 C1409 1.349 . S
C1394 C1392 1.327 . S
C1394 C1413 1.429 . S
C1394 H1418 0.950 . S
C1395 C1412 1.574 . S
C1395 C1414 1.368 . S
C1395 H1419 0.949 . S
H1396 C1400 0.949 . S
C1397 C1398 1.349 . S
C1397 C1399 1.327 . S
C1397 H1420 0.950 . S
C1398 C1397 1.349 . S
C1398 C1410 1.349 . S
C1399 C1397 1.327 . S
C1399 C1415 1.429 . S
C1399 H1421 0.950 . S
C1400 H1396 0.949 . S
C1400 C1408 1.574 . S
C1400 C1416 1.368 . S
H1401 C1409 0.950 . S
H1402 C1407 0.950 . S
H1403 C1408 0.949 . S
H1404 C1410 0.950 . S
H1405 C1411 0.950 . S
H1406 C1412 0.949 . S
C1407 H1402 0.950 . S
C1407 C1409 1.327 . S
C1407 C1413 1.429 . S
C1408 C1400 1.574 . S
C1408 H1403 0.949 . S
C1408 C1414 1.368 . S
C1409 C1393 1.349 . S
C1409 H1401 0.950 . S
C1409 C1407 1.327 . S
C1410 C1398 1.349 . S
C1410 H1404 0.950 . S
C1410 C1411 1.327 . S
C1411 H1405 0.950 . S
C1411 C1410 1.327 . S
C1411 C1415 1.429 . S
C1412 C1395 1.574 . S
C1412 H1406 0.949 . S
C1412 C1416 1.368 . S
C1413 C1394 1.429 . S
C1413 C1407 1.429 . S
C1413 C1414 1.523 . S
C1414 C1395 1.368 . S
C1414 C1408 1.368 . S
C1414 C1413 1.523 . S
C1415 C1399 1.429 . S
C1415 C1411 1.429 . S
C1415 C1416 1.523 . S
C1416 C1400 1.368 . S
C1416 C1412 1.368 . S
C1416 C1415 1.523 . S
H1417 C1392 0.950 . S
H1418 C1394 0.950 . S
H1419 C1395 0.949 . S
H1420 C1397 0.950 . S
H1421 C1399 0.950 . S
C1422 C1423 1.349 . S
C1422 C1424 1.327 . S
C1422 H1447 0.950 . S
C1423 C1422 1.349 . S
C1423 C1439 1.349 . S
C1424 C1422 1.327 . S
C1424 C1443 1.429 . S
C1424 H1448 0.950 . S
C1425 C1442 1.574 . S
C1425 C1444 1.368 . S
C1425 H1449 0.949 . S
H1426 C1430 0.949 . S
C1427 C1428 1.349 . S
C1427 C1429 1.327 . S
C1427 H1450 0.950 . S
C1428 C1427 1.349 . S
C1428 C1440 1.349 . S
C1429 C1427 1.327 . S
C1429 C1445 1.429 . S
C1429 H1451 0.950 . S
C1430 H1426 0.949 . S
C1430 C1438 1.574 . S
C1430 C1446 1.368 . S
H1431 C1439 0.950 . S
H1432 C1437 0.950 . S
H1433 C1438 0.949 . S
H1434 C1440 0.950 . S
H1435 C1441 0.950 . S
H1436 C1442 0.949 . S
C1437 H1432 0.950 . S
C1437 C1439 1.327 . S
C1437 C1443 1.429 . S
C1438 C1430 1.574 . S
C1438 H1433 0.949 . S
C1438 C1444 1.368 . S
C1439 C1423 1.349 . S
C1439 H1431 0.950 . S
C1439 C1437 1.327 . S
C1440 C1428 1.349 . S
C1440 H1434 0.950 . S
C1440 C1441 1.327 . S
C1441 H1435 0.950 . S
C1441 C1440 1.327 . S
C1441 C1445 1.429 . S
C1442 C1425 1.574 . S
C1442 H1436 0.949 . S
C1442 C1446 1.368 . S
C1443 C1424 1.429 . S
C1443 C1437 1.429 . S
C1443 C1444 1.523 . S
C1444 C1425 1.368 . S
C1444 C1438 1.368 . S
C1444 C1443 1.523 . S
C1445 C1429 1.429 . S
C1445 C1441 1.429 . S
C1445 C1446 1.523 . S
C1446 C1430 1.368 . S
C1446 C1442 1.368 . S
C1446 C1445 1.523 . S
H1447 C1422 0.950 . S
H1448 C1424 0.950 . S
H1449 C1425 0.949 . S
H1450 C1427 0.950 . S
H1451 C1429 0.950 . S
C1452 C1453 1.349 . S
C1452 C1454 1.327 . S
C1452 H1477 0.950 . S
C1453 C1452 1.349 . S
C1453 C1469 1.349 . S
C1454 C1452 1.327 . S
C1454 C1473 1.429 . S
C1454 H1478 0.950 . S
C1455 C1472 1.574 . S
C1455 C1474 1.368 . S
C1455 H1479 0.949 . S
H1456 C1460 0.949 . S
C1457 C1458 1.349 . S
C1457 C1459 1.327 . S
C1457 H1480 0.950 . S
C1458 C1457 1.349 . S
C1458 C1470 1.349 . S
C1459 C1457 1.327 . S
C1459 C1475 1.429 . S
C1459 H1481 0.950 . S
C1460 H1456 0.949 . S
C1460 C1468 1.574 . S
C1460 C1476 1.368 . S
H1461 C1469 0.950 . S
H1462 C1467 0.950 . S
H1463 C1468 0.949 . S
H1464 C1470 0.950 . S
H1465 C1471 0.950 . S
H1466 C1472 0.949 . S
C1467 H1462 0.950 . S
C1467 C1469 1.327 . S
C1467 C1473 1.429 . S
C1468 C1460 1.574 . S
C1468 H1463 0.949 . S
C1468 C1474 1.368 . S
C1469 C1453 1.349 . S
C1469 H1461 0.950 . S
C1469 C1467 1.327 . S
C1470 C1458 1.349 . S
C1470 H1464 0.950 . S
C1470 C1471 1.327 . S
C1471 H1465 0.950 . S
C1471 C1470 1.327 . S
C1471 C1475 1.429 . S
C1472 C1455 1.574 . S
C1472 H1466 0.949 . S
C1472 C1476 1.368 . S
C1473 C1454 1.429 . S
C1473 C1467 1.429 . S
C1473 C1474 1.523 . S
C1474 C1455 1.368 . S
C1474 C1468 1.368 . S
C1474 C1473 1.523 . S
C1475 C1459 1.429 . S
C1475 C1471 1.429 . S
C1475 C1476 1.523 . S
C1476 C1460 1.368 . S
C1476 C1472 1.368 . S
C1476 C1475 1.523 . S
H1477 C1452 0.950 . S
H1478 C1454 0.950 . S
H1479 C1455 0.949 . S
H1480 C1457 0.950 . S
H1481 C1459 0.950 . S
C1482 C1483 1.349 . S
C1482 C1484 1.327 . S
C1482 H1507 0.950 . S
C1483 C1482 1.349 . S
C1483 C1499 1.349 . S
C1484 C1482 1.327 . S
C1484 C1503 1.429 . S
C1484 H1508 0.950 . S
C1485 C1502 1.574 . S
C1485 C1504 1.368 . S
C1485 H1509 0.949 . S
H1486 C1490 0.949 . S
C1487 C1488 1.349 . S
C1487 C1489 1.327 . S
C1487 H1510 0.950 . S
C1488 C1487 1.349 . S
C1488 C1500 1.349 . S
C1489 C1487 1.327 . S
C1489 C1505 1.429 . S
C1489 H1511 0.950 . S
C1490 H1486 0.949 . S
C1490 C1498 1.574 . S
C1490 C1506 1.368 . S
H1491 C1499 0.950 . S
H1492 C1497 0.950 . S
H1493 C1498 0.949 . S
H1494 C1500 0.950 . S
H1495 C1501 0.950 . S
H1496 C1502 0.949 . S
C1497 H1492 0.950 . S
C1497 C1499 1.327 . S
C1497 C1503 1.429 . S
C1498 C1490 1.574 . S
C1498 H1493 0.949 . S
C1498 C1504 1.368 . S
C1499 C1483 1.349 . S
C1499 H1491 0.950 . S
C1499 C1497 1.327 . S
C1500 C1488 1.349 . S
C1500 H1494 0.950 . S
C1500 C1501 1.327 . S
C1501 H1495 0.950 . S
C1501 C1500 1.327 . S
C1501 C1505 1.429 . S
C1502 C1485 1.574 . S
C1502 H1496 0.949 . S
C1502 C1506 1.368 . S
C1503 C1484 1.429 . S
C1503 C1497 1.429 . S
C1503 C1504 1.523 . S
C1504 C1485 1.368 . S
C1504 C1498 1.368 . S
C1504 C1503 1.523 . S
C1505 C1489 1.429 . S
C1505 C1501 1.429 . S
C1505 C1506 1.523 . S
C1506 C1490 1.368 . S
C1506 C1502 1.368 . S
C1506 C1505 1.523 . S
H1507 C1482 0.950 . S
H1508 C1484 0.950 . S
H1509 C1485 0.949 . S
H1510 C1487 0.950 . S
H1511 C1489 0.950 . S
C1512 C1513 1.349 . S
C1512 C1514 1.327 . S
C1512 H1537 0.950 . S
C1513 C1512 1.349 . S
C1513 C1529 1.349 . S
C1514 C1512 1.327 . S
C1514 C1533 1.429 . S
C1514 H1538 0.950 . S
C1515 C1532 1.574 . S
C1515 C1534 1.368 . S
C1515 H1539 0.949 . S
H1516 C1520 0.949 . S
C1517 C1518 1.349 . S
C1517 C1519 1.327 . S
C1517 H1540 0.950 . S
C1518 C1517 1.349 . S
C1518 C1530 1.349 . S
C1519 C1517 1.327 . S
C1519 C1535 1.429 . S
C1519 H1541 0.950 . S
C1520 H1516 0.949 . S
C1520 C1528 1.574 . S
C1520 C1536 1.368 . S
H1521 C1529 0.950 . S
H1522 C1527 0.950 . S
H1523 C1528 0.949 . S
H1524 C1530 0.950 . S
H1525 C1531 0.950 . S
H1526 C1532 0.949 . S
C1527 H1522 0.950 . S
C1527 C1529 1.327 . S
C1527 C1533 1.429 . S
C1528 C1520 1.574 . S
C1528 H1523 0.949 . S
C1528 C1534 1.368 . S
C1529 C1513 1.349 . S
C1529 H1521 0.950 . S
C1529 C1527 1.327 . S
C1530 C1518 1.349 . S
C1530 H1524 0.950 . S
C1530 C1531 1.327 . S
C1531 H1525 0.950 . S
C1531 C1530 1.327 . S
C1531 C1535 1.429 . S
C1532 C1515 1.574 . S
C1532 H1526 0.949 . S
C1532 C1536 1.368 . S
C1533 C1514 1.429 . S
C1533 C1527 1.429 . S
C1533 C1534 1.523 . S
C1534 C1515 1.368 . S
C1534 C1528 1.368 . S
C1534 C1533 1.523 . S
C1535 C1519 1.429 . S
C1535 C1531 1.429 . S
C1535 C1536 1.523 . S
C1536 C1520 1.368 . S
C1536 C1532 1.368 . S
C1536 C1535 1.523 . S
H1537 C1512 0.950 . S
H1538 C1514 0.950 . S
H1539 C1515 0.949 . S
H1540 C1517 0.950 . S
H1541 C1519 0.950 . S
C1542 C1543 1.349 . S
C1542 C1544 1.327 . S
C1542 H1567 0.950 . S
C1543 C1542 1.349 . S
C1543 C1559 1.349 . S
C1544 C1542 1.327 . S
C1544 C1563 1.429 . S
C1544 H1568 0.950 . S
C1545 C1562 1.574 . S
C1545 C1564 1.368 . S
C1545 H1569 0.949 . S
H1546 C1550 0.949 . S
C1547 C1548 1.349 . S
C1547 C1549 1.327 . S
C1547 H1570 0.950 . S
C1548 C1547 1.349 . S
C1548 C1560 1.349 . S
C1549 C1547 1.327 . S
C1549 C1565 1.429 . S
C1549 H1571 0.950 . S
C1550 H1546 0.949 . S
C1550 C1558 1.574 . S
C1550 C1566 1.368 . S
H1551 C1559 0.950 . S
H1552 C1557 0.950 . S
H1553 C1558 0.949 . S
H1554 C1560 0.950 . S
H1555 C1561 0.950 . S
H1556 C1562 0.949 . S
C1557 H1552 0.950 . S
C1557 C1559 1.327 . S
C1557 C1563 1.429 . S
C1558 C1550 1.574 . S
C1558 H1553 0.949 . S
C1558 C1564 1.368 . S
C1559 C1543 1.349 . S
C1559 H1551 0.950 . S
C1559 C1557 1.327 . S
C1560 C1548 1.349 . S
C1560 H1554 0.950 . S
C1560 C1561 1.327 . S
C1561 H1555 0.950 . S
C1561 C1560 1.327 . S
C1561 C1565 1.429 . S
C1562 C1545 1.574 . S
C1562 H1556 0.949 . S
C1562 C1566 1.368 . S
C1563 C1544 1.429 . S
C1563 C1557 1.429 . S
C1563 C1564 1.523 . S
C1564 C1545 1.368 . S
C1564 C1558 1.368 . S
C1564 C1563 1.523 . S
C1565 C1549 1.429 . S
C1565 C1561 1.429 . S
C1565 C1566 1.523 . S
C1566 C1550 1.368 . S
C1566 C1562 1.368 . S
C1566 C1565 1.523 . S
H1567 C1542 0.950 . S
H1568 C1544 0.950 . S
H1569 C1545 0.949 . S
H1570 C1547 0.950 . S
H1571 C1549 0.950 . S
C1572 C1573 1.349 . S
C1572 C1574 1.327 . S
C1572 H1597 0.950 . S
C1573 C1572 1.349 . S
C1573 C1589 1.349 . S
C1574 C1572 1.327 . S
C1574 C1593 1.429 . S
C1574 H1598 0.950 . S
C1575 C1592 1.574 . S
C1575 C1594 1.368 . S
C1575 H1599 0.949 . S
H1576 C1580 0.949 . S
C1577 C1578 1.349 . S
C1577 C1579 1.327 . S
C1577 H1600 0.950 . S
C1578 C1577 1.349 . S
C1578 C1590 1.349 . S
C1579 C1577 1.327 . S
C1579 C1595 1.429 . S
C1579 H1601 0.950 . S
C1580 H1576 0.949 . S
C1580 C1588 1.574 . S
C1580 C1596 1.368 . S
H1581 C1589 0.950 . S
H1582 C1587 0.950 . S
H1583 C1588 0.949 . S
H1584 C1590 0.950 . S
H1585 C1591 0.950 . S
H1586 C1592 0.949 . S
C1587 H1582 0.950 . S
C1587 C1589 1.327 . S
C1587 C1593 1.429 . S
C1588 C1580 1.574 . S
C1588 H1583 0.949 . S
C1588 C1594 1.368 . S
C1589 C1573 1.349 . S
C1589 H1581 0.950 . S
C1589 C1587 1.327 . S
C1590 C1578 1.349 . S
C1590 H1584 0.950 . S
C1590 C1591 1.327 . S
C1591 H1585 0.950 . S
C1591 C1590 1.327 . S
C1591 C1595 1.429 . S
C1592 C1575 1.574 . S
C1592 H1586 0.949 . S
C1592 C1596 1.368 . S
C1593 C1574 1.429 . S
C1593 C1587 1.429 . S
C1593 C1594 1.523 . S
C1594 C1575 1.368 . S
C1594 C1588 1.368 . S
C1594 C1593 1.523 . S
C1595 C1579 1.429 . S
C1595 C1591 1.429 . S
C1595 C1596 1.523 . S
C1596 C1580 1.368 . S
C1596 C1592 1.368 . S
C1596 C1595 1.523 . S
H1597 C1572 0.950 . S
H1598 C1574 0.950 . S
H1599 C1575 0.949 . S
H1600 C1577 0.950 . S
H1601 C1579 0.950 . S
C1602 C1603 1.349 . S
C1602 C1604 1.327 . S
C1602 H1627 0.950 . S
C1603 C1602 1.349 . S
C1603 C1619 1.349 . S
C1604 C1602 1.327 . S
C1604 C1623 1.429 . S
C1604 H1628 0.950 . S
C1605 C1622 1.574 . S
C1605 C1624 1.368 . S
C1605 H1629 0.949 . S
H1606 C1610 0.949 . S
C1607 C1608 1.349 . S
C1607 C1609 1.327 . S
C1607 H1630 0.950 . S
C1608 C1607 1.349 . S
C1608 C1620 1.349 . S
C1609 C1607 1.327 . S
C1609 C1625 1.429 . S
C1609 H1631 0.950 . S
C1610 H1606 0.949 . S
C1610 C1618 1.574 . S
C1610 C1626 1.368 . S
H1611 C1619 0.950 . S
H1612 C1617 0.950 . S
H1613 C1618 0.949 . S
H1614 C1620 0.950 . S
H1615 C1621 0.950 . S
H1616 C1622 0.949 . S
C1617 H1612 0.950 . S
C1617 C1619 1.327 . S
C1617 C1623 1.429 . S
C1618 C1610 1.574 . S
C1618 H1613 0.949 . S
C1618 C1624 1.368 . S
C1619 C1603 1.349 . S
C1619 H1611 0.950 . S
C1619 C1617 1.327 . S
C1620 C1608 1.349 . S
C1620 H1614 0.950 . S
C1620 C1621 1.327 . S
C1621 H1615 0.950 . S
C1621 C1620 1.327 . S
C1621 C1625 1.429 . S
C1622 C1605 1.574 . S
C1622 H1616 0.949 . S
C1622 C1626 1.368 . S
C1623 C1604 1.429 . S
C1623 C1617 1.429 . S
C1623 C1624 1.523 . S
C1624 C1605 1.368 . S
C1624 C1618 1.368 . S
C1624 C1623 1.523 . S
C1625 C1609 1.429 . S
C1625 C1621 1.429 . S
C1625 C1626 1.523 . S
C1626 C1610 1.368 . S
C1626 C1622 1.368 . S
C1626 C1625 1.523 . S
H1627 C1602 0.950 . S
H1628 C1604 0.950 . S
H1629 C1605 0.949 . S
H1630 C1607 0.950 . S
H1631 C1609 0.950 . S
C678 C423 1.250 . S
C673 C36 1.227 . S
C708 C460 1.232 . S
C703 C93 1.242 . S
C738 C496 1.249 . S
C733 C126 1.246 . S
C763 C165 1.236 . S
C768 C387 1.266 . S
C793 C222 1.247 . S
C798 C388 1.250 . S
C823 C261 1.227 . S
C828 C424 1.231 . S
C858 C459 1.250 . S
C853 C318 1.229 . S
C888 C495 1.268 . S
C883 C381 1.254 . S
C913 C132 1.227 . S
C918 C567 1.250 . S
C948 C604 1.233 . S
C943 C189 1.242 . S
C973 C30 1.246 . S
C978 C640 1.248 . S
C1008 C531 1.267 . S
C1003 C69 1.237 . S
C1033 C324 1.243 . S
C1038 C532 1.249 . S
C1063 C357 1.226 . S
C1068 C568 1.230 . S
C1098 C603 1.249 . S
C1093 C228 1.226 . S
C1123 C285 1.253 . S
C1128 C639 1.267 . S
C1158 C458 1.702 . S
C1153 C45 1.690 . S
C1188 C494 1.685 . S
C1183 C84 1.682 . S
C1213 C117 1.627 . S
C1218 C398 1.512 . S
C1243 C174 1.625 . S
C1248 C434 1.530 . S
C1273 C213 1.628 . S
C1278 C506 1.513 . S
C1308 C386 1.685 . S
C1303 C270 1.651 . S
C1338 C422 1.704 . S
C1333 C309 1.693 . S
C1368 C470 1.531 . S
C1363 C372 1.654 . S
C1398 C602 1.704 . S
C1393 C141 1.692 . S
C1428 C638 1.685 . S
C1423 C180 1.682 . S
C1453 C21 1.628 . S
C1458 C542 1.514 . S
C1488 C578 1.530 . S
C1483 C78 1.625 . S
C1518 C650 1.511 . S
C1513 C333 1.627 . S
C1543 C366 1.650 . S
C1548 C530 1.684 . S
C1578 C566 1.702 . S
C1573 C237 1.690 . S
C1608 C614 1.530 . S
C1603 C276 1.653 . S
