# Generated by pormake.
# Topology nom, (4,4)-cn, num edge types: 1
# Building blocks:
#     Node 0, Type 0, BuildingBlock: GIZVER_clean_linker_0, # of connection points: 4
#     Node 1, Type 0, BuildingBlock: GIZVER_clean_linker_0, # of connection points: 4
#     Node 2, Type 0, BuildingBlock: GIZVER_clean_linker_0, # of connection points: 4
#     Node 3, Type 0, BuildingBlock: GIZVER_clean_linker_0, # of connection points: 4
#     Node 4, Type 0, BuildingBlock: GIZVER_clean_linker_0, # of connection points: 4
#     Node 5, Type 0, BuildingBlock: GIZVER_clean_linker_0, # of connection points: 4
#     Node 6, Type 1, BuildingBlock: CEKHIL_clean_sbu_0, # of connection points: 4
#     Node 7, Type 1, BuildingBlock: CEKHIL_clean_sbu_0, # of connection points: 4
#     Node 8, Type 1, BuildingBlock: CEKHIL_clean_sbu_0, # of connection points: 4
#     Node 9, Type 1, BuildingBlock: CEKHIL_clean_sbu_0, # of connection points: 4
#     Node 10, Type 1, BuildingBlock: CEKHIL_clean_sbu_0, # of connection points: 4
#     Node 11, Type 1, BuildingBlock: CEKHIL_clean_sbu_0, # of connection points: 4
#     Edge 12, Type (0, 1), BuildingBlock: ZUJKAS_clean_linker_0, # of connection points: 2
#     Edge 13, Type (0, 1), BuildingBlock: ZUJKAS_clean_linker_0, # of connection points: 2
#     Edge 14, Type (0, 1), BuildingBlock: ZUJKAS_clean_linker_0, # of connection points: 2
#     Edge 15, Type (0, 1), BuildingBlock: ZUJKAS_clean_linker_0, # of connection points: 2
#     Edge 16, Type (0, 1), BuildingBlock: ZUJKAS_clean_linker_0, # of connection points: 2
#     Edge 17, Type (0, 1), BuildingBlock: ZUJKAS_clean_linker_0, # of connection points: 2
#     Edge 18, Type (0, 1), BuildingBlock: ZUJKAS_clean_linker_0, # of connection points: 2
#     Edge 19, Type (0, 1), BuildingBlock: ZUJKAS_clean_linker_0, # of connection points: 2
#     Edge 20, Type (0, 1), BuildingBlock: ZUJKAS_clean_linker_0, # of connection points: 2
#     Edge 21, Type (0, 1), BuildingBlock: ZUJKAS_clean_linker_0, # of connection points: 2
#     Edge 22, Type (0, 1), BuildingBlock: ZUJKAS_clean_linker_0, # of connection points: 2
#     Edge 23, Type (0, 1), BuildingBlock: ZUJKAS_clean_linker_0, # of connection points: 2
#     Edge 24, Type (0, 1), BuildingBlock: ZUJKAS_clean_linker_0, # of connection points: 2
#     Edge 25, Type (0, 1), BuildingBlock: ZUJKAS_clean_linker_0, # of connection points: 2
#     Edge 26, Type (0, 1), BuildingBlock: ZUJKAS_clean_linker_0, # of connection points: 2
#     Edge 27, Type (0, 1), BuildingBlock: ZUJKAS_clean_linker_0, # of connection points: 2
#     Edge 28, Type (0, 1), BuildingBlock: ZUJKAS_clean_linker_0, # of connection points: 2
#     Edge 29, Type (0, 1), BuildingBlock: ZUJKAS_clean_linker_0, # of connection points: 2
#     Edge 30, Type (0, 1), BuildingBlock: ZUJKAS_clean_linker_0, # of connection points: 2
#     Edge 31, Type (0, 1), BuildingBlock: ZUJKAS_clean_linker_0, # of connection points: 2
#     Edge 32, Type (0, 1), BuildingBlock: ZUJKAS_clean_linker_0, # of connection points: 2
#     Edge 33, Type (0, 1), BuildingBlock: ZUJKAS_clean_linker_0, # of connection points: 2
#     Edge 34, Type (0, 1), BuildingBlock: ZUJKAS_clean_linker_0, # of connection points: 2
#     Edge 35, Type (0, 1), BuildingBlock: ZUJKAS_clean_linker_0, # of connection points: 2
# Relax obj value: 0.005
# Max RMSD: 0.070
# Mean RMSD: 0.052
data_MOF--net-nom--node1-CEKHIL_clean_sbu_0--node2-GIZVER_clean_linker_0--edge1-ZUJKAS_clean_linker_0
_symmetry_space_group_name_H-M    P1
_symmetry_Int_Tables_number       1
_symmetry_cell_setting            triclinic
loop_
_symmetry_equiv_pos_as_xyz
'x, y, z'
_cell_length_a     60.626181
_cell_length_b     60.073987
_cell_length_c     59.35655
_cell_angle_alpha  89.994884
_cell_angle_beta   90.000119
_cell_angle_gamma 121.02461
loop_
_atom_site_label
_atom_site_type_symbol
_atom_site_fract_x
_atom_site_fract_y
_atom_site_fract_z
_atom_type_partial_charge
H0 H 0.97589 0.54666 0.35424 0.0
H1 H 1.002 0.54523 0.28695 0.0
H2 H 0.9238 0.49098 0.3063 0.0
H3 H 0.01589 0.58253 0.34127 0.0
H4 H 0.02283 0.58562 0.31195 0.0
H5 H 0.03052 0.55861 0.36623 0.0
H6 H 0.10187 0.56652 0.34491 0.0
H7 H 0.05578 0.57888 0.29744 0.0
C8 C 0.97258 0.53755 0.33783 0.0
C9 C 0.94787 0.51701 0.33229 0.0
C10 C 0.99252 0.54752 0.32169 0.0
C11 C 0.98724 0.53678 0.29983 0.0
C12 C 0.96253 0.51609 0.29427 0.0
C13 C 0.94323 0.50605 0.31077 0.0
C14 C 0.01783 0.57221 0.32654 0.0
C15 C 0.03975 0.56757 0.33095 0.0
C16 C 0.0439 0.56142 0.35286 0.0
C17 C 0.06617 0.56065 0.35787 0.0
C18 C 0.08395 0.56549 0.34069 0.0
C19 C 0.08063 0.57238 0.31894 0.0
C20 C 0.0582 0.57293 0.31405 0.0
H21 H 0.4461 0.96778 0.51645 0.0
H22 H 0.46655 0.99474 0.44808 0.0
H23 H 0.45853 0.92225 0.46809 0.0
H24 H 0.43867 1.00086 0.50223 0.0
H25 H 0.44293 0.009 0.47315 0.0
H26 H 0.4744 0.02467 0.52943 0.0
H27 H 0.53061 0.10232 0.50896 0.0
H28 H 0.48223 0.0466 0.45928 0.0
C29 C 0.45224 0.96577 0.49981 0.0
C30 C 0.45272 0.94322 0.49446 0.0
C31 C 0.45781 0.98483 0.48328 0.0
C32 C 0.46382 0.98101 0.46121 0.0
C33 C 0.4645 0.95859 0.45574 0.0
C34 C 0.45965 0.94031 0.47262 0.0
C35 C 0.45255 0.00641 0.48804 0.0
C36 C 0.47657 0.03208 0.49353 0.0
C37 C 0.4845 0.0387 0.51614 0.0
C38 C 0.5038 0.06416 0.52176 0.0
C39 C 0.5161 0.08249 0.50462 0.0
C40 C 0.50859 0.07628 0.48216 0.0
C41 C 0.48891 0.05104 0.47655 0.0
H42 H 0.43916 0.47344 0.62402 0.0
H43 H 0.46112 0.4681 0.69202 0.0
H44 H 0.4448 0.52739 0.67458 0.0
H45 H 0.43784 0.4346 0.63611 0.0
H46 H 0.44024 0.42963 0.6653 0.0
H47 H 0.47947 0.46118 0.61313 0.0
H48 H 0.53588 0.44153 0.63149 0.0
H49 H 0.47628 0.4278 0.67832 0.0
C50 C 0.44421 0.48118 0.64096 0.0
C51 C 0.44181 0.5025 0.64711 0.0
C52 C 0.45177 0.46895 0.65695 0.0
C53 C 0.45673 0.47819 0.6793 0.0
C54 C 0.45467 0.4996 0.68548 0.0
C55 C 0.44772 0.5118 0.66928 0.0
C56 C 0.45013 0.44355 0.65124 0.0
C57 C 0.47607 0.44626 0.64697 0.0
C58 C 0.48802 0.45486 0.62574 0.0
C59 C 0.50988 0.45354 0.62024 0.0
C60 C 0.51983 0.44381 0.63612 0.0
C61 C 0.50763 0.43404 0.65685 0.0
C62 C 0.48622 0.43605 0.66257 0.0
H63 H 0.97509 0.44117 0.79774 0.0
H64 H 0.99933 0.46125 0.86676 0.0
H65 H 0.92854 0.45386 0.84434 0.0
H66 H 0.007 0.43266 0.81405 0.0
H67 H 0.01573 0.43941 0.84295 0.0
H68 H 0.02365 0.47306 0.7869 0.0
H69 H 0.10404 0.52659 0.79838 0.0
H70 H 0.05826 0.47302 0.85049 0.0
C71 C 0.97254 0.44727 0.81423 0.0
C72 C 0.95017 0.44806 0.81876 0.0
C73 C 0.99081 0.45272 0.83133 0.0
C74 C 0.98622 0.45861 0.85319 0.0
C75 C 0.96387 0.45934 0.8579 0.0
C76 C 0.94649 0.45482 0.84044 0.0
C77 C 0.01255 0.44767 0.82736 0.0
C78 C 0.0375 0.47165 0.82023 0.0
C79 C 0.04 0.48163 0.79824 0.0
C80 C 0.06395 0.50174 0.79051 0.0
C81 C 0.08538 0.5117 0.80472 0.0
C82 C 0.08375 0.50112 0.82609 0.0
C83 C 0.05957 0.48164 0.83413 0.0
H84 H 0.58106 0.04882 0.01629 0.0
H85 H 0.56038 0.02481 0.94726 0.0
H86 H 0.57051 0.09736 0.96988 0.0
H87 H 0.58775 0.01544 -0.00026 0.0
H88 H 0.57997 0.0061 0.97105 0.0
H89 H 0.55317 0.9972 0.02934 0.0
H90 H 0.49046 0.92046 0.01489 0.0
H91 H 0.53925 0.96848 0.96108 0.0
C92 C 0.57523 0.05174 -0.00017 0.0
C93 C 0.57542 0.07483 0.99534 0.0
C94 C 0.56911 0.03318 0.98269 0.0
C95 C 0.56354 0.03818 0.96087 0.0
C96 C 0.5637 0.06122 0.95626 0.0
C97 C 0.56887 0.07891 0.97374 0.0
C98 C 0.5727 0.01036 0.98669 0.0
C99 C 0.54818 0.98617 0.99415 0.0
C100 C 0.54141 0.98232 0.01714 0.0
C101 C 0.52024 0.95875 0.02452 0.0
C102 C 0.50578 0.93914 0.00883 0.0
C103 C 0.51252 0.9422 0.98597 0.0
C104 C 0.53356 0.96602 0.97864 0.0
H105 H 0.59564 0.54821 0.12778 0.0
H106 H 0.56286 0.54797 0.19241 0.0
H107 H 0.58645 0.49316 0.17848 0.0
H108 H 0.59007 0.58342 0.1373 0.0
H109 H 0.58786 0.58862 0.16647 0.0
H110 H 0.54792 0.55477 0.11517 0.0
H111 H 0.49064 0.57333 0.13317 0.0
H112 H 0.55187 0.59042 0.1793 0.0
C113 C 0.58823 0.53929 0.14406 0.0
C114 C 0.59196 0.51919 0.15134 0.0
C115 C 0.5772 0.54953 0.15867 0.0
C116 C 0.56976 0.53919 0.18057 0.0
C117 C 0.57268 0.51852 0.18758 0.0
C118 C 0.58315 0.50835 0.17269 0.0
C119 C 0.57805 0.57444 0.15256 0.0
C120 C 0.55176 0.57096 0.14851 0.0
C121 C 0.53939 0.5613 0.12761 0.0
C122 C 0.51712 0.56185 0.12212 0.0
C123 C 0.50714 0.5718 0.13778 0.0
C124 C 0.51977 0.58265 0.15816 0.0
C125 C 0.54162 0.58141 0.16384 0.0
Co126 Co 0.6427 0.38122 0.40349 0.0
O127 O 0.66998 0.38449 0.38435 0.0
O128 O 0.6748 0.41271 0.4107 0.0
C129 C 0.62722 0.33896 0.41214 0.0
O130 O 0.6201 0.38472 0.42705 0.0
Co131 Co 0.58504 0.34255 0.39391 0.0
O132 O 0.57856 0.3536 0.42339 0.0
C133 C 0.61357 0.39099 0.36713 0.0
C134 C 0.68524 0.40569 0.39528 0.0
C135 C 0.5965 0.37326 0.43362 0.0
O136 O 0.63325 0.39971 0.38031 0.0
O137 O 0.59388 0.36802 0.36873 0.0
O138 O 0.6465 0.35726 0.42328 0.0
O139 O 0.61872 0.34653 0.39574 0.0
Co140 Co 0.27441 0.63729 0.57533 0.0
O141 O 0.29931 0.63525 0.59415 0.0
O142 O 0.27434 0.60553 0.56922 0.0
C143 C 0.30125 0.67926 0.56506 0.0
O144 O 0.24741 0.63267 0.55218 0.0
Co145 Co 0.25604 0.67607 0.58464 0.0
O146 O 0.23814 0.66423 0.55526 0.0
C147 C 0.23595 0.62835 0.61224 0.0
C148 C 0.29269 0.61353 0.58404 0.0
C149 C 0.23561 0.64418 0.54544 0.0
O150 O 0.24677 0.61955 0.59921 0.0
O151 O 0.2394 0.65117 0.61028 0.0
O152 O 0.30202 0.66063 0.55467 0.0
O153 O 0.28559 0.67214 0.58187 0.0
Co154 Co 0.6469 0.27316 0.73932 0.0
O155 O 0.64385 0.29684 0.71929 0.0
O156 O 0.61606 0.27386 0.74615 0.0
C157 C 0.6891 0.3006 0.74753 0.0
O158 O 0.64324 0.24764 0.76388 0.0
Co159 Co 0.68425 0.25309 0.73099 0.0
O160 O 0.67416 0.23774 0.76147 0.0
C161 C 0.6343 0.22908 0.70664 0.0
C162 C 0.62299 0.29107 0.73023 0.0
C163 C 0.6547 0.23606 0.77133 0.0
O164 O 0.62764 0.24343 0.71729 0.0
O165 O 0.65632 0.23121 0.70894 0.0
O166 O 0.67132 0.30248 0.75804 0.0
O167 O 0.68105 0.28347 0.73169 0.0
Co168 Co 0.38821 0.63719 0.90504 0.0
O169 O 0.36191 0.63521 0.88526 0.0
O170 O 0.35586 0.60528 0.91025 0.0
C171 C 0.40354 0.67892 0.91576 0.0
O172 O 0.40935 0.63207 0.92904 0.0
Co173 Co 0.44655 0.67609 0.89827 0.0
O174 O 0.45099 0.66356 0.92781 0.0
C175 C 0.41959 0.6289 0.86966 0.0
C176 C 0.34611 0.61328 0.89503 0.0
C177 C 0.43249 0.64323 0.93679 0.0
O178 O 0.39887 0.62004 0.88152 0.0
O179 O 0.43947 0.65147 0.87272 0.0
O180 O 0.38327 0.66 0.92538 0.0
O181 O 0.4129 0.67227 0.89936 0.0
Co182 Co 0.75517 0.38029 0.0754 0.0
O183 O 0.73069 0.38295 0.09435 0.0
O184 O 0.7552 0.41184 0.06866 0.0
C185 C 0.7282 0.3381 0.06586 0.0
O186 O 0.78174 0.3844 0.05202 0.0
Co187 Co 0.77388 0.3419 0.08504 0.0
O188 O 0.79157 0.3533 0.05553 0.0
C189 C 0.79389 0.3899 0.11222 0.0
C190 C 0.73722 0.4044 0.08377 0.0
C191 C 0.79369 0.37301 0.0454 0.0
O192 O 0.78317 0.39857 0.09892 0.0
O193 O 0.79037 0.36702 0.11057 0.0
O194 O 0.7272 0.35649 0.05528 0.0
O195 O 0.74415 0.34558 0.08249 0.0
Co196 Co 0.38436 0.74701 0.23986 0.0
O197 O 0.38648 0.72177 0.22131 0.0
O198 O 0.41499 0.74609 0.24724 0.0
C199 C 0.34221 0.72082 0.24882 0.0
O200 O 0.38878 0.77425 0.26288 0.0
Co201 Co 0.34795 0.76752 0.2289 0.0
O202 O 0.35885 0.78529 0.25849 0.0
C203 C 0.39616 0.78666 0.20293 0.0
C204 C 0.40749 0.72792 0.23213 0.0
C205 C 0.37792 0.78689 0.26904 0.0
O206 O 0.40364 0.77504 0.21644 0.0
O207 O 0.37383 0.78403 0.20401 0.0
O208 O 0.35987 0.71925 0.25987 0.0
O209 O 0.35034 0.73681 0.23209 0.0
H210 H 0.10148 0.61795 0.29558 0.0
H211 H 0.14426 0.64155 0.2784 0.0
H212 H 0.15418 0.57662 0.29138 0.0
H213 H 0.11121 0.55272 0.30817 0.0
H214 H 0.18736 0.65395 0.30455 0.0
H215 H 0.18483 0.59954 0.22807 0.0
H216 H 0.15602 0.59558 0.24099 0.0
H217 H 0.17174 0.57982 0.25285 0.0
C218 C 0.1123 0.60826 0.29391 0.0
C219 C 0.10296 0.58346 0.30325 0.0
C220 C 0.13687 0.62188 0.28429 0.0
C221 C 0.15244 0.61087 0.2836 0.0
C222 C 0.14243 0.5854 0.29144 0.0
H223 H 0.31955 0.68795 0.28471 0.0
H224 H 0.27333 0.66113 0.29303 0.0
C225 C 0.11789 0.57178 0.3011 0.0
C226 C 0.18009 0.62712 0.27749 0.0
H227 H 0.22637 0.63144 0.24177 0.0
C228 C 0.19584 0.64911 0.29072 0.0
C229 C 0.19114 0.62074 0.2595 0.0
C230 C 0.17506 0.59776 0.24438 0.0
C231 C 0.22237 0.66468 0.28665 0.0
C232 C 0.23349 0.65804 0.26896 0.0
C233 C 0.21776 0.63631 0.25547 0.0
C234 C 0.26137 0.67394 0.26392 0.0
C235 C 0.23842 0.68825 0.30118 0.0
C236 C 0.26984 0.68993 0.24482 0.0
C237 C 0.29613 0.70539 0.24015 0.0
C238 C 0.31446 0.70494 0.25438 0.0
C239 C 0.30591 0.68877 0.27347 0.0
C240 C 0.27956 0.67344 0.27823 0.0
H241 H 0.22638 0.69273 0.31218 0.0
H242 H 0.25126 0.68478 0.31204 0.0
H243 H 0.25079 0.70546 0.29049 0.0
H244 H 0.25608 0.69059 0.23361 0.0
H245 H 0.30207 0.71755 0.22526 0.0
H246 H 0.48796 0.10555 0.47329 0.0
H247 H 0.50947 0.14838 0.45576 0.0
H248 H 0.57379 0.13974 0.43824 0.0
H249 H 0.55258 0.09719 0.45707 0.0
H250 H 0.5911 0.18378 0.45706 0.0
H251 H 0.52096 0.17658 0.39438 0.0
H252 H 0.50539 0.16678 0.42121 0.0
H253 H 0.51766 0.14822 0.40805 0.0
C254 C 0.50624 0.11243 0.4649 0.0
C255 C 0.51841 0.09795 0.46597 0.0
C256 C 0.51856 0.13693 0.45483 0.0
C257 C 0.54312 0.14728 0.44521 0.0
C258 C 0.55478 0.13218 0.44537 0.0
H259 H 0.60626 0.29967 0.38186 0.0
H260 H 0.58891 0.25349 0.38857 0.0
C261 C 0.54259 0.10777 0.45584 0.0
C262 C 0.55757 0.17482 0.43744 0.0
H263 H 0.55026 0.21989 0.40886 0.0
C264 C 0.58234 0.19156 0.44615 0.0
C265 C 0.54654 0.18513 0.42288 0.0
C266 C 0.5213 0.1681 0.41092 0.0
C267 C 0.59585 0.21834 0.44148 0.0
C268 C 0.58379 0.22899 0.4286 0.0
C269 C 0.55946 0.21204 0.41914 0.0
C270 C 0.59587 0.25748 0.42457 0.0
C271 C 0.62302 0.23469 0.45019 0.0
C272 C 0.60572 0.27541 0.44249 0.0
C273 C 0.61645 0.30204 0.43851 0.0
C274 C 0.61655 0.31108 0.41669 0.0
C275 C 0.60627 0.29318 0.39889 0.0
C276 C 0.59633 0.26674 0.40273 0.0
H277 H 0.6323 0.22296 0.45205 0.0
H278 H 0.63508 0.25129 0.43883 0.0
H279 H 0.62261 0.24232 0.46711 0.0
H280 H 0.60479 0.26885 0.45963 0.0
H281 H 0.62402 0.31546 0.45255 0.0
H282 H 0.39896 0.47557 0.62053 0.0
H283 H 0.37391 0.49241 0.60298 0.0
H284 H 0.43101 0.56993 0.62397 0.0
H285 H 0.45661 0.55343 0.64049 0.0
H286 H 0.3521 0.51376 0.62571 0.0
H287 H 0.41628 0.58552 0.56261 0.0
H288 H 0.42304 0.5622 0.57495 0.0
H289 H 0.43187 0.59203 0.58947 0.0
C290 C 0.4067 0.49634 0.62057 0.0
C291 C 0.42978 0.51313 0.63197 0.0
C292 C 0.3922 0.50593 0.61074 0.0
C293 C 0.40054 0.53251 0.612 0.0
C294 C 0.42431 0.54946 0.62227 0.0
H295 H 0.33556 0.62959 0.60985 0.0
H296 H 0.36034 0.60823 0.61499 0.0
C297 C 0.43886 0.53994 0.63193 0.0
C298 C 0.38322 0.54211 0.60509 0.0
H299 H 0.38185 0.59094 0.57669 0.0
C300 C 0.35846 0.53032 0.61462 0.0
C301 C 0.39143 0.5638 0.59067 0.0
C302 C 0.41701 0.57642 0.57867 0.0
C303 C 0.34223 0.54026 0.61093 0.0
C304 C 0.35092 0.56255 0.59733 0.0
C305 C 0.37531 0.57393 0.58725 0.0
C306 C 0.33541 0.57503 0.59424 0.0
C307 C 0.31628 0.52753 0.6223 0.0
C308 C 0.31309 0.56338 0.5809 0.0
C309 C 0.29888 0.5756 0.57784 0.0
C310 C 0.30668 0.59964 0.58818 0.0
C311 C 0.32891 0.61104 0.60174 0.0
C312 C 0.34318 0.59893 0.60462 0.0
H313 H 0.31359 0.51222 0.6344 0.0
H314 H 0.31387 0.54229 0.6314 0.0
H315 H 0.30092 0.51853 0.60935 0.0
H316 H 0.30685 0.54498 0.57264 0.0
H317 H 0.28193 0.56636 0.56722 0.0
H318 H 0.92153 0.46937 0.80651 0.0
H319 H 0.87846 0.44628 0.78964 0.0
H320 H 0.88506 0.37894 0.77941 0.0
H321 H 0.9281 0.40184 0.79634 0.0
H322 H 0.85676 0.40673 0.74313 0.0
H323 H 0.8239 0.36934 0.83021 0.0
H324 H 0.85187 0.40106 0.82531 0.0
H325 H 0.85328 0.37256 0.81954 0.0
C326 C 0.91414 0.44995 0.79995 0.0
C327 C 0.92816 0.43738 0.80279 0.0
C328 C 0.88956 0.4368 0.79037 0.0
C329 C 0.87861 0.41091 0.78347 0.0
C330 C 0.8933 0.39898 0.7846 0.0
H331 H 0.72892 0.29792 0.72923 0.0
H332 H 0.7748 0.32542 0.73743 0.0
C333 C 0.91795 0.41216 0.79411 0.0
C334 C 0.85085 0.39536 0.77798 0.0
H335 H 0.79227 0.35487 0.80202 0.0
C336 C 0.8426 0.39534 0.75593 0.0
C337 C 0.83252 0.38089 0.79485 0.0
C338 C 0.84061 0.38083 0.81888 0.0
C339 C 0.81631 0.3809 0.75024 0.0
C340 C 0.79795 0.36585 0.76702 0.0
C341 C 0.80631 0.36629 0.78916 0.0
C342 C 0.77002 0.34923 0.76199 0.0
C343 C 0.80841 0.38225 0.72642 0.0
C344 C 0.7519 0.35285 0.77361 0.0
C345 C 0.72554 0.33691 0.76914 0.0
C346 C 0.71683 0.31699 0.75302 0.0
C347 C 0.73499 0.31319 0.74166 0.0
C348 C 0.76128 0.32906 0.74617 0.0
H349 H 0.82339 0.39994 0.71758 0.0
H350 H 0.80561 0.36509 0.71689 0.0
H351 H 0.79004 0.38214 0.7261 0.0
H352 H 0.75818 0.36816 0.78604 0.0
H353 H 0.71204 0.34033 0.77818 0.0
H354 H 0.53528 0.92493 0.95663 0.0
H355 H 0.51572 0.88162 0.93987 0.0
H356 H 0.44191 0.86241 0.96691 0.0
H357 H 0.4611 0.90596 0.9828 0.0
H358 H 0.49554 0.8388 0.96523 0.0
H359 H 0.42043 0.82898 0.90614 0.0
H360 H 0.44532 0.86009 0.91674 0.0
H361 H 0.4172 0.83966 0.93349 0.0
C362 C 0.51468 0.91189 0.95816 0.0
C363 C 0.49977 0.91889 0.97112 0.0
C364 C 0.50355 0.887 0.94878 0.0
C365 C 0.4773 0.86867 0.95207 0.0
C366 C 0.46207 0.87623 0.96374 0.0
H367 H 0.3835 0.69985 0.94441 0.0
H368 H 0.40145 0.74603 0.95324 0.0
C369 C 0.47314 0.90113 0.97299 0.0
C370 C 0.46663 0.84095 0.94586 0.0
H371 H 0.41711 0.78926 0.91842 0.0
C372 C 0.47858 0.8281 0.95475 0.0
C373 C 0.44431 0.82683 0.93239 0.0
C374 C 0.43122 0.83967 0.92147 0.0
C375 C 0.46864 0.80154 0.95086 0.0
C376 C 0.4462 0.78741 0.93766 0.0
C377 C 0.43422 0.80015 0.92868 0.0
C378 C 0.43537 0.75951 0.93253 0.0
C379 C 0.48189 0.78857 0.96124 0.0
C380 C 0.44851 0.75189 0.918 0.0
C381 C 0.43831 0.72566 0.91288 0.0
C382 C 0.41478 0.7065 0.92228 0.0
C383 C 0.40173 0.71415 0.93702 0.0
C384 C 0.41188 0.74049 0.94199 0.0
H385 H 0.49614 0.80095 0.97426 0.0
H386 H 0.46757 0.76974 0.96901 0.0
H387 H 0.49215 0.78452 0.94788 0.0
H388 H 0.46658 0.7663 0.91043 0.0
H389 H 0.44881 0.72043 0.90142 0.0
H390 H 0.58666 0.50094 0.10776 0.0
H391 H 0.61195 0.48418 0.08976 0.0
H392 H 0.65917 0.5038 0.14935 0.0
H393 H 0.63453 0.52078 0.16695 0.0
H394 H 0.68771 0.51626 0.11056 0.0
H395 H 0.60456 0.41466 0.10779 0.0
H396 H 0.60048 0.43866 0.09345 0.0
H397 H 0.60368 0.43986 0.12357 0.0
C398 C 0.60271 0.50197 0.11675 0.0
C399 C 0.60849 0.51186 0.1388 0.0
C400 C 0.61697 0.49221 0.1066 0.0
C401 C 0.63721 0.49232 0.11838 0.0
C402 C 0.64363 0.50336 0.13995 0.0
H403 H 0.70309 0.39637 0.11735 0.0
H404 H 0.67935 0.41868 0.12323 0.0
C405 C 0.62947 0.51299 0.15002 0.0
C406 C 0.6514 0.48023 0.10909 0.0
H407 H 0.64473 0.42152 0.09662 0.0
C408 C 0.6783 0.4956 0.1072 0.0
C409 C 0.63912 0.45319 0.10505 0.0
C410 C 0.6104 0.43549 0.10769 0.0
C411 C 0.69335 0.48462 0.10213 0.0
C412 C 0.68111 0.45752 0.09832 0.0
C413 C 0.65411 0.44228 0.0995 0.0
C414 C 0.69595 0.44434 0.09456 0.0
C415 C 0.72228 0.50199 0.10206 0.0
C416 C 0.71324 0.45127 0.07647 0.0
C417 C 0.72714 0.43876 0.07326 0.0
C418 C 0.72372 0.41877 0.08787 0.0
C419 C 0.70626 0.41174 0.10584 0.0
C420 C 0.69257 0.42441 0.10916 0.0
H421 H 0.72865 0.52071 0.11078 0.0
H422 H 0.73156 0.49232 0.11034 0.0
H423 H 0.72919 0.50641 0.0844 0.0
H424 H 0.71577 0.46614 0.06465 0.0
H425 H 0.74019 0.4444 0.05907 0.0
H426 H 0.47224 0.91248 0.50545 0.0
H427 H 0.44809 0.86847 0.52119 0.0
H428 H 0.38279 0.87738 0.53229 0.0
H429 H 0.40671 0.92127 0.51645 0.0
H430 H 0.41723 0.84533 0.56397 0.0
H431 H 0.36093 0.81687 0.48421 0.0
H432 H 0.39162 0.84668 0.48699 0.0
H433 H 0.36326 0.84412 0.49905 0.0
C434 C 0.453 0.90532 0.51189 0.0
C435 C 0.44133 0.92027 0.50964 0.0
C436 C 0.43923 0.8802 0.52082 0.0
C437 C 0.41355 0.8696 0.52753 0.0
C438 C 0.40255 0.8852 0.52701 0.0
H439 H 0.3049 0.72102 0.58663 0.0
H440 H 0.33314 0.76697 0.57762 0.0
C441 C 0.41634 0.91037 0.51819 0.0
C442 C 0.39752 0.84153 0.53278 0.0
H443 H 0.3483 0.78432 0.51193 0.0
C444 C 0.40213 0.83196 0.55266 0.0
C445 C 0.3782 0.82411 0.51772 0.0
C446 C 0.37321 0.83329 0.49568 0.0
C447 C 0.38743 0.80541 0.55813 0.0
C448 C 0.36761 0.78812 0.54337 0.0
C449 C 0.36342 0.79764 0.52326 0.0
C450 C 0.3506 0.76016 0.54873 0.0
C451 C 0.39335 0.79598 0.57955 0.0
C452 C 0.35059 0.74103 0.53511 0.0
C453 C 0.3344 0.71463 0.54021 0.0
C454 C 0.31777 0.70699 0.55886 0.0
C455 C 0.31752 0.72624 0.57217 0.0
C456 C 0.33378 0.75254 0.56716 0.0
H457 H 0.41271 0.81029 0.58624 0.0
H458 H 0.37886 0.79284 0.59254 0.0
H459 H 0.39235 0.77721 0.57672 0.0
H460 H 0.3633 0.74654 0.52069 0.0
H461 H 0.335 0.70026 0.52963 0.0
H462 H 0.52444 0.43989 0.70091 0.0
H463 H 0.54125 0.41508 0.71994 0.0
H464 H 0.52433 0.36732 0.66071 0.0
H465 H 0.50737 0.39153 0.64206 0.0
H466 H 0.51125 0.33876 0.6999 0.0
H467 H 0.61126 0.42383 0.70372 0.0
H468 H 0.58674 0.4275 0.71717 0.0
H469 H 0.58644 0.42405 0.68711 0.0
C470 C 0.524 0.42381 0.69223 0.0
C471 C 0.51485 0.41773 0.66999 0.0
C472 C 0.53379 0.40983 0.70297 0.0
C473 C 0.53444 0.38959 0.6916 0.0
C474 C 0.52414 0.38286 0.66981 0.0
H475 H 0.63089 0.32477 0.69594 0.0
H476 H 0.60849 0.34828 0.68913 0.0
C477 C 0.51451 0.39675 0.65915 0.0
C478 C 0.54659 0.37573 0.70153 0.0
H479 H 0.60495 0.38359 0.71527 0.0
C480 C 0.53168 0.34857 0.70358 0.0
C481 C 0.57332 0.38854 0.706 0.0
C482 C 0.59052 0.41756 0.70328 0.0
C483 C 0.54283 0.3338 0.70923 0.0
C484 C 0.56963 0.34657 0.71343 0.0
C485 C 0.58441 0.37381 0.71209 0.0
C486 C 0.58299 0.33199 0.71781 0.0
C487 C 0.526 0.30456 0.70951 0.0
C488 C 0.57619 0.31499 0.73623 0.0
C489 C 0.58879 0.30125 0.74 0.0
C490 C 0.60869 0.30452 0.7256 0.0
C491 C 0.61559 0.32171 0.70729 0.0
C492 C 0.60286 0.33527 0.70344 0.0
H493 H 0.50747 0.29774 0.70061 0.0
H494 H 0.53594 0.29539 0.70154 0.0
H495 H 0.52155 0.29776 0.72722 0.0
H496 H 0.56133 0.31253 0.74784 0.0
H497 H 0.58322 0.28841 0.75442 0.0
H498 H 0.09731 0.51666 0.87031 0.0
H499 H 0.13982 0.53261 0.88777 0.0
H500 H 0.16735 0.51808 0.82573 0.0
H501 H 0.12525 0.50167 0.80867 0.0
H502 H 0.18351 0.50306 0.86229 0.0
H503 H 0.20296 0.60361 0.87336 0.0
H504 H 0.17453 0.57829 0.88693 0.0
H505 H 0.17639 0.57962 0.85672 0.0
C506 C 0.11241 0.5166 0.86061 0.0
C507 C 0.10812 0.50834 0.83804 0.0
C508 C 0.13672 0.52593 0.87048 0.0
C509 C 0.15696 0.52702 0.8579 0.0
C510 C 0.15217 0.51761 0.83575 0.0
H511 H 0.32112 0.62393 0.86233 0.0
H512 H 0.27477 0.60184 0.85541 0.0
C513 C 0.1281 0.50836 0.82597 0.0
C514 C 0.1835 0.53856 0.86707 0.0
H515 H 0.23623 0.59618 0.88293 0.0
C516 C 0.19497 0.52335 0.86708 0.0
C517 C 0.19854 0.56515 0.87298 0.0
C518 C 0.18765 0.58276 0.87238 0.0
C519 C 0.22119 0.5341 0.87217 0.0
C520 C 0.23629 0.56072 0.87794 0.0
C521 C 0.22464 0.57577 0.87855 0.0
C522 C 0.26447 0.57369 0.88218 0.0
C523 C 0.23271 0.5171 0.87023 0.0
C524 C 0.27421 0.56526 0.89953 0.0
C525 C 0.30077 0.57768 0.90335 0.0
C526 C 0.31812 0.59903 0.89008 0.0
C527 C 0.30832 0.60749 0.87279 0.0
C528 C 0.28179 0.59495 0.86889 0.0
H529 H 0.22028 0.49927 0.86024 0.0
H530 H 0.25201 0.52779 0.86223 0.0
H531 H 0.23489 0.51101 0.88733 0.0
H532 H 0.26125 0.54927 0.91033 0.0
H533 H 0.30767 0.57087 0.91698 0.0
H534 H 0.55595 0.10492 0.00847 0.0
H535 H 0.58042 0.14854 0.02493 0.0
H536 H 0.64614 0.13969 0.03296 0.0
H537 H 0.6218 0.09607 0.01653 0.0
H538 H 0.61671 0.17065 0.06893 0.0
H539 H 0.66107 0.20099 0.98376 0.0
H540 H 0.62995 0.17209 0.9881 0.0
H541 H 0.6586 0.1724 0.99615 0.0
C542 C 0.57531 0.11194 0.0145 0.0
C543 C 0.58698 0.09712 0.01121 0.0
C544 C 0.58926 0.13685 0.02383 0.0
C545 C 0.61511 0.14734 0.02991 0.0
C546 C 0.62618 0.13185 0.02834 0.0
H547 H 0.72788 0.29698 0.08561 0.0
H548 H 0.69975 0.25086 0.07718 0.0
C549 C 0.61219 0.10686 0.01914 0.0
C550 C 0.63131 0.17536 0.03516 0.0
H551 H 0.67589 0.23333 0.01172 0.0
C552 C 0.62971 0.1844 0.0565 0.0
C553 C 0.64784 0.1932 0.01872 0.0
C554 C 0.64953 0.18439 0.99531 0.0
C555 C 0.64464 0.21094 0.06196 0.0
C556 C 0.66174 0.22875 0.04568 0.0
C557 C 0.6629 0.21966 0.0242 0.0
C558 C 0.67885 0.25684 0.05067 0.0
C559 C 0.64172 0.21976 0.08498 0.0
C560 C 0.67704 0.27564 0.03806 0.0
C561 C 0.69328 0.30213 0.04273 0.0
C562 C 0.71172 0.31026 0.06 0.0
C563 C 0.71379 0.29138 0.07227 0.0
C564 C 0.69758 0.26497 0.06761 0.0
H565 H 0.62329 0.20527 0.09309 0.0
H566 H 0.65769 0.22232 0.09595 0.0
H567 H 0.64257 0.23864 0.084 0.0
H568 H 0.66286 0.26979 0.02477 0.0
H569 H 0.69123 0.3162 0.03298 0.0
H570 H 0.50847 0.58086 0.2035 0.0
H571 H 0.4927 0.60633 0.22298 0.0
H572 H 0.49856 0.64635 0.16089 0.0
H573 H 0.51452 0.6216 0.14174 0.0
H574 H 0.51729 0.67938 0.19793 0.0
H575 H 0.41953 0.59384 0.2138 0.0
H576 H 0.44649 0.5923 0.22447 0.0
H577 H 0.4419 0.59248 0.19461 0.0
C578 C 0.5066 0.59531 0.19419 0.0
C579 C 0.51233 0.59899 0.17106 0.0
C580 C 0.49744 0.60968 0.20524 0.0
C581 C 0.49409 0.62799 0.19329 0.0
C582 C 0.50085 0.6323 0.17045 0.0
H583 H 0.39706 0.69097 0.20031 0.0
H584 H 0.41931 0.66726 0.19398 0.0
C585 C 0.50984 0.61802 0.15949 0.0
C586 C 0.4829 0.64242 0.20385 0.0
H587 H 0.42613 0.63493 0.2225 0.0
C588 C 0.49748 0.66969 0.20367 0.0
C589 C 0.45695 0.62971 0.21105 0.0
C590 C 0.44013 0.60048 0.21093 0.0
C591 C 0.48658 0.68461 0.20964 0.0
C592 C 0.46047 0.67191 0.21638 0.0
C593 C 0.44615 0.64464 0.21737 0.0
C594 C 0.44708 0.68643 0.22072 0.0
C595 C 0.50274 0.71379 0.20748 0.0
C596 C 0.45522 0.7051 0.23792 0.0
C597 C 0.44264 0.7189 0.24146 0.0
C598 C 0.42152 0.7141 0.228 0.0
C599 C 0.41331 0.69524 0.21093 0.0
C600 C 0.42594 0.68156 0.20735 0.0
H601 H 0.52048 0.72006 0.19747 0.0
H602 H 0.4916 0.72161 0.1994 0.0
H603 H 0.5086 0.72251 0.22451 0.0
H604 H 0.47118 0.70887 0.24872 0.0
H605 H 0.44928 0.73311 0.2549 0.0
H606 H 0.91939 0.53955 0.33328 0.0
H607 H 0.87669 0.52198 0.34977 0.0
H608 H 0.88231 0.45961 0.37977 0.0
H609 H 0.92474 0.47668 0.36211 0.0
H610 H 0.83919 0.44018 0.35981 0.0
H611 H 0.84816 0.52182 0.40937 0.0
H612 H 0.85842 0.53244 0.38108 0.0
H613 H 0.87593 0.52196 0.3983 0.0
C614 C 0.91181 0.52259 0.34405 0.0
C615 C 0.92544 0.50973 0.3469 0.0
C616 C 0.8874 0.51257 0.35356 0.0
C617 C 0.87628 0.48969 0.36649 0.0
C618 C 0.89046 0.47739 0.37006 0.0
H619 H 0.72347 0.43488 0.42541 0.0
H620 H 0.76991 0.45413 0.42011 0.0
C621 C 0.91478 0.48723 0.36019 0.0
C622 C 0.8489 0.47721 0.37393 0.0
H623 H 0.805 0.49032 0.39659 0.0
C624 C 0.83185 0.45108 0.36821 0.0
C625 C 0.83913 0.49107 0.3853 0.0
C626 C 0.85649 0.51827 0.39408 0.0
C627 C 0.80534 0.43883 0.37266 0.0
C628 C 0.79525 0.45342 0.38215 0.0
C629 C 0.81245 0.47919 0.3888 0.0
C630 C 0.76702 0.44237 0.3852 0.0
C631 C 0.78863 0.41026 0.36736 0.0
C632 C 0.7498 0.42994 0.36725 0.0
C633 C 0.72325 0.41838 0.37044 0.0
C634 C 0.71337 0.41988 0.39141 0.0
C635 C 0.73058 0.43353 0.40903 0.0
C636 C 0.75713 0.44448 0.40601 0.0
H637 H 0.79984 0.40036 0.36826 0.0
H638 H 0.7721 0.40036 0.37914 0.0
H639 H 0.78117 0.4079 0.34992 0.0
H640 H 0.75685 0.42895 0.35075 0.0
H641 H 0.71042 0.40824 0.35648 0.0
H642 H 0.06896 0.59111 0.39301 0.0
H643 H 0.09392 0.59903 0.42761 0.0
H644 H 0.10718 0.5372 0.41013 0.0
H645 H 0.08265 0.52958 0.37524 0.0
H646 H 0.09445 0.57131 0.46512 0.0
H647 H 0.17962 0.60082 0.41041 0.0
H648 H 0.1493 0.59479 0.39941 0.0
H649 H 0.15354 0.56809 0.4063 0.0
C650 C 0.07641 0.57859 0.39695 0.0
C651 C 0.07401 0.55983 0.3814 0.0
C652 C 0.09085 0.58327 0.41664 0.0
C653 C 0.10304 0.56921 0.42111 0.0
C654 C 0.09852 0.54874 0.40671 0.0
H655 H 0.22358 0.60112 0.51993 0.0
H656 H 0.19067 0.581 0.49051 0.0
C657 C 0.08428 0.54422 0.38692 0.0
C658 C 0.12228 0.57763 0.43957 0.0
H659 H 0.18648 0.60321 0.44959 0.0
C660 C 0.11454 0.57816 0.46175 0.0
C661 C 0.14857 0.58668 0.43513 0.0
C662 C 0.15839 0.58784 0.41152 0.0
C663 C 0.13235 0.58753 0.47959 0.0
C664 C 0.15864 0.59697 0.47506 0.0
C665 C 0.1663 0.59591 0.453 0.0
C666 C 0.1787 0.60919 0.49278 0.0
C667 C 0.12287 0.58723 0.50315 0.0
C668 C 0.18335 0.63208 0.50337 0.0
C669 C 0.20221 0.64373 0.52005 0.0
C670 C 0.21694 0.63276 0.52651 0.0
C671 C 0.21263 0.61011 0.51545 0.0
C672 C 0.19377 0.59852 0.49868 0.0
H673 H 0.10187 0.57322 0.50475 0.0
H674 H 0.13319 0.58215 0.51567 0.0
H675 H 0.12651 0.60685 0.50732 0.0
H676 H 0.17237 0.64099 0.4987 0.0
H677 H 0.20499 0.66119 0.52806 0.0
H678 H 0.49769 0.1016 0.54036 0.0
H679 H 0.5145 0.12349 0.57643 0.0
H680 H 0.53962 0.06995 0.59238 0.0
H681 H 0.52291 0.04803 0.55588 0.0
H682 H 0.50775 0.10817 0.62266 0.0
H683 H 0.60647 0.1422 0.59062 0.0
H684 H 0.5786 0.12745 0.5725 0.0
H685 H 0.58467 0.10764 0.59112 0.0
C686 C 0.50634 0.09418 0.5518 0.0
C687 C 0.50929 0.07334 0.54536 0.0
C688 C 0.51587 0.10665 0.57239 0.0
C689 C 0.52866 0.09862 0.58691 0.0
C690 C 0.53009 0.07664 0.58124 0.0
H691 H 0.63227 0.18407 0.69653 0.0
H692 H 0.60417 0.15068 0.66982 0.0
C693 C 0.52042 0.06403 0.56054 0.0
C694 C 0.54258 0.11501 0.60666 0.0
H695 H 0.60311 0.15725 0.62608 0.0
C696 C 0.5286 0.11873 0.62359 0.0
C697 C 0.56977 0.129 0.60764 0.0
C698 C 0.58587 0.12663 0.58946 0.0
C699 C 0.54112 0.13596 0.6416 0.0
C700 C 0.56835 0.15027 0.64236 0.0
C701 C 0.58224 0.14628 0.62552 0.0
C702 C 0.58316 0.16943 0.6604 0.0
C703 C 0.52506 0.13843 0.65971 0.0
C704 C 0.58052 0.19105 0.66435 0.0
C705 C 0.59649 0.2102 0.67996 0.0
C706 C 0.61572 0.20828 0.69143 0.0
C707 C 0.61789 0.18635 0.68774 0.0
C708 C 0.60176 0.16715 0.6725 0.0
H709 H 0.50532 0.12106 0.66029 0.0
H710 H 0.53408 0.14115 0.67655 0.0
H711 H 0.5233 0.15557 0.65607 0.0
H712 H 0.56671 0.19358 0.65486 0.0
H713 H 0.59445 0.22692 0.6824 0.0
H714 H 0.48858 0.54617 0.70422 0.0
H715 H 0.4825 0.56368 0.73937 0.0
H716 H 0.41496 0.48934 0.754 0.0
H717 H 0.42161 0.47164 0.71918 0.0
H718 H 0.44019 0.56698 0.74426 0.0
H719 H 0.44595 0.51117 0.81623 0.0
H720 H 0.45828 0.51081 0.78862 0.0
H721 H 0.42434 0.49141 0.79426 0.0
C722 C 0.47318 0.53331 0.71551 0.0
C723 C 0.45576 0.50752 0.70924 0.0
C724 C 0.46955 0.54334 0.73547 0.0
C725 C 0.44828 0.52784 0.7494 0.0
C726 C 0.4318 0.50155 0.74385 0.0
H727 H 0.38373 0.57824 0.85787 0.0
H728 H 0.38828 0.5516 0.82885 0.0
C729 C 0.43564 0.49141 0.72397 0.0
C730 C 0.44148 0.54022 0.76764 0.0
H731 H 0.43018 0.53931 0.82419 0.0
C732 C 0.43809 0.56091 0.76173 0.0
C733 C 0.43823 0.53204 0.7904 0.0
C734 C 0.44209 0.51028 0.79786 0.0
C735 C 0.43204 0.57393 0.77791 0.0
C736 C 0.4295 0.56626 0.80072 0.0
C737 C 0.43208 0.54508 0.80665 0.0
C738 C 0.42651 0.58163 0.8187 0.0
C739 C 0.42859 0.59598 0.77047 0.0
C740 C 0.44653 0.60713 0.82267 0.0
C741 C 0.44402 0.62232 0.83901 0.0
C742 C 0.42138 0.61235 0.85197 0.0
C743 C 0.40134 0.5866 0.84814 0.0
C744 C 0.40394 0.57132 0.83166 0.0
H745 H 0.42431 0.59494 0.75217 0.0
H746 H 0.41282 0.59597 0.78001 0.0
H747 H 0.44664 0.61471 0.77374 0.0
H748 H 0.46422 0.61535 0.81304 0.0
H749 H 0.45999 0.64195 0.84146 0.0
H750 H 0.9615 0.42907 0.89308 0.0
H751 H 0.93607 0.42036 0.92748 0.0
H752 H 0.92069 0.48068 0.90972 0.0
H753 H 0.94583 0.4892 0.87509 0.0
H754 H 0.93453 0.44804 0.96492 0.0
H755 H 0.84909 0.41527 0.90974 0.0
H756 H 0.87981 0.42216 0.89898 0.0
H757 H 0.87453 0.44828 0.90547 0.0
C758 C 0.95349 0.44111 0.89691 0.0
C759 C 0.9555 0.4597 0.88134 0.0
C760 C 0.93877 0.43597 0.91649 0.0
C761 C 0.92588 0.44937 0.92083 0.0
C762 C 0.92992 0.46966 0.9064 0.0
H763 H 0.8043 0.41505 0.01904 0.0
H764 H 0.83693 0.43525 0.98943 0.0
C765 C 0.94449 0.47469 0.88676 0.0
C766 C 0.90649 0.44045 0.93919 0.0
H767 H 0.84197 0.41289 0.94889 0.0
C768 C 0.91432 0.44047 0.96144 0.0
C769 C 0.88006 0.43047 0.9346 0.0
C770 C 0.87024 0.42877 0.9109 0.0
C771 C 0.89644 0.43076 0.97922 0.0
C772 C 0.87001 0.42039 0.97455 0.0
C773 C 0.86225 0.42087 0.9524 0.0
C774 C 0.84998 0.40797 0.99228 0.0
C775 C 0.90599 0.43173 0.00288 0.0
C776 C 0.84602 0.38552 0.00326 0.0
C777 C 0.82732 0.37382 0.02007 0.0
C778 C 0.81209 0.3843 0.02627 0.0
C779 C 0.81568 0.40646 0.01479 0.0
C780 C 0.83437 0.41809 0.99789 0.0
H781 H 0.92688 0.44624 0.00448 0.0
H782 H 0.89528 0.43657 0.01518 0.0
H783 H 0.90292 0.4124 0.00736 0.0
H784 H 0.85745 0.37704 0.99882 0.0
H785 H 0.8251 0.35675 0.02841 0.0
H786 H 0.55256 0.95778 0.05576 0.0
H787 H 0.53952 0.93351 0.09141 0.0
H788 H 0.46255 0.91877 0.08257 0.0
H789 H 0.4754 0.94271 0.0469 0.0
H790 H 0.49188 0.93111 0.13268 0.0
H791 H 0.47999 0.84962 0.07859 0.0
H792 H 0.50771 0.88184 0.07526 0.0
H793 H 0.47658 0.87542 0.06687 0.0
C794 C 0.53319 0.95036 0.06198 0.0
C795 C 0.51496 0.95214 0.04871 0.0
C796 C 0.52574 0.93638 0.08222 0.0
C797 C 0.50008 0.92431 0.08947 0.0
C798 C 0.48247 0.92807 0.07726 0.0
H799 H 0.38432 0.80492 0.16571 0.0
H800 H 0.41379 0.8388 0.13987 0.0
C801 C 0.48982 0.9418 0.05697 0.0
C802 C 0.49047 0.90459 0.10757 0.0
H803 H 0.46376 0.83933 0.11549 0.0
C804 C 0.48624 0.91115 0.12915 0.0
C805 C 0.48299 0.87857 0.10274 0.0
C806 C 0.48694 0.8707 0.07964 0.0
C807 C 0.47386 0.89202 0.14585 0.0
C808 C 0.46545 0.86586 0.14069 0.0
C809 C 0.47052 0.85949 0.11939 0.0
C810 C 0.44825 0.84453 0.15606 0.0
C811 C 0.46865 0.89951 0.1686 0.0
C812 C 0.45801 0.83618 0.17342 0.0
C813 C 0.44113 0.81655 0.18827 0.0
C814 C 0.41432 0.80523 0.18599 0.0
C815 C 0.40482 0.8133 0.1681 0.0
C816 C 0.42161 0.83268 0.15329 0.0
H817 H 0.47767 0.92087 0.17044 0.0
H818 H 0.44755 0.8902 0.1711 0.0
H819 H 0.47607 0.89227 0.18208 0.0
H820 H 0.47859 0.84512 0.17569 0.0
H821 H 0.44907 0.81088 0.20191 0.0
H822 H 0.59904 0.54765 0.22388 0.0
H823 H 0.60639 0.53059 0.25884 0.0
H824 H 0.5485 0.45294 0.23904 0.0
H825 H 0.54138 0.46988 0.20402 0.0
H826 H 0.57447 0.49325 0.29619 0.0
H827 H 0.62043 0.45761 0.23698 0.0
H828 H 0.61256 0.48173 0.2291 0.0
H829 H 0.58785 0.44797 0.23004 0.0
C830 C 0.58701 0.52711 0.22756 0.0
C831 C 0.56963 0.51003 0.21134 0.0
C832 C 0.59137 0.51737 0.24743 0.0
C833 C 0.57834 0.49049 0.25125 0.0
C834 C 0.55893 0.47374 0.23625 0.0
H835 H 0.58196 0.37627 0.33069 0.0
H836 H 0.57657 0.40374 0.30392 0.0
C837 C 0.55469 0.48342 0.21637 0.0
C838 C 0.58751 0.47956 0.26875 0.0
H839 H 0.61506 0.44263 0.27472 0.0
C840 C 0.5836 0.48242 0.2916 0.0
C841 C 0.59978 0.46579 0.26263 0.0
C842 C 0.60567 0.46324 0.23837 0.0
C843 C 0.59042 0.47058 0.30848 0.0
C844 C 0.60165 0.45587 0.30224 0.0
C845 C 0.60645 0.45393 0.27944 0.0
C846 C 0.60595 0.43992 0.31868 0.0
C847 C 0.58453 0.47284 0.33277 0.0
C848 C 0.62475 0.45119 0.33564 0.0
C849 C 0.62805 0.43542 0.35107 0.0
C850 C 0.61247 0.40818 0.34978 0.0
C851 C 0.59418 0.39715 0.33236 0.0
C852 C 0.59103 0.41282 0.31699 0.0
H853 H 0.573 0.48231 0.33455 0.0
H854 H 0.57386 0.45331 0.3407 0.0
H855 H 0.60283 0.48452 0.34216 0.0
H856 H 0.63674 0.47211 0.33698 0.0
H857 H 0.64227 0.44452 0.3643 0.0
H858 H 0.49395 0.94068 0.43779 0.0
H859 H 0.48557 0.91635 0.40259 0.0
H860 H 0.42629 0.93299 0.38587 0.0
H861 H 0.43487 0.95758 0.42083 0.0
H862 H 0.43959 0.87272 0.39597 0.0
H863 H 0.45876 0.93993 0.32489 0.0
H864 H 0.47112 0.95127 0.35289 0.0
H865 H 0.43849 0.94168 0.34595 0.0
C866 C 0.47984 0.93997 0.42615 0.0
C867 C 0.4651 0.95106 0.43202 0.0
C868 C 0.47497 0.92596 0.40611 0.0
C869 C 0.45532 0.92283 0.39153 0.0
C870 C 0.44189 0.93553 0.39657 0.0
H871 H 0.36089 0.81744 0.28698 0.0
H872 H 0.38102 0.85015 0.31657 0.0
C873 C 0.44686 0.94968 0.41657 0.0
C874 C 0.44638 0.90341 0.37301 0.0
H875 H 0.4314 0.89439 0.31699 0.0
C876 C 0.43818 0.87754 0.37863 0.0
C877 C 0.44434 0.90964 0.35043 0.0
C878 C 0.45388 0.93719 0.34312 0.0
C879 C 0.42719 0.85764 0.36248 0.0
C880 C 0.42463 0.86378 0.34001 0.0
C881 C 0.43327 0.8897 0.33426 0.0
C882 C 0.41237 0.84347 0.32236 0.0
C883 C 0.41754 0.83005 0.3698 0.0
C884 C 0.42326 0.82875 0.31582 0.0
C885 C 0.41172 0.80988 0.29895 0.0
C886 C 0.38913 0.80547 0.28815 0.0
C887 C 0.37821 0.82018 0.29491 0.0
C888 C 0.38975 0.83901 0.31177 0.0
H889 H 0.41555 0.82784 0.3884 0.0
H890 H 0.39861 0.81645 0.36198 0.0
H891 H 0.43141 0.82432 0.3643 0.0
H892 H 0.44092 0.83212 0.32354 0.0
H893 H 0.42082 0.79911 0.2941 0.0
H894 H 0.48284 0.42803 0.58286 0.0
H895 H 0.50096 0.42151 0.54837 0.0
H896 H 0.57731 0.47878 0.57068 0.0
H897 H 0.55924 0.48476 0.60552 0.0
H898 H 0.53284 0.44968 0.51287 0.0
H899 H 0.58061 0.41302 0.56902 0.0
H900 H 0.55713 0.42045 0.57926 0.0
H901 H 0.58967 0.44614 0.57396 0.0
C902 C 0.50338 0.43998 0.57997 0.0
C903 C 0.51967 0.45683 0.59685 0.0
C904 C 0.51376 0.43608 0.56035 0.0
C905 C 0.54055 0.44905 0.55729 0.0
C906 C 0.55663 0.46802 0.57299 0.0
H907 H 0.62874 0.41474 0.46056 0.0
H908 H 0.61661 0.43511 0.48992 0.0
C909 C 0.54629 0.47171 0.59272 0.0
C910 C 0.55153 0.44064 0.53908 0.0
H911 H 0.58704 0.41198 0.53006 0.0
C912 C 0.54482 0.44159 0.51661 0.0
C913 C 0.56707 0.42991 0.54399 0.0
C914 C 0.5739 0.42705 0.56785 0.0
C915 C 0.5531 0.43202 0.49897 0.0
C916 C 0.56822 0.42092 0.50396 0.0
C917 C 0.57548 0.42055 0.52631 0.0
C918 C 0.57565 0.40843 0.48636 0.0
C919 C 0.54559 0.43382 0.47511 0.0
C920 C 0.55669 0.38625 0.47508 0.0
C921 C 0.56351 0.37442 0.45844 0.0
C922 C 0.58952 0.38453 0.45269 0.0
C923 C 0.60854 0.40643 0.46447 0.0
C924 C 0.60166 0.41817 0.48122 0.0
H925 H 0.5399 0.44861 0.47346 0.0
H926 H 0.56166 0.43874 0.46327 0.0
H927 H 0.52892 0.41474 0.47005 0.0
H928 H 0.53653 0.37807 0.47915 0.0
H929 H 0.54831 0.35758 0.44984 0.0
H930 H 0.05979 0.47227 0.75428 0.0
H931 H 0.08427 0.48914 0.71915 0.0
H932 H 0.10571 0.56687 0.73867 0.0
H933 H 0.08154 0.55012 0.77383 0.0
H934 H 0.0911 0.52846 0.68158 0.0
H935 H 0.17223 0.5595 0.7416 0.0
H936 H 0.13944 0.5353 0.74865 0.0
H937 H 0.14957 0.56915 0.74891 0.0
C938 C 0.06859 0.49276 0.75047 0.0
C939 C 0.0688 0.50994 0.76666 0.0
C940 C 0.08273 0.5024 0.73051 0.0
C941 C 0.09709 0.52926 0.72657 0.0
C942 C 0.09484 0.54608 0.74151 0.0
H943 H 0.22044 0.64331 0.64925 0.0
H944 H 0.18645 0.616 0.67573 0.0
C945 C 0.08087 0.5365 0.76148 0.0
C946 C 0.11766 0.54013 0.70929 0.0
H947 H 0.1831 0.57517 0.70418 0.0
C948 C 0.11122 0.53842 0.6864 0.0
C949 C 0.14386 0.5528 0.71572 0.0
C950 C 0.15182 0.55417 0.74003 0.0
C951 C 0.13049 0.55032 0.66981 0.0
C952 C 0.15668 0.5639 0.67639 0.0
C953 C 0.16301 0.56471 0.69921 0.0
C954 C 0.17776 0.57976 0.66032 0.0
C955 C 0.1228 0.54933 0.64551 0.0
C956 C 0.18463 0.56836 0.64315 0.0
C957 C 0.20436 0.58402 0.62794 0.0
C958 C 0.21732 0.61127 0.62964 0.0
C959 C 0.21077 0.62242 0.64731 0.0
C960 C 0.19131 0.60684 0.66249 0.0
H961 H 0.1017 0.54066 0.64353 0.0
H962 H 0.13282 0.56918 0.63817 0.0
H963 H 0.12868 0.5375 0.63572 0.0
H964 H 0.17462 0.54743 0.64143 0.0
H965 H 0.20888 0.57484 0.61448 0.0
H966 H 0.59401 0.06374 0.92138 0.0
H967 H 0.60363 0.09029 0.88741 0.0
H968 H 0.54393 0.10608 0.90475 0.0
H969 H 0.5346 0.07993 0.93902 0.0
H970 H 0.57794 0.09343 0.84978 0.0
H971 H 0.60868 0.17795 0.90671 0.0
H972 H 0.60121 0.14655 0.91694 0.0
H973 H 0.57575 0.15237 0.90993 0.0
C974 C 0.5823 0.07208 0.91751 0.0
C975 C 0.56367 0.06992 0.93288 0.0
C976 C 0.58796 0.08744 0.89819 0.0
C977 C 0.57502 0.10079 0.89392 0.0
C978 C 0.55462 0.09651 0.90805 0.0
H979 H 0.61226 0.22524 0.79659 0.0
H980 H 0.59138 0.19209 0.82594 0.0
C981 C 0.54911 0.08136 0.92747 0.0
C982 C 0.58452 0.12092 0.87601 0.0
H983 H 0.6124 0.18635 0.86771 0.0
C984 C 0.58535 0.11371 0.85368 0.0
C985 C 0.59434 0.14746 0.88115 0.0
C986 C 0.59522 0.15668 0.90499 0.0
C987 C 0.59575 0.13231 0.83637 0.0
C988 C 0.60589 0.15883 0.84159 0.0
C989 C 0.60457 0.16599 0.86379 0.0
C990 C 0.61898 0.17954 0.82441 0.0
C991 C 0.59582 0.12346 0.8126 0.0
C992 C 0.64185 0.18401 0.81438 0.0
C993 C 0.65395 0.20303 0.79776 0.0
C994 C 0.64341 0.21802 0.79079 0.0
C995 C 0.62091 0.21407 0.80147 0.0
C996 C 0.60889 0.19507 0.8182 0.0
H997 H 0.58172 0.10238 0.81042 0.0
H998 H 0.59131 0.1345 0.80032 0.0
H999 H 0.61525 0.12697 0.8086 0.0
H1000 H 0.65027 0.17262 0.8193 0.0
H1001 H 0.67127 0.20553 0.79004 0.0
H1002 H 0.46738 0.53059 0.10832 0.0
H1003 H 0.44897 0.53505 0.07308 0.0
H1004 H 0.52527 0.59044 0.04917 0.0
H1005 H 0.54362 0.58543 0.08401 0.0
H1006 H 0.45269 0.57955 0.06324 0.0
H1007 H 0.49307 0.55358 0.99159 0.0
H1008 H 0.49454 0.54405 0.02014 0.0
H1009 H 0.51813 0.57594 0.01006 0.0
C1010 C 0.48023 0.54276 0.09505 0.0
C1011 C 0.50693 0.55756 0.09881 0.0
C1012 C 0.46971 0.54546 0.075 0.0
C1013 C 0.48568 0.56307 0.05838 0.0
C1014 C 0.51251 0.57629 0.06142 0.0
H1015 H 0.4794 0.65913 0.95604 0.0
H1016 H 0.48961 0.63717 0.98518 0.0
C1017 C 0.52305 0.57338 0.08138 0.0
C1018 C 0.4744 0.57079 0.03987 0.0
H1019 H 0.47862 0.58359 0.98343 0.0
C1020 C 0.45795 0.57991 0.04572 0.0
C1021 C 0.48129 0.57139 0.01699 0.0
C1022 C 0.49752 0.56045 0.00931 0.0
C1023 C 0.44926 0.59073 0.02957 0.0
C1024 C 0.4571 0.59238 0.00692 0.0
C1025 C 0.47281 0.58248 0.00087 0.0
C1026 C 0.45036 0.60559 0.9895 0.0
C1027 C 0.43269 0.60139 0.03701 0.0
C1028 C 0.42482 0.59518 0.98237 0.0
C1029 C 0.41884 0.60772 0.96568 0.0
C1030 C 0.43832 0.63091 0.95578 0.0
C1031 C 0.46385 0.64138 0.96326 0.0
C1032 C 0.46978 0.62879 0.97986 0.0
H1033 H 0.43183 0.60247 0.05565 0.0
H1034 H 0.44007 0.6211 0.0299 0.0
H1035 H 0.4128 0.58861 0.03065 0.0
H1036 H 0.40957 0.57716 0.98949 0.0
H1037 H 0.39901 0.59899 0.96029 0.0
H1038 H 0.93827 0.4664 0.27865 0.0
H1039 H 0.91608 0.45085 0.24253 0.0
H1040 H 0.94587 0.52992 0.22111 0.0
H1041 H 0.96816 0.54558 0.25737 0.0
H1042 H 0.89148 0.49791 0.21976 0.0
H1043 H 0.93759 0.45047 0.17682 0.0
H1044 H 0.93001 0.441 0.2058 0.0
H1045 H 0.95335 0.4742 0.19895 0.0
C1046 C 0.94079 0.48046 0.26592 0.0
C1047 C 0.95503 0.50717 0.27072 0.0
C1048 C 0.92814 0.47157 0.24529 0.0
C1049 C 0.92943 0.48923 0.22908 0.0
C1050 C 0.94478 0.51599 0.23334 0.0
H1051 H 0.82068 0.44342 0.11424 0.0
H1052 H 0.85513 0.47109 0.14085 0.0
C1053 C 0.95767 0.52491 0.25394 0.0
C1054 C 0.9122 0.47947 0.20916 0.0
H1055 H 0.89453 0.43709 0.16517 0.0
C1056 C 0.8924 0.48502 0.20751 0.0
C1057 C 0.91345 0.46266 0.19326 0.0
C1058 C 0.9349 0.4569 0.19362 0.0
C1059 C 0.87285 0.47288 0.19124 0.0
C1060 C 0.87344 0.45509 0.176 0.0
C1061 C 0.89401 0.45062 0.17695 0.0
C1062 C 0.85183 0.43905 0.16035 0.0
C1063 C 0.85096 0.478 0.19135 0.0
C1064 C 0.83851 0.41194 0.16252 0.0
C1065 C 0.81907 0.39621 0.14737 0.0
C1066 C 0.81241 0.40716 0.12962 0.0
C1067 C 0.82519 0.43439 0.12783 0.0
C1068 C 0.84488 0.45021 0.14302 0.0
H1069 H 0.85088 0.48835 0.20683 0.0
H1070 H 0.85285 0.49022 0.17661 0.0
H1071 H 0.83217 0.45952 0.19002 0.0
H1072 H 0.8434 0.4029 0.17584 0.0
H1073 H 0.80956 0.37533 0.14939 0.0
loop_
_geom_bond_atom_site_label_1
_geom_bond_atom_site_label_2
_geom_bond_distance
_geom_bond_site_symmetry_2
_ccdc_geom_bond_type
H0 C8 0.930 . S
H1 C11 0.930 . S
H2 C13 0.930 . S
H3 C14 0.970 . S
H4 C14 0.970 . S
H5 C16 0.930 . S
H6 C18 0.930 . S
H7 C20 0.930 . S
C8 H0 0.930 . S
C8 C9 1.382 . S
C8 C10 1.426 . S
C9 C8 1.382 . S
C9 C13 1.389 . S
C10 C8 1.426 . S
C10 C11 1.375 . S
C10 C14 1.532 1_655 S
C11 H1 0.930 . S
C11 C10 1.375 . S
C11 C12 1.416 . S
C12 C11 1.416 . S
C12 C13 1.371 . S
C13 H2 0.930 . S
C13 C9 1.389 . S
C13 C12 1.371 . S
C14 H3 0.970 . S
C14 H4 0.970 . S
C14 C10 1.532 1_455 S
C14 C15 1.499 . S
C15 C14 1.499 . S
C15 C16 1.370 . S
C15 C20 1.415 . S
C16 H5 0.930 . S
C16 C15 1.370 . S
C16 C17 1.407 . S
C17 C16 1.407 . S
C17 C18 1.365 . S
C18 H6 0.930 . S
C18 C17 1.365 . S
C18 C19 1.393 . S
C19 C18 1.393 . S
C19 C20 1.387 . S
C20 H7 0.930 . S
C20 C15 1.415 . S
C20 C19 1.387 . S
H21 C29 0.930 . S
H22 C32 0.930 . S
H23 C34 0.930 . S
H24 C35 0.970 . S
H25 C35 0.970 . S
H26 C37 0.930 . S
H27 C39 0.930 . S
H28 C41 0.930 . S
C29 H21 0.930 . S
C29 C30 1.382 . S
C29 C31 1.426 . S
C30 C29 1.382 . S
C30 C34 1.389 . S
C31 C29 1.426 . S
C31 C32 1.375 . S
C31 C35 1.532 1_565 S
C32 H22 0.930 . S
C32 C31 1.375 . S
C32 C33 1.416 . S
C33 C32 1.416 . S
C33 C34 1.371 . S
C34 H23 0.930 . S
C34 C30 1.389 . S
C34 C33 1.371 . S
C35 H24 0.970 . S
C35 H25 0.970 . S
C35 C31 1.532 1_545 S
C35 C36 1.499 . S
C36 C35 1.499 . S
C36 C37 1.370 . S
C36 C41 1.415 . S
C37 H26 0.930 . S
C37 C36 1.370 . S
C37 C38 1.407 . S
C38 C37 1.407 . S
C38 C39 1.365 . S
C39 H27 0.930 . S
C39 C38 1.365 . S
C39 C40 1.393 . S
C40 C39 1.393 . S
C40 C41 1.387 . S
C41 H28 0.930 . S
C41 C36 1.415 . S
C41 C40 1.387 . S
H42 C50 0.930 . S
H43 C53 0.930 . S
H44 C55 0.930 . S
H45 C56 0.970 . S
H46 C56 0.970 . S
H47 C58 0.930 . S
H48 C60 0.930 . S
H49 C62 0.930 . S
C50 H42 0.930 . S
C50 C51 1.382 . S
C50 C52 1.426 . S
C51 C50 1.382 . S
C51 C55 1.389 . S
C52 C50 1.426 . S
C52 C53 1.375 . S
C52 C56 1.532 . S
C53 H43 0.930 . S
C53 C52 1.375 . S
C53 C54 1.416 . S
C54 C53 1.416 . S
C54 C55 1.371 . S
C55 H44 0.930 . S
C55 C51 1.389 . S
C55 C54 1.371 . S
C56 H45 0.970 . S
C56 H46 0.970 . S
C56 C52 1.532 . S
C56 C57 1.499 . S
C57 C56 1.499 . S
C57 C58 1.370 . S
C57 C62 1.415 . S
C58 H47 0.930 . S
C58 C57 1.370 . S
C58 C59 1.407 . S
C59 C58 1.407 . S
C59 C60 1.365 . S
C60 H48 0.930 . S
C60 C59 1.365 . S
C60 C61 1.393 . S
C61 C60 1.393 . S
C61 C62 1.387 . S
C62 H49 0.930 . S
C62 C57 1.415 . S
C62 C61 1.387 . S
H63 C71 0.930 . S
H64 C74 0.930 . S
H65 C76 0.930 . S
H66 C77 0.970 . S
H67 C77 0.970 . S
H68 C79 0.930 . S
H69 C81 0.930 . S
H70 C83 0.930 . S
C71 H63 0.930 . S
C71 C72 1.382 . S
C71 C73 1.426 . S
C72 C71 1.382 . S
C72 C76 1.389 . S
C73 C71 1.426 . S
C73 C74 1.375 . S
C73 C77 1.532 1_655 S
C74 H64 0.930 . S
C74 C73 1.375 . S
C74 C75 1.416 . S
C75 C74 1.416 . S
C75 C76 1.371 . S
C76 H65 0.930 . S
C76 C72 1.389 . S
C76 C75 1.371 . S
C77 H66 0.970 . S
C77 H67 0.970 . S
C77 C73 1.532 1_455 S
C77 C78 1.499 . S
C78 C77 1.499 . S
C78 C79 1.370 . S
C78 C83 1.415 . S
C79 H68 0.930 . S
C79 C78 1.370 . S
C79 C80 1.407 . S
C80 C79 1.407 . S
C80 C81 1.365 . S
C81 H69 0.930 . S
C81 C80 1.365 . S
C81 C82 1.393 . S
C82 C81 1.393 . S
C82 C83 1.387 . S
C83 H70 0.930 . S
C83 C78 1.415 . S
C83 C82 1.387 . S
H84 C92 0.930 . S
H85 C95 0.930 . S
H86 C97 0.930 . S
H87 C98 0.970 1_554 S
H88 C98 0.972 . S
H89 C100 0.930 . S
H90 C102 0.930 . S
H91 C104 0.930 . S
C92 H84 0.930 . S
C92 C93 1.382 1_554 S
C92 C94 1.426 1_554 S
C93 C92 1.382 1_556 S
C93 C97 1.389 . S
C94 C92 1.426 1_556 S
C94 C95 1.375 . S
C94 C98 1.532 . S
C95 H85 0.930 . S
C95 C94 1.375 . S
C95 C96 1.416 . S
C96 C95 1.416 . S
C96 C97 1.371 . S
C97 H86 0.930 . S
C97 C93 1.389 . S
C97 C96 1.371 . S
C98 H87 0.970 1_556 S
C98 H88 0.972 . S
C98 C94 1.532 . S
C98 C99 1.499 1_545 S
C99 C98 1.499 1_565 S
C99 C100 1.370 1_556 S
C99 C104 1.415 . S
C100 H89 0.930 . S
C100 C99 1.370 1_554 S
C100 C101 1.407 . S
C101 C100 1.407 . S
C101 C102 1.365 . S
C102 H90 0.930 . S
C102 C101 1.365 . S
C102 C103 1.393 1_554 S
C103 C102 1.393 1_556 S
C103 C104 1.387 . S
C104 H91 0.930 . S
C104 C99 1.415 . S
C104 C103 1.387 . S
H105 C113 0.930 . S
H106 C116 0.930 . S
H107 C118 0.930 . S
H108 C119 0.970 . S
H109 C119 0.970 . S
H110 C121 0.930 . S
H111 C123 0.930 . S
H112 C125 0.930 . S
C113 H105 0.930 . S
C113 C114 1.382 . S
C113 C115 1.426 . S
C114 C113 1.382 . S
C114 C118 1.389 . S
C115 C113 1.426 . S
C115 C116 1.375 . S
C115 C119 1.532 . S
C116 H106 0.930 . S
C116 C115 1.375 . S
C116 C117 1.416 . S
C117 C116 1.416 . S
C117 C118 1.371 . S
C118 H107 0.930 . S
C118 C114 1.389 . S
C118 C117 1.371 . S
C119 H108 0.970 . S
C119 H109 0.970 . S
C119 C115 1.532 . S
C119 C120 1.499 . S
C120 C119 1.499 . S
C120 C121 1.370 . S
C120 C125 1.415 . S
C121 H110 0.930 . S
C121 C120 1.370 . S
C121 C122 1.407 . S
C122 C121 1.407 . S
C122 C123 1.365 . S
C123 H111 0.930 . S
C123 C122 1.365 . S
C123 C124 1.393 . S
C124 C123 1.393 . S
C124 C125 1.387 . S
C125 H112 0.930 . S
C125 C120 1.415 . S
C125 C124 1.387 . S
Co126 O127 2.216 . S
Co126 O128 2.091 . S
Co126 O130 2.004 . S
Co126 O136 2.021 . S
Co126 O138 2.137 . S
Co126 O139 2.244 . S
O127 Co126 2.216 . S
O127 C134 1.247 . S
O128 Co126 2.091 . S
O128 C134 1.261 . S
C129 O138 1.247 . S
C129 O139 1.272 . S
O130 Co126 2.004 . S
O130 C135 1.259 . S
Co131 O132 2.061 . S
Co131 O137 2.052 . S
Co131 O139 2.135 . S
O132 Co131 2.061 . S
O132 C135 1.235 . S
C133 O136 1.238 . S
C133 O137 1.241 . S
C134 O127 1.247 . S
C134 O128 1.261 . S
C135 O130 1.259 . S
C135 O132 1.235 . S
O136 Co126 2.021 . S
O136 C133 1.238 . S
O137 Co131 2.052 . S
O137 C133 1.241 . S
O138 Co126 2.137 . S
O138 C129 1.247 . S
O139 Co126 2.244 . S
O139 C129 1.272 . S
O139 Co131 2.135 . S
Co140 O141 2.216 . S
Co140 O142 2.091 . S
Co140 O144 2.004 . S
Co140 O150 2.021 . S
Co140 O152 2.137 . S
Co140 O153 2.244 . S
O141 Co140 2.216 . S
O141 C148 1.247 . S
O142 Co140 2.091 . S
O142 C148 1.261 . S
C143 O152 1.247 . S
C143 O153 1.272 . S
O144 Co140 2.004 . S
O144 C149 1.259 . S
Co145 O146 2.061 . S
Co145 O151 2.052 . S
Co145 O153 2.135 . S
O146 Co145 2.061 . S
O146 C149 1.235 . S
C147 O150 1.238 . S
C147 O151 1.241 . S
C148 O141 1.247 . S
C148 O142 1.261 . S
C149 O144 1.259 . S
C149 O146 1.235 . S
O150 Co140 2.021 . S
O150 C147 1.238 . S
O151 Co145 2.052 . S
O151 C147 1.241 . S
O152 Co140 2.137 . S
O152 C143 1.247 . S
O153 Co140 2.244 . S
O153 C143 1.272 . S
O153 Co145 2.135 . S
Co154 O155 2.216 . S
Co154 O156 2.091 . S
Co154 O158 2.004 . S
Co154 O164 2.021 . S
Co154 O166 2.137 . S
Co154 O167 2.244 . S
O155 Co154 2.216 . S
O155 C162 1.247 . S
O156 Co154 2.091 . S
O156 C162 1.261 . S
C157 O166 1.247 . S
C157 O167 1.272 . S
O158 Co154 2.004 . S
O158 C163 1.259 . S
Co159 O160 2.061 . S
Co159 O165 2.052 . S
Co159 O167 2.135 . S
O160 Co159 2.061 . S
O160 C163 1.235 . S
C161 O164 1.238 . S
C161 O165 1.241 . S
C162 O155 1.247 . S
C162 O156 1.261 . S
C163 O158 1.259 . S
C163 O160 1.235 . S
O164 Co154 2.021 . S
O164 C161 1.238 . S
O165 Co159 2.052 . S
O165 C161 1.241 . S
O166 Co154 2.137 . S
O166 C157 1.247 . S
O167 Co154 2.244 . S
O167 C157 1.272 . S
O167 Co159 2.135 . S
Co168 O169 2.216 . S
Co168 O170 2.091 . S
Co168 O172 2.004 . S
Co168 O178 2.021 . S
Co168 O180 2.137 . S
Co168 O181 2.244 . S
O169 Co168 2.216 . S
O169 C176 1.247 . S
O170 Co168 2.091 . S
O170 C176 1.261 . S
C171 O180 1.247 . S
C171 O181 1.272 . S
O172 Co168 2.004 . S
O172 C177 1.259 . S
Co173 O174 2.061 . S
Co173 O179 2.052 . S
Co173 O181 2.135 . S
O174 Co173 2.061 . S
O174 C177 1.235 . S
C175 O178 1.238 . S
C175 O179 1.241 . S
C176 O169 1.247 . S
C176 O170 1.261 . S
C177 O172 1.259 . S
C177 O174 1.235 . S
O178 Co168 2.021 . S
O178 C175 1.238 . S
O179 Co173 2.052 . S
O179 C175 1.241 . S
O180 Co168 2.137 . S
O180 C171 1.247 . S
O181 Co168 2.244 . S
O181 C171 1.272 . S
O181 Co173 2.135 . S
Co182 O183 2.216 . S
Co182 O184 2.091 . S
Co182 O186 2.004 . S
Co182 O192 2.021 . S
Co182 O194 2.137 . S
Co182 O195 2.244 . S
O183 Co182 2.216 . S
O183 C190 1.247 . S
O184 Co182 2.091 . S
O184 C190 1.261 . S
C185 O194 1.247 . S
C185 O195 1.272 . S
O186 Co182 2.004 . S
O186 C191 1.259 . S
Co187 O188 2.061 . S
Co187 O193 2.052 . S
Co187 O195 2.135 . S
O188 Co187 2.061 . S
O188 C191 1.235 . S
C189 O192 1.238 . S
C189 O193 1.241 . S
C190 O183 1.247 . S
C190 O184 1.261 . S
C191 O186 1.259 . S
C191 O188 1.235 . S
O192 Co182 2.021 . S
O192 C189 1.238 . S
O193 Co187 2.052 . S
O193 C189 1.241 . S
O194 Co182 2.137 . S
O194 C185 1.247 . S
O195 Co182 2.244 . S
O195 C185 1.272 . S
O195 Co187 2.135 . S
Co196 O197 2.216 . S
Co196 O198 2.091 . S
Co196 O200 2.004 . S
Co196 O206 2.021 . S
Co196 O208 2.137 . S
Co196 O209 2.244 . S
O197 Co196 2.216 . S
O197 C204 1.247 . S
O198 Co196 2.091 . S
O198 C204 1.261 . S
C199 O208 1.247 . S
C199 O209 1.272 . S
O200 Co196 2.004 . S
O200 C205 1.259 . S
Co201 O202 2.061 . S
Co201 O207 2.052 . S
Co201 O209 2.135 . S
O202 Co201 2.061 . S
O202 C205 1.235 . S
C203 O206 1.238 . S
C203 O207 1.241 . S
C204 O197 1.247 . S
C204 O198 1.261 . S
C205 O200 1.259 . S
C205 O202 1.235 . S
O206 Co196 2.021 . S
O206 C203 1.238 . S
O207 Co201 2.052 . S
O207 C203 1.241 . S
O208 Co196 2.137 . S
O208 C199 1.247 . S
O209 Co196 2.244 . S
O209 C199 1.272 . S
O209 Co201 2.135 . S
H210 C218 0.929 . S
H211 C220 0.930 . S
H212 C222 0.930 . S
H213 C225 0.929 . S
H214 C228 0.930 . S
H215 C230 0.960 . S
H216 C230 0.960 . S
H217 C230 0.960 . S
C218 H210 0.929 . S
C218 C219 1.377 . S
C218 C220 1.384 . S
C219 C218 1.377 . S
C219 C225 1.390 . S
C220 H211 0.930 . S
C220 C218 1.384 . S
C220 C221 1.372 . S
C221 C220 1.372 . S
C221 C222 1.400 . S
C221 C226 1.490 . S
C222 H212 0.930 . S
C222 C221 1.400 . S
C222 C225 1.386 . S
H223 C239 0.930 . S
H224 C240 0.931 . S
C225 H213 0.929 . S
C225 C219 1.390 . S
C225 C222 1.386 . S
C226 C221 1.490 . S
C226 C228 1.395 . S
C226 C229 1.403 . S
H227 C233 0.930 . S
C228 H214 0.930 . S
C228 C226 1.395 . S
C228 C231 1.403 . S
C229 C226 1.403 . S
C229 C230 1.524 . S
C229 C233 1.400 . S
C230 H215 0.960 . S
C230 H216 0.960 . S
C230 H217 0.960 . S
C230 C229 1.524 . S
C231 C228 1.403 . S
C231 C232 1.392 . S
C231 C235 1.495 . S
C232 C231 1.392 . S
C232 C233 1.385 . S
C232 C234 1.478 . S
C233 H227 0.930 . S
C233 C229 1.400 . S
C233 C232 1.385 . S
C234 C232 1.478 . S
C234 C236 1.381 . S
C234 C240 1.383 . S
C235 C231 1.495 . S
C235 H241 0.959 . S
C235 H242 0.961 . S
C235 H243 0.960 . S
C236 C234 1.381 . S
C236 C237 1.394 . S
C236 H244 0.930 . S
C237 C236 1.394 . S
C237 C238 1.383 . S
C237 H245 0.929 . S
C238 C237 1.383 . S
C238 C239 1.377 . S
C239 H223 0.930 . S
C239 C238 1.377 . S
C239 C240 1.379 . S
C240 H224 0.931 . S
C240 C234 1.383 . S
C240 C239 1.379 . S
H241 C235 0.959 . S
H242 C235 0.961 . S
H243 C235 0.960 . S
H244 C236 0.930 . S
H245 C237 0.929 . S
H246 C254 0.929 . S
H247 C256 0.930 . S
H248 C258 0.930 . S
H249 C261 0.929 . S
H250 C264 0.930 . S
H251 C266 0.960 . S
H252 C266 0.960 . S
H253 C266 0.960 . S
C254 H246 0.929 . S
C254 C255 1.377 . S
C254 C256 1.384 . S
C255 C254 1.377 . S
C255 C261 1.390 . S
C256 H247 0.930 . S
C256 C254 1.384 . S
C256 C257 1.372 . S
C257 C256 1.372 . S
C257 C258 1.400 . S
C257 C262 1.490 . S
C258 H248 0.930 . S
C258 C257 1.400 . S
C258 C261 1.386 . S
H259 C275 0.930 . S
H260 C276 0.931 . S
C261 H249 0.929 . S
C261 C255 1.390 . S
C261 C258 1.386 . S
C262 C257 1.490 . S
C262 C264 1.395 . S
C262 C265 1.403 . S
H263 C269 0.930 . S
C264 H250 0.930 . S
C264 C262 1.395 . S
C264 C267 1.403 . S
C265 C262 1.403 . S
C265 C266 1.524 . S
C265 C269 1.400 . S
C266 H251 0.960 . S
C266 H252 0.960 . S
C266 H253 0.960 . S
C266 C265 1.524 . S
C267 C264 1.403 . S
C267 C268 1.392 . S
C267 C271 1.495 . S
C268 C267 1.392 . S
C268 C269 1.385 . S
C268 C270 1.478 . S
C269 H263 0.930 . S
C269 C265 1.400 . S
C269 C268 1.385 . S
C270 C268 1.478 . S
C270 C272 1.381 . S
C270 C276 1.383 . S
C271 C267 1.495 . S
C271 H277 0.959 . S
C271 H278 0.961 . S
C271 H279 0.960 . S
C272 C270 1.381 . S
C272 C273 1.394 . S
C272 H280 0.930 . S
C273 C272 1.394 . S
C273 C274 1.383 . S
C273 H281 0.929 . S
C274 C273 1.383 . S
C274 C275 1.377 . S
C275 H259 0.930 . S
C275 C274 1.377 . S
C275 C276 1.379 . S
C276 H260 0.931 . S
C276 C270 1.383 . S
C276 C275 1.379 . S
H277 C271 0.959 . S
H278 C271 0.961 . S
H279 C271 0.960 . S
H280 C272 0.930 . S
H281 C273 0.929 . S
H282 C290 0.929 . S
H283 C292 0.930 . S
H284 C294 0.930 . S
H285 C297 0.929 . S
H286 C300 0.930 . S
H287 C302 0.960 . S
H288 C302 0.960 . S
H289 C302 0.960 . S
C290 H282 0.929 . S
C290 C291 1.377 . S
C290 C292 1.384 . S
C291 C290 1.377 . S
C291 C297 1.390 . S
C292 H283 0.930 . S
C292 C290 1.384 . S
C292 C293 1.372 . S
C293 C292 1.372 . S
C293 C294 1.400 . S
C293 C298 1.490 . S
C294 H284 0.930 . S
C294 C293 1.400 . S
C294 C297 1.386 . S
H295 C311 0.930 . S
H296 C312 0.931 . S
C297 H285 0.929 . S
C297 C291 1.390 . S
C297 C294 1.386 . S
C298 C293 1.490 . S
C298 C300 1.395 . S
C298 C301 1.403 . S
H299 C305 0.930 . S
C300 H286 0.930 . S
C300 C298 1.395 . S
C300 C303 1.403 . S
C301 C298 1.403 . S
C301 C302 1.524 . S
C301 C305 1.400 . S
C302 H287 0.960 . S
C302 H288 0.960 . S
C302 H289 0.960 . S
C302 C301 1.524 . S
C303 C300 1.403 . S
C303 C304 1.392 . S
C303 C307 1.495 . S
C304 C303 1.392 . S
C304 C305 1.385 . S
C304 C306 1.478 . S
C305 H299 0.930 . S
C305 C301 1.400 . S
C305 C304 1.385 . S
C306 C304 1.478 . S
C306 C308 1.381 . S
C306 C312 1.383 . S
C307 C303 1.495 . S
C307 H313 0.959 . S
C307 H314 0.961 . S
C307 H315 0.960 . S
C308 C306 1.381 . S
C308 C309 1.394 . S
C308 H316 0.930 . S
C309 C308 1.394 . S
C309 C310 1.383 . S
C309 H317 0.929 . S
C310 C309 1.383 . S
C310 C311 1.377 . S
C311 H295 0.930 . S
C311 C310 1.377 . S
C311 C312 1.379 . S
C312 H296 0.931 . S
C312 C306 1.383 . S
C312 C311 1.379 . S
H313 C307 0.959 . S
H314 C307 0.961 . S
H315 C307 0.960 . S
H316 C308 0.930 . S
H317 C309 0.929 . S
H318 C326 0.929 . S
H319 C328 0.930 . S
H320 C330 0.930 . S
H321 C333 0.929 . S
H322 C336 0.930 . S
H323 C338 0.960 . S
H324 C338 0.960 . S
H325 C338 0.960 . S
C326 H318 0.929 . S
C326 C327 1.377 . S
C326 C328 1.384 . S
C327 C326 1.377 . S
C327 C333 1.390 . S
C328 H319 0.930 . S
C328 C326 1.384 . S
C328 C329 1.372 . S
C329 C328 1.372 . S
C329 C330 1.400 . S
C329 C334 1.490 . S
C330 H320 0.930 . S
C330 C329 1.400 . S
C330 C333 1.386 . S
H331 C347 0.930 . S
H332 C348 0.931 . S
C333 H321 0.929 . S
C333 C327 1.390 . S
C333 C330 1.386 . S
C334 C329 1.490 . S
C334 C336 1.395 . S
C334 C337 1.403 . S
H335 C341 0.930 . S
C336 H322 0.930 . S
C336 C334 1.395 . S
C336 C339 1.403 . S
C337 C334 1.403 . S
C337 C338 1.524 . S
C337 C341 1.400 . S
C338 H323 0.960 . S
C338 H324 0.960 . S
C338 H325 0.960 . S
C338 C337 1.524 . S
C339 C336 1.403 . S
C339 C340 1.392 . S
C339 C343 1.495 . S
C340 C339 1.392 . S
C340 C341 1.385 . S
C340 C342 1.478 . S
C341 H335 0.930 . S
C341 C337 1.400 . S
C341 C340 1.385 . S
C342 C340 1.478 . S
C342 C344 1.381 . S
C342 C348 1.383 . S
C343 C339 1.495 . S
C343 H349 0.959 . S
C343 H350 0.961 . S
C343 H351 0.960 . S
C344 C342 1.381 . S
C344 C345 1.394 . S
C344 H352 0.930 . S
C345 C344 1.394 . S
C345 C346 1.383 . S
C345 H353 0.929 . S
C346 C345 1.383 . S
C346 C347 1.377 . S
C347 H331 0.930 . S
C347 C346 1.377 . S
C347 C348 1.379 . S
C348 H332 0.931 . S
C348 C342 1.383 . S
C348 C347 1.379 . S
H349 C343 0.959 . S
H350 C343 0.961 . S
H351 C343 0.960 . S
H352 C344 0.930 . S
H353 C345 0.929 . S
H354 C362 0.929 . S
H355 C364 0.930 . S
H356 C366 0.930 . S
H357 C369 0.929 . S
H358 C372 0.930 . S
H359 C374 0.960 . S
H360 C374 0.960 . S
H361 C374 0.960 . S
C362 H354 0.929 . S
C362 C363 1.377 . S
C362 C364 1.384 . S
C363 C362 1.377 . S
C363 C369 1.390 . S
C364 H355 0.930 . S
C364 C362 1.384 . S
C364 C365 1.372 . S
C365 C364 1.372 . S
C365 C366 1.400 . S
C365 C370 1.490 . S
C366 H356 0.930 . S
C366 C365 1.400 . S
C366 C369 1.386 . S
H367 C383 0.930 . S
H368 C384 0.931 . S
C369 H357 0.929 . S
C369 C363 1.390 . S
C369 C366 1.386 . S
C370 C365 1.490 . S
C370 C372 1.395 . S
C370 C373 1.403 . S
H371 C377 0.930 . S
C372 H358 0.930 . S
C372 C370 1.395 . S
C372 C375 1.403 . S
C373 C370 1.403 . S
C373 C374 1.524 . S
C373 C377 1.400 . S
C374 H359 0.960 . S
C374 H360 0.960 . S
C374 H361 0.960 . S
C374 C373 1.524 . S
C375 C372 1.403 . S
C375 C376 1.392 . S
C375 C379 1.495 . S
C376 C375 1.392 . S
C376 C377 1.385 . S
C376 C378 1.478 . S
C377 H371 0.930 . S
C377 C373 1.400 . S
C377 C376 1.385 . S
C378 C376 1.478 . S
C378 C380 1.381 . S
C378 C384 1.383 . S
C379 C375 1.495 . S
C379 H385 0.959 . S
C379 H386 0.961 . S
C379 H387 0.960 . S
C380 C378 1.381 . S
C380 C381 1.394 . S
C380 H388 0.930 . S
C381 C380 1.394 . S
C381 C382 1.383 . S
C381 H389 0.929 . S
C382 C381 1.383 . S
C382 C383 1.377 . S
C383 H367 0.930 . S
C383 C382 1.377 . S
C383 C384 1.379 . S
C384 H368 0.931 . S
C384 C378 1.383 . S
C384 C383 1.379 . S
H385 C379 0.959 . S
H386 C379 0.961 . S
H387 C379 0.960 . S
H388 C380 0.930 . S
H389 C381 0.929 . S
H390 C398 0.929 . S
H391 C400 0.930 . S
H392 C402 0.930 . S
H393 C405 0.929 . S
H394 C408 0.930 . S
H395 C410 0.960 . S
H396 C410 0.960 . S
H397 C410 0.960 . S
C398 H390 0.929 . S
C398 C399 1.377 . S
C398 C400 1.384 . S
C399 C398 1.377 . S
C399 C405 1.390 . S
C400 H391 0.930 . S
C400 C398 1.384 . S
C400 C401 1.372 . S
C401 C400 1.372 . S
C401 C402 1.400 . S
C401 C406 1.490 . S
C402 H392 0.930 . S
C402 C401 1.400 . S
C402 C405 1.386 . S
H403 C419 0.930 . S
H404 C420 0.931 . S
C405 H393 0.929 . S
C405 C399 1.390 . S
C405 C402 1.386 . S
C406 C401 1.490 . S
C406 C408 1.395 . S
C406 C409 1.403 . S
H407 C413 0.930 . S
C408 H394 0.930 . S
C408 C406 1.395 . S
C408 C411 1.403 . S
C409 C406 1.403 . S
C409 C410 1.524 . S
C409 C413 1.400 . S
C410 H395 0.960 . S
C410 H396 0.960 . S
C410 H397 0.960 . S
C410 C409 1.524 . S
C411 C408 1.403 . S
C411 C412 1.392 . S
C411 C415 1.495 . S
C412 C411 1.392 . S
C412 C413 1.385 . S
C412 C414 1.478 . S
C413 H407 0.930 . S
C413 C409 1.400 . S
C413 C412 1.385 . S
C414 C412 1.478 . S
C414 C416 1.381 . S
C414 C420 1.383 . S
C415 C411 1.495 . S
C415 H421 0.959 . S
C415 H422 0.961 . S
C415 H423 0.960 . S
C416 C414 1.381 . S
C416 C417 1.394 . S
C416 H424 0.930 . S
C417 C416 1.394 . S
C417 C418 1.383 . S
C417 H425 0.929 . S
C418 C417 1.383 . S
C418 C419 1.377 . S
C419 H403 0.930 . S
C419 C418 1.377 . S
C419 C420 1.379 . S
C420 H404 0.931 . S
C420 C414 1.383 . S
C420 C419 1.379 . S
H421 C415 0.959 . S
H422 C415 0.961 . S
H423 C415 0.960 . S
H424 C416 0.930 . S
H425 C417 0.929 . S
H426 C434 0.929 . S
H427 C436 0.930 . S
H428 C438 0.930 . S
H429 C441 0.929 . S
H430 C444 0.930 . S
H431 C446 0.960 . S
H432 C446 0.960 . S
H433 C446 0.960 . S
C434 H426 0.929 . S
C434 C435 1.377 . S
C434 C436 1.384 . S
C435 C434 1.377 . S
C435 C441 1.390 . S
C436 H427 0.930 . S
C436 C434 1.384 . S
C436 C437 1.372 . S
C437 C436 1.372 . S
C437 C438 1.400 . S
C437 C442 1.490 . S
C438 H428 0.930 . S
C438 C437 1.400 . S
C438 C441 1.386 . S
H439 C455 0.930 . S
H440 C456 0.931 . S
C441 H429 0.929 . S
C441 C435 1.390 . S
C441 C438 1.386 . S
C442 C437 1.490 . S
C442 C444 1.395 . S
C442 C445 1.403 . S
H443 C449 0.930 . S
C444 H430 0.930 . S
C444 C442 1.395 . S
C444 C447 1.403 . S
C445 C442 1.403 . S
C445 C446 1.524 . S
C445 C449 1.400 . S
C446 H431 0.960 . S
C446 H432 0.960 . S
C446 H433 0.960 . S
C446 C445 1.524 . S
C447 C444 1.403 . S
C447 C448 1.392 . S
C447 C451 1.495 . S
C448 C447 1.392 . S
C448 C449 1.385 . S
C448 C450 1.478 . S
C449 H443 0.930 . S
C449 C445 1.400 . S
C449 C448 1.385 . S
C450 C448 1.478 . S
C450 C452 1.381 . S
C450 C456 1.383 . S
C451 C447 1.495 . S
C451 H457 0.959 . S
C451 H458 0.961 . S
C451 H459 0.960 . S
C452 C450 1.381 . S
C452 C453 1.394 . S
C452 H460 0.930 . S
C453 C452 1.394 . S
C453 C454 1.383 . S
C453 H461 0.929 . S
C454 C453 1.383 . S
C454 C455 1.377 . S
C455 H439 0.930 . S
C455 C454 1.377 . S
C455 C456 1.379 . S
C456 H440 0.931 . S
C456 C450 1.383 . S
C456 C455 1.379 . S
H457 C451 0.959 . S
H458 C451 0.961 . S
H459 C451 0.960 . S
H460 C452 0.930 . S
H461 C453 0.929 . S
H462 C470 0.929 . S
H463 C472 0.930 . S
H464 C474 0.930 . S
H465 C477 0.929 . S
H466 C480 0.930 . S
H467 C482 0.960 . S
H468 C482 0.960 . S
H469 C482 0.960 . S
C470 H462 0.929 . S
C470 C471 1.377 . S
C470 C472 1.384 . S
C471 C470 1.377 . S
C471 C477 1.390 . S
C472 H463 0.930 . S
C472 C470 1.384 . S
C472 C473 1.372 . S
C473 C472 1.372 . S
C473 C474 1.400 . S
C473 C478 1.490 . S
C474 H464 0.930 . S
C474 C473 1.400 . S
C474 C477 1.386 . S
H475 C491 0.930 . S
H476 C492 0.931 . S
C477 H465 0.929 . S
C477 C471 1.390 . S
C477 C474 1.386 . S
C478 C473 1.490 . S
C478 C480 1.395 . S
C478 C481 1.403 . S
H479 C485 0.930 . S
C480 H466 0.930 . S
C480 C478 1.395 . S
C480 C483 1.403 . S
C481 C478 1.403 . S
C481 C482 1.524 . S
C481 C485 1.400 . S
C482 H467 0.960 . S
C482 H468 0.960 . S
C482 H469 0.960 . S
C482 C481 1.524 . S
C483 C480 1.403 . S
C483 C484 1.392 . S
C483 C487 1.495 . S
C484 C483 1.392 . S
C484 C485 1.385 . S
C484 C486 1.478 . S
C485 H479 0.930 . S
C485 C481 1.400 . S
C485 C484 1.385 . S
C486 C484 1.478 . S
C486 C488 1.381 . S
C486 C492 1.383 . S
C487 C483 1.495 . S
C487 H493 0.959 . S
C487 H494 0.961 . S
C487 H495 0.960 . S
C488 C486 1.381 . S
C488 C489 1.394 . S
C488 H496 0.930 . S
C489 C488 1.394 . S
C489 C490 1.383 . S
C489 H497 0.929 . S
C490 C489 1.383 . S
C490 C491 1.377 . S
C491 H475 0.930 . S
C491 C490 1.377 . S
C491 C492 1.379 . S
C492 H476 0.931 . S
C492 C486 1.383 . S
C492 C491 1.379 . S
H493 C487 0.959 . S
H494 C487 0.961 . S
H495 C487 0.960 . S
H496 C488 0.930 . S
H497 C489 0.929 . S
H498 C506 0.929 . S
H499 C508 0.930 . S
H500 C510 0.930 . S
H501 C513 0.929 . S
H502 C516 0.930 . S
H503 C518 0.960 . S
H504 C518 0.960 . S
H505 C518 0.960 . S
C506 H498 0.929 . S
C506 C507 1.377 . S
C506 C508 1.384 . S
C507 C506 1.377 . S
C507 C513 1.390 . S
C508 H499 0.930 . S
C508 C506 1.384 . S
C508 C509 1.372 . S
C509 C508 1.372 . S
C509 C510 1.400 . S
C509 C514 1.490 . S
C510 H500 0.930 . S
C510 C509 1.400 . S
C510 C513 1.386 . S
H511 C527 0.930 . S
H512 C528 0.931 . S
C513 H501 0.929 . S
C513 C507 1.390 . S
C513 C510 1.386 . S
C514 C509 1.490 . S
C514 C516 1.395 . S
C514 C517 1.403 . S
H515 C521 0.930 . S
C516 H502 0.930 . S
C516 C514 1.395 . S
C516 C519 1.403 . S
C517 C514 1.403 . S
C517 C518 1.524 . S
C517 C521 1.400 . S
C518 H503 0.960 . S
C518 H504 0.960 . S
C518 H505 0.960 . S
C518 C517 1.524 . S
C519 C516 1.403 . S
C519 C520 1.392 . S
C519 C523 1.495 . S
C520 C519 1.392 . S
C520 C521 1.385 . S
C520 C522 1.478 . S
C521 H515 0.930 . S
C521 C517 1.400 . S
C521 C520 1.385 . S
C522 C520 1.478 . S
C522 C524 1.381 . S
C522 C528 1.383 . S
C523 C519 1.495 . S
C523 H529 0.959 . S
C523 H530 0.961 . S
C523 H531 0.960 . S
C524 C522 1.381 . S
C524 C525 1.394 . S
C524 H532 0.930 . S
C525 C524 1.394 . S
C525 C526 1.383 . S
C525 H533 0.929 . S
C526 C525 1.383 . S
C526 C527 1.377 . S
C527 H511 0.930 . S
C527 C526 1.377 . S
C527 C528 1.379 . S
C528 H512 0.931 . S
C528 C522 1.383 . S
C528 C527 1.379 . S
H529 C523 0.959 . S
H530 C523 0.961 . S
H531 C523 0.960 . S
H532 C524 0.930 . S
H533 C525 0.929 . S
H534 C542 0.929 . S
H535 C544 0.930 . S
H536 C546 0.930 . S
H537 C549 0.929 1_556 S
H538 C552 0.930 . S
H539 C554 0.960 . S
H540 C554 0.960 . S
H541 C554 0.960 . S
C542 H534 0.929 . S
C542 C543 1.377 . S
C542 C544 1.384 . S
C543 C542 1.377 . S
C543 C549 1.390 . S
C544 H535 0.930 . S
C544 C542 1.384 . S
C544 C545 1.372 . S
C545 C544 1.372 . S
C545 C546 1.400 . S
C545 C550 1.490 . S
C546 H536 0.930 . S
C546 C545 1.400 . S
C546 C549 1.386 . S
H547 C563 0.930 . S
H548 C564 0.931 . S
C549 H537 0.929 1_554 S
C549 C543 1.390 . S
C549 C546 1.386 . S
C550 C545 1.490 . S
C550 C552 1.395 . S
C550 C553 1.403 . S
H551 C557 0.930 . S
C552 H538 0.930 . S
C552 C550 1.395 . S
C552 C555 1.403 . S
C553 C550 1.403 . S
C553 C554 1.524 1_554 S
C553 C557 1.400 . S
C554 H539 0.960 . S
C554 H540 0.960 . S
C554 H541 0.960 . S
C554 C553 1.524 1_556 S
C555 C552 1.403 . S
C555 C556 1.392 . S
C555 C559 1.495 . S
C556 C555 1.392 . S
C556 C557 1.385 . S
C556 C558 1.478 . S
C557 H551 0.930 . S
C557 C553 1.400 . S
C557 C556 1.385 . S
C558 C556 1.478 . S
C558 C560 1.381 . S
C558 C564 1.383 . S
C559 C555 1.495 . S
C559 H565 0.959 . S
C559 H566 0.961 . S
C559 H567 0.960 . S
C560 C558 1.381 . S
C560 C561 1.394 . S
C560 H568 0.930 . S
C561 C560 1.394 . S
C561 C562 1.383 . S
C561 H569 0.929 . S
C562 C561 1.383 . S
C562 C563 1.377 . S
C563 H547 0.930 . S
C563 C562 1.377 . S
C563 C564 1.379 . S
C564 H548 0.931 . S
C564 C558 1.383 . S
C564 C563 1.379 . S
H565 C559 0.959 . S
H566 C559 0.961 . S
H567 C559 0.960 . S
H568 C560 0.930 . S
H569 C561 0.929 . S
H570 C578 0.929 . S
H571 C580 0.930 . S
H572 C582 0.930 . S
H573 C585 0.929 . S
H574 C588 0.930 . S
H575 C590 0.960 . S
H576 C590 0.960 . S
H577 C590 0.960 . S
C578 H570 0.929 . S
C578 C579 1.377 . S
C578 C580 1.384 . S
C579 C578 1.377 . S
C579 C585 1.390 . S
C580 H571 0.930 . S
C580 C578 1.384 . S
C580 C581 1.372 . S
C581 C580 1.372 . S
C581 C582 1.400 . S
C581 C586 1.490 . S
C582 H572 0.930 . S
C582 C581 1.400 . S
C582 C585 1.386 . S
H583 C599 0.930 . S
H584 C600 0.931 . S
C585 H573 0.929 . S
C585 C579 1.390 . S
C585 C582 1.386 . S
C586 C581 1.490 . S
C586 C588 1.395 . S
C586 C589 1.403 . S
H587 C593 0.930 . S
C588 H574 0.930 . S
C588 C586 1.395 . S
C588 C591 1.403 . S
C589 C586 1.403 . S
C589 C590 1.524 . S
C589 C593 1.400 . S
C590 H575 0.960 . S
C590 H576 0.960 . S
C590 H577 0.960 . S
C590 C589 1.524 . S
C591 C588 1.403 . S
C591 C592 1.392 . S
C591 C595 1.495 . S
C592 C591 1.392 . S
C592 C593 1.385 . S
C592 C594 1.478 . S
C593 H587 0.930 . S
C593 C589 1.400 . S
C593 C592 1.385 . S
C594 C592 1.478 . S
C594 C596 1.381 . S
C594 C600 1.383 . S
C595 C591 1.495 . S
C595 H601 0.959 . S
C595 H602 0.961 . S
C595 H603 0.960 . S
C596 C594 1.381 . S
C596 C597 1.394 . S
C596 H604 0.930 . S
C597 C596 1.394 . S
C597 C598 1.383 . S
C597 H605 0.929 . S
C598 C597 1.383 . S
C598 C599 1.377 . S
C599 H583 0.930 . S
C599 C598 1.377 . S
C599 C600 1.379 . S
C600 H584 0.931 . S
C600 C594 1.383 . S
C600 C599 1.379 . S
H601 C595 0.959 . S
H602 C595 0.961 . S
H603 C595 0.960 . S
H604 C596 0.930 . S
H605 C597 0.929 . S
H606 C614 0.929 . S
H607 C616 0.930 . S
H608 C618 0.930 . S
H609 C621 0.929 . S
H610 C624 0.930 . S
H611 C626 0.960 . S
H612 C626 0.960 . S
H613 C626 0.960 . S
C614 H606 0.929 . S
C614 C615 1.377 . S
C614 C616 1.384 . S
C615 C614 1.377 . S
C615 C621 1.390 . S
C616 H607 0.930 . S
C616 C614 1.384 . S
C616 C617 1.372 . S
C617 C616 1.372 . S
C617 C618 1.400 . S
C617 C622 1.490 . S
C618 H608 0.930 . S
C618 C617 1.400 . S
C618 C621 1.386 . S
H619 C635 0.930 . S
H620 C636 0.931 . S
C621 H609 0.929 . S
C621 C615 1.390 . S
C621 C618 1.386 . S
C622 C617 1.490 . S
C622 C624 1.395 . S
C622 C625 1.403 . S
H623 C629 0.930 . S
C624 H610 0.930 . S
C624 C622 1.395 . S
C624 C627 1.403 . S
C625 C622 1.403 . S
C625 C626 1.524 . S
C625 C629 1.400 . S
C626 H611 0.960 . S
C626 H612 0.960 . S
C626 H613 0.960 . S
C626 C625 1.524 . S
C627 C624 1.403 . S
C627 C628 1.392 . S
C627 C631 1.495 . S
C628 C627 1.392 . S
C628 C629 1.385 . S
C628 C630 1.478 . S
C629 H623 0.930 . S
C629 C625 1.400 . S
C629 C628 1.385 . S
C630 C628 1.478 . S
C630 C632 1.381 . S
C630 C636 1.383 . S
C631 C627 1.495 . S
C631 H637 0.959 . S
C631 H638 0.961 . S
C631 H639 0.960 . S
C632 C630 1.381 . S
C632 C633 1.394 . S
C632 H640 0.930 . S
C633 C632 1.394 . S
C633 C634 1.383 . S
C633 H641 0.929 . S
C634 C633 1.383 . S
C634 C635 1.377 . S
C635 H619 0.930 . S
C635 C634 1.377 . S
C635 C636 1.379 . S
C636 H620 0.931 . S
C636 C630 1.383 . S
C636 C635 1.379 . S
H637 C631 0.959 . S
H638 C631 0.961 . S
H639 C631 0.960 . S
H640 C632 0.930 . S
H641 C633 0.929 . S
H642 C650 0.929 . S
H643 C652 0.930 . S
H644 C654 0.930 . S
H645 C657 0.929 . S
H646 C660 0.930 . S
H647 C662 0.960 . S
H648 C662 0.960 . S
H649 C662 0.960 . S
C650 H642 0.929 . S
C650 C651 1.377 . S
C650 C652 1.384 . S
C651 C650 1.377 . S
C651 C657 1.390 . S
C652 H643 0.930 . S
C652 C650 1.384 . S
C652 C653 1.372 . S
C653 C652 1.372 . S
C653 C654 1.400 . S
C653 C658 1.490 . S
C654 H644 0.930 . S
C654 C653 1.400 . S
C654 C657 1.386 . S
H655 C671 0.930 . S
H656 C672 0.931 . S
C657 H645 0.929 . S
C657 C651 1.390 . S
C657 C654 1.386 . S
C658 C653 1.490 . S
C658 C660 1.395 . S
C658 C661 1.403 . S
H659 C665 0.930 . S
C660 H646 0.930 . S
C660 C658 1.395 . S
C660 C663 1.403 . S
C661 C658 1.403 . S
C661 C662 1.524 . S
C661 C665 1.400 . S
C662 H647 0.960 . S
C662 H648 0.960 . S
C662 H649 0.960 . S
C662 C661 1.524 . S
C663 C660 1.403 . S
C663 C664 1.392 . S
C663 C667 1.495 . S
C664 C663 1.392 . S
C664 C665 1.385 . S
C664 C666 1.478 . S
C665 H659 0.930 . S
C665 C661 1.400 . S
C665 C664 1.385 . S
C666 C664 1.478 . S
C666 C668 1.381 . S
C666 C672 1.383 . S
C667 C663 1.495 . S
C667 H673 0.959 . S
C667 H674 0.961 . S
C667 H675 0.960 . S
C668 C666 1.381 . S
C668 C669 1.394 . S
C668 H676 0.930 . S
C669 C668 1.394 . S
C669 C670 1.383 . S
C669 H677 0.929 . S
C670 C669 1.383 . S
C670 C671 1.377 . S
C671 H655 0.930 . S
C671 C670 1.377 . S
C671 C672 1.379 . S
C672 H656 0.931 . S
C672 C666 1.383 . S
C672 C671 1.379 . S
H673 C667 0.959 . S
H674 C667 0.961 . S
H675 C667 0.960 . S
H676 C668 0.930 . S
H677 C669 0.929 . S
H678 C686 0.929 . S
H679 C688 0.930 . S
H680 C690 0.930 . S
H681 C693 0.929 . S
H682 C696 0.930 . S
H683 C698 0.960 . S
H684 C698 0.960 . S
H685 C698 0.960 . S
C686 H678 0.929 . S
C686 C687 1.377 . S
C686 C688 1.384 . S
C687 C686 1.377 . S
C687 C693 1.390 . S
C688 H679 0.930 . S
C688 C686 1.384 . S
C688 C689 1.372 . S
C689 C688 1.372 . S
C689 C690 1.400 . S
C689 C694 1.490 . S
C690 H680 0.930 . S
C690 C689 1.400 . S
C690 C693 1.386 . S
H691 C707 0.930 . S
H692 C708 0.931 . S
C693 H681 0.929 . S
C693 C687 1.390 . S
C693 C690 1.386 . S
C694 C689 1.490 . S
C694 C696 1.395 . S
C694 C697 1.403 . S
H695 C701 0.930 . S
C696 H682 0.930 . S
C696 C694 1.395 . S
C696 C699 1.403 . S
C697 C694 1.403 . S
C697 C698 1.524 . S
C697 C701 1.400 . S
C698 H683 0.960 . S
C698 H684 0.960 . S
C698 H685 0.960 . S
C698 C697 1.524 . S
C699 C696 1.403 . S
C699 C700 1.392 . S
C699 C703 1.495 . S
C700 C699 1.392 . S
C700 C701 1.385 . S
C700 C702 1.478 . S
C701 H695 0.930 . S
C701 C697 1.400 . S
C701 C700 1.385 . S
C702 C700 1.478 . S
C702 C704 1.381 . S
C702 C708 1.383 . S
C703 C699 1.495 . S
C703 H709 0.959 . S
C703 H710 0.961 . S
C703 H711 0.960 . S
C704 C702 1.381 . S
C704 C705 1.394 . S
C704 H712 0.930 . S
C705 C704 1.394 . S
C705 C706 1.383 . S
C705 H713 0.929 . S
C706 C705 1.383 . S
C706 C707 1.377 . S
C707 H691 0.930 . S
C707 C706 1.377 . S
C707 C708 1.379 . S
C708 H692 0.931 . S
C708 C702 1.383 . S
C708 C707 1.379 . S
H709 C703 0.959 . S
H710 C703 0.961 . S
H711 C703 0.960 . S
H712 C704 0.930 . S
H713 C705 0.929 . S
H714 C722 0.929 . S
H715 C724 0.930 . S
H716 C726 0.930 . S
H717 C729 0.929 . S
H718 C732 0.930 . S
H719 C734 0.960 . S
H720 C734 0.960 . S
H721 C734 0.960 . S
C722 H714 0.929 . S
C722 C723 1.377 . S
C722 C724 1.384 . S
C723 C722 1.377 . S
C723 C729 1.390 . S
C724 H715 0.930 . S
C724 C722 1.384 . S
C724 C725 1.372 . S
C725 C724 1.372 . S
C725 C726 1.400 . S
C725 C730 1.490 . S
C726 H716 0.930 . S
C726 C725 1.400 . S
C726 C729 1.386 . S
H727 C743 0.930 . S
H728 C744 0.931 . S
C729 H717 0.929 . S
C729 C723 1.390 . S
C729 C726 1.386 . S
C730 C725 1.490 . S
C730 C732 1.395 . S
C730 C733 1.403 . S
H731 C737 0.930 . S
C732 H718 0.930 . S
C732 C730 1.395 . S
C732 C735 1.403 . S
C733 C730 1.403 . S
C733 C734 1.524 . S
C733 C737 1.400 . S
C734 H719 0.960 . S
C734 H720 0.960 . S
C734 H721 0.960 . S
C734 C733 1.524 . S
C735 C732 1.403 . S
C735 C736 1.392 . S
C735 C739 1.495 . S
C736 C735 1.392 . S
C736 C737 1.385 . S
C736 C738 1.478 . S
C737 H731 0.930 . S
C737 C733 1.400 . S
C737 C736 1.385 . S
C738 C736 1.478 . S
C738 C740 1.381 . S
C738 C744 1.383 . S
C739 C735 1.495 . S
C739 H745 0.959 . S
C739 H746 0.961 . S
C739 H747 0.960 . S
C740 C738 1.381 . S
C740 C741 1.394 . S
C740 H748 0.930 . S
C741 C740 1.394 . S
C741 C742 1.383 . S
C741 H749 0.929 . S
C742 C741 1.383 . S
C742 C743 1.377 . S
C743 H727 0.930 . S
C743 C742 1.377 . S
C743 C744 1.379 . S
C744 H728 0.931 . S
C744 C738 1.383 . S
C744 C743 1.379 . S
H745 C739 0.959 . S
H746 C739 0.961 . S
H747 C739 0.960 . S
H748 C740 0.930 . S
H749 C741 0.929 . S
H750 C758 0.929 . S
H751 C760 0.930 . S
H752 C762 0.930 . S
H753 C765 0.929 . S
H754 C768 0.930 . S
H755 C770 0.960 . S
H756 C770 0.960 . S
H757 C770 0.960 . S
C758 H750 0.929 . S
C758 C759 1.377 . S
C758 C760 1.384 . S
C759 C758 1.377 . S
C759 C765 1.390 . S
C760 H751 0.930 . S
C760 C758 1.384 . S
C760 C761 1.372 . S
C761 C760 1.372 . S
C761 C762 1.400 . S
C761 C766 1.490 . S
C762 H752 0.930 . S
C762 C761 1.400 . S
C762 C765 1.386 . S
H763 C779 0.930 . S
H764 C780 0.931 . S
C765 H753 0.929 . S
C765 C759 1.390 . S
C765 C762 1.386 . S
C766 C761 1.490 . S
C766 C768 1.395 . S
C766 C769 1.403 . S
H767 C773 0.930 . S
C768 H754 0.930 . S
C768 C766 1.395 . S
C768 C771 1.403 . S
C769 C766 1.403 . S
C769 C770 1.524 . S
C769 C773 1.400 . S
C770 H755 0.960 . S
C770 H756 0.960 . S
C770 H757 0.960 . S
C770 C769 1.524 . S
C771 C768 1.403 . S
C771 C772 1.392 . S
C771 C775 1.495 . S
C772 C771 1.392 . S
C772 C773 1.385 . S
C772 C774 1.478 . S
C773 H767 0.930 . S
C773 C769 1.400 . S
C773 C772 1.385 . S
C774 C772 1.478 . S
C774 C776 1.381 . S
C774 C780 1.383 . S
C775 C771 1.495 . S
C775 H781 0.959 . S
C775 H782 0.961 1_556 S
C775 H783 0.960 . S
C776 C774 1.381 . S
C776 C777 1.394 1_556 S
C776 H784 0.930 . S
C777 C776 1.394 1_554 S
C777 C778 1.383 . S
C777 H785 0.929 . S
C778 C777 1.383 . S
C778 C779 1.377 . S
C779 H763 0.930 . S
C779 C778 1.377 . S
C779 C780 1.379 1_554 S
C780 H764 0.931 . S
C780 C774 1.383 . S
C780 C779 1.379 1_556 S
H781 C775 0.959 . S
H782 C775 0.961 1_554 S
H783 C775 0.960 . S
H784 C776 0.930 . S
H785 C777 0.929 . S
H786 C794 0.929 . S
H787 C796 0.930 . S
H788 C798 0.930 . S
H789 C801 0.929 . S
H790 C804 0.930 . S
H791 C806 0.960 . S
H792 C806 0.960 . S
H793 C806 0.960 . S
C794 H786 0.929 . S
C794 C795 1.377 . S
C794 C796 1.384 . S
C795 C794 1.377 . S
C795 C801 1.390 . S
C796 H787 0.930 . S
C796 C794 1.384 . S
C796 C797 1.372 . S
C797 C796 1.372 . S
C797 C798 1.400 . S
C797 C802 1.490 . S
C798 H788 0.930 . S
C798 C797 1.400 . S
C798 C801 1.386 . S
H799 C815 0.930 . S
H800 C816 0.931 . S
C801 H789 0.929 . S
C801 C795 1.390 . S
C801 C798 1.386 . S
C802 C797 1.490 . S
C802 C804 1.395 . S
C802 C805 1.403 . S
H803 C809 0.930 . S
C804 H790 0.930 . S
C804 C802 1.395 . S
C804 C807 1.403 . S
C805 C802 1.403 . S
C805 C806 1.524 . S
C805 C809 1.400 . S
C806 H791 0.960 . S
C806 H792 0.960 . S
C806 H793 0.960 . S
C806 C805 1.524 . S
C807 C804 1.403 . S
C807 C808 1.392 . S
C807 C811 1.495 . S
C808 C807 1.392 . S
C808 C809 1.385 . S
C808 C810 1.478 . S
C809 H803 0.930 . S
C809 C805 1.400 . S
C809 C808 1.385 . S
C810 C808 1.478 . S
C810 C812 1.381 . S
C810 C816 1.383 . S
C811 C807 1.495 . S
C811 H817 0.959 . S
C811 H818 0.961 . S
C811 H819 0.960 . S
C812 C810 1.381 . S
C812 C813 1.394 . S
C812 H820 0.930 . S
C813 C812 1.394 . S
C813 C814 1.383 . S
C813 H821 0.929 . S
C814 C813 1.383 . S
C814 C815 1.377 . S
C815 H799 0.930 . S
C815 C814 1.377 . S
C815 C816 1.379 . S
C816 H800 0.931 . S
C816 C810 1.383 . S
C816 C815 1.379 . S
H817 C811 0.959 . S
H818 C811 0.961 . S
H819 C811 0.960 . S
H820 C812 0.930 . S
H821 C813 0.929 . S
H822 C830 0.929 . S
H823 C832 0.930 . S
H824 C834 0.930 . S
H825 C837 0.929 . S
H826 C840 0.930 . S
H827 C842 0.960 . S
H828 C842 0.960 . S
H829 C842 0.960 . S
C830 H822 0.929 . S
C830 C831 1.377 . S
C830 C832 1.384 . S
C831 C830 1.377 . S
C831 C837 1.390 . S
C832 H823 0.930 . S
C832 C830 1.384 . S
C832 C833 1.372 . S
C833 C832 1.372 . S
C833 C834 1.400 . S
C833 C838 1.490 . S
C834 H824 0.930 . S
C834 C833 1.400 . S
C834 C837 1.386 . S
H835 C851 0.930 . S
H836 C852 0.931 . S
C837 H825 0.929 . S
C837 C831 1.390 . S
C837 C834 1.386 . S
C838 C833 1.490 . S
C838 C840 1.395 . S
C838 C841 1.403 . S
H839 C845 0.930 . S
C840 H826 0.930 . S
C840 C838 1.395 . S
C840 C843 1.403 . S
C841 C838 1.403 . S
C841 C842 1.524 . S
C841 C845 1.400 . S
C842 H827 0.960 . S
C842 H828 0.960 . S
C842 H829 0.960 . S
C842 C841 1.524 . S
C843 C840 1.403 . S
C843 C844 1.392 . S
C843 C847 1.495 . S
C844 C843 1.392 . S
C844 C845 1.385 . S
C844 C846 1.478 . S
C845 H839 0.930 . S
C845 C841 1.400 . S
C845 C844 1.385 . S
C846 C844 1.478 . S
C846 C848 1.381 . S
C846 C852 1.383 . S
C847 C843 1.495 . S
C847 H853 0.959 . S
C847 H854 0.961 . S
C847 H855 0.960 . S
C848 C846 1.381 . S
C848 C849 1.394 . S
C848 H856 0.930 . S
C849 C848 1.394 . S
C849 C850 1.383 . S
C849 H857 0.929 . S
C850 C849 1.383 . S
C850 C851 1.377 . S
C851 H835 0.930 . S
C851 C850 1.377 . S
C851 C852 1.379 . S
C852 H836 0.931 . S
C852 C846 1.383 . S
C852 C851 1.379 . S
H853 C847 0.959 . S
H854 C847 0.961 . S
H855 C847 0.960 . S
H856 C848 0.930 . S
H857 C849 0.929 . S
H858 C866 0.929 . S
H859 C868 0.930 . S
H860 C870 0.930 . S
H861 C873 0.929 . S
H862 C876 0.930 . S
H863 C878 0.960 . S
H864 C878 0.960 . S
H865 C878 0.960 . S
C866 H858 0.929 . S
C866 C867 1.377 . S
C866 C868 1.384 . S
C867 C866 1.377 . S
C867 C873 1.390 . S
C868 H859 0.930 . S
C868 C866 1.384 . S
C868 C869 1.372 . S
C869 C868 1.372 . S
C869 C870 1.400 . S
C869 C874 1.490 . S
C870 H860 0.930 . S
C870 C869 1.400 . S
C870 C873 1.386 . S
H871 C887 0.930 . S
H872 C888 0.931 . S
C873 H861 0.929 . S
C873 C867 1.390 . S
C873 C870 1.386 . S
C874 C869 1.490 . S
C874 C876 1.395 . S
C874 C877 1.403 . S
H875 C881 0.930 . S
C876 H862 0.930 . S
C876 C874 1.395 . S
C876 C879 1.403 . S
C877 C874 1.403 . S
C877 C878 1.524 . S
C877 C881 1.400 . S
C878 H863 0.960 . S
C878 H864 0.960 . S
C878 H865 0.960 . S
C878 C877 1.524 . S
C879 C876 1.403 . S
C879 C880 1.392 . S
C879 C883 1.495 . S
C880 C879 1.392 . S
C880 C881 1.385 . S
C880 C882 1.478 . S
C881 H875 0.930 . S
C881 C877 1.400 . S
C881 C880 1.385 . S
C882 C880 1.478 . S
C882 C884 1.381 . S
C882 C888 1.383 . S
C883 C879 1.495 . S
C883 H889 0.959 . S
C883 H890 0.961 . S
C883 H891 0.960 . S
C884 C882 1.381 . S
C884 C885 1.394 . S
C884 H892 0.930 . S
C885 C884 1.394 . S
C885 C886 1.383 . S
C885 H893 0.929 . S
C886 C885 1.383 . S
C886 C887 1.377 . S
C887 H871 0.930 . S
C887 C886 1.377 . S
C887 C888 1.379 . S
C888 H872 0.931 . S
C888 C882 1.383 . S
C888 C887 1.379 . S
H889 C883 0.959 . S
H890 C883 0.961 . S
H891 C883 0.960 . S
H892 C884 0.930 . S
H893 C885 0.929 . S
H894 C902 0.929 . S
H895 C904 0.930 . S
H896 C906 0.930 . S
H897 C909 0.929 . S
H898 C912 0.930 . S
H899 C914 0.960 . S
H900 C914 0.960 . S
H901 C914 0.960 . S
C902 H894 0.929 . S
C902 C903 1.377 . S
C902 C904 1.384 . S
C903 C902 1.377 . S
C903 C909 1.390 . S
C904 H895 0.930 . S
C904 C902 1.384 . S
C904 C905 1.372 . S
C905 C904 1.372 . S
C905 C906 1.400 . S
C905 C910 1.490 . S
C906 H896 0.930 . S
C906 C905 1.400 . S
C906 C909 1.386 . S
H907 C923 0.930 . S
H908 C924 0.931 . S
C909 H897 0.929 . S
C909 C903 1.390 . S
C909 C906 1.386 . S
C910 C905 1.490 . S
C910 C912 1.395 . S
C910 C913 1.403 . S
H911 C917 0.930 . S
C912 H898 0.930 . S
C912 C910 1.395 . S
C912 C915 1.403 . S
C913 C910 1.403 . S
C913 C914 1.524 . S
C913 C917 1.400 . S
C914 H899 0.960 . S
C914 H900 0.960 . S
C914 H901 0.960 . S
C914 C913 1.524 . S
C915 C912 1.403 . S
C915 C916 1.392 . S
C915 C919 1.495 . S
C916 C915 1.392 . S
C916 C917 1.385 . S
C916 C918 1.478 . S
C917 H911 0.930 . S
C917 C913 1.400 . S
C917 C916 1.385 . S
C918 C916 1.478 . S
C918 C920 1.381 . S
C918 C924 1.383 . S
C919 C915 1.495 . S
C919 H925 0.959 . S
C919 H926 0.961 . S
C919 H927 0.960 . S
C920 C918 1.381 . S
C920 C921 1.394 . S
C920 H928 0.930 . S
C921 C920 1.394 . S
C921 C922 1.383 . S
C921 H929 0.929 . S
C922 C921 1.383 . S
C922 C923 1.377 . S
C923 H907 0.930 . S
C923 C922 1.377 . S
C923 C924 1.379 . S
C924 H908 0.931 . S
C924 C918 1.383 . S
C924 C923 1.379 . S
H925 C919 0.959 . S
H926 C919 0.961 . S
H927 C919 0.960 . S
H928 C920 0.930 . S
H929 C921 0.929 . S
H930 C938 0.929 . S
H931 C940 0.930 . S
H932 C942 0.930 . S
H933 C945 0.929 . S
H934 C948 0.930 . S
H935 C950 0.960 . S
H936 C950 0.960 . S
H937 C950 0.960 . S
C938 H930 0.929 . S
C938 C939 1.377 . S
C938 C940 1.384 . S
C939 C938 1.377 . S
C939 C945 1.390 . S
C940 H931 0.930 . S
C940 C938 1.384 . S
C940 C941 1.372 . S
C941 C940 1.372 . S
C941 C942 1.400 . S
C941 C946 1.490 . S
C942 H932 0.930 . S
C942 C941 1.400 . S
C942 C945 1.386 . S
H943 C959 0.930 . S
H944 C960 0.931 . S
C945 H933 0.929 . S
C945 C939 1.390 . S
C945 C942 1.386 . S
C946 C941 1.490 . S
C946 C948 1.395 . S
C946 C949 1.403 . S
H947 C953 0.930 . S
C948 H934 0.930 . S
C948 C946 1.395 . S
C948 C951 1.403 . S
C949 C946 1.403 . S
C949 C950 1.524 . S
C949 C953 1.400 . S
C950 H935 0.960 . S
C950 H936 0.960 . S
C950 H937 0.960 . S
C950 C949 1.524 . S
C951 C948 1.403 . S
C951 C952 1.392 . S
C951 C955 1.495 . S
C952 C951 1.392 . S
C952 C953 1.385 . S
C952 C954 1.478 . S
C953 H947 0.930 . S
C953 C949 1.400 . S
C953 C952 1.385 . S
C954 C952 1.478 . S
C954 C956 1.381 . S
C954 C960 1.383 . S
C955 C951 1.495 . S
C955 H961 0.959 . S
C955 H962 0.961 . S
C955 H963 0.960 . S
C956 C954 1.381 . S
C956 C957 1.394 . S
C956 H964 0.930 . S
C957 C956 1.394 . S
C957 C958 1.383 . S
C957 H965 0.929 . S
C958 C957 1.383 . S
C958 C959 1.377 . S
C959 H943 0.930 . S
C959 C958 1.377 . S
C959 C960 1.379 . S
C960 H944 0.931 . S
C960 C954 1.383 . S
C960 C959 1.379 . S
H961 C955 0.959 . S
H962 C955 0.961 . S
H963 C955 0.960 . S
H964 C956 0.930 . S
H965 C957 0.929 . S
H966 C974 0.929 . S
H967 C976 0.930 . S
H968 C978 0.930 . S
H969 C981 0.929 . S
H970 C984 0.930 . S
H971 C986 0.960 . S
H972 C986 0.960 . S
H973 C986 0.960 . S
C974 H966 0.929 . S
C974 C975 1.377 . S
C974 C976 1.384 . S
C975 C974 1.377 . S
C975 C981 1.390 . S
C976 H967 0.930 . S
C976 C974 1.384 . S
C976 C977 1.372 . S
C977 C976 1.372 . S
C977 C978 1.400 . S
C977 C982 1.490 . S
C978 H968 0.930 . S
C978 C977 1.400 . S
C978 C981 1.386 . S
H979 C995 0.930 . S
H980 C996 0.931 . S
C981 H969 0.929 . S
C981 C975 1.390 . S
C981 C978 1.386 . S
C982 C977 1.490 . S
C982 C984 1.395 . S
C982 C985 1.403 . S
H983 C989 0.930 . S
C984 H970 0.930 . S
C984 C982 1.395 . S
C984 C987 1.403 . S
C985 C982 1.403 . S
C985 C986 1.524 . S
C985 C989 1.400 . S
C986 H971 0.960 . S
C986 H972 0.960 . S
C986 H973 0.960 . S
C986 C985 1.524 . S
C987 C984 1.403 . S
C987 C988 1.392 . S
C987 C991 1.495 . S
C988 C987 1.392 . S
C988 C989 1.385 . S
C988 C990 1.478 . S
C989 H983 0.930 . S
C989 C985 1.400 . S
C989 C988 1.385 . S
C990 C988 1.478 . S
C990 C992 1.381 . S
C990 C996 1.383 . S
C991 C987 1.495 . S
C991 H997 0.959 . S
C991 H998 0.961 . S
C991 H999 0.960 . S
C992 C990 1.381 . S
C992 C993 1.394 . S
C992 H1000 0.930 . S
C993 C992 1.394 . S
C993 C994 1.383 . S
C993 H1001 0.929 . S
C994 C993 1.383 . S
C994 C995 1.377 . S
C995 H979 0.930 . S
C995 C994 1.377 . S
C995 C996 1.379 . S
C996 H980 0.931 . S
C996 C990 1.383 . S
C996 C995 1.379 . S
H997 C991 0.959 . S
H998 C991 0.961 . S
H999 C991 0.960 . S
H1000 C992 0.930 . S
H1001 C993 0.929 . S
H1002 C1010 0.929 . S
H1003 C1012 0.930 . S
H1004 C1014 0.930 . S
H1005 C1017 0.929 . S
H1006 C1020 0.930 . S
H1007 C1022 0.960 . S
H1008 C1022 0.960 . S
H1009 C1022 0.960 . S
C1010 H1002 0.929 . S
C1010 C1011 1.377 . S
C1010 C1012 1.384 . S
C1011 C1010 1.377 . S
C1011 C1017 1.390 . S
C1012 H1003 0.930 . S
C1012 C1010 1.384 . S
C1012 C1013 1.372 . S
C1013 C1012 1.372 . S
C1013 C1014 1.400 . S
C1013 C1018 1.490 . S
C1014 H1004 0.930 . S
C1014 C1013 1.400 . S
C1014 C1017 1.386 . S
H1015 C1031 0.930 . S
H1016 C1032 0.905 1_554 S
C1017 H1005 0.929 . S
C1017 C1011 1.390 . S
C1017 C1014 1.386 . S
C1018 C1013 1.490 . S
C1018 C1020 1.395 . S
C1018 C1021 1.403 . S
H1019 C1025 0.930 . S
C1020 H1006 0.930 . S
C1020 C1018 1.395 . S
C1020 C1023 1.403 . S
C1021 C1018 1.403 . S
C1021 C1022 1.524 . S
C1021 C1025 1.400 . S
C1022 H1007 0.960 . S
C1022 H1008 0.960 . S
C1022 H1009 0.960 . S
C1022 C1021 1.524 . S
C1023 C1020 1.403 . S
C1023 C1024 1.392 . S
C1023 C1027 1.495 . S
C1024 C1023 1.392 . S
C1024 C1025 1.385 . S
C1024 C1026 1.478 1_554 S
C1025 H1019 0.930 . S
C1025 C1021 1.400 . S
C1025 C1024 1.385 . S
C1026 C1024 1.478 1_556 S
C1026 C1028 1.381 . S
C1026 C1032 1.385 . S
C1027 C1023 1.495 . S
C1027 H1033 0.959 . S
C1027 H1034 0.961 . S
C1027 H1035 0.960 . S
C1028 C1026 1.381 . S
C1028 C1029 1.394 . S
C1028 H1036 0.930 . S
C1029 C1028 1.394 . S
C1029 C1030 1.383 . S
C1029 H1037 0.929 . S
C1030 C1029 1.383 . S
C1030 C1031 1.377 . S
C1031 H1015 0.930 . S
C1031 C1030 1.377 . S
C1031 C1032 1.403 . S
C1032 H1016 0.905 1_556 S
C1032 C1026 1.385 . S
C1032 C1031 1.403 . S
H1033 C1027 0.959 . S
H1034 C1027 0.961 . S
H1035 C1027 0.960 . S
H1036 C1028 0.930 . S
H1037 C1029 0.929 . S
H1038 C1046 0.929 . S
H1039 C1048 0.930 . S
H1040 C1050 0.930 . S
H1041 C1053 0.929 . S
H1042 C1056 0.930 . S
H1043 C1058 0.960 . S
H1044 C1058 0.960 . S
H1045 C1058 0.960 . S
C1046 H1038 0.929 . S
C1046 C1047 1.377 . S
C1046 C1048 1.384 . S
C1047 C1046 1.377 . S
C1047 C1053 1.390 . S
C1048 H1039 0.930 . S
C1048 C1046 1.384 . S
C1048 C1049 1.372 . S
C1049 C1048 1.372 . S
C1049 C1050 1.400 . S
C1049 C1054 1.490 . S
C1050 H1040 0.930 . S
C1050 C1049 1.400 . S
C1050 C1053 1.386 . S
H1051 C1067 0.930 . S
H1052 C1068 0.931 . S
C1053 H1041 0.929 . S
C1053 C1047 1.390 . S
C1053 C1050 1.386 . S
C1054 C1049 1.490 . S
C1054 C1056 1.395 . S
C1054 C1057 1.403 . S
H1055 C1061 0.930 . S
C1056 H1042 0.930 . S
C1056 C1054 1.395 . S
C1056 C1059 1.403 . S
C1057 C1054 1.403 . S
C1057 C1058 1.524 . S
C1057 C1061 1.400 . S
C1058 H1043 0.960 . S
C1058 H1044 0.960 . S
C1058 H1045 0.960 . S
C1058 C1057 1.524 . S
C1059 C1056 1.403 . S
C1059 C1060 1.392 . S
C1059 C1063 1.495 . S
C1060 C1059 1.392 . S
C1060 C1061 1.385 . S
C1060 C1062 1.478 . S
C1061 H1055 0.930 . S
C1061 C1057 1.400 . S
C1061 C1060 1.385 . S
C1062 C1060 1.478 . S
C1062 C1064 1.381 . S
C1062 C1068 1.383 . S
C1063 C1059 1.495 . S
C1063 H1069 0.959 . S
C1063 H1070 0.961 . S
C1063 H1071 0.960 . S
C1064 C1062 1.381 . S
C1064 C1065 1.394 . S
C1064 H1072 0.930 . S
C1065 C1064 1.394 . S
C1065 C1066 1.383 . S
C1065 H1073 0.929 . S
C1066 C1065 1.383 . S
C1066 C1067 1.377 . S
C1067 H1051 0.930 . S
C1067 C1066 1.377 . S
C1067 C1068 1.379 . S
C1068 H1052 0.931 . S
C1068 C1062 1.383 . S
C1068 C1067 1.379 . S
H1069 C1063 0.959 . S
H1070 C1063 0.961 . S
H1071 C1063 0.960 . S
H1072 C1064 0.930 . S
H1073 C1065 0.929 . S
C238 C199 1.619 . S
C219 C19 1.532 . S
C255 C40 1.535 . S
C274 C129 1.619 . S
C291 C51 1.541 . S
C310 C148 1.649 . S
C327 C72 1.519 . S
C346 C157 1.628 . S
C382 C171 1.623 . S
C363 C103 1.543 . S
C399 C114 1.537 . S
C418 C190 1.633 . S
C435 C30 1.516 . S
C454 C143 1.621 . S
C471 C61 1.533 . S
C490 C162 1.614 . S
C507 C82 1.538 . S
C526 C176 1.615 . S
C562 C185 1.615 . S
C543 C93 1.511 1_554 S
C598 C204 1.615 . S
C579 C124 1.531 . S
C634 C134 1.624 . S
C615 C9 1.516 . S
C651 C17 1.439 . S
C670 C149 1.506 . S
C687 C38 1.441 . S
C706 C161 1.512 . S
C742 C175 1.482 . S
C723 C54 1.440 . S
C759 C75 1.431 . S
C778 C191 1.507 . S
C814 C203 1.475 . S
C795 C101 1.438 . S
C850 C133 1.491 . S
C831 C117 1.428 . S
C886 C205 1.532 . S
C867 C33 1.450 . S
C903 C59 1.448 . S
C922 C135 1.521 . S
C958 C147 1.494 . S
C939 C80 1.451 . S
C975 C96 1.437 . S
C994 C163 1.511 . S
C1011 C122 1.459 . S
C1030 C177 1.544 . S
C1047 C12 1.450 . S
C1066 C189 1.528 . S
