# Generated by pormake.
# Topology ptr, (4,4)-cn, num edge types: 1
# Building blocks:
#     Node 0, Type 0, BuildingBlock: TATPOV_clean_sbu_0, # of connection points: 4
#     Node 1, Type 0, BuildingBlock: TATPOV_clean_sbu_0, # of connection points: 4
#     Node 2, Type 0, BuildingBlock: TATPOV_clean_sbu_0, # of connection points: 4
#     Node 3, Type 0, BuildingBlock: TATPOV_clean_sbu_0, # of connection points: 4
#     Node 4, Type 0, BuildingBlock: TATPOV_clean_sbu_0, # of connection points: 4
#     Node 5, Type 0, BuildingBlock: TATPOV_clean_sbu_0, # of connection points: 4
#     Node 6, Type 0, BuildingBlock: TATPOV_clean_sbu_0, # of connection points: 4
#     Node 7, Type 0, BuildingBlock: TATPOV_clean_sbu_0, # of connection points: 4
#     Node 8, Type 0, BuildingBlock: TATPOV_clean_sbu_0, # of connection points: 4
#     Node 9, Type 0, BuildingBlock: TATPOV_clean_sbu_0, # of connection points: 4
#     Node 10, Type 0, BuildingBlock: TATPOV_clean_sbu_0, # of connection points: 4
#     Node 11, Type 0, BuildingBlock: TATPOV_clean_sbu_0, # of connection points: 4
#     Node 12, Type 0, BuildingBlock: TATPOV_clean_sbu_0, # of connection points: 4
#     Node 13, Type 0, BuildingBlock: TATPOV_clean_sbu_0, # of connection points: 4
#     Node 14, Type 0, BuildingBlock: TATPOV_clean_sbu_0, # of connection points: 4
#     Node 15, Type 0, BuildingBlock: TATPOV_clean_sbu_0, # of connection points: 4
#     Node 16, Type 0, BuildingBlock: TATPOV_clean_sbu_0, # of connection points: 4
#     Node 17, Type 0, BuildingBlock: TATPOV_clean_sbu_0, # of connection points: 4
#     Node 18, Type 1, BuildingBlock: MIFKUJ_clean_linker_1, # of connection points: 4
#     Node 19, Type 1, BuildingBlock: MIFKUJ_clean_linker_1, # of connection points: 4
#     Node 20, Type 1, BuildingBlock: MIFKUJ_clean_linker_1, # of connection points: 4
#     Node 21, Type 1, BuildingBlock: MIFKUJ_clean_linker_1, # of connection points: 4
#     Node 22, Type 1, BuildingBlock: MIFKUJ_clean_linker_1, # of connection points: 4
#     Node 23, Type 1, BuildingBlock: MIFKUJ_clean_linker_1, # of connection points: 4
#     Node 24, Type 1, BuildingBlock: MIFKUJ_clean_linker_1, # of connection points: 4
#     Node 25, Type 1, BuildingBlock: MIFKUJ_clean_linker_1, # of connection points: 4
#     Node 26, Type 1, BuildingBlock: MIFKUJ_clean_linker_1, # of connection points: 4
#     Node 27, Type 1, BuildingBlock: MIFKUJ_clean_linker_1, # of connection points: 4
#     Node 28, Type 1, BuildingBlock: MIFKUJ_clean_linker_1, # of connection points: 4
#     Node 29, Type 1, BuildingBlock: MIFKUJ_clean_linker_1, # of connection points: 4
#     Node 30, Type 1, BuildingBlock: MIFKUJ_clean_linker_1, # of connection points: 4
#     Node 31, Type 1, BuildingBlock: MIFKUJ_clean_linker_1, # of connection points: 4
#     Node 32, Type 1, BuildingBlock: MIFKUJ_clean_linker_1, # of connection points: 4
#     Node 33, Type 1, BuildingBlock: MIFKUJ_clean_linker_1, # of connection points: 4
#     Node 34, Type 1, BuildingBlock: MIFKUJ_clean_linker_1, # of connection points: 4
#     Node 35, Type 1, BuildingBlock: MIFKUJ_clean_linker_1, # of connection points: 4
#     Edge 36, Type (0, 1), BuildingBlock: AJUNOK_clean_linker_0, # of connection points: 2
#     Edge 37, Type (0, 1), BuildingBlock: AJUNOK_clean_linker_0, # of connection points: 2
#     Edge 38, Type (0, 1), BuildingBlock: AJUNOK_clean_linker_0, # of connection points: 2
#     Edge 39, Type (0, 1), BuildingBlock: AJUNOK_clean_linker_0, # of connection points: 2
#     Edge 40, Type (0, 1), BuildingBlock: AJUNOK_clean_linker_0, # of connection points: 2
#     Edge 41, Type (0, 1), BuildingBlock: AJUNOK_clean_linker_0, # of connection points: 2
#     Edge 42, Type (0, 1), BuildingBlock: AJUNOK_clean_linker_0, # of connection points: 2
#     Edge 43, Type (0, 1), BuildingBlock: AJUNOK_clean_linker_0, # of connection points: 2
#     Edge 44, Type (0, 1), BuildingBlock: AJUNOK_clean_linker_0, # of connection points: 2
#     Edge 45, Type (0, 1), BuildingBlock: AJUNOK_clean_linker_0, # of connection points: 2
#     Edge 46, Type (0, 1), BuildingBlock: AJUNOK_clean_linker_0, # of connection points: 2
#     Edge 47, Type (0, 1), BuildingBlock: AJUNOK_clean_linker_0, # of connection points: 2
#     Edge 48, Type (0, 1), BuildingBlock: AJUNOK_clean_linker_0, # of connection points: 2
#     Edge 49, Type (0, 1), BuildingBlock: AJUNOK_clean_linker_0, # of connection points: 2
#     Edge 50, Type (0, 1), BuildingBlock: AJUNOK_clean_linker_0, # of connection points: 2
#     Edge 51, Type (0, 1), BuildingBlock: AJUNOK_clean_linker_0, # of connection points: 2
#     Edge 52, Type (0, 1), BuildingBlock: AJUNOK_clean_linker_0, # of connection points: 2
#     Edge 53, Type (0, 1), BuildingBlock: AJUNOK_clean_linker_0, # of connection points: 2
#     Edge 54, Type (0, 1), BuildingBlock: AJUNOK_clean_linker_0, # of connection points: 2
#     Edge 55, Type (0, 1), BuildingBlock: AJUNOK_clean_linker_0, # of connection points: 2
#     Edge 56, Type (0, 1), BuildingBlock: AJUNOK_clean_linker_0, # of connection points: 2
#     Edge 57, Type (0, 1), BuildingBlock: AJUNOK_clean_linker_0, # of connection points: 2
#     Edge 58, Type (0, 1), BuildingBlock: AJUNOK_clean_linker_0, # of connection points: 2
#     Edge 59, Type (0, 1), BuildingBlock: AJUNOK_clean_linker_0, # of connection points: 2
#     Edge 60, Type (0, 1), BuildingBlock: AJUNOK_clean_linker_0, # of connection points: 2
#     Edge 61, Type (0, 1), BuildingBlock: AJUNOK_clean_linker_0, # of connection points: 2
#     Edge 62, Type (0, 1), BuildingBlock: AJUNOK_clean_linker_0, # of connection points: 2
#     Edge 63, Type (0, 1), BuildingBlock: AJUNOK_clean_linker_0, # of connection points: 2
#     Edge 64, Type (0, 1), BuildingBlock: AJUNOK_clean_linker_0, # of connection points: 2
#     Edge 65, Type (0, 1), BuildingBlock: AJUNOK_clean_linker_0, # of connection points: 2
#     Edge 66, Type (0, 1), BuildingBlock: AJUNOK_clean_linker_0, # of connection points: 2
#     Edge 67, Type (0, 1), BuildingBlock: AJUNOK_clean_linker_0, # of connection points: 2
#     Edge 68, Type (0, 1), BuildingBlock: AJUNOK_clean_linker_0, # of connection points: 2
#     Edge 69, Type (0, 1), BuildingBlock: AJUNOK_clean_linker_0, # of connection points: 2
#     Edge 70, Type (0, 1), BuildingBlock: AJUNOK_clean_linker_0, # of connection points: 2
#     Edge 71, Type (0, 1), BuildingBlock: AJUNOK_clean_linker_0, # of connection points: 2
#     Edge 72, Type (0, 1), BuildingBlock: AJUNOK_clean_linker_0, # of connection points: 2
#     Edge 73, Type (0, 1), BuildingBlock: AJUNOK_clean_linker_0, # of connection points: 2
#     Edge 74, Type (0, 1), BuildingBlock: AJUNOK_clean_linker_0, # of connection points: 2
#     Edge 75, Type (0, 1), BuildingBlock: AJUNOK_clean_linker_0, # of connection points: 2
#     Edge 76, Type (0, 1), BuildingBlock: AJUNOK_clean_linker_0, # of connection points: 2
#     Edge 77, Type (0, 1), BuildingBlock: AJUNOK_clean_linker_0, # of connection points: 2
#     Edge 78, Type (0, 1), BuildingBlock: AJUNOK_clean_linker_0, # of connection points: 2
#     Edge 79, Type (0, 1), BuildingBlock: AJUNOK_clean_linker_0, # of connection points: 2
#     Edge 80, Type (0, 1), BuildingBlock: AJUNOK_clean_linker_0, # of connection points: 2
#     Edge 81, Type (0, 1), BuildingBlock: AJUNOK_clean_linker_0, # of connection points: 2
#     Edge 82, Type (0, 1), BuildingBlock: AJUNOK_clean_linker_0, # of connection points: 2
#     Edge 83, Type (0, 1), BuildingBlock: AJUNOK_clean_linker_0, # of connection points: 2
#     Edge 84, Type (0, 1), BuildingBlock: AJUNOK_clean_linker_0, # of connection points: 2
#     Edge 85, Type (0, 1), BuildingBlock: AJUNOK_clean_linker_0, # of connection points: 2
#     Edge 86, Type (0, 1), BuildingBlock: AJUNOK_clean_linker_0, # of connection points: 2
#     Edge 87, Type (0, 1), BuildingBlock: AJUNOK_clean_linker_0, # of connection points: 2
#     Edge 88, Type (0, 1), BuildingBlock: AJUNOK_clean_linker_0, # of connection points: 2
#     Edge 89, Type (0, 1), BuildingBlock: AJUNOK_clean_linker_0, # of connection points: 2
#     Edge 90, Type (0, 1), BuildingBlock: AJUNOK_clean_linker_0, # of connection points: 2
#     Edge 91, Type (0, 1), BuildingBlock: AJUNOK_clean_linker_0, # of connection points: 2
#     Edge 92, Type (0, 1), BuildingBlock: AJUNOK_clean_linker_0, # of connection points: 2
#     Edge 93, Type (0, 1), BuildingBlock: AJUNOK_clean_linker_0, # of connection points: 2
#     Edge 94, Type (0, 1), BuildingBlock: AJUNOK_clean_linker_0, # of connection points: 2
#     Edge 95, Type (0, 1), BuildingBlock: AJUNOK_clean_linker_0, # of connection points: 2
#     Edge 96, Type (0, 1), BuildingBlock: AJUNOK_clean_linker_0, # of connection points: 2
#     Edge 97, Type (0, 1), BuildingBlock: AJUNOK_clean_linker_0, # of connection points: 2
#     Edge 98, Type (0, 1), BuildingBlock: AJUNOK_clean_linker_0, # of connection points: 2
#     Edge 99, Type (0, 1), BuildingBlock: AJUNOK_clean_linker_0, # of connection points: 2
#     Edge 100, Type (0, 1), BuildingBlock: AJUNOK_clean_linker_0, # of connection points: 2
#     Edge 101, Type (0, 1), BuildingBlock: AJUNOK_clean_linker_0, # of connection points: 2
#     Edge 102, Type (0, 1), BuildingBlock: AJUNOK_clean_linker_0, # of connection points: 2
#     Edge 103, Type (0, 1), BuildingBlock: AJUNOK_clean_linker_0, # of connection points: 2
#     Edge 104, Type (0, 1), BuildingBlock: AJUNOK_clean_linker_0, # of connection points: 2
#     Edge 105, Type (0, 1), BuildingBlock: AJUNOK_clean_linker_0, # of connection points: 2
#     Edge 106, Type (0, 1), BuildingBlock: AJUNOK_clean_linker_0, # of connection points: 2
#     Edge 107, Type (0, 1), BuildingBlock: AJUNOK_clean_linker_0, # of connection points: 2
# Relax obj value: 0.067
# Max RMSD: 0.225
# Mean RMSD: 0.108
data_MOF--net-ptr--node1-TATPOV_clean_sbu_0--node2-MIFKUJ_clean_linker_1--edge1-AJUNOK_clean_linker_0
_symmetry_space_group_name_H-M    P1
_symmetry_Int_Tables_number       1
_symmetry_cell_setting            triclinic
loop_
_symmetry_equiv_pos_as_xyz
'x, y, z'
_cell_length_a     70.143884
_cell_length_b     71.097194
_cell_length_c     47.296473
_cell_angle_alpha  89.700551
_cell_angle_beta   90.896751
_cell_angle_gamma 121.42553
loop_
_atom_site_label
_atom_site_type_symbol
_atom_site_fract_x
_atom_site_fract_y
_atom_site_fract_z
_atom_type_partial_charge
Zn0 Zn 0.94896 0.34647 0.02192 0.0
Zn1 Zn 0.99064 0.35516 0.02522 0.0
O2 O 0.97124 0.32217 0.01455 0.0
O3 O 0.93662 0.31447 0.01289 0.0
O4 O 0.02022 0.358 0.03424 0.0
O5 O 0.94977 0.35677 0.06186 0.0
O6 O 0.98514 0.36666 0.06247 0.0
C7 C 0.95053 0.30837 0.01018 0.0
C8 C 0.97997 0.37831 0.97998 0.0
O9 O 0.99461 0.37503 0.99134 0.0
O10 O 0.96029 0.36856 0.98957 0.0
C11 C 0.02847 0.34903 0.01968 0.0
O12 O 0.0187 0.33943 0.99563 0.0
C13 C 0.96858 0.3659 0.0744 0.0
Zn14 Zn 0.64566 0.60241 0.9945 0.0
Zn15 Zn 0.64918 0.6401 0.01167 0.0
O16 O 0.68121 0.64988 0.99847 0.0
O17 O 0.67819 0.61864 0.98601 0.0
O18 O 0.65292 0.66789 0.02858 0.0
O19 O 0.63565 0.58876 0.03297 0.0
O20 O 0.63723 0.61925 0.04606 0.0
C21 C 0.69002 0.63931 0.98932 0.0
C22 C 0.61798 0.61454 0.96233 0.0
O23 O 0.62595 0.63095 0.97919 0.0
O24 O 0.62375 0.60042 0.96447 0.0
C25 C 0.65336 0.68368 0.01526 0.0
O26 O 0.65105 0.68248 0.98759 0.0
C27 C 0.63314 0.59994 0.05162 0.0
Zn28 Zn 0.35114 0.96236 0.03404 0.0
Zn29 Zn 0.35743 0.00161 0.01935 0.0
O30 O 0.32471 0.98339 0.03234 0.0
O31 O 0.31826 0.94979 0.03824 0.0
O32 O 0.35885 0.02867 0.00376 0.0
O33 O 0.36289 0.95937 0.99676 0.0
O34 O 0.36637 0.99085 0.98452 0.0
C35 C 0.31144 0.96311 0.03794 0.0
C36 C 0.38316 0.99948 0.06965 0.0
O37 O 0.38037 0.01148 0.052 0.0
O38 O 0.37226 0.97867 0.06707 0.0
C39 C 0.35463 0.0412 0.01787 0.0
O40 O 0.35057 0.03753 0.04499 0.0
C41 C 0.36805 0.97431 0.97855 0.0
Zn42 Zn 0.04017 0.6417 0.02337 0.0
Zn43 Zn 0.00302 0.64259 0.01681 0.0
O44 O 0.02672 0.67405 0.02998 0.0
O45 O 0.05707 0.67295 0.0378 0.0
O46 O 0.97677 0.64593 0.00724 0.0
O47 O 0.04059 0.63466 0.9823 0.0
O48 O 0.00719 0.63028 0.97917 0.0
C49 C 0.04698 0.68339 0.03843 0.0
C50 C 0.00381 0.61171 0.06011 0.0
O51 O 0.99359 0.62072 0.04981 0.0
O52 O 0.0229 0.61689 0.05126 0.0
C53 C 0.98113 0.66199 0.99104 0.0
O54 O 0.0017 0.67467 0.98223 0.0
C55 C 0.02292 0.62894 0.96816 0.0
Zn56 Zn 0.34932 0.39562 0.02722 0.0
Zn57 Zn 0.35083 0.36014 0.0125 0.0
O58 O 0.3182 0.34803 0.02542 0.0
O59 O 0.31636 0.37762 0.03279 0.0
O60 O 0.34899 0.33295 0.99651 0.0
O61 O 0.36094 0.41006 0.98958 0.0
O62 O 0.36264 0.381 0.97806 0.0
C63 C 0.307 0.35688 0.03177 0.0
C64 C 0.37902 0.38726 0.06234 0.0
O65 O 0.37379 0.37139 0.0453 0.0
O66 O 0.37047 0.3991 0.05947 0.0
C67 C 0.34778 0.31703 0.01042 0.0
O68 O 0.34872 0.31804 0.03818 0.0
C69 C 0.36565 0.39983 0.97195 0.0
Zn70 Zn 0.65376 0.04339 0.99764 0.0
Zn71 Zn 0.65035 0.00473 0.00884 0.0
O72 O 0.68359 0.02593 0.9978 0.0
O73 O 0.68618 0.05759 0.98925 0.0
O74 O 0.64957 0.97697 0.02104 0.0
O75 O 0.64381 0.04482 0.03697 0.0
O76 O 0.63919 0.01215 0.04485 0.0
C77 C 0.69516 0.04611 0.99048 0.0
C78 C 0.62278 0.00753 0.96048 0.0
O79 O 0.62792 0.99577 0.97539 0.0
O80 O 0.63145 0.02788 0.9657 0.0
C81 C 0.6628 0.97124 0.01195 0.0
O82 O 0.677 0.98307 0.99214 0.0
C83 C 0.63793 0.0285 0.05311 0.0
Zn84 Zn 0.61934 0.68727 0.35012 0.0
Zn85 Zn 0.66025 0.69362 0.35433 0.0
O86 O 0.63927 0.66065 0.34452 0.0
O87 O 0.60514 0.65456 0.34454 0.0
O88 O 0.6888 0.69461 0.36458 0.0
O89 O 0.62107 0.69969 0.3889 0.0
O90 O 0.65556 0.70681 0.39075 0.0
C91 C 0.61826 0.64751 0.3418 0.0
C92 C 0.6516 0.71658 0.3069 0.0
O93 O 0.66564 0.71302 0.3195 0.0
O94 O 0.63183 0.70777 0.31605 0.0
C95 C 0.69537 0.68322 0.35213 0.0
O96 O 0.68459 0.67201 0.32933 0.0
C97 C 0.63968 0.70791 0.40177 0.0
Zn98 Zn 0.31193 0.94149 0.32444 0.0
Zn99 Zn 0.31422 0.97856 0.34302 0.0
O100 O 0.34619 0.98886 0.32927 0.0
O101 O 0.34473 0.95818 0.3172 0.0
O102 O 0.31804 0.00597 0.36136 0.0
O103 O 0.30099 0.92672 0.36213 0.0
O104 O 0.30191 0.95666 0.37631 0.0
C105 C 0.35564 0.97887 0.32031 0.0
C106 C 0.28403 0.95421 0.29295 0.0
O107 O 0.29118 0.96999 0.31067 0.0
O108 O 0.29049 0.94057 0.29429 0.0
C109 C 0.31792 0.02183 0.34902 0.0
O110 O 0.31467 0.0209 0.3215 0.0
C111 C 0.29778 0.93723 0.38105 0.0
Zn112 Zn 0.01539 0.29349 0.35954 0.0
Zn113 Zn 0.02327 0.33411 0.35192 0.0
O114 O 0.99011 0.31532 0.36311 0.0
O115 O 0.98269 0.28118 0.36457 0.0
O116 O 0.02637 0.36322 0.34214 0.0
O117 O 0.02674 0.29305 0.32109 0.0
O118 O 0.03251 0.32623 0.31447 0.0
C119 C 0.97634 0.29481 0.36657 0.0
C120 C 0.04743 0.32627 0.39983 0.0
O121 O 0.04483 0.33997 0.38535 0.0
O122 O 0.03655 0.30598 0.39329 0.0
C123 C 0.01543 0.37016 0.35502 0.0
O124 O 0.00358 0.35917 0.37701 0.0
C125 C 0.03304 0.30965 0.30536 0.0
Zn126 Zn 0.71367 0.97476 0.35155 0.0
Zn127 Zn 0.67796 0.97723 0.34039 0.0
O128 O 0.7011 0.00839 0.35469 0.0
O129 O 0.73 0.00579 0.36685 0.0
O130 O 0.65307 0.98111 0.32609 0.0
O131 O 0.7169 0.96825 0.31108 0.0
O132 O 0.68425 0.96504 0.30438 0.0
C133 C 0.72061 0.01689 0.36559 0.0
C134 C 0.67467 0.94545 0.38518 0.0
O135 O 0.66582 0.95529 0.37337 0.0
O136 O 0.69391 0.94978 0.37815 0.0
C137 C 0.64112 0.98573 0.34096 0.0
O138 O 0.64399 0.98728 0.36855 0.0
C139 C 0.70023 0.96326 0.29523 0.0
Zn140 Zn 0.02173 0.73157 0.36664 0.0
Zn141 Zn 0.01824 0.69387 0.34993 0.0
O142 O 0.98596 0.68447 0.36187 0.0
O143 O 0.98896 0.71596 0.373 0.0
O144 O 0.01426 0.6659 0.33319 0.0
O145 O 0.03341 0.74568 0.3289 0.0
O146 O 0.03151 0.71501 0.31593 0.0
C147 C 0.97708 0.69529 0.3698 0.0
C148 C 0.04834 0.71891 0.40026 0.0
O149 O 0.04086 0.70272 0.3831 0.0
O150 O 0.04249 0.73296 0.39791 0.0
C151 C 0.0161 0.6512 0.34614 0.0
O152 O 0.02111 0.65371 0.37328 0.0
C153 C 0.03632 0.73458 0.31056 0.0
Zn154 Zn 0.30246 0.36794 0.33035 0.0
Zn155 Zn 0.3087 0.33532 0.34535 0.0
O156 O 0.33876 0.3582 0.32746 0.0
O157 O 0.33329 0.38482 0.31458 0.0
O158 O 0.31488 0.31284 0.36203 0.0
O159 O 0.29653 0.37299 0.37019 0.0
O160 O 0.29951 0.34465 0.38147 0.0
C161 C 0.34571 0.37682 0.31573 0.0
C162 C 0.2725 0.32624 0.30208 0.0
O163 O 0.28318 0.31902 0.31576 0.0
O164 O 0.27721 0.34588 0.30531 0.0
C165 C 0.31438 0.29679 0.34965 0.0
O166 O 0.30917 0.29347 0.32259 0.0
C167 C 0.2956 0.35957 0.38858 0.0
Zn168 Zn 0.29075 0.02193 0.67043 0.0
Zn169 Zn 0.32971 0.02786 0.68618 0.0
O170 O 0.31004 0.99532 0.67317 0.0
O171 O 0.27599 0.98902 0.6678 0.0
O172 O 0.35669 0.02805 0.702 0.0
O173 O 0.28896 0.03653 0.70582 0.0
O174 O 0.32013 0.03911 0.72034 0.0
C175 C 0.28936 0.98214 0.66769 0.0
C176 C 0.32784 0.0512 0.63389 0.0
O177 O 0.34009 0.04939 0.65258 0.0
O178 O 0.30676 0.04047 0.6361 0.0
C179 C 0.36581 0.01935 0.68867 0.0
O180 O 0.35865 0.01181 0.66296 0.0
C181 C 0.3041 0.04228 0.72455 0.0
Zn182 Zn 0.97356 0.27117 0.65851 0.0
Zn183 Zn 0.97808 0.30753 0.68116 0.0
O184 O 0.00956 0.31879 0.66489 0.0
O185 O 0.00435 0.28923 0.64266 0.0
O186 O 0.98133 0.33429 0.7009 0.0
O187 O 0.96852 0.25669 0.69662 0.0
O188 O 0.96876 0.28535 0.71429 0.0
C189 C 0.01676 0.30939 0.64913 0.0
C190 C 0.9429 0.28216 0.63446 0.0
O191 O 0.95347 0.29916 0.65027 0.0
O192 O 0.94762 0.26725 0.63498 0.0
C193 C 0.98053 0.3498 0.68852 0.0
O194 O 0.97749 0.34881 0.66096 0.0
C195 C 0.96634 0.2664 0.71753 0.0
Zn196 Zn 0.69169 0.63756 0.70288 0.0
Zn197 Zn 0.69016 0.67294 0.68797 0.0
O198 O 0.65866 0.65125 0.70368 0.0
O199 O 0.65974 0.62161 0.71416 0.0
O200 O 0.68692 0.69764 0.67262 0.0
O201 O 0.70076 0.63432 0.6638 0.0
O202 O 0.6998 0.66375 0.65217 0.0
C203 C 0.64929 0.6317 0.71342 0.0
C204 C 0.72189 0.67704 0.73518 0.0
O205 O 0.71478 0.68658 0.71905 0.0
O206 O 0.71457 0.65666 0.73244 0.0
C207 C 0.68615 0.71216 0.68724 0.0
O208 O 0.68809 0.71194 0.71489 0.0
C209 C 0.70335 0.64851 0.64553 0.0
Zn210 Zn 0.37721 0.30947 0.69973 0.0
Zn211 Zn 0.34123 0.31012 0.68268 0.0
O212 O 0.36329 0.34184 0.69691 0.0
O213 O 0.39371 0.34183 0.70863 0.0
O214 O 0.31609 0.31282 0.66637 0.0
O215 O 0.37949 0.29775 0.662 0.0
O216 O 0.34997 0.29866 0.64804 0.0
C217 C 0.38326 0.35188 0.70665 0.0
C218 C 0.3376 0.28145 0.73251 0.0
O219 O 0.32779 0.28764 0.71528 0.0
O220 O 0.35823 0.28851 0.73035 0.0
C221 C 0.30854 0.32354 0.67831 0.0
O222 O 0.31624 0.33205 0.70353 0.0
C223 C 0.36514 0.29441 0.64299 0.0
Zn224 Zn 0.69597 0.07035 0.70416 0.0
Zn225 Zn 0.69263 0.03357 0.68822 0.0
O226 O 0.66095 0.0235 0.70343 0.0
O227 O 0.66496 0.05457 0.71856 0.0
O228 O 0.68995 0.00573 0.6724 0.0
O229 O 0.70241 0.08308 0.66546 0.0
O230 O 0.70221 0.0534 0.65236 0.0
C231 C 0.6529 0.03392 0.71526 0.0
C232 C 0.72746 0.06284 0.7332 0.0
O233 O 0.71758 0.04468 0.71945 0.0
O234 O 0.72138 0.07662 0.7299 0.0
C235 C 0.67451 0.98613 0.67808 0.0
O236 O 0.65932 0.98301 0.69652 0.0
C237 C 0.70505 0.07223 0.64647 0.0
Zn238 Zn 0.98746 0.70978 0.66806 0.0
Zn239 Zn 0.97961 0.66925 0.67685 0.0
O240 O 0.01301 0.68794 0.66617 0.0
O241 O 0.02019 0.72202 0.66434 0.0
O242 O 0.97567 0.64003 0.68882 0.0
O243 O 0.97552 0.71092 0.70573 0.0
O244 O 0.97008 0.67798 0.71334 0.0
C245 C 0.02673 0.70851 0.66301 0.0
C246 C 0.95607 0.67662 0.62766 0.0
O247 O 0.95824 0.66295 0.64286 0.0
O248 O 0.96693 0.69696 0.63388 0.0
C249 C 0.98828 0.6332 0.68094 0.0
O250 O 0.00366 0.64463 0.6621 0.0
C251 C 0.96915 0.69448 0.72178 0.0
H252 H 0.13817 0.34101 0.19584 0.0
H253 H 0.11111 0.34152 0.22708 0.0
H254 H 0.05717 0.2897 0.17753 0.0
H255 H 0.08449 0.28873 0.14673 0.0
H256 H 0.14172 0.30541 0.19312 0.0
H257 H 0.13351 0.35235 0.12588 0.0
H258 H 0.1108 0.36269 0.09782 0.0
H259 H 0.07844 0.29923 0.05606 0.0
H260 H 0.10194 0.28942 0.08344 0.0
H261 H 0.16493 0.28595 0.08234 0.0
H262 H 0.19775 0.29256 0.0558 0.0
H263 H 0.241 0.34213 0.11658 0.0
H264 H 0.20847 0.33644 0.1423 0.0
H265 H 0.1517 0.31382 0.08944 0.0
H266 H 0.17702 0.2775 0.15683 0.0
H267 H 0.20231 0.27496 0.19143 0.0
H268 H 0.20638 0.32855 0.23904 0.0
H269 H 0.18215 0.33167 0.20448 0.0
C270 C 0.11335 0.31465 0.16918 0.0
C271 C 0.1205 0.33 0.19139 0.0
C272 C 0.10502 0.33039 0.20911 0.0
C273 C 0.08205 0.31541 0.205 0.0
C274 C 0.07481 0.30115 0.18147 0.0
C275 C 0.09037 0.30071 0.16373 0.0
C276 C 0.13002 0.31174 0.15414 0.0
C277 C 0.14411 0.30739 0.17044 0.0
C278 C 0.13256 0.31373 0.12457 0.0
C279 C 0.11931 0.3201 0.10676 0.0
C280 C 0.12167 0.34078 0.11046 0.0
C281 C 0.10865 0.34663 0.09445 0.0
C282 C 0.09291 0.33187 0.07452 0.0
C283 C 0.09079 0.31123 0.07067 0.0
C284 C 0.10405 0.30549 0.08646 0.0
C285 C 0.18417 0.3104 0.11467 0.0
C286 C 0.18148 0.29801 0.09021 0.0
C287 C 0.20014 0.30165 0.07517 0.0
C288 C 0.2217 0.31753 0.0846 0.0
C289 C 0.22446 0.32947 0.10939 0.0
C290 C 0.20587 0.32611 0.12413 0.0
C291 C 0.16444 0.30852 0.12869 0.0
C292 C 0.14935 0.31153 0.11208 0.0
C293 C 0.1617 0.30637 0.15841 0.0
C294 C 0.17752 0.30469 0.17809 0.0
C295 C 0.18353 0.2888 0.17459 0.0
C296 C 0.1978 0.28724 0.19437 0.0
C297 C 0.20576 0.30123 0.21811 0.0
C298 C 0.19999 0.31723 0.22126 0.0
C299 C 0.18616 0.31901 0.20147 0.0
H300 H 0.71908 0.88433 0.17895 0.0
H301 H 0.72345 0.91298 0.21092 0.0
H302 H 0.66187 0.90537 0.17838 0.0
H303 H 0.65667 0.8753 0.14787 0.0
H304 H 0.68761 0.84344 0.18285 0.0
H305 H 0.70959 0.89828 0.10782 0.0
H306 H 0.7051 0.92563 0.08162 0.0
H307 H 0.63784 0.87504 0.05786 0.0
H308 H 0.64221 0.84786 0.08452 0.0
H309 H 0.64139 0.79147 0.0819 0.0
H310 H 0.63614 0.75886 0.0571 0.0
H311 H 0.69768 0.76969 0.09427 0.0
H312 H 0.70302 0.80232 0.11884 0.0
H313 H 0.67069 0.83303 0.08003 0.0
H314 H 0.64573 0.77903 0.15117 0.0
H315 H 0.64079 0.75193 0.18682 0.0
H316 H 0.70551 0.79847 0.22307 0.0
H317 H 0.71087 0.82518 0.18654 0.0
C318 C 0.68764 0.87769 0.16077 0.0
C319 C 0.70664 0.88899 0.17837 0.0
C320 C 0.70929 0.90568 0.1964 0.0
C321 C 0.69322 0.91184 0.19691 0.0
C322 C 0.67458 0.90107 0.17848 0.0
C323 C 0.67172 0.88403 0.16076 0.0
C324 C 0.68364 0.85791 0.1449 0.0
C325 C 0.68451 0.8414 0.1602 0.0
C326 C 0.67814 0.85465 0.11569 0.0
C327 C 0.67613 0.87108 0.09844 0.0
C328 C 0.69387 0.89309 0.09701 0.0
C329 C 0.69134 0.90866 0.08194 0.0
C330 C 0.67102 0.90249 0.06806 0.0
C331 C 0.65353 0.88032 0.06882 0.0
C332 C 0.65608 0.86476 0.08382 0.0
C333 C 0.67244 0.79921 0.1026 0.0
C334 C 0.65381 0.78688 0.08464 0.0
C335 C 0.65081 0.76827 0.07049 0.0
C336 C 0.66634 0.7616 0.0741 0.0
C337 C 0.68519 0.77418 0.09162 0.0
C338 C 0.68824 0.79282 0.10566 0.0
C339 C 0.67552 0.81885 0.1179 0.0
C340 C 0.67428 0.83523 0.10257 0.0
C341 C 0.68022 0.8218 0.14733 0.0
C342 C 0.67874 0.80416 0.16598 0.0
C343 C 0.65923 0.78316 0.16611 0.0
C344 C 0.65631 0.76775 0.18671 0.0
C345 C 0.67275 0.77306 0.20778 0.0
C346 C 0.6927 0.79371 0.20687 0.0
C347 C 0.69568 0.80907 0.18613 0.0
H348 H 0.09838 0.83967 0.19262 0.0
H349 H 0.07528 0.81204 0.22738 0.0
H350 H 0.09329 0.76743 0.19234 0.0
H351 H 0.11842 0.79612 0.15984 0.0
H352 H 0.14172 0.85954 0.19127 0.0
H353 H 0.08218 0.80776 0.1226 0.0
H354 H 0.0616 0.77074 0.10109 0.0
H355 H 0.12376 0.77953 0.07197 0.0
H356 H 0.14418 0.81553 0.09447 0.0
H357 H 0.18821 0.8626 0.09503 0.0
H358 H 0.22294 0.88766 0.07137 0.0
H359 H 0.21597 0.94264 0.09367 0.0
H360 H 0.1812 0.91726 0.11835 0.0
H361 H 0.14657 0.85179 0.08804 0.0
H362 H 0.202 0.88071 0.15787 0.0
H363 H 0.2327 0.90562 0.18909 0.0
H364 H 0.19324 0.93134 0.2206 0.0
H365 H 0.16213 0.90589 0.1892 0.0
C366 C 0.10998 0.81999 0.17326 0.0
C367 C 0.09735 0.82393 0.19239 0.0
C368 C 0.08396 0.80798 0.21214 0.0
C369 C 0.08255 0.7875 0.21298 0.0
C370 C 0.09444 0.7832 0.19294 0.0
C371 C 0.10843 0.79946 0.17377 0.0
C372 C 0.12639 0.83823 0.15505 0.0
C373 C 0.14231 0.85804 0.16852 0.0
C374 C 0.12813 0.8358 0.12561 0.0
C375 C 0.11478 0.81436 0.11053 0.0
C376 C 0.09132 0.80166 0.1116 0.0
C377 C 0.0796 0.78063 0.09919 0.0
C378 C 0.09118 0.77215 0.08543 0.0
C379 C 0.11446 0.78541 0.08309 0.0
C380 C 0.12612 0.80614 0.09568 0.0
C381 C 0.18211 0.88806 0.10839 0.0
C382 C 0.19396 0.88001 0.09454 0.0
C383 C 0.21382 0.89437 0.08097 0.0
C384 C 0.22223 0.91714 0.08066 0.0
C385 C 0.21008 0.92521 0.09394 0.0
C386 C 0.19019 0.91076 0.10786 0.0
C387 C 0.16197 0.87249 0.12446 0.0
C388 C 0.14524 0.8535 0.1106 0.0
C389 C 0.16066 0.87469 0.1539 0.0
C390 C 0.17994 0.89178 0.17072 0.0
C391 C 0.20014 0.89217 0.17082 0.0
C392 C 0.21775 0.90652 0.18865 0.0
C393 C 0.21561 0.92084 0.20688 0.0
C394 C 0.19544 0.92064 0.20659 0.0
C395 C 0.17771 0.90616 0.18867 0.0
H396 H 0.27717 0.16983 0.85136 0.0
H397 H 0.27721 0.19596 0.8172 0.0
H398 H 0.34642 0.2426 0.83844 0.0
H399 H 0.34613 0.21678 0.87273 0.0
H400 H 0.30338 0.15251 0.84702 0.0
H401 H 0.2919 0.19419 0.91527 0.0
H402 H 0.29891 0.22774 0.93908 0.0
H403 H 0.36383 0.24124 0.96657 0.0
H404 H 0.35708 0.20793 0.94214 0.0
H405 H 0.3595 0.15633 0.94088 0.0
H406 H 0.36844 0.13223 0.96763 0.0
H407 H 0.30479 0.07579 0.94291 0.0
H408 H 0.29539 0.0999 0.91713 0.0
H409 H 0.33002 0.16667 0.94676 0.0
H410 H 0.34668 0.1357 0.86314 0.0
H411 H 0.34339 0.1094 0.82714 0.0
H412 H 0.2715 0.07765 0.82858 0.0
H413 H 0.27502 0.10466 0.8634 0.0
C414 C 0.31161 0.1914 0.8647 0.0
C415 C 0.2922 0.18586 0.84895 0.0
C416 C 0.29229 0.20072 0.82934 0.0
C417 C 0.31189 0.22124 0.82489 0.0
C418 C 0.33098 0.22704 0.84156 0.0
C419 C 0.33085 0.21227 0.8612 0.0
C420 C 0.31269 0.17469 0.8824 0.0
C421 C 0.30871 0.15537 0.86906 0.0
C422 C 0.32029 0.17878 0.91091 0.0
C423 C 0.32409 0.19864 0.92646 0.0
C424 C 0.30775 0.20444 0.92614 0.0
C425 C 0.31173 0.22358 0.93979 0.0
C426 C 0.33201 0.23716 0.95434 0.0
C427 C 0.34807 0.23103 0.95546 0.0
C428 C 0.34419 0.21199 0.94156 0.0
C429 C 0.32687 0.12996 0.9266 0.0
C430 C 0.34737 0.13879 0.94132 0.0
C431 C 0.35249 0.12506 0.9566 0.0
C432 C 0.33727 0.10224 0.95726 0.0
C433 C 0.31683 0.09336 0.94249 0.0
C434 C 0.31156 0.10711 0.92757 0.0
C435 C 0.32136 0.14479 0.91103 0.0
C436 C 0.32442 0.16369 0.92484 0.0
C437 C 0.31322 0.14057 0.8828 0.0
C438 C 0.31109 0.12214 0.86577 0.0
C439 C 0.33023 0.1228 0.85604 0.0
C440 C 0.32831 0.10776 0.8355 0.0
C441 C 0.30721 0.09179 0.8245 0.0
C442 C 0.28802 0.09019 0.83596 0.0
C443 C 0.28997 0.10544 0.85606 0.0
H444 H 0.8442 0.0952 0.84105 0.0
H445 H 0.81372 0.07524 0.8062 0.0
H446 H 0.77735 0.1019 0.8444 0.0
H447 H 0.80774 0.12202 0.87874 0.0
H448 H 0.86559 0.14059 0.8399 0.0
H449 H 0.82221 0.08331 0.90985 0.0
H450 H 0.7857 0.06157 0.9323 0.0
H451 H 0.79498 0.12079 0.97075 0.0
H452 H 0.83024 0.14252 0.94682 0.0
H453 H 0.88495 0.20256 0.89272 0.0
H454 H 0.90342 0.23683 0.91966 0.0
H455 H 0.93125 0.20962 0.97703 0.0
H456 H 0.91313 0.17525 0.9493 0.0
H457 H 0.86766 0.14981 0.94381 0.0
H458 H 0.8709 0.18019 0.83391 0.0
H459 H 0.89457 0.20856 0.79999 0.0
H460 H 0.95308 0.21356 0.83908 0.0
H461 H 0.92915 0.18493 0.87333 0.0
C462 C 0.82816 0.10992 0.86272 0.0
C463 C 0.82929 0.09608 0.84254 0.0
C464 C 0.81191 0.08465 0.82275 0.0
C465 C 0.79331 0.08706 0.82286 0.0
C466 C 0.7915 0.09966 0.84421 0.0
C467 C 0.80881 0.11108 0.86388 0.0
C468 C 0.84848 0.12624 0.87875 0.0
C469 C 0.86626 0.14231 0.86274 0.0
C470 C 0.84892 0.12886 0.90851 0.0
C471 C 0.82897 0.1147 0.92614 0.0
C472 C 0.81646 0.09159 0.92328 0.0
C473 C 0.79571 0.07911 0.93643 0.0
C474 C 0.78742 0.08952 0.95313 0.0
C475 C 0.8008 0.11235 0.95771 0.0
C476 C 0.82117 0.12478 0.94422 0.0
C477 C 0.89806 0.18646 0.91856 0.0
C478 C 0.89569 0.20416 0.91042 0.0
C479 C 0.90599 0.22365 0.92609 0.0
C480 C 0.91871 0.22583 0.95043 0.0
C481 C 0.92174 0.20844 0.95815 0.0
C482 C 0.91139 0.18884 0.94237 0.0
C483 C 0.88383 0.16468 0.9047 0.0
C484 C 0.8674 0.1475 0.92112 0.0
C485 C 0.88326 0.162 0.87506 0.0
C486 C 0.89824 0.18026 0.85593 0.0
C487 C 0.88883 0.18743 0.83531 0.0
C488 C 0.90236 0.20377 0.81611 0.0
C489 C 0.9256 0.21315 0.81688 0.0
C490 C 0.93516 0.20643 0.83797 0.0
C491 C 0.92156 0.19017 0.8575 0.0
H492 H 0.82465 0.68251 0.81891 0.0
H493 H 0.79697 0.68344 0.78819 0.0
H494 H 0.79337 0.7284 0.84548 0.0
H495 H 0.82231 0.72858 0.87591 0.0
H496 H 0.86308 0.70779 0.83338 0.0
H497 H 0.79765 0.66667 0.88376 0.0
H498 H 0.76274 0.65464 0.90826 0.0
H499 H 0.79778 0.70782 0.96834 0.0
H500 H 0.83302 0.72008 0.9435 0.0
H501 H 0.90293 0.72126 0.94212 0.0
H502 H 0.92788 0.71209 0.96744 0.0
H503 H 0.89797 0.65036 0.92195 0.0
H504 H 0.87303 0.65952 0.89694 0.0
H505 H 0.8522 0.69417 0.93645 0.0
H506 H 0.92074 0.72484 0.87509 0.0
H507 H 0.94702 0.72186 0.8443 0.0
H508 H 0.89147 0.66662 0.80114 0.0
H509 H 0.86551 0.66956 0.83184 0.0
C510 C 0.8257 0.70549 0.84987 0.0
C511 C 0.81845 0.69307 0.82472 0.0
C512 C 0.80261 0.69354 0.80715 0.0
C513 C 0.7934 0.70618 0.81447 0.0
C514 C 0.80054 0.71874 0.83941 0.0
C515 C 0.81684 0.71863 0.85686 0.0
C516 C 0.84224 0.70413 0.86857 0.0
C517 C 0.86058 0.70486 0.85594 0.0
C518 C 0.83912 0.70013 0.89804 0.0
C519 C 0.81789 0.69441 0.91164 0.0
C520 C 0.79782 0.67606 0.90184 0.0
C521 C 0.77794 0.66912 0.91591 0.0
C522 C 0.77773 0.68029 0.94016 0.0
C523 C 0.79762 0.69906 0.94958 0.0
C524 C 0.81766 0.70597 0.93553 0.0
C525 C 0.88629 0.69112 0.9176 0.0
C526 C 0.90159 0.70565 0.93793 0.0
C527 C 0.91582 0.70043 0.95227 0.0
C528 C 0.9147 0.68045 0.94677 0.0
C529 C 0.89892 0.66568 0.92694 0.0
C530 C 0.88482 0.67097 0.9125 0.0
C531 C 0.87237 0.69725 0.90087 0.0
C532 C 0.85482 0.69773 0.91403 0.0
C533 C 0.87499 0.70048 0.87141 0.0
C534 C 0.89124 0.69749 0.85556 0.0
C535 C 0.91434 0.71183 0.85937 0.0
C536 C 0.92927 0.71011 0.84184 0.0
C537 C 0.92125 0.69387 0.82056 0.0
C538 C 0.89815 0.67897 0.81773 0.0
C539 C 0.8833 0.6808 0.83503 0.0
H540 H 0.80454 0.6794 0.52795 0.0
H541 H 0.77799 0.68015 0.56004 0.0
H542 H 0.72492 0.61907 0.52401 0.0
H543 H 0.75171 0.61842 0.49168 0.0
H544 H 0.81286 0.6452 0.52997 0.0
H545 H 0.79724 0.68529 0.46309 0.0
H546 H 0.77423 0.69499 0.43467 0.0
H547 H 0.74209 0.631 0.39433 0.0
H548 H 0.7659 0.62176 0.42218 0.0
H549 H 0.83562 0.61967 0.42492 0.0
H550 H 0.86929 0.62847 0.39831 0.0
H551 H 0.90634 0.69092 0.44193 0.0
H552 H 0.87301 0.68226 0.46812 0.0
H553 H 0.81567 0.64755 0.42523 0.0
H554 H 0.84855 0.61879 0.49546 0.0
H555 H 0.88017 0.62384 0.52513 0.0
H556 H 0.88701 0.68283 0.56081 0.0
H557 H 0.8557 0.67781 0.53158 0.0
C558 C 0.78007 0.64883 0.50754 0.0
C559 C 0.78709 0.66643 0.52651 0.0
C560 C 0.77189 0.66693 0.54467 0.0
C561 C 0.74939 0.64974 0.54434 0.0
C562 C 0.74217 0.63255 0.52454 0.0
C563 C 0.7574 0.63219 0.50609 0.0
C564 C 0.79695 0.64688 0.49159 0.0
C565 C 0.81335 0.64546 0.50704 0.0
C566 C 0.79764 0.64746 0.46177 0.0
C567 C 0.78311 0.65274 0.44487 0.0
C568 C 0.78521 0.67335 0.44812 0.0
C569 C 0.77207 0.67887 0.43185 0.0
C570 C 0.75645 0.66386 0.41203 0.0
C571 C 0.75434 0.64316 0.40888 0.0
C572 C 0.76774 0.63774 0.42497 0.0
C573 C 0.85193 0.65025 0.44862 0.0
C574 C 0.85108 0.63515 0.42882 0.0
C575 C 0.87023 0.64012 0.41377 0.0
C576 C 0.89022 0.6604 0.41805 0.0
C577 C 0.89103 0.67525 0.43816 0.0
C578 C 0.87207 0.67026 0.45322 0.0
C579 C 0.83172 0.64598 0.46368 0.0
C580 C 0.8146 0.64621 0.44808 0.0
C581 C 0.83107 0.64562 0.49356 0.0
C582 C 0.84979 0.64794 0.51134 0.0
C583 C 0.85689 0.63277 0.50972 0.0
C584 C 0.87482 0.6356 0.52664 0.0
C585 C 0.88601 0.65381 0.54496 0.0
C586 C 0.87875 0.66879 0.54661 0.0
C587 C 0.86081 0.66586 0.53006 0.0
H588 H 0.39374 0.23061 0.50707 0.0
H589 H 0.39734 0.2581 0.54115 0.0
H590 H 0.32591 0.23008 0.53654 0.0
H591 H 0.32269 0.20341 0.50139 0.0
H592 H 0.36389 0.18344 0.52058 0.0
H593 H 0.37559 0.2374 0.44984 0.0
H594 H 0.36774 0.2628 0.42448 0.0
H595 H 0.30237 0.20842 0.40085 0.0
H596 H 0.31 0.18306 0.42672 0.0
H597 H 0.31018 0.12976 0.42433 0.0
H598 H 0.30302 0.09681 0.39858 0.0
H599 H 0.36698 0.10814 0.4269 0.0
H600 H 0.37429 0.14121 0.45224 0.0
H601 H 0.33864 0.17102 0.42025 0.0
H602 H 0.31816 0.12154 0.49686 0.0
H603 H 0.31577 0.09465 0.531 0.0
H604 H 0.38702 0.13495 0.54656 0.0
H605 H 0.38897 0.1625 0.51335 0.0
C606 C 0.35798 0.2151 0.50164 0.0
C607 C 0.37898 0.23083 0.51286 0.0
C608 C 0.38096 0.24643 0.53243 0.0
C609 C 0.36192 0.24633 0.54163 0.0
C610 C 0.34099 0.23103 0.52949 0.0
C611 C 0.33908 0.21565 0.50953 0.0
C612 C 0.35547 0.1965 0.4846 0.0
C613 C 0.35891 0.18099 0.49841 0.0
C614 C 0.34774 0.19277 0.45618 0.0
C615 C 0.34326 0.20832 0.44063 0.0
C616 C 0.35943 0.23095 0.43961 0.0
C617 C 0.35498 0.24544 0.42503 0.0
C618 C 0.33438 0.23755 0.41097 0.0
C619 C 0.31839 0.21489 0.4115 0.0
C620 C 0.32276 0.20043 0.42627 0.0
C621 C 0.34265 0.13787 0.4406 0.0
C622 C 0.32272 0.12522 0.42493 0.0
C623 C 0.31862 0.1064 0.41025 0.0
C624 C 0.33432 0.0998 0.41108 0.0
C625 C 0.35438 0.1126 0.42641 0.0
C626 C 0.35854 0.13148 0.44093 0.0
C627 C 0.34699 0.15786 0.45628 0.0
C628 C 0.34396 0.17364 0.44227 0.0
C629 C 0.35418 0.16147 0.48492 0.0
C630 C 0.35373 0.14397 0.50258 0.0
C631 C 0.33331 0.12444 0.50735 0.0
C632 C 0.33202 0.10905 0.52687 0.0
C633 C 0.35117 0.11272 0.54188 0.0
C634 C 0.37184 0.13187 0.53602 0.0
C635 C 0.37304 0.1475 0.51682 0.0
H636 H 0.75219 0.16289 0.50387 0.0
H637 H 0.72646 0.13499 0.53722 0.0
H638 H 0.76981 0.10874 0.5432 0.0
H639 H 0.79475 0.13596 0.50878 0.0
H640 H 0.80462 0.19097 0.52372 0.0
H641 H 0.75048 0.13875 0.45108 0.0
H642 H 0.73177 0.10216 0.42863 0.0
H643 H 0.79608 0.11151 0.40903 0.0
H644 H 0.81459 0.14718 0.43261 0.0
H645 H 0.85808 0.19555 0.43461 0.0
H646 H 0.89216 0.22062 0.40981 0.0
H647 H 0.88092 0.27406 0.4243 0.0
H648 H 0.84681 0.2487 0.45033 0.0
H649 H 0.81644 0.18333 0.42247 0.0
H650 H 0.8693 0.21689 0.49336 0.0
H651 H 0.89767 0.24183 0.52707 0.0
H652 H 0.85155 0.25846 0.561 0.0
H653 H 0.82311 0.23394 0.52606 0.0
C654 C 0.77523 0.15134 0.50393 0.0
C655 C 0.75575 0.1507 0.51183 0.0
C656 C 0.74114 0.13481 0.5309 0.0
C657 C 0.74605 0.11959 0.54283 0.0
C658 C 0.76521 0.1198 0.53393 0.0
C659 C 0.77961 0.13549 0.5145 0.0
C660 C 0.79219 0.16991 0.48708 0.0
C661 C 0.80693 0.1897 0.50133 0.0
C662 C 0.79594 0.16734 0.45852 0.0
C663 C 0.78396 0.14563 0.44392 0.0
C664 C 0.76052 0.13278 0.44225 0.0
C665 C 0.74986 0.11202 0.42918 0.0
C666 C 0.76251 0.10388 0.41755 0.0
C667 C 0.78591 0.11711 0.41843 0.0
C668 C 0.79649 0.13764 0.43164 0.0
C669 C 0.84987 0.22025 0.44415 0.0
C670 C 0.86285 0.21264 0.43238 0.0
C671 C 0.8823 0.22699 0.41809 0.0
C672 C 0.88914 0.24929 0.41488 0.0
C673 C 0.87617 0.25701 0.42669 0.0
C674 C 0.85668 0.24256 0.44141 0.0
C675 C 0.82925 0.20438 0.45913 0.0
C676 C 0.81369 0.18514 0.44455 0.0
C677 C 0.82615 0.20658 0.48816 0.0
C678 C 0.84417 0.22398 0.50639 0.0
C679 C 0.86547 0.22663 0.507 0.0
C680 C 0.88172 0.24083 0.52648 0.0
C681 C 0.87693 0.25238 0.5463 0.0
C682 C 0.85572 0.24995 0.54568 0.0
C683 C 0.83951 0.23596 0.52577 0.0
H684 H 0.95298 0.50248 0.18049 0.0
H685 H 0.95204 0.52662 0.14406 0.0
H686 H 0.01619 0.57981 0.17338 0.0
H687 H 0.01779 0.55547 0.20884 0.0
H688 H 0.97967 0.48881 0.18136 0.0
H689 H 0.96469 0.52945 0.24813 0.0
H690 H 0.96974 0.56216 0.27225 0.0
H691 H 0.03557 0.57871 0.30036 0.0
H692 H 0.03061 0.54609 0.27597 0.0
H693 H 0.03287 0.48983 0.27463 0.0
H694 H 0.0387 0.46426 0.30319 0.0
H695 H 0.97004 0.41292 0.28781 0.0
H696 H 0.96423 0.43851 0.25943 0.0
H697 H 0.00325 0.50405 0.28208 0.0
H698 H 0.01663 0.46201 0.21375 0.0
H699 H 0.01177 0.43149 0.18439 0.0
H700 H 0.94664 0.41808 0.15767 0.0
H701 H 0.95095 0.44748 0.18828 0.0
C702 C 0.98543 0.5271 0.19758 0.0
C703 C 0.96672 0.51943 0.17942 0.0
C704 C 0.96609 0.5332 0.15873 0.0
C705 C 0.98394 0.55501 0.15624 0.0
C706 C 0.00207 0.56311 0.17531 0.0
C707 C 0.00293 0.54921 0.19564 0.0
C708 C 0.9877 0.51134 0.21606 0.0
C709 C 0.98427 0.49191 0.2036 0.0
C710 C 0.99455 0.51578 0.24484 0.0
C711 C 0.9974 0.53545 0.25984 0.0
C712 C 0.98032 0.54022 0.25921 0.0
C713 C 0.9832 0.55891 0.27299 0.0
C714 C 0.00316 0.57309 0.28786 0.0
C715 C 0.02003 0.56804 0.28904 0.0
C716 C 0.01719 0.54942 0.27513 0.0
C717 C 0.99815 0.46601 0.26483 0.0
C718 C 0.01906 0.4731 0.27756 0.0
C719 C 0.0224 0.45852 0.29375 0.0
C720 C 0.00477 0.43675 0.29785 0.0
C721 C 0.9838 0.42974 0.28529 0.0
C722 C 0.98052 0.44425 0.26892 0.0
C723 C 0.99479 0.48143 0.24736 0.0
C724 C 0.99823 0.50085 0.25997 0.0
C725 C 0.98759 0.47682 0.21878 0.0
C726 C 0.98405 0.45694 0.20354 0.0
C727 C 0.00099 0.45201 0.20234 0.0
C728 C 0.99829 0.43469 0.1853 0.0
C729 C 0.9787 0.42213 0.16891 0.0
C730 C 0.96165 0.42689 0.17062 0.0
C731 C 0.96423 0.44395 0.18787 0.0
H732 H 0.4961 0.43073 0.17752 0.0
H733 H 0.46498 0.40666 0.14529 0.0
H734 H 0.43743 0.44814 0.15658 0.0
H735 H 0.46769 0.47113 0.18965 0.0
H736 H 0.52513 0.48183 0.1699 0.0
H737 H 0.47576 0.4246 0.23644 0.0
H738 H 0.43834 0.40086 0.25613 0.0
H739 H 0.43763 0.45864 0.28194 0.0
H740 H 0.47444 0.48219 0.26164 0.0
H741 H 0.52347 0.53148 0.25624 0.0
H742 H 0.5452 0.56465 0.2846 0.0
H743 H 0.60193 0.5563 0.2824 0.0
H744 H 0.58005 0.52317 0.25263 0.0
H745 H 0.51368 0.48957 0.27126 0.0
H746 H 0.55315 0.54575 0.20305 0.0
H747 H 0.58069 0.57287 0.17103 0.0
H748 H 0.59308 0.52346 0.13888 0.0
H749 H 0.56744 0.49721 0.1731 0.0
C750 C 0.48404 0.45256 0.18602 0.0
C751 C 0.48318 0.43441 0.17312 0.0
C752 C 0.46551 0.42082 0.15454 0.0
C753 C 0.44876 0.42554 0.14812 0.0
C754 C 0.44981 0.44377 0.16129 0.0
C755 C 0.46717 0.45704 0.1801 0.0
C756 C 0.50289 0.46772 0.20483 0.0
C757 C 0.52313 0.4832 0.19236 0.0
C758 C 0.4996 0.46982 0.23373 0.0
C759 C 0.47781 0.45517 0.24734 0.0
C760 C 0.46751 0.43212 0.24633 0.0
C761 C 0.44627 0.4186 0.25771 0.0
C762 C 0.43509 0.428 0.27015 0.0
C763 C 0.44578 0.45103 0.27202 0.0
C764 C 0.46688 0.46447 0.26065 0.0
C765 C 0.55009 0.52478 0.25256 0.0
C766 C 0.54057 0.53672 0.2619 0.0
C767 C 0.55295 0.55555 0.27841 0.0
C768 C 0.57505 0.56268 0.28659 0.0
C769 C 0.58484 0.55103 0.27668 0.0
C770 C 0.57242 0.53217 0.25971 0.0
C771 C 0.53587 0.50427 0.2362 0.0
C772 C 0.51642 0.48772 0.24919 0.0
C773 C 0.53952 0.5019 0.20741 0.0
C774 C 0.55854 0.51946 0.19118 0.0
C775 C 0.56268 0.54105 0.1903 0.0
C776 C 0.57816 0.55649 0.17146 0.0
C777 C 0.58934 0.55051 0.15242 0.0
C778 C 0.5855 0.52902 0.15379 0.0
C779 C 0.57052 0.51381 0.17317 0.0
H780 H 0.56691 0.0587 0.17067 0.0
H781 H 0.59323 0.05921 0.13741 0.0
H782 H 0.57912 0.996 0.16852 0.0
H783 H 0.5513 0.99476 0.2003 0.0
H784 H 0.52437 0.03192 0.1691 0.0
H785 H 0.58216 0.04595 0.23933 0.0
H786 H 0.60737 0.03787 0.26593 0.0
H787 H 0.55079 0.97637 0.29383 0.0
H788 H 0.52568 0.98413 0.26681 0.0
H789 H 0.47205 0.98487 0.26401 0.0
H790 H 0.43822 0.97839 0.28701 0.0
H791 H 0.45469 0.04421 0.26488 0.0
H792 H 0.48829 0.05036 0.24114 0.0
H793 H 0.5162 0.01438 0.27142 0.0
H794 H 0.46238 0.99112 0.19807 0.0
H795 H 0.43278 0.9887 0.16784 0.0
H796 H 0.47561 0.05711 0.14481 0.0
H797 H 0.50567 0.05918 0.17463 0.0
C798 C 0.55724 0.02684 0.18832 0.0
C799 C 0.56962 0.04503 0.17059 0.0
C800 C 0.58498 0.04544 0.15182 0.0
C801 C 0.58872 0.02785 0.15067 0.0
C802 C 0.57672 0.00985 0.16894 0.0
C803 C 0.56099 0.00926 0.18739 0.0
C804 C 0.53905 0.02556 0.20558 0.0
C805 C 0.52304 0.02869 0.19166 0.0
C806 C 0.53642 0.02003 0.23473 0.0
C807 C 0.552 0.01558 0.25086 0.0
C808 C 0.57518 0.03065 0.25097 0.0
C809 C 0.58955 0.02609 0.26625 0.0
C810 C 0.58094 0.00661 0.28209 0.0
C811 C 0.55779 0.99166 0.28216 0.0
C812 C 0.54347 0.99609 0.26668 0.0
C813 C 0.48258 0.01802 0.25072 0.0
C814 C 0.46849 0.99797 0.26434 0.0
C815 C 0.44919 0.99433 0.27751 0.0
C816 C 0.44369 0.01073 0.27754 0.0
C817 C 0.45823 0.03109 0.26468 0.0
C818 C 0.47747 0.03467 0.25128 0.0
C819 C 0.50207 0.02108 0.23492 0.0
C820 C 0.5181 0.01821 0.24902 0.0
C821 C 0.50437 0.02598 0.20577 0.0
C822 C 0.48611 0.0254 0.18885 0.0
C823 C 0.46529 0.00572 0.18692 0.0
C824 C 0.44829 0.00443 0.1698 0.0
C825 C 0.45163 0.02288 0.15442 0.0
C826 C 0.47249 0.04267 0.15653 0.0
C827 C 0.48964 0.04388 0.17353 0.0
H828 H 0.47342 0.00426 0.86844 0.0
H829 H 0.44652 0.0035 0.90129 0.0
H830 H 0.39266 0.94915 0.85479 0.0
H831 H 0.41982 0.9498 0.82193 0.0
H832 H 0.48156 0.97172 0.86139 0.0
H833 H 0.46184 0.01476 0.80462 0.0
H834 H 0.43866 0.02532 0.77804 0.0
H835 H 0.41324 0.967 0.7261 0.0
H836 H 0.43697 0.95686 0.75231 0.0
H837 H 0.52005 0.95345 0.79132 0.0
H838 H 0.55621 0.96441 0.77045 0.0
H839 H 0.561 0.02363 0.73823 0.0
H840 H 0.52553 0.01318 0.75993 0.0
H841 H 0.4841 0.98255 0.75753 0.0
H842 H 0.5018 0.94314 0.85268 0.0
H843 H 0.53289 0.94754 0.88248 0.0
H844 H 0.57041 0.01707 0.8628 0.0
H845 H 0.53994 0.01224 0.83209 0.0
C846 C 0.44862 0.97697 0.84293 0.0
C847 C 0.4558 0.99229 0.86515 0.0
C848 C 0.44043 0.99195 0.88377 0.0
C849 C 0.41757 0.97616 0.88066 0.0
C850 C 0.41024 0.96133 0.85777 0.0
C851 C 0.42569 0.96176 0.83897 0.0
C852 C 0.46542 0.97629 0.82512 0.0
C853 C 0.48186 0.97367 0.83859 0.0
C854 C 0.46616 0.97942 0.79553 0.0
C855 C 0.45097 0.98492 0.78058 0.0
C856 C 0.45113 0.00416 0.78766 0.0
C857 C 0.43793 0.0102 0.77241 0.0
C858 C 0.42434 0.99716 0.7497 0.0
C859 C 0.42396 0.97771 0.74297 0.0
C860 C 0.43731 0.97176 0.7581 0.0
C861 C 0.52021 0.98264 0.77754 0.0
C862 C 0.5288 0.96868 0.77951 0.0
C863 C 0.54931 0.97481 0.76735 0.0
C864 C 0.56138 0.99489 0.75285 0.0
C865 C 0.55208 0.00813 0.74949 0.0
C866 C 0.53173 0.00209 0.76171 0.0
C867 C 0.50041 0.97827 0.79387 0.0
C868 C 0.48329 0.97972 0.78016 0.0
C869 C 0.49965 0.97527 0.82351 0.0
C870 C 0.51878 0.97731 0.83992 0.0
C871 C 0.51697 0.95919 0.85442 0.0
C872 C 0.53469 0.96176 0.87149 0.0
C873 C 0.55436 0.98257 0.87465 0.0
C874 C 0.55595 0.00064 0.86005 0.0
C875 C 0.53844 0.99798 0.84269 0.0
H876 H 0.03906 0.54724 0.85487 0.0
H877 H 0.04354 0.57663 0.8856 0.0
H878 H 0.98082 0.56694 0.85429 0.0
H879 H 0.97572 0.53641 0.82467 0.0
H880 H 0.0082 0.50593 0.85958 0.0
H881 H 0.02977 0.55961 0.78368 0.0
H882 H 0.02616 0.58673 0.75564 0.0
H883 H 0.95829 0.53685 0.73328 0.0
H884 H 0.96187 0.50981 0.76158 0.0
H885 H 0.96256 0.4528 0.75909 0.0
H886 H 0.95872 0.42094 0.73389 0.0
H887 H 0.02147 0.4344 0.77023 0.0
H888 H 0.02537 0.46629 0.79522 0.0
H889 H 0.9909 0.49482 0.75686 0.0
H890 H 0.96809 0.44109 0.82836 0.0
H891 H 0.96509 0.41426 0.86327 0.0
H892 H 0.02959 0.46262 0.89833 0.0
H893 H 0.03301 0.48914 0.86255 0.0
C894 C 0.00715 0.53965 0.83723 0.0
C895 C 0.02637 0.55158 0.8543 0.0
C896 C 0.02906 0.56865 0.87162 0.0
C897 C 0.01275 0.57448 0.87204 0.0
C898 C 0.99374 0.56293 0.85435 0.0
C899 C 0.99092 0.5456 0.8372 0.0
C900 C 0.00344 0.51986 0.82162 0.0
C901 C 0.00494 0.50372 0.83697 0.0
C902 C 0.99789 0.5164 0.79244 0.0
C903 C 0.99601 0.53275 0.77495 0.0
C904 C 0.01409 0.55454 0.77283 0.0
C905 C 0.01206 0.56996 0.75672 0.0
C906 C 0.99188 0.5639 0.74254 0.0
C907 C 0.9739 0.54202 0.74435 0.0
C908 C 0.97599 0.52656 0.76032 0.0
C909 C 0.99411 0.46181 0.77941 0.0
C910 C 0.97552 0.44893 0.76161 0.0
C911 C 0.97333 0.43074 0.74723 0.0
C912 C 0.98964 0.42503 0.75042 0.0
C913 C 0.00838 0.43811 0.7679 0.0
C914 C 0.01062 0.45634 0.78217 0.0
C915 C 0.99644 0.48116 0.79473 0.0
C916 C 0.9945 0.49712 0.77939 0.0
C917 C 0.00129 0.48434 0.82412 0.0
C918 C 0.00085 0.46714 0.84265 0.0
C919 C 0.98194 0.44573 0.84291 0.0
C920 C 0.98014 0.43046 0.86306 0.0
C921 C 0.99711 0.43633 0.88354 0.0
C922 C 0.01642 0.45747 0.88256 0.0
C923 C 0.01828 0.47271 0.86228 0.0
H924 H 0.43003 0.50717 0.85764 0.0
H925 H 0.40617 0.47881 0.89124 0.0
H926 H 0.42401 0.43453 0.85468 0.0
H927 H 0.44976 0.46385 0.82323 0.0
H928 H 0.474 0.52591 0.85768 0.0
H929 H 0.41427 0.47637 0.78696 0.0
H930 H 0.39439 0.43937 0.7653 0.0
H931 H 0.45703 0.44999 0.73521 0.0
H932 H 0.4768 0.48592 0.75786 0.0
H933 H 0.51838 0.52983 0.75767 0.0
H934 H 0.55507 0.55402 0.7376 0.0
H935 H 0.55609 0.61075 0.77152 0.0
H936 H 0.51873 0.58639 0.79133 0.0
H937 H 0.47905 0.52205 0.75377 0.0
H938 H 0.53288 0.54364 0.82564 0.0
H939 H 0.56399 0.56591 0.8579 0.0
H940 H 0.52942 0.59685 0.88959 0.0
H941 H 0.49775 0.57377 0.85749 0.0
C942 C 0.4415 0.48764 0.83755 0.0
C943 C 0.42875 0.49132 0.85678 0.0
C944 C 0.41494 0.47497 0.87587 0.0
C945 C 0.41328 0.45437 0.87597 0.0
C946 C 0.42533 0.45036 0.85583 0.0
C947 C 0.43969 0.467 0.83729 0.0
C948 C 0.4584 0.50627 0.82026 0.0
C949 C 0.47469 0.52527 0.83482 0.0
C950 C 0.46026 0.50486 0.7906 0.0
C951 C 0.44711 0.48386 0.7745 0.0
C952 C 0.42367 0.47073 0.7756 0.0
C953 C 0.41232 0.44971 0.76309 0.0
C954 C 0.4243 0.44173 0.74916 0.0
C955 C 0.44747 0.45554 0.7464 0.0
C956 C 0.45875 0.47623 0.75911 0.0
C957 C 0.5158 0.55626 0.77616 0.0
C958 C 0.5261 0.54749 0.76022 0.0
C959 C 0.54712 0.56127 0.7489 0.0
C960 C 0.55831 0.5841 0.75333 0.0
C961 C 0.54764 0.59314 0.76787 0.0
C962 C 0.52645 0.57926 0.77927 0.0
C963 C 0.49498 0.54094 0.79138 0.0
C964 C 0.47772 0.52295 0.77649 0.0
C965 C 0.49358 0.54195 0.82106 0.0
C966 C 0.5132 0.55736 0.83879 0.0
C967 C 0.53219 0.55558 0.83904 0.0
C968 C 0.55006 0.56847 0.85741 0.0
C969 C 0.54945 0.58358 0.87589 0.0
C970 C 0.53045 0.58548 0.87547 0.0
C971 C 0.51241 0.57239 0.85713 0.0
H972 H 0.61646 0.83943 0.51034 0.0
H973 H 0.61693 0.86292 0.47192 0.0
H974 H 0.68049 0.91626 0.50249 0.0
H975 H 0.68072 0.89255 0.54002 0.0
H976 H 0.6442 0.82665 0.51177 0.0
H977 H 0.62667 0.86579 0.57962 0.0
H978 H 0.63154 0.89842 0.60398 0.0
H979 H 0.6979 0.91579 0.63072 0.0
H980 H 0.69315 0.8834 0.606 0.0
H981 H 0.69421 0.82858 0.61115 0.0
H982 H 0.7009 0.80337 0.63899 0.0
H983 H 0.63639 0.74884 0.61274 0.0
H984 H 0.62954 0.77411 0.58526 0.0
H985 H 0.6649 0.84063 0.61339 0.0
H986 H 0.68207 0.80112 0.54603 0.0
H987 H 0.67985 0.77227 0.51565 0.0
H988 H 0.61541 0.75781 0.48404 0.0
H989 H 0.61692 0.78527 0.51594 0.0
C990 C 0.64854 0.86416 0.52822 0.0
C991 C 0.63028 0.85634 0.50924 0.0
C992 C 0.63046 0.86973 0.4874 0.0
C993 C 0.64864 0.89132 0.48458 0.0
C994 C 0.66613 0.89972 0.50466 0.0
C995 C 0.66619 0.88619 0.52618 0.0
C996 C 0.65064 0.84839 0.54688 0.0
C997 C 0.64808 0.82938 0.53422 0.0
C998 C 0.65689 0.85259 0.57582 0.0
C999 C 0.65962 0.87224 0.59073 0.0
C1000 C 0.64233 0.87671 0.59053 0.0
C1001 C 0.64507 0.89526 0.60458 0.0
C1002 C 0.66518 0.90975 0.61897 0.0
C1003 C 0.68238 0.90513 0.61938 0.0
C1004 C 0.6796 0.88653 0.60547 0.0
C1005 C 0.66147 0.80323 0.59584 0.0
C1006 C 0.68139 0.81124 0.61162 0.0
C1007 C 0.68518 0.79686 0.62756 0.0
C1008 C 0.66911 0.77421 0.62806 0.0
C1009 C 0.64908 0.76623 0.61257 0.0
C1010 C 0.64521 0.78064 0.59681 0.0
C1011 C 0.65785 0.81854 0.57832 0.0
C1012 C 0.66045 0.83761 0.5911 0.0
C1013 C 0.65162 0.81441 0.54935 0.0
C1014 C 0.64962 0.7954 0.53343 0.0
C1015 C 0.66718 0.7913 0.53317 0.0
C1016 C 0.66607 0.77504 0.51536 0.0
C1017 C 0.64765 0.76298 0.4969 0.0
C1018 C 0.62981 0.76664 0.49801 0.0
C1019 C 0.63073 0.78252 0.51613 0.0
H1020 H 0.17018 0.76636 0.50387 0.0
H1021 H 0.13856 0.74111 0.473 0.0
H1022 H 0.10118 0.76949 0.50333 0.0
H1023 H 0.13227 0.79393 0.53439 0.0
H1024 H 0.19204 0.81327 0.50115 0.0
H1025 H 0.1532 0.75613 0.57398 0.0
H1026 H 0.12002 0.73066 0.60142 0.0
H1027 H 0.11228 0.78498 0.62469 0.0
H1028 H 0.14544 0.81016 0.59821 0.0
H1029 H 0.19414 0.86359 0.58781 0.0
H1030 H 0.21661 0.89771 0.61417 0.0
H1031 H 0.27364 0.88988 0.60943 0.0
H1032 H 0.2511 0.85617 0.58114 0.0
H1033 H 0.18755 0.82149 0.60437 0.0
H1034 H 0.21972 0.87763 0.53459 0.0
H1035 H 0.2453 0.9057 0.50208 0.0
H1036 H 0.25773 0.85822 0.4634 0.0
H1037 H 0.2344 0.83101 0.49848 0.0
C1038 C 0.15339 0.78169 0.52184 0.0
C1039 C 0.15494 0.76671 0.50426 0.0
C1040 C 0.13691 0.75236 0.48662 0.0
C1041 C 0.11714 0.75293 0.48613 0.0
C1042 C 0.11574 0.76794 0.50393 0.0
C1043 C 0.1336 0.78206 0.52163 0.0
C1044 C 0.17295 0.79849 0.53854 0.0
C1045 C 0.19158 0.81478 0.52391 0.0
C1046 C 0.17175 0.80076 0.56799 0.0
C1047 C 0.15189 0.78505 0.58437 0.0
C1048 C 0.1444 0.76248 0.58526 0.0
C1049 C 0.12552 0.748 0.60091 0.0
C1050 C 0.11394 0.75594 0.61585 0.0
C1051 C 0.12135 0.77849 0.61441 0.0
C1052 C 0.1402 0.79289 0.59907 0.0
C1053 C 0.22103 0.8575 0.58239 0.0
C1054 C 0.21155 0.86931 0.59227 0.0
C1055 C 0.2244 0.88874 0.60757 0.0
C1056 C 0.24697 0.89659 0.61406 0.0
C1057 C 0.25645 0.88458 0.60434 0.0
C1058 C 0.2436 0.86526 0.58835 0.0
C1059 C 0.20653 0.83662 0.56694 0.0
C1060 C 0.18879 0.81955 0.58185 0.0
C1061 C 0.2082 0.8342 0.53752 0.0
C1062 C 0.22541 0.85217 0.51964 0.0
C1063 C 0.22875 0.87346 0.52013 0.0
C1064 C 0.24292 0.88942 0.50079 0.0
C1065 C 0.25317 0.88414 0.47951 0.0
C1066 C 0.25026 0.863 0.47952 0.0
C1067 C 0.23673 0.8473 0.49949 0.0
H1068 H 0.14713 0.32657 0.50181 0.0
H1069 H 0.11688 0.32106 0.4702 0.0
H1070 H 0.11811 0.37686 0.50794 0.0
H1071 H 0.14902 0.38267 0.53949 0.0
H1072 H 0.18885 0.3604 0.50602 0.0
H1073 H 0.12761 0.3185 0.56842 0.0
H1074 H 0.09199 0.31037 0.58757 0.0
H1075 H 0.12418 0.37563 0.62416 0.0
H1076 H 0.1602 0.38358 0.6052 0.0
H1077 H 0.23491 0.38315 0.61269 0.0
H1078 H 0.26055 0.37488 0.63813 0.0
H1079 H 0.22684 0.31003 0.60014 0.0
H1080 H 0.20182 0.31859 0.57439 0.0
H1081 H 0.18235 0.35448 0.61045 0.0
H1082 H 0.24834 0.3894 0.54322 0.0
H1083 H 0.27579 0.39005 0.51083 0.0
H1084 H 0.22568 0.32562 0.47954 0.0
H1085 H 0.19847 0.32514 0.51163 0.0
C1086 C 0.15039 0.35506 0.52295 0.0
C1087 C 0.14103 0.33774 0.50324 0.0
C1088 C 0.12364 0.33451 0.48533 0.0
C1089 C 0.11519 0.34855 0.48663 0.0
C1090 C 0.12449 0.36594 0.50637 0.0
C1091 C 0.14198 0.36916 0.52448 0.0
C1092 C 0.16896 0.35799 0.54161 0.0
C1093 C 0.18758 0.35948 0.52889 0.0
C1094 C 0.16729 0.3567 0.57141 0.0
C1095 C 0.14639 0.35169 0.58518 0.0
C1096 C 0.12703 0.33103 0.58068 0.0
C1097 C 0.10669 0.32649 0.59141 0.0
C1098 C 0.10525 0.3426 0.60669 0.0
C1099 C 0.12484 0.36302 0.61223 0.0
C1100 C 0.14534 0.36755 0.60149 0.0
C1101 C 0.21672 0.35156 0.5915 0.0
C1102 C 0.23308 0.36717 0.60999 0.0
C1103 C 0.24764 0.36241 0.62449 0.0
C1104 C 0.24593 0.34196 0.62069 0.0
C1105 C 0.22896 0.32613 0.60289 0.0
C1106 C 0.21457 0.33094 0.58834 0.0
C1107 C 0.20208 0.35666 0.57463 0.0
C1108 C 0.18418 0.35658 0.58772 0.0
C1109 C 0.20384 0.35833 0.54495 0.0
C1110 C 0.22145 0.35725 0.52965 0.0
C1111 C 0.24353 0.37521 0.52989 0.0
C1112 C 0.25912 0.37557 0.51144 0.0
C1113 C 0.25286 0.35782 0.49286 0.0
C1114 C 0.23108 0.33932 0.49398 0.0
C1115 C 0.21549 0.3391 0.51213 0.0
C1116 C 0.99237 0.39733 0.10718 0.0
C1117 C 0.97182 0.37789 0.10129 0.0
C1118 C 0.99478 0.41101 0.12996 0.0
C1119 C 0.97682 0.40563 0.14794 0.0
H1120 H 0.00635 0.4027 0.09316 0.0
H1121 H 0.01051 0.42648 0.13255 0.0
S1122 S 0.92086 0.35438 0.14472 0.0
N1123 N 0.93403 0.35259 0.11719 0.0
N1124 N 0.93879 0.37786 0.16061 0.0
C1125 C 0.95672 0.38537 0.14352 0.0
C1126 C 0.95417 0.37162 0.12007 0.0
C1127 C 0.60565 0.58976 0.0901 0.0
C1128 C 0.62423 0.5899 0.07932 0.0
C1129 C 0.59499 0.57767 0.1144 0.0
C1130 C 0.60284 0.56566 0.12915 0.0
H1131 H 0.59859 0.5981 0.07884 0.0
H1132 H 0.57988 0.57695 0.12084 0.0
S1133 S 0.65356 0.56424 0.11189 0.0
N1134 N 0.65149 0.579 0.08631 0.0
N1135 N 0.63237 0.55735 0.133 0.0
C1136 C 0.62245 0.56705 0.11953 0.0
C1137 C 0.63292 0.57889 0.09437 0.0
C1138 C 0.42276 0.02284 0.08577 0.0
C1139 C 0.40008 0.0094 0.09243 0.0
C1140 C 0.43946 0.0283 0.10643 0.0
C1141 C 0.43396 0.02066 0.13443 0.0
H1142 H 0.42764 0.02791 0.06412 0.0
H1143 H 0.45675 0.03741 0.09997 0.0
S1144 S 0.37672 0.98856 0.16333 0.0
N1145 N 0.3728 0.99077 0.12923 0.0
N1146 N 0.40407 0.00187 0.16843 0.0
C1147 C 0.41124 0.00881 0.14171 0.0
C1148 C 0.39432 0.00294 0.12059 0.0
C1149 C 0.39018 0.99288 0.93533 0.0
C1150 C 0.3778 0.9735 0.95129 0.0
C1151 C 0.40215 0.99335 0.91162 0.0
C1152 C 0.40197 0.97442 0.90274 0.0
H1153 H 0.39147 0.00809 0.94187 0.0
H1154 H 0.4122 0.00883 0.90064 0.0
S1155 S 0.37059 0.91902 0.93539 0.0
N1156 N 0.36479 0.93444 0.9551 0.0
N1157 N 0.38739 0.93547 0.91059 0.0
C1158 C 0.38873 0.95466 0.9175 0.0
C1159 C 0.37664 0.95418 0.94177 0.0
C1160 C 0.96927 0.39811 0.94554 0.0
C1161 C 0.98534 0.3933 0.95535 0.0
C1162 C 0.97324 0.41178 0.92223 0.0
C1163 C 0.99344 0.42129 0.90757 0.0
H1164 H 0.9534 0.39136 0.956 0.0
H1165 H 0.96043 0.4152 0.91593 0.0
S1166 S 0.04087 0.41359 0.92367 0.0
N1167 N 0.02228 0.39898 0.94803 0.0
N1168 N 0.02961 0.42464 0.90394 0.0
C1169 C 0.00971 0.41667 0.91693 0.0
C1170 C 0.00568 0.40268 0.94082 0.0
C1171 C 0.57941 0.60354 0.94697 0.0
C1172 C 0.6017 0.61136 0.94004 0.0
C1173 C 0.56268 0.59578 0.92585 0.0
C1174 C 0.56777 0.59568 0.89714 0.0
H1175 H 0.57467 0.60217 0.96892 0.0
H1176 H 0.54549 0.5886 0.93224 0.0
S1177 S 0.62444 0.61781 0.86814 0.0
N1178 N 0.62849 0.6206 0.90275 0.0
N1179 N 0.59733 0.6069 0.86288 0.0
C1180 C 0.59036 0.60505 0.88996 0.0
C1181 C 0.60726 0.61263 0.91148 0.0
C1182 C 0.99874 0.59957 0.93308 0.0
C1183 C 0.01966 0.61805 0.94041 0.0
C1184 C 0.99632 0.58622 0.90988 0.0
C1185 C 0.01469 0.59103 0.89296 0.0
H1186 H 0.98445 0.59455 0.94642 0.0
H1187 H 0.98025 0.57133 0.90623 0.0
S1188 S 0.07192 0.6402 0.89995 0.0
N1189 N 0.05833 0.64213 0.9269 0.0
N1190 N 0.05364 0.61761 0.88265 0.0
C1191 C 0.03522 0.61057 0.89869 0.0
C1192 C 0.03775 0.62393 0.92256 0.0
C1193 C 0.36799 0.42212 0.92993 0.0
C1194 C 0.37618 0.41075 0.94519 0.0
C1195 C 0.37944 0.43514 0.90659 0.0
C1196 C 0.39989 0.43783 0.8981 0.0
H1197 H 0.3528 0.42125 0.93641 0.0
H1198 H 0.37248 0.44366 0.89559 0.0
S1199 S 0.42846 0.41152 0.93178 0.0
N1200 N 0.4054 0.4023 0.95006 0.0
N1201 N 0.42775 0.42777 0.90726 0.0
C1202 C 0.40796 0.42603 0.91294 0.0
C1203 C 0.39593 0.4123 0.93626 0.0
C1204 C 0.58377 0.98247 0.94292 0.0
C1205 C 0.60627 0.99784 0.9372 0.0
C1206 C 0.56711 0.97669 0.92209 0.0
C1207 C 0.57246 0.98597 0.89479 0.0
H1208 H 0.57888 0.97593 0.96408 0.0
H1209 H 0.54984 0.96586 0.92794 0.0
S1210 S 0.62963 0.02415 0.8683 0.0
N1211 N 0.63345 0.02052 0.90196 0.0
N1212 N 0.60241 0.00891 0.86234 0.0
C1213 C 0.59519 6e-05 0.88837 0.0
C1214 C 0.61202 0.00621 0.90971 0.0
C1215 C 0.60835 0.00835 0.08903 0.0
C1216 C 0.62775 0.02778 0.0805 0.0
C1217 C 0.59634 0.00825 0.11254 0.0
C1218 C 0.60352 0.02751 0.12865 0.0
H1219 H 0.6017 0.99343 0.07654 0.0
H1220 H 0.58074 0.99324 0.11723 0.0
S1221 S 0.65575 0.08152 0.11798 0.0
N1222 N 0.65504 0.06604 0.09158 0.0
N1223 N 0.63317 0.06566 0.1366 0.0
C1224 C 0.62388 0.04659 0.12149 0.0
C1225 C 0.63581 0.04678 0.09723 0.0
C1226 C 0.99206 0.57524 0.08093 0.0
C1227 C 0.99442 0.59602 0.08362 0.0
C1228 C 0.98724 0.56147 0.10441 0.0
C1229 C 0.98524 0.56832 0.13145 0.0
H1230 H 0.99474 0.56994 0.06072 0.0
H1231 H 0.98626 0.54587 0.10168 0.0
S1232 S 0.98935 0.62096 0.14947 0.0
N1233 N 0.99347 0.62244 0.11501 0.0
N1234 N 0.98515 0.59679 0.15949 0.0
C1235 C 0.98692 0.58878 0.13429 0.0
C1236 C 0.9913 0.60258 0.11023 0.0
C1237 C 0.39174 0.39819 0.11206 0.0
C1238 C 0.39578 0.39294 0.08511 0.0
C1239 C 0.4086 0.40734 0.13287 0.0
C1240 C 0.43039 0.41219 0.12731 0.0
H1241 H 0.37555 0.39578 0.11685 0.0
H1242 H 0.40473 0.41141 0.15318 0.0
S1243 S 0.44921 0.40087 0.05996 0.0
N1244 N 0.42254 0.392 0.05419 0.0
N1245 N 0.45473 0.41023 0.0928 0.0
C1246 C 0.43436 0.40612 0.1007 0.0
C1247 C 0.41694 0.3963 0.0797 0.0
C1248 C 0.62515 0.71434 0.44625 0.0
C1249 C 0.64327 0.72032 0.42838 0.0
C1250 C 0.62714 0.72755 0.46936 0.0
C1251 C 0.64722 0.74754 0.47525 0.0
H1252 H 0.6091 0.69957 0.44196 0.0
H1253 H 0.61258 0.72237 0.48221 0.0
S1254 S 0.69981 0.77041 0.43499 0.0
N1255 N 0.68224 0.74701 0.41873 0.0
N1256 N 0.68579 0.77236 0.46138 0.0
C1257 C 0.66574 0.75331 0.45809 0.0
C1258 C 0.66379 0.73959 0.43484 0.0
C1259 C 0.29581 0.91397 0.42177 0.0
C1260 C 0.28792 0.9262 0.40801 0.0
C1261 C 0.28515 0.90133 0.44571 0.0
C1262 C 0.26578 0.89993 0.45632 0.0
H1263 H 0.3102 0.91397 0.41376 0.0
H1264 H 0.29189 0.89221 0.4556 0.0
S1265 S 0.23815 0.92853 0.42678 0.0
N1266 N 0.26005 0.93661 0.40656 0.0
N1267 N 0.23903 0.91183 0.45044 0.0
C1268 C 0.25793 0.91242 0.44279 0.0
C1269 C 0.26922 0.92577 0.41888 0.0
C1270 C 0.06166 0.31773 0.44362 0.0
C1271 C 0.0635 0.33355 0.424 0.0
C1272 C 0.07787 0.32312 0.46475 0.0
C1273 C 0.09665 0.34453 0.46717 0.0
H1274 H 0.04785 0.30081 0.44225 0.0
H1275 H 0.07604 0.31021 0.47881 0.0
S1276 S 0.10878 0.39249 0.42261 0.0
N1277 N 0.085 0.37199 0.40957 0.0
N1278 N 0.11569 0.38203 0.44931 0.0
C1279 C 0.09822 0.36085 0.44874 0.0
C1280 C 0.08159 0.35537 0.42714 0.0
C1281 C 0.05589 0.33054 0.26343 0.0
C1282 C 0.04253 0.31028 0.27726 0.0
C1283 C 0.06766 0.33193 0.239 0.0
C1284 C 0.06632 0.3131 0.22733 0.0
H1285 H 0.05813 0.34562 0.27221 0.0
H1286 H 0.07852 0.34799 0.22975 0.0
S1287 S 0.03194 0.2558 0.25374 0.0
N1288 N 0.02717 0.27066 0.27595 0.0
N1289 N 0.04954 0.27341 0.23043 0.0
C1290 C 0.05203 0.29259 0.23998 0.0
C1291 C 0.04009 0.29115 0.26485 0.0
C1292 C 0.64254 0.73627 0.2702 0.0
C1293 C 0.65785 0.73091 0.28144 0.0
C1294 C 0.64747 0.74956 0.24626 0.0
C1295 C 0.66791 0.75813 0.23234 0.0
H1296 H 0.62656 0.73031 0.28006 0.0
H1297 H 0.63525 0.75351 0.23891 0.0
S1298 S 0.7135 0.74846 0.25209 0.0
N1299 N 0.69426 0.7349 0.27617 0.0
N1300 N 0.70339 0.75981 0.23088 0.0
C1301 C 0.68337 0.75284 0.24307 0.0
C1302 C 0.67836 0.73925 0.26761 0.0
C1303 C 0.24497 0.94129 0.27801 0.0
C1304 C 0.26753 0.95087 0.27095 0.0
C1305 C 0.22822 0.93297 0.25691 0.0
C1306 C 0.23357 0.93402 0.22811 0.0
H1307 H 0.24014 0.93889 0.3 0.0
H1308 H 0.21093 0.92434 0.26333 0.0
S1309 S 0.29068 0.96098 0.19888 0.0
N1310 N 0.29468 0.96313 0.23352 0.0
N1311 N 0.26337 0.94826 0.1937 0.0
C1312 C 0.25628 0.94524 0.22085 0.0
C1313 C 0.27324 0.95343 0.24234 0.0
C1314 C 0.67749 0.93509 0.25831 0.0
C1315 C 0.69825 0.95295 0.26742 0.0
C1316 C 0.67582 0.92255 0.23457 0.0
C1317 C 0.69479 0.92763 0.21878 0.0
H1318 H 0.66265 0.92993 0.27058 0.0
H1319 H 0.65973 0.90807 0.22954 0.0
S1320 S 0.7522 0.97554 0.23081 0.0
N1321 N 0.73764 0.97676 0.25709 0.0
N1322 N 0.73438 0.95389 0.21164 0.0
C1323 C 0.71532 0.94658 0.22642 0.0
C1324 C 0.71708 0.95905 0.25093 0.0
C1325 C 0.03804 0.75612 0.26811 0.0
C1326 C 0.04651 0.74508 0.28355 0.0
C1327 C 0.04915 0.76875 0.24437 0.0
C1328 C 0.06955 0.77139 0.23569 0.0
H1329 H 0.0229 0.75529 0.27475 0.0
H1330 H 0.04197 0.77699 0.23319 0.0
S1331 S 0.09873 0.74587 0.26986 0.0
N1332 N 0.07586 0.73686 0.28849 0.0
N1333 N 0.09767 0.76167 0.24495 0.0
C1334 C 0.0779 0.75994 0.25078 0.0
C1335 C 0.06618 0.74657 0.27449 0.0
C1336 C 0.25945 0.31291 0.25317 0.0
C1337 C 0.25446 0.31232 0.28195 0.0
C1338 C 0.24283 0.30686 0.23217 0.0
C1339 C 0.22088 0.30033 0.23949 0.0
H1340 H 0.27662 0.31988 0.24677 0.0
H1341 H 0.24763 0.30925 0.21017 0.0
S1342 S 0.1989 0.29327 0.312 0.0
N1343 N 0.22576 0.30251 0.31676 0.0
N1344 N 0.1945 0.29109 0.27743 0.0
C1345 C 0.21537 0.29782 0.26826 0.0
C1346 C 0.23221 0.3039 0.28951 0.0
C1347 C 0.28555 0.37792 0.4254 0.0
C1348 C 0.28817 0.3603 0.4176 0.0
C1349 C 0.2755 0.37766 0.45085 0.0
C1350 C 0.26758 0.35974 0.46947 0.0
H1351 H 0.29049 0.39169 0.41125 0.0
H1352 H 0.27275 0.39101 0.45517 0.0
S1353 S 0.27313 0.31099 0.46131 0.0
N1354 N 0.28412 0.3255 0.43231 0.0
N1355 N 0.26509 0.32509 0.48011 0.0
C1356 C 0.27135 0.3427 0.46294 0.0
C1357 C 0.28173 0.34299 0.43706 0.0
C1358 C 0.66312 0.91003 0.40913 0.0
C1359 C 0.66369 0.93008 0.40874 0.0
C1360 C 0.65679 0.89691 0.4334 0.0
C1361 C 0.65138 0.90368 0.4583 0.0
H1362 H 0.66836 0.90485 0.39083 0.0
H1363 H 0.65728 0.88192 0.43319 0.0
S1364 S 0.64964 0.95439 0.46802 0.0
N1365 N 0.65732 0.95561 0.43486 0.0
N1366 N 0.64617 0.93119 0.48099 0.0
C1367 C 0.6512 0.92331 0.45799 0.0
C1368 C 0.65713 0.93645 0.43302 0.0
C1369 C 0.08711 0.73083 0.41557 0.0
C1370 C 0.0647 0.72236 0.42256 0.0
C1371 C 0.10395 0.73941 0.43657 0.0
C1372 C 0.09886 0.7397 0.46523 0.0
H1373 H 0.09181 0.7322 0.3936 0.0
H1374 H 0.12116 0.74715 0.43006 0.0
S1375 S 0.04203 0.71593 0.49447 0.0
N1376 N 0.03787 0.71261 0.45992 0.0
N1377 N 0.06927 0.72782 0.49962 0.0
C1378 C 0.07621 0.72958 0.47253 0.0
C1379 C 0.05918 0.72117 0.45112 0.0
C1380 C 0.31715 0.05602 0.77423 0.0
C1381 C 0.30379 0.05389 0.75047 0.0
C1382 C 0.31789 0.0679 0.79832 0.0
C1383 C 0.30534 0.07818 0.79955 0.0
H1384 H 0.32722 0.04854 0.77421 0.0
H1385 H 0.32841 0.06911 0.81609 0.0
S1386 S 0.26886 0.07891 0.74235 0.0
N1387 N 0.27821 0.06372 0.72954 0.0
N1388 N 0.28005 0.08635 0.77432 0.0
C1389 C 0.29201 0.07626 0.7759 0.0
C1390 C 0.29112 0.06406 0.75152 0.0
C1391 C 0.94715 0.25991 0.76394 0.0
C1392 C 0.95912 0.25479 0.74504 0.0
C1393 C 0.93723 0.24698 0.78799 0.0
C1394 C 0.93927 0.22873 0.79429 0.0
H1395 H 0.94446 0.2733 0.75943 0.0
H1396 H 0.92729 0.25086 0.80129 0.0
S1397 S 0.97074 0.2097 0.75331 0.0
N1398 N 0.97388 0.23117 0.73555 0.0
N1399 N 0.95531 0.20704 0.7808 0.0
C1400 C 0.95225 0.22421 0.77652 0.0
C1401 C 0.96215 0.23719 0.75188 0.0
C1402 C 0.73531 0.68036 0.78464 0.0
C1403 C 0.739 0.6892 0.75722 0.0
C1404 C 0.75288 0.68775 0.80436 0.0
C1405 C 0.77474 0.70397 0.79707 0.0
H1406 H 0.71897 0.66671 0.79032 0.0
H1407 H 0.74969 0.67953 0.82462 0.0
S1408 S 0.79287 0.73347 0.72883 0.0
N1409 N 0.76569 0.7162 0.72452 0.0
N1410 N 0.799 0.7297 0.76145 0.0
C1411 C 0.77843 0.71391 0.77038 0.0
C1412 C 0.76043 0.70664 0.75043 0.0
C1413 C 0.71323 0.62967 0.60916 0.0
C1414 C 0.71215 0.64814 0.61728 0.0
C1415 C 0.7241 0.62984 0.58448 0.0
C1416 C 0.73445 0.64853 0.56704 0.0
H1417 H 0.70628 0.61518 0.62244 0.0
H1418 H 0.72543 0.61566 0.57985 0.0
S1419 S 0.73429 0.70014 0.57665 0.0
N1420 N 0.72073 0.68493 0.60423 0.0
N1421 N 0.74126 0.68515 0.55793 0.0
C1422 C 0.73247 0.66662 0.57394 0.0
C1423 C 0.72125 0.66643 0.59899 0.0
C1424 C 0.32858 0.05929 0.58267 0.0
C1425 C 0.33768 0.06649 0.60993 0.0
C1426 C 0.33431 0.07422 0.56034 0.0
C1427 C 0.34889 0.09704 0.56456 0.0
H1428 H 0.31634 0.04204 0.57881 0.0
H1429 H 0.32651 0.06789 0.53983 0.0
S1430 S 0.37765 0.12403 0.63222 0.0
N1431 N 0.36285 0.09751 0.63986 0.0
N1432 N 0.3729 0.1259 0.59831 0.0
C1433 C 0.35888 0.10431 0.59158 0.0
C1434 C 0.35339 0.08895 0.61418 0.0
C1435 C 0.90323 0.2657 0.6195 0.0
C1436 C 0.92599 0.2799 0.61376 0.0
C1437 C 0.88706 0.25833 0.59772 0.0
C1438 C 0.89326 0.2646 0.56947 0.0
H1439 H 0.89806 0.25918 0.64061 0.0
H1440 H 0.86984 0.24635 0.60271 0.0
S1441 S 0.95058 0.30317 0.54412 0.0
N1442 N 0.9538 0.30133 0.57851 0.0
N1443 N 0.92349 0.28738 0.53746 0.0
C1444 C 0.91584 0.27989 0.56386 0.0
C1445 C 0.93222 0.28753 0.58606 0.0
C1446 C 0.37737 0.27331 0.61421 0.0
C1447 C 0.36516 0.2839 0.61589 0.0
C1448 C 0.37655 0.26172 0.58995 0.0
C1449 C 0.36366 0.26035 0.56606 0.0
H1450 H 0.38719 0.27334 0.63215 0.0
H1451 H 0.38559 0.25317 0.59032 0.0
S1452 S 0.33038 0.28707 0.55826 0.0
N1453 N 0.34078 0.29339 0.59077 0.0
N1454 N 0.33971 0.27203 0.54478 0.0
C1455 C 0.35196 0.2715 0.56697 0.0
C1456 C 0.35263 0.28319 0.59191 0.0
C1457 C 0.71836 0.1044 0.6142 0.0
C1458 C 0.71312 0.08258 0.61836 0.0
C1459 C 0.72819 0.11578 0.58932 0.0
C1460 C 0.7331 0.10587 0.56728 0.0
H1461 H 0.71557 0.11318 0.63068 0.0
H1462 H 0.7328 0.13286 0.5879 0.0
S1463 S 0.72038 0.04824 0.56582 0.0
N1464 N 0.71206 0.05087 0.59725 0.0
N1465 N 0.73022 0.07229 0.55005 0.0
C1466 C 0.72704 0.08373 0.57045 0.0
C1467 C 0.71708 0.07208 0.59602 0.0
C1468 C 0.92004 0.64834 0.604 0.0
C1469 C 0.93999 0.66911 0.60355 0.0
C1470 C 0.90296 0.64274 0.58378 0.0
C1471 C 0.9054 0.65772 0.56251 0.0
H1472 H 0.91708 0.63687 0.62096 0.0
H1473 H 0.88731 0.62717 0.58573 0.0
S1474 S 0.9558 0.71234 0.54899 0.0
N1475 N 0.96222 0.70337 0.57771 0.0
N1476 N 0.93017 0.69277 0.53995 0.0
C1477 C 0.92585 0.67774 0.56059 0.0
C1478 C 0.94315 0.68345 0.58105 0.0
C1479 C 0.96125 0.71375 0.75965 0.0
C1480 C 0.95946 0.69426 0.74956 0.0
C1481 C 0.94998 0.71371 0.7838 0.0
C1482 C 0.93638 0.69417 0.7988 0.0
H1483 H 0.97083 0.7291 0.74826 0.0
H1484 H 0.95095 0.72887 0.78984 0.0
S1485 S 0.92827 0.6393 0.78374 0.0
N1486 N 0.94468 0.65526 0.7583 0.0
N1487 N 0.92345 0.6553 0.80378 0.0
C1488 C 0.93546 0.67484 0.79008 0.0
C1489 C 0.94705 0.67487 0.76549 0.0
C1490 C 0.3308 0.27369 0.78355 0.0
C1491 C 0.32552 0.26604 0.75554 0.0
C1492 C 0.32469 0.25894 0.80617 0.0
C1493 C 0.31346 0.23603 0.8015 0.0
H1494 H 0.34083 0.29123 0.78787 0.0
H1495 H 0.32987 0.26558 0.82736 0.0
S1496 S 0.29499 0.20791 0.73174 0.0
N1497 N 0.30739 0.23441 0.72418 0.0
N1498 N 0.29632 0.20648 0.76653 0.0
C1499 C 0.30696 0.22819 0.77357 0.0
C1500 C 0.31299 0.24328 0.75059 0.0
C1501 C 0.74619 0.05213 0.77036 0.0
C1502 C 0.74598 0.06839 0.75344 0.0
C1503 C 0.76202 0.05801 0.79248 0.0
C1504 C 0.77802 0.08027 0.7981 0.0
H1505 H 0.73348 0.03491 0.76734 0.0
H1506 H 0.76127 0.04522 0.80583 0.0
S1507 S 0.7867 0.12869 0.75738 0.0
N1508 N 0.76482 0.10745 0.74203 0.0
N1509 N 0.79427 0.11828 0.78341 0.0
C1510 C 0.77876 0.09646 0.78034 0.0
C1511 C 0.76281 0.09057 0.75803 0.0
C1512 C 0.05233 0.35125 0.06094 0.0
C1513 C 0.04657 0.34642 0.0321 0.0
C1514 C 0.06756 0.34683 0.07421 0.0
C1515 C 0.07785 0.33754 0.05922 0.0
H1516 H 0.0445 0.35787 0.07375 0.0
H1517 H 0.07076 0.35014 0.09666 0.0
S1518 S 0.07048 0.32397 0.98263 0.0
N1519 N 0.05355 0.33311 0.98851 0.0
N1520 N 0.0826 0.3253 0.01338 0.0
C1521 C 0.07294 0.33339 0.03013 0.0
C1522 C 0.05726 0.33775 0.0166 0.0
C1523 C 0.65556 0.72008 0.0162 0.0
C1524 C 0.65656 0.7033 0.03085 0.0
C1525 C 0.65856 0.73878 0.03033 0.0
C1526 C 0.66288 0.74154 0.05962 0.0
H1527 H 0.65242 0.71883 0.99359 0.0
H1528 H 0.65779 0.75133 0.01816 0.0
S1529 S 0.66635 0.70229 0.10821 0.0
N1530 N 0.66168 0.69062 0.07675 0.0
N1531 N 0.66724 0.72572 0.10305 0.0
C1532 C 0.66377 0.72489 0.07461 0.0
C1533 C 0.66061 0.7058 0.06031 0.0
C1534 C 0.27084 0.93707 0.03113 0.0
C1535 C 0.2883 0.95494 0.04595 0.0
C1536 C 0.24908 0.92602 0.04148 0.0
C1537 C 0.24416 0.93206 0.06744 0.0
H1538 H 0.2742 0.9311 0.01195 0.0
H1539 H 0.2362 0.91195 0.02972 0.0
S1540 S 0.28435 0.97829 0.11383 0.0
N1541 N 0.29941 0.97907 0.08684 0.0
N1542 N 0.25864 0.95767 0.1072 0.0
C1543 C 0.26139 0.95061 0.08181 0.0
C1544 C 0.28349 0.96217 0.07086 0.0
C1545 C 0.34726 0.05581 0.97353 0.0
C1546 C 0.3516 0.05788 0.00291 0.0
C1547 C 0.34271 0.07027 0.95896 0.0
C1548 C 0.34271 0.08758 0.97309 0.0
H1549 H 0.34682 0.04257 0.96171 0.0
H1550 H 0.33914 0.06789 0.93645 0.0
S1551 S 0.35373 0.1008 0.04951 0.0
N1552 N 0.35598 0.07898 0.04544 0.0
N1553 N 0.34776 0.10637 0.0178 0.0
C1554 C 0.34748 0.09021 0.00225 0.0
C1555 C 0.35182 0.07529 0.01723 0.0
C1556 C 0.91998 0.27199 0.99158 0.0
C1557 C 0.94275 0.28602 0.99868 0.0
C1558 C 0.91239 0.2523 0.97678 0.0
C1559 C 0.92718 0.24567 0.96857 0.0
H1560 H 0.9079 0.27656 0.99658 0.0
H1561 H 0.8948 0.24237 0.97121 0.0
S1562 S 0.98805 0.27512 0.98395 0.0
N1563 N 0.97982 0.29089 0.99802 0.0
N1564 N 0.96537 0.25378 0.97 0.0
C1565 C 0.94976 0.25881 0.97672 0.0
C1566 C 0.95759 0.279 0.99181 0.0
C1567 C 0.72479 0.67296 0.97167 0.0
C1568 C 0.71375 0.6509 0.98085 0.0
C1569 C 0.74609 0.68293 0.95959 0.0
C1570 C 0.75692 0.67111 0.9564 0.0
H1571 H 0.71651 0.68224 0.97257 0.0
H1572 H 0.75369 0.69959 0.95158 0.0
S1573 S 0.73696 0.61436 0.98113 0.0
N1574 N 0.71662 0.61858 0.98892 0.0
N1575 N 0.75641 0.63733 0.96617 0.0
C1576 C 0.74672 0.64963 0.9671 0.0
C1577 C 0.72519 0.63952 0.97935 0.0
C1578 C 0.96995 0.68671 0.96847 0.0
C1579 C 0.96359 0.66647 0.9816 0.0
C1580 C 0.95401 0.69128 0.95804 0.0
C1581 C 0.93105 0.67574 0.96008 0.0
H1582 H 0.98744 0.69915 0.96594 0.0
H1583 H 0.95972 0.7069 0.94758 0.0
S1584 S 0.90536 0.62072 0.9937 0.0
N1585 N 0.93253 0.63105 0.997 0.0
N1586 N 0.90258 0.6397 0.97719 0.0
C1587 C 0.92436 0.65562 0.97362 0.0
C1588 C 0.94061 0.65099 0.98448 0.0
C1589 C 0.3462 0.28092 0.01036 0.0
C1590 C 0.34435 0.29711 0.99543 0.0
C1591 C 0.34249 0.26171 0.99688 0.0
C1592 C 0.33648 0.25782 0.96807 0.0
H1593 H 0.35054 0.28303 0.03268 0.0
H1594 H 0.34396 0.24962 0.00921 0.0
S1595 S 0.33016 0.29508 0.91896 0.0
N1596 N 0.33666 0.30802 0.94972 0.0
N1597 N 0.3296 0.27188 0.92471 0.0
C1598 C 0.33478 0.27388 0.95278 0.0
C1599 C 0.33876 0.29353 0.96636 0.0
C1600 C 0.72892 0.07669 0.96756 0.0
C1601 C 0.71878 0.05632 0.98171 0.0
C1602 C 0.75092 0.08697 0.95839 0.0
C1603 C 0.76398 0.07752 0.9631 0.0
H1604 H 0.71973 0.0848 0.96314 0.0
H1605 H 0.75769 0.10246 0.94721 0.0
S1606 S 0.74582 0.02458 0.99954 0.0
N1607 N 0.72365 0.02701 1.00011 0.0
N1608 N 0.76538 0.04668 0.98307 0.0
C1609 C 0.75419 0.05712 0.97711 0.0
C1610 C 0.73156 0.04649 0.98642 0.0
C1611 C 0.68168 0.94984 0.01975 0.0
C1612 C 0.66369 0.95273 0.02536 0.0
C1613 C 0.68386 0.93351 0.0335 0.0
C1614 C 0.66802 0.91925 0.05317 0.0
H1615 H 0.69449 0.96055 0.00502 0.0
H1616 H 0.69808 0.93203 0.02869 0.0
S1617 S 0.61773 0.91959 0.07542 0.0
N1618 N 0.62957 0.9396 0.05195 0.0
N1619 N 0.63379 0.90901 0.07772 0.0
C1620 C 0.6498 0.92169 0.05873 0.0
C1621 C 0.64761 0.9384 0.04488 0.0
C1622 C 0.05031 0.72007 0.04459 0.0
C1623 C 0.05834 0.70596 0.05056 0.0
C1624 C 0.06071 0.74137 0.05627 0.0
C1625 C 0.07944 0.74923 0.0744 0.0
H1626 H 0.03603 0.71474 0.03054 0.0
H1627 H 0.05433 0.75189 0.05068 0.0
S1628 S 0.10541 0.71801 0.09941 0.0
N1629 N 0.08527 0.70097 0.07748 0.0
N1630 N 0.10442 0.74069 0.09968 0.0
C1631 C 0.08718 0.73506 0.08123 0.0
C1632 C 0.07676 0.71352 0.06924 0.0
C1633 C 0.27723 0.32679 0.06089 0.0
C1634 C 0.28352 0.34341 0.04048 0.0
C1635 C 0.25648 0.31739 0.07426 0.0
C1636 C 0.24132 0.32399 0.06701 0.0
H1637 H 0.28899 0.32215 0.06795 0.0
H1638 H 0.25267 0.30567 0.09117 0.0
S1639 S 0.24883 0.36492 0.01276 0.0
N1640 N 0.2723 0.36478 0.01225 0.0
N1641 N 0.23312 0.34665 0.03683 0.0
C1642 C 0.24681 0.33944 0.04537 0.0
C1643 C 0.26799 0.34926 0.03218 0.0
C1644 C 0.7174 0.68458 0.39499 0.0
C1645 C 0.71246 0.67978 0.366 0.0
C1646 C 0.73171 0.67952 0.4095 0.0
C1647 C 0.7419 0.66962 0.39564 0.0
H1648 H 0.7096 0.6917 0.4069 0.0
H1649 H 0.73437 0.68293 0.43198 0.0
S1650 S 0.73648 0.65585 0.3192 0.0
N1651 N 0.72005 0.66578 0.32352 0.0
N1652 N 0.74745 0.65681 0.3507 0.0
C1653 C 0.73775 0.66542 0.36644 0.0
C1654 C 0.72297 0.6704 0.35166 0.0
C1655 C 0.31985 0.05804 0.35212 0.0
C1656 C 0.3218 0.04135 0.3655 0.0
C1657 C 0.32368 0.07675 0.36704 0.0
C1658 C 0.32982 0.07963 0.39586 0.0
H1659 H 0.31535 0.05672 0.3299 0.0
H1660 H 0.32215 0.08924 0.35583 0.0
S1661 S 0.33636 0.04064 0.4413 0.0
N1662 N 0.32975 0.02886 0.40979 0.0
N1663 N 0.33691 0.06401 0.43756 0.0
C1664 C 0.33164 0.06306 0.40961 0.0
C1665 C 0.32762 0.04394 0.39453 0.0
C1666 C 0.93582 0.26732 0.3629 0.0
C1667 C 0.95331 0.28666 0.37529 0.0
C1668 C 0.91453 0.25637 0.37459 0.0
C1669 C 0.91011 0.26402 0.39959 0.0
H1670 H 0.93888 0.2601 0.3447 0.0
H1671 H 0.90171 0.24111 0.36481 0.0
S1672 S 0.95016 0.31488 0.43907 0.0
N1673 N 0.96467 0.31413 0.41239 0.0
N1674 N 0.92478 0.29298 0.43531 0.0
C1675 C 0.92716 0.28412 0.41121 0.0
C1676 C 0.94878 0.29556 0.39886 0.0
C1677 C 0.02816 0.40149 0.32104 0.0
C1678 C 0.01382 0.38863 0.34295 0.0
C1679 C 0.02556 0.4175 0.30716 0.0
C1680 C 0.00838 0.42111 0.31445 0.0
H1681 H 0.04126 0.39889 0.31409 0.0
H1682 H 0.03662 0.42662 0.28995 0.0
S1683 S 0.9674 0.3933 0.37159 0.0
N1684 N 0.98256 0.3817 0.37233 0.0
N1685 N 0.97772 0.41172 0.34601 0.0
C1686 C 0.99439 0.40897 0.33686 0.0
C1687 C 0.99713 0.39279 0.35121 0.0
C1688 C 0.61989 0.62027 0.31041 0.0
C1689 C 0.60915 0.62466 0.332 0.0
C1690 C 0.6093 0.59968 0.29674 0.0
C1691 C 0.58776 0.58276 0.3045 0.0
H1692 H 0.63592 0.63325 0.30277 0.0
H1693 H 0.6175 0.59746 0.27896 0.0
S1694 S 0.55478 0.58469 0.36384 0.0
N1695 N 0.57726 0.6097 0.36299 0.0
N1696 N 0.55777 0.57073 0.3383 0.0
C1697 C 0.57781 0.58642 0.32779 0.0
C1698 C 0.58839 0.60745 0.34128 0.0
C1699 C 0.3945 0.98761 0.32704 0.0
C1700 C 0.37917 0.99108 0.3121 0.0
C1701 C 0.41583 0.99515 0.31645 0.0
C1702 C 0.42238 0.00602 0.29023 0.0
H1703 H 0.38966 0.97827 0.34654 0.0
H1704 H 0.42699 0.99175 0.32841 0.0
S1705 S 0.38785 0.01874 0.2429 0.0
N1706 N 0.37177 0.00631 0.27032 0.0
N1707 N 0.41162 0.01991 0.2497 0.0
C1708 C 0.40732 0.01015 0.27551 0.0
C1709 C 0.38572 0.00274 0.2866 0.0
C1710 C 0.62772 0.99604 0.29769 0.0
C1711 C 0.62534 0.99084 0.32673 0.0
C1712 C 0.61351 0.00143 0.28358 0.0
C1713 C 0.59615 0.00153 0.29782 0.0
H1714 H 0.64083 0.99618 0.28572 0.0
H1715 H 0.61592 0.00525 0.26123 0.0
S1716 S 0.58262 0.98925 0.37369 0.0
N1717 N 0.60422 0.98629 0.36921 0.0
N1718 N 0.57735 0.99622 0.34247 0.0
C1719 C 0.59346 0.99632 0.32676 0.0
C1720 C 0.60811 0.99107 0.34127 0.0
C1721 C 0.01614 0.61592 0.34479 0.0
C1722 C 0.0127 0.63144 0.33069 0.0
C1723 C 0.01314 0.59718 0.33078 0.0
C1724 C 0.00639 0.59311 0.30219 0.0
H1725 H 0.02124 0.61821 0.36685 0.0
H1726 H 0.01588 0.58565 0.34252 0.0
S1727 S 0.99592 0.62874 0.25512 0.0
N1728 N 0.0026 0.64151 0.286 0.0
N1729 N 0.99705 0.60634 0.25992 0.0
C1730 C 0.003 0.60846 0.28775 0.0
C1731 C 0.00615 0.62761 0.30191 0.0
C1732 C 0.3849 0.38485 0.31109 0.0
C1733 C 0.36814 0.38916 0.30293 0.0
C1734 C 0.40648 0.39712 0.29996 0.0
C1735 C 0.41196 0.41404 0.28029 0.0
H1736 H 0.38149 0.37228 0.32664 0.0
H1737 H 0.4191 0.39375 0.3073 0.0
S1738 S 0.37352 0.42988 0.24911 0.0
N1739 N 0.35814 0.41031 0.27196 0.0
N1740 N 0.39855 0.43308 0.25108 0.0
C1741 C 0.39516 0.41788 0.2711 0.0
C1742 C 0.3733 0.40552 0.28241 0.0
C1743 C 0.31758 0.26326 0.35257 0.0
C1744 C 0.31964 0.28197 0.36578 0.0
C1745 C 0.32231 0.24895 0.36733 0.0
C1746 C 0.32949 0.2529 0.39576 0.0
H1747 H 0.31221 0.25955 0.33066 0.0
H1748 H 0.32053 0.23478 0.35632 0.0
S1749 S 0.33692 0.29891 0.44064 0.0
N1750 N 0.32896 0.30325 0.4095 0.0
N1751 N 0.33783 0.27632 0.43693 0.0
C1752 C 0.33157 0.27141 0.40931 0.0
C1753 C 0.32663 0.28593 0.39441 0.0
C1754 C 0.72451 0.05381 0.37175 0.0
C1755 C 0.73167 0.03914 0.37866 0.0
C1756 C 0.73433 0.07465 0.38462 0.0
C1757 C 0.75157 0.08149 0.40494 0.0
H1758 H 0.71133 0.04924 0.35615 0.0
H1759 H 0.72862 0.08559 0.37833 0.0
S1760 S 0.77482 0.04854 0.43273 0.0
N1761 N 0.75623 0.03257 0.40853 0.0
N1762 N 0.77425 0.07144 0.43293 0.0
C1763 C 0.75849 0.0668 0.41255 0.0
C1764 C 0.74867 0.04572 0.39936 0.0
C1765 C 0.94249 0.66364 0.39091 0.0
C1766 C 0.95317 0.68412 0.37698 0.0
C1767 C 0.9213 0.65517 0.40286 0.0
C1768 C 0.91024 0.66692 0.40106 0.0
H1769 H 0.95111 0.65481 0.39412 0.0
H1770 H 0.91411 0.64003 0.41491 0.0
S1771 S 0.92921 0.71906 0.36238 0.0
N1772 N 0.94973 0.71432 0.35888 0.0
N1773 N 0.91005 0.69835 0.38119 0.0
C1774 C 0.91998 0.68644 0.38529 0.0
C1775 C 0.94142 0.69506 0.37327 0.0
C1776 C 0.38388 0.01631 0.73313 0.0
C1777 C 0.38212 0.01519 0.7034 0.0
C1778 C 0.39769 0.01065 0.74783 0.0
C1779 C 0.41041 0.00375 0.73344 0.0
H1780 H 0.37405 0.02102 0.7453 0.0
H1781 H 0.39798 0.01121 0.77073 0.0
S1782 S 0.41372 0.00028 0.65556 0.0
N1783 N 0.39546 0.008 0.66001 0.0
N1784 N 0.42176 0.99783 0.68766 0.0
C1785 C 0.40941 0.00327 0.70369 0.0
C1786 C 0.39522 0.00889 0.68869 0.0
C1787 C 0.98063 0.38511 0.69113 0.0
C1788 C 0.98288 0.36874 0.70495 0.0
C1789 C 0.98268 0.40312 0.70599 0.0
C1790 C 0.98723 0.40562 0.73524 0.0
H1791 H 0.97724 0.38406 0.66859 0.0
H1792 H 0.98097 0.41536 0.6944 0.0
S1793 S 0.99383 0.36722 0.78186 0.0
N1794 N 0.98944 0.35614 0.75004 0.0
N1795 N 0.99321 0.38996 0.77776 0.0
C1796 C 0.98939 0.38939 0.74942 0.0
C1797 C 0.98722 0.37097 0.73436 0.0
C1798 C 0.6108 0.62597 0.715 0.0
C1799 C 0.62653 0.62079 0.72508 0.0
C1800 C 0.58874 0.61458 0.72484 0.0
C1801 C 0.58192 0.59782 0.74511 0.0
H1802 H 0.61536 0.63839 0.69882 0.0
H1803 H 0.57682 0.61838 0.71595 0.0
S1804 S 0.61739 0.58047 0.78149 0.0
N1805 N 0.63417 0.5994 0.75876 0.0
N1806 N 0.59291 0.57826 0.77714 0.0
C1807 C 0.59774 0.59336 0.7564 0.0
C1808 C 0.62001 0.60477 0.7464 0.0
C1809 C 0.67566 0.72553 0.64413 0.0
C1810 C 0.68213 0.72847 0.67291 0.0
C1811 C 0.67133 0.74029 0.62995 0.0
C1812 C 0.67352 0.75874 0.64384 0.0
H1813 H 0.67373 0.71159 0.63237 0.0
H1814 H 0.66647 0.73736 0.6078 0.0
S1815 S 0.68976 0.77412 0.71901 0.0
N1816 N 0.69036 0.75139 0.71481 0.0
N1817 N 0.68228 0.77915 0.68795 0.0
C1818 C 0.68002 0.76201 0.67252 0.0
C1819 C 0.68427 0.74687 0.6871 0.0
C1820 C 0.2601 0.94227 0.66633 0.0
C1821 C 0.28113 0.95949 0.65779 0.0
C1822 C 0.24995 0.92153 0.65336 0.0
C1823 C 0.26011 0.91738 0.6307 0.0
H1824 H 0.25112 0.94506 0.68259 0.0
H1825 H 0.23356 0.90888 0.66043 0.0
S1826 S 0.31575 0.9571 0.60117 0.0
N1827 N 0.31252 0.97093 0.62668 0.0
N1828 N 0.29298 0.93227 0.60114 0.0
C1829 C 0.28166 0.93426 0.62283 0.0
C1830 C 0.29225 0.95526 0.63661 0.0
C1831 C 0.0583 0.33256 0.6556 0.0
C1832 C 0.03946 0.32161 0.6376 0.0
C1833 C 0.07988 0.34044 0.64524 0.0
C1834 C 0.08314 0.3377 0.61659 0.0
H1835 H 0.05624 0.33385 0.67802 0.0
H1836 H 0.0939 0.34765 0.65999 0.0
S1837 S 0.03944 0.31388 0.56018 0.0
N1838 N 0.02559 0.31082 0.58945 0.0
N1839 N 0.06602 0.32621 0.56983 0.0
C1840 C 0.06452 0.32836 0.59812 0.0
C1841 C 0.04268 0.32014 0.60869 0.0
C1842 C 0.28149 0.33656 0.67794 0.0
C1843 C 0.29228 0.32761 0.66325 0.0
C1844 C 0.2666 0.34123 0.66406 0.0
C1845 C 0.26194 0.33715 0.63495 0.0
H1846 H 0.28449 0.33998 0.70039 0.0
H1847 H 0.2585 0.34789 0.67628 0.0
S1848 S 0.28686 0.31528 0.58625 0.0
N1849 N 0.29777 0.31561 0.61754 0.0
N1850 N 0.27012 0.32471 0.59155 0.0
C1851 C 0.27279 0.32846 0.61991 0.0
C1852 C 0.28786 0.3236 0.63402 0.0
C1853 C 0.65435 0.9456 0.66747 0.0
C1854 C 0.67291 0.96696 0.66309 0.0
C1855 C 0.65195 0.92726 0.65305 0.0
C1856 C 0.66808 0.92947 0.63384 0.0
H1857 H 0.64141 0.94295 0.68202 0.0
H1858 H 0.63742 0.91117 0.65718 0.0
S1859 S 0.71949 0.98159 0.61397 0.0
N1860 N 0.70761 0.98913 0.63754 0.0
N1861 N 0.70296 0.95462 0.61058 0.0
C1862 C 0.68671 0.95064 0.6292 0.0
C1863 C 0.68914 0.96937 0.64375 0.0
C1864 C 0.05461 0.70984 0.63 0.0
C1865 C 0.04997 0.71696 0.65519 0.0
C1866 C 0.07596 0.72169 0.6182 0.0
C1867 C 0.09328 0.74085 0.63146 0.0
H1868 H 0.04128 0.6961 0.61825 0.0
H1869 H 0.07846 0.71671 0.59766 0.0
S1870 S 0.09041 0.76327 0.70087 0.0
N1871 N 0.06477 0.74233 0.6949 0.0
N1872 N 0.10518 0.76405 0.67354 0.0
C1873 C 0.08926 0.74672 0.6581 0.0
C1874 C 0.06749 0.73492 0.66975 0.0
C1875 C 0.00456 0.60964 0.69038 0.0
C1876 C 0.98759 0.61419 0.69533 0.0
C1877 C 0.00566 0.59322 0.7055 0.0
C1878 C 0.98971 0.58048 0.72594 0.0
H1879 H 0.01748 0.61919 0.67518 0.0
H1880 H 0.01919 0.59052 0.70126 0.0
S1881 S 0.94159 0.58519 0.74669 0.0
N1882 N 0.95412 0.60408 0.72197 0.0
N1883 N 0.95629 0.57321 0.75025 0.0
C1884 C 0.97235 0.58441 0.7307 0.0
C1885 C 0.97127 0.60125 0.71545 0.0
C1886 C 0.385 0.38806 0.71017 0.0
C1887 C 0.39379 0.37478 0.71754 0.0
C1888 C 0.39461 0.40963 0.7208 0.0
C1889 C 0.41327 0.41859 0.73919 0.0
H1890 H 0.37074 0.38185 0.69589 0.0
H1891 H 0.38767 0.41948 0.7142 0.0
S1892 S 0.44103 0.38999 0.76771 0.0
N1893 N 0.42135 0.37187 0.74613 0.0
N1894 N 0.43899 0.41206 0.76623 0.0
C1895 C 0.42174 0.40528 0.74742 0.0
C1896 C 0.41213 0.38349 0.73655 0.0
C1897 C 0.62325 0.03411 0.74318 0.0
C1898 C 0.62958 0.0225 0.72543 0.0
C1899 C 0.60129 0.0248 0.75214 0.0
C1900 C 0.5846 0.00345 0.74378 0.0
H1901 H 0.63533 0.05072 0.75018 0.0
H1902 H 0.59732 0.03449 0.76572 0.0
S1903 S 0.59216 0.96562 0.6982 0.0
N1904 N 0.61729 0.98809 0.70039 0.0
N1905 N 0.57573 0.97056 0.71737 0.0
C1906 C 0.59062 0.9913 0.72669 0.0
C1907 C 0.61315 0.00083 0.71746 0.0
loop_
_geom_bond_atom_site_label_1
_geom_bond_atom_site_label_2
_geom_bond_distance
_geom_bond_site_symmetry_2
_ccdc_geom_bond_type
Zn0 O3 2.031 1_554 S
Zn0 O5 2.049 . S
Zn0 O10 2.067 1_554 S
Zn1 O2 1.962 1_455 S
Zn1 O4 1.986 . S
Zn1 O6 1.996 1_455 S
Zn1 O9 1.943 1_554 S
O2 Zn1 1.962 1_655 S
O2 C7 1.254 1_554 S
O3 Zn0 2.031 1_556 S
O3 C7 1.269 . S
O4 Zn1 1.986 . S
O4 C11 1.262 . S
O5 Zn0 2.049 . S
O5 C13 1.260 . S
O6 Zn1 1.996 1_655 S
O6 C13 1.257 . S
C7 O2 1.254 1_556 S
C7 O3 1.269 . S
C8 O9 1.249 . S
C8 O10 1.270 1_455 S
O9 Zn1 1.943 1_556 S
O9 C8 1.249 . S
O10 Zn0 2.067 1_556 S
O10 C8 1.270 1_655 S
C11 O4 1.262 . S
C11 O12 1.232 . S
O12 C11 1.232 . S
C13 O5 1.260 . S
C13 O6 1.257 . S
Zn14 O17 2.031 1_554 S
Zn14 O19 2.049 . S
Zn14 O24 2.067 1_554 S
Zn15 O16 1.962 . S
Zn15 O18 1.986 . S
Zn15 O20 1.996 . S
Zn15 O23 1.943 1_554 S
O16 Zn15 1.962 . S
O16 C21 1.254 1_554 S
O17 Zn14 2.031 1_556 S
O17 C21 1.269 . S
O18 Zn15 1.986 . S
O18 C25 1.262 . S
O19 Zn14 2.049 . S
O19 C27 1.260 . S
O20 Zn15 1.996 . S
O20 C27 1.257 . S
C21 O16 1.254 1_556 S
C21 O17 1.269 . S
C22 O23 1.249 . S
C22 O24 1.270 . S
O23 Zn15 1.943 1_556 S
O23 C22 1.249 . S
O24 Zn14 2.067 1_556 S
O24 C22 1.270 . S
C25 O18 1.262 . S
C25 O26 1.232 . S
O26 C25 1.232 . S
C27 O19 1.260 . S
C27 O20 1.257 . S
Zn28 O31 2.031 . S
Zn28 O33 2.049 1_554 S
Zn28 O38 2.067 . S
Zn29 O30 1.962 1_545 S
Zn29 O32 1.986 1_554 S
Zn29 O34 1.996 1_544 S
Zn29 O37 1.943 . S
O30 Zn29 1.962 1_565 S
O30 C35 1.254 . S
O31 Zn28 2.031 . S
O31 C35 1.269 . S
O32 Zn29 1.986 1_556 S
O32 C39 1.262 . S
O33 Zn28 2.049 1_556 S
O33 C41 1.260 . S
O34 Zn29 1.996 1_566 S
O34 C41 1.257 . S
C35 O30 1.254 . S
C35 O31 1.269 . S
C36 O37 1.249 . S
C36 O38 1.270 1_545 S
O37 Zn29 1.943 . S
O37 C36 1.249 . S
O38 Zn28 2.067 . S
O38 C36 1.270 1_565 S
C39 O32 1.262 . S
C39 O40 1.232 1_556 S
O40 C39 1.232 1_554 S
C41 O33 1.260 . S
C41 O34 1.257 . S
Zn42 O45 2.031 . S
Zn42 O47 2.049 1_554 S
Zn42 O52 2.067 . S
Zn43 O44 1.962 1_655 S
Zn43 O46 1.986 1_554 S
Zn43 O48 1.996 1_654 S
Zn43 O51 1.943 . S
O44 Zn43 1.962 1_455 S
O44 C49 1.254 . S
O45 Zn42 2.031 . S
O45 C49 1.269 . S
O46 Zn43 1.986 1_556 S
O46 C53 1.262 . S
O47 Zn42 2.049 1_556 S
O47 C55 1.260 . S
O48 Zn43 1.996 1_456 S
O48 C55 1.257 . S
C49 O44 1.254 . S
C49 O45 1.269 . S
C50 O51 1.249 . S
C50 O52 1.270 1_655 S
O51 Zn43 1.943 . S
O51 C50 1.249 . S
O52 Zn42 2.067 . S
O52 C50 1.270 1_455 S
C53 O46 1.262 . S
C53 O54 1.232 1_556 S
O54 C53 1.232 1_554 S
C55 O47 1.260 . S
C55 O48 1.257 . S
Zn56 O59 2.031 . S
Zn56 O61 2.049 1_554 S
Zn56 O66 2.067 . S
Zn57 O58 1.962 . S
Zn57 O60 1.986 1_554 S
Zn57 O62 1.996 1_554 S
Zn57 O65 1.943 . S
O58 Zn57 1.962 . S
O58 C63 1.254 . S
O59 Zn56 2.031 . S
O59 C63 1.269 . S
O60 Zn57 1.986 1_556 S
O60 C67 1.262 . S
O61 Zn56 2.049 1_556 S
O61 C69 1.260 . S
O62 Zn57 1.996 1_556 S
O62 C69 1.257 . S
C63 O58 1.254 . S
C63 O59 1.269 . S
C64 O65 1.249 . S
C64 O66 1.270 . S
O65 Zn57 1.943 . S
O65 C64 1.249 . S
O66 Zn56 2.067 . S
O66 C64 1.270 . S
C67 O60 1.262 . S
C67 O68 1.232 1_556 S
O68 C67 1.232 1_554 S
C69 O61 1.260 . S
C69 O62 1.257 . S
Zn70 O73 2.031 1_554 S
Zn70 O75 2.049 . S
Zn70 O80 2.067 1_554 S
Zn71 O72 1.962 1_565 S
Zn71 O74 1.986 . S
Zn71 O76 1.996 1_565 S
Zn71 O79 1.943 1_554 S
O72 Zn71 1.962 1_545 S
O72 C77 1.254 1_554 S
O73 Zn70 2.031 1_556 S
O73 C77 1.269 . S
O74 Zn71 1.986 . S
O74 C81 1.262 . S
O75 Zn70 2.049 . S
O75 C83 1.260 . S
O76 Zn71 1.996 1_545 S
O76 C83 1.257 . S
C77 O72 1.254 1_556 S
C77 O73 1.269 . S
C78 O79 1.249 . S
C78 O80 1.270 1_565 S
O79 Zn71 1.943 1_556 S
O79 C78 1.249 . S
O80 Zn70 2.067 1_556 S
O80 C78 1.270 1_545 S
C81 O74 1.262 . S
C81 O82 1.232 . S
O82 C81 1.232 . S
C83 O75 1.260 . S
C83 O76 1.257 . S
Zn84 O87 2.031 . S
Zn84 O89 2.049 . S
Zn84 O94 2.067 . S
Zn85 O86 1.962 . S
Zn85 O88 1.986 . S
Zn85 O90 1.996 . S
Zn85 O93 1.943 . S
O86 Zn85 1.962 . S
O86 C91 1.254 . S
O87 Zn84 2.031 . S
O87 C91 1.269 . S
O88 Zn85 1.986 . S
O88 C95 1.262 . S
O89 Zn84 2.049 . S
O89 C97 1.260 . S
O90 Zn85 1.996 . S
O90 C97 1.257 . S
C91 O86 1.254 . S
C91 O87 1.269 . S
C92 O93 1.249 . S
C92 O94 1.270 . S
O93 Zn85 1.943 . S
O93 C92 1.249 . S
O94 Zn84 2.067 . S
O94 C92 1.270 . S
C95 O88 1.262 . S
C95 O96 1.232 . S
O96 C95 1.232 . S
C97 O89 1.260 . S
C97 O90 1.257 . S
Zn98 O101 2.031 . S
Zn98 O103 2.049 . S
Zn98 O108 2.067 . S
Zn99 O100 1.962 . S
Zn99 O102 1.986 1_565 S
Zn99 O104 1.996 . S
Zn99 O107 1.943 . S
O100 Zn99 1.962 . S
O100 C105 1.254 . S
O101 Zn98 2.031 . S
O101 C105 1.269 . S
O102 Zn99 1.986 1_545 S
O102 C109 1.262 . S
O103 Zn98 2.049 . S
O103 C111 1.260 . S
O104 Zn99 1.996 . S
O104 C111 1.257 . S
C105 O100 1.254 . S
C105 O101 1.269 . S
C106 O107 1.249 . S
C106 O108 1.270 . S
O107 Zn99 1.943 . S
O107 C106 1.249 . S
O108 Zn98 2.067 . S
O108 C106 1.270 . S
C109 O102 1.262 . S
C109 O110 1.232 . S
O110 C109 1.232 . S
C111 O103 1.260 . S
C111 O104 1.257 . S
Zn112 O115 2.059 . S
Zn112 O117 2.049 . S
Zn112 O122 2.067 . S
Zn113 O114 1.962 1_455 S
Zn113 O116 1.986 . S
Zn113 O118 1.996 . S
Zn113 O121 1.943 . S
O114 Zn113 1.962 1_655 S
O114 C119 1.254 . S
O115 Zn112 2.059 . S
O115 C119 1.239 1_455 S
O116 Zn113 1.986 . S
O116 C123 1.262 . S
O117 Zn112 2.049 . S
O117 C125 1.260 . S
O118 Zn113 1.996 . S
O118 C125 1.257 . S
C119 O114 1.254 . S
C119 O115 1.239 1_655 S
C120 O121 1.249 . S
C120 O122 1.270 . S
O121 Zn113 1.943 . S
O121 C120 1.249 . S
O122 Zn112 2.067 . S
O122 C120 1.270 . S
C123 O116 1.262 . S
C123 O124 1.232 . S
O124 C123 1.232 . S
C125 O117 1.260 . S
C125 O118 1.257 . S
Zn126 O129 2.031 1_565 S
Zn126 O131 2.049 . S
Zn126 O136 2.067 . S
Zn127 O128 1.962 1_565 S
Zn127 O130 1.986 . S
Zn127 O132 1.996 . S
Zn127 O135 1.943 . S
O128 Zn127 1.962 1_545 S
O128 C133 1.254 . S
O129 Zn126 2.031 1_545 S
O129 C133 1.269 . S
O130 Zn127 1.986 . S
O130 C137 1.262 . S
O131 Zn126 2.049 . S
O131 C139 1.260 . S
O132 Zn127 1.996 . S
O132 C139 1.257 . S
C133 O128 1.254 . S
C133 O129 1.269 . S
C134 O135 1.249 . S
C134 O136 1.270 . S
O135 Zn127 1.943 . S
O135 C134 1.249 . S
O136 Zn126 2.067 . S
O136 C134 1.270 . S
C137 O130 1.262 . S
C137 O138 1.232 . S
O138 C137 1.232 . S
C139 O131 1.260 . S
C139 O132 1.257 . S
Zn140 O143 2.031 1_455 S
Zn140 O145 2.049 . S
Zn140 O150 2.067 . S
Zn141 O142 1.962 1_455 S
Zn141 O144 1.986 . S
Zn141 O146 1.996 . S
Zn141 O149 1.943 . S
O142 Zn141 1.962 1_655 S
O142 C147 1.254 . S
O143 Zn140 2.031 1_655 S
O143 C147 1.269 . S
O144 Zn141 1.986 . S
O144 C151 1.262 . S
O145 Zn140 2.049 . S
O145 C153 1.260 . S
O146 Zn141 1.996 . S
O146 C153 1.257 . S
C147 O142 1.254 . S
C147 O143 1.269 . S
C148 O149 1.249 . S
C148 O150 1.270 . S
O149 Zn141 1.943 . S
O149 C148 1.249 . S
O150 Zn140 2.067 . S
O150 C148 1.270 . S
C151 O144 1.262 . S
C151 O152 1.232 . S
O152 C151 1.232 . S
C153 O145 1.260 . S
C153 O146 1.257 . S
Zn154 O157 2.031 . S
Zn154 O159 2.049 . S
Zn154 O164 2.067 . S
Zn155 O156 1.962 . S
Zn155 O158 1.986 . S
Zn155 O160 1.996 . S
Zn155 O163 1.943 . S
O156 Zn155 1.962 . S
O156 C161 1.254 . S
O157 Zn154 2.031 . S
O157 C161 1.269 . S
O158 Zn155 1.986 . S
O158 C165 1.262 . S
O159 Zn154 2.049 . S
O159 C167 1.260 . S
O160 Zn155 1.996 . S
O160 C167 1.257 . S
C161 O156 1.254 . S
C161 O157 1.269 . S
C162 O163 1.249 . S
C162 O164 1.270 . S
O163 Zn155 1.943 . S
O163 C162 1.249 . S
O164 Zn154 2.067 . S
O164 C162 1.270 . S
C165 O158 1.262 . S
C165 O166 1.232 . S
O166 C165 1.232 . S
C167 O159 1.260 . S
C167 O160 1.257 . S
Zn168 O171 2.031 . S
Zn168 O173 2.049 . S
Zn168 O178 2.067 . S
Zn169 O170 1.962 1_545 S
Zn169 O172 1.986 . S
Zn169 O174 1.996 . S
Zn169 O177 1.943 . S
O170 Zn169 1.962 1_565 S
O170 C175 1.254 . S
O171 Zn168 2.031 . S
O171 C175 1.269 1_545 S
O172 Zn169 1.986 . S
O172 C179 1.262 . S
O173 Zn168 2.049 . S
O173 C181 1.260 . S
O174 Zn169 1.996 . S
O174 C181 1.257 . S
C175 O170 1.254 . S
C175 O171 1.269 1_565 S
C176 O177 1.249 . S
C176 O178 1.270 . S
O177 Zn169 1.943 . S
O177 C176 1.249 . S
O178 Zn168 2.067 . S
O178 C176 1.270 . S
C179 O172 1.262 . S
C179 O180 1.232 . S
O180 C179 1.232 . S
C181 O173 1.260 . S
C181 O174 1.257 . S
Zn182 O185 2.031 1_655 S
Zn182 O187 2.049 . S
Zn182 O192 2.067 . S
Zn183 O184 1.962 1_655 S
Zn183 O186 1.986 . S
Zn183 O188 1.996 . S
Zn183 O191 1.943 . S
O184 Zn183 1.962 1_455 S
O184 C189 1.254 . S
O185 Zn182 2.031 1_455 S
O185 C189 1.269 . S
O186 Zn183 1.986 . S
O186 C193 1.262 . S
O187 Zn182 2.049 . S
O187 C195 1.260 . S
O188 Zn183 1.996 . S
O188 C195 1.257 . S
C189 O184 1.254 . S
C189 O185 1.269 . S
C190 O191 1.249 . S
C190 O192 1.270 . S
O191 Zn183 1.943 . S
O191 C190 1.249 . S
O192 Zn182 2.067 . S
O192 C190 1.270 . S
C193 O186 1.262 . S
C193 O194 1.232 . S
O194 C193 1.232 . S
C195 O187 1.260 . S
C195 O188 1.257 . S
Zn196 O199 2.031 . S
Zn196 O201 2.049 . S
Zn196 O206 2.067 . S
Zn197 O198 1.962 . S
Zn197 O200 1.986 . S
Zn197 O202 1.996 . S
Zn197 O205 1.943 . S
O198 Zn197 1.962 . S
O198 C203 1.254 . S
O199 Zn196 2.031 . S
O199 C203 1.269 . S
O200 Zn197 1.986 . S
O200 C207 1.262 . S
O201 Zn196 2.049 . S
O201 C209 1.260 . S
O202 Zn197 1.996 . S
O202 C209 1.257 . S
C203 O198 1.254 . S
C203 O199 1.269 . S
C204 O205 1.249 . S
C204 O206 1.270 . S
O205 Zn197 1.943 . S
O205 C204 1.249 . S
O206 Zn196 2.067 . S
O206 C204 1.270 . S
C207 O200 1.262 . S
C207 O208 1.232 . S
O208 C207 1.232 . S
C209 O201 1.260 . S
C209 O202 1.257 . S
Zn210 O213 2.031 . S
Zn210 O215 2.049 . S
Zn210 O220 2.067 . S
Zn211 O212 1.962 . S
Zn211 O214 1.986 . S
Zn211 O216 1.996 . S
Zn211 O219 1.943 . S
O212 Zn211 1.962 . S
O212 C217 1.254 . S
O213 Zn210 2.031 . S
O213 C217 1.269 . S
O214 Zn211 1.986 . S
O214 C221 1.262 . S
O215 Zn210 2.049 . S
O215 C223 1.260 . S
O216 Zn211 1.996 . S
O216 C223 1.257 . S
C217 O212 1.254 . S
C217 O213 1.269 . S
C218 O219 1.249 . S
C218 O220 1.270 . S
O219 Zn211 1.943 . S
O219 C218 1.249 . S
O220 Zn210 2.067 . S
O220 C218 1.270 . S
C221 O214 1.262 . S
C221 O222 1.232 . S
O222 C221 1.232 . S
C223 O215 1.260 . S
C223 O216 1.257 . S
Zn224 O227 2.031 . S
Zn224 O229 2.049 . S
Zn224 O234 2.067 . S
Zn225 O226 1.962 . S
Zn225 O228 1.986 1_545 S
Zn225 O230 1.996 . S
Zn225 O233 1.943 . S
O226 Zn225 1.962 . S
O226 C231 1.254 . S
O227 Zn224 2.031 . S
O227 C231 1.269 . S
O228 Zn225 1.986 1_565 S
O228 C235 1.262 . S
O229 Zn224 2.049 . S
O229 C237 1.260 . S
O230 Zn225 1.996 . S
O230 C237 1.257 . S
C231 O226 1.254 . S
C231 O227 1.269 . S
C232 O233 1.249 . S
C232 O234 1.270 . S
O233 Zn225 1.943 . S
O233 C232 1.249 . S
O234 Zn224 2.067 . S
O234 C232 1.270 . S
C235 O228 1.262 . S
C235 O236 1.232 . S
O236 C235 1.232 . S
C237 O229 1.260 . S
C237 O230 1.257 . S
Zn238 O241 1.985 1_655 S
Zn238 O243 2.049 . S
Zn238 O248 2.067 . S
Zn239 O240 1.962 1_655 S
Zn239 O242 1.986 . S
Zn239 O244 1.996 . S
Zn239 O247 1.943 . S
O240 Zn239 1.962 1_455 S
O240 C245 1.254 . S
O241 Zn238 1.985 1_455 S
O241 C245 1.321 . S
O242 Zn239 1.986 . S
O242 C249 1.262 . S
O243 Zn238 2.049 . S
O243 C251 1.260 . S
O244 Zn239 1.996 . S
O244 C251 1.257 . S
C245 O240 1.254 . S
C245 O241 1.321 . S
C246 O247 1.249 . S
C246 O248 1.270 . S
O247 Zn239 1.943 . S
O247 C246 1.249 . S
O248 Zn238 2.067 . S
O248 C246 1.270 . S
C249 O242 1.262 . S
C249 O250 1.232 . S
O250 C249 1.232 . S
C251 O243 1.260 . S
C251 O244 1.257 . S
H252 C271 0.949 . S
H253 C272 0.950 . S
H254 C274 0.950 . S
H255 C275 0.950 . S
H256 C277 0.950 . S
H257 C280 0.950 . S
H258 C281 0.950 . S
H259 C283 0.951 . S
H260 C284 0.949 . S
H261 C286 0.949 . S
H262 C287 0.950 . S
H263 C289 0.950 . S
H264 C290 0.950 . S
H265 C292 0.950 . S
H266 C295 0.950 . S
H267 C296 0.950 . S
H268 C298 0.951 . S
H269 C299 0.949 . S
C270 C271 1.376 . S
C270 C275 1.386 . S
C270 C276 1.483 . S
C271 H252 0.949 . S
C271 C270 1.376 . S
C271 C272 1.397 . S
C272 H253 0.950 . S
C272 C271 1.397 . S
C272 C273 1.391 . S
C273 C272 1.391 . S
C273 C274 1.405 . S
C274 H254 0.950 . S
C274 C273 1.405 . S
C274 C275 1.367 . S
C275 H255 0.950 . S
C275 C270 1.386 . S
C275 C274 1.367 . S
C276 C270 1.483 . S
C276 C277 1.382 . S
C276 C278 1.403 . S
C277 H256 0.950 . S
C277 C276 1.382 . S
C277 C293 1.411 . S
C278 C276 1.403 . S
C278 C279 1.489 . S
C278 C292 1.411 . S
C279 C278 1.489 . S
C279 C280 1.383 . S
C279 C284 1.382 . S
C280 H257 0.950 . S
C280 C279 1.383 . S
C280 C281 1.395 . S
C281 H258 0.950 . S
C281 C280 1.395 . S
C281 C282 1.288 . S
C282 C281 1.288 . S
C282 C283 1.392 . S
C283 H259 0.951 . S
C283 C282 1.392 . S
C283 C284 1.392 . S
C284 H260 0.949 . S
C284 C279 1.382 . S
C284 C283 1.392 . S
C285 C286 1.376 . S
C285 C290 1.386 . S
C285 C291 1.483 . S
C286 H261 0.949 . S
C286 C285 1.376 . S
C286 C287 1.397 . S
C287 H262 0.950 . S
C287 C286 1.397 . S
C287 C288 1.391 . S
C288 C287 1.391 . S
C288 C289 1.405 . S
C289 H263 0.950 . S
C289 C288 1.405 . S
C289 C290 1.367 . S
C290 H264 0.950 . S
C290 C285 1.386 . S
C290 C289 1.367 . S
C291 C285 1.483 . S
C291 C292 1.382 . S
C291 C293 1.403 . S
C292 H265 0.950 . S
C292 C278 1.411 . S
C292 C291 1.382 . S
C293 C277 1.411 . S
C293 C291 1.403 . S
C293 C294 1.489 . S
C294 C293 1.489 . S
C294 C295 1.383 . S
C294 C299 1.382 . S
C295 H266 0.950 . S
C295 C294 1.383 . S
C295 C296 1.395 . S
C296 H267 0.950 . S
C296 C295 1.395 . S
C296 C297 1.288 . S
C297 C296 1.288 . S
C297 C298 1.392 . S
C298 H268 0.951 . S
C298 C297 1.392 . S
C298 C299 1.392 . S
C299 H269 0.949 . S
C299 C294 1.382 . S
C299 C298 1.392 . S
H300 C319 0.949 . S
H301 C320 0.950 . S
H302 C322 0.950 . S
H303 C323 0.950 . S
H304 C325 0.950 . S
H305 C328 0.950 . S
H306 C329 0.950 . S
H307 C331 0.951 . S
H308 C332 0.949 . S
H309 C334 0.949 . S
H310 C335 0.950 . S
H311 C337 0.950 . S
H312 C338 0.950 . S
H313 C340 0.950 . S
H314 C343 0.950 . S
H315 C344 0.950 . S
H316 C346 0.951 . S
H317 C347 0.949 . S
C318 C319 1.376 . S
C318 C323 1.386 . S
C318 C324 1.483 . S
C319 H300 0.949 . S
C319 C318 1.376 . S
C319 C320 1.397 . S
C320 H301 0.950 . S
C320 C319 1.397 . S
C320 C321 1.391 . S
C321 C320 1.391 . S
C321 C322 1.405 . S
C322 H302 0.950 . S
C322 C321 1.405 . S
C322 C323 1.367 . S
C323 H303 0.950 . S
C323 C318 1.386 . S
C323 C322 1.367 . S
C324 C318 1.483 . S
C324 C325 1.382 . S
C324 C326 1.403 . S
C325 H304 0.950 . S
C325 C324 1.382 . S
C325 C341 1.411 . S
C326 C324 1.403 . S
C326 C327 1.489 . S
C326 C340 1.411 . S
C327 C326 1.489 . S
C327 C328 1.383 . S
C327 C332 1.382 . S
C328 H305 0.950 . S
C328 C327 1.383 . S
C328 C329 1.395 . S
C329 H306 0.950 . S
C329 C328 1.395 . S
C329 C330 1.288 . S
C330 C329 1.288 . S
C330 C331 1.392 . S
C331 H307 0.951 . S
C331 C330 1.392 . S
C331 C332 1.392 . S
C332 H308 0.949 . S
C332 C327 1.382 . S
C332 C331 1.392 . S
C333 C334 1.376 . S
C333 C338 1.386 . S
C333 C339 1.483 . S
C334 H309 0.949 . S
C334 C333 1.376 . S
C334 C335 1.397 . S
C335 H310 0.950 . S
C335 C334 1.397 . S
C335 C336 1.391 . S
C336 C335 1.391 . S
C336 C337 1.405 . S
C337 H311 0.950 . S
C337 C336 1.405 . S
C337 C338 1.367 . S
C338 H312 0.950 . S
C338 C333 1.386 . S
C338 C337 1.367 . S
C339 C333 1.483 . S
C339 C340 1.382 . S
C339 C341 1.403 . S
C340 H313 0.950 . S
C340 C326 1.411 . S
C340 C339 1.382 . S
C341 C325 1.411 . S
C341 C339 1.403 . S
C341 C342 1.489 . S
C342 C341 1.489 . S
C342 C343 1.383 . S
C342 C347 1.382 . S
C343 H314 0.950 . S
C343 C342 1.383 . S
C343 C344 1.395 . S
C344 H315 0.950 . S
C344 C343 1.395 . S
C344 C345 1.288 . S
C345 C344 1.288 . S
C345 C346 1.392 . S
C346 H316 0.951 . S
C346 C345 1.392 . S
C346 C347 1.392 . S
C347 H317 0.949 . S
C347 C342 1.382 . S
C347 C346 1.392 . S
H348 C367 0.949 . S
H349 C368 0.950 . S
H350 C370 0.950 . S
H351 C371 0.950 . S
H352 C373 0.950 . S
H353 C376 0.950 . S
H354 C377 0.950 . S
H355 C379 0.951 . S
H356 C380 0.949 . S
H357 C382 0.949 . S
H358 C383 0.950 . S
H359 C385 0.950 . S
H360 C386 0.950 . S
H361 C388 0.950 . S
H362 C391 0.950 . S
H363 C392 0.950 . S
H364 C394 0.951 . S
H365 C395 0.949 . S
C366 C367 1.376 . S
C366 C371 1.386 . S
C366 C372 1.483 . S
C367 H348 0.949 . S
C367 C366 1.376 . S
C367 C368 1.397 . S
C368 H349 0.950 . S
C368 C367 1.397 . S
C368 C369 1.391 . S
C369 C368 1.391 . S
C369 C370 1.405 . S
C370 H350 0.950 . S
C370 C369 1.405 . S
C370 C371 1.367 . S
C371 H351 0.950 . S
C371 C366 1.386 . S
C371 C370 1.367 . S
C372 C366 1.483 . S
C372 C373 1.382 . S
C372 C374 1.403 . S
C373 H352 0.950 . S
C373 C372 1.382 . S
C373 C389 1.411 . S
C374 C372 1.403 . S
C374 C375 1.489 . S
C374 C388 1.411 . S
C375 C374 1.489 . S
C375 C376 1.383 . S
C375 C380 1.382 . S
C376 H353 0.950 . S
C376 C375 1.383 . S
C376 C377 1.395 . S
C377 H354 0.950 . S
C377 C376 1.395 . S
C377 C378 1.288 . S
C378 C377 1.288 . S
C378 C379 1.392 . S
C379 H355 0.951 . S
C379 C378 1.392 . S
C379 C380 1.392 . S
C380 H356 0.949 . S
C380 C375 1.382 . S
C380 C379 1.392 . S
C381 C382 1.376 . S
C381 C386 1.386 . S
C381 C387 1.483 . S
C382 H357 0.949 . S
C382 C381 1.376 . S
C382 C383 1.397 . S
C383 H358 0.950 . S
C383 C382 1.397 . S
C383 C384 1.391 . S
C384 C383 1.391 . S
C384 C385 1.405 . S
C385 H359 0.950 . S
C385 C384 1.405 . S
C385 C386 1.367 . S
C386 H360 0.950 . S
C386 C381 1.386 . S
C386 C385 1.367 . S
C387 C381 1.483 . S
C387 C388 1.382 . S
C387 C389 1.403 . S
C388 H361 0.950 . S
C388 C374 1.411 . S
C388 C387 1.382 . S
C389 C373 1.411 . S
C389 C387 1.403 . S
C389 C390 1.489 . S
C390 C389 1.489 . S
C390 C391 1.383 . S
C390 C395 1.382 . S
C391 H362 0.950 . S
C391 C390 1.383 . S
C391 C392 1.395 . S
C392 H363 0.950 . S
C392 C391 1.395 . S
C392 C393 1.288 . S
C393 C392 1.288 . S
C393 C394 1.392 . S
C394 H364 0.951 . S
C394 C393 1.392 . S
C394 C395 1.392 . S
C395 H365 0.949 . S
C395 C390 1.382 . S
C395 C394 1.392 . S
H396 C415 0.949 . S
H397 C416 0.950 . S
H398 C418 0.950 . S
H399 C419 0.950 . S
H400 C421 0.950 . S
H401 C424 0.950 . S
H402 C425 0.950 . S
H403 C427 0.951 . S
H404 C428 0.949 . S
H405 C430 0.949 . S
H406 C431 0.950 . S
H407 C433 0.950 . S
H408 C434 0.950 . S
H409 C436 0.950 . S
H410 C439 0.950 . S
H411 C440 0.950 . S
H412 C442 0.951 . S
H413 C443 0.949 . S
C414 C415 1.376 . S
C414 C419 1.386 . S
C414 C420 1.483 . S
C415 H396 0.949 . S
C415 C414 1.376 . S
C415 C416 1.397 . S
C416 H397 0.950 . S
C416 C415 1.397 . S
C416 C417 1.391 . S
C417 C416 1.391 . S
C417 C418 1.405 . S
C418 H398 0.950 . S
C418 C417 1.405 . S
C418 C419 1.367 . S
C419 H399 0.950 . S
C419 C414 1.386 . S
C419 C418 1.367 . S
C420 C414 1.483 . S
C420 C421 1.382 . S
C420 C422 1.403 . S
C421 H400 0.950 . S
C421 C420 1.382 . S
C421 C437 1.411 . S
C422 C420 1.403 . S
C422 C423 1.489 . S
C422 C436 1.411 . S
C423 C422 1.489 . S
C423 C424 1.383 . S
C423 C428 1.382 . S
C424 H401 0.950 . S
C424 C423 1.383 . S
C424 C425 1.395 . S
C425 H402 0.950 . S
C425 C424 1.395 . S
C425 C426 1.288 . S
C426 C425 1.288 . S
C426 C427 1.392 . S
C427 H403 0.951 . S
C427 C426 1.392 . S
C427 C428 1.392 . S
C428 H404 0.949 . S
C428 C423 1.382 . S
C428 C427 1.392 . S
C429 C430 1.376 . S
C429 C434 1.386 . S
C429 C435 1.483 . S
C430 H405 0.949 . S
C430 C429 1.376 . S
C430 C431 1.397 . S
C431 H406 0.950 . S
C431 C430 1.397 . S
C431 C432 1.391 . S
C432 C431 1.391 . S
C432 C433 1.405 . S
C433 H407 0.950 . S
C433 C432 1.405 . S
C433 C434 1.367 . S
C434 H408 0.950 . S
C434 C429 1.386 . S
C434 C433 1.367 . S
C435 C429 1.483 . S
C435 C436 1.382 . S
C435 C437 1.403 . S
C436 H409 0.950 . S
C436 C422 1.411 . S
C436 C435 1.382 . S
C437 C421 1.411 . S
C437 C435 1.403 . S
C437 C438 1.489 . S
C438 C437 1.489 . S
C438 C439 1.383 . S
C438 C443 1.382 . S
C439 H410 0.950 . S
C439 C438 1.383 . S
C439 C440 1.395 . S
C440 H411 0.950 . S
C440 C439 1.395 . S
C440 C441 1.288 . S
C441 C440 1.288 . S
C441 C442 1.392 . S
C442 H412 0.951 . S
C442 C441 1.392 . S
C442 C443 1.392 . S
C443 H413 0.949 . S
C443 C438 1.382 . S
C443 C442 1.392 . S
H444 C463 0.949 . S
H445 C464 0.950 . S
H446 C466 0.950 . S
H447 C467 0.950 . S
H448 C469 0.950 . S
H449 C472 0.950 . S
H450 C473 0.950 . S
H451 C475 0.951 . S
H452 C476 0.949 . S
H453 C478 0.949 . S
H454 C479 0.950 . S
H455 C481 0.950 . S
H456 C482 0.950 . S
H457 C484 0.950 . S
H458 C487 0.950 . S
H459 C488 0.950 . S
H460 C490 0.951 . S
H461 C491 0.949 . S
C462 C463 1.376 . S
C462 C467 1.386 . S
C462 C468 1.483 . S
C463 H444 0.949 . S
C463 C462 1.376 . S
C463 C464 1.397 . S
C464 H445 0.950 . S
C464 C463 1.397 . S
C464 C465 1.391 . S
C465 C464 1.391 . S
C465 C466 1.405 . S
C466 H446 0.950 . S
C466 C465 1.405 . S
C466 C467 1.367 . S
C467 H447 0.950 . S
C467 C462 1.386 . S
C467 C466 1.367 . S
C468 C462 1.483 . S
C468 C469 1.382 . S
C468 C470 1.403 . S
C469 H448 0.950 . S
C469 C468 1.382 . S
C469 C485 1.411 . S
C470 C468 1.403 . S
C470 C471 1.489 . S
C470 C484 1.411 . S
C471 C470 1.489 . S
C471 C472 1.383 . S
C471 C476 1.382 . S
C472 H449 0.950 . S
C472 C471 1.383 . S
C472 C473 1.395 . S
C473 H450 0.950 . S
C473 C472 1.395 . S
C473 C474 1.288 . S
C474 C473 1.288 . S
C474 C475 1.392 . S
C475 H451 0.951 . S
C475 C474 1.392 . S
C475 C476 1.392 . S
C476 H452 0.949 . S
C476 C471 1.382 . S
C476 C475 1.392 . S
C477 C478 1.376 . S
C477 C482 1.386 . S
C477 C483 1.483 . S
C478 H453 0.949 . S
C478 C477 1.376 . S
C478 C479 1.397 . S
C479 H454 0.950 . S
C479 C478 1.397 . S
C479 C480 1.391 . S
C480 C479 1.391 . S
C480 C481 1.405 . S
C481 H455 0.950 . S
C481 C480 1.405 . S
C481 C482 1.367 . S
C482 H456 0.950 . S
C482 C477 1.386 . S
C482 C481 1.367 . S
C483 C477 1.483 . S
C483 C484 1.382 . S
C483 C485 1.403 . S
C484 H457 0.950 . S
C484 C470 1.411 . S
C484 C483 1.382 . S
C485 C469 1.411 . S
C485 C483 1.403 . S
C485 C486 1.489 . S
C486 C485 1.489 . S
C486 C487 1.383 . S
C486 C491 1.382 . S
C487 H458 0.950 . S
C487 C486 1.383 . S
C487 C488 1.395 . S
C488 H459 0.950 . S
C488 C487 1.395 . S
C488 C489 1.288 . S
C489 C488 1.288 . S
C489 C490 1.392 . S
C490 H460 0.951 . S
C490 C489 1.392 . S
C490 C491 1.392 . S
C491 H461 0.949 . S
C491 C486 1.382 . S
C491 C490 1.392 . S
H492 C511 0.949 . S
H493 C512 0.950 . S
H494 C514 0.950 . S
H495 C515 0.950 . S
H496 C517 0.950 . S
H497 C520 0.950 . S
H498 C521 0.950 . S
H499 C523 0.951 . S
H500 C524 0.949 . S
H501 C526 0.949 . S
H502 C527 0.950 . S
H503 C529 0.950 . S
H504 C530 0.950 . S
H505 C532 0.950 . S
H506 C535 0.950 . S
H507 C536 0.950 . S
H508 C538 0.951 . S
H509 C539 0.949 . S
C510 C511 1.376 . S
C510 C515 1.386 . S
C510 C516 1.483 . S
C511 H492 0.949 . S
C511 C510 1.376 . S
C511 C512 1.397 . S
C512 H493 0.950 . S
C512 C511 1.397 . S
C512 C513 1.391 . S
C513 C512 1.391 . S
C513 C514 1.405 . S
C514 H494 0.950 . S
C514 C513 1.405 . S
C514 C515 1.367 . S
C515 H495 0.950 . S
C515 C510 1.386 . S
C515 C514 1.367 . S
C516 C510 1.483 . S
C516 C517 1.382 . S
C516 C518 1.403 . S
C517 H496 0.950 . S
C517 C516 1.382 . S
C517 C533 1.411 . S
C518 C516 1.403 . S
C518 C519 1.489 . S
C518 C532 1.411 . S
C519 C518 1.489 . S
C519 C520 1.383 . S
C519 C524 1.382 . S
C520 H497 0.950 . S
C520 C519 1.383 . S
C520 C521 1.395 . S
C521 H498 0.950 . S
C521 C520 1.395 . S
C521 C522 1.288 . S
C522 C521 1.288 . S
C522 C523 1.392 . S
C523 H499 0.951 . S
C523 C522 1.392 . S
C523 C524 1.392 . S
C524 H500 0.949 . S
C524 C519 1.382 . S
C524 C523 1.392 . S
C525 C526 1.376 . S
C525 C530 1.386 . S
C525 C531 1.483 . S
C526 H501 0.949 . S
C526 C525 1.376 . S
C526 C527 1.397 . S
C527 H502 0.950 . S
C527 C526 1.397 . S
C527 C528 1.391 . S
C528 C527 1.391 . S
C528 C529 1.405 . S
C529 H503 0.950 . S
C529 C528 1.405 . S
C529 C530 1.367 . S
C530 H504 0.950 . S
C530 C525 1.386 . S
C530 C529 1.367 . S
C531 C525 1.483 . S
C531 C532 1.382 . S
C531 C533 1.403 . S
C532 H505 0.950 . S
C532 C518 1.411 . S
C532 C531 1.382 . S
C533 C517 1.411 . S
C533 C531 1.403 . S
C533 C534 1.489 . S
C534 C533 1.489 . S
C534 C535 1.383 . S
C534 C539 1.382 . S
C535 H506 0.950 . S
C535 C534 1.383 . S
C535 C536 1.395 . S
C536 H507 0.950 . S
C536 C535 1.395 . S
C536 C537 1.288 . S
C537 C536 1.288 . S
C537 C538 1.392 . S
C538 H508 0.951 . S
C538 C537 1.392 . S
C538 C539 1.392 . S
C539 H509 0.949 . S
C539 C534 1.382 . S
C539 C538 1.392 . S
H540 C559 0.949 . S
H541 C560 0.950 . S
H542 C562 0.950 . S
H543 C563 0.950 . S
H544 C565 0.950 . S
H545 C568 0.950 . S
H546 C569 0.950 . S
H547 C571 0.951 . S
H548 C572 0.949 . S
H549 C574 0.949 . S
H550 C575 0.950 . S
H551 C577 0.950 . S
H552 C578 0.950 . S
H553 C580 0.950 . S
H554 C583 0.950 . S
H555 C584 0.950 . S
H556 C586 0.951 . S
H557 C587 0.949 . S
C558 C559 1.376 . S
C558 C563 1.386 . S
C558 C564 1.483 . S
C559 H540 0.949 . S
C559 C558 1.376 . S
C559 C560 1.397 . S
C560 H541 0.950 . S
C560 C559 1.397 . S
C560 C561 1.391 . S
C561 C560 1.391 . S
C561 C562 1.405 . S
C562 H542 0.950 . S
C562 C561 1.405 . S
C562 C563 1.367 . S
C563 H543 0.950 . S
C563 C558 1.386 . S
C563 C562 1.367 . S
C564 C558 1.483 . S
C564 C565 1.382 . S
C564 C566 1.403 . S
C565 H544 0.950 . S
C565 C564 1.382 . S
C565 C581 1.411 . S
C566 C564 1.403 . S
C566 C567 1.489 . S
C566 C580 1.411 . S
C567 C566 1.489 . S
C567 C568 1.383 . S
C567 C572 1.382 . S
C568 H545 0.950 . S
C568 C567 1.383 . S
C568 C569 1.395 . S
C569 H546 0.950 . S
C569 C568 1.395 . S
C569 C570 1.288 . S
C570 C569 1.288 . S
C570 C571 1.392 . S
C571 H547 0.951 . S
C571 C570 1.392 . S
C571 C572 1.392 . S
C572 H548 0.949 . S
C572 C567 1.382 . S
C572 C571 1.392 . S
C573 C574 1.376 . S
C573 C578 1.386 . S
C573 C579 1.483 . S
C574 H549 0.949 . S
C574 C573 1.376 . S
C574 C575 1.397 . S
C575 H550 0.950 . S
C575 C574 1.397 . S
C575 C576 1.391 . S
C576 C575 1.391 . S
C576 C577 1.405 . S
C577 H551 0.950 . S
C577 C576 1.405 . S
C577 C578 1.367 . S
C578 H552 0.950 . S
C578 C573 1.386 . S
C578 C577 1.367 . S
C579 C573 1.483 . S
C579 C580 1.382 . S
C579 C581 1.403 . S
C580 H553 0.950 . S
C580 C566 1.411 . S
C580 C579 1.382 . S
C581 C565 1.411 . S
C581 C579 1.403 . S
C581 C582 1.489 . S
C582 C581 1.489 . S
C582 C583 1.383 . S
C582 C587 1.382 . S
C583 H554 0.950 . S
C583 C582 1.383 . S
C583 C584 1.395 . S
C584 H555 0.950 . S
C584 C583 1.395 . S
C584 C585 1.288 . S
C585 C584 1.288 . S
C585 C586 1.392 . S
C586 H556 0.951 . S
C586 C585 1.392 . S
C586 C587 1.392 . S
C587 H557 0.949 . S
C587 C582 1.382 . S
C587 C586 1.392 . S
H588 C607 0.949 . S
H589 C608 0.950 . S
H590 C610 0.950 . S
H591 C611 0.950 . S
H592 C613 0.950 . S
H593 C616 0.950 . S
H594 C617 0.950 . S
H595 C619 0.951 . S
H596 C620 0.949 . S
H597 C622 0.949 . S
H598 C623 0.950 . S
H599 C625 0.950 . S
H600 C626 0.950 . S
H601 C628 0.950 . S
H602 C631 0.950 . S
H603 C632 0.950 . S
H604 C634 0.951 . S
H605 C635 0.949 . S
C606 C607 1.376 . S
C606 C611 1.386 . S
C606 C612 1.483 . S
C607 H588 0.949 . S
C607 C606 1.376 . S
C607 C608 1.397 . S
C608 H589 0.950 . S
C608 C607 1.397 . S
C608 C609 1.391 . S
C609 C608 1.391 . S
C609 C610 1.405 . S
C610 H590 0.950 . S
C610 C609 1.405 . S
C610 C611 1.367 . S
C611 H591 0.950 . S
C611 C606 1.386 . S
C611 C610 1.367 . S
C612 C606 1.483 . S
C612 C613 1.382 . S
C612 C614 1.403 . S
C613 H592 0.950 . S
C613 C612 1.382 . S
C613 C629 1.411 . S
C614 C612 1.403 . S
C614 C615 1.489 . S
C614 C628 1.411 . S
C615 C614 1.489 . S
C615 C616 1.383 . S
C615 C620 1.382 . S
C616 H593 0.950 . S
C616 C615 1.383 . S
C616 C617 1.395 . S
C617 H594 0.950 . S
C617 C616 1.395 . S
C617 C618 1.288 . S
C618 C617 1.288 . S
C618 C619 1.392 . S
C619 H595 0.951 . S
C619 C618 1.392 . S
C619 C620 1.392 . S
C620 H596 0.949 . S
C620 C615 1.382 . S
C620 C619 1.392 . S
C621 C622 1.376 . S
C621 C626 1.386 . S
C621 C627 1.483 . S
C622 H597 0.949 . S
C622 C621 1.376 . S
C622 C623 1.397 . S
C623 H598 0.950 . S
C623 C622 1.397 . S
C623 C624 1.391 . S
C624 C623 1.391 . S
C624 C625 1.405 . S
C625 H599 0.950 . S
C625 C624 1.405 . S
C625 C626 1.367 . S
C626 H600 0.950 . S
C626 C621 1.386 . S
C626 C625 1.367 . S
C627 C621 1.483 . S
C627 C628 1.382 . S
C627 C629 1.403 . S
C628 H601 0.950 . S
C628 C614 1.411 . S
C628 C627 1.382 . S
C629 C613 1.411 . S
C629 C627 1.403 . S
C629 C630 1.489 . S
C630 C629 1.489 . S
C630 C631 1.383 . S
C630 C635 1.382 . S
C631 H602 0.950 . S
C631 C630 1.383 . S
C631 C632 1.395 . S
C632 H603 0.950 . S
C632 C631 1.395 . S
C632 C633 1.288 . S
C633 C632 1.288 . S
C633 C634 1.392 . S
C634 H604 0.951 . S
C634 C633 1.392 . S
C634 C635 1.392 . S
C635 H605 0.949 . S
C635 C630 1.382 . S
C635 C634 1.392 . S
H636 C655 0.949 . S
H637 C656 0.950 . S
H638 C658 0.950 . S
H639 C659 0.950 . S
H640 C661 0.950 . S
H641 C664 0.950 . S
H642 C665 0.950 . S
H643 C667 0.951 . S
H644 C668 0.949 . S
H645 C670 0.949 . S
H646 C671 0.950 . S
H647 C673 0.950 . S
H648 C674 0.950 . S
H649 C676 0.950 . S
H650 C679 0.950 . S
H651 C680 0.950 . S
H652 C682 0.951 . S
H653 C683 0.949 . S
C654 C655 1.376 . S
C654 C659 1.386 . S
C654 C660 1.483 . S
C655 H636 0.949 . S
C655 C654 1.376 . S
C655 C656 1.397 . S
C656 H637 0.950 . S
C656 C655 1.397 . S
C656 C657 1.391 . S
C657 C656 1.391 . S
C657 C658 1.405 . S
C658 H638 0.950 . S
C658 C657 1.405 . S
C658 C659 1.367 . S
C659 H639 0.950 . S
C659 C654 1.386 . S
C659 C658 1.367 . S
C660 C654 1.483 . S
C660 C661 1.382 . S
C660 C662 1.403 . S
C661 H640 0.950 . S
C661 C660 1.382 . S
C661 C677 1.411 . S
C662 C660 1.403 . S
C662 C663 1.489 . S
C662 C676 1.411 . S
C663 C662 1.489 . S
C663 C664 1.383 . S
C663 C668 1.382 . S
C664 H641 0.950 . S
C664 C663 1.383 . S
C664 C665 1.395 . S
C665 H642 0.950 . S
C665 C664 1.395 . S
C665 C666 1.288 . S
C666 C665 1.288 . S
C666 C667 1.392 . S
C667 H643 0.951 . S
C667 C666 1.392 . S
C667 C668 1.392 . S
C668 H644 0.949 . S
C668 C663 1.382 . S
C668 C667 1.392 . S
C669 C670 1.376 . S
C669 C674 1.386 . S
C669 C675 1.483 . S
C670 H645 0.949 . S
C670 C669 1.376 . S
C670 C671 1.397 . S
C671 H646 0.950 . S
C671 C670 1.397 . S
C671 C672 1.391 . S
C672 C671 1.391 . S
C672 C673 1.405 . S
C673 H647 0.950 . S
C673 C672 1.405 . S
C673 C674 1.367 . S
C674 H648 0.950 . S
C674 C669 1.386 . S
C674 C673 1.367 . S
C675 C669 1.483 . S
C675 C676 1.382 . S
C675 C677 1.403 . S
C676 H649 0.950 . S
C676 C662 1.411 . S
C676 C675 1.382 . S
C677 C661 1.411 . S
C677 C675 1.403 . S
C677 C678 1.489 . S
C678 C677 1.489 . S
C678 C679 1.383 . S
C678 C683 1.382 . S
C679 H650 0.950 . S
C679 C678 1.383 . S
C679 C680 1.395 . S
C680 H651 0.950 . S
C680 C679 1.395 . S
C680 C681 1.288 . S
C681 C680 1.288 . S
C681 C682 1.392 . S
C682 H652 0.951 . S
C682 C681 1.392 . S
C682 C683 1.392 . S
C683 H653 0.949 . S
C683 C678 1.382 . S
C683 C682 1.392 . S
H684 C703 0.949 . S
H685 C704 0.950 . S
H686 C706 0.950 . S
H687 C707 0.950 . S
H688 C709 0.950 . S
H689 C712 0.950 . S
H690 C713 0.950 . S
H691 C715 0.951 . S
H692 C716 0.949 . S
H693 C718 0.949 . S
H694 C719 0.950 . S
H695 C721 0.950 . S
H696 C722 0.950 . S
H697 C724 0.950 . S
H698 C727 0.950 . S
H699 C728 0.950 . S
H700 C730 0.951 . S
H701 C731 0.949 . S
C702 C703 1.376 . S
C702 C707 1.386 1_655 S
C702 C708 1.483 . S
C703 H684 0.949 . S
C703 C702 1.376 . S
C703 C704 1.397 . S
C704 H685 0.950 . S
C704 C703 1.397 . S
C704 C705 1.391 . S
C705 C704 1.391 . S
C705 C706 1.405 1_655 S
C706 H686 0.950 . S
C706 C705 1.405 1_455 S
C706 C707 1.367 . S
C707 H687 0.950 . S
C707 C702 1.386 1_455 S
C707 C706 1.367 . S
C708 C702 1.483 . S
C708 C709 1.382 . S
C708 C710 1.403 1_655 S
C709 H688 0.950 . S
C709 C708 1.382 . S
C709 C725 1.411 . S
C710 C708 1.403 1_455 S
C710 C711 1.489 . S
C710 C724 1.411 . S
C711 C710 1.489 . S
C711 C712 1.383 1_455 S
C711 C716 1.382 . S
C712 H689 0.950 . S
C712 C711 1.383 1_655 S
C712 C713 1.395 . S
C713 H690 0.950 . S
C713 C712 1.395 . S
C713 C714 1.288 1_655 S
C714 C713 1.288 1_455 S
C714 C715 1.392 . S
C715 H691 0.951 . S
C715 C714 1.392 . S
C715 C716 1.392 . S
C716 H692 0.949 . S
C716 C711 1.382 . S
C716 C715 1.392 . S
C717 C718 1.376 . S
C717 C722 1.386 1_455 S
C717 C723 1.483 . S
C718 H693 0.949 . S
C718 C717 1.376 . S
C718 C719 1.397 . S
C719 H694 0.950 . S
C719 C718 1.397 . S
C719 C720 1.391 . S
C720 C719 1.391 . S
C720 C721 1.405 1_455 S
C721 H695 0.950 . S
C721 C720 1.405 1_655 S
C721 C722 1.367 . S
C722 H696 0.950 . S
C722 C717 1.386 1_655 S
C722 C721 1.367 . S
C723 C717 1.483 . S
C723 C724 1.382 . S
C723 C725 1.403 1_455 S
C724 H697 0.950 . S
C724 C710 1.411 . S
C724 C723 1.382 . S
C725 C709 1.411 . S
C725 C723 1.403 1_655 S
C725 C726 1.489 . S
C726 C725 1.489 . S
C726 C727 1.383 1_655 S
C726 C731 1.382 . S
C727 H698 0.950 . S
C727 C726 1.383 1_455 S
C727 C728 1.395 . S
C728 H699 0.950 . S
C728 C727 1.395 . S
C728 C729 1.288 1_455 S
C729 C728 1.288 1_655 S
C729 C730 1.392 . S
C730 H700 0.951 . S
C730 C729 1.392 . S
C730 C731 1.392 . S
C731 H701 0.949 . S
C731 C726 1.382 . S
C731 C730 1.392 . S
H732 C751 0.949 . S
H733 C752 0.950 . S
H734 C754 0.950 . S
H735 C755 0.950 . S
H736 C757 0.950 . S
H737 C760 0.950 . S
H738 C761 0.950 . S
H739 C763 0.951 . S
H740 C764 0.949 . S
H741 C766 0.949 . S
H742 C767 0.950 . S
H743 C769 0.950 . S
H744 C770 0.950 . S
H745 C772 0.950 . S
H746 C775 0.950 . S
H747 C776 0.950 . S
H748 C778 0.951 . S
H749 C779 0.949 . S
C750 C751 1.376 . S
C750 C755 1.386 . S
C750 C756 1.483 . S
C751 H732 0.949 . S
C751 C750 1.376 . S
C751 C752 1.397 . S
C752 H733 0.950 . S
C752 C751 1.397 . S
C752 C753 1.391 . S
C753 C752 1.391 . S
C753 C754 1.405 . S
C754 H734 0.950 . S
C754 C753 1.405 . S
C754 C755 1.367 . S
C755 H735 0.950 . S
C755 C750 1.386 . S
C755 C754 1.367 . S
C756 C750 1.483 . S
C756 C757 1.382 . S
C756 C758 1.403 . S
C757 H736 0.950 . S
C757 C756 1.382 . S
C757 C773 1.411 . S
C758 C756 1.403 . S
C758 C759 1.489 . S
C758 C772 1.411 . S
C759 C758 1.489 . S
C759 C760 1.383 . S
C759 C764 1.382 . S
C760 H737 0.950 . S
C760 C759 1.383 . S
C760 C761 1.395 . S
C761 H738 0.950 . S
C761 C760 1.395 . S
C761 C762 1.288 . S
C762 C761 1.288 . S
C762 C763 1.392 . S
C763 H739 0.951 . S
C763 C762 1.392 . S
C763 C764 1.392 . S
C764 H740 0.949 . S
C764 C759 1.382 . S
C764 C763 1.392 . S
C765 C766 1.376 . S
C765 C770 1.386 . S
C765 C771 1.483 . S
C766 H741 0.949 . S
C766 C765 1.376 . S
C766 C767 1.397 . S
C767 H742 0.950 . S
C767 C766 1.397 . S
C767 C768 1.391 . S
C768 C767 1.391 . S
C768 C769 1.405 . S
C769 H743 0.950 . S
C769 C768 1.405 . S
C769 C770 1.367 . S
C770 H744 0.950 . S
C770 C765 1.386 . S
C770 C769 1.367 . S
C771 C765 1.483 . S
C771 C772 1.382 . S
C771 C773 1.403 . S
C772 H745 0.950 . S
C772 C758 1.411 . S
C772 C771 1.382 . S
C773 C757 1.411 . S
C773 C771 1.403 . S
C773 C774 1.489 . S
C774 C773 1.489 . S
C774 C775 1.383 . S
C774 C779 1.382 . S
C775 H746 0.950 . S
C775 C774 1.383 . S
C775 C776 1.395 . S
C776 H747 0.950 . S
C776 C775 1.395 . S
C776 C777 1.288 . S
C777 C776 1.288 . S
C777 C778 1.392 . S
C778 H748 0.951 . S
C778 C777 1.392 . S
C778 C779 1.392 . S
C779 H749 0.949 . S
C779 C774 1.382 . S
C779 C778 1.392 . S
H780 C799 0.949 . S
H781 C800 0.950 . S
H782 C802 0.950 . S
H783 C803 0.950 . S
H784 C805 0.950 . S
H785 C808 0.950 . S
H786 C809 0.950 . S
H787 C811 0.951 . S
H788 C812 0.949 . S
H789 C814 0.949 . S
H790 C815 0.950 . S
H791 C817 0.950 . S
H792 C818 0.950 . S
H793 C820 0.950 . S
H794 C823 0.950 . S
H795 C824 0.950 . S
H796 C826 0.951 . S
H797 C827 0.949 . S
C798 C799 1.376 . S
C798 C803 1.386 1_545 S
C798 C804 1.483 . S
C799 H780 0.949 . S
C799 C798 1.376 . S
C799 C800 1.397 . S
C800 H781 0.950 . S
C800 C799 1.397 . S
C800 C801 1.391 . S
C801 C800 1.391 . S
C801 C802 1.405 1_545 S
C802 H782 0.950 . S
C802 C801 1.405 1_565 S
C802 C803 1.367 . S
C803 H783 0.950 . S
C803 C798 1.386 1_565 S
C803 C802 1.367 . S
C804 C798 1.483 . S
C804 C805 1.382 . S
C804 C806 1.403 1_545 S
C805 H784 0.950 . S
C805 C804 1.382 . S
C805 C821 1.411 . S
C806 C804 1.403 1_565 S
C806 C807 1.489 . S
C806 C820 1.411 . S
C807 C806 1.489 . S
C807 C808 1.383 1_565 S
C807 C812 1.382 . S
C808 H785 0.950 . S
C808 C807 1.383 1_545 S
C808 C809 1.395 . S
C809 H786 0.950 . S
C809 C808 1.395 . S
C809 C810 1.288 1_545 S
C810 C809 1.288 1_565 S
C810 C811 1.392 . S
C811 H787 0.951 . S
C811 C810 1.392 . S
C811 C812 1.392 . S
C812 H788 0.949 . S
C812 C807 1.382 . S
C812 C811 1.392 . S
C813 C814 1.376 . S
C813 C818 1.386 1_565 S
C813 C819 1.483 . S
C814 H789 0.949 . S
C814 C813 1.376 . S
C814 C815 1.397 . S
C815 H790 0.950 . S
C815 C814 1.397 . S
C815 C816 1.391 . S
C816 C815 1.391 . S
C816 C817 1.405 1_565 S
C817 H791 0.950 . S
C817 C816 1.405 1_545 S
C817 C818 1.367 . S
C818 H792 0.950 . S
C818 C813 1.386 1_545 S
C818 C817 1.367 . S
C819 C813 1.483 . S
C819 C820 1.382 . S
C819 C821 1.403 1_565 S
C820 H793 0.950 . S
C820 C806 1.411 . S
C820 C819 1.382 . S
C821 C805 1.411 . S
C821 C819 1.403 1_545 S
C821 C822 1.489 . S
C822 C821 1.489 . S
C822 C823 1.383 1_545 S
C822 C827 1.382 . S
C823 H794 0.950 . S
C823 C822 1.383 1_565 S
C823 C824 1.395 . S
C824 H795 0.950 . S
C824 C823 1.395 . S
C824 C825 1.288 1_565 S
C825 C824 1.288 1_545 S
C825 C826 1.392 . S
C826 H796 0.951 . S
C826 C825 1.392 . S
C826 C827 1.392 . S
C827 H797 0.949 . S
C827 C822 1.382 . S
C827 C826 1.392 . S
H828 C847 0.949 . S
H829 C848 0.950 . S
H830 C850 0.950 . S
H831 C851 0.950 . S
H832 C853 0.950 . S
H833 C856 0.950 . S
H834 C857 0.950 . S
H835 C859 0.951 . S
H836 C860 0.949 . S
H837 C862 0.949 . S
H838 C863 0.950 . S
H839 C865 0.950 . S
H840 C866 0.950 . S
H841 C868 0.950 . S
H842 C871 0.950 . S
H843 C872 0.950 . S
H844 C874 0.951 . S
H845 C875 0.949 . S
C846 C847 1.407 . S
C846 C851 1.373 1_545 S
C846 C852 1.465 . S
C847 H828 0.949 . S
C847 C846 1.407 . S
C847 C848 1.397 . S
C848 H829 0.950 . S
C848 C847 1.397 . S
C848 C849 1.391 1_545 S
C849 C848 1.391 1_565 S
C849 C850 1.405 . S
C850 H830 0.950 . S
C850 C849 1.405 . S
C850 C851 1.367 . S
C851 H831 0.950 . S
C851 C846 1.373 1_565 S
C851 C850 1.367 . S
C852 C846 1.465 . S
C852 C853 1.382 . S
C852 C854 1.400 1_545 S
C853 H832 0.950 . S
C853 C852 1.382 . S
C853 C869 1.437 . S
C854 C852 1.400 1_565 S
C854 C855 1.476 . S
C854 C868 1.430 . S
C855 C854 1.476 . S
C855 C856 1.378 1_565 S
C855 C860 1.384 . S
C856 H833 0.950 . S
C856 C855 1.378 1_545 S
C856 C857 1.395 . S
C857 H834 0.950 . S
C857 C856 1.395 . S
C857 C858 1.288 . S
C858 C857 1.288 . S
C858 C859 1.392 1_545 S
C859 H835 0.951 . S
C859 C858 1.392 1_565 S
C859 C860 1.392 . S
C860 H836 0.949 . S
C860 C855 1.384 . S
C860 C859 1.392 . S
C861 C862 1.397 . S
C861 C866 1.377 1_565 S
C861 C867 1.471 . S
C862 H837 0.949 . S
C862 C861 1.397 . S
C862 C863 1.397 . S
C863 H838 0.950 . S
C863 C862 1.397 . S
C863 C864 1.391 1_565 S
C864 C863 1.391 1_545 S
C864 C865 1.405 . S
C865 H839 0.950 . S
C865 C864 1.405 . S
C865 C866 1.367 . S
C866 H840 0.950 . S
C866 C861 1.377 1_545 S
C866 C865 1.367 . S
C867 C861 1.471 . S
C867 C868 1.382 . S
C867 C869 1.400 1_565 S
C868 H841 0.950 . S
C868 C854 1.430 . S
C868 C867 1.382 . S
C869 C853 1.437 . S
C869 C867 1.400 1_545 S
C869 C870 1.476 . S
C870 C869 1.476 . S
C870 C871 1.364 1_545 S
C870 C875 1.391 . S
C871 H842 0.950 . S
C871 C870 1.364 1_565 S
C871 C872 1.395 . S
C872 H843 0.950 . S
C872 C871 1.395 . S
C872 C873 1.288 . S
C873 C872 1.288 . S
C873 C874 1.392 1_565 S
C874 H844 0.951 . S
C874 C873 1.392 1_545 S
C874 C875 1.392 . S
C875 H845 0.949 . S
C875 C870 1.391 . S
C875 C874 1.392 . S
H876 C895 0.949 . S
H877 C896 0.950 . S
H878 C898 0.950 . S
H879 C899 0.950 . S
H880 C901 0.950 . S
H881 C904 0.950 . S
H882 C905 0.950 . S
H883 C907 0.951 . S
H884 C908 0.949 . S
H885 C910 0.949 . S
H886 C911 0.950 . S
H887 C913 0.950 . S
H888 C914 0.950 . S
H889 C916 0.950 . S
H890 C919 0.950 . S
H891 C920 0.950 . S
H892 C922 0.951 . S
H893 C923 0.949 . S
C894 C895 1.376 . S
C894 C899 1.386 1_455 S
C894 C900 1.483 . S
C895 H876 0.949 . S
C895 C894 1.376 . S
C895 C896 1.397 . S
C896 H877 0.950 . S
C896 C895 1.397 . S
C896 C897 1.391 . S
C897 C896 1.391 . S
C897 C898 1.405 1_455 S
C898 H878 0.950 . S
C898 C897 1.405 1_655 S
C898 C899 1.367 . S
C899 H879 0.950 . S
C899 C894 1.386 1_655 S
C899 C898 1.367 . S
C900 C894 1.483 . S
C900 C901 1.382 . S
C900 C902 1.403 1_455 S
C901 H880 0.950 . S
C901 C900 1.382 . S
C901 C917 1.411 . S
C902 C900 1.403 1_655 S
C902 C903 1.489 . S
C902 C916 1.411 . S
C903 C902 1.489 . S
C903 C904 1.383 1_655 S
C903 C908 1.382 . S
C904 H881 0.950 . S
C904 C903 1.383 1_455 S
C904 C905 1.395 . S
C905 H882 0.950 . S
C905 C904 1.395 . S
C905 C906 1.288 1_455 S
C906 C905 1.288 1_655 S
C906 C907 1.392 . S
C907 H883 0.951 . S
C907 C906 1.392 . S
C907 C908 1.392 . S
C908 H884 0.949 . S
C908 C903 1.382 . S
C908 C907 1.392 . S
C909 C910 1.376 . S
C909 C914 1.386 1_655 S
C909 C915 1.483 . S
C910 H885 0.949 . S
C910 C909 1.376 . S
C910 C911 1.397 . S
C911 H886 0.950 . S
C911 C910 1.397 . S
C911 C912 1.391 . S
C912 C911 1.391 . S
C912 C913 1.405 1_655 S
C913 H887 0.950 . S
C913 C912 1.405 1_455 S
C913 C914 1.367 . S
C914 H888 0.950 . S
C914 C909 1.386 1_455 S
C914 C913 1.367 . S
C915 C909 1.483 . S
C915 C916 1.382 . S
C915 C917 1.403 1_655 S
C916 H889 0.950 . S
C916 C902 1.411 . S
C916 C915 1.382 . S
C917 C901 1.411 . S
C917 C915 1.403 1_455 S
C917 C918 1.489 . S
C918 C917 1.489 . S
C918 C919 1.383 1_455 S
C918 C923 1.382 . S
C919 H890 0.950 . S
C919 C918 1.383 1_655 S
C919 C920 1.395 . S
C920 H891 0.950 . S
C920 C919 1.395 . S
C920 C921 1.288 1_655 S
C921 C920 1.288 1_455 S
C921 C922 1.392 . S
C922 H892 0.951 . S
C922 C921 1.392 . S
C922 C923 1.392 . S
C923 H893 0.949 . S
C923 C918 1.382 . S
C923 C922 1.392 . S
H924 C943 0.949 . S
H925 C944 0.950 . S
H926 C946 0.950 . S
H927 C947 0.950 . S
H928 C949 0.950 . S
H929 C952 0.950 . S
H930 C953 0.950 . S
H931 C955 0.951 . S
H932 C956 0.949 . S
H933 C958 0.949 . S
H934 C959 0.950 . S
H935 C961 0.950 . S
H936 C962 0.950 . S
H937 C964 0.950 . S
H938 C967 0.950 . S
H939 C968 0.950 . S
H940 C970 0.951 . S
H941 C971 0.949 . S
C942 C943 1.376 . S
C942 C947 1.386 . S
C942 C948 1.483 . S
C943 H924 0.949 . S
C943 C942 1.376 . S
C943 C944 1.397 . S
C944 H925 0.950 . S
C944 C943 1.397 . S
C944 C945 1.391 . S
C945 C944 1.391 . S
C945 C946 1.405 . S
C946 H926 0.950 . S
C946 C945 1.405 . S
C946 C947 1.367 . S
C947 H927 0.950 . S
C947 C942 1.386 . S
C947 C946 1.367 . S
C948 C942 1.483 . S
C948 C949 1.382 . S
C948 C950 1.403 . S
C949 H928 0.950 . S
C949 C948 1.382 . S
C949 C965 1.411 . S
C950 C948 1.403 . S
C950 C951 1.489 . S
C950 C964 1.411 . S
C951 C950 1.489 . S
C951 C952 1.383 . S
C951 C956 1.382 . S
C952 H929 0.950 . S
C952 C951 1.383 . S
C952 C953 1.395 . S
C953 H930 0.950 . S
C953 C952 1.395 . S
C953 C954 1.288 . S
C954 C953 1.288 . S
C954 C955 1.392 . S
C955 H931 0.951 . S
C955 C954 1.392 . S
C955 C956 1.392 . S
C956 H932 0.949 . S
C956 C951 1.382 . S
C956 C955 1.392 . S
C957 C958 1.376 . S
C957 C962 1.386 . S
C957 C963 1.483 . S
C958 H933 0.949 . S
C958 C957 1.376 . S
C958 C959 1.397 . S
C959 H934 0.950 . S
C959 C958 1.397 . S
C959 C960 1.391 . S
C960 C959 1.391 . S
C960 C961 1.405 . S
C961 H935 0.950 . S
C961 C960 1.405 . S
C961 C962 1.367 . S
C962 H936 0.950 . S
C962 C957 1.386 . S
C962 C961 1.367 . S
C963 C957 1.483 . S
C963 C964 1.382 . S
C963 C965 1.403 . S
C964 H937 0.950 . S
C964 C950 1.411 . S
C964 C963 1.382 . S
C965 C949 1.411 . S
C965 C963 1.403 . S
C965 C966 1.489 . S
C966 C965 1.489 . S
C966 C967 1.383 . S
C966 C971 1.382 . S
C967 H938 0.950 . S
C967 C966 1.383 . S
C967 C968 1.395 . S
C968 H939 0.950 . S
C968 C967 1.395 . S
C968 C969 1.288 . S
C969 C968 1.288 . S
C969 C970 1.392 . S
C970 H940 0.951 . S
C970 C969 1.392 . S
C970 C971 1.392 . S
C971 H941 0.949 . S
C971 C966 1.382 . S
C971 C970 1.392 . S
H972 C991 0.949 . S
H973 C992 0.950 . S
H974 C994 0.950 . S
H975 C995 0.950 . S
H976 C997 0.950 . S
H977 C1000 0.950 . S
H978 C1001 0.950 . S
H979 C1003 0.951 . S
H980 C1004 0.949 . S
H981 C1006 0.949 . S
H982 C1007 0.950 . S
H983 C1009 0.950 . S
H984 C1010 0.950 . S
H985 C1012 0.950 . S
H986 C1015 0.950 . S
H987 C1016 0.950 . S
H988 C1018 0.951 . S
H989 C1019 0.949 . S
C990 C991 1.376 . S
C990 C995 1.386 . S
C990 C996 1.483 . S
C991 H972 0.949 . S
C991 C990 1.376 . S
C991 C992 1.397 . S
C992 H973 0.950 . S
C992 C991 1.397 . S
C992 C993 1.391 . S
C993 C992 1.391 . S
C993 C994 1.405 . S
C994 H974 0.950 . S
C994 C993 1.405 . S
C994 C995 1.367 . S
C995 H975 0.950 . S
C995 C990 1.386 . S
C995 C994 1.367 . S
C996 C990 1.483 . S
C996 C997 1.382 . S
C996 C998 1.403 . S
C997 H976 0.950 . S
C997 C996 1.382 . S
C997 C1013 1.411 . S
C998 C996 1.403 . S
C998 C999 1.489 . S
C998 C1012 1.411 . S
C999 C998 1.489 . S
C999 C1000 1.383 . S
C999 C1004 1.382 . S
C1000 H977 0.950 . S
C1000 C999 1.383 . S
C1000 C1001 1.395 . S
C1001 H978 0.950 . S
C1001 C1000 1.395 . S
C1001 C1002 1.288 . S
C1002 C1001 1.288 . S
C1002 C1003 1.392 . S
C1003 H979 0.951 . S
C1003 C1002 1.392 . S
C1003 C1004 1.392 . S
C1004 H980 0.949 . S
C1004 C999 1.382 . S
C1004 C1003 1.392 . S
C1005 C1006 1.376 . S
C1005 C1010 1.386 . S
C1005 C1011 1.483 . S
C1006 H981 0.949 . S
C1006 C1005 1.376 . S
C1006 C1007 1.397 . S
C1007 H982 0.950 . S
C1007 C1006 1.397 . S
C1007 C1008 1.391 . S
C1008 C1007 1.391 . S
C1008 C1009 1.405 . S
C1009 H983 0.950 . S
C1009 C1008 1.405 . S
C1009 C1010 1.367 . S
C1010 H984 0.950 . S
C1010 C1005 1.386 . S
C1010 C1009 1.367 . S
C1011 C1005 1.483 . S
C1011 C1012 1.382 . S
C1011 C1013 1.403 . S
C1012 H985 0.950 . S
C1012 C998 1.411 . S
C1012 C1011 1.382 . S
C1013 C997 1.411 . S
C1013 C1011 1.403 . S
C1013 C1014 1.489 . S
C1014 C1013 1.489 . S
C1014 C1015 1.383 . S
C1014 C1019 1.382 . S
C1015 H986 0.950 . S
C1015 C1014 1.383 . S
C1015 C1016 1.395 . S
C1016 H987 0.950 . S
C1016 C1015 1.395 . S
C1016 C1017 1.288 . S
C1017 C1016 1.288 . S
C1017 C1018 1.392 . S
C1018 H988 0.951 . S
C1018 C1017 1.392 . S
C1018 C1019 1.392 . S
C1019 H989 0.949 . S
C1019 C1014 1.382 . S
C1019 C1018 1.392 . S
H1020 C1039 0.949 . S
H1021 C1040 0.950 . S
H1022 C1042 0.950 . S
H1023 C1043 0.950 . S
H1024 C1045 0.950 . S
H1025 C1048 0.950 . S
H1026 C1049 0.950 . S
H1027 C1051 0.951 . S
H1028 C1052 0.949 . S
H1029 C1054 0.949 . S
H1030 C1055 0.950 . S
H1031 C1057 0.950 . S
H1032 C1058 0.950 . S
H1033 C1060 0.950 . S
H1034 C1063 0.950 . S
H1035 C1064 0.950 . S
H1036 C1066 0.951 . S
H1037 C1067 0.949 . S
C1038 C1039 1.376 . S
C1038 C1043 1.386 . S
C1038 C1044 1.483 . S
C1039 H1020 0.949 . S
C1039 C1038 1.376 . S
C1039 C1040 1.397 . S
C1040 H1021 0.950 . S
C1040 C1039 1.397 . S
C1040 C1041 1.391 . S
C1041 C1040 1.391 . S
C1041 C1042 1.405 . S
C1042 H1022 0.950 . S
C1042 C1041 1.405 . S
C1042 C1043 1.367 . S
C1043 H1023 0.950 . S
C1043 C1038 1.386 . S
C1043 C1042 1.367 . S
C1044 C1038 1.483 . S
C1044 C1045 1.382 . S
C1044 C1046 1.403 . S
C1045 H1024 0.950 . S
C1045 C1044 1.382 . S
C1045 C1061 1.411 . S
C1046 C1044 1.403 . S
C1046 C1047 1.489 . S
C1046 C1060 1.411 . S
C1047 C1046 1.489 . S
C1047 C1048 1.383 . S
C1047 C1052 1.382 . S
C1048 H1025 0.950 . S
C1048 C1047 1.383 . S
C1048 C1049 1.395 . S
C1049 H1026 0.950 . S
C1049 C1048 1.395 . S
C1049 C1050 1.288 . S
C1050 C1049 1.288 . S
C1050 C1051 1.392 . S
C1051 H1027 0.951 . S
C1051 C1050 1.392 . S
C1051 C1052 1.392 . S
C1052 H1028 0.949 . S
C1052 C1047 1.382 . S
C1052 C1051 1.392 . S
C1053 C1054 1.376 . S
C1053 C1058 1.386 . S
C1053 C1059 1.483 . S
C1054 H1029 0.949 . S
C1054 C1053 1.376 . S
C1054 C1055 1.397 . S
C1055 H1030 0.950 . S
C1055 C1054 1.397 . S
C1055 C1056 1.391 . S
C1056 C1055 1.391 . S
C1056 C1057 1.405 . S
C1057 H1031 0.950 . S
C1057 C1056 1.405 . S
C1057 C1058 1.367 . S
C1058 H1032 0.950 . S
C1058 C1053 1.386 . S
C1058 C1057 1.367 . S
C1059 C1053 1.483 . S
C1059 C1060 1.382 . S
C1059 C1061 1.403 . S
C1060 H1033 0.950 . S
C1060 C1046 1.411 . S
C1060 C1059 1.382 . S
C1061 C1045 1.411 . S
C1061 C1059 1.403 . S
C1061 C1062 1.489 . S
C1062 C1061 1.489 . S
C1062 C1063 1.383 . S
C1062 C1067 1.382 . S
C1063 H1034 0.950 . S
C1063 C1062 1.383 . S
C1063 C1064 1.395 . S
C1064 H1035 0.950 . S
C1064 C1063 1.395 . S
C1064 C1065 1.288 . S
C1065 C1064 1.288 . S
C1065 C1066 1.392 . S
C1066 H1036 0.951 . S
C1066 C1065 1.392 . S
C1066 C1067 1.392 . S
C1067 H1037 0.949 . S
C1067 C1062 1.382 . S
C1067 C1066 1.392 . S
H1068 C1087 0.949 . S
H1069 C1088 0.950 . S
H1070 C1090 0.950 . S
H1071 C1091 0.950 . S
H1072 C1093 0.950 . S
H1073 C1096 0.950 . S
H1074 C1097 0.950 . S
H1075 C1099 0.951 . S
H1076 C1100 0.949 . S
H1077 C1102 0.949 . S
H1078 C1103 0.950 . S
H1079 C1105 0.950 . S
H1080 C1106 0.950 . S
H1081 C1108 0.950 . S
H1082 C1111 0.950 . S
H1083 C1112 0.950 . S
H1084 C1114 0.951 . S
H1085 C1115 0.949 . S
C1086 C1087 1.376 . S
C1086 C1091 1.386 . S
C1086 C1092 1.483 . S
C1087 H1068 0.949 . S
C1087 C1086 1.376 . S
C1087 C1088 1.397 . S
C1088 H1069 0.950 . S
C1088 C1087 1.397 . S
C1088 C1089 1.391 . S
C1089 C1088 1.391 . S
C1089 C1090 1.405 . S
C1090 H1070 0.950 . S
C1090 C1089 1.405 . S
C1090 C1091 1.367 . S
C1091 H1071 0.950 . S
C1091 C1086 1.386 . S
C1091 C1090 1.367 . S
C1092 C1086 1.483 . S
C1092 C1093 1.382 . S
C1092 C1094 1.403 . S
C1093 H1072 0.950 . S
C1093 C1092 1.382 . S
C1093 C1109 1.411 . S
C1094 C1092 1.403 . S
C1094 C1095 1.489 . S
C1094 C1108 1.411 . S
C1095 C1094 1.489 . S
C1095 C1096 1.383 . S
C1095 C1100 1.382 . S
C1096 H1073 0.950 . S
C1096 C1095 1.383 . S
C1096 C1097 1.395 . S
C1097 H1074 0.950 . S
C1097 C1096 1.395 . S
C1097 C1098 1.288 . S
C1098 C1097 1.288 . S
C1098 C1099 1.392 . S
C1099 H1075 0.951 . S
C1099 C1098 1.392 . S
C1099 C1100 1.392 . S
C1100 H1076 0.949 . S
C1100 C1095 1.382 . S
C1100 C1099 1.392 . S
C1101 C1102 1.376 . S
C1101 C1106 1.386 . S
C1101 C1107 1.483 . S
C1102 H1077 0.949 . S
C1102 C1101 1.376 . S
C1102 C1103 1.397 . S
C1103 H1078 0.950 . S
C1103 C1102 1.397 . S
C1103 C1104 1.391 . S
C1104 C1103 1.391 . S
C1104 C1105 1.405 . S
C1105 H1079 0.950 . S
C1105 C1104 1.405 . S
C1105 C1106 1.367 . S
C1106 H1080 0.950 . S
C1106 C1101 1.386 . S
C1106 C1105 1.367 . S
C1107 C1101 1.483 . S
C1107 C1108 1.382 . S
C1107 C1109 1.403 . S
C1108 H1081 0.950 . S
C1108 C1094 1.411 . S
C1108 C1107 1.382 . S
C1109 C1093 1.411 . S
C1109 C1107 1.403 . S
C1109 C1110 1.489 . S
C1110 C1109 1.489 . S
C1110 C1111 1.383 . S
C1110 C1115 1.382 . S
C1111 H1082 0.950 . S
C1111 C1110 1.383 . S
C1111 C1112 1.395 . S
C1112 H1083 0.950 . S
C1112 C1111 1.395 . S
C1112 C1113 1.288 . S
C1113 C1112 1.288 . S
C1113 C1114 1.392 . S
C1114 H1084 0.951 . S
C1114 C1113 1.392 . S
C1114 C1115 1.392 . S
C1115 H1085 0.949 . S
C1115 C1110 1.382 . S
C1115 C1114 1.392 . S
C1116 C1117 1.369 1_455 S
C1116 C1118 1.419 . S
C1116 H1120 0.930 . S
C1117 C1116 1.369 1_655 S
C1117 C1126 1.429 . S
C1118 C1116 1.419 . S
C1118 C1119 1.363 1_455 S
C1118 H1121 0.929 . S
C1119 C1118 1.363 1_655 S
C1119 C1125 1.428 . S
H1120 C1116 0.930 . S
H1121 C1118 0.929 . S
S1122 N1123 1.613 . S
S1122 N1124 1.610 . S
N1123 S1122 1.613 . S
N1123 C1126 1.350 . S
N1124 S1122 1.610 . S
N1124 C1125 1.351 . S
C1125 C1119 1.428 . S
C1125 N1124 1.351 . S
C1125 C1126 1.434 . S
C1126 C1117 1.429 . S
C1126 N1123 1.350 . S
C1126 C1125 1.434 . S
C1127 C1128 1.369 . S
C1127 C1129 1.419 . S
C1127 H1131 0.930 . S
C1128 C1127 1.369 . S
C1128 C1137 1.429 . S
C1129 C1127 1.419 . S
C1129 C1130 1.363 . S
C1129 H1132 0.929 . S
C1130 C1129 1.363 . S
C1130 C1136 1.428 . S
H1131 C1127 0.930 . S
H1132 C1129 0.929 . S
S1133 N1134 1.613 . S
S1133 N1135 1.610 . S
N1134 S1133 1.613 . S
N1134 C1137 1.350 . S
N1135 S1133 1.610 . S
N1135 C1136 1.351 . S
C1136 C1130 1.428 . S
C1136 N1135 1.351 . S
C1136 C1137 1.434 . S
C1137 C1128 1.429 . S
C1137 N1134 1.350 . S
C1137 C1136 1.434 . S
C1138 C1139 1.369 . S
C1138 C1140 1.419 . S
C1138 H1142 0.930 . S
C1139 C1138 1.369 . S
C1139 C1148 1.429 . S
C1140 C1138 1.419 . S
C1140 C1141 1.363 . S
C1140 H1143 0.929 . S
C1141 C1140 1.363 . S
C1141 C1147 1.428 . S
H1142 C1138 0.930 . S
H1143 C1140 0.929 . S
S1144 N1145 1.613 . S
S1144 N1146 1.610 . S
N1145 S1144 1.613 . S
N1145 C1148 1.350 . S
N1146 S1144 1.610 . S
N1146 C1147 1.351 . S
C1147 C1141 1.428 . S
C1147 N1146 1.351 . S
C1147 C1148 1.434 . S
C1148 C1139 1.429 . S
C1148 N1145 1.350 . S
C1148 C1147 1.434 . S
C1149 C1150 1.369 1_545 S
C1149 C1151 1.419 . S
C1149 H1153 0.930 . S
C1150 C1149 1.369 1_565 S
C1150 C1159 1.429 . S
C1151 C1149 1.419 . S
C1151 C1152 1.363 1_545 S
C1151 H1154 0.929 . S
C1152 C1151 1.363 1_565 S
C1152 C1158 1.428 . S
H1153 C1149 0.930 . S
H1154 C1151 0.929 . S
S1155 N1156 1.613 . S
S1155 N1157 1.610 . S
N1156 S1155 1.613 . S
N1156 C1159 1.350 . S
N1157 S1155 1.610 . S
N1157 C1158 1.351 . S
C1158 C1152 1.428 . S
C1158 N1157 1.351 . S
C1158 C1159 1.434 . S
C1159 C1150 1.429 . S
C1159 N1156 1.350 . S
C1159 C1158 1.434 . S
C1160 C1161 1.369 1_655 S
C1160 C1162 1.419 . S
C1160 H1164 0.930 . S
C1161 C1160 1.369 1_455 S
C1161 C1170 1.429 . S
C1162 C1160 1.419 . S
C1162 C1163 1.363 1_655 S
C1162 H1165 0.929 . S
C1163 C1162 1.363 1_455 S
C1163 C1169 1.428 . S
H1164 C1160 0.930 . S
H1165 C1162 0.929 . S
S1166 N1167 1.613 . S
S1166 N1168 1.610 . S
N1167 S1166 1.613 . S
N1167 C1170 1.350 . S
N1168 S1166 1.610 . S
N1168 C1169 1.351 . S
C1169 C1163 1.428 . S
C1169 N1168 1.351 . S
C1169 C1170 1.434 . S
C1170 C1161 1.429 . S
C1170 N1167 1.350 . S
C1170 C1169 1.434 . S
C1171 C1172 1.369 . S
C1171 C1173 1.419 . S
C1171 H1175 0.930 . S
C1172 C1171 1.369 . S
C1172 C1181 1.429 . S
C1173 C1171 1.419 . S
C1173 C1174 1.363 . S
C1173 H1176 0.929 . S
C1174 C1173 1.363 . S
C1174 C1180 1.428 . S
H1175 C1171 0.930 . S
H1176 C1173 0.929 . S
S1177 N1178 1.613 . S
S1177 N1179 1.610 . S
N1178 S1177 1.613 . S
N1178 C1181 1.350 . S
N1179 S1177 1.610 . S
N1179 C1180 1.351 . S
C1180 C1174 1.428 . S
C1180 N1179 1.351 . S
C1180 C1181 1.434 . S
C1181 C1172 1.429 . S
C1181 N1178 1.350 . S
C1181 C1180 1.434 . S
C1182 C1183 1.369 1_655 S
C1182 C1184 1.419 . S
C1182 H1186 0.930 . S
C1183 C1182 1.369 1_455 S
C1183 C1192 1.429 . S
C1184 C1182 1.419 . S
C1184 C1185 1.363 1_655 S
C1184 H1187 0.929 . S
C1185 C1184 1.363 1_455 S
C1185 C1191 1.428 . S
H1186 C1182 0.930 . S
H1187 C1184 0.929 . S
S1188 N1189 1.613 . S
S1188 N1190 1.610 . S
N1189 S1188 1.613 . S
N1189 C1192 1.350 . S
N1190 S1188 1.610 . S
N1190 C1191 1.351 . S
C1191 C1185 1.428 . S
C1191 N1190 1.351 . S
C1191 C1192 1.434 . S
C1192 C1183 1.429 . S
C1192 N1189 1.350 . S
C1192 C1191 1.434 . S
C1193 C1194 1.369 . S
C1193 C1195 1.419 . S
C1193 H1197 0.930 . S
C1194 C1193 1.369 . S
C1194 C1203 1.429 . S
C1195 C1193 1.419 . S
C1195 C1196 1.363 . S
C1195 H1198 0.929 . S
C1196 C1195 1.363 . S
C1196 C1202 1.428 . S
H1197 C1193 0.930 . S
H1198 C1195 0.929 . S
S1199 N1200 1.613 . S
S1199 N1201 1.610 . S
N1200 S1199 1.613 . S
N1200 C1203 1.350 . S
N1201 S1199 1.610 . S
N1201 C1202 1.351 . S
C1202 C1196 1.428 . S
C1202 N1201 1.351 . S
C1202 C1203 1.434 . S
C1203 C1194 1.429 . S
C1203 N1200 1.350 . S
C1203 C1202 1.434 . S
C1204 C1205 1.369 . S
C1204 C1206 1.419 . S
C1204 H1208 0.930 . S
C1205 C1204 1.369 . S
C1205 C1214 1.429 1_565 S
C1206 C1204 1.419 . S
C1206 C1207 1.363 . S
C1206 H1209 0.929 . S
C1207 C1206 1.363 . S
C1207 C1213 1.428 1_565 S
H1208 C1204 0.930 . S
H1209 C1206 0.929 . S
S1210 N1211 1.613 . S
S1210 N1212 1.610 . S
N1211 S1210 1.613 . S
N1211 C1214 1.350 . S
N1212 S1210 1.610 . S
N1212 C1213 1.351 . S
C1213 C1207 1.428 1_545 S
C1213 N1212 1.351 . S
C1213 C1214 1.434 . S
C1214 C1205 1.429 1_545 S
C1214 N1211 1.350 . S
C1214 C1213 1.434 . S
C1215 C1216 1.369 1_565 S
C1215 C1217 1.419 . S
C1215 H1219 0.930 . S
C1216 C1215 1.369 1_545 S
C1216 C1225 1.429 . S
C1217 C1215 1.419 . S
C1217 C1218 1.363 1_565 S
C1217 H1220 0.929 . S
C1218 C1217 1.363 1_545 S
C1218 C1224 1.428 . S
H1219 C1215 0.930 . S
H1220 C1217 0.929 . S
S1221 N1222 1.613 . S
S1221 N1223 1.610 . S
N1222 S1221 1.613 . S
N1222 C1225 1.350 . S
N1223 S1221 1.610 . S
N1223 C1224 1.351 . S
C1224 C1218 1.428 . S
C1224 N1223 1.351 . S
C1224 C1225 1.434 . S
C1225 C1216 1.429 . S
C1225 N1222 1.350 . S
C1225 C1224 1.434 . S
C1226 C1227 1.369 . S
C1226 C1228 1.419 . S
C1226 H1230 0.930 . S
C1227 C1226 1.369 . S
C1227 C1236 1.429 . S
C1228 C1226 1.419 . S
C1228 C1229 1.363 . S
C1228 H1231 0.929 . S
C1229 C1228 1.363 . S
C1229 C1235 1.428 . S
H1230 C1226 0.930 . S
H1231 C1228 0.929 . S
S1232 N1233 1.613 . S
S1232 N1234 1.610 . S
N1233 S1232 1.613 . S
N1233 C1236 1.350 . S
N1234 S1232 1.610 . S
N1234 C1235 1.351 . S
C1235 C1229 1.428 . S
C1235 N1234 1.351 . S
C1235 C1236 1.434 . S
C1236 C1227 1.429 . S
C1236 N1233 1.350 . S
C1236 C1235 1.434 . S
C1237 C1238 1.369 . S
C1237 C1239 1.419 . S
C1237 H1241 0.930 . S
C1238 C1237 1.369 . S
C1238 C1247 1.429 . S
C1239 C1237 1.419 . S
C1239 C1240 1.363 . S
C1239 H1242 0.929 . S
C1240 C1239 1.363 . S
C1240 C1246 1.428 . S
H1241 C1237 0.930 . S
H1242 C1239 0.929 . S
S1243 N1244 1.613 . S
S1243 N1245 1.610 . S
N1244 S1243 1.613 . S
N1244 C1247 1.350 . S
N1245 S1243 1.610 . S
N1245 C1246 1.351 . S
C1246 C1240 1.428 . S
C1246 N1245 1.351 . S
C1246 C1247 1.434 . S
C1247 C1238 1.429 . S
C1247 N1244 1.350 . S
C1247 C1246 1.434 . S
C1248 C1249 1.369 . S
C1248 C1250 1.419 . S
C1248 H1252 0.930 . S
C1249 C1248 1.369 . S
C1249 C1258 1.429 . S
C1250 C1248 1.419 . S
C1250 C1251 1.363 . S
C1250 H1253 0.929 . S
C1251 C1250 1.363 . S
C1251 C1257 1.428 . S
H1252 C1248 0.930 . S
H1253 C1250 0.929 . S
S1254 N1255 1.613 . S
S1254 N1256 1.610 . S
N1255 S1254 1.613 . S
N1255 C1258 1.350 . S
N1256 S1254 1.610 . S
N1256 C1257 1.351 . S
C1257 C1251 1.428 . S
C1257 N1256 1.351 . S
C1257 C1258 1.434 . S
C1258 C1249 1.429 . S
C1258 N1255 1.350 . S
C1258 C1257 1.434 . S
C1259 C1260 1.369 . S
C1259 C1261 1.419 . S
C1259 H1263 0.930 . S
C1260 C1259 1.369 . S
C1260 C1269 1.429 . S
C1261 C1259 1.419 . S
C1261 C1262 1.363 . S
C1261 H1264 0.929 . S
C1262 C1261 1.363 . S
C1262 C1268 1.428 . S
H1263 C1259 0.930 . S
H1264 C1261 0.929 . S
S1265 N1266 1.613 . S
S1265 N1267 1.610 . S
N1266 S1265 1.613 . S
N1266 C1269 1.350 . S
N1267 S1265 1.610 . S
N1267 C1268 1.351 . S
C1268 C1262 1.428 . S
C1268 N1267 1.351 . S
C1268 C1269 1.434 . S
C1269 C1260 1.429 . S
C1269 N1266 1.350 . S
C1269 C1268 1.434 . S
C1270 C1271 1.369 . S
C1270 C1272 1.419 . S
C1270 H1274 0.930 . S
C1271 C1270 1.369 . S
C1271 C1280 1.429 . S
C1272 C1270 1.419 . S
C1272 C1273 1.363 . S
C1272 H1275 0.929 . S
C1273 C1272 1.363 . S
C1273 C1279 1.428 . S
H1274 C1270 0.930 . S
H1275 C1272 0.929 . S
S1276 N1277 1.613 . S
S1276 N1278 1.610 . S
N1277 S1276 1.613 . S
N1277 C1280 1.350 . S
N1278 S1276 1.610 . S
N1278 C1279 1.351 . S
C1279 C1273 1.428 . S
C1279 N1278 1.351 . S
C1279 C1280 1.434 . S
C1280 C1271 1.429 . S
C1280 N1277 1.350 . S
C1280 C1279 1.434 . S
C1281 C1282 1.369 . S
C1281 C1283 1.419 . S
C1281 H1285 0.930 . S
C1282 C1281 1.369 . S
C1282 C1291 1.429 . S
C1283 C1281 1.419 . S
C1283 C1284 1.363 . S
C1283 H1286 0.929 . S
C1284 C1283 1.363 . S
C1284 C1290 1.428 . S
H1285 C1281 0.930 . S
H1286 C1283 0.929 . S
S1287 N1288 1.613 . S
S1287 N1289 1.610 . S
N1288 S1287 1.613 . S
N1288 C1291 1.350 . S
N1289 S1287 1.610 . S
N1289 C1290 1.351 . S
C1290 C1284 1.428 . S
C1290 N1289 1.351 . S
C1290 C1291 1.434 . S
C1291 C1282 1.429 . S
C1291 N1288 1.350 . S
C1291 C1290 1.434 . S
C1292 C1293 1.369 . S
C1292 C1294 1.419 . S
C1292 H1296 0.930 . S
C1293 C1292 1.369 . S
C1293 C1302 1.429 . S
C1294 C1292 1.419 . S
C1294 C1295 1.363 . S
C1294 H1297 0.929 . S
C1295 C1294 1.363 . S
C1295 C1301 1.428 . S
H1296 C1292 0.930 . S
H1297 C1294 0.929 . S
S1298 N1299 1.613 . S
S1298 N1300 1.610 . S
N1299 S1298 1.613 . S
N1299 C1302 1.350 . S
N1300 S1298 1.610 . S
N1300 C1301 1.351 . S
C1301 C1295 1.428 . S
C1301 N1300 1.351 . S
C1301 C1302 1.434 . S
C1302 C1293 1.429 . S
C1302 N1299 1.350 . S
C1302 C1301 1.434 . S
C1303 C1304 1.369 . S
C1303 C1305 1.419 . S
C1303 H1307 0.930 . S
C1304 C1303 1.369 . S
C1304 C1313 1.429 . S
C1305 C1303 1.419 . S
C1305 C1306 1.363 . S
C1305 H1308 0.929 . S
C1306 C1305 1.363 . S
C1306 C1312 1.428 . S
H1307 C1303 0.930 . S
H1308 C1305 0.929 . S
S1309 N1310 1.613 . S
S1309 N1311 1.610 . S
N1310 S1309 1.613 . S
N1310 C1313 1.350 . S
N1311 S1309 1.610 . S
N1311 C1312 1.351 . S
C1312 C1306 1.428 . S
C1312 N1311 1.351 . S
C1312 C1313 1.434 . S
C1313 C1304 1.429 . S
C1313 N1310 1.350 . S
C1313 C1312 1.434 . S
C1314 C1315 1.369 . S
C1314 C1316 1.419 . S
C1314 H1318 0.930 . S
C1315 C1314 1.369 . S
C1315 C1324 1.429 . S
C1316 C1314 1.419 . S
C1316 C1317 1.363 . S
C1316 H1319 0.929 . S
C1317 C1316 1.363 . S
C1317 C1323 1.428 . S
H1318 C1314 0.930 . S
H1319 C1316 0.929 . S
S1320 N1321 1.613 . S
S1320 N1322 1.610 . S
N1321 S1320 1.613 . S
N1321 C1324 1.350 . S
N1322 S1320 1.610 . S
N1322 C1323 1.351 . S
C1323 C1317 1.428 . S
C1323 N1322 1.351 . S
C1323 C1324 1.434 . S
C1324 C1315 1.429 . S
C1324 N1321 1.350 . S
C1324 C1323 1.434 . S
C1325 C1326 1.369 . S
C1325 C1327 1.419 . S
C1325 H1329 0.930 . S
C1326 C1325 1.369 . S
C1326 C1335 1.429 . S
C1327 C1325 1.419 . S
C1327 C1328 1.363 . S
C1327 H1330 0.929 . S
C1328 C1327 1.363 . S
C1328 C1334 1.428 . S
H1329 C1325 0.930 . S
H1330 C1327 0.929 . S
S1331 N1332 1.613 . S
S1331 N1333 1.610 . S
N1332 S1331 1.613 . S
N1332 C1335 1.350 . S
N1333 S1331 1.610 . S
N1333 C1334 1.351 . S
C1334 C1328 1.428 . S
C1334 N1333 1.351 . S
C1334 C1335 1.434 . S
C1335 C1326 1.429 . S
C1335 N1332 1.350 . S
C1335 C1334 1.434 . S
C1336 C1337 1.369 . S
C1336 C1338 1.419 . S
C1336 H1340 0.930 . S
C1337 C1336 1.369 . S
C1337 C1346 1.429 . S
C1338 C1336 1.419 . S
C1338 C1339 1.363 . S
C1338 H1341 0.929 . S
C1339 C1338 1.363 . S
C1339 C1345 1.428 . S
H1340 C1336 0.930 . S
H1341 C1338 0.929 . S
S1342 N1343 1.613 . S
S1342 N1344 1.610 . S
N1343 S1342 1.613 . S
N1343 C1346 1.350 . S
N1344 S1342 1.610 . S
N1344 C1345 1.351 . S
C1345 C1339 1.428 . S
C1345 N1344 1.351 . S
C1345 C1346 1.434 . S
C1346 C1337 1.429 . S
C1346 N1343 1.350 . S
C1346 C1345 1.434 . S
C1347 C1348 1.369 . S
C1347 C1349 1.419 . S
C1347 H1351 0.930 . S
C1348 C1347 1.369 . S
C1348 C1357 1.429 . S
C1349 C1347 1.419 . S
C1349 C1350 1.363 . S
C1349 H1352 0.929 . S
C1350 C1349 1.363 . S
C1350 C1356 1.428 . S
H1351 C1347 0.930 . S
H1352 C1349 0.929 . S
S1353 N1354 1.613 . S
S1353 N1355 1.610 . S
N1354 S1353 1.613 . S
N1354 C1357 1.350 . S
N1355 S1353 1.610 . S
N1355 C1356 1.351 . S
C1356 C1350 1.428 . S
C1356 N1355 1.351 . S
C1356 C1357 1.434 . S
C1357 C1348 1.429 . S
C1357 N1354 1.350 . S
C1357 C1356 1.434 . S
C1358 C1359 1.369 . S
C1358 C1360 1.419 . S
C1358 H1362 0.930 . S
C1359 C1358 1.369 . S
C1359 C1368 1.429 . S
C1360 C1358 1.419 . S
C1360 C1361 1.363 . S
C1360 H1363 0.929 . S
C1361 C1360 1.363 . S
C1361 C1367 1.428 . S
H1362 C1358 0.930 . S
H1363 C1360 0.929 . S
S1364 N1365 1.613 . S
S1364 N1366 1.610 . S
N1365 S1364 1.613 . S
N1365 C1368 1.350 . S
N1366 S1364 1.610 . S
N1366 C1367 1.351 . S
C1367 C1361 1.428 . S
C1367 N1366 1.351 . S
C1367 C1368 1.434 . S
C1368 C1359 1.429 . S
C1368 N1365 1.350 . S
C1368 C1367 1.434 . S
C1369 C1370 1.369 . S
C1369 C1371 1.419 . S
C1369 H1373 0.930 . S
C1370 C1369 1.369 . S
C1370 C1379 1.429 . S
C1371 C1369 1.419 . S
C1371 C1372 1.363 . S
C1371 H1374 0.929 . S
C1372 C1371 1.363 . S
C1372 C1378 1.428 . S
H1373 C1369 0.930 . S
H1374 C1371 0.929 . S
S1375 N1376 1.613 . S
S1375 N1377 1.610 . S
N1376 S1375 1.613 . S
N1376 C1379 1.350 . S
N1377 S1375 1.610 . S
N1377 C1378 1.351 . S
C1378 C1372 1.428 . S
C1378 N1377 1.351 . S
C1378 C1379 1.434 . S
C1379 C1370 1.429 . S
C1379 N1376 1.350 . S
C1379 C1378 1.434 . S
C1380 C1381 1.369 . S
C1380 C1382 1.419 . S
C1380 H1384 0.930 . S
C1381 C1380 1.369 . S
C1381 C1390 1.429 . S
C1382 C1380 1.419 . S
C1382 C1383 1.363 . S
C1382 H1385 0.929 . S
C1383 C1382 1.363 . S
C1383 C1389 1.428 . S
H1384 C1380 0.930 . S
H1385 C1382 0.929 . S
S1386 N1387 1.613 . S
S1386 N1388 1.610 . S
N1387 S1386 1.613 . S
N1387 C1390 1.350 . S
N1388 S1386 1.610 . S
N1388 C1389 1.351 . S
C1389 C1383 1.428 . S
C1389 N1388 1.351 . S
C1389 C1390 1.434 . S
C1390 C1381 1.429 . S
C1390 N1387 1.350 . S
C1390 C1389 1.434 . S
C1391 C1392 1.369 . S
C1391 C1393 1.419 . S
C1391 H1395 0.930 . S
C1392 C1391 1.369 . S
C1392 C1401 1.429 . S
C1393 C1391 1.419 . S
C1393 C1394 1.363 . S
C1393 H1396 0.929 . S
C1394 C1393 1.363 . S
C1394 C1400 1.428 . S
H1395 C1391 0.930 . S
H1396 C1393 0.929 . S
S1397 N1398 1.613 . S
S1397 N1399 1.610 . S
N1398 S1397 1.613 . S
N1398 C1401 1.350 . S
N1399 S1397 1.610 . S
N1399 C1400 1.351 . S
C1400 C1394 1.428 . S
C1400 N1399 1.351 . S
C1400 C1401 1.434 . S
C1401 C1392 1.429 . S
C1401 N1398 1.350 . S
C1401 C1400 1.434 . S
C1402 C1403 1.369 . S
C1402 C1404 1.419 . S
C1402 H1406 0.930 . S
C1403 C1402 1.369 . S
C1403 C1412 1.429 . S
C1404 C1402 1.419 . S
C1404 C1405 1.363 . S
C1404 H1407 0.929 . S
C1405 C1404 1.363 . S
C1405 C1411 1.428 . S
H1406 C1402 0.930 . S
H1407 C1404 0.929 . S
S1408 N1409 1.613 . S
S1408 N1410 1.610 . S
N1409 S1408 1.613 . S
N1409 C1412 1.350 . S
N1410 S1408 1.610 . S
N1410 C1411 1.351 . S
C1411 C1405 1.428 . S
C1411 N1410 1.351 . S
C1411 C1412 1.434 . S
C1412 C1403 1.429 . S
C1412 N1409 1.350 . S
C1412 C1411 1.434 . S
C1413 C1414 1.369 . S
C1413 C1415 1.419 . S
C1413 H1417 0.930 . S
C1414 C1413 1.369 . S
C1414 C1423 1.429 . S
C1415 C1413 1.419 . S
C1415 C1416 1.363 . S
C1415 H1418 0.929 . S
C1416 C1415 1.363 . S
C1416 C1422 1.428 . S
H1417 C1413 0.930 . S
H1418 C1415 0.929 . S
S1419 N1420 1.613 . S
S1419 N1421 1.610 . S
N1420 S1419 1.613 . S
N1420 C1423 1.350 . S
N1421 S1419 1.610 . S
N1421 C1422 1.351 . S
C1422 C1416 1.428 . S
C1422 N1421 1.351 . S
C1422 C1423 1.434 . S
C1423 C1414 1.429 . S
C1423 N1420 1.350 . S
C1423 C1422 1.434 . S
C1424 C1425 1.369 . S
C1424 C1426 1.419 . S
C1424 H1428 0.930 . S
C1425 C1424 1.369 . S
C1425 C1434 1.429 . S
C1426 C1424 1.419 . S
C1426 C1427 1.363 . S
C1426 H1429 0.929 . S
C1427 C1426 1.363 . S
C1427 C1433 1.428 . S
H1428 C1424 0.930 . S
H1429 C1426 0.929 . S
S1430 N1431 1.613 . S
S1430 N1432 1.610 . S
N1431 S1430 1.613 . S
N1431 C1434 1.350 . S
N1432 S1430 1.610 . S
N1432 C1433 1.351 . S
C1433 C1427 1.428 . S
C1433 N1432 1.351 . S
C1433 C1434 1.434 . S
C1434 C1425 1.429 . S
C1434 N1431 1.350 . S
C1434 C1433 1.434 . S
C1435 C1436 1.369 . S
C1435 C1437 1.419 . S
C1435 H1439 0.930 . S
C1436 C1435 1.369 . S
C1436 C1445 1.429 . S
C1437 C1435 1.419 . S
C1437 C1438 1.363 . S
C1437 H1440 0.929 . S
C1438 C1437 1.363 . S
C1438 C1444 1.428 . S
H1439 C1435 0.930 . S
H1440 C1437 0.929 . S
S1441 N1442 1.613 . S
S1441 N1443 1.610 . S
N1442 S1441 1.613 . S
N1442 C1445 1.350 . S
N1443 S1441 1.610 . S
N1443 C1444 1.351 . S
C1444 C1438 1.428 . S
C1444 N1443 1.351 . S
C1444 C1445 1.434 . S
C1445 C1436 1.429 . S
C1445 N1442 1.350 . S
C1445 C1444 1.434 . S
C1446 C1447 1.369 . S
C1446 C1448 1.419 . S
C1446 H1450 0.930 . S
C1447 C1446 1.369 . S
C1447 C1456 1.429 . S
C1448 C1446 1.419 . S
C1448 C1449 1.363 . S
C1448 H1451 0.929 . S
C1449 C1448 1.363 . S
C1449 C1455 1.428 . S
H1450 C1446 0.930 . S
H1451 C1448 0.929 . S
S1452 N1453 1.613 . S
S1452 N1454 1.610 . S
N1453 S1452 1.613 . S
N1453 C1456 1.350 . S
N1454 S1452 1.610 . S
N1454 C1455 1.351 . S
C1455 C1449 1.428 . S
C1455 N1454 1.351 . S
C1455 C1456 1.434 . S
C1456 C1447 1.429 . S
C1456 N1453 1.350 . S
C1456 C1455 1.434 . S
C1457 C1458 1.369 . S
C1457 C1459 1.419 . S
C1457 H1461 0.930 . S
C1458 C1457 1.369 . S
C1458 C1467 1.429 . S
C1459 C1457 1.419 . S
C1459 C1460 1.363 . S
C1459 H1462 0.929 . S
C1460 C1459 1.363 . S
C1460 C1466 1.428 . S
H1461 C1457 0.930 . S
H1462 C1459 0.929 . S
S1463 N1464 1.613 . S
S1463 N1465 1.610 . S
N1464 S1463 1.613 . S
N1464 C1467 1.350 . S
N1465 S1463 1.610 . S
N1465 C1466 1.351 . S
C1466 C1460 1.428 . S
C1466 N1465 1.351 . S
C1466 C1467 1.434 . S
C1467 C1458 1.429 . S
C1467 N1464 1.350 . S
C1467 C1466 1.434 . S
C1468 C1469 1.369 . S
C1468 C1470 1.419 . S
C1468 H1472 0.930 . S
C1469 C1468 1.369 . S
C1469 C1478 1.429 . S
C1470 C1468 1.419 . S
C1470 C1471 1.363 . S
C1470 H1473 0.929 . S
C1471 C1470 1.363 . S
C1471 C1477 1.428 . S
H1472 C1468 0.930 . S
H1473 C1470 0.929 . S
S1474 N1475 1.613 . S
S1474 N1476 1.610 . S
N1475 S1474 1.613 . S
N1475 C1478 1.350 . S
N1476 S1474 1.610 . S
N1476 C1477 1.351 . S
C1477 C1471 1.428 . S
C1477 N1476 1.351 . S
C1477 C1478 1.434 . S
C1478 C1469 1.429 . S
C1478 N1475 1.350 . S
C1478 C1477 1.434 . S
C1479 C1480 1.369 . S
C1479 C1481 1.419 . S
C1479 H1483 0.930 . S
C1480 C1479 1.369 . S
C1480 C1489 1.429 . S
C1481 C1479 1.419 . S
C1481 C1482 1.363 . S
C1481 H1484 0.929 . S
C1482 C1481 1.363 . S
C1482 C1488 1.428 . S
H1483 C1479 0.930 . S
H1484 C1481 0.929 . S
S1485 N1486 1.613 . S
S1485 N1487 1.610 . S
N1486 S1485 1.613 . S
N1486 C1489 1.350 . S
N1487 S1485 1.610 . S
N1487 C1488 1.351 . S
C1488 C1482 1.428 . S
C1488 N1487 1.351 . S
C1488 C1489 1.434 . S
C1489 C1480 1.429 . S
C1489 N1486 1.350 . S
C1489 C1488 1.434 . S
C1490 C1491 1.369 . S
C1490 C1492 1.419 . S
C1490 H1494 0.930 . S
C1491 C1490 1.369 . S
C1491 C1500 1.429 . S
C1492 C1490 1.419 . S
C1492 C1493 1.363 . S
C1492 H1495 0.929 . S
C1493 C1492 1.363 . S
C1493 C1499 1.428 . S
H1494 C1490 0.930 . S
H1495 C1492 0.929 . S
S1496 N1497 1.613 . S
S1496 N1498 1.610 . S
N1497 S1496 1.613 . S
N1497 C1500 1.350 . S
N1498 S1496 1.610 . S
N1498 C1499 1.351 . S
C1499 C1493 1.428 . S
C1499 N1498 1.351 . S
C1499 C1500 1.434 . S
C1500 C1491 1.429 . S
C1500 N1497 1.350 . S
C1500 C1499 1.434 . S
C1501 C1502 1.369 . S
C1501 C1503 1.419 . S
C1501 H1505 0.930 . S
C1502 C1501 1.369 . S
C1502 C1511 1.429 . S
C1503 C1501 1.419 . S
C1503 C1504 1.363 . S
C1503 H1506 0.929 . S
C1504 C1503 1.363 . S
C1504 C1510 1.428 . S
H1505 C1501 0.930 . S
H1506 C1503 0.929 . S
S1507 N1508 1.613 . S
S1507 N1509 1.610 . S
N1508 S1507 1.613 . S
N1508 C1511 1.350 . S
N1509 S1507 1.610 . S
N1509 C1510 1.351 . S
C1510 C1504 1.428 . S
C1510 N1509 1.351 . S
C1510 C1511 1.434 . S
C1511 C1502 1.429 . S
C1511 N1508 1.350 . S
C1511 C1510 1.434 . S
C1512 C1513 1.369 . S
C1512 C1514 1.419 . S
C1512 H1516 0.930 . S
C1513 C1512 1.369 . S
C1513 C1522 1.429 . S
C1514 C1512 1.419 . S
C1514 C1515 1.363 . S
C1514 H1517 0.929 . S
C1515 C1514 1.363 . S
C1515 C1521 1.428 . S
H1516 C1512 0.930 . S
H1517 C1514 0.929 . S
S1518 N1519 1.608 1_556 S
S1518 N1520 1.610 1_556 S
N1519 S1518 1.608 1_554 S
N1519 C1522 1.371 . S
N1520 S1518 1.610 1_554 S
N1520 C1521 1.351 . S
C1521 C1515 1.428 . S
C1521 N1520 1.351 . S
C1521 C1522 1.434 . S
C1522 C1513 1.429 . S
C1522 N1519 1.371 . S
C1522 C1521 1.434 . S
C1523 C1524 1.369 . S
C1523 C1525 1.419 . S
C1523 H1527 0.930 . S
C1524 C1523 1.369 . S
C1524 C1533 1.429 . S
C1525 C1523 1.419 . S
C1525 C1526 1.363 . S
C1525 H1528 0.929 . S
C1526 C1525 1.363 . S
C1526 C1532 1.428 . S
H1527 C1523 0.930 . S
H1528 C1525 0.929 . S
S1529 N1530 1.613 . S
S1529 N1531 1.610 . S
N1530 S1529 1.613 . S
N1530 C1533 1.350 . S
N1531 S1529 1.610 . S
N1531 C1532 1.351 . S
C1532 C1526 1.428 . S
C1532 N1531 1.351 . S
C1532 C1533 1.434 . S
C1533 C1524 1.429 . S
C1533 N1530 1.350 . S
C1533 C1532 1.434 . S
C1534 C1535 1.369 . S
C1534 C1536 1.419 . S
C1534 H1538 0.930 . S
C1535 C1534 1.369 . S
C1535 C1544 1.429 . S
C1536 C1534 1.419 . S
C1536 C1537 1.363 . S
C1536 H1539 0.929 . S
C1537 C1536 1.363 . S
C1537 C1543 1.428 . S
H1538 C1534 0.930 . S
H1539 C1536 0.929 . S
S1540 N1541 1.613 . S
S1540 N1542 1.610 . S
N1541 S1540 1.613 . S
N1541 C1544 1.350 . S
N1542 S1540 1.610 . S
N1542 C1543 1.351 . S
C1543 C1537 1.428 . S
C1543 N1542 1.351 . S
C1543 C1544 1.434 . S
C1544 C1535 1.429 . S
C1544 N1541 1.350 . S
C1544 C1543 1.434 . S
C1545 C1546 1.369 . S
C1545 C1547 1.419 . S
C1545 H1549 0.930 . S
C1546 C1545 1.369 . S
C1546 C1555 1.429 . S
C1547 C1545 1.419 . S
C1547 C1548 1.363 . S
C1547 H1550 0.929 . S
C1548 C1547 1.363 . S
C1548 C1554 1.428 . S
H1549 C1545 0.930 . S
H1550 C1547 0.929 . S
S1551 N1552 1.613 . S
S1551 N1553 1.610 . S
N1552 S1551 1.613 . S
N1552 C1555 1.350 . S
N1553 S1551 1.610 . S
N1553 C1554 1.351 . S
C1554 C1548 1.428 . S
C1554 N1553 1.351 . S
C1554 C1555 1.434 . S
C1555 C1546 1.429 . S
C1555 N1552 1.350 . S
C1555 C1554 1.434 . S
C1556 C1557 1.369 . S
C1556 C1558 1.419 . S
C1556 H1560 0.930 . S
C1557 C1556 1.369 . S
C1557 C1566 1.429 . S
C1558 C1556 1.419 . S
C1558 C1559 1.363 . S
C1558 H1561 0.929 . S
C1559 C1558 1.363 . S
C1559 C1565 1.428 . S
H1560 C1556 0.930 . S
H1561 C1558 0.929 . S
S1562 N1563 1.613 . S
S1562 N1564 1.610 . S
N1563 S1562 1.613 . S
N1563 C1566 1.350 . S
N1564 S1562 1.610 . S
N1564 C1565 1.351 . S
C1565 C1559 1.428 . S
C1565 N1564 1.351 . S
C1565 C1566 1.434 . S
C1566 C1557 1.429 . S
C1566 N1563 1.350 . S
C1566 C1565 1.434 . S
C1567 C1568 1.369 . S
C1567 C1569 1.419 . S
C1567 H1571 0.930 1_556 S
C1568 C1567 1.369 . S
C1568 C1577 1.429 . S
C1569 C1567 1.419 . S
C1569 C1570 1.363 . S
C1569 H1572 0.929 . S
C1570 C1569 1.363 . S
C1570 C1576 1.428 . S
H1571 C1567 0.930 1_554 S
H1572 C1569 0.929 . S
S1573 N1574 1.613 . S
S1573 N1575 1.610 . S
N1574 S1573 1.613 . S
N1574 C1577 1.350 . S
N1575 S1573 1.610 . S
N1575 C1576 1.351 . S
C1576 C1570 1.428 . S
C1576 N1575 1.351 . S
C1576 C1577 1.434 . S
C1577 C1568 1.429 . S
C1577 N1574 1.350 . S
C1577 C1576 1.434 . S
C1578 C1579 1.369 . S
C1578 C1580 1.419 . S
C1578 H1582 0.930 . S
C1579 C1578 1.369 . S
C1579 C1588 1.429 . S
C1580 C1578 1.419 . S
C1580 C1581 1.363 . S
C1580 H1583 0.929 . S
C1581 C1580 1.363 . S
C1581 C1587 1.428 . S
H1582 C1578 0.930 . S
H1583 C1580 0.929 . S
S1584 N1585 1.613 . S
S1584 N1586 1.610 . S
N1585 S1584 1.613 . S
N1585 C1588 1.350 . S
N1586 S1584 1.610 . S
N1586 C1587 1.351 . S
C1587 C1581 1.428 . S
C1587 N1586 1.351 . S
C1587 C1588 1.434 . S
C1588 C1579 1.429 . S
C1588 N1585 1.350 . S
C1588 C1587 1.434 . S
C1589 C1590 1.369 . S
C1589 C1591 1.419 . S
C1589 H1593 0.930 . S
C1590 C1589 1.369 . S
C1590 C1599 1.429 . S
C1591 C1589 1.419 . S
C1591 C1592 1.363 . S
C1591 H1594 0.929 . S
C1592 C1591 1.363 . S
C1592 C1598 1.428 . S
H1593 C1589 0.930 . S
H1594 C1591 0.929 . S
S1595 N1596 1.613 . S
S1595 N1597 1.610 . S
N1596 S1595 1.613 . S
N1596 C1599 1.350 . S
N1597 S1595 1.610 . S
N1597 C1598 1.351 . S
C1598 C1592 1.428 . S
C1598 N1597 1.351 . S
C1598 C1599 1.434 . S
C1599 C1590 1.429 . S
C1599 N1596 1.350 . S
C1599 C1598 1.434 . S
C1600 C1601 1.369 . S
C1600 C1602 1.419 . S
C1600 H1604 0.930 . S
C1601 C1600 1.369 . S
C1601 C1610 1.409 1_556 S
C1602 C1600 1.419 . S
C1602 C1603 1.363 . S
C1602 H1605 0.929 . S
C1603 C1602 1.363 . S
C1603 C1609 1.428 . S
H1604 C1600 0.930 . S
H1605 C1602 0.929 . S
S1606 N1607 1.613 . S
S1606 N1608 1.610 . S
N1607 S1606 1.613 . S
N1607 C1610 1.388 . S
N1608 S1606 1.610 . S
N1608 C1609 1.351 1_554 S
C1609 C1603 1.428 . S
C1609 N1608 1.351 1_556 S
C1609 C1610 1.417 1_556 S
C1610 C1601 1.409 1_554 S
C1610 N1607 1.388 . S
C1610 C1609 1.417 1_554 S
C1611 C1612 1.369 . S
C1611 C1613 1.419 . S
C1611 H1615 0.930 . S
C1612 C1611 1.369 . S
C1612 C1621 1.429 . S
C1613 C1611 1.419 . S
C1613 C1614 1.363 . S
C1613 H1616 0.929 . S
C1614 C1613 1.363 . S
C1614 C1620 1.428 . S
H1615 C1611 0.930 . S
H1616 C1613 0.929 . S
S1617 N1618 1.613 . S
S1617 N1619 1.610 . S
N1618 S1617 1.613 . S
N1618 C1621 1.350 . S
N1619 S1617 1.610 . S
N1619 C1620 1.351 . S
C1620 C1614 1.428 . S
C1620 N1619 1.351 . S
C1620 C1621 1.434 . S
C1621 C1612 1.429 . S
C1621 N1618 1.350 . S
C1621 C1620 1.434 . S
C1622 C1623 1.369 . S
C1622 C1624 1.419 . S
C1622 H1626 0.930 . S
C1623 C1622 1.369 . S
C1623 C1632 1.429 . S
C1624 C1622 1.419 . S
C1624 C1625 1.363 . S
C1624 H1627 0.929 . S
C1625 C1624 1.363 . S
C1625 C1631 1.428 . S
H1626 C1622 0.930 . S
H1627 C1624 0.929 . S
S1628 N1629 1.613 . S
S1628 N1630 1.610 . S
N1629 S1628 1.613 . S
N1629 C1632 1.350 . S
N1630 S1628 1.610 . S
N1630 C1631 1.351 . S
C1631 C1625 1.428 . S
C1631 N1630 1.351 . S
C1631 C1632 1.434 . S
C1632 C1623 1.429 . S
C1632 N1629 1.350 . S
C1632 C1631 1.434 . S
C1633 C1634 1.369 . S
C1633 C1635 1.419 . S
C1633 H1637 0.930 . S
C1634 C1633 1.369 . S
C1634 C1643 1.429 . S
C1635 C1633 1.419 . S
C1635 C1636 1.363 . S
C1635 H1638 0.929 . S
C1636 C1635 1.363 . S
C1636 C1642 1.428 . S
H1637 C1633 0.930 . S
H1638 C1635 0.929 . S
S1639 N1640 1.613 1_556 S
S1639 N1641 1.610 1_556 S
N1640 S1639 1.613 1_554 S
N1640 C1643 1.350 . S
N1641 S1639 1.610 1_554 S
N1641 C1642 1.351 . S
C1642 C1636 1.428 . S
C1642 N1641 1.351 . S
C1642 C1643 1.434 . S
C1643 C1634 1.429 . S
C1643 N1640 1.350 . S
C1643 C1642 1.434 . S
C1644 C1645 1.369 . S
C1644 C1646 1.419 . S
C1644 H1648 0.930 . S
C1645 C1644 1.369 . S
C1645 C1654 1.429 . S
C1646 C1644 1.419 . S
C1646 C1647 1.363 . S
C1646 H1649 0.929 . S
C1647 C1646 1.363 . S
C1647 C1653 1.428 . S
H1648 C1644 0.930 . S
H1649 C1646 0.929 . S
S1650 N1651 1.613 . S
S1650 N1652 1.610 . S
N1651 S1650 1.613 . S
N1651 C1654 1.350 . S
N1652 S1650 1.610 . S
N1652 C1653 1.351 . S
C1653 C1647 1.428 . S
C1653 N1652 1.351 . S
C1653 C1654 1.434 . S
C1654 C1645 1.429 . S
C1654 N1651 1.350 . S
C1654 C1653 1.434 . S
C1655 C1656 1.369 . S
C1655 C1657 1.419 . S
C1655 H1659 0.930 . S
C1656 C1655 1.369 . S
C1656 C1665 1.429 . S
C1657 C1655 1.419 . S
C1657 C1658 1.363 . S
C1657 H1660 0.929 . S
C1658 C1657 1.363 . S
C1658 C1664 1.428 . S
H1659 C1655 0.930 . S
H1660 C1657 0.929 . S
S1661 N1662 1.613 . S
S1661 N1663 1.610 . S
N1662 S1661 1.613 . S
N1662 C1665 1.350 . S
N1663 S1661 1.610 . S
N1663 C1664 1.351 . S
C1664 C1658 1.428 . S
C1664 N1663 1.351 . S
C1664 C1665 1.434 . S
C1665 C1656 1.429 . S
C1665 N1662 1.350 . S
C1665 C1664 1.434 . S
C1666 C1667 1.369 . S
C1666 C1668 1.419 . S
C1666 H1670 0.930 . S
C1667 C1666 1.369 . S
C1667 C1676 1.429 . S
C1668 C1666 1.419 . S
C1668 C1669 1.363 . S
C1668 H1671 0.929 . S
C1669 C1668 1.363 . S
C1669 C1675 1.428 . S
H1670 C1666 0.930 . S
H1671 C1668 0.929 . S
S1672 N1673 1.613 . S
S1672 N1674 1.610 . S
N1673 S1672 1.613 . S
N1673 C1676 1.350 . S
N1674 S1672 1.610 . S
N1674 C1675 1.351 . S
C1675 C1669 1.428 . S
C1675 N1674 1.351 . S
C1675 C1676 1.434 . S
C1676 C1667 1.429 . S
C1676 N1673 1.350 . S
C1676 C1675 1.434 . S
C1677 C1678 1.369 . S
C1677 C1679 1.419 . S
C1677 H1681 0.930 . S
C1678 C1677 1.369 . S
C1678 C1687 1.429 1_455 S
C1679 C1677 1.419 . S
C1679 C1680 1.363 . S
C1679 H1682 0.929 . S
C1680 C1679 1.363 . S
C1680 C1686 1.428 1_455 S
H1681 C1677 0.930 . S
H1682 C1679 0.929 . S
S1683 N1684 1.613 . S
S1683 N1685 1.610 . S
N1684 S1683 1.613 . S
N1684 C1687 1.350 . S
N1685 S1683 1.610 . S
N1685 C1686 1.351 . S
C1686 C1680 1.428 1_655 S
C1686 N1685 1.351 . S
C1686 C1687 1.434 . S
C1687 C1678 1.429 1_655 S
C1687 N1684 1.350 . S
C1687 C1686 1.434 . S
C1688 C1689 1.369 . S
C1688 C1690 1.419 . S
C1688 H1692 0.930 . S
C1689 C1688 1.369 . S
C1689 C1698 1.429 . S
C1690 C1688 1.419 . S
C1690 C1691 1.363 . S
C1690 H1693 0.929 . S
C1691 C1690 1.363 . S
C1691 C1697 1.428 . S
H1692 C1688 0.930 . S
H1693 C1690 0.929 . S
S1694 N1695 1.613 . S
S1694 N1696 1.610 . S
N1695 S1694 1.613 . S
N1695 C1698 1.350 . S
N1696 S1694 1.610 . S
N1696 C1697 1.351 . S
C1697 C1691 1.428 . S
C1697 N1696 1.351 . S
C1697 C1698 1.434 . S
C1698 C1689 1.429 . S
C1698 N1695 1.350 . S
C1698 C1697 1.434 . S
C1699 C1700 1.369 . S
C1699 C1701 1.419 . S
C1699 H1703 0.943 . S
C1700 C1699 1.369 . S
C1700 C1709 1.429 . S
C1701 C1699 1.419 . S
C1701 C1702 1.363 . S
C1701 H1704 0.929 1_565 S
C1702 C1701 1.363 . S
C1702 C1708 1.428 . S
H1703 C1699 0.943 . S
H1704 C1701 0.929 1_545 S
S1705 N1706 1.613 . S
S1705 N1707 1.610 . S
N1706 S1705 1.613 . S
N1706 C1709 1.350 . S
N1707 S1705 1.610 . S
N1707 C1708 1.351 . S
C1708 C1702 1.428 . S
C1708 N1707 1.351 . S
C1708 C1709 1.434 . S
C1709 C1700 1.429 . S
C1709 N1706 1.350 . S
C1709 C1708 1.434 . S
C1710 C1711 1.369 . S
C1710 C1712 1.419 . S
C1710 H1714 0.930 . S
C1711 C1710 1.369 . S
C1711 C1720 1.429 . S
C1712 C1710 1.419 . S
C1712 C1713 1.363 . S
C1712 H1715 0.929 . S
C1713 C1712 1.363 . S
C1713 C1719 1.428 . S
H1714 C1710 0.930 . S
H1715 C1712 0.929 . S
S1716 N1717 1.613 . S
S1716 N1718 1.610 . S
N1717 S1716 1.613 . S
N1717 C1720 1.350 . S
N1718 S1716 1.610 . S
N1718 C1719 1.351 . S
C1719 C1713 1.428 . S
C1719 N1718 1.351 . S
C1719 C1720 1.434 . S
C1720 C1711 1.429 . S
C1720 N1717 1.350 . S
C1720 C1719 1.434 . S
C1721 C1722 1.369 . S
C1721 C1723 1.419 . S
C1721 H1725 0.930 . S
C1722 C1721 1.369 . S
C1722 C1731 1.449 . S
C1723 C1721 1.419 . S
C1723 C1724 1.363 . S
C1723 H1726 0.929 . S
C1724 C1723 1.363 . S
C1724 C1730 1.428 1_455 S
H1725 C1721 0.930 . S
H1726 C1723 0.929 . S
S1727 N1728 1.613 . S
S1727 N1729 1.610 . S
N1728 S1727 1.613 . S
N1728 C1731 1.309 1_655 S
N1729 S1727 1.610 . S
N1729 C1730 1.351 . S
C1730 C1724 1.428 1_655 S
C1730 N1729 1.351 . S
C1730 C1731 1.456 1_655 S
C1731 C1722 1.449 . S
C1731 N1728 1.309 1_455 S
C1731 C1730 1.456 1_455 S
C1732 C1733 1.369 . S
C1732 C1734 1.419 . S
C1732 H1736 0.930 . S
C1733 C1732 1.369 . S
C1733 C1742 1.429 . S
C1734 C1732 1.419 . S
C1734 C1735 1.363 . S
C1734 H1737 0.929 . S
C1735 C1734 1.363 . S
C1735 C1741 1.428 . S
H1736 C1732 0.930 . S
H1737 C1734 0.929 . S
S1738 N1739 1.613 . S
S1738 N1740 1.610 . S
N1739 S1738 1.613 . S
N1739 C1742 1.350 . S
N1740 S1738 1.610 . S
N1740 C1741 1.351 . S
C1741 C1735 1.428 . S
C1741 N1740 1.351 . S
C1741 C1742 1.434 . S
C1742 C1733 1.429 . S
C1742 N1739 1.350 . S
C1742 C1741 1.434 . S
C1743 C1744 1.369 . S
C1743 C1745 1.419 . S
C1743 H1747 0.930 . S
C1744 C1743 1.369 . S
C1744 C1753 1.429 . S
C1745 C1743 1.419 . S
C1745 C1746 1.363 . S
C1745 H1748 0.929 . S
C1746 C1745 1.363 . S
C1746 C1752 1.428 . S
H1747 C1743 0.930 . S
H1748 C1745 0.929 . S
S1749 N1750 1.613 . S
S1749 N1751 1.610 . S
N1750 S1749 1.613 . S
N1750 C1753 1.350 . S
N1751 S1749 1.610 . S
N1751 C1752 1.351 . S
C1752 C1746 1.428 . S
C1752 N1751 1.351 . S
C1752 C1753 1.434 . S
C1753 C1744 1.429 . S
C1753 N1750 1.350 . S
C1753 C1752 1.434 . S
C1754 C1755 1.369 . S
C1754 C1756 1.419 . S
C1754 H1758 0.930 . S
C1755 C1754 1.369 . S
C1755 C1764 1.429 . S
C1756 C1754 1.419 . S
C1756 C1757 1.363 . S
C1756 H1759 0.929 . S
C1757 C1756 1.363 . S
C1757 C1763 1.428 . S
H1758 C1754 0.930 . S
H1759 C1756 0.929 . S
S1760 N1761 1.613 . S
S1760 N1762 1.610 . S
N1761 S1760 1.613 . S
N1761 C1764 1.350 . S
N1762 S1760 1.610 . S
N1762 C1763 1.351 . S
C1763 C1757 1.428 . S
C1763 N1762 1.351 . S
C1763 C1764 1.434 . S
C1764 C1755 1.429 . S
C1764 N1761 1.350 . S
C1764 C1763 1.434 . S
C1765 C1766 1.369 . S
C1765 C1767 1.419 . S
C1765 H1769 0.930 . S
C1766 C1765 1.369 . S
C1766 C1775 1.429 . S
C1767 C1765 1.419 . S
C1767 C1768 1.363 . S
C1767 H1770 0.929 . S
C1768 C1767 1.363 . S
C1768 C1774 1.428 . S
H1769 C1765 0.930 . S
H1770 C1767 0.929 . S
S1771 N1772 1.613 . S
S1771 N1773 1.610 . S
N1772 S1771 1.613 . S
N1772 C1775 1.350 . S
N1773 S1771 1.610 . S
N1773 C1774 1.351 . S
C1774 C1768 1.428 . S
C1774 N1773 1.351 . S
C1774 C1775 1.434 . S
C1775 C1766 1.429 . S
C1775 N1772 1.350 . S
C1775 C1774 1.434 . S
C1776 C1777 1.369 . S
C1776 C1778 1.446 . S
C1776 H1780 0.927 . S
C1777 C1776 1.369 . S
C1777 C1786 1.429 . S
C1778 C1776 1.446 . S
C1778 C1779 1.355 . S
C1778 H1781 0.911 1_545 S
C1779 C1778 1.355 . S
C1779 C1785 1.428 . S
H1780 C1776 0.927 . S
H1781 C1778 0.911 1_565 S
S1782 N1783 1.613 . S
S1782 N1784 1.610 . S
N1783 S1782 1.613 . S
N1783 C1786 1.350 . S
N1784 S1782 1.610 . S
N1784 C1785 1.351 . S
C1785 C1779 1.428 . S
C1785 N1784 1.351 . S
C1785 C1786 1.434 . S
C1786 C1777 1.429 . S
C1786 N1783 1.350 . S
C1786 C1785 1.434 . S
C1787 C1788 1.369 . S
C1787 C1789 1.419 . S
C1787 H1791 0.930 . S
C1788 C1787 1.369 . S
C1788 C1797 1.429 1_655 S
C1789 C1787 1.419 . S
C1789 C1790 1.363 . S
C1789 H1792 0.929 . S
C1790 C1789 1.363 . S
C1790 C1796 1.428 1_655 S
H1791 C1787 0.930 . S
H1792 C1789 0.929 . S
S1793 N1794 1.613 . S
S1793 N1795 1.610 . S
N1794 S1793 1.613 . S
N1794 C1797 1.350 . S
N1795 S1793 1.610 . S
N1795 C1796 1.351 . S
C1796 C1790 1.428 1_455 S
C1796 N1795 1.351 . S
C1796 C1797 1.434 . S
C1797 C1788 1.429 1_455 S
C1797 N1794 1.350 . S
C1797 C1796 1.434 . S
C1798 C1799 1.369 . S
C1798 C1800 1.419 . S
C1798 H1802 0.930 . S
C1799 C1798 1.369 . S
C1799 C1808 1.429 . S
C1800 C1798 1.419 . S
C1800 C1801 1.363 . S
C1800 H1803 0.929 . S
C1801 C1800 1.363 . S
C1801 C1807 1.428 . S
H1802 C1798 0.930 . S
H1803 C1800 0.929 . S
S1804 N1805 1.613 . S
S1804 N1806 1.610 . S
N1805 S1804 1.613 . S
N1805 C1808 1.350 . S
N1806 S1804 1.610 . S
N1806 C1807 1.351 . S
C1807 C1801 1.428 . S
C1807 N1806 1.351 . S
C1807 C1808 1.434 . S
C1808 C1799 1.429 . S
C1808 N1805 1.350 . S
C1808 C1807 1.434 . S
C1809 C1810 1.369 . S
C1809 C1811 1.419 . S
C1809 H1813 0.930 . S
C1810 C1809 1.369 . S
C1810 C1819 1.429 . S
C1811 C1809 1.419 . S
C1811 C1812 1.363 . S
C1811 H1814 0.929 . S
C1812 C1811 1.363 . S
C1812 C1818 1.428 . S
H1813 C1809 0.930 . S
H1814 C1811 0.929 . S
S1815 N1816 1.613 . S
S1815 N1817 1.610 . S
N1816 S1815 1.613 . S
N1816 C1819 1.350 . S
N1817 S1815 1.610 . S
N1817 C1818 1.351 . S
C1818 C1812 1.428 . S
C1818 N1817 1.351 . S
C1818 C1819 1.434 . S
C1819 C1810 1.429 . S
C1819 N1816 1.350 . S
C1819 C1818 1.434 . S
C1820 C1821 1.369 . S
C1820 C1822 1.419 . S
C1820 H1824 0.930 . S
C1821 C1820 1.369 . S
C1821 C1830 1.429 . S
C1822 C1820 1.419 . S
C1822 C1823 1.363 . S
C1822 H1825 0.929 . S
C1823 C1822 1.363 . S
C1823 C1829 1.428 . S
H1824 C1820 0.930 . S
H1825 C1822 0.929 . S
S1826 N1827 1.613 . S
S1826 N1828 1.610 . S
N1827 S1826 1.613 . S
N1827 C1830 1.350 . S
N1828 S1826 1.610 . S
N1828 C1829 1.351 . S
C1829 C1823 1.428 . S
C1829 N1828 1.351 . S
C1829 C1830 1.434 . S
C1830 C1821 1.429 . S
C1830 N1827 1.350 . S
C1830 C1829 1.434 . S
C1831 C1832 1.369 . S
C1831 C1833 1.419 . S
C1831 H1835 0.930 . S
C1832 C1831 1.369 . S
C1832 C1841 1.429 . S
C1833 C1831 1.419 . S
C1833 C1834 1.363 . S
C1833 H1836 0.929 . S
C1834 C1833 1.363 . S
C1834 C1840 1.428 . S
H1835 C1831 0.930 . S
H1836 C1833 0.929 . S
S1837 N1838 1.613 . S
S1837 N1839 1.610 . S
N1838 S1837 1.613 . S
N1838 C1841 1.350 . S
N1839 S1837 1.610 . S
N1839 C1840 1.351 . S
C1840 C1834 1.428 . S
C1840 N1839 1.351 . S
C1840 C1841 1.434 . S
C1841 C1832 1.429 . S
C1841 N1838 1.350 . S
C1841 C1840 1.434 . S
C1842 C1843 1.369 . S
C1842 C1844 1.419 . S
C1842 H1846 0.930 . S
C1843 C1842 1.369 . S
C1843 C1852 1.429 . S
C1844 C1842 1.419 . S
C1844 C1845 1.363 . S
C1844 H1847 0.929 . S
C1845 C1844 1.363 . S
C1845 C1851 1.428 . S
H1846 C1842 0.930 . S
H1847 C1844 0.929 . S
S1848 N1849 1.613 . S
S1848 N1850 1.610 . S
N1849 S1848 1.613 . S
N1849 C1852 1.350 . S
N1850 S1848 1.610 . S
N1850 C1851 1.351 . S
C1851 C1845 1.428 . S
C1851 N1850 1.351 . S
C1851 C1852 1.434 . S
C1852 C1843 1.429 . S
C1852 N1849 1.350 . S
C1852 C1851 1.434 . S
C1853 C1854 1.369 . S
C1853 C1855 1.419 . S
C1853 H1857 0.930 . S
C1854 C1853 1.369 . S
C1854 C1863 1.429 . S
C1855 C1853 1.419 . S
C1855 C1856 1.363 . S
C1855 H1858 0.929 . S
C1856 C1855 1.363 . S
C1856 C1862 1.428 . S
H1857 C1853 0.930 . S
H1858 C1855 0.929 . S
S1859 N1860 1.613 . S
S1859 N1861 1.610 . S
N1860 S1859 1.613 . S
N1860 C1863 1.350 . S
N1861 S1859 1.610 . S
N1861 C1862 1.351 . S
C1862 C1856 1.428 . S
C1862 N1861 1.351 . S
C1862 C1863 1.434 . S
C1863 C1854 1.429 . S
C1863 N1860 1.350 . S
C1863 C1862 1.434 . S
C1864 C1865 1.369 . S
C1864 C1866 1.419 . S
C1864 H1868 0.930 . S
C1865 C1864 1.369 . S
C1865 C1874 1.429 . S
C1866 C1864 1.419 . S
C1866 C1867 1.363 . S
C1866 H1869 0.929 . S
C1867 C1866 1.363 . S
C1867 C1873 1.428 . S
H1868 C1864 0.930 . S
H1869 C1866 0.929 . S
S1870 N1871 1.613 . S
S1870 N1872 1.610 . S
N1871 S1870 1.613 . S
N1871 C1874 1.350 . S
N1872 S1870 1.610 . S
N1872 C1873 1.351 . S
C1873 C1867 1.428 . S
C1873 N1872 1.351 . S
C1873 C1874 1.434 . S
C1874 C1865 1.429 . S
C1874 N1871 1.350 . S
C1874 C1873 1.434 . S
C1875 C1876 1.369 1_455 S
C1875 C1877 1.419 . S
C1875 H1879 0.930 . S
C1876 C1875 1.369 1_655 S
C1876 C1885 1.429 . S
C1877 C1875 1.419 . S
C1877 C1878 1.363 1_455 S
C1877 H1880 0.929 . S
C1878 C1877 1.363 1_655 S
C1878 C1884 1.428 . S
H1879 C1875 0.930 . S
H1880 C1877 0.929 . S
S1881 N1882 1.613 . S
S1881 N1883 1.610 . S
N1882 S1881 1.613 . S
N1882 C1885 1.350 . S
N1883 S1881 1.610 . S
N1883 C1884 1.351 . S
C1884 C1878 1.428 . S
C1884 N1883 1.351 . S
C1884 C1885 1.434 . S
C1885 C1876 1.429 . S
C1885 N1882 1.350 . S
C1885 C1884 1.434 . S
C1886 C1887 1.369 . S
C1886 C1888 1.419 . S
C1886 H1890 0.930 . S
C1887 C1886 1.369 . S
C1887 C1896 1.429 . S
C1888 C1886 1.419 . S
C1888 C1889 1.363 . S
C1888 H1891 0.929 . S
C1889 C1888 1.363 . S
C1889 C1895 1.428 . S
H1890 C1886 0.930 . S
H1891 C1888 0.929 . S
S1892 N1893 1.613 . S
S1892 N1894 1.610 . S
N1893 S1892 1.613 . S
N1893 C1896 1.350 . S
N1894 S1892 1.610 . S
N1894 C1895 1.351 . S
C1895 C1889 1.428 . S
C1895 N1894 1.351 . S
C1895 C1896 1.434 . S
C1896 C1887 1.429 . S
C1896 N1893 1.350 . S
C1896 C1895 1.434 . S
C1897 C1898 1.369 . S
C1897 C1899 1.419 . S
C1897 H1901 0.930 . S
C1898 C1897 1.369 . S
C1898 C1907 1.429 1_545 S
C1899 C1897 1.419 . S
C1899 C1900 1.363 . S
C1899 H1902 0.929 . S
C1900 C1899 1.363 . S
C1900 C1906 1.428 1_545 S
H1901 C1897 0.930 . S
H1902 C1899 0.929 . S
S1903 N1904 1.613 . S
S1903 N1905 1.610 . S
N1904 S1903 1.613 . S
N1904 C1907 1.350 . S
N1905 S1903 1.610 . S
N1905 C1906 1.351 . S
C1906 C1900 1.428 1_565 S
C1906 N1905 1.351 . S
C1906 C1907 1.434 . S
C1907 C1898 1.429 1_565 S
C1907 N1904 1.350 . S
C1907 C1906 1.434 . S
C1117 C13 1.466 . S
C1119 C729 1.523 . S
C1128 C27 1.379 . S
C1130 C777 1.459 . S
C1141 C825 1.511 . S
C1139 C36 1.424 . S
C1150 C41 1.442 . S
C1152 C849 1.524 . S
C1161 C8 1.496 . S
C1163 C921 1.593 . S
C1172 C22 1.472 . S
C1174 C969 1.537 . S
C1183 C55 1.475 . S
C1185 C897 1.532 . S
C1196 C945 1.465 . S
C1194 C69 1.389 . S
C1207 C873 1.519 . S
C1205 C78 1.431 . S
C1216 C83 1.451 . S
C1218 C801 1.514 . S
C1229 C705 1.614 . S
C1227 C50 1.510 . S
C1238 C64 1.463 . S
C1240 C753 1.539 . S
C1249 C97 1.546 . S
C1251 C1017 1.648 . S
C1260 C111 1.428 . S
C1262 C1065 1.508 . S
C1273 C1089 1.594 . S
C1271 C120 1.564 . S
C1282 C125 1.472 . S
C1284 C273 1.566 . S
C1293 C92 1.678 . S
C1295 C345 1.725 . S
C1304 C106 1.533 . S
C1306 C393 1.580 . S
C1315 C139 1.500 . S
C1317 C321 1.605 . S
C1326 C153 1.432 . S
C1328 C369 1.500 . S
C1339 C297 1.572 . S
C1337 C162 1.558 . S
C1350 C1113 1.581 . S
C1348 C167 1.514 . S
C1361 C993 1.718 . S
C1359 C134 1.684 . S
C1372 C1041 1.593 . S
C1370 C148 1.549 . S
C1381 C181 1.504 . S
C1383 C441 1.606 . S
C1392 C195 1.415 . S
C1394 C489 1.487 . S
C1403 C204 1.565 . S
C1405 C513 1.601 . S
C1414 C209 1.515 . S
C1416 C561 1.606 . S
C1427 C633 1.728 . S
C1425 C176 1.685 . S
C1438 C681 1.593 . S
C1436 C190 1.553 . S
C1449 C609 1.655 . S
C1447 C223 1.555 . S
C1460 C657 1.521 . S
C1458 C237 1.441 . S
C1469 C246 1.555 . S
C1471 C585 1.556 . S
C1482 C537 1.534 . S
C1480 C251 1.473 . S
C1491 C218 1.673 . S
C1493 C417 1.720 . S
C1504 C465 1.584 . S
C1502 C232 1.529 . S
C1515 C282 1.549 . S
C1513 C11 1.506 . S
C1524 C25 1.421 . S
C1526 C336 1.416 . S
C1537 C384 1.483 . S
C1535 C35 1.523 . S
C1548 C432 1.524 . S
C1546 C39 1.529 . S
C1559 C480 1.564 . S
C1557 C7 1.609 . S
C1570 C522 1.489 . S
C1568 C21 1.506 . S
C1579 C53 1.520 . S
C1581 C528 1.541 . S
C1590 C67 1.413 . S
C1592 C426 1.396 . S
C1601 C77 1.508 . S
C1603 C474 1.449 . S
C1612 C81 1.541 . S
C1614 C330 1.515 . S
C1625 C378 1.545 . S
C1623 C49 1.611 . S
C1634 C63 1.507 . S
C1636 C288 1.477 . S
C1647 C570 1.510 . S
C1645 C95 1.480 . S
C1656 C109 1.472 . S
C1658 C624 1.460 . S
C1667 C119 1.555 . S
C1669 C672 1.511 . S
C1680 C720 1.336 . S
C1678 C123 1.336 . S
C1689 C91 1.553 . S
C1691 C768 1.518 . S
C1700 C105 1.322 . S
C1702 C816 1.319 . S
C1711 C137 1.366 . S
C1713 C810 1.356 . S
C1722 C151 1.251 . S
C1724 C714 1.253 . S
C1735 C762 1.422 . S
C1733 C161 1.469 . S
C1744 C165 1.512 . S
C1746 C618 1.488 . S
C1755 C133 1.622 . S
C1757 C666 1.560 . S
C1768 C576 1.531 . S
C1766 C147 1.561 . S
C1779 C858 1.384 . S
C1777 C179 1.371 . S
C1788 C193 1.246 . S
C1790 C912 1.248 . S
C1799 C203 1.470 . S
C1801 C960 1.435 . S
C1812 C1008 1.492 . S
C1810 C207 1.510 . S
C1823 C1056 1.574 . S
C1821 C175 1.623 . S
C1832 C189 1.560 . S
C1834 C1098 1.545 . S
C1843 C221 1.495 . S
C1845 C1104 1.498 . S
C1854 C235 1.475 . S
C1856 C1002 1.435 . S
C1867 C1050 1.485 . S
C1865 C245 1.537 . S
C1878 C906 1.316 . S
C1876 C249 1.324 . S
C1889 C954 1.507 . S
C1887 C217 1.560 . S
C1898 C231 1.344 . S
C1900 C864 1.342 . S
