# Generated by pormake.
# Topology zzz, (3,6)-cn, num edge types: 1
# Building blocks:
#     Node 0, Type 0, BuildingBlock: CUQRIR_clean_linker_1, # of connection points: 3
#     Node 1, Type 0, BuildingBlock: CUQRIR_clean_linker_1, # of connection points: 3
#     Node 2, Type 0, BuildingBlock: CUQRIR_clean_linker_1, # of connection points: 3
#     Node 3, Type 0, BuildingBlock: CUQRIR_clean_linker_1, # of connection points: 3
#     Node 4, Type 0, BuildingBlock: CUQRIR_clean_linker_1, # of connection points: 3
#     Node 5, Type 0, BuildingBlock: CUQRIR_clean_linker_1, # of connection points: 3
#     Node 6, Type 0, BuildingBlock: CUQRIR_clean_linker_1, # of connection points: 3
#     Node 7, Type 0, BuildingBlock: CUQRIR_clean_linker_1, # of connection points: 3
#     Node 8, Type 1, BuildingBlock: KUMJIN_clean_sbu_0, # of connection points: 6
#     Node 9, Type 1, BuildingBlock: KUMJIN_clean_sbu_0, # of connection points: 6
#     Node 10, Type 1, BuildingBlock: KUMJIN_clean_sbu_0, # of connection points: 6
#     Node 11, Type 1, BuildingBlock: KUMJIN_clean_sbu_0, # of connection points: 6
#     Edge 12, Type (0, 1), BuildingBlock: MIFKUJ_clean_linker_0, # of connection points: 2
#     Edge 13, Type (0, 1), BuildingBlock: MIFKUJ_clean_linker_0, # of connection points: 2
#     Edge 14, Type (0, 1), BuildingBlock: MIFKUJ_clean_linker_0, # of connection points: 2
#     Edge 15, Type (0, 1), BuildingBlock: MIFKUJ_clean_linker_0, # of connection points: 2
#     Edge 16, Type (0, 1), BuildingBlock: MIFKUJ_clean_linker_0, # of connection points: 2
#     Edge 17, Type (0, 1), BuildingBlock: MIFKUJ_clean_linker_0, # of connection points: 2
#     Edge 18, Type (0, 1), BuildingBlock: MIFKUJ_clean_linker_0, # of connection points: 2
#     Edge 19, Type (0, 1), BuildingBlock: MIFKUJ_clean_linker_0, # of connection points: 2
#     Edge 20, Type (0, 1), BuildingBlock: MIFKUJ_clean_linker_0, # of connection points: 2
#     Edge 21, Type (0, 1), BuildingBlock: MIFKUJ_clean_linker_0, # of connection points: 2
#     Edge 22, Type (0, 1), BuildingBlock: MIFKUJ_clean_linker_0, # of connection points: 2
#     Edge 23, Type (0, 1), BuildingBlock: MIFKUJ_clean_linker_0, # of connection points: 2
#     Edge 24, Type (0, 1), BuildingBlock: MIFKUJ_clean_linker_0, # of connection points: 2
#     Edge 25, Type (0, 1), BuildingBlock: MIFKUJ_clean_linker_0, # of connection points: 2
#     Edge 26, Type (0, 1), BuildingBlock: MIFKUJ_clean_linker_0, # of connection points: 2
#     Edge 27, Type (0, 1), BuildingBlock: MIFKUJ_clean_linker_0, # of connection points: 2
#     Edge 28, Type (0, 1), BuildingBlock: MIFKUJ_clean_linker_0, # of connection points: 2
#     Edge 29, Type (0, 1), BuildingBlock: MIFKUJ_clean_linker_0, # of connection points: 2
#     Edge 30, Type (0, 1), BuildingBlock: MIFKUJ_clean_linker_0, # of connection points: 2
#     Edge 31, Type (0, 1), BuildingBlock: MIFKUJ_clean_linker_0, # of connection points: 2
#     Edge 32, Type (0, 1), BuildingBlock: MIFKUJ_clean_linker_0, # of connection points: 2
#     Edge 33, Type (0, 1), BuildingBlock: MIFKUJ_clean_linker_0, # of connection points: 2
#     Edge 34, Type (0, 1), BuildingBlock: MIFKUJ_clean_linker_0, # of connection points: 2
#     Edge 35, Type (0, 1), BuildingBlock: MIFKUJ_clean_linker_0, # of connection points: 2
# Relax obj value: 0.165
# Max RMSD: 0.155
# Mean RMSD: 0.116
data_MOF--net-zzz--node1-KUMJIN_clean_sbu_0--node2-CUQRIR_clean_linker_1--edge1-MIFKUJ_clean_linker_0
_symmetry_space_group_name_H-M    P1
_symmetry_Int_Tables_number       1
_symmetry_cell_setting            triclinic
loop_
_symmetry_equiv_pos_as_xyz
'x, y, z'
_cell_length_a     62.896814
_cell_length_b     62.608452
_cell_length_c     17.587044
_cell_angle_alpha  90.890317
_cell_angle_beta   90.12443
_cell_angle_gamma 89.852128
loop_
_atom_site_label
_atom_site_type_symbol
_atom_site_fract_x
_atom_site_fract_y
_atom_site_fract_z
_atom_type_partial_charge
C0 C 0.75334 0.53843 0.21725 0.0
N1 N 0.77213 0.54904 0.22442 0.0
N2 N 0.73885 0.55009 0.17782 0.0
C3 C 0.74926 0.51657 0.24755 0.0
C4 C 0.74959 0.56816 0.16154 0.0
N5 N 0.77003 0.56735 0.18703 0.0
C6 C 0.74008 0.58648 0.11826 0.0
H7 H 0.75676 0.50455 0.20904 0.0
H8 H 0.73196 0.5133 0.25076 0.0
H9 H 0.75658 0.51497 0.30466 0.0
H10 H 0.72526 0.59195 0.14649 0.0
H11 H 0.73577 0.58101 0.05989 0.0
H12 H 0.75106 0.60028 0.11567 0.0
C13 C 0.01523 0.75849 0.19673 0.0
N14 N 1.00853 0.77928 0.20325 0.0
N15 N 1.00824 0.74906 0.13004 0.0
C16 C 0.02787 0.74731 0.25657 0.0
C17 C 0.99737 0.76526 0.09666 0.0
N18 N 0.99706 0.78303 0.14144 0.0
C19 C 0.98948 0.76497 0.01554 0.0
H20 H 0.04496 0.74792 0.24139 0.0
H21 H 0.02304 0.73031 0.25983 0.0
H22 H 0.02576 0.75525 0.31292 0.0
H23 H 0.97242 0.76054 0.01439 0.0
H24 H 0.99863 0.75349 0.97976 0.0
H25 H 0.9909 0.78105 0.99033 0.0
C26 C 0.78111 0.98808 0.25798 0.0
N27 N 0.7599 0.98388 0.24993 0.0
N28 N 0.79169 0.9847 0.19098 0.0
C29 C 0.79143 0.99591 0.32998 0.0
C30 C 0.77615 0.97834 0.14235 0.0
N31 N 0.7571 0.97778 0.17779 0.0
C32 C 0.77917 0.97428 0.05833 0.0
H33 H 0.79073 0.01362 0.33188 0.0
H34 H 0.80837 0.99097 0.33185 0.0
H35 H 0.78291 0.98977 0.38031 0.0
H36 H 0.77381 0.95791 0.04322 0.0
H37 H 0.79596 0.97586 0.04064 0.0
H38 H 0.76923 0.98564 0.02589 0.0
C39 C 0.52463 0.79079 0.2468 0.0
N40 N 0.5126 0.7729 0.25491 0.0
N41 N 0.51501 0.80479 0.19885 0.0
C42 C 0.54553 0.79463 0.28565 0.0
C43 C 0.497 0.79451 0.17726 0.0
N44 N 0.49545 0.77545 0.21173 0.0
C45 C 0.48187 0.80228 0.11712 0.0
H46 H 0.54601 0.78654 0.34134 0.0
H47 H 0.54839 0.81201 0.29378 0.0
H48 H 0.55842 0.78791 0.24951 0.0
H49 H 0.49075 0.81006 0.07067 0.0
H50 H 0.47102 0.81434 0.14297 0.0
H51 H 0.47207 0.78914 0.09286 0.0
C52 C 0.28206 0.51447 0.09805 0.0
N53 N 0.26133 0.50825 0.09326 0.0
N54 N 0.29146 0.50685 0.16239 0.0
C55 C 0.29328 0.52723 0.039 0.0
C56 C 0.27553 0.49603 0.19655 0.0
N57 N 0.25747 0.49678 0.15466 0.0
C58 C 0.27712 0.4863 0.27417 0.0
H59 H 0.31046 0.52317 0.0375 0.0
H60 H 0.29164 0.54445 0.05372 0.0
H61 H 0.28608 0.52441 0.98206 0.0
H62 H 0.28915 0.4947 0.30979 0.0
H63 H 0.28196 0.46932 0.26776 0.0
H64 H 0.26157 0.4869 0.30382 0.0
C65 C 0.04217 0.28556 0.01524 0.0
N66 N 0.04411 0.26407 0.02712 0.0
N67 N 0.04672 0.29715 0.08011 0.0
C68 C 0.03481 0.29503 0.94212 0.0
C69 C 0.05141 0.28191 0.13109 0.0
N70 N 0.04973 0.26213 0.09954 0.0
C71 C 0.05673 0.2864 0.21337 0.0
H72 H 0.04528 0.28941 0.89517 0.0
H73 H 0.03488 0.31275 0.94527 0.0
H74 H 0.01849 0.2893 0.92923 0.0
H75 H 0.04179 0.2896 0.24503 0.0
H76 H 0.06691 0.30077 0.21911 0.0
H77 H 0.06505 0.27268 0.23944 0.0
C78 C 0.26051 0.0193 0.06407 0.0
N79 N 0.27966 0.02926 0.05704 0.0
N80 N 0.24817 0.02941 0.11744 0.0
C81 C 0.25371 1.00014 0.01822 0.0
C82 C 0.2606 0.04566 0.14284 0.0
N83 N 0.27951 0.04561 0.10625 0.0
C84 C 0.25481 0.06063 0.20743 0.0
H85 H 0.23612 0.99933 0.01419 0.0
H86 H 0.25952 0.98554 0.0467 0.0
H87 H 0.26075 1.00051 0.96044 0.0
H88 H 0.26905 0.06498 0.24155 0.0
H89 H 0.2428 0.05343 0.24531 0.0
H90 H 0.24799 0.07546 0.18365 0.0
C91 C 0.49312 0.24962 0.99048 0.0
N92 N 0.48776 0.27069 0.99718 0.0
N93 N 0.48943 0.23927 0.05677 0.0
C94 C 0.50175 0.23912 0.91985 0.0
C95 C 0.48181 0.25474 0.10385 0.0
N96 N 0.48072 0.27365 0.0679 0.0
C97 C 0.47645 0.25162 0.18637 0.0
H98 H 0.49773 0.22187 0.91815 0.0
H99 H 0.51932 0.24066 0.91997 0.0
H100 H 0.49543 0.24701 0.8684 0.0
H101 H 0.48167 0.2656 0.22111 0.0
H102 H 0.48388 0.23697 0.20912 0.0
H103 H 0.45895 0.25019 0.19206 0.0
Eu104 Eu 0.03893 1.01001 0.74168 0.0
C105 C 0.99446 0.98434 0.46358 0.0
C106 C 0.00943 0.99649 0.34471 0.0
C107 C 0.99341 0.96131 0.35065 0.0
C108 C 1.00495 0.99985 0.42259 0.0
C109 C 0.98777 0.96529 0.4268 0.0
C110 C 1.00434 0.97683 0.30982 0.0
C111 C 0.96856 0.95642 0.54052 0.0
N112 N 0.98945 0.9885 0.53761 0.0
C113 C 0.97599 0.97522 0.57534 0.0
C114 C 0.97489 0.95116 0.46662 0.0
Eu115 Eu 1.00285 0.0211 0.58971 0.0
N116 N 0.00923 0.01888 0.45716 0.0
C117 C 0.01558 0.03597 0.41538 0.0
C118 C 0.01804 0.01333 0.30341 0.0
C119 C 0.02061 0.03332 0.33844 0.0
H120 H 0.97108 0.9786 0.63277 0.0
H121 H 0.02652 0.04665 0.30635 0.0
H122 H 1.00792 0.97386 0.25035 0.0
H123 H 0.95825 0.94579 0.57131 0.0
H124 H 0.0178 0.05134 0.44272 0.0
H125 H 0.99633 0.0591 0.95397 0.0
H126 H 0.02192 0.01131 0.24373 0.0
H127 H 0.0921 0.01189 0.70375 0.0
H128 H 1.00148 0.02935 0.86546 0.0
H129 H 0.12186 0.03697 0.71672 0.0
H130 H 0.98874 0.94659 0.32207 0.0
H131 H 0.0242 0.08653 0.97017 0.0
H132 H 0.05999 0.10022 0.93428 0.0
H133 H 0.96931 0.93646 0.4402 0.0
H134 H 0.09373 0.09482 0.86653 0.0
N135 N 0.03223 0.03914 0.82831 0.0
C136 C 0.01397 0.04088 0.87025 0.0
C137 C 0.0267 0.07324 0.93092 0.0
C138 C 0.04556 0.07125 0.88962 0.0
C139 C 0.01093 0.05786 0.9217 0.0
C140 C 0.04808 0.05358 0.83925 0.0
H141 H 0.11696 0.07129 0.78578 0.0
N142 N 0.06943 0.03268 0.75727 0.0
C143 C 0.10643 0.04121 0.73969 0.0
C144 C 0.06704 0.05053 0.80118 0.0
C145 C 0.08933 0.02717 0.73152 0.0
C146 C 0.10362 0.06052 0.77876 0.0
C147 C 0.08396 0.0651 0.81218 0.0
O148 O 0.06481 0.99122 0.7901 0.0
O149 O 0.01735 0.99404 0.65386 0.0
O150 O 0.98266 1.01063 0.68933 0.0
O151 O 1.00591 0.99991 0.78439 0.0
O152 O 0.04806 0.98222 0.66329 0.0
O153 O 0.0349 0.99342 0.84881 0.0
O154 O 0.97913 0.04393 0.63164 0.0
O155 O 0.01928 0.03616 0.69123 0.0
O156 O 0.05918 0.01542 0.63592 0.0
O157 O 0.03596 0.02082 0.53484 0.0
O158 O 0.02221 0.05178 0.58913 0.0
O159 O 0.97561 0.03047 0.5197 0.0
C160 C 0.03025 0.97993 0.62794 0.0
C161 C 0.05229 0.9602 0.84561 0.0
C162 C 0.03299 0.92709 0.82022 0.0
C163 C 0.0347 0.94935 0.81489 0.0
C164 C 0.05026 0.91568 0.8513 0.0
C165 C 0.06925 0.94864 0.87615 0.0
C166 C 0.06833 0.9264 0.87791 0.0
C167 C 0.98638 1.00319 0.758 0.0
C168 C 0.05308 0.98354 0.84351 0.0
C169 C 0.08105 0.08331 0.85852 0.0
C170 C 0.0619 0.08634 0.89741 0.0
C171 C 0.02661 0.05298 0.66082 0.0
C172 C 0.963 0.06532 0.5401 0.0
C173 C 0.97923 0.07995 0.52688 0.0
C174 C 0.97486 0.09981 0.49473 0.0
C175 C 0.95359 0.10521 0.4786 0.0
C176 C 0.9419 0.07082 0.52393 0.0
C177 C 0.93722 0.09081 0.49377 0.0
C178 C 0.05538 0.0187 0.56305 0.0
C179 C 0.96823 0.04417 0.56905 0.0
H180 H 0.02206 0.95845 0.78878 0.0
H181 H 0.04959 0.89857 0.85848 0.0
H182 H 0.08312 0.95681 0.89866 0.0
H183 H 0.08139 0.91747 0.90212 0.0
H184 H 0.99537 0.0758 0.54113 0.0
H185 H 0.94962 0.12029 0.45279 0.0
H186 H 0.92914 0.05964 0.53415 0.0
H187 H 0.92092 0.09503 0.48091 0.0
Eu188 Eu 0.52302 0.03917 0.68947 0.0
C189 C 0.54489 0.96495 0.47924 0.0
C190 C 0.5658 0.98151 0.38136 0.0
C191 C 0.57254 0.94459 0.41364 0.0
C192 C 0.54984 0.98272 0.43779 0.0
C193 C 0.55592 0.94552 0.46667 0.0
C194 C 0.57746 0.96256 0.37097 0.0
C195 C 0.53083 0.92833 0.54887 0.0
N196 N 0.52795 0.96608 0.52652 0.0
C197 C 0.52003 0.94775 0.55719 0.0
C198 C 0.54914 0.92728 0.50448 0.0
Eu199 Eu 0.51079 0.99997 0.54355 0.0
N200 N 0.53795 1.00066 0.4483 0.0
C201 C 0.54035 0.01739 0.39971 0.0
C202 C 0.56894 0.99903 0.33457 0.0
C203 C 0.55592 0.01691 0.34302 0.0
H204 H 0.50541 0.94823 0.5893 0.0
H205 H 0.55787 0.0304 0.30593 0.0
H206 H 0.58987 0.96143 0.32842 0.0
H207 H 0.52481 0.91412 0.57562 0.0
H208 H 0.53065 0.03145 0.40388 0.0
H209 H 0.54109 0.02094 0.98641 0.0
H210 H 0.58095 0.99867 0.29052 0.0
H211 H 0.48302 0.07161 0.62539 0.0
H212 H 0.54908 0.02616 0.85031 0.0
H213 H 0.45004 0.08738 0.67279 0.0
H214 H 0.58114 0.92982 0.40309 0.0
H215 H 0.50499 0.02848 0.03537 0.0
H216 H 0.46857 0.04337 0.01222 0.0
H217 H 0.55726 0.91212 0.49666 0.0
H218 H 0.444 0.06209 0.92718 0.0
N219 N 0.51742 0.03515 0.82195 0.0
C220 C 0.53321 0.02927 0.87128 0.0
C221 C 0.50834 0.03054 0.97552 0.0
C222 C 0.49286 0.03861 0.9263 0.0
C223 C 0.52875 0.02631 0.94819 0.0
C224 C 0.498 0.04099 0.84875 0.0
H225 H 0.43755 0.07964 0.80253 0.0
N226 N 0.48992 0.05455 0.72695 0.0
C227 C 0.45935 0.07713 0.70911 0.0
C228 C 0.48402 0.05134 0.80036 0.0
C229 C 0.47825 0.06795 0.68228 0.0
C230 C 0.45234 0.07271 0.7823 0.0
C231 C 0.46476 0.05985 0.8292 0.0
O232 O 0.54378 0.06431 0.64735 0.0
O233 O 0.53695 0.02093 0.58929 0.0
O234 O 0.52107 0.98155 0.64925 0.0
O235 O 0.52605 1.00672 0.74679 0.0
O236 O 0.55422 0.02101 0.69064 0.0
O237 O 0.53384 0.06534 0.76372 0.0
O238 O 0.48817 0.9767 0.49719 0.0
O239 O 0.49587 0.02229 0.63151 0.0
O240 O 0.51547 0.05776 0.58381 0.0
O241 O 0.50397 0.03283 0.49372 0.0
O242 O 0.48666 0.99036 0.63154 0.0
O243 O 0.4899 1.00784 0.44856 0.0
C244 C 0.55427 0.01477 0.62017 0.0
C245 C 0.5675 0.07906 0.73575 0.0
C246 C 0.60157 0.06744 0.78544 0.0
C247 C 0.58062 0.06298 0.76401 0.0
C248 C 0.60934 0.08836 0.77937 0.0
C249 C 0.57536 0.09986 0.72895 0.0
C250 C 0.59625 0.10448 0.75093 0.0
C251 C 0.5251 0.98675 0.72118 0.0
C252 C 0.54574 0.07399 0.71261 0.0
C253 C 0.45893 0.05607 0.90479 0.0
C254 C 0.47292 0.04539 0.95318 0.0
C255 C 0.48356 1.00882 0.66286 0.0
C256 C 0.45563 0.99359 0.46702 0.0
C257 C 0.44546 0.01223 0.44175 0.0
C258 C 0.42393 0.01613 0.45838 0.0
C259 C 0.4126 1.00095 0.50022 0.0
C260 C 0.44391 0.97865 0.50852 0.0
C261 C 0.42256 0.9824 0.52508 0.0
C262 C 0.50815 0.05268 0.51571 0.0
C263 C 0.47869 0.99056 0.45465 0.0
H264 H 0.5744 0.04705 0.77096 0.0
H265 H 0.6255 0.09216 0.79613 0.0
H266 H 0.56536 0.11246 0.70688 0.0
H267 H 0.6023 0.12057 0.74593 0.0
H268 H 0.45426 0.02363 0.40851 0.0
H269 H 0.39601 1.00331 0.51366 0.0
H270 H 0.45128 0.96419 0.52909 0.0
H271 H 0.41368 0.97088 0.55744 0.0
Eu272 Eu 0.539 0.515 0.57287 0.0
C273 C 0.45934 0.50338 0.76222 0.0
C274 C 0.43044 0.51642 0.6842 0.0
C275 C 0.42426 0.48727 0.77076 0.0
C276 C 0.45206 0.51688 0.70615 0.0
C277 C 0.44525 0.48906 0.79732 0.0
C278 C 0.41687 0.50091 0.71415 0.0
C279 C 0.47275 0.48145 0.88908 0.0
N280 N 0.47968 0.50562 0.78725 0.0
C281 C 0.48612 0.49584 0.85259 0.0
C282 C 0.45238 0.47769 0.86038 0.0
Eu283 Eu 0.50157 0.52937 0.71797 0.0
N284 N 0.46542 0.53205 0.67958 0.0
C285 C 0.45743 0.5489 0.64006 0.0
C286 C 0.42275 0.53244 0.6369 0.0
C287 C 0.43612 0.54918 0.61713 0.0
H288 H 0.50169 0.49875 0.87626 0.0
H289 H 0.43008 0.56224 0.58366 0.0
H290 H 0.40034 0.50008 0.69682 0.0
H291 H 0.47816 0.47331 0.93943 0.0
H292 H 0.46734 0.5621 0.62461 0.0
H293 H 0.57961 0.45313 0.74719 0.0
H294 H 0.40627 0.53268 0.61887 0.0
H295 H 0.56196 0.55576 0.48303 0.0
H296 H 0.54991 0.47444 0.70803 0.0
H297 H 0.59732 0.56985 0.45603 0.0
H298 H 0.41334 0.47607 0.79605 0.0
H299 H 0.61587 0.4621 0.70608 0.0
H300 H 0.63997 0.48755 0.64353 0.0
H301 H 0.44203 0.46659 0.88897 0.0
H302 H 0.64493 0.52009 0.56989 0.0
N303 N 0.56738 0.49432 0.63164 0.0
C304 C 0.56484 0.47799 0.6823 0.0
C305 C 0.6025 0.47132 0.68579 0.0
C306 C 0.60555 0.48912 0.64072 0.0
C307 C 0.58209 0.46607 0.70821 0.0
C308 C 0.58755 0.50051 0.61426 0.0
H309 H 0.62927 0.55103 0.50214 0.0
N310 N 0.5731 0.53016 0.55126 0.0
C311 C 0.59568 0.55571 0.49015 0.0
C312 C 0.59045 0.51904 0.57384 0.0
C313 C 0.57554 0.54783 0.50719 0.0
C314 C 0.61364 0.54498 0.51582 0.0
C315 C 0.61121 0.52631 0.55736 0.0
O316 O 0.53379 0.52964 0.46275 0.0
O317 O 0.50491 0.52538 0.59259 0.0
O318 O 0.50111 0.49266 0.70692 0.0
O319 O 0.52629 0.48289 0.61409 0.0
O320 O 0.50956 0.4979 0.52734 0.0
O321 O 0.55189 0.50018 0.46959 0.0
O322 O 0.48314 0.54897 0.7985 0.0
O323 O 0.53664 0.52775 0.69129 0.0
O324 O 0.53877 0.55145 0.5946 0.0
O325 O 0.50412 0.55625 0.63184 0.0
O326 O 0.52666 0.51325 0.78974 0.0
O327 O 0.51653 0.55473 0.78607 0.0
C328 C 0.49547 0.51118 0.55287 0.0
C329 C 0.53177 0.50634 0.35759 0.0
C330 C 0.50923 0.47992 0.29454 0.0
C331 C 0.52136 0.48654 0.3576 0.0
C332 C 0.50789 0.49308 0.23076 0.0
C333 C 0.53041 0.51926 0.29335 0.0
C334 C 0.51865 0.51256 0.23004 0.0
C335 C 0.51172 0.47805 0.66621 0.0
C336 C 0.54324 0.51429 0.42498 0.0
C337 C 0.62894 0.51474 0.58218 0.0
C338 C 0.62612 0.49617 0.62367 0.0
C339 C 0.54308 0.51822 0.75024 0.0
C340 C 0.50189 0.55981 0.90822 0.0
C341 C 0.48998 0.57477 0.94987 0.0
C342 C 0.49208 0.57646 0.02932 0.0
C343 C 0.50638 0.56286 0.06673 0.0
C344 C 0.51588 0.54611 0.94643 0.0
C345 C 0.51808 0.54767 0.02535 0.0
C346 C 0.52191 0.56398 0.60326 0.0
C347 C 0.49959 0.55905 0.82509 0.0
H348 H 0.52243 0.47638 0.4068 0.0
H349 H 0.49882 0.48813 0.18111 0.0
H350 H 0.53833 0.53461 0.29246 0.0
H351 H 0.51766 0.52259 0.18064 0.0
H352 H 0.47949 0.58555 0.91983 0.0
H353 H 0.50858 0.56397 0.12772 0.0
H354 H 0.52529 0.53442 0.91554 0.0
H355 H 0.52906 0.53723 0.05436 0.0
Eu356 Eu 0.02684 0.53444 0.5549 0.0
C357 C 0.02819 0.44883 0.6651 0.0
C358 C 1.00207 0.43197 0.5823 0.0
C359 C 0.0314 0.41106 0.63076 0.0
C360 C 0.00984 0.45025 0.62174 0.0
C361 C 0.03904 0.42907 0.67039 0.0
C362 C 0.01307 0.41254 0.58639 0.0
C363 C 0.06251 0.4452 0.76273 0.0
N364 N 0.03471 0.46627 0.70576 0.0
C365 C 0.05088 0.46414 0.75773 0.0
C366 C 0.05673 0.42764 0.71815 0.0
Eu367 Eu 0.0128 0.49762 0.69804 0.0
N368 N 0.99936 0.46927 0.61885 0.0
C369 C 0.98063 0.47059 0.57913 0.0
C370 C 0.98323 0.43358 0.54067 0.0
C371 C 0.97243 0.45295 0.53943 0.0
H372 H 0.05447 0.47676 0.79803 0.0
H373 H 0.95773 0.45437 0.50776 0.0
H374 H 1.0073 0.39843 0.55649 0.0
H375 H 0.07549 0.44397 0.80297 0.0
H376 H 0.97168 0.48506 0.57629 0.0
H377 H 0.10701 0.55376 0.45843 0.0
H378 H 0.97682 0.41993 0.50975 0.0
H379 H 0.98668 0.56969 0.60458 0.0
H380 H 0.07591 0.531 0.47856 0.0
H381 H 0.98218 0.60757 0.63054 0.0
H382 H 0.03929 0.39574 0.63541 0.0
H383 H 0.1059 0.59189 0.49662 0.0
H384 H 0.08493 0.62293 0.54701 0.0
H385 H 0.06543 0.41278 0.72363 0.0
H386 H 0.05108 0.63745 0.59433 0.0
N387 N 0.05737 0.55556 0.53185 0.0
C388 C 0.07515 0.54749 0.49675 0.0
C389 C 0.09221 0.58186 0.5067 0.0
C390 C 0.07362 0.59032 0.53871 0.0
C391 C 0.09288 0.56038 0.48488 0.0
C392 C 0.0562 0.57659 0.55104 0.0
H393 H 0.01289 0.63191 0.62552 0.0
N394 N 0.02025 0.57127 0.58501 0.0
C395 C 0.99776 0.60136 0.61615 0.0
C396 C 0.03711 0.5847 0.57817 0.0
C397 C 1.00054 0.57955 0.60084 0.0
C398 C 0.01513 0.61502 0.61366 0.0
C399 C 0.03499 0.60688 0.59285 0.0
O400 O 1.00542 0.52413 0.46369 0.0
O401 O 0.02097 0.49927 0.57434 0.0
O402 O 0.04836 0.50465 0.71321 0.0
O403 O 0.05711 0.53123 0.6276 0.0
O404 O 0.0495 0.50723 0.52598 0.0
O405 O 0.03058 0.54584 0.43824 0.0
O406 O 0.01251 0.48332 0.81065 0.0
O407 O 0.01352 0.53305 0.67313 0.0
O408 O 0.9908 0.53533 0.56291 0.0
O409 O 0.98104 0.51239 0.65943 0.0
O410 O 0.02419 0.524 0.77926 0.0
O411 O 0.98289 0.4912 0.75582 0.0
C412 C 0.03762 0.49142 0.54355 0.0
C413 C 0.02104 0.51994 0.34471 0.0
C414 C 0.046 0.49583 0.28073 0.0
C415 C 0.04101 0.51016 0.34031 0.0
C416 C 0.03037 0.49102 0.22583 0.0
C417 C 1.00562 0.51507 0.28949 0.0
C418 C 0.01029 0.50064 0.23033 0.0
C419 C 0.06213 0.5182 0.68374 0.0
C420 C 0.01567 0.53366 0.41041 0.0
C421 C 0.05245 0.62044 0.58293 0.0
C422 C 0.07172 0.61218 0.55594 0.0
C423 C 0.02113 0.54018 0.73594 0.0
C424 C 0.98326 0.49015 0.89087 0.0
C425 C 0.97001 0.50807 0.899 0.0
C426 C 0.95894 0.51199 0.9674 0.0
C427 C 0.96271 0.49835 0.02923 0.0
C428 C 0.98691 0.47697 0.95324 0.0
C429 C 0.97689 0.48126 0.02239 0.0
C430 C 0.97614 0.52558 0.60347 0.0
C431 C 0.99199 0.48381 0.81657 0.0
H432 H 0.05264 0.51355 0.38411 0.0
H433 H 0.03374 0.4802 0.17874 0.0
H434 H 0.98993 0.52221 0.29273 0.0
H435 H 0.99834 0.49692 0.18779 0.0
H436 H 0.96799 0.51853 0.85111 0.0
H437 H 0.95425 0.50027 0.08237 0.0
H438 H 0.99714 0.46308 0.94792 0.0
H439 H 0.97955 0.47085 0.0701 0.0
H440 H 0.21265 0.05246 0.09372 0.0
H441 H 0.17844 0.04912 0.15928 0.0
H442 H 0.20201 0.99359 0.27499 0.0
H443 H 0.23604 0.99669 0.20674 0.0
H444 H 0.16105 0.98805 0.2486 0.0
H445 H 0.20163 0.04529 0.35752 0.0
H446 H 0.22232 0.07869 0.35746 0.0
H447 H 0.16792 0.11279 0.27435 0.0
H448 H 0.14699 0.0795 0.27273 0.0
H449 H 0.09233 0.99581 0.57301 0.0
H450 H 0.12334 0.99648 0.48908 0.0
H451 H 0.09231 0.04331 0.34993 0.0
H452 H 0.06107 0.04257 0.43386 0.0
H453 H 0.13604 0.05322 0.38584 0.0
H454 H 0.09507 0.99502 0.28489 0.0
H455 H 0.07491 0.96142 0.29265 0.0
H456 H 0.13098 0.92879 0.36899 0.0
H457 H 0.15136 0.96232 0.36345 0.0
C458 C 0.21023 0.03919 0.13145 0.0
C459 C 0.22689 0.02466 0.14423 0.0
C460 C 0.19076 0.03742 0.16994 0.0
C461 C 0.18753 0.02138 0.22408 0.0
C462 C 0.20388 1.00618 0.23402 0.0
C463 C 0.22333 1.00784 0.19468 0.0
C464 C 0.16771 0.0212 0.27275 0.0
C465 C 0.15579 1.00229 0.27908 0.0
C466 C 0.16035 0.03975 0.31249 0.0
C467 C 0.1728 0.05985 0.31429 0.0
C468 C 0.19411 0.05988 0.33879 0.0
C469 C 0.20588 0.07879 0.33908 0.0
C470 C 0.19645 0.09783 0.31573 0.0
C471 C 0.17521 0.09801 0.29229 0.0
C472 C 0.16338 0.07913 0.2917 0.0
C473 C 0.09209 1.00634 0.52474 0.0
C474 C 0.0741 0.01914 0.51042 0.0
C475 C 0.10985 1.00661 0.47638 0.0
C476 C 0.11032 0.0199 0.41263 0.0
C477 C 0.09245 0.03288 0.39851 0.0
C478 C 0.07448 0.03233 0.44628 0.0
C479 C 0.12946 0.02015 0.36124 0.0
C480 C 0.14128 0.03905 0.35483 0.0
C481 C 0.13683 1.00155 0.32226 0.0
C482 C 0.12471 0.98126 0.32442 0.0
C483 C 0.10307 0.98073 0.30398 0.0
C484 C 0.09159 0.96169 0.30797 0.0
C485 C 0.10164 0.94299 0.33148 0.0
C486 C 0.12319 0.94329 0.35096 0.0
C487 C 0.13472 0.96232 0.3474 0.0
H488 H 0.09273 0.92826 0.3343 0.0
H489 H 0.20559 0.11246 0.31598 0.0
H490 H 0.5252 0.2231 0.11763 0.0
H491 H 0.5287 0.18877 0.18222 0.0
H492 H 0.46502 0.17209 0.11191 0.0
H493 H 0.46154 0.20681 0.04953 0.0
H494 H 0.46829 0.16475 0.25365 0.0
H495 H 0.51217 0.14535 0.04311 0.0
H496 H 0.54119 0.14868 0.95004 0.0
H497 H 0.58716 0.14845 0.13088 0.0
H498 H 0.55839 0.14537 0.22517 0.0
H499 H 0.47939 0.05627 0.39737 0.0
H500 H 0.47587 0.08593 0.30755 0.0
H501 H 0.52849 0.11809 0.41653 0.0
H502 H 0.5315 0.08913 0.50772 0.0
H503 H 0.52999 0.11534 0.24769 0.0
H504 H 0.48467 0.13501 0.45718 0.0
H505 H 0.45493 0.13195 0.54713 0.0
H506 H 0.41054 0.132 0.36113 0.0
H507 H 0.44003 0.13396 0.2701 0.0
C508 C 0.51232 0.21169 0.11378 0.0
C509 C 0.49331 0.2173 0.07703 0.0
C510 C 0.51424 0.19206 0.15096 0.0
C511 C 0.4972 0.17747 0.15189 0.0
C512 C 0.47847 0.18286 0.11235 0.0
C513 C 0.47653 0.20257 0.07572 0.0
C514 C 0.49819 0.15764 0.19928 0.0
C515 C 0.48161 0.15373 0.25081 0.0
C516 C 0.51574 0.14333 0.19772 0.0
C517 C 0.53309 0.14533 0.14127 0.0
C518 C 0.52845 0.14619 0.0631 0.0
C519 C 0.54486 0.14799 0.0101 0.0
C520 C 0.566 0.14883 0.03454 0.0
C521 C 0.57077 0.14782 0.11203 0.0
C522 C 0.55442 0.14602 0.16528 0.0
C523 C 0.49013 0.06971 0.40227 0.0
C524 C 0.50561 0.07036 0.46022 0.0
C525 C 0.48813 0.08665 0.35085 0.0
C526 C 0.50197 0.10429 0.35498 0.0
C527 C 0.51766 0.10471 0.41188 0.0
C528 C 0.51926 0.08815 0.4644 0.0
C529 C 0.50006 0.12255 0.30121 0.0
C530 C 0.51654 0.12622 0.24916 0.0
C531 C 0.48231 0.13652 0.30165 0.0
C532 C 0.46463 0.13423 0.35659 0.0
C533 C 0.46861 0.13382 0.43531 0.0
C534 C 0.45177 0.13234 0.48665 0.0
C535 C 0.43084 0.13169 0.46006 0.0
C536 C 0.42672 0.13241 0.38199 0.0
C537 C 0.44351 0.13354 0.33042 0.0
H538 H 0.41785 0.13072 0.50008 0.0
H539 H 0.57868 0.15021 0.99342 0.0
H540 H 0.3182 0.47484 0.19918 0.0
H541 H 0.35262 0.4777 0.26403 0.0
H542 H 0.34854 0.54637 0.25551 0.0
H543 H 0.31385 0.54338 0.19044 0.0
H544 H 0.38918 0.53312 0.22954 0.0
H545 H 0.33685 0.51977 0.41818 0.0
H546 H 0.30683 0.50089 0.47664 0.0
H547 H 0.34472 0.44396 0.49185 0.0
H548 H 0.37486 0.46239 0.43211 0.0
H549 H 0.47664 0.54608 0.48726 0.0
H550 H 0.44211 0.54795 0.42318 0.0
H551 H 0.43309 0.48052 0.45928 0.0
H552 H 0.46676 0.47931 0.52935 0.0
H553 H 0.39748 0.49615 0.47521 0.0
H554 H 0.44817 0.50864 0.2699 0.0
H555 H 0.47793 0.52807 0.21191 0.0
H556 H 0.44302 0.58679 0.22984 0.0
H557 H 0.41285 0.56777 0.28744 0.0
C558 C 0.32476 0.49054 0.21048 0.0
C559 C 0.31323 0.50887 0.1899 0.0
C560 C 0.34443 0.4922 0.24805 0.0
C561 C 0.35321 0.51227 0.2666 0.0
C562 C 0.34221 0.53066 0.24257 0.0
C563 C 0.32241 0.52898 0.20492 0.0
C564 C 0.37349 0.51388 0.3125 0.0
C565 C 0.39088 0.52519 0.28363 0.0
C566 C 0.37607 0.50347 0.38311 0.0
C567 C 0.35807 0.49242 0.42001 0.0
C568 C 0.33874 0.50318 0.43348 0.0
C569 C 0.3217 0.49256 0.46689 0.0
C570 C 0.32385 0.47123 0.4878 0.0
C571 C 0.34307 0.46048 0.47553 0.0
C572 C 0.36014 0.47101 0.44191 0.0
C573 C 0.46701 0.53179 0.48288 0.0
C574 C 0.47403 0.51277 0.51638 0.0
C575 C 0.44736 0.53269 0.44433 0.0
C576 C 0.43464 0.51429 0.43416 0.0
C577 C 0.44211 0.49513 0.46623 0.0
C578 C 0.46148 0.49439 0.5064 0.0
C579 C 0.41366 0.51475 0.39107 0.0
C580 C 0.39596 0.50396 0.42085 0.0
C581 C 0.41079 0.52561 0.32119 0.0
C582 C 0.42844 0.53685 0.28383 0.0
C583 C 0.44686 0.5257 0.26155 0.0
C584 C 0.4638 0.53664 0.22904 0.0
C585 C 0.46252 0.55867 0.21886 0.0
C586 C 0.44404 0.56977 0.23886 0.0
C587 C 0.42698 0.55892 0.27103 0.0
H588 H 0.47585 0.56713 0.19571 0.0
H589 H 0.31064 0.46304 0.51367 0.0
H590 H 0.01143 0.31939 0.12119 0.0
H591 H 0.01042 0.35434 0.18728 0.0
H592 H 0.0781 0.36044 0.15675 0.0
H593 H 0.07888 0.32553 0.09083 0.0
H594 H 0.06938 0.36863 0.29867 0.0
H595 H 0.04103 0.39414 0.06718 0.0
H596 H 0.01719 0.39646 0.95614 0.0
H597 H 0.96386 0.40722 0.10395 0.0
H598 H 0.98734 0.40467 0.21599 0.0
H599 H 0.07279 0.46845 0.50374 0.0
H600 H 0.07621 0.43928 0.41139 0.0
H601 H 1.00826 0.44021 0.37646 0.0
H602 H 1.00598 0.47211 0.4572 0.0
H603 H 0.01961 0.42877 0.25859 0.0
H604 H 0.05 0.39633 0.49303 0.0
H605 H 0.07619 0.39447 0.59839 0.0
H606 H 0.12735 0.3971 0.43803 0.0
H607 H 0.10156 0.39912 0.3324 0.0
C608 C 0.02589 0.32866 0.1257 0.0
C609 C 0.04513 0.3199 0.09851 0.0
C610 C 0.0254 0.34865 0.1643 0.0
C611 C 0.04419 0.36045 0.17768 0.0
C612 C 0.06329 0.35197 0.14779 0.0
C613 C 0.06373 0.33209 0.10882 0.0
C614 C 0.04429 0.38051 0.22769 0.0
C615 C 0.05849 0.38181 0.2895 0.0
C616 C 0.03019 0.39796 0.21721 0.0
C617 C 0.01592 0.39895 0.15005 0.0
C618 C 0.02418 0.39674 0.07608 0.0
C619 C 0.01074 0.39816 0.01293 0.0
C620 C 0.98901 0.40192 0.02299 0.0
C621 C 0.98068 0.40427 0.09624 0.0
C622 C 0.99406 0.40284 0.15958 0.0
C623 C 0.05854 0.46208 0.47739 0.0
C624 C 0.03873 0.47157 0.49385 0.0
C625 C 0.06041 0.44489 0.42486 0.0
C626 C 0.04239 0.43577 0.3887 0.0
C627 C 0.02266 0.44596 0.40343 0.0
C628 C 0.02107 0.46394 0.45263 0.0
C629 C 0.04387 0.41655 0.3335 0.0
C630 C 0.03016 0.41546 0.26959 0.0
C631 C 0.0585 0.39925 0.34189 0.0
C632 C 0.07388 0.39817 0.40541 0.0
C633 C 0.06684 0.3967 0.48077 0.0
C634 C 0.08158 0.3956 0.5403 0.0
C635 C 0.10336 0.39579 0.52491 0.0
C636 C 0.11047 0.39695 0.44993 0.0
C637 C 0.09582 0.39807 0.39026 0.0
H638 H 0.11472 0.39499 0.57109 0.0
H639 H 0.97864 0.40307 0.97403 0.0
H640 H 0.80617 0.0177 0.10959 0.0
H641 H 0.84073 0.02001 0.04529 0.0
H642 H 0.86114 0.96241 0.15515 0.0
H643 H 0.82628 0.96005 0.21866 0.0
H644 H 0.89452 0.99453 0.14225 0.0
H645 H 0.84397 0.95724 0.9809 0.0
H646 H 0.80957 0.95309 0.91467 0.0
H647 H 0.82068 1.01101 0.79362 0.0
H648 H 0.85513 0.01554 0.85932 0.0
H649 H 0.98305 0.9789 0.8887 0.0
H650 H 0.95168 0.97402 0.96928 0.0
H651 H 0.91586 0.01639 0.82588 0.0
H652 H 0.94642 0.01983 0.74281 0.0
H653 H 0.89025 0.98933 0.86104 0.0
H654 H 0.93934 0.02855 0.02042 0.0
H655 H 0.97307 0.03519 0.08853 0.0
H656 H 0.96436 0.97789 0.21581 0.0
H657 H 0.93077 0.97073 0.1476 0.0
C658 C 0.81833 1.00598 0.12198 0.0
C659 C 0.81363 0.98891 0.17024 0.0
C660 C 0.83802 1.00713 0.08449 0.0
C661 C 0.85367 0.99127 0.09437 0.0
C662 C 0.84949 0.9749 0.14636 0.0
C663 C 0.82962 0.97363 0.18328 0.0
C664 C 0.87353 0.99105 0.0463 0.0
C665 C 0.89363 0.99314 0.08077 0.0
C666 C 0.87257 0.98968 0.96583 0.0
C667 C 0.85204 0.9868 0.9254 0.0
C668 C 0.83904 0.96912 0.94034 0.0
C669 C 0.81956 0.96668 0.90276 0.0
C670 C 0.81291 0.98181 0.85016 0.0
C671 C 0.82583 0.99932 0.83449 0.0
C672 C 0.84536 1.0018 0.87168 0.0
C673 C 0.9684 0.98694 0.87386 0.0
C674 C 0.9674 0.99957 0.80831 0.0
C675 C 0.95039 0.9844 0.92087 0.0
C676 C 0.93105 0.99514 0.90559 0.0
C677 C 0.93022 1.00772 0.83993 0.0
C678 C 0.94792 1.00974 0.79202 0.0
C679 C 0.9116 0.99339 0.95637 0.0
C680 C 0.89141 0.99079 0.92242 0.0
C681 C 0.91251 0.99471 0.03727 0.0
C682 C 0.93267 0.999 0.07836 0.0
C683 C 0.9447 0.0173 0.06259 0.0
C684 C 0.96379 0.02116 0.10122 0.0
C685 C 0.97087 1.00694 0.15631 0.0
C686 C 0.95888 0.98886 0.17302 0.0
C687 C 0.93982 0.98489 0.13439 0.0
H688 H 0.98562 1.00998 0.18609 0.0
H689 H 0.79778 0.97995 0.82143 0.0
H690 H 0.55136 0.81333 0.12208 0.0
H691 H 0.55944 0.84624 0.053 0.0
H692 H 0.50132 0.87461 0.13727 0.0
H693 H 0.49391 0.84218 0.20803 0.0
H694 H 0.54066 0.86258 0.94023 0.0
H695 H 0.50098 0.92807 0.13402 0.0
H696 H 0.49765 0.93741 0.27019 0.0
H697 H 0.55382 0.90102 0.31931 0.0
H698 H 0.55766 0.89164 0.18323 0.0
H699 H 0.50507 0.94818 0.72098 0.0
H700 H 0.50892 0.91914 0.81065 0.0
H701 H 0.55451 0.9563 0.93935 0.0
H702 H 0.5506 0.98559 0.84892 0.0
H703 H 0.52935 0.93682 0.03443 0.0
H704 H 0.5701 0.91375 0.82353 0.0
H705 H 0.57758 0.90692 0.68773 0.0
H706 H 0.52768 0.86029 0.67804 0.0
H707 H 0.51961 0.86713 0.81347 0.0
C708 C 0.54079 0.82693 0.12779 0.0
C709 C 0.52209 0.82526 0.17085 0.0
C710 C 0.54523 0.84568 0.08755 0.0
C711 C 0.53109 0.86323 0.08961 0.0
C712 C 0.51283 0.86173 0.13532 0.0
C713 C 0.5085 0.84309 0.17566 0.0
C714 C 0.53428 0.88226 0.03936 0.0
C715 C 0.53831 0.87878 0.96136 0.0
C716 C 0.53179 0.90367 0.06611 0.0
C717 C 0.52949 0.90898 0.14833 0.0
C718 C 0.51266 0.92208 0.17377 0.0
C719 C 0.51068 0.92739 0.25095 0.0
C720 C 0.52546 0.91975 0.30334 0.0
C721 C 0.54232 0.90683 0.27865 0.0
C722 C 0.54438 0.90147 0.20149 0.0
C723 C 0.51625 0.95006 0.76731 0.0
C724 C 0.52783 0.96911 0.77654 0.0
C725 C 0.51837 0.93342 0.81914 0.0
C726 C 0.53234 0.93517 0.8815 0.0
C727 C 0.54367 0.95439 0.89181 0.0
C728 C 0.54142 0.97117 0.83999 0.0
C729 C 0.53482 0.91694 0.93554 0.0
C730 C 0.53188 0.92059 0.01388 0.0
C731 C 0.53894 0.89577 0.9096 0.0
C732 C 0.54417 0.89104 0.82869 0.0
C733 C 0.56067 0.90209 0.79241 0.0
C734 C 0.56501 0.89823 0.71547 0.0
C735 C 0.55311 0.88319 0.6743 0.0
C736 C 0.53689 0.87193 0.71005 0.0
C737 C 0.53244 0.87577 0.78695 0.0
H738 H 0.55645 0.88027 0.61469 0.0
H739 H 0.52383 0.92384 0.363 0.0
H740 H 0.69991 0.56765 0.20063 0.0
H741 H 0.66763 0.56113 0.12483 0.0
H742 H 0.70047 0.5117 0.99798 0.0
H743 H 0.73276 0.51842 0.07384 0.0
H744 H 0.66101 0.49949 0.02506 0.0
H745 H 0.63246 0.58712 0.00579 0.0
H746 H 0.64779 0.62335 0.01126 0.0
H747 H 0.70781 0.59855 0.9339 0.0
H748 H 0.69274 0.56227 0.92654 0.0
H749 H 0.55593 0.4986 0.87875 0.0
H750 H 0.58891 0.50256 0.94914 0.0
H751 H 0.61322 0.54364 0.77483 0.0
H752 H 0.57884 0.54158 0.70867 0.0
H753 H 0.6265 0.55953 0.89157 0.0
H754 H 0.63317 0.48307 0.8244 0.0
H755 H 0.62551 0.4443 0.82022 0.0
H756 H 0.61401 0.4452 0.06059 0.0
H757 H 0.62199 0.48373 0.06655 0.0
C758 C 0.70009 0.55523 0.15712 0.0
C759 C 0.71885 0.54352 0.14328 0.0
C760 C 0.68168 0.5516 0.11329 0.0
C761 C 0.68153 0.53618 0.0541 0.0
C762 C 0.70002 0.52376 0.04276 0.0
C763 C 0.71846 0.52745 0.08655 0.0
C764 C 0.66227 0.5331 1.0038 0.0
C765 C 0.65347 0.51265 0.99582 0.0
C766 C 0.65245 0.55008 0.96424 0.0
C767 C 0.6615 0.57194 0.96638 0.0
C768 C 0.64889 0.58942 0.9895 0.0
C769 C 0.65754 0.60997 0.99295 0.0
C770 C 0.67877 0.61324 0.97315 0.0
C771 C 0.69138 0.59599 0.94942 0.0
C772 C 0.68279 0.57543 0.9456 0.0
C773 C 0.56834 0.50839 0.85483 0.0
C774 C 0.56475 0.51936 0.78659 0.0
C775 C 0.58758 0.51038 0.89494 0.0
C776 C 0.6044 0.52285 0.86726 0.0
C777 C 0.60087 0.53373 0.79834 0.0
C778 C 0.58122 0.5323 0.75937 0.0
C779 C 0.62486 0.52569 0.91255 0.0
C780 C 0.63394 0.54622 0.9201 0.0
C781 C 0.63515 0.50868 0.95123 0.0
C782 C 0.62797 0.48625 0.9457 0.0
C783 C 0.62868 0.47503 0.87602 0.0
C784 C 0.62445 0.4531 0.87348 0.0
C785 C 0.6193 0.44236 0.94004 0.0
C786 C 0.61805 0.45353 0.00915 0.0
C787 C 0.62249 0.47536 0.01219 0.0
H788 H 0.61639 0.42533 0.93826 0.0
H789 H 0.68545 0.62915 0.97608 0.0
H790 H 0.97783 0.72552 0.05773 0.0
H791 H 0.982 0.69264 0.98643 0.0
H792 H 0.04574 0.68592 0.07421 0.0
H793 H 0.04295 0.72172 0.1327 0.0
H794 H 0.04819 0.66859 0.95209 0.0
H795 H 0.99227 0.65535 0.13257 0.0
H796 H 0.95857 0.66481 0.19653 0.0
H797 H 0.92545 0.6604 0.98314 0.0
H798 H 0.959 0.65123 0.91775 0.0
H799 H 0.05322 0.5598 0.81392 0.0
H800 H 0.05229 0.59295 0.88827 0.0
H801 H 0.98829 0.60465 0.80989 0.0
H802 H 0.98839 0.56968 0.74584 0.0
H803 H 0.98734 0.6187 0.93479 0.0
H804 H 0.04688 0.63353 0.75607 0.0
H805 H 0.08251 0.62657 0.70127 0.0
H806 H 0.10993 0.62656 0.92447 0.0
H807 H 0.0747 0.6337 0.9808 0.0
C808 C 0.99302 0.71748 0.06059 0.0
C809 C 0.01014 0.72701 0.10031 0.0
C810 C 0.99519 0.69787 0.0214 0.0
C811 C 0.0139 0.6855 0.02622 0.0
C812 C 0.03092 0.69458 0.06868 0.0
C813 C 0.0292 0.71509 0.104 0.0
C814 C 0.01571 0.66364 0.98577 0.0
C815 C 0.03484 0.65768 0.94944 0.0
C816 C 0.99855 0.64882 0.98023 0.0
C817 C 0.97816 0.65269 0.02031 0.0
C818 C 0.97778 0.65634 0.0994 0.0
C819 C 0.95874 0.66181 0.13577 0.0
C820 C 0.93991 0.66335 0.09384 0.0
C821 C 0.94006 0.65931 0.01547 0.0
C822 C 0.95907 0.65393 0.97874 0.0
C823 C 0.03911 0.56974 0.81099 0.0
C824 C 0.02142 0.56267 0.76826 0.0
C825 C 0.03863 0.58912 0.85335 0.0
C826 C 0.02061 0.60271 0.85308 0.0
C827 C 1.00275 0.59525 0.81134 0.0
C828 C 1.00295 0.57536 0.77201 0.0
C829 C 0.01968 0.62383 0.89886 0.0
C830 C 1.00068 0.62962 0.93684 0.0
C831 C 0.03712 0.63827 0.90712 0.0
C832 C 0.05816 0.63398 0.87255 0.0
C833 C 0.06051 0.63198 0.79335 0.0
C834 C 0.0806 0.628 0.76206 0.0
C835 C 0.09836 0.62597 0.80923 0.0
C836 C 0.09616 0.62811 0.88794 0.0
C837 C 0.07617 0.63218 0.91959 0.0
H838 H 0.11385 0.62282 0.78473 0.0
H839 H 0.92518 0.6675 0.12217 0.0
H840 H 0.07608 0.22834 0.07878 0.0
H841 H 0.07695 0.19567 0.15617 0.0
H842 H 0.02397 0.21987 0.2876 0.0
H843 H 0.0232 0.25203 0.21086 0.0
H844 H 0.0569 0.20626 0.37799 0.0
H845 H 0.01476 0.17835 0.15372 0.0
H846 H 1.00833 0.16453 0.02328 0.0
H847 H 0.0662 0.12817 0.03271 0.0
H848 H 0.07265 0.14133 0.16372 0.0
H849 H 0.97606 0.14364 0.50333 0.0
H850 H 1.00383 0.16686 0.45638 0.0
H851 H 0.04208 0.11187 0.396 0.0
H852 H 0.014 0.08854 0.43925 0.0
H853 H 0.03543 0.13505 0.27862 0.0
H854 H 0.06274 0.15006 0.52117 0.0
H855 H 0.06349 0.15827 0.65864 0.0
H856 H 0.03194 0.21799 0.62035 0.0
H857 H 0.03089 0.21021 0.48265 0.0
C858 C 0.06469 0.2264 0.12422 0.0
C859 C 0.04982 0.24256 0.14065 0.0
C860 C 0.06518 0.20791 0.16802 0.0
C861 C 0.05076 0.20562 0.22815 0.0
C862 C 0.0355 0.22156 0.24238 0.0
C863 C 0.03501 0.23983 0.19884 0.0
C864 C 0.05104 0.1869 0.27778 0.0
C865 C 0.05242 0.19054 0.35671 0.0
C866 C 0.04648 0.1662 0.24968 0.0
C867 C 0.04434 0.16105 0.16775 0.0
C868 C 0.0263 0.16775 0.12726 0.0
C869 C 0.02255 0.15987 0.05361 0.0
C870 C 0.03681 0.14545 0.01989 0.0
C871 C 0.05509 0.13922 0.05903 0.0
C872 C 0.05881 0.14687 0.13294 0.0
C873 C 0.99046 0.13644 0.48112 0.0
C874 C 0.99266 0.11416 0.47491 0.0
C875 C 1.00657 0.14977 0.45562 0.0
C876 C 0.0252 0.14108 0.4237 0.0
C877 C 0.02796 0.11889 0.42134 0.0
C878 C 0.01183 0.10557 0.44634 0.0
C879 C 0.03923 0.15493 0.37901 0.0
C880 C 0.04092 0.15034 0.30092 0.0
C881 C 0.04646 0.17476 0.40809 0.0
C882 C 0.04682 0.17955 0.49121 0.0
C883 C 0.05585 0.16491 0.54199 0.0
C884 C 0.05632 0.16948 0.62004 0.0
C885 C 0.04775 0.18862 0.64818 0.0
C886 C 0.03863 0.2032 0.59839 0.0
C887 C 0.03818 0.19876 0.52025 0.0
H888 H 0.04825 0.19221 0.70845 0.0
H889 H 0.0336 0.13898 0.96373 0.0
H890 H 0.2829 0.08883 0.11102 0.0
H891 H 0.31461 0.10952 0.15043 0.0
H892 H 0.34888 0.05068 0.18317 0.0
H893 H 0.31739 0.0303 0.14788 0.0
H894 H 0.33198 0.10389 0.29582 0.0
H895 H 0.40055 0.05649 0.13032 0.0
H896 H 0.40904 0.04724 0.99797 0.0
H897 H 0.36561 0.09513 0.92001 0.0
H898 H 0.35755 0.10564 0.05235 0.0
H899 H 0.38449 0.01843 0.39552 0.0
H900 H 0.36705 0.04927 0.34082 0.0
H901 H 0.42191 0.08806 0.39186 0.0
H902 H 0.43911 0.05737 0.45221 0.0
H903 H 0.40492 0.08145 0.22497 0.0
H904 H 0.38425 0.11963 0.44463 0.0
H905 H 0.37299 0.12736 0.57635 0.0
H906 H 0.31731 0.08881 0.54231 0.0
H907 H 0.32823 0.08106 0.41016 0.0
C908 C 0.29737 0.08051 0.12623 0.0
C909 C 0.29792 0.05807 0.12644 0.0
C910 C 0.31546 0.09225 0.14728 0.0
C911 C 0.33431 0.08156 0.16676 0.0
C912 C 0.33481 0.05918 0.16503 0.0
C913 C 0.31678 0.04756 0.14587 0.0
C914 C 0.35214 0.09259 0.20516 0.0
C915 C 0.34807 0.09949 0.27981 0.0
C916 C 0.37335 0.08816 0.18272 0.0
C917 C 0.37856 0.08211 0.10234 0.0
C918 C 0.39312 0.06554 0.08553 0.0
C919 C 0.39783 0.05998 0.01015 0.0
C920 C 0.38789 0.07059 0.95061 0.0
C921 C 0.37331 0.08692 0.96629 0.0
C922 C 0.36872 0.09275 0.0416 0.0
C923 C 0.39261 0.03366 0.39786 0.0
C924 C 0.41309 0.03544 0.42904 0.0
C925 C 0.38259 0.05132 0.36666 0.0
C926 C 0.39294 0.07114 0.36441 0.0
C927 C 0.41341 0.07314 0.39526 0.0
C928 C 0.42331 0.05547 0.42843 0.0
C929 C 0.38329 0.08776 0.31661 0.0
C930 C 0.38902 0.08677 0.23964 0.0
C931 C 0.36329 0.09639 0.33685 0.0
C932 C 0.35713 0.09983 0.41743 0.0
C933 C 0.36973 0.11271 0.46542 0.0
C934 C 0.36328 0.11725 0.53993 0.0
C935 C 0.34439 0.10866 0.56762 0.0
C936 C 0.33189 0.09555 0.52071 0.0
C937 C 0.33815 0.0912 0.4458 0.0
H938 H 0.33951 0.11206 0.62553 0.0
H939 H 0.39148 0.06613 0.89238 0.0
H940 H 0.44491 0.28546 0.14232 0.0
H941 H 0.43773 0.32062 0.20251 0.0
H942 H 0.49907 0.34275 0.12856 0.0
H943 H 0.50668 0.30749 0.07285 0.0
H944 H 0.47498 0.34443 0.31306 0.0
H945 H 0.47458 0.38878 0.02716 0.0
H946 H 0.45895 0.38476 0.89877 0.0
H947 H 0.40814 0.34728 0.98942 0.0
H948 H 0.42327 0.35131 0.11816 0.0
H949 H 0.52744 0.44168 0.32377 0.0
H950 H 0.51151 0.40643 0.30967 0.0
H951 H 0.4513 0.43546 0.2523 0.0
H952 H 0.46766 0.47092 0.2633 0.0
H953 H 0.4596 0.40719 0.15317 0.0
H954 H 0.45993 0.40474 0.42415 0.0
H955 H 0.47328 0.40706 0.55623 0.0
H956 H 0.52112 0.36011 0.50416 0.0
H957 H 0.50842 0.35774 0.37187 0.0
C958 C 0.45683 0.29788 0.13991 0.0
C959 C 0.47627 0.29404 0.10297 0.0
C960 C 0.45267 0.31785 0.17346 0.0
C961 C 0.46778 0.33418 0.16863 0.0
C962 C 0.48716 0.33031 0.13178 0.0
C963 C 0.49147 0.31032 0.09993 0.0
C964 C 0.46431 0.35526 0.20433 0.0
C965 C 0.47124 0.3583 0.27923 0.0
C966 C 0.45891 0.373 0.15997 0.0
C967 C 0.45011 0.37025 0.08219 0.0
C968 C 0.46006 0.37972 0.01964 0.0
C969 C 0.45127 0.37745 0.94682 0.0
C970 C 0.43251 0.36585 0.93615 0.0
C971 C 0.42265 0.35627 0.99788 0.0
C972 C 0.43136 0.35848 0.07067 0.0
C973 C 0.51071 0.44051 0.30957 0.0
C974 C 0.49877 0.45888 0.29408 0.0
C975 C 0.50151 0.42036 0.30231 0.0
C976 C 0.48005 0.41821 0.28125 0.0
C977 C 0.46786 0.43669 0.26889 0.0
C978 C 0.47718 0.45689 0.27483 0.0
C979 C 0.47146 0.39676 0.26194 0.0
C980 C 0.46255 0.3936 0.18922 0.0
C981 C 0.47489 0.37888 0.30902 0.0
C982 C 0.48313 0.38102 0.38797 0.0
C983 C 0.47341 0.39506 0.44067 0.0
C984 C 0.48086 0.39635 0.51561 0.0
C985 C 0.49796 0.38365 0.53836 0.0
C986 C 0.50783 0.36985 0.48635 0.0
C987 C 0.50049 0.36851 0.41149 0.0
H988 H 0.50358 0.38437 0.59624 0.0
H989 H 0.42552 0.36429 0.88022 0.0
H990 H 0.24808 0.45593 0.18922 0.0
H991 H 0.2126 0.44165 0.21967 0.0
H992 H 0.18555 0.50442 0.19183 0.0
H993 H 0.22093 0.51881 0.16649 0.0
H994 H 0.1799 0.46758 0.3442 0.0
H995 H 0.14502 0.48388 0.04589 0.0
H996 H 0.15429 0.47975 0.91043 0.0
H997 H 0.19887 0.43022 0.96463 0.0
H998 H 0.18932 0.43349 0.10015 0.0
H999 H 0.08327 0.51604 0.31331 0.0
H1000 H 0.11898 0.50167 0.30741 0.0
H1001 H 0.09458 0.44103 0.22729 0.0
H1002 H 0.05817 0.45523 0.23525 0.0
H1003 H 0.12683 0.45842 0.13712 0.0
H1004 H 0.11799 0.44039 0.39397 0.0
H1005 H 0.10613 0.44507 0.5268 0.0
H1006 H 0.14732 0.49922 0.55431 0.0
H1007 H 0.15947 0.49481 0.42174 0.0
C1008 C 0.2345 0.46659 0.19067 0.0
C1009 C 0.23701 0.48837 0.17487 0.0
C1010 C 0.21436 0.45845 0.20732 0.0
C1011 C 0.19656 0.47198 0.2065 0.0
C1012 C 0.19913 0.49373 0.19153 0.0
C1013 C 0.21923 0.5019 0.17674 0.0
C1014 C 0.17508 0.46412 0.22348 0.0
C1015 C 0.16827 0.46503 0.29933 0.0
C1016 C 0.16014 0.46055 0.16455 0.0
C1017 C 0.1666 0.45909 0.08348 0.0
C1018 C 0.1568 0.4721 0.02899 0.0
C1019 C 0.16205 0.46986 0.9521 0.0
C1020 C 0.17715 0.45473 0.92895 0.0
C1021 C 0.18716 0.44192 0.98269 0.0
C1022 C 0.18187 0.44399 0.05961 0.0
C1023 C 0.08527 0.49946 0.29631 0.0
C1024 C 0.06775 0.4867 0.27576 0.0
C1025 C 0.10577 0.49126 0.29306 0.0
C1026 C 0.10935 0.47017 0.26857 0.0
C1027 C 0.09204 0.45729 0.24724 0.0
C1028 C 0.07133 0.46549 0.25108 0.0
C1029 C 0.13152 0.46304 0.25744 0.0
C1030 C 0.13847 0.45977 0.18256 0.0
C1031 C 0.14655 0.46458 0.31723 0.0
C1032 C 0.13971 0.46716 0.39781 0.0
C1033 C 0.12454 0.45325 0.4284 0.0
C1034 C 0.11778 0.45586 0.50366 0.0
C1035 C 0.12594 0.47245 0.54893 0.0
C1036 C 0.14104 0.48635 0.51919 0.0
C1037 C 0.14797 0.48371 0.44408 0.0
H1038 H 0.12058 0.47455 0.60702 0.0
H1039 H 0.18114 0.45294 0.86941 0.0
H1040 H 0.01336 0.82221 0.11954 0.0
H1041 H 0.9949 0.85267 0.06649 0.0
H1042 H 0.9364 0.81685 0.06126 0.0
H1043 H 0.95491 0.7866 0.12 0.0
H1044 H 0.94971 0.82896 0.92006 0.0
H1045 H 0.92603 0.87421 0.12852 0.0
H1046 H 0.92632 0.89155 0.25569 0.0
H1047 H 0.99034 0.91272 0.21971 0.0
H1048 H 0.99018 0.896 0.09156 0.0
H1049 H 0.99247 0.94398 0.83313 0.0
H1050 H 0.96049 0.92393 0.85497 0.0
H1051 H 0.99431 0.86546 0.8022 0.0
H1052 H 0.02568 0.88565 0.77143 0.0
H1053 H 0.96364 0.90545 0.97483 0.0
H1054 H 0.97007 0.82202 0.80908 0.0
H1055 H 0.96731 0.80948 0.67621 0.0
H1056 H 0.93388 0.86676 0.61736 0.0
H1057 H 0.93599 0.87955 0.75034 0.0
C1058 C 0.99634 0.82134 0.11224 0.0
C1059 C 0.98546 0.8023 0.12543 0.0
C1060 C 0.98571 0.83873 0.08128 0.0
C1061 C 0.96412 0.8372 0.06093 0.0
C1062 C 0.95293 0.81853 0.0777 0.0
C1063 C 0.96349 0.80129 0.11072 0.0
C1064 C 0.95554 0.8529 0.00683 0.0
C1065 C 0.95221 0.84583 0.93144 0.0
C1066 C 0.95728 0.87497 0.02229 0.0
C1067 C 0.95814 0.8837 0.10097 0.0
C1068 C 0.94019 0.88247 0.148 0.0
C1069 C 0.94025 0.89241 0.21983 0.0
C1070 C 0.95833 0.90326 0.24572 0.0
C1071 C 0.97634 0.90433 0.19959 0.0
C1072 C 0.97623 0.89475 0.12721 0.0
C1073 C 0.99297 0.927 0.82147 0.0
C1074 C 0.01224 0.91631 0.80516 0.0
C1075 C 0.97442 0.91546 0.83426 0.0
C1076 C 0.97506 0.89307 0.83389 0.0
C1077 C 0.99318 0.88271 0.80412 0.0
C1078 C 0.01151 0.89431 0.78856 0.0
C1079 C 0.96111 0.88112 0.88639 0.0
C1080 C 0.95993 0.88889 0.96177 0.0
C1081 C 0.95492 0.85981 0.87032 0.0
C1082 C 0.95305 0.85173 0.79042 0.0
C1083 C 0.96179 0.83184 0.76839 0.0
C1084 C 0.96044 0.82472 0.69277 0.0
C1085 C 0.95039 0.83729 0.63842 0.0
C1086 C 0.94165 0.85702 0.65956 0.0
C1087 C 0.94293 0.86423 0.73509 0.0
H1088 H 0.94942 0.83175 0.57991 0.0
H1089 H 0.95842 0.91074 0.30163 0.0
H1090 H 0.7412 0.94478 0.09419 0.0
H1091 H 0.70803 0.94514 0.01896 0.0
H1092 H 0.69439 1.00859 0.10483 0.0
H1093 H 0.72773 1.00865 0.17608 0.0
H1094 H 0.65802 0.97985 0.097 0.0
H1095 H 0.7213 1.00405 0.94871 0.0
H1096 H 0.75582 0.9962 0.88773 0.0
H1097 H 0.72747 0.94464 0.75987 0.0
H1098 H 0.69283 0.95207 0.82087 0.0
H1099 H 0.62389 0.06833 0.91754 0.0
H1100 H 0.64331 0.03882 0.97515 0.0
H1101 H 0.62787 0.99804 0.78281 0.0
H1102 H 0.60837 0.02775 0.72477 0.0
H1103 H 0.67094 0.99676 0.82622 0.0
H1104 H 0.60482 0.98455 0.93831 0.0
H1105 H 0.57035 0.99275 0.99835 0.0
H1106 H 0.60241 0.02003 0.19245 0.0
H1107 H 0.6371 0.01215 0.13344 0.0
C1108 C 0.73097 0.9587 0.09665 0.0
C1109 C 0.73687 0.97678 0.13992 0.0
C1110 C 0.71203 0.95878 0.05478 0.0
C1111 C 0.6988 0.97684 0.05727 0.0
C1112 C 0.70429 0.99442 0.10344 0.0
C1113 C 0.72328 0.99449 0.14375 0.0
C1114 C 0.68062 0.97926 0.00535 0.0
C1115 C 0.66057 0.98313 0.03732 0.0
C1116 C 0.68388 0.98263 0.92698 0.0
C1117 C 0.70462 0.9784 0.89004 0.0
C1118 C 0.72249 0.99095 0.90801 0.0
C1119 C 0.74206 0.98659 0.87343 0.0
C1120 C 0.74386 0.96987 0.82025 0.0
C1121 C 0.72607 0.95753 0.8013 0.0
C1122 C 0.70648 0.9618 0.83586 0.0
C1123 C 0.62481 0.05314 0.88737 0.0
C1124 C 0.61473 0.0502 0.81694 0.0
C1125 C 0.63561 0.03623 0.92061 0.0
C1126 C 0.63656 0.01617 0.88384 0.0
C1127 C 0.627 0.01332 0.81241 0.0
C1128 C 0.61598 0.03022 0.77944 0.0
C1129 C 0.64882 0.99892 0.91951 0.0
C1130 C 0.66777 0.99229 0.88448 0.0
C1131 C 0.64445 0.99285 0.99495 0.0
C1132 C 0.62363 0.99771 0.03131 0.0
C1133 C 0.60455 0.99239 0.99366 0.0
C1134 C 0.58495 0.99696 0.02759 0.0
C1135 C 0.58418 1.00689 0.09924 0.0
C1136 C 0.60302 0.01226 0.1371 0.0
C1137 C 0.62268 1.00767 0.10351 0.0
H1138 H 0.56899 1.01043 0.12542 0.0
H1139 H 0.75901 0.96651 0.79352 0.0
H1140 H 0.50467 0.74753 0.10206 0.0
H1141 H 0.48617 0.71429 0.07359 0.0
H1142 H 0.43841 0.73064 0.24118 0.0
H1143 H 0.45722 0.76445 0.26826 0.0
H1144 H 0.4533 0.69357 0.27 0.0
H1145 H 0.42362 0.72102 0.04799 0.0
H1146 H 0.42191 0.7423 0.93132 0.0
H1147 H 0.47132 0.70382 0.83107 0.0
H1148 H 0.47335 0.68227 0.9469 0.0
H1149 H 0.45041 0.58786 0.01257 0.0
H1150 H 0.43346 0.6206 0.06025 0.0
H1151 H 0.49007 0.63593 0.18873 0.0
H1152 H 0.50724 0.60356 0.13991 0.0
H1153 H 0.44996 0.65733 0.01782 0.0
H1154 H 0.47507 0.67175 0.34278 0.0
H1155 H 0.47416 0.65221 0.46152 0.0
H1156 H 0.43105 0.60651 0.36281 0.0
H1157 H 0.43047 0.62667 0.24384 0.0
C1158 C 0.48985 0.74419 0.13071 0.0
C1159 C 0.48223 0.75813 0.18706 0.0
C1160 C 0.4792 0.72526 0.11462 0.0
C1161 C 0.46078 0.71989 0.15513 0.0
C1162 C 0.45251 0.73449 0.209 0.0
C1163 C 0.46315 0.75368 0.22444 0.0
C1164 C 0.45268 0.69774 0.14892 0.0
C1165 C 0.45227 0.68552 0.21514 0.0
C1166 C 0.45008 0.68753 0.07734 0.0
C1167 C 0.44852 0.69994 0.00617 0.0
C1168 C 0.43408 0.71704 1.00097 0.0
C1169 C 0.43305 0.72914 0.93491 0.0
C1170 C 0.44642 0.72433 0.87365 0.0
C1171 C 0.46082 0.70738 0.87825 0.0
C1172 C 0.46184 0.69514 0.94398 0.0
C1173 C 0.45909 0.59805 0.05205 0.0
C1174 C 0.48033 0.59347 0.07107 0.0
C1175 C 0.44931 0.6166 0.07979 0.0
C1176 C 0.46053 0.63072 0.12765 0.0
C1177 C 0.48103 0.62515 0.15241 0.0
C1178 C 0.49088 0.60667 0.12423 0.0
C1179 C 0.45302 0.65295 0.13875 0.0
C1180 C 0.4503 0.66519 0.0732 0.0
C1181 C 0.4526 0.66308 0.21122 0.0
C1182 C 0.45306 0.65064 0.28287 0.0
C1183 C 0.46533 0.65759 0.34561 0.0
C1184 C 0.46505 0.64635 0.41348 0.0
C1185 C 0.4529 0.62784 0.41951 0.0
C1186 C 0.44066 0.62074 0.35784 0.0
C1187 C 0.44056 0.63214 0.2901 0.0
H1188 H 0.4528 0.61911 0.47216 0.0
H1189 H 0.44567 0.73378 0.82269 0.0
H1190 H 0.77424 0.57484 0.03626 0.0
H1191 H 0.80595 0.58589 0.9707 0.0
H1192 H 0.83922 0.59039 0.18512 0.0
H1193 H 0.80584 0.58532 0.25178 0.0
H1194 H 0.86219 0.60881 0.09267 0.0
H1195 H 0.82809 0.53824 0.07893 0.0
H1196 H 0.79863 0.51378 0.04698 0.0
H1197 H 0.80007 0.53431 0.81514 0.0
H1198 H 0.82938 0.55915 0.84627 0.0
H1199 H 0.94505 0.53457 0.09416 0.0
H1200 H 0.91391 0.55714 0.10414 0.0
H1201 H 0.90518 0.55328 0.86093 0.0
H1202 H 0.9342 0.52807 0.8513 0.0
H1203 H 0.87062 0.54439 0.92777 0.0
H1204 H 0.92203 0.60002 0.96938 0.0
H1205 H 0.95507 0.6106 0.03494 0.0
H1206 H 0.92274 0.61069 0.24955 0.0
H1207 H 0.88992 0.59848 0.18638 0.0
C1208 C 0.78778 0.57964 0.0703 0.0
C1209 C 0.78758 0.578 0.15015 0.0
C1210 C 0.80618 0.58554 0.03224 0.0
C1211 C 0.8254 0.58734 0.07224 0.0
C1212 C 0.82478 0.5883 0.15216 0.0
C1213 C 0.80579 0.58441 0.19066 0.0
C1214 C 0.84597 0.58333 0.03284 0.0
C1215 C 0.86408 0.595 0.05532 0.0
C1216 C 0.84852 0.56534 0.98343 0.0
C1217 C 0.83094 0.55045 0.9647 0.0
C1218 C 0.8222 0.53744 0.02109 0.0
C1219 C 0.80546 0.5236 1.00325 0.0
C1220 C 0.7975 0.52246 0.92904 0.0
C1221 C 0.80626 0.53519 0.87256 0.0
C1222 C 0.82294 0.54914 0.89023 0.0
C1223 C 0.93649 0.53823 0.04255 0.0
C1224 C 0.94229 0.529 0.97206 0.0
C1225 C 0.91891 0.55175 0.04819 0.0
C1226 C 0.90741 0.55743 0.98296 0.0
C1227 C 0.91389 0.54933 0.912 0.0
C1228 C 0.93086 0.53503 0.90665 0.0
C1229 C 0.887 0.56923 0.99014 0.0
C1230 C 0.86887 0.55907 0.96084 0.0
C1231 C 0.88467 0.58786 0.03639 0.0
C1232 C 0.9034 0.59832 0.0728 0.0
C1233 C 0.92189 0.6024 0.03051 0.0
C1234 C 0.94068 0.60841 0.06745 0.0
C1235 C 0.94099 0.61134 0.14632 0.0
C1236 C 0.92247 0.6084 0.18843 0.0
C1237 C 0.90378 0.60179 0.1521 0.0
H1238 H 0.95559 0.6159 0.17481 0.0
H1239 H 0.78453 0.51174 0.91532 0.0
H1240 H 0.01259 0.23496 0.03994 0.0
H1241 H 0.00943 0.2005 0.97317 0.0
H1242 H 0.06314 0.21648 0.83333 0.0
H1243 H 0.06648 0.25088 0.90225 0.0
H1244 H 1.00166 0.18454 0.84346 0.0
H1245 H 0.09039 0.17041 0.77266 0.0
H1246 H 0.12592 0.18087 0.81935 0.0
H1247 H 0.1004 0.19304 0.04198 0.0
H1248 H 0.06474 0.1826 0.99698 0.0
H1249 H 0.05669 0.08381 0.63715 0.0
H1250 H 0.05856 0.12017 0.69077 0.0
H1251 H 1.00243 0.1079 0.82364 0.0
H1252 H 0.99974 0.07233 0.7649 0.0
H1253 H 0.06543 0.13858 0.81395 0.0
H1254 H 0.97772 0.15204 0.8893 0.0
H1255 H 0.94208 0.14013 0.84839 0.0
H1256 H 0.96527 0.12852 0.62249 0.0
H1257 H 1.00105 0.14086 0.66117 0.0
C1258 C 0.02349 0.23127 0.994 0.0
C1259 C 0.03966 0.24588 0.9762 0.0
C1260 C 0.02181 0.21135 0.95585 0.0
C1261 C 0.03639 0.20508 0.89877 0.0
C1262 C 0.05193 0.22024 0.8782 0.0
C1263 C 0.05364 0.24022 0.91672 0.0
C1264 C 0.03539 0.18273 0.86266 0.0
C1265 C 0.01568 0.17452 0.83775 0.0
C1266 C 0.05352 0.16929 0.85305 0.0
C1267 C 0.07484 0.17578 0.88117 0.0
C1268 C 0.09236 0.17525 0.83166 0.0
C1269 C 0.11252 0.18122 0.85784 0.0
C1270 C 0.11539 0.18765 0.93358 0.0
C1271 C 0.09811 0.1881 0.98333 0.0
C1272 C 0.07791 0.18217 0.95748 0.0
C1273 C 0.04474 0.08892 0.67781 0.0
C1274 C 0.0285 0.07472 0.69862 0.0
C1275 C 0.04579 0.10988 0.70886 0.0
C1276 C 0.03047 0.1176 0.7613 0.0
C1277 C 0.01423 0.10322 0.7819 0.0
C1278 C 0.01296 0.08243 0.74966 0.0
C1279 C 0.03168 0.14038 0.79424 0.0
C1280 C 0.05144 0.14867 0.81874 0.0
C1281 C 0.01357 0.1539 0.80382 0.0
C1282 C 0.99208 0.14722 0.77838 0.0
C1283 C 0.97518 0.14714 0.83063 0.0
C1284 C 0.95499 0.14031 0.80779 0.0
C1285 C 0.95147 0.13357 0.73276 0.0
C1286 C 0.96811 0.13379 0.68033 0.0
C1287 C 0.98833 0.14073 0.70263 0.0
H1288 H 0.93585 0.12817 0.71522 0.0
H1289 H 0.13101 0.19226 0.95373 0.0
H1290 H 0.30238 0.99213 0.03918 0.0
H1291 H 0.33656 0.98787 0.97189 0.0
H1292 H 0.33236 0.05333 0.89975 0.0
H1293 H 0.29791 0.05685 0.96187 0.0
H1294 H 0.34743 0.03345 0.79224 0.0
H1295 H 0.36318 0.03088 0.05931 0.0
H1296 H 0.36394 0.01674 0.1897 0.0
H1297 H 0.39293 0.95885 0.10737 0.0
H1298 H 0.39238 0.97248 0.97669 0.0
H1299 H 0.45168 0.03713 0.62908 0.0
H1300 H 0.41903 0.04329 0.69498 0.0
H1301 H 0.43275 0.98962 0.83983 0.0
H1302 H 0.46772 0.98707 0.78273 0.0
H1303 H 0.41153 1.00582 0.92049 0.0
H1304 H 0.37102 1.00903 0.64492 0.0
H1305 H 0.3653 0.02767 0.5238 0.0
H1306 H 0.3833 0.08713 0.63028 0.0
H1307 H 0.38678 0.06926 0.75324 0.0
C1308 C 0.30847 1.00528 0.00652 0.0
C1309 C 0.29727 0.02478 0.00525 0.0
C1310 C 0.32832 1.00305 0.96943 0.0
C1311 C 0.33765 0.02041 0.93142 0.0
C1312 C 0.32589 0.03955 0.92806 0.0
C1313 C 0.30602 0.04159 0.96349 0.0
C1314 C 0.35929 0.01905 0.89374 0.0
C1315 C 0.36143 0.02711 0.82027 0.0
C1316 C 0.37789 1.01101 0.9292 0.0
C1317 C 0.37765 1.00271 0.0079 0.0
C1318 C 0.36964 0.01511 0.06886 0.0
C1319 C 0.37005 1.0072 0.14283 0.0
C1320 C 0.37842 0.98696 0.15665 0.0
C1321 C 0.38643 0.97454 0.09658 0.0
C1322 C 0.38611 0.98236 0.02258 0.0
C1323 C 0.44817 0.02762 0.67837 0.0
C1324 C 0.46321 0.01298 0.70473 0.0
C1325 C 0.42838 0.03027 0.71474 0.0
C1326 C 0.42175 0.01697 0.7749 0.0
C1327 C 0.43668 1.00119 0.79717 0.0
C1328 C 0.45699 0.99946 0.76365 0.0
C1329 C 0.3999 0.01883 0.81475 0.0
C1330 C 0.39762 1.01117 0.8899 0.0
C1331 C 0.381 0.02738 0.78127 0.0
C1332 C 0.38017 0.03768 0.70691 0.0
C1333 C 0.37391 0.02605 0.64198 0.0
C1334 C 0.37071 0.03655 0.57337 0.0
C1335 C 0.37439 0.05848 0.56881 0.0
C1336 C 0.38046 0.07016 0.63352 0.0
C1337 C 0.38263 0.05995 0.70299 0.0
H1338 H 0.37234 0.06647 0.51543 0.0
H1339 H 0.37872 0.9809 0.21396 0.0
H1340 H 0.45663 0.29812 0.95744 0.0
H1341 H 0.46045 0.33112 0.8868 0.0
H1342 H 0.52581 0.31488 0.8384 0.0
H1343 H 0.52218 0.28239 0.91387 0.0
H1344 H 0.52644 0.35307 0.87226 0.0
H1345 H 0.48221 0.31545 0.70525 0.0
H1346 H 0.45226 0.29422 0.65531 0.0
H1347 H 0.40938 0.34604 0.7044 0.0
H1348 H 0.43902 0.36756 0.75524 0.0
H1349 H 0.53663 0.44307 0.62858 0.0
H1350 H 0.53237 0.40617 0.66908 0.0
H1351 H 0.47367 0.42308 0.78095 0.0
H1352 H 0.47779 0.45999 0.73975 0.0
H1353 H 0.47133 0.38371 0.70373 0.0
H1354 H 0.52233 0.41859 0.88002 0.0
H1355 H 0.55574 0.43896 0.89356 0.0
H1356 H 0.5901 0.38797 0.78297 0.0
H1357 H 0.5569 0.36745 0.76778 0.0
C1358 C 0.47172 0.30144 0.9306 0.0
C1359 C 0.48907 0.28754 0.94114 0.0
C1360 C 0.47392 0.32039 0.88975 0.0
C1361 C 0.49342 0.32584 0.85608 0.0
C1362 C 0.51055 0.31137 0.86363 0.0
C1363 C 0.50842 0.29252 0.90576 0.0
C1364 C 0.49622 0.34711 0.8176 0.0
C1365 C 0.51436 0.35944 0.83473 0.0
C1366 C 0.48081 0.35586 0.76729 0.0
C1367 C 0.46283 0.34294 0.7365 0.0
C1368 C 0.46636 0.32224 0.70666 0.0
C1369 C 0.44943 0.31017 0.67772 0.0
C1370 C 0.42889 0.31869 0.67731 0.0
C1371 C 0.42527 0.33938 0.70528 0.0
C1372 C 0.44215 0.35152 0.73424 0.0
C1373 C 0.52276 0.43903 0.66165 0.0
C1374 C 0.5079 0.45491 0.68301 0.0
C1375 C 0.52037 0.41781 0.68517 0.0
C1376 C 0.50292 0.41172 0.72991 0.0
C1377 C 0.48744 0.42725 0.74746 0.0
C1378 C 0.48993 0.44851 0.72448 0.0
C1379 C 0.50105 0.38944 0.76032 0.0
C1380 C 0.48314 0.37705 0.7417 0.0
C1381 C 0.51709 0.38015 0.80593 0.0
C1382 C 0.53717 0.39156 0.82253 0.0
C1383 C 0.53705 0.41168 0.85921 0.0
C1384 C 0.55592 0.42326 0.86691 0.0
C1385 C 0.57495 0.41475 0.83887 0.0
C1386 C 0.57531 0.3945 0.80455 0.0
C1387 C 0.5565 0.38288 0.79651 0.0
H1388 H 0.58938 0.42393 0.8428 0.0
H1389 H 0.4158 0.30933 0.65486 0.0
H1390 H 0.24277 0.47837 1.00362 0.0
H1391 H 0.21141 0.48279 0.92254 0.0
H1392 H 0.21159 0.55046 0.97162 0.0
H1393 H 0.2434 0.54589 0.05206 0.0
H1394 H 0.17269 0.53599 0.98974 0.0
H1395 H 0.22396 0.52853 0.79382 0.0
H1396 H 0.25356 0.51236 0.72145 0.0
H1397 H 0.21596 0.45644 0.6761 0.0
H1398 H 0.18621 0.47215 0.74895 0.0
H1399 H 0.09995 0.53219 0.62068 0.0
H1400 H 0.1354 0.53328 0.67946 0.0
H1401 H 0.1096 0.50664 0.884 0.0
H1402 H 0.07427 0.50661 0.82727 0.0
H1403 H 0.1626 0.50509 0.73083 0.0
H1404 H 0.13589 0.52362 0.04145 0.0
H1405 H 0.10641 0.54212 0.10736 0.0
H1406 H 0.09617 0.58135 0.91249 0.0
H1407 H 0.12593 0.5635 0.84614 0.0
C1408 C 0.23649 0.49427 0.99502 0.0
C1409 C 0.24582 0.51183 0.03311 0.0
C1410 C 0.21835 0.49681 0.94914 0.0
C1411 C 0.20875 0.51697 0.94048 0.0
C1412 C 0.21848 0.53468 0.97691 0.0
C1413 C 0.23688 0.53216 0.02208 0.0
C1414 C 0.18807 0.51929 0.89706 0.0
C1415 C 0.1706 0.52925 0.93304 0.0
C1416 C 0.18507 0.51089 0.8222 0.0
C1417 C 0.20294 0.50139 0.77809 0.0
C1418 C 0.22207 0.51268 0.76918 0.0
C1419 C 0.23887 0.50362 0.72784 0.0
C1420 C 0.23669 0.48335 0.69451 0.0
C1421 C 0.21766 0.47212 0.70219 0.0
C1422 C 0.20082 0.4811 0.74353 0.0
C1423 C 0.10176 0.52677 0.67839 0.0
C1424 C 0.08403 0.51914 0.71856 0.0
C1425 C 0.12218 0.52722 0.71198 0.0
C1426 C 0.12545 0.52028 0.78706 0.0
C1427 C 0.10775 0.51246 0.82669 0.0
C1428 C 0.08743 0.51212 0.79341 0.0
C1429 C 0.14714 0.52122 0.82443 0.0
C1430 C 0.16476 0.51188 0.78741 0.0
C1431 C 0.1504 0.53053 0.8978 0.0
C1432 C 0.13304 0.54203 0.93852 0.0
C1433 C 0.12748 0.53631 0.01288 0.0
C1434 C 0.11071 0.54671 0.05034 0.0
C1435 C 0.09942 0.5629 0.01411 0.0
C1436 C 0.10495 0.56884 0.94053 0.0
C1437 C 0.12178 0.55859 0.90299 0.0
H1438 H 0.08638 0.57086 0.04305 0.0
H1439 H 0.24971 0.47637 0.66248 0.0
H1440 H 0.98584 0.78917 0.33056 0.0
H1441 H 0.99 0.8209 0.41342 0.0
H1442 H 0.04452 0.83989 0.28251 0.0
H1443 H 0.04145 0.80702 0.20546 0.0
H1444 H 0.05151 0.85405 0.41325 0.0
H1445 H 0.98697 0.85587 0.26374 0.0
H1446 H 0.95215 0.84139 0.22508 0.0
H1447 H 0.92811 0.85226 0.45056 0.0
H1448 H 0.96314 0.86566 0.49202 0.0
H1449 H 0.04751 0.96656 0.49291 0.0
H1450 H 0.04388 0.93167 0.42809 0.0
H1451 H 1.00057 0.91141 0.6021 0.0
H1452 H 1.0043 0.94637 0.66687 0.0
H1453 H 0.98685 0.89813 0.45469 0.0
H1454 H 0.04962 0.8948 0.60586 0.0
H1455 H 0.08462 0.90654 0.65344 0.0
H1456 H 0.11103 0.89826 0.42996 0.0
H1457 H 0.076 0.88713 0.38039 0.0
C1458 C 0.99912 0.79979 0.3214 0.0
C1459 C 0.01336 0.79548 0.26149 0.0
C1460 C 1.0013 0.8183 0.3679 0.0
C1461 C 0.01708 0.8338 0.35322 0.0
C1462 C 0.032 0.82872 0.29575 0.0
C1463 C 0.0303 0.80978 0.25142 0.0
C1464 C 0.01767 0.85548 0.39463 0.0
C1465 C 0.0373 0.86367 0.42097 0.0
C1466 C 0.99923 0.86837 0.40773 0.0
C1467 C 0.97783 0.86151 0.38133 0.0
C1468 C 0.97434 0.855 0.30536 0.0
C1469 C 0.95461 0.8468 0.28307 0.0
C1470 C 0.93794 0.84587 0.33525 0.0
C1471 C 0.94103 0.85298 0.41013 0.0
C1472 C 0.96088 0.86072 0.43325 0.0
C1473 C 0.03688 0.95482 0.51657 0.0
C1474 C 0.02553 0.95969 0.58365 0.0
C1475 C 0.0349 0.93472 0.47963 0.0
C1476 C 0.02181 0.91859 0.5093 0.0
C1477 C 0.01057 0.92342 0.5768 0.0
C1478 C 0.01266 0.94352 0.61393 0.0
C1479 C 0.02065 0.89655 0.47185 0.0
C1480 C 1.00098 0.88843 0.44629 0.0
C1481 C 0.03898 0.88367 0.4596 0.0
C1482 C 0.06009 0.89037 0.48917 0.0
C1483 C 0.06282 0.89573 0.56659 0.0
C1484 C 0.08267 0.9023 0.59393 0.0
C1485 C 0.10002 0.90328 0.54464 0.0
C1486 C 0.09755 0.89763 0.46796 0.0
C1487 C 0.07768 0.89122 0.44017 0.0
H1488 H 0.1154 0.90832 0.56591 0.0
H1489 H 0.92262 0.83972 0.31757 0.0
H1490 H 0.72995 0.95432 0.27837 0.0
H1491 H 0.69631 0.95953 0.34504 0.0
H1492 H 0.71641 0.02264 0.4157 0.0
H1493 H 0.7495 0.01787 0.34315 0.0
H1494 H 0.68106 0.96408 0.4714 0.0
H1495 H 0.6754 0.05577 0.45111 0.0
H1496 H 0.68719 0.08491 0.36836 0.0
H1497 H 0.69056 0.0412 0.17841 0.0
H1498 H 0.67866 0.01176 0.25984 0.0
H1499 H 0.58643 0.99031 0.67496 0.0
H1500 H 0.62244 0.98627 0.62697 0.0
H1501 H 0.60535 0.02278 0.42945 0.0
H1502 H 0.57111 0.03079 0.48816 0.0
H1503 H 0.64038 0.03112 0.43916 0.0
H1504 H 0.6163 0.95722 0.45784 0.0
H1505 H 0.60191 0.92606 0.52557 0.0
H1506 H 0.65347 0.92958 0.68537 0.0
H1507 H 0.66798 0.9608 0.61928 0.0
C1508 C 0.72728 0.96925 0.3088 0.0
C1509 C 0.74253 0.98565 0.30497 0.0
C1510 C 0.70791 0.97227 0.34729 0.0
C1511 C 0.70309 0.99173 0.38481 0.0
C1512 C 0.71904 1.00766 0.38561 0.0
C1513 C 0.73834 1.00478 0.34547 0.0
C1514 C 0.68133 0.99518 0.4209 0.0
C1515 C 0.67215 0.97875 0.46368 0.0
C1516 C 0.66913 0.01408 0.41131 0.0
C1517 C 0.67639 0.03155 0.36183 0.0
C1518 C 0.67865 0.05238 0.39166 0.0
C1519 C 0.68537 0.06892 0.34501 0.0
C1520 C 0.68971 0.06485 0.26827 0.0
C1521 C 0.6873 0.04424 0.23795 0.0
C1522 C 0.6806 0.02762 0.28434 0.0
C1523 C 0.59027 0.99713 0.62042 0.0
C1524 C 0.57498 1.00935 0.58184 0.0
C1525 C 0.61105 0.99449 0.5918 0.0
C1526 C 0.6171 1.00289 0.52085 0.0
C1527 C 0.60172 0.01547 0.4832 0.0
C1528 C 0.58144 0.01932 0.51483 0.0
C1529 C 0.6394 0.99963 0.48758 0.0
C1530 C 0.64891 0.01622 0.44602 0.0
C1531 C 0.65151 0.98046 0.49542 0.0
C1532 C 0.64305 0.96142 0.53402 0.0
C1533 C 0.62447 0.95133 0.50752 0.0
C1534 C 0.61631 0.9337 0.54559 0.0
C1535 C 0.62673 0.92591 0.60973 0.0
C1536 C 0.6454 0.93564 0.63574 0.0
C1537 C 0.65361 0.95328 0.59796 0.0
H1538 H 0.62035 0.91229 0.63917 0.0
H1539 H 0.69489 0.07768 0.23222 0.0
H1540 H 0.5462 0.74526 0.24487 0.0
H1541 H 0.5494 0.7103 0.30653 0.0
H1542 H 0.48963 0.72162 0.42057 0.0
H1543 H 0.48739 0.75681 0.36298 0.0
H1544 H 0.51143 0.703 0.51406 0.0
H1545 H 0.49811 0.68644 0.25306 0.0
H1546 H 0.50153 0.68238 0.1142 0.0
H1547 H 0.56282 0.65328 0.14138 0.0
H1548 H 0.5594 0.65625 0.28083 0.0
H1549 H 0.48904 0.59306 0.59842 0.0
H1550 H 0.48902 0.62892 0.54683 0.0
H1551 H 0.55524 0.62228 0.48882 0.0
H1552 H 0.55577 0.58694 0.54592 0.0
H1553 H 0.53055 0.63772 0.3665 0.0
H1554 H 0.54018 0.6549 0.63614 0.0
H1555 H 0.52966 0.65284 0.77095 0.0
H1556 H 0.46834 0.67895 0.71703 0.0
H1557 H 0.47852 0.68116 0.58203 0.0
C1558 C 0.53411 0.74042 0.28474 0.0
C1559 C 0.51659 0.75386 0.2994 0.0
C1560 C 0.53566 0.7202 0.31896 0.0
C1561 C 0.51954 0.71274 0.36771 0.0
C1562 C 0.50239 0.7266 0.38366 0.0
C1563 C 0.50104 0.74681 0.35049 0.0
C1564 C 0.5204 0.69084 0.40311 0.0
C1565 C 0.51547 0.68882 0.48093 0.0
C1566 C 0.5257 0.67191 0.36144 0.0
C1567 C 0.52853 0.67168 0.27766 0.0
C1568 C 0.51236 0.67927 0.22966 0.0
C1569 C 0.51428 0.67714 0.15075 0.0
C1570 C 0.53247 0.66785 0.11895 0.0
C1571 C 0.54875 0.66054 0.16606 0.0
C1572 C 0.54677 0.6623 0.24508 0.0
C1573 C 0.50368 0.59913 0.575 0.0
C1574 C 0.52226 0.58649 0.57444 0.0
C1575 C 0.50361 0.61979 0.54482 0.0
C1576 C 0.52201 0.62841 0.51184 0.0
C1577 C 0.54068 0.616 0.51239 0.0
C1578 C 0.5409 0.59554 0.54446 0.0
C1579 C 0.52183 0.65019 0.47652 0.0
C1580 C 0.52678 0.65209 0.399 0.0
C1581 C 0.51593 0.66891 0.51761 0.0
C1582 C 0.51009 0.66813 0.59907 0.0
C1583 C 0.52446 0.66019 0.65312 0.0
C1584 C 0.51856 0.65902 0.72957 0.0
C1585 C 0.49835 0.66579 0.75261 0.0
C1586 C 0.48402 0.6738 0.69926 0.0
C1587 C 0.48987 0.67508 0.62283 0.0
H1588 H 0.49379 0.66482 0.81177 0.0
H1589 H 0.53389 0.66621 0.05782 0.0
H1590 H 0.78545 0.56758 0.35508 0.0
H1591 H 0.81849 0.56108 0.42414 0.0
H1592 H 0.8318 0.50746 0.27382 0.0
H1593 H 0.79994 0.51609 0.19931 0.0
H1594 H 0.83665 0.53878 0.50635 0.0
H1595 H 0.88108 0.49026 0.27643 0.0
H1596 H 0.88518 0.48732 0.13685 0.0
H1597 H 0.86613 0.55281 0.11678 0.0
H1598 H 0.86173 0.55607 0.25408 0.0
H1599 H 0.93952 0.5067 0.66017 0.0
H1600 H 0.90343 0.50787 0.60607 0.0
H1601 H 0.92502 0.55121 0.43482 0.0
H1602 H 0.96072 0.55021 0.48803 0.0
H1603 H 0.90306 0.52061 0.36885 0.0
H1604 H 0.89129 0.5688 0.57659 0.0
H1605 H 0.89047 0.58153 0.70995 0.0
H1606 H 0.84925 0.5297 0.76777 0.0
H1607 H 0.84976 0.51672 0.63455 0.0
C1608 C 0.79566 0.55456 0.33651 0.0
C1609 C 0.7905 0.54292 0.27008 0.0
C1610 C 0.81463 0.55063 0.37655 0.0
C1611 C 0.82872 0.53409 0.35408 0.0
C1612 C 0.82237 0.52114 0.29121 0.0
C1613 C 0.80379 0.52575 0.24899 0.0
C1614 C 0.84983 0.53097 0.3959 0.0
C1615 C 0.85101 0.53476 0.47533 0.0
C1616 C 0.86921 0.5256 0.35829 0.0
C1617 C 0.87071 0.52329 0.27505 0.0
C1618 C 0.87759 0.50395 0.24155 0.0
C1619 C 0.87996 0.50224 0.16265 0.0
C1620 C 0.87574 0.51985 0.11719 0.0
C1621 C 0.86919 0.53912 0.15081 0.0
C1622 C 0.86664 0.54091 0.22918 0.0
C1623 C 0.93652 0.51678 0.61182 0.0
C1624 C 0.95331 0.52833 0.57888 0.0
C1625 C 0.91578 0.51741 0.58067 0.0
C1626 C 0.91127 0.52953 0.51556 0.0
C1627 C 0.92789 0.54154 0.48438 0.0
C1628 C 0.94845 0.54104 0.51554 0.0
C1629 C 0.88971 0.52923 0.47733 0.0
C1630 C 0.88851 0.52445 0.39923 0.0
C1631 C 0.87057 0.53449 0.51559 0.0
C1632 C 0.87071 0.54171 0.59598 0.0
C1633 C 0.8822 0.56003 0.61795 0.0
C1634 C 0.8817 0.56735 0.69332 0.0
C1635 C 0.86972 0.55651 0.74707 0.0
C1636 C 0.8584 0.53817 0.72589 0.0
C1637 C 0.85875 0.53084 0.65044 0.0
H1638 H 0.86913 0.56246 0.80492 0.0
H1639 H 0.87766 0.51862 0.05614 0.0
loop_
_geom_bond_atom_site_label_1
_geom_bond_atom_site_label_2
_geom_bond_distance
_geom_bond_site_symmetry_2
_ccdc_geom_bond_type
C0 N1 1.317 . S
C0 N2 1.348 . S
C0 C3 1.485 . S
N1 C0 1.317 . S
N1 N5 1.370 . S
N2 C0 1.348 . S
N2 C4 1.346 . S
C3 C0 1.485 . S
C3 H7 0.960 . S
C3 H8 0.961 . S
C3 H9 0.960 . S
C4 N2 1.346 . S
C4 N5 1.307 . S
C4 C6 1.486 . S
N5 N1 1.370 . S
N5 C4 1.307 . S
C6 C4 1.486 . S
C6 H10 0.960 . S
C6 H11 0.960 . S
C6 H12 0.959 . S
H7 C3 0.960 . S
H8 C3 0.961 . S
H9 C3 0.960 . S
H10 C6 0.960 . S
H11 C6 0.960 . S
H12 C6 0.959 . S
C13 N14 1.317 . S
C13 N15 1.348 . S
C13 C16 1.485 . S
N14 C13 1.317 . S
N14 N18 1.370 . S
N15 C13 1.348 . S
N15 C17 1.346 . S
C16 C13 1.485 . S
C16 H20 0.960 . S
C16 H21 0.961 . S
C16 H22 0.960 . S
C17 N15 1.346 . S
C17 N18 1.307 . S
C17 C19 1.486 . S
N18 N14 1.370 . S
N18 C17 1.307 . S
C19 C17 1.486 . S
C19 H23 0.960 . S
C19 H24 0.960 . S
C19 H25 0.959 . S
H20 C16 0.960 . S
H21 C16 0.961 . S
H22 C16 0.960 . S
H23 C19 0.960 . S
H24 C19 0.960 . S
H25 C19 0.959 . S
C26 N27 1.317 . S
C26 N28 1.348 . S
C26 C29 1.485 . S
N27 C26 1.317 . S
N27 N31 1.370 . S
N28 C26 1.348 . S
N28 C30 1.346 . S
C29 C26 1.485 . S
C29 H33 0.960 . S
C29 H34 0.961 . S
C29 H35 0.960 . S
C30 N28 1.346 . S
C30 N31 1.307 . S
C30 C32 1.486 . S
N31 N27 1.370 . S
N31 C30 1.307 . S
C32 C30 1.486 . S
C32 H36 0.960 . S
C32 H37 0.960 . S
C32 H38 0.959 . S
H33 C29 0.960 . S
H34 C29 0.961 . S
H35 C29 0.960 . S
H36 C32 0.960 . S
H37 C32 0.960 . S
H38 C32 0.959 . S
C39 N40 1.317 . S
C39 N41 1.348 . S
C39 C42 1.485 . S
N40 C39 1.317 . S
N40 N44 1.370 . S
N41 C39 1.348 . S
N41 C43 1.346 . S
C42 C39 1.485 . S
C42 H46 0.960 . S
C42 H47 0.961 . S
C42 H48 0.960 . S
C43 N41 1.346 . S
C43 N44 1.307 . S
C43 C45 1.486 . S
N44 N40 1.370 . S
N44 C43 1.307 . S
C45 C43 1.486 . S
C45 H49 0.960 . S
C45 H50 0.960 . S
C45 H51 0.959 . S
H46 C42 0.960 . S
H47 C42 0.961 . S
H48 C42 0.960 . S
H49 C45 0.960 . S
H50 C45 0.960 . S
H51 C45 0.959 . S
C52 N53 1.317 . S
C52 N54 1.348 1_556 S
C52 C55 1.485 . S
N53 C52 1.317 . S
N53 N57 1.370 1_556 S
N54 C52 1.348 1_554 S
N54 C56 1.346 . S
C55 C52 1.485 . S
C55 H59 0.960 . S
C55 H60 0.961 . S
C55 H61 0.960 . S
C56 N54 1.346 . S
C56 N57 1.307 . S
C56 C58 1.486 . S
N57 N53 1.370 1_554 S
N57 C56 1.307 . S
C58 C56 1.486 . S
C58 H62 0.960 . S
C58 H63 0.960 . S
C58 H64 0.959 . S
H59 C55 0.960 . S
H60 C55 0.961 . S
H61 C55 0.960 . S
H62 C58 0.960 . S
H63 C58 0.960 . S
H64 C58 0.959 . S
C65 N66 1.317 . S
C65 N67 1.348 1_556 S
C65 C68 1.485 . S
N66 C65 1.317 . S
N66 N70 1.370 1_556 S
N67 C65 1.348 1_554 S
N67 C69 1.346 . S
C68 C65 1.485 . S
C68 H72 0.960 . S
C68 H73 0.961 . S
C68 H74 0.960 . S
C69 N67 1.346 . S
C69 N70 1.307 . S
C69 C71 1.486 . S
N70 N66 1.370 1_554 S
N70 C69 1.307 . S
C71 C69 1.486 . S
C71 H75 0.960 . S
C71 H76 0.960 . S
C71 H77 0.959 . S
H72 C68 0.960 . S
H73 C68 0.961 . S
H74 C68 0.960 . S
H75 C71 0.960 . S
H76 C71 0.960 . S
H77 C71 0.959 . S
C78 N79 1.317 . S
C78 N80 1.348 1_556 S
C78 C81 1.485 . S
N79 C78 1.317 . S
N79 N83 1.370 1_556 S
N80 C78 1.348 1_554 S
N80 C82 1.346 . S
C81 C78 1.485 . S
C81 H85 0.960 . S
C81 H86 0.961 . S
C81 H87 0.960 . S
C82 N80 1.346 . S
C82 N83 1.307 . S
C82 C84 1.486 . S
N83 N79 1.370 1_554 S
N83 C82 1.307 . S
C84 C82 1.486 . S
C84 H88 0.960 . S
C84 H89 0.960 . S
C84 H90 0.959 . S
H85 C81 0.960 . S
H86 C81 0.961 . S
H87 C81 0.960 . S
H88 C84 0.960 . S
H89 C84 0.960 . S
H90 C84 0.959 . S
C91 N92 1.317 . S
C91 N93 1.348 1_556 S
C91 C94 1.485 . S
N92 C91 1.317 . S
N92 N96 1.370 1_556 S
N93 C91 1.348 1_554 S
N93 C95 1.346 . S
C94 C91 1.485 . S
C94 H98 0.960 . S
C94 H99 0.961 . S
C94 H100 0.960 . S
C95 N93 1.346 . S
C95 N96 1.307 . S
C95 C97 1.486 . S
N96 N92 1.370 1_554 S
N96 C95 1.307 . S
C97 C95 1.486 . S
C97 H101 0.960 . S
C97 H102 0.960 . S
C97 H103 0.959 . S
H98 C94 0.960 . S
H99 C94 0.961 . S
H100 C94 0.960 . S
H101 C97 0.960 . S
H102 C97 0.960 . S
H103 C97 0.959 . S
Eu104 N135 2.657 1_565 S
Eu104 N142 2.598 1_565 S
Eu104 O148 2.558 . S
Eu104 O149 2.612 1_455 S
Eu104 O151 2.339 1_455 S
Eu104 O152 2.563 . S
Eu104 O153 2.419 . S
Eu104 O155 2.380 1_565 S
Eu104 O156 2.432 . S
Eu104 C168 2.848 . S
C105 C108 1.429 1_545 S
C105 C109 1.411 . S
C105 N112 1.377 . S
C106 C108 1.420 . S
C106 C110 1.423 . S
C106 C118 1.392 . S
C107 C109 1.420 1_565 S
C107 C110 1.351 . S
C107 H130 0.931 . S
C108 C105 1.429 1_565 S
C108 C106 1.420 . S
C108 N116 1.362 1_565 S
C109 C105 1.411 . S
C109 C107 1.420 1_545 S
C109 C114 1.395 . S
C110 C106 1.423 . S
C110 C107 1.351 . S
C110 H122 0.930 . S
C111 C113 1.400 . S
C111 C114 1.386 . S
C111 H123 0.930 . S
N112 C105 1.377 . S
N112 C113 1.321 . S
N112 Eu115 2.609 . S
C113 C111 1.400 . S
C113 N112 1.321 . S
C113 H120 0.930 . S
C114 C109 1.395 . S
C114 C111 1.386 . S
C114 H133 0.930 . S
Eu115 N112 2.609 . S
Eu115 N116 2.657 . S
Eu115 O149 2.380 1_545 S
Eu115 O150 2.432 . S
Eu115 O154 2.558 . S
Eu115 O155 2.612 1_655 S
Eu115 O157 2.339 1_655 S
Eu115 O158 2.563 1_655 S
Eu115 O159 2.419 . S
Eu115 C179 2.848 . S
N116 C108 1.362 1_545 S
N116 Eu115 2.657 . S
N116 C117 1.334 1_645 S
C117 N116 1.334 1_465 S
C117 C119 1.413 . S
C117 H124 0.929 . S
C118 C106 1.392 . S
C118 C119 1.367 1_655 S
C118 H126 0.930 . S
C119 C117 1.413 . S
C119 C118 1.367 1_455 S
C119 H121 0.930 . S
H120 C113 0.930 . S
H121 C119 0.930 . S
H122 C110 0.930 . S
H123 C111 0.930 . S
H124 C117 0.929 . S
H125 C139 0.930 1_655 S
H126 C118 0.930 . S
H127 C145 0.930 . S
H128 C136 0.929 1_655 S
H129 C143 0.930 . S
H130 C107 0.931 . S
H131 C137 0.930 1_554 S
H132 C170 0.930 1_554 S
H133 C114 0.930 . S
H134 C169 0.931 . S
N135 Eu104 2.657 1_545 S
N135 C136 1.334 . S
N135 C140 1.362 . S
C136 H128 0.929 1_455 S
C136 N135 1.334 . S
C136 C139 1.413 . S
C137 H131 0.930 1_556 S
C137 C138 1.392 . S
C137 C139 1.367 . S
C138 C137 1.392 . S
C138 C140 1.420 . S
C138 C170 1.423 . S
C139 H125 0.930 1_455 S
C139 C136 1.413 . S
C139 C137 1.367 . S
C140 N135 1.362 . S
C140 C138 1.420 . S
C140 C144 1.429 . S
H141 C146 0.930 . S
N142 Eu104 2.598 1_545 S
N142 C144 1.403 . S
N142 C145 1.302 1_545 S
C143 H129 0.930 . S
C143 C145 1.400 . S
C143 C146 1.386 1_565 S
C144 C140 1.429 . S
C144 N142 1.403 . S
C144 C147 1.411 . S
C145 H127 0.930 . S
C145 N142 1.302 1_565 S
C145 C143 1.400 . S
C146 H141 0.930 . S
C146 C143 1.386 1_545 S
C146 C147 1.395 . S
C147 C144 1.411 . S
C147 C146 1.395 . S
C147 C169 1.420 . S
O148 Eu104 2.558 . S
O148 C168 1.257 . S
O149 Eu104 2.612 1_655 S
O149 Eu115 2.380 1_565 S
O149 C160 1.276 . S
O150 Eu115 2.432 . S
O150 C167 1.264 . S
O151 Eu104 2.339 1_655 S
O151 C167 1.254 1_565 S
O152 Eu104 2.563 . S
O152 C160 1.235 1_455 S
O153 Eu104 2.419 . S
O153 C168 1.249 . S
O154 Eu115 2.558 . S
O154 C179 1.257 . S
O155 Eu104 2.380 1_545 S
O155 Eu115 2.612 1_455 S
O155 C171 1.276 . S
O156 Eu104 2.432 . S
O156 C178 1.264 1_565 S
O157 Eu115 2.339 1_455 S
O157 C178 1.254 . S
O158 Eu115 2.563 1_455 S
O158 C171 1.235 . S
O159 Eu115 2.419 . S
O159 C179 1.249 . S
C160 O149 1.276 . S
C160 O152 1.235 1_655 S
C161 C163 1.393 . S
C161 C165 1.395 . S
C161 C168 1.492 . S
C162 C163 1.392 . S
C162 C164 1.386 . S
C163 C161 1.393 . S
C163 C162 1.392 . S
C163 H180 0.904 1_455 S
C164 C162 1.386 . S
C164 C166 1.395 . S
C164 H181 0.930 . S
C165 C161 1.395 . S
C165 C166 1.379 . S
C165 H182 0.930 . S
C166 C164 1.395 . S
C166 C165 1.379 . S
C166 H183 0.930 . S
C167 O150 1.264 . S
C167 O151 1.254 1_545 S
C168 Eu104 2.848 . S
C168 O148 1.257 . S
C168 O153 1.249 . S
C168 C161 1.492 . S
C169 H134 0.931 . S
C169 C147 1.420 . S
C169 C170 1.351 . S
C170 H132 0.930 1_556 S
C170 C138 1.423 . S
C170 C169 1.351 . S
C171 O155 1.276 . S
C171 O158 1.235 . S
C172 C173 1.393 . S
C172 C176 1.395 . S
C172 C179 1.492 . S
C173 C172 1.393 . S
C173 C174 1.392 . S
C173 H184 0.930 1_655 S
C174 C173 1.392 . S
C174 C175 1.386 . S
C175 C174 1.386 . S
C175 C177 1.395 . S
C175 H185 0.930 . S
C176 C172 1.395 . S
C176 C177 1.379 . S
C176 H186 0.930 . S
C177 C175 1.395 . S
C177 C176 1.379 . S
C177 H187 0.930 . S
C178 O156 1.264 1_545 S
C178 O157 1.254 . S
C179 Eu115 2.848 . S
C179 O154 1.257 . S
C179 O159 1.249 . S
C179 C172 1.492 . S
H180 C163 0.904 1_655 S
H181 C164 0.930 . S
H182 C165 0.930 . S
H183 C166 0.930 . S
H184 C173 0.930 1_455 S
H185 C175 0.930 . S
H186 C176 0.930 . S
H187 C177 0.930 . S
Eu188 N219 2.657 . S
Eu188 N226 2.609 . S
Eu188 O232 2.558 . S
Eu188 O233 2.589 1_545 S
Eu188 O235 2.339 1_545 S
Eu188 O236 2.563 . S
Eu188 O237 2.419 . S
Eu188 O239 2.380 . S
Eu188 O240 2.432 . S
Eu188 C252 2.848 . S
C189 C192 1.429 . S
C189 C193 1.411 . S
C189 N196 1.377 . S
C190 C192 1.420 . S
C190 C194 1.423 . S
C190 C202 1.392 . S
C191 C193 1.420 . S
C191 C194 1.351 . S
C191 H214 0.931 . S
C192 C189 1.429 . S
C192 C190 1.420 . S
C192 N200 1.362 . S
C193 C189 1.411 . S
C193 C191 1.420 . S
C193 C198 1.395 . S
C194 C190 1.423 . S
C194 C191 1.351 . S
C194 H206 0.930 . S
C195 C197 1.400 . S
C195 C198 1.386 . S
C195 H207 0.930 . S
N196 C189 1.377 . S
N196 C197 1.321 . S
N196 Eu199 2.609 . S
C197 C195 1.400 . S
C197 N196 1.321 . S
C197 H204 0.930 . S
C198 C193 1.395 . S
C198 C195 1.386 . S
C198 H217 0.930 . S
Eu199 N196 2.609 . S
Eu199 N200 2.657 . S
Eu199 O233 2.387 . S
Eu199 O234 2.432 . S
Eu199 O238 2.558 . S
Eu199 O239 2.612 1_565 S
Eu199 O241 2.339 1_565 S
Eu199 O242 2.563 1_565 S
Eu199 O243 2.419 1_565 S
Eu199 C263 2.848 . S
N200 C192 1.362 . S
N200 Eu199 2.657 . S
N200 C201 1.334 1_565 S
C201 N200 1.334 1_545 S
C201 C203 1.413 . S
C201 H208 0.929 . S
C202 C190 1.392 . S
C202 C203 1.367 1_565 S
C202 H210 0.930 . S
C203 C201 1.413 . S
C203 C202 1.367 1_545 S
C203 H205 0.930 . S
H204 C197 0.930 . S
H205 C203 0.930 . S
H206 C194 0.930 . S
H207 C195 0.930 . S
H208 C201 0.929 . S
H209 C223 0.930 1_565 S
H210 C202 0.930 . S
H211 C229 0.930 . S
H212 C220 0.929 1_565 S
H213 C227 0.930 . S
H214 C191 0.931 . S
H215 C221 0.930 1_554 S
H216 C254 0.930 1_554 S
H217 C198 0.930 . S
H218 C253 0.931 . S
N219 Eu188 2.657 . S
N219 C220 1.334 . S
N219 C224 1.362 . S
C220 H212 0.929 1_545 S
C220 N219 1.334 . S
C220 C223 1.413 . S
C221 H215 0.930 1_556 S
C221 C222 1.392 . S
C221 C223 1.367 . S
C222 C221 1.392 . S
C222 C224 1.420 . S
C222 C254 1.423 . S
C223 H209 0.930 1_545 S
C223 C220 1.413 . S
C223 C221 1.367 . S
C224 N219 1.362 . S
C224 C222 1.420 . S
C224 C228 1.429 . S
H225 C230 0.930 . S
N226 Eu188 2.609 . S
N226 C228 1.377 . S
N226 C229 1.321 . S
C227 H213 0.930 . S
C227 C229 1.400 . S
C227 C230 1.386 . S
C228 C224 1.429 . S
C228 N226 1.377 . S
C228 C231 1.411 . S
C229 H211 0.930 . S
C229 N226 1.321 . S
C229 C227 1.400 . S
C230 H225 0.930 . S
C230 C227 1.386 . S
C230 C231 1.395 . S
C231 C228 1.411 . S
C231 C230 1.395 . S
C231 C253 1.420 . S
O232 Eu188 2.558 . S
O232 C252 1.257 . S
O233 Eu188 2.589 1_565 S
O233 Eu199 2.387 . S
O233 C244 1.275 . S
O234 Eu199 2.432 . S
O234 C251 1.264 . S
O235 Eu188 2.339 1_565 S
O235 C251 1.254 . S
O236 Eu188 2.563 . S
O236 C244 1.238 1_545 S
O237 Eu188 2.419 . S
O237 C252 1.249 . S
O238 Eu199 2.558 . S
O238 C263 1.257 . S
O239 Eu188 2.380 . S
O239 Eu199 2.612 1_545 S
O239 C255 1.276 . S
O240 Eu188 2.432 . S
O240 C262 1.264 . S
O241 Eu199 2.339 1_545 S
O241 C262 1.254 . S
O242 Eu199 2.563 1_545 S
O242 C255 1.235 . S
O243 Eu199 2.419 1_545 S
O243 C263 1.249 1_545 S
C244 O233 1.275 . S
C244 O236 1.238 1_565 S
C245 C247 1.393 . S
C245 C249 1.395 . S
C245 C252 1.492 . S
C246 C247 1.392 . S
C246 C248 1.386 . S
C247 C245 1.393 . S
C247 C246 1.392 . S
C247 H264 0.930 . S
C248 C246 1.386 . S
C248 C250 1.395 . S
C248 H265 0.930 . S
C249 C245 1.395 . S
C249 C250 1.379 . S
C249 H266 0.930 . S
C250 C248 1.395 . S
C250 C249 1.379 . S
C250 H267 0.930 . S
C251 O234 1.264 . S
C251 O235 1.254 . S
C252 Eu188 2.848 . S
C252 O232 1.257 . S
C252 O237 1.249 . S
C252 C245 1.492 . S
C253 H218 0.931 . S
C253 C231 1.420 . S
C253 C254 1.351 . S
C254 H216 0.930 1_556 S
C254 C222 1.423 . S
C254 C253 1.351 . S
C255 O239 1.276 . S
C255 O242 1.235 . S
C256 C257 1.373 1_565 S
C256 C260 1.395 . S
C256 C263 1.492 . S
C257 C256 1.373 1_545 S
C257 C258 1.391 1_545 S
C257 H268 0.952 . S
C258 C257 1.391 1_565 S
C258 C259 1.386 . S
C259 C258 1.386 . S
C259 C261 1.395 . S
C259 H269 0.930 . S
C260 C256 1.395 . S
C260 C261 1.379 . S
C260 H270 0.930 . S
C261 C259 1.395 . S
C261 C260 1.379 . S
C261 H271 0.930 . S
C262 O240 1.264 . S
C262 O241 1.254 . S
C263 Eu199 2.848 . S
C263 O238 1.257 . S
C263 O243 1.249 1_565 S
C263 C256 1.492 . S
H264 C247 0.930 . S
H265 C248 0.930 . S
H266 C249 0.930 . S
H267 C250 0.930 . S
H268 C257 0.952 . S
H269 C259 0.930 . S
H270 C260 0.930 . S
H271 C261 0.930 . S
Eu272 N303 2.657 . S
Eu272 N310 2.609 . S
Eu272 O316 2.558 . S
Eu272 O317 2.612 . S
Eu272 O319 2.339 . S
Eu272 O320 2.563 . S
Eu272 O321 2.419 . S
Eu272 O323 2.380 . S
Eu272 O324 2.432 . S
Eu272 C336 2.848 . S
C273 C276 1.429 . S
C273 C277 1.411 . S
C273 N280 1.377 . S
C274 C276 1.420 . S
C274 C278 1.423 . S
C274 C286 1.392 . S
C275 C277 1.420 . S
C275 C278 1.351 . S
C275 H298 0.931 . S
C276 C273 1.429 . S
C276 C274 1.420 . S
C276 N284 1.362 . S
C277 C273 1.411 . S
C277 C275 1.420 . S
C277 C282 1.395 . S
C278 C274 1.423 . S
C278 C275 1.351 . S
C278 H290 0.930 . S
C279 C281 1.400 . S
C279 C282 1.386 . S
C279 H291 0.930 . S
N280 C273 1.377 . S
N280 C281 1.321 . S
N280 Eu283 2.609 . S
C281 C279 1.400 . S
C281 N280 1.321 . S
C281 H288 0.930 . S
C282 C277 1.395 . S
C282 C279 1.386 . S
C282 H301 0.930 . S
Eu283 N280 2.609 . S
Eu283 N284 2.657 . S
Eu283 O317 2.380 . S
Eu283 O318 2.432 . S
Eu283 O322 2.558 . S
Eu283 O323 2.612 . S
Eu283 O325 2.339 . S
Eu283 O326 2.563 . S
Eu283 O327 2.419 . S
Eu283 C347 2.848 . S
N284 C276 1.362 . S
N284 Eu283 2.657 . S
N284 C285 1.334 . S
C285 N284 1.334 . S
C285 C287 1.413 . S
C285 H292 0.929 . S
C286 C274 1.392 . S
C286 C287 1.367 . S
C286 H294 0.930 . S
C287 C285 1.413 . S
C287 C286 1.367 . S
C287 H289 0.930 . S
H288 C281 0.930 . S
H289 C287 0.930 . S
H290 C278 0.930 . S
H291 C279 0.930 . S
H292 C285 0.929 . S
H293 C307 0.930 . S
H294 C286 0.930 . S
H295 C313 0.930 . S
H296 C304 0.929 . S
H297 C311 0.930 . S
H298 C275 0.931 . S
H299 C305 0.930 . S
H300 C338 0.930 . S
H301 C282 0.930 . S
H302 C337 0.931 . S
N303 Eu272 2.657 . S
N303 C304 1.334 . S
N303 C308 1.362 . S
C304 H296 0.929 . S
C304 N303 1.334 . S
C304 C307 1.413 . S
C305 H299 0.930 . S
C305 C306 1.392 . S
C305 C307 1.367 . S
C306 C305 1.392 . S
C306 C308 1.420 . S
C306 C338 1.423 . S
C307 H293 0.930 . S
C307 C304 1.413 . S
C307 C305 1.367 . S
C308 N303 1.362 . S
C308 C306 1.420 . S
C308 C312 1.429 . S
H309 C314 0.930 . S
N310 Eu272 2.609 . S
N310 C312 1.377 . S
N310 C313 1.321 . S
C311 H297 0.930 . S
C311 C313 1.400 . S
C311 C314 1.386 . S
C312 C308 1.429 . S
C312 N310 1.377 . S
C312 C315 1.411 . S
C313 H295 0.930 . S
C313 N310 1.321 . S
C313 C311 1.400 . S
C314 H309 0.930 . S
C314 C311 1.386 . S
C314 C315 1.395 . S
C315 C312 1.411 . S
C315 C314 1.395 . S
C315 C337 1.420 . S
O316 Eu272 2.558 . S
O316 C336 1.257 . S
O317 Eu272 2.612 . S
O317 Eu283 2.380 . S
O317 C328 1.276 . S
O318 Eu283 2.432 . S
O318 C335 1.264 . S
O319 Eu272 2.339 . S
O319 C335 1.254 . S
O320 Eu272 2.563 . S
O320 C328 1.235 . S
O321 Eu272 2.419 . S
O321 C336 1.249 . S
O322 Eu283 2.558 . S
O322 C347 1.257 . S
O323 Eu272 2.380 . S
O323 Eu283 2.612 . S
O323 C339 1.276 . S
O324 Eu272 2.432 . S
O324 C346 1.264 . S
O325 Eu283 2.339 . S
O325 C346 1.254 . S
O326 Eu283 2.563 . S
O326 C339 1.235 . S
O327 Eu283 2.419 . S
O327 C347 1.249 . S
C328 O317 1.276 . S
C328 O320 1.235 . S
C329 C331 1.393 . S
C329 C333 1.395 . S
C329 C336 1.492 . S
C330 C331 1.392 . S
C330 C332 1.386 . S
C331 C329 1.393 . S
C331 C330 1.392 . S
C331 H348 0.930 . S
C332 C330 1.386 . S
C332 C334 1.395 . S
C332 H349 0.930 . S
C333 C329 1.395 . S
C333 C334 1.379 . S
C333 H350 0.930 . S
C334 C332 1.395 . S
C334 C333 1.379 . S
C334 H351 0.930 . S
C335 O318 1.264 . S
C335 O319 1.254 . S
C336 Eu272 2.848 . S
C336 O316 1.257 . S
C336 O321 1.249 . S
C336 C329 1.492 . S
C337 H302 0.931 . S
C337 C315 1.420 . S
C337 C338 1.351 . S
C338 H300 0.930 . S
C338 C306 1.423 . S
C338 C337 1.351 . S
C339 O323 1.276 . S
C339 O326 1.235 . S
C340 C341 1.393 . S
C340 C344 1.395 . S
C340 C347 1.492 . S
C341 C340 1.393 . S
C341 C342 1.392 . S
C341 H352 0.930 . S
C342 C341 1.392 . S
C342 C343 1.386 1_556 S
C343 C342 1.386 1_554 S
C343 C345 1.395 . S
C343 H353 0.930 . S
C344 C340 1.395 . S
C344 C345 1.379 1_556 S
C344 H354 0.930 . S
C345 C343 1.395 . S
C345 C344 1.379 1_554 S
C345 H355 0.930 . S
C346 O324 1.264 . S
C346 O325 1.254 . S
C347 Eu283 2.848 . S
C347 O322 1.257 . S
C347 O327 1.249 . S
C347 C340 1.492 . S
H348 C331 0.930 . S
H349 C332 0.930 . S
H350 C333 0.930 . S
H351 C334 0.930 . S
H352 C341 0.930 . S
H353 C343 0.930 . S
H354 C344 0.930 . S
H355 C345 0.930 . S
Eu356 N387 2.657 . S
Eu356 N394 2.609 . S
Eu356 O400 2.558 . S
Eu356 O401 2.612 . S
Eu356 O403 2.339 . S
Eu356 O404 2.563 . S
Eu356 O405 2.419 . S
Eu356 O407 2.380 . S
Eu356 O408 2.432 1_455 S
Eu356 C420 2.848 . S
C357 C360 1.429 . S
C357 C361 1.411 . S
C357 N364 1.377 . S
C358 C360 1.420 . S
C358 C362 1.423 . S
C358 C370 1.392 . S
C359 C361 1.420 . S
C359 C362 1.351 . S
C359 H382 0.931 . S
C360 C357 1.429 . S
C360 C358 1.420 . S
C360 N368 1.362 . S
C361 C357 1.411 . S
C361 C359 1.420 . S
C361 C366 1.395 1_655 S
C362 C358 1.423 . S
C362 C359 1.351 . S
C362 H374 0.930 . S
C363 C365 1.400 . S
C363 C366 1.386 . S
C363 H375 0.930 . S
N364 C357 1.377 . S
N364 C365 1.321 1_655 S
N364 Eu367 2.609 . S
C365 C363 1.400 . S
C365 N364 1.321 1_455 S
C365 H372 0.930 . S
C366 C361 1.395 1_455 S
C366 C363 1.386 . S
C366 H385 0.930 . S
Eu367 N364 2.609 . S
Eu367 N368 2.657 . S
Eu367 O401 2.380 1_655 S
Eu367 O402 2.432 1_655 S
Eu367 O406 2.558 . S
Eu367 O407 2.612 1_655 S
Eu367 O409 2.339 . S
Eu367 O410 2.563 . S
Eu367 O411 2.419 . S
Eu367 C431 2.848 . S
N368 C360 1.362 . S
N368 Eu367 2.657 . S
N368 C369 1.334 . S
C369 N368 1.334 . S
C369 C371 1.413 . S
C369 H376 0.929 . S
C370 C358 1.392 . S
C370 C371 1.367 . S
C370 H378 0.930 . S
C371 C369 1.413 . S
C371 C370 1.367 . S
C371 H373 0.930 . S
H372 C365 0.930 . S
H373 C371 0.930 . S
H374 C362 0.930 . S
H375 C363 0.930 . S
H376 C369 0.929 . S
H377 C391 0.930 . S
H378 C370 0.930 . S
H379 C397 0.930 1_655 S
H380 C388 0.929 . S
H381 C395 0.958 . S
H382 C359 0.931 . S
H383 C389 0.930 . S
H384 C422 0.930 . S
H385 C366 0.930 . S
H386 C421 0.931 . S
N387 Eu356 2.657 . S
N387 C388 1.334 . S
N387 C392 1.362 . S
C388 H380 0.929 . S
C388 N387 1.334 . S
C388 C391 1.413 . S
C389 H383 0.930 . S
C389 C390 1.392 . S
C389 C391 1.367 . S
C390 C389 1.392 . S
C390 C392 1.420 . S
C390 C422 1.423 . S
C391 H377 0.930 . S
C391 C388 1.413 . S
C391 C389 1.367 . S
C392 N387 1.362 . S
C392 C390 1.420 . S
C392 C396 1.429 . S
H393 C398 0.930 . S
N394 Eu356 2.609 . S
N394 C396 1.377 . S
N394 C397 1.321 . S
C395 H381 0.958 . S
C395 C397 1.394 1_655 S
C395 C398 1.365 1_655 S
C396 C392 1.429 . S
C396 N394 1.377 . S
C396 C399 1.411 . S
C397 H379 0.930 1_455 S
C397 N394 1.321 . S
C397 C395 1.394 1_455 S
C398 H393 0.930 . S
C398 C395 1.365 1_455 S
C398 C399 1.395 . S
C399 C396 1.411 . S
C399 C398 1.395 . S
C399 C421 1.420 . S
O400 Eu356 2.558 . S
O400 C420 1.257 . S
O401 Eu356 2.612 . S
O401 Eu367 2.380 1_455 S
O401 C412 1.276 . S
O402 Eu367 2.432 1_455 S
O402 C419 1.264 . S
O403 Eu356 2.339 . S
O403 C419 1.254 . S
O404 Eu356 2.563 . S
O404 C412 1.235 . S
O405 Eu356 2.419 . S
O405 C420 1.249 . S
O406 Eu367 2.558 . S
O406 C431 1.257 . S
O407 Eu356 2.380 . S
O407 Eu367 2.612 1_455 S
O407 C423 1.276 1_455 S
O408 Eu356 2.432 1_655 S
O408 C430 1.264 . S
O409 Eu367 2.339 . S
O409 C430 1.254 . S
O410 Eu367 2.563 . S
O410 C423 1.235 . S
O411 Eu367 2.419 . S
O411 C431 1.249 . S
C412 O401 1.276 . S
C412 O404 1.235 . S
C413 C415 1.393 . S
C413 C417 1.395 . S
C413 C420 1.492 . S
C414 C415 1.392 . S
C414 C416 1.386 . S
C415 C413 1.393 . S
C415 C414 1.392 . S
C415 H432 0.930 . S
C416 C414 1.386 . S
C416 C418 1.395 . S
C416 H433 0.930 . S
C417 C413 1.395 . S
C417 C418 1.379 . S
C417 H434 0.930 . S
C418 C416 1.395 . S
C418 C417 1.379 . S
C418 H435 0.930 . S
C419 O402 1.264 . S
C419 O403 1.254 . S
C420 Eu356 2.848 . S
C420 O400 1.257 . S
C420 O405 1.249 . S
C420 C413 1.492 . S
C421 H386 0.931 . S
C421 C399 1.420 . S
C421 C422 1.351 . S
C422 H384 0.930 . S
C422 C390 1.423 . S
C422 C421 1.351 . S
C423 O407 1.276 1_655 S
C423 O410 1.235 . S
C424 C425 1.393 . S
C424 C428 1.395 . S
C424 C431 1.492 . S
C425 C424 1.393 . S
C425 C426 1.392 . S
C425 H436 0.930 . S
C426 C425 1.392 . S
C426 C427 1.386 1_556 S
C427 C426 1.386 1_554 S
C427 C429 1.395 . S
C427 H437 0.930 . S
C428 C424 1.395 . S
C428 C429 1.379 1_556 S
C428 H438 0.930 . S
C429 C427 1.395 . S
C429 C428 1.379 1_554 S
C429 H439 0.930 . S
C430 O408 1.264 . S
C430 O409 1.254 . S
C431 Eu367 2.848 . S
C431 O406 1.257 . S
C431 O411 1.249 . S
C431 C424 1.492 . S
H432 C415 0.930 . S
H433 C416 0.930 . S
H434 C417 0.930 . S
H435 C418 0.930 . S
H436 C425 0.930 . S
H437 C427 0.930 . S
H438 C428 0.930 . S
H439 C429 0.930 . S
H440 C458 0.951 . S
H441 C460 0.951 . S
H442 C462 0.950 . S
H443 C463 0.950 . S
H444 C465 0.950 . S
H445 C468 0.950 . S
H446 C469 0.950 . S
H447 C471 0.950 . S
H448 C472 0.950 . S
H449 C473 0.951 . S
H450 C475 0.951 . S
H451 C477 0.950 . S
H452 C478 0.950 . S
H453 C480 0.950 . S
H454 C483 0.950 . S
H455 C484 0.950 . S
H456 C486 0.950 . S
H457 C487 0.950 1_545 S
C458 H440 0.951 . S
C458 C459 1.366 . S
C458 C460 1.388 . S
C459 C458 1.366 . S
C459 C463 1.385 . S
C460 H441 0.951 . S
C460 C458 1.388 . S
C460 C461 1.366 . S
C461 C460 1.366 . S
C461 C462 1.414 . S
C461 C464 1.499 . S
C462 H442 0.950 . S
C462 C461 1.414 . S
C462 C463 1.374 . S
C463 H443 0.950 . S
C463 C459 1.385 . S
C463 C462 1.374 . S
C464 C461 1.499 . S
C464 C465 1.373 . S
C464 C466 1.389 . S
C465 H444 0.950 . S
C465 C464 1.373 . S
C465 C481 1.377 . S
C466 C464 1.389 . S
C466 C467 1.524 . S
C466 C480 1.377 . S
C467 C466 1.524 . S
C467 C468 1.397 . S
C467 C472 1.363 . S
C468 H445 0.950 . S
C468 C467 1.397 . S
C468 C469 1.334 . S
C469 H446 0.950 . S
C469 C468 1.334 . S
C469 C470 1.287 . S
C470 C469 1.287 . S
C470 C471 1.524 . S
C470 H489 0.913 . S
C471 H447 0.950 . S
C471 C470 1.524 . S
C471 C472 1.415 . S
C472 H448 0.950 . S
C472 C467 1.363 . S
C472 C471 1.415 . S
C473 H449 0.951 . S
C473 C474 1.366 . S
C473 C475 1.388 . S
C474 C473 1.366 . S
C474 C478 1.385 . S
C475 H450 0.951 . S
C475 C473 1.388 . S
C475 C476 1.366 . S
C476 C475 1.366 . S
C476 C477 1.414 . S
C476 C479 1.499 . S
C477 H451 0.950 . S
C477 C476 1.414 . S
C477 C478 1.374 . S
C478 H452 0.950 . S
C478 C474 1.385 . S
C478 C477 1.374 . S
C479 C476 1.499 . S
C479 C480 1.373 . S
C479 C481 1.389 . S
C480 H453 0.950 . S
C480 C466 1.377 . S
C480 C479 1.373 . S
C481 C465 1.377 . S
C481 C479 1.389 . S
C481 C482 1.530 1_545 S
C482 C481 1.530 1_565 S
C482 C483 1.393 . S
C482 C487 1.361 . S
C483 H454 0.950 . S
C483 C482 1.393 . S
C483 C484 1.334 . S
C484 H455 0.950 . S
C484 C483 1.334 . S
C484 C485 1.287 . S
C485 C484 1.287 . S
C485 C486 1.524 . S
C485 H488 0.999 . S
C486 H456 0.950 . S
C486 C485 1.524 . S
C486 C487 1.415 . S
C487 H457 0.950 1_565 S
C487 C482 1.361 . S
C487 C486 1.415 . S
H488 C485 0.999 . S
H489 C470 0.913 . S
H490 C508 0.951 . S
H491 C510 0.951 . S
H492 C512 0.950 . S
H493 C513 0.950 . S
H494 C515 0.950 . S
H495 C518 0.950 . S
H496 C519 0.950 . S
H497 C521 0.950 . S
H498 C522 0.950 . S
H499 C523 0.951 . S
H500 C525 0.951 . S
H501 C527 0.950 . S
H502 C528 0.950 . S
H503 C530 0.950 . S
H504 C533 0.950 . S
H505 C534 0.950 . S
H506 C536 0.950 . S
H507 C537 0.950 . S
C508 H490 0.951 . S
C508 C509 1.366 . S
C508 C510 1.388 . S
C509 C508 1.366 . S
C509 C513 1.385 . S
C510 H491 0.951 . S
C510 C508 1.388 . S
C510 C511 1.366 . S
C511 C510 1.366 . S
C511 C512 1.414 . S
C511 C514 1.499 . S
C512 H492 0.950 . S
C512 C511 1.414 . S
C512 C513 1.374 . S
C513 H493 0.950 . S
C513 C509 1.385 . S
C513 C512 1.374 . S
C514 C511 1.499 . S
C514 C515 1.373 . S
C514 C516 1.389 . S
C515 H494 0.950 . S
C515 C514 1.373 . S
C515 C531 1.377 . S
C516 C514 1.389 . S
C516 C517 1.524 . S
C516 C530 1.377 . S
C517 C516 1.524 . S
C517 C518 1.397 . S
C517 C522 1.363 . S
C518 H495 0.950 . S
C518 C517 1.397 . S
C518 C519 1.334 . S
C519 H496 0.950 . S
C519 C518 1.334 . S
C519 C520 1.287 . S
C520 C519 1.287 . S
C520 C521 1.524 . S
C520 H539 0.913 . S
C521 H497 0.950 . S
C521 C520 1.524 . S
C521 C522 1.415 . S
C522 H498 0.950 . S
C522 C517 1.363 . S
C522 C521 1.415 . S
C523 H499 0.951 . S
C523 C524 1.366 . S
C523 C525 1.388 . S
C524 C523 1.366 . S
C524 C528 1.385 . S
C525 H500 0.951 . S
C525 C523 1.388 . S
C525 C526 1.366 . S
C526 C525 1.366 . S
C526 C527 1.414 . S
C526 C529 1.499 . S
C527 H501 0.950 . S
C527 C526 1.414 . S
C527 C528 1.374 . S
C528 H502 0.950 . S
C528 C524 1.385 . S
C528 C527 1.374 . S
C529 C526 1.499 . S
C529 C530 1.373 . S
C529 C531 1.389 . S
C530 H503 0.950 . S
C530 C516 1.377 . S
C530 C529 1.373 . S
C531 C515 1.377 . S
C531 C529 1.389 . S
C531 C532 1.524 . S
C532 C531 1.524 . S
C532 C533 1.397 . S
C532 C537 1.363 . S
C533 H504 0.950 . S
C533 C532 1.397 . S
C533 C534 1.334 . S
C534 H505 0.950 . S
C534 C533 1.334 . S
C534 C535 1.287 . S
C535 C534 1.287 . S
C535 C536 1.524 . S
C535 H538 0.999 . S
C536 H506 0.950 . S
C536 C535 1.524 . S
C536 C537 1.415 . S
C537 H507 0.950 . S
C537 C532 1.363 . S
C537 C536 1.415 . S
H538 C535 0.999 . S
H539 C520 0.913 . S
H540 C558 0.951 . S
H541 C560 0.951 . S
H542 C562 0.950 . S
H543 C563 0.950 . S
H544 C565 0.950 . S
H545 C568 0.950 . S
H546 C569 0.950 . S
H547 C571 0.950 . S
H548 C572 0.950 . S
H549 C573 0.951 . S
H550 C575 0.951 . S
H551 C577 0.950 . S
H552 C578 0.950 . S
H553 C580 0.950 . S
H554 C583 0.950 . S
H555 C584 0.950 . S
H556 C586 0.950 . S
H557 C587 0.950 . S
C558 H540 0.951 . S
C558 C559 1.366 . S
C558 C560 1.388 . S
C559 C558 1.366 . S
C559 C563 1.385 . S
C560 H541 0.951 . S
C560 C558 1.388 . S
C560 C561 1.366 . S
C561 C560 1.366 . S
C561 C562 1.414 . S
C561 C564 1.499 . S
C562 H542 0.950 . S
C562 C561 1.414 . S
C562 C563 1.374 . S
C563 H543 0.950 . S
C563 C559 1.385 . S
C563 C562 1.374 . S
C564 C561 1.499 . S
C564 C565 1.373 . S
C564 C566 1.389 . S
C565 H544 0.950 . S
C565 C564 1.373 . S
C565 C581 1.377 . S
C566 C564 1.389 . S
C566 C567 1.524 . S
C566 C580 1.377 . S
C567 C566 1.524 . S
C567 C568 1.397 . S
C567 C572 1.363 . S
C568 H545 0.950 . S
C568 C567 1.397 . S
C568 C569 1.334 . S
C569 H546 0.950 . S
C569 C568 1.334 . S
C569 C570 1.287 . S
C570 C569 1.287 . S
C570 C571 1.524 . S
C570 H589 0.913 . S
C571 H547 0.950 . S
C571 C570 1.524 . S
C571 C572 1.415 . S
C572 H548 0.950 . S
C572 C567 1.363 . S
C572 C571 1.415 . S
C573 H549 0.951 . S
C573 C574 1.366 . S
C573 C575 1.388 . S
C574 C573 1.366 . S
C574 C578 1.385 . S
C575 H550 0.951 . S
C575 C573 1.388 . S
C575 C576 1.366 . S
C576 C575 1.366 . S
C576 C577 1.414 . S
C576 C579 1.499 . S
C577 H551 0.950 . S
C577 C576 1.414 . S
C577 C578 1.374 . S
C578 H552 0.950 . S
C578 C574 1.385 . S
C578 C577 1.374 . S
C579 C576 1.499 . S
C579 C580 1.373 . S
C579 C581 1.389 . S
C580 H553 0.950 . S
C580 C566 1.377 . S
C580 C579 1.373 . S
C581 C565 1.377 . S
C581 C579 1.389 . S
C581 C582 1.524 . S
C582 C581 1.524 . S
C582 C583 1.397 . S
C582 C587 1.363 . S
C583 H554 0.950 . S
C583 C582 1.397 . S
C583 C584 1.334 . S
C584 H555 0.950 . S
C584 C583 1.334 . S
C584 C585 1.287 . S
C585 C584 1.287 . S
C585 C586 1.524 . S
C585 H588 0.999 . S
C586 H556 0.950 . S
C586 C585 1.524 . S
C586 C587 1.415 . S
C587 H557 0.950 . S
C587 C582 1.363 . S
C587 C586 1.415 . S
H588 C585 0.999 . S
H589 C570 0.913 . S
H590 C608 0.951 . S
H591 C610 0.951 . S
H592 C612 0.950 . S
H593 C613 0.950 . S
H594 C615 0.950 . S
H595 C618 0.950 . S
H596 C619 0.950 . S
H597 C621 0.950 . S
H598 C622 0.950 . S
H599 C623 0.951 . S
H600 C625 0.951 . S
H601 C627 0.950 . S
H602 C628 0.950 1_655 S
H603 C630 0.950 . S
H604 C633 0.950 . S
H605 C634 0.950 . S
H606 C636 0.950 . S
H607 C637 0.950 . S
C608 H590 0.951 . S
C608 C609 1.366 . S
C608 C610 1.388 . S
C609 C608 1.366 . S
C609 C613 1.385 . S
C610 H591 0.951 . S
C610 C608 1.388 . S
C610 C611 1.366 . S
C611 C610 1.366 . S
C611 C612 1.414 . S
C611 C614 1.499 . S
C612 H592 0.950 . S
C612 C611 1.414 . S
C612 C613 1.374 . S
C613 H593 0.950 . S
C613 C609 1.385 . S
C613 C612 1.374 . S
C614 C611 1.499 . S
C614 C615 1.373 . S
C614 C616 1.389 . S
C615 H594 0.950 . S
C615 C614 1.373 . S
C615 C631 1.377 . S
C616 C614 1.389 . S
C616 C617 1.524 . S
C616 C630 1.377 . S
C617 C616 1.524 . S
C617 C618 1.397 . S
C617 C622 1.363 1_455 S
C618 H595 0.950 . S
C618 C617 1.397 . S
C618 C619 1.334 1_455 S
C619 H596 0.950 . S
C619 C618 1.334 1_655 S
C619 C620 1.287 . S
C620 C619 1.287 . S
C620 C621 1.524 . S
C620 H639 0.913 . S
C621 H597 0.950 . S
C621 C620 1.524 . S
C621 C622 1.415 . S
C622 H598 0.950 . S
C622 C617 1.363 1_655 S
C622 C621 1.415 . S
C623 H599 0.951 . S
C623 C624 1.366 . S
C623 C625 1.388 . S
C624 C623 1.366 . S
C624 C628 1.385 . S
C625 H600 0.951 . S
C625 C623 1.388 . S
C625 C626 1.366 . S
C626 C625 1.366 . S
C626 C627 1.414 . S
C626 C629 1.499 . S
C627 H601 0.950 . S
C627 C626 1.414 . S
C627 C628 1.374 . S
C628 H602 0.950 1_455 S
C628 C624 1.385 . S
C628 C627 1.374 . S
C629 C626 1.499 . S
C629 C630 1.373 . S
C629 C631 1.389 . S
C630 H603 0.950 . S
C630 C616 1.377 . S
C630 C629 1.373 . S
C631 C615 1.377 . S
C631 C629 1.389 . S
C631 C632 1.524 . S
C632 C631 1.524 . S
C632 C633 1.397 . S
C632 C637 1.363 . S
C633 H604 0.950 . S
C633 C632 1.397 . S
C633 C634 1.334 . S
C634 H605 0.950 . S
C634 C633 1.334 . S
C634 C635 1.287 . S
C635 C634 1.287 . S
C635 C636 1.524 . S
C635 H638 0.999 . S
C636 H606 0.950 . S
C636 C635 1.524 . S
C636 C637 1.415 . S
C637 H607 0.950 . S
C637 C632 1.363 . S
C637 C636 1.415 . S
H638 C635 0.999 . S
H639 C620 0.913 . S
H640 C658 0.951 . S
H641 C660 0.947 . S
H642 C662 0.950 . S
H643 C663 0.950 . S
H644 C665 0.950 . S
H645 C668 0.950 . S
H646 C669 0.950 . S
H647 C671 0.950 . S
H648 C672 0.950 . S
H649 C673 0.951 . S
H650 C675 0.951 . S
H651 C677 0.950 . S
H652 C678 0.950 . S
H653 C680 0.950 1_545 S
H654 C683 0.950 . S
H655 C684 0.950 . S
H656 C686 0.950 . S
H657 C687 0.950 . S
C658 H640 0.951 . S
C658 C659 1.366 . S
C658 C660 1.388 . S
C659 C658 1.366 . S
C659 C663 1.385 . S
C660 H641 0.947 . S
C660 C658 1.388 . S
C660 C661 1.366 . S
C661 C660 1.366 . S
C661 C662 1.414 . S
C661 C664 1.499 . S
C662 H642 0.950 . S
C662 C661 1.414 . S
C662 C663 1.374 . S
C663 H643 0.950 . S
C663 C659 1.385 . S
C663 C662 1.374 . S
C664 C661 1.499 . S
C664 C665 1.373 . S
C664 C666 1.389 1_554 S
C665 H644 0.950 . S
C665 C664 1.373 . S
C665 C681 1.377 1_554 S
C666 C664 1.389 1_556 S
C666 C667 1.524 . S
C666 C680 1.377 . S
C667 C666 1.524 . S
C667 C668 1.397 . S
C667 C672 1.363 1_565 S
C668 H645 0.950 . S
C668 C667 1.397 . S
C668 C669 1.334 . S
C669 H646 0.950 . S
C669 C668 1.334 . S
C669 C670 1.287 1_565 S
C670 C669 1.287 1_545 S
C670 C671 1.524 . S
C670 H689 0.913 . S
C671 H647 0.950 . S
C671 C670 1.524 . S
C671 C672 1.415 . S
C672 H648 0.950 . S
C672 C667 1.363 1_545 S
C672 C671 1.415 . S
C673 H649 0.951 . S
C673 C674 1.366 . S
C673 C675 1.388 . S
C674 C673 1.366 . S
C674 C678 1.385 1_565 S
C675 H650 0.951 . S
C675 C673 1.388 . S
C675 C676 1.366 . S
C676 C675 1.366 . S
C676 C677 1.414 1_565 S
C676 C679 1.499 . S
C677 H651 0.950 . S
C677 C676 1.414 1_545 S
C677 C678 1.374 . S
C678 H652 0.950 . S
C678 C674 1.385 1_545 S
C678 C677 1.374 . S
C679 C676 1.499 . S
C679 C680 1.373 . S
C679 C681 1.389 . S
C680 H653 0.950 1_565 S
C680 C666 1.377 . S
C680 C679 1.373 . S
C681 C665 1.377 1_556 S
C681 C679 1.389 . S
C681 C682 1.524 1_556 S
C682 C681 1.524 1_554 S
C682 C683 1.397 . S
C682 C687 1.363 . S
C683 H654 0.950 . S
C683 C682 1.397 . S
C683 C684 1.334 . S
C684 H655 0.950 . S
C684 C683 1.334 . S
C684 C685 1.287 . S
C685 C684 1.287 . S
C685 C686 1.524 . S
C685 H688 0.999 . S
C686 H656 0.950 . S
C686 C685 1.524 . S
C686 C687 1.415 . S
C687 H657 0.950 . S
C687 C682 1.363 . S
C687 C686 1.415 . S
H688 C685 0.999 . S
H689 C670 0.913 . S
H690 C708 0.951 . S
H691 C710 0.951 . S
H692 C712 0.950 . S
H693 C713 0.950 . S
H694 C715 0.950 . S
H695 C718 0.950 . S
H696 C719 0.950 . S
H697 C721 0.950 . S
H698 C722 0.950 . S
H699 C723 0.951 . S
H700 C725 0.951 . S
H701 C727 0.950 . S
H702 C728 0.950 . S
H703 C730 0.950 1_554 S
H704 C733 0.950 . S
H705 C734 0.950 . S
H706 C736 0.950 . S
H707 C737 0.950 . S
C708 H690 0.951 . S
C708 C709 1.366 . S
C708 C710 1.388 . S
C709 C708 1.366 . S
C709 C713 1.385 . S
C710 H691 0.951 . S
C710 C708 1.388 . S
C710 C711 1.366 . S
C711 C710 1.366 . S
C711 C712 1.414 . S
C711 C714 1.499 . S
C712 H692 0.950 . S
C712 C711 1.414 . S
C712 C713 1.374 . S
C713 H693 0.950 . S
C713 C709 1.385 . S
C713 C712 1.374 . S
C714 C711 1.499 . S
C714 C715 1.373 1_554 S
C714 C716 1.389 . S
C715 H694 0.950 . S
C715 C714 1.373 1_556 S
C715 C731 1.377 . S
C716 C714 1.389 . S
C716 C717 1.524 . S
C716 C730 1.377 1_554 S
C717 C716 1.524 . S
C717 C718 1.397 . S
C717 C722 1.363 . S
C718 H695 0.950 . S
C718 C717 1.397 . S
C718 C719 1.334 . S
C719 H696 0.950 . S
C719 C718 1.334 . S
C719 C720 1.287 . S
C720 C719 1.287 . S
C720 C721 1.524 . S
C720 H739 0.913 . S
C721 H697 0.950 . S
C721 C720 1.524 . S
C721 C722 1.415 . S
C722 H698 0.950 . S
C722 C717 1.363 . S
C722 C721 1.415 . S
C723 H699 0.951 . S
C723 C724 1.366 . S
C723 C725 1.388 . S
C724 C723 1.366 . S
C724 C728 1.385 . S
C725 H700 0.951 . S
C725 C723 1.388 . S
C725 C726 1.366 . S
C726 C725 1.366 . S
C726 C727 1.414 . S
C726 C729 1.499 . S
C727 H701 0.950 . S
C727 C726 1.414 . S
C727 C728 1.374 . S
C728 H702 0.950 . S
C728 C724 1.385 . S
C728 C727 1.374 . S
C729 C726 1.499 . S
C729 C730 1.373 . S
C729 C731 1.389 . S
C730 H703 0.950 1_556 S
C730 C716 1.377 1_556 S
C730 C729 1.373 . S
C731 C715 1.377 . S
C731 C729 1.389 . S
C731 C732 1.524 . S
C732 C731 1.524 . S
C732 C733 1.397 . S
C732 C737 1.363 . S
C733 H704 0.950 . S
C733 C732 1.397 . S
C733 C734 1.334 . S
C734 H705 0.950 . S
C734 C733 1.334 . S
C734 C735 1.287 . S
C735 C734 1.287 . S
C735 C736 1.524 . S
C735 H738 0.999 . S
C736 H706 0.950 . S
C736 C735 1.524 . S
C736 C737 1.415 . S
C737 H707 0.950 . S
C737 C732 1.363 . S
C737 C736 1.415 . S
H738 C735 0.999 . S
H739 C720 0.913 . S
H740 C758 0.951 . S
H741 C760 0.951 1_556 S
H742 C762 0.950 . S
H743 C763 0.950 . S
H744 C765 0.950 . S
H745 C768 0.950 . S
H746 C769 0.950 . S
H747 C771 0.950 . S
H748 C772 0.950 . S
H749 C773 0.951 . S
H750 C775 0.951 . S
H751 C777 0.950 . S
H752 C778 0.950 . S
H753 C780 0.950 . S
H754 C783 0.950 . S
H755 C784 0.950 . S
H756 C786 0.950 . S
H757 C787 0.950 . S
C758 H740 0.951 . S
C758 C759 1.366 . S
C758 C760 1.388 . S
C759 C758 1.366 . S
C759 C763 1.385 . S
C760 H741 0.951 1_554 S
C760 C758 1.388 . S
C760 C761 1.366 . S
C761 C760 1.366 . S
C761 C762 1.414 . S
C761 C764 1.499 . S
C762 H742 0.950 . S
C762 C761 1.414 . S
C762 C763 1.374 . S
C763 H743 0.950 . S
C763 C759 1.385 . S
C763 C762 1.374 . S
C764 C761 1.499 . S
C764 C765 1.373 . S
C764 C766 1.389 1_554 S
C765 H744 0.950 . S
C765 C764 1.373 . S
C765 C781 1.377 1_554 S
C766 C764 1.389 1_556 S
C766 C767 1.524 . S
C766 C780 1.377 . S
C767 C766 1.524 . S
C767 C768 1.397 1_556 S
C767 C772 1.363 . S
C768 H745 0.950 . S
C768 C767 1.397 1_554 S
C768 C769 1.334 . S
C769 H746 0.950 . S
C769 C768 1.334 . S
C769 C770 1.287 1_554 S
C770 C769 1.287 1_556 S
C770 C771 1.524 . S
C770 H789 0.913 . S
C771 H747 0.950 . S
C771 C770 1.524 . S
C771 C772 1.415 . S
C772 H748 0.950 . S
C772 C767 1.363 . S
C772 C771 1.415 . S
C773 H749 0.951 . S
C773 C774 1.366 . S
C773 C775 1.388 . S
C774 C773 1.366 . S
C774 C778 1.385 . S
C775 H750 0.951 . S
C775 C773 1.388 . S
C775 C776 1.366 . S
C776 C775 1.366 . S
C776 C777 1.414 . S
C776 C779 1.499 . S
C777 H751 0.950 . S
C777 C776 1.414 . S
C777 C778 1.374 . S
C778 H752 0.950 . S
C778 C774 1.385 . S
C778 C777 1.374 . S
C779 C776 1.499 . S
C779 C780 1.373 . S
C779 C781 1.389 . S
C780 H753 0.950 . S
C780 C766 1.377 . S
C780 C779 1.373 . S
C781 C765 1.377 1_556 S
C781 C779 1.389 . S
C781 C782 1.524 . S
C782 C781 1.524 . S
C782 C783 1.397 . S
C782 C787 1.363 1_556 S
C783 H754 0.950 . S
C783 C782 1.397 . S
C783 C784 1.334 . S
C784 H755 0.950 . S
C784 C783 1.334 . S
C784 C785 1.287 . S
C785 C784 1.287 . S
C785 C786 1.524 1_556 S
C785 H788 0.999 . S
C786 H756 0.950 . S
C786 C785 1.524 1_554 S
C786 C787 1.415 . S
C787 H757 0.950 . S
C787 C782 1.363 1_554 S
C787 C786 1.415 . S
H788 C785 0.999 . S
H789 C770 0.913 . S
H790 C808 0.951 . S
H791 C810 0.951 . S
H792 C812 0.950 . S
H793 C813 0.950 . S
H794 C815 0.950 1_554 S
H795 C818 0.950 . S
H796 C819 0.950 . S
H797 C821 0.950 . S
H798 C822 0.950 1_556 S
H799 C823 0.951 . S
H800 C825 0.950 . S
H801 C827 0.950 . S
H802 C828 0.950 . S
H803 C830 0.950 . S
H804 C833 0.950 1_655 S
H805 C834 0.950 . S
H806 C836 0.950 . S
H807 C837 0.950 . S
C808 H790 0.951 . S
C808 C809 1.366 . S
C808 C810 1.388 . S
C809 C808 1.366 . S
C809 C813 1.385 . S
C810 H791 0.951 . S
C810 C808 1.388 . S
C810 C811 1.366 . S
C811 C810 1.366 . S
C811 C812 1.414 . S
C811 C814 1.499 . S
C812 H792 0.950 . S
C812 C811 1.414 . S
C812 C813 1.374 . S
C813 H793 0.950 . S
C813 C809 1.385 . S
C813 C812 1.374 . S
C814 C811 1.499 . S
C814 C815 1.373 1_554 S
C814 C816 1.389 . S
C815 H794 0.950 1_556 S
C815 C814 1.373 1_556 S
C815 C831 1.377 . S
C816 C814 1.389 . S
C816 C817 1.524 . S
C816 C830 1.377 1_554 S
C817 C816 1.524 . S
C817 C818 1.397 . S
C817 C822 1.363 . S
C818 H795 0.950 . S
C818 C817 1.397 . S
C818 C819 1.334 . S
C819 H796 0.950 . S
C819 C818 1.334 . S
C819 C820 1.287 . S
C820 C819 1.287 . S
C820 C821 1.524 . S
C820 H839 0.913 . S
C821 H797 0.950 . S
C821 C820 1.524 . S
C821 C822 1.415 . S
C822 H798 0.950 1_554 S
C822 C817 1.363 . S
C822 C821 1.415 . S
C823 H799 0.951 . S
C823 C824 1.366 1_455 S
C823 C825 1.388 . S
C824 C823 1.366 1_655 S
C824 C828 1.385 . S
C825 H800 0.950 . S
C825 C823 1.388 . S
C825 C826 1.366 1_455 S
C826 C825 1.366 1_655 S
C826 C827 1.414 . S
C826 C829 1.499 . S
C827 H801 0.950 . S
C827 C826 1.414 . S
C827 C828 1.374 . S
C828 H802 0.950 . S
C828 C824 1.385 . S
C828 C827 1.374 . S
C829 C826 1.499 . S
C829 C830 1.373 . S
C829 C831 1.389 . S
C830 H803 0.950 . S
C830 C816 1.377 1_556 S
C830 C829 1.373 . S
C831 C815 1.377 . S
C831 C829 1.389 . S
C831 C832 1.524 1_655 S
C832 C831 1.524 1_455 S
C832 C833 1.397 . S
C832 C837 1.363 . S
C833 H804 0.950 1_455 S
C833 C832 1.397 . S
C833 C834 1.334 . S
C834 H805 0.950 . S
C834 C833 1.334 . S
C834 C835 1.287 . S
C835 C834 1.287 . S
C835 C836 1.524 . S
C835 H838 0.999 . S
C836 H806 0.950 . S
C836 C835 1.524 . S
C836 C837 1.415 . S
C837 H807 0.950 . S
C837 C832 1.363 . S
C837 C836 1.415 . S
H838 C835 0.999 . S
H839 C820 0.913 . S
H840 C858 0.951 1_556 S
H841 C860 0.951 . S
H842 C862 0.950 . S
H843 C863 0.950 . S
H844 C865 0.950 . S
H845 C868 0.950 . S
H846 C869 0.950 1_556 S
H847 C871 0.950 . S
H848 C872 0.950 . S
H849 C873 0.951 . S
H850 C875 0.951 . S
H851 C877 0.950 . S
H852 C878 0.950 . S
H853 C880 0.950 . S
H854 C883 0.950 . S
H855 C884 0.950 . S
H856 C886 0.950 . S
H857 C887 0.950 . S
C858 H840 0.951 1_554 S
C858 C859 1.366 . S
C858 C860 1.388 . S
C859 C858 1.366 . S
C859 C863 1.385 . S
C860 H841 0.951 . S
C860 C858 1.388 . S
C860 C861 1.366 . S
C861 C860 1.366 . S
C861 C862 1.414 . S
C861 C864 1.499 . S
C862 H842 0.950 . S
C862 C861 1.414 . S
C862 C863 1.374 . S
C863 H843 0.950 . S
C863 C859 1.385 . S
C863 C862 1.374 . S
C864 C861 1.499 . S
C864 C865 1.373 . S
C864 C866 1.389 . S
C865 H844 0.950 . S
C865 C864 1.373 . S
C865 C881 1.377 . S
C866 C864 1.389 . S
C866 C867 1.524 . S
C866 C880 1.377 . S
C867 C866 1.524 . S
C867 C868 1.397 . S
C867 C872 1.363 . S
C868 H845 0.950 . S
C868 C867 1.397 . S
C868 C869 1.334 1_455 S
C869 H846 0.950 1_554 S
C869 C868 1.334 1_655 S
C869 C870 1.287 1_554 S
C870 C869 1.287 1_556 S
C870 C871 1.524 . S
C870 H889 0.913 . S
C871 H847 0.950 . S
C871 C870 1.524 . S
C871 C872 1.415 1_656 S
C872 H848 0.950 . S
C872 C867 1.363 . S
C872 C871 1.415 1_454 S
C873 H849 0.951 . S
C873 C874 1.366 . S
C873 C875 1.388 . S
C874 C873 1.366 . S
C874 C878 1.385 . S
C875 H850 0.951 . S
C875 C873 1.388 . S
C875 C876 1.366 . S
C876 C875 1.366 . S
C876 C877 1.414 . S
C876 C879 1.499 . S
C877 H851 0.950 . S
C877 C876 1.414 . S
C877 C878 1.374 . S
C878 H852 0.950 . S
C878 C874 1.385 . S
C878 C877 1.374 . S
C879 C876 1.499 . S
C879 C880 1.373 . S
C879 C881 1.389 . S
C880 H853 0.950 . S
C880 C866 1.377 . S
C880 C879 1.373 . S
C881 C865 1.377 . S
C881 C879 1.389 . S
C881 C882 1.524 . S
C882 C881 1.524 . S
C882 C883 1.397 . S
C882 C887 1.363 . S
C883 H854 0.950 . S
C883 C882 1.397 . S
C883 C884 1.334 . S
C884 H855 0.950 . S
C884 C883 1.334 . S
C884 C885 1.287 . S
C885 C884 1.287 . S
C885 C886 1.524 . S
C885 H888 0.999 . S
C886 H856 0.950 . S
C886 C885 1.524 . S
C886 C887 1.415 . S
C887 H857 0.950 . S
C887 C882 1.363 . S
C887 C886 1.415 . S
H888 C885 0.999 . S
H889 C870 0.913 . S
H890 C908 0.951 . S
H891 C910 0.951 . S
H892 C912 0.950 . S
H893 C913 0.950 1_556 S
H894 C915 0.950 . S
H895 C918 0.950 . S
H896 C919 0.950 1_556 S
H897 C921 0.950 . S
H898 C922 0.950 . S
H899 C923 0.951 . S
H900 C925 0.949 1_565 S
H901 C927 0.950 . S
H902 C928 0.950 . S
H903 C930 0.950 . S
H904 C933 0.950 1_545 S
H905 C934 0.950 . S
H906 C936 0.950 . S
H907 C937 0.950 . S
C908 H890 0.951 . S
C908 C909 1.366 . S
C908 C910 1.388 . S
C909 C908 1.366 . S
C909 C913 1.385 . S
C910 H891 0.951 . S
C910 C908 1.388 . S
C910 C911 1.366 . S
C911 C910 1.366 . S
C911 C912 1.414 . S
C911 C914 1.499 . S
C912 H892 0.950 . S
C912 C911 1.414 . S
C912 C913 1.374 . S
C913 H893 0.950 1_554 S
C913 C909 1.385 . S
C913 C912 1.374 . S
C914 C911 1.499 . S
C914 C915 1.373 . S
C914 C916 1.389 . S
C915 H894 0.950 . S
C915 C914 1.373 . S
C915 C931 1.377 . S
C916 C914 1.389 . S
C916 C917 1.524 . S
C916 C930 1.377 . S
C917 C916 1.524 . S
C917 C918 1.397 . S
C917 C922 1.363 . S
C918 H895 0.950 . S
C918 C917 1.397 . S
C918 C919 1.334 . S
C919 H896 0.950 1_554 S
C919 C918 1.334 . S
C919 C920 1.287 . S
C920 C919 1.287 . S
C920 C921 1.524 . S
C920 H939 0.913 . S
C921 H897 0.950 . S
C921 C920 1.524 . S
C921 C922 1.415 . S
C922 H898 0.950 . S
C922 C917 1.363 . S
C922 C921 1.415 . S
C923 H899 0.951 . S
C923 C924 1.366 1_565 S
C923 C925 1.387 1_565 S
C924 C923 1.366 1_545 S
C924 C928 1.385 . S
C925 H900 0.949 1_545 S
C925 C923 1.387 1_545 S
C925 C926 1.368 . S
C926 C925 1.368 . S
C926 C927 1.414 . S
C926 C929 1.499 . S
C927 H901 0.950 . S
C927 C926 1.414 . S
C927 C928 1.374 . S
C928 H902 0.950 . S
C928 C924 1.385 . S
C928 C927 1.374 . S
C929 C926 1.499 . S
C929 C930 1.373 . S
C929 C931 1.389 . S
C930 H903 0.950 . S
C930 C916 1.377 . S
C930 C929 1.373 . S
C931 C915 1.377 . S
C931 C929 1.389 . S
C931 C932 1.524 1_545 S
C932 C931 1.524 1_565 S
C932 C933 1.397 . S
C932 C937 1.363 . S
C933 H904 0.950 1_565 S
C933 C932 1.397 . S
C933 C934 1.334 . S
C934 H905 0.950 . S
C934 C933 1.334 . S
C934 C935 1.287 . S
C935 C934 1.287 . S
C935 C936 1.524 . S
C935 H938 0.999 . S
C936 H906 0.950 . S
C936 C935 1.524 . S
C936 C937 1.415 . S
C937 H907 0.950 . S
C937 C932 1.363 . S
C937 C936 1.415 . S
H938 C935 0.999 . S
H939 C920 0.913 . S
H940 C958 0.951 . S
H941 C960 0.951 . S
H942 C962 0.950 . S
H943 C963 0.950 . S
H944 C965 0.950 . S
H945 C968 0.950 . S
H946 C969 0.950 . S
H947 C971 0.951 . S
H948 C972 0.950 . S
H949 C973 0.951 . S
H950 C975 0.951 . S
H951 C977 0.950 . S
H952 C978 0.950 . S
H953 C980 0.950 . S
H954 C983 0.950 . S
H955 C984 0.950 . S
H956 C986 0.950 . S
H957 C987 0.950 . S
C958 H940 0.951 . S
C958 C959 1.366 . S
C958 C960 1.388 . S
C959 C958 1.366 . S
C959 C963 1.385 . S
C960 H941 0.951 . S
C960 C958 1.388 . S
C960 C961 1.366 . S
C961 C960 1.366 . S
C961 C962 1.414 . S
C961 C964 1.499 . S
C962 H942 0.950 . S
C962 C961 1.414 . S
C962 C963 1.374 . S
C963 H943 0.950 . S
C963 C959 1.385 . S
C963 C962 1.374 . S
C964 C961 1.499 . S
C964 C965 1.373 . S
C964 C966 1.389 . S
C965 H944 0.950 . S
C965 C964 1.373 . S
C965 C981 1.377 . S
C966 C964 1.389 . S
C966 C967 1.524 . S
C966 C980 1.377 . S
C967 C966 1.524 . S
C967 C968 1.399 . S
C967 C972 1.363 . S
C968 H945 0.950 . S
C968 C967 1.399 . S
C968 C969 1.332 1_554 S
C969 H946 0.950 . S
C969 C968 1.332 1_556 S
C969 C970 1.287 . S
C970 C969 1.287 . S
C970 C971 1.536 . S
C970 H989 0.913 . S
C971 H947 0.951 . S
C971 C970 1.536 . S
C971 C972 1.402 1_556 S
C972 H948 0.950 . S
C972 C967 1.363 . S
C972 C971 1.402 1_554 S
C973 H949 0.951 . S
C973 C974 1.366 . S
C973 C975 1.388 . S
C974 C973 1.366 . S
C974 C978 1.385 . S
C975 H950 0.951 . S
C975 C973 1.388 . S
C975 C976 1.366 . S
C976 C975 1.366 . S
C976 C977 1.414 . S
C976 C979 1.499 . S
C977 H951 0.950 . S
C977 C976 1.414 . S
C977 C978 1.374 . S
C978 H952 0.950 . S
C978 C974 1.385 . S
C978 C977 1.374 . S
C979 C976 1.499 . S
C979 C980 1.373 . S
C979 C981 1.389 . S
C980 H953 0.950 . S
C980 C966 1.377 . S
C980 C979 1.373 . S
C981 C965 1.377 . S
C981 C979 1.389 . S
C981 C982 1.524 . S
C982 C981 1.524 . S
C982 C983 1.397 . S
C982 C987 1.363 . S
C983 H954 0.950 . S
C983 C982 1.397 . S
C983 C984 1.334 . S
C984 H955 0.950 . S
C984 C983 1.334 . S
C984 C985 1.287 . S
C985 C984 1.287 . S
C985 C986 1.524 . S
C985 H988 0.999 . S
C986 H956 0.950 . S
C986 C985 1.524 . S
C986 C987 1.415 . S
C987 H957 0.950 . S
C987 C982 1.363 . S
C987 C986 1.415 . S
H988 C985 0.999 . S
H989 C970 0.913 . S
H990 C1008 0.951 . S
H991 C1010 0.951 . S
H992 C1012 0.950 . S
H993 C1013 0.950 . S
H994 C1015 0.950 . S
H995 C1018 0.950 1_554 S
H996 C1019 0.950 . S
H997 C1021 0.950 . S
H998 C1022 0.950 . S
H999 C1023 0.951 . S
H1000 C1025 0.951 . S
H1001 C1027 0.950 . S
H1002 C1028 0.950 . S
H1003 C1030 0.950 . S
H1004 C1033 0.950 . S
H1005 C1034 0.950 . S
H1006 C1036 0.950 . S
H1007 C1037 0.950 . S
C1008 H990 0.951 . S
C1008 C1009 1.366 . S
C1008 C1010 1.388 . S
C1009 C1008 1.366 . S
C1009 C1013 1.385 . S
C1010 H991 0.951 . S
C1010 C1008 1.388 . S
C1010 C1011 1.366 . S
C1011 C1010 1.366 . S
C1011 C1012 1.414 . S
C1011 C1014 1.499 . S
C1012 H992 0.950 . S
C1012 C1011 1.414 . S
C1012 C1013 1.374 . S
C1013 H993 0.950 . S
C1013 C1009 1.385 . S
C1013 C1012 1.374 . S
C1014 C1011 1.499 . S
C1014 C1015 1.373 . S
C1014 C1016 1.389 . S
C1015 H994 0.950 . S
C1015 C1014 1.373 . S
C1015 C1031 1.377 . S
C1016 C1014 1.389 . S
C1016 C1017 1.524 . S
C1016 C1030 1.377 . S
C1017 C1016 1.524 . S
C1017 C1018 1.397 1_554 S
C1017 C1022 1.363 . S
C1018 H995 0.950 1_556 S
C1018 C1017 1.397 1_556 S
C1018 C1019 1.334 . S
C1019 H996 0.950 . S
C1019 C1018 1.334 . S
C1019 C1020 1.287 . S
C1020 C1019 1.287 . S
C1020 C1021 1.524 . S
C1020 H1039 0.913 . S
C1021 H997 0.950 . S
C1021 C1020 1.524 . S
C1021 C1022 1.415 1_556 S
C1022 H998 0.950 . S
C1022 C1017 1.363 . S
C1022 C1021 1.415 1_554 S
C1023 H999 0.951 . S
C1023 C1024 1.366 . S
C1023 C1025 1.388 . S
C1024 C1023 1.366 . S
C1024 C1028 1.385 . S
C1025 H1000 0.951 . S
C1025 C1023 1.388 . S
C1025 C1026 1.366 . S
C1026 C1025 1.366 . S
C1026 C1027 1.414 . S
C1026 C1029 1.499 . S
C1027 H1001 0.950 . S
C1027 C1026 1.414 . S
C1027 C1028 1.374 . S
C1028 H1002 0.950 . S
C1028 C1024 1.385 . S
C1028 C1027 1.374 . S
C1029 C1026 1.499 . S
C1029 C1030 1.373 . S
C1029 C1031 1.389 . S
C1030 H1003 0.950 . S
C1030 C1016 1.377 . S
C1030 C1029 1.373 . S
C1031 C1015 1.377 . S
C1031 C1029 1.389 . S
C1031 C1032 1.524 . S
C1032 C1031 1.524 . S
C1032 C1033 1.397 . S
C1032 C1037 1.363 . S
C1033 H1004 0.950 . S
C1033 C1032 1.397 . S
C1033 C1034 1.334 . S
C1034 H1005 0.950 . S
C1034 C1033 1.334 . S
C1034 C1035 1.287 . S
C1035 C1034 1.287 . S
C1035 C1036 1.524 . S
C1035 H1038 0.999 . S
C1036 H1006 0.950 . S
C1036 C1035 1.524 . S
C1036 C1037 1.415 . S
C1037 H1007 0.950 . S
C1037 C1032 1.363 . S
C1037 C1036 1.415 . S
H1038 C1035 0.999 . S
H1039 C1020 0.913 . S
H1040 C1058 0.951 . S
H1041 C1060 0.951 . S
H1042 C1062 0.950 . S
H1043 C1063 0.950 . S
H1044 C1065 0.950 . S
H1045 C1068 0.950 . S
H1046 C1069 0.950 . S
H1047 C1071 0.950 . S
H1048 C1072 0.950 . S
H1049 C1073 0.951 . S
H1050 C1075 0.951 . S
H1051 C1077 0.950 . S
H1052 C1078 0.950 . S
H1053 C1080 0.950 1_455 S
H1054 C1083 0.950 . S
H1055 C1084 0.950 . S
H1056 C1086 0.950 . S
H1057 C1087 0.950 . S
C1058 H1040 0.951 . S
C1058 C1059 1.366 . S
C1058 C1060 1.388 . S
C1059 C1058 1.366 . S
C1059 C1063 1.385 . S
C1060 H1041 0.951 . S
C1060 C1058 1.388 . S
C1060 C1061 1.366 . S
C1061 C1060 1.366 . S
C1061 C1062 1.414 . S
C1061 C1064 1.499 . S
C1062 H1042 0.950 . S
C1062 C1061 1.414 . S
C1062 C1063 1.374 . S
C1063 H1043 0.950 . S
C1063 C1059 1.385 . S
C1063 C1062 1.374 . S
C1064 C1061 1.499 . S
C1064 C1065 1.373 . S
C1064 C1066 1.389 . S
C1065 H1044 0.950 . S
C1065 C1064 1.373 . S
C1065 C1081 1.377 1_554 S
C1066 C1064 1.389 . S
C1066 C1067 1.524 . S
C1066 C1080 1.377 . S
C1067 C1066 1.524 . S
C1067 C1068 1.397 . S
C1067 C1072 1.363 1_655 S
C1068 H1045 0.950 . S
C1068 C1067 1.397 . S
C1068 C1069 1.334 . S
C1069 H1046 0.950 . S
C1069 C1068 1.334 . S
C1069 C1070 1.287 1_655 S
C1070 C1069 1.287 1_455 S
C1070 C1071 1.524 . S
C1070 H1089 0.913 . S
C1071 H1047 0.950 . S
C1071 C1070 1.524 . S
C1071 C1072 1.415 . S
C1072 H1048 0.950 . S
C1072 C1067 1.363 1_455 S
C1072 C1071 1.415 . S
C1073 H1049 0.951 . S
C1073 C1074 1.366 1_655 S
C1073 C1075 1.388 . S
C1074 C1073 1.366 1_455 S
C1074 C1078 1.385 . S
C1075 H1050 0.951 . S
C1075 C1073 1.388 . S
C1075 C1076 1.366 . S
C1076 C1075 1.366 . S
C1076 C1077 1.414 1_655 S
C1076 C1079 1.499 1_556 S
C1077 H1051 0.950 . S
C1077 C1076 1.414 1_455 S
C1077 C1078 1.374 . S
C1078 H1052 0.950 . S
C1078 C1074 1.385 . S
C1078 C1077 1.374 . S
C1079 C1076 1.499 1_554 S
C1079 C1080 1.373 . S
C1079 C1081 1.389 1_554 S
C1080 H1053 0.950 1_655 S
C1080 C1066 1.377 . S
C1080 C1079 1.373 . S
C1081 C1065 1.377 1_556 S
C1081 C1079 1.389 1_556 S
C1081 C1082 1.524 . S
C1082 C1081 1.524 . S
C1082 C1083 1.397 . S
C1082 C1087 1.363 . S
C1083 H1054 0.950 . S
C1083 C1082 1.397 . S
C1083 C1084 1.334 . S
C1084 H1055 0.950 . S
C1084 C1083 1.334 . S
C1084 C1085 1.287 . S
C1085 C1084 1.287 . S
C1085 C1086 1.524 . S
C1085 H1088 0.999 . S
C1086 H1056 0.950 . S
C1086 C1085 1.524 . S
C1086 C1087 1.415 . S
C1087 H1057 0.950 . S
C1087 C1082 1.363 . S
C1087 C1086 1.415 . S
H1088 C1085 0.999 . S
H1089 C1070 0.913 . S
H1090 C1108 0.951 . S
H1091 C1110 0.951 . S
H1092 C1112 0.950 . S
H1093 C1113 0.950 . S
H1094 C1115 0.950 . S
H1095 C1118 0.950 1_554 S
H1096 C1119 0.950 . S
H1097 C1121 0.950 . S
H1098 C1122 0.950 . S
H1099 C1123 0.951 . S
H1100 C1125 0.951 1_554 S
H1101 C1127 0.950 . S
H1102 C1128 0.950 . S
H1103 C1130 0.950 . S
H1104 C1133 0.950 . S
H1105 C1134 0.950 . S
H1106 C1136 0.950 . S
H1107 C1137 0.950 . S
C1108 H1090 0.951 . S
C1108 C1109 1.366 . S
C1108 C1110 1.388 . S
C1109 C1108 1.366 . S
C1109 C1113 1.385 . S
C1110 H1091 0.951 . S
C1110 C1108 1.388 . S
C1110 C1111 1.366 . S
C1111 C1110 1.366 . S
C1111 C1112 1.414 . S
C1111 C1114 1.499 . S
C1112 H1092 0.950 . S
C1112 C1111 1.414 . S
C1112 C1113 1.374 . S
C1113 H1093 0.950 . S
C1113 C1109 1.385 . S
C1113 C1112 1.374 . S
C1114 C1111 1.499 . S
C1114 C1115 1.373 . S
C1114 C1116 1.389 . S
C1115 H1094 0.950 . S
C1115 C1114 1.373 . S
C1115 C1131 1.377 . S
C1116 C1114 1.389 . S
C1116 C1117 1.524 1_554 S
C1116 C1130 1.377 1_554 S
C1117 C1116 1.524 1_556 S
C1117 C1118 1.397 . S
C1117 C1122 1.363 . S
C1118 H1095 0.950 1_556 S
C1118 C1117 1.397 . S
C1118 C1119 1.334 . S
C1119 H1096 0.950 . S
C1119 C1118 1.334 . S
C1119 C1120 1.287 . S
C1120 C1119 1.287 . S
C1120 C1121 1.524 . S
C1120 H1139 0.913 . S
C1121 H1097 0.950 . S
C1121 C1120 1.524 . S
C1121 C1122 1.415 . S
C1122 H1098 0.950 . S
C1122 C1117 1.363 . S
C1122 C1121 1.415 . S
C1123 H1099 0.951 . S
C1123 C1124 1.366 . S
C1123 C1125 1.388 . S
C1124 C1123 1.366 . S
C1124 C1128 1.385 1_545 S
C1125 H1100 0.951 1_556 S
C1125 C1123 1.388 . S
C1125 C1126 1.366 1_545 S
C1126 C1125 1.366 1_565 S
C1126 C1127 1.414 . S
C1126 C1129 1.499 1_556 S
C1127 H1101 0.950 . S
C1127 C1126 1.414 . S
C1127 C1128 1.374 . S
C1128 H1102 0.950 . S
C1128 C1124 1.385 1_565 S
C1128 C1127 1.374 . S
C1129 C1126 1.499 1_554 S
C1129 C1130 1.373 1_554 S
C1129 C1131 1.389 . S
C1130 H1103 0.950 . S
C1130 C1116 1.377 1_556 S
C1130 C1129 1.373 1_556 S
C1131 C1115 1.377 . S
C1131 C1129 1.389 . S
C1131 C1132 1.522 1_565 S
C1132 C1131 1.522 1_545 S
C1132 C1133 1.394 1_545 S
C1132 C1137 1.367 . S
C1133 H1104 0.950 . S
C1133 C1132 1.394 1_565 S
C1133 C1134 1.334 . S
C1134 H1105 0.950 . S
C1134 C1133 1.334 . S
C1134 C1135 1.287 1_565 S
C1135 C1134 1.287 1_545 S
C1135 C1136 1.524 . S
C1135 H1138 0.999 . S
C1136 H1106 0.950 . S
C1136 C1135 1.524 . S
C1136 C1137 1.415 . S
C1137 H1107 0.950 . S
C1137 C1132 1.367 . S
C1137 C1136 1.415 . S
H1138 C1135 0.999 . S
H1139 C1120 0.913 . S
H1140 C1158 0.951 . S
H1141 C1160 0.951 . S
H1142 C1162 0.950 . S
H1143 C1163 0.950 . S
H1144 C1165 0.950 . S
H1145 C1168 0.950 1_554 S
H1146 C1169 0.950 . S
H1147 C1171 0.950 . S
H1148 C1172 0.950 . S
H1149 C1173 0.951 . S
H1150 C1175 0.951 . S
H1151 C1177 0.950 . S
H1152 C1178 0.950 . S
H1153 C1180 0.950 . S
H1154 C1183 0.950 . S
H1155 C1184 0.950 . S
H1156 C1186 0.950 . S
H1157 C1187 0.950 . S
C1158 H1140 0.951 . S
C1158 C1159 1.366 . S
C1158 C1160 1.388 . S
C1159 C1158 1.366 . S
C1159 C1163 1.385 . S
C1160 H1141 0.951 . S
C1160 C1158 1.388 . S
C1160 C1161 1.366 . S
C1161 C1160 1.366 . S
C1161 C1162 1.414 . S
C1161 C1164 1.499 . S
C1162 H1142 0.950 . S
C1162 C1161 1.414 . S
C1162 C1163 1.374 . S
C1163 H1143 0.950 . S
C1163 C1159 1.385 . S
C1163 C1162 1.374 . S
C1164 C1161 1.499 . S
C1164 C1165 1.373 . S
C1164 C1166 1.389 . S
C1165 H1144 0.950 . S
C1165 C1164 1.373 . S
C1165 C1181 1.377 . S
C1166 C1164 1.389 . S
C1166 C1167 1.524 1_554 S
C1166 C1180 1.377 1_554 S
C1167 C1166 1.524 1_556 S
C1167 C1168 1.397 . S
C1167 C1172 1.363 . S
C1168 H1145 0.950 1_556 S
C1168 C1167 1.397 . S
C1168 C1169 1.334 . S
C1169 H1146 0.950 . S
C1169 C1168 1.334 . S
C1169 C1170 1.287 . S
C1170 C1169 1.287 . S
C1170 C1171 1.524 . S
C1170 H1189 0.913 . S
C1171 H1147 0.950 . S
C1171 C1170 1.524 . S
C1171 C1172 1.415 . S
C1172 H1148 0.950 . S
C1172 C1167 1.363 . S
C1172 C1171 1.415 . S
C1173 H1149 0.951 . S
C1173 C1174 1.366 . S
C1173 C1175 1.388 1_556 S
C1174 C1173 1.366 . S
C1174 C1178 1.385 . S
C1175 H1150 0.951 . S
C1175 C1173 1.388 1_554 S
C1175 C1176 1.366 1_554 S
C1176 C1175 1.366 1_556 S
C1176 C1177 1.414 . S
C1176 C1179 1.499 1_556 S
C1177 H1151 0.950 . S
C1177 C1176 1.414 . S
C1177 C1178 1.374 . S
C1178 H1152 0.950 . S
C1178 C1174 1.385 . S
C1178 C1177 1.374 . S
C1179 C1176 1.499 1_554 S
C1179 C1180 1.373 1_554 S
C1179 C1181 1.389 . S
C1180 H1153 0.950 . S
C1180 C1166 1.377 1_556 S
C1180 C1179 1.373 1_556 S
C1181 C1165 1.377 . S
C1181 C1179 1.389 . S
C1181 C1182 1.524 . S
C1182 C1181 1.524 . S
C1182 C1183 1.397 . S
C1182 C1187 1.363 . S
C1183 H1154 0.950 . S
C1183 C1182 1.397 . S
C1183 C1184 1.334 . S
C1184 H1155 0.950 . S
C1184 C1183 1.334 . S
C1184 C1185 1.287 . S
C1185 C1184 1.287 . S
C1185 C1186 1.524 . S
C1185 H1188 0.999 . S
C1186 H1156 0.950 . S
C1186 C1185 1.524 . S
C1186 C1187 1.415 . S
C1187 H1157 0.950 . S
C1187 C1182 1.363 . S
C1187 C1186 1.415 . S
H1188 C1185 0.999 . S
H1189 C1170 0.913 . S
H1190 C1208 0.951 . S
H1191 C1210 0.951 . S
H1192 C1212 0.950 . S
H1193 C1213 0.950 . S
H1194 C1215 0.950 . S
H1195 C1218 0.950 . S
H1196 C1219 0.950 . S
H1197 C1221 0.950 1_556 S
H1198 C1222 0.950 1_556 S
H1199 C1223 0.951 1_554 S
H1200 C1225 0.951 . S
H1201 C1227 0.950 . S
H1202 C1228 0.950 . S
H1203 C1230 0.950 . S
H1204 C1233 0.950 . S
H1205 C1234 0.950 . S
H1206 C1236 0.950 . S
H1207 C1237 0.950 . S
C1208 H1190 0.951 . S
C1208 C1209 1.366 . S
C1208 C1210 1.388 . S
C1209 C1208 1.366 . S
C1209 C1213 1.385 . S
C1210 H1191 0.951 . S
C1210 C1208 1.388 . S
C1210 C1211 1.366 . S
C1211 C1210 1.366 . S
C1211 C1212 1.414 . S
C1211 C1214 1.499 . S
C1212 H1192 0.950 . S
C1212 C1211 1.414 . S
C1212 C1213 1.374 . S
C1213 H1193 0.950 . S
C1213 C1209 1.385 . S
C1213 C1212 1.374 . S
C1214 C1211 1.499 . S
C1214 C1215 1.373 . S
C1214 C1216 1.389 . S
C1215 H1194 0.950 . S
C1215 C1214 1.373 . S
C1215 C1231 1.377 . S
C1216 C1214 1.389 . S
C1216 C1217 1.524 . S
C1216 C1230 1.377 . S
C1217 C1216 1.524 . S
C1217 C1218 1.397 . S
C1217 C1222 1.363 . S
C1218 H1195 0.950 . S
C1218 C1217 1.397 . S
C1218 C1219 1.334 . S
C1219 H1196 0.950 . S
C1219 C1218 1.334 . S
C1219 C1220 1.287 . S
C1220 C1219 1.287 . S
C1220 C1221 1.524 . S
C1220 H1239 0.913 . S
C1221 H1197 0.950 1_554 S
C1221 C1220 1.524 . S
C1221 C1222 1.415 . S
C1222 H1198 0.950 1_554 S
C1222 C1217 1.363 . S
C1222 C1221 1.415 . S
C1223 H1199 0.951 1_556 S
C1223 C1224 1.366 . S
C1223 C1225 1.388 1_556 S
C1224 C1223 1.366 . S
C1224 C1228 1.385 . S
C1225 H1200 0.951 . S
C1225 C1223 1.388 1_554 S
C1225 C1226 1.366 1_554 S
C1226 C1225 1.366 1_556 S
C1226 C1227 1.414 . S
C1226 C1229 1.499 1_556 S
C1227 H1201 0.950 . S
C1227 C1226 1.414 . S
C1227 C1228 1.374 . S
C1228 H1202 0.950 . S
C1228 C1224 1.385 . S
C1228 C1227 1.374 . S
C1229 C1226 1.499 1_554 S
C1229 C1230 1.373 . S
C1229 C1231 1.389 . S
C1230 H1203 0.950 . S
C1230 C1216 1.377 . S
C1230 C1229 1.373 . S
C1231 C1215 1.377 . S
C1231 C1229 1.389 . S
C1231 C1232 1.524 . S
C1232 C1231 1.524 . S
C1232 C1233 1.397 1_554 S
C1232 C1237 1.363 . S
C1233 H1204 0.950 . S
C1233 C1232 1.397 1_556 S
C1233 C1234 1.334 . S
C1234 H1205 0.950 . S
C1234 C1233 1.334 . S
C1234 C1235 1.287 1_556 S
C1235 C1234 1.287 1_554 S
C1235 C1236 1.524 . S
C1235 H1238 0.999 . S
C1236 H1206 0.950 . S
C1236 C1235 1.524 . S
C1236 C1237 1.415 . S
C1237 H1207 0.950 . S
C1237 C1232 1.363 . S
C1237 C1236 1.415 . S
H1238 C1235 0.999 . S
H1239 C1220 0.913 . S
H1240 C1258 0.951 . S
H1241 C1260 0.951 . S
H1242 C1262 0.950 . S
H1243 C1263 0.950 . S
H1244 C1265 0.950 . S
H1245 C1268 0.950 . S
H1246 C1269 0.950 . S
H1247 C1271 0.950 . S
H1248 C1272 0.950 . S
H1249 C1273 0.951 . S
H1250 C1275 0.951 . S
H1251 C1277 0.950 . S
H1252 C1278 0.950 . S
H1253 C1280 0.950 . S
H1254 C1283 0.966 . S
H1255 C1284 0.958 . S
H1256 C1286 0.950 . S
H1257 C1287 0.950 . S
C1258 H1240 0.951 . S
C1258 C1259 1.366 . S
C1258 C1260 1.388 . S
C1259 C1258 1.366 . S
C1259 C1263 1.385 . S
C1260 H1241 0.951 . S
C1260 C1258 1.388 . S
C1260 C1261 1.366 . S
C1261 C1260 1.366 . S
C1261 C1262 1.414 . S
C1261 C1264 1.499 . S
C1262 H1242 0.950 . S
C1262 C1261 1.414 . S
C1262 C1263 1.374 . S
C1263 H1243 0.950 . S
C1263 C1259 1.385 . S
C1263 C1262 1.374 . S
C1264 C1261 1.499 . S
C1264 C1265 1.373 . S
C1264 C1266 1.389 . S
C1265 H1244 0.950 . S
C1265 C1264 1.373 . S
C1265 C1281 1.377 . S
C1266 C1264 1.389 . S
C1266 C1267 1.524 . S
C1266 C1280 1.377 . S
C1267 C1266 1.524 . S
C1267 C1268 1.397 . S
C1267 C1272 1.363 1_556 S
C1268 H1245 0.950 . S
C1268 C1267 1.397 . S
C1268 C1269 1.334 1_556 S
C1269 H1246 0.950 . S
C1269 C1268 1.334 1_554 S
C1269 C1270 1.287 . S
C1270 C1269 1.287 . S
C1270 C1271 1.524 . S
C1270 H1289 0.913 . S
C1271 H1247 0.950 . S
C1271 C1270 1.524 . S
C1271 C1272 1.415 . S
C1272 H1248 0.950 . S
C1272 C1267 1.363 1_554 S
C1272 C1271 1.415 . S
C1273 H1249 0.951 . S
C1273 C1274 1.366 . S
C1273 C1275 1.388 . S
C1274 C1273 1.366 . S
C1274 C1278 1.385 . S
C1275 H1250 0.951 . S
C1275 C1273 1.388 . S
C1275 C1276 1.366 . S
C1276 C1275 1.366 . S
C1276 C1277 1.414 . S
C1276 C1279 1.499 . S
C1277 H1251 0.950 . S
C1277 C1276 1.414 . S
C1277 C1278 1.374 . S
C1278 H1252 0.950 . S
C1278 C1274 1.385 . S
C1278 C1277 1.374 . S
C1279 C1276 1.499 . S
C1279 C1280 1.373 . S
C1279 C1281 1.389 . S
C1280 H1253 0.950 . S
C1280 C1266 1.377 . S
C1280 C1279 1.373 . S
C1281 C1265 1.377 . S
C1281 C1279 1.389 . S
C1281 C1282 1.524 . S
C1282 C1281 1.524 . S
C1282 C1283 1.397 . S
C1282 C1287 1.363 . S
C1283 H1254 0.966 . S
C1283 C1282 1.397 . S
C1283 C1284 1.330 1_455 S
C1284 H1255 0.958 . S
C1284 C1283 1.330 1_655 S
C1284 C1285 1.282 1_655 S
C1285 C1284 1.282 1_455 S
C1285 C1286 1.524 . S
C1285 H1288 0.999 . S
C1286 H1256 0.950 . S
C1286 C1285 1.524 . S
C1286 C1287 1.415 . S
C1287 H1257 0.950 . S
C1287 C1282 1.363 . S
C1287 C1286 1.415 . S
H1288 C1285 0.999 . S
H1289 C1270 0.913 . S
H1290 C1308 0.951 . S
H1291 C1310 0.951 . S
H1292 C1312 0.950 . S
H1293 C1313 0.950 . S
H1294 C1315 0.950 . S
H1295 C1318 0.950 . S
H1296 C1319 0.950 1_554 S
H1297 C1321 0.950 . S
H1298 C1322 0.950 . S
H1299 C1323 0.951 . S
H1300 C1325 0.951 . S
H1301 C1327 0.950 . S
H1302 C1328 0.950 . S
H1303 C1330 0.950 . S
H1304 C1333 0.950 . S
H1305 C1334 0.950 . S
H1306 C1336 0.950 . S
H1307 C1337 0.950 . S
C1308 H1290 0.951 . S
C1308 C1309 1.366 . S
C1308 C1310 1.388 . S
C1309 C1308 1.366 . S
C1309 C1313 1.385 . S
C1310 H1291 0.951 . S
C1310 C1308 1.388 . S
C1310 C1311 1.366 . S
C1311 C1310 1.366 . S
C1311 C1312 1.414 . S
C1311 C1314 1.499 . S
C1312 H1292 0.950 . S
C1312 C1311 1.414 . S
C1312 C1313 1.374 . S
C1313 H1293 0.950 . S
C1313 C1309 1.385 . S
C1313 C1312 1.374 . S
C1314 C1311 1.499 . S
C1314 C1315 1.373 . S
C1314 C1316 1.389 . S
C1315 H1294 0.950 . S
C1315 C1314 1.373 . S
C1315 C1331 1.377 . S
C1316 C1314 1.389 . S
C1316 C1317 1.524 . S
C1316 C1330 1.377 . S
C1317 C1316 1.524 . S
C1317 C1318 1.397 . S
C1317 C1322 1.363 1_545 S
C1318 H1295 0.950 . S
C1318 C1317 1.397 . S
C1318 C1319 1.334 1_545 S
C1319 H1296 0.950 1_556 S
C1319 C1318 1.334 1_565 S
C1319 C1320 1.287 . S
C1320 C1319 1.287 . S
C1320 C1321 1.524 . S
C1320 H1339 0.913 . S
C1321 H1297 0.950 . S
C1321 C1320 1.524 . S
C1321 C1322 1.415 . S
C1322 H1298 0.950 . S
C1322 C1317 1.363 1_565 S
C1322 C1321 1.415 . S
C1323 H1299 0.951 . S
C1323 C1324 1.366 . S
C1323 C1325 1.388 . S
C1324 C1323 1.366 . S
C1324 C1328 1.385 . S
C1325 H1300 0.951 . S
C1325 C1323 1.388 . S
C1325 C1326 1.366 . S
C1326 C1325 1.366 . S
C1326 C1327 1.414 . S
C1326 C1329 1.499 . S
C1327 H1301 0.950 . S
C1327 C1326 1.414 . S
C1327 C1328 1.374 . S
C1328 H1302 0.950 . S
C1328 C1324 1.385 . S
C1328 C1327 1.374 . S
C1329 C1326 1.499 . S
C1329 C1330 1.373 . S
C1329 C1331 1.389 . S
C1330 H1303 0.950 . S
C1330 C1316 1.377 . S
C1330 C1329 1.373 . S
C1331 C1315 1.377 . S
C1331 C1329 1.389 . S
C1331 C1332 1.524 . S
C1332 C1331 1.524 . S
C1332 C1333 1.397 . S
C1332 C1337 1.363 . S
C1333 H1304 0.950 . S
C1333 C1332 1.397 . S
C1333 C1334 1.334 . S
C1334 H1305 0.950 . S
C1334 C1333 1.334 . S
C1334 C1335 1.287 . S
C1335 C1334 1.287 . S
C1335 C1336 1.524 . S
C1335 H1338 0.999 . S
C1336 H1306 0.950 . S
C1336 C1335 1.524 . S
C1336 C1337 1.415 . S
C1337 H1307 0.950 . S
C1337 C1332 1.363 . S
C1337 C1336 1.415 . S
H1338 C1335 0.999 . S
H1339 C1320 0.913 . S
H1340 C1358 0.951 1_554 S
H1341 C1360 0.951 . S
H1342 C1362 0.950 . S
H1343 C1363 0.950 . S
H1344 C1365 0.950 . S
H1345 C1368 0.950 . S
H1346 C1369 0.950 . S
H1347 C1371 0.954 . S
H1348 C1372 0.950 . S
H1349 C1373 0.951 . S
H1350 C1375 0.951 . S
H1351 C1377 0.950 . S
H1352 C1378 0.950 . S
H1353 C1380 0.950 . S
H1354 C1383 0.950 . S
H1355 C1384 0.950 . S
H1356 C1386 0.950 . S
H1357 C1387 0.950 . S
C1358 H1340 0.951 1_556 S
C1358 C1359 1.366 . S
C1358 C1360 1.388 . S
C1359 C1358 1.366 . S
C1359 C1363 1.385 . S
C1360 H1341 0.951 . S
C1360 C1358 1.388 . S
C1360 C1361 1.366 . S
C1361 C1360 1.366 . S
C1361 C1362 1.414 . S
C1361 C1364 1.499 . S
C1362 H1342 0.950 . S
C1362 C1361 1.414 . S
C1362 C1363 1.374 . S
C1363 H1343 0.950 . S
C1363 C1359 1.385 . S
C1363 C1362 1.374 . S
C1364 C1361 1.499 . S
C1364 C1365 1.373 . S
C1364 C1366 1.389 . S
C1365 H1344 0.950 . S
C1365 C1364 1.373 . S
C1365 C1381 1.377 . S
C1366 C1364 1.389 . S
C1366 C1367 1.524 . S
C1366 C1380 1.377 . S
C1367 C1366 1.524 . S
C1367 C1368 1.397 . S
C1367 C1372 1.363 . S
C1368 H1345 0.950 . S
C1368 C1367 1.397 . S
C1368 C1369 1.334 . S
C1369 H1346 0.950 . S
C1369 C1368 1.334 . S
C1369 C1370 1.287 . S
C1370 C1369 1.287 . S
C1370 C1371 1.524 . S
C1370 H1389 0.913 . S
C1371 H1347 0.954 . S
C1371 C1370 1.524 . S
C1371 C1372 1.415 . S
C1372 H1348 0.950 . S
C1372 C1367 1.363 . S
C1372 C1371 1.415 . S
C1373 H1349 0.951 . S
C1373 C1374 1.366 . S
C1373 C1375 1.388 . S
C1374 C1373 1.366 . S
C1374 C1378 1.385 . S
C1375 H1350 0.951 . S
C1375 C1373 1.388 . S
C1375 C1376 1.366 . S
C1376 C1375 1.366 . S
C1376 C1377 1.414 . S
C1376 C1379 1.499 . S
C1377 H1351 0.950 . S
C1377 C1376 1.414 . S
C1377 C1378 1.374 . S
C1378 H1352 0.950 . S
C1378 C1374 1.385 . S
C1378 C1377 1.374 . S
C1379 C1376 1.499 . S
C1379 C1380 1.373 . S
C1379 C1381 1.389 . S
C1380 H1353 0.950 . S
C1380 C1366 1.377 . S
C1380 C1379 1.373 . S
C1381 C1365 1.377 . S
C1381 C1379 1.389 . S
C1381 C1382 1.524 . S
C1382 C1381 1.524 . S
C1382 C1383 1.397 . S
C1382 C1387 1.363 . S
C1383 H1354 0.950 . S
C1383 C1382 1.397 . S
C1383 C1384 1.334 . S
C1384 H1355 0.950 . S
C1384 C1383 1.334 . S
C1384 C1385 1.287 . S
C1385 C1384 1.287 . S
C1385 C1386 1.524 . S
C1385 H1388 0.999 . S
C1386 H1356 0.950 . S
C1386 C1385 1.524 . S
C1386 C1387 1.415 . S
C1387 H1357 0.950 . S
C1387 C1382 1.363 . S
C1387 C1386 1.415 . S
H1388 C1385 0.999 . S
H1389 C1370 0.913 . S
H1390 C1408 0.951 . S
H1391 C1410 0.951 . S
H1392 C1412 0.950 . S
H1393 C1413 0.950 . S
H1394 C1415 0.950 . S
H1395 C1418 0.950 . S
H1396 C1419 0.950 . S
H1397 C1421 0.950 . S
H1398 C1422 0.950 . S
H1399 C1423 0.951 . S
H1400 C1425 0.951 . S
H1401 C1427 0.950 . S
H1402 C1428 0.950 . S
H1403 C1430 0.950 . S
H1404 C1433 0.950 . S
H1405 C1434 0.950 . S
H1406 C1436 0.950 . S
H1407 C1437 0.950 . S
C1408 H1390 0.951 . S
C1408 C1409 1.366 . S
C1408 C1410 1.388 . S
C1409 C1408 1.366 . S
C1409 C1413 1.385 . S
C1410 H1391 0.951 . S
C1410 C1408 1.388 . S
C1410 C1411 1.366 . S
C1411 C1410 1.366 . S
C1411 C1412 1.414 . S
C1411 C1414 1.499 . S
C1412 H1392 0.950 . S
C1412 C1411 1.414 . S
C1412 C1413 1.374 . S
C1413 H1393 0.950 . S
C1413 C1409 1.385 . S
C1413 C1412 1.374 . S
C1414 C1411 1.499 . S
C1414 C1415 1.373 . S
C1414 C1416 1.389 . S
C1415 H1394 0.950 . S
C1415 C1414 1.373 . S
C1415 C1431 1.377 . S
C1416 C1414 1.389 . S
C1416 C1417 1.524 . S
C1416 C1430 1.377 . S
C1417 C1416 1.524 . S
C1417 C1418 1.397 . S
C1417 C1422 1.363 . S
C1418 H1395 0.950 . S
C1418 C1417 1.397 . S
C1418 C1419 1.334 . S
C1419 H1396 0.950 . S
C1419 C1418 1.334 . S
C1419 C1420 1.287 . S
C1420 C1419 1.287 . S
C1420 C1421 1.524 . S
C1420 H1439 0.913 . S
C1421 H1397 0.950 . S
C1421 C1420 1.524 . S
C1421 C1422 1.415 . S
C1422 H1398 0.950 . S
C1422 C1417 1.363 . S
C1422 C1421 1.415 . S
C1423 H1399 0.951 . S
C1423 C1424 1.366 . S
C1423 C1425 1.388 . S
C1424 C1423 1.366 . S
C1424 C1428 1.385 . S
C1425 H1400 0.951 . S
C1425 C1423 1.388 . S
C1425 C1426 1.366 . S
C1426 C1425 1.366 . S
C1426 C1427 1.414 . S
C1426 C1429 1.499 . S
C1427 H1401 0.950 . S
C1427 C1426 1.414 . S
C1427 C1428 1.374 . S
C1428 H1402 0.950 . S
C1428 C1424 1.385 . S
C1428 C1427 1.374 . S
C1429 C1426 1.499 . S
C1429 C1430 1.373 . S
C1429 C1431 1.389 . S
C1430 H1403 0.950 . S
C1430 C1416 1.377 . S
C1430 C1429 1.373 . S
C1431 C1415 1.377 . S
C1431 C1429 1.389 . S
C1431 C1432 1.524 . S
C1432 C1431 1.524 . S
C1432 C1433 1.397 . S
C1432 C1437 1.363 . S
C1433 H1404 0.950 . S
C1433 C1432 1.397 . S
C1433 C1434 1.334 . S
C1434 H1405 0.950 . S
C1434 C1433 1.334 . S
C1434 C1435 1.287 . S
C1435 C1434 1.287 . S
C1435 C1436 1.524 . S
C1435 H1438 0.999 . S
C1436 H1406 0.950 . S
C1436 C1435 1.524 . S
C1436 C1437 1.415 . S
C1437 H1407 0.950 . S
C1437 C1432 1.363 . S
C1437 C1436 1.415 . S
H1438 C1435 0.999 . S
H1439 C1420 0.913 . S
H1440 C1458 0.951 . S
H1441 C1460 0.951 . S
H1442 C1462 0.950 . S
H1443 C1463 0.950 . S
H1444 C1465 0.950 . S
H1445 C1468 0.950 . S
H1446 C1469 0.950 . S
H1447 C1471 0.950 . S
H1448 C1472 0.950 . S
H1449 C1473 0.951 . S
H1450 C1475 0.951 1_455 S
H1451 C1477 0.950 . S
H1452 C1478 0.950 . S
H1453 C1480 0.950 . S
H1454 C1483 0.950 . S
H1455 C1484 0.950 . S
H1456 C1486 0.950 . S
H1457 C1487 0.950 . S
C1458 H1440 0.951 . S
C1458 C1459 1.366 . S
C1458 C1460 1.388 . S
C1459 C1458 1.366 . S
C1459 C1463 1.385 . S
C1460 H1441 0.951 . S
C1460 C1458 1.388 . S
C1460 C1461 1.366 . S
C1461 C1460 1.366 . S
C1461 C1462 1.414 . S
C1461 C1464 1.499 . S
C1462 H1442 0.950 . S
C1462 C1461 1.414 . S
C1462 C1463 1.374 . S
C1463 H1443 0.950 . S
C1463 C1459 1.385 . S
C1463 C1462 1.374 . S
C1464 C1461 1.499 . S
C1464 C1465 1.373 . S
C1464 C1466 1.389 . S
C1465 H1444 0.950 . S
C1465 C1464 1.373 . S
C1465 C1481 1.377 . S
C1466 C1464 1.389 . S
C1466 C1467 1.524 . S
C1466 C1480 1.377 . S
C1467 C1466 1.524 . S
C1467 C1468 1.397 . S
C1467 C1472 1.363 . S
C1468 H1445 0.950 . S
C1468 C1467 1.397 . S
C1468 C1469 1.334 . S
C1469 H1446 0.950 . S
C1469 C1468 1.334 . S
C1469 C1470 1.287 . S
C1470 C1469 1.287 . S
C1470 C1471 1.524 . S
C1470 H1489 0.913 . S
C1471 H1447 0.950 . S
C1471 C1470 1.524 . S
C1471 C1472 1.415 . S
C1472 H1448 0.950 . S
C1472 C1467 1.363 . S
C1472 C1471 1.415 . S
C1473 H1449 0.951 . S
C1473 C1474 1.366 1_455 S
C1473 C1475 1.388 1_455 S
C1474 C1473 1.366 1_655 S
C1474 C1478 1.385 . S
C1475 H1450 0.951 1_655 S
C1475 C1473 1.388 1_655 S
C1475 C1476 1.366 . S
C1476 C1475 1.366 . S
C1476 C1477 1.414 . S
C1476 C1479 1.499 . S
C1477 H1451 0.950 . S
C1477 C1476 1.414 . S
C1477 C1478 1.374 . S
C1478 H1452 0.950 . S
C1478 C1474 1.385 . S
C1478 C1477 1.374 . S
C1479 C1476 1.499 . S
C1479 C1480 1.373 . S
C1479 C1481 1.389 . S
C1480 H1453 0.950 . S
C1480 C1466 1.377 . S
C1480 C1479 1.373 . S
C1481 C1465 1.377 . S
C1481 C1479 1.389 . S
C1481 C1482 1.524 1_655 S
C1482 C1481 1.524 1_455 S
C1482 C1483 1.397 1_455 S
C1482 C1487 1.363 . S
C1483 H1454 0.950 . S
C1483 C1482 1.397 1_655 S
C1483 C1484 1.334 1_655 S
C1484 H1455 0.950 . S
C1484 C1483 1.334 1_455 S
C1484 C1485 1.287 . S
C1485 C1484 1.287 . S
C1485 C1486 1.524 . S
C1485 H1488 0.999 . S
C1486 H1456 0.950 . S
C1486 C1485 1.524 . S
C1486 C1487 1.415 . S
C1487 H1457 0.950 . S
C1487 C1482 1.363 . S
C1487 C1486 1.415 . S
H1488 C1485 0.999 . S
H1489 C1470 0.913 . S
H1490 C1508 0.951 . S
H1491 C1510 0.951 . S
H1492 C1512 0.950 . S
H1493 C1513 0.950 . S
H1494 C1515 0.950 . S
H1495 C1518 0.950 . S
H1496 C1519 0.950 . S
H1497 C1521 0.945 1_565 S
H1498 C1522 0.950 . S
H1499 C1523 0.952 1_545 S
H1500 C1525 0.951 . S
H1501 C1527 0.950 . S
H1502 C1528 0.950 . S
H1503 C1530 0.950 . S
H1504 C1533 0.950 . S
H1505 C1534 0.950 . S
H1506 C1536 0.950 . S
H1507 C1537 0.950 . S
C1508 H1490 0.951 . S
C1508 C1509 1.366 . S
C1508 C1510 1.388 . S
C1509 C1508 1.366 . S
C1509 C1513 1.385 . S
C1510 H1491 0.951 . S
C1510 C1508 1.388 . S
C1510 C1511 1.366 . S
C1511 C1510 1.366 . S
C1511 C1512 1.414 . S
C1511 C1514 1.499 . S
C1512 H1492 0.950 . S
C1512 C1511 1.414 . S
C1512 C1513 1.374 . S
C1513 H1493 0.950 . S
C1513 C1509 1.385 . S
C1513 C1512 1.374 . S
C1514 C1511 1.499 . S
C1514 C1515 1.373 . S
C1514 C1516 1.389 . S
C1515 H1494 0.950 . S
C1515 C1514 1.373 . S
C1515 C1531 1.377 . S
C1516 C1514 1.389 . S
C1516 C1517 1.524 . S
C1516 C1530 1.377 . S
C1517 C1516 1.524 . S
C1517 C1518 1.397 1_565 S
C1517 C1522 1.363 . S
C1518 H1495 0.950 . S
C1518 C1517 1.397 1_545 S
C1518 C1519 1.334 . S
C1519 H1496 0.950 . S
C1519 C1518 1.334 . S
C1519 C1520 1.287 . S
C1520 C1519 1.287 . S
C1520 C1521 1.524 . S
C1520 H1539 0.913 . S
C1521 H1497 0.945 1_545 S
C1521 C1520 1.524 . S
C1521 C1522 1.415 1_545 S
C1522 H1498 0.950 . S
C1522 C1517 1.363 . S
C1522 C1521 1.415 1_565 S
C1523 H1499 0.952 1_565 S
C1523 C1524 1.366 . S
C1523 C1525 1.388 . S
C1524 C1523 1.366 . S
C1524 C1528 1.385 . S
C1525 H1500 0.951 . S
C1525 C1523 1.388 . S
C1525 C1526 1.366 . S
C1526 C1525 1.366 . S
C1526 C1527 1.414 . S
C1526 C1529 1.499 . S
C1527 H1501 0.950 . S
C1527 C1526 1.414 . S
C1527 C1528 1.374 . S
C1528 H1502 0.950 . S
C1528 C1524 1.385 . S
C1528 C1527 1.374 . S
C1529 C1526 1.499 . S
C1529 C1530 1.373 . S
C1529 C1531 1.389 . S
C1530 H1503 0.950 . S
C1530 C1516 1.377 . S
C1530 C1529 1.373 . S
C1531 C1515 1.377 . S
C1531 C1529 1.389 . S
C1531 C1532 1.524 . S
C1532 C1531 1.524 . S
C1532 C1533 1.397 . S
C1532 C1537 1.363 . S
C1533 H1504 0.950 . S
C1533 C1532 1.397 . S
C1533 C1534 1.334 . S
C1534 H1505 0.950 . S
C1534 C1533 1.334 . S
C1534 C1535 1.287 . S
C1535 C1534 1.287 . S
C1535 C1536 1.524 . S
C1535 H1538 0.999 . S
C1536 H1506 0.950 . S
C1536 C1535 1.524 . S
C1536 C1537 1.415 . S
C1537 H1507 0.950 . S
C1537 C1532 1.363 . S
C1537 C1536 1.415 . S
H1538 C1535 0.999 . S
H1539 C1520 0.913 . S
H1540 C1558 0.951 . S
H1541 C1560 0.951 . S
H1542 C1562 0.950 . S
H1543 C1563 0.950 . S
H1544 C1565 0.950 . S
H1545 C1568 0.950 . S
H1546 C1569 0.950 . S
H1547 C1571 0.950 . S
H1548 C1572 0.950 . S
H1549 C1573 0.951 . S
H1550 C1575 0.951 . S
H1551 C1577 0.950 . S
H1552 C1578 0.950 . S
H1553 C1580 0.950 . S
H1554 C1583 0.950 . S
H1555 C1584 0.950 . S
H1556 C1586 0.950 . S
H1557 C1587 0.950 . S
C1558 H1540 0.951 . S
C1558 C1559 1.366 . S
C1558 C1560 1.388 . S
C1559 C1558 1.366 . S
C1559 C1563 1.385 . S
C1560 H1541 0.951 . S
C1560 C1558 1.388 . S
C1560 C1561 1.366 . S
C1561 C1560 1.366 . S
C1561 C1562 1.414 . S
C1561 C1564 1.499 . S
C1562 H1542 0.950 . S
C1562 C1561 1.414 . S
C1562 C1563 1.374 . S
C1563 H1543 0.950 . S
C1563 C1559 1.385 . S
C1563 C1562 1.374 . S
C1564 C1561 1.499 . S
C1564 C1565 1.373 . S
C1564 C1566 1.389 . S
C1565 H1544 0.950 . S
C1565 C1564 1.373 . S
C1565 C1581 1.377 . S
C1566 C1564 1.389 . S
C1566 C1567 1.524 . S
C1566 C1580 1.377 . S
C1567 C1566 1.524 . S
C1567 C1568 1.397 . S
C1567 C1572 1.363 . S
C1568 H1545 0.950 . S
C1568 C1567 1.397 . S
C1568 C1569 1.334 . S
C1569 H1546 0.950 . S
C1569 C1568 1.334 . S
C1569 C1570 1.287 . S
C1570 C1569 1.287 . S
C1570 C1571 1.524 . S
C1570 H1589 0.913 . S
C1571 H1547 0.950 . S
C1571 C1570 1.524 . S
C1571 C1572 1.415 . S
C1572 H1548 0.950 . S
C1572 C1567 1.363 . S
C1572 C1571 1.415 . S
C1573 H1549 0.951 . S
C1573 C1574 1.366 . S
C1573 C1575 1.388 . S
C1574 C1573 1.366 . S
C1574 C1578 1.385 . S
C1575 H1550 0.951 . S
C1575 C1573 1.388 . S
C1575 C1576 1.366 . S
C1576 C1575 1.366 . S
C1576 C1577 1.414 . S
C1576 C1579 1.499 . S
C1577 H1551 0.950 . S
C1577 C1576 1.414 . S
C1577 C1578 1.374 . S
C1578 H1552 0.950 . S
C1578 C1574 1.385 . S
C1578 C1577 1.374 . S
C1579 C1576 1.499 . S
C1579 C1580 1.373 . S
C1579 C1581 1.389 . S
C1580 H1553 0.950 . S
C1580 C1566 1.377 . S
C1580 C1579 1.373 . S
C1581 C1565 1.377 . S
C1581 C1579 1.389 . S
C1581 C1582 1.524 . S
C1582 C1581 1.524 . S
C1582 C1583 1.397 . S
C1582 C1587 1.363 . S
C1583 H1554 0.950 . S
C1583 C1582 1.397 . S
C1583 C1584 1.334 . S
C1584 H1555 0.950 . S
C1584 C1583 1.334 . S
C1584 C1585 1.287 . S
C1585 C1584 1.287 . S
C1585 C1586 1.524 . S
C1585 H1588 0.999 . S
C1586 H1556 0.950 . S
C1586 C1585 1.524 . S
C1586 C1587 1.415 . S
C1587 H1557 0.950 . S
C1587 C1582 1.363 . S
C1587 C1586 1.415 . S
H1588 C1585 0.999 . S
H1589 C1570 0.913 . S
H1590 C1608 0.951 . S
H1591 C1610 0.951 . S
H1592 C1612 0.950 . S
H1593 C1613 0.950 . S
H1594 C1615 0.950 . S
H1595 C1618 0.950 . S
H1596 C1619 0.950 . S
H1597 C1621 0.950 . S
H1598 C1622 0.950 . S
H1599 C1623 0.951 . S
H1600 C1625 0.951 . S
H1601 C1627 0.950 . S
H1602 C1628 0.950 . S
H1603 C1630 0.950 . S
H1604 C1633 0.950 . S
H1605 C1634 0.950 . S
H1606 C1636 0.950 . S
H1607 C1637 0.950 . S
C1608 H1590 0.951 . S
C1608 C1609 1.366 . S
C1608 C1610 1.388 . S
C1609 C1608 1.366 . S
C1609 C1613 1.385 . S
C1610 H1591 0.951 . S
C1610 C1608 1.388 . S
C1610 C1611 1.366 . S
C1611 C1610 1.366 . S
C1611 C1612 1.414 . S
C1611 C1614 1.499 . S
C1612 H1592 0.950 . S
C1612 C1611 1.414 . S
C1612 C1613 1.374 . S
C1613 H1593 0.950 . S
C1613 C1609 1.385 . S
C1613 C1612 1.374 . S
C1614 C1611 1.499 . S
C1614 C1615 1.373 . S
C1614 C1616 1.389 . S
C1615 H1594 0.950 . S
C1615 C1614 1.373 . S
C1615 C1631 1.377 . S
C1616 C1614 1.389 . S
C1616 C1617 1.524 . S
C1616 C1630 1.377 . S
C1617 C1616 1.524 . S
C1617 C1618 1.397 . S
C1617 C1622 1.363 . S
C1618 H1595 0.950 . S
C1618 C1617 1.397 . S
C1618 C1619 1.334 . S
C1619 H1596 0.950 . S
C1619 C1618 1.334 . S
C1619 C1620 1.287 . S
C1620 C1619 1.287 . S
C1620 C1621 1.524 . S
C1620 H1639 0.913 . S
C1621 H1597 0.950 . S
C1621 C1620 1.524 . S
C1621 C1622 1.415 . S
C1622 H1598 0.950 . S
C1622 C1617 1.363 . S
C1622 C1621 1.415 . S
C1623 H1599 0.951 . S
C1623 C1624 1.366 . S
C1623 C1625 1.388 . S
C1624 C1623 1.366 . S
C1624 C1628 1.385 . S
C1625 H1600 0.951 . S
C1625 C1623 1.388 . S
C1625 C1626 1.366 . S
C1626 C1625 1.366 . S
C1626 C1627 1.414 . S
C1626 C1629 1.499 . S
C1627 H1601 0.950 . S
C1627 C1626 1.414 . S
C1627 C1628 1.374 . S
C1628 H1602 0.950 . S
C1628 C1624 1.385 . S
C1628 C1627 1.374 . S
C1629 C1626 1.499 . S
C1629 C1630 1.373 . S
C1629 C1631 1.389 . S
C1630 H1603 0.950 . S
C1630 C1616 1.377 . S
C1630 C1629 1.373 . S
C1631 C1615 1.377 . S
C1631 C1629 1.389 . S
C1631 C1632 1.524 . S
C1632 C1631 1.524 . S
C1632 C1633 1.397 . S
C1632 C1637 1.363 . S
C1633 H1604 0.950 . S
C1633 C1632 1.397 . S
C1633 C1634 1.334 . S
C1634 H1605 0.950 . S
C1634 C1633 1.334 . S
C1634 C1635 1.287 . S
C1635 C1634 1.287 . S
C1635 C1636 1.524 . S
C1635 H1638 0.999 . S
C1636 H1606 0.950 . S
C1636 C1635 1.524 . S
C1636 C1637 1.415 . S
C1637 H1607 0.950 . S
C1637 C1632 1.363 . S
C1637 C1636 1.415 . S
H1638 C1635 0.999 . S
H1639 C1620 0.913 . S
C459 N80 1.843 . S
C474 C178 1.851 . S
C524 C262 1.878 . S
C509 N93 1.868 . S
C574 C328 1.909 . S
C559 N54 1.982 . S
C624 C412 1.884 . S
C609 N67 1.958 . S
C674 C167 1.851 1_565 S
C659 N28 1.853 . S
C709 N41 1.879 . S
C724 C251 1.878 . S
C759 N2 1.993 . S
C774 C339 1.909 . S
C809 N15 1.969 . S
C824 C423 1.884 . S
C874 C174 0.499 1_455 S
C859 N70 0.410 . S
C924 C258 0.493 1_545 S
C909 N83 0.376 . S
C974 C330 0.479 . S
C959 N96 0.342 . S
C1009 N57 0.374 . S
C1024 C414 0.485 . S
C1059 N18 0.402 . S
C1074 C162 0.500 . S
C1124 C246 0.492 . S
C1109 N31 0.370 . S
C1174 C342 0.481 . S
C1159 N44 0.333 . S
C1209 N5 0.365 . S
C1224 C426 0.486 . S
C1259 N66 2.012 . S
C1274 C171 1.963 . S
C1309 N79 1.979 . S
C1324 C255 1.928 . S
C1374 C335 1.903 . S
C1359 N92 1.867 . S
C1424 C419 1.935 . S
C1409 N53 1.899 . S
C1459 N14 2.029 . S
C1474 C160 1.963 . S
C1524 C244 1.926 . S
C1509 N27 1.993 . S
C1574 C346 1.903 . S
C1559 N40 1.885 . S
C1609 N1 1.917 . S
C1624 C430 1.935 . S
