# Generated by pormake.
# Topology pth, (4,4)-cn, num edge types: 1
# Building blocks:
#     Node 0, Type 0, BuildingBlock: GALJAG_clean_sbu_0, # of connection points: 4
#     Node 1, Type 0, BuildingBlock: GALJAG_clean_sbu_0, # of connection points: 4
#     Node 2, Type 0, BuildingBlock: GALJAG_clean_sbu_0, # of connection points: 4
#     Node 3, Type 1, BuildingBlock: NAWXER_clean_linker_0, # of connection points: 4
#     Node 4, Type 1, BuildingBlock: NAWXER_clean_linker_0, # of connection points: 4
#     Node 5, Type 1, BuildingBlock: NAWXER_clean_linker_0, # of connection points: 4
#     Edge 6, Type (0, 1), BuildingBlock: FUNLAD_clean_linker_1, # of connection points: 2
#     Edge 7, Type (0, 1), BuildingBlock: FUNLAD_clean_linker_1, # of connection points: 2
#     Edge 8, Type (0, 1), BuildingBlock: FUNLAD_clean_linker_1, # of connection points: 2
#     Edge 9, Type (0, 1), BuildingBlock: FUNLAD_clean_linker_1, # of connection points: 2
#     Edge 10, Type (0, 1), BuildingBlock: FUNLAD_clean_linker_1, # of connection points: 2
#     Edge 11, Type (0, 1), BuildingBlock: FUNLAD_clean_linker_1, # of connection points: 2
#     Edge 12, Type (0, 1), BuildingBlock: FUNLAD_clean_linker_1, # of connection points: 2
#     Edge 13, Type (0, 1), BuildingBlock: FUNLAD_clean_linker_1, # of connection points: 2
#     Edge 14, Type (0, 1), BuildingBlock: FUNLAD_clean_linker_1, # of connection points: 2
#     Edge 15, Type (0, 1), BuildingBlock: FUNLAD_clean_linker_1, # of connection points: 2
#     Edge 16, Type (0, 1), BuildingBlock: FUNLAD_clean_linker_1, # of connection points: 2
#     Edge 17, Type (0, 1), BuildingBlock: FUNLAD_clean_linker_1, # of connection points: 2
# Relax obj value: 0.002
# Max RMSD: 0.036
# Mean RMSD: 0.021
data_MOF--net-pth--node1-GALJAG_clean_sbu_0--node2-NAWXER_clean_linker_0--edge1-FUNLAD_clean_linker_1
_symmetry_space_group_name_H-M    P1
_symmetry_Int_Tables_number       1
_symmetry_cell_setting            triclinic
loop_
_symmetry_equiv_pos_as_xyz
'x, y, z'
_cell_length_a     30.391042
_cell_length_b     30.410465
_cell_length_c     65.448874
_cell_angle_alpha  90.218287
_cell_angle_beta   90.243805
_cell_angle_gamma 119.99932
loop_
_atom_site_label
_atom_site_type_symbol
_atom_site_fract_x
_atom_site_fract_y
_atom_site_fract_z
_atom_type_partial_charge
In0 In 0.01305 0.9954 0.05201 0.0
O1 O 0.97867 0.04197 0.06463 0.0
O2 O 0.0508 0.05723 0.07607 0.0
C3 C 0.94019 0.93048 0.02589 0.0
C4 C 0.08946 0.05762 0.02721 0.0
C5 C 0.00982 0.92869 0.07984 0.0
O6 O 0.93336 0.95968 0.03758 0.0
O7 O 0.98336 0.93444 0.02727 0.0
O8 O 0.04282 0.94612 0.06593 0.0
O9 O 0.9789 0.94484 0.07972 0.0
C10 C 0.01572 0.06789 0.07658 0.0
O11 O 0.0942 0.0294 0.04006 0.0
O12 O 0.04621 0.05391 0.02666 0.0
In13 In 0.0037 0.99424 0.3863 0.0
O14 O 0.04332 0.07024 0.36935 0.0
O15 O 0.96759 0.01569 0.36068 0.0
C16 C 0.07662 1.00017 0.41168 0.0
C17 C 0.94267 0.00464 0.41318 0.0
C18 C 0.98639 0.91279 0.36358 0.0
O19 O 0.08709 0.02883 0.39636 0.0
O20 O 0.03007 0.96913 0.4141 0.0
O21 O 0.95435 0.91129 0.37618 0.0
O22 O 0.02685 0.95508 0.36245 0.0
C23 C 0.00541 0.0592 0.35797 0.0
O24 O 0.92873 0.96363 0.4035 0.0
O25 O 0.98698 0.03995 0.40933 0.0
In26 In 0.00663 0.9908 0.72043 0.0
O27 O 0.9656 0.90888 0.73177 0.0
O28 O 0.94378 0.95992 0.74416 0.0
C29 C 0.07867 0.9856 0.69829 0.0
C30 C 0.94122 0.99307 0.69298 0.0
C31 C 0.06805 0.06468 0.74698 0.0
O32 O 0.05439 0.95438 0.71223 0.0
O33 O 0.06657 0.01921 0.69543 0.0
O34 O 0.05015 0.07405 0.7312 0.0
O35 O 0.05465 0.01863 0.74939 0.0
C36 C 0.93721 0.91553 0.74387 0.0
O37 O 0.96063 0.02538 0.70728 0.0
O38 O 0.95522 0.96047 0.69242 0.0
C39 C 0.99118 0.33457 0.25336 0.0
C40 C 0.03372 0.35182 0.26645 0.0
C41 C 0.98453 0.36889 0.24141 0.0
C42 C 0.02067 0.42092 0.24195 0.0
C43 C 0.06954 0.40395 0.26698 0.0
C44 C 0.06293 0.43814 0.25499 0.0
C45 C 0.01406 0.45812 0.2297 0.0
C46 C 0.02704 0.35373 0.18354 0.0
C47 C 0.98511 0.32924 0.17007 0.0
C48 C 0.03257 0.3933 0.19627 0.0
C49 C 0.99593 0.40857 0.19611 0.0
C50 C 0.94865 0.34474 0.17004 0.0
C51 C 0.95412 0.38408 0.1828 0.0
C52 C 1.0021 0.45205 0.2086 0.0
C53 C 0.03789 0.65811 0.18473 0.0
C54 C 1.00224 0.64294 0.16866 0.0
C55 C 0.0376 0.62208 0.19803 0.0
C56 C 1.00105 0.57035 0.1958 0.0
C57 C 0.96623 0.59129 0.16629 0.0
C58 C 0.96547 0.55541 0.17976 0.0
C59 C 1.00274 0.53099 0.20858 0.0
C60 C 0.97723 0.62863 0.25318 0.0
C61 C 0.01605 0.65374 0.2679 0.0
C62 C 0.97616 0.5906 0.24074 0.0
C63 C 0.01425 0.57745 0.24247 0.0
C64 C 0.05397 0.64038 0.26957 0.0
C65 C 0.05286 0.60236 0.25713 0.0
C66 C 0.01268 0.53609 0.22985 0.0
H67 H 0.96299 0.29477 0.2521 0.0
H68 H 0.95095 0.35472 0.23183 0.0
H69 H 0.10269 0.41843 0.27684 0.0
H70 H 0.09114 0.47815 0.25579 0.0
H71 H 0.05589 0.34295 0.18439 0.0
H72 H 0.06588 0.41243 0.20601 0.0
H73 H 0.91594 0.32671 0.15992 0.0
H74 H 0.92557 0.39546 0.18226 0.0
H75 H 0.06733 0.6974 0.18656 0.0
H76 H 0.06705 0.63459 0.20961 0.0
H77 H 0.93872 0.5786 0.15391 0.0
H78 H 0.9374 0.51574 0.17747 0.0
H79 H 0.94782 0.63831 0.25101 0.0
H80 H 0.94526 0.57119 0.22988 0.0
H81 H 0.08441 0.65911 0.2807 0.0
H82 H 0.08243 0.59263 0.25888 0.0
N83 N 0.01872 0.49984 0.23946 0.0
N84 N 0.99715 0.48881 0.19895 0.0
C85 C 0.67664 0.02403 0.52326 0.0
C86 C 0.66057 0.98307 0.50943 0.0
C87 C 0.64107 0.02995 0.53469 0.0
C88 C 0.58897 0.99467 0.53274 0.0
C89 C 0.60848 0.94769 0.50777 0.0
C90 C 0.57307 0.95363 0.51916 0.0
C91 C 0.55022 1.00148 0.54366 0.0
C92 C 0.64297 0.97948 0.5923 0.0
C93 C 0.66768 0.021 0.60591 0.0
C94 C 0.60527 0.97592 0.57891 0.0
C95 C 0.59168 0.01379 0.57875 0.0
C96 C 0.65301 0.05808 0.60599 0.0
C97 C 0.61537 0.05448 0.59261 0.0
C98 C 0.5514 0.01045 0.5649 0.0
C99 C 0.3406 0.97613 0.57932 0.0
C100 C 0.35113 0.00952 0.59585 0.0
C101 C 0.3801 0.97653 0.56831 0.0
C102 C 0.43105 0.01177 0.57312 0.0
C103 C 0.40205 0.04433 0.60088 0.0
C104 C 0.44157 0.04532 0.58963 0.0
C105 C 0.47349 0.01166 0.56199 0.0
C106 C 0.38801 0.04505 0.51371 0.0
C107 C 0.36967 0.01073 0.49714 0.0
C108 C 0.42144 0.04318 0.528 0.0
C109 C 0.43635 0.00638 0.52622 0.0
C110 C 0.38561 0.97489 0.49512 0.0
C111 C 0.41841 0.97259 0.50953 0.0
C112 C 0.47377 0.00524 0.54056 0.0
H113 H 0.71644 0.0516 0.52539 0.0
H114 H 0.65424 0.06249 0.54478 0.0
H115 H 0.59495 0.91569 0.49734 0.0
H116 H 0.53305 0.9261 0.51731 0.0
H117 H 0.65158 0.94905 0.59215 0.0
H118 H 0.58626 0.94318 0.56888 0.0
H119 H 0.67085 0.09015 0.61642 0.0
H120 H 0.60504 0.0838 0.59297 0.0
H121 H 0.30168 0.94883 0.57521 0.0
H122 H 0.37066 0.94878 0.55622 0.0
H123 H 0.41146 0.07129 0.61328 0.0
H124 H 0.48047 0.07255 0.59379 0.0
H125 H 0.3779 0.07432 0.51535 0.0
H126 H 0.43638 0.07121 0.54017 0.0
H127 H 0.37244 0.94837 0.48239 0.0
H128 H 0.42991 0.94437 0.50759 0.0
N129 N 0.51166 0.99956 0.53239 0.0
N130 N 0.51286 0.01494 0.57321 0.0
C131 C 0.34848 0.35679 0.84982 0.0
C132 C 0.32354 0.37205 0.83575 0.0
C133 C 0.38685 0.39251 0.86262 0.0
C134 C 0.40057 0.44395 0.86176 0.0
C135 C 0.3373 0.42349 0.83505 0.0
C136 C 0.37577 0.45914 0.84776 0.0
C137 C 0.44206 0.48268 0.8747 0.0
C138 C 0.31692 0.3809 0.9175 0.0
C139 C 0.33109 0.35642 0.93211 0.0
C140 C 0.35355 0.4204 0.90572 0.0
C141 C 0.40526 0.43598 0.90812 0.0
C142 C 0.38313 0.37298 0.93482 0.0
C143 C 0.4197 0.41235 0.92296 0.0
C144 C 0.44481 0.47858 0.89613 0.0
C145 C 0.60979 0.68881 0.91966 0.0
C146 C 0.63453 0.67784 0.9353 0.0
C147 C 0.57362 0.65016 0.90716 0.0
C148 C 0.56157 0.59957 0.90994 0.0
C149 C 0.62146 0.62689 0.93841 0.0
C150 C 0.58524 0.58822 0.92587 0.0
C151 C 0.52238 0.55819 0.89703 0.0
C152 C 0.65083 0.65349 0.85458 0.0
C153 C 0.63855 0.67691 0.83877 0.0
C154 C 0.61261 0.61626 0.86665 0.0
C155 C 0.5615 0.60227 0.86342 0.0
C156 C 0.58743 0.66294 0.83567 0.0
C157 C 0.54925 0.62568 0.84773 0.0
C158 C 0.52044 0.56137 0.87553 0.0
H159 H 0.33823 0.31736 0.85118 0.0
H160 H 0.40601 0.37998 0.87307 0.0
H161 H 0.31862 0.43628 0.82445 0.0
H162 H 0.38593 0.49867 0.84675 0.0
H163 H 0.27731 0.36964 0.91526 0.0
H164 H 0.34142 0.43917 0.89492 0.0
H165 H 0.39624 0.35656 0.94625 0.0
H166 H 0.45945 0.42437 0.92537 0.0
H167 H 0.61842 0.72749 0.91709 0.0
H168 H 0.55465 0.65983 0.89546 0.0
H169 H 0.63819 0.61633 0.95068 0.0
H170 H 0.5758 0.54935 0.92859 0.0
H171 H 0.68976 0.66389 0.85786 0.0
H172 H 0.62302 0.598 0.87836 0.0
H173 H 0.57686 0.68045 0.82368 0.0
H174 H 0.51007 0.61527 0.84484 0.0
N175 N 0.48003 0.52386 0.86528 0.0
N176 N 0.48486 0.51657 0.90644 0.0
H177 H 0.05302 0.12832 0.09967 0.0
C178 C 0.01898 0.10791 0.09028 0.0
H179 H 0.94709 0.09883 0.08295 0.0
H180 H 0.94153 0.19315 0.16965 0.0
H181 H 0.87642 0.10519 0.17397 0.0
H182 H 0.86087 0.04122 0.14739 0.0
H183 H 0.91071 0.06486 0.11635 0.0
C184 C 0.98216 0.11987 0.09167 0.0
C185 C 0.98732 0.15974 0.10636 0.0
C186 C 0.9568 0.14565 0.12411 0.0
C187 C 0.96507 0.18279 0.13925 0.0
C188 C 0.93582 0.16701 0.15733 0.0
C189 C 0.89854 0.11648 0.16009 0.0
C190 C 0.88985 0.08045 0.14514 0.0
C191 C 0.91869 0.09456 0.12738 0.0
H192 H 0.94193 0.26857 0.14723 0.0
C193 C 0.97761 0.28782 0.15571 0.0
H194 H 0.04959 0.29319 0.15914 0.0
H195 H 0.0482 0.20049 0.07295 0.0
H196 H 0.11247 0.28871 0.06825 0.0
H197 H 0.12727 0.35311 0.09454 0.0
H198 H 0.07782 0.32971 0.12565 0.0
C199 C 0.0123 0.27364 0.15204 0.0
C200 C 1.00299 0.23428 0.13631 0.0
C201 C 0.03265 0.24854 0.1183 0.0
C202 C 0.02455 0.21134 0.10324 0.0
C203 C 0.05371 0.22692 0.08514 0.0
C204 C 0.09048 0.27754 0.08217 0.0
C205 C 0.09877 0.31379 0.09696 0.0
C206 C 0.07019 0.29976 0.11479 0.0
H207 H 0.92572 0.04873 0.43531 0.0
C208 C 0.91024 0.01186 0.42787 0.0
H209 H 0.84727 0.9376 0.42536 0.0
H210 H 0.76425 0.95209 0.51268 0.0
H211 H 0.7937 0.89273 0.51948 0.0
H212 H 0.8406 0.87425 0.49336 0.0
H213 H 0.85859 0.91528 0.46031 0.0
C214 C 0.86279 0.97516 0.43216 0.0
C215 C 0.83161 0.98406 0.44731 0.0
C216 C 0.82039 0.95887 0.46638 0.0
C217 C 0.79259 0.96888 0.48132 0.0
C218 C 0.78384 0.94479 0.50055 0.0
C219 C 0.80088 0.91089 0.50472 0.0
C220 C 0.82735 0.90054 0.49002 0.0
C221 C 0.83732 0.9243 0.47109 0.0
H222 H 0.68187 0.93887 0.48891 0.0
C223 C 0.69628 0.97566 0.49635 0.0
H224 H 0.75895 0.05064 0.49794 0.0
H225 H 0.84243 0.03522 0.41158 0.0
H226 H 0.81292 0.09447 0.40475 0.0
H227 H 0.76576 0.11276 0.43081 0.0
H228 H 0.74768 0.07172 0.46383 0.0
C229 C 0.74394 0.01233 0.4921 0.0
C230 C 0.77509 0.00325 0.47697 0.0
C231 C 0.78622 0.02837 0.45788 0.0
C232 C 0.81406 0.01839 0.44295 0.0
C233 C 0.82281 0.04248 0.42371 0.0
C234 C 0.80572 0.07631 0.41952 0.0
C235 C 0.77912 0.08655 0.43418 0.0
C236 C 0.76913 0.0628 0.45311 0.0
H237 H 0.89559 0.83695 0.75536 0.0
C238 C 0.89927 0.87429 0.75664 0.0
H239 H 0.87403 0.91935 0.77151 0.0
H240 H 0.68363 0.6844 0.78696 0.0
H241 H 0.66892 0.68164 0.75042 0.0
H242 H 0.72766 0.75221 0.72839 0.0
H243 H 0.8019 0.8255 0.74272 0.0
C244 C 0.86949 0.88178 0.76963 0.0
C245 C 0.83223 0.84032 0.78289 0.0
C246 C 0.78809 0.79853 0.77431 0.0
C247 C 0.75307 0.75883 0.78713 0.0
C248 C 0.71054 0.71644 0.77806 0.0
C249 C 0.70177 0.71423 0.75707 0.0
C250 C 0.73493 0.75388 0.74466 0.0
C251 C 0.7776 0.79563 0.75309 0.0
H252 H 0.66748 0.74082 0.81702 0.0
C253 C 0.67769 0.71629 0.82536 0.0
H254 H 0.73571 0.69776 0.82991 0.0
H255 H 0.91296 0.915 0.80422 0.0
H256 H 0.92619 0.91899 0.84091 0.0
H257 H 0.86408 0.85145 0.86324 0.0
H258 H 0.78845 0.77934 0.84899 0.0
C259 C 0.72386 0.72169 0.82222 0.0
C260 C 0.76124 0.762 0.80858 0.0
C261 C 0.80519 0.80389 0.81715 0.0
C262 C 0.84071 0.8431 0.8043 0.0
C263 C 0.88446 0.88438 0.81327 0.0
C264 C 0.89258 0.88712 0.83432 0.0
C265 C 0.85764 0.84907 0.84689 0.0
C266 C 0.8144 0.80786 0.8385 0.0
H267 H 0.98127 0.88451 0.10806 0.0
C268 C 0.0068 0.89224 0.09528 0.0
H269 H 0.05896 0.8754 0.08117 0.0
H270 H 0.11396 0.79234 0.15941 0.0
H271 H 0.19452 0.86676 0.15144 0.0
H272 H 0.20028 0.92619 0.12465 0.0
H273 H 0.1256 0.91121 0.10548 0.0
C274 C 0.03281 0.8674 0.09374 0.0
C275 C 0.02896 0.83084 0.10974 0.0
C276 C 0.07288 0.8406 0.12105 0.0
C277 C 0.06934 0.80693 0.13683 0.0
C278 C 0.11414 0.81702 0.14751 0.0
C279 C 0.16075 0.8596 0.14307 0.0
C280 C 0.164 0.89302 0.12797 0.0
C281 C 0.12076 0.88387 0.11705 0.0
H282 H 0.99015 0.6652 0.13797 0.0
C283 C 0.00362 0.67941 0.15335 0.0
H284 H 0.03179 0.74323 0.17302 0.0
H285 H 0.93895 0.79527 0.08871 0.0
H286 H 0.85735 0.72406 0.09808 0.0
H287 H 0.8492 0.67244 0.12833 0.0
H288 H 0.92293 0.69073 0.14893 0.0
C289 C 0.01888 0.72824 0.15772 0.0
C290 C 0.0217 0.764 0.14156 0.0
C291 C 0.9775 0.75493 0.13058 0.0
C292 C 0.98152 0.78707 0.11409 0.0
C293 C 0.93761 0.77417 0.10217 0.0
C294 C 0.89055 0.73304 0.10726 0.0
C295 C 0.88601 0.70381 0.12422 0.0
C296 C 0.9288 0.71446 0.1358 0.0
H297 H 0.10123 0.97881 0.43967 0.0
C298 C 0.11493 1.00178 0.42597 0.0
H299 H 0.17943 0.05244 0.40904 0.0
H300 H 0.33148 0.12166 0.48434 0.0
H301 H 0.33471 0.20024 0.47494 0.0
H302 H 0.27691 0.2011 0.44857 0.0
H303 H 0.21591 0.12349 0.43128 0.0
C304 C 0.1651 0.02863 0.42249 0.0
C305 C 0.20207 0.02837 0.43751 0.0
C306 C 0.23723 0.07404 0.44761 0.0
C307 C 0.2699 0.07338 0.46311 0.0
C308 C 0.30521 0.11975 0.47269 0.0
C309 C 0.30756 0.1652 0.46741 0.0
C310 C 0.27506 0.16569 0.45256 0.0
C311 C 0.24022 0.12081 0.44273 0.0
H312 H 0.33675 0.99856 0.46604 0.0
C313 C 0.33553 0.01237 0.48126 0.0
H314 H 0.29838 0.04001 0.50022 0.0
H315 H 0.14692 0.93589 0.41839 0.0
H316 H 0.14031 0.85648 0.42891 0.0
H317 H 0.18882 0.85341 0.45865 0.0
H318 H 0.24537 0.9299 0.47758 0.0
C319 C 0.30111 0.02679 0.4851 0.0
C320 C 0.2669 0.02694 0.46871 0.0
C321 C 0.23146 0.98114 0.45868 0.0
C322 C 0.20062 0.98225 0.4425 0.0
C323 C 0.16889 0.93674 0.43158 0.0
C324 C 0.16509 0.89093 0.43733 0.0
C325 C 0.1926 0.88926 0.454 0.0
C326 C 0.22536 0.93365 0.46462 0.0
H327 H 0.11421 0.09114 0.77507 0.0
C328 C 0.10295 0.10379 0.76152 0.0
H329 H 0.11381 0.16722 0.74444 0.0
H330 H 0.19814 0.25668 0.83877 0.0
H331 H 0.10924 0.21113 0.84821 0.0
H332 H 0.04309 0.15729 0.82308 0.0
H333 H 0.06558 0.14821 0.7884 0.0
C334 C 0.12273 0.15371 0.75833 0.0
C335 C 0.16152 0.19138 0.7727 0.0
C336 C 0.14759 0.19767 0.79269 0.0
C337 C 0.18559 0.2301 0.80698 0.0
C338 C 0.17078 0.23381 0.82711 0.0
C339 C 0.11986 0.20765 0.83277 0.0
C340 C 0.08263 0.17723 0.81864 0.0
C341 C 0.0961 0.17214 0.79882 0.0
H342 H 0.25644 0.3468 0.81551 0.0
C343 C 0.28253 0.33561 0.82184 0.0
H344 H 0.305 0.28004 0.82058 0.0
H345 H 0.20079 0.1894 0.73537 0.0
H346 H 0.28941 0.23704 0.72555 0.0
H347 H 0.35508 0.29488 0.75004 0.0
H348 H 0.33258 0.30523 0.78454 0.0
C349 C 0.27748 0.29091 0.81592 0.0
C350 C 0.2373 0.25734 0.80104 0.0
C351 C 0.25102 0.25209 0.78087 0.0
C352 C 0.21309 0.21915 0.76668 0.0
C353 C 0.22799 0.21415 0.74672 0.0
C354 C 0.27874 0.24127 0.74088 0.0
C355 C 0.31571 0.2738 0.75468 0.0
C356 C 0.30227 0.27932 0.77445 0.0
H357 H 0.89039 0.96293 0.66623 0.0
C358 C 0.90366 0.99156 0.67827 0.0
H359 H 0.89739 0.05176 0.69138 0.0
H360 H 0.80724 0.08975 0.60977 0.0
H361 H 0.88992 0.1661 0.61164 0.0
H362 H 0.95266 0.1756 0.63788 0.0
H363 H 0.93316 0.10872 0.66237 0.0
C364 C 0.88387 0.02226 0.67971 0.0
C365 C 0.84443 0.01786 0.66489 0.0
C366 C 0.85607 0.0577 0.65093 0.0
C367 C 0.81969 0.05241 0.63591 0.0
C368 C 0.833 0.09213 0.62174 0.0
C369 C 0.88045 0.13608 0.62257 0.0
C370 C 0.9158 0.14141 0.63733 0.0
C371 C 0.90406 0.10274 0.65133 0.0
H372 H 0.71705 0.05336 0.63324 0.0
C373 C 0.70753 0.02643 0.6207 0.0
H374 H 0.7259 0.97429 0.60699 0.0
H375 H 0.80686 0.93728 0.69121 0.0
H376 H 0.72406 0.86121 0.68942 0.0
H377 H 0.66213 0.85091 0.66267 0.0
H378 H 0.68254 0.91694 0.63765 0.0
C379 C 0.73332 1.00124 0.61925 0.0
C380 C 0.77148 0.00751 0.63505 0.0
C381 C 0.75948 0.96807 0.64923 0.0
C382 C 0.79566 0.97352 0.66437 0.0
C383 C 0.78164 0.93445 0.67893 0.0
C384 C 0.73401 0.89072 0.6782 0.0
C385 C 0.69912 0.88496 0.66316 0.0
C386 C 0.71138 0.92312 0.64886 0.0
H387 H 0.91152 0.87092 1.00218 0.0
C388 C 0.90111 0.8934 0.01185 0.0
H389 H 0.84174 0.90578 0.02121 0.0
H390 H 0.76549 0.77984 0.93197 0.0
H391 H 0.83141 0.85756 0.91687 0.0
H392 H 0.88914 0.93067 0.93854 0.0
H393 H 0.88175 0.92615 0.97547 0.0
C394 C 0.85345 0.88523 0.01105 0.0
C395 C 0.81446 0.84409 0.9978 0.0
C396 C 0.81799 0.84807 0.9762 0.0
C397 C 0.78338 0.80662 0.96368 0.0
C398 C 0.78955 0.81071 0.9422 0.0
C399 C 0.82744 0.85504 0.93333 0.0
C400 C 0.86005 0.89614 0.94553 0.0
C401 C 0.85557 0.89293 0.96671 0.0
H402 H 0.67207 0.75604 0.94796 0.0
C403 C 0.67234 0.72041 0.94832 0.0
H404 H 0.71023 0.68375 0.96065 0.0
H405 H 0.79597 0.82472 0.03863 0.0
H406 H 0.72821 0.74807 0.05372 0.0
H407 H 0.66669 0.67721 0.03199 0.0
H408 H 0.6727 0.68243 0.99504 0.0
C409 C 0.70787 0.71811 0.95987 0.0
C410 C 0.74411 0.76197 0.97277 0.0
C411 C 0.73978 0.75856 0.99434 0.0
C412 C 0.77494 0.79966 0.00686 0.0
C413 C 0.77009 0.79485 0.02838 0.0
C414 C 0.73138 0.75104 0.03725 0.0
C415 C 0.69677 0.71112 0.02502 0.0
C416 C 0.7007 0.71461 1.00382 0.0
H417 H 0.94158 0.83291 0.35322 0.0
C418 C 0.97703 0.86833 0.35116 0.0
H419 H 0.04586 0.90646 0.33487 0.0
H420 H 0.98494 0.66644 0.32074 0.0
H421 H 1.00116 0.66627 0.35704 0.0
H422 H 0.0191 0.73991 0.37879 0.0
H423 H 0.02016 0.81379 0.36443 0.0
C424 C 0.01109 0.87076 0.33752 0.0
C425 C 1.00117 0.8264 0.32452 0.0
C426 C 1.00204 0.78407 0.33311 0.0
C427 C 0.99358 0.74238 0.32043 0.0
C428 C 0.99275 0.69979 0.32952 0.0
C429 C 1.00174 0.69908 0.35037 0.0
C430 C 0.01169 0.74047 0.36263 0.0
C431 C 0.01194 0.78258 0.35419 0.0
H432 H 0.05512 0.71904 0.28919 0.0
C433 C 0.01905 0.69449 0.28153 0.0
H434 H 0.94268 0.67802 0.27852 0.0
H435 H 0.99607 0.90113 0.3033 0.0
H436 H 0.98165 0.90201 0.26685 0.0
H437 H 0.96919 0.83072 0.24475 0.0
H438 H 0.97091 0.75801 0.25896 0.0
C439 C 0.97965 0.70164 0.28553 0.0
C440 C 0.98596 0.74387 0.2991 0.0
C441 C 0.98476 0.78601 0.29056 0.0
C442 C 0.99243 0.82734 0.30328 0.0
C443 C 0.99096 0.86893 0.29432 0.0
C444 C 0.98262 0.86988 0.27342 0.0
C445 C 0.97556 0.82973 0.26098 0.0
C446 C 0.97659 0.7882 0.26935 0.0
H447 H 0.13065 0.95661 0.69145 0.0
C448 C 0.11878 0.98326 0.68659 0.0
H449 H 0.12969 0.04043 0.66571 0.0
H450 H 0.35298 0.10801 0.64023 0.0
H451 H 0.3635 0.18293 0.65783 0.0
H452 H 0.29244 0.18091 0.6767 0.0
H453 H 0.21026 0.10415 0.67786 0.0
C454 C 0.14077 0.01301 0.67033 0.0
C455 C 0.1837 0.01308 0.65936 0.0
C456 C 0.23186 0.0581 0.65912 0.0
C457 C 0.27321 0.05893 0.64865 0.0
C458 C 0.32047 0.10485 0.64825 0.0
C459 C 0.32706 0.14826 0.65825 0.0
C460 C 0.28703 0.14715 0.66884 0.0
C461 C 0.23995 0.10277 0.66933 0.0
H462 H 0.27298 0.99624 0.5991 0.0
C463 C 0.30826 0.00761 0.60734 0.0
H464 H 0.34475 0.02659 0.6362 0.0
H465 H 0.09492 0.92248 0.65415 0.0
H466 H 0.08577 0.84593 0.63858 0.0
H467 H 0.15985 0.84449 0.6241 0.0
H468 H 0.24311 0.92003 0.62455 0.0
C469 C 0.31024 0.01622 0.62759 0.0
C470 C 0.26669 0.01447 0.63874 0.0
C471 C 0.21891 0.96896 0.63952 0.0
C472 C 0.17693 0.9688 0.64915 0.0
C473 C 0.12873 0.92405 0.64813 0.0
C474 C 0.12282 0.87988 0.63906 0.0
C475 C 0.16446 0.87915 0.63082 0.0
C476 C 0.21201 0.92299 0.63102 0.0
H477 H 0.16851 0.09547 0.01609 0.0
C478 C 0.13204 0.09365 0.01442 0.0
H479 H 0.09136 0.12494 1.00035 0.0
H480 H 0.28536 0.33802 0.98404 0.0
H481 H 0.24623 0.35886 0.01176 0.0
H482 H 0.17242 0.29159 0.02994 0.0
H483 H 0.13758 0.20307 0.02059 0.0
C484 C 0.1272 0.12525 1.0015 0.0
C485 C 0.17149 0.16536 0.99025 0.0
C486 C 0.19076 0.21706 0.99561 0.0
C487 C 0.23276 0.25592 0.98488 0.0
C488 C 0.25253 0.30705 0.99119 0.0
C489 C 0.23067 0.31955 0.00721 0.0
C490 C 0.18917 0.28169 0.01746 0.0
C491 C 0.16944 0.23099 0.01187 0.0
H492 H 0.25265 0.31065 0.94373 0.0
C493 C 0.29055 0.31537 0.94459 0.0
H494 H 0.33354 0.28432 0.95714 0.0
H495 H 0.14214 0.07023 0.9753 0.0
H496 H 0.18159 0.04932 0.94771 0.0
H497 H 0.2549 0.11662 0.92931 0.0
H498 H 0.28904 0.20528 0.93833 0.0
C499 C 0.29752 0.28353 0.95664 0.0
C500 C 0.25471 0.24305 0.96848 0.0
C501 C 0.23582 0.19131 0.96328 0.0
C502 C 0.19392 0.15242 0.97406 0.0
C503 C 0.17465 0.10122 0.968 0.0
C504 C 0.19674 0.08868 0.95208 0.0
C505 C 0.23799 0.12658 0.94171 0.0
C506 C 0.2573 0.17734 0.9471 0.0
H507 H 0.96819 0.08149 0.33464 0.0
C508 C 1.00328 0.0946 0.34326 0.0
H509 H 0.07712 0.15627 0.34903 0.0
H510 H 0.06883 0.25225 0.26286 0.0
H511 H 0.12684 0.22188 0.25475 0.0
H512 H 0.14398 0.17134 0.27958 0.0
H513 H 0.10285 0.15058 0.31267 0.0
C514 C 0.04132 0.14248 0.34089 0.0
C515 C 0.0351 0.17747 0.32687 0.0
C516 C 0.06053 0.19056 0.30787 0.0
C517 C 0.05134 0.22052 0.29371 0.0
C518 C 0.07546 0.23092 0.27444 0.0
C519 C 0.10862 0.21341 0.26953 0.0
C520 C 0.11821 0.18488 0.28349 0.0
C521 C 0.0944 0.17328 0.30243 0.0
H522 H 0.07983 0.33251 0.28687 0.0
C523 C 0.04259 0.31724 0.27971 0.0
H524 H 0.96833 0.25319 0.27851 0.0
H525 H 0.98448 0.16391 0.36292 0.0
H526 H 0.92733 0.19516 0.37132 0.0
H527 H 0.91091 0.24666 0.34674 0.0
H528 H 0.95163 0.26731 0.31362 0.0
C529 C 0.00701 0.26921 0.28409 0.0
C530 C 0.01754 0.23831 0.29881 0.0
C531 C 0.99299 0.22612 0.31803 0.0
C532 C 1.00205 0.19602 0.33213 0.0
C533 C 0.97805 0.18559 0.35143 0.0
C534 C 0.9454 0.20359 0.35652 0.0
C535 C 0.93619 0.23262 0.34268 0.0
C536 C 0.95972 0.24404 0.32369 0.0
loop_
_geom_bond_atom_site_label_1
_geom_bond_atom_site_label_2
_geom_bond_distance
_geom_bond_site_symmetry_2
_ccdc_geom_bond_type
In0 O1 2.294 1_455 S
In0 O2 2.326 . S
In0 O6 2.266 1_445 S
In0 O7 2.326 1_445 S
In0 O8 2.266 1_545 S
In0 O9 2.326 1_445 S
In0 O11 2.294 . S
In0 O12 2.326 . S
O1 In0 2.294 1_655 S
O1 C10 1.240 1_655 S
O2 In0 2.326 . S
O2 C10 1.252 . S
C3 O6 1.252 . S
C3 O7 1.260 . S
C4 O11 1.240 . S
C4 O12 1.252 . S
C5 O8 1.252 1_655 S
C5 O9 1.260 . S
O6 In0 2.266 1_665 S
O6 C3 1.252 . S
O7 In0 2.326 1_665 S
O7 C3 1.260 . S
O8 In0 2.266 1_565 S
O8 C5 1.252 1_455 S
O9 In0 2.326 1_665 S
O9 C5 1.260 . S
C10 O1 1.240 1_455 S
C10 O2 1.252 . S
O11 In0 2.294 . S
O11 C4 1.240 . S
O12 In0 2.326 . S
O12 C4 1.252 . S
In13 O14 2.294 . S
In13 O15 2.326 1_455 S
In13 O19 2.266 . S
In13 O20 2.326 1_545 S
In13 O21 2.266 1_445 S
In13 O22 2.326 1_545 S
In13 O24 2.294 1_445 S
In13 O25 2.326 1_455 S
O14 In13 2.294 . S
O14 C23 1.240 1_455 S
O15 In13 2.326 1_655 S
O15 C23 1.252 . S
C16 O19 1.252 1_565 S
C16 O20 1.260 . S
C17 O24 1.240 1_545 S
C17 O25 1.252 . S
C18 O21 1.252 1_455 S
C18 O22 1.260 . S
O19 In13 2.266 . S
O19 C16 1.252 1_545 S
O20 In13 2.326 1_565 S
O20 C16 1.260 . S
O21 In13 2.266 1_665 S
O21 C18 1.252 1_655 S
O22 In13 2.326 1_565 S
O22 C18 1.260 . S
C23 O14 1.240 1_655 S
C23 O15 1.252 . S
O24 In13 2.294 1_665 S
O24 C17 1.240 1_565 S
O25 In13 2.326 1_655 S
O25 C17 1.252 . S
In26 O27 2.281 1_445 S
In26 O28 2.328 1_445 S
In26 O32 2.253 1_545 S
In26 O33 2.328 . S
In26 O34 2.279 . S
In26 O35 2.323 . S
In26 O37 2.307 1_455 S
In26 O38 2.324 1_445 S
O27 In26 2.281 1_665 S
O27 C36 1.240 . S
O28 In26 2.328 1_665 S
O28 C36 1.252 . S
C29 O32 1.252 1_545 S
C29 O33 1.260 . S
C30 O37 1.240 1_565 S
C30 O38 1.252 . S
C31 O34 1.252 . S
C31 O35 1.260 . S
O32 In26 2.253 1_565 S
O32 C29 1.252 1_565 S
O33 In26 2.328 . S
O33 C29 1.260 . S
O34 In26 2.279 . S
O34 C31 1.252 . S
O35 In26 2.323 . S
O35 C31 1.260 . S
C36 O27 1.240 . S
C36 O28 1.252 . S
O37 In26 2.307 1_655 S
O37 C30 1.240 1_545 S
O38 In26 2.324 1_665 S
O38 C30 1.252 . S
C39 C40 1.384 1_655 S
C39 C41 1.384 . S
C39 H67 0.931 . S
C40 C39 1.384 1_455 S
C40 C43 1.382 . S
C41 C39 1.384 . S
C41 C42 1.381 1_655 S
C41 H68 0.930 . S
C42 C41 1.381 1_455 S
C42 C44 1.381 . S
C42 C45 1.487 . S
C43 C40 1.382 . S
C43 C44 1.387 . S
C43 H69 0.930 . S
C44 C42 1.381 . S
C44 C43 1.387 . S
C44 H70 0.931 . S
C45 C42 1.487 . S
C45 C52 1.400 . S
C45 N83 1.343 . S
C46 C47 1.384 . S
C46 C48 1.384 . S
C46 H71 0.931 . S
C47 C46 1.384 . S
C47 C50 1.382 1_455 S
C48 C46 1.384 . S
C48 C49 1.380 1_455 S
C48 H72 0.930 . S
C49 C48 1.380 1_655 S
C49 C51 1.382 . S
C49 C52 1.492 1_655 S
C50 C47 1.382 1_655 S
C50 C51 1.387 . S
C50 H73 0.930 . S
C51 C49 1.382 . S
C51 C50 1.387 . S
C51 H74 0.931 . S
C52 C45 1.400 . S
C52 C49 1.492 1_455 S
C52 N84 1.338 1_455 S
C53 C54 1.384 . S
C53 C55 1.384 . S
C53 H75 0.931 . S
C54 C53 1.384 . S
C54 C57 1.382 1_455 S
C55 C53 1.384 . S
C55 C56 1.381 1_455 S
C55 H76 0.930 . S
C56 C55 1.381 1_655 S
C56 C58 1.382 . S
C56 C59 1.482 1_655 S
C57 C54 1.382 1_655 S
C57 C58 1.387 . S
C57 H77 0.930 . S
C58 C56 1.382 . S
C58 C57 1.387 . S
C58 H78 0.931 . S
C59 C56 1.482 1_455 S
C59 C66 1.400 . S
C59 N84 1.347 1_455 S
C60 C61 1.384 1_655 S
C60 C62 1.384 . S
C60 H79 0.931 . S
C61 C60 1.384 1_455 S
C61 C64 1.382 . S
C62 C60 1.384 . S
C62 C63 1.381 1_655 S
C62 H80 0.930 . S
C63 C62 1.381 1_455 S
C63 C65 1.381 . S
C63 C66 1.487 . S
C64 C61 1.382 . S
C64 C65 1.387 . S
C64 H81 0.930 . S
C65 C63 1.381 . S
C65 C64 1.387 . S
C65 H82 0.931 . S
C66 C59 1.400 . S
C66 C63 1.487 . S
C66 N83 1.343 . S
H67 C39 0.931 . S
H68 C41 0.930 . S
H69 C43 0.930 . S
H70 C44 0.931 . S
H71 C46 0.931 . S
H72 C48 0.930 . S
H73 C50 0.930 . S
H74 C51 0.931 . S
H75 C53 0.931 . S
H76 C55 0.930 . S
H77 C57 0.930 . S
H78 C58 0.931 . S
H79 C60 0.931 . S
H80 C62 0.930 . S
H81 C64 0.930 . S
H82 C65 0.931 . S
N83 C45 1.343 . S
N83 C66 1.343 . S
N84 C52 1.338 1_655 S
N84 C59 1.347 1_655 S
C85 C86 1.384 . S
C85 C87 1.384 . S
C85 H113 0.931 . S
C86 C85 1.384 . S
C86 C89 1.382 1_545 S
C87 C85 1.384 . S
C87 C88 1.379 1_545 S
C87 H114 0.930 . S
C88 C87 1.379 1_565 S
C88 C90 1.387 . S
C88 C91 1.482 1_565 S
C89 C86 1.382 1_565 S
C89 C90 1.387 . S
C89 H115 0.930 . S
C90 C88 1.387 . S
C90 C89 1.387 . S
C90 H116 0.931 . S
C91 C88 1.482 1_545 S
C91 C98 1.399 . S
C91 N129 1.344 1_545 S
C92 C93 1.384 1_565 S
C92 C94 1.384 . S
C92 H117 0.931 . S
C93 C92 1.384 1_545 S
C93 C96 1.382 . S
C94 C92 1.384 . S
C94 C95 1.381 1_565 S
C94 H118 0.930 . S
C95 C94 1.381 1_545 S
C95 C97 1.381 . S
C95 C98 1.487 . S
C96 C93 1.382 . S
C96 C97 1.387 . S
C96 H119 0.930 . S
C97 C95 1.381 . S
C97 C96 1.387 . S
C97 H120 0.931 . S
C98 C91 1.399 . S
C98 C95 1.487 . S
C98 N130 1.343 . S
C99 C100 1.384 1_565 S
C99 C101 1.384 . S
C99 H121 0.931 . S
C100 C99 1.384 1_545 S
C100 C103 1.382 . S
C101 C99 1.384 . S
C101 C102 1.381 1_565 S
C101 H122 0.930 . S
C102 C101 1.381 1_545 S
C102 C104 1.381 . S
C102 C105 1.487 . S
C103 C100 1.382 . S
C103 C104 1.387 . S
C103 H123 0.930 . S
C104 C102 1.381 . S
C104 C103 1.387 . S
C104 H124 0.931 . S
C105 C102 1.487 . S
C105 C112 1.399 . S
C105 N130 1.343 . S
C106 C107 1.384 . S
C106 C108 1.384 . S
C106 H125 0.931 . S
C107 C106 1.384 . S
C107 C110 1.382 1_545 S
C108 C106 1.384 . S
C108 C109 1.372 1_545 S
C108 H126 0.930 . S
C109 C108 1.372 1_565 S
C109 C111 1.386 . S
C109 C112 1.492 1_565 S
C110 C107 1.382 1_565 S
C110 C111 1.387 . S
C110 H127 0.930 . S
C111 C109 1.386 . S
C111 C110 1.387 . S
C111 H128 0.931 . S
C112 C105 1.399 . S
C112 C109 1.492 1_545 S
C112 N129 1.342 1_545 S
H113 C85 0.931 . S
H114 C87 0.930 . S
H115 C89 0.930 . S
H116 C90 0.931 . S
H117 C92 0.931 . S
H118 C94 0.930 . S
H119 C96 0.930 . S
H120 C97 0.931 . S
H121 C99 0.931 . S
H122 C101 0.930 . S
H123 C103 0.930 . S
H124 C104 0.931 . S
H125 C106 0.931 . S
H126 C108 0.930 . S
H127 C110 0.930 . S
H128 C111 0.931 . S
N129 C91 1.344 1_565 S
N129 C112 1.342 1_565 S
N130 C98 1.343 . S
N130 C105 1.343 . S
C131 C132 1.384 . S
C131 C133 1.384 . S
C131 H159 0.931 . S
C132 C131 1.384 . S
C132 C135 1.382 . S
C133 C131 1.384 . S
C133 C134 1.381 . S
C133 H160 0.930 . S
C134 C133 1.381 . S
C134 C136 1.381 . S
C134 C137 1.487 . S
C135 C132 1.382 . S
C135 C136 1.387 . S
C135 H161 0.930 . S
C136 C134 1.381 . S
C136 C135 1.387 . S
C136 H162 0.931 . S
C137 C134 1.487 . S
C137 C144 1.399 . S
C137 N175 1.343 . S
C138 C139 1.384 . S
C138 C140 1.384 . S
C138 H163 0.931 . S
C139 C138 1.384 . S
C139 C142 1.382 . S
C140 C138 1.384 . S
C140 C141 1.381 . S
C140 H164 0.930 . S
C141 C140 1.381 . S
C141 C143 1.381 . S
C141 C144 1.487 . S
C142 C139 1.382 . S
C142 C143 1.387 . S
C142 H165 0.930 . S
C143 C141 1.381 . S
C143 C142 1.387 . S
C143 H166 0.931 . S
C144 C137 1.399 . S
C144 C141 1.487 . S
C144 N176 1.343 . S
C145 C146 1.384 . S
C145 C147 1.384 . S
C145 H167 0.931 . S
C146 C145 1.384 . S
C146 C149 1.382 . S
C147 C145 1.384 . S
C147 C148 1.381 . S
C147 H168 0.930 . S
C148 C147 1.381 . S
C148 C150 1.381 . S
C148 C151 1.487 . S
C149 C146 1.382 . S
C149 C150 1.387 . S
C149 H169 0.930 . S
C150 C148 1.381 . S
C150 C149 1.387 . S
C150 H170 0.931 . S
C151 C148 1.487 . S
C151 C158 1.399 . S
C151 N176 1.343 . S
C152 C153 1.384 . S
C152 C154 1.384 . S
C152 H171 0.931 . S
C153 C152 1.384 . S
C153 C156 1.382 . S
C154 C152 1.384 . S
C154 C155 1.381 . S
C154 H172 0.930 . S
C155 C154 1.381 . S
C155 C157 1.381 . S
C155 C158 1.487 . S
C156 C153 1.382 . S
C156 C157 1.387 . S
C156 H173 0.930 . S
C157 C155 1.381 . S
C157 C156 1.387 . S
C157 H174 0.931 . S
C158 C151 1.399 . S
C158 C155 1.487 . S
C158 N175 1.343 . S
H159 C131 0.931 . S
H160 C133 0.930 . S
H161 C135 0.930 . S
H162 C136 0.931 . S
H163 C138 0.931 . S
H164 C140 0.930 . S
H165 C142 0.930 . S
H166 C143 0.931 . S
H167 C145 0.931 . S
H168 C147 0.930 . S
H169 C149 0.930 . S
H170 C150 0.931 . S
H171 C152 0.931 . S
H172 C154 0.930 . S
H173 C156 0.930 . S
H174 C157 0.931 . S
N175 C137 1.343 . S
N175 C158 1.343 . S
N176 C144 1.343 . S
N176 C151 1.343 . S
H177 C178 0.951 . S
C178 H177 0.951 . S
C178 C184 1.265 1_455 S
H179 C184 0.950 . S
H180 C188 0.949 . S
H181 C189 0.950 . S
H182 C190 0.951 . S
H183 C191 0.951 . S
C184 C178 1.265 1_655 S
C184 H179 0.950 . S
C184 C185 1.475 . S
C185 C184 1.475 . S
C185 C186 1.410 . S
C185 C202 1.385 1_655 S
C186 C185 1.410 . S
C186 C187 1.438 . S
C186 C191 1.429 . S
C187 C186 1.438 . S
C187 C188 1.428 . S
C187 C200 1.394 1_655 S
C188 H180 0.949 . S
C188 C187 1.428 . S
C188 C189 1.345 . S
C189 H181 0.950 . S
C189 C188 1.345 . S
C189 C190 1.424 . S
C190 H182 0.951 . S
C190 C189 1.424 . S
C190 C191 1.347 . S
C191 H183 0.951 . S
C191 C186 1.429 . S
C191 C190 1.347 . S
H192 C193 0.955 . S
C193 H192 0.955 . S
C193 C199 1.259 1_655 S
H194 C199 0.950 . S
H195 C203 0.949 . S
H196 C204 0.950 . S
H197 C205 0.951 . S
H198 C206 0.951 . S
C199 C193 1.259 1_455 S
C199 H194 0.950 . S
C199 C200 1.478 . S
C200 C187 1.394 1_455 S
C200 C199 1.478 . S
C200 C201 1.397 . S
C201 C200 1.397 . S
C201 C202 1.438 . S
C201 C206 1.429 . S
C202 C185 1.385 1_455 S
C202 C201 1.438 . S
C202 C203 1.428 . S
C203 H195 0.949 . S
C203 C202 1.428 . S
C203 C204 1.345 . S
C204 H196 0.950 . S
C204 C203 1.345 . S
C204 C205 1.424 . S
C205 H197 0.951 . S
C205 C204 1.424 . S
C205 C206 1.347 . S
C206 H198 0.951 . S
C206 C201 1.429 . S
C206 C205 1.347 . S
H207 C208 0.951 . S
C208 H207 0.951 . S
C208 C214 1.257 . S
H209 C214 0.949 1_565 S
H210 C218 0.949 . S
H211 C219 0.950 . S
H212 C220 0.951 . S
H213 C221 0.951 . S
C214 C208 1.257 . S
C214 H209 0.949 1_545 S
C214 C215 1.487 . S
C215 C214 1.487 . S
C215 C216 1.397 1_545 S
C215 C232 1.394 . S
C216 C215 1.397 1_565 S
C216 C217 1.438 . S
C216 C221 1.429 . S
C217 C216 1.438 . S
C217 C218 1.428 . S
C217 C230 1.394 1_565 S
C218 H210 0.949 . S
C218 C217 1.428 . S
C218 C219 1.345 . S
C219 H211 0.950 . S
C219 C218 1.345 . S
C219 C220 1.424 . S
C220 H212 0.951 . S
C220 C219 1.424 . S
C220 C221 1.347 . S
C221 H213 0.951 . S
C221 C216 1.429 . S
C221 C220 1.347 . S
H222 C223 0.951 1_565 S
C223 H222 0.951 1_545 S
C223 C229 1.265 . S
H224 C229 0.950 . S
H225 C233 0.949 . S
H226 C234 0.950 . S
H227 C235 0.951 . S
H228 C236 0.951 . S
C229 C223 1.265 . S
C229 H224 0.950 . S
C229 C230 1.478 . S
C230 C217 1.394 1_545 S
C230 C229 1.478 . S
C230 C231 1.397 . S
C231 C230 1.397 . S
C231 C232 1.438 . S
C231 C236 1.429 . S
C232 C215 1.394 . S
C232 C231 1.438 . S
C232 C233 1.428 . S
C233 H225 0.949 . S
C233 C232 1.428 . S
C233 C234 1.345 . S
C234 H226 0.950 . S
C234 C233 1.345 . S
C234 C235 1.424 . S
C235 H227 0.951 . S
C235 C234 1.424 . S
C235 C236 1.347 . S
C236 H228 0.951 . S
C236 C231 1.429 . S
C236 C235 1.347 . S
H237 C238 0.951 . S
C238 H237 0.951 . S
C238 C244 1.265 . S
H239 C244 0.950 . S
H240 C248 0.949 . S
H241 C249 0.950 . S
H242 C250 0.951 . S
H243 C251 0.951 . S
C244 C238 1.265 . S
C244 H239 0.950 . S
C244 C245 1.478 . S
C245 C244 1.478 . S
C245 C246 1.397 . S
C245 C262 1.394 . S
C246 C245 1.397 . S
C246 C247 1.438 . S
C246 C251 1.429 . S
C247 C246 1.438 . S
C247 C248 1.428 . S
C247 C260 1.394 . S
C248 H240 0.949 . S
C248 C247 1.428 . S
C248 C249 1.345 . S
C249 H241 0.950 . S
C249 C248 1.345 . S
C249 C250 1.424 . S
C250 H242 0.951 . S
C250 C249 1.424 . S
C250 C251 1.347 . S
C251 H243 0.951 . S
C251 C246 1.429 . S
C251 C250 1.347 . S
H252 C253 0.951 . S
C253 H252 0.951 . S
C253 C259 1.265 . S
H254 C259 0.950 . S
H255 C263 0.949 . S
H256 C264 0.950 . S
H257 C265 0.951 . S
H258 C266 0.951 . S
C259 C253 1.265 . S
C259 H254 0.950 . S
C259 C260 1.478 . S
C260 C247 1.394 . S
C260 C259 1.478 . S
C260 C261 1.397 . S
C261 C260 1.397 . S
C261 C262 1.438 . S
C261 C266 1.429 . S
C262 C245 1.394 . S
C262 C261 1.438 . S
C262 C263 1.428 . S
C263 H255 0.949 . S
C263 C262 1.428 . S
C263 C264 1.345 . S
C264 H256 0.950 . S
C264 C263 1.345 . S
C264 C265 1.424 . S
C265 H257 0.951 . S
C265 C264 1.424 . S
C265 C266 1.347 . S
C266 H258 0.951 . S
C266 C261 1.429 . S
C266 C265 1.347 . S
H267 C268 0.951 . S
C268 H267 0.951 . S
C268 C274 1.265 1_655 S
H269 C274 0.950 . S
H270 C278 0.949 . S
H271 C279 0.950 . S
H272 C280 0.951 . S
H273 C281 0.951 . S
C274 C268 1.265 1_455 S
C274 H269 0.950 . S
C274 C275 1.478 . S
C275 C274 1.478 . S
C275 C276 1.397 . S
C275 C292 1.394 1_455 S
C276 C275 1.397 . S
C276 C277 1.438 . S
C276 C281 1.429 . S
C277 C276 1.438 . S
C277 C278 1.428 . S
C277 C290 1.394 1_455 S
C278 H270 0.949 . S
C278 C277 1.428 . S
C278 C279 1.345 . S
C279 H271 0.950 . S
C279 C278 1.345 . S
C279 C280 1.424 . S
C280 H272 0.951 . S
C280 C279 1.424 . S
C280 C281 1.347 . S
C281 H273 0.951 . S
C281 C276 1.429 . S
C281 C280 1.347 . S
H282 C283 0.951 . S
C283 H282 0.951 . S
C283 C289 1.265 1_455 S
H284 C289 0.950 . S
H285 C293 0.949 . S
H286 C294 0.950 . S
H287 C295 0.951 . S
H288 C296 0.951 . S
C289 C283 1.265 1_655 S
C289 H284 0.950 . S
C289 C290 1.478 . S
C290 C277 1.394 1_655 S
C290 C289 1.478 . S
C290 C291 1.397 . S
C291 C290 1.397 . S
C291 C292 1.438 . S
C291 C296 1.429 . S
C292 C275 1.394 1_655 S
C292 C291 1.438 . S
C292 C293 1.428 . S
C293 H285 0.949 . S
C293 C292 1.428 . S
C293 C294 1.345 . S
C294 H286 0.950 . S
C294 C293 1.345 . S
C294 C295 1.424 . S
C295 H287 0.951 . S
C295 C294 1.424 . S
C295 C296 1.347 . S
C296 H288 0.951 . S
C296 C291 1.429 . S
C296 C295 1.347 . S
H297 C298 0.951 . S
C298 H297 0.951 . S
C298 C304 1.265 1_565 S
H299 C304 0.950 . S
H300 C308 0.949 . S
H301 C309 0.950 . S
H302 C310 0.951 . S
H303 C311 0.951 . S
C304 C298 1.265 1_545 S
C304 H299 0.950 . S
C304 C305 1.478 . S
C305 C304 1.478 . S
C305 C306 1.397 . S
C305 C322 1.394 1_545 S
C306 C305 1.397 . S
C306 C307 1.438 . S
C306 C311 1.429 . S
C307 C306 1.438 . S
C307 C308 1.428 . S
C307 C320 1.393 . S
C308 H300 0.949 . S
C308 C307 1.428 . S
C308 C309 1.345 . S
C309 H301 0.950 . S
C309 C308 1.345 . S
C309 C310 1.424 . S
C310 H302 0.951 . S
C310 C309 1.424 . S
C310 C311 1.347 . S
C311 H303 0.951 . S
C311 C306 1.429 . S
C311 C310 1.347 . S
H312 C313 0.951 . S
C313 H312 0.951 . S
C313 C319 1.265 1_545 S
H314 C319 0.950 . S
H315 C323 0.949 . S
H316 C324 0.950 . S
H317 C325 0.951 . S
H318 C326 0.951 . S
C319 C313 1.265 1_565 S
C319 H314 0.950 . S
C319 C320 1.479 1_565 S
C320 C307 1.393 . S
C320 C319 1.479 1_545 S
C320 C321 1.397 1_545 S
C321 C320 1.397 1_565 S
C321 C322 1.438 . S
C321 C326 1.429 . S
C322 C305 1.394 1_565 S
C322 C321 1.438 . S
C322 C323 1.428 . S
C323 H315 0.949 . S
C323 C322 1.428 . S
C323 C324 1.345 . S
C324 H316 0.950 . S
C324 C323 1.345 . S
C324 C325 1.424 . S
C325 H317 0.951 . S
C325 C324 1.424 . S
C325 C326 1.347 . S
C326 H318 0.951 . S
C326 C321 1.429 . S
C326 C325 1.347 . S
H327 C328 0.951 . S
C328 H327 0.951 . S
C328 C334 1.265 . S
H329 C334 0.950 . S
H330 C338 0.949 . S
H331 C339 0.950 . S
H332 C340 0.951 . S
H333 C341 0.951 . S
C334 C328 1.265 . S
C334 H329 0.950 . S
C334 C335 1.478 . S
C335 C334 1.478 . S
C335 C336 1.397 . S
C335 C352 1.394 . S
C336 C335 1.397 . S
C336 C337 1.438 . S
C336 C341 1.429 . S
C337 C336 1.438 . S
C337 C338 1.428 . S
C337 C350 1.394 . S
C338 H330 0.949 . S
C338 C337 1.428 . S
C338 C339 1.345 . S
C339 H331 0.950 . S
C339 C338 1.345 . S
C339 C340 1.424 . S
C340 H332 0.951 . S
C340 C339 1.424 . S
C340 C341 1.347 . S
C341 H333 0.951 . S
C341 C336 1.429 . S
C341 C340 1.347 . S
H342 C343 0.951 . S
C343 H342 0.951 . S
C343 C349 1.265 . S
H344 C349 0.950 . S
H345 C353 0.949 . S
H346 C354 0.950 . S
H347 C355 0.951 . S
H348 C356 0.951 . S
C349 C343 1.265 . S
C349 H344 0.950 . S
C349 C350 1.478 . S
C350 C337 1.394 . S
C350 C349 1.478 . S
C350 C351 1.397 . S
C351 C350 1.397 . S
C351 C352 1.438 . S
C351 C356 1.429 . S
C352 C335 1.394 . S
C352 C351 1.438 . S
C352 C353 1.428 . S
C353 H345 0.949 . S
C353 C352 1.428 . S
C353 C354 1.345 . S
C354 H346 0.950 . S
C354 C353 1.345 . S
C354 C355 1.424 . S
C355 H347 0.951 . S
C355 C354 1.424 . S
C355 C356 1.347 . S
C356 H348 0.951 . S
C356 C351 1.429 . S
C356 C355 1.347 . S
H357 C358 0.951 1_545 S
C358 H357 0.951 1_565 S
C358 C364 1.265 . S
H359 C364 0.950 . S
H360 C368 0.949 . S
H361 C369 0.950 . S
H362 C370 0.951 . S
H363 C371 0.951 . S
C364 C358 1.265 . S
C364 H359 0.950 . S
C364 C365 1.478 . S
C365 C364 1.478 . S
C365 C366 1.397 1_565 S
C365 C382 1.394 . S
C366 C365 1.397 1_545 S
C366 C367 1.438 . S
C366 C371 1.429 . S
C367 C366 1.438 . S
C367 C368 1.428 . S
C367 C380 1.394 . S
C368 H360 0.949 . S
C368 C367 1.428 . S
C368 C369 1.345 . S
C369 H361 0.950 . S
C369 C368 1.345 . S
C369 C370 1.424 . S
C370 H362 0.951 . S
C370 C369 1.424 . S
C370 C371 1.347 . S
C371 H363 0.951 . S
C371 C366 1.429 . S
C371 C370 1.347 . S
H372 C373 0.951 . S
C373 H372 0.951 . S
C373 C379 1.268 1_565 S
H374 C379 0.950 . S
H375 C383 0.949 . S
H376 C384 0.950 . S
H377 C385 0.951 . S
H378 C386 0.951 . S
C379 C373 1.268 1_545 S
C379 H374 0.950 . S
C379 C380 1.478 . S
C380 C367 1.394 . S
C380 C379 1.478 . S
C380 C381 1.397 1_545 S
C381 C380 1.397 1_565 S
C381 C382 1.438 . S
C381 C386 1.429 . S
C382 C365 1.394 . S
C382 C381 1.438 . S
C382 C383 1.428 . S
C383 H375 0.949 . S
C383 C382 1.428 . S
C383 C384 1.345 . S
C384 H376 0.950 . S
C384 C383 1.345 . S
C384 C385 1.424 . S
C385 H377 0.951 . S
C385 C384 1.424 . S
C385 C386 1.347 . S
C386 H378 0.951 . S
C386 C381 1.429 . S
C386 C385 1.347 . S
H387 C388 0.951 . S
C388 H387 0.951 . S
C388 C394 1.265 . S
H389 C394 0.950 . S
H390 C398 0.949 . S
H391 C399 0.950 . S
H392 C400 0.951 . S
H393 C401 0.951 . S
C394 C388 1.265 . S
C394 H389 0.950 . S
C394 C395 1.478 1_554 S
C395 C394 1.478 1_556 S
C395 C396 1.397 . S
C395 C412 1.394 . S
C396 C395 1.397 . S
C396 C397 1.438 . S
C396 C401 1.429 . S
C397 C396 1.438 . S
C397 C398 1.428 . S
C397 C410 1.394 . S
C398 H390 0.949 . S
C398 C397 1.428 . S
C398 C399 1.345 . S
C399 H391 0.950 . S
C399 C398 1.345 . S
C399 C400 1.424 . S
C400 H392 0.951 . S
C400 C399 1.424 . S
C400 C401 1.347 . S
C401 H393 0.951 . S
C401 C396 1.429 . S
C401 C400 1.347 . S
H402 C403 0.951 . S
C403 H402 0.951 . S
C403 C409 1.265 . S
H404 C409 0.950 . S
H405 C413 0.949 . S
H406 C414 0.950 . S
H407 C415 0.951 . S
H408 C416 0.951 . S
C409 C403 1.265 . S
C409 H404 0.950 . S
C409 C410 1.478 . S
C410 C397 1.394 . S
C410 C409 1.478 . S
C410 C411 1.397 . S
C411 C410 1.397 . S
C411 C412 1.438 . S
C411 C416 1.429 . S
C412 C395 1.394 . S
C412 C411 1.438 . S
C412 C413 1.428 1_556 S
C413 H405 0.949 . S
C413 C412 1.428 1_554 S
C413 C414 1.345 . S
C414 H406 0.950 . S
C414 C413 1.345 . S
C414 C415 1.424 . S
C415 H407 0.951 . S
C415 C414 1.424 . S
C415 C416 1.347 1_554 S
C416 H408 0.951 . S
C416 C411 1.429 . S
C416 C415 1.347 1_556 S
H417 C418 0.960 . S
C418 H417 0.960 . S
C418 C424 1.255 1_655 S
H419 C424 0.950 . S
H420 C428 0.949 . S
H421 C429 0.944 . S
H422 C430 0.951 . S
H423 C431 0.951 . S
C424 C418 1.255 1_455 S
C424 H419 0.950 . S
C424 C425 1.478 . S
C425 C424 1.478 . S
C425 C426 1.397 . S
C425 C442 1.394 . S
C426 C425 1.397 . S
C426 C427 1.437 . S
C426 C431 1.429 . S
C427 C426 1.437 . S
C427 C428 1.430 1_455 S
C427 C440 1.393 1_455 S
C428 H420 0.949 . S
C428 C427 1.430 1_655 S
C428 C429 1.345 1_655 S
C429 H421 0.944 . S
C429 C428 1.345 1_455 S
C429 C430 1.424 . S
C430 H422 0.951 . S
C430 C429 1.424 . S
C430 C431 1.347 . S
C431 H423 0.951 . S
C431 C426 1.429 . S
C431 C430 1.347 . S
H432 C433 0.951 . S
C433 H432 0.951 . S
C433 C439 1.265 1_455 S
H434 C439 0.950 . S
H435 C443 0.949 . S
H436 C444 0.950 . S
H437 C445 0.951 . S
H438 C446 0.951 . S
C439 C433 1.265 1_655 S
C439 H434 0.950 . S
C439 C440 1.478 . S
C440 C427 1.393 1_655 S
C440 C439 1.478 . S
C440 C441 1.397 . S
C441 C440 1.397 . S
C441 C442 1.438 1_655 S
C441 C446 1.429 . S
C442 C425 1.394 . S
C442 C441 1.438 1_455 S
C442 C443 1.428 . S
C443 H435 0.949 . S
C443 C442 1.428 . S
C443 C444 1.345 . S
C444 H436 0.950 . S
C444 C443 1.345 . S
C444 C445 1.424 1_455 S
C445 H437 0.951 . S
C445 C444 1.424 1_655 S
C445 C446 1.347 . S
C446 H438 0.951 . S
C446 C441 1.429 . S
C446 C445 1.347 . S
H447 C448 0.951 . S
C448 H447 0.951 . S
C448 C454 1.265 . S
H449 C454 0.950 . S
H450 C458 0.949 . S
H451 C459 0.950 . S
H452 C460 0.951 . S
H453 C461 0.951 . S
C454 C448 1.265 . S
C454 H449 0.950 . S
C454 C455 1.478 . S
C455 C454 1.478 . S
C455 C456 1.397 . S
C455 C472 1.394 1_545 S
C456 C455 1.397 . S
C456 C457 1.438 . S
C456 C461 1.429 . S
C457 C456 1.438 . S
C457 C458 1.428 . S
C457 C470 1.394 . S
C458 H450 0.949 . S
C458 C457 1.428 . S
C458 C459 1.345 . S
C459 H451 0.950 . S
C459 C458 1.345 . S
C459 C460 1.424 . S
C460 H452 0.951 . S
C460 C459 1.424 . S
C460 C461 1.347 . S
C461 H453 0.951 . S
C461 C456 1.429 . S
C461 C460 1.347 . S
H462 C463 0.951 . S
C463 H462 0.951 . S
C463 C469 1.265 . S
H464 C469 0.948 1_565 S
H465 C473 0.949 . S
H466 C474 0.950 . S
H467 C475 0.951 . S
H468 C476 0.951 . S
C469 C463 1.265 . S
C469 H464 0.948 1_545 S
C469 C470 1.478 . S
C470 C457 1.394 . S
C470 C469 1.478 . S
C470 C471 1.397 1_545 S
C471 C470 1.397 1_565 S
C471 C472 1.438 . S
C471 C476 1.429 . S
C472 C455 1.394 1_565 S
C472 C471 1.438 . S
C472 C473 1.428 . S
C473 H465 0.949 . S
C473 C472 1.428 . S
C473 C474 1.345 . S
C474 H466 0.950 . S
C474 C473 1.345 . S
C474 C475 1.424 . S
C475 H467 0.951 . S
C475 C474 1.424 . S
C475 C476 1.347 . S
C476 H468 0.951 . S
C476 C471 1.429 . S
C476 C475 1.347 . S
H477 C478 0.951 . S
C478 H477 0.951 . S
C478 C484 1.265 1_554 S
H479 C484 0.950 . S
H480 C488 0.949 . S
H481 C489 0.950 . S
H482 C490 0.951 . S
H483 C491 0.951 . S
C484 C478 1.265 1_556 S
C484 H479 0.950 . S
C484 C485 1.478 . S
C485 C484 1.478 . S
C485 C486 1.397 . S
C485 C502 1.394 . S
C486 C485 1.397 . S
C486 C487 1.438 . S
C486 C491 1.429 . S
C487 C486 1.438 . S
C487 C488 1.428 . S
C487 C500 1.394 . S
C488 H480 0.949 . S
C488 C487 1.428 . S
C488 C489 1.345 . S
C489 H481 0.950 . S
C489 C488 1.345 . S
C489 C490 1.424 . S
C490 H482 0.951 . S
C490 C489 1.424 . S
C490 C491 1.347 . S
C491 H483 0.951 . S
C491 C486 1.429 . S
C491 C490 1.347 . S
H492 C493 0.951 . S
C493 H492 0.951 . S
C493 C499 1.265 . S
H494 C499 0.950 . S
H495 C503 0.949 . S
H496 C504 0.950 . S
H497 C505 0.951 . S
H498 C506 0.951 . S
C499 C493 1.265 . S
C499 H494 0.950 . S
C499 C500 1.478 . S
C500 C487 1.394 . S
C500 C499 1.478 . S
C500 C501 1.397 . S
C501 C500 1.397 . S
C501 C502 1.438 . S
C501 C506 1.429 . S
C502 C485 1.394 . S
C502 C501 1.438 . S
C502 C503 1.428 1_556 S
C503 H495 0.949 . S
C503 C502 1.428 1_554 S
C503 C504 1.345 . S
C504 H496 0.950 . S
C504 C503 1.345 . S
C504 C505 1.424 . S
C505 H497 0.951 . S
C505 C504 1.424 . S
C505 C506 1.347 1_554 S
C506 H498 0.951 . S
C506 C501 1.429 . S
C506 C505 1.347 1_556 S
H507 C508 0.951 . S
C508 H507 0.951 . S
C508 C514 1.265 1_655 S
H509 C514 0.950 . S
H510 C518 0.949 . S
H511 C519 0.950 . S
H512 C520 0.951 . S
H513 C521 0.951 . S
C514 C508 1.265 1_455 S
C514 H509 0.950 . S
C514 C515 1.478 . S
C515 C514 1.478 . S
C515 C516 1.397 . S
C515 C532 1.394 1_455 S
C516 C515 1.397 . S
C516 C517 1.438 . S
C516 C521 1.429 . S
C517 C516 1.438 . S
C517 C518 1.428 . S
C517 C530 1.394 1_455 S
C518 H510 0.949 . S
C518 C517 1.428 . S
C518 C519 1.345 . S
C519 H511 0.950 . S
C519 C518 1.345 . S
C519 C520 1.424 . S
C520 H512 0.951 . S
C520 C519 1.424 . S
C520 C521 1.347 . S
C521 H513 0.951 . S
C521 C516 1.429 . S
C521 C520 1.347 . S
H522 C523 0.951 . S
C523 H522 0.951 . S
C523 C529 1.265 1_455 S
H524 C529 0.950 . S
H525 C533 0.949 . S
H526 C534 0.950 . S
H527 C535 0.951 . S
H528 C536 0.951 . S
C529 C523 1.265 1_655 S
C529 H524 0.950 . S
C529 C530 1.478 . S
C530 C517 1.394 1_655 S
C530 C529 1.478 . S
C530 C531 1.397 . S
C531 C530 1.397 . S
C531 C532 1.438 . S
C531 C536 1.429 . S
C532 C515 1.394 1_655 S
C532 C531 1.438 . S
C532 C533 1.428 . S
C533 H525 0.949 . S
C533 C532 1.428 . S
C533 C534 1.345 . S
C534 H526 0.950 . S
C534 C533 1.345 . S
C534 C535 1.424 . S
C535 H527 0.951 . S
C535 C534 1.424 . S
C535 C536 1.347 . S
C536 H528 0.951 . S
C536 C531 1.429 . S
C536 C535 1.347 . S
C193 C47 1.516 1_655 S
C178 C10 1.515 . S
C208 C17 1.515 . S
C223 C86 1.516 . S
C238 C36 1.512 . S
C253 C153 1.508 . S
C268 C5 1.513 . S
C283 C54 1.519 . S
C313 C107 1.518 . S
C298 C16 1.513 . S
C328 C31 1.512 . S
C343 C132 1.506 . S
C373 C93 1.514 1_565 S
C358 C30 1.515 . S
C388 C3 1.512 . S
C403 C146 1.516 . S
C433 C61 1.508 . S
C418 C18 1.516 1_655 S
C463 C100 1.504 . S
C448 C29 1.512 . S
C493 C139 1.504 . S
C478 C4 1.507 . S
C508 C23 1.513 . S
C523 C40 1.509 . S
