# Generated by pormake.
# Topology zzz, (3,6)-cn, num edge types: 1
# Building blocks:
#     Node 0, Type 0, BuildingBlock: MIDCAF_clean_linker_0, # of connection points: 3
#     Node 1, Type 0, BuildingBlock: MIDCAF_clean_linker_0, # of connection points: 3
#     Node 2, Type 0, BuildingBlock: MIDCAF_clean_linker_0, # of connection points: 3
#     Node 3, Type 0, BuildingBlock: MIDCAF_clean_linker_0, # of connection points: 3
#     Node 4, Type 0, BuildingBlock: MIDCAF_clean_linker_0, # of connection points: 3
#     Node 5, Type 0, BuildingBlock: MIDCAF_clean_linker_0, # of connection points: 3
#     Node 6, Type 0, BuildingBlock: MIDCAF_clean_linker_0, # of connection points: 3
#     Node 7, Type 0, BuildingBlock: MIDCAF_clean_linker_0, # of connection points: 3
#     Node 8, Type 1, BuildingBlock: CUKXOW_clean_sbu_0, # of connection points: 6
#     Node 9, Type 1, BuildingBlock: CUKXOW_clean_sbu_0, # of connection points: 6
#     Node 10, Type 1, BuildingBlock: CUKXOW_clean_sbu_0, # of connection points: 6
#     Node 11, Type 1, BuildingBlock: CUKXOW_clean_sbu_0, # of connection points: 6
#     Edge 12, Type (0, 1), None
#     Edge 13, Type (0, 1), None
#     Edge 14, Type (0, 1), None
#     Edge 15, Type (0, 1), None
#     Edge 16, Type (0, 1), None
#     Edge 17, Type (0, 1), None
#     Edge 18, Type (0, 1), None
#     Edge 19, Type (0, 1), None
#     Edge 20, Type (0, 1), None
#     Edge 21, Type (0, 1), None
#     Edge 22, Type (0, 1), None
#     Edge 23, Type (0, 1), None
#     Edge 24, Type (0, 1), None
#     Edge 25, Type (0, 1), None
#     Edge 26, Type (0, 1), None
#     Edge 27, Type (0, 1), None
#     Edge 28, Type (0, 1), None
#     Edge 29, Type (0, 1), None
#     Edge 30, Type (0, 1), None
#     Edge 31, Type (0, 1), None
#     Edge 32, Type (0, 1), None
#     Edge 33, Type (0, 1), None
#     Edge 34, Type (0, 1), None
#     Edge 35, Type (0, 1), None
# Relax obj value: 0.206
# Max RMSD: 0.231
# Mean RMSD: 0.183
data_MOF--net-zzz--node1-CUKXOW_clean_sbu_0--node2-MIDCAF_clean_linker_0--edge1-none
_symmetry_space_group_name_H-M    P1
_symmetry_Int_Tables_number       1
_symmetry_cell_setting            triclinic
loop_
_symmetry_equiv_pos_as_xyz
'x, y, z'
_cell_length_a     30.546321
_cell_length_b     31.410059
_cell_length_c     11.999925
_cell_angle_alpha  93.502624
_cell_angle_beta   86.465609
_cell_angle_gamma 96.309597
loop_
_atom_site_label
_atom_site_type_symbol
_atom_site_fract_x
_atom_site_fract_y
_atom_site_fract_z
_atom_type_partial_charge
C0 C 0.83636 0.44745 0.5012 0.0
C1 C 0.85715 0.48939 0.51586 0.0
C2 C 0.83867 0.52315 0.47113 0.0
C3 C 0.80396 0.5143 0.39935 0.0
H4 H 0.65496 0.44435 0.14485 0.0
H5 H 0.59129 0.45483 0.03757 0.0
H6 H 0.6778 0.52763 0.80351 0.0
H7 H 0.74117 0.51589 0.90781 0.0
H8 H 0.83933 0.48097 0.86858 0.0
H9 H 0.91414 0.4927 0.78807 0.0
H10 H 0.96196 0.42667 0.05188 0.0
H11 H 0.88715 0.41604 0.13699 0.0
H12 H 0.79084 0.40545 0.40641 0.0
H13 H 0.84942 0.42089 0.53664 0.0
H14 H 0.85362 0.5559 0.48289 0.0
H15 H 0.79437 0.54028 0.35397 0.0
N16 N 0.74305 0.47128 0.20399 0.0
N17 N 0.77843 0.45995 0.02581 0.0
N18 N 0.81505 0.45139 0.18627 0.0
C19 C 0.742 0.46923 0.09004 0.0
C20 C 0.81497 0.45053 0.07395 0.0
C21 C 0.77984 0.46174 0.25176 0.0
C22 C 0.70287 0.47924 0.0343 0.0
C23 C 0.66012 0.4629 0.07108 0.0
C24 C 0.62387 0.46861 0.00936 0.0
C25 C 0.62976 0.49183 0.912 0.0
C26 C 0.67231 0.50966 0.87826 0.0
C27 C 0.70854 0.50288 0.93781 0.0
C28 C 0.85721 0.44752 0.00909 0.0
C29 C 0.86536 0.46743 0.90737 0.0
C30 C 0.90826 0.47381 0.8601 0.0
C31 C 0.9435 0.45965 0.91179 0.0
C32 C 0.93519 0.43783 0.01037 0.0
C33 C 0.89236 0.43157 0.05837 0.0
C34 C 0.78823 0.47163 0.36988 0.0
C35 C 0.80202 0.43865 0.42872 0.0
C36 C 0.90822 0.84771 0.45769 0.0
C37 C 0.94679 0.85 0.51624 0.0
C38 C 0.97426 0.81686 0.49876 0.0
C39 C 0.9674 0.78626 0.41008 0.0
H40 H 1.00076 0.67225 0.15036 0.0
H41 H 0.01697 0.60384 0.05489 0.0
H42 H 0.95594 0.63738 0.76183 0.0
H43 H 0.94152 0.70623 0.85522 0.0
H44 H 0.01976 0.8215 0.85495 0.0
H45 H 0.05409 0.88928 0.78166 0.0
H46 H 0.98674 0.95988 0.0468 0.0
H47 H 0.95241 0.89332 0.11955 0.0
H48 H 0.87479 0.81978 0.31541 0.0
H49 H 0.88608 0.87245 0.47115 0.0
H50 H 1.00388 0.81756 0.54434 0.0
H51 H 0.99259 0.76504 0.38747 0.0
N52 N 0.9497 0.74112 0.17258 0.0
N53 N 0.9729 0.77239 0.00171 0.0
N54 N 0.95186 0.81526 0.15704 0.0
C55 C 0.96349 0.73688 0.06251 0.0
C56 C 0.9674 0.8119 0.04953 0.0
C57 C 0.9427 0.78053 0.21872 0.0
C58 C 0.97012 0.69437 0.00962 0.0
C59 C 0.9906 0.6647 0.06587 0.0
C60 C 0.99996 0.62579 0.01135 0.0
C61 C 0.98758 0.61548 0.90135 0.0
C62 C 0.96553 0.64448 0.84697 0.0
C63 C 0.95751 0.68388 0.90001 0.0
C64 C 0.98341 0.85183 -0.00667 0.0
C65 C 1.01172 0.85148 0.89637 0.0
C66 C 0.0315 0.89014 0.85476 0.0
C67 C 0.02322 0.9295 0.90939 0.0
C68 C 0.99423 0.92989 0.00427 0.0
C69 C 0.97427 0.89158 0.0452 0.0
C70 C 0.93328 0.78901 0.33865 0.0
C71 C 0.90135 0.8171 0.3696 0.0
C72 C 0.67198 0.98572 0.50152 0.0
C73 C 0.65009 0.02145 0.53895 0.0
C74 C 0.66788 0.06233 0.50765 0.0
C75 C 0.70375 0.0669 0.4299 0.0
H76 H 0.86606 0.06084 0.16293 0.0
H77 H 0.93647 0.05549 0.05422 0.0
H78 H 0.86857 0.97127 0.80752 0.0
H79 H 0.79884 0.97765 0.91368 0.0
H80 H 0.71329 0.07597 0.87791 0.0
H81 H 0.65029 0.08758 0.77012 0.0
H82 H 0.5609 0.0292 0.02356 0.0
H83 H 0.62313 0.01805 0.13163 0.0
H84 H 0.71967 0.96162 0.38175 0.0
H85 H 0.65894 0.95387 0.5252 0.0
H86 H 0.65201 0.09046 0.537 0.0
H87 H 0.71349 0.09827 0.39782 0.0
N88 N 0.77575 0.02628 0.21466 0.0
N89 N 0.75058 0.03383 0.03517 0.0
N90 N 0.70256 0.0391 0.19272 0.0
C91 C 0.78365 0.02706 0.10113 0.0
C92 C 0.70996 0.03988 0.08113 0.0
C93 C 0.73471 0.03255 0.25992 0.0
C94 C 0.82712 0.01969 0.0465 0.0
C95 C 0.86654 0.04078 0.08626 0.0
C96 C 0.90665 0.03801 0.0236 0.0
C97 C 0.908 0.01321 0.92185 0.0
C98 C 0.86874 0.99063 0.88541 0.0
C99 C 0.82876 0.99428 0.9462 0.0
C100 C 0.67307 0.04604 0.01268 0.0
C101 C 0.68018 0.06567 0.91024 0.0
C102 C 0.64425 0.07274 0.84955 0.0
C103 C 0.60106 0.05929 0.88952 0.0
C104 C 0.59402 0.03977 -0.00842 0.0
C105 C 0.62965 0.03342 0.05301 0.0
C106 C 0.72147 0.03059 0.37932 0.0
C107 C 0.70735 0.99024 0.4212 0.0
C108 C 0.53853 0.57512 0.04515 0.0
C109 C 0.51679 0.57804 0.94683 0.0
C110 C 0.51485 0.61829 0.90431 0.0
C111 C 0.53578 0.65514 0.9571 0.0
H112 H 0.61635 0.77721 0.90087 0.0
H113 H 0.60304 0.83872 0.79976 0.0
H114 H 0.57347 0.90836 0.11199 0.0
H115 H 0.58691 0.846 0.21459 0.0
H116 H 0.56341 0.74622 0.46299 0.0
H117 H 0.55331 0.69761 0.61569 0.0
H118 H 0.66945 0.63924 0.49071 0.0
H119 H 0.67937 0.68797 0.33882 0.0
H120 H 0.57617 0.60852 0.17361 0.0
H121 H 0.54055 0.54429 0.07931 0.0
H122 H 0.49712 0.62121 0.83023 0.0
H123 H 0.53389 0.68579 0.92195 0.0
N124 N 0.58346 0.72957 0.06501 0.0
N125 N 0.61325 0.76419 0.22748 0.0
N126 N 0.59386 0.68951 0.21615 0.0
C127 C 0.60038 0.76598 0.12106 0.0
C128 C 0.61075 0.72539 0.27372 0.0
C129 C 0.57978 0.69129 0.1123 0.0
C130 C 0.60199 0.8067 0.06541 0.0
C131 C 0.60783 0.80591 0.94831 0.0
C132 C 0.6002 0.84111 0.89033 0.0
C133 C 0.58641 0.87782 0.94813 0.0
C134 C 0.58379 0.88013 0.06572 0.0
C135 C 0.5917 0.84467 0.1243 0.0
C136 C 0.62178 0.72029 0.38877 0.0
C137 C 0.5886 0.72522 0.47321 0.0
C138 C 0.58248 0.69689 0.55975 0.0
C139 C 0.60965 0.66365 0.56188 0.0
C140 C 0.64758 0.66413 0.48969 0.0
C141 C 0.65366 0.69246 0.40349 0.0
C142 C 0.55844 0.6523 0.05448 0.0
C143 C 0.55921 0.61191 0.0985 0.0
C144 C 0.21155 0.56523 0.91909 0.0
C145 C 0.1907 0.5233 0.90478 0.0
C146 C 0.20917 0.48956 0.94966 0.0
C147 C 0.24391 0.49845 0.0213 0.0
H148 H 0.39284 0.56918 0.27624 0.0
H149 H 0.45648 0.55898 0.38401 0.0
H150 H 0.36999 0.48598 0.61772 0.0
H151 H 0.30667 0.49743 0.51295 0.0
H152 H 0.20851 0.53225 0.55202 0.0
H153 H 0.13372 0.52038 0.63265 0.0
H154 H 0.08555 0.58554 0.36772 0.0
H155 H 0.16033 0.5963 0.2825 0.0
H156 H 0.25716 0.60728 0.01347 0.0
H157 H 0.19851 0.59177 0.8835 0.0
H158 H 0.19417 0.45682 0.93816 0.0
H159 H 0.25349 0.47251 0.06685 0.0
N160 N 0.30483 0.54181 0.21659 0.0
N161 N 0.26931 0.55317 0.3946 0.0
N162 N 0.2327 0.56139 0.23391 0.0
C163 C 0.30582 0.54397 0.33056 0.0
C164 C 0.23274 0.56236 0.34624 0.0
C165 C 0.26799 0.55113 0.16862 0.0
C166 C 0.34496 0.53416 0.38658 0.0
C167 C 0.38769 0.55065 0.35005 0.0
C168 C 0.42392 0.54511 0.41205 0.0
C169 C 0.41802 0.5219 0.50945 0.0
C170 C 0.3755 0.50395 0.54296 0.0
C171 C 0.33928 0.51056 0.48312 0.0
C172 C 0.19044 0.56527 0.41095 0.0
C173 C 0.1824 0.54556 0.51298 0.0
C174 C 0.13951 0.53911 0.56031 0.0
C175 C 0.10418 0.55299 0.50836 0.0
C176 C 0.11238 0.57459 0.40943 0.0
C177 C 0.1552 0.58093 0.36136 0.0
C178 C 0.2597 0.54114 0.05049 0.0
C179 C 0.24594 0.57407 -0.00859 0.0
C180 C 0.1402 0.16516 0.9632 0.0
C181 C 0.10165 0.1629 0.90457 0.0
C182 C 0.07425 0.19609 0.92183 0.0
C183 C 0.08111 0.22673 0.01043 0.0
H184 H 0.04728 0.34052 0.27026 0.0
H185 H 0.03092 0.40887 0.36583 0.0
H186 H 0.092 0.37539 0.65888 0.0
H187 H 0.10655 0.30659 0.5654 0.0
H188 H 0.02862 0.1913 0.56578 0.0
H189 H 0.99432 0.12354 0.63916 0.0
H190 H 0.06109 0.05292 0.37299 0.0
H191 H 0.09538 0.11947 0.30012 0.0
H192 H 0.17361 0.19312 0.1055 0.0
H193 H 0.1623 0.14038 0.9499 0.0
H194 H 0.04464 0.19541 0.87616 0.0
H195 H 0.05594 0.24798 0.0329 0.0
N196 N 0.09858 0.27177 0.24807 0.0
N197 N 0.07519 0.24041 0.41872 0.0
N198 N 0.09642 0.19762 0.26345 0.0
C199 C 0.08466 0.27595 0.35807 0.0
C200 C 0.08075 0.20092 0.37086 0.0
C201 C 0.10565 0.23238 0.2019 0.0
C202 C 0.07794 0.31844 0.411 0.0
C203 C 0.05741 0.34807 0.35478 0.0
C204 C 0.04796 0.38695 0.40935 0.0
C205 C 0.06032 0.39726 0.51936 0.0
C206 C 0.08242 0.36829 0.57373 0.0
C207 C 0.09052 0.32892 0.52064 0.0
C208 C 0.06468 0.16097 0.42687 0.0
C209 C 0.03653 0.16132 0.52411 0.0
C210 C 0.01676 0.12266 0.56576 0.0
C211 C 0.0249 0.0833 0.51092 0.0
C212 C 0.05371 0.08291 0.41569 0.0
C213 C 0.07365 0.12121 0.3747 0.0
C214 C 0.11517 0.22394 0.08201 0.0
C215 C 0.14708 0.19581 0.05121 0.0
C216 C 0.38062 0.9516 0.91305 0.0
C217 C 0.39843 0.99249 0.88191 0.0
C218 C 0.37654 0.02821 0.91941 0.0
C219 C 0.34115 0.02366 -0.00032 0.0
H220 H 0.18245 0.95232 0.25793 0.0
H221 H 0.112 0.95739 0.36672 0.0
H222 H 0.17961 0.04212 0.61294 0.0
H223 H 0.24935 0.03603 0.5067 0.0
H224 H 0.33525 0.93812 0.54284 0.0
H225 H 0.39825 0.92654 0.65064 0.0
H226 H 0.48763 0.98508 0.39743 0.0
H227 H 0.42539 0.99622 0.28934 0.0
H228 H 0.33497 0.91561 0.02273 0.0
H229 H 0.39649 0.92348 0.88363 0.0
H230 H 0.38959 0.06008 0.89586 0.0
H231 H 0.32884 0.05227 0.0392 0.0
N232 N 0.27267 0.9874 0.20599 0.0
N233 N 0.29787 0.98001 0.38552 0.0
N234 N 0.34598 0.97501 0.22807 0.0
C235 C 0.26475 0.98658 0.31951 0.0
C236 C 0.33856 0.97419 0.33964 0.0
C237 C 0.31379 0.98137 0.16082 0.0
C238 C 0.22123 0.99376 0.37411 0.0
C239 C 0.18188 0.97243 0.33451 0.0
C240 C 0.14176 0.97504 0.39722 0.0
C241 C 0.14031 0.9999 0.49886 0.0
C242 C 0.17949 0.0227 0.53514 0.0
C243 C 0.21949 0.01922 0.4743 0.0
C244 C 0.37546 0.96814 0.40818 0.0
C245 C 0.36836 0.94848 0.51058 0.0
C246 C 0.40428 0.94143 0.57128 0.0
C247 C 0.44748 0.95493 0.53138 0.0
C248 C 0.45452 0.9745 0.42939 0.0
C249 C 0.41888 0.98083 0.36793 0.0
C250 C 0.32702 0.98329 0.04141 0.0
C251 C 0.34473 0.94699 -0.00926 0.0
C252 C 0.50948 0.43886 0.3762 0.0
C253 C 0.53113 0.43596 0.47467 0.0
C254 C 0.53299 0.39572 0.51732 0.0
C255 C 0.51207 0.35887 0.46453 0.0
H256 H 0.43185 0.23669 0.52078 0.0
H257 H 0.44535 0.17519 0.62168 0.0
H258 H 0.47484 0.10568 0.3092 0.0
H259 H 0.46119 0.16803 0.20682 0.0
H260 H 0.48413 0.26764 0.95858 0.0
H261 H 0.49419 0.31626 0.80591 0.0
H262 H 0.37824 0.3748 0.93153 0.0
H263 H 0.36835 0.32607 0.0834 0.0
H264 H 0.47191 0.40545 0.24763 0.0
H265 H 0.50752 0.46969 0.34195 0.0
H266 H 0.55063 0.39281 0.59157 0.0
H267 H 0.5139 0.32823 0.49982 0.0
N268 N 0.46455 0.28441 0.35656 0.0
N269 N 0.43462 0.24977 0.19427 0.0
N270 N 0.45391 0.32447 0.20559 0.0
C271 C 0.44761 0.24799 0.30057 0.0
C272 C 0.437 0.28857 0.1481 0.0
C273 C 0.46811 0.3227 0.30931 0.0
C274 C 0.44613 0.20726 0.35613 0.0
C275 C 0.44039 0.20802 0.47324 0.0
C276 C 0.44814 0.17282 0.53111 0.0
C277 C 0.46196 0.13615 0.47317 0.0
C278 C 0.4645 0.13388 0.35558 0.0
C279 C 0.45647 0.16932 0.29712 0.0
C280 C 0.42586 0.29367 0.03313 0.0
C281 C 0.45897 0.28867 0.94852 0.0
C282 C 0.46506 0.31701 0.86199 0.0
C283 C 0.43795 0.3503 0.86006 0.0
C284 C 0.40007 0.34988 0.93241 0.0
C285 C 0.39401 0.32154 0.0186 0.0
C286 C 0.48949 0.36169 0.36704 0.0
C287 C 0.4888 0.40207 0.32284 0.0
Tb288 Tb 1.00128 0.96772 0.64171 0.0
C289 C 0.09885 0.00154 0.56937 0.0
Tb290 Tb 0.04705 0.04521 0.77917 0.0
O291 O 1.00273 0.00611 0.49518 0.0
O292 O 1.00039 0.0349 0.65589 0.0
O293 O 0.06765 0.96857 0.56302 0.0
C294 C 0.08544 0.12222 0.84605 0.0
O295 O 0.09547 0.03567 0.63963 0.0
C296 C 0.04327 0.97041 0.86666 0.0
C297 C 0.94946 0.01148 0.85137 0.0
O298 O 0.10118 0.08589 0.85549 0.0
O299 O 0.04775 0.11494 0.80044 0.0
O300 O 0.04551 0.00667 0.92562 0.0
O301 O 0.04791 0.97811 0.76491 0.0
O302 O 0.98069 0.04443 0.85775 0.0
O303 O 0.95281 0.97734 0.78115 0.0
C304 C 0.96296 0.89067 0.57488 0.0
O305 O 0.94715 0.92697 0.56556 0.0
O306 O 1.00067 0.89799 0.6204 0.0
C307 C 1.00498 0.04241 0.55398 0.0
Tb308 Tb 0.51249 0.04694 0.65371 0.0
C309 C 0.60609 0.01608 0.5976 0.0
Tb310 Tb 0.53605 0.96704 0.76726 0.0
O311 O 0.56404 0.0877 0.74002 0.0
O312 O 0.53246 0.03269 0.81077 0.0
O313 O 0.57528 0.03853 0.56429 0.0
C314 C 0.57102 0.91124 0.88426 0.0
O315 O 0.59897 0.98898 0.67932 0.0
C316 C 0.485 0.95193 0.59948 0.0
C317 C 0.44243 0.99788 0.82332 0.0
O318 O 0.56577 0.90759 0.77745 0.0
O319 O 0.55622 0.94637 0.92601 0.0
O320 O 0.48445 0.92634 0.68071 0.0
O321 O 0.51611 0.98131 0.61044 0.0
O322 O 0.47324 0.97542 0.85663 0.0
O323 O 0.44957 0.02499 0.74163 0.0
C324 C 0.47744 0.10274 0.53689 0.0
O325 O 0.48268 0.10634 0.6437 0.0
O326 O 0.4923 0.06766 0.49503 0.0
C327 C 0.56352 0.06216 0.82134 0.0
Tb328 Tb 0.55056 0.54684 0.65933 0.0
C329 C 0.45556 0.51709 0.57791 0.0
Tb330 Tb 0.49714 0.46706 0.76252 0.0
O331 O 0.55463 0.51271 0.49524 0.0
O332 O 0.54925 0.47949 0.64115 0.0
O333 O 0.48746 0.54935 0.58605 0.0
C334 C 0.45494 0.39017 0.80612 0.0
O335 O 0.45495 0.48105 0.63114 0.0
C336 C 0.49873 0.53892 0.88538 0.0
C337 C 0.59219 0.49673 0.84373 0.0
O338 O 0.43953 0.42684 0.82905 0.0
O339 O 0.4941 0.39705 0.75812 0.0
O340 O 0.49317 0.5013 0.92662 0.0
O341 O 0.4985 0.53434 0.78062 0.0
O342 O 0.56026 0.4645 0.83562 0.0
O343 O 0.59281 0.53279 0.79058 0.0
C344 C 0.5927 0.62378 0.61584 0.0
O345 O 0.60817 0.58713 0.59303 0.0
O346 O 0.55351 0.61685 0.6637 0.0
C347 C 0.54908 0.47507 0.53634 0.0
Tb348 Tb 0.98288 0.50743 0.63506 0.0
C349 C 0.04819 0.43674 0.58036 0.0
Tb350 Tb 0.06494 0.50526 0.78567 0.0
O351 O 0.02508 0.53067 0.49133 0.0
O352 O 0.04625 0.53936 0.65351 0.0
O353 O 1.00874 0.449 0.56568 0.0
C354 C 0.14695 0.51607 0.85696 0.0
O355 O 0.07623 0.45625 0.65258 0.0
C356 C 0.98909 0.47031 0.86814 0.0
C357 C 0.99967 0.57598 0.84037 0.0
O358 O 0.12185 0.47985 0.85142 0.0
O359 O 0.12543 0.54616 0.82503 0.0
O360 O 0.02264 0.48184 0.92927 0.0
O361 O 1.00165 0.47347 0.76715 0.0
O362 O 0.03909 0.56366 0.8552 0.0
O363 O 0.97166 0.55653 0.768 0.0
C364 C 0.90086 0.49662 0.56382 0.0
O365 O 0.92599 0.53283 0.56924 0.0
O366 O 0.92237 0.46654 0.59591 0.0
C367 C 0.05865 0.54228 0.5523 0.0
loop_
_geom_bond_atom_site_label_1
_geom_bond_atom_site_label_2
_geom_bond_distance
_geom_bond_site_symmetry_2
_ccdc_geom_bond_type
C0 C1 1.384 . S
C0 H13 0.947 . S
C0 C35 1.382 . S
C1 C0 1.384 . S
C1 C2 1.378 . S
C2 C1 1.378 . S
C2 C3 1.378 . S
C2 H14 0.952 . S
C3 C2 1.378 . S
C3 H15 0.950 . S
C3 C34 1.383 . S
H4 C23 0.947 . S
H5 C24 0.946 . S
H6 C26 0.953 . S
H7 C27 0.945 . S
H8 C29 0.952 . S
H9 C30 0.949 . S
H10 C32 0.950 . S
H11 C33 0.948 . S
H12 C35 0.951 . S
H13 C0 0.947 . S
H14 C2 0.952 . S
H15 C3 0.950 . S
N16 C19 1.382 . S
N16 C21 1.363 . S
N17 C19 1.371 1_556 S
N17 C20 1.372 . S
N18 C20 1.361 1_554 S
N18 C21 1.377 . S
C19 N16 1.382 . S
C19 N17 1.371 1_554 S
C19 C22 1.480 1_554 S
C20 N17 1.372 . S
C20 N18 1.361 1_556 S
C20 C28 1.457 . S
C21 N16 1.363 . S
C21 N18 1.377 . S
C21 C34 1.479 . S
C22 C19 1.480 1_556 S
C22 C23 1.383 1_556 S
C22 C27 1.385 . S
C23 H4 0.947 . S
C23 C22 1.383 1_554 S
C23 C24 1.388 . S
C24 H5 0.946 . S
C24 C23 1.388 . S
C24 C25 1.384 1_554 S
C25 C24 1.384 1_556 S
C25 C26 1.377 . S
C26 H6 0.953 . S
C26 C25 1.377 . S
C26 C27 1.369 . S
C27 H7 0.945 . S
C27 C22 1.385 . S
C27 C26 1.369 . S
C28 C20 1.457 . S
C28 C29 1.372 . S
C28 C33 1.364 . S
C29 H8 0.952 . S
C29 C28 1.372 . S
C29 C30 1.389 . S
C30 H9 0.949 . S
C30 C29 1.389 . S
C30 C31 1.387 . S
C31 C30 1.387 . S
C31 C32 1.372 . S
C32 H10 0.950 . S
C32 C31 1.372 . S
C32 C33 1.379 . S
C33 H11 0.948 . S
C33 C28 1.364 . S
C33 C32 1.379 . S
C34 C3 1.383 . S
C34 C21 1.479 . S
C34 C35 1.398 . S
C35 C0 1.382 . S
C35 H12 0.951 . S
C35 C34 1.398 . S
C36 C37 1.384 . S
C36 H49 0.947 . S
C36 C71 1.382 . S
C37 C36 1.384 . S
C37 C38 1.378 . S
C38 C37 1.378 . S
C38 C39 1.378 . S
C38 H50 0.952 . S
C39 C38 1.378 . S
C39 H51 0.950 . S
C39 C70 1.383 . S
H40 C59 0.947 . S
H41 C60 0.946 . S
H42 C62 0.953 . S
H43 C63 0.945 . S
H44 C65 0.952 . S
H45 C66 0.949 . S
H46 C68 0.950 . S
H47 C69 0.948 . S
H48 C71 0.951 . S
H49 C36 0.947 . S
H50 C38 0.952 . S
H51 C39 0.950 . S
N52 C55 1.382 1_554 S
N52 C57 1.363 . S
N53 C55 1.371 . S
N53 C56 1.372 . S
N54 C56 1.361 1_554 S
N54 C57 1.377 . S
C55 N52 1.382 1_556 S
C55 N53 1.371 . S
C55 C58 1.480 . S
C56 N53 1.372 . S
C56 N54 1.361 1_556 S
C56 C64 1.457 . S
C57 N52 1.363 . S
C57 N54 1.377 . S
C57 C70 1.479 . S
C58 C55 1.480 . S
C58 C59 1.383 1_556 S
C58 C63 1.385 . S
C59 H40 0.947 . S
C59 C58 1.383 1_554 S
C59 C60 1.388 . S
C60 H41 0.946 . S
C60 C59 1.388 . S
C60 C61 1.384 1_554 S
C61 C60 1.384 1_556 S
C61 C62 1.377 . S
C62 H42 0.953 . S
C62 C61 1.377 . S
C62 C63 1.369 . S
C63 H43 0.945 . S
C63 C58 1.385 . S
C63 C62 1.369 . S
C64 C56 1.457 . S
C64 C65 1.372 . S
C64 C69 1.364 . S
C65 H44 0.952 . S
C65 C64 1.372 . S
C65 C66 1.389 . S
C66 H45 0.949 . S
C66 C65 1.389 . S
C66 C67 1.387 . S
C67 C66 1.387 . S
C67 C68 1.372 . S
C68 H46 0.950 . S
C68 C67 1.372 . S
C68 C69 1.379 . S
C69 H47 0.948 . S
C69 C64 1.364 . S
C69 C68 1.379 . S
C70 C39 1.383 . S
C70 C57 1.479 . S
C70 C71 1.398 . S
C71 C36 1.382 . S
C71 H48 0.951 . S
C71 C70 1.398 . S
C72 C73 1.384 1_565 S
C72 H85 0.947 . S
C72 C107 1.381 1_565 S
C73 C72 1.384 1_545 S
C73 C74 1.378 . S
C74 C73 1.378 . S
C74 C75 1.378 . S
C74 H86 0.952 . S
C75 C74 1.378 . S
C75 H87 0.950 . S
C75 C106 1.383 . S
H76 C95 0.947 . S
H77 C96 0.955 . S
H78 C98 0.953 . S
H79 C99 0.945 . S
H80 C101 0.946 1_565 S
H81 C102 0.949 . S
H82 C104 0.950 . S
H83 C105 0.948 1_554 S
H84 C107 0.951 1_565 S
H85 C72 0.947 . S
H86 C74 0.952 . S
H87 C75 0.950 . S
N88 C91 1.382 . S
N88 C93 1.363 . S
N89 C91 1.371 . S
N89 C92 1.372 . S
N90 C92 1.361 . S
N90 C93 1.377 . S
C91 N88 1.382 . S
C91 N89 1.371 . S
C91 C94 1.480 . S
C92 N89 1.372 . S
C92 N90 1.361 . S
C92 C100 1.457 1_554 S
C93 N88 1.363 . S
C93 N90 1.377 . S
C93 C106 1.479 . S
C94 C91 1.480 . S
C94 C95 1.383 . S
C94 C99 1.385 1_554 S
C95 H76 0.947 . S
C95 C94 1.383 . S
C95 C96 1.383 1_545 S
C96 H77 0.955 . S
C96 C95 1.383 1_565 S
C96 C97 1.381 1_564 S
C97 C96 1.381 1_546 S
C97 C98 1.377 . S
C98 H78 0.953 . S
C98 C97 1.377 . S
C98 C99 1.369 . S
C99 H79 0.945 . S
C99 C94 1.385 1_556 S
C99 C98 1.369 . S
C100 C92 1.457 1_556 S
C100 C101 1.377 . S
C100 C105 1.364 . S
C101 H80 0.946 1_545 S
C101 C100 1.377 . S
C101 C102 1.390 1_545 S
C102 H81 0.949 . S
C102 C101 1.390 1_565 S
C102 C103 1.387 1_565 S
C103 C102 1.387 1_545 S
C103 C104 1.372 . S
C104 H82 0.950 . S
C104 C103 1.372 . S
C104 C105 1.379 . S
C105 H83 0.948 1_556 S
C105 C100 1.364 . S
C105 C104 1.379 . S
C106 C75 1.383 . S
C106 C93 1.479 . S
C106 C107 1.398 . S
C107 C72 1.381 1_545 S
C107 H84 0.951 1_545 S
C107 C106 1.398 . S
C108 C109 1.384 . S
C108 H121 0.947 . S
C108 C143 1.382 . S
C109 C108 1.384 . S
C109 C110 1.378 . S
C110 C109 1.378 . S
C110 C111 1.378 . S
C110 H122 0.952 . S
C111 C110 1.378 . S
C111 H123 0.950 . S
C111 C142 1.383 . S
H112 C131 0.947 . S
H113 C132 0.946 . S
H114 C134 0.953 . S
H115 C135 0.945 . S
H116 C137 0.952 . S
H117 C138 0.949 . S
H118 C140 0.950 . S
H119 C141 0.948 . S
H120 C143 0.951 1_554 S
H121 C108 0.947 . S
H122 C110 0.952 . S
H123 C111 0.950 . S
N124 C127 1.382 1_556 S
N124 C129 1.361 1_556 S
N125 C127 1.371 . S
N125 C128 1.372 . S
N126 C128 1.361 . S
N126 C129 1.383 . S
C127 N124 1.382 1_554 S
C127 N125 1.371 . S
C127 C130 1.480 . S
C128 N125 1.372 . S
C128 N126 1.361 . S
C128 C136 1.457 . S
C129 N124 1.361 1_554 S
C129 N126 1.383 . S
C129 C142 1.474 1_554 S
C130 C127 1.480 . S
C130 C131 1.383 1_554 S
C130 C135 1.385 . S
C131 H112 0.947 . S
C131 C130 1.383 1_556 S
C131 C132 1.388 . S
C132 H113 0.946 . S
C132 C131 1.388 . S
C132 C133 1.384 . S
C133 C132 1.384 . S
C133 C134 1.377 1_556 S
C134 H114 0.953 . S
C134 C133 1.377 1_554 S
C134 C135 1.369 . S
C135 H115 0.945 . S
C135 C130 1.385 . S
C135 C134 1.369 . S
C136 C128 1.457 . S
C136 C137 1.372 . S
C136 C141 1.364 . S
C137 H116 0.952 . S
C137 C136 1.372 . S
C137 C138 1.389 . S
C138 H117 0.949 . S
C138 C137 1.389 . S
C138 C139 1.387 . S
C139 C138 1.387 . S
C139 C140 1.372 . S
C140 H118 0.950 . S
C140 C139 1.372 . S
C140 C141 1.379 . S
C141 H119 0.948 . S
C141 C136 1.364 . S
C141 C140 1.379 . S
C142 C111 1.383 . S
C142 C129 1.474 1_556 S
C142 C143 1.398 . S
C143 C108 1.382 . S
C143 H120 0.951 1_556 S
C143 C142 1.398 . S
C144 C145 1.384 1_554 S
C144 H157 0.947 . S
C144 C179 1.382 . S
C145 C144 1.384 1_556 S
C145 C146 1.378 . S
C146 C145 1.378 . S
C146 C147 1.378 1_556 S
C146 H158 0.952 . S
C147 C146 1.378 1_554 S
C147 H159 0.950 . S
C147 C178 1.383 . S
H148 C167 0.947 . S
H149 C168 0.946 . S
H150 C170 0.953 . S
H151 C171 0.945 . S
H152 C173 0.952 . S
H153 C174 0.949 . S
H154 C176 0.950 . S
H155 C177 0.948 . S
H156 C179 0.951 . S
H157 C144 0.947 . S
H158 C146 0.952 . S
H159 C147 0.950 . S
N160 C163 1.382 . S
N160 C165 1.363 . S
N161 C163 1.371 . S
N161 C164 1.372 . S
N162 C164 1.361 . S
N162 C165 1.377 . S
C163 N160 1.382 . S
C163 N161 1.371 . S
C163 C166 1.480 . S
C164 N161 1.372 . S
C164 N162 1.361 . S
C164 C172 1.457 . S
C165 N160 1.363 . S
C165 N162 1.377 . S
C165 C178 1.479 . S
C166 C163 1.480 . S
C166 C167 1.383 . S
C166 C171 1.385 . S
C167 H148 0.947 . S
C167 C166 1.383 . S
C167 C168 1.388 . S
C168 H149 0.946 . S
C168 C167 1.388 . S
C168 C169 1.384 . S
C169 C168 1.384 . S
C169 C170 1.377 . S
C170 H150 0.953 . S
C170 C169 1.377 . S
C170 C171 1.369 . S
C171 H151 0.945 . S
C171 C166 1.385 . S
C171 C170 1.369 . S
C172 C164 1.457 . S
C172 C173 1.372 . S
C172 C177 1.364 . S
C173 H152 0.952 . S
C173 C172 1.372 . S
C173 C174 1.389 . S
C174 H153 0.949 . S
C174 C173 1.389 . S
C174 C175 1.387 . S
C175 C174 1.387 . S
C175 C176 1.372 . S
C176 H154 0.950 . S
C176 C175 1.372 . S
C176 C177 1.379 . S
C177 H155 0.948 . S
C177 C172 1.364 . S
C177 C176 1.379 . S
C178 C147 1.383 . S
C178 C165 1.479 . S
C178 C179 1.398 . S
C179 C144 1.382 . S
C179 H156 0.951 . S
C179 C178 1.398 . S
C180 C181 1.384 1_554 S
C180 H193 0.947 . S
C180 C215 1.382 . S
C181 C180 1.384 1_556 S
C181 C182 1.378 1_556 S
C182 C181 1.378 1_554 S
C182 C183 1.378 . S
C182 H194 0.952 1_554 S
C183 C182 1.378 . S
C183 H195 0.950 . S
C183 C214 1.383 . S
H184 C203 0.947 . S
H185 C204 0.946 . S
H186 C206 0.953 . S
H187 C207 0.945 . S
H188 C209 0.952 . S
H189 C210 0.949 . S
H190 C212 0.950 . S
H191 C213 0.948 . S
H192 C215 0.951 . S
H193 C180 0.947 . S
H194 C182 0.952 1_556 S
H195 C183 0.950 . S
N196 C199 1.382 . S
N196 C201 1.363 . S
N197 C199 1.371 . S
N197 C200 1.372 . S
N198 C200 1.361 . S
N198 C201 1.377 . S
C199 N196 1.382 . S
C199 N197 1.371 . S
C199 C202 1.480 . S
C200 N197 1.372 . S
C200 N198 1.361 . S
C200 C208 1.457 . S
C201 N196 1.363 . S
C201 N198 1.377 . S
C201 C214 1.479 . S
C202 C199 1.480 . S
C202 C203 1.383 . S
C202 C207 1.385 . S
C203 H184 0.947 . S
C203 C202 1.383 . S
C203 C204 1.388 . S
C204 H185 0.946 . S
C204 C203 1.388 . S
C204 C205 1.384 . S
C205 C204 1.384 . S
C205 C206 1.377 . S
C206 H186 0.953 . S
C206 C205 1.377 . S
C206 C207 1.369 . S
C207 H187 0.945 . S
C207 C202 1.385 . S
C207 C206 1.369 . S
C208 C200 1.457 . S
C208 C209 1.372 . S
C208 C213 1.364 . S
C209 H188 0.952 . S
C209 C208 1.372 . S
C209 C210 1.389 . S
C210 H189 0.949 . S
C210 C209 1.389 . S
C210 C211 1.387 . S
C211 C210 1.387 . S
C211 C212 1.372 . S
C212 H190 0.950 . S
C212 C211 1.372 . S
C212 C213 1.379 . S
C213 H191 0.948 . S
C213 C208 1.364 . S
C213 C212 1.379 . S
C214 C183 1.383 . S
C214 C201 1.479 . S
C214 C215 1.398 . S
C215 C180 1.382 . S
C215 H192 0.951 . S
C215 C214 1.398 . S
C216 C217 1.384 . S
C216 H229 0.947 . S
C216 C251 1.382 1_556 S
C217 C216 1.384 . S
C217 C218 1.378 . S
C218 C217 1.378 . S
C218 C219 1.378 1_556 S
C218 H230 0.952 . S
C219 C218 1.378 1_554 S
C219 H231 0.950 . S
C219 C250 1.383 . S
H220 C239 0.947 . S
H221 C240 0.946 . S
H222 C242 0.953 . S
H223 C243 0.945 . S
H224 C245 0.952 . S
H225 C246 0.949 . S
H226 C248 0.950 . S
H227 C249 0.948 . S
H228 C251 0.951 . S
H229 C216 0.947 . S
H230 C218 0.952 . S
H231 C219 0.950 . S
N232 C235 1.382 . S
N232 C237 1.363 . S
N233 C235 1.371 . S
N233 C236 1.372 . S
N234 C236 1.361 . S
N234 C237 1.377 . S
C235 N232 1.382 . S
C235 N233 1.371 . S
C235 C238 1.480 . S
C236 N233 1.372 . S
C236 N234 1.361 . S
C236 C244 1.457 . S
C237 N232 1.363 . S
C237 N234 1.377 . S
C237 C250 1.479 . S
C238 C235 1.480 . S
C238 C239 1.383 . S
C238 C243 1.385 . S
C239 H220 0.947 . S
C239 C238 1.383 . S
C239 C240 1.388 . S
C240 H221 0.946 . S
C240 C239 1.388 . S
C240 C241 1.384 . S
C241 C240 1.384 . S
C241 C242 1.377 . S
C242 H222 0.953 . S
C242 C241 1.377 . S
C242 C243 1.369 . S
C243 H223 0.945 . S
C243 C238 1.385 . S
C243 C242 1.369 . S
C244 C236 1.457 . S
C244 C245 1.372 . S
C244 C249 1.364 . S
C245 H224 0.952 . S
C245 C244 1.372 . S
C245 C246 1.389 . S
C246 H225 0.949 . S
C246 C245 1.389 . S
C246 C247 1.387 . S
C247 C246 1.387 . S
C247 C248 1.372 . S
C248 H226 0.950 . S
C248 C247 1.372 . S
C248 C249 1.379 . S
C249 H227 0.948 . S
C249 C244 1.364 . S
C249 C248 1.379 . S
C250 C219 1.383 . S
C250 C237 1.479 . S
C250 C251 1.398 . S
C251 C216 1.382 1_554 S
C251 H228 0.951 . S
C251 C250 1.398 . S
C252 C253 1.384 . S
C252 H265 0.947 . S
C252 C287 1.382 . S
C253 C252 1.384 . S
C253 C254 1.378 . S
C254 C253 1.378 . S
C254 C255 1.378 . S
C254 H266 0.952 . S
C255 C254 1.378 . S
C255 H267 0.950 . S
C255 C286 1.383 . S
H256 C275 0.947 . S
H257 C276 0.946 . S
H258 C278 0.953 . S
H259 C279 0.945 . S
H260 C281 0.952 . S
H261 C282 0.949 . S
H262 C284 0.950 1_556 S
H263 C285 0.948 . S
H264 C287 0.951 . S
H265 C252 0.947 . S
H266 C254 0.952 . S
H267 C255 0.950 . S
N268 C271 1.382 . S
N268 C273 1.363 . S
N269 C271 1.371 . S
N269 C272 1.372 . S
N270 C272 1.361 . S
N270 C273 1.377 . S
C271 N268 1.382 . S
C271 N269 1.371 . S
C271 C274 1.480 . S
C272 N269 1.372 . S
C272 N270 1.361 . S
C272 C280 1.457 . S
C273 N268 1.363 . S
C273 N270 1.377 . S
C273 C286 1.479 . S
C274 C271 1.480 . S
C274 C275 1.383 . S
C274 C279 1.385 . S
C275 H256 0.947 . S
C275 C274 1.383 . S
C275 C276 1.388 . S
C276 H257 0.946 . S
C276 C275 1.388 . S
C276 C277 1.384 . S
C277 C276 1.384 . S
C277 C278 1.377 . S
C278 H258 0.953 . S
C278 C277 1.377 . S
C278 C279 1.369 . S
C279 H259 0.945 . S
C279 C274 1.385 . S
C279 C278 1.369 . S
C280 C272 1.457 . S
C280 C281 1.372 . S
C280 C285 1.364 . S
C281 H260 0.952 . S
C281 C280 1.372 . S
C281 C282 1.389 1_554 S
C282 H261 0.949 . S
C282 C281 1.389 1_556 S
C282 C283 1.387 . S
C283 C282 1.387 . S
C283 C284 1.372 1_556 S
C284 H262 0.950 1_554 S
C284 C283 1.372 1_554 S
C284 C285 1.379 . S
C285 H263 0.948 . S
C285 C280 1.364 . S
C285 C284 1.379 . S
C286 C255 1.383 . S
C286 C273 1.479 . S
C286 C287 1.398 . S
C287 C252 1.382 . S
C287 H264 0.951 . S
C287 C286 1.398 . S
Tb288 O291 2.453 1_665 S
Tb288 O292 2.596 1_665 S
Tb288 O293 2.374 1_655 S
Tb288 O301 2.343 . S
Tb288 O303 2.353 1_565 S
Tb288 O305 2.427 . S
Tb288 O306 2.513 . S
C289 O293 1.251 . S
C289 O295 1.263 . S
Tb290 O292 2.343 . S
Tb290 O295 2.353 1_545 S
Tb290 O298 2.427 . S
Tb290 O299 2.513 . S
Tb290 O300 2.453 1_545 S
Tb290 O301 2.596 1_445 S
Tb290 O302 2.374 1_455 S
O291 Tb288 2.453 1_445 S
O291 C307 1.245 . S
O292 Tb288 2.596 1_445 S
O292 Tb290 2.343 . S
O292 C307 1.259 . S
O293 Tb288 2.374 1_455 S
O293 C289 1.251 . S
C294 O298 1.275 . S
C294 O299 1.246 . S
O295 C289 1.263 . S
O295 Tb290 2.353 1_565 S
C296 O300 1.245 1_655 S
C296 O301 1.259 . S
C297 O302 1.250 . S
C297 O303 1.263 . S
O298 Tb290 2.427 . S
O298 C294 1.275 . S
O299 Tb290 2.513 . S
O299 C294 1.246 . S
O300 Tb290 2.453 1_565 S
O300 C296 1.245 1_455 S
O301 Tb288 2.343 . S
O301 Tb290 2.596 1_665 S
O301 C296 1.259 . S
O302 Tb290 2.374 1_655 S
O302 C297 1.250 . S
O303 Tb288 2.353 1_545 S
O303 C297 1.263 . S
C304 O305 1.275 . S
C304 O306 1.246 . S
O305 Tb288 2.427 . S
O305 C304 1.275 . S
O306 Tb288 2.513 . S
O306 C304 1.246 . S
C307 O291 1.245 . S
C307 O292 1.259 . S
Tb308 O311 2.453 . S
Tb308 O312 2.596 1_545 S
Tb308 O313 2.374 . S
Tb308 O321 2.343 . S
Tb308 O323 2.353 . S
Tb308 O325 2.427 . S
Tb308 O326 2.513 . S
C309 O313 1.251 . S
C309 O315 1.263 1_545 S
Tb310 O312 2.343 . S
Tb310 O315 2.353 . S
Tb310 O318 2.427 . S
Tb310 O319 2.513 . S
Tb310 O320 2.453 . S
Tb310 O321 2.596 1_565 S
Tb310 O322 2.374 . S
O311 Tb308 2.453 . S
O311 C327 1.245 . S
O312 Tb308 2.596 1_565 S
O312 Tb310 2.343 . S
O312 C327 1.259 1_565 S
O313 Tb308 2.374 . S
O313 C309 1.251 . S
C314 O318 1.275 . S
C314 O319 1.246 . S
O315 C309 1.263 1_565 S
O315 Tb310 2.353 . S
C316 O320 1.245 . S
C316 O321 1.259 1_565 S
C317 O322 1.250 1_545 S
C317 O323 1.263 . S
O318 Tb310 2.427 . S
O318 C314 1.275 . S
O319 Tb310 2.513 . S
O319 C314 1.246 . S
O320 Tb310 2.453 . S
O320 C316 1.245 . S
O321 Tb308 2.343 . S
O321 Tb310 2.596 1_545 S
O321 C316 1.259 1_545 S
O322 Tb310 2.374 . S
O322 C317 1.250 1_565 S
O323 Tb308 2.353 . S
O323 C317 1.263 . S
C324 O325 1.275 . S
C324 O326 1.246 . S
O325 Tb308 2.427 . S
O325 C324 1.275 . S
O326 Tb308 2.513 . S
O326 C324 1.246 . S
C327 O311 1.245 . S
C327 O312 1.259 1_545 S
Tb328 O331 2.453 . S
Tb328 O332 2.596 . S
Tb328 O333 2.374 . S
Tb328 O341 2.343 . S
Tb328 O343 2.353 . S
Tb328 O345 2.427 . S
Tb328 O346 2.513 . S
C329 O333 1.251 . S
C329 O335 1.263 . S
Tb330 O332 2.343 . S
Tb330 O335 2.353 . S
Tb330 O338 2.427 . S
Tb330 O339 2.513 . S
Tb330 O340 2.453 . S
Tb330 O341 2.596 . S
Tb330 O342 2.374 . S
O331 Tb328 2.453 . S
O331 C347 1.245 . S
O332 Tb328 2.596 . S
O332 Tb330 2.343 . S
O332 C347 1.259 . S
O333 Tb328 2.374 . S
O333 C329 1.251 . S
C334 O338 1.275 . S
C334 O339 1.246 . S
O335 C329 1.263 . S
O335 Tb330 2.353 . S
C336 O340 1.245 . S
C336 O341 1.259 . S
C337 O342 1.250 . S
C337 O343 1.263 . S
O338 Tb330 2.427 . S
O338 C334 1.275 . S
O339 Tb330 2.513 . S
O339 C334 1.246 . S
O340 Tb330 2.453 . S
O340 C336 1.245 . S
O341 Tb328 2.343 . S
O341 Tb330 2.596 . S
O341 C336 1.259 . S
O342 Tb330 2.374 . S
O342 C337 1.250 . S
O343 Tb328 2.353 . S
O343 C337 1.263 . S
C344 O345 1.275 . S
C344 O346 1.246 . S
O345 Tb328 2.427 . S
O345 C344 1.275 . S
O346 Tb328 2.513 . S
O346 C344 1.246 . S
C347 O331 1.245 . S
C347 O332 1.259 . S
Tb348 O351 2.453 1_655 S
Tb348 O352 2.596 1_655 S
Tb348 O353 2.374 1_655 S
Tb348 O361 2.343 . S
Tb348 O363 2.353 . S
Tb348 O365 2.427 . S
Tb348 O366 2.513 . S
C349 O353 1.251 . S
C349 O355 1.263 . S
Tb350 O352 2.343 . S
Tb350 O355 2.353 . S
Tb350 O358 2.427 . S
Tb350 O359 2.513 . S
Tb350 O360 2.453 1_455 S
Tb350 O361 2.596 1_455 S
Tb350 O362 2.374 1_455 S
O351 Tb348 2.453 1_455 S
O351 C367 1.245 . S
O352 Tb348 2.596 1_455 S
O352 Tb350 2.343 . S
O352 C367 1.259 . S
O353 Tb348 2.374 1_455 S
O353 C349 1.251 . S
C354 O358 1.275 . S
C354 O359 1.246 . S
O355 C349 1.263 . S
O355 Tb350 2.353 . S
C356 O360 1.245 . S
C356 O361 1.259 . S
C357 O362 1.250 . S
C357 O363 1.263 . S
O358 Tb350 2.427 . S
O358 C354 1.275 . S
O359 Tb350 2.513 . S
O359 C354 1.246 . S
O360 Tb350 2.453 1_655 S
O360 C356 1.245 . S
O361 Tb348 2.343 . S
O361 Tb350 2.596 1_655 S
O361 C356 1.259 . S
O362 Tb350 2.374 1_655 S
O362 C357 1.250 . S
O363 Tb348 2.353 . S
O363 C357 1.263 . S
C364 O365 1.275 . S
C364 O366 1.246 . S
O365 Tb348 2.427 . S
O365 C364 1.275 . S
O366 Tb348 2.513 . S
O366 C364 1.246 . S
C367 O351 1.245 . S
C367 O352 1.259 . S
C241 C289 2.167 1_545 S
C324 C277 3.575 . S
C329 C169 1.953 . S
C349 C205 3.246 . S
C297 C97 2.114 . S
C133 C314 3.759 . S
C25 C337 2.049 . S
C61 C357 3.048 . S
C307 C211 3.795 . S
C316 C247 1.593 1_565 S
C347 C253 3.787 . S
C175 C367 2.163 . S
C67 C296 3.622 . S
C327 C103 1.514 . S
C336 C109 3.935 . S
C31 C356 2.242 . S
C181 C294 3.302 . S
C217 C317 3.318 . S
C334 C283 3.576 . S
C354 C145 3.194 . S
C37 C304 3.205 . S
C309 C73 3.312 . S
C344 C139 3.707 . S
C1 C364 3.250 . S
