# Generated by pormake.
# Topology wbl, (4,4)-cn, num edge types: 1
# Building blocks:
#     Node 0, Type 0, BuildingBlock: MIFKUJ_clean_linker_1, # of connection points: 4
#     Node 1, Type 0, BuildingBlock: MIFKUJ_clean_linker_1, # of connection points: 4
#     Node 2, Type 0, BuildingBlock: MIFKUJ_clean_linker_1, # of connection points: 4
#     Node 3, Type 0, BuildingBlock: MIFKUJ_clean_linker_1, # of connection points: 4
#     Node 4, Type 0, BuildingBlock: MIFKUJ_clean_linker_1, # of connection points: 4
#     Node 5, Type 0, BuildingBlock: MIFKUJ_clean_linker_1, # of connection points: 4
#     Node 6, Type 0, BuildingBlock: MIFKUJ_clean_linker_1, # of connection points: 4
#     Node 7, Type 0, BuildingBlock: MIFKUJ_clean_linker_1, # of connection points: 4
#     Node 8, Type 1, BuildingBlock: TATPOV_clean_sbu_0, # of connection points: 4
#     Node 9, Type 1, BuildingBlock: TATPOV_clean_sbu_0, # of connection points: 4
#     Node 10, Type 1, BuildingBlock: TATPOV_clean_sbu_0, # of connection points: 4
#     Node 11, Type 1, BuildingBlock: TATPOV_clean_sbu_0, # of connection points: 4
#     Node 12, Type 1, BuildingBlock: TATPOV_clean_sbu_0, # of connection points: 4
#     Node 13, Type 1, BuildingBlock: TATPOV_clean_sbu_0, # of connection points: 4
#     Node 14, Type 1, BuildingBlock: TATPOV_clean_sbu_0, # of connection points: 4
#     Node 15, Type 1, BuildingBlock: TATPOV_clean_sbu_0, # of connection points: 4
#     Edge 16, Type (0, 1), BuildingBlock: XUDNAN_clean_linker_2, # of connection points: 2
#     Edge 17, Type (0, 1), BuildingBlock: XUDNAN_clean_linker_2, # of connection points: 2
#     Edge 18, Type (0, 1), BuildingBlock: XUDNAN_clean_linker_2, # of connection points: 2
#     Edge 19, Type (0, 1), BuildingBlock: XUDNAN_clean_linker_2, # of connection points: 2
#     Edge 20, Type (0, 1), BuildingBlock: XUDNAN_clean_linker_2, # of connection points: 2
#     Edge 21, Type (0, 1), BuildingBlock: XUDNAN_clean_linker_2, # of connection points: 2
#     Edge 22, Type (0, 1), BuildingBlock: XUDNAN_clean_linker_2, # of connection points: 2
#     Edge 23, Type (0, 1), BuildingBlock: XUDNAN_clean_linker_2, # of connection points: 2
#     Edge 24, Type (0, 1), BuildingBlock: XUDNAN_clean_linker_2, # of connection points: 2
#     Edge 25, Type (0, 1), BuildingBlock: XUDNAN_clean_linker_2, # of connection points: 2
#     Edge 26, Type (0, 1), BuildingBlock: XUDNAN_clean_linker_2, # of connection points: 2
#     Edge 27, Type (0, 1), BuildingBlock: XUDNAN_clean_linker_2, # of connection points: 2
#     Edge 28, Type (0, 1), BuildingBlock: XUDNAN_clean_linker_2, # of connection points: 2
#     Edge 29, Type (0, 1), BuildingBlock: XUDNAN_clean_linker_2, # of connection points: 2
#     Edge 30, Type (0, 1), BuildingBlock: XUDNAN_clean_linker_2, # of connection points: 2
#     Edge 31, Type (0, 1), BuildingBlock: XUDNAN_clean_linker_2, # of connection points: 2
#     Edge 32, Type (0, 1), BuildingBlock: XUDNAN_clean_linker_2, # of connection points: 2
#     Edge 33, Type (0, 1), BuildingBlock: XUDNAN_clean_linker_2, # of connection points: 2
#     Edge 34, Type (0, 1), BuildingBlock: XUDNAN_clean_linker_2, # of connection points: 2
#     Edge 35, Type (0, 1), BuildingBlock: XUDNAN_clean_linker_2, # of connection points: 2
#     Edge 36, Type (0, 1), BuildingBlock: XUDNAN_clean_linker_2, # of connection points: 2
#     Edge 37, Type (0, 1), BuildingBlock: XUDNAN_clean_linker_2, # of connection points: 2
#     Edge 38, Type (0, 1), BuildingBlock: XUDNAN_clean_linker_2, # of connection points: 2
#     Edge 39, Type (0, 1), BuildingBlock: XUDNAN_clean_linker_2, # of connection points: 2
#     Edge 40, Type (0, 1), BuildingBlock: XUDNAN_clean_linker_2, # of connection points: 2
#     Edge 41, Type (0, 1), BuildingBlock: XUDNAN_clean_linker_2, # of connection points: 2
#     Edge 42, Type (0, 1), BuildingBlock: XUDNAN_clean_linker_2, # of connection points: 2
#     Edge 43, Type (0, 1), BuildingBlock: XUDNAN_clean_linker_2, # of connection points: 2
#     Edge 44, Type (0, 1), BuildingBlock: XUDNAN_clean_linker_2, # of connection points: 2
#     Edge 45, Type (0, 1), BuildingBlock: XUDNAN_clean_linker_2, # of connection points: 2
#     Edge 46, Type (0, 1), BuildingBlock: XUDNAN_clean_linker_2, # of connection points: 2
#     Edge 47, Type (0, 1), BuildingBlock: XUDNAN_clean_linker_2, # of connection points: 2
# Relax obj value: 0.161
# Max RMSD: 0.153
# Mean RMSD: 0.128
data_MOF--net-wbl--node1-TATPOV_clean_sbu_0--node2-MIFKUJ_clean_linker_1--edge1-XUDNAN_clean_linker_2
_symmetry_space_group_name_H-M    P1
_symmetry_Int_Tables_number       1
_symmetry_cell_setting            triclinic
loop_
_symmetry_equiv_pos_as_xyz
'x, y, z'
_cell_length_a     45.809448
_cell_length_b     45.827305
_cell_length_c     73.324524
_cell_angle_alpha  91.523962
_cell_angle_beta   91.457299
_cell_angle_gamma 90.155121
loop_
_atom_site_label
_atom_site_type_symbol
_atom_site_fract_x
_atom_site_fract_y
_atom_site_fract_z
_atom_type_partial_charge
H0 H 0.04943 0.07591 0.38376 0.0
H1 H 0.02117 0.11046 0.40217 0.0
H2 H 0.94837 0.101 0.36392 0.0
H3 H 0.97616 0.06539 0.34592 0.0
H4 H 0.03984 0.02042 0.37609 0.0
H5 H 0.04618 0.10771 0.34079 0.0
H6 H 0.01594 0.14778 0.32959 0.0
H7 H 0.97068 0.08765 0.29234 0.0
H8 H 0.00012 0.04747 0.30402 0.0
H9 H 0.0378 0.95203 0.32114 0.0
H10 H 0.06117 0.91139 0.30503 0.0
H11 H 0.14281 0.95935 0.30698 0.0
H12 H 0.11852 0.00048 0.32195 0.0
H13 H 0.05513 0.02897 0.30967 0.0
H14 H 0.02725 0.96247 0.3719 0.0
H15 H 0.04625 0.92728 0.39369 0.0
H16 H 0.13429 0.94853 0.37881 0.0
H17 H 0.11516 0.98385 0.35716 0.0
C18 C 0.01508 0.06829 0.36334 0.0
C19 C 0.02736 0.08118 0.37934 0.0
C20 C 0.01128 0.10095 0.38981 0.0
C21 C 0.98274 0.10844 0.38435 0.0
C22 C 0.9705 0.09582 0.36825 0.0
C23 C 0.98637 0.07554 0.35798 0.0
C24 C 0.03218 0.04671 0.35258 0.0
C25 C 0.04329 0.02241 0.36159 0.0
C26 C 0.03692 0.04946 0.33367 0.0
C27 C 0.02489 0.0745 0.32354 0.0
C28 C 0.0302 0.10327 0.32991 0.0
C29 C 0.01296 0.12612 0.32354 0.0
C30 C 0.99082 0.12064 0.3103 0.0
C31 C 0.98768 0.09241 0.30254 0.0
C32 C 0.00455 0.06946 0.30916 0.0
C33 C 0.07654 0.97906 0.32272 0.0
C34 C 0.06063 0.95381 0.3178 0.0
C35 C 0.07415 0.93051 0.30875 0.0
C36 C 0.10404 0.93181 0.30476 0.0
C37 C 0.11969 0.95759 0.30945 0.0
C38 C 0.10595 0.9811 0.31817 0.0
C39 C 0.06262 0.00277 0.33331 0.0
C40 C 0.05198 0.0273 0.32422 0.0
C41 C 0.0584 0.00041 0.35221 0.0
C42 C 0.06977 0.97562 0.36281 0.0
C43 C 0.05062 0.9591 0.37307 0.0
C44 C 0.06149 0.93913 0.38556 0.0
C45 C 0.09175 0.93533 0.38805 0.0
C46 C 0.11086 0.95075 0.37705 0.0
C47 C 0.09995 0.97086 0.36461 0.0
H48 H 0.99769 0.49206 0.55592 0.0
H49 H 0.96078 0.4644 0.53824 0.0
H50 H 0.89409 0.49719 0.57392 0.0
H51 H 0.93119 0.52553 0.59145 0.0
H52 H 0.01023 0.54511 0.56414 0.0
H53 H 0.98045 0.46296 0.59592 0.0
H54 H 0.94867 0.42891 0.61067 0.0
H55 H 0.93357 0.49358 0.65348 0.0
H56 H 0.96278 0.52859 0.63743 0.0
H57 H 0.04784 0.6105 0.60898 0.0
H58 H 0.08689 0.63592 0.62631 0.0
H59 H 0.11052 0.5556 0.65222 0.0
H60 H 0.07219 0.52969 0.63416 0.0
H61 H 0.01631 0.5313 0.63103 0.0
H62 H 0.02895 0.60365 0.56831 0.0
H63 H 0.06809 0.63011 0.55346 0.0
H64 H 0.13093 0.56774 0.57338 0.0
H65 H 0.09182 0.54155 0.58833 0.0
C66 C 0.96731 0.51058 0.57517 0.0
C67 C 0.97506 0.49391 0.55971 0.0
C68 C 0.9539 0.47812 0.54959 0.0
C69 C 0.92457 0.47861 0.55474 0.0
C70 C 0.91659 0.49627 0.56975 0.0
C71 C 0.93775 0.51239 0.57977 0.0
C72 C 0.99047 0.52458 0.58696 0.0
C73 C 0.01134 0.54217 0.57878 0.0
C74 C 0.99275 0.5198 0.60601 0.0
C75 C 0.97359 0.49872 0.61527 0.0
C76 C 0.96965 0.47014 0.60821 0.0
C77 C 0.95181 0.45037 0.61694 0.0
C78 C 0.93841 0.45818 0.63344 0.0
C79 C 0.94283 0.48673 0.64064 0.0
C80 C 0.95999 0.50677 0.63159 0.0
C81 C 0.05751 0.56802 0.61991 0.0
C82 C 0.06161 0.5982 0.6182 0.0
C83 C 0.08379 0.61275 0.62815 0.0
C84 C 0.10176 0.59757 0.64041 0.0
C85 C 0.09687 0.56768 0.64281 0.0
C86 C 0.075 0.55295 0.63255 0.0
C87 C 0.0353 0.55229 0.60824 0.0
C88 C 0.01479 0.53434 0.61642 0.0
C89 C 0.03416 0.55536 0.58909 0.0
C90 C 0.05753 0.57075 0.57947 0.0
C91 C 0.05114 0.59564 0.56939 0.0
C92 C 0.0735 0.61081 0.56104 0.0
C93 C 0.10252 0.60098 0.56233 0.0
C94 C 0.10874 0.57569 0.5721 0.0
C95 C 0.08647 0.5608 0.58068 0.0
H96 H 0.50038 0.56642 0.86187 0.0
H97 H 0.47355 0.60332 0.87921 0.0
H98 H 0.41246 0.53732 0.89519 0.0
H99 H 0.43923 0.50042 0.87746 0.0
H100 H 0.49727 0.4817 0.87904 0.0
H101 H 0.51466 0.56143 0.8243 0.0
H102 H 0.49008 0.60446 0.81244 0.0
H103 H 0.40659 0.56144 0.81795 0.0
H104 H 0.43145 0.51956 0.83096 0.0
H105 H 0.50647 0.44295 0.80234 0.0
H106 H 0.53876 0.41356 0.78302 0.0
H107 H 0.60837 0.42456 0.82341 0.0
H108 H 0.57669 0.45484 0.84228 0.0
H109 H 0.5085 0.49698 0.81281 0.0
H110 H 0.5102 0.40636 0.84621 0.0
H111 H 0.53284 0.36577 0.86248 0.0
H112 H 0.57479 0.4275 0.90033 0.0
H113 H 0.55275 0.46773 0.88386 0.0
C114 C 0.47143 0.53081 0.86809 0.0
C115 C 0.48107 0.55992 0.86898 0.0
C116 C 0.46575 0.58097 0.87889 0.0
C117 C 0.44075 0.57323 0.88837 0.0
C118 C 0.43171 0.54386 0.88803 0.0
C119 C 0.44694 0.5228 0.87793 0.0
C120 C 0.48668 0.50906 0.85647 0.0
C121 C 0.49965 0.4848 0.86454 0.0
C122 C 0.48944 0.51299 0.83758 0.0
C123 C 0.4748 0.53748 0.82845 0.0
C124 C 0.49107 0.56135 0.82278 0.0
C125 C 0.47692 0.58589 0.81596 0.0
C126 C 0.44621 0.58669 0.8143 0.0
C127 C 0.43015 0.56211 0.81946 0.0
C128 C 0.4443 0.5379 0.82665 0.0
C129 C 0.53891 0.45064 0.82397 0.0
C130 C 0.5287 0.43906 0.80703 0.0
C131 C 0.54709 0.42232 0.796 0.0
C132 C 0.57587 0.41661 0.80185 0.0
C133 C 0.58608 0.42824 0.81876 0.0
C134 C 0.56792 0.44539 0.82959 0.0
C135 C 0.51975 0.46938 0.83535 0.0
C136 C 0.50596 0.4933 0.82724 0.0
C137 C 0.5162 0.46487 0.85424 0.0
C138 C 0.5299 0.44007 0.86379 0.0
C139 C 0.52448 0.41108 0.85792 0.0
C140 C 0.53726 0.38794 0.86729 0.0
C141 C 0.55573 0.39345 0.88262 0.0
C142 C 0.56108 0.42252 0.88839 0.0
C143 C 0.54826 0.44554 0.8791 0.0
H144 H 0.53832 0.92431 0.07635 0.0
H145 H 0.50363 0.88572 0.06669 0.0
H146 H 0.43185 0.94124 0.08195 0.0
H147 H 0.4667 0.97968 0.09202 0.0
H148 H 0.54488 0.98577 0.06771 0.0
H149 H 0.51821 0.92231 0.11603 0.0
H150 H 0.48291 0.89849 0.13527 0.0
H151 H 0.45836 0.98235 0.1581 0.0
H152 H 0.49246 0.00643 0.13801 0.0
H153 H 0.57603 0.07319 0.10211 0.0
H154 H 0.61213 0.10648 0.11659 0.0
H155 H 0.64303 0.03696 0.15066 0.0
H156 H 0.60729 0.00368 0.13596 0.0
H157 H 0.54921 0.00497 0.13466 0.0
H158 H 0.55148 0.04183 0.06036 0.0
H159 H 0.58333 0.07022 0.04129 0.0
H160 H 0.65863 0.04067 0.07217 0.0
H161 H 0.62666 0.01171 0.09102 0.0
C162 C 0.50503 0.95472 0.08496 0.0
C163 C 0.51511 0.92839 0.07727 0.0
C164 C 0.49536 0.90636 0.07189 0.0
C165 C 0.46522 0.9106 0.07371 0.0
C166 C 0.45502 0.9376 0.08039 0.0
C167 C 0.47484 0.95947 0.08611 0.0
C168 C 0.5262 0.97575 0.09347 0.0
C169 C 0.54582 0.99011 0.08233 0.0
C170 C 0.52742 0.9811 0.11259 0.0
C171 C 0.50744 0.96629 0.12514 0.0
C172 C 0.50488 0.9357 0.12488 0.0
C173 C 0.4849 0.92206 0.13598 0.0
C174 C 0.46787 0.93868 0.14802 0.0
C175 C 0.4713 0.96913 0.1489 0.0
C176 C 0.49077 0.98284 0.13746 0.0
C177 C 0.58918 0.03586 0.11782 0.0
C178 C 0.59075 0.06507 0.11258 0.0
C179 C 0.61138 0.08404 0.12084 0.0
C180 C 0.63041 0.07426 0.13471 0.0
C181 C 0.62848 0.04515 0.14011 0.0
C182 C 0.60809 0.02613 0.13172 0.0
C183 C 0.56784 0.01529 0.10892 0.0
C184 C 0.54822 0.00084 0.12002 0.0
C185 C 0.56668 0.00989 0.08979 0.0
C186 C 0.58658 0.02493 0.07731 0.0
C187 C 0.57488 0.04103 0.06285 0.0
C188 C 0.59312 0.05725 0.05194 0.0
C189 C 0.62349 0.05779 0.05528 0.0
C190 C 0.63529 0.04095 0.06941 0.0
C191 C 0.61704 0.02442 0.08019 0.0
H192 H 0.00766 0.59431 0.88601 0.0
H193 H 0.0439 0.62025 0.86878 0.0
H194 H 0.11278 0.58213 0.90168 0.0
H195 H 0.07641 0.55497 0.91816 0.0
H196 H 0.002 0.5376 0.88539 0.0
H197 H 0.01803 0.61018 0.93343 0.0
H198 H 0.05106 0.63988 0.95303 0.0
H199 H 0.08515 0.56147 0.9771 0.0
H200 H 0.05175 0.53204 0.95769 0.0
H201 H 0.98734 0.46926 0.9498 0.0
H202 H 0.95264 0.43209 0.95939 0.0
H203 H 0.88396 0.47365 0.9282 0.0
H204 H 0.9185 0.51067 0.91881 0.0
H205 H 0.9929 0.52836 0.95225 0.0
H206 H 0.9789 0.45615 0.9042 0.0
H207 H 0.95581 0.4254 0.88009 0.0
H208 H 0.92232 0.50245 0.85419 0.0
H209 H 0.94519 0.53304 0.87837 0.0
C210 C 0.0392 0.57271 0.90345 0.0
C211 C 0.03056 0.59179 0.88965 0.0
C212 C 0.05137 0.60684 0.87989 0.0
C213 C 0.08138 0.6032 0.88372 0.0
C214 C 0.08992 0.58511 0.89813 0.0
C215 C 0.06908 0.56986 0.90779 0.0
C216 C 0.0172 0.55353 0.9118 0.0
C217 C -0.00048 0.53615 0.90002 0.0
C218 C 0.01479 0.55071 0.9309 0.0
C219 C 0.03268 0.56888 0.94397 0.0
C220 C 0.03247 0.59945 0.94305 0.0
C221 C 0.05142 0.61638 0.95422 0.0
C222 C 0.07091 0.60307 0.96656 0.0
C223 C 0.0702 0.5725 0.96794 0.0
C224 C 0.05118 0.55559 0.9568 0.0
C225 C 0.95566 0.49247 0.93331 0.0
C226 C 0.9647 0.4706 0.94528 0.0
C227 C 0.94486 0.44937 0.95074 0.0
C228 C 0.91567 0.44966 0.9443 0.0
C229 C 0.90644 0.47244 0.93306 0.0
C230 C 0.92616 0.49367 0.92772 0.0
C231 C 0.97721 0.51294 0.92573 0.0
C232 C 0.99497 0.5303 0.93763 0.0
C233 C 0.97982 0.51581 0.90666 0.0
C234 C 0.96364 0.49689 0.89313 0.0
C235 C 0.96609 0.46637 0.89353 0.0
C236 C 0.95295 0.44884 0.87974 0.0
C237 C 0.9375 0.46158 0.8652 0.0
C238 C 0.93449 0.49207 0.86508 0.0
C239 C 0.94743 0.50955 0.87891 0.0
H240 H 0.51705 0.55544 0.18926 0.0
H241 H 0.49029 0.59866 0.19983 0.0
H242 H 0.40983 0.5492 0.19683 0.0
H243 H 0.43673 0.50603 0.18622 0.0
H244 H 0.52228 0.49633 0.20198 0.0
H245 H 0.48808 0.54957 0.14919 0.0
H246 H 0.45119 0.5743 0.13052 0.0
H247 H 0.39989 0.495 0.12691 0.0
H248 H 0.43681 0.47045 0.1458 0.0
H249 H 0.50873 0.40497 0.14679 0.0
H250 H 0.53516 0.37465 0.12474 0.0
H251 H 0.60973 0.43226 0.13104 0.0
H252 H 0.58312 0.46256 0.15281 0.0
H253 H 0.49818 0.46381 0.13823 0.0
H254 H 0.52541 0.4196 0.201 0.0
H255 H 0.56195 0.3952 0.21997 0.0
H256 H 0.62776 0.45526 0.20196 0.0
H257 H 0.5904 0.48077 0.1843 0.0
C258 C 0.47881 0.52767 0.18694 0.0
C259 C 0.49374 0.55381 0.19119 0.0
C260 C 0.47842 0.57848 0.19706 0.0
C261 C 0.448 0.57725 0.19899 0.0
C262 C 0.43329 0.55067 0.19552 0.0
C263 C 0.44858 0.52608 0.18945 0.0
C264 C 0.49445 0.50297 0.1783 0.0
C265 C 0.51708 0.48925 0.18803 0.0
C266 C 0.48736 0.49341 0.16025 0.0
C267 C 0.46499 0.50829 0.14897 0.0
C268 C 0.4688 0.53759 0.14445 0.0
C269 C 0.44784 0.5516 0.13368 0.0
C270 C 0.42269 0.53655 0.12726 0.0
C271 C 0.41893 0.50719 0.13182 0.0
C272 C 0.44003 0.49312 0.14249 0.0
C273 C 0.54415 0.43571 0.15171 0.0
C274 C 0.53107 0.41056 0.14379 0.0
C275 C 0.54611 0.3934 0.13112 0.0
C276 C 0.57446 0.40119 0.1261 0.0
C277 C 0.58809 0.42546 0.13483 0.0
C278 C 0.57297 0.4427 0.1474 0.0
C279 C 0.52623 0.45723 0.1618 0.0
C280 C 0.5031 0.47048 0.15229 0.0
C281 C 0.53297 0.46642 0.17996 0.0
C282 C 0.55542 0.45159 0.19108 0.0
C283 C 0.54774 0.42747 0.20128 0.0
C284 C 0.56877 0.41344 0.21201 0.0
C285 C 0.59807 0.42299 0.21249 0.0
C286 C 0.60547 0.44745 0.20227 0.0
C287 C 0.58424 0.46186 0.1919 0.0
H288 H 0.52914 0.94703 0.38508 0.0
H289 H 0.4961 0.9115 0.36994 0.0
H290 H 0.42432 0.94633 0.40063 0.0
H291 H 0.45717 0.98272 0.41526 0.0
H292 H 0.531 0.00328 0.38434 0.0
H293 H 0.51923 0.93377 0.43172 0.0
H294 H 0.48763 0.90325 0.44974 0.0
H295 H 0.44861 0.98078 0.47334 0.0
H296 H 0.4804 0.01115 0.45532 0.0
H297 H 0.54768 0.07703 0.44914 0.0
H298 H 0.5846 0.11271 0.4603 0.0
H299 H 0.65104 0.06416 0.43195 0.0
H300 H 0.61443 0.02844 0.4212 0.0
H301 H 0.5404 0.01706 0.45161 0.0
H302 H 0.55758 0.0861 0.40328 0.0
H303 H 0.58924 0.11286 0.38297 0.0
H304 H 0.62034 0.03103 0.36035 0.0
H305 H 0.5892 0.00452 0.38084 0.0
C306 C 0.49573 0.9674 0.40144 0.0
C307 C 0.50626 0.94718 0.38849 0.0
C308 C 0.48743 0.92688 0.37988 0.0
C309 C 0.45778 0.92621 0.3842 0.0
C310 C 0.4472 0.94626 0.39724 0.0
C311 C 0.46596 0.96696 0.40562 0.0
C312 C 0.516 0.98913 0.41028 0.0
C313 C 0.53321 0.00608 0.39905 0.0
C314 C 0.51855 0.99313 0.42949 0.0
C315 C 0.50187 0.97474 0.44199 0.0
C316 C 0.50402 0.94418 0.44089 0.0
C317 C 0.48586 0.92677 0.45114 0.0
C318 C 0.46538 0.93956 0.46285 0.0
C319 C 0.46429 0.97021 0.46457 0.0
C320 C 0.48242 0.98762 0.45426 0.0
C321 C 0.57824 0.05048 0.43403 0.0
C322 C 0.57029 0.07389 0.44559 0.0
C323 C 0.59132 0.0942 0.45194 0.0
C324 C 0.6205 0.09138 0.44671 0.0
C325 C 0.62858 0.06714 0.43588 0.0
C326 C 0.6077 0.04674 0.42974 0.0
C327 C 0.55576 0.03071 0.42561 0.0
C328 C 0.53803 0.0143 0.43691 0.0
C329 C 0.55309 0.02674 0.40641 0.0
C330 C 0.57121 0.0433 0.39368 0.0
C331 C 0.57127 0.07397 0.39395 0.0
C332 C 0.5892 0.08922 0.38227 0.0
C333 C 0.60742 0.07405 0.37014 0.0
C334 C 0.60689 0.04335 0.36971 0.0
C335 C 0.58891 0.02816 0.38131 0.0
H336 H 0.01175 0.08317 0.70372 0.0
H337 H 0.96994 0.11139 0.71468 0.0
H338 H 0.91108 0.05305 0.68459 0.0
H339 H 0.95311 0.02529 0.67319 0.0
H340 H 0.02212 0.01868 0.70646 0.0
H341 H 0.00404 0.09609 0.66361 0.0
H342 H 0.97727 0.12417 0.64069 0.0
H343 H 0.96779 0.04644 0.60646 0.0
H344 H 0.99361 0.01822 0.62961 0.0
H345 H 0.0664 0.94601 0.6673 0.0
H346 H 0.10208 0.91725 0.6504 0.0
H347 H 0.14117 0.99674 0.63187 0.0
H348 H 0.10534 0.02536 0.64876 0.0
H349 H 0.04774 0.02312 0.64127 0.0
H350 H 0.03195 0.95878 0.70547 0.0
H351 H 0.06 0.9272 0.72561 0.0
H352 H 0.13766 0.97809 0.71633 0.0
H353 H 0.10952 0.00882 0.69561 0.0
C354 C 0.98538 0.0523 0.68765 0.0
C355 C 0.98984 0.07642 0.69956 0.0
C356 C 0.96607 0.09254 0.7057 0.0
C357 C 0.93751 0.08431 0.70037 0.0
C358 C 0.93299 0.05968 0.68885 0.0
C359 C 0.95685 0.04391 0.68237 0.0
C360 C 0.01074 0.03651 0.68035 0.0
C361 C 0.02777 0.01963 0.69221 0.0
C362 C 0.01796 0.03783 0.66177 0.0
C363 C 0.00058 0.05492 0.64844 0.0
C364 C 0.99558 0.08491 0.65139 0.0
C365 C 0.98041 0.10098 0.63827 0.0
C366 C 0.9706 0.08745 0.62182 0.0
C367 C 0.97537 0.05743 0.61897 0.0
C368 C 0.99011 0.04132 0.63218 0.0
C369 C 0.08327 0.98784 0.65935 0.0
C370 C 0.08312 0.95725 0.65999 0.0
C371 C 0.10354 0.94084 0.6503 0.0
C372 C 0.12433 0.95473 0.63968 0.0
C373 C 0.12516 0.9854 0.6397 0.0
C374 C 0.1048 0.00177 0.64941 0.0
C375 C 0.0592 0.00515 0.66731 0.0
C376 C 0.04222 0.02226 0.65555 0.0
C377 C 0.05184 0.00378 0.68589 0.0
C378 C 0.06874 0.9859 0.69892 0.0
C379 C 0.05499 0.9632 0.7079 0.0
C380 C 0.07106 0.9453 0.71953 0.0
C381 C 0.10118 0.95 0.72263 0.0
C382 C 0.11465 0.97346 0.71403 0.0
C383 C 0.0986 0.99114 0.70223 0.0
Zn384 Zn 0.29603 0.74318 0.99095 0.0
Zn385 Zn 0.31288 0.69836 0.01315 0.0
O386 O 0.26848 0.69484 0.01167 0.0
O387 O 0.25374 0.7297 0.99351 0.0
O388 O 0.32587 0.66718 0.03051 0.0
O389 O 0.31604 0.77228 0.00893 0.0
O390 O 0.33 0.73518 0.02543 0.0
C391 C 0.24801 0.70813 0.00331 0.0
C392 C 0.33311 0.69911 0.97379 0.0
O393 O 0.33195 0.68692 0.98916 0.0
O394 O 0.32025 0.72321 0.97127 0.0
C395 C 0.30963 0.65799 0.04297 0.0
O396 O 0.28313 0.66849 0.04446 0.0
C397 C 0.32986 0.76248 0.02265 0.0
Zn398 Zn 0.30072 0.75841 0.28228 0.0
Zn399 Zn 0.31866 0.80172 0.2601 0.0
O400 O 0.27459 0.80866 0.2618 0.0
O401 O 0.25909 0.77208 0.27792 0.0
O402 O 0.33198 0.82943 0.24097 0.0
O403 O 0.31913 0.72722 0.2661 0.0
O404 O 0.33252 0.76312 0.24886 0.0
C405 C 0.25386 0.79512 0.26922 0.0
C406 C 0.33985 0.80213 0.29971 0.0
O407 O 0.34002 0.81321 0.28396 0.0
O408 O 0.32503 0.77928 0.30239 0.0
C409 C 0.354 0.84639 0.24235 0.0
O410 O 0.36886 0.84851 0.25789 0.0
C411 C 0.33195 0.73602 0.25217 0.0
Zn412 Zn 0.25491 0.78026 0.4807 0.0
Zn413 Zn 0.23946 0.8107 0.51152 0.0
O414 O 0.28215 0.8228 0.508 0.0
O415 O 0.29557 0.79823 0.48341 0.0
O416 O 0.22893 0.83036 0.53536 0.0
O417 O 0.24369 0.74206 0.49267 0.0
O418 O 0.22993 0.76819 0.51651 0.0
C419 C 0.30138 0.81654 0.49626 0.0
C420 C 0.20795 0.82256 0.4754 0.0
O421 O 0.21155 0.82754 0.49248 0.0
O422 O 0.22351 0.8037 0.46724 0.0
C423 C 0.21945 0.85632 0.53689 0.0
O424 O 0.2167 0.87211 0.52226 0.0
C425 C 0.23238 0.74357 0.50826 0.0
Zn426 Zn 0.26826 0.75314 0.74148 0.0
Zn427 Zn 0.23614 0.72553 0.76585 0.0
O428 O 0.22032 0.76778 0.7674 0.0
O429 O 0.24758 0.79045 0.74789 0.0
O430 O 0.21541 0.70304 0.78516 0.0
O431 O 0.30601 0.74196 0.75379 0.0
O432 O 0.27936 0.71846 0.77319 0.0
C433 C 0.22708 0.79093 0.75916 0.0
C434 C 0.23135 0.70765 0.72537 0.0
O435 O 0.2234 0.70462 0.74176 0.0
O436 O 0.25045 0.72656 0.72179 0.0
C437 C 0.19273 0.71054 0.79377 0.0
O438 O 0.17999 0.73545 0.79017 0.0
C439 C 0.30431 0.72582 0.76745 0.0
Zn440 Zn 0.80058 0.24493 0.53466 0.0
Zn441 Zn 0.83543 0.23894 0.50421 0.0
O442 O 0.83637 0.2827 0.50869 0.0
O443 O 0.8099 0.28879 0.53324 0.0
O444 O 0.85983 0.23125 0.48207 0.0
O445 O 0.76702 0.22596 0.5192 0.0
O446 O 0.79613 0.22305 0.49579 0.0
C447 C 0.82543 0.29932 0.52088 0.0
C448 C 0.85185 0.20961 0.54061 0.0
O449 O 0.85611 0.21604 0.52412 0.0
O450 O 0.82938 0.21899 0.54862 0.0
C451 C 0.86948 0.20548 0.47965 0.0
O452 O 0.8635 0.18557 0.49157 0.0
C453 C 0.77131 0.21887 0.50263 0.0
Zn454 Zn 0.79321 0.27816 0.77636 0.0
Zn455 Zn 0.80489 0.30451 0.74444 0.0
O456 O 0.76138 0.31458 0.74693 0.0
O457 O 0.75225 0.29354 0.77289 0.0
O458 O 0.81839 0.32158 0.72102 0.0
O459 O 0.80437 0.23878 0.7656 0.0
O460 O 0.8151 0.2613 0.74047 0.0
C461 C 0.74378 0.30866 0.75953 0.0
C462 C 0.83587 0.32411 0.78048 0.0
O463 O 0.83048 0.3263 0.76346 0.0
O464 O 0.82338 0.30451 0.78938 0.0
C465 C 0.81912 0.34871 0.71786 0.0
O466 O 0.80829 0.36734 0.7298 0.0
C467 C 0.81378 0.23801 0.74952 0.0
Zn468 Zn 0.75372 0.28148 0.02573 0.0
Zn469 Zn 0.71584 0.28505 0.99616 0.0
O470 O 0.71586 0.2413 0.99991 0.0
O471 O 0.74507 0.23719 0.02408 0.0
O472 O 0.68926 0.29163 0.97444 0.0
O473 O 0.78544 0.30177 0.01102 0.0
O474 O 0.75375 0.30333 0.98804 0.0
C475 C 0.72793 0.22564 0.01203 0.0
C476 C 0.70085 0.31342 0.03327 0.0
O477 O 0.69502 0.30665 0.01663 0.0
O478 O 0.72513 0.30621 0.04051 0.0
C479 C 0.66504 0.2787 0.97115 0.0
O480 O 0.65633 0.2585 0.98219 0.0
C481 C 0.77905 0.30895 0.99482 0.0
Zn482 Zn 0.78661 0.2462 0.23344 0.0
Zn483 Zn 0.75347 0.21707 0.25725 0.0
O484 O 0.73407 0.25721 0.25753 0.0
O485 O 0.7646 0.28279 0.2414 0.0
O486 O 0.73325 0.19296 0.27589 0.0
O487 O 0.82395 0.23413 0.2464 0.0
O488 O 0.79585 0.21549 0.2671 0.0
C489 C 0.74196 0.28135 0.25093 0.0
C490 C 0.75195 0.19936 0.21664 0.0
O491 O 0.74483 0.19505 0.23305 0.0
O492 O 0.76911 0.2201 0.21313 0.0
C493 C 0.70739 0.19506 0.28169 0.0
O494 O 0.68991 0.21521 0.27525 0.0
C495 C 0.82113 0.22178 0.26148 0.0
H496 H 0.14992 0.93087 0.28098 0.0
H497 H 0.09352 0.87382 0.31092 0.0
H498 H 0.12109 0.8313 0.29987 0.0
H499 H 0.16534 0.87941 0.24223 0.0
H500 H 0.203 0.89079 0.24167 0.0
H501 H 0.1754 0.91635 0.24879 0.0
H502 H 0.20417 0.92642 0.27922 0.0
H503 H 0.23182 0.9011 0.27216 0.0
H504 H 0.21382 0.89625 0.29345 0.0
H505 H 0.15828 0.79573 0.2893 0.0
H506 H 0.20395 0.77043 0.28169 0.0
H507 H 0.23784 0.85047 0.25981 0.0
C508 C 0.14306 0.90945 0.28507 0.0
C509 C 0.11919 0.90591 0.29671 0.0
C510 C 0.11111 0.87731 0.30163 0.0
C511 C 0.12674 0.8529 0.29546 0.0
C512 C 0.15049 0.85729 0.28437 0.0
C513 C 0.15868 0.88486 0.27924 0.0
C514 C 0.18713 0.88401 0.26914 0.0
C515 C 0.18242 0.89318 0.24928 0.0
C516 C 0.21061 0.90306 0.27909 0.0
C517 C 0.1943 0.85183 0.27011 0.0
C518 C 0.17252 0.8367 0.27857 0.0
C519 C 0.17527 0.80721 0.28239 0.0
C520 C 0.20134 0.79303 0.27803 0.0
C521 C 0.22448 0.80841 0.27009 0.0
C522 C 0.22041 0.83795 0.26556 0.0
H523 H 0.11372 0.65964 0.56467 0.0
H524 H 0.14476 0.57869 0.54025 0.0
H525 H 0.18361 0.60586 0.52498 0.0
H526 H 0.12474 0.70441 0.52676 0.0
H527 H 0.13659 0.73585 0.54031 0.0
H528 H 0.11213 0.70973 0.5497 0.0
H529 H 0.14828 0.70283 0.57701 0.0
H530 H 0.17293 0.72887 0.56765 0.0
H531 H 0.18554 0.69269 0.57275 0.0
H532 H 0.21676 0.64272 0.51059 0.0
H533 H 0.24257 0.68592 0.49926 0.0
H534 H 0.19117 0.74209 0.53448 0.0
C535 C 0.12874 0.64767 0.55611 0.0
C536 C 0.12624 0.61712 0.55355 0.0
C537 C 0.14645 0.6021 0.54244 0.0
C538 C 0.16852 0.61735 0.53371 0.0
C539 C 0.17031 0.64753 0.53646 0.0
C540 C 0.1511 0.66248 0.54753 0.0
C541 C 0.15749 0.69491 0.54813 0.0
C542 C 0.13118 0.71223 0.54078 0.0
C543 C 0.16661 0.70544 0.56754 0.0
C544 C 0.1829 0.696 0.53536 0.0
C545 C 0.19 0.66849 0.52874 0.0
C546 C 0.21166 0.66432 0.51589 0.0
C547 C 0.22619 0.68896 0.50952 0.0
C548 C 0.21917 0.71734 0.51614 0.0
C549 C 0.19749 0.72068 0.52941 0.0
H550 H 0.39273 0.60881 0.82415 0.0
H551 H 0.46463 0.62381 0.78794 0.0
H552 H 0.43858 0.66597 0.77544 0.0
H553 H 0.33799 0.62062 0.79112 0.0
H554 H 0.31288 0.63758 0.80666 0.0
H555 H 0.33916 0.61168 0.81492 0.0
H556 H 0.35856 0.65008 0.83889 0.0
H557 H 0.33238 0.6762 0.83059 0.0
H558 H 0.37073 0.68517 0.83148 0.0
H559 H 0.40337 0.70377 0.765 0.0
H560 H 0.35999 0.7316 0.75541 0.0
H561 H 0.30942 0.6897 0.79671 0.0
C562 C 0.40315 0.62088 0.81361 0.0
C563 C 0.43099 0.61291 0.80719 0.0
C564 C 0.44373 0.62971 0.79349 0.0
C565 C 0.42903 0.65372 0.78622 0.0
C566 C 0.40152 0.66062 0.7927 0.0
C567 C 0.3886 0.64457 0.80599 0.0
C568 C 0.35763 0.6546 0.80922 0.0
C569 C 0.33563 0.62964 0.80523 0.0
C570 C 0.35466 0.66727 0.8287 0.0
C571 C 0.35485 0.67822 0.79523 0.0
C572 C 0.38065 0.6818 0.78617 0.0
C573 C 0.3831 0.70136 0.77209 0.0
C574 C 0.3583 0.71709 0.76675 0.0
C575 C 0.33123 0.71283 0.77529 0.0
C576 C 0.32979 0.69362 0.79 0.0
H577 H 0.41879 0.90843 0.04931 0.0
H578 H 0.46612 0.85768 0.08932 0.0
H579 H 0.43323 0.81567 0.08259 0.0
H580 H 0.34568 0.87789 0.05675 0.0
H581 H 0.33557 0.87753 0.03283 0.0
H582 H 0.36088 0.90461 0.04205 0.0
H583 H 0.3989 0.88851 0.01825 0.0
H584 H 0.37371 0.86149 0.00894 0.0
H585 H 0.40966 0.85073 0.01668 0.0
H586 H 0.39721 0.77876 0.07062 0.0
H587 H 0.36245 0.74776 0.05274 0.0
H588 H 0.33911 0.82163 0.01946 0.0
C589 C 0.42182 0.88855 0.05679 0.0
C590 C 0.44476 0.88612 0.06988 0.0
C591 C 0.44862 0.85975 0.07923 0.0
C592 C 0.42998 0.83593 0.07558 0.0
C593 C 0.4077 0.83883 0.06246 0.0
C594 C 0.40362 0.86437 0.05311 0.0
C595 C 0.37945 0.86087 0.03869 0.0
C596 C 0.35388 0.88145 0.04283 0.0
C597 C 0.39114 0.86568 0.01951 0.0
C598 C 0.37098 0.82924 0.04119 0.0
C599 C 0.38727 0.81714 0.05518 0.0
C600 C 0.38418 0.78801 0.05971 0.0
C601 C 0.36434 0.77057 0.04944 0.0
C602 C 0.34798 0.7822 0.03466 0.0
C603 C 0.35108 0.8121 0.03074 0.0
H604 H 0.10299 0.64912 0.95469 0.0
H605 H 0.08984 0.59633 0.0021 0.0
H606 H 0.13069 0.62207 0.01826 0.0
H607 H 0.17793 0.64885 0.95641 0.0
H608 H 0.18275 0.68594 0.94943 0.0
H609 H 0.15026 0.66608 0.94251 0.0
H610 H 0.11832 0.70677 0.95687 0.0
H611 H 0.15079 0.72688 0.96381 0.0
H612 H 0.12431 0.7176 0.98049 0.0
H613 H 0.17675 0.64874 0.02758 0.0
H614 H 0.22389 0.67511 0.02958 0.0
H615 H 0.20539 0.71239 0.97679 0.0
C616 C 0.10802 0.64359 0.96869 0.0
C617 C 0.09312 0.62071 0.97713 0.0
C618 C 0.10109 0.61359 0.99527 0.0
C619 C 0.12409 0.62826 0.00463 0.0
C620 C 0.1387 0.65027 0.99575 0.0
C621 C 0.13078 0.65812 0.97824 0.0
C622 C 0.15135 0.68094 0.97123 0.0
C623 C 0.16646 0.66977 0.95388 0.0
C624 C 0.13522 0.70976 0.96791 0.0
C625 C 0.17271 0.68394 0.98727 0.0
C626 C 0.1649 0.66624 0.00134 0.0
C627 C 0.18275 0.66318 0.01685 0.0
C628 C 0.2095 0.67818 0.01784 0.0
C629 C 0.21806 0.69611 0.00347 0.0
C630 C 0.19905 0.69949 0.98821 0.0
H631 H 0.4064 0.58412 0.22502 0.0
H632 H 0.45257 0.63055 0.18371 0.0
H633 H 0.42538 0.67547 0.19155 0.0
H634 H 0.33622 0.62047 0.21889 0.0
H635 H 0.32889 0.62157 0.24294 0.0
H636 H 0.35078 0.59261 0.23342 0.0
H637 H 0.39273 0.60564 0.25663 0.0
H638 H 0.37094 0.63453 0.26625 0.0
H639 H 0.40676 0.64245 0.258 0.0
H640 H 0.3943 0.71533 0.20424 0.0
H641 H 0.36342 0.74865 0.22218 0.0
H642 H 0.33784 0.67664 0.25575 0.0
C643 C 0.41051 0.6037 0.21753 0.0
C644 C 0.43153 0.60398 0.20377 0.0
C645 C 0.43671 0.63004 0.19441 0.0
C646 C 0.42125 0.65555 0.19866 0.0
C647 C 0.40075 0.6546 0.21234 0.0
C648 C 0.39544 0.62944 0.22171 0.0
C649 C 0.37332 0.63475 0.23644 0.0
C650 C 0.34566 0.61625 0.23269 0.0
C651 C 0.38675 0.62901 0.25545 0.0
C652 C 0.36728 0.66691 0.23401 0.0
C653 C 0.38309 0.67782 0.21989 0.0
C654 C 0.38172 0.70705 0.21528 0.0
C655 C 0.36406 0.7258 0.22556 0.0
C656 C 0.34816 0.7153 0.24039 0.0
C657 C 0.34958 0.68534 0.24446 0.0
H658 H 0.43547 0.89158 0.44916 0.0
H659 H 0.44678 0.94626 0.49808 0.0
H660 H 0.40888 0.91763 0.51311 0.0
H661 H 0.35977 0.88536 0.45043 0.0
H662 H 0.35814 0.84793 0.44228 0.0
H663 H 0.38796 0.87093 0.43607 0.0
H664 H 0.42488 0.83375 0.4492 0.0
H665 H 0.39513 0.81054 0.45545 0.0
H666 H 0.4219 0.8226 0.47248 0.0
H667 H 0.36691 0.88552 0.52185 0.0
H668 H 0.32394 0.85306 0.52341 0.0
H669 H 0.34119 0.81866 0.46902 0.0
C670 C 0.43054 0.8971 0.4632 0.0
C671 C 0.44424 0.9211 0.47247 0.0
C672 C 0.43647 0.92809 0.49066 0.0
C673 C 0.41513 0.91182 0.49936 0.0
C674 C 0.40184 0.88851 0.48973 0.0
C675 C 0.40935 0.8811 0.47208 0.0
C676 C 0.39059 0.85626 0.46431 0.0
C677 C 0.37308 0.8657 0.44728 0.0
C678 C 0.40925 0.82918 0.46012 0.0
C679 C 0.37088 0.85126 0.48021 0.0
C680 C 0.37785 0.86991 0.49481 0.0
C681 C 0.36151 0.87054 0.5106 0.0
C682 C 0.33712 0.85201 0.51136 0.0
C683 C 0.32928 0.83309 0.49642 0.0
C684 C 0.34683 0.83244 0.48082 0.0
H685 H 0.15656 0.93036 0.71639 0.0
H686 H 0.08533 0.92229 0.75388 0.0
H687 H 0.11267 0.88404 0.7701 0.0
H688 H 0.17233 0.85782 0.71169 0.0
H689 H 0.21137 0.86225 0.7108 0.0
H690 H 0.18773 0.89125 0.7037 0.0
H691 H 0.2138 0.92694 0.72685 0.0
H692 H 0.23766 0.89798 0.73403 0.0
H693 H 0.2165 0.91783 0.7506 0.0
H694 H 0.14536 0.84214 0.7796 0.0
H695 H 0.18051 0.80131 0.78157 0.0
H696 H 0.23107 0.83981 0.73904 0.0
C697 C 0.14702 0.92137 0.72838 0.0
C698 C 0.11874 0.92945 0.73382 0.0
C699 C 0.10681 0.91627 0.74927 0.0
C700 C 0.1223 0.8947 0.7587 0.0
C701 C 0.1499 0.88688 0.75271 0.0
C702 C 0.16226 0.90012 0.73803 0.0
C703 C 0.19123 0.8865 0.7334 0.0
C704 C 0.1906 0.87369 0.71375 0.0
C705 C 0.21628 0.90863 0.73641 0.0
C706 C 0.1928 0.86279 0.74732 0.0
C707 C 0.16895 0.86341 0.75848 0.0
C708 C 0.16445 0.84182 0.77121 0.0
C709 C 0.18452 0.81871 0.77224 0.0
C710 C 0.20871 0.81743 0.76058 0.0
C711 C 0.21315 0.8403 0.74839 0.0
H712 H 0.60837 0.37013 0.81228 0.0
H713 H 0.58824 0.42381 0.7659 0.0
H714 H 0.62567 0.39754 0.74801 0.0
H715 H 0.6829 0.36955 0.80817 0.0
H716 H 0.68802 0.3323 0.81485 0.0
H717 H 0.65716 0.35262 0.82283 0.0
H718 H 0.62216 0.31256 0.80935 0.0
H719 H 0.65301 0.29203 0.80132 0.0
H720 H 0.6241 0.30194 0.78556 0.0
H721 H 0.67032 0.36995 0.73702 0.0
H722 H 0.7165 0.34255 0.73363 0.0
H723 H 0.70504 0.30592 0.78698 0.0
C724 C 0.61151 0.37594 0.79824 0.0
C725 C 0.59557 0.39889 0.7904 0.0
C726 C 0.60015 0.40604 0.77203 0.0
C727 C 0.62134 0.39127 0.76181 0.0
C728 C 0.63725 0.3691 0.77011 0.0
C729 C 0.63221 0.36122 0.78784 0.0
C730 C 0.65331 0.33807 0.7941 0.0
C731 C 0.67141 0.34879 0.81097 0.0
C732 C 0.63718 0.30945 0.79779 0.0
C733 C 0.67188 0.33499 0.77742 0.0
C734 C 0.66223 0.35281 0.76362 0.0
C735 C 0.67769 0.35544 0.74758 0.0
C736 C 0.70391 0.33983 0.74577 0.0
C737 C 0.71432 0.32189 0.75996 0.0
C738 C 0.69756 0.31903 0.77572 0.0
H739 H 0.66686 0.0948 0.06816 0.0
H740 H 0.62208 0.06482 0.01828 0.0
H741 H 0.64982 0.10052 0.00087 0.0
H742 H 0.66488 0.16812 0.05905 0.0
H743 H 0.70032 0.17705 0.06893 0.0
H744 H 0.68035 0.14633 0.07697 0.0
H745 H 0.7241 0.1125 0.07 0.0
H746 H 0.74428 0.1432 0.06191 0.0
H747 H 0.73869 0.11121 0.04739 0.0
H748 H 0.67745 0.1433 0.98962 0.0
H749 H 0.70211 0.19053 0.98548 0.0
H750 H 0.72997 0.19227 0.04249 0.0
C751 C 0.66358 0.09513 0.05349 0.0
C752 C 0.64245 0.07691 0.04454 0.0
C753 C 0.6381 0.07864 0.02541 0.0
C754 C 0.65391 0.09869 0.01539 0.0
C755 C 0.67415 0.11677 0.02468 0.0
C756 C 0.67914 0.1151 0.04329 0.0
C757 C 0.69999 0.13886 0.05026 0.0
C758 C 0.68551 0.15876 0.06464 0.0
C759 C 0.72846 0.12564 0.05783 0.0
C760 C 0.70512 0.1548 0.03276 0.0
C761 C 0.69034 0.14145 0.01812 0.0
C762 C 0.6896 0.15361 0.00089 0.0
C763 C 0.70368 0.18047 0.99866 0.0
C764 C 0.71832 0.19492 0.01358 0.0
C765 C 0.71966 0.18141 0.03071 0.0
H766 H 0.9712 0.13904 0.27689 0.0
H767 H 0.95913 0.15115 0.33505 0.0
H768 H 0.9165 0.18262 0.32892 0.0
H769 H 0.94795 0.21441 0.26431 0.0
H770 H 0.93032 0.20129 0.2434 0.0
H771 H 0.96189 0.18264 0.25245 0.0
H772 H 0.9324 0.13428 0.25211 0.0
H773 H 0.90073 0.15277 0.24323 0.0
H774 H 0.89851 0.13286 0.26403 0.0
H775 H 0.87087 0.2055 0.3165 0.0
H776 H 0.8283 0.22312 0.29851 0.0
H777 H 0.87185 0.19965 0.24844 0.0
C778 C 0.95997 0.149 0.28828 0.0
C779 C 0.96849 0.143 0.30642 0.0
C780 C 0.95319 0.15599 0.32106 0.0
C781 C 0.9289 0.17375 0.31771 0.0
C782 C 0.92057 0.17871 0.29965 0.0
C783 C 0.93599 0.16723 0.28517 0.0
C784 C 0.92165 0.17478 0.26707 0.0
C785 C 0.94165 0.19446 0.25617 0.0
C786 C 0.9128 0.14702 0.25597 0.0
C787 C 0.89517 0.19129 0.27365 0.0
C788 C 0.89492 0.19327 0.29249 0.0
C789 C 0.87119 0.20483 0.30174 0.0
C790 C 0.84709 0.21463 0.29146 0.0
C791 C 0.84719 0.21319 0.27217 0.0
C792 C 0.87168 0.20173 0.26319 0.0
H793 H 0.88588 0.44238 0.57059 0.0
H794 H 0.91639 0.46864 0.51798 0.0
H795 H 0.88714 0.42917 0.50286 0.0
H796 H 0.89194 0.36974 0.56296 0.0
H797 H 0.85987 0.35881 0.57483 0.0
H798 H 0.87801 0.3925 0.58118 0.0
H799 H 0.82986 0.4209 0.57587 0.0
H800 H 0.81139 0.38716 0.56964 0.0
H801 H 0.81049 0.41715 0.55422 0.0
H802 H 0.86235 0.38235 0.49422 0.0
H803 H 0.84267 0.33214 0.49253 0.0
H804 H 0.82698 0.33664 0.55063 0.0
C805 C 0.88539 0.44058 0.55583 0.0
C806 C 0.90316 0.45865 0.54541 0.0
C807 C 0.90288 0.45499 0.52618 0.0
C808 C 0.8862 0.43276 0.51748 0.0
C809 C 0.86974 0.41459 0.52821 0.0
C810 C 0.86891 0.41846 0.54695 0.0
C811 C 0.85228 0.39395 0.55553 0.0
C812 C 0.87169 0.37781 0.56943 0.0
C813 C 0.82434 0.40548 0.56433 0.0
C814 C 0.84518 0.37493 0.5388 0.0
C815 C 0.85504 0.38747 0.52314 0.0
C816 C 0.85385 0.37264 0.50629 0.0
C817 C 0.84278 0.34409 0.50548 0.0
C818 C 0.83301 0.33068 0.52141 0.0
C819 C 0.83358 0.34663 0.53816 0.0
H820 H 0.6328 0.11626 0.48061 0.0
H821 H 0.6577 0.1176 0.42395 0.0
H822 H 0.69627 0.1537 0.43198 0.0
H823 H 0.64727 0.19434 0.49146 0.0
H824 H 0.66167 0.18723 0.51401 0.0
H825 H 0.63415 0.16349 0.50365 0.0
H826 H 0.66798 0.11898 0.50844 0.0
H827 H 0.69557 0.14255 0.51878 0.0
H828 H 0.70424 0.11937 0.49943 0.0
H829 H 0.73393 0.18632 0.44608 0.0
H830 H 0.76963 0.21346 0.4656 0.0
H831 H 0.72101 0.1917 0.51352 0.0
C832 C 0.64608 0.12462 0.4699 0.0
C833 C 0.64238 0.11422 0.45167 0.0
C834 C 0.66041 0.12517 0.43801 0.0
C835 C 0.6822 0.1458 0.44242 0.0
C836 C 0.68564 0.15529 0.46054 0.0
C837 C 0.66813 0.14515 0.47409 0.0
C838 C 0.6778 0.15762 0.49266 0.0
C839 C 0.65379 0.17682 0.50093 0.0
C840 C 0.68694 0.13317 0.50558 0.0
C841 C 0.70384 0.17582 0.48742 0.0
C842 C 0.70769 0.17432 0.46878 0.0
C843 C 0.731 0.18795 0.46067 0.0
C844 C 0.75122 0.20325 0.47191 0.0
C845 C 0.74807 0.20479 0.49109 0.0
C846 C 0.72377 0.19125 0.49889 0.0
H847 H 0.92766 0.14192 0.69506 0.0
H848 H 0.89206 0.06581 0.72046 0.0
H849 H 0.85309 0.09637 0.73392 0.0
H850 H 0.91756 0.19167 0.73069 0.0
H851 H 0.90729 0.22186 0.71665 0.0
H852 H 0.93035 0.1935 0.70769 0.0
H853 H 0.89384 0.18452 0.68051 0.0
H854 H 0.87066 0.213 0.68937 0.0
H855 H 0.85608 0.17687 0.6849 0.0
H856 H 0.82247 0.13646 0.74773 0.0
H857 H 0.80013 0.18233 0.75906 0.0
H858 H 0.85397 0.23157 0.72291 0.0
C859 C 0.9113 0.13172 0.70322 0.0
C860 C 0.91263 0.1017 0.70683 0.0
C861 C 0.89108 0.08883 0.71753 0.0
C862 C 0.86898 0.10599 0.7252 0.0
C863 C 0.86854 0.13575 0.72166 0.0
C864 C 0.88886 0.1484 0.71066 0.0
C865 C 0.88427 0.18097 0.70949 0.0
C866 C 0.91148 0.19799 0.71656 0.0
C867 C 0.8757 0.18932 0.6899 0.0
C868 C 0.85897 0.18492 0.72215 0.0
C869 C 0.85011 0.15859 0.729 0.0
C870 C 0.82877 0.15712 0.74216 0.0
C871 C 0.8163 0.18326 0.74857 0.0
C872 C 0.82509 0.21041 0.74169 0.0
C873 C 0.84635 0.21108 0.72811 0.0
H874 H 0.90682 0.42388 0.97739 0.0
H875 H 0.87809 0.42113 0.9205 0.0
H876 H 0.84257 0.38253 0.92703 0.0
H877 H 0.89944 0.34518 0.98486 0.0
H878 H 0.88631 0.35043 0.00768 0.0
H879 H 0.91082 0.37675 0.99844 0.0
H880 H 0.87363 0.41794 0.00505 0.0
H881 H 0.84906 0.39179 0.01432 0.0
H882 H 0.83679 0.41452 0.99597 0.0
H883 H 0.8085 0.34651 0.93974 0.0
H884 H 0.77714 0.31551 0.95799 0.0
H885 H 0.82779 0.34034 0.00685 0.0
C886 C 0.89331 0.41484 0.96628 0.0
C887 C 0.89513 0.42565 0.94844 0.0
C888 C 0.8768 0.41352 0.93432 0.0
C889 C 0.85672 0.39141 0.93786 0.0
C890 C 0.85522 0.38149 0.95559 0.0
C891 C 0.873 0.39272 0.9696 0.0
C892 C 0.86592 0.37897 0.98759 0.0
C893 C 0.89219 0.36181 0.99508 0.0
C894 C 0.85574 0.40219 0.00155 0.0
C895 C 0.8411 0.35863 0.98152 0.0
C896 C 0.8355 0.36036 0.96297 0.0
C897 C 0.81283 0.34475 0.95424 0.0
C898 C 0.7951 0.32722 0.96476 0.0
C899 C 0.80005 0.32532 0.98385 0.0
C900 C 0.8237 0.34095 0.99226 0.0
H901 H 0.60108 0.36395 0.21858 0.0
H902 H 0.64733 0.44549 0.23035 0.0
H903 H 0.68743 0.41822 0.24491 0.0
H904 H 0.62378 0.32885 0.26211 0.0
H905 H 0.62617 0.29345 0.25094 0.0
H906 H 0.59996 0.31971 0.24285 0.0
H907 H 0.62129 0.3153 0.21049 0.0
H908 H 0.64751 0.28916 0.21846 0.0
H909 H 0.65974 0.32171 0.20763 0.0
H910 H 0.72561 0.38152 0.25367 0.0
H911 H 0.75716 0.33825 0.25786 0.0
H912 H 0.68367 0.28152 0.24406 0.0
C913 C 0.61908 0.37635 0.22471 0.0
C914 C 0.62093 0.407 0.22308 0.0
C915 C 0.64551 0.42199 0.23095 0.0
C916 C 0.66831 0.40672 0.2395 0.0
C917 C 0.66595 0.37651 0.24052 0.0
C918 C 0.6417 0.36155 0.23364 0.0
C919 C 0.6451 0.32894 0.23567 0.0
C920 C 0.6224 0.31704 0.24867 0.0
C921 C 0.64332 0.31286 0.21695 0.0
C922 C 0.67558 0.32779 0.24406 0.0
C923 C 0.68726 0.35548 0.24679 0.0
C924 C 0.71642 0.35979 0.25218 0.0
C925 C 0.73416 0.33518 0.25452 0.0
C926 C 0.7225 0.30676 0.2518 0.0
C927 C 0.69272 0.30307 0.24695 0.0
H928 H 0.13696 0.89589 0.38733 0.0
H929 H 0.07336 0.93549 0.42313 0.0
H930 H 0.09474 0.90912 0.44911 0.0
H931 H 0.1391 0.82475 0.4091 0.0
H932 H 0.17778 0.82045 0.40604 0.0
H933 H 0.15633 0.84107 0.39 0.0
H934 H 0.19077 0.88553 0.39563 0.0
H935 H 0.21225 0.86511 0.41172 0.0
H936 H 0.19691 0.89976 0.41858 0.0
H937 H 0.12545 0.88194 0.47163 0.0
H938 H 0.16174 0.85317 0.4889 0.0
H939 H 0.20457 0.83001 0.43842 0.0
C940 C 0.1274 0.89878 0.40061 0.0
C941 C 0.10338 0.91758 0.40319 0.0
C942 C 0.09144 0.9208 0.42078 0.0
C943 C 0.10354 0.90606 0.43564 0.0
C944 C 0.12741 0.88798 0.43268 0.0
C945 C 0.13906 0.88402 0.41559 0.0
C946 C 0.16517 0.86383 0.41622 0.0
C947 C 0.15923 0.83586 0.40465 0.0
C948 C 0.19291 0.8795 0.41018 0.0
C949 C 0.16669 0.85753 0.4364 0.0
C950 C 0.14474 0.87171 0.44564 0.0
C951 C 0.14252 0.8704 0.46452 0.0
C952 C 0.16328 0.85411 0.47421 0.0
C953 C 0.18582 0.83917 0.46499 0.0
C954 C 0.18734 0.84083 0.44582 0.0
H955 H 0.11263 0.60087 0.67731 0.0
H956 H 0.14472 0.62948 0.62559 0.0
H957 H 0.18391 0.65768 0.64186 0.0
H958 H 0.12275 0.66844 0.70081 0.0
H959 H 0.13363 0.65309 0.72231 0.0
H960 H 0.11003 0.63268 0.70663 0.0
H961 H 0.14639 0.58947 0.7069 0.0
H962 H 0.17013 0.60976 0.72262 0.0
H963 H 0.18398 0.59568 0.70136 0.0
H964 H 0.21762 0.68445 0.66345 0.0
H965 H 0.24285 0.71038 0.6891 0.0
H966 H 0.18813 0.66587 0.72721 0.0
C967 C 0.1283 0.61268 0.66948 0.0
C968 C 0.12596 0.61298 0.65025 0.0
C969 C 0.1463 0.62911 0.64035 0.0
C970 C 0.16864 0.64501 0.64945 0.0
C971 C 0.17019 0.64462 0.66844 0.0
C972 C 0.15054 0.629 0.67838 0.0
C973 C 0.15584 0.63406 0.69871 0.0
C974 C 0.12897 0.6479 0.70763 0.0
C975 C 0.16461 0.60554 0.70794 0.0
C976 C 0.18122 0.65533 0.69862 0.0
C977 C 0.18934 0.66077 0.681 0.0
C978 C 0.21161 0.68026 0.67732 0.0
C979 C 0.22579 0.69491 0.69202 0.0
C980 C 0.2175 0.6902 0.71021 0.0
C981 C 0.1951 0.66985 0.7135 0.0
H982 H 0.41954 0.5708 0.92297 0.0
H983 H 0.42441 0.62682 0.87635 0.0
H984 H 0.39756 0.66524 0.89316 0.0
H985 H 0.34689 0.59171 0.93618 0.0
H986 H 0.35532 0.59035 0.96028 0.0
H987 H 0.37463 0.5672 0.94447 0.0
H988 H 0.42389 0.58828 0.95709 0.0
H989 H 0.40474 0.61157 0.9729 0.0
H990 H 0.4299 0.62718 0.95733 0.0
H991 H 0.37019 0.69741 0.91497 0.0
H992 H 0.34437 0.72139 0.94037 0.0
H993 H 0.35778 0.64452 0.97293 0.0
C994 C 0.41472 0.59107 0.91626 0.0
C995 C 0.42407 0.59591 0.89839 0.0
C996 C 0.4177 0.62284 0.89012 0.0
C997 C 0.40237 0.64471 0.89952 0.0
C998 C 0.39366 0.63932 0.91718 0.0
C999 C 0.39959 0.6132 0.92549 0.0
C1000 C 0.3881 0.61312 0.94467 0.0
C1001 C 0.36485 0.58917 0.9465 0.0
C1002 C 0.41316 0.60985 0.95883 0.0
C1003 C 0.37475 0.64328 0.94584 0.0
C1004 C 0.37813 0.658 0.92982 0.0
C1005 C 0.36743 0.68613 0.92759 0.0
C1006 C 0.35278 0.69956 0.9421 0.0
C1007 C 0.34907 0.68489 0.95867 0.0
C1008 C 0.36034 0.6564 0.96049 0.0
H1009 H 0.4639 0.94181 0.18522 0.0
H1010 H 0.42359 0.90262 0.13633 0.0
H1011 H 0.38758 0.87763 0.15517 0.0
H1012 H 0.45814 0.87868 0.21214 0.0
H1013 H 0.45108 0.89862 0.23308 0.0
H1014 H 0.472 0.9153 0.21569 0.0
H1015 H 0.43599 0.9588 0.21517 0.0
H1016 H 0.41489 0.94218 0.23254 0.0
H1017 H 0.39754 0.95195 0.21123 0.0
H1018 H 0.35669 0.85643 0.17923 0.0
H1019 H 0.33551 0.83675 0.20694 0.0
H1020 H 0.39748 0.8877 0.24048 0.0
C1021 C 0.44722 0.92823 0.17854 0.0
C1022 C 0.4462 0.92422 0.15938 0.0
C1023 C 0.42457 0.90588 0.15103 0.0
C1024 C 0.404 0.89177 0.16159 0.0
C1025 C 0.40561 0.89605 0.18048 0.0
C1026 C 0.42682 0.91359 0.18892 0.0
C1027 C 0.42496 0.91286 0.20952 0.0
C1028 C 0.45322 0.90063 0.21811 0.0
C1029 C 0.41792 0.94326 0.21759 0.0
C1030 C 0.39955 0.89198 0.21134 0.0
C1031 C 0.38845 0.88292 0.19442 0.0
C1032 C 0.36516 0.86339 0.19256 0.0
C1033 C 0.35323 0.85239 0.20841 0.0
C1034 C 0.36483 0.86064 0.22591 0.0
C1035 C 0.38809 0.88099 0.22732 0.0
H1036 H 0.08025 0.65731 0.86786 0.0
H1037 H 0.13236 0.57859 0.87206 0.0
H1038 H 0.16742 0.59856 0.85073 0.0
H1039 H 0.08845 0.6653 0.82028 0.0
H1040 H 0.09033 0.7046 0.82139 0.0
H1041 H 0.07047 0.68535 0.83823 0.0
H1042 H 0.1016 0.71083 0.86404 0.0
H1043 H 0.1215 0.73027 0.84727 0.0
H1044 H 0.14085 0.7084 0.86366 0.0
H1045 H 0.19538 0.62554 0.8276 0.0
H1046 H 0.21482 0.65817 0.80461 0.0
H1047 H 0.14407 0.71898 0.81463 0.0
C1048 C 0.09908 0.64428 0.86437 0.0
C1049 C 0.10355 0.6164 0.87184 0.0
C1050 C 0.12865 0.60024 0.86692 0.0
C1051 C 0.14864 0.6113 0.85467 0.0
C1052 C 0.14331 0.63858 0.8474 0.0
C1053 C 0.11922 0.65493 0.85209 0.0
C1054 C 0.11807 0.68317 0.84177 0.0
C1055 C 0.09017 0.68468 0.8297 0.0
C1056 C 0.12067 0.70974 0.85497 0.0
C1057 C 0.14505 0.67991 0.83034 0.0
C1058 C 0.15935 0.65409 0.83389 0.0
C1059 C 0.18447 0.6459 0.82478 0.0
C1060 C 0.19531 0.6646 0.8117 0.0
C1061 C 0.18102 0.6912 0.80778 0.0
C1062 C 0.15557 0.69888 0.81731 0.0
H1063 H 0.43225 0.57133 0.09821 0.0
H1064 H 0.36326 0.53548 0.13042 0.0
H1065 H 0.32646 0.56133 0.11164 0.0
H1066 H 0.40108 0.64182 0.09282 0.0
H1067 H 0.4129 0.64544 0.06973 0.0
H1068 H 0.43354 0.62336 0.08534 0.0
H1069 H 0.42867 0.57909 0.06271 0.0
H1070 H 0.40796 0.60103 0.04702 0.0
H1071 H 0.3929 0.56727 0.05473 0.0
H1072 H 0.29753 0.59306 0.09027 0.0
H1073 H 0.27842 0.62711 0.06733 0.0
H1074 H 0.36646 0.64126 0.04876 0.0
C1075 C 0.40939 0.56897 0.10132 0.0
C1076 C 0.40055 0.55146 0.11577 0.0
C1077 C 0.37044 0.5486 0.1193 0.0
C1078 C 0.34942 0.56326 0.10876 0.0
C1079 C 0.35891 0.58048 0.09467 0.0
C1080 C 0.38816 0.58325 0.09088 0.0
C1081 C 0.39266 0.60324 0.07508 0.0
C1082 C 0.41113 0.63005 0.08111 0.0
C1083 C 0.40635 0.58666 0.05893 0.0
C1084 C 0.36138 0.6116 0.07071 0.0
C1085 C 0.34223 0.59826 0.08217 0.0
C1086 C 0.31229 0.60344 0.08113 0.0
C1087 C 0.30165 0.62285 0.06808 0.0
C1088 C 0.32092 0.63672 0.0562 0.0
C1089 C 0.35113 0.63077 0.05751 0.0
H1090 H 0.45128 0.91598 0.34755 0.0
H1091 H 0.41941 0.88897 0.39968 0.0
H1092 H 0.38663 0.85294 0.38375 0.0
H1093 H 0.38224 0.91146 0.32351 0.0
H1094 H 0.39762 0.89849 0.30242 0.0
H1095 H 0.41907 0.92129 0.31803 0.0
H1096 H 0.45958 0.88191 0.31887 0.0
H1097 H 0.43819 0.85895 0.3033 0.0
H1098 H 0.45045 0.8452 0.32497 0.0
H1099 H 0.35819 0.81939 0.36202 0.0
H1100 H 0.33326 0.7933 0.33614 0.0
H1101 H 0.38259 0.84393 0.29822 0.0
C1102 C 0.43752 0.90231 0.35558 0.0
C1103 C 0.43789 0.90497 0.3748 0.0
C1104 C 0.41928 0.88718 0.38492 0.0
C1105 C 0.40076 0.86663 0.376 0.0
C1106 C 0.40101 0.86446 0.357 0.0
C1107 C 0.4187 0.88201 0.34691 0.0
C1108 C 0.41408 0.87614 0.32663 0.0
C1109 C 0.40256 0.90347 0.3171 0.0
C1110 C 0.44225 0.86488 0.31794 0.0
C1111 C 0.39103 0.85248 0.32686 0.0
C1112 C 0.384 0.84584 0.3445 0.0
C1113 C 0.36345 0.82446 0.34815 0.0
C1114 C 0.34949 0.80971 0.33336 0.0
C1115 C 0.35593 0.81664 0.31517 0.0
C1116 C 0.3771 0.83823 0.31196 0.0
H1117 H 0.13731 0.96556 0.60428 0.0
H1118 H 0.15382 0.90415 0.64736 0.0
H1119 H 0.18249 0.87348 0.62613 0.0
H1120 H 0.12708 0.91384 0.56874 0.0
H1121 H 0.14468 0.93497 0.55176 0.0
H1122 H 0.12753 0.95314 0.5707 0.0
H1123 H 0.17605 0.97992 0.5793 0.0
H1124 H 0.19335 0.96193 0.5603 0.0
H1125 H 0.20883 0.95898 0.58302 0.0
H1126 H 0.20673 0.84817 0.59961 0.0
H1127 H 0.22471 0.83007 0.56996 0.0
H1128 H 0.19263 0.90859 0.54443 0.0
C1129 C 0.14754 0.94603 0.60941 0.0
C1130 C 0.1435 0.93734 0.62753 0.0
C1131 C 0.15653 0.91116 0.63352 0.0
C1132 C 0.17297 0.8937 0.62159 0.0
C1133 C 0.1762 0.90278 0.60375 0.0
C1134 C 0.16394 0.9284 0.59771 0.0
C1135 C 0.16938 0.93256 0.57767 0.0
C1136 C 0.14045 0.93368 0.56657 0.0
C1137 C 0.18802 0.95998 0.57492 0.0
C1138 C 0.18622 0.90503 0.57326 0.0
C1139 C 0.1901 0.88822 0.58851 0.0
C1140 C 0.20405 0.86127 0.58763 0.0
C1141 C 0.21415 0.85117 0.5707 0.0
C1142 C 0.21017 0.86794 0.55486 0.0
C1143 C 0.19624 0.89534 0.55629 0.0
H1144 H 0.61168 0.38977 0.89628 0.0
H1145 H 0.52931 0.34279 0.89282 0.0
H1146 H 0.54997 0.3051 0.91291 0.0
H1147 H 0.6597 0.32522 0.89843 0.0
H1148 H 0.68474 0.34322 0.91444 0.0
H1149 H 0.66454 0.36425 0.898 0.0
H1150 H 0.6443 0.3968 0.9242 0.0
H1151 H 0.66431 0.37586 0.94069 0.0
H1152 H 0.62536 0.37999 0.94247 0.0
H1153 H 0.57809 0.27564 0.9362 0.0
H1154 H 0.61147 0.25649 0.96005 0.0
H1155 H 0.67506 0.32325 0.94801 0.0
C1156 C 0.59808 0.37137 0.89956 0.0
C1157 C 0.56889 0.36919 0.893 0.0
C1158 C 0.55186 0.3447 0.89752 0.0
C1159 C 0.56338 0.32325 0.90896 0.0
C1160 C 0.59204 0.32649 0.91559 0.0
C1161 C 0.60923 0.34984 0.9109 0.0
C1162 C 0.63866 0.3494 0.9207 0.0
C1163 C 0.66337 0.34527 0.90707 0.0
C1164 C 0.64341 0.37715 0.93273 0.0
C1165 C 0.63506 0.32269 0.93211 0.0
C1166 C 0.60817 0.30956 0.92887 0.0
C1167 C 0.59936 0.28551 0.93865 0.0
C1168 C 0.61845 0.27482 0.9522 0.0
C1169 C 0.64593 0.28828 0.95587 0.0
C1170 C 0.65435 0.31225 0.94545 0.0
H1171 H 0.6424 0.08138 0.17129 0.0
H1172 H 0.66684 0.11271 0.11846 0.0
H1173 H 0.70257 0.14654 0.13364 0.0
H1174 H 0.64599 0.15011 0.19479 0.0
H1175 H 0.66037 0.13562 0.21578 0.0
H1176 H 0.63782 0.11307 0.20067 0.0
H1177 H 0.67868 0.07409 0.19943 0.0
H1178 H 0.70141 0.09658 0.21453 0.0
H1179 H 0.71475 0.08447 0.1927 0.0
H1180 H 0.73492 0.17743 0.15467 0.0
H1181 H 0.75984 0.20488 0.17996 0.0
H1182 H 0.71377 0.15338 0.21903 0.0
C1183 C 0.65554 0.09511 0.16291 0.0
C1184 C 0.652 0.09439 0.14371 0.0
C1185 C 0.66913 0.11309 0.13321 0.0
C1186 C 0.68957 0.1322 0.14169 0.0
C1187 C 0.69252 0.13235 0.16066 0.0
C1188 C 0.67588 0.11438 0.17114 0.0
C1189 C 0.68239 0.11959 0.19131 0.0
C1190 C 0.65502 0.13024 0.20121 0.0
C1191 C 0.69507 0.09204 0.2 0.0
C1192 C 0.70514 0.14348 0.19057 0.0
C1193 C 0.71086 0.15037 0.17277 0.0
C1194 C 0.7307 0.17216 0.16866 0.0
C1195 C 0.74477 0.18761 0.18314 0.0
C1196 C 0.73881 0.1813 0.20151 0.0
C1197 C 0.71893 0.15869 0.20517 0.0
H1198 H 0.97301 0.1036 0.42055 0.0
H1199 H 0.95286 0.15733 0.37416 0.0
H1200 H 0.92341 0.19008 0.3939 0.0
H1201 H 0.90248 0.10739 0.43948 0.0
H1202 H 0.91586 0.10787 0.46282 0.0
H1203 H 0.93669 0.09016 0.44526 0.0
H1204 H 0.98159 0.12232 0.45453 0.0
H1205 H 0.96085 0.14018 0.47212 0.0
H1206 H 0.97807 0.16151 0.45508 0.0
H1207 H 0.89631 0.21689 0.41912 0.0
H1208 H 0.87034 0.23297 0.44686 0.0
H1209 H 0.90664 0.15962 0.47587 0.0
C1210 C 0.96266 0.12248 0.41463 0.0
C1211 C 0.96536 0.12827 0.39596 0.0
C1212 C 0.95101 0.15271 0.3885 0.0
C1213 C 0.93441 0.17141 0.3996 0.0
C1214 C 0.93221 0.16509 0.41803 0.0
C1215 C 0.94574 0.14102 0.42541 0.0
C1216 C 0.93868 0.13798 0.4453 0.0
C1217 C 0.92246 0.10915 0.44839 0.0
C1218 C 0.96645 0.14067 0.45747 0.0
C1219 C 0.91894 0.16401 0.44798 0.0
C1220 C 0.91576 0.17967 0.43221 0.0
C1221 C 0.89861 0.20474 0.43153 0.0
C1222 C 0.88403 0.21376 0.44733 0.0
C1223 C 0.8864 0.19742 0.46343 0.0
C1224 C 0.90426 0.17241 0.46371 0.0
H1225 H 0.89083 0.46809 0.65545 0.0
H1226 H 0.94633 0.3986 0.63462 0.0
H1227 H 0.91817 0.36288 0.65133 0.0
H1228 H 0.8889 0.44121 0.70028 0.0
H1229 H 0.85176 0.45223 0.70407 0.0
H1230 H 0.87379 0.47206 0.68861 0.0
H1231 H 0.83461 0.46341 0.6629 0.0
H1232 H 0.8125 0.44339 0.67828 0.0
H1233 H 0.82305 0.42668 0.65692 0.0
H1234 H 0.88567 0.33467 0.67133 0.0
H1235 H 0.8539 0.31662 0.69521 0.0
H1236 H 0.82221 0.40469 0.70524 0.0
C1237 C 0.89725 0.44543 0.65435 0.0
C1238 C 0.92077 0.43641 0.64335 0.0
C1239 C 0.92797 0.40629 0.64237 0.0
C1240 C 0.91218 0.38571 0.65196 0.0
C1241 C 0.88939 0.39545 0.6627 0.0
C1242 C 0.8821 0.42461 0.66412 0.0
C1243 C 0.85819 0.4296 0.67778 0.0
C1244 C 0.86881 0.44997 0.69362 0.0
C1245 C 0.83045 0.44147 0.6684 0.0
C1246 C 0.85359 0.39872 0.68406 0.0
C1247 C 0.87144 0.37931 0.67492 0.0
C1248 C 0.87153 0.34964 0.67855 0.0
C1249 C 0.85333 0.3396 0.69213 0.0
C1250 C 0.83555 0.35922 0.70215 0.0
C1251 C 0.83547 0.38912 0.69782 0.0
H1252 H 0.59539 0.12226 0.34958 0.0
H1253 H 0.66454 0.06166 0.36361 0.0
H1254 H 0.69753 0.08652 0.34291 0.0
H1255 H 0.6116 0.12684 0.30237 0.0
H1256 H 0.60349 0.16519 0.301 0.0
H1257 H 0.58543 0.14334 0.3174 0.0
H1258 H 0.60347 0.17864 0.34351 0.0
H1259 H 0.62151 0.20067 0.32718 0.0
H1260 H 0.64195 0.18642 0.34627 0.0
H1261 H 0.72267 0.11695 0.32038 0.0
H1262 H 0.73872 0.15125 0.29736 0.0
H1263 H 0.65349 0.19261 0.29767 0.0
C1264 C 0.61758 0.11446 0.34844 0.0
C1265 C 0.62737 0.08994 0.35816 0.0
C1266 C 0.65646 0.08016 0.35613 0.0
C1267 C 0.6754 0.09423 0.34448 0.0
C1268 C 0.66499 0.11809 0.33495 0.0
C1269 C 0.63681 0.12822 0.33679 0.0
C1270 C 0.63101 0.15396 0.32463 0.0
C1271 C 0.60643 0.1469 0.31051 0.0
C1272 C 0.62408 0.18156 0.33608 0.0
C1273 C 0.6603 0.15658 0.31561 0.0
C1274 C 0.67956 0.13571 0.32183 0.0
C1275 C 0.70783 0.13346 0.31544 0.0
C1276 C 0.71672 0.15307 0.30232 0.0
C1277 C 0.69741 0.17469 0.29566 0.0
C1278 C 0.66881 0.1764 0.30247 0.0
H1279 H 0.92514 0.12618 0.62477 0.0
H1280 H 0.98468 0.08744 0.58601 0.0
H1281 H 0.96141 0.11542 0.56129 0.0
H1282 H 0.86222 0.12475 0.59471 0.0
H1283 H 0.84792 0.15907 0.60302 0.0
H1284 H 0.87 0.137 0.6179 0.0
H1285 H 0.90539 0.18052 0.62409 0.0
H1286 H 0.88341 0.20276 0.60925 0.0
H1287 H 0.92177 0.19809 0.60515 0.0
H1288 H 0.93207 0.14715 0.54092 0.0
H1289 H 0.89697 0.17945 0.52557 0.0
H1290 H 0.85497 0.19688 0.5772 0.0
C1291 C 0.93335 0.12384 0.61109 0.0
C1292 C 0.95666 0.1047 0.60723 0.0
C1293 C 0.96667 0.10184 0.58917 0.0
C1294 C 0.95372 0.11773 0.57509 0.0
C1295 C 0.93066 0.13625 0.57929 0.0
C1296 C 0.92043 0.13933 0.5968 0.0
C1297 C 0.89465 0.16 0.59743 0.0
C1298 C 0.86707 0.14425 0.60363 0.0
C1299 C 0.90174 0.18694 0.60971 0.0
C1300 C 0.892 0.16796 0.57751 0.0
C1301 C 0.91317 0.15416 0.56736 0.0
C1302 C 0.91535 0.15807 0.5487 0.0
C1303 C 0.89528 0.17651 0.54011 0.0
C1304 C 0.87311 0.19067 0.55015 0.0
C1305 C 0.87156 0.1863 0.56913 0.0
H1306 H 0.90673 0.41022 0.86675 0.0
H1307 H 0.94145 0.47177 0.82883 0.0
H1308 H 0.92128 0.44187 0.80297 0.0
H1309 H 0.91988 0.34449 0.8392 0.0
H1310 H 0.88648 0.32706 0.8456 0.0
H1311 H 0.9046 0.35271 0.86115 0.0
H1312 H 0.85719 0.38326 0.86299 0.0
H1313 H 0.83892 0.3577 0.84749 0.0
H1314 H 0.84003 0.39589 0.84226 0.0
H1315 H 0.89641 0.40625 0.78135 0.0
H1316 H 0.86693 0.36799 0.76531 0.0
H1317 H 0.84847 0.32937 0.81728 0.0
C1318 C 0.91034 0.41719 0.85299 0.0
C1319 C 0.92558 0.44331 0.84977 0.0
C1320 C 0.92952 0.45199 0.83159 0.0
C1321 C 0.91836 0.43506 0.81682 0.0
C1322 C 0.90335 0.40951 0.82047 0.0
C1323 C 0.89925 0.4006 0.83808 0.0
C1324 C 0.88135 0.37278 0.83824 0.0
C1325 C 0.89915 0.34778 0.84654 0.0
C1326 C 0.85267 0.37772 0.84834 0.0
C1327 C 0.87582 0.36762 0.81796 0.0
C1328 C 0.88887 0.38895 0.80796 0.0
C1329 C 0.8862 0.38932 0.78901 0.0
C1330 C 0.86941 0.36747 0.78003 0.0
C1331 C 0.85542 0.34561 0.79002 0.0
C1332 C 0.85903 0.34561 0.80923 0.0
H1333 H 0.63163 0.38336 0.1235 0.0
H1334 H 0.54909 0.38595 0.09318 0.0
H1335 H 0.57272 0.36453 0.06614 0.0
H1336 H 0.67708 0.40262 0.08678 0.0
H1337 H 0.70639 0.37839 0.09301 0.0
H1338 H 0.68296 0.39316 0.11029 0.0
H1339 H 0.67048 0.34089 0.12035 0.0
H1340 H 0.69409 0.32597 0.10321 0.0
H1341 H 0.65645 0.3145 0.10366 0.0
H1342 H 0.60542 0.34513 0.04205 0.0
H1343 H 0.64436 0.32488 0.023 0.0
H1344 H 0.7059 0.33397 0.06891 0.0
C1345 C 0.61855 0.37926 0.11118 0.0
C1346 C 0.58848 0.38614 0.11047 0.0
C1347 C 0.57203 0.38038 0.09414 0.0
C1348 C 0.58531 0.36847 0.07866 0.0
C1349 C 0.61502 0.3623 0.07974 0.0
C1350 C 0.63142 0.36716 0.09561 0.0
C1351 C 0.66296 0.35833 0.0931 0.0
C1352 C 0.68356 0.3847 0.09596 0.0
C1353 C 0.67148 0.33344 0.10583 0.0
C1354 C 0.66172 0.34794 0.0733 0.0
C1355 C 0.63389 0.35062 0.06585 0.0
C1356 C 0.62729 0.34278 0.04774 0.0
C1357 C 0.64963 0.3314 0.03701 0.0
C1358 C 0.67824 0.32777 0.04444 0.0
C1359 C 0.6843 0.33643 0.06281 0.0
loop_
_geom_bond_atom_site_label_1
_geom_bond_atom_site_label_2
_geom_bond_distance
_geom_bond_site_symmetry_2
_ccdc_geom_bond_type
H0 C19 0.949 . S
H1 C20 0.950 1_455 S
H2 C22 0.950 . S
H3 C23 0.950 . S
H4 C25 0.950 . S
H5 C28 0.950 . S
H6 C29 0.950 . S
H7 C31 0.951 . S
H8 C32 0.949 . S
H9 C34 0.949 . S
H10 C35 0.950 . S
H11 C37 0.950 . S
H12 C38 0.950 . S
H13 C40 0.945 1_565 S
H14 C43 0.950 . S
H15 C44 0.950 . S
H16 C46 0.951 . S
H17 C47 0.949 1_545 S
C18 C19 1.376 . S
C18 C23 1.386 1_455 S
C18 C24 1.483 . S
C19 H0 0.949 . S
C19 C18 1.376 . S
C19 C20 1.397 1_455 S
C20 H1 0.950 1_655 S
C20 C19 1.397 1_655 S
C20 C21 1.391 . S
C21 C20 1.391 . S
C21 C22 1.405 . S
C22 H2 0.950 . S
C22 C21 1.405 . S
C22 C23 1.367 . S
C23 H3 0.950 . S
C23 C18 1.386 1_655 S
C23 C22 1.367 . S
C24 C18 1.483 . S
C24 C25 1.382 . S
C24 C26 1.403 . S
C25 H4 0.950 . S
C25 C24 1.382 . S
C25 C41 1.411 1_545 S
C26 C24 1.403 . S
C26 C27 1.489 . S
C26 C40 1.411 . S
C27 C26 1.489 . S
C27 C28 1.383 . S
C27 C32 1.382 1_455 S
C28 H5 0.950 . S
C28 C27 1.383 . S
C28 C29 1.395 1_455 S
C29 H6 0.950 . S
C29 C28 1.395 1_655 S
C29 C30 1.288 . S
C30 C29 1.288 . S
C30 C31 1.392 . S
C31 H7 0.951 . S
C31 C30 1.392 . S
C31 C32 1.392 . S
C32 H8 0.949 . S
C32 C27 1.382 1_655 S
C32 C31 1.392 . S
C33 C34 1.376 . S
C33 C38 1.386 . S
C33 C39 1.483 . S
C34 H9 0.949 . S
C34 C33 1.376 . S
C34 C35 1.397 . S
C35 H10 0.950 . S
C35 C34 1.397 . S
C35 C36 1.391 . S
C36 C35 1.391 . S
C36 C37 1.405 . S
C37 H11 0.950 . S
C37 C36 1.405 . S
C37 C38 1.367 . S
C38 H12 0.950 . S
C38 C33 1.386 . S
C38 C37 1.367 . S
C39 C33 1.483 . S
C39 C40 1.382 1_565 S
C39 C41 1.403 . S
C40 H13 0.945 1_545 S
C40 C26 1.411 . S
C40 C39 1.382 1_545 S
C41 C25 1.411 1_565 S
C41 C39 1.403 . S
C41 C42 1.489 . S
C42 C41 1.489 . S
C42 C43 1.383 . S
C42 C47 1.382 . S
C43 H14 0.950 . S
C43 C42 1.383 . S
C43 C44 1.395 . S
C44 H15 0.950 . S
C44 C43 1.395 . S
C44 C45 1.288 . S
C45 C44 1.288 . S
C45 C46 1.392 . S
C46 H16 0.951 . S
C46 C45 1.392 . S
C46 C47 1.392 . S
C47 H17 0.949 1_565 S
C47 C42 1.382 . S
C47 C46 1.392 . S
H48 C67 0.949 1_455 S
H49 C68 0.950 . S
H50 C70 0.950 . S
H51 C71 0.950 . S
H52 C73 0.950 . S
H53 C76 0.950 . S
H54 C77 0.950 . S
H55 C79 0.951 . S
H56 C80 0.949 . S
H57 C82 0.949 . S
H58 C83 0.950 . S
H59 C85 0.950 . S
H60 C86 0.950 . S
H61 C88 0.959 . S
H62 C91 0.950 . S
H63 C92 0.950 . S
H64 C94 0.951 . S
H65 C95 0.949 . S
C66 C67 1.376 . S
C66 C71 1.386 . S
C66 C72 1.483 . S
C67 H48 0.949 1_655 S
C67 C66 1.376 . S
C67 C68 1.397 . S
C68 H49 0.950 . S
C68 C67 1.397 . S
C68 C69 1.391 . S
C69 C68 1.391 . S
C69 C70 1.405 . S
C70 H50 0.950 . S
C70 C69 1.405 . S
C70 C71 1.367 . S
C71 H51 0.950 . S
C71 C66 1.386 . S
C71 C70 1.367 . S
C72 C66 1.483 . S
C72 C73 1.382 1_655 S
C72 C74 1.403 . S
C73 H52 0.950 . S
C73 C72 1.382 1_455 S
C73 C89 1.411 . S
C74 C72 1.403 . S
C74 C75 1.489 . S
C74 C88 1.411 1_655 S
C75 C74 1.489 . S
C75 C76 1.383 . S
C75 C80 1.382 . S
C76 H53 0.950 . S
C76 C75 1.383 . S
C76 C77 1.395 . S
C77 H54 0.950 . S
C77 C76 1.395 . S
C77 C78 1.288 . S
C78 C77 1.288 . S
C78 C79 1.392 . S
C79 H55 0.951 . S
C79 C78 1.392 . S
C79 C80 1.392 . S
C80 H56 0.949 . S
C80 C75 1.382 . S
C80 C79 1.392 . S
C81 C82 1.376 . S
C81 C86 1.386 . S
C81 C87 1.483 . S
C82 H57 0.949 . S
C82 C81 1.376 . S
C82 C83 1.397 . S
C83 H58 0.950 . S
C83 C82 1.397 . S
C83 C84 1.391 . S
C84 C83 1.391 . S
C84 C85 1.405 . S
C85 H59 0.950 . S
C85 C84 1.405 . S
C85 C86 1.367 . S
C86 H60 0.950 . S
C86 C81 1.386 . S
C86 C85 1.367 . S
C87 C81 1.483 . S
C87 C88 1.382 . S
C87 C89 1.403 . S
C88 H61 0.959 . S
C88 C74 1.411 1_455 S
C88 C87 1.382 . S
C89 C73 1.411 . S
C89 C87 1.403 . S
C89 C90 1.489 . S
C90 C89 1.489 . S
C90 C91 1.383 . S
C90 C95 1.382 . S
C91 H62 0.950 . S
C91 C90 1.383 . S
C91 C92 1.395 . S
C92 H63 0.950 . S
C92 C91 1.395 . S
C92 C93 1.288 . S
C93 C92 1.288 . S
C93 C94 1.392 . S
C94 H64 0.951 . S
C94 C93 1.392 . S
C94 C95 1.392 . S
C95 H65 0.949 . S
C95 C90 1.382 . S
C95 C94 1.392 . S
H96 C115 0.949 . S
H97 C116 0.950 . S
H98 C118 0.950 . S
H99 C119 0.950 . S
H100 C121 0.950 . S
H101 C124 0.950 . S
H102 C125 0.950 . S
H103 C127 0.951 . S
H104 C128 0.949 . S
H105 C130 0.949 . S
H106 C131 0.950 . S
H107 C133 0.950 . S
H108 C134 0.950 . S
H109 C136 0.950 . S
H110 C139 0.950 . S
H111 C140 0.950 . S
H112 C142 0.951 . S
H113 C143 0.949 . S
C114 C115 1.376 . S
C114 C119 1.386 . S
C114 C120 1.483 . S
C115 H96 0.949 . S
C115 C114 1.376 . S
C115 C116 1.397 . S
C116 H97 0.950 . S
C116 C115 1.397 . S
C116 C117 1.391 . S
C117 C116 1.391 . S
C117 C118 1.405 . S
C118 H98 0.950 . S
C118 C117 1.405 . S
C118 C119 1.367 . S
C119 H99 0.950 . S
C119 C114 1.386 . S
C119 C118 1.367 . S
C120 C114 1.483 . S
C120 C121 1.382 . S
C120 C122 1.403 . S
C121 H100 0.950 . S
C121 C120 1.382 . S
C121 C137 1.411 . S
C122 C120 1.403 . S
C122 C123 1.489 . S
C122 C136 1.411 . S
C123 C122 1.489 . S
C123 C124 1.383 . S
C123 C128 1.382 . S
C124 H101 0.950 . S
C124 C123 1.383 . S
C124 C125 1.395 . S
C125 H102 0.950 . S
C125 C124 1.395 . S
C125 C126 1.288 . S
C126 C125 1.288 . S
C126 C127 1.392 . S
C127 H103 0.951 . S
C127 C126 1.392 . S
C127 C128 1.392 . S
C128 H104 0.949 . S
C128 C123 1.382 . S
C128 C127 1.392 . S
C129 C130 1.376 . S
C129 C134 1.386 . S
C129 C135 1.483 . S
C130 H105 0.949 . S
C130 C129 1.376 . S
C130 C131 1.397 . S
C131 H106 0.950 . S
C131 C130 1.397 . S
C131 C132 1.391 . S
C132 C131 1.391 . S
C132 C133 1.405 . S
C133 H107 0.950 . S
C133 C132 1.405 . S
C133 C134 1.367 . S
C134 H108 0.950 . S
C134 C129 1.386 . S
C134 C133 1.367 . S
C135 C129 1.483 . S
C135 C136 1.382 . S
C135 C137 1.403 . S
C136 H109 0.950 . S
C136 C122 1.411 . S
C136 C135 1.382 . S
C137 C121 1.411 . S
C137 C135 1.403 . S
C137 C138 1.489 . S
C138 C137 1.489 . S
C138 C139 1.383 . S
C138 C143 1.382 . S
C139 H110 0.950 . S
C139 C138 1.383 . S
C139 C140 1.395 . S
C140 H111 0.950 . S
C140 C139 1.395 . S
C140 C141 1.288 . S
C141 C140 1.288 . S
C141 C142 1.392 . S
C142 H112 0.951 . S
C142 C141 1.392 . S
C142 C143 1.392 . S
C143 H113 0.949 . S
C143 C138 1.382 . S
C143 C142 1.392 . S
H144 C163 0.949 . S
H145 C164 0.950 . S
H146 C166 0.950 . S
H147 C167 0.950 . S
H148 C169 0.950 . S
H149 C172 0.950 . S
H150 C173 0.950 . S
H151 C175 0.951 . S
H152 C176 0.949 . S
H153 C178 0.949 . S
H154 C179 0.950 . S
H155 C181 0.950 . S
H156 C182 0.950 . S
H157 C184 0.950 . S
H158 C187 0.950 . S
H159 C188 0.950 . S
H160 C190 0.951 . S
H161 C191 0.949 . S
C162 C163 1.376 . S
C162 C167 1.386 . S
C162 C168 1.483 . S
C163 H144 0.949 . S
C163 C162 1.376 . S
C163 C164 1.397 . S
C164 H145 0.950 . S
C164 C163 1.397 . S
C164 C165 1.391 . S
C165 C164 1.391 . S
C165 C166 1.405 . S
C166 H146 0.950 . S
C166 C165 1.405 . S
C166 C167 1.367 . S
C167 H147 0.950 . S
C167 C162 1.386 . S
C167 C166 1.367 . S
C168 C162 1.483 . S
C168 C169 1.382 . S
C168 C170 1.403 . S
C169 H148 0.950 . S
C169 C168 1.382 . S
C169 C185 1.411 1_565 S
C170 C168 1.403 . S
C170 C171 1.489 . S
C170 C184 1.411 1_565 S
C171 C170 1.489 . S
C171 C172 1.383 . S
C171 C176 1.382 . S
C172 H149 0.950 . S
C172 C171 1.383 . S
C172 C173 1.395 . S
C173 H150 0.950 . S
C173 C172 1.395 . S
C173 C174 1.288 . S
C174 C173 1.288 . S
C174 C175 1.392 . S
C175 H151 0.951 . S
C175 C174 1.392 . S
C175 C176 1.392 . S
C176 H152 0.949 . S
C176 C171 1.382 . S
C176 C175 1.392 . S
C177 C178 1.376 . S
C177 C182 1.386 . S
C177 C183 1.483 . S
C178 H153 0.949 . S
C178 C177 1.376 . S
C178 C179 1.397 . S
C179 H154 0.950 . S
C179 C178 1.397 . S
C179 C180 1.391 . S
C180 C179 1.391 . S
C180 C181 1.405 . S
C181 H155 0.950 . S
C181 C180 1.405 . S
C181 C182 1.367 . S
C182 H156 0.950 . S
C182 C177 1.386 . S
C182 C181 1.367 . S
C183 C177 1.483 . S
C183 C184 1.382 . S
C183 C185 1.403 . S
C184 H157 0.950 . S
C184 C170 1.411 1_545 S
C184 C183 1.382 . S
C185 C169 1.411 1_545 S
C185 C183 1.403 . S
C185 C186 1.489 . S
C186 C185 1.489 . S
C186 C187 1.383 . S
C186 C191 1.382 . S
C187 H158 0.950 . S
C187 C186 1.383 . S
C187 C188 1.395 . S
C188 H159 0.950 . S
C188 C187 1.395 . S
C188 C189 1.288 . S
C189 C188 1.288 . S
C189 C190 1.392 . S
C190 H160 0.951 . S
C190 C189 1.392 . S
C190 C191 1.392 . S
C191 H161 0.949 . S
C191 C186 1.382 . S
C191 C190 1.392 . S
H192 C211 0.949 . S
H193 C212 0.950 . S
H194 C214 0.950 . S
H195 C215 0.950 . S
H196 C217 0.950 . S
H197 C220 0.950 . S
H198 C221 0.950 . S
H199 C223 0.951 . S
H200 C224 0.949 . S
H201 C226 0.949 . S
H202 C227 0.950 . S
H203 C229 0.950 . S
H204 C230 0.950 . S
H205 C232 0.950 . S
H206 C235 0.950 . S
H207 C236 0.950 . S
H208 C238 0.951 . S
H209 C239 0.949 . S
C210 C211 1.376 . S
C210 C215 1.386 . S
C210 C216 1.483 . S
C211 H192 0.949 . S
C211 C210 1.376 . S
C211 C212 1.397 . S
C212 H193 0.950 . S
C212 C211 1.397 . S
C212 C213 1.391 . S
C213 C212 1.391 . S
C213 C214 1.405 . S
C214 H194 0.950 . S
C214 C213 1.405 . S
C214 C215 1.367 . S
C215 H195 0.950 . S
C215 C210 1.386 . S
C215 C214 1.367 . S
C216 C210 1.483 . S
C216 C217 1.382 1_455 S
C216 C218 1.403 . S
C217 H196 0.950 . S
C217 C216 1.382 1_655 S
C217 C233 1.411 . S
C218 C216 1.403 . S
C218 C219 1.489 . S
C218 C232 1.411 . S
C219 C218 1.489 . S
C219 C220 1.383 . S
C219 C224 1.382 . S
C220 H197 0.950 . S
C220 C219 1.383 . S
C220 C221 1.395 . S
C221 H198 0.950 . S
C221 C220 1.395 . S
C221 C222 1.288 . S
C222 C221 1.288 . S
C222 C223 1.392 . S
C223 H199 0.951 . S
C223 C222 1.392 . S
C223 C224 1.392 . S
C224 H200 0.949 . S
C224 C219 1.382 . S
C224 C223 1.392 . S
C225 C226 1.376 . S
C225 C230 1.386 . S
C225 C231 1.483 . S
C226 H201 0.949 . S
C226 C225 1.376 . S
C226 C227 1.397 . S
C227 H202 0.950 . S
C227 C226 1.397 . S
C227 C228 1.391 . S
C228 C227 1.391 . S
C228 C229 1.405 . S
C229 H203 0.950 . S
C229 C228 1.405 . S
C229 C230 1.367 . S
C230 H204 0.950 . S
C230 C225 1.386 . S
C230 C229 1.367 . S
C231 C225 1.483 . S
C231 C232 1.382 1_655 S
C231 C233 1.403 . S
C232 H205 0.950 . S
C232 C218 1.411 . S
C232 C231 1.382 1_455 S
C233 C217 1.411 . S
C233 C231 1.403 . S
C233 C234 1.489 . S
C234 C233 1.489 . S
C234 C235 1.383 . S
C234 C239 1.382 . S
C235 H206 0.950 . S
C235 C234 1.383 . S
C235 C236 1.395 . S
C236 H207 0.950 . S
C236 C235 1.395 . S
C236 C237 1.288 . S
C237 C236 1.288 . S
C237 C238 1.392 . S
C238 H208 0.951 . S
C238 C237 1.392 . S
C238 C239 1.392 . S
C239 H209 0.949 . S
C239 C234 1.382 . S
C239 C238 1.392 . S
H240 C259 0.949 . S
H241 C260 0.950 . S
H242 C262 0.950 . S
H243 C263 0.950 . S
H244 C265 0.950 . S
H245 C268 0.950 . S
H246 C269 0.950 . S
H247 C271 0.951 . S
H248 C272 0.949 . S
H249 C274 0.949 . S
H250 C275 0.950 . S
H251 C277 0.950 . S
H252 C278 0.950 . S
H253 C280 0.950 . S
H254 C283 0.950 . S
H255 C284 0.950 . S
H256 C286 0.951 . S
H257 C287 0.949 . S
C258 C259 1.376 . S
C258 C263 1.386 . S
C258 C264 1.483 . S
C259 H240 0.949 . S
C259 C258 1.376 . S
C259 C260 1.397 . S
C260 H241 0.950 . S
C260 C259 1.397 . S
C260 C261 1.391 . S
C261 C260 1.391 . S
C261 C262 1.405 . S
C262 H242 0.950 . S
C262 C261 1.405 . S
C262 C263 1.367 . S
C263 H243 0.950 . S
C263 C258 1.386 . S
C263 C262 1.367 . S
C264 C258 1.483 . S
C264 C265 1.382 . S
C264 C266 1.403 . S
C265 H244 0.950 . S
C265 C264 1.382 . S
C265 C281 1.411 . S
C266 C264 1.403 . S
C266 C267 1.489 . S
C266 C280 1.411 . S
C267 C266 1.489 . S
C267 C268 1.383 . S
C267 C272 1.382 . S
C268 H245 0.950 . S
C268 C267 1.383 . S
C268 C269 1.395 . S
C269 H246 0.950 . S
C269 C268 1.395 . S
C269 C270 1.288 . S
C270 C269 1.288 . S
C270 C271 1.392 . S
C271 H247 0.951 . S
C271 C270 1.392 . S
C271 C272 1.392 . S
C272 H248 0.949 . S
C272 C267 1.382 . S
C272 C271 1.392 . S
C273 C274 1.376 . S
C273 C278 1.386 . S
C273 C279 1.483 . S
C274 H249 0.949 . S
C274 C273 1.376 . S
C274 C275 1.397 . S
C275 H250 0.950 . S
C275 C274 1.397 . S
C275 C276 1.391 . S
C276 C275 1.391 . S
C276 C277 1.405 . S
C277 H251 0.950 . S
C277 C276 1.405 . S
C277 C278 1.367 . S
C278 H252 0.950 . S
C278 C273 1.386 . S
C278 C277 1.367 . S
C279 C273 1.483 . S
C279 C280 1.382 . S
C279 C281 1.403 . S
C280 H253 0.950 . S
C280 C266 1.411 . S
C280 C279 1.382 . S
C281 C265 1.411 . S
C281 C279 1.403 . S
C281 C282 1.489 . S
C282 C281 1.489 . S
C282 C283 1.383 . S
C282 C287 1.382 . S
C283 H254 0.950 . S
C283 C282 1.383 . S
C283 C284 1.395 . S
C284 H255 0.950 . S
C284 C283 1.395 . S
C284 C285 1.288 . S
C285 C284 1.288 . S
C285 C286 1.392 . S
C286 H256 0.951 . S
C286 C285 1.392 . S
C286 C287 1.392 . S
C287 H257 0.949 . S
C287 C282 1.382 . S
C287 C286 1.392 . S
H288 C307 0.949 . S
H289 C308 0.950 . S
H290 C310 0.950 . S
H291 C311 0.950 . S
H292 C313 0.950 . S
H293 C316 0.950 . S
H294 C317 0.950 . S
H295 C319 0.951 . S
H296 C320 0.949 1_545 S
H297 C322 0.949 . S
H298 C323 0.950 . S
H299 C325 0.950 . S
H300 C326 0.950 . S
H301 C328 0.950 . S
H302 C331 0.950 . S
H303 C332 0.950 . S
H304 C334 0.951 . S
H305 C335 0.949 1_565 S
C306 C307 1.376 . S
C306 C311 1.386 . S
C306 C312 1.483 . S
C307 H288 0.949 . S
C307 C306 1.376 . S
C307 C308 1.397 . S
C308 H289 0.950 . S
C308 C307 1.397 . S
C308 C309 1.391 . S
C309 C308 1.391 . S
C309 C310 1.405 . S
C310 H290 0.950 . S
C310 C309 1.405 . S
C310 C311 1.367 . S
C311 H291 0.950 . S
C311 C306 1.386 . S
C311 C310 1.367 . S
C312 C306 1.483 . S
C312 C313 1.382 . S
C312 C314 1.403 . S
C313 H292 0.950 . S
C313 C312 1.382 . S
C313 C329 1.411 1_565 S
C314 C312 1.403 . S
C314 C315 1.489 . S
C314 C328 1.411 1_565 S
C315 C314 1.489 . S
C315 C316 1.383 . S
C315 C320 1.382 . S
C316 H293 0.950 . S
C316 C315 1.383 . S
C316 C317 1.395 . S
C317 H294 0.950 . S
C317 C316 1.395 . S
C317 C318 1.288 . S
C318 C317 1.288 . S
C318 C319 1.392 . S
C319 H295 0.951 . S
C319 C318 1.392 . S
C319 C320 1.392 . S
C320 H296 0.949 1_565 S
C320 C315 1.382 . S
C320 C319 1.392 . S
C321 C322 1.376 . S
C321 C326 1.386 . S
C321 C327 1.483 . S
C322 H297 0.949 . S
C322 C321 1.376 . S
C322 C323 1.397 . S
C323 H298 0.950 . S
C323 C322 1.397 . S
C323 C324 1.391 . S
C324 C323 1.391 . S
C324 C325 1.405 . S
C325 H299 0.950 . S
C325 C324 1.405 . S
C325 C326 1.367 . S
C326 H300 0.950 . S
C326 C321 1.386 . S
C326 C325 1.367 . S
C327 C321 1.483 . S
C327 C328 1.382 . S
C327 C329 1.403 . S
C328 H301 0.950 . S
C328 C314 1.411 1_545 S
C328 C327 1.382 . S
C329 C313 1.411 1_545 S
C329 C327 1.403 . S
C329 C330 1.489 . S
C330 C329 1.489 . S
C330 C331 1.383 . S
C330 C335 1.382 . S
C331 H302 0.950 . S
C331 C330 1.383 . S
C331 C332 1.395 . S
C332 H303 0.950 . S
C332 C331 1.395 . S
C332 C333 1.288 . S
C333 C332 1.288 . S
C333 C334 1.392 . S
C334 H304 0.951 . S
C334 C333 1.392 . S
C334 C335 1.392 . S
C335 H305 0.949 1_545 S
C335 C330 1.382 . S
C335 C334 1.392 . S
H336 C355 0.949 . S
H337 C356 0.950 1_455 S
H338 C358 0.950 . S
H339 C359 0.950 . S
H340 C361 0.950 . S
H341 C364 0.950 . S
H342 C365 0.950 . S
H343 C367 0.951 . S
H344 C368 0.949 . S
H345 C370 0.949 . S
H346 C371 0.950 . S
H347 C373 0.950 . S
H348 C374 0.950 1_545 S
H349 C376 0.950 . S
H350 C379 0.950 . S
H351 C380 0.950 . S
H352 C382 0.951 . S
H353 C383 0.949 . S
C354 C355 1.376 . S
C354 C359 1.386 1_455 S
C354 C360 1.483 . S
C355 H336 0.949 . S
C355 C354 1.376 . S
C355 C356 1.397 1_455 S
C356 H337 0.950 1_655 S
C356 C355 1.397 1_655 S
C356 C357 1.391 . S
C357 C356 1.391 . S
C357 C358 1.405 . S
C358 H338 0.950 . S
C358 C357 1.405 . S
C358 C359 1.367 . S
C359 H339 0.950 . S
C359 C354 1.386 1_655 S
C359 C358 1.367 . S
C360 C354 1.483 . S
C360 C361 1.382 . S
C360 C362 1.403 . S
C361 H340 0.950 . S
C361 C360 1.382 . S
C361 C377 1.411 . S
C362 C360 1.403 . S
C362 C363 1.489 . S
C362 C376 1.411 . S
C363 C362 1.489 . S
C363 C364 1.383 . S
C363 C368 1.382 1_455 S
C364 H341 0.950 . S
C364 C363 1.383 . S
C364 C365 1.395 1_455 S
C365 H342 0.950 . S
C365 C364 1.395 1_655 S
C365 C366 1.288 . S
C366 C365 1.288 . S
C366 C367 1.392 . S
C367 H343 0.951 . S
C367 C366 1.392 . S
C367 C368 1.392 . S
C368 H344 0.949 . S
C368 C363 1.382 1_655 S
C368 C367 1.392 . S
C369 C370 1.376 . S
C369 C374 1.386 . S
C369 C375 1.483 1_565 S
C370 H345 0.949 . S
C370 C369 1.376 . S
C370 C371 1.397 . S
C371 H346 0.950 . S
C371 C370 1.397 . S
C371 C372 1.391 . S
C372 C371 1.391 . S
C372 C373 1.405 . S
C373 H347 0.950 . S
C373 C372 1.405 . S
C373 C374 1.367 . S
C374 H348 0.950 1_565 S
C374 C369 1.386 . S
C374 C373 1.367 . S
C375 C369 1.483 1_545 S
C375 C376 1.382 . S
C375 C377 1.403 . S
C376 H349 0.950 . S
C376 C362 1.411 . S
C376 C375 1.382 . S
C377 C361 1.411 . S
C377 C375 1.403 . S
C377 C378 1.489 1_545 S
C378 C377 1.489 1_565 S
C378 C379 1.383 . S
C378 C383 1.382 1_565 S
C379 H350 0.950 . S
C379 C378 1.383 . S
C379 C380 1.395 . S
C380 H351 0.950 . S
C380 C379 1.395 . S
C380 C381 1.288 . S
C381 C380 1.288 . S
C381 C382 1.392 . S
C382 H352 0.951 . S
C382 C381 1.392 . S
C382 C383 1.392 1_565 S
C383 H353 0.949 . S
C383 C378 1.382 1_545 S
C383 C382 1.392 1_545 S
Zn384 O387 2.031 . S
Zn384 O389 2.049 . S
Zn384 O394 2.067 . S
Zn385 O386 1.962 . S
Zn385 O388 1.986 . S
Zn385 O390 1.996 . S
Zn385 O393 1.949 . S
O386 Zn385 1.962 . S
O386 C391 1.254 . S
O387 Zn384 2.031 . S
O387 C391 1.269 1_556 S
O388 Zn385 1.986 . S
O388 C395 1.262 . S
O389 Zn384 2.049 . S
O389 C397 1.260 1_556 S
O390 Zn385 1.996 . S
O390 C397 1.257 . S
C391 O386 1.254 . S
C391 O387 1.269 1_554 S
C392 O393 1.241 1_556 S
C392 O394 1.270 . S
O393 Zn385 1.949 . S
O393 C392 1.241 1_554 S
O394 Zn384 2.067 . S
O394 C392 1.270 . S
C395 O388 1.262 . S
C395 O396 1.232 . S
O396 C395 1.232 . S
C397 O389 1.260 1_554 S
C397 O390 1.257 . S
Zn398 O401 2.031 . S
Zn398 O403 2.049 . S
Zn398 O408 2.067 . S
Zn399 O400 1.962 . S
Zn399 O402 1.986 . S
Zn399 O404 1.996 . S
Zn399 O407 1.943 . S
O400 Zn399 1.962 . S
O400 C405 1.254 . S
O401 Zn398 2.031 . S
O401 C405 1.269 . S
O402 Zn399 1.986 . S
O402 C409 1.262 . S
O403 Zn398 2.049 . S
O403 C411 1.260 . S
O404 Zn399 1.996 . S
O404 C411 1.257 . S
C405 O400 1.254 . S
C405 O401 1.269 . S
C406 O407 1.249 . S
C406 O408 1.270 . S
O407 Zn399 1.943 . S
O407 C406 1.249 . S
O408 Zn398 2.067 . S
O408 C406 1.270 . S
C409 O402 1.262 . S
C409 O410 1.232 . S
O410 C409 1.232 . S
C411 O403 1.260 . S
C411 O404 1.257 . S
Zn412 O415 2.031 . S
Zn412 O417 2.049 . S
Zn412 O422 2.067 . S
Zn413 O414 1.962 . S
Zn413 O416 1.986 . S
Zn413 O418 1.996 . S
Zn413 O421 1.943 . S
O414 Zn413 1.962 . S
O414 C419 1.254 . S
O415 Zn412 2.031 . S
O415 C419 1.269 . S
O416 Zn413 1.986 . S
O416 C423 1.262 . S
O417 Zn412 2.049 . S
O417 C425 1.260 . S
O418 Zn413 1.996 . S
O418 C425 1.257 . S
C419 O414 1.254 . S
C419 O415 1.269 . S
C420 O421 1.249 . S
C420 O422 1.270 . S
O421 Zn413 1.943 . S
O421 C420 1.249 . S
O422 Zn412 2.067 . S
O422 C420 1.270 . S
C423 O416 1.262 . S
C423 O424 1.232 . S
O424 C423 1.232 . S
C425 O417 1.260 . S
C425 O418 1.257 . S
Zn426 O429 2.031 . S
Zn426 O431 2.049 . S
Zn426 O436 2.067 . S
Zn427 O428 1.962 . S
Zn427 O430 1.986 . S
Zn427 O432 1.996 . S
Zn427 O435 1.943 . S
O428 Zn427 1.962 . S
O428 C433 1.254 . S
O429 Zn426 2.031 . S
O429 C433 1.269 . S
O430 Zn427 1.986 . S
O430 C437 1.262 . S
O431 Zn426 2.049 . S
O431 C439 1.260 . S
O432 Zn427 1.996 . S
O432 C439 1.257 . S
C433 O428 1.254 . S
C433 O429 1.269 . S
C434 O435 1.249 . S
C434 O436 1.270 . S
O435 Zn427 1.943 . S
O435 C434 1.249 . S
O436 Zn426 2.067 . S
O436 C434 1.270 . S
C437 O430 1.262 . S
C437 O438 1.232 . S
O438 C437 1.232 . S
C439 O431 1.260 . S
C439 O432 1.257 . S
Zn440 O443 2.031 . S
Zn440 O445 2.049 . S
Zn440 O450 2.067 . S
Zn441 O442 1.962 . S
Zn441 O444 1.986 . S
Zn441 O446 1.996 . S
Zn441 O449 1.943 . S
O442 Zn441 1.962 . S
O442 C447 1.254 . S
O443 Zn440 2.031 . S
O443 C447 1.269 . S
O444 Zn441 1.986 . S
O444 C451 1.262 . S
O445 Zn440 2.049 . S
O445 C453 1.260 . S
O446 Zn441 1.996 . S
O446 C453 1.257 . S
C447 O442 1.254 . S
C447 O443 1.269 . S
C448 O449 1.249 . S
C448 O450 1.270 . S
O449 Zn441 1.943 . S
O449 C448 1.249 . S
O450 Zn440 2.067 . S
O450 C448 1.270 . S
C451 O444 1.262 . S
C451 O452 1.232 . S
O452 C451 1.232 . S
C453 O445 1.260 . S
C453 O446 1.257 . S
Zn454 O457 2.031 . S
Zn454 O459 2.049 . S
Zn454 O464 2.067 . S
Zn455 O456 1.962 . S
Zn455 O458 1.986 . S
Zn455 O460 1.996 . S
Zn455 O463 1.943 . S
O456 Zn455 1.962 . S
O456 C461 1.254 . S
O457 Zn454 2.031 . S
O457 C461 1.269 . S
O458 Zn455 1.986 . S
O458 C465 1.262 . S
O459 Zn454 2.049 . S
O459 C467 1.260 . S
O460 Zn455 1.996 . S
O460 C467 1.257 . S
C461 O456 1.254 . S
C461 O457 1.269 . S
C462 O463 1.249 . S
C462 O464 1.270 . S
O463 Zn455 1.943 . S
O463 C462 1.249 . S
O464 Zn454 2.067 . S
O464 C462 1.270 . S
C465 O458 1.262 . S
C465 O466 1.232 . S
O466 C465 1.232 . S
C467 O459 1.260 . S
C467 O460 1.257 . S
Zn468 O471 2.031 . S
Zn468 O473 2.049 . S
Zn468 O478 2.067 . S
Zn469 O470 1.962 . S
Zn469 O472 1.986 . S
Zn469 O474 1.996 . S
Zn469 O477 1.943 1_556 S
O470 Zn469 1.962 . S
O470 C475 1.254 1_556 S
O471 Zn468 2.031 . S
O471 C475 1.269 . S
O472 Zn469 1.986 . S
O472 C479 1.262 . S
O473 Zn468 2.049 . S
O473 C481 1.260 . S
O474 Zn469 1.996 . S
O474 C481 1.257 1_556 S
C475 O470 1.254 1_554 S
C475 O471 1.269 . S
C476 O477 1.249 . S
C476 O478 1.270 . S
O477 Zn469 1.943 1_554 S
O477 C476 1.249 . S
O478 Zn468 2.067 . S
O478 C476 1.270 . S
C479 O472 1.262 . S
C479 O480 1.232 . S
O480 C479 1.232 . S
C481 O473 1.260 . S
C481 O474 1.257 1_554 S
Zn482 O485 2.031 . S
Zn482 O487 2.049 . S
Zn482 O492 2.067 . S
Zn483 O484 1.962 . S
Zn483 O486 1.986 . S
Zn483 O488 1.996 . S
Zn483 O491 1.943 . S
O484 Zn483 1.962 . S
O484 C489 1.254 . S
O485 Zn482 2.031 . S
O485 C489 1.269 . S
O486 Zn483 1.986 . S
O486 C493 1.262 . S
O487 Zn482 2.049 . S
O487 C495 1.260 . S
O488 Zn483 1.996 . S
O488 C495 1.257 . S
C489 O484 1.254 . S
C489 O485 1.269 . S
C490 O491 1.249 . S
C490 O492 1.270 . S
O491 Zn483 1.943 . S
O491 C490 1.249 . S
O492 Zn482 2.067 . S
O492 C490 1.270 . S
C493 O486 1.262 . S
C493 O494 1.232 . S
O494 C493 1.232 . S
C495 O487 1.260 . S
C495 O488 1.257 . S
H496 C508 0.930 . S
H497 C510 0.930 . S
H498 C511 0.930 . S
H499 C515 0.959 . S
H500 C515 0.959 . S
H501 C515 0.961 . S
H502 C516 0.960 . S
H503 C516 0.961 . S
H504 C516 0.959 . S
H505 C519 0.929 . S
H506 C520 0.931 . S
H507 C522 0.930 . S
C508 H496 0.930 . S
C508 C509 1.399 . S
C508 C513 1.399 . S
C509 C508 1.399 . S
C509 C510 1.376 . S
C510 H497 0.930 . S
C510 C509 1.376 . S
C510 C511 1.388 . S
C511 H498 0.930 . S
C511 C510 1.388 . S
C511 C512 1.390 . S
C512 C511 1.390 . S
C512 C513 1.394 . S
C512 C518 1.465 . S
C513 C508 1.399 . S
C513 C512 1.394 . S
C513 C514 1.516 . S
C514 C513 1.516 . S
C514 C515 1.502 . S
C514 C516 1.561 . S
C514 C517 1.526 . S
C515 H499 0.959 . S
C515 H500 0.959 . S
C515 H501 0.961 . S
C515 C514 1.502 . S
C516 H502 0.960 . S
C516 H503 0.961 . S
C516 H504 0.959 . S
C516 C514 1.561 . S
C517 C514 1.526 . S
C517 C518 1.396 . S
C517 C522 1.390 . S
C518 C512 1.465 . S
C518 C517 1.396 . S
C518 C519 1.399 . S
C519 H505 0.929 . S
C519 C518 1.399 . S
C519 C520 1.385 . S
C520 H506 0.931 . S
C520 C519 1.385 . S
C520 C521 1.389 . S
C521 C520 1.389 . S
C521 C522 1.387 . S
C522 H507 0.930 . S
C522 C517 1.390 . S
C522 C521 1.387 . S
H523 C535 0.930 . S
H524 C537 0.930 . S
H525 C538 0.930 . S
H526 C542 0.959 . S
H527 C542 0.959 . S
H528 C542 0.961 . S
H529 C543 0.960 . S
H530 C543 0.961 . S
H531 C543 0.959 . S
H532 C546 0.929 . S
H533 C547 0.931 . S
H534 C549 0.930 . S
C535 H523 0.930 . S
C535 C536 1.399 . S
C535 C540 1.399 . S
C536 C535 1.399 . S
C536 C537 1.376 . S
C537 H524 0.930 . S
C537 C536 1.376 . S
C537 C538 1.388 . S
C538 H525 0.930 . S
C538 C537 1.388 . S
C538 C539 1.390 . S
C539 C538 1.390 . S
C539 C540 1.394 . S
C539 C545 1.465 . S
C540 C535 1.399 . S
C540 C539 1.394 . S
C540 C541 1.516 . S
C541 C540 1.516 . S
C541 C542 1.502 . S
C541 C543 1.561 . S
C541 C544 1.526 . S
C542 H526 0.959 . S
C542 H527 0.959 . S
C542 H528 0.961 . S
C542 C541 1.502 . S
C543 H529 0.960 . S
C543 H530 0.961 . S
C543 H531 0.959 . S
C543 C541 1.561 . S
C544 C541 1.526 . S
C544 C545 1.396 . S
C544 C549 1.390 . S
C545 C539 1.465 . S
C545 C544 1.396 . S
C545 C546 1.399 . S
C546 H532 0.929 . S
C546 C545 1.399 . S
C546 C547 1.385 . S
C547 H533 0.931 . S
C547 C546 1.385 . S
C547 C548 1.389 . S
C548 C547 1.389 . S
C548 C549 1.387 . S
C549 H534 0.930 . S
C549 C544 1.390 . S
C549 C548 1.387 . S
H550 C562 0.930 . S
H551 C564 0.930 . S
H552 C565 0.930 . S
H553 C569 0.959 . S
H554 C569 0.959 . S
H555 C569 0.961 . S
H556 C570 0.960 . S
H557 C570 0.961 . S
H558 C570 0.959 . S
H559 C573 0.929 . S
H560 C574 0.931 . S
H561 C576 0.930 . S
C562 H550 0.930 . S
C562 C563 1.399 . S
C562 C567 1.399 . S
C563 C562 1.399 . S
C563 C564 1.376 . S
C564 H551 0.930 . S
C564 C563 1.376 . S
C564 C565 1.388 . S
C565 H552 0.930 . S
C565 C564 1.388 . S
C565 C566 1.390 . S
C566 C565 1.390 . S
C566 C567 1.394 . S
C566 C572 1.465 . S
C567 C562 1.399 . S
C567 C566 1.394 . S
C567 C568 1.516 . S
C568 C567 1.516 . S
C568 C569 1.502 . S
C568 C570 1.561 . S
C568 C571 1.526 . S
C569 H553 0.959 . S
C569 H554 0.959 . S
C569 H555 0.961 . S
C569 C568 1.502 . S
C570 H556 0.960 . S
C570 H557 0.961 . S
C570 H558 0.959 . S
C570 C568 1.561 . S
C571 C568 1.526 . S
C571 C572 1.396 . S
C571 C576 1.390 . S
C572 C566 1.465 . S
C572 C571 1.396 . S
C572 C573 1.399 . S
C573 H559 0.929 . S
C573 C572 1.399 . S
C573 C574 1.385 . S
C574 H560 0.931 . S
C574 C573 1.385 . S
C574 C575 1.389 . S
C575 C574 1.389 . S
C575 C576 1.387 . S
C576 H561 0.930 . S
C576 C571 1.390 . S
C576 C575 1.387 . S
H577 C589 0.930 . S
H578 C591 0.930 . S
H579 C592 0.930 . S
H580 C596 0.959 . S
H581 C596 0.959 1_556 S
H582 C596 0.961 1_556 S
H583 C597 0.960 . S
H584 C597 0.961 . S
H585 C597 0.959 . S
H586 C600 0.929 . S
H587 C601 0.931 . S
H588 C603 0.930 . S
C589 H577 0.930 . S
C589 C590 1.399 . S
C589 C594 1.399 . S
C590 C589 1.399 . S
C590 C591 1.376 . S
C591 H578 0.930 . S
C591 C590 1.376 . S
C591 C592 1.388 . S
C592 H579 0.930 . S
C592 C591 1.388 . S
C592 C593 1.390 . S
C593 C592 1.390 . S
C593 C594 1.394 . S
C593 C599 1.465 . S
C594 C589 1.399 . S
C594 C593 1.394 . S
C594 C595 1.516 . S
C595 C594 1.516 . S
C595 C596 1.502 . S
C595 C597 1.561 1_554 S
C595 C598 1.526 . S
C596 H580 0.959 . S
C596 H581 0.959 1_554 S
C596 H582 0.961 1_554 S
C596 C595 1.502 . S
C597 H583 0.960 . S
C597 H584 0.961 . S
C597 H585 0.959 . S
C597 C595 1.561 1_556 S
C598 C595 1.526 . S
C598 C599 1.396 . S
C598 C603 1.390 . S
C599 C593 1.465 . S
C599 C598 1.396 . S
C599 C600 1.399 . S
C600 H586 0.929 . S
C600 C599 1.399 . S
C600 C601 1.385 . S
C601 H587 0.931 . S
C601 C600 1.385 . S
C601 C602 1.389 . S
C602 C601 1.389 . S
C602 C603 1.387 . S
C603 H588 0.930 . S
C603 C598 1.390 . S
C603 C602 1.387 . S
H604 C616 0.930 . S
H605 C618 0.930 . S
H606 C619 0.930 . S
H607 C623 0.959 . S
H608 C623 0.959 . S
H609 C623 0.961 . S
H610 C624 0.960 . S
H611 C624 0.961 . S
H612 C624 0.959 . S
H613 C627 0.929 . S
H614 C628 0.931 . S
H615 C630 0.930 . S
C616 H604 0.930 . S
C616 C617 1.399 . S
C616 C621 1.399 . S
C617 C616 1.399 . S
C617 C618 1.376 1_556 S
C618 H605 0.930 . S
C618 C617 1.376 1_554 S
C618 C619 1.388 . S
C619 H606 0.930 . S
C619 C618 1.388 . S
C619 C620 1.390 . S
C620 C619 1.390 . S
C620 C621 1.394 1_554 S
C620 C626 1.465 . S
C621 C616 1.399 . S
C621 C620 1.394 1_556 S
C621 C622 1.516 . S
C622 C621 1.516 . S
C622 C623 1.502 . S
C622 C624 1.561 . S
C622 C625 1.526 . S
C623 H607 0.959 . S
C623 H608 0.959 . S
C623 H609 0.961 . S
C623 C622 1.502 . S
C624 H610 0.960 . S
C624 H611 0.961 . S
C624 H612 0.959 . S
C624 C622 1.561 . S
C625 C622 1.526 . S
C625 C626 1.396 1_556 S
C625 C630 1.390 . S
C626 C620 1.465 . S
C626 C625 1.396 1_554 S
C626 C627 1.399 . S
C627 H613 0.929 . S
C627 C626 1.399 . S
C627 C628 1.385 . S
C628 H614 0.931 . S
C628 C627 1.385 . S
C628 C629 1.389 . S
C629 C628 1.389 . S
C629 C630 1.387 1_554 S
C630 H615 0.930 . S
C630 C625 1.390 . S
C630 C629 1.387 1_556 S
H631 C643 0.930 . S
H632 C645 0.930 . S
H633 C646 0.930 . S
H634 C650 0.959 . S
H635 C650 0.959 . S
H636 C650 0.961 . S
H637 C651 0.960 . S
H638 C651 0.961 . S
H639 C651 0.959 . S
H640 C654 0.929 . S
H641 C655 0.931 . S
H642 C657 0.930 . S
C643 H631 0.930 . S
C643 C644 1.399 . S
C643 C648 1.399 . S
C644 C643 1.399 . S
C644 C645 1.376 . S
C645 H632 0.930 . S
C645 C644 1.376 . S
C645 C646 1.388 . S
C646 H633 0.930 . S
C646 C645 1.388 . S
C646 C647 1.390 . S
C647 C646 1.390 . S
C647 C648 1.394 . S
C647 C653 1.465 . S
C648 C643 1.399 . S
C648 C647 1.394 . S
C648 C649 1.516 . S
C649 C648 1.516 . S
C649 C650 1.502 . S
C649 C651 1.561 . S
C649 C652 1.526 . S
C650 H634 0.959 . S
C650 H635 0.959 . S
C650 H636 0.961 . S
C650 C649 1.502 . S
C651 H637 0.960 . S
C651 H638 0.961 . S
C651 H639 0.959 . S
C651 C649 1.561 . S
C652 C649 1.526 . S
C652 C653 1.396 . S
C652 C657 1.390 . S
C653 C647 1.465 . S
C653 C652 1.396 . S
C653 C654 1.399 . S
C654 H640 0.929 . S
C654 C653 1.399 . S
C654 C655 1.385 . S
C655 H641 0.931 . S
C655 C654 1.385 . S
C655 C656 1.389 . S
C656 C655 1.389 . S
C656 C657 1.387 . S
C657 H642 0.930 . S
C657 C652 1.390 . S
C657 C656 1.387 . S
H658 C670 0.930 . S
H659 C672 0.930 . S
H660 C673 0.930 . S
H661 C677 0.959 . S
H662 C677 0.959 . S
H663 C677 0.961 . S
H664 C678 0.960 . S
H665 C678 0.961 . S
H666 C678 0.959 . S
H667 C681 0.929 . S
H668 C682 0.931 . S
H669 C684 0.930 . S
C670 H658 0.930 . S
C670 C671 1.399 . S
C670 C675 1.399 . S
C671 C670 1.399 . S
C671 C672 1.376 . S
C672 H659 0.930 . S
C672 C671 1.376 . S
C672 C673 1.388 . S
C673 H660 0.930 . S
C673 C672 1.388 . S
C673 C674 1.390 . S
C674 C673 1.390 . S
C674 C675 1.394 . S
C674 C680 1.465 . S
C675 C670 1.399 . S
C675 C674 1.394 . S
C675 C676 1.516 . S
C676 C675 1.516 . S
C676 C677 1.502 . S
C676 C678 1.561 . S
C676 C679 1.526 . S
C677 H661 0.959 . S
C677 H662 0.959 . S
C677 H663 0.961 . S
C677 C676 1.502 . S
C678 H664 0.960 . S
C678 H665 0.961 . S
C678 H666 0.959 . S
C678 C676 1.561 . S
C679 C676 1.526 . S
C679 C680 1.396 . S
C679 C684 1.390 . S
C680 C674 1.465 . S
C680 C679 1.396 . S
C680 C681 1.399 . S
C681 H667 0.929 . S
C681 C680 1.399 . S
C681 C682 1.385 . S
C682 H668 0.931 . S
C682 C681 1.385 . S
C682 C683 1.389 . S
C683 C682 1.389 . S
C683 C684 1.387 . S
C684 H669 0.930 . S
C684 C679 1.390 . S
C684 C683 1.387 . S
H685 C697 0.930 . S
H686 C699 0.930 . S
H687 C700 0.930 . S
H688 C704 0.959 . S
H689 C704 0.959 . S
H690 C704 0.961 . S
H691 C705 0.960 . S
H692 C705 0.961 . S
H693 C705 0.959 . S
H694 C708 0.929 . S
H695 C709 0.931 . S
H696 C711 0.930 . S
C697 H685 0.930 . S
C697 C698 1.399 . S
C697 C702 1.399 . S
C698 C697 1.399 . S
C698 C699 1.376 . S
C699 H686 0.930 . S
C699 C698 1.376 . S
C699 C700 1.388 . S
C700 H687 0.930 . S
C700 C699 1.388 . S
C700 C701 1.390 . S
C701 C700 1.390 . S
C701 C702 1.394 . S
C701 C707 1.465 . S
C702 C697 1.399 . S
C702 C701 1.394 . S
C702 C703 1.516 . S
C703 C702 1.516 . S
C703 C704 1.502 . S
C703 C705 1.561 . S
C703 C706 1.526 . S
C704 H688 0.959 . S
C704 H689 0.959 . S
C704 H690 0.961 . S
C704 C703 1.502 . S
C705 H691 0.960 . S
C705 H692 0.961 . S
C705 H693 0.959 . S
C705 C703 1.561 . S
C706 C703 1.526 . S
C706 C707 1.396 . S
C706 C711 1.390 . S
C707 C701 1.465 . S
C707 C706 1.396 . S
C707 C708 1.399 . S
C708 H694 0.929 . S
C708 C707 1.399 . S
C708 C709 1.385 . S
C709 H695 0.931 . S
C709 C708 1.385 . S
C709 C710 1.389 . S
C710 C709 1.389 . S
C710 C711 1.387 . S
C711 H696 0.930 . S
C711 C706 1.390 . S
C711 C710 1.387 . S
H712 C724 0.930 . S
H713 C726 0.930 . S
H714 C727 0.930 . S
H715 C731 0.959 . S
H716 C731 0.959 . S
H717 C731 0.961 . S
H718 C732 0.960 . S
H719 C732 0.961 . S
H720 C732 0.959 . S
H721 C735 0.929 . S
H722 C736 0.931 . S
H723 C738 0.930 . S
C724 H712 0.930 . S
C724 C725 1.399 . S
C724 C729 1.399 . S
C725 C724 1.399 . S
C725 C726 1.376 . S
C726 H713 0.930 . S
C726 C725 1.376 . S
C726 C727 1.388 . S
C727 H714 0.930 . S
C727 C726 1.388 . S
C727 C728 1.390 . S
C728 C727 1.390 . S
C728 C729 1.394 . S
C728 C734 1.465 . S
C729 C724 1.399 . S
C729 C728 1.394 . S
C729 C730 1.516 . S
C730 C729 1.516 . S
C730 C731 1.502 . S
C730 C732 1.561 . S
C730 C733 1.526 . S
C731 H715 0.959 . S
C731 H716 0.959 . S
C731 H717 0.961 . S
C731 C730 1.502 . S
C732 H718 0.960 . S
C732 H719 0.961 . S
C732 H720 0.959 . S
C732 C730 1.561 . S
C733 C730 1.526 . S
C733 C734 1.396 . S
C733 C738 1.390 . S
C734 C728 1.465 . S
C734 C733 1.396 . S
C734 C735 1.399 . S
C735 H721 0.929 . S
C735 C734 1.399 . S
C735 C736 1.385 . S
C736 H722 0.931 . S
C736 C735 1.385 . S
C736 C737 1.389 . S
C737 C736 1.389 . S
C737 C738 1.387 . S
C738 H723 0.930 . S
C738 C733 1.390 . S
C738 C737 1.387 . S
H739 C751 0.930 . S
H740 C753 0.930 . S
H741 C754 0.930 . S
H742 C758 0.959 1_554 S
H743 C758 0.959 . S
H744 C758 0.961 . S
H745 C759 0.960 . S
H746 C759 0.961 . S
H747 C759 0.959 . S
H748 C762 0.929 . S
H749 C763 0.931 . S
H750 C765 0.930 1_556 S
C751 H739 0.930 . S
C751 C752 1.399 . S
C751 C756 1.399 . S
C752 C751 1.399 . S
C752 C753 1.376 . S
C753 H740 0.930 . S
C753 C752 1.376 . S
C753 C754 1.388 . S
C754 H741 0.930 . S
C754 C753 1.388 . S
C754 C755 1.390 . S
C755 C754 1.390 . S
C755 C756 1.394 . S
C755 C761 1.465 . S
C756 C751 1.399 . S
C756 C755 1.394 . S
C756 C757 1.516 . S
C757 C756 1.516 . S
C757 C758 1.502 1_554 S
C757 C759 1.561 1_554 S
C757 C760 1.526 . S
C758 H742 0.959 1_556 S
C758 H743 0.959 . S
C758 H744 0.961 . S
C758 C757 1.502 1_556 S
C759 H745 0.960 . S
C759 H746 0.961 . S
C759 H747 0.959 . S
C759 C757 1.561 1_556 S
C760 C757 1.526 . S
C760 C761 1.396 . S
C760 C765 1.390 . S
C761 C755 1.465 . S
C761 C760 1.396 . S
C761 C762 1.399 . S
C762 H748 0.929 . S
C762 C761 1.399 . S
C762 C763 1.385 . S
C763 H749 0.931 . S
C763 C762 1.385 . S
C763 C764 1.389 . S
C764 C763 1.389 . S
C764 C765 1.387 . S
C765 H750 0.930 1_554 S
C765 C760 1.390 . S
C765 C764 1.387 . S
H766 C778 0.930 . S
H767 C780 0.930 . S
H768 C781 0.930 . S
H769 C785 0.959 . S
H770 C785 0.959 . S
H771 C785 0.961 . S
H772 C786 0.960 . S
H773 C786 0.961 . S
H774 C786 0.959 . S
H775 C789 0.929 . S
H776 C790 0.931 . S
H777 C792 0.930 . S
C778 H766 0.930 . S
C778 C779 1.399 . S
C778 C783 1.399 . S
C779 C778 1.399 . S
C779 C780 1.376 . S
C780 H767 0.930 . S
C780 C779 1.376 . S
C780 C781 1.388 . S
C781 H768 0.930 . S
C781 C780 1.388 . S
C781 C782 1.390 . S
C782 C781 1.390 . S
C782 C783 1.394 . S
C782 C788 1.465 . S
C783 C778 1.399 . S
C783 C782 1.394 . S
C783 C784 1.516 . S
C784 C783 1.516 . S
C784 C785 1.502 . S
C784 C786 1.561 . S
C784 C787 1.526 . S
C785 H769 0.959 . S
C785 H770 0.959 . S
C785 H771 0.961 . S
C785 C784 1.502 . S
C786 H772 0.960 . S
C786 H773 0.961 . S
C786 H774 0.959 . S
C786 C784 1.561 . S
C787 C784 1.526 . S
C787 C788 1.396 . S
C787 C792 1.390 . S
C788 C782 1.465 . S
C788 C787 1.396 . S
C788 C789 1.399 . S
C789 H775 0.929 . S
C789 C788 1.399 . S
C789 C790 1.385 . S
C790 H776 0.931 . S
C790 C789 1.385 . S
C790 C791 1.389 . S
C791 C790 1.389 . S
C791 C792 1.387 . S
C792 H777 0.930 . S
C792 C787 1.390 . S
C792 C791 1.387 . S
H793 C805 0.930 . S
H794 C807 0.930 . S
H795 C808 0.930 . S
H796 C812 0.959 . S
H797 C812 0.959 . S
H798 C812 0.961 . S
H799 C813 0.960 . S
H800 C813 0.961 . S
H801 C813 0.959 . S
H802 C816 0.929 . S
H803 C817 0.931 . S
H804 C819 0.930 . S
C805 H793 0.930 . S
C805 C806 1.399 . S
C805 C810 1.399 . S
C806 C805 1.399 . S
C806 C807 1.376 . S
C807 H794 0.930 . S
C807 C806 1.376 . S
C807 C808 1.388 . S
C808 H795 0.930 . S
C808 C807 1.388 . S
C808 C809 1.390 . S
C809 C808 1.390 . S
C809 C810 1.394 . S
C809 C815 1.465 . S
C810 C805 1.399 . S
C810 C809 1.394 . S
C810 C811 1.516 . S
C811 C810 1.516 . S
C811 C812 1.502 . S
C811 C813 1.561 . S
C811 C814 1.526 . S
C812 H796 0.959 . S
C812 H797 0.959 . S
C812 H798 0.961 . S
C812 C811 1.502 . S
C813 H799 0.960 . S
C813 H800 0.961 . S
C813 H801 0.959 . S
C813 C811 1.561 . S
C814 C811 1.526 . S
C814 C815 1.396 . S
C814 C819 1.390 . S
C815 C809 1.465 . S
C815 C814 1.396 . S
C815 C816 1.399 . S
C816 H802 0.929 . S
C816 C815 1.399 . S
C816 C817 1.385 . S
C817 H803 0.931 . S
C817 C816 1.385 . S
C817 C818 1.389 . S
C818 C817 1.389 . S
C818 C819 1.387 . S
C819 H804 0.930 . S
C819 C814 1.390 . S
C819 C818 1.387 . S
H820 C832 0.930 . S
H821 C834 0.930 . S
H822 C835 0.930 . S
H823 C839 0.959 . S
H824 C839 0.959 . S
H825 C839 0.961 . S
H826 C840 0.960 . S
H827 C840 0.961 . S
H828 C840 0.959 . S
H829 C843 0.929 . S
H830 C844 0.931 . S
H831 C846 0.930 . S
C832 H820 0.930 . S
C832 C833 1.399 . S
C832 C837 1.399 . S
C833 C832 1.399 . S
C833 C834 1.376 . S
C834 H821 0.930 . S
C834 C833 1.376 . S
C834 C835 1.388 . S
C835 H822 0.930 . S
C835 C834 1.388 . S
C835 C836 1.390 . S
C836 C835 1.390 . S
C836 C837 1.394 . S
C836 C842 1.465 . S
C837 C832 1.399 . S
C837 C836 1.394 . S
C837 C838 1.516 . S
C838 C837 1.516 . S
C838 C839 1.502 . S
C838 C840 1.561 . S
C838 C841 1.526 . S
C839 H823 0.959 . S
C839 H824 0.959 . S
C839 H825 0.961 . S
C839 C838 1.502 . S
C840 H826 0.960 . S
C840 H827 0.961 . S
C840 H828 0.959 . S
C840 C838 1.561 . S
C841 C838 1.526 . S
C841 C842 1.396 . S
C841 C846 1.390 . S
C842 C836 1.465 . S
C842 C841 1.396 . S
C842 C843 1.399 . S
C843 H829 0.929 . S
C843 C842 1.399 . S
C843 C844 1.385 . S
C844 H830 0.931 . S
C844 C843 1.385 . S
C844 C845 1.389 . S
C845 C844 1.389 . S
C845 C846 1.387 . S
C846 H831 0.930 . S
C846 C841 1.390 . S
C846 C845 1.387 . S
H847 C859 0.930 . S
H848 C861 0.930 . S
H849 C862 0.930 . S
H850 C866 0.959 . S
H851 C866 0.959 . S
H852 C866 0.961 . S
H853 C867 0.960 . S
H854 C867 0.961 . S
H855 C867 0.959 . S
H856 C870 0.929 . S
H857 C871 0.931 . S
H858 C873 0.930 . S
C859 H847 0.930 . S
C859 C860 1.399 . S
C859 C864 1.399 . S
C860 C859 1.399 . S
C860 C861 1.376 . S
C861 H848 0.930 . S
C861 C860 1.376 . S
C861 C862 1.388 . S
C862 H849 0.930 . S
C862 C861 1.388 . S
C862 C863 1.390 . S
C863 C862 1.390 . S
C863 C864 1.394 . S
C863 C869 1.465 . S
C864 C859 1.399 . S
C864 C863 1.394 . S
C864 C865 1.516 . S
C865 C864 1.516 . S
C865 C866 1.502 . S
C865 C867 1.561 . S
C865 C868 1.526 . S
C866 H850 0.959 . S
C866 H851 0.959 . S
C866 H852 0.961 . S
C866 C865 1.502 . S
C867 H853 0.960 . S
C867 H854 0.961 . S
C867 H855 0.959 . S
C867 C865 1.561 . S
C868 C865 1.526 . S
C868 C869 1.396 . S
C868 C873 1.390 . S
C869 C863 1.465 . S
C869 C868 1.396 . S
C869 C870 1.399 . S
C870 H856 0.929 . S
C870 C869 1.399 . S
C870 C871 1.385 . S
C871 H857 0.931 . S
C871 C870 1.385 . S
C871 C872 1.389 . S
C872 C871 1.389 . S
C872 C873 1.387 . S
C873 H858 0.930 . S
C873 C868 1.390 . S
C873 C872 1.387 . S
H874 C886 0.930 1_554 S
H875 C888 0.930 . S
H876 C889 0.930 . S
H877 C893 0.959 . S
H878 C893 0.959 . S
H879 C893 0.961 . S
H880 C894 0.960 . S
H881 C894 0.961 . S
H882 C894 0.959 . S
H883 C897 0.929 . S
H884 C898 0.931 . S
H885 C900 0.930 . S
C886 H874 0.930 1_556 S
C886 C887 1.399 . S
C886 C891 1.399 . S
C887 C886 1.399 . S
C887 C888 1.376 . S
C888 H875 0.930 . S
C888 C887 1.376 . S
C888 C889 1.388 . S
C889 H876 0.930 . S
C889 C888 1.388 . S
C889 C890 1.390 . S
C890 C889 1.390 . S
C890 C891 1.394 . S
C890 C896 1.465 . S
C891 C886 1.399 . S
C891 C890 1.394 . S
C891 C892 1.516 1_556 S
C892 C891 1.516 1_554 S
C892 C893 1.502 . S
C892 C894 1.561 . S
C892 C895 1.526 1_554 S
C893 H877 0.959 . S
C893 H878 0.959 . S
C893 H879 0.961 . S
C893 C892 1.502 . S
C894 H880 0.960 . S
C894 H881 0.961 . S
C894 H882 0.959 . S
C894 C892 1.561 . S
C895 C892 1.526 1_556 S
C895 C896 1.396 . S
C895 C900 1.390 1_556 S
C896 C890 1.465 . S
C896 C895 1.396 . S
C896 C897 1.399 . S
C897 H883 0.929 . S
C897 C896 1.399 . S
C897 C898 1.385 . S
C898 H884 0.931 . S
C898 C897 1.385 . S
C898 C899 1.389 . S
C899 C898 1.389 . S
C899 C900 1.387 1_556 S
C900 H885 0.930 . S
C900 C895 1.390 1_554 S
C900 C899 1.387 1_554 S
H901 C913 0.930 . S
H902 C915 0.930 . S
H903 C916 0.930 . S
H904 C920 0.959 . S
H905 C920 0.959 . S
H906 C920 0.961 . S
H907 C921 0.960 . S
H908 C921 0.961 . S
H909 C921 0.959 . S
H910 C924 0.929 . S
H911 C925 0.931 . S
H912 C927 0.930 . S
C913 H901 0.930 . S
C913 C914 1.399 . S
C913 C918 1.399 . S
C914 C913 1.399 . S
C914 C915 1.376 . S
C915 H902 0.930 . S
C915 C914 1.376 . S
C915 C916 1.388 . S
C916 H903 0.930 . S
C916 C915 1.388 . S
C916 C917 1.390 . S
C917 C916 1.390 . S
C917 C918 1.394 . S
C917 C923 1.465 . S
C918 C913 1.399 . S
C918 C917 1.394 . S
C918 C919 1.516 . S
C919 C918 1.516 . S
C919 C920 1.502 . S
C919 C921 1.561 . S
C919 C922 1.526 . S
C920 H904 0.959 . S
C920 H905 0.959 . S
C920 H906 0.961 . S
C920 C919 1.502 . S
C921 H907 0.960 . S
C921 H908 0.961 . S
C921 H909 0.959 . S
C921 C919 1.561 . S
C922 C919 1.526 . S
C922 C923 1.396 . S
C922 C927 1.390 . S
C923 C917 1.465 . S
C923 C922 1.396 . S
C923 C924 1.399 . S
C924 H910 0.929 . S
C924 C923 1.399 . S
C924 C925 1.385 . S
C925 H911 0.931 . S
C925 C924 1.385 . S
C925 C926 1.389 . S
C926 C925 1.389 . S
C926 C927 1.387 . S
C927 H912 0.930 . S
C927 C922 1.390 . S
C927 C926 1.387 . S
H928 C940 0.930 . S
H929 C942 0.930 . S
H930 C943 0.930 . S
H931 C947 0.959 . S
H932 C947 0.959 . S
H933 C947 0.961 . S
H934 C948 0.960 . S
H935 C948 0.961 . S
H936 C948 0.959 . S
H937 C951 0.929 . S
H938 C952 0.931 . S
H939 C954 0.930 . S
C940 H928 0.930 . S
C940 C941 1.399 . S
C940 C945 1.399 . S
C941 C940 1.399 . S
C941 C942 1.376 . S
C942 H929 0.930 . S
C942 C941 1.376 . S
C942 C943 1.388 . S
C943 H930 0.930 . S
C943 C942 1.388 . S
C943 C944 1.390 . S
C944 C943 1.390 . S
C944 C945 1.394 . S
C944 C950 1.465 . S
C945 C940 1.399 . S
C945 C944 1.394 . S
C945 C946 1.516 . S
C946 C945 1.516 . S
C946 C947 1.502 . S
C946 C948 1.561 . S
C946 C949 1.526 . S
C947 H931 0.959 . S
C947 H932 0.959 . S
C947 H933 0.961 . S
C947 C946 1.502 . S
C948 H934 0.960 . S
C948 H935 0.961 . S
C948 H936 0.959 . S
C948 C946 1.561 . S
C949 C946 1.526 . S
C949 C950 1.396 . S
C949 C954 1.390 . S
C950 C944 1.465 . S
C950 C949 1.396 . S
C950 C951 1.399 . S
C951 H937 0.929 . S
C951 C950 1.399 . S
C951 C952 1.385 . S
C952 H938 0.931 . S
C952 C951 1.385 . S
C952 C953 1.389 . S
C953 C952 1.389 . S
C953 C954 1.387 . S
C954 H939 0.930 . S
C954 C949 1.390 . S
C954 C953 1.387 . S
H955 C967 0.930 . S
H956 C969 0.930 . S
H957 C970 0.930 . S
H958 C974 0.959 . S
H959 C974 0.959 . S
H960 C974 0.961 . S
H961 C975 0.960 . S
H962 C975 0.961 . S
H963 C975 0.959 . S
H964 C978 0.929 . S
H965 C979 0.931 . S
H966 C981 0.930 . S
C967 H955 0.930 . S
C967 C968 1.399 . S
C967 C972 1.399 . S
C968 C967 1.399 . S
C968 C969 1.376 . S
C969 H956 0.930 . S
C969 C968 1.376 . S
C969 C970 1.388 . S
C970 H957 0.930 . S
C970 C969 1.388 . S
C970 C971 1.390 . S
C971 C970 1.390 . S
C971 C972 1.394 . S
C971 C977 1.465 . S
C972 C967 1.399 . S
C972 C971 1.394 . S
C972 C973 1.516 . S
C973 C972 1.516 . S
C973 C974 1.502 . S
C973 C975 1.561 . S
C973 C976 1.526 . S
C974 H958 0.959 . S
C974 H959 0.959 . S
C974 H960 0.961 . S
C974 C973 1.502 . S
C975 H961 0.960 . S
C975 H962 0.961 . S
C975 H963 0.959 . S
C975 C973 1.561 . S
C976 C973 1.526 . S
C976 C977 1.396 . S
C976 C981 1.390 . S
C977 C971 1.465 . S
C977 C976 1.396 . S
C977 C978 1.399 . S
C978 H964 0.929 . S
C978 C977 1.399 . S
C978 C979 1.385 . S
C979 H965 0.931 . S
C979 C978 1.385 . S
C979 C980 1.389 . S
C980 C979 1.389 . S
C980 C981 1.387 . S
C981 H966 0.930 . S
C981 C976 1.390 . S
C981 C980 1.387 . S
H982 C994 0.930 . S
H983 C996 0.930 . S
H984 C997 0.930 . S
H985 C1001 0.959 . S
H986 C1001 0.959 . S
H987 C1001 0.961 . S
H988 C1002 0.960 . S
H989 C1002 0.961 . S
H990 C1002 0.959 . S
H991 C1005 0.929 . S
H992 C1006 0.931 . S
H993 C1008 0.930 . S
C994 H982 0.930 . S
C994 C995 1.399 . S
C994 C999 1.399 . S
C995 C994 1.399 . S
C995 C996 1.376 . S
C996 H983 0.930 . S
C996 C995 1.376 . S
C996 C997 1.388 . S
C997 H984 0.930 . S
C997 C996 1.388 . S
C997 C998 1.390 . S
C998 C997 1.390 . S
C998 C999 1.394 . S
C998 C1004 1.465 . S
C999 C994 1.399 . S
C999 C998 1.394 . S
C999 C1000 1.516 . S
C1000 C999 1.516 . S
C1000 C1001 1.502 . S
C1000 C1002 1.561 . S
C1000 C1003 1.526 . S
C1001 H985 0.959 . S
C1001 H986 0.959 . S
C1001 H987 0.961 . S
C1001 C1000 1.502 . S
C1002 H988 0.960 . S
C1002 H989 0.961 . S
C1002 H990 0.959 . S
C1002 C1000 1.561 . S
C1003 C1000 1.526 . S
C1003 C1004 1.396 . S
C1003 C1008 1.390 . S
C1004 C998 1.465 . S
C1004 C1003 1.396 . S
C1004 C1005 1.399 . S
C1005 H991 0.929 . S
C1005 C1004 1.399 . S
C1005 C1006 1.385 . S
C1006 H992 0.931 . S
C1006 C1005 1.385 . S
C1006 C1007 1.389 . S
C1007 C1006 1.389 . S
C1007 C1008 1.387 . S
C1008 H993 0.930 . S
C1008 C1003 1.390 . S
C1008 C1007 1.387 . S
H1009 C1021 0.930 . S
H1010 C1023 0.930 . S
H1011 C1024 0.930 . S
H1012 C1028 0.959 . S
H1013 C1028 0.959 . S
H1014 C1028 0.961 . S
H1015 C1029 0.960 . S
H1016 C1029 0.961 . S
H1017 C1029 0.959 . S
H1018 C1032 0.929 . S
H1019 C1033 0.931 . S
H1020 C1035 0.930 . S
C1021 H1009 0.930 . S
C1021 C1022 1.399 . S
C1021 C1026 1.399 . S
C1022 C1021 1.399 . S
C1022 C1023 1.376 . S
C1023 H1010 0.930 . S
C1023 C1022 1.376 . S
C1023 C1024 1.388 . S
C1024 H1011 0.930 . S
C1024 C1023 1.388 . S
C1024 C1025 1.390 . S
C1025 C1024 1.390 . S
C1025 C1026 1.394 . S
C1025 C1031 1.465 . S
C1026 C1021 1.399 . S
C1026 C1025 1.394 . S
C1026 C1027 1.516 . S
C1027 C1026 1.516 . S
C1027 C1028 1.502 . S
C1027 C1029 1.561 . S
C1027 C1030 1.526 . S
C1028 H1012 0.959 . S
C1028 H1013 0.959 . S
C1028 H1014 0.961 . S
C1028 C1027 1.502 . S
C1029 H1015 0.960 . S
C1029 H1016 0.961 . S
C1029 H1017 0.959 . S
C1029 C1027 1.561 . S
C1030 C1027 1.526 . S
C1030 C1031 1.396 . S
C1030 C1035 1.390 . S
C1031 C1025 1.465 . S
C1031 C1030 1.396 . S
C1031 C1032 1.399 . S
C1032 H1018 0.929 . S
C1032 C1031 1.399 . S
C1032 C1033 1.385 . S
C1033 H1019 0.931 . S
C1033 C1032 1.385 . S
C1033 C1034 1.389 . S
C1034 C1033 1.389 . S
C1034 C1035 1.387 . S
C1035 H1020 0.930 . S
C1035 C1030 1.390 . S
C1035 C1034 1.387 . S
H1036 C1048 0.930 . S
H1037 C1050 0.930 . S
H1038 C1051 0.930 . S
H1039 C1055 0.959 . S
H1040 C1055 0.959 . S
H1041 C1055 0.961 . S
H1042 C1056 0.960 . S
H1043 C1056 0.961 . S
H1044 C1056 0.959 . S
H1045 C1059 0.929 . S
H1046 C1060 0.931 . S
H1047 C1062 0.930 . S
C1048 H1036 0.930 . S
C1048 C1049 1.399 . S
C1048 C1053 1.399 . S
C1049 C1048 1.399 . S
C1049 C1050 1.376 . S
C1050 H1037 0.930 . S
C1050 C1049 1.376 . S
C1050 C1051 1.388 . S
C1051 H1038 0.930 . S
C1051 C1050 1.388 . S
C1051 C1052 1.390 . S
C1052 C1051 1.390 . S
C1052 C1053 1.394 . S
C1052 C1058 1.465 . S
C1053 C1048 1.399 . S
C1053 C1052 1.394 . S
C1053 C1054 1.516 . S
C1054 C1053 1.516 . S
C1054 C1055 1.502 . S
C1054 C1056 1.561 . S
C1054 C1057 1.526 . S
C1055 H1039 0.959 . S
C1055 H1040 0.959 . S
C1055 H1041 0.961 . S
C1055 C1054 1.502 . S
C1056 H1042 0.960 . S
C1056 H1043 0.961 . S
C1056 H1044 0.959 . S
C1056 C1054 1.561 . S
C1057 C1054 1.526 . S
C1057 C1058 1.396 . S
C1057 C1062 1.390 . S
C1058 C1052 1.465 . S
C1058 C1057 1.396 . S
C1058 C1059 1.399 . S
C1059 H1045 0.929 . S
C1059 C1058 1.399 . S
C1059 C1060 1.385 . S
C1060 H1046 0.931 . S
C1060 C1059 1.385 . S
C1060 C1061 1.389 . S
C1061 C1060 1.389 . S
C1061 C1062 1.387 . S
C1062 H1047 0.930 . S
C1062 C1057 1.390 . S
C1062 C1061 1.387 . S
H1063 C1075 0.930 . S
H1064 C1077 0.930 . S
H1065 C1078 0.930 . S
H1066 C1082 0.959 . S
H1067 C1082 0.959 . S
H1068 C1082 0.961 . S
H1069 C1083 0.960 . S
H1070 C1083 0.961 . S
H1071 C1083 0.959 . S
H1072 C1086 0.929 . S
H1073 C1087 0.931 . S
H1074 C1089 0.930 . S
C1075 H1063 0.930 . S
C1075 C1076 1.399 . S
C1075 C1080 1.399 . S
C1076 C1075 1.399 . S
C1076 C1077 1.376 . S
C1077 H1064 0.930 . S
C1077 C1076 1.376 . S
C1077 C1078 1.388 . S
C1078 H1065 0.930 . S
C1078 C1077 1.388 . S
C1078 C1079 1.390 . S
C1079 C1078 1.390 . S
C1079 C1080 1.394 . S
C1079 C1085 1.465 . S
C1080 C1075 1.399 . S
C1080 C1079 1.394 . S
C1080 C1081 1.516 . S
C1081 C1080 1.516 . S
C1081 C1082 1.502 . S
C1081 C1083 1.561 . S
C1081 C1084 1.526 . S
C1082 H1066 0.959 . S
C1082 H1067 0.959 . S
C1082 H1068 0.961 . S
C1082 C1081 1.502 . S
C1083 H1069 0.960 . S
C1083 H1070 0.961 . S
C1083 H1071 0.959 . S
C1083 C1081 1.561 . S
C1084 C1081 1.526 . S
C1084 C1085 1.396 . S
C1084 C1089 1.390 . S
C1085 C1079 1.465 . S
C1085 C1084 1.396 . S
C1085 C1086 1.399 . S
C1086 H1072 0.929 . S
C1086 C1085 1.399 . S
C1086 C1087 1.385 . S
C1087 H1073 0.931 . S
C1087 C1086 1.385 . S
C1087 C1088 1.389 . S
C1088 C1087 1.389 . S
C1088 C1089 1.387 . S
C1089 H1074 0.930 . S
C1089 C1084 1.390 . S
C1089 C1088 1.387 . S
H1090 C1102 0.930 . S
H1091 C1104 0.930 . S
H1092 C1105 0.930 . S
H1093 C1109 0.959 . S
H1094 C1109 0.959 . S
H1095 C1109 0.961 . S
H1096 C1110 0.960 . S
H1097 C1110 0.961 . S
H1098 C1110 0.959 . S
H1099 C1113 0.929 . S
H1100 C1114 0.931 . S
H1101 C1116 0.930 . S
C1102 H1090 0.930 . S
C1102 C1103 1.399 . S
C1102 C1107 1.399 . S
C1103 C1102 1.399 . S
C1103 C1104 1.376 . S
C1104 H1091 0.930 . S
C1104 C1103 1.376 . S
C1104 C1105 1.388 . S
C1105 H1092 0.930 . S
C1105 C1104 1.388 . S
C1105 C1106 1.390 . S
C1106 C1105 1.390 . S
C1106 C1107 1.394 . S
C1106 C1112 1.465 . S
C1107 C1102 1.399 . S
C1107 C1106 1.394 . S
C1107 C1108 1.516 . S
C1108 C1107 1.516 . S
C1108 C1109 1.502 . S
C1108 C1110 1.561 . S
C1108 C1111 1.526 . S
C1109 H1093 0.959 . S
C1109 H1094 0.959 . S
C1109 H1095 0.961 . S
C1109 C1108 1.502 . S
C1110 H1096 0.960 . S
C1110 H1097 0.961 . S
C1110 H1098 0.959 . S
C1110 C1108 1.561 . S
C1111 C1108 1.526 . S
C1111 C1112 1.396 . S
C1111 C1116 1.390 . S
C1112 C1106 1.465 . S
C1112 C1111 1.396 . S
C1112 C1113 1.399 . S
C1113 H1099 0.929 . S
C1113 C1112 1.399 . S
C1113 C1114 1.385 . S
C1114 H1100 0.931 . S
C1114 C1113 1.385 . S
C1114 C1115 1.389 . S
C1115 C1114 1.389 . S
C1115 C1116 1.387 . S
C1116 H1101 0.930 . S
C1116 C1111 1.390 . S
C1116 C1115 1.387 . S
H1117 C1129 0.930 . S
H1118 C1131 0.930 . S
H1119 C1132 0.930 . S
H1120 C1136 0.959 . S
H1121 C1136 0.959 . S
H1122 C1136 0.961 . S
H1123 C1137 0.960 . S
H1124 C1137 0.961 . S
H1125 C1137 0.959 . S
H1126 C1140 0.929 . S
H1127 C1141 0.931 . S
H1128 C1143 0.930 . S
C1129 H1117 0.930 . S
C1129 C1130 1.399 . S
C1129 C1134 1.399 . S
C1130 C1129 1.399 . S
C1130 C1131 1.376 . S
C1131 H1118 0.930 . S
C1131 C1130 1.376 . S
C1131 C1132 1.388 . S
C1132 H1119 0.930 . S
C1132 C1131 1.388 . S
C1132 C1133 1.390 . S
C1133 C1132 1.390 . S
C1133 C1134 1.394 . S
C1133 C1139 1.465 . S
C1134 C1129 1.399 . S
C1134 C1133 1.394 . S
C1134 C1135 1.516 . S
C1135 C1134 1.516 . S
C1135 C1136 1.502 . S
C1135 C1137 1.561 . S
C1135 C1138 1.526 . S
C1136 H1120 0.959 . S
C1136 H1121 0.959 . S
C1136 H1122 0.961 . S
C1136 C1135 1.502 . S
C1137 H1123 0.960 . S
C1137 H1124 0.961 . S
C1137 H1125 0.959 . S
C1137 C1135 1.561 . S
C1138 C1135 1.526 . S
C1138 C1139 1.396 . S
C1138 C1143 1.390 . S
C1139 C1133 1.465 . S
C1139 C1138 1.396 . S
C1139 C1140 1.399 . S
C1140 H1126 0.929 . S
C1140 C1139 1.399 . S
C1140 C1141 1.385 . S
C1141 H1127 0.931 . S
C1141 C1140 1.385 . S
C1141 C1142 1.389 . S
C1142 C1141 1.389 . S
C1142 C1143 1.387 . S
C1143 H1128 0.930 . S
C1143 C1138 1.390 . S
C1143 C1142 1.387 . S
H1144 C1156 0.930 . S
H1145 C1158 0.930 . S
H1146 C1159 0.930 . S
H1147 C1163 0.959 . S
H1148 C1163 0.959 . S
H1149 C1163 0.961 . S
H1150 C1164 0.960 . S
H1151 C1164 0.961 . S
H1152 C1164 0.959 . S
H1153 C1167 0.929 . S
H1154 C1168 0.931 . S
H1155 C1170 0.930 . S
C1156 H1144 0.930 . S
C1156 C1157 1.399 . S
C1156 C1161 1.399 . S
C1157 C1156 1.399 . S
C1157 C1158 1.376 . S
C1158 H1145 0.930 . S
C1158 C1157 1.376 . S
C1158 C1159 1.388 . S
C1159 H1146 0.930 . S
C1159 C1158 1.388 . S
C1159 C1160 1.390 . S
C1160 C1159 1.390 . S
C1160 C1161 1.394 . S
C1160 C1166 1.465 . S
C1161 C1156 1.399 . S
C1161 C1160 1.394 . S
C1161 C1162 1.516 . S
C1162 C1161 1.516 . S
C1162 C1163 1.502 . S
C1162 C1164 1.561 . S
C1162 C1165 1.526 . S
C1163 H1147 0.959 . S
C1163 H1148 0.959 . S
C1163 H1149 0.961 . S
C1163 C1162 1.502 . S
C1164 H1150 0.960 . S
C1164 H1151 0.961 . S
C1164 H1152 0.959 . S
C1164 C1162 1.561 . S
C1165 C1162 1.526 . S
C1165 C1166 1.396 . S
C1165 C1170 1.390 . S
C1166 C1160 1.465 . S
C1166 C1165 1.396 . S
C1166 C1167 1.399 . S
C1167 H1153 0.929 . S
C1167 C1166 1.399 . S
C1167 C1168 1.385 . S
C1168 H1154 0.931 . S
C1168 C1167 1.385 . S
C1168 C1169 1.389 . S
C1169 C1168 1.389 . S
C1169 C1170 1.387 . S
C1170 H1155 0.930 . S
C1170 C1165 1.390 . S
C1170 C1169 1.387 . S
H1171 C1183 0.930 . S
H1172 C1185 0.930 . S
H1173 C1186 0.930 . S
H1174 C1190 0.959 . S
H1175 C1190 0.959 . S
H1176 C1190 0.961 . S
H1177 C1191 0.960 . S
H1178 C1191 0.961 . S
H1179 C1191 0.959 . S
H1180 C1194 0.929 . S
H1181 C1195 0.931 . S
H1182 C1197 0.930 . S
C1183 H1171 0.930 . S
C1183 C1184 1.399 . S
C1183 C1188 1.399 . S
C1184 C1183 1.399 . S
C1184 C1185 1.376 . S
C1185 H1172 0.930 . S
C1185 C1184 1.376 . S
C1185 C1186 1.388 . S
C1186 H1173 0.930 . S
C1186 C1185 1.388 . S
C1186 C1187 1.390 . S
C1187 C1186 1.390 . S
C1187 C1188 1.394 . S
C1187 C1193 1.465 . S
C1188 C1183 1.399 . S
C1188 C1187 1.394 . S
C1188 C1189 1.516 . S
C1189 C1188 1.516 . S
C1189 C1190 1.502 . S
C1189 C1191 1.561 . S
C1189 C1192 1.526 . S
C1190 H1174 0.959 . S
C1190 H1175 0.959 . S
C1190 H1176 0.961 . S
C1190 C1189 1.502 . S
C1191 H1177 0.960 . S
C1191 H1178 0.961 . S
C1191 H1179 0.959 . S
C1191 C1189 1.561 . S
C1192 C1189 1.526 . S
C1192 C1193 1.396 . S
C1192 C1197 1.390 . S
C1193 C1187 1.465 . S
C1193 C1192 1.396 . S
C1193 C1194 1.399 . S
C1194 H1180 0.929 . S
C1194 C1193 1.399 . S
C1194 C1195 1.385 . S
C1195 H1181 0.931 . S
C1195 C1194 1.385 . S
C1195 C1196 1.389 . S
C1196 C1195 1.389 . S
C1196 C1197 1.387 . S
C1197 H1182 0.930 . S
C1197 C1192 1.390 . S
C1197 C1196 1.387 . S
H1198 C1210 0.930 . S
H1199 C1212 0.930 . S
H1200 C1213 0.930 . S
H1201 C1217 0.959 . S
H1202 C1217 0.959 . S
H1203 C1217 0.961 . S
H1204 C1218 0.960 . S
H1205 C1218 0.961 . S
H1206 C1218 0.959 . S
H1207 C1221 0.929 . S
H1208 C1222 0.931 . S
H1209 C1224 0.930 . S
C1210 H1198 0.930 . S
C1210 C1211 1.399 . S
C1210 C1215 1.399 . S
C1211 C1210 1.399 . S
C1211 C1212 1.376 . S
C1212 H1199 0.930 . S
C1212 C1211 1.376 . S
C1212 C1213 1.388 . S
C1213 H1200 0.930 . S
C1213 C1212 1.388 . S
C1213 C1214 1.390 . S
C1214 C1213 1.390 . S
C1214 C1215 1.394 . S
C1214 C1220 1.465 . S
C1215 C1210 1.399 . S
C1215 C1214 1.394 . S
C1215 C1216 1.516 . S
C1216 C1215 1.516 . S
C1216 C1217 1.502 . S
C1216 C1218 1.561 . S
C1216 C1219 1.526 . S
C1217 H1201 0.959 . S
C1217 H1202 0.959 . S
C1217 H1203 0.961 . S
C1217 C1216 1.502 . S
C1218 H1204 0.960 . S
C1218 H1205 0.961 . S
C1218 H1206 0.959 . S
C1218 C1216 1.561 . S
C1219 C1216 1.526 . S
C1219 C1220 1.396 . S
C1219 C1224 1.390 . S
C1220 C1214 1.465 . S
C1220 C1219 1.396 . S
C1220 C1221 1.399 . S
C1221 H1207 0.929 . S
C1221 C1220 1.399 . S
C1221 C1222 1.385 . S
C1222 H1208 0.931 . S
C1222 C1221 1.385 . S
C1222 C1223 1.389 . S
C1223 C1222 1.389 . S
C1223 C1224 1.387 . S
C1224 H1209 0.930 . S
C1224 C1219 1.390 . S
C1224 C1223 1.387 . S
H1225 C1237 0.930 . S
H1226 C1239 0.930 . S
H1227 C1240 0.930 . S
H1228 C1244 0.959 . S
H1229 C1244 0.959 . S
H1230 C1244 0.961 . S
H1231 C1245 0.960 . S
H1232 C1245 0.961 . S
H1233 C1245 0.959 . S
H1234 C1248 0.929 . S
H1235 C1249 0.931 . S
H1236 C1251 0.930 . S
C1237 H1225 0.930 . S
C1237 C1238 1.399 . S
C1237 C1242 1.399 . S
C1238 C1237 1.399 . S
C1238 C1239 1.376 . S
C1239 H1226 0.930 . S
C1239 C1238 1.376 . S
C1239 C1240 1.388 . S
C1240 H1227 0.930 . S
C1240 C1239 1.388 . S
C1240 C1241 1.390 . S
C1241 C1240 1.390 . S
C1241 C1242 1.394 . S
C1241 C1247 1.465 . S
C1242 C1237 1.399 . S
C1242 C1241 1.394 . S
C1242 C1243 1.516 . S
C1243 C1242 1.516 . S
C1243 C1244 1.502 . S
C1243 C1245 1.561 . S
C1243 C1246 1.526 . S
C1244 H1228 0.959 . S
C1244 H1229 0.959 . S
C1244 H1230 0.961 . S
C1244 C1243 1.502 . S
C1245 H1231 0.960 . S
C1245 H1232 0.961 . S
C1245 H1233 0.959 . S
C1245 C1243 1.561 . S
C1246 C1243 1.526 . S
C1246 C1247 1.396 . S
C1246 C1251 1.390 . S
C1247 C1241 1.465 . S
C1247 C1246 1.396 . S
C1247 C1248 1.399 . S
C1248 H1234 0.929 . S
C1248 C1247 1.399 . S
C1248 C1249 1.385 . S
C1249 H1235 0.931 . S
C1249 C1248 1.385 . S
C1249 C1250 1.389 . S
C1250 C1249 1.389 . S
C1250 C1251 1.387 . S
C1251 H1236 0.930 . S
C1251 C1246 1.390 . S
C1251 C1250 1.387 . S
H1252 C1264 0.930 . S
H1253 C1266 0.930 . S
H1254 C1267 0.930 . S
H1255 C1271 0.959 . S
H1256 C1271 0.959 . S
H1257 C1271 0.961 . S
H1258 C1272 0.960 . S
H1259 C1272 0.961 . S
H1260 C1272 0.959 . S
H1261 C1275 0.929 . S
H1262 C1276 0.931 . S
H1263 C1278 0.930 . S
C1264 H1252 0.930 . S
C1264 C1265 1.399 . S
C1264 C1269 1.399 . S
C1265 C1264 1.399 . S
C1265 C1266 1.376 . S
C1266 H1253 0.930 . S
C1266 C1265 1.376 . S
C1266 C1267 1.388 . S
C1267 H1254 0.930 . S
C1267 C1266 1.388 . S
C1267 C1268 1.390 . S
C1268 C1267 1.390 . S
C1268 C1269 1.394 . S
C1268 C1274 1.465 . S
C1269 C1264 1.399 . S
C1269 C1268 1.394 . S
C1269 C1270 1.516 . S
C1270 C1269 1.516 . S
C1270 C1271 1.502 . S
C1270 C1272 1.561 . S
C1270 C1273 1.526 . S
C1271 H1255 0.959 . S
C1271 H1256 0.959 . S
C1271 H1257 0.961 . S
C1271 C1270 1.502 . S
C1272 H1258 0.960 . S
C1272 H1259 0.961 . S
C1272 H1260 0.959 . S
C1272 C1270 1.561 . S
C1273 C1270 1.526 . S
C1273 C1274 1.396 . S
C1273 C1278 1.390 . S
C1274 C1268 1.465 . S
C1274 C1273 1.396 . S
C1274 C1275 1.399 . S
C1275 H1261 0.929 . S
C1275 C1274 1.399 . S
C1275 C1276 1.385 . S
C1276 H1262 0.931 . S
C1276 C1275 1.385 . S
C1276 C1277 1.389 . S
C1277 C1276 1.389 . S
C1277 C1278 1.387 . S
C1278 H1263 0.930 . S
C1278 C1273 1.390 . S
C1278 C1277 1.387 . S
H1279 C1291 0.930 . S
H1280 C1293 0.930 . S
H1281 C1294 0.930 . S
H1282 C1298 0.959 . S
H1283 C1298 0.959 . S
H1284 C1298 0.961 . S
H1285 C1299 0.960 . S
H1286 C1299 0.961 . S
H1287 C1299 0.959 . S
H1288 C1302 0.929 . S
H1289 C1303 0.931 . S
H1290 C1305 0.930 . S
C1291 H1279 0.930 . S
C1291 C1292 1.399 . S
C1291 C1296 1.399 . S
C1292 C1291 1.399 . S
C1292 C1293 1.376 . S
C1293 H1280 0.930 . S
C1293 C1292 1.376 . S
C1293 C1294 1.388 . S
C1294 H1281 0.930 . S
C1294 C1293 1.388 . S
C1294 C1295 1.390 . S
C1295 C1294 1.390 . S
C1295 C1296 1.394 . S
C1295 C1301 1.465 . S
C1296 C1291 1.399 . S
C1296 C1295 1.394 . S
C1296 C1297 1.516 . S
C1297 C1296 1.516 . S
C1297 C1298 1.502 . S
C1297 C1299 1.561 . S
C1297 C1300 1.526 . S
C1298 H1282 0.959 . S
C1298 H1283 0.959 . S
C1298 H1284 0.961 . S
C1298 C1297 1.502 . S
C1299 H1285 0.960 . S
C1299 H1286 0.961 . S
C1299 H1287 0.959 . S
C1299 C1297 1.561 . S
C1300 C1297 1.526 . S
C1300 C1301 1.396 . S
C1300 C1305 1.390 . S
C1301 C1295 1.465 . S
C1301 C1300 1.396 . S
C1301 C1302 1.399 . S
C1302 H1288 0.929 . S
C1302 C1301 1.399 . S
C1302 C1303 1.385 . S
C1303 H1289 0.931 . S
C1303 C1302 1.385 . S
C1303 C1304 1.389 . S
C1304 C1303 1.389 . S
C1304 C1305 1.387 . S
C1305 H1290 0.930 . S
C1305 C1300 1.390 . S
C1305 C1304 1.387 . S
H1306 C1318 0.930 . S
H1307 C1320 0.930 . S
H1308 C1321 0.930 . S
H1309 C1325 0.959 . S
H1310 C1325 0.959 . S
H1311 C1325 0.961 . S
H1312 C1326 0.960 . S
H1313 C1326 0.961 . S
H1314 C1326 0.959 . S
H1315 C1329 0.929 . S
H1316 C1330 0.931 . S
H1317 C1332 0.930 . S
C1318 H1306 0.930 . S
C1318 C1319 1.399 . S
C1318 C1323 1.399 . S
C1319 C1318 1.399 . S
C1319 C1320 1.376 . S
C1320 H1307 0.930 . S
C1320 C1319 1.376 . S
C1320 C1321 1.388 . S
C1321 H1308 0.930 . S
C1321 C1320 1.388 . S
C1321 C1322 1.390 . S
C1322 C1321 1.390 . S
C1322 C1323 1.394 . S
C1322 C1328 1.465 . S
C1323 C1318 1.399 . S
C1323 C1322 1.394 . S
C1323 C1324 1.516 . S
C1324 C1323 1.516 . S
C1324 C1325 1.502 . S
C1324 C1326 1.561 . S
C1324 C1327 1.526 . S
C1325 H1309 0.959 . S
C1325 H1310 0.959 . S
C1325 H1311 0.961 . S
C1325 C1324 1.502 . S
C1326 H1312 0.960 . S
C1326 H1313 0.961 . S
C1326 H1314 0.959 . S
C1326 C1324 1.561 . S
C1327 C1324 1.526 . S
C1327 C1328 1.396 . S
C1327 C1332 1.390 . S
C1328 C1322 1.465 . S
C1328 C1327 1.396 . S
C1328 C1329 1.399 . S
C1329 H1315 0.929 . S
C1329 C1328 1.399 . S
C1329 C1330 1.385 . S
C1330 H1316 0.931 . S
C1330 C1329 1.385 . S
C1330 C1331 1.389 . S
C1331 C1330 1.389 . S
C1331 C1332 1.387 . S
C1332 H1317 0.930 . S
C1332 C1327 1.390 . S
C1332 C1331 1.387 . S
H1333 C1345 0.930 . S
H1334 C1347 0.930 . S
H1335 C1348 0.930 . S
H1336 C1352 0.959 . S
H1337 C1352 0.959 . S
H1338 C1352 0.961 . S
H1339 C1353 0.960 . S
H1340 C1353 0.961 . S
H1341 C1353 0.959 . S
H1342 C1356 0.929 . S
H1343 C1357 0.931 . S
H1344 C1359 0.930 . S
C1345 H1333 0.930 . S
C1345 C1346 1.399 . S
C1345 C1350 1.399 . S
C1346 C1345 1.399 . S
C1346 C1347 1.376 . S
C1347 H1334 0.930 . S
C1347 C1346 1.376 . S
C1347 C1348 1.388 . S
C1348 H1335 0.930 . S
C1348 C1347 1.388 . S
C1348 C1349 1.390 . S
C1349 C1348 1.390 . S
C1349 C1350 1.394 . S
C1349 C1355 1.465 . S
C1350 C1345 1.399 . S
C1350 C1349 1.394 . S
C1350 C1351 1.516 . S
C1351 C1350 1.516 . S
C1351 C1352 1.502 . S
C1351 C1353 1.561 . S
C1351 C1354 1.526 . S
C1352 H1336 0.959 . S
C1352 H1337 0.959 . S
C1352 H1338 0.961 . S
C1352 C1351 1.502 . S
C1353 H1339 0.960 . S
C1353 H1340 0.961 . S
C1353 H1341 0.959 . S
C1353 C1351 1.561 . S
C1354 C1351 1.526 . S
C1354 C1355 1.396 . S
C1354 C1359 1.390 . S
C1355 C1349 1.465 . S
C1355 C1354 1.396 . S
C1355 C1356 1.399 . S
C1356 H1342 0.929 . S
C1356 C1355 1.399 . S
C1356 C1357 1.385 . S
C1357 H1343 0.931 . S
C1357 C1356 1.385 . S
C1357 C1358 1.389 . S
C1358 C1357 1.389 . S
C1358 C1359 1.387 . S
C1359 H1344 0.930 . S
C1359 C1354 1.390 . S
C1359 C1358 1.387 . S
C521 C405 1.365 . S
C509 C36 1.295 . S
C548 C425 1.338 . S
C536 C93 1.373 . S
C575 C439 1.357 . S
C563 C126 1.416 . S
C590 C165 1.380 . S
C602 C397 1.440 . S
C617 C222 1.475 . S
C629 C391 1.499 . S
C644 C261 1.405 . S
C656 C411 1.446 . S
C683 C419 1.385 . S
C671 C318 1.379 . S
C710 C433 1.453 . S
C698 C381 1.438 . S
C725 C132 1.390 . S
C737 C461 1.430 . S
C764 C475 1.351 . S
C752 C189 1.350 . S
C779 C30 1.391 . S
C791 C495 1.461 . S
C818 C447 1.497 . S
C806 C69 1.464 . S
C833 C324 1.379 . S
C845 C453 1.445 . S
C860 C357 1.415 . S
C872 C467 1.342 . S
C899 C481 1.402 1_556 S
C887 C228 1.339 . S
C914 C285 1.322 . S
C926 C489 1.366 . S
C953 C420 1.730 . S
C941 C45 1.704 . S
C980 C434 1.740 . S
C968 C84 1.748 . S
C995 C117 1.624 . S
C1007 C392 1.671 . S
C1022 C174 1.491 . S
C1034 C409 1.517 . S
C1049 C213 1.428 . S
C1061 C437 1.433 . S
C1088 C395 1.428 . S
C1076 C270 1.375 . S
C1115 C406 1.624 . S
C1103 C309 1.622 . S
C1142 C423 1.494 . S
C1130 C372 1.497 . S
C1169 C479 1.506 . S
C1157 C141 1.483 . S
C1196 C490 1.628 . S
C1184 C180 1.646 . S
C1211 C21 1.408 . S
C1223 C451 1.427 . S
C1250 C465 1.434 . S
C1238 C78 1.437 . S
C1277 C493 1.515 . S
C1265 C333 1.519 . S
C1292 C366 1.632 . S
C1304 C448 1.687 . S
C1331 C462 1.735 . S
C1319 C237 1.710 . S
C1358 C476 1.745 . S
C1346 C276 1.706 . S
