# Generated by pormake.
# Topology anh, (6,3)-cn, num edge types: 1
# Building blocks:
#     Node 0, Type 0, BuildingBlock: BETDIP_clean_sbu_0, # of connection points: 6
#     Node 1, Type 0, BuildingBlock: BETDIP_clean_sbu_0, # of connection points: 6
#     Node 2, Type 0, BuildingBlock: BETDIP_clean_sbu_0, # of connection points: 6
#     Node 3, Type 1, BuildingBlock: BETDIP_clean_linker_0, # of connection points: 3
#     Node 4, Type 1, BuildingBlock: BETDIP_clean_linker_0, # of connection points: 3
#     Node 5, Type 1, BuildingBlock: BETDIP_clean_linker_0, # of connection points: 3
#     Node 6, Type 1, BuildingBlock: BETDIP_clean_linker_0, # of connection points: 3
#     Node 7, Type 1, BuildingBlock: BETDIP_clean_linker_0, # of connection points: 3
#     Node 8, Type 1, BuildingBlock: BETDIP_clean_linker_0, # of connection points: 3
#     Edge 9, Type (0, 1), BuildingBlock: EZIPEK_clean_linker_0, # of connection points: 2
#     Edge 10, Type (0, 1), BuildingBlock: EZIPEK_clean_linker_0, # of connection points: 2
#     Edge 11, Type (0, 1), BuildingBlock: EZIPEK_clean_linker_0, # of connection points: 2
#     Edge 12, Type (0, 1), BuildingBlock: EZIPEK_clean_linker_0, # of connection points: 2
#     Edge 13, Type (0, 1), BuildingBlock: EZIPEK_clean_linker_0, # of connection points: 2
#     Edge 14, Type (0, 1), BuildingBlock: EZIPEK_clean_linker_0, # of connection points: 2
#     Edge 15, Type (0, 1), BuildingBlock: EZIPEK_clean_linker_0, # of connection points: 2
#     Edge 16, Type (0, 1), BuildingBlock: EZIPEK_clean_linker_0, # of connection points: 2
#     Edge 17, Type (0, 1), BuildingBlock: EZIPEK_clean_linker_0, # of connection points: 2
#     Edge 18, Type (0, 1), BuildingBlock: EZIPEK_clean_linker_0, # of connection points: 2
#     Edge 19, Type (0, 1), BuildingBlock: EZIPEK_clean_linker_0, # of connection points: 2
#     Edge 20, Type (0, 1), BuildingBlock: EZIPEK_clean_linker_0, # of connection points: 2
#     Edge 21, Type (0, 1), BuildingBlock: EZIPEK_clean_linker_0, # of connection points: 2
#     Edge 22, Type (0, 1), BuildingBlock: EZIPEK_clean_linker_0, # of connection points: 2
#     Edge 23, Type (0, 1), BuildingBlock: EZIPEK_clean_linker_0, # of connection points: 2
#     Edge 24, Type (0, 1), BuildingBlock: EZIPEK_clean_linker_0, # of connection points: 2
#     Edge 25, Type (0, 1), BuildingBlock: EZIPEK_clean_linker_0, # of connection points: 2
#     Edge 26, Type (0, 1), BuildingBlock: EZIPEK_clean_linker_0, # of connection points: 2
# Relax obj value: 0.391
# Max RMSD: 0.194
# Mean RMSD: 0.139
data_MOF--net-anh--node1-BETDIP_clean_sbu_0--node2-BETDIP_clean_linker_0--edge1-EZIPEK_clean_linker_0
_symmetry_space_group_name_H-M    P1
_symmetry_Int_Tables_number       1
_symmetry_cell_setting            triclinic
loop_
_symmetry_equiv_pos_as_xyz
'x, y, z'
_cell_length_a     22.424532
_cell_length_b     22.20669
_cell_length_c     36.381202
_cell_angle_alpha  95.576486
_cell_angle_beta   85.505375
_cell_angle_gamma 120.11274
loop_
_atom_site_label
_atom_site_type_symbol
_atom_site_fract_x
_atom_site_fract_y
_atom_site_fract_z
_atom_type_partial_charge
Tb0 Tb 0.24653 0.67659 0.15647 0.0
Tb1 Tb 1.17834 0.52826 0.14612 0.0
C2 C 0.292 0.80174 0.17767 0.0
C3 C 0.35311 0.86872 0.17027 0.0
C4 C 0.38259 0.91798 0.19988 0.0
C5 C 0.43328 0.98582 0.19323 0.0
C6 C 0.4546 1.00522 0.15688 0.0
C7 C 0.4281 0.9553 0.12718 0.0
C8 C 0.37769 0.88692 0.13387 0.0
C9 C 0.2695 0.63632 0.08868 0.0
C10 C 0.34016 0.60378 0.15015 0.0
C11 C 1.09631 0.40165 0.12898 0.0
C12 C 1.02227 0.3702 0.12134 0.0
C13 C 0.97308 0.32758 0.14748 0.0
C14 C 0.9109 0.32801 0.15364 0.0
C15 C 0.8981 0.37116 0.13364 0.0
C16 C 0.93971 0.40033 0.1023 0.0
C17 C 1.00188 0.40015 0.09614 0.0
C18 C 0.20362 0.57994 0.21639 0.0
C19 C 1.08501 0.60107 0.14218 0.0
O20 O 0.3004 0.75877 0.19615 0.0
O21 O 0.25097 0.77059 0.15003 0.0
O22 O 0.21262 0.60757 0.10705 0.0
O23 O 0.31268 0.69075 0.10797 0.0
O24 O 0.33251 0.6563 0.16647 0.0
O25 O 0.28514 0.54807 0.13591 0.0
O26 O 1.14113 0.44449 0.10538 0.0
O27 O 1.11109 0.42758 0.16294 0.0
O28 O 0.18096 0.59848 0.19186 0.0
O29 O 0.21309 0.52971 0.20178 0.0
O30 O 1.08774 0.54241 0.13967 0.0
O31 O 1.142 0.66111 0.14929 0.0
H32 H 0.36426 0.90479 0.22803 0.0
H33 H 0.4537 1.02422 0.21638 0.0
H34 H 0.44433 0.96987 0.09903 0.0
H35 H 0.35585 0.84932 0.11056 0.0
H36 H 0.98688 0.30274 0.16679 0.0
H37 H 0.87832 0.30357 0.17747 0.0
H38 H 0.92846 0.43053 0.0854 0.0
H39 H 1.03756 0.43153 0.07487 0.0
Tb40 Tb 0.67662 1.11395 0.46983 0.0
Tb41 Tb 0.60467 0.18666 0.49261 0.0
C42 C 0.71724 1.02673 0.46821 0.0
C43 C 0.76906 1.01987 0.48655 0.0
C44 C 0.80759 1.06866 0.51492 0.0
C45 C 0.85204 1.0578 0.53459 0.0
C46 C 0.8581 0.99804 0.52607 0.0
C47 C 0.82092 0.9503 0.49708 0.0
C48 C 0.77649 0.96116 0.47743 0.0
C49 C 0.66428 0.17642 0.41469 0.0
C50 C 0.50952 1.02584 0.4678 0.0
C51 C 0.56567 0.27568 0.50362 0.0
C52 C 0.60384 0.35276 0.50275 0.0
C53 C 0.59754 0.3855 0.47319 0.0
C54 C 0.63937 0.45778 0.47059 0.0
C55 C 0.68602 0.49845 0.49834 0.0
C56 C 0.69006 0.46614 0.52857 0.0
C57 C 0.64977 0.39429 0.53073 0.0
C58 C 0.62197 0.12918 0.54846 0.0
C59 C 0.77386 0.27216 0.48394 0.0
O60 O 0.6669 1.02439 0.48994 0.0
O61 O 0.74035 1.07608 0.44522 0.0
O62 O 0.61851 0.14544 0.43945 0.0
O63 O 0.71438 0.16463 0.41796 0.0
O64 O 0.56913 1.02676 0.46222 0.0
O65 O 0.51011 1.08512 0.47884 0.0
O66 O 0.55928 0.23957 0.47215 0.0
O67 O 0.58123 0.25038 0.52984 0.0
O68 O 0.66652 0.16041 0.52306 0.0
O69 O 0.56543 0.12735 0.54145 0.0
O70 O 0.71492 0.27338 0.48445 0.0
O71 O 0.77023 0.21131 0.48589 0.0
H72 H 0.80193 1.11403 0.52239 0.0
H73 H 0.8805 1.095 0.55696 0.0
H74 H 0.82501 0.90386 0.49034 0.0
H75 H 0.74666 0.92291 0.45573 0.0
H76 H 0.56188 0.35488 0.4515 0.0
H77 H 0.6358 0.48174 0.44694 0.0
H78 H 0.72564 0.49669 0.55034 0.0
H79 H 0.6558 0.37138 0.55413 0.0
Tb80 Tb 0.55422 0.54369 0.82178 0.0
Tb81 Tb 0.70367 0.6161 0.82048 0.0
C82 C 0.4261 0.47155 0.83265 0.0
C83 C 0.37046 0.47669 0.81639 0.0
C84 C 0.34472 0.51756 0.83517 0.0
C85 C 0.3139 0.54496 0.81555 0.0
C86 C 0.30878 0.53213 0.77693 0.0
C87 C 0.32222 0.48079 0.75964 0.0
C88 C 0.35317 0.45326 0.77925 0.0
C89 C 0.61167 0.57941 0.75527 0.0
C90 C 0.62872 0.70724 0.8139 0.0
C91 C 0.83111 0.6881 0.81044 0.0
C92 C 0.88552 0.67952 0.82408 0.0
C93 C 0.94362 0.69238 0.80149 0.0
C94 C 0.99399 0.68101 0.81417 0.0
C95 C 0.98585 0.65646 0.84932 0.0
C96 C 0.92736 0.64246 0.87161 0.0
C97 C 0.8774 0.65399 0.85906 0.0
C98 C 0.6479 0.57371 0.88693 0.0
C99 C 0.63237 0.45307 0.81302 0.0
O100 O 0.46628 0.52428 0.85515 0.0
O101 O 0.46168 0.45217 0.80936 0.0
O102 O 0.63065 0.55824 0.78014 0.0
O103 O 0.55334 0.5747 0.76623 0.0
O104 O 0.56867 0.65051 0.82118 0.0
O105 O 0.68583 0.70305 0.81136 0.0
O106 O 0.79141 0.63852 0.7866 0.0
O107 O 0.7962 0.70456 0.83588 0.0
O108 O 0.62736 0.59976 0.86476 0.0
O109 O 0.70209 0.57371 0.87213 0.0
O110 O 0.69013 0.51157 0.80598 0.0
O111 O 0.5761 0.45613 0.82506 0.0
H112 H 0.35528 0.53477 0.86402 0.0
H113 H 0.30253 0.58334 0.82981 0.0
H114 H 0.31576 0.46758 0.73024 0.0
H115 H 0.36983 0.41939 0.76427 0.0
H116 H 0.94994 0.71118 0.77427 0.0
H117 H 1.03967 0.69239 0.797 0.0
H118 H 0.92126 0.62411 0.89893 0.0
H119 H 0.83281 0.64342 0.87691 0.0
H120 H 0.63229 0.35345 0.18681 0.0
H121 H 0.70259 0.39427 0.29802 0.0
H122 H 0.58508 0.18295 0.25146 0.0
H123 H 0.74255 0.53789 0.20097 0.0
C124 C 0.7354 0.48724 0.20589 0.0
C125 C 0.63679 0.33512 0.21237 0.0
C126 C 0.60743 0.26379 0.21562 0.0
C127 C 0.67051 0.38244 0.24215 0.0
C128 C 0.67517 0.35748 0.27528 0.0
C129 C 0.64461 0.285 0.27891 0.0
C130 C 0.60949 0.23879 0.24905 0.0
N131 N 0.69945 0.45509 0.23876 0.0
H132 H 0.94147 0.81838 0.5603 0.0
H133 H 0.88756 0.79159 0.6763 0.0
H134 H 0.7488 0.64497 0.59534 0.0
H135 H 1.07676 0.96635 0.61472 0.0
C136 C 1.02187 0.93193 0.61119 0.0
C137 C 0.90581 0.78931 0.58215 0.0
C138 C 0.84348 0.72853 0.57323 0.0
C139 C 0.92273 0.81101 0.61951 0.0
C140 C 0.87544 0.77395 0.64761 0.0
C141 C 0.81192 0.71528 0.63869 0.0
C142 C 0.79742 0.69168 0.60181 0.0
N143 N 0.9878 0.86872 0.62946 0.0
H144 H 0.26245 0.71575 0.84628 0.0
H145 H 0.41241 0.71558 0.91272 0.0
H146 H 0.19589 0.6096 0.94485 0.0
H147 H 0.36603 0.8127 0.81786 0.0
C148 C 0.38283 0.77435 0.81406 0.0
C149 C 0.27532 0.69641 0.86851 0.0
C150 C 0.22267 0.65669 0.89323 0.0
C151 C 0.3436 0.71449 0.87361 0.0
C152 C 0.35924 0.69704 0.90656 0.0
C153 C 0.30564 0.66054 0.9329 0.0
C154 C 0.23717 0.63645 0.92461 0.0
N155 N 0.39616 0.75212 0.84662 0.0
H156 H 0.19928 0.71643 0.48004 0.0
H157 H 1.11381 0.57314 0.38433 0.0
H158 H 0.30034 0.76877 0.37233 0.0
H159 H 1.01137 0.54105 0.41587 0.0
C160 C 1.02272 0.53693 0.44368 0.0
C161 C 0.20117 0.7035 0.45066 0.0
C162 C 0.25752 0.75202 0.42818 0.0
C163 C 1.14691 0.63861 0.43508 0.0
C164 C 1.15208 0.62268 0.39686 0.0
C165 C 0.20694 0.669 0.37422 0.0
C166 C 0.25852 0.73329 0.38998 0.0
N167 N 1.08975 0.58882 0.45769 0.0
H168 H 0.63188 0.14093 0.81573 0.0
H169 H 0.64321 1.03155 0.71248 0.0
H170 H 0.63874 0.22216 0.71149 0.0
H171 H 0.5977 0.93757 0.74537 0.0
C172 C 0.61763 0.95418 0.77295 0.0
C173 C 0.63467 0.13682 0.78582 0.0
C174 C 0.63558 0.19004 0.766 0.0
C175 C 0.63622 1.07767 0.76705 0.0
C176 C 0.64008 1.07411 0.72786 0.0
C177 C 0.64055 0.12577 0.70781 0.0
C178 C 0.63865 0.18291 0.7271 0.0
N179 N 0.63571 1.0242 0.78765 0.0
H180 H 0.65533 0.60043 0.15539 0.0
H181 H 0.74673 0.58669 0.04754 0.0
H182 H 0.5579 0.59215 0.0558 0.0
H183 H 0.84454 0.62829 0.07636 0.0
C184 C 0.8337 0.60984 0.10393 0.0
C185 C 0.65477 0.59732 0.12553 0.0
C186 C 0.59866 0.59659 0.10825 0.0
C187 C 0.71072 0.59508 0.1041 0.0
C188 C 0.70745 0.59061 0.06505 0.0
C189 C 0.65254 0.58958 0.04783 0.0
C190 C 0.5994 0.59257 0.06949 0.0
N191 N 0.76757 0.59535 0.12174 0.0
C192 C 0.41549 0.54583 0.15142 0.0
C193 C 0.4111 0.6067 0.14646 0.0
C194 C 0.53746 0.66591 0.1295 0.0
C195 C 0.53826 0.60205 0.12844 0.0
N196 N 0.47443 0.47892 0.13619 0.0
N197 N 0.47189 0.7252 0.12725 0.0
C198 C 0.47625 0.54157 0.13905 0.0
C199 C 0.47351 0.66718 0.13511 0.0
N200 N 0.36247 0.49262 0.16958 0.0
N201 N 0.5987 0.72623 0.1252 0.0
H202 H 0.42862 0.73079 0.13141 0.0
H203 H 0.51251 0.76647 0.11393 0.0
H204 H 0.6456 0.7269 0.12087 0.0
H205 H 0.60401 0.7757 0.12963 0.0
H206 H 0.36463 0.44978 0.17721 0.0
H207 H 0.31954 0.4952 0.18086 0.0
H208 H 0.42909 0.43137 0.13882 0.0
H209 H 0.51801 0.47434 0.12893 0.0
C210 C 0.86149 0.40352 0.49951 0.0
C211 C 0.84445 0.3393 0.47829 0.0
C212 C 0.95635 0.40443 0.44267 0.0
C213 C 0.9695 0.46895 0.46117 0.0
N214 N 0.94275 0.52846 0.51228 0.0
N215 N 0.87738 0.28236 0.42699 0.0
C216 C 0.92424 0.46785 0.49115 0.0
C217 C 0.89309 0.34076 0.44966 0.0
N218 N 0.81716 0.40303 0.52765 0.0
N219 N 1.00655 0.40368 0.41903 0.0
H220 H 0.83566 0.23352 0.43144 0.0
H221 H 0.90373 0.28275 0.40207 0.0
H222 H 1.05323 0.44874 0.41369 0.0
H223 H 1.00564 0.3583 0.4078 0.0
H224 H 0.821 0.44739 0.54221 0.0
H225 H 0.77502 0.35717 0.53656 0.0
H226 H 0.91566 0.53335 0.5358 0.0
H227 H 0.98867 0.57435 0.50713 0.0
C228 C 0.59624 0.80439 0.8306 0.0
C229 C 0.63318 0.77745 0.80709 0.0
C230 C 0.67818 0.8832 0.77088 0.0
C231 C 0.63262 0.90292 0.79029 0.0
N232 N 0.55211 0.8862 0.84092 0.0
N233 N 0.71169 0.79608 0.75379 0.0
C234 C 0.59341 0.86498 0.82115 0.0
C235 C 0.67565 0.81895 0.77739 0.0
N236 N 0.56601 0.77359 0.86282 0.0
N237 N 0.72608 0.92785 0.74656 0.0
H238 H 0.71419 0.75145 0.75659 0.0
H239 H 0.73509 0.81814 0.729 0.0
H240 H 0.72942 0.97494 0.74148 0.0
H241 H 0.76706 0.92268 0.73451 0.0
H242 H 0.54193 0.7919 0.88267 0.0
H243 H 0.57018 0.73257 0.87155 0.0
H244 H 0.51875 0.86034 0.86264 0.0
H245 H 0.5504 0.9303 0.83496 0.0
C246 C 0.98247 0.6231 0.16181 0.0
C247 C 1.01729 0.59974 0.13444 0.0
C248 C 0.92119 0.56747 0.09261 0.0
C249 C 0.89027 0.59781 0.11813 0.0
N250 N 0.89713 0.66049 0.17683 0.0
N251 N 1.02423 0.56279 0.07065 0.0
C252 C 0.92219 0.62663 0.15287 0.0
C253 C 0.9875 0.57534 0.09909 0.0
N254 N 1.00629 0.64084 0.19684 0.0
N255 N 0.88579 0.52866 0.06214 0.0
H256 H 1.07264 0.56842 0.07381 0.0
H257 H 1.00948 0.55274 0.04328 0.0
H258 H 0.83663 0.51943 0.05706 0.0
H259 H 0.90156 0.49938 0.04423 0.0
H260 H 0.97975 0.65032 0.21932 0.0
H261 H 1.05034 0.6407 0.20397 0.0
H262 H 0.92179 0.68963 0.20065 0.0
H263 H 0.85345 0.66304 0.17165 0.0
C264 C 0.3882 0.95189 0.43924 0.0
C265 C 0.4415 0.95611 0.46042 0.0
C266 C 0.37253 0.82578 0.46182 0.0
C267 C 0.31736 0.82251 0.44315 0.0
N268 N 0.2687 0.88582 0.42024 0.0
N269 N 0.47538 0.8945 0.49765 0.0
C270 C 0.32419 0.88678 0.43392 0.0
C271 C 0.43087 0.89219 0.47326 0.0
N272 N 0.40016 1.0089 0.42179 0.0
N273 N 0.37096 0.76501 0.46736 0.0
H274 H 0.51847 0.94048 0.50672 0.0
H275 H 0.46622 0.85167 0.51157 0.0
H276 H 0.32924 0.71595 0.46037 0.0
H277 H 0.41304 0.76317 0.4762 0.0
H278 H 0.36704 1.00745 0.40277 0.0
H279 H 0.44654 1.056 0.42318 0.0
H280 H 0.26691 0.93082 0.41658 0.0
H281 H 0.22183 0.83985 0.41596 0.0
C282 C 0.57627 0.32689 0.78353 0.0
C283 C 0.62981 0.38253 0.80485 0.0
C284 C 0.68677 0.31021 0.80311 0.0
C285 C 0.63062 0.25299 0.78419 0.0
N286 N 0.51402 0.20291 0.76487 0.0
N287 N 0.72865 0.4188 0.84163 0.0
C288 C 0.57293 0.26029 0.77728 0.0
C289 C 0.68289 0.3716 0.81656 0.0
N290 N 0.53095 0.33857 0.76671 0.0
N291 N 0.74545 0.30752 0.80697 0.0
H292 H 0.72627 0.46251 0.85299 0.0
H293 H 0.7643 0.41091 0.85401 0.0
H294 H 0.75002 0.26389 0.7981 0.0
H295 H 0.79115 0.35031 0.81638 0.0
H296 H 0.49575 0.30259 0.7477 0.0
H297 H 0.53339 0.38682 0.76831 0.0
H298 H 0.46787 0.20277 0.76279 0.0
H299 H 0.50937 0.15361 0.76042 0.0
C300 C 0.87912 0.96233 0.58494 0.0
C301 C 0.90121 0.9837 0.54859 0.0
C302 C 1.00345 0.97234 0.55311 0.0
C303 C 0.98331 0.95493 0.59031 0.0
N304 N 0.9127 0.95198 0.64452 0.0
N305 N 0.98571 1.01996 0.49976 0.0
C306 C 0.92419 0.95533 0.60712 0.0
C307 C 0.96432 0.9919 0.53322 0.0
N308 N 0.81428 0.9464 0.59782 0.0
N309 N 1.05741 0.96671 0.53645 0.0
H310 H 1.03337 1.03299 0.48676 0.0
H311 H 1.03337 1.03299 0.48676 0.0
H312 H 1.08756 0.95331 0.55038 0.0
H313 H 1.0694 0.97014 0.50824 0.0
H314 H 0.79274 0.92301 0.62258 0.0
H315 H 0.77965 0.9507 0.58222 0.0
H316 H 0.87377 0.95832 0.65865 0.0
H317 H 0.94656 0.95031 0.66194 0.0
C318 C 1.04704 0.59068 0.85577 0.0
C319 C 1.04163 0.6514 0.86441 0.0
C320 C 1.14304 0.70344 0.90201 0.0
C321 C 1.15431 0.64775 0.88884 0.0
N322 N 1.1196 0.53805 0.85408 0.0
N323 N 1.085 0.76767 0.89343 0.0
C324 C 1.10653 0.59065 0.86629 0.0
C325 C 1.08927 0.70811 0.8873 0.0
N326 N 0.99516 0.53344 0.83779 0.0
N327 N 0.18415 0.75189 0.92841 0.0
H328 H 1.04562 0.77301 0.88351 0.0
H329 H 1.12308 0.81381 0.9061 0.0
H330 H 0.22514 0.75076 0.93935 0.0
H331 H 1.17415 0.7896 0.94189 0.0
H332 H 0.99294 0.48535 0.83352 0.0
H333 H 0.95132 0.53253 0.82928 0.0
H334 H 1.09072 0.49835 0.83448 0.0
H335 H 1.16173 0.53568 0.86259 0.0
C336 C 0.46921 1.12241 0.1571 0.0
C337 C 0.49973 1.07984 0.15126 0.0
C338 C 0.61125 0.1787 0.16785 0.0
C339 C 0.5762 0.21344 0.18388 0.0
N340 N 0.47478 0.22537 0.18994 0.0
N341 N 0.60055 1.06775 0.14408 0.0
C342 C 0.50643 0.18859 0.17624 0.0
C343 C 0.57172 1.10886 0.15328 0.0
N344 N 0.40354 1.09722 0.14613 0.0
N345 N 0.68156 0.21191 0.16827 0.0
H346 H 0.5719 1.01692 0.13237 0.0
H347 H 0.65163 1.0831 0.14867 0.0
H348 H 0.71063 0.26325 0.17926 0.0
H349 H 0.71097 0.19124 0.15522 0.0
H350 H 0.37914 0.1268 0.14755 0.0
H351 H 0.37597 1.04796 0.13245 0.0
H352 H 0.42197 0.20626 0.18899 0.0
H353 H 0.50147 0.27476 0.20349 0.0
C354 C 0.80539 0.59846 0.49463 0.0
C355 C 0.73374 0.57464 0.49668 0.0
C356 C 0.75669 0.68733 0.52551 0.0
C357 C 0.8225 0.70035 0.53469 0.0
N358 N 0.91759 0.67998 0.51975 0.0
N359 N 0.64282 0.60334 0.50542 0.0
C360 C 0.85037 0.66091 0.51548 0.0
C361 C 0.71025 0.622 0.50833 0.0
N362 N 0.82875 0.55922 0.4741 0.0
N363 N 0.73491 0.73345 0.537 0.0
H364 H 0.60692 0.55544 0.49305 0.0
H365 H 0.62378 0.63659 0.51493 0.0
H366 H 0.76683 0.78199 0.55047 0.0
H367 H 0.76683 0.78199 0.55047 0.0
H368 H 0.88069 0.57523 0.46892 0.0
H369 H 0.79509 0.51282 0.45943 0.0
H370 H 0.94003 0.65071 0.50891 0.0
H371 H 0.95157 0.72623 0.53414 0.0
C372 C 0.26341 0.6093 0.76521 0.0
C373 C 0.31214 0.58745 0.75562 0.0
C374 C 0.40595 0.70676 0.76171 0.0
C375 C 0.35942 0.7246 0.78093 0.0
N376 N 0.24506 0.70827 0.7797 0.0
N377 N 0.41794 0.62073 0.72035 0.0
C378 C 0.288 0.68118 0.7751 0.0
C379 C 0.37961 0.6384 0.74505 0.0
N380 N 0.19546 0.56043 0.76848 0.0
N381 N 0.47454 0.75421 0.76051 0.0
H382 H 0.39785 0.57055 0.70766 0.0
H383 H 0.46523 0.65774 0.70932 0.0
H384 H 0.49244 0.80598 0.77018 0.0
H385 H 0.51212 0.74189 0.75024 0.0
H386 H 1.15742 0.5721 0.77862 0.0
H387 H 1.17867 0.50769 0.76149 0.0
H388 H 0.1927 0.67933 0.77427 0.0
H389 H 0.2641 0.76145 0.78637 0.0
C390 C 0.79755 0.39294 0.13396 0.0
C391 C 0.85649 0.40221 0.15114 0.0
C392 C 0.83854 0.47165 0.20289 0.0
C393 C 0.7809 0.46396 0.18524 0.0
N394 N 0.71403 0.43132 0.1308 0.0
N395 N 0.94412 0.46736 0.19641 0.0
C396 C 0.76335 0.42935 0.14959 0.0
C397 C 0.88001 0.44615 0.18413 0.0
N398 N 0.77269 0.34717 0.1037 0.0
N399 N 0.85417 0.50402 0.23757 0.0
H400 H 0.97894 0.45436 0.18257 0.0
H401 H 0.96596 0.50432 0.21829 0.0
H402 H 0.83016 0.53053 0.25067 0.0
H403 H 0.88867 0.50171 0.25418 0.0
H404 H 0.72591 0.33261 0.09215 0.0
H405 H 0.79624 0.31924 0.09193 0.0
H406 H 0.7038 0.41337 0.10323 0.0
H407 H 0.68699 0.45607 0.14205 0.0
C408 C 0.28718 0.69918 0.03245 0.0
C409 C 0.27626 0.63799 0.04781 0.0
C410 C 0.30166 0.59625 0.98676 0.0
C411 C 0.3171 0.65989 0.97244 0.0
N412 N 0.34185 0.77873 0.98388 0.0
N413 N 0.28045 0.53118 0.04084 0.0
C414 C 0.31635 0.71383 -0.00373 0.0
C415 C 0.28587 0.58731 0.02534 0.0
N416 N 0.2662 0.74159 0.05184 0.0
N417 N 0.29962 0.54368 0.96308 0.0
H418 H 0.26452 0.52105 0.06829 0.0
H419 H 0.29437 0.49653 0.027 0.0
H420 H 0.31455 0.55069 0.93519 0.0
H421 H 0.2809 0.49305 0.97063 0.0
H422 H 0.26707 0.78354 0.04073 0.0
H423 H 0.24033 0.72995 0.07751 0.0
H424 H 0.34816 0.82176 0.00105 0.0
H425 H 0.36334 0.79113 0.95734 0.0
C426 C 0.66349 0.17181 0.34504 0.0
C427 C 0.65398 0.20097 0.37999 0.0
C428 C 0.62809 0.27713 0.34808 0.0
C429 C 0.64854 0.25638 0.31368 0.0
N430 N 0.70361 0.19542 0.28159 0.0
N431 N 0.65318 0.30107 0.41208 0.0
C432 C 0.67134 0.20679 0.31267 0.0
C433 C 0.64297 0.25878 0.38091 0.0
N434 N 0.66374 1.11019 0.34243 0.0
N435 N 0.59322 0.31315 0.34989 0.0
H436 H 0.66919 0.293 0.43602 0.0
H437 H 0.65507 0.34894 0.41201 0.0
H438 H 0.57729 0.32422 0.32653 0.0
H439 H 0.57365 0.32483 0.37484 0.0
H440 H 0.66489 1.08422 0.31715 0.0
H441 H 0.65486 1.0813 0.36522 0.0
H442 H 0.72614 0.16408 0.28073 0.0
H443 H 0.71497 0.2235 0.2582 0.0
C444 C 0.70037 0.58322 0.70828 0.0
C445 C 0.65162 0.60481 0.7198 0.0
C446 C 0.70175 0.69177 0.67296 0.0
C447 C 0.75794 0.67895 0.66743 0.0
N448 N 0.81328 0.61488 0.68094 0.0
N449 N 0.60089 0.67585 0.70974 0.0
C450 C 0.75803 0.62542 0.68546 0.0
C451 C 0.64968 0.65682 0.70058 0.0
N452 N 0.68902 0.51985 0.71724 0.0
N453 N 0.6982 0.73735 0.65165 0.0
H454 H 0.55844 0.64915 0.72715 0.0
H455 H 0.60335 0.72032 0.70102 0.0
H456 H 0.73774 0.76798 0.63323 0.0
H457 H 0.65464 0.74227 0.65048 0.0
H458 H 0.71996 0.49877 0.70729 0.0
H459 H 0.64338 0.48429 0.73048 0.0
H460 H 0.81939 0.58182 0.69679 0.0
H461 H 0.85565 0.64323 0.66342 0.0
C462 C 0.58224 1.06688 0.6075 0.0
C463 C 0.63545 1.12282 0.58773 0.0
C464 C 0.69943 0.169 0.6457 0.0
C465 C 0.64116 1.12011 0.66608 0.0
N466 N 0.52291 1.02691 0.66636 0.0
N467 N 0.74209 0.23437 0.5911 0.0
C468 C 0.58166 1.06981 0.64692 0.0
C469 C 0.69393 0.17545 0.60747 0.0
N470 N 0.53212 1.01 0.58848 0.0
N471 N 0.7606 0.20921 0.66288 0.0
H472 H 0.7411 0.24378 0.56386 0.0
H473 H 0.78034 0.27758 0.6057 0.0
H474 H 0.76634 0.20583 0.69067 0.0
H475 H 0.8069 0.24042 0.64876 0.0
H476 H 0.49633 0.96445 0.6008 0.0
H477 H 0.53065 1.00571 0.5598 0.0
H478 H 0.4755 0.99511 0.65418 0.0
H479 H 0.51986 1.02729 0.69511 0.0
C480 C 0.60621 0.51716 0.94739 0.0
C481 C 0.64026 0.57924 0.92823 0.0
C482 C 0.67794 0.64841 0.98774 0.0
C483 C 0.64983 0.58597 0.00643 0.0
N484 N 0.59146 0.46051 0.00409 0.0
N485 N 0.71525 0.70405 0.92959 0.0
C486 C 0.61493 0.52018 0.98622 0.0
C487 C 0.67751 0.64498 0.9483 0.0
N488 N 0.56438 0.4553 0.92839 0.0
N489 N 0.70423 0.7112 0.00781 0.0
H490 H 0.71463 0.70452 0.90102 0.0
H491 H 0.7506 0.75203 0.94205 0.0
H492 H 0.7081 0.71615 0.03646 0.0
H493 H 0.71779 0.75789 -0.0035 0.0
H494 H 0.53273 0.40874 0.94085 0.0
H495 H 0.55673 0.45176 0.90017 0.0
H496 H 0.57224 0.41111 0.99066 0.0
H497 H 0.59552 0.46073 0.03248 0.0
C498 C 1.15032 0.61063 0.27423 0.0
C499 C 0.20516 0.60216 0.25705 0.0
C500 C 0.25987 0.63328 0.31763 0.0
C501 C 0.209 0.64938 0.33342 0.0
N502 N 1.11401 0.6673 0.32393 0.0
N503 N 0.31857 0.61686 0.26191 0.0
C504 C 1.15685 0.64238 0.31079 0.0
C505 C 0.26173 0.61656 0.27866 0.0
N506 N 1.08963 0.58398 0.25673 0.0
N507 N 0.30498 0.63136 0.34001 0.0
H508 H 0.32244 0.60533 0.2337 0.0
H509 H 0.36431 0.63455 0.27542 0.0
H510 H 0.30522 0.64294 0.36849 0.0
H511 H 0.33809 0.61246 0.33085 0.0
H512 H 1.04573 0.58275 0.26936 0.0
H513 H 1.08041 0.55529 0.23137 0.0
H514 H 1.07975 0.67014 0.30735 0.0
H515 H 1.11762 0.69167 0.35032 0.0
loop_
_geom_bond_atom_site_label_1
_geom_bond_atom_site_label_2
_geom_bond_distance
_geom_bond_site_symmetry_2
_ccdc_geom_bond_type
Tb0 C2 2.809 . S
Tb0 O20 2.484 . S
Tb0 O21 2.440 . S
Tb0 O22 2.658 . S
Tb0 O23 2.409 . S
Tb0 O24 2.378 . S
Tb0 O28 2.325 . S
Tb0 O31 2.341 1_455 S
Tb1 C11 2.809 . S
Tb1 O22 2.325 1_655 S
Tb1 O25 2.341 1_655 S
Tb1 O26 2.484 . S
Tb1 O27 2.440 . S
Tb1 O28 2.658 1_655 S
Tb1 O29 2.409 1_655 S
Tb1 O30 2.378 . S
C2 Tb0 2.809 . S
C2 C3 1.514 . S
C2 O20 1.248 . S
C2 O21 1.266 . S
C3 C2 1.514 . S
C3 C4 1.359 . S
C3 C8 1.348 . S
C4 C3 1.359 . S
C4 C5 1.380 . S
C4 H32 0.929 . S
C5 C4 1.380 . S
C5 C6 1.347 . S
C5 H33 0.931 . S
C6 C5 1.347 . S
C6 C7 1.369 . S
C7 C6 1.369 . S
C7 C8 1.408 . S
C7 H34 0.930 . S
C8 C3 1.348 . S
C8 C7 1.408 . S
C8 H35 0.930 . S
C9 O22 1.281 . S
C9 O23 1.254 . S
C10 O24 1.236 . S
C10 O25 1.266 . S
C11 Tb1 2.809 . S
C11 C12 1.514 . S
C11 O26 1.248 . S
C11 O27 1.266 . S
C12 C11 1.514 . S
C12 C13 1.359 . S
C12 C17 1.348 . S
C13 C12 1.359 . S
C13 C14 1.380 . S
C13 H36 0.929 . S
C14 C13 1.380 . S
C14 C15 1.347 . S
C14 H37 0.931 . S
C15 C14 1.347 . S
C15 C16 1.369 . S
C16 C15 1.369 . S
C16 C17 1.408 . S
C16 H38 0.930 . S
C17 C12 1.348 . S
C17 C16 1.408 . S
C17 H39 0.930 . S
C18 O28 1.281 . S
C18 O29 1.254 . S
C19 O30 1.236 . S
C19 O31 1.266 . S
O20 Tb0 2.484 . S
O20 C2 1.248 . S
O21 Tb0 2.440 . S
O21 C2 1.266 . S
O22 Tb0 2.658 . S
O22 Tb1 2.325 1_455 S
O22 C9 1.281 . S
O23 Tb0 2.409 . S
O23 C9 1.254 . S
O24 Tb0 2.378 . S
O24 C10 1.236 . S
O25 Tb1 2.341 1_455 S
O25 C10 1.266 . S
O26 Tb1 2.484 . S
O26 C11 1.248 . S
O27 Tb1 2.440 . S
O27 C11 1.266 . S
O28 Tb0 2.325 . S
O28 Tb1 2.658 1_455 S
O28 C18 1.281 . S
O29 Tb1 2.409 1_455 S
O29 C18 1.254 . S
O30 Tb1 2.378 . S
O30 C19 1.236 . S
O31 Tb0 2.341 1_655 S
O31 C19 1.266 . S
H32 C4 0.929 . S
H33 C5 0.931 . S
H34 C7 0.930 . S
H35 C8 0.930 . S
H36 C13 0.929 . S
H37 C14 0.931 . S
H38 C16 0.930 . S
H39 C17 0.930 . S
Tb40 C42 2.790 1_545 S
Tb40 O60 2.469 1_545 S
Tb40 O61 2.423 1_545 S
Tb40 O62 2.674 . S
Tb40 O63 2.413 . S
Tb40 O64 2.376 1_545 S
Tb40 O68 2.334 . S
Tb40 O71 2.356 . S
Tb41 C51 2.809 . S
Tb41 O62 2.325 . S
Tb41 O65 2.341 1_545 S
Tb41 O66 2.484 . S
Tb41 O67 2.440 . S
Tb41 O68 2.658 . S
Tb41 O69 2.409 . S
Tb41 O70 2.378 . S
C42 Tb40 2.790 1_565 S
C42 C43 1.514 . S
C42 O60 1.248 . S
C42 O61 1.266 . S
C43 C42 1.514 . S
C43 C44 1.359 . S
C43 C48 1.348 . S
C44 C43 1.359 . S
C44 C45 1.380 . S
C44 H72 0.929 . S
C45 C44 1.380 . S
C45 C46 1.347 . S
C45 H73 0.931 . S
C46 C45 1.347 . S
C46 C47 1.369 . S
C47 C46 1.369 . S
C47 C48 1.408 . S
C47 H74 0.930 . S
C48 C43 1.348 . S
C48 C47 1.408 . S
C48 H75 0.930 . S
C49 O62 1.281 . S
C49 O63 1.254 . S
C50 O64 1.236 . S
C50 O65 1.266 . S
C51 Tb41 2.809 . S
C51 C52 1.514 . S
C51 O66 1.248 . S
C51 O67 1.266 . S
C52 C51 1.514 . S
C52 C53 1.359 . S
C52 C57 1.348 . S
C53 C52 1.359 . S
C53 C54 1.380 . S
C53 H76 0.929 . S
C54 C53 1.380 . S
C54 C55 1.347 . S
C54 H77 0.931 . S
C55 C54 1.347 . S
C55 C56 1.369 . S
C56 C55 1.369 . S
C56 C57 1.408 . S
C56 H78 0.930 . S
C57 C52 1.348 . S
C57 C56 1.408 . S
C57 H79 0.930 . S
C58 O68 1.281 . S
C58 O69 1.254 . S
C59 O70 1.236 . S
C59 O71 1.266 . S
O60 Tb40 2.469 1_565 S
O60 C42 1.248 . S
O61 Tb40 2.423 1_565 S
O61 C42 1.266 . S
O62 Tb40 2.674 . S
O62 Tb41 2.325 . S
O62 C49 1.281 . S
O63 Tb40 2.413 . S
O63 C49 1.254 . S
O64 Tb40 2.376 1_565 S
O64 C50 1.236 . S
O65 Tb41 2.341 1_565 S
O65 C50 1.266 . S
O66 Tb41 2.484 . S
O66 C51 1.248 . S
O67 Tb41 2.440 . S
O67 C51 1.266 . S
O68 Tb40 2.334 . S
O68 Tb41 2.658 . S
O68 C58 1.281 . S
O69 Tb41 2.409 . S
O69 C58 1.254 . S
O70 Tb41 2.378 . S
O70 C59 1.236 . S
O71 Tb40 2.356 . S
O71 C59 1.266 . S
H72 C44 0.929 . S
H73 C45 0.931 . S
H74 C47 0.930 . S
H75 C48 0.930 . S
H76 C53 0.929 . S
H77 C54 0.931 . S
H78 C56 0.930 . S
H79 C57 0.930 . S
Tb80 C82 2.809 . S
Tb80 O100 2.484 . S
Tb80 O101 2.440 . S
Tb80 O102 2.658 . S
Tb80 O103 2.409 . S
Tb80 O104 2.378 . S
Tb80 O108 2.325 . S
Tb80 O111 2.341 . S
Tb81 C91 2.809 . S
Tb81 O102 2.325 . S
Tb81 O105 2.341 . S
Tb81 O106 2.484 . S
Tb81 O107 2.440 . S
Tb81 O108 2.658 . S
Tb81 O109 2.409 . S
Tb81 O110 2.378 . S
C82 Tb80 2.809 . S
C82 C83 1.514 . S
C82 O100 1.248 . S
C82 O101 1.266 . S
C83 C82 1.514 . S
C83 C84 1.359 . S
C83 C88 1.348 . S
C84 C83 1.359 . S
C84 C85 1.380 . S
C84 H112 0.929 . S
C85 C84 1.380 . S
C85 C86 1.347 . S
C85 H113 0.931 . S
C86 C85 1.347 . S
C86 C87 1.369 . S
C87 C86 1.369 . S
C87 C88 1.408 . S
C87 H114 0.930 . S
C88 C83 1.348 . S
C88 C87 1.408 . S
C88 H115 0.930 . S
C89 O102 1.281 . S
C89 O103 1.254 . S
C90 O104 1.236 . S
C90 O105 1.266 . S
C91 Tb81 2.809 . S
C91 C92 1.514 . S
C91 O106 1.248 . S
C91 O107 1.266 . S
C92 C91 1.514 . S
C92 C93 1.359 . S
C92 C97 1.348 . S
C93 C92 1.359 . S
C93 C94 1.380 . S
C93 H116 0.929 . S
C94 C93 1.380 . S
C94 C95 1.347 . S
C94 H117 0.931 . S
C95 C94 1.347 . S
C95 C96 1.369 . S
C96 C95 1.369 . S
C96 C97 1.408 . S
C96 H118 0.930 . S
C97 C92 1.348 . S
C97 C96 1.408 . S
C97 H119 0.930 . S
C98 O108 1.281 . S
C98 O109 1.254 . S
C99 O110 1.236 . S
C99 O111 1.266 . S
O100 Tb80 2.484 . S
O100 C82 1.248 . S
O101 Tb80 2.440 . S
O101 C82 1.266 . S
O102 Tb80 2.658 . S
O102 Tb81 2.325 . S
O102 C89 1.281 . S
O103 Tb80 2.409 . S
O103 C89 1.254 . S
O104 Tb80 2.378 . S
O104 C90 1.236 . S
O105 Tb81 2.341 . S
O105 C90 1.266 . S
O106 Tb81 2.484 . S
O106 C91 1.248 . S
O107 Tb81 2.440 . S
O107 C91 1.266 . S
O108 Tb80 2.325 . S
O108 Tb81 2.658 . S
O108 C98 1.281 . S
O109 Tb81 2.409 . S
O109 C98 1.254 . S
O110 Tb81 2.378 . S
O110 C99 1.236 . S
O111 Tb80 2.341 . S
O111 C99 1.266 . S
H112 C84 0.929 . S
H113 C85 0.931 . S
H114 C87 0.930 . S
H115 C88 0.930 . S
H116 C93 0.929 . S
H117 C94 0.931 . S
H118 C96 0.930 . S
H119 C97 0.930 . S
H120 C125 0.930 . S
H121 C128 0.930 . S
H122 C130 0.930 1_565 S
H123 C124 1.016 . S
C124 H123 1.016 . S
C124 N131 1.286 . S
C125 H120 0.930 . S
C125 C126 1.397 1_545 S
C125 C127 1.361 . S
C126 C125 1.397 1_565 S
C126 C130 1.390 1_565 S
C127 C125 1.361 . S
C127 C128 1.393 . S
C127 N131 1.413 . S
C128 H121 0.930 . S
C128 C127 1.393 . S
C128 C129 1.399 . S
C129 C128 1.399 . S
C129 C130 1.381 . S
C130 H122 0.930 1_545 S
C130 C126 1.390 1_545 S
C130 C129 1.381 . S
N131 C124 1.286 . S
N131 C127 1.413 . S
H132 C137 0.930 . S
H133 C140 0.930 . S
H134 C142 0.930 . S
H135 C136 1.016 . S
C136 H135 1.016 . S
C136 N143 1.286 . S
C137 H132 0.930 . S
C137 C138 1.397 . S
C137 C139 1.361 . S
C138 C137 1.397 . S
C138 C142 1.390 . S
C139 C137 1.361 . S
C139 C140 1.393 . S
C139 N143 1.413 . S
C140 H133 0.930 . S
C140 C139 1.393 . S
C140 C141 1.399 . S
C141 C140 1.399 . S
C141 C142 1.381 . S
C142 H134 0.930 . S
C142 C138 1.390 . S
C142 C141 1.381 . S
N143 C136 1.286 . S
N143 C139 1.413 . S
H144 C149 0.930 . S
H145 C152 0.930 . S
H146 C154 0.930 . S
H147 C148 1.016 . S
C148 H147 1.016 . S
C148 N155 1.286 . S
C149 H144 0.930 . S
C149 C150 1.397 . S
C149 C151 1.361 1_655 S
C150 C149 1.397 . S
C150 C154 1.390 . S
C151 C149 1.361 1_455 S
C151 C152 1.393 . S
C151 N155 1.413 . S
C152 H145 0.930 . S
C152 C151 1.393 . S
C152 C153 1.399 1_455 S
C153 C152 1.399 1_655 S
C153 C154 1.381 . S
C154 H146 0.930 . S
C154 C150 1.390 . S
C154 C153 1.381 . S
N155 C148 1.286 . S
N155 C151 1.413 . S
H156 C161 0.930 . S
H157 C164 0.933 . S
H158 C166 0.930 . S
H159 C160 1.016 . S
C160 H159 1.016 . S
C160 N167 1.286 . S
C161 H156 0.930 . S
C161 C162 1.397 . S
C161 C163 1.361 . S
C162 C161 1.397 . S
C162 C166 1.390 . S
C163 C161 1.361 . S
C163 C164 1.392 1_455 S
C163 N167 1.413 1_455 S
C164 H157 0.933 . S
C164 C163 1.392 1_655 S
C164 C165 1.397 1_655 S
C165 C164 1.397 1_455 S
C165 C166 1.381 . S
C166 H158 0.930 . S
C166 C162 1.390 . S
C166 C165 1.381 . S
N167 C160 1.286 . S
N167 C163 1.413 1_655 S
H168 C173 0.930 . S
H169 C176 0.930 . S
H170 C178 0.930 . S
H171 C172 1.016 . S
C172 H171 1.016 . S
C172 N179 1.286 . S
C173 H168 0.930 . S
C173 C174 1.397 . S
C173 C175 1.369 . S
C174 C173 1.397 . S
C174 C178 1.390 . S
C175 C173 1.369 . S
C175 C176 1.393 1_545 S
C175 N179 1.406 1_545 S
C176 H169 0.930 . S
C176 C175 1.393 1_565 S
C176 C177 1.399 1_565 S
C177 C176 1.399 1_545 S
C177 C178 1.381 . S
C178 H170 0.930 . S
C178 C174 1.390 . S
C178 C177 1.381 . S
N179 C172 1.286 . S
N179 C175 1.406 1_565 S
H180 C185 0.930 . S
H181 C188 0.930 . S
H182 C190 0.930 . S
H183 C184 1.016 . S
C184 H183 1.016 . S
C184 N191 1.286 . S
C185 H180 0.930 . S
C185 C186 1.397 . S
C185 C187 1.361 . S
C186 C185 1.397 . S
C186 C190 1.390 . S
C187 C185 1.361 . S
C187 C188 1.393 . S
C187 N191 1.413 . S
C188 H181 0.930 . S
C188 C187 1.393 . S
C188 C189 1.399 . S
C189 C188 1.399 . S
C189 C190 1.381 . S
C190 H182 0.930 . S
C190 C186 1.390 . S
C190 C189 1.381 . S
N191 C184 1.286 . S
N191 C187 1.413 . S
C192 C193 1.363 . S
C192 C198 1.379 . S
C192 N200 1.356 . S
C193 C192 1.363 . S
C193 C199 1.363 . S
C194 C195 1.363 . S
C194 C199 1.379 . S
C194 N201 1.356 . S
C195 C194 1.363 . S
C195 C198 1.363 . S
N196 C198 1.356 . S
N196 H208 0.984 . S
N196 H209 0.985 . S
N197 C199 1.356 . S
N197 H202 0.984 . S
N197 H203 0.985 . S
C198 C192 1.379 . S
C198 C195 1.363 . S
C198 N196 1.356 . S
C199 C193 1.363 . S
C199 C194 1.379 . S
C199 N197 1.356 . S
N200 C192 1.356 . S
N200 H206 0.984 . S
N200 H207 0.984 . S
N201 C194 1.356 . S
N201 H204 0.984 . S
N201 H205 0.985 . S
H202 N197 0.984 . S
H203 N197 0.985 . S
H204 N201 0.984 . S
H205 N201 0.985 . S
H206 N200 0.984 . S
H207 N200 0.984 . S
H208 N196 0.984 . S
H209 N196 0.985 . S
C210 C211 1.363 . S
C210 C216 1.379 . S
C210 N218 1.356 . S
C211 C210 1.363 . S
C211 C217 1.363 . S
C212 C213 1.363 . S
C212 C217 1.379 . S
C212 N219 1.356 . S
C213 C212 1.363 . S
C213 C216 1.363 . S
N214 C216 1.356 . S
N214 H226 0.984 . S
N214 H227 0.985 . S
N215 C217 1.356 . S
N215 H220 0.984 . S
N215 H221 0.985 . S
C216 C210 1.379 . S
C216 C213 1.363 . S
C216 N214 1.356 . S
C217 C211 1.363 . S
C217 C212 1.379 . S
C217 N215 1.356 . S
N218 C210 1.356 . S
N218 H224 0.984 . S
N218 H225 0.984 . S
N219 C212 1.356 . S
N219 H222 0.984 . S
N219 H223 0.985 . S
H220 N215 0.984 . S
H221 N215 0.985 . S
H222 N219 0.984 . S
H223 N219 0.985 . S
H224 N218 0.984 . S
H225 N218 0.984 . S
H226 N214 0.984 . S
H227 N214 0.985 . S
C228 C229 1.363 . S
C228 C234 1.379 . S
C228 N236 1.356 . S
C229 C228 1.363 . S
C229 C235 1.363 . S
C230 C231 1.363 . S
C230 C235 1.379 . S
C230 N237 1.356 . S
C231 C230 1.363 . S
C231 C234 1.363 . S
N232 C234 1.356 . S
N232 H244 0.984 . S
N232 H245 0.985 . S
N233 C235 1.356 . S
N233 H238 0.984 . S
N233 H239 0.985 . S
C234 C228 1.379 . S
C234 C231 1.363 . S
C234 N232 1.356 . S
C235 C229 1.363 . S
C235 C230 1.379 . S
C235 N233 1.356 . S
N236 C228 1.356 . S
N236 H242 0.984 . S
N236 H243 0.984 . S
N237 C230 1.356 . S
N237 H240 0.984 . S
N237 H241 0.985 . S
H238 N233 0.984 . S
H239 N233 0.985 . S
H240 N237 0.984 . S
H241 N237 0.985 . S
H242 N236 0.984 . S
H243 N236 0.984 . S
H244 N232 0.984 . S
H245 N232 0.985 . S
C246 C247 1.363 . S
C246 C252 1.379 . S
C246 N254 1.356 . S
C247 C246 1.363 . S
C247 C253 1.363 . S
C248 C249 1.363 . S
C248 C253 1.379 . S
C248 N255 1.356 . S
C249 C248 1.363 . S
C249 C252 1.363 . S
N250 C252 1.356 . S
N250 H262 0.984 . S
N250 H263 0.985 . S
N251 C253 1.356 . S
N251 H256 0.984 . S
N251 H257 0.985 . S
C252 C246 1.379 . S
C252 C249 1.363 . S
C252 N250 1.356 . S
C253 C247 1.363 . S
C253 C248 1.379 . S
C253 N251 1.356 . S
N254 C246 1.356 . S
N254 H260 0.984 . S
N254 H261 0.984 . S
N255 C248 1.356 . S
N255 H258 0.984 . S
N255 H259 0.985 . S
H256 N251 0.984 . S
H257 N251 0.985 . S
H258 N255 0.984 . S
H259 N255 0.985 . S
H260 N254 0.984 . S
H261 N254 0.984 . S
H262 N250 0.984 . S
H263 N250 0.985 . S
C264 C265 1.363 . S
C264 C270 1.379 . S
C264 N272 1.356 . S
C265 C264 1.363 . S
C265 C271 1.363 . S
C266 C267 1.363 . S
C266 C271 1.379 . S
C266 N273 1.356 . S
C267 C266 1.363 . S
C267 C270 1.363 . S
N268 C270 1.356 . S
N268 H280 0.984 . S
N268 H281 0.985 . S
N269 C271 1.356 . S
N269 H274 0.984 . S
N269 H275 0.985 . S
C270 C264 1.379 . S
C270 C267 1.363 . S
C270 N268 1.356 . S
C271 C265 1.363 . S
C271 C266 1.379 . S
C271 N269 1.356 . S
N272 C264 1.356 . S
N272 H278 0.984 . S
N272 H279 0.984 . S
N273 C266 1.356 . S
N273 H276 0.984 . S
N273 H277 0.985 . S
H274 N269 0.984 . S
H275 N269 0.985 . S
H276 N273 0.984 . S
H277 N273 0.985 . S
H278 N272 0.984 . S
H279 N272 0.984 . S
H280 N268 0.984 . S
H281 N268 0.985 . S
C282 C283 1.363 . S
C282 C288 1.379 . S
C282 N290 1.356 . S
C283 C282 1.363 . S
C283 C289 1.363 . S
C284 C285 1.363 . S
C284 C289 1.379 . S
C284 N291 1.356 . S
C285 C284 1.363 . S
C285 C288 1.363 . S
N286 C288 1.356 . S
N286 H298 0.984 . S
N286 H299 0.985 . S
N287 C289 1.356 . S
N287 H292 0.984 . S
N287 H293 0.985 . S
C288 C282 1.379 . S
C288 C285 1.363 . S
C288 N286 1.356 . S
C289 C283 1.363 . S
C289 C284 1.379 . S
C289 N287 1.356 . S
N290 C282 1.356 . S
N290 H296 0.984 . S
N290 H297 0.984 . S
N291 C284 1.356 . S
N291 H294 0.984 . S
N291 H295 0.985 . S
H292 N287 0.984 . S
H293 N287 0.985 . S
H294 N291 0.984 . S
H295 N291 0.985 . S
H296 N290 0.984 . S
H297 N290 0.984 . S
H298 N286 0.984 . S
H299 N286 0.985 . S
C300 C301 1.363 . S
C300 C306 1.379 . S
C300 N308 1.356 . S
C301 C300 1.363 . S
C301 C307 1.363 . S
C302 C303 1.363 . S
C302 C307 1.379 . S
C302 N309 1.356 . S
C303 C302 1.363 . S
C303 C306 1.363 . S
N304 C306 1.356 . S
N304 H316 0.984 . S
N304 H317 0.985 . S
N305 C307 1.356 . S
N305 H310 0.984 . S
N305 H311 0.985 . S
C306 C300 1.379 . S
C306 C303 1.363 . S
C306 N304 1.356 . S
C307 C301 1.363 . S
C307 C302 1.379 . S
C307 N305 1.356 . S
N308 C300 1.356 . S
N308 H314 0.984 . S
N308 H315 0.984 . S
N309 C302 1.356 . S
N309 H312 0.984 . S
N309 H313 0.985 . S
H310 N305 0.984 . S
H311 N305 0.985 . S
H312 N309 0.984 . S
H313 N309 0.985 . S
H314 N308 0.984 . S
H315 N308 0.984 . S
H316 N304 0.984 . S
H317 N304 0.985 . S
C318 C319 1.363 . S
C318 C324 1.379 . S
C318 N326 1.356 . S
C319 C318 1.363 . S
C319 C325 1.363 . S
C320 C321 1.363 . S
C320 C325 1.379 . S
C320 N327 1.356 . S
C321 C320 1.363 . S
C321 C324 1.363 . S
N322 C324 1.356 . S
N322 H334 0.984 . S
N322 H335 0.985 . S
N323 C325 1.356 . S
N323 H328 0.984 . S
N323 H329 0.985 . S
C324 C318 1.379 . S
C324 C321 1.363 . S
C324 N322 1.356 . S
C325 C319 1.363 . S
C325 C320 1.379 . S
C325 N323 1.356 . S
N326 C318 1.356 . S
N326 H332 0.984 . S
N326 H333 0.984 . S
N327 C320 1.356 . S
N327 H330 0.984 . S
N327 H331 0.985 1_655 S
H328 N323 0.984 . S
H329 N323 0.985 . S
H330 N327 0.984 . S
H331 N327 0.985 1_455 S
H332 N326 0.984 . S
H333 N326 0.984 . S
H334 N322 0.984 . S
H335 N322 0.985 . S
C336 C337 1.363 . S
C336 C342 1.379 . S
C336 N344 1.356 . S
C337 C336 1.363 . S
C337 C343 1.363 . S
C338 C339 1.363 . S
C338 C343 1.379 . S
C338 N345 1.356 1_565 S
C339 C338 1.363 . S
C339 C342 1.363 . S
N340 C342 1.356 . S
N340 H352 0.984 . S
N340 H353 0.985 . S
N341 C343 1.356 . S
N341 H346 0.984 . S
N341 H347 0.985 . S
C342 C336 1.379 . S
C342 C339 1.363 . S
C342 N340 1.356 . S
C343 C337 1.363 . S
C343 C338 1.379 . S
C343 N341 1.356 . S
N344 C336 1.356 . S
N344 H350 0.984 . S
N344 H351 0.984 . S
N345 C338 1.356 1_545 S
N345 H348 0.984 . S
N345 H349 0.985 . S
H346 N341 0.984 . S
H347 N341 0.985 . S
H348 N345 0.984 . S
H349 N345 0.985 . S
H350 N344 0.984 . S
H351 N344 0.984 . S
H352 N340 0.984 . S
H353 N340 0.985 . S
C354 C355 1.363 . S
C354 C360 1.379 . S
C354 N362 1.356 . S
C355 C354 1.363 . S
C355 C361 1.363 . S
C356 C357 1.363 . S
C356 C361 1.379 . S
C356 N363 1.356 . S
C357 C356 1.363 . S
C357 C360 1.363 . S
N358 C360 1.356 . S
N358 H370 0.984 . S
N358 H371 0.985 . S
N359 C361 1.356 . S
N359 H364 0.984 . S
N359 H365 0.985 . S
C360 C354 1.379 . S
C360 C357 1.363 . S
C360 N358 1.356 . S
C361 C355 1.363 . S
C361 C356 1.379 . S
C361 N359 1.356 . S
N362 C354 1.356 . S
N362 H368 0.984 . S
N362 H369 0.984 . S
N363 C356 1.356 . S
N363 H366 0.984 . S
N363 H367 0.985 . S
H364 N359 0.984 . S
H365 N359 0.985 . S
H366 N363 0.984 . S
H367 N363 0.985 . S
H368 N362 0.984 . S
H369 N362 0.984 . S
H370 N358 0.984 . S
H371 N358 0.985 . S
C372 C373 1.363 . S
C372 C378 1.379 . S
C372 N380 1.356 . S
C373 C372 1.363 . S
C373 C379 1.363 . S
C374 C375 1.363 . S
C374 C379 1.379 . S
C374 N381 1.356 . S
C375 C374 1.363 . S
C375 C378 1.363 . S
N376 C378 1.356 . S
N376 H388 0.984 . S
N376 H389 0.985 . S
N377 C379 1.356 . S
N377 H382 0.984 . S
N377 H383 0.985 . S
C378 C372 1.379 . S
C378 C375 1.363 . S
C378 N376 1.356 . S
C379 C373 1.363 . S
C379 C374 1.379 . S
C379 N377 1.356 . S
N380 C372 1.356 . S
N380 H386 0.984 . S
N380 H387 0.984 . S
N381 C374 1.356 . S
N381 H384 0.984 . S
N381 H385 0.985 . S
H382 N377 0.984 . S
H383 N377 0.985 . S
H384 N381 0.984 . S
H385 N381 0.985 . S
H386 N380 0.984 . S
H387 N380 0.984 . S
H388 N376 0.984 . S
H389 N376 0.985 . S
C390 C391 1.363 . S
C390 C396 1.379 . S
C390 N398 1.356 . S
C391 C390 1.363 . S
C391 C397 1.363 . S
C392 C393 1.363 . S
C392 C397 1.379 . S
C392 N399 1.356 . S
C393 C392 1.363 . S
C393 C396 1.363 . S
N394 C396 1.356 . S
N394 H406 0.984 . S
N394 H407 0.985 . S
N395 C397 1.356 . S
N395 H400 0.984 . S
N395 H401 0.985 . S
C396 C390 1.379 . S
C396 C393 1.363 . S
C396 N394 1.356 . S
C397 C391 1.363 . S
C397 C392 1.379 . S
C397 N395 1.356 . S
N398 C390 1.356 . S
N398 H404 0.984 . S
N398 H405 0.984 . S
N399 C392 1.356 . S
N399 H402 0.984 . S
N399 H403 0.985 . S
H400 N395 0.984 . S
H401 N395 0.985 . S
H402 N399 0.984 . S
H403 N399 0.985 . S
H404 N398 0.984 . S
H405 N398 0.984 . S
H406 N394 0.984 . S
H407 N394 0.985 . S
C408 C409 1.363 . S
C408 C414 1.379 1_554 S
C408 N416 1.356 . S
C409 C408 1.363 . S
C409 C415 1.363 . S
C410 C411 1.363 1_554 S
C410 C415 1.379 1_655 S
C410 N417 1.356 1_554 S
C411 C410 1.363 1_556 S
C411 C414 1.363 1_655 S
N412 C414 1.359 . S
N412 H424 0.981 . S
N412 H425 0.985 1_455 S
N413 C415 1.356 . S
N413 H418 0.984 . S
N413 H419 0.985 . S
C414 C408 1.379 1_556 S
C414 C411 1.363 1_455 S
C414 N412 1.359 . S
C415 C409 1.363 . S
C415 C410 1.379 1_455 S
C415 N413 1.356 . S
N416 C408 1.356 . S
N416 H422 0.984 . S
N416 H423 0.984 . S
N417 C410 1.356 1_556 S
N417 H420 0.984 . S
N417 H421 0.985 . S
H418 N413 0.984 . S
H419 N413 0.985 . S
H420 N417 0.984 . S
H421 N417 0.985 . S
H422 N416 0.984 . S
H423 N416 0.984 . S
H424 N412 0.981 . S
H425 N412 0.985 1_655 S
C426 C427 1.363 . S
C426 C432 1.379 . S
C426 N434 1.356 1_545 S
C427 C426 1.363 . S
C427 C433 1.363 . S
C428 C429 1.363 . S
C428 C433 1.379 . S
C428 N435 1.356 . S
C429 C428 1.363 . S
C429 C432 1.363 . S
N430 C432 1.356 1_565 S
N430 H442 0.984 . S
N430 H443 0.985 . S
N431 C433 1.356 . S
N431 H436 0.984 . S
N431 H437 0.985 . S
C432 C426 1.379 . S
C432 C429 1.363 . S
C432 N430 1.356 1_545 S
C433 C427 1.363 . S
C433 C428 1.379 . S
C433 N431 1.356 . S
N434 C426 1.356 1_565 S
N434 H440 0.984 . S
N434 H441 0.984 . S
N435 C428 1.356 . S
N435 H438 0.984 . S
N435 H439 0.985 . S
H436 N431 0.984 . S
H437 N431 0.985 . S
H438 N435 0.984 . S
H439 N435 0.985 . S
H440 N434 0.984 . S
H441 N434 0.984 . S
H442 N430 0.984 . S
H443 N430 0.985 . S
C444 C445 1.363 . S
C444 C450 1.379 . S
C444 N452 1.356 . S
C445 C444 1.363 . S
C445 C451 1.363 . S
C446 C447 1.363 . S
C446 C451 1.379 . S
C446 N453 1.356 . S
C447 C446 1.363 . S
C447 C450 1.363 . S
N448 C450 1.356 . S
N448 H460 0.984 . S
N448 H461 0.985 . S
N449 C451 1.356 . S
N449 H454 0.984 . S
N449 H455 0.985 . S
C450 C444 1.379 . S
C450 C447 1.363 . S
C450 N448 1.356 . S
C451 C445 1.363 . S
C451 C446 1.379 . S
C451 N449 1.356 . S
N452 C444 1.356 . S
N452 H458 0.984 . S
N452 H459 0.984 . S
N453 C446 1.356 . S
N453 H456 0.984 . S
N453 H457 0.985 . S
H454 N449 0.984 . S
H455 N449 0.985 . S
H456 N453 0.984 . S
H457 N453 0.985 . S
H458 N452 0.984 . S
H459 N452 0.984 . S
H460 N448 0.984 . S
H461 N448 0.985 . S
C462 C463 1.363 1_565 S
C462 C468 1.379 . S
C462 N470 1.356 . S
C463 C462 1.363 1_545 S
C463 C469 1.363 . S
C464 C465 1.363 . S
C464 C469 1.379 . S
C464 N471 1.356 . S
C465 C464 1.363 . S
C465 C468 1.363 1_545 S
N466 C468 1.356 . S
N466 H478 0.984 . S
N466 H479 0.985 . S
N467 C469 1.356 . S
N467 H472 0.984 . S
N467 H473 0.985 . S
C468 C462 1.379 . S
C468 C465 1.363 1_565 S
C468 N466 1.356 . S
C469 C463 1.363 . S
C469 C464 1.379 . S
C469 N467 1.356 . S
N470 C462 1.356 . S
N470 H476 0.984 . S
N470 H477 0.984 . S
N471 C464 1.356 . S
N471 H474 0.984 . S
N471 H475 0.985 . S
H472 N467 0.984 . S
H473 N467 0.985 . S
H474 N471 0.984 . S
H475 N471 0.985 . S
H476 N470 0.984 . S
H477 N470 0.984 . S
H478 N466 0.984 . S
H479 N466 0.985 . S
C480 C481 1.363 . S
C480 C486 1.379 . S
C480 N488 1.356 . S
C481 C480 1.363 . S
C481 C487 1.363 . S
C482 C483 1.363 1_556 S
C482 C487 1.379 . S
C482 N489 1.356 1_556 S
C483 C482 1.363 1_554 S
C483 C486 1.363 1_554 S
N484 C486 1.356 1_554 S
N484 H496 0.984 . S
N484 H497 0.985 . S
N485 C487 1.356 . S
N485 H490 0.984 . S
N485 H491 0.985 . S
C486 C480 1.379 . S
C486 C483 1.363 1_556 S
C486 N484 1.356 1_556 S
C487 C481 1.363 . S
C487 C482 1.379 . S
C487 N485 1.356 . S
N488 C480 1.356 . S
N488 H494 0.984 . S
N488 H495 0.984 . S
N489 C482 1.356 1_554 S
N489 H492 0.984 . S
N489 H493 0.985 . S
H490 N485 0.984 . S
H491 N485 0.985 . S
H492 N489 0.984 . S
H493 N489 0.985 . S
H494 N488 0.984 . S
H495 N488 0.984 . S
H496 N484 0.984 . S
H497 N484 0.985 . S
C498 C499 1.363 1_655 S
C498 C504 1.379 . S
C498 N506 1.356 . S
C499 C498 1.363 1_455 S
C499 C505 1.363 . S
C500 C501 1.363 . S
C500 C505 1.379 . S
C500 N507 1.356 . S
C501 C500 1.363 . S
C501 C504 1.363 1_455 S
N502 C504 1.356 . S
N502 H514 0.984 . S
N502 H515 0.985 . S
N503 C505 1.356 . S
N503 H508 0.984 . S
N503 H509 0.985 . S
C504 C498 1.379 . S
C504 C501 1.363 1_655 S
C504 N502 1.356 . S
C505 C499 1.363 . S
C505 C500 1.379 . S
C505 N503 1.356 . S
N506 C498 1.356 . S
N506 H512 0.984 . S
N506 H513 0.984 . S
N507 C500 1.356 . S
N507 H510 0.984 . S
N507 H511 0.985 . S
H508 N503 0.984 . S
H509 N503 0.985 . S
H510 N507 0.984 . S
H511 N507 0.985 . S
H512 N506 0.984 . S
H513 N506 0.984 . S
H514 N502 0.984 . S
H515 N502 0.985 . S
C193 C10 3.248 . S
C195 C186 3.261 . S
C211 C59 3.165 . S
C213 C160 3.073 . S
C229 C90 3.098 . S
C231 C172 3.020 . S
C247 C19 2.950 . S
C249 C184 2.824 . S
C267 C162 2.974 . S
C265 C50 3.006 . S
C285 C174 3.014 . S
C283 C99 3.053 . S
C301 C46 0.851 . S
C303 C136 0.884 . S
C319 C95 0.818 . S
C321 C150 0.854 . S
C337 C6 0.551 . S
C339 C126 0.469 . S
C357 C138 0.619 . S
C355 C55 0.674 . S
C375 C148 0.449 . S
C373 C86 0.548 . S
C391 C15 0.737 . S
C393 C124 0.726 . S
C411 C153 1.142 . S
C409 C9 1.128 . S
C427 C49 1.070 . S
C429 C129 1.111 . S
C445 C89 1.169 . S
C447 C141 1.166 . S
C465 C177 1.773 . S
C463 C58 1.727 . S
C483 C189 1.859 . S
C481 C98 1.782 . S
C499 C18 1.705 . S
C501 C165 1.820 . S
