# Generated by pormake.
# Topology the, (3,8)-cn, num edge types: 1
# Building blocks:
#     Node 0, Type 0, BuildingBlock: PAMTOO_clean_linker_0, # of connection points: 3
#     Node 1, Type 0, BuildingBlock: PAMTOO_clean_linker_0, # of connection points: 3
#     Node 2, Type 0, BuildingBlock: PAMTOO_clean_linker_0, # of connection points: 3
#     Node 3, Type 0, BuildingBlock: PAMTOO_clean_linker_0, # of connection points: 3
#     Node 4, Type 0, BuildingBlock: PAMTOO_clean_linker_0, # of connection points: 3
#     Node 5, Type 0, BuildingBlock: PAMTOO_clean_linker_0, # of connection points: 3
#     Node 6, Type 0, BuildingBlock: PAMTOO_clean_linker_0, # of connection points: 3
#     Node 7, Type 0, BuildingBlock: PAMTOO_clean_linker_0, # of connection points: 3
#     Node 8, Type 1, BuildingBlock: GIZVER_clean_sbu_0, # of connection points: 8
#     Node 9, Type 1, BuildingBlock: GIZVER_clean_sbu_0, # of connection points: 8
#     Node 10, Type 1, BuildingBlock: GIZVER_clean_sbu_0, # of connection points: 8
#     Edge 11, Type (0, 1), BuildingBlock: CIFDUS_clean_linker_0, # of connection points: 2
#     Edge 12, Type (0, 1), BuildingBlock: CIFDUS_clean_linker_0, # of connection points: 2
#     Edge 13, Type (0, 1), BuildingBlock: CIFDUS_clean_linker_0, # of connection points: 2
#     Edge 14, Type (0, 1), BuildingBlock: CIFDUS_clean_linker_0, # of connection points: 2
#     Edge 15, Type (0, 1), BuildingBlock: CIFDUS_clean_linker_0, # of connection points: 2
#     Edge 16, Type (0, 1), BuildingBlock: CIFDUS_clean_linker_0, # of connection points: 2
#     Edge 17, Type (0, 1), BuildingBlock: CIFDUS_clean_linker_0, # of connection points: 2
#     Edge 18, Type (0, 1), BuildingBlock: CIFDUS_clean_linker_0, # of connection points: 2
#     Edge 19, Type (0, 1), BuildingBlock: CIFDUS_clean_linker_0, # of connection points: 2
#     Edge 20, Type (0, 1), BuildingBlock: CIFDUS_clean_linker_0, # of connection points: 2
#     Edge 21, Type (0, 1), BuildingBlock: CIFDUS_clean_linker_0, # of connection points: 2
#     Edge 22, Type (0, 1), BuildingBlock: CIFDUS_clean_linker_0, # of connection points: 2
#     Edge 23, Type (0, 1), BuildingBlock: CIFDUS_clean_linker_0, # of connection points: 2
#     Edge 24, Type (0, 1), BuildingBlock: CIFDUS_clean_linker_0, # of connection points: 2
#     Edge 25, Type (0, 1), BuildingBlock: CIFDUS_clean_linker_0, # of connection points: 2
#     Edge 26, Type (0, 1), BuildingBlock: CIFDUS_clean_linker_0, # of connection points: 2
#     Edge 27, Type (0, 1), BuildingBlock: CIFDUS_clean_linker_0, # of connection points: 2
#     Edge 28, Type (0, 1), BuildingBlock: CIFDUS_clean_linker_0, # of connection points: 2
#     Edge 29, Type (0, 1), BuildingBlock: CIFDUS_clean_linker_0, # of connection points: 2
#     Edge 30, Type (0, 1), BuildingBlock: CIFDUS_clean_linker_0, # of connection points: 2
#     Edge 31, Type (0, 1), BuildingBlock: CIFDUS_clean_linker_0, # of connection points: 2
#     Edge 32, Type (0, 1), BuildingBlock: CIFDUS_clean_linker_0, # of connection points: 2
#     Edge 33, Type (0, 1), BuildingBlock: CIFDUS_clean_linker_0, # of connection points: 2
#     Edge 34, Type (0, 1), BuildingBlock: CIFDUS_clean_linker_0, # of connection points: 2
# Relax obj value: 0.076
# Max RMSD: 0.234
# Mean RMSD: 0.142
data_MOF--net-the--node1-GIZVER_clean_sbu_0--node2-PAMTOO_clean_linker_0--edge1-CIFDUS_clean_linker_0
_symmetry_space_group_name_H-M    P1
_symmetry_Int_Tables_number       1
_symmetry_cell_setting            triclinic
loop_
_symmetry_equiv_pos_as_xyz
'x, y, z'
_cell_length_a     36.213836
_cell_length_b     34.023831
_cell_length_c     31.464548
_cell_angle_alpha  87.942693
_cell_angle_beta   95.080578
_cell_angle_gamma 109.36366
loop_
_atom_site_label
_atom_site_type_symbol
_atom_site_fract_x
_atom_site_fract_y
_atom_site_fract_z
_atom_type_partial_charge
H0 H 0.25548 0.4156 0.37067 0.0
H1 H 0.26421 0.3584 0.49379 0.0
H2 H 0.33831 0.34976 0.39799 0.0
H3 H 0.27418 0.27553 0.46608 0.0
C4 C 0.29996 0.28996 0.48922 0.0
O5 O 0.32005 0.3303 0.4769 0.0
H6 H 0.28861 0.29071 0.52074 0.0
C7 C 0.26926 0.3984 0.39271 0.0
C8 C 0.299 0.38463 0.37954 0.0
C9 C 0.25587 0.38798 0.43354 0.0
C10 C 0.27398 0.36604 0.462 0.0
C11 C 0.30353 0.35222 0.44921 0.0
C12 C 0.31554 0.3608 0.40778 0.0
H13 H 0.70373 0.31144 0.42288 0.0
H14 H 0.63757 0.3156 0.30266 0.0
H15 H 0.74822 0.41039 0.33251 0.0
H16 H 0.70274 0.44811 0.26974 0.0
C17 C 0.67651 0.42105 0.27639 0.0
O18 O 0.68683 0.3853 0.27691 0.0
H19 H 0.668 0.42677 0.30821 0.0
C20 C 0.70088 0.32565 0.39194 0.0
C21 C 0.73042 0.36261 0.38095 0.0
C22 C 0.66722 0.30781 0.36386 0.0
C23 C 0.66318 0.32822 0.3248 0.0
C24 C 0.69222 0.36502 0.31362 0.0
C25 C 0.72623 0.38149 0.34114 0.0
H26 H 0.62024 0.79122 0.30638 0.0
H27 H 0.68229 0.70223 0.31239 0.0
H28 H 0.70659 0.79374 0.41029 0.0
H29 H 0.77776 0.77553 0.3862 0.0
C30 C 0.76312 0.74272 0.37574 0.0
O31 O 0.72397 0.73062 0.38341 0.0
H32 H 0.76603 0.74093 0.34101 0.0
C33 C 0.64253 0.77932 0.32143 0.0
C34 C 0.66313 0.79714 0.35987 0.0
C35 C 0.64886 0.74469 0.30385 0.0
C36 C 0.67754 0.72945 0.32445 0.0
C37 C 0.6986 0.7475 0.36237 0.0
C38 C 0.69115 0.78097 0.38016 0.0
H39 H 0.25179 0.75701 0.43275 0.0
H40 H 0.22527 0.67453 0.32441 0.0
H41 H 0.34055 0.76218 0.34894 0.0
H42 H 0.3091 0.74235 0.2571 0.0
C43 C 0.29718 0.70791 0.2612 0.0
O44 O 0.29706 0.69748 0.30393 0.0
H45 H 0.26662 0.69671 0.24605 0.0
C46 C 0.25982 0.74641 0.40399 0.0
C47 C 0.29836 0.76487 0.39225 0.0
C48 C 0.23249 0.71368 0.37986 0.0
C49 C 0.24506 0.69957 0.34391 0.0
C50 C 0.28395 0.71644 0.3334 0.0
C51 C 0.31032 0.74965 0.35694 0.0
H52 H 0.30392 0.78239 0.67596 0.0
H53 H 0.26121 0.68404 0.76738 0.0
H54 H 0.37398 0.7766 0.79292 0.0
H55 H 0.34558 0.66886 0.78686 0.0
C56 C 0.33422 0.67141 0.81809 0.0
O57 O 0.32462 0.70742 0.81988 0.0
H58 H 0.30704 0.64418 0.82045 0.0
C59 C 0.30761 0.76809 0.70665 0.0
C60 C 0.34243 0.78518 0.73324 0.0
C61 C 0.27796 0.73167 0.71862 0.0
C62 C 0.28318 0.71267 0.75805 0.0
C63 C 0.31821 0.72841 0.78411 0.0
C64 C 0.34742 0.76466 0.77195 0.0
H65 H 0.27222 0.41002 0.76805 0.0
H66 H 0.24252 0.30873 0.67932 0.0
H67 H 0.34093 0.32786 0.7724 0.0
H68 H 0.35004 0.31851 0.67673 0.0
C69 C 0.32242 0.29182 0.67035 0.0
O70 O 0.30132 0.28354 0.70609 0.0
H71 H 0.305 0.3012 0.64338 0.0
C72 C 0.27738 0.38285 0.75637 0.0
C73 C 0.3088 0.37104 0.77548 0.0
C74 C 0.25313 0.36059 0.72175 0.0
C75 C 0.26013 0.32553 0.70675 0.0
C76 C 0.29201 0.31404 0.7246 0.0
C77 C 0.31588 0.33636 0.75938 0.0
H78 H 0.60901 0.32682 0.75198 0.0
H79 H 0.72176 0.41772 0.78823 0.0
H80 H 0.71401 0.31668 0.70657 0.0
H81 H 0.791 0.34724 0.76715 0.0
C82 C 0.79071 0.37965 0.7698 0.0
O83 O 0.76072 0.38516 0.74275 0.0
H84 H 0.78647 0.38498 0.80346 0.0
C85 C 0.6407 0.33823 0.75156 0.0
C86 C 0.65873 0.31711 0.72704 0.0
C87 C 0.663 0.37447 0.7743 0.0
C88 C 0.70401 0.38888 0.77275 0.0
C89 C 0.72227 0.36768 0.7489 0.0
C90 C 0.69976 0.33159 0.7266 0.0
H91 H 0.60829 0.72667 0.70037 0.0
H92 H 0.69649 0.66854 0.69286 0.0
H93 H 0.69333 0.76835 0.60678 0.0
H94 H 0.72526 0.71457 0.56349 0.0
C95 C 0.72456 0.69288 0.5909 0.0
O96 O 0.72888 0.71435 0.62848 0.0
H97 H 0.69568 0.66734 0.58797 0.0
C98 C 0.63294 0.72382 0.68502 0.0
C99 C 0.64838 0.75109 0.6515 0.0
C100 C 0.65035 0.69432 0.70049 0.0
C101 C 0.68286 0.69128 0.68135 0.0
C102 C 0.6979 0.71766 0.64725 0.0
C103 C 0.68114 0.74789 0.6329 0.0
Co104 Co 0.08347 0.51583 0.57684 0.0
Co105 Co 0.03617 0.4864 0.50872 0.0
Co106 Co 1.00281 0.54571 0.55484 0.0
O107 O 0.02711 0.50044 0.56273 0.0
H108 H 1.01171 0.47648 0.5783 0.0
O109 O 0.98059 0.59203 0.54772 0.0
Co110 Co 0.92826 0.58444 0.52425 0.0
Co111 Co 0.96604 0.60481 0.5999 0.0
H112 H 0.9992 0.6167 0.5363 0.0
O113 O 0.05271 0.44133 0.49686 0.0
O114 O 0.09085 0.50545 0.51738 0.0
O115 O 0.02342 0.51958 0.46235 0.0
O116 O 0.03587 0.57262 0.50611 0.0
O117 O 0.96056 0.50997 0.5131 0.0
O118 O 0.8811 0.58325 0.50042 0.0
O119 O 0.9373 0.63765 0.50766 0.0
O120 O 0.91258 0.52682 0.53779 0.0
O121 O 0.96946 0.51735 0.60261 0.0
O122 O 0.96407 0.56527 0.64569 0.0
O123 O 0.91414 0.59639 0.5805 0.0
O124 O 0.95673 0.65487 0.60959 0.0
C125 C 0.1214 0.48581 0.60183 0.0
C126 C 0.08048 0.59208 0.59021 0.0
C127 C 0.03778 0.55836 0.46956 0.0
C128 C 0.08728 0.46922 0.50247 0.0
C129 C 0.90018 0.62264 0.49445 0.0
C130 C 0.92389 0.50313 0.51557 0.0
C131 C 0.95991 0.52769 0.63768 0.0
C132 C 0.92129 0.63364 0.59507 0.0
O133 O 0.13377 0.52513 0.5917 0.0
O134 O 0.08419 0.46428 0.59402 0.0
O135 O 0.04428 0.58151 0.59687 0.0
O136 O 0.0909 0.57203 0.56311 0.0
Co137 Co 0.53784 0.96196 0.51908 0.0
Co138 Co 0.55965 0.99892 0.59331 0.0
Co139 Co 0.50289 0.04022 0.54127 0.0
O140 O 0.54765 0.01813 0.53921 0.0
H141 H 0.57061 0.03827 0.52837 0.0
O142 O 0.45691 0.06052 0.54323 0.0
Co143 Co 0.46334 0.11307 0.5683 0.0
Co144 Co 0.44631 0.08397 0.49178 0.0
H145 H 0.43363 0.03881 0.55141 0.0
O146 O 0.60761 0.99085 0.60785 0.0
O147 O 0.55242 0.94478 0.57731 0.0
O148 O 0.52246 0.99215 0.63541 0.0
O149 O 0.47655 0.99947 0.58701 0.0
O150 O 0.5348 0.08203 0.58544 0.0
O151 O 0.46656 0.15976 0.5934 0.0
O152 O 0.4141 0.10118 0.58644 0.0
O153 O 0.51566 0.13183 0.55439 0.0
O154 O 0.52975 0.08161 0.49587 0.0
O155 O 0.48574 0.09882 0.45209 0.0
O156 O 0.44527 0.13364 0.51292 0.0
O157 O 0.39654 0.08408 0.4761 0.0
C158 C 0.56962 0.93008 0.49283 0.0
C159 C 0.46281 0.96002 0.50378 0.0
C160 C 0.4867 0.98624 0.62326 0.0
C161 C 0.58807 0.95332 0.59493 0.0
C162 C 0.43061 0.13908 0.60098 0.0
C163 C 0.53905 0.12077 0.58084 0.0
C164 C 0.52082 0.10054 0.46262 0.0
C165 C 0.40978 0.12046 0.49403 0.0
O166 O 0.53297 0.91204 0.49974 0.0
O167 O 0.58702 0.96921 0.50309 0.0
O168 O 0.47106 0.99907 0.49708 0.0
O169 O 0.48451 0.94678 0.53048 0.0
Co170 Co 0.44727 0.55281 0.12559 0.0
Co171 Co 0.44007 0.47649 0.11724 0.0
Co172 Co 0.49603 0.53362 0.04514 0.0
O173 O 0.44805 0.51972 0.0781 0.0
H174 H 0.42466 0.51499 0.05894 0.0
O175 O 0.54339 0.54692 1.01188 0.0
Co176 Co 0.53915 0.52185 0.95762 0.0
Co177 Co 0.55505 0.59731 0.98285 0.0
H178 H 0.56624 0.54588 0.02955 0.0
O179 O 0.39064 0.44515 0.13414 0.0
O180 O 0.43286 0.50371 0.16432 0.0
O181 O 0.48422 0.4578 0.12986 0.0
O182 O 0.52238 0.49845 0.08238 0.0
O183 O 0.46584 0.48475 1.00691 0.0
O184 O 0.53934 0.49752 0.90877 0.0
O185 O 0.58861 0.51982 0.96034 0.0
O186 O 0.48659 0.51938 0.94833 0.0
O187 O 0.47014 0.56921 1.00848 0.0
O188 O 0.5145 0.62257 0.97838 0.0
O189 O 0.55515 0.57698 0.92886 0.0
O190 O 0.60509 0.62515 0.96492 0.0
C191 C 0.40746 0.57615 0.14812 0.0
C192 C 0.52714 0.58491 0.12228 0.0
C193 C 0.51667 0.47151 0.11292 0.0
C194 C 0.40065 0.47197 0.16499 0.0
C195 C 0.57485 0.50091 0.92402 0.0
C196 C 0.46123 0.49017 0.96657 0.0
C197 C 0.47937 0.60328 0.98681 0.0
C198 C 0.58989 0.60494 0.92991 0.0
O199 O 0.44258 0.58422 0.16682 0.0
O200 O 0.39652 0.55081 0.11567 0.0
O201 O 0.52653 0.58338 0.08178 0.0
O202 O 0.49993 0.55972 0.14196 0.0
H203 H 0.24746 0.46363 0.4424 0.0
H204 H 0.18694 0.33171 0.45283 0.0
H205 H 0.12904 0.34486 0.47503 0.0
H206 H 0.09578 0.39395 0.49171 0.0
H207 H 0.15747 0.52614 0.48521 0.0
H208 H 0.21478 0.513 0.46169 0.0
C209 C 0.22143 0.43796 0.44938 0.0
C210 C 0.22106 0.39685 0.44581 0.0
C211 C 0.18863 0.44581 0.46306 0.0
C212 C 0.18758 0.36361 0.45539 0.0
C213 C 0.15459 0.37111 0.46809 0.0
C214 C 0.12177 0.41983 0.48511 0.0
C215 C 0.12232 0.46088 0.48998 0.0
C216 C 0.15479 0.41207 0.47211 0.0
C217 C 0.15637 0.49418 0.48184 0.0
C218 C 0.18911 0.48673 0.46821 0.0
H219 H 0.67471 0.23854 0.40648 0.0
H220 H 0.58773 0.29002 0.34917 0.0
H221 H 0.53547 0.22807 0.36962 0.0
H222 H 0.51399 0.16172 0.40768 0.0
H223 H 0.59988 0.11158 0.47006 0.0
H224 H 0.65281 0.17039 0.44355 0.0
C225 C 0.64433 0.23634 0.39861 0.0
C226 C 0.63545 0.26916 0.37607 0.0
C227 C 0.61409 0.20074 0.41129 0.0
C228 C 0.59576 0.26522 0.36574 0.0
C229 C 0.56569 0.2298 0.3777 0.0
C230 C 0.54422 0.16306 0.41495 0.0
C231 C 0.55276 0.13196 0.44081 0.0
C232 C 0.57448 0.19758 0.4008 0.0
C233 C 0.5923 0.13485 0.45014 0.0
C234 C 0.62263 0.16867 0.4352 0.0
H235 H 0.83586 0.7642 0.41833 0.0
H236 H 0.73462 0.65754 0.38328 0.0
H237 H 0.76743 0.6111 0.41799 0.0
H238 H 0.82562 0.60079 0.4566 0.0
H239 H 0.92778 0.70756 0.48951 0.0
H240 H 0.89389 0.75391 0.45756 0.0
C241 C 0.8209 0.7308 0.41874 0.0
C242 C 0.78258 0.71435 0.39917 0.0
C243 C 0.8402 0.70431 0.43813 0.0
C244 C 0.76382 0.67096 0.39895 0.0
C245 C 0.78263 0.64442 0.4186 0.0
C246 C 0.8405 0.6342 0.45678 0.0
C247 C 0.87936 0.65059 0.47506 0.0
C248 C 0.82092 0.66073 0.43806 0.0
C249 C 0.89807 0.694 0.47521 0.0
C250 C 0.87866 0.7206 0.45706 0.0
H251 H 0.33437 0.84568 0.37079 0.0
H252 H 0.32618 0.75695 0.47367 0.0
H253 H 0.37585 0.80988 0.51789 0.0
H254 H 0.423 0.88068 0.52626 0.0
H255 H 0.42886 0.97103 0.42512 0.0
H256 H 0.37839 0.9185 0.38134 0.0
C257 C 0.34352 0.83822 0.40296 0.0
C258 C 0.32711 0.79766 0.41908 0.0
C259 C 0.37151 0.86904 0.4284 0.0
C260 C 0.33862 0.7881 0.46084 0.0
C261 C 0.36697 0.81828 0.486 0.0
C262 C 0.4131 0.88891 0.49469 0.0
C263 C 0.42988 0.92955 0.47876 0.0
C264 C 0.38382 0.85875 0.46999 0.0
C265 C 0.41636 0.93996 0.43809 0.0
C266 C 0.38765 0.90989 0.41298 0.0
H267 H 0.20027 0.70037 0.73418 0.0
H268 H 0.27875 0.71586 0.63471 0.0
H269 H 0.22409 0.67654 0.58556 0.0
H270 H 0.15505 0.63379 0.57209 0.0
H271 H 0.07543 0.61855 0.67028 0.0
H272 H 0.12926 0.66197 0.7185 0.0
C273 C 0.20525 0.69533 0.70164 0.0
C274 C 0.24358 0.711 0.68818 0.0
C275 C 0.17352 0.67264 0.67337 0.0
C276 C 0.24955 0.70455 0.6458 0.0
C277 C 0.21833 0.68182 0.61772 0.0
C278 C 0.14936 0.64026 0.60394 0.0
C279 C 0.11135 0.62262 0.61771 0.0
C280 C 0.18035 0.66519 0.63134 0.0
C281 C 0.10438 0.63176 0.65886 0.0
C282 C 0.13523 0.65639 0.68652 0.0
H283 H 0.38303 0.26704 0.70333 0.0
H284 H 0.28458 0.23347 0.60877 0.0
H285 H 0.3062 0.17844 0.58223 0.0
H286 H 0.35712 0.14439 0.58171 0.0
H287 H 0.45836 0.1834 0.67264 0.0
H288 H 0.43137 0.23063 0.70558 0.0
C289 C 0.36605 0.24714 0.6774 0.0
C290 C 0.33253 0.25439 0.65782 0.0
C291 C 0.37918 0.21633 0.66176 0.0
C292 C 0.3106 0.22847 0.62424 0.0
C293 C 0.32301 0.19709 0.60902 0.0
C294 C 0.37268 0.16259 0.60931 0.0
C295 C 0.40955 0.16037 0.62492 0.0
C296 C 0.35777 0.19128 0.62693 0.0
C297 C 0.42983 0.18455 0.66027 0.0
C298 C 0.41455 0.21174 0.67895 0.0
H299 H 0.84091 0.36806 0.71575 0.0
H300 H 0.82322 0.46097 0.79341 0.0
H301 H 0.87797 0.51487 0.76319 0.0
H302 H 0.92547 0.5364 0.70889 0.0
H303 H 0.94161 0.44346 0.62931 0.0
H304 H 0.89359 0.38869 0.66673 0.0
C305 C 0.84983 0.39995 0.72676 0.0
C306 C 0.82861 0.41061 0.75711 0.0
C307 C 0.88084 0.43078 0.70869 0.0
C308 C 0.83969 0.45211 0.77056 0.0
C309 C 0.87077 0.48289 0.7531 0.0
C310 C 0.91912 0.50413 0.7002 0.0
C311 C 0.93686 0.49428 0.66586 0.0
C312 C 0.89086 0.47275 0.7213 0.0
C313 C 0.92826 0.45215 0.65533 0.0
C314 C 0.90063 0.42071 0.67661 0.0
H315 H 0.68698 0.83302 0.63655 0.0
H316 H 0.57078 0.74222 0.63474 0.0
H317 H 0.54185 0.79662 0.61557 0.0
H318 H 0.54956 0.87042 0.60223 0.0
H319 H 0.66572 0.96142 0.60538 0.0
H320 H 0.69473 0.90651 0.62089 0.0
C321 C 0.65535 0.82509 0.63139 0.0
C322 C 0.63105 0.7837 0.63715 0.0
C323 C 0.63893 0.85657 0.62086 0.0
C324 C 0.59008 0.77396 0.63093 0.0
C325 C 0.57354 0.805 0.61989 0.0
C326 C 0.58123 0.87816 0.60603 0.0
C327 C 0.60549 0.91986 0.60262 0.0
C328 C 0.59767 0.84649 0.61531 0.0
C329 C 0.64645 0.92952 0.60798 0.0
C330 C 0.66304 0.89815 0.61676 0.0
H331 H 0.28321 0.21067 0.4625 0.0
H332 H 0.37501 0.31018 0.52775 0.0
H333 H 0.41729 0.26656 0.53572 0.0
H334 H 0.42829 0.20036 0.52243 0.0
H335 H 0.33457 0.10061 0.45897 0.0
H336 H 0.29306 0.1442 0.45184 0.0
C337 C 0.31265 0.22292 0.47805 0.0
C338 C 0.32657 0.26392 0.49324 0.0
C339 C 0.33644 0.19765 0.48279 0.0
C340 C 0.36421 0.27903 0.51469 0.0
C341 C 0.38824 0.25408 0.51939 0.0
C342 C 0.3988 0.18818 0.50704 0.0
C343 C 0.38478 0.14732 0.49099 0.0
C344 C 0.37476 0.2134 0.50321 0.0
C345 C 0.34634 0.13198 0.47143 0.0
C346 C 0.32245 0.15687 0.46733 0.0
H347 H 0.80921 0.39116 0.37023 0.0
H348 H 0.72567 0.38219 0.46268 0.0
H349 H 0.77845 0.42254 0.51347 0.0
H350 H 0.84759 0.46433 0.52996 0.0
H351 H 0.93227 0.47164 0.43932 0.0
H352 H 0.8801 0.42764 0.3898 0.0
C353 C 0.80274 0.39781 0.40165 0.0
C354 C 0.76355 0.38382 0.41263 0.0
C355 C 0.83343 0.42076 0.431 0.0
C356 C 0.75557 0.39233 0.45357 0.0
C357 C 0.78573 0.41559 0.48256 0.0
C358 C 0.85473 0.4559 0.49956 0.0
C359 C 0.89374 0.47154 0.48824 0.0
C360 C 0.82465 0.43048 0.47141 0.0
C361 C 0.90254 0.45994 0.44892 0.0
C362 C 0.87264 0.435 0.42045 0.0
H363 H 0.63133 0.78952 0.43507 0.0
H364 H 0.66946 0.87606 0.33191 0.0
H365 H 0.64835 0.92773 0.36665 0.0
H366 H 0.61504 0.94643 0.42494 0.0
H367 H 0.56916 0.8547 0.52174 0.0
H368 H 0.59795 0.80749 0.49206 0.0
C369 C 0.63536 0.81992 0.42054 0.0
C370 C 0.65215 0.82929 0.38133 0.0
C371 C 0.62194 0.84865 0.43991 0.0
C372 C 0.65664 0.86837 0.36222 0.0
C373 C 0.6446 0.89783 0.38209 0.0
C374 C 0.61211 0.9164 0.43979 0.0
C375 C 0.59102 0.90447 0.47624 0.0
C376 C 0.62675 0.88816 0.42078 0.0
C377 C 0.5862 0.86497 0.49445 0.0
C378 C 0.60229 0.83775 0.47717 0.0
H379 H 0.18678 0.63181 0.36903 0.0
H380 H 0.18645 0.74668 0.42332 0.0
H381 H 0.12473 0.70947 0.45376 0.0
H382 H 0.07309 0.64305 0.46924 0.0
H383 H 0.07151 0.53066 0.4082 0.0
H384 H 0.13068 0.56906 0.37434 0.0
C385 C 0.17298 0.64947 0.38619 0.0
C386 C 0.19222 0.69223 0.39414 0.0
C387 C 0.13671 0.62832 0.4023 0.0
C388 C 0.17344 0.71357 0.41761 0.0
C389 C 0.13774 0.69239 0.43473 0.0
C390 C 0.0852 0.62719 0.44775 0.0
C391 C 0.06792 0.58391 0.44174 0.0
C392 C 0.11947 0.64955 0.42798 0.0
C393 C 0.08394 0.56391 0.41354 0.0
C394 C 0.11812 0.58579 0.39434 0.0
H395 H 0.33503 0.85429 0.69062 0.0
H396 H 0.42205 0.80126 0.74447 0.0
H397 H 0.47419 0.86142 0.72016 0.0
H398 H 0.49521 0.92639 0.67904 0.0
H399 H 0.40848 0.97699 0.6198 0.0
H400 H 0.3563 0.92052 0.65065 0.0
C401 C 0.36537 0.85572 0.6969 0.0
C402 C 0.37431 0.823 0.71952 0.0
C403 C 0.39541 0.89007 0.68183 0.0
C404 C 0.41401 0.82603 0.72787 0.0
C405 C 0.44399 0.86039 0.71366 0.0
C406 C 0.46498 0.92564 0.67356 0.0
C407 C 0.45586 0.95615 0.64735 0.0
C408 C 0.43504 0.89234 0.6902 0.0
C409 C 0.41638 0.95406 0.63998 0.0
C410 C 0.3865 0.92163 0.65743 0.0
H411 H 0.26309 0.43954 0.69524 0.0
H412 H 0.17631 0.31706 0.69564 0.0
H413 H 0.12757 0.34422 0.65758 0.0
H414 H 0.1095 0.40386 0.62529 0.0
H415 H 0.19849 0.5255 0.62473 0.0
H416 H 0.24614 0.49759 0.66157 0.0
C417 C 0.23339 0.41884 0.68736 0.0
C418 C 0.22316 0.37651 0.69879 0.0
C419 C 0.20584 0.43455 0.66525 0.0
C420 C 0.18485 0.34984 0.68731 0.0
C421 C 0.157 0.36539 0.6656 0.0
C422 C 0.13934 0.42416 0.63313 0.0
C423 C 0.15011 0.46683 0.62235 0.0
C424 C 0.16711 0.40782 0.6545 0.0
C425 C 0.18908 0.49259 0.63258 0.0
C426 C 0.21653 0.4767 0.65381 0.0
H427 H 0.6611 0.23791 0.71883 0.0
H428 H 0.60188 0.3226 0.66813 0.0
H429 H 0.56152 0.27014 0.61731 0.0
H430 H 0.54287 0.20102 0.5875 0.0
H431 H 0.59718 0.11266 0.64001 0.0
H432 H 0.64018 0.16594 0.68946 0.0
C433 C 0.63929 0.24463 0.6966 0.0
C434 C 0.63424 0.28393 0.69732 0.0
C435 C 0.61556 0.21388 0.66774 0.0
C436 C 0.60591 0.29241 0.66849 0.0
C437 C 0.58299 0.26253 0.6393 0.0
C438 C 0.56392 0.19305 0.60978 0.0
C439 C 0.56657 0.15269 0.61006 0.0
C440 C 0.5875 0.22323 0.63872 0.0
C441 C 0.59441 0.14342 0.63911 0.0
C442 C 0.61894 0.17387 0.66744 0.0
H443 H 0.8032 0.73405 0.6039 0.0
H444 H 0.71959 0.61311 0.57243 0.0
H445 H 0.77306 0.58464 0.56934 0.0
H446 H 0.84324 0.59359 0.57792 0.0
H447 H 0.92726 0.71417 0.61083 0.0
H448 H 0.87401 0.74331 0.61124 0.0
C449 C 0.79685 0.70143 0.59664 0.0
C450 C 0.75761 0.67548 0.58925 0.0
C451 C 0.82772 0.68523 0.59529 0.0
C452 C 0.74958 0.63348 0.57893 0.0
C453 C 0.78011 0.61724 0.57709 0.0
C454 C 0.84997 0.62628 0.58512 0.0
C455 C 0.88918 0.65158 0.59463 0.0
C456 C 0.81924 0.64272 0.58562 0.0
C457 C 0.89732 0.69389 0.60377 0.0
C458 C 0.86689 0.71061 0.60392 0.0
H459 H 0.33456 0.46095 0.34608 0.0
H460 H 0.29385 0.33017 0.31645 0.0
H461 H 0.31823 0.3459 0.24541 0.0
H462 H 0.3544 0.39668 0.19337 0.0
H463 H 0.40044 0.52702 0.2259 0.0
H464 H 0.37055 0.5119 0.29372 0.0
C465 C 0.33085 0.43607 0.3238 0.0
C466 C 0.31247 0.39453 0.33615 0.0
C467 C 0.34594 0.44532 0.28356 0.0
C468 C 0.30807 0.36235 0.30744 0.0
C469 C 0.32195 0.37136 0.26691 0.0
C470 C 0.35742 0.42185 0.21503 0.0
C471 C 0.37937 0.463 0.20429 0.0
C472 C 0.34136 0.4127 0.25479 0.0
C473 C 0.38355 0.49512 0.23313 0.0
C474 C 0.36657 0.48647 0.27208 0.0
H475 H 0.32597 0.61987 0.88796 0.0
H476 H 0.4116 0.71945 0.82577 0.0
H477 H 0.46412 0.71042 0.87582 0.0
H478 H 0.4861 0.66911 0.93198 0.0
H479 H 0.40015 0.568 0.9928 0.0
H480 H 0.34741 0.58307 0.94898 0.0
C481 C 0.35607 0.64002 0.8859 0.0
C482 C 0.3651 0.67008 0.85311 0.0
C483 C 0.38607 0.63413 0.91432 0.0
C484 C 0.40413 0.69609 0.85077 0.0
C485 C 0.43409 0.69077 0.87922 0.0
C486 C 0.45585 0.65075 0.93626 0.0
C487 C 0.44735 0.61714 0.96551 0.0
C488 C 0.42552 0.65912 0.91039 0.0
C489 C 0.40779 0.59391 0.9705 0.0
C490 C 0.37749 0.60239 0.94529 0.0
H491 H 0.33377 0.34889 0.85516 0.0
H492 H 0.34577 0.45409 0.77034 0.0
H493 H 0.39154 0.50014 0.82316 0.0
H494 H 0.42987 0.51055 0.89189 0.0
H495 H 0.41843 0.40732 0.97905 0.0
H496 H 0.37019 0.36062 0.92746 0.0
C497 C 0.3465 0.3819 0.84843 0.0
C498 C 0.33645 0.39805 0.8088 0.0
C499 C 0.37263 0.40855 0.87944 0.0
C500 C 0.35284 0.44095 0.8006 0.0
C501 C 0.37906 0.4673 0.83078 0.0
C502 C 0.41665 0.47785 0.89984 0.0
C503 C 0.42796 0.46237 0.93915 0.0
C504 C 0.38931 0.45145 0.87012 0.0
C505 C 0.41011 0.42006 0.94912 0.0
C506 C 0.38279 0.39333 0.91943 0.0
H507 H 0.68603 0.41447 0.85121 0.0
H508 H 0.59559 0.39033 0.74702 0.0
H509 H 0.5616 0.42837 0.78344 0.0
H510 H 0.55631 0.46689 0.8452 0.0
H511 H 0.64656 0.49281 0.94948 0.0
H512 H 0.6823 0.45662 0.91215 0.0
C513 C 0.65907 0.41783 0.83631 0.0
C514 C 0.64315 0.39883 0.79666 0.0
C515 C 0.63969 0.44028 0.8573 0.0
C516 C 0.60807 0.40352 0.77797 0.0
C517 C 0.58872 0.42566 0.7986 0.0
C518 C 0.58391 0.46488 0.85981 0.0
C519 C 0.59857 0.48236 0.90026 0.0
C520 C 0.60406 0.44382 0.83839 0.0
C521 C 0.63455 0.47964 0.91839 0.0
C522 C 0.65493 0.45879 0.89713 0.0
H523 H 0.68958 0.69277 0.77752 0.0
H524 H 0.57711 0.63926 0.70737 0.0
H525 H 0.54954 0.60256 0.7717 0.0
H526 H 0.55596 0.59104 0.84897 0.0
H527 H 0.6669 0.64964 0.92071 0.0
H528 H 0.69674 0.67864 0.8548 0.0
C529 C 0.65925 0.67243 0.77636 0.0
C530 C 0.63534 0.66838 0.73798 0.0
C531 C 0.64333 0.65268 0.81379 0.0
C532 C 0.59593 0.64262 0.73671 0.0
C533 C 0.58021 0.62179 0.77343 0.0
C534 C 0.58682 0.60966 0.85017 0.0
C535 C 0.60914 0.61834 0.88974 0.0
C536 C 0.6034 0.62735 0.81236 0.0
C537 C 0.64902 0.64273 0.89069 0.0
C538 C 0.66609 0.65936 0.85302 0.0
H539 H 0.66776 0.70973 0.23473 0.0
H540 H 0.56958 0.72542 0.29224 0.0
H541 H 0.52419 0.68051 0.2387 0.0
H542 H 0.5117 0.63226 0.17986 0.0
H543 H 0.60766 0.61438 0.12083 0.0
H544 H 0.65476 0.66482 0.17045 0.0
C545 C 0.63644 0.70353 0.23529 0.0
C546 C 0.62224 0.72109 0.26766 0.0
C547 C 0.61015 0.67708 0.20437 0.0
C548 C 0.58155 0.71302 0.26756 0.0
C549 C 0.55544 0.68696 0.23711 0.0
C550 C 0.54289 0.63952 0.17761 0.0
C551 C 0.55621 0.61928 0.14717 0.0
C552 C 0.56935 0.6682 0.20604 0.0
C553 C 0.59676 0.62967 0.14402 0.0
C554 C 0.62359 0.65827 0.17256 0.0
H555 H 0.27534 0.64245 0.20514 0.0
H556 H 0.37641 0.72904 0.27323 0.0
H557 H 0.4192 0.69563 0.24466 0.0
H558 H 0.42769 0.64172 0.20132 0.0
H559 H 0.32749 0.55541 0.13136 0.0
H560 H 0.28436 0.58886 0.15955 0.0
C561 C 0.30678 0.65413 0.21329 0.0
C562 C 0.32293 0.68838 0.24086 0.0
C563 C 0.33118 0.63477 0.1966 0.0
C564 C 0.36359 0.703 0.25169 0.0
C565 C 0.38793 0.68383 0.23551 0.0
C566 C 0.39638 0.63005 0.19222 0.0
C567 C 0.38078 0.59596 0.1644 0.0
C568 C 0.37203 0.64964 0.20812 0.0
C569 C 0.34023 0.58162 0.15267 0.0
C570 C 0.31559 0.60072 0.16882 0.0
H571 H 0.67783 0.46397 0.20079 0.0
H572 H 0.59947 0.37329 0.27928 0.0
H573 H 0.54284 0.37739 0.23276 0.0
H574 H 0.51563 0.41254 0.17466 0.0
H575 H 0.59425 0.50458 0.09699 0.0
H576 H 0.65062 0.49378 0.13788 0.0
C577 C 0.64836 0.4446 0.20721 0.0
C578 C 0.64268 0.41861 0.24359 0.0
C579 C 0.61598 0.44766 0.18067 0.0
C580 C 0.60443 0.39355 0.2515 0.0
C581 C 0.57211 0.39609 0.22504 0.0
C582 C 0.54505 0.42985 0.16616 0.0
C583 C 0.55046 0.45971 0.1329 0.0
C584 C 0.57748 0.42392 0.19024 0.0
C585 C 0.58896 0.48148 0.12235 0.0
C586 C 0.62133 0.47548 0.14592 0.0
loop_
_geom_bond_atom_site_label_1
_geom_bond_atom_site_label_2
_geom_bond_distance
_geom_bond_site_symmetry_2
_ccdc_geom_bond_type
H0 C7 0.929 . S
H1 C10 0.930 . S
H2 C12 0.929 . S
H3 C4 0.969 . S
C4 H3 0.969 . S
C4 O5 1.550 . S
C4 H6 0.973 . S
O5 C4 1.550 . S
O5 C11 1.412 . S
H6 C4 0.973 . S
C7 H0 0.929 . S
C7 C8 1.400 . S
C7 C9 1.364 . S
C8 C7 1.400 . S
C8 C12 1.377 . S
C9 C7 1.364 . S
C9 C10 1.374 . S
C10 H1 0.930 . S
C10 C9 1.374 . S
C10 C11 1.383 . S
C11 O5 1.412 . S
C11 C10 1.383 . S
C11 C12 1.394 . S
C12 H2 0.929 . S
C12 C8 1.377 . S
C12 C11 1.394 . S
H13 C20 0.929 . S
H14 C23 0.930 . S
H15 C25 0.929 . S
H16 C17 0.969 . S
C17 H16 0.969 . S
C17 O18 1.550 . S
C17 H19 0.973 . S
O18 C17 1.550 . S
O18 C24 1.412 . S
H19 C17 0.973 . S
C20 H13 0.929 . S
C20 C21 1.400 . S
C20 C22 1.364 . S
C21 C20 1.400 . S
C21 C25 1.377 . S
C22 C20 1.364 . S
C22 C23 1.374 . S
C23 H14 0.930 . S
C23 C22 1.374 . S
C23 C24 1.383 . S
C24 O18 1.412 . S
C24 C23 1.383 . S
C24 C25 1.394 . S
C25 H15 0.929 . S
C25 C21 1.377 . S
C25 C24 1.394 . S
H26 C33 0.929 . S
H27 C36 0.930 . S
H28 C38 0.929 . S
H29 C30 0.969 . S
C30 H29 0.969 . S
C30 O31 1.550 . S
C30 H32 0.973 . S
O31 C30 1.550 . S
O31 C37 1.412 . S
H32 C30 0.973 . S
C33 H26 0.929 . S
C33 C34 1.400 . S
C33 C35 1.364 . S
C34 C33 1.400 . S
C34 C38 1.377 . S
C35 C33 1.364 . S
C35 C36 1.374 . S
C36 H27 0.930 . S
C36 C35 1.374 . S
C36 C37 1.383 . S
C37 O31 1.412 . S
C37 C36 1.383 . S
C37 C38 1.394 . S
C38 H28 0.929 . S
C38 C34 1.377 . S
C38 C37 1.394 . S
H39 C46 0.929 . S
H40 C49 0.930 . S
H41 C51 0.929 . S
H42 C43 0.969 . S
C43 H42 0.969 . S
C43 O44 1.550 . S
C43 H45 0.973 . S
O44 C43 1.550 . S
O44 C50 1.412 . S
H45 C43 0.973 . S
C46 H39 0.929 . S
C46 C47 1.400 . S
C46 C48 1.364 . S
C47 C46 1.400 . S
C47 C51 1.377 . S
C48 C46 1.364 . S
C48 C49 1.374 . S
C49 H40 0.930 . S
C49 C48 1.374 . S
C49 C50 1.383 . S
C50 O44 1.412 . S
C50 C49 1.383 . S
C50 C51 1.394 . S
C51 H41 0.929 . S
C51 C47 1.377 . S
C51 C50 1.394 . S
H52 C59 0.929 . S
H53 C62 0.930 . S
H54 C64 0.929 . S
H55 C56 0.969 . S
C56 H55 0.969 . S
C56 O57 1.550 . S
C56 H58 0.973 . S
O57 C56 1.550 . S
O57 C63 1.412 . S
H58 C56 0.973 . S
C59 H52 0.929 . S
C59 C60 1.400 . S
C59 C61 1.364 . S
C60 C59 1.400 . S
C60 C64 1.377 . S
C61 C59 1.364 . S
C61 C62 1.374 . S
C62 H53 0.930 . S
C62 C61 1.374 . S
C62 C63 1.383 . S
C63 O57 1.412 . S
C63 C62 1.383 . S
C63 C64 1.394 . S
C64 H54 0.929 . S
C64 C60 1.377 . S
C64 C63 1.394 . S
H65 C72 0.929 . S
H66 C75 0.930 . S
H67 C77 0.929 . S
H68 C69 0.969 . S
C69 H68 0.969 . S
C69 O70 1.550 . S
C69 H71 0.973 . S
O70 C69 1.550 . S
O70 C76 1.412 . S
H71 C69 0.973 . S
C72 H65 0.929 . S
C72 C73 1.400 . S
C72 C74 1.364 . S
C73 C72 1.400 . S
C73 C77 1.377 . S
C74 C72 1.364 . S
C74 C75 1.374 . S
C75 H66 0.930 . S
C75 C74 1.374 . S
C75 C76 1.383 . S
C76 O70 1.412 . S
C76 C75 1.383 . S
C76 C77 1.394 . S
C77 H67 0.929 . S
C77 C73 1.377 . S
C77 C76 1.394 . S
H78 C85 0.929 . S
H79 C88 0.930 . S
H80 C90 0.929 . S
H81 C82 0.969 . S
C82 H81 0.969 . S
C82 O83 1.550 . S
C82 H84 0.973 . S
O83 C82 1.550 . S
O83 C89 1.412 . S
H84 C82 0.973 . S
C85 H78 0.929 . S
C85 C86 1.400 . S
C85 C87 1.364 . S
C86 C85 1.400 . S
C86 C90 1.377 . S
C87 C85 1.364 . S
C87 C88 1.374 . S
C88 H79 0.930 . S
C88 C87 1.374 . S
C88 C89 1.383 . S
C89 O83 1.412 . S
C89 C88 1.383 . S
C89 C90 1.394 . S
C90 H80 0.929 . S
C90 C86 1.377 . S
C90 C89 1.394 . S
H91 C98 0.929 . S
H92 C101 0.930 . S
H93 C103 0.929 . S
H94 C95 0.969 . S
C95 H94 0.969 . S
C95 O96 1.550 . S
C95 H97 0.973 . S
O96 C95 1.550 . S
O96 C102 1.412 . S
H97 C95 0.973 . S
C98 H91 0.929 . S
C98 C99 1.400 . S
C98 C100 1.364 . S
C99 C98 1.400 . S
C99 C103 1.377 . S
C100 C98 1.364 . S
C100 C101 1.374 . S
C101 H92 0.930 . S
C101 C100 1.374 . S
C101 C102 1.383 . S
C102 O96 1.412 . S
C102 C101 1.383 . S
C102 C103 1.394 . S
C103 H93 0.929 . S
C103 C99 1.377 . S
C103 C102 1.394 . S
Co104 O107 2.042 . S
Co104 O114 2.264 . S
Co104 O133 2.286 . S
Co104 O134 2.069 . S
Co104 O136 2.015 . S
Co105 O107 2.122 . S
Co105 O113 2.073 . S
Co105 O114 2.327 . S
Co105 O115 1.976 . S
Co106 O107 2.087 . S
Co106 O109 2.087 1_455 S
Co106 O116 2.111 . S
Co106 O117 2.143 1_455 S
Co106 O121 2.111 1_455 S
Co106 O135 2.143 . S
O107 Co104 2.042 . S
O107 Co105 2.122 . S
O107 Co106 2.087 . S
O107 H108 0.980 . S
H108 O107 0.980 . S
O109 Co106 2.087 1_655 S
O109 Co110 2.042 . S
O109 Co111 2.122 . S
O109 H112 0.980 . S
Co110 O109 2.042 . S
Co110 O118 2.286 . S
Co110 O119 2.069 . S
Co110 O120 2.015 . S
Co110 O123 2.264 . S
Co111 O109 2.122 . S
Co111 O122 1.976 . S
Co111 O123 2.327 . S
Co111 O124 2.073 . S
H112 O109 0.980 . S
O113 Co105 2.073 . S
O113 C128 1.245 . S
O114 Co104 2.264 . S
O114 Co105 2.327 . S
O114 C128 1.257 . S
O115 Co105 1.976 . S
O115 C127 1.251 . S
O116 Co106 2.111 . S
O116 C127 1.274 . S
O117 Co106 2.143 1_655 S
O117 C130 1.246 . S
O118 Co110 2.286 . S
O118 C129 1.259 . S
O119 Co110 2.069 . S
O119 C129 1.289 . S
O120 Co110 2.015 . S
O120 C130 1.257 . S
O121 Co106 2.111 1_655 S
O121 C131 1.274 . S
O122 Co111 1.976 . S
O122 C131 1.251 . S
O123 Co110 2.264 . S
O123 Co111 2.327 . S
O123 C132 1.257 . S
O124 Co111 2.073 . S
O124 C132 1.245 . S
C125 O133 1.259 . S
C125 O134 1.289 . S
C126 O135 1.246 . S
C126 O136 1.257 . S
C127 O115 1.251 . S
C127 O116 1.274 . S
C128 O113 1.245 . S
C128 O114 1.257 . S
C129 O118 1.259 . S
C129 O119 1.289 . S
C130 O117 1.246 . S
C130 O120 1.257 . S
C131 O121 1.274 . S
C131 O122 1.251 . S
C132 O123 1.257 . S
C132 O124 1.245 . S
O133 Co104 2.286 . S
O133 C125 1.259 . S
O134 Co104 2.069 . S
O134 C125 1.289 . S
O135 Co106 2.143 . S
O135 C126 1.246 . S
O136 Co104 2.015 . S
O136 C126 1.257 . S
Co137 O140 2.042 . S
Co137 O147 2.264 . S
Co137 O166 2.286 . S
Co137 O167 2.069 . S
Co137 O169 2.015 . S
Co138 O140 2.122 . S
Co138 O146 2.073 . S
Co138 O147 2.327 . S
Co138 O148 1.976 . S
Co139 O140 2.087 1_545 S
Co139 O142 2.087 . S
Co139 O149 2.111 1_545 S
Co139 O150 2.143 . S
Co139 O154 2.111 . S
Co139 O168 2.143 1_545 S
O140 Co137 2.042 . S
O140 Co138 2.122 . S
O140 Co139 2.087 1_565 S
O140 H141 0.980 1_565 S
H141 O140 0.980 1_545 S
O142 Co139 2.087 . S
O142 Co143 2.042 . S
O142 Co144 2.122 . S
O142 H145 0.980 . S
Co143 O142 2.042 . S
Co143 O151 2.286 . S
Co143 O152 2.069 . S
Co143 O153 2.015 . S
Co143 O156 2.264 . S
Co144 O142 2.122 . S
Co144 O155 1.976 . S
Co144 O156 2.327 . S
Co144 O157 2.073 . S
H145 O142 0.980 . S
O146 Co138 2.073 . S
O146 C161 1.245 . S
O147 Co137 2.264 . S
O147 Co138 2.327 . S
O147 C161 1.257 . S
O148 Co138 1.976 . S
O148 C160 1.251 . S
O149 Co139 2.111 1_565 S
O149 C160 1.274 . S
O150 Co139 2.143 . S
O150 C163 1.246 . S
O151 Co143 2.286 . S
O151 C162 1.259 . S
O152 Co143 2.069 . S
O152 C162 1.289 . S
O153 Co143 2.015 . S
O153 C163 1.257 . S
O154 Co139 2.111 . S
O154 C164 1.274 . S
O155 Co144 1.976 . S
O155 C164 1.251 . S
O156 Co143 2.264 . S
O156 Co144 2.327 . S
O156 C165 1.257 . S
O157 Co144 2.073 . S
O157 C165 1.245 . S
C158 O166 1.259 . S
C158 O167 1.289 . S
C159 O168 1.246 . S
C159 O169 1.257 . S
C160 O148 1.251 . S
C160 O149 1.274 . S
C161 O146 1.245 . S
C161 O147 1.257 . S
C162 O151 1.259 . S
C162 O152 1.289 . S
C163 O150 1.246 . S
C163 O153 1.257 . S
C164 O154 1.274 . S
C164 O155 1.251 . S
C165 O156 1.257 . S
C165 O157 1.245 . S
O166 Co137 2.286 . S
O166 C158 1.259 . S
O167 Co137 2.069 . S
O167 C158 1.289 . S
O168 Co139 2.143 1_565 S
O168 C159 1.246 . S
O169 Co137 2.015 . S
O169 C159 1.257 . S
Co170 O173 2.042 . S
Co170 O180 2.264 . S
Co170 O199 2.286 . S
Co170 O200 2.069 . S
Co170 O202 2.015 . S
Co171 O173 2.122 . S
Co171 O179 2.073 . S
Co171 O180 2.327 . S
Co171 O181 1.976 . S
Co172 O173 2.087 . S
Co172 O175 2.087 1_554 S
Co172 O182 2.111 . S
Co172 O183 2.143 1_554 S
Co172 O187 2.111 1_554 S
Co172 O201 2.143 . S
O173 Co170 2.042 . S
O173 Co171 2.122 . S
O173 Co172 2.087 . S
O173 H174 0.980 . S
H174 O173 0.980 . S
O175 Co172 2.087 1_556 S
O175 Co176 2.042 . S
O175 Co177 2.122 . S
O175 H178 0.980 . S
Co176 O175 2.042 . S
Co176 O184 2.286 . S
Co176 O185 2.069 . S
Co176 O186 2.015 . S
Co176 O189 2.264 . S
Co177 O175 2.122 . S
Co177 O188 1.976 . S
Co177 O189 2.327 . S
Co177 O190 2.073 . S
H178 O175 0.980 . S
O179 Co171 2.073 . S
O179 C194 1.245 . S
O180 Co170 2.264 . S
O180 Co171 2.327 . S
O180 C194 1.257 . S
O181 Co171 1.976 . S
O181 C193 1.251 . S
O182 Co172 2.111 . S
O182 C193 1.274 . S
O183 Co172 2.143 1_556 S
O183 C196 1.246 . S
O184 Co176 2.286 . S
O184 C195 1.259 . S
O185 Co176 2.069 . S
O185 C195 1.289 . S
O186 Co176 2.015 . S
O186 C196 1.257 . S
O187 Co172 2.111 1_556 S
O187 C197 1.274 . S
O188 Co177 1.976 . S
O188 C197 1.251 . S
O189 Co176 2.264 . S
O189 Co177 2.327 . S
O189 C198 1.257 . S
O190 Co177 2.073 . S
O190 C198 1.245 . S
C191 O199 1.259 . S
C191 O200 1.289 . S
C192 O201 1.246 . S
C192 O202 1.257 . S
C193 O181 1.251 . S
C193 O182 1.274 . S
C194 O179 1.245 . S
C194 O180 1.257 . S
C195 O184 1.259 . S
C195 O185 1.289 . S
C196 O183 1.246 . S
C196 O186 1.257 . S
C197 O187 1.274 . S
C197 O188 1.251 . S
C198 O189 1.257 . S
C198 O190 1.245 . S
O199 Co170 2.286 . S
O199 C191 1.259 . S
O200 Co170 2.069 . S
O200 C191 1.289 . S
O201 Co172 2.143 . S
O201 C192 1.246 . S
O202 Co170 2.015 . S
O202 C192 1.257 . S
H203 C209 0.930 . S
H204 C212 0.930 . S
H205 C213 0.930 . S
H206 C214 0.930 . S
H207 C217 0.930 . S
H208 C218 0.930 . S
C209 H203 0.930 . S
C209 C210 1.355 . S
C209 C211 1.415 . S
C210 C209 1.355 . S
C210 C212 1.419 . S
C211 C209 1.415 . S
C211 C216 1.425 . S
C211 C218 1.409 . S
C212 H204 0.930 . S
C212 C210 1.419 . S
C212 C213 1.362 . S
C213 H205 0.930 . S
C213 C212 1.362 . S
C213 C216 1.409 . S
C214 H206 0.930 . S
C214 C215 1.355 . S
C214 C216 1.415 . S
C215 C214 1.355 . S
C215 C217 1.419 . S
C216 C211 1.425 . S
C216 C213 1.409 . S
C216 C214 1.415 . S
C217 H207 0.930 . S
C217 C215 1.419 . S
C217 C218 1.362 . S
C218 H208 0.930 . S
C218 C211 1.409 . S
C218 C217 1.362 . S
H219 C225 0.930 . S
H220 C228 0.930 . S
H221 C229 0.930 . S
H222 C230 0.930 . S
H223 C233 0.930 . S
H224 C234 0.930 . S
C225 H219 0.930 . S
C225 C226 1.355 . S
C225 C227 1.415 . S
C226 C225 1.355 . S
C226 C228 1.419 . S
C227 C225 1.415 . S
C227 C232 1.425 . S
C227 C234 1.409 . S
C228 H220 0.930 . S
C228 C226 1.419 . S
C228 C229 1.362 . S
C229 H221 0.930 . S
C229 C228 1.362 . S
C229 C232 1.409 . S
C230 H222 0.930 . S
C230 C231 1.355 . S
C230 C232 1.415 . S
C231 C230 1.355 . S
C231 C233 1.419 . S
C232 C227 1.425 . S
C232 C229 1.409 . S
C232 C230 1.415 . S
C233 H223 0.930 . S
C233 C231 1.419 . S
C233 C234 1.362 . S
C234 H224 0.930 . S
C234 C227 1.409 . S
C234 C233 1.362 . S
H235 C241 0.930 . S
H236 C244 0.930 . S
H237 C245 0.930 . S
H238 C246 0.930 . S
H239 C249 0.930 . S
H240 C250 0.930 . S
C241 H235 0.930 . S
C241 C242 1.355 . S
C241 C243 1.415 . S
C242 C241 1.355 . S
C242 C244 1.419 . S
C243 C241 1.415 . S
C243 C248 1.425 . S
C243 C250 1.409 . S
C244 H236 0.930 . S
C244 C242 1.419 . S
C244 C245 1.362 . S
C245 H237 0.930 . S
C245 C244 1.362 . S
C245 C248 1.409 . S
C246 H238 0.930 . S
C246 C247 1.355 . S
C246 C248 1.415 . S
C247 C246 1.355 . S
C247 C249 1.419 . S
C248 C243 1.425 . S
C248 C245 1.409 . S
C248 C246 1.415 . S
C249 H239 0.930 . S
C249 C247 1.419 . S
C249 C250 1.362 . S
C250 H240 0.930 . S
C250 C243 1.409 . S
C250 C249 1.362 . S
H251 C257 0.930 . S
H252 C260 0.930 . S
H253 C261 0.930 . S
H254 C262 0.930 . S
H255 C265 0.930 . S
H256 C266 0.930 . S
C257 H251 0.930 . S
C257 C258 1.355 . S
C257 C259 1.415 . S
C258 C257 1.355 . S
C258 C260 1.419 . S
C259 C257 1.415 . S
C259 C264 1.425 . S
C259 C266 1.409 . S
C260 H252 0.930 . S
C260 C258 1.419 . S
C260 C261 1.362 . S
C261 H253 0.930 . S
C261 C260 1.362 . S
C261 C264 1.409 . S
C262 H254 0.930 . S
C262 C263 1.355 . S
C262 C264 1.415 . S
C263 C262 1.355 . S
C263 C265 1.419 . S
C264 C259 1.425 . S
C264 C261 1.409 . S
C264 C262 1.415 . S
C265 H255 0.930 . S
C265 C263 1.419 . S
C265 C266 1.362 . S
C266 H256 0.930 . S
C266 C259 1.409 . S
C266 C265 1.362 . S
H267 C273 0.930 . S
H268 C276 0.930 . S
H269 C277 0.930 . S
H270 C278 0.930 . S
H271 C281 0.930 . S
H272 C282 0.930 . S
C273 H267 0.930 . S
C273 C274 1.355 . S
C273 C275 1.415 . S
C274 C273 1.355 . S
C274 C276 1.419 . S
C275 C273 1.415 . S
C275 C280 1.425 . S
C275 C282 1.409 . S
C276 H268 0.930 . S
C276 C274 1.419 . S
C276 C277 1.362 . S
C277 H269 0.930 . S
C277 C276 1.362 . S
C277 C280 1.409 . S
C278 H270 0.930 . S
C278 C279 1.355 . S
C278 C280 1.415 . S
C279 C278 1.355 . S
C279 C281 1.419 . S
C280 C275 1.425 . S
C280 C277 1.409 . S
C280 C278 1.415 . S
C281 H271 0.930 . S
C281 C279 1.419 . S
C281 C282 1.362 . S
C282 H272 0.930 . S
C282 C275 1.409 . S
C282 C281 1.362 . S
H283 C289 0.930 . S
H284 C292 0.930 . S
H285 C293 0.930 . S
H286 C294 0.930 . S
H287 C297 0.930 . S
H288 C298 0.930 . S
C289 H283 0.930 . S
C289 C290 1.355 . S
C289 C291 1.415 . S
C290 C289 1.355 . S
C290 C292 1.419 . S
C291 C289 1.415 . S
C291 C296 1.425 . S
C291 C298 1.409 . S
C292 H284 0.930 . S
C292 C290 1.419 . S
C292 C293 1.362 . S
C293 H285 0.930 . S
C293 C292 1.362 . S
C293 C296 1.409 . S
C294 H286 0.930 . S
C294 C295 1.355 . S
C294 C296 1.415 . S
C295 C294 1.355 . S
C295 C297 1.419 . S
C296 C291 1.425 . S
C296 C293 1.409 . S
C296 C294 1.415 . S
C297 H287 0.930 . S
C297 C295 1.419 . S
C297 C298 1.362 . S
C298 H288 0.930 . S
C298 C291 1.409 . S
C298 C297 1.362 . S
H299 C305 0.930 . S
H300 C308 0.930 . S
H301 C309 0.930 . S
H302 C310 0.930 . S
H303 C313 0.930 . S
H304 C314 0.930 . S
C305 H299 0.930 . S
C305 C306 1.355 . S
C305 C307 1.415 . S
C306 C305 1.355 . S
C306 C308 1.419 . S
C307 C305 1.415 . S
C307 C312 1.425 . S
C307 C314 1.409 . S
C308 H300 0.930 . S
C308 C306 1.419 . S
C308 C309 1.362 . S
C309 H301 0.930 . S
C309 C308 1.362 . S
C309 C312 1.409 . S
C310 H302 0.930 . S
C310 C311 1.355 . S
C310 C312 1.415 . S
C311 C310 1.355 . S
C311 C313 1.419 . S
C312 C307 1.425 . S
C312 C309 1.409 . S
C312 C310 1.415 . S
C313 H303 0.930 . S
C313 C311 1.419 . S
C313 C314 1.362 . S
C314 H304 0.930 . S
C314 C307 1.409 . S
C314 C313 1.362 . S
H315 C321 0.930 . S
H316 C324 0.930 . S
H317 C325 0.930 . S
H318 C326 0.930 . S
H319 C329 0.930 . S
H320 C330 0.930 . S
C321 H315 0.930 . S
C321 C322 1.355 . S
C321 C323 1.415 . S
C322 C321 1.355 . S
C322 C324 1.419 . S
C323 C321 1.415 . S
C323 C328 1.425 . S
C323 C330 1.409 . S
C324 H316 0.930 . S
C324 C322 1.419 . S
C324 C325 1.362 . S
C325 H317 0.930 . S
C325 C324 1.362 . S
C325 C328 1.409 . S
C326 H318 0.930 . S
C326 C327 1.355 . S
C326 C328 1.415 . S
C327 C326 1.355 . S
C327 C329 1.419 . S
C328 C323 1.425 . S
C328 C325 1.409 . S
C328 C326 1.415 . S
C329 H319 0.930 . S
C329 C327 1.419 . S
C329 C330 1.362 . S
C330 H320 0.930 . S
C330 C323 1.409 . S
C330 C329 1.362 . S
H331 C337 0.930 . S
H332 C340 0.930 . S
H333 C341 0.930 . S
H334 C342 0.930 . S
H335 C345 0.930 . S
H336 C346 0.930 . S
C337 H331 0.930 . S
C337 C338 1.355 . S
C337 C339 1.415 . S
C338 C337 1.355 . S
C338 C340 1.419 . S
C339 C337 1.415 . S
C339 C344 1.425 . S
C339 C346 1.409 . S
C340 H332 0.930 . S
C340 C338 1.419 . S
C340 C341 1.362 . S
C341 H333 0.930 . S
C341 C340 1.362 . S
C341 C344 1.409 . S
C342 H334 0.930 . S
C342 C343 1.355 . S
C342 C344 1.415 . S
C343 C342 1.355 . S
C343 C345 1.419 . S
C344 C339 1.425 . S
C344 C341 1.409 . S
C344 C342 1.415 . S
C345 H335 0.930 . S
C345 C343 1.419 . S
C345 C346 1.362 . S
C346 H336 0.930 . S
C346 C339 1.409 . S
C346 C345 1.362 . S
H347 C353 0.930 . S
H348 C356 0.930 . S
H349 C357 0.930 . S
H350 C358 0.930 . S
H351 C361 0.930 . S
H352 C362 0.930 . S
C353 H347 0.930 . S
C353 C354 1.355 . S
C353 C355 1.415 . S
C354 C353 1.355 . S
C354 C356 1.419 . S
C355 C353 1.415 . S
C355 C360 1.425 . S
C355 C362 1.409 . S
C356 H348 0.930 . S
C356 C354 1.419 . S
C356 C357 1.362 . S
C357 H349 0.930 . S
C357 C356 1.362 . S
C357 C360 1.409 . S
C358 H350 0.930 . S
C358 C359 1.355 . S
C358 C360 1.415 . S
C359 C358 1.355 . S
C359 C361 1.419 . S
C360 C355 1.425 . S
C360 C357 1.409 . S
C360 C358 1.415 . S
C361 H351 0.930 . S
C361 C359 1.419 . S
C361 C362 1.362 . S
C362 H352 0.930 . S
C362 C355 1.409 . S
C362 C361 1.362 . S
H363 C369 0.930 . S
H364 C372 0.930 . S
H365 C373 0.930 . S
H366 C374 0.930 . S
H367 C377 0.930 . S
H368 C378 0.930 . S
C369 H363 0.930 . S
C369 C370 1.355 . S
C369 C371 1.415 . S
C370 C369 1.355 . S
C370 C372 1.419 . S
C371 C369 1.415 . S
C371 C376 1.425 . S
C371 C378 1.409 . S
C372 H364 0.930 . S
C372 C370 1.419 . S
C372 C373 1.362 . S
C373 H365 0.930 . S
C373 C372 1.362 . S
C373 C376 1.409 . S
C374 H366 0.930 . S
C374 C375 1.355 . S
C374 C376 1.415 . S
C375 C374 1.355 . S
C375 C377 1.419 . S
C376 C371 1.425 . S
C376 C373 1.409 . S
C376 C374 1.415 . S
C377 H367 0.930 . S
C377 C375 1.419 . S
C377 C378 1.362 . S
C378 H368 0.930 . S
C378 C371 1.409 . S
C378 C377 1.362 . S
H379 C385 0.930 . S
H380 C388 0.930 . S
H381 C389 0.930 . S
H382 C390 0.930 . S
H383 C393 0.930 . S
H384 C394 0.930 . S
C385 H379 0.930 . S
C385 C386 1.355 . S
C385 C387 1.415 . S
C386 C385 1.355 . S
C386 C388 1.419 . S
C387 C385 1.415 . S
C387 C392 1.425 . S
C387 C394 1.409 . S
C388 H380 0.930 . S
C388 C386 1.419 . S
C388 C389 1.362 . S
C389 H381 0.930 . S
C389 C388 1.362 . S
C389 C392 1.409 . S
C390 H382 0.930 . S
C390 C391 1.355 . S
C390 C392 1.415 . S
C391 C390 1.355 . S
C391 C393 1.419 . S
C392 C387 1.425 . S
C392 C389 1.409 . S
C392 C390 1.415 . S
C393 H383 0.930 . S
C393 C391 1.419 . S
C393 C394 1.362 . S
C394 H384 0.930 . S
C394 C387 1.409 . S
C394 C393 1.362 . S
H395 C401 0.930 . S
H396 C404 0.930 . S
H397 C405 0.930 . S
H398 C406 0.930 . S
H399 C409 0.930 . S
H400 C410 0.930 . S
C401 H395 0.930 . S
C401 C402 1.355 . S
C401 C403 1.415 . S
C402 C401 1.355 . S
C402 C404 1.419 . S
C403 C401 1.415 . S
C403 C408 1.425 . S
C403 C410 1.409 . S
C404 H396 0.930 . S
C404 C402 1.419 . S
C404 C405 1.362 . S
C405 H397 0.930 . S
C405 C404 1.362 . S
C405 C408 1.409 . S
C406 H398 0.930 . S
C406 C407 1.355 . S
C406 C408 1.415 . S
C407 C406 1.355 . S
C407 C409 1.419 . S
C408 C403 1.425 . S
C408 C405 1.409 . S
C408 C406 1.415 . S
C409 H399 0.930 . S
C409 C407 1.419 . S
C409 C410 1.362 . S
C410 H400 0.930 . S
C410 C403 1.409 . S
C410 C409 1.362 . S
H411 C417 0.930 . S
H412 C420 0.930 . S
H413 C421 0.930 . S
H414 C422 0.930 . S
H415 C425 0.930 . S
H416 C426 0.930 . S
C417 H411 0.930 . S
C417 C418 1.355 . S
C417 C419 1.415 . S
C418 C417 1.355 . S
C418 C420 1.419 . S
C419 C417 1.415 . S
C419 C424 1.425 . S
C419 C426 1.409 . S
C420 H412 0.930 . S
C420 C418 1.419 . S
C420 C421 1.362 . S
C421 H413 0.930 . S
C421 C420 1.362 . S
C421 C424 1.409 . S
C422 H414 0.930 . S
C422 C423 1.355 . S
C422 C424 1.415 . S
C423 C422 1.355 . S
C423 C425 1.419 . S
C424 C419 1.425 . S
C424 C421 1.409 . S
C424 C422 1.415 . S
C425 H415 0.930 . S
C425 C423 1.419 . S
C425 C426 1.362 . S
C426 H416 0.930 . S
C426 C419 1.409 . S
C426 C425 1.362 . S
H427 C433 0.930 . S
H428 C436 0.930 . S
H429 C437 0.930 . S
H430 C438 0.930 . S
H431 C441 0.930 . S
H432 C442 0.930 . S
C433 H427 0.930 . S
C433 C434 1.355 . S
C433 C435 1.415 . S
C434 C433 1.355 . S
C434 C436 1.419 . S
C435 C433 1.415 . S
C435 C440 1.425 . S
C435 C442 1.409 . S
C436 H428 0.930 . S
C436 C434 1.419 . S
C436 C437 1.362 . S
C437 H429 0.930 . S
C437 C436 1.362 . S
C437 C440 1.409 . S
C438 H430 0.930 . S
C438 C439 1.355 . S
C438 C440 1.415 . S
C439 C438 1.355 . S
C439 C441 1.419 . S
C440 C435 1.425 . S
C440 C437 1.409 . S
C440 C438 1.415 . S
C441 H431 0.930 . S
C441 C439 1.419 . S
C441 C442 1.362 . S
C442 H432 0.930 . S
C442 C435 1.409 . S
C442 C441 1.362 . S
H443 C449 0.930 . S
H444 C452 0.930 . S
H445 C453 0.930 . S
H446 C454 0.930 . S
H447 C457 0.930 . S
H448 C458 0.930 . S
C449 H443 0.930 . S
C449 C450 1.355 . S
C449 C451 1.415 . S
C450 C449 1.355 . S
C450 C452 1.419 . S
C451 C449 1.415 . S
C451 C456 1.425 . S
C451 C458 1.409 . S
C452 H444 0.930 . S
C452 C450 1.419 . S
C452 C453 1.362 . S
C453 H445 0.930 . S
C453 C452 1.362 . S
C453 C456 1.409 . S
C454 H446 0.930 . S
C454 C455 1.355 . S
C454 C456 1.415 . S
C455 C454 1.355 . S
C455 C457 1.419 . S
C456 C451 1.425 . S
C456 C453 1.409 . S
C456 C454 1.415 . S
C457 H447 0.930 . S
C457 C455 1.419 . S
C457 C458 1.362 . S
C458 H448 0.930 . S
C458 C451 1.409 . S
C458 C457 1.362 . S
H459 C465 0.930 . S
H460 C468 0.930 . S
H461 C469 0.930 . S
H462 C470 0.930 . S
H463 C473 0.930 . S
H464 C474 0.930 . S
C465 H459 0.930 . S
C465 C466 1.355 . S
C465 C467 1.415 . S
C466 C465 1.355 . S
C466 C468 1.419 . S
C467 C465 1.415 . S
C467 C472 1.425 . S
C467 C474 1.409 . S
C468 H460 0.930 . S
C468 C466 1.419 . S
C468 C469 1.362 . S
C469 H461 0.930 . S
C469 C468 1.362 . S
C469 C472 1.409 . S
C470 H462 0.930 . S
C470 C471 1.355 . S
C470 C472 1.415 . S
C471 C470 1.355 . S
C471 C473 1.419 . S
C472 C467 1.425 . S
C472 C469 1.409 . S
C472 C470 1.415 . S
C473 H463 0.930 . S
C473 C471 1.419 . S
C473 C474 1.362 . S
C474 H464 0.930 . S
C474 C467 1.409 . S
C474 C473 1.362 . S
H475 C481 0.930 . S
H476 C484 0.930 . S
H477 C485 0.930 . S
H478 C486 0.930 . S
H479 C489 0.930 . S
H480 C490 0.930 . S
C481 H475 0.930 . S
C481 C482 1.355 . S
C481 C483 1.415 . S
C482 C481 1.355 . S
C482 C484 1.419 . S
C483 C481 1.415 . S
C483 C488 1.425 . S
C483 C490 1.409 . S
C484 H476 0.930 . S
C484 C482 1.419 . S
C484 C485 1.362 . S
C485 H477 0.930 . S
C485 C484 1.362 . S
C485 C488 1.409 . S
C486 H478 0.930 . S
C486 C487 1.355 . S
C486 C488 1.415 . S
C487 C486 1.355 . S
C487 C489 1.419 . S
C488 C483 1.425 . S
C488 C485 1.409 . S
C488 C486 1.415 . S
C489 H479 0.930 . S
C489 C487 1.419 . S
C489 C490 1.362 . S
C490 H480 0.930 . S
C490 C483 1.409 . S
C490 C489 1.362 . S
H491 C497 0.930 . S
H492 C500 0.930 . S
H493 C501 0.930 . S
H494 C502 0.930 . S
H495 C505 0.930 . S
H496 C506 0.930 . S
C497 H491 0.930 . S
C497 C498 1.355 . S
C497 C499 1.415 . S
C498 C497 1.355 . S
C498 C500 1.419 . S
C499 C497 1.415 . S
C499 C504 1.425 . S
C499 C506 1.409 . S
C500 H492 0.930 . S
C500 C498 1.419 . S
C500 C501 1.362 . S
C501 H493 0.930 . S
C501 C500 1.362 . S
C501 C504 1.409 . S
C502 H494 0.930 . S
C502 C503 1.355 . S
C502 C504 1.415 . S
C503 C502 1.355 . S
C503 C505 1.419 . S
C504 C499 1.425 . S
C504 C501 1.409 . S
C504 C502 1.415 . S
C505 H495 0.930 . S
C505 C503 1.419 . S
C505 C506 1.362 . S
C506 H496 0.930 . S
C506 C499 1.409 . S
C506 C505 1.362 . S
H507 C513 0.930 . S
H508 C516 0.930 . S
H509 C517 0.930 . S
H510 C518 0.930 . S
H511 C521 0.930 . S
H512 C522 0.930 . S
C513 H507 0.930 . S
C513 C514 1.355 . S
C513 C515 1.415 . S
C514 C513 1.355 . S
C514 C516 1.419 . S
C515 C513 1.415 . S
C515 C520 1.425 . S
C515 C522 1.409 . S
C516 H508 0.930 . S
C516 C514 1.419 . S
C516 C517 1.362 . S
C517 H509 0.930 . S
C517 C516 1.362 . S
C517 C520 1.409 . S
C518 H510 0.930 . S
C518 C519 1.355 . S
C518 C520 1.415 . S
C519 C518 1.355 . S
C519 C521 1.419 . S
C520 C515 1.425 . S
C520 C517 1.409 . S
C520 C518 1.415 . S
C521 H511 0.930 . S
C521 C519 1.419 . S
C521 C522 1.362 . S
C522 H512 0.930 . S
C522 C515 1.409 . S
C522 C521 1.362 . S
H523 C529 0.930 . S
H524 C532 0.930 . S
H525 C533 0.930 . S
H526 C534 0.930 . S
H527 C537 0.930 . S
H528 C538 0.930 . S
C529 H523 0.930 . S
C529 C530 1.355 . S
C529 C531 1.415 . S
C530 C529 1.355 . S
C530 C532 1.419 . S
C531 C529 1.415 . S
C531 C536 1.425 . S
C531 C538 1.409 . S
C532 H524 0.930 . S
C532 C530 1.419 . S
C532 C533 1.362 . S
C533 H525 0.930 . S
C533 C532 1.362 . S
C533 C536 1.409 . S
C534 H526 0.930 . S
C534 C535 1.355 . S
C534 C536 1.415 . S
C535 C534 1.355 . S
C535 C537 1.419 . S
C536 C531 1.425 . S
C536 C533 1.409 . S
C536 C534 1.415 . S
C537 H527 0.930 . S
C537 C535 1.419 . S
C537 C538 1.362 . S
C538 H528 0.930 . S
C538 C531 1.409 . S
C538 C537 1.362 . S
H539 C545 0.930 . S
H540 C548 0.930 . S
H541 C549 0.930 . S
H542 C550 0.930 . S
H543 C553 0.930 . S
H544 C554 0.930 . S
C545 H539 0.930 . S
C545 C546 1.355 . S
C545 C547 1.415 . S
C546 C545 1.355 . S
C546 C548 1.419 . S
C547 C545 1.415 . S
C547 C552 1.425 . S
C547 C554 1.409 . S
C548 H540 0.930 . S
C548 C546 1.419 . S
C548 C549 1.362 . S
C549 H541 0.930 . S
C549 C548 1.362 . S
C549 C552 1.409 . S
C550 H542 0.930 . S
C550 C551 1.355 . S
C550 C552 1.415 . S
C551 C550 1.355 . S
C551 C553 1.419 . S
C552 C547 1.425 . S
C552 C549 1.409 . S
C552 C550 1.415 . S
C553 H543 0.930 . S
C553 C551 1.419 . S
C553 C554 1.362 . S
C554 H544 0.930 . S
C554 C547 1.409 . S
C554 C553 1.362 . S
H555 C561 0.930 . S
H556 C564 0.930 . S
H557 C565 0.930 . S
H558 C566 0.930 . S
H559 C569 0.930 . S
H560 C570 0.930 . S
C561 H555 0.930 . S
C561 C562 1.355 . S
C561 C563 1.415 . S
C562 C561 1.355 . S
C562 C564 1.419 . S
C563 C561 1.415 . S
C563 C568 1.425 . S
C563 C570 1.409 . S
C564 H556 0.930 . S
C564 C562 1.419 . S
C564 C565 1.362 . S
C565 H557 0.930 . S
C565 C564 1.362 . S
C565 C568 1.409 . S
C566 H558 0.930 . S
C566 C567 1.355 . S
C566 C568 1.415 . S
C567 C566 1.355 . S
C567 C569 1.419 . S
C568 C563 1.425 . S
C568 C565 1.409 . S
C568 C566 1.415 . S
C569 H559 0.930 . S
C569 C567 1.419 . S
C569 C570 1.362 . S
C570 H560 0.930 . S
C570 C563 1.409 . S
C570 C569 1.362 . S
H571 C577 0.930 . S
H572 C580 0.930 . S
H573 C581 0.930 . S
H574 C582 0.930 . S
H575 C585 0.930 . S
H576 C586 0.930 . S
C577 H571 0.930 . S
C577 C578 1.355 . S
C577 C579 1.415 . S
C578 C577 1.355 . S
C578 C580 1.419 . S
C579 C577 1.415 . S
C579 C584 1.425 . S
C579 C586 1.409 . S
C580 H572 0.930 . S
C580 C578 1.419 . S
C580 C581 1.362 . S
C581 H573 0.930 . S
C581 C580 1.362 . S
C581 C584 1.409 . S
C582 H574 0.930 . S
C582 C583 1.355 . S
C582 C584 1.415 . S
C583 C582 1.355 . S
C583 C585 1.419 . S
C584 C579 1.425 . S
C584 C581 1.409 . S
C584 C582 1.415 . S
C585 H575 0.930 . S
C585 C583 1.419 . S
C585 C586 1.362 . S
C586 H576 0.930 . S
C586 C579 1.409 . S
C586 C585 1.362 . S
C215 C128 1.448 . S
C210 C9 1.543 . S
C231 C164 2.010 . S
C226 C22 2.099 . S
C247 C129 1.376 . S
C242 C30 1.318 . S
C263 C159 1.203 . S
C258 C47 1.180 . S
C279 C126 1.216 . S
C274 C61 1.235 . S
C290 C69 1.333 . S
C295 C162 1.354 . S
C306 C82 1.025 . S
C311 C131 0.968 . S
C327 C161 1.663 . S
C322 C99 1.668 . S
C343 C165 1.417 . S
C338 C4 1.476 . S
C359 C130 1.708 . S
C354 C21 1.735 . S
C375 C158 1.890 . S
C370 C34 1.902 . S
C391 C127 0.795 . S
C386 C48 0.854 . S
C407 C160 1.362 . S
C402 C60 1.379 . S
C418 C74 1.552 . S
C423 C125 1.534 . S
C434 C86 1.517 . S
C439 C163 1.444 . S
C455 C132 1.272 . S
C450 C95 1.255 . S
C471 C194 1.750 . S
C466 C8 1.914 . S
C482 C56 1.327 . S
C487 C197 1.332 . S
C503 C196 1.571 . S
C498 C73 1.639 . S
C514 C87 2.210 . S
C519 C195 2.207 . S
C535 C198 1.822 . S
C530 C100 1.921 . S
C546 C35 2.045 . S
C551 C192 1.975 . S
C567 C191 1.320 . S
C562 C43 1.313 . S
C578 C17 1.952 . S
C583 C193 1.854 . S
