# Generated by pormake.
# Topology ctn, (3,4)-cn, num edge types: 1
# Building blocks:
#     Node 0, Type 0, BuildingBlock: BETDAH_clean_linker_0, # of connection points: 3
#     Node 1, Type 0, BuildingBlock: BETDAH_clean_linker_0, # of connection points: 3
#     Node 2, Type 0, BuildingBlock: BETDAH_clean_linker_0, # of connection points: 3
#     Node 3, Type 0, BuildingBlock: BETDAH_clean_linker_0, # of connection points: 3
#     Node 4, Type 0, BuildingBlock: BETDAH_clean_linker_0, # of connection points: 3
#     Node 5, Type 0, BuildingBlock: BETDAH_clean_linker_0, # of connection points: 3
#     Node 6, Type 0, BuildingBlock: BETDAH_clean_linker_0, # of connection points: 3
#     Node 7, Type 0, BuildingBlock: BETDAH_clean_linker_0, # of connection points: 3
#     Node 8, Type 0, BuildingBlock: BETDAH_clean_linker_0, # of connection points: 3
#     Node 9, Type 0, BuildingBlock: BETDAH_clean_linker_0, # of connection points: 3
#     Node 10, Type 0, BuildingBlock: BETDAH_clean_linker_0, # of connection points: 3
#     Node 11, Type 0, BuildingBlock: BETDAH_clean_linker_0, # of connection points: 3
#     Node 12, Type 0, BuildingBlock: BETDAH_clean_linker_0, # of connection points: 3
#     Node 13, Type 0, BuildingBlock: BETDAH_clean_linker_0, # of connection points: 3
#     Node 14, Type 0, BuildingBlock: BETDAH_clean_linker_0, # of connection points: 3
#     Node 15, Type 0, BuildingBlock: BETDAH_clean_linker_0, # of connection points: 3
#     Node 16, Type 1, BuildingBlock: KUFVIS_clean_sbu_0, # of connection points: 4
#     Node 17, Type 1, BuildingBlock: KUFVIS_clean_sbu_0, # of connection points: 4
#     Node 18, Type 1, BuildingBlock: KUFVIS_clean_sbu_0, # of connection points: 4
#     Node 19, Type 1, BuildingBlock: KUFVIS_clean_sbu_0, # of connection points: 4
#     Node 20, Type 1, BuildingBlock: KUFVIS_clean_sbu_0, # of connection points: 4
#     Node 21, Type 1, BuildingBlock: KUFVIS_clean_sbu_0, # of connection points: 4
#     Node 22, Type 1, BuildingBlock: KUFVIS_clean_sbu_0, # of connection points: 4
#     Node 23, Type 1, BuildingBlock: KUFVIS_clean_sbu_0, # of connection points: 4
#     Node 24, Type 1, BuildingBlock: KUFVIS_clean_sbu_0, # of connection points: 4
#     Node 25, Type 1, BuildingBlock: KUFVIS_clean_sbu_0, # of connection points: 4
#     Node 26, Type 1, BuildingBlock: KUFVIS_clean_sbu_0, # of connection points: 4
#     Node 27, Type 1, BuildingBlock: KUFVIS_clean_sbu_0, # of connection points: 4
#     Edge 28, Type (0, 1), BuildingBlock: TEMPAE_clean_linker_10, # of connection points: 2
#     Edge 29, Type (0, 1), BuildingBlock: TEMPAE_clean_linker_10, # of connection points: 2
#     Edge 30, Type (0, 1), BuildingBlock: TEMPAE_clean_linker_10, # of connection points: 2
#     Edge 31, Type (0, 1), BuildingBlock: TEMPAE_clean_linker_10, # of connection points: 2
#     Edge 32, Type (0, 1), BuildingBlock: TEMPAE_clean_linker_10, # of connection points: 2
#     Edge 33, Type (0, 1), BuildingBlock: TEMPAE_clean_linker_10, # of connection points: 2
#     Edge 34, Type (0, 1), BuildingBlock: TEMPAE_clean_linker_10, # of connection points: 2
#     Edge 35, Type (0, 1), BuildingBlock: TEMPAE_clean_linker_10, # of connection points: 2
#     Edge 36, Type (0, 1), BuildingBlock: TEMPAE_clean_linker_10, # of connection points: 2
#     Edge 37, Type (0, 1), BuildingBlock: TEMPAE_clean_linker_10, # of connection points: 2
#     Edge 38, Type (0, 1), BuildingBlock: TEMPAE_clean_linker_10, # of connection points: 2
#     Edge 39, Type (0, 1), BuildingBlock: TEMPAE_clean_linker_10, # of connection points: 2
#     Edge 40, Type (0, 1), BuildingBlock: TEMPAE_clean_linker_10, # of connection points: 2
#     Edge 41, Type (0, 1), BuildingBlock: TEMPAE_clean_linker_10, # of connection points: 2
#     Edge 42, Type (0, 1), BuildingBlock: TEMPAE_clean_linker_10, # of connection points: 2
#     Edge 43, Type (0, 1), BuildingBlock: TEMPAE_clean_linker_10, # of connection points: 2
#     Edge 44, Type (0, 1), BuildingBlock: TEMPAE_clean_linker_10, # of connection points: 2
#     Edge 45, Type (0, 1), BuildingBlock: TEMPAE_clean_linker_10, # of connection points: 2
#     Edge 46, Type (0, 1), BuildingBlock: TEMPAE_clean_linker_10, # of connection points: 2
#     Edge 47, Type (0, 1), BuildingBlock: TEMPAE_clean_linker_10, # of connection points: 2
#     Edge 48, Type (0, 1), BuildingBlock: TEMPAE_clean_linker_10, # of connection points: 2
#     Edge 49, Type (0, 1), BuildingBlock: TEMPAE_clean_linker_10, # of connection points: 2
#     Edge 50, Type (0, 1), BuildingBlock: TEMPAE_clean_linker_10, # of connection points: 2
#     Edge 51, Type (0, 1), BuildingBlock: TEMPAE_clean_linker_10, # of connection points: 2
#     Edge 52, Type (0, 1), BuildingBlock: TEMPAE_clean_linker_10, # of connection points: 2
#     Edge 53, Type (0, 1), BuildingBlock: TEMPAE_clean_linker_10, # of connection points: 2
#     Edge 54, Type (0, 1), BuildingBlock: TEMPAE_clean_linker_10, # of connection points: 2
#     Edge 55, Type (0, 1), BuildingBlock: TEMPAE_clean_linker_10, # of connection points: 2
#     Edge 56, Type (0, 1), BuildingBlock: TEMPAE_clean_linker_10, # of connection points: 2
#     Edge 57, Type (0, 1), BuildingBlock: TEMPAE_clean_linker_10, # of connection points: 2
#     Edge 58, Type (0, 1), BuildingBlock: TEMPAE_clean_linker_10, # of connection points: 2
#     Edge 59, Type (0, 1), BuildingBlock: TEMPAE_clean_linker_10, # of connection points: 2
#     Edge 60, Type (0, 1), BuildingBlock: TEMPAE_clean_linker_10, # of connection points: 2
#     Edge 61, Type (0, 1), BuildingBlock: TEMPAE_clean_linker_10, # of connection points: 2
#     Edge 62, Type (0, 1), BuildingBlock: TEMPAE_clean_linker_10, # of connection points: 2
#     Edge 63, Type (0, 1), BuildingBlock: TEMPAE_clean_linker_10, # of connection points: 2
#     Edge 64, Type (0, 1), BuildingBlock: TEMPAE_clean_linker_10, # of connection points: 2
#     Edge 65, Type (0, 1), BuildingBlock: TEMPAE_clean_linker_10, # of connection points: 2
#     Edge 66, Type (0, 1), BuildingBlock: TEMPAE_clean_linker_10, # of connection points: 2
#     Edge 67, Type (0, 1), BuildingBlock: TEMPAE_clean_linker_10, # of connection points: 2
#     Edge 68, Type (0, 1), BuildingBlock: TEMPAE_clean_linker_10, # of connection points: 2
#     Edge 69, Type (0, 1), BuildingBlock: TEMPAE_clean_linker_10, # of connection points: 2
#     Edge 70, Type (0, 1), BuildingBlock: TEMPAE_clean_linker_10, # of connection points: 2
#     Edge 71, Type (0, 1), BuildingBlock: TEMPAE_clean_linker_10, # of connection points: 2
#     Edge 72, Type (0, 1), BuildingBlock: TEMPAE_clean_linker_10, # of connection points: 2
#     Edge 73, Type (0, 1), BuildingBlock: TEMPAE_clean_linker_10, # of connection points: 2
#     Edge 74, Type (0, 1), BuildingBlock: TEMPAE_clean_linker_10, # of connection points: 2
#     Edge 75, Type (0, 1), BuildingBlock: TEMPAE_clean_linker_10, # of connection points: 2
# Relax obj value: 0.060
# Max RMSD: 0.158
# Mean RMSD: 0.106
data_MOF--net-ctn--node1-KUFVIS_clean_sbu_0--node2-BETDAH_clean_linker_0--edge1-TEMPAE_clean_linker_10
_symmetry_space_group_name_H-M    P1
_symmetry_Int_Tables_number       1
_symmetry_cell_setting            triclinic
loop_
_symmetry_equiv_pos_as_xyz
'x, y, z'
_cell_length_a     53.838482
_cell_length_b     53.522011
_cell_length_c     54.691166
_cell_angle_alpha  99.834718
_cell_angle_beta   90.729199
_cell_angle_gamma 96.355517
loop_
_atom_site_label
_atom_site_type_symbol
_atom_site_fract_x
_atom_site_fract_y
_atom_site_fract_z
_atom_type_partial_charge
H0 H 0.08473 1.00502 0.09899 0.0
H1 H 0.09635 0.05461 0.0446 0.0
H2 H 0.04065 0.06722 0.09956 0.0
C3 C 0.07998 0.02117 0.09104 0.0
C4 C 0.06101 0.03513 0.10151 0.0
C5 C 0.09279 0.02791 0.07038 0.0
C6 C 0.08658 0.04919 0.06042 0.0
C7 C 0.06763 0.06331 0.07103 0.0
C8 C 0.05508 0.05612 0.09139 0.0
N9 N 0.06068 0.08522 0.06248 0.0
C10 C 0.06737 0.09354 0.0405 0.0
H11 H 0.3475 0.66959 0.2297 0.0
H12 H 0.39343 0.73365 0.21022 0.0
H13 H 0.3247 0.70488 0.16915 0.0
C14 C 0.35098 0.68391 0.21798 0.0
C15 C 0.33354 0.68484 0.19883 0.0
C16 C 0.37259 0.70144 0.22249 0.0
C17 C 0.37696 0.71977 0.20704 0.0
C18 C 0.35987 0.72126 0.18796 0.0
C19 C 0.3379 0.70394 0.18398 0.0
N20 N 0.36614 0.74014 0.17301 0.0
C21 C 0.34994 0.74985 0.15797 0.0
H22 H 0.03206 0.45234 0.06239 0.0
H23 H 1.00383 0.52369 0.05782 0.0
H24 H 0.99955 0.46462 0.99368 0.0
C25 C 0.02289 0.4642 0.05175 0.0
C26 C 0.01586 0.45494 0.0267 0.0
C27 C 0.01896 0.48905 0.06304 0.0
C28 C 0.0067 0.50443 0.0494 0.0
C29 C 0.99921 0.49521 0.02446 0.0
C30 C 1.00438 0.47091 0.01322 0.0
N31 N 0.98858 0.51061 0.00935 0.0
C32 C 0.97013 0.52638 0.01655 0.0
H33 H 0.76678 0.83478 0.17607 0.0
H34 H 0.68851 0.8101 0.18092 0.0
H35 H 0.72324 0.87376 0.23304 0.0
C36 C 0.74927 0.83672 0.18536 0.0
C37 C 0.748 0.85628 0.20593 0.0
C38 C 0.72808 0.81973 0.17635 0.0
C39 C 0.70522 0.82253 0.18806 0.0
C40 C 0.70359 0.84208 0.20836 0.0
C41 C 0.72489 0.85879 0.21729 0.0
N42 N 0.68002 0.84674 0.21807 0.0
C43 C 0.67006 0.83526 0.23724 0.0
H44 H 0.08576 0.02406 0.47069 0.0
H45 H 0.08754 0.97671 0.52674 0.0
H46 H 0.02403 0.96717 0.47624 0.0
C47 C 0.07676 0.00899 0.4796 0.0
C48 C 0.05336 0.99643 0.47058 0.0
C49 C 0.08905 1.00225 0.49994 0.0
C50 C 0.07813 0.98198 0.51108 0.0
C51 C 0.05457 0.96922 0.50218 0.0
C52 C 0.04242 0.97675 0.48231 0.0
N53 N 0.04182 0.94901 0.51255 0.0
C54 C 0.04995 0.93792 0.53197 0.0
H55 H 0.26646 0.69288 0.86334 0.0
H56 H 0.20084 0.7071 0.8243 0.0
H57 H 0.24595 0.65076 0.79022 0.0
C58 C 0.25389 0.68863 0.8472 0.0
C59 C 0.25862 0.66947 0.82728 0.0
C60 C 0.2333 0.70269 0.84623 0.0
C61 C 0.21704 0.69693 0.82512 0.0
C62 C 0.22167 0.67807 0.80505 0.0
C63 C 0.24237 0.66468 0.80624 0.0
N64 N 0.20618 0.67205 0.78315 0.0
C65 C 0.1864 0.68511 0.77784 0.0
H66 H 0.96557 0.55899 0.52935 0.0
H67 H 0.03085 0.56286 0.48498 0.0
H68 H 0.97925 0.49446 0.47455 0.0
C69 C 0.97678 0.55002 0.5148 0.0
C70 C 0.969 0.52513 0.50234 0.0
C71 C 0.99914 0.56361 0.50891 0.0
C72 C 0.01342 0.55265 0.48936 0.0
C73 C 0.00595 0.52761 0.47687 0.0
C74 C 0.98417 0.51401 0.48376 0.0
N75 N 0.02078 0.51447 0.45878 0.0
C76 C 0.03548 0.52539 0.44179 0.0
H77 H 0.85814 0.7787 0.82869 0.0
H78 H 0.82908 0.84305 0.80489 0.0
H79 H 0.79474 0.80939 0.86401 0.0
C80 C 0.84474 0.79256 0.83033 0.0
C81 C 0.82633 0.79191 0.84817 0.0
C82 C 0.84579 0.8108 0.81444 0.0
C83 C 0.82837 0.82893 0.81696 0.0
C84 C 0.80984 0.82832 0.83492 0.0
C85 C 0.80901 0.80977 0.85022 0.0
N86 N 0.79167 0.84585 0.83871 0.0
C87 C 0.787 0.86423 0.82456 0.0
H88 H 0.3632 0.29024 0.33671 0.0
H89 H 0.32841 0.34766 0.30607 0.0
H90 H 0.29246 0.31161 0.36276 0.0
C91 C 0.34827 0.30222 0.33639 0.0
C92 C 0.32804 0.29913 0.35196 0.0
C93 C 0.3486 0.31947 0.31944 0.0
C94 C 0.32845 0.33428 0.31885 0.0
C95 C 0.30824 0.33145 0.33464 0.0
C96 C 0.30818 0.31379 0.3508 0.0
N97 N 0.2871 0.34521 0.33471 0.0
C98 C 0.28396 0.36553 0.32254 0.0
H99 H 0.53033 0.95548 0.565 0.0
H100 H 0.50779 0.02933 0.56041 0.0
H101 H 0.4997 0.97012 0.49636 0.0
C102 C 0.52218 0.96805 0.55439 0.0
C103 C 0.51478 0.95921 0.52936 0.0
C104 C 0.5201 0.99337 0.56566 0.0
C105 C 0.50919 0.00969 0.55205 0.0
C106 C 0.50127 1.00092 0.52717 0.0
C107 C 0.50468 0.97608 0.51591 0.0
N108 N 0.49245 0.01742 0.51215 0.0
C109 C 0.47296 0.03215 0.51826 0.0
H110 H 0.27272 0.34372 0.67257 0.0
H111 H 0.20076 0.31388 0.6958 0.0
H112 H 0.23621 0.38632 0.7326 0.0
C113 C 0.25734 0.3451 0.6851 0.0
C114 C 0.25773 0.3668 0.70368 0.0
C115 C 0.23722 0.32549 0.68217 0.0
C116 C 0.21661 0.32848 0.69769 0.0
C117 C 0.21617 0.35085 0.71532 0.0
C118 C 0.23665 0.36969 0.71827 0.0
N119 N 0.19471 0.35585 0.72921 0.0
C120 C 0.1821 0.33889 0.74262 0.0
H121 H 0.85418 0.16504 0.73019 0.0
H122 H 0.8999 0.22928 0.71075 0.0
H123 H 0.83078 0.20092 0.67029 0.0
C124 C 0.85755 0.17944 0.71853 0.0
C125 C 0.83991 0.18057 0.69963 0.0
C126 C 0.87922 0.19692 0.72293 0.0
C127 C 0.88342 0.21541 0.70762 0.0
C128 C 0.8661 0.21711 0.68883 0.0
C129 C 0.84413 0.19981 0.68493 0.0
N130 N 0.872 0.23626 0.6741 0.0
C131 C 0.85531 0.24615 0.65973 0.0
H132 H 0.59099 0.51687 0.5988 0.0
H133 H 0.58514 0.53391 0.52478 0.0
H134 H 0.52798 0.55171 0.57659 0.0
C135 C 0.58148 0.52526 0.58517 0.0
C136 C 0.55862 0.53494 0.59093 0.0
C137 C 0.59114 0.52452 0.56126 0.0
C138 C 0.57819 0.5347 0.54338 0.0
C139 C 0.55553 0.54468 0.54911 0.0
C140 C 0.54579 0.54446 0.57264 0.0
N141 N 0.54051 0.55191 0.53064 0.0
C142 C 0.54833 0.57071 0.51686 0.0
H143 H 0.58375 0.52188 0.97335 0.0
H144 H 0.58243 0.47243 0.02775 0.0
H145 H 0.51991 0.46674 0.9766 0.0
C146 C 0.57397 0.50683 0.98172 0.0
C147 C 0.55034 0.49538 0.97219 0.0
C148 C 0.58552 0.49894 1.00185 0.0
C149 C 0.57357 0.47861 0.01228 0.0
C150 C 0.5498 0.46691 1.00284 0.0
C151 C 0.53843 0.47555 0.98315 0.0
N152 N 0.53616 0.44658 0.01238 0.0
C153 C 0.54309 0.43502 0.03195 0.0
H154 H 0.76986 0.19571 0.36313 0.0
H155 H 0.70735 0.21525 0.32313 0.0
H156 H 0.74811 0.15467 0.28987 0.0
C157 C 0.75755 0.19239 0.34681 0.0
C158 C 0.76113 0.17263 0.32703 0.0
C159 C 0.73843 0.20821 0.34549 0.0
C160 C 0.72242 0.20362 0.32421 0.0
C161 C 0.72593 0.18413 0.3043 0.0
C162 C 0.74529 0.16906 0.30578 0.0
N163 N 0.71071 0.17915 0.28224 0.0
C164 C 0.69062 0.19212 0.27766 0.0
H165 H 0.46808 0.05835 0.033 0.0
H166 H 0.5252 0.0651 0.97922 0.0
H167 H 0.46862 1.00065 0.96791 0.0
C168 C 0.47625 0.05093 0.01562 0.0
C169 C 0.46545 0.02782 1.0015 0.0
C170 C 0.49772 0.06456 0.00776 0.0
C171 C 0.50851 0.0549 0.98522 0.0
C172 C 0.49808 0.03142 0.97115 0.0
C173 C 0.4767 0.01831 0.97934 0.0
N174 N 0.50858 0.01948 0.94908 0.0
C175 C 0.52709 0.03015 0.93525 0.0
Mn176 Mn 0.26437 0.88105 0.01775 0.0
Mn177 Mn 0.26117 0.90304 0.96362 0.0
C178 C 0.24439 0.85547 0.98268 0.0
C179 C 0.28318 0.85923 0.04536 0.0
C180 C 0.22908 0.9196 0.00721 0.0
O181 O 0.29256 0.91074 0.02256 0.0
O182 O 0.28877 0.92291 0.98534 0.0
C183 C 0.30949 0.88946 0.94302 0.0
N184 N 0.28412 0.88803 0.94078 0.0
C185 C 0.28414 0.86517 0.8989 0.0
C186 C 0.31027 0.86645 0.90071 0.0
C187 C 0.32297 0.8785 0.92294 0.0
C188 C 0.27169 0.87615 0.91963 0.0
H189 H 0.31936 0.89897 0.95995 0.0
C190 C 0.29964 0.92488 0.00668 0.0
O191 O 0.26782 0.87579 0.05283 0.0
O192 O 0.28846 0.85616 0.02202 0.0
N193 N 0.23554 0.88503 0.94069 0.0
C194 C 0.21026 0.88381 0.94265 0.0
C195 C 0.19472 0.87156 0.92232 0.0
C196 C 0.20536 0.86109 0.90011 0.0
C197 C 0.23145 0.86251 0.8986 0.0
C198 C 0.24595 0.87464 0.91956 0.0
H199 H 0.20202 0.89217 0.95957 0.0
O200 O 0.23846 0.85161 0.00477 0.0
O201 O 0.26125 0.87457 0.98182 0.0
O202 O 0.23785 0.90616 0.02167 0.0
O203 O 0.23646 0.91968 0.98516 0.0
C204 C 0.24364 0.85238 0.87713 0.0
C205 C 0.26994 0.85341 0.87737 0.0
H206 H 0.32074 0.85815 0.88522 0.0
H207 H 0.34313 0.87952 0.92451 0.0
H208 H 0.17461 0.87042 0.92367 0.0
H209 H 0.19332 0.85185 0.88439 0.0
H210 H 0.23295 0.84364 0.86037 0.0
H211 H 0.27905 0.84506 0.86091 0.0
Mn212 Mn 0.16949 0.52962 0.24994 0.0
Mn213 Mn 0.14857 0.58767 0.25699 0.0
C214 C 0.19062 0.56203 0.2322 0.0
C215 C 0.19292 0.49989 0.2637 0.0
C216 C 0.12512 0.54208 0.22007 0.0
O217 O 0.1456 0.52879 0.27876 0.0
O218 O 0.13464 0.56858 0.28273 0.0
C219 C 0.17395 0.61003 0.30539 0.0
N220 N 0.16921 0.6112 0.28111 0.0
C221 C 0.19297 0.65255 0.28517 0.0
C222 C 0.19802 0.65187 0.31025 0.0
C223 C 0.1886 0.63044 0.32036 0.0
C224 C 0.17855 0.63151 0.2711 0.0
H225 H 0.16656 0.59369 0.31328 0.0
C226 C 0.13403 0.54692 0.28976 0.0
O227 O 0.1738 0.49284 0.24844 0.0
O228 O 0.19821 0.52426 0.27138 0.0
N229 N 0.16058 0.6088 0.23379 0.0
C230 C 0.15509 0.60586 0.20901 0.0
C231 C 0.16352 0.62542 0.19595 0.0
C232 C 0.17707 0.64797 0.20859 0.0
C233 C 0.18253 0.65054 0.23409 0.0
C234 C 0.17376 0.63036 0.24609 0.0
H235 H 0.14425 0.58878 0.19931 0.0
O236 O 0.19332 0.53827 0.22406 0.0
O237 O 0.17607 0.56626 0.25093 0.0
O238 O 0.14006 0.52653 0.22495 0.0
O239 O 0.12624 0.56513 0.23138 0.0
C240 C 0.19623 0.67237 0.24812 0.0
C241 C 0.20171 0.67325 0.27357 0.0
H242 H 0.20919 0.66764 0.32189 0.0
H243 H 0.19247 0.62973 0.33968 0.0
H244 H 0.15932 0.62327 0.17625 0.0
H245 H 0.18319 0.66317 0.19852 0.0
H246 H 0.20276 0.68857 0.23953 0.0
H247 H 0.21266 0.68994 0.28403 0.0
Mn248 Mn 0.78227 0.63991 0.00671 0.0
Mn249 Mn 0.7299 0.65401 0.97962 0.0
C250 C 0.74427 0.61549 0.01007 0.0
C251 C 0.81901 0.62013 0.00717 0.0
C252 C 0.7505 0.68228 0.02928 0.0
O253 O 0.7967 0.66272 0.98267 0.0
O254 O 0.76041 0.67257 0.96836 0.0
C255 C 0.74022 0.6289 0.92877 0.0
N256 N 0.72449 0.6322 0.94807 0.0
C257 C 0.69089 0.60547 0.92392 0.0
C258 C 0.7067 0.60181 0.90375 0.0
C259 C 0.73153 0.61342 0.90625 0.0
C260 C 0.70079 0.62061 0.94606 0.0
H261 H 0.7592 0.63811 0.93051 0.0
C262 C 0.78426 0.6748 0.96955 0.0
O263 O 0.81591 0.64077 0.0225 0.0
O264 O 0.80095 0.61121 0.99096 0.0
N265 N 0.69811 0.63848 0.98772 0.0
C266 C 0.68518 0.64445 0.00876 0.0
C267 C 0.65976 0.63527 0.00904 0.0
C268 C 0.64789 0.62002 0.98773 0.0
C269 C 0.66148 0.61431 0.96622 0.0
C270 C 0.68665 0.62438 0.9669 0.0
H271 H 0.69403 0.65665 0.02502 0.0
O272 O 0.76278 0.61645 0.02575 0.0
O273 O 0.74854 0.62843 0.99199 0.0
O274 O 0.77005 0.67076 0.02913 0.0
O275 O 0.73369 0.67704 0.01194 0.0
C276 C 0.6509 0.59949 0.94398 0.0
C277 C 0.66567 0.59486 0.9229 0.0
H278 H 0.69997 0.59015 0.88625 0.0
H279 H 0.74385 0.61069 0.89078 0.0
H280 H 0.64926 0.64016 0.02558 0.0
H281 H 0.62823 0.61311 0.98793 0.0
H282 H 0.63148 0.59143 0.94292 0.0
H283 H 0.65742 0.58321 0.90599 0.0
Mn284 Mn 0.91911 0.02315 0.28425 0.0
Mn285 Mn 0.94081 0.96609 0.28268 0.0
C286 C 0.89635 0.98612 0.2636 0.0
C287 C 0.89614 0.05597 0.30164 0.0
C288 C 0.95975 1.00305 0.24942 0.0
O289 O 0.94497 0.03101 0.31283 0.0
O290 O 0.9592 0.99247 0.3085 0.0
C291 C 0.9238 0.95738 0.33216 0.0
N292 N 0.92423 0.94939 0.30716 0.0
C293 C 0.90045 0.90933 0.31024 0.0
C294 C 0.8998 0.91709 0.33602 0.0
C295 C 0.91143 0.94127 0.34701 0.0
C296 C 0.91278 0.92633 0.29637 0.0
H297 H 0.93287 0.97585 0.34072 0.0
C298 C 0.95958 0.01578 0.31903 0.0
O299 O 0.91413 0.05979 0.28667 0.0
O300 O 0.89209 0.03332 0.30731 0.0
N301 N 0.92484 0.93839 0.25895 0.0
C302 C 0.92636 0.93421 0.23376 0.0
C303 C 0.91573 0.91086 0.21992 0.0
C304 C 0.90401 0.89193 0.23214 0.0
C305 C 0.90248 0.89674 0.25806 0.0
C306 C 0.9134 0.92037 0.27086 0.0
H307 H 0.93572 0.94855 0.22432 0.0
O308 O 0.89334 0.00812 0.25777 0.0
O309 O 0.91264 0.9863 0.28143 0.0
O310 O 0.94681 0.02073 0.2587 0.0
O311 O 0.95853 0.98148 0.25658 0.0
C312 C 0.89068 0.87898 0.27173 0.0
C313 C 0.88939 0.88539 0.29776 0.0
H314 H 0.89041 0.90465 0.34755 0.0
H315 H 0.91099 0.94742 0.36689 0.0
H316 H 0.91684 0.90733 0.1999 0.0
H317 H 0.89625 0.87377 0.22142 0.0
H318 H 0.88235 0.8604 0.2624 0.0
H319 H 0.87991 0.87173 0.308 0.0
Mn320 Mn 0.28516 0.14633 0.51025 0.0
Mn321 Mn 0.23376 0.16299 0.48339 0.0
C322 C 0.24677 0.12206 0.51178 0.0
C323 C 0.32167 0.12608 0.50984 0.0
C324 C 0.25414 0.18855 0.53411 0.0
O325 O 0.30036 0.17094 0.48808 0.0
O326 O 0.2647 0.1809 0.47239 0.0
C327 C 0.24323 0.13869 0.43206 0.0
N328 N 0.22768 0.142 0.4515 0.0
C329 C 0.19336 0.11685 0.4271 0.0
C330 C 0.20896 0.11318 0.40677 0.0
C331 C 0.23406 0.124 0.40932 0.0
C332 C 0.20371 0.13118 0.44943 0.0
H333 H 0.26241 0.14733 0.43386 0.0
C334 C 0.28851 0.18311 0.47452 0.0
O335 O 0.31842 0.14587 0.52624 0.0
O336 O 0.30389 0.11829 0.49304 0.0
N337 N 0.20169 0.14808 0.49142 0.0
C338 C 0.18913 0.15365 0.51277 0.0
C339 C 0.16355 0.14515 0.51311 0.0
C340 C 0.15114 0.13107 0.4915 0.0
C341 C 0.16443 0.12552 0.46978 0.0
C342 C 0.18979 0.13485 0.47044 0.0
H343 H 0.19843 0.16504 0.52923 0.0
O344 O 0.26503 0.12151 0.5273 0.0
O345 O 0.25161 0.13626 0.49476 0.0
O346 O 0.27275 0.17577 0.53433 0.0
O347 O 0.23822 0.18547 0.51608 0.0
C348 C 0.15339 0.11155 0.44735 0.0
C349 C 0.16791 0.10699 0.42609 0.0
H350 H 0.20187 0.10212 0.38912 0.0
H351 H 0.24623 0.12126 0.39372 0.0
H352 H 0.15334 0.14968 0.5299 0.0
H353 H 0.13133 0.12487 0.4917 0.0
H354 H 0.1338 0.10406 0.44631 0.0
H355 H 0.1593 0.09597 0.40903 0.0
Mn356 Mn 0.42708 0.53334 0.78313 0.0
Mn357 Mn 0.44918 0.4762 0.77903 0.0
C358 C 0.40525 0.49714 0.75996 0.0
C359 C 0.40299 0.56471 0.80162 0.0
C360 C 0.46894 0.51578 0.74868 0.0
O361 O 0.45206 0.53972 0.81248 0.0
O362 O 0.46631 0.50116 0.80677 0.0
C363 C 0.43024 0.46362 0.82661 0.0
N364 N 0.43169 0.45739 0.8015 0.0
C365 C 0.40796 0.41652 0.80115 0.0
C366 C 0.40626 0.42245 0.82701 0.0
C367 C 0.41735 0.44617 0.83978 0.0
C368 C 0.42079 0.43479 0.789 0.0
H369 H 0.43889 0.48173 0.83654 0.0
C370 C 0.46628 0.52401 0.81842 0.0
O371 O 0.4214 0.56999 0.78757 0.0
O372 O 0.39926 0.54148 0.80584 0.0
N373 N 0.43434 0.44977 0.75334 0.0
C374 C 0.43689 0.44741 0.72833 0.0
C375 C 0.42674 0.42482 0.71282 0.0
C376 C 0.4145 0.40477 0.72323 0.0
C377 C 0.41203 0.40767 0.74903 0.0
C378 C 0.42244 0.43064 0.76352 0.0
H379 H 0.44671 0.46259 0.72028 0.0
O380 O 0.4022 0.51965 0.75548 0.0
O381 O 0.42096 0.49634 0.77802 0.0
O382 O 0.45546 0.53287 0.75824 0.0
O383 O 0.46784 0.49379 0.75495 0.0
C384 C 0.39977 0.38864 0.76095 0.0
C385 C 0.39747 0.39318 0.78695 0.0
H386 H 0.39645 0.40897 0.83724 0.0
H387 H 0.4161 0.45091 0.85973 0.0
H388 H 0.42863 0.42274 0.69293 0.0
H389 H 0.40707 0.38721 0.71124 0.0
H390 H 0.39188 0.37049 0.75029 0.0
H391 H 0.38764 0.37856 0.79584 0.0
Mn392 Mn 0.76777 0.37995 0.52334 0.0
Mn393 Mn 0.76962 0.407 0.47184 0.0
C394 C 0.7499 0.35743 0.48603 0.0
C395 C 0.78451 0.35575 0.55003 0.0
C396 C 0.73469 0.42076 0.51375 0.0
O397 O 0.79619 0.40906 0.53185 0.0
O398 O 0.79607 0.42496 0.49613 0.0
C399 C 0.81878 0.39365 0.45346 0.0
N400 N 0.79363 0.39289 0.44973 0.0
C401 C 0.79585 0.37194 0.40738 0.0
C402 C 0.82179 0.37254 0.41073 0.0
C403 C 0.83328 0.38332 0.43392 0.0
C404 C 0.78235 0.38231 0.4276 0.0
H405 H 0.82772 0.40213 0.47119 0.0
C406 C 0.8048 0.42476 0.51797 0.0
O407 O 0.76869 0.3718 0.55759 0.0
O408 O 0.79114 0.35429 0.52715 0.0
N409 N 0.74517 0.3911 0.44669 0.0
C410 C 0.71981 0.39041 0.44711 0.0
C411 C 0.70536 0.37935 0.42563 0.0
C412 C 0.71717 0.36952 0.4039 0.0
C413 C 0.74331 0.37047 0.40395 0.0
C414 C 0.75668 0.38143 0.42597 0.0
H415 H 0.71069 0.39825 0.46369 0.0
O416 O 0.74233 0.35164 0.50703 0.0
O417 O 0.76729 0.37655 0.48757 0.0
O418 O 0.74137 0.40527 0.52722 0.0
O419 O 0.74415 0.42288 0.49285 0.0
C420 C 0.75662 0.36094 0.38304 0.0
C421 C 0.78284 0.36139 0.38482 0.0
H422 H 0.83305 0.36468 0.39568 0.0
H423 H 0.85328 0.38382 0.43667 0.0
H424 H 0.6852 0.3786 0.42577 0.0
H425 H 0.70598 0.36114 0.38732 0.0
H426 H 0.74685 0.35307 0.36553 0.0
H427 H 0.79279 0.35351 0.36875 0.0
Mn428 Mn 0.67287 0.02837 0.75096 0.0
Mn429 Mn 0.65384 0.08728 0.75788 0.0
C430 C 0.69491 0.06012 0.73302 0.0
C431 C 0.69549 0.99797 0.76465 0.0
C432 C 0.62907 0.04217 0.72123 0.0
O433 O 0.64902 0.0284 0.77994 0.0
O434 O 0.63934 0.06865 0.78363 0.0
C435 C 0.67966 0.10903 0.8062 0.0
N436 N 0.67503 0.1103 0.78193 0.0
C437 C 0.6996 0.15122 0.78597 0.0
C438 C 0.70457 0.15043 0.81104 0.0
C439 C 0.69468 0.12916 0.82115 0.0
C440 C 0.68481 0.13044 0.77191 0.0
H441 H 0.6719 0.09282 0.8141 0.0
C442 C 0.63802 0.04703 0.79082 0.0
O443 O 0.67621 0.99136 0.74954 0.0
O444 O 0.70134 0.02228 0.77229 0.0
N445 N 0.66648 0.10806 0.73463 0.0
C446 C 0.66098 0.10523 0.70985 0.0
C447 C 0.6698 0.12467 0.69679 0.0
C448 C 0.68374 0.14699 0.70942 0.0
C449 C 0.68922 0.14944 0.73491 0.0
C450 C 0.68006 0.12938 0.7469 0.0
H451 H 0.6498 0.08836 0.70018 0.0
O452 O 0.69685 0.0362 0.72492 0.0
O453 O 0.68054 0.06491 0.75181 0.0
O454 O 0.64341 0.02608 0.72612 0.0
O455 O 0.63101 0.06532 0.73239 0.0
C456 C 0.70329 0.17104 0.74893 0.0
C457 C 0.70874 0.17179 0.77436 0.0
H458 H 0.716 0.166 0.82267 0.0
H459 H 0.69848 0.12837 0.84047 0.0
H460 H 0.66556 0.12262 0.67711 0.0
H461 H 0.69012 0.16211 0.69936 0.0
H462 H 0.71015 0.18714 0.74034 0.0
H463 H 0.71998 0.18829 0.78482 0.0
Mn464 Mn 0.03988 0.24352 0.88615 0.0
Mn465 Mn 0.98511 0.23876 0.91516 0.0
C466 C 1.00431 0.22109 0.86523 0.0
C467 C 0.06862 0.26359 0.86205 0.0
C468 C 0.02769 0.20858 0.92442 0.0
O469 O 0.04525 0.27311 0.91547 0.0
O470 O 0.00754 0.2685 0.93284 0.0
C471 C 0.96614 0.28625 0.90577 0.0
N472 N 0.96314 0.26037 0.90381 0.0
C473 C 0.9221 0.25742 0.88489 0.0
C474 C 0.9247 0.28404 0.88677 0.0
C475 C 0.94687 0.2985 0.89715 0.0
C476 C 0.942 0.24626 0.89363 0.0
H477 H 0.98308 0.29746 0.91388 0.0
C478 C 0.02954 0.28015 0.93188 0.0
O479 O 0.07539 0.24854 0.87652 0.0
O480 O 0.04529 0.26766 0.86221 0.0
N481 N 0.96162 0.21103 0.89952 0.0
C482 C 0.96286 0.18546 0.89737 0.0
C483 C 0.94257 0.16825 0.88643 0.0
C484 C 0.92112 0.17751 0.87816 0.0
C485 C 0.92029 0.20391 0.88064 0.0
C486 C 0.94117 0.22013 0.89141 0.0
H487 H 0.97922 0.17827 0.90392 0.0
O488 O 0.02638 0.21594 0.85814 0.0
O489 O 1.00382 0.23871 0.88468 0.0
O490 O 0.04253 0.21735 0.90915 0.0
O491 O 0.00589 0.21544 0.92807 0.0
C492 C 0.8996 0.21479 0.87273 0.0
C493 C 0.9006 0.2415 0.87458 0.0
H494 H 0.90986 0.29357 0.88019 0.0
H495 H 0.94906 0.31905 0.89861 0.0
H496 H 0.9434 0.1479 0.88451 0.0
H497 H 0.90547 0.16418 0.86981 0.0
H498 H 0.8829 0.20274 0.86498 0.0
H499 H 0.88478 0.24958 0.86792 0.0
Mn500 Mn 0.53197 0.74715 0.38749 0.0
Mn501 Mn 0.47677 0.74227 0.41573 0.0
C502 C 0.49653 0.7252 0.36589 0.0
C503 C 0.56112 0.76783 0.3642 0.0
C504 C 0.51877 0.71125 0.42473 0.0
O505 O 0.53723 0.77615 0.41723 0.0
O506 O 0.49929 0.77158 0.43411 0.0
C507 C 0.45863 0.79036 0.40696 0.0
N508 N 0.45528 0.76445 0.4046 0.0
C509 C 0.41449 0.76234 0.38537 0.0
C510 C 0.41745 0.789 0.38767 0.0
C511 C 0.43968 0.80306 0.3984 0.0
C512 C 0.4341 0.75072 0.39405 0.0
H513 H 0.47561 0.80127 0.41533 0.0
C514 C 0.5214 0.7831 0.43353 0.0
O515 O 0.56765 0.75233 0.37833 0.0
O516 O 0.53779 0.77187 0.3642 0.0
N517 N 0.45314 0.71499 0.39946 0.0
C518 C 0.45402 0.68934 0.39693 0.0
C519 C 0.43363 0.67251 0.38565 0.0
C520 C 0.41243 0.68223 0.37744 0.0
C521 C 0.41196 0.70871 0.38029 0.0
C522 C 0.43293 0.72453 0.3914 0.0
H523 H 0.47018 0.68178 0.40344 0.0
O524 O 0.51866 0.7201 0.35894 0.0
O525 O 0.49589 0.74255 0.38555 0.0
O526 O 0.53403 0.72036 0.40999 0.0
O527 O 0.49703 0.71828 0.42825 0.0
C528 C 0.39154 0.72003 0.37245 0.0
C529 C 0.39291 0.7468 0.3747 0.0
H530 H 0.40285 0.79887 0.38114 0.0
H531 H 0.44214 0.82364 0.40018 0.0
H532 H 0.43417 0.6521 0.38344 0.0
H533 H 0.39669 0.66919 0.36883 0.0
H534 H 0.37477 0.70829 0.36445 0.0
H535 H 0.3773 0.75524 0.36808 0.0
Mn536 Mn 0.0196 0.76689 0.65782 0.0
Mn537 Mn 0.98614 0.71606 0.6756 0.0
C538 C 0.0193 0.72649 0.63366 0.0
C539 C 0.02453 0.80234 0.63767 0.0
C540 C 0.03729 0.7377 0.69756 0.0
O541 O 0.99624 0.784 0.68302 0.0
O542 O 0.97664 0.74858 0.69421 0.0
C543 C 0.93701 0.72494 0.65579 0.0
N544 N 0.9549 0.70914 0.65744 0.0
C545 C 0.92882 0.67326 0.63434 0.0
C546 C 0.91007 0.68911 0.63242 0.0
C547 C 0.91426 0.71511 0.64304 0.0
C548 C 0.9513 0.68428 0.64678 0.0
H549 H 0.94002 0.74483 0.66426 0.0
C550 C 0.98059 0.77279 0.69602 0.0
O551 O 0.03903 0.80039 0.65619 0.0
O552 O 0.0066 0.78392 0.63118 0.0
N553 N 0.99226 0.68266 0.66004 0.0
C554 C 0.01226 0.67002 0.66362 0.0
C555 C 0.01073 0.64362 0.65513 0.0
C556 C 0.98864 0.63048 0.64318 0.0
C557 C 0.96845 0.64392 0.63938 0.0
C558 C 0.97091 0.67013 0.64861 0.0
H559 H 0.02901 0.67989 0.67344 0.0
O560 O 0.03717 0.74457 0.63247 0.0
O561 O 1.00142 0.73255 0.64874 0.0
O562 O 0.03997 0.75626 0.68561 0.0
O563 O 0.01797 0.72126 0.69497 0.0
C564 C 0.94578 0.63223 0.62731 0.0
C565 C 0.92607 0.64695 0.62454 0.0
H566 H 0.89239 0.68152 0.62286 0.0
H567 H 0.89989 0.72747 0.64163 0.0
H568 H 0.02639 0.63333 0.65812 0.0
H569 H 0.98729 0.61002 0.63719 0.0
H570 H 0.94338 0.61197 0.61992 0.0
H571 H 0.90885 0.63783 0.61496 0.0
Mn572 Mn 0.51751 0.26473 0.15941 0.0
Mn573 Mn 0.48869 0.21121 0.17649 0.0
C574 C 0.5202 0.22485 0.13469 0.0
C575 C 0.51914 0.30039 0.13954 0.0
C576 C 0.53766 0.23866 0.20004 0.0
O577 O 0.49268 0.279 0.1851 0.0
O578 O 0.47384 0.24168 0.19278 0.0
C579 C 0.43864 0.21096 0.15327 0.0
N580 N 0.45902 0.19884 0.15667 0.0
C581 C 0.43885 0.15896 0.13441 0.0
C582 C 0.41762 0.17099 0.13058 0.0
C583 C 0.4176 0.19716 0.13989 0.0
C584 C 0.45947 0.17386 0.14728 0.0
H585 H 0.43842 0.23094 0.16087 0.0
C586 C 0.47608 0.26604 0.19583 0.0
O587 O 0.53402 0.29956 0.1581 0.0
O588 O 0.50248 0.28076 0.13296 0.0
N589 N 0.5006 0.17973 0.16259 0.0
C590 C 0.52276 0.17123 0.16754 0.0
C591 C 0.52554 0.14526 0.16056 0.0
C592 C 0.50547 0.1283 0.14881 0.0
C593 C 0.48315 0.13762 0.14312 0.0
C594 C 0.48136 0.16363 0.15083 0.0
H595 H 0.53794 0.18401 0.17739 0.0
O596 O 0.53661 0.24426 0.13352 0.0
O597 O 0.5023 0.22926 0.1501 0.0
O598 O 0.53966 0.25609 0.18677 0.0
O599 O 0.51902 0.22149 0.19806 0.0
C600 C 0.4624 0.12205 0.13066 0.0
C601 C 0.44037 0.13278 0.12603 0.0
H602 H 0.40124 0.16033 0.12056 0.0
H603 H 0.40128 0.20657 0.13705 0.0
H604 H 0.54291 0.13821 0.16475 0.0
H605 H 0.50746 0.10815 0.14421 0.0
H606 H 0.46324 0.10185 0.12442 0.0
H607 H 0.42467 0.1207 0.11614 0.0
C608 C 0.2216 0.7468 0.86098 0.0
C609 C 0.22961 0.72429 0.8666 0.0
C610 C 0.22013 0.76819 0.87948 0.0
C611 C 0.22742 0.76744 0.90429 0.0
C612 C 0.23425 0.74436 0.91036 0.0
C613 C 0.23517 0.72307 0.89149 0.0
C614 C 0.21191 0.79168 0.87161 0.0
C615 C 0.24155 0.74245 0.93666 0.0
C616 C 0.25824 0.82723 0.94577 0.0
C617 C 0.23882 0.83464 0.96118 0.0
C618 C 0.25441 0.80606 0.9266 0.0
C619 C 0.23077 0.79125 0.92329 0.0
C620 C 0.21095 0.79874 0.93868 0.0
C621 C 0.21526 0.82032 0.9576 0.0
C622 C 0.27583 0.79927 0.91014 0.0
C623 C 0.18536 0.78379 0.93526 0.0
H624 H 0.21738 0.74826 0.84188 0.0
H625 H 0.24067 0.70557 0.89624 0.0
H626 H 0.20868 0.80678 0.88738 0.0
H627 H 0.22638 0.79928 0.85971 0.0
H628 H 0.19438 0.7865 0.86005 0.0
H629 H 0.24393 0.72257 0.93879 0.0
H630 H 0.25944 0.75464 0.94225 0.0
H631 H 0.22719 0.74957 0.94961 0.0
H632 H 0.27674 0.83765 0.94914 0.0
H633 H 0.20033 0.82586 0.96975 0.0
H634 H 0.27017 0.79861 0.89042 0.0
H635 H 0.28062 0.78004 0.91199 0.0
H636 H 0.29283 0.81317 0.91472 0.0
H637 H 0.17804 0.78314 0.91606 0.0
H638 H 0.17185 0.7922 0.94856 0.0
H639 H 0.1866 0.76381 0.93775 0.0
C640 C 0.07583 0.53658 0.4231 0.0
C641 C 0.04981 0.53124 0.42089 0.0
C642 C 0.09012 0.53911 0.40209 0.0
C643 C 0.07799 0.53598 0.3784 0.0
C644 C 0.05158 0.53085 0.37629 0.0
C645 C 0.03781 0.52853 0.39761 0.0
C646 C 0.11818 0.54476 0.40518 0.0
C647 C 0.0379 0.52742 0.35146 0.0
C648 C 0.11071 0.56487 0.32686 0.0
C649 C 0.11975 0.54363 0.3124 0.0
C650 C 0.09742 0.56265 0.34844 0.0
C651 C 0.0928 0.53857 0.35587 0.0
C652 C 0.10188 0.51702 0.34149 0.0
C653 C 0.11532 0.5198 0.31999 0.0
C654 C 0.08825 0.58616 0.36326 0.0
C655 C 0.09722 0.49097 0.34874 0.0
H656 H 0.08504 0.53827 0.44116 0.0
H657 H 0.01765 0.52398 0.39598 0.0
H658 H 0.1272 0.52907 0.39413 0.0
H659 H 0.1246 0.56249 0.39802 0.0
H660 H 0.1247 0.54706 0.42487 0.0
H661 H 0.01732 0.52356 0.35299 0.0
H662 H 0.04202 0.5448 0.34303 0.0
H663 H 0.04448 0.51132 0.33858 0.0
H664 H 0.11413 0.58347 0.32144 0.0
H665 H 0.12221 0.50329 0.30905 0.0
H666 H 0.0957 0.58922 0.38268 0.0
H667 H 0.06755 0.58347 0.36393 0.0
H668 H 0.09389 0.60362 0.35531 0.0
H669 H 0.10493 0.49162 0.36778 0.0
H670 H 0.10575 0.47619 0.33582 0.0
H671 H 0.0768 0.48515 0.34899 0.0
C672 C 0.8035 0.75465 0.86337 0.0
C673 C 0.82473 0.77254 0.8647 0.0
C674 C 0.80041 0.73767 0.88035 0.0
C675 C 0.8187 0.73906 0.89958 0.0
C676 C 0.84054 0.75668 0.90055 0.0
C677 C 0.84341 0.77307 0.88292 0.0
C678 C 0.77708 0.71888 0.87825 0.0
C679 C 0.86025 0.75915 0.92095 0.0
C680 C 0.79075 0.71729 0.95685 0.0
C681 C 0.79727 0.6924 0.95456 0.0
C682 C 0.79903 0.73321 0.93999 0.0
C683 C 0.81359 0.72375 0.91982 0.0
C684 C 0.82109 0.69891 0.91799 0.0
C685 C 0.813 0.68357 0.93558 0.0
C686 C 0.79104 0.75971 0.94307 0.0
C687 C 0.83622 0.68792 0.89659 0.0
H688 H 0.78911 0.75423 0.8492 0.0
H689 H 0.85975 0.78706 0.884 0.0
H690 H 0.78201 0.69941 0.87888 0.0
H691 H 0.76507 0.72417 0.89421 0.0
H692 H 0.76604 0.71836 0.86083 0.0
H693 H 0.87715 0.77196 0.91779 0.0
H694 H 0.85244 0.76694 0.93897 0.0
H695 H 0.86588 0.74016 0.92254 0.0
H696 H 0.77847 0.72404 0.97149 0.0
H697 H 0.81767 0.66414 0.93357 0.0
H698 H 0.77732 0.76063 0.92803 0.0
H699 H 0.80732 0.77395 0.94158 0.0
H700 H 0.78228 0.76521 0.96119 0.0
H701 H 0.82448 0.68424 0.87924 0.0
H702 H 0.84302 0.66971 0.89937 0.0
H703 H 0.85251 0.70167 0.89392 0.0
C704 C 0.02602 0.98497 0.43176 0.0
C705 C 0.04037 1.00369 0.44894 0.0
C706 C 0.01347 0.99135 0.41147 0.0
C707 C 0.01587 0.01701 0.40767 0.0
C708 C 0.03051 0.03602 0.42466 0.0
C709 C 0.0423 0.02921 0.44526 0.0
C710 C 0.99774 0.97049 0.39396 0.0
C711 C 0.03392 0.06348 0.42094 0.0
C712 C 1.00095 0.01929 0.34046 0.0
C713 C 0.97581 0.02369 0.34144 0.0
C714 C 0.01507 0.01961 0.36227 0.0
C715 C 1.0034 0.02344 0.38546 0.0
C716 C 0.97846 0.02964 0.38661 0.0
C717 C 0.96502 0.02999 0.3645 0.0
C718 C 0.04182 0.01372 0.36026 0.0
C719 C 0.96513 0.03333 0.41084 0.0
H720 H 0.02478 0.96514 0.43393 0.0
H721 H 0.05292 0.04398 0.45855 0.0
H722 H 0.97853 0.97571 0.39196 0.0
H723 H 1.00584 0.96818 0.37527 0.0
H724 H 0.9965 0.95182 0.40042 0.0
H725 H 0.04617 0.07594 0.43567 0.0
H726 H 0.04222 0.06475 0.40266 0.0
H727 H 0.01551 0.07095 0.42077 0.0
H728 H 0.00917 0.01423 0.32254 0.0
H729 H 0.9454 0.03288 0.36515 0.0
H730 H 0.04287 0.99382 0.36308 0.0
H731 H 0.05393 0.02652 0.37483 0.0
H732 H 0.04935 0.01574 0.34179 0.0
H733 H 0.96067 0.01453 0.41673 0.0
H734 H 0.9474 0.04182 0.40918 0.0
H735 H 0.9772 0.04572 0.42569 0.0
C736 C 0.26089 0.29326 0.65614 0.0
C737 C 0.23795 0.30253 0.66241 0.0
C738 C 0.26271 0.27397 0.63561 0.0
C739 C 0.24087 0.26267 0.62157 0.0
C740 C 0.21739 0.27064 0.62869 0.0
C741 C 0.21624 0.29075 0.64877 0.0
C742 C 0.28819 0.2664 0.62843 0.0
C743 C 0.19356 0.25839 0.61471 0.0
C744 C 0.24882 0.23286 0.55428 0.0
C745 C 0.25029 0.20736 0.55627 0.0
C746 C 0.24566 0.25108 0.57541 0.0
C747 C 0.24293 0.24331 0.59885 0.0
C748 C 0.2435 0.21729 0.60069 0.0
C749 C 0.24768 0.19969 0.57941 0.0
C750 C 0.24597 0.27873 0.57277 0.0
C751 C 0.23974 0.20808 0.62512 0.0
H752 H 0.2777 0.30147 0.66699 0.0
H753 H 0.19841 0.29768 0.65323 0.0
H754 H 0.28867 0.24574 0.62839 0.0
H755 H 0.29209 0.26979 0.60931 0.0
H756 H 0.30338 0.27724 0.64118 0.0
H757 H 0.17665 0.26459 0.62432 0.0
H758 H 0.19334 0.26348 0.59589 0.0
H759 H 0.19253 0.23728 0.61235 0.0
H760 H 0.25085 0.23864 0.53628 0.0
H761 H 0.24848 0.1798 0.58073 0.0
H762 H 0.26143 0.29044 0.58452 0.0
H763 H 0.22828 0.28595 0.57935 0.0
H764 H 0.24844 0.28162 0.55327 0.0
H765 H 0.25544 0.21657 0.63833 0.0
H766 H 0.23861 0.18696 0.62299 0.0
H767 H 0.22233 0.21435 0.63354 0.0
C768 C 0.56148 0.54073 0.63758 0.0
C769 C 0.54716 0.53358 0.61537 0.0
C770 C 0.55061 0.53948 0.66066 0.0
C771 C 0.52488 0.53068 0.66151 0.0
C772 C 0.51038 0.52343 0.63913 0.0
C773 C 0.52167 0.52497 0.61639 0.0
C774 C 0.56665 0.54747 0.68413 0.0
C775 C 0.48294 0.51371 0.63917 0.0
C776 C 0.49867 0.50142 0.71562 0.0
C777 C 0.48553 0.52082 0.72807 0.0
C778 C 0.51234 0.50476 0.69452 0.0
C779 C 0.51308 0.52813 0.68561 0.0
C780 C 0.50083 0.54821 0.69865 0.0
C781 C 0.48715 0.54431 0.71968 0.0
C782 C 0.52508 0.48283 0.68114 0.0
C783 C 0.50133 0.57348 0.68981 0.0
H784 H 0.58114 0.54757 0.6369 0.0
H785 H 0.51058 0.51899 0.59929 0.0
H786 H 0.55854 0.56276 0.69676 0.0
H787 H 0.56701 0.5311 0.69408 0.0
H788 H 0.58617 0.55452 0.68036 0.0
H789 H 0.47419 0.50931 0.62019 0.0
H790 H 0.48055 0.49613 0.64752 0.0
H791 H 0.47273 0.5281 0.6507 0.0
H792 H 0.49769 0.48319 0.72188 0.0
H793 H 0.47722 0.5595 0.72915 0.0
H794 H 0.54496 0.48925 0.67821 0.0
H795 H 0.51594 0.47587 0.66255 0.0
H796 H 0.52431 0.4666 0.69146 0.0
H797 H 0.52083 0.58107 0.68667 0.0
H798 H 0.49292 0.58792 0.70325 0.0
H799 H 0.49081 0.57075 0.6718 0.0
C800 C 0.85413 0.28599 0.64385 0.0
C801 C 0.843 0.26135 0.64491 0.0
C802 C 0.84377 0.30114 0.62876 0.0
C803 C 0.82167 0.29135 0.61437 0.0
C804 C 0.81013 0.26647 0.61572 0.0
C805 C 0.82102 0.25166 0.63101 0.0
C806 C 0.85673 0.32748 0.62789 0.0
C807 C 0.78652 0.25541 0.60077 0.0
C808 C 0.78557 0.34031 0.59082 0.0
C809 C 0.79387 0.33919 0.56647 0.0
C810 C 0.794 0.32444 0.60643 0.0
C811 C 0.81119 0.30706 0.59753 0.0
C812 C 0.81945 0.3057 0.57289 0.0
C813 C 0.8107 0.32175 0.55768 0.0
C814 C 0.78475 0.32652 0.63256 0.0
C815 C 0.83785 0.28752 0.5627 0.0
H816 H 0.87123 0.29332 0.65465 0.0
H817 H 0.81254 0.2325 0.63188 0.0
H818 H 0.86267 0.32864 0.60873 0.0
H819 H 0.84361 0.34198 0.63297 0.0
H820 H 0.87344 0.33246 0.64064 0.0
H821 H 0.77938 0.23621 0.60455 0.0
H822 H 0.77176 0.26828 0.60499 0.0
H823 H 0.7901 0.25388 0.58066 0.0
H824 H 0.77247 0.35363 0.59774 0.0
H825 H 0.81713 0.32066 0.53887 0.0
H826 H 0.80068 0.33293 0.64607 0.0
H827 H 0.77642 0.30754 0.63591 0.0
H828 H 0.77056 0.34015 0.63631 0.0
H829 H 0.85575 0.29239 0.57363 0.0
H830 H 0.8417 0.28808 0.54288 0.0
H831 H 0.83058 0.26771 0.56447 0.0
C832 C 0.55084 0.02359 0.59396 0.0
C833 C 0.53187 1.00306 0.59068 0.0
C834 C 0.56517 0.03038 0.61626 0.0
C835 C 0.56005 0.01661 0.63593 0.0
C836 C 0.54001 0.99671 0.63314 0.0
C837 C 0.52636 0.98996 0.61043 0.0
C838 C 0.58661 0.05142 0.61826 0.0
C839 C 0.53353 0.98197 0.65382 0.0
C840 C 0.61406 0.01451 0.6809 0.0
C841 C 0.61024 0.03422 0.70047 0.0
C842 C 0.59773 0.00844 0.65995 0.0
C843 C 0.5767 0.022 0.65872 0.0
C844 C 0.57222 0.04126 0.67883 0.0
C845 C 0.58919 0.04736 0.6993 0.0
C846 C 0.60346 0.98807 0.63874 0.0
C847 C 0.54971 0.05571 0.67854 0.0
H848 H 0.55536 0.03348 0.57858 0.0
H849 H 0.51168 0.97406 0.60789 0.0
H850 H 0.58499 0.06594 0.63507 0.0
H851 H 0.60453 0.04339 0.6202 0.0
H852 H 0.58741 0.06103 0.60177 0.0
H853 H 0.51585 0.96899 0.64971 0.0
H854 H 0.5488 0.97038 0.65677 0.0
H855 H 0.53169 0.99528 0.67147 0.0
H856 H 0.63038 1.00443 0.68152 0.0
H857 H 0.58602 0.06252 0.71441 0.0
H858 H 0.60643 0.9965 0.62168 0.0
H859 H 0.5874 0.97295 0.63478 0.0
H860 H 0.62037 0.97908 0.6427 0.0
H861 H 0.55114 0.06715 0.6634 0.0
H862 H 0.54787 0.06877 0.69637 0.0
H863 H 0.5324 0.04216 0.67474 0.0
C864 C 0.88762 0.19144 0.76691 0.0
C865 C 0.89682 0.19655 0.74416 0.0
C866 C 0.90371 0.19226 0.78748 0.0
C867 C 0.92968 0.19912 0.78562 0.0
C868 C 0.93921 0.20368 0.76256 0.0
C869 C 0.92273 0.20216 0.74209 0.0
C870 C 0.89234 0.18713 0.8114 0.0
C871 C 0.96679 0.21102 0.75971 0.0
C872 C 0.9692 0.23337 0.84182 0.0
C873 C 0.9829 0.21416 0.84735 0.0
C874 C 0.95095 0.22837 0.82259 0.0
C875 C 0.94671 0.20365 0.80805 0.0
C876 C 0.95996 0.18393 0.81405 0.0
C877 C 0.97815 0.1895 0.83351 0.0
C878 C 0.93679 0.24977 0.81728 0.0
C879 C 0.95526 0.15715 0.79956 0.0
H880 H 0.86765 0.18754 0.76903 0.0
H881 H 0.93015 0.20563 0.7245 0.0
H882 H 0.90581 0.18069 0.82382 0.0
H883 H 0.88571 0.205 0.82109 0.0
H884 H 0.87583 0.17245 0.80772 0.0
H885 H 0.97139 0.21269 0.74027 0.0
H886 H 0.97282 0.22961 0.77181 0.0
H887 H 0.97777 0.19666 0.76573 0.0
H888 H 0.97343 0.25265 0.852 0.0
H889 H 0.98895 0.17472 0.83767 0.0
H890 H 0.91639 0.24412 0.81794 0.0
H891 H 0.94075 0.25361 0.79832 0.0
H892 H 0.94181 0.2677 0.83078 0.0
H893 H 0.93502 0.15023 0.79935 0.0
H894 H 0.96598 0.14365 0.80746 0.0
H895 H 0.96055 0.15704 0.78001 0.0
C896 C 0.53957 0.92137 0.52245 0.0
C897 C 0.51833 0.93277 0.51696 0.0
C898 C 0.54315 0.89661 0.51062 0.0
C899 C 0.52535 0.88308 0.4925 0.0
C900 C 0.50398 0.89448 0.48676 0.0
C901 C 0.50061 0.919 0.49922 0.0
C902 C 0.56595 0.88493 0.51752 0.0
C903 C 0.48461 0.88078 0.4674 0.0
C904 C 0.54062 0.82847 0.44295 0.0
C905 C 0.52723 0.80751 0.45093 0.0
C906 C 0.54125 0.85317 0.45693 0.0
C907 C 0.52862 0.85682 0.47963 0.0
C908 C 0.51682 0.83539 0.48867 0.0
C909 C 0.516 0.81105 0.47407 0.0
C910 C 0.55375 0.87552 0.44645 0.0
C911 C 0.50369 0.83834 0.51306 0.0
H912 H 0.55364 0.9319 0.53576 0.0
H913 H 0.48392 0.92732 0.49513 0.0
H914 H 0.56017 0.8666 0.52387 0.0
H915 H 0.57749 0.8806 0.50101 0.0
H916 H 0.57771 0.89769 0.53244 0.0
H917 H 0.46959 0.89269 0.4644 0.0
H918 H 0.49362 0.87519 0.44946 0.0
H919 H 0.47592 0.863 0.47315 0.0
H920 H 0.54908 0.82588 0.42494 0.0
H921 H 0.50571 0.79485 0.48034 0.0
H922 H 0.56603 0.88844 0.46077 0.0
H923 H 0.53927 0.88672 0.44061 0.0
H924 H 0.56507 0.86933 0.43013 0.0
H925 H 0.51573 0.85094 0.52783 0.0
H926 H 0.49851 0.81969 0.51905 0.0
H927 H 0.48638 0.84743 0.51119 0.0
C928 C 0.16814 0.33763 0.78478 0.0
C929 C 0.16801 0.32589 0.7599 0.0
C930 C 0.15282 0.32696 0.80178 0.0
C931 C 0.13706 0.30397 0.79359 0.0
C932 C 0.13743 0.29169 0.76847 0.0
C933 C 0.15291 0.30292 0.75182 0.0
C934 C 0.15296 0.3407 0.82832 0.0
C935 C 0.12101 0.2671 0.75909 0.0
C936 C 0.11056 0.26709 0.84284 0.0
C937 C 0.08638 0.27448 0.8451 0.0
C938 C 0.12718 0.2763 0.82596 0.0
C939 C 0.11949 0.29345 0.81111 0.0
C940 C 0.09516 0.30113 0.81346 0.0
C941 C 0.07888 0.2915 0.83036 0.0
C942 C 0.15294 0.26762 0.82395 0.0
C943 C 0.08632 0.31957 0.79812 0.0
H944 H 0.17981 0.35555 0.79082 0.0
H945 H 0.15283 0.29404 0.73245 0.0
H946 H 0.13424 0.3468 0.83264 0.0
H947 H 0.15695 0.32766 0.84125 0.0
H948 H 0.16706 0.35781 0.83192 0.0
H949 H 0.12455 0.25923 0.73947 0.0
H950 H 0.12416 0.25261 0.77074 0.0
H951 H 0.10106 0.2704 0.76052 0.0
H952 H 0.11646 0.25383 0.85406 0.0
H953 H 0.06021 0.29728 0.83198 0.0
H954 H 0.16737 0.28432 0.82855 0.0
H955 H 0.15584 0.25843 0.80459 0.0
H956 H 0.1559 0.25388 0.83652 0.0
H957 H 0.09872 0.33788 0.80188 0.0
H958 H 0.06681 0.32354 0.80206 0.0
H959 H 0.08736 0.31177 0.77807 0.0
C960 C 0.55616 0.61637 0.51444 0.0
C961 C 0.55101 0.59103 0.50246 0.0
C962 C 0.55403 0.63662 0.50147 0.0
C963 C 0.54634 0.63122 0.47604 0.0
C964 C 0.5424 0.60551 0.46365 0.0
C965 C 0.54473 0.58569 0.47709 0.0
C966 C 0.55852 0.6637 0.51535 0.0
C967 C 0.53417 0.59889 0.43661 0.0
C968 C 0.50863 0.67831 0.45176 0.0
C969 C 0.52625 0.69112 0.43814 0.0
C970 C 0.51503 0.65895 0.46419 0.0
C971 C 0.53973 0.65215 0.46317 0.0
C972 C 0.5577 0.66507 0.44966 0.0
C973 C 0.55075 0.68433 0.43724 0.0
C974 C 0.49522 0.64559 0.47828 0.0
C975 C 0.58424 0.65845 0.44824 0.0
H976 H 0.56075 0.62037 0.53419 0.0
H977 H 0.54047 0.56598 0.468 0.0
H978 H 0.57075 0.67576 0.50474 0.0
H979 H 0.54046 0.67188 0.51755 0.0
H980 H 0.56725 0.6648 0.53408 0.0
H981 H 0.5345 0.57829 0.4291 0.0
H982 H 0.51484 0.60372 0.43439 0.0
H983 H 0.54637 0.61025 0.42534 0.0
H984 H 0.48963 0.68323 0.45256 0.0
H985 H 0.56456 0.69409 0.42685 0.0
H986 H 0.50128 0.6477 0.49806 0.0
H987 H 0.49256 0.62487 0.47062 0.0
H988 H 0.47692 0.65323 0.47738 0.0
H989 H 0.59269 0.66072 0.46721 0.0
H990 H 0.59612 0.67059 0.43738 0.0
H991 H 0.58437 0.63817 0.43952 0.0
C992 C 0.88182 0.83176 0.79354 0.0
C993 C 0.86495 0.81018 0.79505 0.0
C994 C 0.90173 0.83027 0.77705 0.0
C995 C 0.90455 0.80675 0.76149 0.0
C996 C 0.88678 0.78529 0.76218 0.0
C997 C 0.86738 0.78722 0.77905 0.0
C998 C 0.92036 0.8535 0.77707 0.0
C999 C 0.88873 0.75994 0.74567 0.0
C1000 C 0.94529 0.79909 0.70483 0.0
C1001 C 0.965 0.78769 0.71363 0.0
C1002 C 0.92612 0.80702 0.72062 0.0
C1003 C 0.92693 0.80366 0.74578 0.0
C1004 C 0.94791 0.79396 0.75507 0.0
C1005 C 0.96648 0.78574 0.73879 0.0
C1006 C 0.90403 0.81696 0.70983 0.0
C1007 C 0.94984 0.79042 0.78181 0.0
H1008 H 0.88005 0.8495 0.80599 0.0
H1009 H 0.85421 0.77059 0.78002 0.0
H1010 H 0.93868 0.85014 0.78468 0.0
H1011 H 0.92331 0.85701 0.75785 0.0
H1012 H 0.91429 0.87089 0.78843 0.0
H1013 H 0.87233 0.74576 0.74701 0.0
H1014 H 0.8904 0.76249 0.72602 0.0
H1015 H 0.90583 0.75204 0.75096 0.0
H1016 H 0.94389 0.80005 0.68522 0.0
H1017 H 0.98159 0.77659 0.74547 0.0
H1018 H 0.89864 0.8339 0.72242 0.0
H1019 H 0.88776 0.80201 0.70772 0.0
H1020 H 0.90793 0.82218 0.69133 0.0
H1021 H 0.94548 0.8078 0.79444 0.0
H1022 H 0.96875 0.78612 0.78691 0.0
H1023 H 0.93599 0.77439 0.78488 0.0
C1024 C 0.03772 0.92633 0.57201 0.0
C1025 C 0.05169 0.922 0.55062 0.0
C1026 C 0.03449 0.9081 0.58776 0.0
C1027 C 0.0454 0.88499 0.5818 0.0
C1028 C 0.06053 0.88118 0.56074 0.0
C1029 C 0.06338 0.89974 0.5453 0.0
C1030 C 0.01828 0.91299 0.61 0.0
C1031 C 0.07262 0.85692 0.55379 0.0
C1032 C 0.04963 0.84273 0.63081 0.0
C1033 C 0.02915 0.82403 0.62399 0.0
C1034 C 0.05508 0.86274 0.61737 0.0
C1035 C 0.03967 0.86417 0.59661 0.0
C1036 C 0.01878 0.84554 0.58983 0.0
C1037 C 0.01379 0.8257 0.60357 0.0
C1038 C 0.0775 0.88217 0.62521 0.0
C1039 C 1.00181 0.84642 0.56787 0.0
H1040 H 0.02832 0.94342 0.57578 0.0
H1041 H 0.07381 0.89629 0.52845 0.0
H1042 H 1.00095 0.89939 0.60713 0.0
H1043 H 0.02812 0.90975 0.62693 0.0
H1044 H 0.01295 0.93273 0.61328 0.0
H1045 H 0.0855 0.85783 0.53818 0.0
H1046 H 0.08323 0.85302 0.56998 0.0
H1047 H 0.05795 0.84058 0.54826 0.0
H1048 H 0.06165 0.84161 0.64653 0.0
H1049 H 0.99797 0.81135 0.59815 0.0
H1050 H 0.07163 0.90164 0.62903 0.0
H1051 H 0.09088 0.88177 0.60992 0.0
H1052 H 0.08737 0.87865 0.64204 0.0
H1053 H 0.99393 0.86495 0.57034 0.0
H1054 H 0.98613 0.83078 0.56526 0.0
H1055 H 0.01268 0.84496 0.55069 0.0
C1056 C 0.15124 0.71138 0.78458 0.0
C1057 C 0.16566 0.69606 0.76857 0.0
C1058 C 0.13025 0.7208 0.77538 0.0
C1059 C 0.1237 0.71453 0.74968 0.0
C1060 C 0.13869 0.6994 0.7335 0.0
C1061 C 0.15952 0.69036 0.74319 0.0
C1062 C 0.11482 0.73696 0.79316 0.0
C1063 C 0.13239 0.69223 0.70602 0.0
C1064 C 0.05711 0.71196 0.72508 0.0
C1065 C 0.0584 0.73375 0.71379 0.0
C1066 C 0.07789 0.70616 0.73787 0.0
C1067 C 0.10057 0.72258 0.7396 0.0
C1068 C 0.10166 0.7453 0.72946 0.0
C1069 C 0.0806 0.75059 0.71663 0.0
C1070 C 0.07593 0.68172 0.74839 0.0
C1071 C 0.12544 0.7634 0.7311 0.0
H1072 H 0.15617 0.71569 0.80426 0.0
H1073 H 0.17083 0.67844 0.73094 0.0
H1074 H 0.11259 0.75508 0.78653 0.0
H1075 H 0.09583 0.72676 0.79393 0.0
H1076 H 0.12333 0.74151 0.81223 0.0
H1077 H 0.14644 0.68105 0.69589 0.0
H1078 H 0.11382 0.68072 0.70303 0.0
H1079 H 0.13123 0.70967 0.69782 0.0
H1080 H 0.04009 0.69883 0.72318 0.0
H1081 H 0.08183 0.76756 0.70817 0.0
H1082 H 0.08283 0.68556 0.76801 0.0
H1083 H 0.08787 0.66831 0.73784 0.0
H1084 H 0.05644 0.6722 0.74744 0.0
H1085 H 0.13326 0.76777 0.75042 0.0
H1086 H 0.12244 0.7816 0.72493 0.0
H1087 H 0.13964 0.75427 0.71924 0.0
C1088 C 0.01008 0.61136 0.51694 0.0
C1089 C 0.00823 0.58797 0.52536 0.0
C1090 C 0.0149 0.63455 0.53384 0.0
C1091 C 0.0175 0.63418 0.55967 0.0
C1092 C 0.01777 0.61037 0.5677 0.0
C1093 C 0.01291 0.58769 0.55051 0.0
C1094 C 0.01688 0.65939 0.52409 0.0
C1095 C 0.02283 0.60798 0.59429 0.0
C1096 C 0.04088 0.69254 0.60815 0.0
C1097 C 0.01849 0.70223 0.61568 0.0
C1098 C 0.04099 0.67098 0.58939 0.0
C1099 C 0.01808 0.65832 0.57826 0.0
C1100 C 0.99542 0.66819 0.58571 0.0
C1101 C 0.99602 0.69047 0.60371 0.0
C1102 C 0.06561 0.66158 0.5817 0.0
C1103 C 0.97047 0.65498 0.57495 0.0
H1104 H 0.00683 0.61155 0.49738 0.0
H1105 H 0.01211 0.56952 0.55692 0.0
H1106 H 0.99984 0.66894 0.52849 0.0
H1107 H 0.03309 0.6725 0.53312 0.0
H1108 H 0.01899 0.65644 0.50365 0.0
H1109 H 0.02542 0.62645 0.60712 0.0
H1110 H 0.00733 0.59536 0.60053 0.0
H1111 H 0.04004 0.59849 0.59541 0.0
H1112 H 0.05844 0.70201 0.61682 0.0
H1113 H 0.97889 0.69881 0.60832 0.0
H1114 H 0.06645 0.65751 0.56114 0.0
H1115 H 0.06737 0.64352 0.5886 0.0
H1116 H 0.0818 0.67562 0.58923 0.0
H1117 H 0.96945 0.6546 0.55465 0.0
H1118 H 0.95457 0.66455 0.58335 0.0
H1119 H 0.96831 0.63486 0.57794 0.0
C1120 C 0.79435 0.86549 0.2145 0.0
C1121 C 0.77071 0.87426 0.21496 0.0
C1122 C 0.81609 0.88227 0.22166 0.0
C1123 C 0.81425 0.90843 0.23035 0.0
C1124 C 0.79043 0.9174 0.23135 0.0
C1125 C 0.769 0.90029 0.22343 0.0
C1126 C 0.84101 0.87196 0.21991 0.0
C1127 C 0.78761 0.94516 0.24056 0.0
C1128 C 0.86575 0.95015 0.27131 0.0
C1129 C 0.87778 0.96401 0.25447 0.0
C1130 C 0.84571 0.93122 0.26351 0.0
C1131 C 0.83714 0.92649 0.23836 0.0
C1132 C 0.84961 0.94014 0.22119 0.0
C1133 C 0.86967 0.95892 0.22952 0.0
C1134 C 0.83311 0.917 0.28239 0.0
C1135 C 0.84125 0.93553 0.19419 0.0
H1136 H 0.79595 0.84537 0.20855 0.0
H1137 H 0.75095 0.90745 0.2235 0.0
H1138 H 0.85371 0.88292 0.20872 0.0
H1139 H 0.84957 0.87435 0.23876 0.0
H1140 H 0.83946 0.85142 0.21145 0.0
H1141 H 0.76775 0.949 0.24069 0.0
H1142 H 0.7958 0.9511 0.25967 0.0
H1143 H 0.79801 0.95723 0.22861 0.0
H1144 H 0.87147 0.95475 0.29078 0.0
H1145 H 0.87878 0.96996 0.21661 0.0
H1146 H 0.83232 0.89612 0.27595 0.0
H1147 H 0.81357 0.92159 0.28451 0.0
H1148 H 0.84295 0.9219 0.30086 0.0
H1149 H 0.84019 0.91491 0.18629 0.0
H1150 H 0.85404 0.94637 0.18292 0.0
H1151 H 0.82223 0.94131 0.1925 0.0
C1152 C 0.80511 0.16588 0.33917 0.0
C1153 C 0.78164 0.15601 0.32789 0.0
C1154 C 0.82494 0.15071 0.33829 0.0
C1155 C 0.82151 0.12529 0.3252 0.0
C1156 C 0.79775 0.11501 0.31437 0.0
C1157 C 0.77807 0.13029 0.31627 0.0
C1158 C 0.84977 0.16212 0.35075 0.0
C1159 C 0.79331 0.08813 0.29991 0.0
C1160 C 0.87638 0.09443 0.29519 0.0
C1161 C 0.87936 0.07573 0.30974 0.0
C1162 C 0.85812 0.11121 0.30049 0.0
C1163 C 0.84296 0.10979 0.3213 0.0
C1164 C 0.84696 0.09196 0.33695 0.0
C1165 C 0.86483 0.07482 0.33072 0.0
C1166 C 0.85411 0.12947 0.28296 0.0
C1167 C 0.83182 0.09042 0.35979 0.0
H1168 H 0.80831 0.18571 0.34806 0.0
H1169 H 0.7599 0.12209 0.30819 0.0
H1170 H 0.85685 0.14892 0.36207 0.0
H1171 H 0.86373 0.16502 0.33647 0.0
H1172 H 0.84847 0.18079 0.3629 0.0
H1173 H 0.7737 0.08297 0.29268 0.0
H1174 H 0.80593 0.08606 0.28398 0.0
H1175 H 0.79771 0.07426 0.3118 0.0
H1176 H 0.88745 0.09509 0.27884 0.0
H1177 H 0.86721 0.0605 0.34212 0.0
H1178 H 0.85498 0.14926 0.29332 0.0
H1179 H 0.8352 0.12449 0.27395 0.0
H1180 H 0.86817 0.12899 0.26824 0.0
H1181 H 0.83124 0.10976 0.37084 0.0
H1182 H 0.83951 0.07814 0.37177 0.0
H1183 H 0.81228 0.08246 0.3542 0.0
C1184 C 0.43876 0.98699 0.00497 0.0
C1185 C 0.44217 0.01379 0.00936 0.0
C1186 C 0.41574 0.97348 0.009 0.0
C1187 C 0.3957 0.98703 0.01818 0.0
C1188 C 0.39962 0.01397 0.02462 0.0
C1189 C 0.4227 0.02705 0.01989 0.0
C1190 C 0.41238 0.94476 1.00172 0.0
C1191 C 0.37894 0.02912 0.03498 0.0
C1192 C 0.33189 0.95616 0.99264 0.0
C1193 C 0.32289 0.9431 0.01156 0.0
C1194 C 0.35517 0.97095 0.99497 0.0
C1195 C 0.3699 0.97337 0.01702 0.0
C1196 C 0.36051 0.96146 0.0368 0.0
C1197 C 0.33718 0.94623 0.03377 0.0
C1198 C 0.36445 0.98308 0.97326 0.0
C1199 C 0.37542 0.96413 0.06083 0.0
H1200 H 0.45388 0.97648 0.99761 0.0
H1201 H 0.42498 0.04773 0.02337 0.0
H1202 H 0.40371 0.93579 0.01685 0.0
H1203 H 0.39957 0.9392 0.98514 0.0
H1204 H 0.43036 0.93692 0.99725 0.0
H1205 H 0.38616 0.04904 0.04333 0.0
H1206 H 0.36521 0.02975 0.01986 0.0
H1207 H 0.36883 0.01993 0.04926 0.0
H1208 H 0.32114 0.95411 0.97539 0.0
H1209 H 0.33044 0.93638 0.04855 0.0
H1210 H 0.38175 0.97514 0.96636 0.0
H1211 H 0.36922 1.00395 0.97919 0.0
H1212 H 0.35045 0.97981 0.95762 0.0
H1213 H 0.39178 0.95321 0.05772 0.0
H1214 H 0.36413 0.95692 0.07556 0.0
H1215 H 0.3827 0.98441 0.06752 0.0
C1216 C 0.25639 0.39927 0.3282 0.0
C1217 C 0.2742 0.38678 0.31396 0.0
C1218 C 0.24451 0.41844 0.31981 0.0
C1219 C 0.25068 0.42537 0.29658 0.0
C1220 C 0.26923 0.41316 0.28237 0.0
C1221 C 0.28073 0.39383 0.29121 0.0
C1222 C 0.2248 0.43073 0.33551 0.0
C1223 C 0.27647 0.42011 0.25763 0.0
C1224 C 0.20032 0.45469 0.26509 0.0
C1225 C 0.20812 0.48092 0.27164 0.0
C1226 C 0.21428 0.43645 0.27259 0.0
C1227 C 0.23679 0.44454 0.28686 0.0
C1228 C 0.24503 0.47098 0.29313 0.0
C1229 C 0.23055 0.48884 0.28556 0.0
C1230 C 0.20463 0.40849 0.26571 0.0
C1231 C 0.26896 0.48042 0.30816 0.0
H1232 H 0.25129 0.39359 0.34575 0.0
H1233 H 0.29443 0.38397 0.28018 0.0
H1234 H 0.22949 0.45176 0.33935 0.0
H1235 H 0.20647 0.4266 0.32528 0.0
H1236 H 0.22279 0.4238 0.35349 0.0
H1237 H 0.29231 0.41011 0.24964 0.0
H1238 H 0.26024 0.41508 0.24432 0.0
H1239 H 0.28177 0.44101 0.25961 0.0
H1240 H 0.18305 0.44835 0.25432 0.0
H1241 H 0.23684 0.50905 0.29057 0.0
H1242 H 0.20055 0.4004 0.28279 0.0
H1243 H 0.21908 0.3978 0.25579 0.0
H1244 H 0.18735 0.40526 0.25374 0.0
H1245 H 0.26725 0.47533 0.32694 0.0
H1246 H 0.27361 0.50143 0.31018 0.0
H1247 H 0.28472 0.47101 0.29928 0.0
C1248 C 0.11246 0.04404 0.51758 0.0
C1249 C 0.11271 0.01784 0.50956 0.0
C1250 C 0.13468 0.06066 0.52145 0.0
C1251 C 0.15794 0.05087 0.51685 0.0
C1252 C 0.15834 0.02398 0.51137 0.0
C1253 C 0.13565 0.00775 0.50742 0.0
C1254 C 0.13239 0.08856 0.53006 0.0
C1255 C 0.18261 0.01224 0.50896 0.0
C1256 C 0.21129 0.09085 0.49109 0.0
C1257 C 0.22339 0.10478 0.51276 0.0
C1258 C 0.18984 0.07349 0.49217 0.0
C1259 C 0.18126 0.06862 0.51554 0.0
C1260 C 0.19447 0.08147 0.53746 0.0
C1261 C 0.21505 0.09968 0.53582 0.0
C1262 C 0.1762 0.06062 0.46828 0.0
C1263 C 0.18681 0.07615 0.56268 0.0
H1264 H 0.09466 0.05177 0.51982 0.0
H1265 H 0.13586 0.98738 0.50152 0.0
H1266 H 0.15029 0.10093 0.53073 0.0
H1267 H 0.11866 0.095 0.51788 0.0
H1268 H 0.1248 0.09113 0.54899 0.0
H1269 H 0.18027 0.9927 0.51355 0.0
H1270 H 0.18872 0.01067 0.48953 0.0
H1271 H 0.19763 0.024 0.52128 0.0
H1272 H 0.21869 0.09343 0.47326 0.0
H1273 H 0.22488 0.10977 0.55268 0.0
H1274 H 0.15622 0.06399 0.46907 0.0
H1275 H 0.17683 0.03973 0.46567 0.0
H1276 H 0.18444 0.06757 0.45183 0.0
H1277 H 0.1697 0.08526 0.56806 0.0
H1278 H 0.20163 0.08376 0.57719 0.0
H1279 H 0.18241 0.05531 0.56224 0.0
C1280 C 0.818 0.13663 0.69911 0.0
C1281 C 0.81675 0.16214 0.69658 0.0
C1282 C 0.7963 0.12023 0.70147 0.0
C1283 C 0.77265 0.12937 0.70088 0.0
C1284 C 0.77116 0.15427 0.69581 0.0
C1285 C 0.79323 0.17047 0.69397 0.0
C1286 C 0.79887 0.09364 0.70624 0.0
C1287 C 0.74646 0.16461 0.6941 0.0
C1288 C 0.71683 0.07859 0.69907 0.0
C1289 C 0.71226 0.07993 0.7244 0.0
C1290 C 0.73554 0.09548 0.69089 0.0
C1291 C 0.75021 0.11387 0.70853 0.0
C1292 C 0.74512 0.11566 0.7341 0.0
C1293 C 0.72651 0.09838 0.74172 0.0
C1294 C 0.74032 0.09292 0.6635 0.0
C1295 C 0.76004 0.13516 0.75354 0.0
H1296 H 0.8361 0.12978 0.70036 0.0
H1297 H 0.79202 0.19009 0.69192 0.0
H1298 H 0.79383 0.09232 0.72563 0.0
H1299 H 0.78586 0.07936 0.69379 0.0
H1300 H 0.81821 0.08854 0.7035 0.0
H1301 H 0.74776 0.18054 0.68337 0.0
H1302 H 0.73171 0.14953 0.68534 0.0
H1303 H 0.74089 0.17207 0.71311 0.0
H1304 H 0.70605 0.06399 0.6857 0.0
H1305 H 0.72362 0.09878 0.76136 0.0
H1306 H 0.75851 0.08535 0.65967 0.0
H1307 H 0.74155 0.11185 0.65763 0.0
H1308 H 0.72547 0.07986 0.65204 0.0
H1309 H 0.77981 0.13113 0.75384 0.0
H1310 H 0.75266 0.13517 0.77242 0.0
H1311 H 0.75984 0.15453 0.74892 0.0
C1312 C 0.42979 0.03882 0.53036 0.0
C1313 C 0.45197 0.04698 0.51958 0.0
C1314 C 0.40845 0.05165 0.52923 0.0
C1315 C 0.4094 0.07297 0.51686 0.0
C1316 C 0.43203 0.08138 0.50625 0.0
C1317 C 0.45305 0.06824 0.50774 0.0
C1318 C 0.38478 0.04216 0.5409 0.0
C1319 C 0.43389 0.10396 0.4929 0.0
C1320 C 0.34843 0.09181 0.4929 0.0
C1321 C 0.34425 0.11262 0.51113 0.0
C1322 C 0.36953 0.07871 0.49452 0.0
C1323 C 0.38678 0.08648 0.51494 0.0
C1324 C 0.3826 0.10746 0.53339 0.0
C1325 C 0.36149 0.12029 0.53122 0.0
C1326 C 0.37339 0.05655 0.47436 0.0
C1327 C 0.40041 0.11632 0.5555 0.0
H1328 H 0.42899 0.02212 0.53924 0.0
H1329 H 0.47022 0.07426 0.49915 0.0
H1330 H 0.37846 0.05779 0.55459 0.0
H1331 H 0.36965 0.03609 0.52644 0.0
H1332 H 0.38729 0.02581 0.55041 0.0
H1333 H 0.45293 0.10831 0.48601 0.0
H1334 H 0.42034 0.10012 0.47688 0.0
H1335 H 0.42896 0.12111 0.50549 0.0
H1336 H 0.33522 0.08573 0.47734 0.0
H1337 H 0.35841 0.13627 0.54548 0.0
H1338 H 0.3741 0.03901 0.48249 0.0
H1339 H 0.39157 0.06038 0.4656 0.0
H1340 H 0.35831 0.05288 0.45971 0.0
H1341 H 0.40196 0.10045 0.56589 0.0
H1342 H 0.39436 0.13276 0.56839 0.0
H1343 H 0.41937 0.12201 0.54915 0.0
C1344 C 0.635 0.51564 0.56978 0.0
C1345 C 0.61332 0.51085 0.55444 0.0
C1346 C 0.65553 0.50179 0.5641 0.0
C1347 C 0.65415 0.48233 0.54285 0.0
C1348 C 0.63226 0.47742 0.52733 0.0
C1349 C 0.61222 0.49187 0.5332 0.0
C1350 C 0.67869 0.50796 0.58085 0.0
C1351 C 0.62985 0.45662 0.5047 0.0
C1352 C 0.71304 0.45972 0.51311 0.0
C1353 C 0.71479 0.43705 0.52238 0.0
C1354 C 0.69386 0.47498 0.5202 0.0
C1355 C 0.67561 0.4672 0.5366 0.0
C1356 C 0.6774 0.44448 0.54625 0.0
C1357 C 0.6971 0.42981 0.53922 0.0
C1358 C 0.69295 0.4993 0.50985 0.0
C1359 C 0.6581 0.43531 0.56349 0.0
H1360 H 0.63591 0.53034 0.58618 0.0
H1361 H 0.59534 0.48781 0.52153 0.0
H1362 H 0.68236 0.49094 0.5888 0.0
H1363 H 0.69516 0.51304 0.56995 0.0
H1364 H 0.677 0.52401 0.59633 0.0
H1365 H 0.61145 0.45494 0.49478 0.0
H1366 H 0.6448 0.46047 0.49162 0.0
H1367 H 0.63227 0.43801 0.51023 0.0
H1368 H 0.72676 0.46563 0.50028 0.0
H1369 H 0.69824 0.41227 0.54636 0.0
H1370 H 0.69222 0.51567 0.5252 0.0
H1371 H 0.67573 0.49782 0.49809 0.0
H1372 H 0.70937 0.50346 0.4985 0.0
H1373 H 0.65684 0.45029 0.58001 0.0
H1374 H 0.66244 0.41758 0.56983 0.0
H1375 H 0.63943 0.43157 0.55391 0.0
C1376 C 0.73981 0.22832 0.39074 0.0
C1377 C 0.73594 0.23025 0.36573 0.0
C1378 C 0.73951 0.24964 0.40969 0.0
C1379 C 0.73508 0.27349 0.40357 0.0
C1380 C 0.72991 0.2752 0.3785 0.0
C1381 C 0.73066 0.25371 0.35994 0.0
C1382 C 0.74475 0.24683 0.43621 0.0
C1383 C 0.72495 0.29983 0.37059 0.0
C1384 C 0.72128 0.32506 0.45729 0.0
C1385 C 0.74511 0.33829 0.46312 0.0
C1386 C 0.71746 0.30449 0.43731 0.0
C1387 C 0.73804 0.29682 0.42317 0.0
C1388 C 0.76198 0.31069 0.42861 0.0
C1389 C 0.76528 0.33094 0.44877 0.0
C1390 C 0.69155 0.29064 0.43157 0.0
C1391 C 0.78426 0.30369 0.41355 0.0
H1392 H 0.74335 0.21018 0.39552 0.0
H1393 H 0.72797 0.25565 0.34071 0.0
H1394 H 0.76262 0.25841 0.44314 0.0
H1395 H 0.7298 0.25414 0.44827 0.0
H1396 H 0.7461 0.22668 0.43811 0.0
H1397 H 0.71914 0.31399 0.38604 0.0
H1398 H 0.74229 0.30801 0.36278 0.0
H1399 H 0.71021 0.29621 0.3556 0.0
H1400 H 0.70574 0.33057 0.46861 0.0
H1401 H 0.78389 0.34053 0.45381 0.0
H1402 H 0.69139 0.27044 0.43394 0.0
H1403 H 0.68612 0.2906 0.41191 0.0
H1404 H 0.67736 0.29949 0.44372 0.0
H1405 H 0.78795 0.28402 0.41509 0.0
H1406 H 0.80143 0.31692 0.41968 0.0
H1407 H 0.78024 0.304 0.39365 0.0
C1408 C 0.53459 0.03327 0.89181 0.0
C1409 C 0.54412 0.03528 0.91605 0.0
C1410 C 0.55062 0.03475 0.87194 0.0
C1411 C 0.57685 0.03834 0.8765 0.0
C1412 C 0.58654 0.04073 0.90114 0.0
C1413 C 0.56999 0.03902 0.92069 0.0
C1414 C 0.53948 0.03212 0.84602 0.0
C1415 C 0.61435 0.04478 0.90679 0.0
C1416 C 0.61721 0.02062 0.82063 0.0
C1417 C 0.62325 0.04437 0.81329 0.0
C1418 C 0.60259 0.01839 0.84152 0.0
C1419 C 0.59395 0.04043 0.85547 0.0
C1420 C 0.60052 0.06448 0.8485 0.0
C1421 C 0.61498 0.06614 0.82758 0.0
C1422 C 0.59591 0.99238 0.84835 0.0
C1423 C 0.59184 0.08849 0.86287 0.0
H1424 H 0.51452 0.02993 0.8883 0.0
H1425 H 0.57725 0.04012 0.93947 0.0
H1426 H 0.54547 0.04951 0.83813 0.0
H1427 H 0.54639 0.01577 0.83377 0.0
H1428 H 0.51872 0.02914 0.8456 0.0
H1429 H 0.61886 0.04652 0.92693 0.0
H1430 H 0.6233 0.02859 0.89654 0.0
H1431 H 0.62271 0.06234 0.90039 0.0
H1432 H 0.62354 1.0037 0.80984 0.0
H1433 H 0.61971 0.08471 0.82239 0.0
H1434 H 0.57536 0.98718 0.8465 0.0
H1435 H 0.60144 0.99269 0.86802 0.0
H1436 H 0.60509 0.97733 0.83644 0.0
H1437 H 0.57114 0.08716 0.86162 0.0
H1438 H 0.59968 0.1059 0.85583 0.0
H1439 H 0.59735 0.09063 0.8828 0.0
C1440 C 0.30573 0.26252 0.36887 0.0
C1441 C 0.32701 0.28022 0.36909 0.0
C1442 C 0.30328 0.24591 0.38621 0.0
C1443 C 0.32238 0.24727 0.40463 0.0
C1444 C 0.34431 0.26457 0.40447 0.0
C1445 C 0.34645 0.2807 0.38655 0.0
C1446 C 0.27978 0.22749 0.38534 0.0
C1447 C 0.36496 0.26687 0.4239 0.0
C1448 C 0.29648 0.22599 0.46293 0.0
C1449 C 0.30216 0.20076 0.45999 0.0
C1450 C 0.3046 0.24191 0.446 0.0
C1451 C 0.31815 0.23214 0.42514 0.0
C1452 C 0.32499 0.20699 0.42277 0.0
C1453 C 0.31703 0.19162 0.44037 0.0
C1454 C 0.29724 0.26868 0.44962 0.0
C1455 C 0.33911 0.19568 0.40071 0.0
H1456 H 0.29079 0.26189 0.35521 0.0
H1457 H 0.36288 0.29443 0.38683 0.0
H1458 H 0.28459 0.2079 0.38556 0.0
H1459 H 0.26876 0.23298 0.40202 0.0
H1460 H 0.26779 0.22715 0.36857 0.0
H1461 H 0.38175 0.27936 0.41985 0.0
H1462 H 0.35813 0.27497 0.4423 0.0
H1463 H 0.37048 0.24779 0.42528 0.0
H1464 H 0.28478 0.23296 0.47801 0.0
H1465 H 0.32099 0.17193 0.43784 0.0
H1466 H 0.28284 0.26992 0.43531 0.0
H1467 H 0.31359 0.28255 0.44733 0.0
H1468 H 0.28953 0.27442 0.46822 0.0
H1469 H 0.32659 0.19192 0.3839 0.0
H1470 H 0.34599 0.17745 0.40328 0.0
H1471 H 0.35525 0.20925 0.39724 0.0
C1472 C 0.52372 0.48622 0.93282 0.0
C1473 C 0.53827 0.50394 0.95074 0.0
C1474 C 0.51246 0.49381 0.91243 0.0
C1475 C 0.51636 0.51968 0.90934 0.0
C1476 C 0.53102 0.53772 0.92722 0.0
C1477 C 0.54151 0.52972 0.94785 0.0
C1478 C 0.49665 0.47397 0.89395 0.0
C1479 C 0.53596 0.56537 0.92434 0.0
C1480 C 0.50608 0.52487 0.84197 0.0
C1481 C 0.48131 0.53051 0.84175 0.0
C1482 C 0.51861 0.52367 0.86431 0.0
C1483 C 0.50569 0.52731 0.88682 0.0
C1484 C 0.48123 0.53477 0.88685 0.0
C1485 C 0.4694 0.53657 0.86425 0.0
C1486 C 0.54493 0.51642 0.86351 0.0
C1487 C 0.46661 0.53838 0.9103 0.0
H1488 H 0.52142 0.46621 0.93442 0.0
H1489 H 0.55225 0.54375 0.96174 0.0
H1490 H 0.47798 0.48024 0.89125 0.0
H1491 H 0.50561 0.47168 0.87568 0.0
H1492 H 0.494 0.45507 0.89994 0.0
H1493 H 0.54763 0.57707 0.93997 0.0
H1494 H 0.54565 0.5668 0.90676 0.0
H1495 H 0.51805 0.57359 0.92317 0.0
H1496 H 0.51517 0.52 0.82449 0.0
H1497 H 0.45005 0.54043 0.86398 0.0
H1498 H 0.54465 0.49625 0.86602 0.0
H1499 H 0.55678 0.5284 0.87882 0.0
H1500 H 0.55369 0.51846 0.84557 0.0
H1501 H 0.46072 0.51945 0.91539 0.0
H1502 H 0.44962 0.54789 0.90799 0.0
H1503 H 0.47832 0.54982 0.92598 0.0
C1504 C 0.74275 0.80533 0.13352 0.0
C1505 C 0.72993 0.79951 0.15438 0.0
C1506 C 0.7457 0.78631 0.11303 0.0
C1507 C 0.73564 0.7608 0.1134 0.0
C1508 C 0.72236 0.75484 0.13425 0.0
C1509 C 0.7196 0.7743 0.15448 0.0
C1510 C 0.75976 0.79349 0.09106 0.0
C1511 C 0.71144 0.72785 0.13535 0.0
C1512 C 0.7255 0.71553 0.05164 0.0
C1513 C 0.74678 0.70242 0.05083 0.0
C1514 C 0.72155 0.73441 0.07195 0.0
C1515 C 0.73925 0.74037 0.09202 0.0
C1516 C 0.7607 0.72719 0.09144 0.0
C1517 C 0.76422 0.70842 0.07086 0.0
C1518 C 0.69849 0.7481 0.07185 0.0
C1519 C 0.77998 0.733 0.11253 0.0
H1520 H 0.75044 0.82486 0.1332 0.0
H1521 H 0.70985 0.7697 0.17064 0.0
H1522 H 0.77639 0.78293 0.08817 0.0
H1523 H 0.74773 0.78797 0.07394 0.0
H1524 H 0.76607 0.81427 0.09352 0.0
H1525 H 0.70123 0.72647 0.15269 0.0
H1526 H 0.69839 0.72046 0.11924 0.0
H1527 H 0.72658 0.71526 0.1342 0.0
H1528 H 0.71183 0.71107 0.03635 0.0
H1529 H 0.78068 0.69842 0.07054 0.0
H1530 H 0.70399 0.76886 0.07289 0.0
H1531 H 0.68741 0.74569 0.08842 0.0
H1532 H 0.68635 0.74099 0.05497 0.0
H1533 H 0.78814 0.75326 0.11481 0.0
H1534 H 0.79537 0.72071 0.10947 0.0
H1535 H 0.77102 0.73027 0.13018 0.0
C1536 C 0.06011 0.02662 0.14515 0.0
C1537 C 0.04725 0.02818 0.12313 0.0
C1538 C 0.04705 0.02224 0.1664 0.0
C1539 C 0.02055 0.01888 0.16537 0.0
C1540 C 0.00755 0.01967 0.14289 0.0
C1541 C 0.02106 0.02456 0.12212 0.0
C1542 C 0.06156 0.02191 0.19012 0.0
C1543 C 0.97933 0.01568 0.14085 0.0
C1544 C 0.98511 0.98652 0.2133 0.0
C1545 C 0.97642 0.00731 0.22872 0.0
C1546 C 0.99974 0.99003 0.19282 0.0
C1547 C 0.00627 0.01497 0.18785 0.0
C1548 C 0.9982 0.03611 0.20374 0.0
C1549 C 0.9832 0.03202 0.22384 0.0
C1550 C 0.00763 0.96696 0.1761 0.0
C1551 C 1.00511 0.06305 0.19928 0.0
H1552 H 0.08038 0.02967 0.14596 0.0
H1553 H 0.01115 0.02563 0.10502 0.0
H1554 H 0.05673 0.03749 0.20479 0.0
H1555 H 0.05638 1.00367 0.19682 0.0
H1556 H 0.0821 0.02433 0.18771 0.0
H1557 H 0.97214 0.01568 0.12172 0.0
H1558 H 0.9723 0.99726 0.14642 0.0
H1559 H 0.97151 0.031 0.15369 0.0
H1560 H 0.97997 0.96734 0.21683 0.0
H1561 H 0.97677 0.04822 0.23575 0.0
H1562 H 0.02825 0.96889 0.17459 0.0
H1563 H 0.99945 0.96561 0.15713 0.0
H1564 H 1.00161 0.9489 0.18292 0.0
H1565 H 0.02569 0.06698 0.19802 0.0
H1566 H 0.9987 0.0775 0.21421 0.0
H1567 H 0.99664 0.06538 0.18133 0.0
C1568 C 0.3162 0.75652 0.12913 0.0
C1569 C 0.33872 0.76517 0.14246 0.0
C1570 C 0.30624 0.77151 0.11341 0.0
C1571 C 0.31927 0.79551 0.11104 0.0
C1572 C 0.34197 0.80421 0.12476 0.0
C1573 C 0.35139 0.78891 0.1403 0.0
C1574 C 0.28196 0.76161 0.09917 0.0
C1575 C 0.35649 0.82957 0.12283 0.0
C1576 C 0.3086 0.82478 0.05351 0.0
C1577 C 0.2929 0.84338 0.06231 0.0
C1578 C 0.31699 0.80883 0.06905 0.0
C1579 C 0.30951 0.81148 0.09402 0.0
C1580 C 0.29366 0.83021 0.10301 0.0
C1581 C 0.28558 0.84593 0.08707 0.0
C1582 C 0.33398 0.78922 0.05877 0.0
C1583 C 0.28531 0.83373 0.1295 0.0
H1584 H 0.30652 0.73806 0.13085 0.0
H1585 H 0.36889 0.79544 0.15066 0.0
H1586 H 0.26815 0.77552 0.10358 0.0
H1587 H 0.28503 0.75946 0.07894 0.0
H1588 H 0.27385 0.74291 0.10347 0.0
H1589 H 0.37365 0.8337 0.135 0.0
H1590 H 0.36198 0.82975 0.10337 0.0
H1591 H 0.3446 0.84519 0.12797 0.0
H1592 H 0.31427 0.82257 0.03439 0.0
H1593 H 0.27335 0.86015 0.09401 0.0
H1594 H 0.32559 0.76989 0.06102 0.0
H1595 H 0.35215 0.79311 0.0693 0.0
H1596 H 0.33758 0.78912 0.0388 0.0
H1597 H 0.27576 0.81548 0.13352 0.0
H1598 H 0.2724 0.84863 0.13343 0.0
H1599 H 0.30182 0.83917 0.14243 0.0
C1600 C 0.048 0.52076 0.0918 0.0
C1601 C 0.03002 0.49935 0.08824 0.0
C1602 C 0.06186 0.52826 0.11432 0.0
C1603 C 0.05725 0.5143 0.13394 0.0
C1604 C 0.03809 0.49351 0.13087 0.0
C1605 C 0.02494 0.48606 0.10793 0.0
C1606 C 0.08239 0.55024 0.11662 0.0
C1607 C 0.03212 0.47852 0.15148 0.0
C1608 C 0.11136 0.51432 0.17945 0.0
C1609 C 0.10663 0.53361 0.19907 0.0
C1610 C 0.09533 0.50775 0.1583 0.0
C1611 C 0.07367 0.52033 0.1569 0.0
C1612 C 0.0683 0.53918 0.17703 0.0
C1613 C 0.085 0.54583 0.19771 0.0
C1614 C 0.10203 0.48788 0.13709 0.0
C1615 C 0.0451 0.55256 0.17656 0.0
H1616 H 0.05218 0.53081 0.07646 0.0
H1617 H 0.01103 0.46948 0.10516 0.0
H1618 H 0.08005 0.56449 0.13345 0.0
H1619 H 0.10077 0.54314 0.11868 0.0
H1620 H 0.08276 0.55994 0.10019 0.0
H1621 H 0.0149 0.46486 0.14717 0.0
H1622 H 0.0479 0.46763 0.15456 0.0
H1623 H 0.02967 0.49163 0.1691 0.0
H1624 H 0.12814 0.50497 0.18021 0.0
H1625 H 0.08114 0.56067 0.21284 0.0
H1626 H 0.1046 0.49648 0.12008 0.0
H1627 H 0.08661 0.47208 0.13298 0.0
H1628 H 0.11944 0.47975 0.14113 0.0
H1629 H 0.04608 0.56406 0.16147 0.0
H1630 H 0.04267 0.5654 0.19439 0.0
H1631 H 0.0283 0.53833 0.17258 0.0
C1632 C 0.38061 0.69612 0.2666 0.0
C1633 C 0.39002 0.70123 0.24391 0.0
C1634 C 0.39653 0.69697 0.28731 0.0
C1635 C 0.42252 0.70385 0.28567 0.0
C1636 C 0.43226 0.70845 0.2627 0.0
C1637 C 0.41595 0.70689 0.24208 0.0
C1638 C 0.38493 0.69178 0.31111 0.0
C1639 C 0.45987 0.71582 0.26008 0.0
C1640 C 0.46166 0.73774 0.34231 0.0
C1641 C 0.47526 0.71845 0.34782 0.0
C1642 C 0.44357 0.73288 0.32292 0.0
C1643 C 0.4394 0.70824 0.30822 0.0
C1644 C 0.45254 0.68844 0.31421 0.0
C1645 C 0.47057 0.69386 0.33381 0.0
C1646 C 0.42951 0.75436 0.31764 0.0
C1647 C 0.44787 0.66172 0.29957 0.0
H1648 H 0.36062 0.69219 0.26854 0.0
H1649 H 0.42354 0.71035 0.22455 0.0
H1650 H 0.39832 0.68546 0.32369 0.0
H1651 H 0.3781 0.70959 0.32067 0.0
H1652 H 0.36853 0.67699 0.30727 0.0
H1653 H 0.46463 0.71765 0.24071 0.0
H1654 H 0.46583 0.73434 0.27234 0.0
H1655 H 0.47077 0.70139 0.26608 0.0
H1656 H 0.46583 0.75696 0.35263 0.0
H1657 H 0.48129 0.67902 0.33795 0.0
H1658 H 0.40909 0.7487 0.31809 0.0
H1659 H 0.43365 0.75833 0.29875 0.0
H1660 H 0.43444 0.77221 0.33127 0.0
H1661 H 0.42763 0.65482 0.2992 0.0
H1662 H 0.45851 0.64814 0.30745 0.0
H1663 H 0.45331 0.66172 0.28006 0.0
C1664 C 0.04318 0.41908 0.01969 0.0
C1665 C 0.02098 0.42896 0.01434 0.0
C1666 C 0.04816 0.39474 0.0079 0.0
C1667 C 0.03074 0.38004 0.99004 0.0
C1668 C 0.00841 0.38993 0.98444 0.0
C1669 C 1.00371 0.41407 0.99681 0.0
C1670 C 0.07199 0.3847 0.01462 0.0
C1671 C 0.98936 0.37495 0.96542 0.0
C1672 C 0.04745 0.32599 0.94061 0.0
C1673 C 0.03525 0.30471 0.94907 0.0
C1674 C 0.0474 0.35068 0.95445 0.0
C1675 C 0.03528 0.35402 0.97745 0.0
C1676 C 0.02485 0.33234 0.98699 0.0
C1677 C 0.0247 0.30799 0.97255 0.0
C1678 C 0.0585 0.37329 0.94348 0.0
C1679 C 0.01228 0.33495 0.01167 0.0
H1680 H 0.05687 0.4305 0.03288 0.0
H1681 H 0.98629 0.4212 0.99283 0.0
H1682 H 0.06751 0.36642 0.02147 0.0
H1683 H 0.08333 0.38067 0.99791 0.0
H1684 H 0.08348 0.39834 0.02911 0.0
H1685 H 0.97348 0.3858 0.96241 0.0
H1686 H 0.99834 0.36969 0.9474 0.0
H1687 H 0.98183 0.35694 0.9715 0.0
H1688 H 0.05537 0.32357 0.92234 0.0
H1689 H 0.01534 0.29154 0.97919 0.0
H1690 H 0.07032 0.38705 0.95754 0.0
H1691 H 0.0432 0.3834 0.93749 0.0
H1692 H 0.06994 0.36748 0.92716 0.0
H1693 H 0.02406 0.34836 0.02607 0.0
H1694 H 0.0084 0.31631 0.01805 0.0
H1695 H 0.99428 0.3429 0.01001 0.0
C1696 C 0.65828 0.83902 0.2809 0.0
C1697 C 0.65752 0.82469 0.25695 0.0
C1698 C 0.64413 0.83011 0.29973 0.0
C1699 C 0.62887 0.8064 0.29428 0.0
C1700 C 0.62868 0.79159 0.27014 0.0
C1701 C 0.64303 0.80099 0.25171 0.0
C1702 C 0.64489 0.84643 0.32519 0.0
C1703 C 0.61271 0.76622 0.26359 0.0
C1704 C 0.60372 0.77294 0.34645 0.0
C1705 C 0.57906 0.77914 0.34766 0.0
C1706 C 0.62031 0.78203 0.32948 0.0
C1707 C 0.61205 0.79769 0.31334 0.0
C1708 C 0.58736 0.80449 0.31489 0.0
C1709 C 0.57118 0.79514 0.33202 0.0
C1710 C 0.6465 0.7744 0.32842 0.0
C1711 C 0.57784 0.82122 0.29808 0.0
H1712 H 0.66948 0.85747 0.28474 0.0
H1713 H 0.64246 0.79008 0.23303 0.0
H1714 H 0.62623 0.85282 0.32921 0.0
H1715 H 0.64936 0.83515 0.33957 0.0
H1716 H 0.65891 0.86355 0.32684 0.0
H1717 H 0.61575 0.75642 0.24443 0.0
H1718 H 0.61681 0.75351 0.2768 0.0
H1719 H 0.59267 0.76912 0.26516 0.0
H1720 H 0.60995 0.76057 0.35846 0.0
H1721 H 0.55217 0.80004 0.33283 0.0
H1722 H 0.66039 0.79163 0.33072 0.0
H1723 H 0.64929 0.76292 0.30996 0.0
H1724 H 0.65039 0.76304 0.34295 0.0
H1725 H 0.59018 0.83952 0.3 0.0
H1726 H 0.55844 0.82546 0.30219 0.0
H1727 H 0.57823 0.81168 0.27843 0.0
C1728 C 0.07826 0.13305 0.02429 0.0
C1729 C 0.06913 0.10715 0.01986 0.0
C1730 C 0.07441 0.1486 0.00667 0.0
C1731 C 0.06108 0.13787 0.98413 0.0
C1732 C 0.05343 0.11123 0.97891 0.0
C1733 C 0.05739 0.09617 0.99701 0.0
C1734 C 0.08282 0.17686 0.01308 0.0
C1735 C 0.03944 0.09897 0.95502 0.0
C1736 C 0.0212 0.18183 0.95773 0.0
C1737 C 0.03609 0.18972 0.93894 0.0
C1738 C 0.02902 0.16473 0.97222 0.0
C1739 C 0.05227 0.15499 0.9678 0.0
C1740 C 0.06721 0.1624 0.94856 0.0
C1741 C 0.05901 0.17975 0.93442 0.0
C1742 C 0.01253 0.15745 0.99264 0.0
C1743 C 0.09197 0.15223 0.94312 0.0
H1744 H 0.08702 0.14151 0.04221 0.0
H1745 H 0.05005 0.07614 0.99382 0.0
H1746 H 0.0926 0.18374 0.99734 0.0
H1747 H 0.06622 0.18738 0.01665 0.0
H1748 H 0.09547 0.18167 0.02982 0.0
H1749 H 0.03829 0.07781 0.95211 0.0
H1750 H 0.02015 0.10445 0.95549 0.0
H1751 H 0.04857 0.10577 0.93892 0.0
H1752 H 1.00347 0.1893 0.96143 0.0
H1753 H 0.07063 0.18555 0.91988 0.0
H1754 H 0.02265 0.16341 0.01086 0.0
H1755 H 0.00787 0.13643 0.98984 0.0
H1756 H 0.99482 0.16638 0.99342 0.0
H1757 H 0.105 0.1585 0.95944 0.0
H1758 H 0.10079 0.15882 0.92674 0.0
H1759 H 0.0894 0.13105 0.93972 0.0
C1760 C 0.36384 0.32038 0.27618 0.0
C1761 C 0.36917 0.32032 0.30138 0.0
C1762 C 0.38228 0.31662 0.25831 0.0
C1763 C 0.40661 0.31252 0.26574 0.0
C1764 C 0.41259 0.3145 0.29135 0.0
C1765 C 0.39387 0.31845 0.30881 0.0
C1766 C 0.3751 0.31495 0.23127 0.0
C1767 C 0.43824 0.31033 0.3002 0.0
C1768 C 0.43914 0.26382 0.22293 0.0
C1769 C 0.4581 0.27893 0.21288 0.0
C1770 C 0.42231 0.27464 0.23974 0.0
C1771 C 0.42407 0.30147 0.24685 0.0
C1772 C 0.44272 0.31705 0.23649 0.0
C1773 C 0.45958 0.3056 0.21965 0.0
C1774 C 0.4028 0.25716 0.25023 0.0
C1775 C 0.44503 0.34573 0.24345 0.0
H1776 H 0.34486 0.32175 0.27015 0.0
H1777 H 0.39836 0.319 0.32829 0.0
H1778 H 0.39005 0.32503 0.2216 0.0
H1779 H 0.37264 0.29463 0.22211 0.0
H1780 H 0.35733 0.32316 0.22887 0.0
H1781 H 0.44104 0.31623 0.32062 0.0
H1782 H 0.44067 0.28977 0.29533 0.0
H1783 H 0.453 0.32105 0.29089 0.0
H1784 H 0.43745 0.24322 0.21784 0.0
H1785 H 0.47402 0.3175 0.212 0.0
H1786 H 0.38381 0.26187 0.24612 0.0
H1787 H 0.40534 0.25992 0.27072 0.0
H1788 H 0.40374 0.23669 0.24256 0.0
H1789 H 0.42679 0.35274 0.2404 0.0
H1790 H 0.45937 0.35524 0.23261 0.0
H1791 H 0.45016 0.3515 0.26349 0.0
C1792 C 0.52822 0.42274 0.07096 0.0
C1793 C 0.54376 0.419 0.05067 0.0
C1794 C 0.52462 0.40462 0.0868 0.0
C1795 C 0.5368 0.3822 0.08208 0.0
C1796 C 0.5533 0.3789 0.06205 0.0
C1797 C 0.55648 0.39734 0.04648 0.0
C1798 C 0.50693 0.40893 0.10791 0.0
C1799 C 0.56678 0.35541 0.05645 0.0
C1800 C 0.54157 0.34216 0.13289 0.0
C1801 C 0.52243 0.32206 0.12565 0.0
C1802 C 0.5463 0.36193 0.11906 0.0
C1803 C 0.53152 0.36174 0.09743 0.0
C1804 C 0.51185 0.34177 0.09027 0.0
C1805 C 0.50756 0.32217 0.10444 0.0
C1806 C 0.56741 0.38282 0.12737 0.0
C1807 C 0.49556 0.34091 0.0674 0.0
H1808 H 0.51805 0.43934 0.07384 0.0
H1809 H 0.56815 0.39432 0.03047 0.0
H1810 H 0.49048 0.3942 0.10455 0.0
H1811 H 0.5162 0.407 0.12561 0.0
H1812 H 0.50022 0.42806 0.11008 0.0
H1813 H 0.58016 0.35649 0.04127 0.0
H1814 H 0.57714 0.35269 0.07329 0.0
H1815 H 0.55298 0.33829 0.05095 0.0
H1816 H 0.55321 0.34226 0.14923 0.0
H1817 H 0.49278 0.30673 0.09867 0.0
H1818 H 0.56028 0.40173 0.13005 0.0
H1819 H 0.58157 0.38277 0.1128 0.0
H1820 H 0.57676 0.38059 0.14497 0.0
H1821 H 0.48667 0.3588 0.06873 0.0
H1822 H 0.48066 0.32449 0.06468 0.0
H1823 H 0.5072 0.33949 0.05073 0.0
C1824 C 0.66139 0.19534 0.24416 0.0
C1825 C 0.66926 0.20258 0.26904 0.0
C1826 C 0.63992 0.20386 0.23519 0.0
C1827 C 0.62603 0.22004 0.2516 0.0
C1828 C 0.63431 0.22784 0.27675 0.0
C1829 C 0.65591 0.2189 0.28524 0.0
C1830 C 0.63178 0.19504 0.20827 0.0
C1831 C 0.62008 0.24514 0.29472 0.0
C1832 C 0.58112 0.25348 0.21792 0.0
C1833 C 0.55906 0.23658 0.21678 0.0
C1834 C 0.60273 0.24927 0.2306 0.0
C1835 C 0.60232 0.22763 0.24235 0.0
C1836 C 0.57971 0.21144 0.24261 0.0
C1837 C 0.55838 0.21613 0.2299 0.0
C1838 C 0.62641 0.26712 0.23009 0.0
C1839 C 0.57844 0.18816 0.25493 0.0
H1840 H 0.67187 0.18265 0.23176 0.0
H1841 H 0.66217 0.22438 0.30453 0.0
H1842 H 0.61309 0.18376 0.20702 0.0
H1843 H 0.63007 0.21175 0.19909 0.0
H1844 H 0.64507 0.18308 0.19784 0.0
H1845 H 0.62985 0.25078 0.31318 0.0
H1846 H 0.6173 0.26264 0.28719 0.0
H1847 H 0.60126 0.23533 0.29722 0.0
H1848 H 0.58188 0.26945 0.20805 0.0
H1849 H 0.54145 0.20302 0.22936 0.0
H1850 H 0.63982 0.25735 0.21767 0.0
H1851 H 0.63547 0.27239 0.24888 0.0
H1852 H 0.62285 0.28485 0.22329 0.0
H1853 H 0.58944 0.17385 0.24433 0.0
H1854 H 0.55894 0.17916 0.25588 0.0
H1855 H 0.58677 0.19322 0.27403 0.0
C1856 C 0.51114 0.11194 0.01611 0.0
C1857 C 0.50876 0.08832 0.02416 0.0
C1858 C 0.51677 0.13487 0.03323 0.0
C1859 C 0.51971 0.13405 0.05892 0.0
C1860 C 0.51961 0.11001 0.0665 0.0
C1861 C 0.51404 0.08758 0.04911 0.0
C1862 C 0.51853 0.15996 0.02395 0.0
C1863 C 0.52347 0.1072 0.0931 0.0
C1864 C 0.54266 0.19235 0.10784 0.0
C1865 C 0.52007 0.20112 0.11606 0.0
C1866 C 0.54296 0.17102 0.0888 0.0
C1867 C 0.5201 0.15787 0.07794 0.0
C1868 C 0.49728 0.16694 0.086 0.0
C1869 C 0.49763 0.18882 0.10444 0.0
C1870 C 0.56769 0.16237 0.08046 0.0
C1871 C 0.47243 0.15335 0.07534 0.0
H1872 H 0.50733 0.11256 0.99672 0.0
H1873 H 0.51266 0.06928 0.05532 0.0
H1874 H 0.50142 0.16931 0.02869 0.0
H1875 H 0.53471 0.17305 0.03303 0.0
H1876 H 0.52046 0.15736 1.0035 0.0
H1877 H 0.53159 0.12505 0.10515 0.0
H1878 H 0.50512 0.10058 0.10014 0.0
H1879 H 0.53595 0.09222 0.09433 0.0
H1880 H 0.56014 0.20227 0.11627 0.0
H1881 H 0.48028 0.19648 0.1096 0.0
H1882 H 0.56858 0.15998 0.05994 0.0
H1883 H 0.56953 0.14353 0.08573 0.0
H1884 H 0.5838 0.17606 0.08889 0.0
H1885 H 0.47126 0.15304 0.05505 0.0
H1886 H 0.45639 0.16257 0.08388 0.0
H1887 H 0.47068 0.13322 0.07825 0.0
C1888 C 0.3044 0.3775 0.7059 0.0
C1889 C 0.28054 0.38574 0.70845 0.0
C1890 C 0.32611 0.39464 0.7117 0.0
C1891 C 0.32411 0.42059 0.7212 0.0
C1892 C 0.30018 0.42925 0.72329 0.0
C1893 C 0.27871 0.4118 0.71663 0.0
C1894 C 0.35116 0.38467 0.7086 0.0
C1895 C 0.29721 0.45683 0.73321 0.0
C1896 C 0.37467 0.46014 0.76478 0.0
C1897 C 0.38705 0.47529 0.74923 0.0
C1898 C 0.35487 0.44145 0.7556 0.0
C1899 C 0.34683 0.43839 0.73039 0.0
C1900 C 0.35963 0.45338 0.71448 0.0
C1901 C 0.37951 0.47182 0.72417 0.0
C1902 C 0.34197 0.42567 0.77313 0.0
C1903 C 0.35179 0.45053 0.68746 0.0
H1904 H 0.30623 0.35742 0.70006 0.0
H1905 H 0.26049 0.4186 0.71811 0.0
H1906 H 0.36429 0.39763 0.69977 0.0
H1907 H 0.35906 0.38382 0.72715 0.0
H1908 H 0.34975 0.36523 0.69725 0.0
H1909 H 0.27739 0.46075 0.73269 0.0
H1910 H 0.30451 0.46191 0.7527 0.0
H1911 H 0.30829 0.46949 0.72228 0.0
H1912 H 0.37991 0.46351 0.78437 0.0
H1913 H 0.38888 0.4839 0.71227 0.0
H1914 H 0.34171 0.40505 0.76552 0.0
H1915 H 0.32226 0.42973 0.77505 0.0
H1916 H 0.35128 0.42958 0.79185 0.0
H1917 H 0.35072 0.43024 0.67839 0.0
H1918 H 0.36489 0.46216 0.67716 0.0
H1919 H 0.33285 0.45656 0.68593 0.0
C1920 C 0.27923 0.62926 0.81584 0.0
C1921 C 0.28075 0.65484 0.82779 0.0
C1922 C 0.30031 0.61589 0.81383 0.0
C1923 C 0.32344 0.62792 0.82493 0.0
C1924 C 0.32489 0.65318 0.83826 0.0
C1925 C 0.30368 0.66648 0.83919 0.0
C1926 C 0.29796 0.58911 0.79906 0.0
C1927 C 0.34899 0.66639 0.85106 0.0
C1928 C 0.3706 0.58114 0.83067 0.0
C1929 C 0.38519 0.58335 0.80993 0.0
C1930 C 0.35147 0.59679 0.83681 0.0
C1931 C 0.34622 0.61434 0.82129 0.0
C1932 C 0.36145 0.61716 0.80077 0.0
C1933 C 0.38101 0.60192 0.7956 0.0
C1934 C 0.3363 0.59387 0.85938 0.0
C1935 C 0.35613 0.63511 0.78334 0.0
H1936 H 0.26156 0.61965 0.80765 0.0
H1937 H 0.30536 0.68624 0.8483 0.0
H1938 H 0.31101 0.58825 0.78347 0.0
H1939 H 0.30323 0.57556 0.81093 0.0
H1940 H 0.2787 0.58259 0.79134 0.0
H1941 H 0.34626 0.68468 0.86324 0.0
H1942 H 0.35713 0.65383 0.86242 0.0
H1943 H 0.36281 0.67046 0.83699 0.0
H1944 H 0.3739 0.5669 0.84188 0.0
H1945 H 0.3921 0.60353 0.77942 0.0
H1946 H 0.3173 0.58437 0.85347 0.0
H1947 H 0.33413 0.61287 0.87046 0.0
H1948 H 0.34501 0.58231 0.87145 0.0
H1949 H 0.33758 0.6287 0.77389 0.0
H1950 H 0.37044 0.63599 0.76896 0.0
H1951 H 0.35535 0.65464 0.79382 0.0
C1952 C 0.93035 0.49426 0.49017 0.0
C1953 C 0.94526 0.51071 0.50878 0.0
C1954 C 0.9079 0.48071 0.49572 0.0
C1955 C 0.89967 0.48408 0.52044 0.0
C1956 C 0.91451 0.5006 0.53937 0.0
C1957 C 0.93723 0.51348 0.53338 0.0
C1958 C 0.89278 0.46304 0.47497 0.0
C1959 C 0.90617 0.505 0.56586 0.0
C1960 C 0.82962 0.46718 0.52142 0.0
C1961 C 0.8279 0.44197 0.52563 0.0
C1962 C 0.85287 0.48197 0.52192 0.0
C1963 C 0.87499 0.47096 0.52593 0.0
C1964 C 0.8732 0.44606 0.53188 0.0
C1965 C 0.84957 0.43192 0.53191 0.0
C1966 C 0.85383 0.50867 0.5162 0.0
C1967 C 0.89627 0.43344 0.53589 0.0
H1968 H 0.93597 0.49225 0.47105 0.0
H1969 H 0.94872 0.52568 0.54807 0.0
H1970 H 0.88866 0.44376 0.47988 0.0
H1971 H 0.87461 0.4703 0.47222 0.0
H1972 H 0.90259 0.46121 0.45711 0.0
H1973 H 0.92001 0.51817 0.5785 0.0
H1974 H 0.88807 0.51316 0.56674 0.0
H1975 H 0.90308 0.4866 0.57272 0.0
H1976 H 0.81281 0.47488 0.51645 0.0
H1977 H 0.84826 0.41225 0.53473 0.0
H1978 H 0.86044 0.50881 0.49708 0.0
H1979 H 0.86722 0.52206 0.5291 0.0
H1980 H 0.8352 0.5158 0.51749 0.0
H1981 H 0.90518 0.42825 0.51782 0.0
H1982 H 0.89182 0.41583 0.54394 0.0
H1983 H 0.91016 0.44669 0.54833 0.0
C1984 C 0.75732 0.89596 0.82847 0.0
C1985 C 0.77608 0.88431 0.81497 0.0
C1986 C 0.7452 0.91477 0.81974 0.0
C1987 C 0.75207 0.92219 0.79688 0.0
C1988 C 0.77133 0.9106 0.78326 0.0
C1989 C 0.78312 0.89166 0.79248 0.0
C1990 C 0.72476 0.92644 0.83484 0.0
C1991 C 0.77926 0.91803 0.75889 0.0
C1992 C 0.70266 0.95247 0.76503 0.0
C1993 C 0.71038 0.97864 0.77238 0.0
C1994 C 0.7164 0.93393 0.77229 0.0
C1995 C 0.73855 0.94165 0.7872 0.0
C1996 C 0.74671 0.96804 0.79428 0.0
C1997 C 0.73251 0.98619 0.78687 0.0
C1998 C 0.70689 0.90604 0.76447 0.0
C1999 C 0.77022 0.97712 0.81009 0.0
H2000 H 0.75188 0.8901 0.84587 0.0
H2001 H 0.79763 0.88251 0.78205 0.0
H2002 H 0.72935 0.94746 0.83946 0.0
H2003 H 0.70689 0.9226 0.82382 0.0
H2004 H 0.72192 0.91884 0.8524 0.0
H2005 H 0.79504 0.9079 0.75099 0.0
H2006 H 0.76326 0.91362 0.74527 0.0
H2007 H 0.78494 0.9389 0.76143 0.0
H2008 H 0.68564 0.94641 0.75377 0.0
H2009 H 0.73875 1.00634 0.79251 0.0
H2010 H 0.70206 0.89744 0.78112 0.0
H2011 H 0.72169 0.89559 0.75491 0.0
H2012 H 0.69008 0.90312 0.75187 0.0
H2013 H 0.76789 0.9715 0.82861 0.0
H2014 H 0.77492 0.99817 0.81271 0.0
H2015 H 0.78622 0.96791 0.80149 0.0
C2016 C 0.61045 0.53956 0.02047 0.0
C2017 C 0.60963 0.51334 0.01183 0.0
C2018 C 0.6332 0.55536 0.02405 0.0
C2019 C 0.65592 0.5447 0.01858 0.0
C2020 C 0.65526 0.51769 0.01268 0.0
C2021 C 0.63204 0.50233 0.009 0.0
C2022 C 0.63198 0.5834 0.03318 0.0
C2023 C 0.67878 0.5047 0.00944 0.0
C2024 C 0.70915 0.58297 0.99079 0.0
C2025 C 0.72139 0.59777 0.01197 0.0
C2026 C 0.68786 0.56565 0.99268 0.0
C2027 C 0.67956 0.56175 0.01643 0.0
C2028 C 0.69329 0.57507 0.03789 0.0
C2029 C 0.71364 0.59328 0.03541 0.0
C2030 C 0.6742 0.55172 0.96917 0.0
C2031 C 0.6864 0.57038 0.0635 0.0
H2032 H 0.59305 0.54799 0.02324 0.0
H2033 H 0.63147 0.48193 1.00266 0.0
H2034 H 0.65009 0.59525 0.03317 0.0
H2035 H 0.61798 0.59053 0.02184 0.0
H2036 H 0.62533 0.58598 0.05249 0.0
H2037 H 0.67703 0.48766 0.01865 0.0
H2038 H 0.68122 0.49777 0.98941 0.0
H2039 H 0.69574 0.51742 0.01718 0.0
H2040 H 0.71626 0.58492 0.9727 0.0
H2041 H 0.72368 0.6039 0.05193 0.0
H2042 H 0.654 0.55417 0.97008 0.0
H2043 H 0.67586 0.53103 0.96706 0.0
H2044 H 0.68182 0.55846 0.95238 0.0
H2045 H 0.67067 0.5813 0.06998 0.0
H2046 H 0.70231 0.57667 0.0771 0.0
H2047 H 0.68031 0.54984 0.06335 0.0
C2048 C 0.28688 0.67433 0.19326 0.0
C2049 C 0.31052 0.66621 0.19565 0.0
C2050 C 0.26496 0.65792 0.19522 0.0
C2051 C 0.26676 0.63301 0.20014 0.0
C2052 C 0.29054 0.6241 0.2005 0.0
C2053 C 0.31205 0.64071 0.19805 0.0
C2054 C 0.24011 0.66803 0.19379 0.0
C2055 C 0.29344 0.59753 0.20512 0.0
C2056 C 0.22135 0.60102 0.24098 0.0
C2057 C 0.20738 0.58235 0.22364 0.0
C2058 C 0.23956 0.61872 0.23338 0.0
C2059 C 0.24452 0.61719 0.20779 0.0
C2060 C 0.23004 0.59864 0.19013 0.0
C2061 C 0.21176 0.58129 0.1983 0.0
C2062 C 0.25428 0.63836 0.25285 0.0
C2063 C 0.23462 0.59638 0.16273 0.0
H2064 H 0.28547 0.69395 0.19131 0.0
H2065 H 0.33026 0.63405 0.19918 0.0
H2066 H 0.23457 0.67522 0.21288 0.0
H2067 H 0.24115 0.6841 0.18324 0.0
H2068 H 0.22546 0.65287 0.18498 0.0
H2069 H 0.31285 0.59267 0.20231 0.0
H2070 H 0.28848 0.59604 0.2245 0.0
H2071 H 0.28055 0.58317 0.19263 0.0
H2072 H 0.2186 0.60124 0.26061 0.0
H2073 H 0.20119 0.56655 0.18491 0.0
H2074 H 0.25375 0.65772 0.2483 0.0
H2075 H 0.27415 0.63464 0.25308 0.0
H2076 H 0.24697 0.63818 0.27173 0.0
H2077 H 0.2356 0.61537 0.15702 0.0
H2078 H 0.2198 0.58326 0.15128 0.0
H2079 H 0.25287 0.58901 0.1587 0.0
C2080 C 0.95025 0.56206 0.00512 0.0
C2081 C 0.94965 0.54191 0.01844 0.0
C2082 C 0.92934 0.57539 1.00377 0.0
C2083 C 0.9073 0.5683 0.01603 0.0
C2084 C 0.90692 0.54827 0.03006 0.0
C2085 C 0.92814 0.5352 0.03099 0.0
C2086 C 0.93059 0.59655 0.98862 0.0
C2087 C 0.8839 0.54024 0.04353 0.0
C2088 C 0.85968 0.61625 0.0282 0.0
C2089 C 0.84176 0.60703 0.00897 0.0
C2090 C 0.88095 0.60376 0.03082 0.0
C2091 C 0.88455 0.58153 0.01373 0.0
C2092 C 0.86659 0.57217 0.99418 0.0
C2093 C 0.84539 0.58498 0.99207 0.0
C2094 C 0.89955 0.61435 0.05195 0.0
C2095 C 0.86979 0.54861 0.97547 0.0
H2096 H 0.96689 0.56694 0.99515 0.0
H2097 H 0.92768 0.51935 0.04102 0.0
H2098 H 0.91657 0.59149 0.97301 0.0
H2099 H 0.92591 0.61443 1.0002 0.0
H2100 H 0.94936 0.60028 0.9809 0.0
H2101 H 0.887 0.52516 0.05453 0.0
H2102 H 0.87806 0.55691 0.05619 0.0
H2103 H 0.86821 0.5329 0.02994 0.0
H2104 H 0.85703 0.63321 0.04142 0.0
H2105 H 0.83165 0.57769 0.97719 0.0
H2106 H 0.9182 0.61929 0.04453 0.0
H2107 H 0.9016 0.59967 0.06369 0.0
H2108 H 0.8939 0.63165 0.06384 0.0
H2109 H 0.88757 0.55152 0.96576 0.0
H2110 H 0.85417 0.54377 0.96139 0.0
H2111 H 0.87093 0.5321 0.98508 0.0
C2112 C 0.13633 0.02441 0.0552 0.0
C2113 C 0.11263 0.01256 0.05951 0.0
C2114 C 0.15568 0.00986 0.04657 0.0
C2115 C 0.1511 0.98284 0.0418 0.0
C2116 C 0.127 0.97085 0.04557 0.0
C2117 C 0.10814 0.98583 0.05452 0.0
C2118 C 0.18117 0.02338 0.04305 0.0
C2119 C 0.12116 0.94215 0.0403 0.0
C2120 C 0.19432 0.94506 0.99921 0.0
C2121 C 0.20925 0.93589 0.0162 0.0
C2122 C 0.17539 0.96035 0.00727 0.0
C2123 C 0.17148 0.96704 0.033 0.0
C2124 C 0.18665 0.95812 0.05027 0.0
C2125 C 0.20519 0.94249 0.04167 0.0
C2126 C 0.15938 0.96908 0.98822 0.0
C2127 C 0.18329 0.96509 0.07787 0.0
H2128 H 0.13993 0.04505 0.05926 0.0
H2129 H 0.08976 0.97661 0.05761 0.0
H2130 H 0.19524 0.01741 0.05521 0.0
H2131 H 0.18685 0.01794 0.02362 0.0
H2132 H 0.18165 0.04448 0.04739 0.0
H2133 H 0.10128 0.93583 0.04345 0.0
H2134 H 0.12537 0.93466 0.02079 0.0
H2135 H 0.13316 0.93347 0.05239 0.0
H2136 H 0.19717 0.94 0.97949 0.0
H2137 H 0.21671 0.93568 0.05496 0.0
H2138 H 0.16084 0.99023 0.99141 0.0
H2139 H 0.13946 0.96199 0.99013 0.0
H2140 H 0.16482 0.96225 0.96891 0.0
H2141 H 0.18513 0.98616 0.08346 0.0
H2142 H 0.19714 0.95736 0.0889 0.0
H2143 H 0.16423 0.95764 0.08261 0.0
loop_
_geom_bond_atom_site_label_1
_geom_bond_atom_site_label_2
_geom_bond_distance
_geom_bond_site_symmetry_2
_ccdc_geom_bond_type
H0 C3 0.929 . S
H1 C6 0.929 . S
H2 C8 0.930 . S
C3 H0 0.929 . S
C3 C4 1.398 . S
C3 C5 1.396 . S
C4 C3 1.398 . S
C4 C8 1.407 . S
C5 C3 1.396 . S
C5 C6 1.394 . S
C6 H1 0.929 . S
C6 C5 1.394 . S
C6 C7 1.382 . S
C7 C6 1.382 . S
C7 C8 1.392 . S
C7 N9 1.420 . S
C8 H2 0.930 . S
C8 C4 1.407 . S
C8 C7 1.392 . S
N9 C7 1.420 . S
N9 C10 1.244 . S
C10 N9 1.244 . S
H11 C14 0.929 . S
H12 C17 0.929 . S
H13 C19 0.930 . S
C14 H11 0.929 . S
C14 C15 1.398 . S
C14 C16 1.396 . S
C15 C14 1.398 . S
C15 C19 1.407 . S
C16 C14 1.396 . S
C16 C17 1.394 . S
C17 H12 0.929 . S
C17 C16 1.394 . S
C17 C18 1.382 . S
C18 C17 1.382 . S
C18 C19 1.392 . S
C18 N20 1.420 . S
C19 H13 0.930 . S
C19 C15 1.407 . S
C19 C18 1.392 . S
N20 C18 1.420 . S
N20 C21 1.244 . S
C21 N20 1.244 . S
H22 C25 0.929 . S
H23 C28 0.929 . S
H24 C30 0.930 1_556 S
C25 H22 0.929 . S
C25 C26 1.385 1_455 S
C25 C27 1.396 . S
C26 C25 1.385 1_655 S
C26 C30 1.427 . S
C27 C25 1.396 . S
C27 C28 1.394 1_455 S
C28 H23 0.929 . S
C28 C27 1.394 1_655 S
C28 C29 1.382 . S
C29 C28 1.382 . S
C29 C30 1.392 . S
C29 N31 1.420 . S
C30 H24 0.930 1_554 S
C30 C26 1.427 . S
C30 C29 1.392 . S
N31 C29 1.420 . S
N31 C32 1.244 . S
C32 N31 1.244 . S
H33 C36 0.929 . S
H34 C39 0.929 . S
H35 C41 0.930 . S
C36 H33 0.929 . S
C36 C37 1.398 . S
C36 C38 1.396 . S
C37 C36 1.398 . S
C37 C41 1.407 . S
C38 C36 1.396 . S
C38 C39 1.394 . S
C39 H34 0.929 . S
C39 C38 1.394 . S
C39 C40 1.382 . S
C40 C39 1.382 . S
C40 C41 1.392 . S
C40 N42 1.420 . S
C41 H35 0.930 . S
C41 C37 1.407 . S
C41 C40 1.392 . S
N42 C40 1.420 . S
N42 C43 1.244 . S
C43 N42 1.244 . S
H44 C47 0.929 1_545 S
H45 C50 0.929 . S
H46 C52 0.930 . S
C47 H44 0.929 1_565 S
C47 C48 1.398 . S
C47 C49 1.396 . S
C48 C47 1.398 . S
C48 C52 1.407 . S
C49 C47 1.396 . S
C49 C50 1.394 . S
C50 H45 0.929 . S
C50 C49 1.394 . S
C50 C51 1.382 . S
C51 C50 1.382 . S
C51 C52 1.392 . S
C51 N53 1.420 . S
C52 H46 0.930 . S
C52 C48 1.407 . S
C52 C51 1.392 . S
N53 C51 1.420 . S
N53 C54 1.244 . S
C54 N53 1.244 . S
H55 C58 0.929 . S
H56 C61 0.929 . S
H57 C63 0.930 . S
C58 H55 0.929 . S
C58 C59 1.398 . S
C58 C60 1.396 . S
C59 C58 1.398 . S
C59 C63 1.407 . S
C60 C58 1.396 . S
C60 C61 1.394 . S
C61 H56 0.929 . S
C61 C60 1.394 . S
C61 C62 1.382 . S
C62 C61 1.382 . S
C62 C63 1.392 . S
C62 N64 1.420 . S
C63 H57 0.930 . S
C63 C59 1.407 . S
C63 C62 1.392 . S
N64 C62 1.420 . S
N64 C65 1.244 . S
C65 N64 1.244 . S
H66 C69 0.929 . S
H67 C72 0.929 . S
H68 C74 0.930 . S
C69 H66 0.929 . S
C69 C70 1.398 . S
C69 C71 1.396 . S
C70 C69 1.398 . S
C70 C74 1.407 . S
C71 C69 1.396 . S
C71 C72 1.394 1_655 S
C72 H67 0.929 . S
C72 C71 1.394 1_455 S
C72 C73 1.382 . S
C73 C72 1.382 . S
C73 C74 1.392 1_455 S
C73 N75 1.420 . S
C74 H68 0.930 . S
C74 C70 1.407 . S
C74 C73 1.392 1_655 S
N75 C73 1.420 . S
N75 C76 1.244 . S
C76 N75 1.244 . S
H77 C80 0.929 . S
H78 C83 0.929 . S
H79 C85 0.930 . S
C80 H77 0.929 . S
C80 C81 1.398 . S
C80 C82 1.396 . S
C81 C80 1.398 . S
C81 C85 1.407 . S
C82 C80 1.396 . S
C82 C83 1.394 . S
C83 H78 0.929 . S
C83 C82 1.394 . S
C83 C84 1.382 . S
C84 C83 1.382 . S
C84 C85 1.392 . S
C84 N86 1.420 . S
C85 H79 0.930 . S
C85 C81 1.407 . S
C85 C84 1.392 . S
N86 C84 1.420 . S
N86 C87 1.244 . S
C87 N86 1.244 . S
H88 C91 0.929 . S
H89 C94 0.929 . S
H90 C96 0.930 . S
C91 H88 0.929 . S
C91 C92 1.398 . S
C91 C93 1.396 . S
C92 C91 1.398 . S
C92 C96 1.407 . S
C93 C91 1.396 . S
C93 C94 1.394 . S
C94 H89 0.929 . S
C94 C93 1.394 . S
C94 C95 1.382 . S
C95 C94 1.382 . S
C95 C96 1.392 . S
C95 N97 1.420 . S
C96 H90 0.930 . S
C96 C92 1.407 . S
C96 C95 1.392 . S
N97 C95 1.420 . S
N97 C98 1.244 . S
C98 N97 1.244 . S
H99 C102 0.929 . S
H100 C105 0.922 1_545 S
H101 C107 0.930 . S
C102 H99 0.929 . S
C102 C103 1.398 . S
C102 C104 1.396 . S
C103 C102 1.398 . S
C103 C107 1.407 . S
C104 C102 1.396 . S
C104 C105 1.401 . S
C105 H100 0.922 1_565 S
C105 C104 1.401 . S
C105 C106 1.382 . S
C106 C105 1.382 . S
C106 C107 1.392 . S
C106 N108 1.420 1_565 S
C107 H101 0.930 . S
C107 C103 1.407 . S
C107 C106 1.392 . S
N108 C106 1.420 1_545 S
N108 C109 1.244 . S
C109 N108 1.244 . S
H110 C113 0.929 . S
H111 C116 0.929 . S
H112 C118 0.930 . S
C113 H110 0.929 . S
C113 C114 1.398 . S
C113 C115 1.396 . S
C114 C113 1.398 . S
C114 C118 1.407 . S
C115 C113 1.396 . S
C115 C116 1.394 . S
C116 H111 0.929 . S
C116 C115 1.394 . S
C116 C117 1.382 . S
C117 C116 1.382 . S
C117 C118 1.392 . S
C117 N119 1.420 . S
C118 H112 0.930 . S
C118 C114 1.407 . S
C118 C117 1.392 . S
N119 C117 1.420 . S
N119 C120 1.244 . S
C120 N119 1.244 . S
H121 C124 0.929 . S
H122 C127 0.929 . S
H123 C129 0.930 . S
C124 H121 0.929 . S
C124 C125 1.398 . S
C124 C126 1.396 . S
C125 C124 1.398 . S
C125 C129 1.407 . S
C126 C124 1.396 . S
C126 C127 1.394 . S
C127 H122 0.929 . S
C127 C126 1.394 . S
C127 C128 1.382 . S
C128 C127 1.382 . S
C128 C129 1.392 . S
C128 N130 1.420 . S
C129 H123 0.930 . S
C129 C125 1.407 . S
C129 C128 1.392 . S
N130 C128 1.420 . S
N130 C131 1.244 . S
C131 N130 1.244 . S
H132 C135 0.929 . S
H133 C138 0.929 . S
H134 C140 0.930 . S
C135 H132 0.929 . S
C135 C136 1.398 . S
C135 C137 1.396 . S
C136 C135 1.398 . S
C136 C140 1.407 . S
C137 C135 1.396 . S
C137 C138 1.394 . S
C138 H133 0.929 . S
C138 C137 1.394 . S
C138 C139 1.382 . S
C139 C138 1.382 . S
C139 C140 1.392 . S
C139 N141 1.420 . S
C140 H134 0.930 . S
C140 C136 1.407 . S
C140 C139 1.392 . S
N141 C139 1.420 . S
N141 C142 1.244 . S
C142 N141 1.244 . S
H143 C146 0.929 . S
H144 C149 0.929 . S
H145 C151 0.930 . S
C146 H143 0.929 . S
C146 C147 1.398 . S
C146 C148 1.396 . S
C147 C146 1.398 . S
C147 C151 1.407 . S
C148 C146 1.396 . S
C148 C149 1.394 1_556 S
C149 H144 0.929 . S
C149 C148 1.394 1_554 S
C149 C150 1.378 1_554 S
C150 C149 1.378 1_556 S
C150 C151 1.429 . S
C150 N152 1.388 1_556 S
C151 H145 0.930 . S
C151 C147 1.407 . S
C151 C150 1.429 . S
N152 C150 1.388 1_554 S
N152 C153 1.244 . S
C153 N152 1.244 . S
H154 C157 0.929 . S
H155 C160 0.929 . S
H156 C162 0.930 . S
C157 H154 0.929 . S
C157 C158 1.398 . S
C157 C159 1.396 . S
C158 C157 1.398 . S
C158 C162 1.407 . S
C159 C157 1.396 . S
C159 C160 1.394 . S
C160 H155 0.929 . S
C160 C159 1.394 . S
C160 C161 1.382 . S
C161 C160 1.382 . S
C161 C162 1.392 . S
C161 N163 1.420 . S
C162 H156 0.930 . S
C162 C158 1.407 . S
C162 C161 1.392 . S
N163 C161 1.420 . S
N163 C164 1.244 . S
C164 N163 1.244 . S
H165 C168 0.913 1_554 S
H166 C171 0.929 . S
H167 C173 0.930 1_565 S
C168 H165 0.913 1_556 S
C168 C169 1.408 . S
C168 C170 1.403 . S
C169 C168 1.408 . S
C169 C173 1.407 . S
C170 C168 1.403 . S
C170 C171 1.394 . S
C171 H166 0.929 . S
C171 C170 1.394 . S
C171 C172 1.382 . S
C172 C171 1.382 . S
C172 C173 1.392 . S
C172 N174 1.420 . S
C173 H167 0.930 1_545 S
C173 C169 1.407 . S
C173 C172 1.392 . S
N174 C172 1.420 . S
N174 C175 1.244 . S
C175 N174 1.244 . S
Mn176 O181 2.095 . S
Mn176 O191 2.162 . S
Mn176 O192 2.297 . S
Mn176 O200 2.385 . S
Mn176 O201 2.209 . S
Mn176 O202 2.094 . S
Mn177 O182 2.121 1_556 S
Mn177 N184 2.257 . S
Mn177 N193 2.282 . S
Mn177 O201 2.215 1_556 S
Mn177 O203 2.117 1_556 S
C178 O200 1.234 . S
C178 O201 1.283 . S
C179 O191 1.281 . S
C179 O192 1.236 . S
C180 O202 1.240 . S
C180 O203 1.264 . S
O181 Mn176 2.095 . S
O181 C190 1.250 . S
O182 Mn177 2.121 1_554 S
O182 C190 1.258 . S
C183 N184 1.326 . S
C183 C187 1.460 . S
C183 H189 0.929 . S
N184 Mn177 2.257 . S
N184 C183 1.326 . S
N184 C188 1.362 . S
C185 C186 1.258 . S
C185 C188 1.431 . S
C185 C205 1.449 . S
C186 C185 1.258 . S
C186 C187 1.477 . S
C186 H206 0.931 . S
C187 C183 1.460 . S
C187 C186 1.477 . S
C187 H207 0.930 . S
C188 N184 1.362 . S
C188 C185 1.431 . S
C188 C198 1.476 . S
H189 C183 0.929 . S
C190 O181 1.250 . S
C190 O182 1.258 . S
O191 Mn176 2.162 . S
O191 C179 1.281 . S
O192 Mn176 2.297 . S
O192 C179 1.236 . S
N193 Mn177 2.282 . S
N193 C194 1.328 . S
N193 C198 1.318 . S
C194 N193 1.328 . S
C194 C195 1.457 . S
C194 H199 0.929 . S
C195 C194 1.457 . S
C195 C196 1.291 . S
C195 H208 0.931 . S
C196 C195 1.291 . S
C196 C197 1.373 . S
C196 H209 0.929 . S
C197 C196 1.373 . S
C197 C198 1.396 . S
C197 C204 1.403 . S
C198 C188 1.476 . S
C198 N193 1.318 . S
C198 C197 1.396 . S
H199 C194 0.929 . S
O200 Mn176 2.385 . S
O200 C178 1.234 . S
O201 Mn176 2.209 . S
O201 Mn177 2.215 1_554 S
O201 C178 1.283 . S
O202 Mn176 2.094 . S
O202 C180 1.240 . S
O203 Mn177 2.117 1_554 S
O203 C180 1.264 . S
C204 C197 1.403 . S
C204 C205 1.399 . S
C204 H210 0.929 . S
C205 C185 1.449 . S
C205 C204 1.399 . S
C205 H211 0.930 . S
H206 C186 0.931 . S
H207 C187 0.930 . S
H208 C195 0.931 . S
H209 C196 0.929 . S
H210 C204 0.929 . S
H211 C205 0.930 . S
Mn212 O217 2.095 . S
Mn212 O227 2.162 . S
Mn212 O228 2.297 . S
Mn212 O236 2.385 . S
Mn212 O237 2.209 . S
Mn212 O238 2.094 . S
Mn213 O218 2.121 . S
Mn213 N220 2.257 . S
Mn213 N229 2.282 . S
Mn213 O237 2.215 . S
Mn213 O239 2.117 . S
C214 O236 1.234 . S
C214 O237 1.283 . S
C215 O227 1.281 . S
C215 O228 1.236 . S
C216 O238 1.240 . S
C216 O239 1.264 . S
O217 Mn212 2.095 . S
O217 C226 1.250 . S
O218 Mn213 2.121 . S
O218 C226 1.258 . S
C219 N220 1.326 . S
C219 C223 1.460 . S
C219 H225 0.929 . S
N220 Mn213 2.257 . S
N220 C219 1.326 . S
N220 C224 1.362 . S
C221 C222 1.258 . S
C221 C224 1.431 . S
C221 C241 1.449 . S
C222 C221 1.258 . S
C222 C223 1.477 . S
C222 H242 0.931 . S
C223 C219 1.460 . S
C223 C222 1.477 . S
C223 H243 0.930 . S
C224 N220 1.362 . S
C224 C221 1.431 . S
C224 C234 1.476 . S
H225 C219 0.929 . S
C226 O217 1.250 . S
C226 O218 1.258 . S
O227 Mn212 2.162 . S
O227 C215 1.281 . S
O228 Mn212 2.297 . S
O228 C215 1.236 . S
N229 Mn213 2.282 . S
N229 C230 1.328 . S
N229 C234 1.318 . S
C230 N229 1.328 . S
C230 C231 1.457 . S
C230 H235 0.929 . S
C231 C230 1.457 . S
C231 C232 1.291 . S
C231 H244 0.931 . S
C232 C231 1.291 . S
C232 C233 1.373 . S
C232 H245 0.929 . S
C233 C232 1.373 . S
C233 C234 1.396 . S
C233 C240 1.403 . S
C234 C224 1.476 . S
C234 N229 1.318 . S
C234 C233 1.396 . S
H235 C230 0.929 . S
O236 Mn212 2.385 . S
O236 C214 1.234 . S
O237 Mn212 2.209 . S
O237 Mn213 2.215 . S
O237 C214 1.283 . S
O238 Mn212 2.094 . S
O238 C216 1.240 . S
O239 Mn213 2.117 . S
O239 C216 1.264 . S
C240 C233 1.403 . S
C240 C241 1.399 . S
C240 H246 0.929 . S
C241 C221 1.449 . S
C241 C240 1.399 . S
C241 H247 0.930 . S
H242 C222 0.931 . S
H243 C223 0.930 . S
H244 C231 0.931 . S
H245 C232 0.929 . S
H246 C240 0.929 . S
H247 C241 0.930 . S
Mn248 O253 2.095 1_554 S
Mn248 O263 2.162 . S
Mn248 O264 2.297 1_554 S
Mn248 O272 2.385 . S
Mn248 O273 2.209 1_554 S
Mn248 O274 2.094 . S
Mn249 O254 2.121 . S
Mn249 N256 2.257 . S
Mn249 N265 2.282 1_556 S
Mn249 O273 2.215 . S
Mn249 O275 2.117 1_556 S
C250 O272 1.233 . S
C250 O273 1.284 1_554 S
C251 O263 1.301 . S
C251 O264 1.215 1_554 S
C252 O274 1.240 . S
C252 O275 1.264 . S
O253 Mn248 2.095 1_556 S
O253 C262 1.250 . S
O254 Mn249 2.121 . S
O254 C262 1.258 . S
C255 N256 1.326 . S
C255 C259 1.460 . S
C255 H261 0.929 . S
N256 Mn249 2.257 . S
N256 C255 1.326 . S
N256 C260 1.362 . S
C257 C258 1.258 . S
C257 C260 1.431 . S
C257 C277 1.449 . S
C258 C257 1.258 . S
C258 C259 1.477 . S
C258 H278 0.931 . S
C259 C255 1.460 . S
C259 C258 1.477 . S
C259 H279 0.930 . S
C260 N256 1.362 . S
C260 C257 1.431 . S
C260 C270 1.476 . S
H261 C255 0.929 . S
C262 O253 1.250 . S
C262 O254 1.258 . S
O263 Mn248 2.162 . S
O263 C251 1.301 . S
O264 Mn248 2.297 1_556 S
O264 C251 1.215 1_556 S
N265 Mn249 2.282 1_554 S
N265 C266 1.328 . S
N265 C270 1.318 1_554 S
C266 N265 1.328 . S
C266 C267 1.457 . S
C266 H271 0.929 . S
C267 C266 1.457 . S
C267 C268 1.291 . S
C267 H280 0.931 . S
C268 C267 1.291 . S
C268 C269 1.373 1_554 S
C268 H281 0.929 . S
C269 C268 1.373 1_556 S
C269 C270 1.396 . S
C269 C276 1.403 . S
C270 C260 1.476 . S
C270 N265 1.318 1_556 S
C270 C269 1.396 . S
H271 C266 0.929 . S
O272 Mn248 2.385 . S
O272 C250 1.233 . S
O273 Mn248 2.209 1_556 S
O273 Mn249 2.215 . S
O273 C250 1.284 1_556 S
O274 Mn248 2.094 . S
O274 C252 1.240 . S
O275 Mn249 2.117 1_554 S
O275 C252 1.264 . S
C276 C269 1.403 . S
C276 C277 1.399 . S
C276 H282 0.929 . S
C277 C257 1.449 . S
C277 C276 1.399 . S
C277 H283 0.930 . S
H278 C258 0.931 . S
H279 C259 0.930 . S
H280 C267 0.931 . S
H281 C268 0.929 . S
H282 C276 0.929 . S
H283 C277 0.930 . S
Mn284 O289 2.095 . S
Mn284 O299 2.162 . S
Mn284 O300 2.297 . S
Mn284 O308 2.385 . S
Mn284 O309 2.209 1_545 S
Mn284 O310 2.094 . S
Mn285 O290 2.121 . S
Mn285 N292 2.257 . S
Mn285 N301 2.282 . S
Mn285 O309 2.215 . S
Mn285 O311 2.117 1_565 S
C286 O308 1.234 1_565 S
C286 O309 1.283 . S
C287 O299 1.281 . S
C287 O300 1.236 . S
C288 O310 1.240 . S
C288 O311 1.264 . S
O289 Mn284 2.095 . S
O289 C298 1.250 . S
O290 Mn285 2.121 . S
O290 C298 1.258 1_565 S
C291 N292 1.326 . S
C291 C295 1.460 . S
C291 H297 0.929 . S
N292 Mn285 2.257 . S
N292 C291 1.326 . S
N292 C296 1.362 . S
C293 C294 1.258 . S
C293 C296 1.431 . S
C293 C313 1.449 . S
C294 C293 1.258 . S
C294 C295 1.477 . S
C294 H314 0.931 . S
C295 C291 1.460 . S
C295 C294 1.477 . S
C295 H315 0.930 . S
C296 N292 1.362 . S
C296 C293 1.431 . S
C296 C306 1.476 . S
H297 C291 0.929 . S
C298 O289 1.250 . S
C298 O290 1.258 1_545 S
O299 Mn284 2.162 . S
O299 C287 1.281 . S
O300 Mn284 2.297 . S
O300 C287 1.236 . S
N301 Mn285 2.282 . S
N301 C302 1.328 . S
N301 C306 1.318 . S
C302 N301 1.328 . S
C302 C303 1.457 . S
C302 H307 0.929 . S
C303 C302 1.457 . S
C303 C304 1.291 . S
C303 H316 0.931 . S
C304 C303 1.291 . S
C304 C305 1.373 . S
C304 H317 0.929 . S
C305 C304 1.373 . S
C305 C306 1.396 . S
C305 C312 1.403 . S
C306 C296 1.476 . S
C306 N301 1.318 . S
C306 C305 1.396 . S
H307 C302 0.929 . S
O308 Mn284 2.385 . S
O308 C286 1.234 1_545 S
O309 Mn284 2.209 1_565 S
O309 Mn285 2.215 . S
O309 C286 1.283 . S
O310 Mn284 2.094 . S
O310 C288 1.240 . S
O311 Mn285 2.117 1_545 S
O311 C288 1.264 . S
C312 C305 1.403 . S
C312 C313 1.399 . S
C312 H318 0.929 . S
C313 C293 1.449 . S
C313 C312 1.399 . S
C313 H319 0.930 . S
H314 C294 0.931 . S
H315 C295 0.930 . S
H316 C303 0.931 . S
H317 C304 0.929 . S
H318 C312 0.929 . S
H319 C313 0.930 . S
Mn320 O325 2.095 . S
Mn320 O335 2.162 . S
Mn320 O336 2.297 . S
Mn320 O344 2.385 . S
Mn320 O345 2.209 . S
Mn320 O346 2.094 . S
Mn321 O326 2.121 . S
Mn321 N328 2.257 . S
Mn321 N337 2.282 . S
Mn321 O345 2.215 . S
Mn321 O347 2.117 . S
C322 O344 1.234 . S
C322 O345 1.283 . S
C323 O335 1.281 . S
C323 O336 1.236 . S
C324 O346 1.240 . S
C324 O347 1.264 . S
O325 Mn320 2.095 . S
O325 C334 1.250 . S
O326 Mn321 2.121 . S
O326 C334 1.258 . S
C327 N328 1.326 . S
C327 C331 1.460 . S
C327 H333 0.929 . S
N328 Mn321 2.257 . S
N328 C327 1.326 . S
N328 C332 1.362 . S
C329 C330 1.258 . S
C329 C332 1.431 . S
C329 C349 1.449 . S
C330 C329 1.258 . S
C330 C331 1.477 . S
C330 H350 0.931 . S
C331 C327 1.460 . S
C331 C330 1.477 . S
C331 H351 0.930 . S
C332 N328 1.362 . S
C332 C329 1.431 . S
C332 C342 1.476 . S
H333 C327 0.929 . S
C334 O325 1.250 . S
C334 O326 1.258 . S
O335 Mn320 2.162 . S
O335 C323 1.281 . S
O336 Mn320 2.297 . S
O336 C323 1.236 . S
N337 Mn321 2.282 . S
N337 C338 1.328 . S
N337 C342 1.318 . S
C338 N337 1.328 . S
C338 C339 1.457 . S
C338 H343 0.929 . S
C339 C338 1.457 . S
C339 C340 1.291 . S
C339 H352 0.931 . S
C340 C339 1.291 . S
C340 C341 1.373 . S
C340 H353 0.929 . S
C341 C340 1.373 . S
C341 C342 1.396 . S
C341 C348 1.403 . S
C342 C332 1.476 . S
C342 N337 1.318 . S
C342 C341 1.396 . S
H343 C338 0.929 . S
O344 Mn320 2.385 . S
O344 C322 1.234 . S
O345 Mn320 2.209 . S
O345 Mn321 2.215 . S
O345 C322 1.283 . S
O346 Mn320 2.094 . S
O346 C324 1.240 . S
O347 Mn321 2.117 . S
O347 C324 1.264 . S
C348 C341 1.403 . S
C348 C349 1.399 . S
C348 H354 0.929 . S
C349 C329 1.449 . S
C349 C348 1.399 . S
C349 H355 0.930 . S
H350 C330 0.931 . S
H351 C331 0.930 . S
H352 C339 0.931 . S
H353 C340 0.929 . S
H354 C348 0.929 . S
H355 C349 0.930 . S
Mn356 O361 2.095 . S
Mn356 O371 2.162 . S
Mn356 O372 2.297 . S
Mn356 O380 2.385 . S
Mn356 O381 2.209 . S
Mn356 O382 2.094 . S
Mn357 O362 2.121 . S
Mn357 N364 2.257 . S
Mn357 N373 2.282 . S
Mn357 O381 2.215 . S
Mn357 O383 2.117 . S
C358 O380 1.234 . S
C358 O381 1.283 . S
C359 O371 1.281 . S
C359 O372 1.236 . S
C360 O382 1.240 . S
C360 O383 1.264 . S
O361 Mn356 2.095 . S
O361 C370 1.250 . S
O362 Mn357 2.121 . S
O362 C370 1.258 . S
C363 N364 1.326 . S
C363 C367 1.460 . S
C363 H369 0.929 . S
N364 Mn357 2.257 . S
N364 C363 1.326 . S
N364 C368 1.362 . S
C365 C366 1.258 . S
C365 C368 1.431 . S
C365 C385 1.449 . S
C366 C365 1.258 . S
C366 C367 1.477 . S
C366 H386 0.931 . S
C367 C363 1.460 . S
C367 C366 1.477 . S
C367 H387 0.930 . S
C368 N364 1.362 . S
C368 C365 1.431 . S
C368 C378 1.476 . S
H369 C363 0.929 . S
C370 O361 1.250 . S
C370 O362 1.258 . S
O371 Mn356 2.162 . S
O371 C359 1.281 . S
O372 Mn356 2.297 . S
O372 C359 1.236 . S
N373 Mn357 2.282 . S
N373 C374 1.328 . S
N373 C378 1.318 . S
C374 N373 1.328 . S
C374 C375 1.457 . S
C374 H379 0.929 . S
C375 C374 1.457 . S
C375 C376 1.291 . S
C375 H388 0.931 . S
C376 C375 1.291 . S
C376 C377 1.373 . S
C376 H389 0.929 . S
C377 C376 1.373 . S
C377 C378 1.396 . S
C377 C384 1.403 . S
C378 C368 1.476 . S
C378 N373 1.318 . S
C378 C377 1.396 . S
H379 C374 0.929 . S
O380 Mn356 2.385 . S
O380 C358 1.234 . S
O381 Mn356 2.209 . S
O381 Mn357 2.215 . S
O381 C358 1.283 . S
O382 Mn356 2.094 . S
O382 C360 1.240 . S
O383 Mn357 2.117 . S
O383 C360 1.264 . S
C384 C377 1.403 . S
C384 C385 1.399 . S
C384 H390 0.929 . S
C385 C365 1.449 . S
C385 C384 1.399 . S
C385 H391 0.930 . S
H386 C366 0.931 . S
H387 C367 0.930 . S
H388 C375 0.931 . S
H389 C376 0.929 . S
H390 C384 0.929 . S
H391 C385 0.930 . S
Mn392 O397 2.095 . S
Mn392 O407 2.162 . S
Mn392 O408 2.297 . S
Mn392 O416 2.385 . S
Mn392 O417 2.209 . S
Mn392 O418 2.094 . S
Mn393 O398 2.121 . S
Mn393 N400 2.257 . S
Mn393 N409 2.282 . S
Mn393 O417 2.215 . S
Mn393 O419 2.117 . S
C394 O416 1.234 . S
C394 O417 1.283 . S
C395 O407 1.281 . S
C395 O408 1.236 . S
C396 O418 1.240 . S
C396 O419 1.264 . S
O397 Mn392 2.095 . S
O397 C406 1.250 . S
O398 Mn393 2.121 . S
O398 C406 1.258 . S
C399 N400 1.326 . S
C399 C403 1.460 . S
C399 H405 0.929 . S
N400 Mn393 2.257 . S
N400 C399 1.326 . S
N400 C404 1.362 . S
C401 C402 1.258 . S
C401 C404 1.431 . S
C401 C421 1.449 . S
C402 C401 1.258 . S
C402 C403 1.477 . S
C402 H422 0.931 . S
C403 C399 1.460 . S
C403 C402 1.477 . S
C403 H423 0.930 . S
C404 N400 1.362 . S
C404 C401 1.431 . S
C404 C414 1.476 . S
H405 C399 0.929 . S
C406 O397 1.250 . S
C406 O398 1.258 . S
O407 Mn392 2.162 . S
O407 C395 1.281 . S
O408 Mn392 2.297 . S
O408 C395 1.236 . S
N409 Mn393 2.282 . S
N409 C410 1.328 . S
N409 C414 1.318 . S
C410 N409 1.328 . S
C410 C411 1.457 . S
C410 H415 0.929 . S
C411 C410 1.457 . S
C411 C412 1.291 . S
C411 H424 0.931 . S
C412 C411 1.291 . S
C412 C413 1.373 . S
C412 H425 0.929 . S
C413 C412 1.373 . S
C413 C414 1.396 . S
C413 C420 1.403 . S
C414 C404 1.476 . S
C414 N409 1.318 . S
C414 C413 1.396 . S
H415 C410 0.929 . S
O416 Mn392 2.385 . S
O416 C394 1.234 . S
O417 Mn392 2.209 . S
O417 Mn393 2.215 . S
O417 C394 1.283 . S
O418 Mn392 2.094 . S
O418 C396 1.240 . S
O419 Mn393 2.117 . S
O419 C396 1.264 . S
C420 C413 1.403 . S
C420 C421 1.399 . S
C420 H426 0.929 . S
C421 C401 1.449 . S
C421 C420 1.399 . S
C421 H427 0.930 . S
H422 C402 0.931 . S
H423 C403 0.930 . S
H424 C411 0.931 . S
H425 C412 0.929 . S
H426 C420 0.929 . S
H427 C421 0.930 . S
Mn428 O433 2.095 . S
Mn428 O443 2.162 . S
Mn428 O444 2.297 . S
Mn428 O452 2.385 1_565 S
Mn428 O453 2.209 1_565 S
Mn428 O454 2.094 . S
Mn429 O434 2.121 . S
Mn429 N436 2.257 . S
Mn429 N445 2.282 . S
Mn429 O453 2.215 . S
Mn429 O455 2.117 . S
C430 O452 1.234 . S
C430 O453 1.283 . S
C431 O443 1.281 . S
C431 O444 1.236 . S
C432 O454 1.275 . S
C432 O455 1.227 1_565 S
O433 Mn428 2.095 . S
O433 C442 1.250 1_565 S
O434 Mn429 2.121 . S
O434 C442 1.258 . S
C435 N436 1.326 . S
C435 C439 1.460 . S
C435 H441 0.929 . S
N436 Mn429 2.257 . S
N436 C435 1.326 . S
N436 C440 1.362 . S
C437 C438 1.258 . S
C437 C440 1.431 . S
C437 C457 1.449 . S
C438 C437 1.258 . S
C438 C439 1.477 . S
C438 H458 0.931 . S
C439 C435 1.460 . S
C439 C438 1.477 . S
C439 H459 0.930 . S
C440 N436 1.362 . S
C440 C437 1.431 . S
C440 C450 1.476 . S
H441 C435 0.929 . S
C442 O433 1.250 1_545 S
C442 O434 1.258 . S
O443 Mn428 2.162 . S
O443 C431 1.281 . S
O444 Mn428 2.297 . S
O444 C431 1.236 . S
N445 Mn429 2.282 . S
N445 C446 1.328 . S
N445 C450 1.318 . S
C446 N445 1.328 . S
C446 C447 1.457 . S
C446 H451 0.929 . S
C447 C446 1.457 . S
C447 C448 1.291 . S
C447 H460 0.931 . S
C448 C447 1.291 . S
C448 C449 1.373 . S
C448 H461 0.929 . S
C449 C448 1.373 . S
C449 C450 1.396 . S
C449 C456 1.403 . S
C450 C440 1.476 . S
C450 N445 1.318 . S
C450 C449 1.396 . S
H451 C446 0.929 . S
O452 Mn428 2.385 1_545 S
O452 C430 1.234 . S
O453 Mn428 2.209 1_545 S
O453 Mn429 2.215 . S
O453 C430 1.283 . S
O454 Mn428 2.094 . S
O454 C432 1.275 . S
O455 Mn429 2.117 . S
O455 C432 1.227 1_545 S
C456 C449 1.403 . S
C456 C457 1.399 . S
C456 H462 0.929 . S
C457 C437 1.449 . S
C457 C456 1.399 . S
C457 H463 0.930 . S
H458 C438 0.931 . S
H459 C439 0.930 . S
H460 C447 0.931 . S
H461 C448 0.929 . S
H462 C456 0.929 . S
H463 C457 0.930 . S
Mn464 O469 2.095 . S
Mn464 O479 2.162 . S
Mn464 O480 2.297 . S
Mn464 O488 2.385 . S
Mn464 O489 2.209 1_455 S
Mn464 O490 2.094 . S
Mn465 O470 2.121 . S
Mn465 N472 2.257 . S
Mn465 N481 2.282 . S
Mn465 O489 2.215 . S
Mn465 O491 2.119 1_655 S
C466 O488 1.234 1_655 S
C466 O489 1.283 . S
C467 O479 1.281 . S
C467 O480 1.236 . S
C468 O490 1.240 . S
C468 O491 1.261 . S
O469 Mn464 2.095 . S
O469 C478 1.250 . S
O470 Mn465 2.121 . S
O470 C478 1.258 1_655 S
C471 N472 1.326 . S
C471 C475 1.460 . S
C471 H477 0.929 . S
N472 Mn465 2.257 . S
N472 C471 1.326 . S
N472 C476 1.362 . S
C473 C474 1.258 . S
C473 C476 1.431 . S
C473 C493 1.449 . S
C474 C473 1.258 . S
C474 C475 1.477 . S
C474 H494 0.931 . S
C475 C471 1.460 . S
C475 C474 1.477 . S
C475 H495 0.930 . S
C476 N472 1.362 . S
C476 C473 1.431 . S
C476 C486 1.476 . S
H477 C471 0.929 . S
C478 O469 1.250 . S
C478 O470 1.258 1_455 S
O479 Mn464 2.162 . S
O479 C467 1.281 . S
O480 Mn464 2.297 . S
O480 C467 1.236 . S
N481 Mn465 2.282 . S
N481 C482 1.328 . S
N481 C486 1.318 . S
C482 N481 1.328 . S
C482 C483 1.457 . S
C482 H487 0.929 . S
C483 C482 1.457 . S
C483 C484 1.291 . S
C483 H496 0.931 . S
C484 C483 1.291 . S
C484 C485 1.373 . S
C484 H497 0.929 . S
C485 C484 1.373 . S
C485 C486 1.396 . S
C485 C492 1.403 . S
C486 C476 1.476 . S
C486 N481 1.318 . S
C486 C485 1.396 . S
H487 C482 0.929 . S
O488 Mn464 2.385 . S
O488 C466 1.234 1_455 S
O489 Mn464 2.209 1_655 S
O489 Mn465 2.215 . S
O489 C466 1.283 . S
O490 Mn464 2.094 . S
O490 C468 1.240 . S
O491 Mn465 2.119 1_455 S
O491 C468 1.261 . S
C492 C485 1.403 . S
C492 C493 1.399 . S
C492 H498 0.929 . S
C493 C473 1.449 . S
C493 C492 1.399 . S
C493 H499 0.930 . S
H494 C474 0.931 . S
H495 C475 0.930 . S
H496 C483 0.931 . S
H497 C484 0.929 . S
H498 C492 0.929 . S
H499 C493 0.930 . S
Mn500 O505 2.095 . S
Mn500 O515 2.162 . S
Mn500 O516 2.297 . S
Mn500 O524 2.385 . S
Mn500 O525 2.209 . S
Mn500 O526 2.094 . S
Mn501 O506 2.121 . S
Mn501 N508 2.257 . S
Mn501 N517 2.282 . S
Mn501 O525 2.215 . S
Mn501 O527 2.117 . S
C502 O524 1.234 . S
C502 O525 1.283 . S
C503 O515 1.281 . S
C503 O516 1.236 . S
C504 O526 1.240 . S
C504 O527 1.264 . S
O505 Mn500 2.095 . S
O505 C514 1.250 . S
O506 Mn501 2.121 . S
O506 C514 1.258 . S
C507 N508 1.326 . S
C507 C511 1.460 . S
C507 H513 0.929 . S
N508 Mn501 2.257 . S
N508 C507 1.326 . S
N508 C512 1.362 . S
C509 C510 1.258 . S
C509 C512 1.431 . S
C509 C529 1.449 . S
C510 C509 1.258 . S
C510 C511 1.477 . S
C510 H530 0.931 . S
C511 C507 1.460 . S
C511 C510 1.477 . S
C511 H531 0.930 . S
C512 N508 1.362 . S
C512 C509 1.431 . S
C512 C522 1.476 . S
H513 C507 0.929 . S
C514 O505 1.250 . S
C514 O506 1.258 . S
O515 Mn500 2.162 . S
O515 C503 1.281 . S
O516 Mn500 2.297 . S
O516 C503 1.236 . S
N517 Mn501 2.282 . S
N517 C518 1.328 . S
N517 C522 1.318 . S
C518 N517 1.328 . S
C518 C519 1.457 . S
C518 H523 0.929 . S
C519 C518 1.457 . S
C519 C520 1.291 . S
C519 H532 0.931 . S
C520 C519 1.291 . S
C520 C521 1.373 . S
C520 H533 0.929 . S
C521 C520 1.373 . S
C521 C522 1.396 . S
C521 C528 1.403 . S
C522 C512 1.476 . S
C522 N517 1.318 . S
C522 C521 1.396 . S
H523 C518 0.929 . S
O524 Mn500 2.385 . S
O524 C502 1.234 . S
O525 Mn500 2.209 . S
O525 Mn501 2.215 . S
O525 C502 1.283 . S
O526 Mn500 2.094 . S
O526 C504 1.240 . S
O527 Mn501 2.117 . S
O527 C504 1.264 . S
C528 C521 1.403 . S
C528 C529 1.399 . S
C528 H534 0.929 . S
C529 C509 1.449 . S
C529 C528 1.399 . S
C529 H535 0.930 . S
H530 C510 0.931 . S
H531 C511 0.930 . S
H532 C519 0.931 . S
H533 C520 0.929 . S
H534 C528 0.929 . S
H535 C529 0.930 . S
Mn536 O541 2.095 1_455 S
Mn536 O551 2.162 . S
Mn536 O552 2.297 . S
Mn536 O560 2.385 . S
Mn536 O561 2.209 1_455 S
Mn536 O562 2.094 . S
Mn537 O542 2.121 . S
Mn537 N544 2.257 . S
Mn537 N553 2.282 1_655 S
Mn537 O561 2.215 . S
Mn537 O563 2.117 1_655 S
C538 O560 1.234 . S
C538 O561 1.283 1_455 S
C539 O551 1.281 . S
C539 O552 1.236 . S
C540 O562 1.240 . S
C540 O563 1.264 . S
O541 Mn536 2.095 1_655 S
O541 C550 1.250 . S
O542 Mn537 2.121 . S
O542 C550 1.258 . S
C543 N544 1.326 . S
C543 C547 1.460 . S
C543 H549 0.929 . S
N544 Mn537 2.257 . S
N544 C543 1.326 . S
N544 C548 1.362 . S
C545 C546 1.258 . S
C545 C548 1.431 . S
C545 C565 1.449 . S
C546 C545 1.258 . S
C546 C547 1.477 . S
C546 H566 0.931 . S
C547 C543 1.460 . S
C547 C546 1.477 . S
C547 H567 0.930 . S
C548 N544 1.362 . S
C548 C545 1.431 . S
C548 C558 1.476 . S
H549 C543 0.929 . S
C550 O541 1.250 . S
C550 O542 1.258 . S
O551 Mn536 2.162 . S
O551 C539 1.281 . S
O552 Mn536 2.297 . S
O552 C539 1.236 . S
N553 Mn537 2.282 1_455 S
N553 C554 1.328 . S
N553 C558 1.318 1_455 S
C554 N553 1.328 . S
C554 C555 1.457 . S
C554 H559 0.929 . S
C555 C554 1.457 . S
C555 C556 1.291 . S
C555 H568 0.931 . S
C556 C555 1.291 . S
C556 C557 1.373 1_455 S
C556 H569 0.929 . S
C557 C556 1.373 1_655 S
C557 C558 1.396 . S
C557 C564 1.403 . S
C558 C548 1.476 . S
C558 N553 1.318 1_655 S
C558 C557 1.396 . S
H559 C554 0.929 . S
O560 Mn536 2.385 . S
O560 C538 1.234 . S
O561 Mn536 2.209 1_655 S
O561 Mn537 2.215 . S
O561 C538 1.283 1_655 S
O562 Mn536 2.094 . S
O562 C540 1.240 . S
O563 Mn537 2.117 1_455 S
O563 C540 1.264 . S
C564 C557 1.403 . S
C564 C565 1.399 . S
C564 H570 0.929 . S
C565 C545 1.449 . S
C565 C564 1.399 . S
C565 H571 0.930 . S
H566 C546 0.931 . S
H567 C547 0.930 . S
H568 C555 0.931 . S
H569 C556 0.929 . S
H570 C564 0.929 . S
H571 C565 0.930 . S
Mn572 O577 2.095 . S
Mn572 O587 2.162 . S
Mn572 O588 2.297 . S
Mn572 O596 2.385 . S
Mn572 O597 2.209 . S
Mn572 O598 2.094 . S
Mn573 O578 2.121 . S
Mn573 N580 2.257 . S
Mn573 N589 2.282 . S
Mn573 O597 2.215 . S
Mn573 O599 2.117 . S
C574 O596 1.234 . S
C574 O597 1.283 . S
C575 O587 1.281 . S
C575 O588 1.236 . S
C576 O598 1.240 . S
C576 O599 1.264 . S
O577 Mn572 2.095 . S
O577 C586 1.250 . S
O578 Mn573 2.121 . S
O578 C586 1.258 . S
C579 N580 1.326 . S
C579 C583 1.460 . S
C579 H585 0.929 . S
N580 Mn573 2.257 . S
N580 C579 1.326 . S
N580 C584 1.362 . S
C581 C582 1.258 . S
C581 C584 1.431 . S
C581 C601 1.449 . S
C582 C581 1.258 . S
C582 C583 1.477 . S
C582 H602 0.931 . S
C583 C579 1.460 . S
C583 C582 1.477 . S
C583 H603 0.930 . S
C584 N580 1.362 . S
C584 C581 1.431 . S
C584 C594 1.476 . S
H585 C579 0.929 . S
C586 O577 1.250 . S
C586 O578 1.258 . S
O587 Mn572 2.162 . S
O587 C575 1.281 . S
O588 Mn572 2.297 . S
O588 C575 1.236 . S
N589 Mn573 2.282 . S
N589 C590 1.328 . S
N589 C594 1.318 . S
C590 N589 1.328 . S
C590 C591 1.457 . S
C590 H595 0.929 . S
C591 C590 1.457 . S
C591 C592 1.291 . S
C591 H604 0.931 . S
C592 C591 1.291 . S
C592 C593 1.373 . S
C592 H605 0.929 . S
C593 C592 1.373 . S
C593 C594 1.396 . S
C593 C600 1.403 . S
C594 C584 1.476 . S
C594 N589 1.318 . S
C594 C593 1.396 . S
H595 C590 0.929 . S
O596 Mn572 2.385 . S
O596 C574 1.234 . S
O597 Mn572 2.209 . S
O597 Mn573 2.215 . S
O597 C574 1.283 . S
O598 Mn572 2.094 . S
O598 C576 1.240 . S
O599 Mn573 2.117 . S
O599 C576 1.264 . S
C600 C593 1.403 . S
C600 C601 1.399 . S
C600 H606 0.929 . S
C601 C581 1.449 . S
C601 C600 1.399 . S
C601 H607 0.930 . S
H602 C582 0.931 . S
H603 C583 0.930 . S
H604 C591 0.931 . S
H605 C592 0.929 . S
H606 C600 0.929 . S
H607 C601 0.930 . S
C608 C609 1.391 . S
C608 C610 1.394 . S
C608 H624 0.931 . S
C609 C608 1.391 . S
C609 C613 1.376 . S
C610 C608 1.394 . S
C610 C611 1.369 . S
C610 C614 1.531 . S
C611 C610 1.369 . S
C611 C612 1.410 . S
C611 C619 1.503 . S
C612 C611 1.410 . S
C612 C613 1.392 . S
C612 C615 1.511 . S
C613 C609 1.376 . S
C613 C612 1.392 . S
C613 H625 0.929 . S
C614 C610 1.531 . S
C614 H626 0.960 . S
C614 H627 0.962 . S
C614 H628 0.960 . S
C615 C612 1.511 . S
C615 H629 0.961 . S
C615 H630 0.961 . S
C615 H631 0.961 . S
C616 C617 1.370 . S
C616 C618 1.363 . S
C616 H632 0.931 1_556 S
C617 C616 1.370 . S
C617 C621 1.408 . S
C618 C616 1.363 . S
C618 C619 1.370 . S
C618 C622 1.524 . S
C619 C611 1.503 . S
C619 C618 1.370 . S
C619 C620 1.403 . S
C620 C619 1.403 . S
C620 C621 1.404 . S
C620 C623 1.539 . S
C621 C617 1.408 . S
C621 C620 1.404 . S
C621 H633 0.930 . S
C622 C618 1.524 . S
C622 H634 0.956 . S
C622 H635 0.961 . S
C622 H636 0.961 . S
C623 C620 1.539 . S
C623 H637 0.958 . S
C623 H638 0.961 . S
C623 H639 0.960 . S
H624 C608 0.931 . S
H625 C613 0.929 . S
H626 C614 0.960 . S
H627 C614 0.962 . S
H628 C614 0.960 . S
H629 C615 0.961 . S
H630 C615 0.961 . S
H631 C615 0.961 . S
H632 C616 0.931 1_554 S
H633 C621 0.930 . S
H634 C622 0.956 . S
H635 C622 0.961 . S
H636 C622 0.961 . S
H637 C623 0.958 . S
H638 C623 0.961 . S
H639 C623 0.960 . S
C640 C641 1.391 . S
C640 C642 1.394 . S
C640 H656 0.931 . S
C641 C640 1.391 . S
C641 C645 1.376 . S
C642 C640 1.394 . S
C642 C643 1.369 . S
C642 C646 1.531 . S
C643 C642 1.369 . S
C643 C644 1.410 . S
C643 C651 1.503 . S
C644 C643 1.410 . S
C644 C645 1.392 . S
C644 C647 1.511 . S
C645 C641 1.376 . S
C645 C644 1.392 . S
C645 H657 0.929 . S
C646 C642 1.531 . S
C646 H658 0.960 . S
C646 H659 0.962 . S
C646 H660 0.960 . S
C647 C644 1.511 . S
C647 H661 0.961 . S
C647 H662 0.961 . S
C647 H663 0.961 . S
C648 C649 1.370 . S
C648 C650 1.363 . S
C648 H664 0.931 . S
C649 C648 1.370 . S
C649 C653 1.408 . S
C650 C648 1.363 . S
C650 C651 1.370 . S
C650 C654 1.524 . S
C651 C643 1.503 . S
C651 C650 1.370 . S
C651 C652 1.403 . S
C652 C651 1.403 . S
C652 C653 1.404 . S
C652 C655 1.539 . S
C653 C649 1.408 . S
C653 C652 1.404 . S
C653 H665 0.930 . S
C654 C650 1.524 . S
C654 H666 0.956 . S
C654 H667 0.961 . S
C654 H668 0.961 . S
C655 C652 1.539 . S
C655 H669 0.958 . S
C655 H670 0.961 . S
C655 H671 0.960 . S
H656 C640 0.931 . S
H657 C645 0.929 . S
H658 C646 0.960 . S
H659 C646 0.962 . S
H660 C646 0.960 . S
H661 C647 0.961 . S
H662 C647 0.961 . S
H663 C647 0.961 . S
H664 C648 0.931 . S
H665 C653 0.930 . S
H666 C654 0.956 . S
H667 C654 0.961 . S
H668 C654 0.961 . S
H669 C655 0.958 . S
H670 C655 0.961 . S
H671 C655 0.960 . S
C672 C673 1.391 . S
C672 C674 1.394 . S
C672 H688 0.931 . S
C673 C672 1.391 . S
C673 C677 1.376 . S
C674 C672 1.394 . S
C674 C675 1.369 . S
C674 C678 1.531 . S
C675 C674 1.369 . S
C675 C676 1.410 . S
C675 C683 1.503 . S
C676 C675 1.410 . S
C676 C677 1.392 . S
C676 C679 1.511 . S
C677 C673 1.376 . S
C677 C676 1.392 . S
C677 H689 0.929 . S
C678 C674 1.531 . S
C678 H690 0.960 . S
C678 H691 0.962 . S
C678 H692 0.960 . S
C679 C676 1.511 . S
C679 H693 0.961 . S
C679 H694 0.961 . S
C679 H695 0.961 . S
C680 C681 1.370 . S
C680 C682 1.363 . S
C680 H696 0.931 . S
C681 C680 1.370 . S
C681 C685 1.408 . S
C682 C680 1.363 . S
C682 C683 1.370 . S
C682 C686 1.524 . S
C683 C675 1.503 . S
C683 C682 1.370 . S
C683 C684 1.403 . S
C684 C683 1.403 . S
C684 C685 1.404 . S
C684 C687 1.539 . S
C685 C681 1.408 . S
C685 C684 1.404 . S
C685 H697 0.930 . S
C686 C682 1.524 . S
C686 H698 0.956 . S
C686 H699 0.961 . S
C686 H700 0.961 . S
C687 C684 1.539 . S
C687 H701 0.958 . S
C687 H702 0.961 . S
C687 H703 0.960 . S
H688 C672 0.931 . S
H689 C677 0.929 . S
H690 C678 0.960 . S
H691 C678 0.962 . S
H692 C678 0.960 . S
H693 C679 0.961 . S
H694 C679 0.961 . S
H695 C679 0.961 . S
H696 C680 0.931 . S
H697 C685 0.930 . S
H698 C686 0.956 . S
H699 C686 0.961 . S
H700 C686 0.961 . S
H701 C687 0.958 . S
H702 C687 0.961 . S
H703 C687 0.960 . S
C704 C705 1.391 . S
C704 C706 1.394 . S
C704 H720 0.931 . S
C705 C704 1.391 . S
C705 C709 1.376 1_565 S
C706 C704 1.394 . S
C706 C707 1.369 . S
C706 C710 1.531 . S
C707 C706 1.369 . S
C707 C708 1.410 1_465 S
C707 C715 1.503 1_465 S
C708 C707 1.410 1_645 S
C708 C709 1.392 1_655 S
C708 C711 1.511 . S
C709 C705 1.376 1_545 S
C709 C708 1.392 1_455 S
C709 H721 0.929 . S
C710 C706 1.531 . S
C710 H722 0.960 . S
C710 H723 0.962 . S
C710 H724 0.960 . S
C711 C708 1.511 . S
C711 H725 0.961 . S
C711 H726 0.961 . S
C711 H727 0.961 . S
C712 C713 1.370 . S
C712 C714 1.346 1_655 S
C712 H728 0.931 . S
C713 C712 1.370 . S
C713 C717 1.422 . S
C714 C712 1.346 1_455 S
C714 C715 1.358 1_455 S
C714 C718 1.555 . S
C715 C707 1.503 1_645 S
C715 C714 1.358 1_655 S
C715 C716 1.403 1_545 S
C716 C715 1.403 1_565 S
C716 C717 1.396 1_565 S
C716 C719 1.539 . S
C717 C713 1.422 . S
C717 C716 1.396 1_545 S
C717 H729 0.925 1_545 S
C718 C714 1.555 . S
C718 H730 0.956 . S
C718 H731 0.961 . S
C718 H732 0.961 . S
C719 C716 1.539 . S
C719 H733 0.958 . S
C719 H734 0.961 . S
C719 H735 0.960 . S
H720 C704 0.931 . S
H721 C709 0.929 . S
H722 C710 0.960 . S
H723 C710 0.962 . S
H724 C710 0.960 . S
H725 C711 0.961 . S
H726 C711 0.961 . S
H727 C711 0.961 . S
H728 C712 0.931 . S
H729 C717 0.925 1_565 S
H730 C718 0.956 . S
H731 C718 0.961 . S
H732 C718 0.961 . S
H733 C719 0.958 . S
H734 C719 0.961 . S
H735 C719 0.960 . S
C736 C737 1.391 . S
C736 C738 1.394 . S
C736 H752 0.931 . S
C737 C736 1.391 . S
C737 C741 1.376 . S
C738 C736 1.394 . S
C738 C739 1.369 . S
C738 C742 1.531 . S
C739 C738 1.369 . S
C739 C740 1.410 . S
C739 C747 1.503 . S
C740 C739 1.410 . S
C740 C741 1.392 . S
C740 C743 1.511 . S
C741 C737 1.376 . S
C741 C740 1.392 . S
C741 H753 0.929 . S
C742 C738 1.531 . S
C742 H754 0.960 . S
C742 H755 0.962 . S
C742 H756 0.960 . S
C743 C740 1.511 . S
C743 H757 0.961 . S
C743 H758 0.961 . S
C743 H759 0.961 . S
C744 C745 1.370 . S
C744 C746 1.363 . S
C744 H760 0.931 . S
C745 C744 1.370 . S
C745 C749 1.408 . S
C746 C744 1.363 . S
C746 C747 1.370 . S
C746 C750 1.524 . S
C747 C739 1.503 . S
C747 C746 1.370 . S
C747 C748 1.403 . S
C748 C747 1.403 . S
C748 C749 1.404 . S
C748 C751 1.539 . S
C749 C745 1.408 . S
C749 C748 1.404 . S
C749 H761 0.930 . S
C750 C746 1.524 . S
C750 H762 0.956 . S
C750 H763 0.961 . S
C750 H764 0.961 . S
C751 C748 1.539 . S
C751 H765 0.958 . S
C751 H766 0.961 . S
C751 H767 0.960 . S
H752 C736 0.931 . S
H753 C741 0.929 . S
H754 C742 0.960 . S
H755 C742 0.962 . S
H756 C742 0.960 . S
H757 C743 0.961 . S
H758 C743 0.961 . S
H759 C743 0.961 . S
H760 C744 0.931 . S
H761 C749 0.930 . S
H762 C750 0.956 . S
H763 C750 0.961 . S
H764 C750 0.961 . S
H765 C751 0.958 . S
H766 C751 0.961 . S
H767 C751 0.960 . S
C768 C769 1.391 . S
C768 C770 1.394 . S
C768 H784 0.931 . S
C769 C768 1.391 . S
C769 C773 1.376 . S
C770 C768 1.394 . S
C770 C771 1.369 . S
C770 C774 1.531 . S
C771 C770 1.369 . S
C771 C772 1.410 . S
C771 C779 1.503 . S
C772 C771 1.410 . S
C772 C773 1.392 . S
C772 C775 1.511 . S
C773 C769 1.376 . S
C773 C772 1.392 . S
C773 H785 0.929 . S
C774 C770 1.531 . S
C774 H786 0.960 . S
C774 H787 0.962 . S
C774 H788 0.960 . S
C775 C772 1.511 . S
C775 H789 0.961 . S
C775 H790 0.961 . S
C775 H791 0.961 . S
C776 C777 1.370 . S
C776 C778 1.363 . S
C776 H792 0.931 . S
C777 C776 1.370 . S
C777 C781 1.408 . S
C778 C776 1.363 . S
C778 C779 1.370 . S
C778 C782 1.524 . S
C779 C771 1.503 . S
C779 C778 1.370 . S
C779 C780 1.403 . S
C780 C779 1.403 . S
C780 C781 1.404 . S
C780 C783 1.539 . S
C781 C777 1.408 . S
C781 C780 1.404 . S
C781 H793 0.930 . S
C782 C778 1.524 . S
C782 H794 0.956 . S
C782 H795 0.961 . S
C782 H796 0.961 . S
C783 C780 1.539 . S
C783 H797 0.958 . S
C783 H798 0.961 . S
C783 H799 0.960 . S
H784 C768 0.931 . S
H785 C773 0.929 . S
H786 C774 0.960 . S
H787 C774 0.962 . S
H788 C774 0.960 . S
H789 C775 0.961 . S
H790 C775 0.961 . S
H791 C775 0.961 . S
H792 C776 0.931 . S
H793 C781 0.930 . S
H794 C782 0.956 . S
H795 C782 0.961 . S
H796 C782 0.961 . S
H797 C783 0.958 . S
H798 C783 0.961 . S
H799 C783 0.960 . S
C800 C801 1.391 . S
C800 C802 1.394 . S
C800 H816 0.931 . S
C801 C800 1.391 . S
C801 C805 1.376 . S
C802 C800 1.394 . S
C802 C803 1.369 . S
C802 C806 1.531 . S
C803 C802 1.369 . S
C803 C804 1.410 . S
C803 C811 1.503 . S
C804 C803 1.410 . S
C804 C805 1.392 . S
C804 C807 1.511 . S
C805 C801 1.376 . S
C805 C804 1.392 . S
C805 H817 0.929 . S
C806 C802 1.531 . S
C806 H818 0.960 . S
C806 H819 0.962 . S
C806 H820 0.960 . S
C807 C804 1.511 . S
C807 H821 0.961 . S
C807 H822 0.961 . S
C807 H823 0.961 . S
C808 C809 1.370 . S
C808 C810 1.363 . S
C808 H824 0.931 . S
C809 C808 1.370 . S
C809 C813 1.408 . S
C810 C808 1.363 . S
C810 C811 1.370 . S
C810 C814 1.524 . S
C811 C803 1.503 . S
C811 C810 1.370 . S
C811 C812 1.403 . S
C812 C811 1.403 . S
C812 C813 1.404 . S
C812 C815 1.539 . S
C813 C809 1.408 . S
C813 C812 1.404 . S
C813 H825 0.930 . S
C814 C810 1.524 . S
C814 H826 0.956 . S
C814 H827 0.961 . S
C814 H828 0.961 . S
C815 C812 1.539 . S
C815 H829 0.958 . S
C815 H830 0.961 . S
C815 H831 0.960 . S
H816 C800 0.931 . S
H817 C805 0.929 . S
H818 C806 0.960 . S
H819 C806 0.962 . S
H820 C806 0.960 . S
H821 C807 0.961 . S
H822 C807 0.961 . S
H823 C807 0.961 . S
H824 C808 0.931 . S
H825 C813 0.930 . S
H826 C814 0.956 . S
H827 C814 0.961 . S
H828 C814 0.961 . S
H829 C815 0.958 . S
H830 C815 0.961 . S
H831 C815 0.960 . S
C832 C833 1.391 . S
C832 C834 1.394 . S
C832 H848 0.931 . S
C833 C832 1.391 . S
C833 C837 1.376 . S
C834 C832 1.394 . S
C834 C835 1.369 . S
C834 C838 1.531 1_565 S
C835 C834 1.369 . S
C835 C836 1.410 . S
C835 C843 1.503 . S
C836 C835 1.410 . S
C836 C837 1.392 . S
C836 C839 1.511 . S
C837 C833 1.376 . S
C837 C836 1.392 . S
C837 H849 0.929 . S
C838 C834 1.531 1_545 S
C838 H850 0.960 . S
C838 H851 0.962 1_545 S
C838 H852 0.960 . S
C839 C836 1.511 . S
C839 H853 0.961 . S
C839 H854 0.961 . S
C839 H855 0.961 1_565 S
C840 C841 1.370 . S
C840 C842 1.363 . S
C840 H856 0.931 . S
C841 C840 1.370 . S
C841 C845 1.408 1_565 S
C842 C840 1.363 . S
C842 C843 1.370 . S
C842 C846 1.524 . S
C843 C835 1.503 . S
C843 C842 1.370 . S
C843 C844 1.403 1_565 S
C844 C843 1.403 1_545 S
C844 C845 1.404 . S
C844 C847 1.539 . S
C845 C841 1.408 1_545 S
C845 C844 1.404 . S
C845 H857 0.930 . S
C846 C842 1.524 . S
C846 H858 0.956 . S
C846 H859 0.961 . S
C846 H860 0.961 . S
C847 C844 1.539 . S
C847 H861 0.958 . S
C847 H862 0.961 . S
C847 H863 0.960 . S
H848 C832 0.931 . S
H849 C837 0.929 . S
H850 C838 0.960 . S
H851 C838 0.962 1_565 S
H852 C838 0.960 . S
H853 C839 0.961 . S
H854 C839 0.961 . S
H855 C839 0.961 1_545 S
H856 C840 0.931 . S
H857 C845 0.930 . S
H858 C846 0.956 . S
H859 C846 0.961 . S
H860 C846 0.961 . S
H861 C847 0.958 . S
H862 C847 0.961 . S
H863 C847 0.960 . S
C864 C865 1.391 . S
C864 C866 1.394 . S
C864 H880 0.931 . S
C865 C864 1.391 . S
C865 C869 1.376 . S
C866 C864 1.394 . S
C866 C867 1.369 . S
C866 C870 1.531 . S
C867 C866 1.369 . S
C867 C868 1.410 . S
C867 C875 1.503 . S
C868 C867 1.410 . S
C868 C869 1.392 . S
C868 C871 1.511 . S
C869 C865 1.376 . S
C869 C868 1.392 . S
C869 H881 0.929 . S
C870 C866 1.531 . S
C870 H882 0.960 . S
C870 H883 0.962 . S
C870 H884 0.960 . S
C871 C868 1.511 . S
C871 H885 0.961 . S
C871 H886 0.961 . S
C871 H887 0.961 . S
C872 C873 1.370 . S
C872 C874 1.363 . S
C872 H888 0.931 . S
C873 C872 1.370 . S
C873 C877 1.408 . S
C874 C872 1.363 . S
C874 C875 1.370 . S
C874 C878 1.524 . S
C875 C867 1.503 . S
C875 C874 1.370 . S
C875 C876 1.403 . S
C876 C875 1.403 . S
C876 C877 1.404 . S
C876 C879 1.539 . S
C877 C873 1.408 . S
C877 C876 1.404 . S
C877 H889 0.930 . S
C878 C874 1.524 . S
C878 H890 0.956 . S
C878 H891 0.961 . S
C878 H892 0.961 . S
C879 C876 1.539 . S
C879 H893 0.958 . S
C879 H894 0.961 . S
C879 H895 0.960 . S
H880 C864 0.931 . S
H881 C869 0.929 . S
H882 C870 0.960 . S
H883 C870 0.962 . S
H884 C870 0.960 . S
H885 C871 0.961 . S
H886 C871 0.961 . S
H887 C871 0.961 . S
H888 C872 0.931 . S
H889 C877 0.930 . S
H890 C878 0.956 . S
H891 C878 0.961 . S
H892 C878 0.961 . S
H893 C879 0.958 . S
H894 C879 0.961 . S
H895 C879 0.960 . S
C896 C897 1.391 . S
C896 C898 1.394 . S
C896 H912 0.931 . S
C897 C896 1.391 . S
C897 C901 1.376 . S
C898 C896 1.394 . S
C898 C899 1.369 . S
C898 C902 1.531 . S
C899 C898 1.369 . S
C899 C900 1.410 . S
C899 C907 1.503 . S
C900 C899 1.410 . S
C900 C901 1.392 . S
C900 C903 1.511 . S
C901 C897 1.376 . S
C901 C900 1.392 . S
C901 H913 0.929 . S
C902 C898 1.531 . S
C902 H914 0.960 . S
C902 H915 0.962 . S
C902 H916 0.960 . S
C903 C900 1.511 . S
C903 H917 0.961 . S
C903 H918 0.961 . S
C903 H919 0.961 . S
C904 C905 1.370 . S
C904 C906 1.363 . S
C904 H920 0.931 . S
C905 C904 1.370 . S
C905 C909 1.408 . S
C906 C904 1.363 . S
C906 C907 1.370 . S
C906 C910 1.524 . S
C907 C899 1.503 . S
C907 C906 1.370 . S
C907 C908 1.403 . S
C908 C907 1.403 . S
C908 C909 1.404 . S
C908 C911 1.539 . S
C909 C905 1.408 . S
C909 C908 1.404 . S
C909 H921 0.930 . S
C910 C906 1.524 . S
C910 H922 0.956 . S
C910 H923 0.961 . S
C910 H924 0.961 . S
C911 C908 1.539 . S
C911 H925 0.958 . S
C911 H926 0.961 . S
C911 H927 0.960 . S
H912 C896 0.931 . S
H913 C901 0.929 . S
H914 C902 0.960 . S
H915 C902 0.962 . S
H916 C902 0.960 . S
H917 C903 0.961 . S
H918 C903 0.961 . S
H919 C903 0.961 . S
H920 C904 0.931 . S
H921 C909 0.930 . S
H922 C910 0.956 . S
H923 C910 0.961 . S
H924 C910 0.961 . S
H925 C911 0.958 . S
H926 C911 0.961 . S
H927 C911 0.960 . S
C928 C929 1.391 . S
C928 C930 1.394 . S
C928 H944 0.931 . S
C929 C928 1.391 . S
C929 C933 1.376 . S
C930 C928 1.394 . S
C930 C931 1.369 . S
C930 C934 1.531 . S
C931 C930 1.369 . S
C931 C932 1.410 . S
C931 C939 1.503 . S
C932 C931 1.410 . S
C932 C933 1.392 . S
C932 C935 1.511 . S
C933 C929 1.376 . S
C933 C932 1.392 . S
C933 H945 0.929 . S
C934 C930 1.531 . S
C934 H946 0.960 . S
C934 H947 0.962 . S
C934 H948 0.960 . S
C935 C932 1.511 . S
C935 H949 0.961 . S
C935 H950 0.961 . S
C935 H951 0.961 . S
C936 C937 1.370 . S
C936 C938 1.363 . S
C936 H952 0.931 . S
C937 C936 1.370 . S
C937 C941 1.408 . S
C938 C936 1.363 . S
C938 C939 1.370 . S
C938 C942 1.524 . S
C939 C931 1.503 . S
C939 C938 1.370 . S
C939 C940 1.403 . S
C940 C939 1.403 . S
C940 C941 1.404 . S
C940 C943 1.539 . S
C941 C937 1.408 . S
C941 C940 1.404 . S
C941 H953 0.930 . S
C942 C938 1.524 . S
C942 H954 0.956 . S
C942 H955 0.961 . S
C942 H956 0.961 . S
C943 C940 1.539 . S
C943 H957 0.958 . S
C943 H958 0.961 . S
C943 H959 0.960 . S
H944 C928 0.931 . S
H945 C933 0.929 . S
H946 C934 0.960 . S
H947 C934 0.962 . S
H948 C934 0.960 . S
H949 C935 0.961 . S
H950 C935 0.961 . S
H951 C935 0.961 . S
H952 C936 0.931 . S
H953 C941 0.930 . S
H954 C942 0.956 . S
H955 C942 0.961 . S
H956 C942 0.961 . S
H957 C943 0.958 . S
H958 C943 0.961 . S
H959 C943 0.960 . S
C960 C961 1.391 . S
C960 C962 1.394 . S
C960 H976 0.931 . S
C961 C960 1.391 . S
C961 C965 1.376 . S
C962 C960 1.394 . S
C962 C963 1.369 . S
C962 C966 1.531 . S
C963 C962 1.369 . S
C963 C964 1.410 . S
C963 C971 1.503 . S
C964 C963 1.410 . S
C964 C965 1.392 . S
C964 C967 1.511 . S
C965 C961 1.376 . S
C965 C964 1.392 . S
C965 H977 0.929 . S
C966 C962 1.531 . S
C966 H978 0.960 . S
C966 H979 0.962 . S
C966 H980 0.960 . S
C967 C964 1.511 . S
C967 H981 0.961 . S
C967 H982 0.961 . S
C967 H983 0.961 . S
C968 C969 1.370 . S
C968 C970 1.363 . S
C968 H984 0.931 . S
C969 C968 1.370 . S
C969 C973 1.408 . S
C970 C968 1.363 . S
C970 C971 1.370 . S
C970 C974 1.524 . S
C971 C963 1.503 . S
C971 C970 1.370 . S
C971 C972 1.403 . S
C972 C971 1.403 . S
C972 C973 1.404 . S
C972 C975 1.539 . S
C973 C969 1.408 . S
C973 C972 1.404 . S
C973 H985 0.930 . S
C974 C970 1.524 . S
C974 H986 0.956 . S
C974 H987 0.961 . S
C974 H988 0.961 . S
C975 C972 1.539 . S
C975 H989 0.958 . S
C975 H990 0.961 . S
C975 H991 0.960 . S
H976 C960 0.931 . S
H977 C965 0.929 . S
H978 C966 0.960 . S
H979 C966 0.962 . S
H980 C966 0.960 . S
H981 C967 0.961 . S
H982 C967 0.961 . S
H983 C967 0.961 . S
H984 C968 0.931 . S
H985 C973 0.930 . S
H986 C974 0.956 . S
H987 C974 0.961 . S
H988 C974 0.961 . S
H989 C975 0.958 . S
H990 C975 0.961 . S
H991 C975 0.960 . S
C992 C993 1.391 . S
C992 C994 1.394 . S
C992 H1008 0.931 . S
C993 C992 1.391 . S
C993 C997 1.376 . S
C994 C992 1.394 . S
C994 C995 1.369 . S
C994 C998 1.531 . S
C995 C994 1.369 . S
C995 C996 1.410 . S
C995 C1003 1.503 . S
C996 C995 1.410 . S
C996 C997 1.392 . S
C996 C999 1.511 . S
C997 C993 1.376 . S
C997 C996 1.392 . S
C997 H1009 0.929 . S
C998 C994 1.531 . S
C998 H1010 0.960 . S
C998 H1011 0.962 . S
C998 H1012 0.960 . S
C999 C996 1.511 . S
C999 H1013 0.961 . S
C999 H1014 0.961 . S
C999 H1015 0.961 . S
C1000 C1001 1.370 . S
C1000 C1002 1.363 . S
C1000 H1016 0.931 . S
C1001 C1000 1.370 . S
C1001 C1005 1.408 . S
C1002 C1000 1.363 . S
C1002 C1003 1.370 . S
C1002 C1006 1.524 . S
C1003 C995 1.503 . S
C1003 C1002 1.370 . S
C1003 C1004 1.403 . S
C1004 C1003 1.403 . S
C1004 C1005 1.404 . S
C1004 C1007 1.539 . S
C1005 C1001 1.408 . S
C1005 C1004 1.404 . S
C1005 H1017 0.930 . S
C1006 C1002 1.524 . S
C1006 H1018 0.956 . S
C1006 H1019 0.961 . S
C1006 H1020 0.961 . S
C1007 C1004 1.539 . S
C1007 H1021 0.958 . S
C1007 H1022 0.961 . S
C1007 H1023 0.960 . S
H1008 C992 0.931 . S
H1009 C997 0.929 . S
H1010 C998 0.960 . S
H1011 C998 0.962 . S
H1012 C998 0.960 . S
H1013 C999 0.961 . S
H1014 C999 0.961 . S
H1015 C999 0.961 . S
H1016 C1000 0.931 . S
H1017 C1005 0.930 . S
H1018 C1006 0.956 . S
H1019 C1006 0.961 . S
H1020 C1006 0.961 . S
H1021 C1007 0.958 . S
H1022 C1007 0.961 . S
H1023 C1007 0.960 . S
C1024 C1025 1.391 . S
C1024 C1026 1.394 . S
C1024 H1040 0.931 . S
C1025 C1024 1.391 . S
C1025 C1029 1.376 . S
C1026 C1024 1.394 . S
C1026 C1027 1.369 . S
C1026 C1030 1.531 . S
C1027 C1026 1.369 . S
C1027 C1028 1.410 . S
C1027 C1035 1.503 . S
C1028 C1027 1.410 . S
C1028 C1029 1.392 . S
C1028 C1031 1.511 . S
C1029 C1025 1.376 . S
C1029 C1028 1.392 . S
C1029 H1041 0.929 . S
C1030 C1026 1.531 . S
C1030 H1042 0.960 . S
C1030 H1043 0.962 . S
C1030 H1044 0.960 . S
C1031 C1028 1.511 . S
C1031 H1045 0.961 . S
C1031 H1046 0.961 . S
C1031 H1047 0.961 1_455 S
C1032 C1033 1.370 . S
C1032 C1034 1.363 . S
C1032 H1048 0.931 . S
C1033 C1032 1.370 . S
C1033 C1037 1.408 . S
C1034 C1032 1.363 . S
C1034 C1035 1.370 . S
C1034 C1038 1.524 . S
C1035 C1027 1.503 . S
C1035 C1034 1.370 . S
C1035 C1036 1.403 . S
C1036 C1035 1.403 . S
C1036 C1037 1.404 . S
C1036 C1039 1.539 1_455 S
C1037 C1033 1.408 . S
C1037 C1036 1.404 . S
C1037 H1049 0.930 1_455 S
C1038 C1034 1.524 . S
C1038 H1050 0.956 . S
C1038 H1051 0.961 . S
C1038 H1052 0.961 . S
C1039 C1036 1.539 1_655 S
C1039 H1053 0.958 . S
C1039 H1054 0.961 . S
C1039 H1055 0.960 . S
H1040 C1024 0.931 . S
H1041 C1029 0.929 . S
H1042 C1030 0.960 . S
H1043 C1030 0.962 . S
H1044 C1030 0.960 . S
H1045 C1031 0.961 . S
H1046 C1031 0.961 . S
H1047 C1031 0.961 1_655 S
H1048 C1032 0.931 . S
H1049 C1037 0.930 1_655 S
H1050 C1038 0.956 . S
H1051 C1038 0.961 . S
H1052 C1038 0.961 . S
H1053 C1039 0.958 . S
H1054 C1039 0.961 . S
H1055 C1039 0.960 . S
C1056 C1057 1.391 . S
C1056 C1058 1.394 . S
C1056 H1072 0.931 . S
C1057 C1056 1.391 . S
C1057 C1061 1.376 . S
C1058 C1056 1.394 . S
C1058 C1059 1.369 . S
C1058 C1062 1.531 . S
C1059 C1058 1.369 . S
C1059 C1060 1.410 . S
C1059 C1067 1.503 . S
C1060 C1059 1.410 . S
C1060 C1061 1.392 . S
C1060 C1063 1.511 . S
C1061 C1057 1.376 . S
C1061 C1060 1.392 . S
C1061 H1073 0.929 . S
C1062 C1058 1.531 . S
C1062 H1074 0.960 . S
C1062 H1075 0.962 . S
C1062 H1076 0.960 . S
C1063 C1060 1.511 . S
C1063 H1077 0.961 . S
C1063 H1078 0.961 . S
C1063 H1079 0.961 . S
C1064 C1065 1.370 . S
C1064 C1066 1.363 . S
C1064 H1080 0.931 . S
C1065 C1064 1.370 . S
C1065 C1069 1.408 . S
C1066 C1064 1.363 . S
C1066 C1067 1.370 . S
C1066 C1070 1.524 . S
C1067 C1059 1.503 . S
C1067 C1066 1.370 . S
C1067 C1068 1.403 . S
C1068 C1067 1.403 . S
C1068 C1069 1.404 . S
C1068 C1071 1.539 . S
C1069 C1065 1.408 . S
C1069 C1068 1.404 . S
C1069 H1081 0.930 . S
C1070 C1066 1.524 . S
C1070 H1082 0.956 . S
C1070 H1083 0.961 . S
C1070 H1084 0.961 . S
C1071 C1068 1.539 . S
C1071 H1085 0.958 . S
C1071 H1086 0.961 . S
C1071 H1087 0.960 . S
H1072 C1056 0.931 . S
H1073 C1061 0.929 . S
H1074 C1062 0.960 . S
H1075 C1062 0.962 . S
H1076 C1062 0.960 . S
H1077 C1063 0.961 . S
H1078 C1063 0.961 . S
H1079 C1063 0.961 . S
H1080 C1064 0.931 . S
H1081 C1069 0.930 . S
H1082 C1070 0.956 . S
H1083 C1070 0.961 . S
H1084 C1070 0.961 . S
H1085 C1071 0.958 . S
H1086 C1071 0.961 . S
H1087 C1071 0.960 . S
C1088 C1089 1.391 1_455 S
C1088 C1090 1.394 . S
C1088 H1104 0.931 . S
C1089 C1088 1.391 1_655 S
C1089 C1093 1.376 . S
C1090 C1088 1.394 . S
C1090 C1091 1.369 1_455 S
C1090 C1094 1.531 . S
C1091 C1090 1.369 1_655 S
C1091 C1092 1.410 . S
C1091 C1099 1.503 1_655 S
C1092 C1091 1.410 . S
C1092 C1093 1.392 . S
C1092 C1095 1.511 . S
C1093 C1089 1.376 . S
C1093 C1092 1.392 . S
C1093 H1105 0.929 . S
C1094 C1090 1.531 . S
C1094 H1106 0.960 . S
C1094 H1107 0.962 . S
C1094 H1108 0.960 . S
C1095 C1092 1.511 . S
C1095 H1109 0.961 . S
C1095 H1110 0.961 . S
C1095 H1111 0.961 . S
C1096 C1097 1.370 . S
C1096 C1098 1.363 . S
C1096 H1112 0.931 . S
C1097 C1096 1.370 . S
C1097 C1101 1.408 1_455 S
C1098 C1096 1.363 . S
C1098 C1099 1.370 . S
C1098 C1102 1.524 . S
C1099 C1091 1.503 1_455 S
C1099 C1098 1.370 . S
C1099 C1100 1.403 1_455 S
C1100 C1099 1.403 1_655 S
C1100 C1101 1.404 . S
C1100 C1103 1.539 . S
C1101 C1097 1.408 1_655 S
C1101 C1100 1.404 . S
C1101 H1113 0.930 . S
C1102 C1098 1.524 . S
C1102 H1114 0.956 . S
C1102 H1115 0.961 . S
C1102 H1116 0.961 . S
C1103 C1100 1.539 . S
C1103 H1117 0.958 . S
C1103 H1118 0.961 . S
C1103 H1119 0.960 . S
H1104 C1088 0.931 . S
H1105 C1093 0.929 . S
H1106 C1094 0.960 . S
H1107 C1094 0.962 . S
H1108 C1094 0.960 . S
H1109 C1095 0.961 . S
H1110 C1095 0.961 . S
H1111 C1095 0.961 . S
H1112 C1096 0.931 . S
H1113 C1101 0.930 . S
H1114 C1102 0.956 . S
H1115 C1102 0.961 . S
H1116 C1102 0.961 . S
H1117 C1103 0.958 . S
H1118 C1103 0.961 . S
H1119 C1103 0.960 . S
C1120 C1121 1.391 . S
C1120 C1122 1.394 . S
C1120 H1136 0.931 . S
C1121 C1120 1.391 . S
C1121 C1125 1.376 . S
C1122 C1120 1.394 . S
C1122 C1123 1.369 . S
C1122 C1126 1.531 . S
C1123 C1122 1.369 . S
C1123 C1124 1.410 . S
C1123 C1131 1.503 . S
C1124 C1123 1.410 . S
C1124 C1125 1.392 . S
C1124 C1127 1.511 . S
C1125 C1121 1.376 . S
C1125 C1124 1.392 . S
C1125 H1137 0.929 . S
C1126 C1122 1.531 . S
C1126 H1138 0.960 . S
C1126 H1139 0.962 . S
C1126 H1140 0.960 . S
C1127 C1124 1.511 . S
C1127 H1141 0.961 . S
C1127 H1142 0.961 . S
C1127 H1143 0.961 . S
C1128 C1129 1.370 . S
C1128 C1130 1.363 . S
C1128 H1144 0.931 . S
C1129 C1128 1.370 . S
C1129 C1133 1.408 . S
C1130 C1128 1.363 . S
C1130 C1131 1.370 . S
C1130 C1134 1.524 . S
C1131 C1123 1.503 . S
C1131 C1130 1.370 . S
C1131 C1132 1.403 . S
C1132 C1131 1.403 . S
C1132 C1133 1.404 . S
C1132 C1135 1.539 . S
C1133 C1129 1.408 . S
C1133 C1132 1.404 . S
C1133 H1145 0.930 . S
C1134 C1130 1.524 . S
C1134 H1146 0.956 . S
C1134 H1147 0.961 . S
C1134 H1148 0.961 . S
C1135 C1132 1.539 . S
C1135 H1149 0.958 . S
C1135 H1150 0.961 . S
C1135 H1151 0.960 . S
H1136 C1120 0.931 . S
H1137 C1125 0.929 . S
H1138 C1126 0.960 . S
H1139 C1126 0.962 . S
H1140 C1126 0.960 . S
H1141 C1127 0.961 . S
H1142 C1127 0.961 . S
H1143 C1127 0.961 . S
H1144 C1128 0.931 . S
H1145 C1133 0.930 . S
H1146 C1134 0.956 . S
H1147 C1134 0.961 . S
H1148 C1134 0.961 . S
H1149 C1135 0.958 . S
H1150 C1135 0.961 . S
H1151 C1135 0.960 . S
C1152 C1153 1.391 . S
C1152 C1154 1.394 . S
C1152 H1168 0.931 . S
C1153 C1152 1.391 . S
C1153 C1157 1.376 . S
C1154 C1152 1.394 . S
C1154 C1155 1.369 . S
C1154 C1158 1.531 . S
C1155 C1154 1.369 . S
C1155 C1156 1.410 . S
C1155 C1163 1.503 . S
C1156 C1155 1.410 . S
C1156 C1157 1.392 . S
C1156 C1159 1.511 . S
C1157 C1153 1.376 . S
C1157 C1156 1.392 . S
C1157 H1169 0.929 . S
C1158 C1154 1.531 . S
C1158 H1170 0.960 . S
C1158 H1171 0.962 . S
C1158 H1172 0.960 . S
C1159 C1156 1.511 . S
C1159 H1173 0.961 . S
C1159 H1174 0.961 . S
C1159 H1175 0.961 . S
C1160 C1161 1.370 . S
C1160 C1162 1.363 . S
C1160 H1176 0.931 . S
C1161 C1160 1.370 . S
C1161 C1165 1.408 . S
C1162 C1160 1.363 . S
C1162 C1163 1.370 . S
C1162 C1166 1.524 . S
C1163 C1155 1.503 . S
C1163 C1162 1.370 . S
C1163 C1164 1.403 . S
C1164 C1163 1.403 . S
C1164 C1165 1.404 . S
C1164 C1167 1.539 . S
C1165 C1161 1.408 . S
C1165 C1164 1.404 . S
C1165 H1177 0.930 . S
C1166 C1162 1.524 . S
C1166 H1178 0.956 . S
C1166 H1179 0.961 . S
C1166 H1180 0.961 . S
C1167 C1164 1.539 . S
C1167 H1181 0.958 . S
C1167 H1182 0.961 . S
C1167 H1183 0.960 . S
H1168 C1152 0.931 . S
H1169 C1157 0.929 . S
H1170 C1158 0.960 . S
H1171 C1158 0.962 . S
H1172 C1158 0.960 . S
H1173 C1159 0.961 . S
H1174 C1159 0.961 . S
H1175 C1159 0.961 . S
H1176 C1160 0.931 . S
H1177 C1165 0.930 . S
H1178 C1166 0.956 . S
H1179 C1166 0.961 . S
H1180 C1166 0.961 . S
H1181 C1167 0.958 . S
H1182 C1167 0.961 . S
H1183 C1167 0.960 . S
C1184 C1185 1.391 1_564 S
C1184 C1186 1.394 . S
C1184 H1200 0.932 . S
C1185 C1184 1.391 1_546 S
C1185 C1189 1.376 . S
C1186 C1184 1.394 . S
C1186 C1187 1.369 . S
C1186 C1190 1.531 . S
C1187 C1186 1.369 . S
C1187 C1188 1.410 1_565 S
C1187 C1195 1.503 . S
C1188 C1187 1.410 1_545 S
C1188 C1189 1.392 1_554 S
C1188 C1191 1.511 . S
C1189 C1185 1.376 . S
C1189 C1188 1.392 1_556 S
C1189 H1201 0.929 . S
C1190 C1186 1.531 . S
C1190 H1202 0.960 . S
C1190 H1203 0.962 . S
C1190 H1204 0.960 . S
C1191 C1188 1.511 . S
C1191 H1205 0.961 1_554 S
C1191 H1206 0.961 . S
C1191 H1207 0.961 . S
C1192 C1193 1.370 . S
C1192 C1194 1.363 . S
C1192 H1208 0.931 1_554 S
C1193 C1192 1.370 . S
C1193 C1197 1.408 . S
C1194 C1192 1.363 . S
C1194 C1195 1.370 . S
C1194 C1198 1.524 1_554 S
C1195 C1187 1.503 . S
C1195 C1194 1.370 . S
C1195 C1196 1.403 . S
C1196 C1195 1.403 . S
C1196 C1197 1.404 . S
C1196 C1199 1.539 . S
C1197 C1193 1.408 . S
C1197 C1196 1.404 . S
C1197 H1209 0.930 . S
C1198 C1194 1.524 1_556 S
C1198 H1210 0.956 . S
C1198 H1211 0.961 . S
C1198 H1212 0.961 . S
C1199 C1196 1.539 . S
C1199 H1213 0.958 . S
C1199 H1214 0.961 . S
C1199 H1215 0.945 1_565 S
H1200 C1184 0.932 . S
H1201 C1189 0.929 . S
H1202 C1190 0.960 . S
H1203 C1190 0.962 . S
H1204 C1190 0.960 . S
H1205 C1191 0.961 1_556 S
H1206 C1191 0.961 . S
H1207 C1191 0.961 . S
H1208 C1192 0.931 1_556 S
H1209 C1197 0.930 . S
H1210 C1198 0.956 . S
H1211 C1198 0.961 . S
H1212 C1198 0.961 . S
H1213 C1199 0.958 . S
H1214 C1199 0.961 . S
H1215 C1199 0.945 1_545 S
C1216 C1217 1.391 . S
C1216 C1218 1.394 . S
C1216 H1232 0.931 . S
C1217 C1216 1.391 . S
C1217 C1221 1.376 . S
C1218 C1216 1.394 . S
C1218 C1219 1.369 . S
C1218 C1222 1.531 . S
C1219 C1218 1.369 . S
C1219 C1220 1.410 . S
C1219 C1227 1.503 . S
C1220 C1219 1.410 . S
C1220 C1221 1.392 . S
C1220 C1223 1.511 . S
C1221 C1217 1.376 . S
C1221 C1220 1.392 . S
C1221 H1233 0.929 . S
C1222 C1218 1.531 . S
C1222 H1234 0.960 . S
C1222 H1235 0.962 . S
C1222 H1236 0.960 . S
C1223 C1220 1.511 . S
C1223 H1237 0.961 . S
C1223 H1238 0.961 . S
C1223 H1239 0.961 . S
C1224 C1225 1.370 . S
C1224 C1226 1.363 . S
C1224 H1240 0.931 . S
C1225 C1224 1.370 . S
C1225 C1229 1.408 . S
C1226 C1224 1.363 . S
C1226 C1227 1.370 . S
C1226 C1230 1.524 . S
C1227 C1219 1.503 . S
C1227 C1226 1.370 . S
C1227 C1228 1.403 . S
C1228 C1227 1.403 . S
C1228 C1229 1.404 . S
C1228 C1231 1.539 . S
C1229 C1225 1.408 . S
C1229 C1228 1.404 . S
C1229 H1241 0.930 . S
C1230 C1226 1.524 . S
C1230 H1242 0.956 . S
C1230 H1243 0.961 . S
C1230 H1244 0.961 . S
C1231 C1228 1.539 . S
C1231 H1245 0.958 . S
C1231 H1246 0.961 . S
C1231 H1247 0.960 . S
H1232 C1216 0.931 . S
H1233 C1221 0.929 . S
H1234 C1222 0.960 . S
H1235 C1222 0.962 . S
H1236 C1222 0.960 . S
H1237 C1223 0.961 . S
H1238 C1223 0.961 . S
H1239 C1223 0.961 . S
H1240 C1224 0.931 . S
H1241 C1229 0.930 . S
H1242 C1230 0.956 . S
H1243 C1230 0.961 . S
H1244 C1230 0.961 . S
H1245 C1231 0.958 . S
H1246 C1231 0.961 . S
H1247 C1231 0.960 . S
C1248 C1249 1.391 . S
C1248 C1250 1.394 . S
C1248 H1264 0.931 . S
C1249 C1248 1.391 . S
C1249 C1253 1.376 . S
C1250 C1248 1.394 . S
C1250 C1251 1.369 . S
C1250 C1254 1.531 . S
C1251 C1250 1.369 . S
C1251 C1252 1.410 . S
C1251 C1259 1.503 . S
C1252 C1251 1.410 . S
C1252 C1253 1.392 . S
C1252 C1255 1.511 . S
C1253 C1249 1.376 . S
C1253 C1252 1.392 . S
C1253 H1265 0.929 1_545 S
C1254 C1250 1.531 . S
C1254 H1266 0.960 . S
C1254 H1267 0.962 . S
C1254 H1268 0.960 . S
C1255 C1252 1.511 . S
C1255 H1269 0.956 1_545 S
C1255 H1270 0.961 . S
C1255 H1271 0.961 . S
C1256 C1257 1.370 . S
C1256 C1258 1.363 . S
C1256 H1272 0.931 . S
C1257 C1256 1.370 . S
C1257 C1261 1.408 . S
C1258 C1256 1.363 . S
C1258 C1259 1.370 . S
C1258 C1262 1.524 . S
C1259 C1251 1.503 . S
C1259 C1258 1.370 . S
C1259 C1260 1.403 . S
C1260 C1259 1.403 . S
C1260 C1261 1.404 . S
C1260 C1263 1.539 . S
C1261 C1257 1.408 . S
C1261 C1260 1.404 . S
C1261 H1273 0.930 . S
C1262 C1258 1.524 . S
C1262 H1274 0.956 . S
C1262 H1275 0.961 . S
C1262 H1276 0.961 . S
C1263 C1260 1.539 . S
C1263 H1277 0.958 . S
C1263 H1278 0.961 . S
C1263 H1279 0.960 . S
H1264 C1248 0.931 . S
H1265 C1253 0.929 1_565 S
H1266 C1254 0.960 . S
H1267 C1254 0.962 . S
H1268 C1254 0.960 . S
H1269 C1255 0.956 1_565 S
H1270 C1255 0.961 . S
H1271 C1255 0.961 . S
H1272 C1256 0.931 . S
H1273 C1261 0.930 . S
H1274 C1262 0.956 . S
H1275 C1262 0.961 . S
H1276 C1262 0.961 . S
H1277 C1263 0.958 . S
H1278 C1263 0.961 . S
H1279 C1263 0.960 . S
C1280 C1281 1.391 . S
C1280 C1282 1.394 . S
C1280 H1296 0.931 . S
C1281 C1280 1.391 . S
C1281 C1285 1.376 . S
C1282 C1280 1.394 . S
C1282 C1283 1.369 . S
C1282 C1286 1.531 . S
C1283 C1282 1.369 . S
C1283 C1284 1.410 . S
C1283 C1291 1.503 . S
C1284 C1283 1.410 . S
C1284 C1285 1.392 . S
C1284 C1287 1.511 . S
C1285 C1281 1.376 . S
C1285 C1284 1.392 . S
C1285 H1297 0.929 . S
C1286 C1282 1.531 . S
C1286 H1298 0.960 . S
C1286 H1299 0.962 . S
C1286 H1300 0.960 . S
C1287 C1284 1.511 . S
C1287 H1301 0.961 . S
C1287 H1302 0.961 . S
C1287 H1303 0.961 . S
C1288 C1289 1.370 . S
C1288 C1290 1.363 . S
C1288 H1304 0.931 . S
C1289 C1288 1.370 . S
C1289 C1293 1.408 . S
C1290 C1288 1.363 . S
C1290 C1291 1.370 . S
C1290 C1294 1.524 . S
C1291 C1283 1.503 . S
C1291 C1290 1.370 . S
C1291 C1292 1.403 . S
C1292 C1291 1.403 . S
C1292 C1293 1.404 . S
C1292 C1295 1.539 . S
C1293 C1289 1.408 . S
C1293 C1292 1.404 . S
C1293 H1305 0.930 . S
C1294 C1290 1.524 . S
C1294 H1306 0.956 . S
C1294 H1307 0.961 . S
C1294 H1308 0.961 . S
C1295 C1292 1.539 . S
C1295 H1309 0.958 . S
C1295 H1310 0.961 . S
C1295 H1311 0.960 . S
H1296 C1280 0.931 . S
H1297 C1285 0.929 . S
H1298 C1286 0.960 . S
H1299 C1286 0.962 . S
H1300 C1286 0.960 . S
H1301 C1287 0.961 . S
H1302 C1287 0.961 . S
H1303 C1287 0.961 . S
H1304 C1288 0.931 . S
H1305 C1293 0.930 . S
H1306 C1294 0.956 . S
H1307 C1294 0.961 . S
H1308 C1294 0.961 . S
H1309 C1295 0.958 . S
H1310 C1295 0.961 . S
H1311 C1295 0.960 . S
C1312 C1313 1.391 . S
C1312 C1314 1.394 . S
C1312 H1328 0.931 . S
C1313 C1312 1.391 . S
C1313 C1317 1.376 . S
C1314 C1312 1.394 . S
C1314 C1315 1.369 . S
C1314 C1318 1.531 . S
C1315 C1314 1.369 . S
C1315 C1316 1.410 . S
C1315 C1323 1.503 . S
C1316 C1315 1.410 . S
C1316 C1317 1.392 . S
C1316 C1319 1.511 . S
C1317 C1313 1.376 . S
C1317 C1316 1.392 . S
C1317 H1329 0.929 . S
C1318 C1314 1.531 . S
C1318 H1330 0.960 . S
C1318 H1331 0.962 . S
C1318 H1332 0.960 . S
C1319 C1316 1.511 . S
C1319 H1333 0.961 . S
C1319 H1334 0.961 . S
C1319 H1335 0.961 . S
C1320 C1321 1.370 . S
C1320 C1322 1.363 . S
C1320 H1336 0.931 . S
C1321 C1320 1.370 . S
C1321 C1325 1.408 . S
C1322 C1320 1.363 . S
C1322 C1323 1.370 . S
C1322 C1326 1.524 . S
C1323 C1315 1.503 . S
C1323 C1322 1.370 . S
C1323 C1324 1.403 . S
C1324 C1323 1.403 . S
C1324 C1325 1.404 . S
C1324 C1327 1.539 . S
C1325 C1321 1.408 . S
C1325 C1324 1.404 . S
C1325 H1337 0.930 . S
C1326 C1322 1.524 . S
C1326 H1338 0.956 . S
C1326 H1339 0.961 . S
C1326 H1340 0.961 . S
C1327 C1324 1.539 . S
C1327 H1341 0.958 . S
C1327 H1342 0.961 . S
C1327 H1343 0.960 . S
H1328 C1312 0.931 . S
H1329 C1317 0.929 . S
H1330 C1318 0.960 . S
H1331 C1318 0.962 . S
H1332 C1318 0.960 . S
H1333 C1319 0.961 . S
H1334 C1319 0.961 . S
H1335 C1319 0.961 . S
H1336 C1320 0.931 . S
H1337 C1325 0.930 . S
H1338 C1326 0.956 . S
H1339 C1326 0.961 . S
H1340 C1326 0.961 . S
H1341 C1327 0.958 . S
H1342 C1327 0.961 . S
H1343 C1327 0.960 . S
C1344 C1345 1.391 . S
C1344 C1346 1.394 . S
C1344 H1360 0.931 . S
C1345 C1344 1.391 . S
C1345 C1349 1.376 . S
C1346 C1344 1.394 . S
C1346 C1347 1.369 . S
C1346 C1350 1.531 . S
C1347 C1346 1.369 . S
C1347 C1348 1.410 . S
C1347 C1355 1.503 . S
C1348 C1347 1.410 . S
C1348 C1349 1.392 . S
C1348 C1351 1.511 . S
C1349 C1345 1.376 . S
C1349 C1348 1.392 . S
C1349 H1361 0.929 . S
C1350 C1346 1.531 . S
C1350 H1362 0.960 . S
C1350 H1363 0.962 . S
C1350 H1364 0.960 . S
C1351 C1348 1.511 . S
C1351 H1365 0.961 . S
C1351 H1366 0.961 . S
C1351 H1367 0.961 . S
C1352 C1353 1.370 . S
C1352 C1354 1.363 . S
C1352 H1368 0.931 . S
C1353 C1352 1.370 . S
C1353 C1357 1.408 . S
C1354 C1352 1.363 . S
C1354 C1355 1.370 . S
C1354 C1358 1.524 . S
C1355 C1347 1.503 . S
C1355 C1354 1.370 . S
C1355 C1356 1.403 . S
C1356 C1355 1.403 . S
C1356 C1357 1.404 . S
C1356 C1359 1.539 . S
C1357 C1353 1.408 . S
C1357 C1356 1.404 . S
C1357 H1369 0.930 . S
C1358 C1354 1.524 . S
C1358 H1370 0.956 . S
C1358 H1371 0.961 . S
C1358 H1372 0.961 . S
C1359 C1356 1.539 . S
C1359 H1373 0.958 . S
C1359 H1374 0.961 . S
C1359 H1375 0.960 . S
H1360 C1344 0.931 . S
H1361 C1349 0.929 . S
H1362 C1350 0.960 . S
H1363 C1350 0.962 . S
H1364 C1350 0.960 . S
H1365 C1351 0.961 . S
H1366 C1351 0.961 . S
H1367 C1351 0.961 . S
H1368 C1352 0.931 . S
H1369 C1357 0.930 . S
H1370 C1358 0.956 . S
H1371 C1358 0.961 . S
H1372 C1358 0.961 . S
H1373 C1359 0.958 . S
H1374 C1359 0.961 . S
H1375 C1359 0.960 . S
C1376 C1377 1.391 . S
C1376 C1378 1.394 . S
C1376 H1392 0.931 . S
C1377 C1376 1.391 . S
C1377 C1381 1.376 . S
C1378 C1376 1.394 . S
C1378 C1379 1.369 . S
C1378 C1382 1.531 . S
C1379 C1378 1.369 . S
C1379 C1380 1.410 . S
C1379 C1387 1.503 . S
C1380 C1379 1.410 . S
C1380 C1381 1.392 . S
C1380 C1383 1.511 . S
C1381 C1377 1.376 . S
C1381 C1380 1.392 . S
C1381 H1393 0.929 . S
C1382 C1378 1.531 . S
C1382 H1394 0.960 . S
C1382 H1395 0.962 . S
C1382 H1396 0.960 . S
C1383 C1380 1.511 . S
C1383 H1397 0.961 . S
C1383 H1398 0.961 . S
C1383 H1399 0.961 . S
C1384 C1385 1.370 . S
C1384 C1386 1.363 . S
C1384 H1400 0.931 . S
C1385 C1384 1.370 . S
C1385 C1389 1.408 . S
C1386 C1384 1.363 . S
C1386 C1387 1.370 . S
C1386 C1390 1.524 . S
C1387 C1379 1.503 . S
C1387 C1386 1.370 . S
C1387 C1388 1.403 . S
C1388 C1387 1.403 . S
C1388 C1389 1.404 . S
C1388 C1391 1.539 . S
C1389 C1385 1.408 . S
C1389 C1388 1.404 . S
C1389 H1401 0.930 . S
C1390 C1386 1.524 . S
C1390 H1402 0.956 . S
C1390 H1403 0.961 . S
C1390 H1404 0.961 . S
C1391 C1388 1.539 . S
C1391 H1405 0.958 . S
C1391 H1406 0.961 . S
C1391 H1407 0.960 . S
H1392 C1376 0.931 . S
H1393 C1381 0.929 . S
H1394 C1382 0.960 . S
H1395 C1382 0.962 . S
H1396 C1382 0.960 . S
H1397 C1383 0.961 . S
H1398 C1383 0.961 . S
H1399 C1383 0.961 . S
H1400 C1384 0.931 . S
H1401 C1389 0.930 . S
H1402 C1390 0.956 . S
H1403 C1390 0.961 . S
H1404 C1390 0.961 . S
H1405 C1391 0.958 . S
H1406 C1391 0.961 . S
H1407 C1391 0.960 . S
C1408 C1409 1.391 . S
C1408 C1410 1.394 . S
C1408 H1424 0.931 . S
C1409 C1408 1.391 . S
C1409 C1413 1.376 . S
C1410 C1408 1.394 . S
C1410 C1411 1.369 . S
C1410 C1414 1.531 1_545 S
C1411 C1410 1.369 . S
C1411 C1412 1.410 . S
C1411 C1419 1.503 . S
C1412 C1411 1.410 . S
C1412 C1413 1.392 . S
C1412 C1415 1.511 . S
C1413 C1409 1.376 . S
C1413 C1412 1.392 . S
C1413 H1425 0.929 . S
C1414 C1410 1.531 1_565 S
C1414 H1426 0.960 . S
C1414 H1427 0.962 . S
C1414 H1428 0.960 . S
C1415 C1412 1.511 . S
C1415 H1429 0.961 . S
C1415 H1430 0.961 . S
C1415 H1431 0.961 . S
C1416 C1417 1.370 1_565 S
C1416 C1418 1.363 1_565 S
C1416 H1432 0.931 . S
C1417 C1416 1.370 1_545 S
C1417 C1421 1.408 . S
C1418 C1416 1.363 1_545 S
C1418 C1419 1.370 . S
C1418 C1422 1.524 1_545 S
C1419 C1411 1.503 . S
C1419 C1418 1.370 . S
C1419 C1420 1.403 . S
C1420 C1419 1.403 . S
C1420 C1421 1.404 . S
C1420 C1423 1.539 . S
C1421 C1417 1.408 . S
C1421 C1420 1.404 . S
C1421 H1433 0.930 . S
C1422 C1418 1.524 1_565 S
C1422 H1434 0.956 . S
C1422 H1435 0.962 . S
C1422 H1436 0.961 . S
C1423 C1420 1.539 . S
C1423 H1437 0.958 . S
C1423 H1438 0.961 . S
C1423 H1439 0.960 . S
H1424 C1408 0.931 . S
H1425 C1413 0.929 . S
H1426 C1414 0.960 . S
H1427 C1414 0.962 . S
H1428 C1414 0.960 . S
H1429 C1415 0.961 . S
H1430 C1415 0.961 . S
H1431 C1415 0.961 . S
H1432 C1416 0.931 . S
H1433 C1421 0.930 . S
H1434 C1422 0.956 . S
H1435 C1422 0.962 . S
H1436 C1422 0.961 . S
H1437 C1423 0.958 . S
H1438 C1423 0.961 . S
H1439 C1423 0.960 . S
C1440 C1441 1.391 . S
C1440 C1442 1.394 . S
C1440 H1456 0.931 . S
C1441 C1440 1.391 . S
C1441 C1445 1.376 . S
C1442 C1440 1.394 . S
C1442 C1443 1.369 . S
C1442 C1446 1.531 . S
C1443 C1442 1.369 . S
C1443 C1444 1.410 . S
C1443 C1451 1.503 . S
C1444 C1443 1.410 . S
C1444 C1445 1.392 . S
C1444 C1447 1.511 . S
C1445 C1441 1.376 . S
C1445 C1444 1.392 . S
C1445 H1457 0.929 . S
C1446 C1442 1.531 . S
C1446 H1458 0.960 . S
C1446 H1459 0.962 . S
C1446 H1460 0.960 . S
C1447 C1444 1.511 . S
C1447 H1461 0.961 . S
C1447 H1462 0.961 . S
C1447 H1463 0.961 . S
C1448 C1449 1.370 . S
C1448 C1450 1.363 . S
C1448 H1464 0.931 . S
C1449 C1448 1.370 . S
C1449 C1453 1.408 . S
C1450 C1448 1.363 . S
C1450 C1451 1.370 . S
C1450 C1454 1.524 . S
C1451 C1443 1.503 . S
C1451 C1450 1.370 . S
C1451 C1452 1.403 . S
C1452 C1451 1.403 . S
C1452 C1453 1.404 . S
C1452 C1455 1.539 . S
C1453 C1449 1.408 . S
C1453 C1452 1.404 . S
C1453 H1465 0.930 . S
C1454 C1450 1.524 . S
C1454 H1466 0.956 . S
C1454 H1467 0.961 . S
C1454 H1468 0.961 . S
C1455 C1452 1.539 . S
C1455 H1469 0.958 . S
C1455 H1470 0.961 . S
C1455 H1471 0.960 . S
H1456 C1440 0.931 . S
H1457 C1445 0.929 . S
H1458 C1446 0.960 . S
H1459 C1446 0.962 . S
H1460 C1446 0.960 . S
H1461 C1447 0.961 . S
H1462 C1447 0.961 . S
H1463 C1447 0.961 . S
H1464 C1448 0.931 . S
H1465 C1453 0.930 . S
H1466 C1454 0.956 . S
H1467 C1454 0.961 . S
H1468 C1454 0.961 . S
H1469 C1455 0.958 . S
H1470 C1455 0.961 . S
H1471 C1455 0.960 . S
C1472 C1473 1.391 . S
C1472 C1474 1.394 . S
C1472 H1488 0.931 . S
C1473 C1472 1.391 . S
C1473 C1477 1.376 . S
C1474 C1472 1.394 . S
C1474 C1475 1.369 . S
C1474 C1478 1.531 . S
C1475 C1474 1.369 . S
C1475 C1476 1.410 . S
C1475 C1483 1.503 . S
C1476 C1475 1.410 . S
C1476 C1477 1.392 . S
C1476 C1479 1.511 . S
C1477 C1473 1.376 . S
C1477 C1476 1.392 . S
C1477 H1489 0.929 . S
C1478 C1474 1.531 . S
C1478 H1490 0.960 . S
C1478 H1491 0.962 . S
C1478 H1492 0.960 . S
C1479 C1476 1.511 . S
C1479 H1493 0.961 . S
C1479 H1494 0.961 . S
C1479 H1495 0.961 . S
C1480 C1481 1.370 . S
C1480 C1482 1.363 . S
C1480 H1496 0.931 . S
C1481 C1480 1.370 . S
C1481 C1485 1.408 . S
C1482 C1480 1.363 . S
C1482 C1483 1.370 . S
C1482 C1486 1.524 . S
C1483 C1475 1.503 . S
C1483 C1482 1.370 . S
C1483 C1484 1.403 . S
C1484 C1483 1.403 . S
C1484 C1485 1.404 . S
C1484 C1487 1.539 . S
C1485 C1481 1.408 . S
C1485 C1484 1.404 . S
C1485 H1497 0.930 . S
C1486 C1482 1.524 . S
C1486 H1498 0.956 . S
C1486 H1499 0.961 . S
C1486 H1500 0.961 . S
C1487 C1484 1.539 . S
C1487 H1501 0.958 . S
C1487 H1502 0.961 . S
C1487 H1503 0.960 . S
H1488 C1472 0.931 . S
H1489 C1477 0.929 . S
H1490 C1478 0.960 . S
H1491 C1478 0.962 . S
H1492 C1478 0.960 . S
H1493 C1479 0.961 . S
H1494 C1479 0.961 . S
H1495 C1479 0.961 . S
H1496 C1480 0.931 . S
H1497 C1485 0.930 . S
H1498 C1486 0.956 . S
H1499 C1486 0.961 . S
H1500 C1486 0.961 . S
H1501 C1487 0.958 . S
H1502 C1487 0.961 . S
H1503 C1487 0.960 . S
C1504 C1505 1.391 . S
C1504 C1506 1.394 . S
C1504 H1520 0.931 . S
C1505 C1504 1.391 . S
C1505 C1509 1.376 . S
C1506 C1504 1.394 . S
C1506 C1507 1.369 . S
C1506 C1510 1.531 . S
C1507 C1506 1.369 . S
C1507 C1508 1.410 . S
C1507 C1515 1.503 . S
C1508 C1507 1.410 . S
C1508 C1509 1.392 . S
C1508 C1511 1.511 . S
C1509 C1505 1.376 . S
C1509 C1508 1.392 . S
C1509 H1521 0.929 . S
C1510 C1506 1.531 . S
C1510 H1522 0.960 . S
C1510 H1523 0.962 . S
C1510 H1524 0.960 . S
C1511 C1508 1.511 . S
C1511 H1525 0.961 . S
C1511 H1526 0.961 . S
C1511 H1527 0.961 . S
C1512 C1513 1.370 . S
C1512 C1514 1.363 . S
C1512 H1528 0.931 . S
C1513 C1512 1.370 . S
C1513 C1517 1.408 . S
C1514 C1512 1.363 . S
C1514 C1515 1.370 . S
C1514 C1518 1.524 . S
C1515 C1507 1.503 . S
C1515 C1514 1.370 . S
C1515 C1516 1.403 . S
C1516 C1515 1.403 . S
C1516 C1517 1.404 . S
C1516 C1519 1.539 . S
C1517 C1513 1.408 . S
C1517 C1516 1.404 . S
C1517 H1529 0.930 . S
C1518 C1514 1.524 . S
C1518 H1530 0.956 . S
C1518 H1531 0.961 . S
C1518 H1532 0.961 . S
C1519 C1516 1.539 . S
C1519 H1533 0.958 . S
C1519 H1534 0.961 . S
C1519 H1535 0.960 . S
H1520 C1504 0.931 . S
H1521 C1509 0.929 . S
H1522 C1510 0.960 . S
H1523 C1510 0.962 . S
H1524 C1510 0.960 . S
H1525 C1511 0.961 . S
H1526 C1511 0.961 . S
H1527 C1511 0.961 . S
H1528 C1512 0.931 . S
H1529 C1517 0.930 . S
H1530 C1518 0.956 . S
H1531 C1518 0.961 . S
H1532 C1518 0.961 . S
H1533 C1519 0.958 . S
H1534 C1519 0.961 . S
H1535 C1519 0.960 . S
C1536 C1537 1.391 . S
C1536 C1538 1.394 . S
C1536 H1552 0.931 . S
C1537 C1536 1.391 . S
C1537 C1541 1.376 . S
C1538 C1536 1.394 . S
C1538 C1539 1.369 . S
C1538 C1542 1.531 . S
C1539 C1538 1.369 . S
C1539 C1540 1.410 1_455 S
C1539 C1547 1.503 1_455 S
C1540 C1539 1.410 1_655 S
C1540 C1541 1.392 1_655 S
C1540 C1543 1.511 . S
C1541 C1537 1.376 . S
C1541 C1540 1.392 1_455 S
C1541 H1553 0.929 1_455 S
C1542 C1538 1.531 . S
C1542 H1554 0.960 . S
C1542 H1555 0.962 . S
C1542 H1556 0.960 . S
C1543 C1540 1.511 . S
C1543 H1557 0.961 . S
C1543 H1558 0.961 . S
C1543 H1559 0.961 . S
C1544 C1545 1.370 . S
C1544 C1546 1.363 . S
C1544 H1560 0.931 1_545 S
C1545 C1544 1.370 . S
C1545 C1549 1.408 . S
C1546 C1544 1.363 . S
C1546 C1547 1.370 . S
C1546 C1550 1.524 1_645 S
C1547 C1539 1.503 1_655 S
C1547 C1546 1.370 . S
C1547 C1548 1.403 . S
C1548 C1547 1.403 . S
C1548 C1549 1.404 . S
C1548 C1551 1.539 . S
C1549 C1545 1.408 . S
C1549 C1548 1.404 . S
C1549 H1561 0.930 . S
C1550 C1546 1.524 1_465 S
C1550 H1562 0.956 . S
C1550 H1563 0.961 . S
C1550 H1564 0.961 . S
C1551 C1548 1.539 . S
C1551 H1565 0.958 . S
C1551 H1566 0.961 . S
C1551 H1567 0.960 . S
H1552 C1536 0.931 . S
H1553 C1541 0.929 1_655 S
H1554 C1542 0.960 . S
H1555 C1542 0.962 . S
H1556 C1542 0.960 . S
H1557 C1543 0.961 . S
H1558 C1543 0.961 . S
H1559 C1543 0.961 . S
H1560 C1544 0.931 1_565 S
H1561 C1549 0.930 . S
H1562 C1550 0.956 . S
H1563 C1550 0.961 . S
H1564 C1550 0.961 . S
H1565 C1551 0.958 . S
H1566 C1551 0.961 . S
H1567 C1551 0.960 . S
C1568 C1569 1.391 . S
C1568 C1570 1.394 . S
C1568 H1584 0.931 . S
C1569 C1568 1.391 . S
C1569 C1573 1.376 . S
C1570 C1568 1.394 . S
C1570 C1571 1.369 . S
C1570 C1574 1.531 . S
C1571 C1570 1.369 . S
C1571 C1572 1.410 . S
C1571 C1579 1.503 . S
C1572 C1571 1.410 . S
C1572 C1573 1.392 . S
C1572 C1575 1.511 . S
C1573 C1569 1.376 . S
C1573 C1572 1.392 . S
C1573 H1585 0.929 . S
C1574 C1570 1.531 . S
C1574 H1586 0.960 . S
C1574 H1587 0.962 . S
C1574 H1588 0.960 . S
C1575 C1572 1.511 . S
C1575 H1589 0.961 . S
C1575 H1590 0.961 . S
C1575 H1591 0.961 . S
C1576 C1577 1.370 . S
C1576 C1578 1.363 . S
C1576 H1592 0.931 . S
C1577 C1576 1.370 . S
C1577 C1581 1.408 . S
C1578 C1576 1.363 . S
C1578 C1579 1.370 . S
C1578 C1582 1.524 . S
C1579 C1571 1.503 . S
C1579 C1578 1.370 . S
C1579 C1580 1.403 . S
C1580 C1579 1.403 . S
C1580 C1581 1.404 . S
C1580 C1583 1.539 . S
C1581 C1577 1.408 . S
C1581 C1580 1.404 . S
C1581 H1593 0.930 . S
C1582 C1578 1.524 . S
C1582 H1594 0.956 . S
C1582 H1595 0.961 . S
C1582 H1596 0.961 . S
C1583 C1580 1.539 . S
C1583 H1597 0.958 . S
C1583 H1598 0.961 . S
C1583 H1599 0.960 . S
H1584 C1568 0.931 . S
H1585 C1573 0.929 . S
H1586 C1574 0.960 . S
H1587 C1574 0.962 . S
H1588 C1574 0.960 . S
H1589 C1575 0.961 . S
H1590 C1575 0.961 . S
H1591 C1575 0.961 . S
H1592 C1576 0.931 . S
H1593 C1581 0.930 . S
H1594 C1582 0.956 . S
H1595 C1582 0.961 . S
H1596 C1582 0.961 . S
H1597 C1583 0.958 . S
H1598 C1583 0.961 . S
H1599 C1583 0.960 . S
C1600 C1601 1.391 . S
C1600 C1602 1.394 . S
C1600 H1616 0.931 . S
C1601 C1600 1.391 . S
C1601 C1605 1.376 . S
C1602 C1600 1.394 . S
C1602 C1603 1.369 . S
C1602 C1606 1.531 . S
C1603 C1602 1.369 . S
C1603 C1604 1.410 . S
C1603 C1611 1.503 . S
C1604 C1603 1.410 . S
C1604 C1605 1.392 . S
C1604 C1607 1.511 . S
C1605 C1601 1.376 . S
C1605 C1604 1.392 . S
C1605 H1617 0.929 . S
C1606 C1602 1.531 . S
C1606 H1618 0.960 . S
C1606 H1619 0.962 . S
C1606 H1620 0.960 . S
C1607 C1604 1.511 . S
C1607 H1621 0.961 . S
C1607 H1622 0.961 . S
C1607 H1623 0.961 . S
C1608 C1609 1.370 . S
C1608 C1610 1.363 . S
C1608 H1624 0.931 . S
C1609 C1608 1.370 . S
C1609 C1613 1.408 . S
C1610 C1608 1.363 . S
C1610 C1611 1.370 . S
C1610 C1614 1.524 . S
C1611 C1603 1.503 . S
C1611 C1610 1.370 . S
C1611 C1612 1.403 . S
C1612 C1611 1.403 . S
C1612 C1613 1.404 . S
C1612 C1615 1.539 . S
C1613 C1609 1.408 . S
C1613 C1612 1.404 . S
C1613 H1625 0.930 . S
C1614 C1610 1.524 . S
C1614 H1626 0.956 . S
C1614 H1627 0.961 . S
C1614 H1628 0.961 . S
C1615 C1612 1.539 . S
C1615 H1629 0.958 . S
C1615 H1630 0.961 . S
C1615 H1631 0.960 . S
H1616 C1600 0.931 . S
H1617 C1605 0.929 . S
H1618 C1606 0.960 . S
H1619 C1606 0.962 . S
H1620 C1606 0.960 . S
H1621 C1607 0.961 . S
H1622 C1607 0.961 . S
H1623 C1607 0.961 . S
H1624 C1608 0.931 . S
H1625 C1613 0.930 . S
H1626 C1614 0.956 . S
H1627 C1614 0.961 . S
H1628 C1614 0.961 . S
H1629 C1615 0.958 . S
H1630 C1615 0.961 . S
H1631 C1615 0.960 . S
C1632 C1633 1.391 . S
C1632 C1634 1.394 . S
C1632 H1648 0.931 . S
C1633 C1632 1.391 . S
C1633 C1637 1.376 . S
C1634 C1632 1.394 . S
C1634 C1635 1.369 . S
C1634 C1638 1.531 . S
C1635 C1634 1.369 . S
C1635 C1636 1.410 . S
C1635 C1643 1.503 . S
C1636 C1635 1.410 . S
C1636 C1637 1.392 . S
C1636 C1639 1.511 . S
C1637 C1633 1.376 . S
C1637 C1636 1.392 . S
C1637 H1649 0.929 . S
C1638 C1634 1.531 . S
C1638 H1650 0.960 . S
C1638 H1651 0.962 . S
C1638 H1652 0.960 . S
C1639 C1636 1.511 . S
C1639 H1653 0.961 . S
C1639 H1654 0.961 . S
C1639 H1655 0.961 . S
C1640 C1641 1.370 . S
C1640 C1642 1.363 . S
C1640 H1656 0.931 . S
C1641 C1640 1.370 . S
C1641 C1645 1.408 . S
C1642 C1640 1.363 . S
C1642 C1643 1.370 . S
C1642 C1646 1.524 . S
C1643 C1635 1.503 . S
C1643 C1642 1.370 . S
C1643 C1644 1.403 . S
C1644 C1643 1.403 . S
C1644 C1645 1.404 . S
C1644 C1647 1.539 . S
C1645 C1641 1.408 . S
C1645 C1644 1.404 . S
C1645 H1657 0.930 . S
C1646 C1642 1.524 . S
C1646 H1658 0.956 . S
C1646 H1659 0.961 . S
C1646 H1660 0.961 . S
C1647 C1644 1.539 . S
C1647 H1661 0.958 . S
C1647 H1662 0.961 . S
C1647 H1663 0.960 . S
H1648 C1632 0.931 . S
H1649 C1637 0.929 . S
H1650 C1638 0.960 . S
H1651 C1638 0.962 . S
H1652 C1638 0.960 . S
H1653 C1639 0.961 . S
H1654 C1639 0.961 . S
H1655 C1639 0.961 . S
H1656 C1640 0.931 . S
H1657 C1645 0.930 . S
H1658 C1646 0.956 . S
H1659 C1646 0.961 . S
H1660 C1646 0.961 . S
H1661 C1647 0.958 . S
H1662 C1647 0.961 . S
H1663 C1647 0.960 . S
C1664 C1665 1.420 . S
C1664 C1666 1.394 1_554 S
C1664 H1680 0.931 . S
C1665 C1664 1.420 . S
C1665 C1669 1.354 1_454 S
C1666 C1664 1.394 1_556 S
C1666 C1667 1.369 . S
C1666 C1670 1.531 1_556 S
C1667 C1666 1.369 . S
C1667 C1668 1.410 1_455 S
C1667 C1675 1.503 . S
C1668 C1667 1.410 1_655 S
C1668 C1669 1.392 . S
C1668 C1671 1.511 . S
C1669 C1665 1.354 1_656 S
C1669 C1668 1.392 . S
C1669 H1681 0.929 . S
C1670 C1666 1.531 1_554 S
C1670 H1682 0.960 1_554 S
C1670 H1683 0.962 1_554 S
C1670 H1684 0.960 . S
C1671 C1668 1.511 . S
C1671 H1685 0.961 . S
C1671 H1686 0.961 . S
C1671 H1687 0.961 . S
C1672 C1673 1.370 . S
C1672 C1674 1.363 . S
C1672 H1688 0.931 . S
C1673 C1672 1.370 . S
C1673 C1677 1.408 . S
C1674 C1672 1.363 . S
C1674 C1675 1.370 . S
C1674 C1678 1.524 . S
C1675 C1667 1.503 . S
C1675 C1674 1.370 . S
C1675 C1676 1.403 1_455 S
C1676 C1675 1.403 1_655 S
C1676 C1677 1.404 1_655 S
C1676 C1679 1.539 . S
C1677 C1673 1.408 . S
C1677 C1676 1.404 1_455 S
C1677 H1689 0.930 1_455 S
C1678 C1674 1.524 . S
C1678 H1690 0.956 . S
C1678 H1691 0.961 . S
C1678 H1692 0.961 . S
C1679 C1676 1.539 . S
C1679 H1693 0.958 1_556 S
C1679 H1694 0.961 . S
C1679 H1695 0.960 . S
H1680 C1664 0.931 . S
H1681 C1669 0.929 . S
H1682 C1670 0.960 1_556 S
H1683 C1670 0.962 1_556 S
H1684 C1670 0.960 . S
H1685 C1671 0.961 . S
H1686 C1671 0.961 . S
H1687 C1671 0.961 . S
H1688 C1672 0.931 . S
H1689 C1677 0.930 1_655 S
H1690 C1678 0.956 . S
H1691 C1678 0.961 . S
H1692 C1678 0.961 . S
H1693 C1679 0.958 1_554 S
H1694 C1679 0.961 . S
H1695 C1679 0.960 . S
C1696 C1697 1.391 . S
C1696 C1698 1.394 . S
C1696 H1712 0.931 . S
C1697 C1696 1.391 . S
C1697 C1701 1.376 . S
C1698 C1696 1.394 . S
C1698 C1699 1.369 . S
C1698 C1702 1.531 . S
C1699 C1698 1.369 . S
C1699 C1700 1.410 . S
C1699 C1707 1.503 . S
C1700 C1699 1.410 . S
C1700 C1701 1.392 . S
C1700 C1703 1.511 . S
C1701 C1697 1.376 . S
C1701 C1700 1.392 . S
C1701 H1713 0.929 . S
C1702 C1698 1.531 . S
C1702 H1714 0.960 . S
C1702 H1715 0.962 . S
C1702 H1716 0.960 . S
C1703 C1700 1.511 . S
C1703 H1717 0.961 . S
C1703 H1718 0.961 . S
C1703 H1719 0.961 . S
C1704 C1705 1.370 . S
C1704 C1706 1.363 . S
C1704 H1720 0.931 . S
C1705 C1704 1.370 . S
C1705 C1709 1.408 . S
C1706 C1704 1.363 . S
C1706 C1707 1.370 . S
C1706 C1710 1.524 . S
C1707 C1699 1.503 . S
C1707 C1706 1.370 . S
C1707 C1708 1.403 . S
C1708 C1707 1.403 . S
C1708 C1709 1.404 . S
C1708 C1711 1.539 . S
C1709 C1705 1.408 . S
C1709 C1708 1.404 . S
C1709 H1721 0.930 . S
C1710 C1706 1.524 . S
C1710 H1722 0.956 . S
C1710 H1723 0.961 . S
C1710 H1724 0.961 . S
C1711 C1708 1.539 . S
C1711 H1725 0.958 . S
C1711 H1726 0.961 . S
C1711 H1727 0.960 . S
H1712 C1696 0.931 . S
H1713 C1701 0.929 . S
H1714 C1702 0.960 . S
H1715 C1702 0.962 . S
H1716 C1702 0.960 . S
H1717 C1703 0.961 . S
H1718 C1703 0.961 . S
H1719 C1703 0.961 . S
H1720 C1704 0.931 . S
H1721 C1709 0.930 . S
H1722 C1710 0.956 . S
H1723 C1710 0.961 . S
H1724 C1710 0.961 . S
H1725 C1711 0.958 . S
H1726 C1711 0.961 . S
H1727 C1711 0.960 . S
C1728 C1729 1.391 1_554 S
C1728 C1730 1.394 1_554 S
C1728 H1744 0.931 . S
C1729 C1728 1.391 1_556 S
C1729 C1733 1.376 . S
C1730 C1728 1.394 1_556 S
C1730 C1731 1.369 . S
C1730 C1734 1.531 1_556 S
C1731 C1730 1.369 . S
C1731 C1732 1.410 . S
C1731 C1739 1.503 . S
C1732 C1731 1.410 . S
C1732 C1733 1.392 . S
C1732 C1735 1.511 . S
C1733 C1729 1.376 . S
C1733 C1732 1.392 . S
C1733 H1745 0.929 . S
C1734 C1730 1.531 1_554 S
C1734 H1746 0.960 1_554 S
C1734 H1747 0.962 . S
C1734 H1748 0.960 . S
C1735 C1732 1.511 . S
C1735 H1749 0.961 . S
C1735 H1750 0.961 . S
C1735 H1751 0.961 . S
C1736 C1737 1.370 . S
C1736 C1738 1.363 . S
C1736 H1752 0.931 1_455 S
C1737 C1736 1.370 . S
C1737 C1741 1.408 . S
C1738 C1736 1.363 . S
C1738 C1739 1.370 . S
C1738 C1742 1.524 1_455 S
C1739 C1731 1.503 . S
C1739 C1738 1.370 . S
C1739 C1740 1.403 . S
C1740 C1739 1.403 . S
C1740 C1741 1.404 . S
C1740 C1743 1.539 . S
C1741 C1737 1.408 . S
C1741 C1740 1.404 . S
C1741 H1753 0.930 . S
C1742 C1738 1.524 1_655 S
C1742 H1754 0.956 . S
C1742 H1755 0.954 1_655 S
C1742 H1756 0.961 . S
C1743 C1740 1.539 . S
C1743 H1757 0.958 . S
C1743 H1758 0.961 . S
C1743 H1759 0.960 . S
H1744 C1728 0.931 . S
H1745 C1733 0.929 . S
H1746 C1734 0.960 1_556 S
H1747 C1734 0.962 . S
H1748 C1734 0.960 . S
H1749 C1735 0.961 . S
H1750 C1735 0.961 . S
H1751 C1735 0.961 . S
H1752 C1736 0.931 1_655 S
H1753 C1741 0.930 . S
H1754 C1742 0.956 . S
H1755 C1742 0.954 1_455 S
H1756 C1742 0.961 . S
H1757 C1743 0.958 . S
H1758 C1743 0.961 . S
H1759 C1743 0.960 . S
C1760 C1761 1.391 . S
C1760 C1762 1.394 . S
C1760 H1776 0.931 . S
C1761 C1760 1.391 . S
C1761 C1765 1.376 . S
C1762 C1760 1.394 . S
C1762 C1763 1.369 . S
C1762 C1766 1.531 . S
C1763 C1762 1.369 . S
C1763 C1764 1.410 . S
C1763 C1771 1.503 . S
C1764 C1763 1.410 . S
C1764 C1765 1.392 . S
C1764 C1767 1.511 . S
C1765 C1761 1.376 . S
C1765 C1764 1.392 . S
C1765 H1777 0.929 . S
C1766 C1762 1.531 . S
C1766 H1778 0.960 . S
C1766 H1779 0.962 . S
C1766 H1780 0.960 . S
C1767 C1764 1.511 . S
C1767 H1781 0.961 . S
C1767 H1782 0.961 . S
C1767 H1783 0.961 . S
C1768 C1769 1.370 . S
C1768 C1770 1.363 . S
C1768 H1784 0.931 . S
C1769 C1768 1.370 . S
C1769 C1773 1.408 . S
C1770 C1768 1.363 . S
C1770 C1771 1.370 . S
C1770 C1774 1.524 . S
C1771 C1763 1.503 . S
C1771 C1770 1.370 . S
C1771 C1772 1.403 . S
C1772 C1771 1.403 . S
C1772 C1773 1.404 . S
C1772 C1775 1.539 . S
C1773 C1769 1.408 . S
C1773 C1772 1.404 . S
C1773 H1785 0.930 . S
C1774 C1770 1.524 . S
C1774 H1786 0.956 . S
C1774 H1787 0.961 . S
C1774 H1788 0.961 . S
C1775 C1772 1.539 . S
C1775 H1789 0.958 . S
C1775 H1790 0.961 . S
C1775 H1791 0.960 . S
H1776 C1760 0.931 . S
H1777 C1765 0.929 . S
H1778 C1766 0.960 . S
H1779 C1766 0.962 . S
H1780 C1766 0.960 . S
H1781 C1767 0.961 . S
H1782 C1767 0.961 . S
H1783 C1767 0.961 . S
H1784 C1768 0.931 . S
H1785 C1773 0.930 . S
H1786 C1774 0.956 . S
H1787 C1774 0.961 . S
H1788 C1774 0.961 . S
H1789 C1775 0.958 . S
H1790 C1775 0.961 . S
H1791 C1775 0.960 . S
C1792 C1793 1.391 . S
C1792 C1794 1.394 . S
C1792 H1808 0.931 . S
C1793 C1792 1.391 . S
C1793 C1797 1.376 . S
C1794 C1792 1.394 . S
C1794 C1795 1.369 . S
C1794 C1798 1.531 . S
C1795 C1794 1.369 . S
C1795 C1796 1.410 . S
C1795 C1803 1.503 . S
C1796 C1795 1.410 . S
C1796 C1797 1.392 . S
C1796 C1799 1.511 . S
C1797 C1793 1.376 . S
C1797 C1796 1.392 . S
C1797 H1809 0.929 . S
C1798 C1794 1.531 . S
C1798 H1810 0.960 . S
C1798 H1811 0.962 . S
C1798 H1812 0.960 . S
C1799 C1796 1.511 . S
C1799 H1813 0.961 . S
C1799 H1814 0.961 . S
C1799 H1815 0.961 . S
C1800 C1801 1.370 . S
C1800 C1802 1.363 . S
C1800 H1816 0.931 . S
C1801 C1800 1.370 . S
C1801 C1805 1.408 . S
C1802 C1800 1.363 . S
C1802 C1803 1.370 . S
C1802 C1806 1.524 . S
C1803 C1795 1.503 . S
C1803 C1802 1.370 . S
C1803 C1804 1.403 . S
C1804 C1803 1.403 . S
C1804 C1805 1.404 . S
C1804 C1807 1.539 . S
C1805 C1801 1.408 . S
C1805 C1804 1.404 . S
C1805 H1817 0.930 . S
C1806 C1802 1.524 . S
C1806 H1818 0.956 . S
C1806 H1819 0.961 . S
C1806 H1820 0.961 . S
C1807 C1804 1.539 . S
C1807 H1821 0.958 . S
C1807 H1822 0.961 . S
C1807 H1823 0.960 . S
H1808 C1792 0.931 . S
H1809 C1797 0.929 . S
H1810 C1798 0.960 . S
H1811 C1798 0.962 . S
H1812 C1798 0.960 . S
H1813 C1799 0.961 . S
H1814 C1799 0.961 . S
H1815 C1799 0.961 . S
H1816 C1800 0.931 . S
H1817 C1805 0.930 . S
H1818 C1806 0.956 . S
H1819 C1806 0.961 . S
H1820 C1806 0.961 . S
H1821 C1807 0.958 . S
H1822 C1807 0.961 . S
H1823 C1807 0.960 . S
C1824 C1825 1.391 . S
C1824 C1826 1.394 . S
C1824 H1840 0.931 . S
C1825 C1824 1.391 . S
C1825 C1829 1.376 . S
C1826 C1824 1.394 . S
C1826 C1827 1.369 . S
C1826 C1830 1.531 . S
C1827 C1826 1.369 . S
C1827 C1828 1.410 . S
C1827 C1835 1.503 . S
C1828 C1827 1.410 . S
C1828 C1829 1.392 . S
C1828 C1831 1.511 . S
C1829 C1825 1.376 . S
C1829 C1828 1.392 . S
C1829 H1841 0.929 . S
C1830 C1826 1.531 . S
C1830 H1842 0.960 . S
C1830 H1843 0.962 . S
C1830 H1844 0.960 . S
C1831 C1828 1.511 . S
C1831 H1845 0.961 . S
C1831 H1846 0.961 . S
C1831 H1847 0.961 . S
C1832 C1833 1.370 . S
C1832 C1834 1.363 . S
C1832 H1848 0.931 . S
C1833 C1832 1.370 . S
C1833 C1837 1.408 . S
C1834 C1832 1.363 . S
C1834 C1835 1.370 . S
C1834 C1838 1.524 . S
C1835 C1827 1.503 . S
C1835 C1834 1.370 . S
C1835 C1836 1.403 . S
C1836 C1835 1.403 . S
C1836 C1837 1.404 . S
C1836 C1839 1.539 . S
C1837 C1833 1.408 . S
C1837 C1836 1.404 . S
C1837 H1849 0.930 . S
C1838 C1834 1.524 . S
C1838 H1850 0.956 . S
C1838 H1851 0.961 . S
C1838 H1852 0.961 . S
C1839 C1836 1.539 . S
C1839 H1853 0.958 . S
C1839 H1854 0.961 . S
C1839 H1855 0.960 . S
H1840 C1824 0.931 . S
H1841 C1829 0.929 . S
H1842 C1830 0.960 . S
H1843 C1830 0.962 . S
H1844 C1830 0.960 . S
H1845 C1831 0.961 . S
H1846 C1831 0.961 . S
H1847 C1831 0.961 . S
H1848 C1832 0.931 . S
H1849 C1837 0.930 . S
H1850 C1838 0.956 . S
H1851 C1838 0.961 . S
H1852 C1838 0.961 . S
H1853 C1839 0.958 . S
H1854 C1839 0.961 . S
H1855 C1839 0.960 . S
C1856 C1857 1.391 . S
C1856 C1858 1.394 . S
C1856 H1872 0.931 1_554 S
C1857 C1856 1.391 . S
C1857 C1861 1.376 . S
C1858 C1856 1.394 . S
C1858 C1859 1.369 . S
C1858 C1862 1.531 . S
C1859 C1858 1.369 . S
C1859 C1860 1.410 . S
C1859 C1867 1.503 . S
C1860 C1859 1.410 . S
C1860 C1861 1.392 . S
C1860 C1863 1.511 . S
C1861 C1857 1.376 . S
C1861 C1860 1.392 . S
C1861 H1873 0.929 . S
C1862 C1858 1.531 . S
C1862 H1874 0.960 . S
C1862 H1875 0.962 . S
C1862 H1876 0.960 . S
C1863 C1860 1.511 . S
C1863 H1877 0.961 . S
C1863 H1878 0.961 . S
C1863 H1879 0.961 . S
C1864 C1865 1.370 . S
C1864 C1866 1.363 . S
C1864 H1880 0.931 . S
C1865 C1864 1.370 . S
C1865 C1869 1.408 . S
C1866 C1864 1.363 . S
C1866 C1867 1.370 . S
C1866 C1870 1.524 . S
C1867 C1859 1.503 . S
C1867 C1866 1.370 . S
C1867 C1868 1.403 . S
C1868 C1867 1.403 . S
C1868 C1869 1.404 . S
C1868 C1871 1.539 . S
C1869 C1865 1.408 . S
C1869 C1868 1.404 . S
C1869 H1881 0.930 . S
C1870 C1866 1.524 . S
C1870 H1882 0.956 . S
C1870 H1883 0.961 . S
C1870 H1884 0.961 . S
C1871 C1868 1.539 . S
C1871 H1885 0.958 . S
C1871 H1886 0.961 . S
C1871 H1887 0.960 . S
H1872 C1856 0.931 1_556 S
H1873 C1861 0.929 . S
H1874 C1862 0.960 . S
H1875 C1862 0.962 . S
H1876 C1862 0.960 . S
H1877 C1863 0.961 . S
H1878 C1863 0.961 . S
H1879 C1863 0.961 . S
H1880 C1864 0.931 . S
H1881 C1869 0.930 . S
H1882 C1870 0.956 . S
H1883 C1870 0.961 . S
H1884 C1870 0.961 . S
H1885 C1871 0.958 . S
H1886 C1871 0.961 . S
H1887 C1871 0.960 . S
C1888 C1889 1.391 . S
C1888 C1890 1.394 . S
C1888 H1904 0.931 . S
C1889 C1888 1.391 . S
C1889 C1893 1.376 . S
C1890 C1888 1.394 . S
C1890 C1891 1.369 . S
C1890 C1894 1.531 . S
C1891 C1890 1.369 . S
C1891 C1892 1.410 . S
C1891 C1899 1.503 . S
C1892 C1891 1.410 . S
C1892 C1893 1.392 . S
C1892 C1895 1.511 . S
C1893 C1889 1.376 . S
C1893 C1892 1.392 . S
C1893 H1905 0.929 . S
C1894 C1890 1.531 . S
C1894 H1906 0.960 . S
C1894 H1907 0.962 . S
C1894 H1908 0.960 . S
C1895 C1892 1.511 . S
C1895 H1909 0.961 . S
C1895 H1910 0.961 . S
C1895 H1911 0.961 . S
C1896 C1897 1.370 . S
C1896 C1898 1.363 . S
C1896 H1912 0.931 . S
C1897 C1896 1.370 . S
C1897 C1901 1.408 . S
C1898 C1896 1.363 . S
C1898 C1899 1.370 . S
C1898 C1902 1.524 . S
C1899 C1891 1.503 . S
C1899 C1898 1.370 . S
C1899 C1900 1.403 . S
C1900 C1899 1.403 . S
C1900 C1901 1.404 . S
C1900 C1903 1.539 . S
C1901 C1897 1.408 . S
C1901 C1900 1.404 . S
C1901 H1913 0.930 . S
C1902 C1898 1.524 . S
C1902 H1914 0.956 . S
C1902 H1915 0.961 . S
C1902 H1916 0.961 . S
C1903 C1900 1.539 . S
C1903 H1917 0.958 . S
C1903 H1918 0.961 . S
C1903 H1919 0.960 . S
H1904 C1888 0.931 . S
H1905 C1893 0.929 . S
H1906 C1894 0.960 . S
H1907 C1894 0.962 . S
H1908 C1894 0.960 . S
H1909 C1895 0.961 . S
H1910 C1895 0.961 . S
H1911 C1895 0.961 . S
H1912 C1896 0.931 . S
H1913 C1901 0.930 . S
H1914 C1902 0.956 . S
H1915 C1902 0.961 . S
H1916 C1902 0.961 . S
H1917 C1903 0.958 . S
H1918 C1903 0.961 . S
H1919 C1903 0.960 . S
C1920 C1921 1.391 . S
C1920 C1922 1.394 . S
C1920 H1936 0.931 . S
C1921 C1920 1.391 . S
C1921 C1925 1.376 . S
C1922 C1920 1.394 . S
C1922 C1923 1.369 . S
C1922 C1926 1.531 . S
C1923 C1922 1.369 . S
C1923 C1924 1.410 . S
C1923 C1931 1.503 . S
C1924 C1923 1.410 . S
C1924 C1925 1.392 . S
C1924 C1927 1.511 . S
C1925 C1921 1.376 . S
C1925 C1924 1.392 . S
C1925 H1937 0.929 . S
C1926 C1922 1.531 . S
C1926 H1938 0.960 . S
C1926 H1939 0.962 . S
C1926 H1940 0.960 . S
C1927 C1924 1.511 . S
C1927 H1941 0.961 . S
C1927 H1942 0.961 . S
C1927 H1943 0.961 . S
C1928 C1929 1.370 . S
C1928 C1930 1.363 . S
C1928 H1944 0.931 . S
C1929 C1928 1.370 . S
C1929 C1933 1.408 . S
C1930 C1928 1.363 . S
C1930 C1931 1.370 . S
C1930 C1934 1.524 . S
C1931 C1923 1.503 . S
C1931 C1930 1.370 . S
C1931 C1932 1.403 . S
C1932 C1931 1.403 . S
C1932 C1933 1.404 . S
C1932 C1935 1.539 . S
C1933 C1929 1.408 . S
C1933 C1932 1.404 . S
C1933 H1945 0.930 . S
C1934 C1930 1.524 . S
C1934 H1946 0.956 . S
C1934 H1947 0.961 . S
C1934 H1948 0.961 . S
C1935 C1932 1.539 . S
C1935 H1949 0.958 . S
C1935 H1950 0.961 . S
C1935 H1951 0.960 . S
H1936 C1920 0.931 . S
H1937 C1925 0.929 . S
H1938 C1926 0.960 . S
H1939 C1926 0.962 . S
H1940 C1926 0.960 . S
H1941 C1927 0.961 . S
H1942 C1927 0.961 . S
H1943 C1927 0.961 . S
H1944 C1928 0.931 . S
H1945 C1933 0.930 . S
H1946 C1934 0.956 . S
H1947 C1934 0.961 . S
H1948 C1934 0.961 . S
H1949 C1935 0.958 . S
H1950 C1935 0.961 . S
H1951 C1935 0.960 . S
C1952 C1953 1.391 . S
C1952 C1954 1.394 . S
C1952 H1968 0.931 . S
C1953 C1952 1.391 . S
C1953 C1957 1.376 . S
C1954 C1952 1.394 . S
C1954 C1955 1.369 . S
C1954 C1958 1.531 . S
C1955 C1954 1.369 . S
C1955 C1956 1.410 . S
C1955 C1963 1.503 . S
C1956 C1955 1.410 . S
C1956 C1957 1.392 . S
C1956 C1959 1.511 . S
C1957 C1953 1.376 . S
C1957 C1956 1.392 . S
C1957 H1969 0.929 . S
C1958 C1954 1.531 . S
C1958 H1970 0.960 . S
C1958 H1971 0.962 . S
C1958 H1972 0.960 . S
C1959 C1956 1.511 . S
C1959 H1973 0.961 . S
C1959 H1974 0.961 . S
C1959 H1975 0.961 . S
C1960 C1961 1.370 . S
C1960 C1962 1.363 . S
C1960 H1976 0.931 . S
C1961 C1960 1.370 . S
C1961 C1965 1.408 . S
C1962 C1960 1.363 . S
C1962 C1963 1.370 . S
C1962 C1966 1.524 . S
C1963 C1955 1.503 . S
C1963 C1962 1.370 . S
C1963 C1964 1.403 . S
C1964 C1963 1.403 . S
C1964 C1965 1.404 . S
C1964 C1967 1.539 . S
C1965 C1961 1.408 . S
C1965 C1964 1.404 . S
C1965 H1977 0.930 . S
C1966 C1962 1.524 . S
C1966 H1978 0.956 . S
C1966 H1979 0.961 . S
C1966 H1980 0.961 . S
C1967 C1964 1.539 . S
C1967 H1981 0.958 . S
C1967 H1982 0.961 . S
C1967 H1983 0.960 . S
H1968 C1952 0.931 . S
H1969 C1957 0.929 . S
H1970 C1958 0.960 . S
H1971 C1958 0.962 . S
H1972 C1958 0.960 . S
H1973 C1959 0.961 . S
H1974 C1959 0.961 . S
H1975 C1959 0.961 . S
H1976 C1960 0.931 . S
H1977 C1965 0.930 . S
H1978 C1966 0.956 . S
H1979 C1966 0.961 . S
H1980 C1966 0.961 . S
H1981 C1967 0.958 . S
H1982 C1967 0.961 . S
H1983 C1967 0.960 . S
C1984 C1985 1.391 . S
C1984 C1986 1.394 . S
C1984 H2000 0.931 . S
C1985 C1984 1.391 . S
C1985 C1989 1.376 . S
C1986 C1984 1.394 . S
C1986 C1987 1.369 . S
C1986 C1990 1.531 . S
C1987 C1986 1.369 . S
C1987 C1988 1.410 . S
C1987 C1995 1.503 . S
C1988 C1987 1.410 . S
C1988 C1989 1.392 . S
C1988 C1991 1.511 . S
C1989 C1985 1.376 . S
C1989 C1988 1.392 . S
C1989 H2001 0.929 . S
C1990 C1986 1.531 . S
C1990 H2002 0.960 . S
C1990 H2003 0.962 . S
C1990 H2004 0.960 . S
C1991 C1988 1.511 . S
C1991 H2005 0.961 . S
C1991 H2006 0.961 . S
C1991 H2007 0.961 . S
C1992 C1993 1.370 . S
C1992 C1994 1.363 . S
C1992 H2008 0.931 . S
C1993 C1992 1.370 . S
C1993 C1997 1.408 . S
C1994 C1992 1.363 . S
C1994 C1995 1.370 . S
C1994 C1998 1.524 . S
C1995 C1987 1.503 . S
C1995 C1994 1.370 . S
C1995 C1996 1.403 . S
C1996 C1995 1.403 . S
C1996 C1997 1.404 . S
C1996 C1999 1.539 . S
C1997 C1993 1.408 . S
C1997 C1996 1.404 . S
C1997 H2009 0.930 . S
C1998 C1994 1.524 . S
C1998 H2010 0.956 . S
C1998 H2011 0.961 . S
C1998 H2012 0.961 . S
C1999 C1996 1.539 . S
C1999 H2013 0.958 . S
C1999 H2014 0.961 . S
C1999 H2015 0.960 . S
H2000 C1984 0.931 . S
H2001 C1989 0.929 . S
H2002 C1990 0.960 . S
H2003 C1990 0.962 . S
H2004 C1990 0.960 . S
H2005 C1991 0.961 . S
H2006 C1991 0.961 . S
H2007 C1991 0.961 . S
H2008 C1992 0.931 . S
H2009 C1997 0.930 . S
H2010 C1998 0.956 . S
H2011 C1998 0.961 . S
H2012 C1998 0.961 . S
H2013 C1999 0.958 . S
H2014 C1999 0.961 . S
H2015 C1999 0.960 . S
C2016 C2017 1.391 1_554 S
C2016 C2018 1.394 . S
C2016 H2032 0.931 . S
C2017 C2016 1.391 1_556 S
C2017 C2021 1.376 . S
C2018 C2016 1.394 . S
C2018 C2019 1.356 1_554 S
C2018 C2022 1.531 . S
C2019 C2018 1.356 1_556 S
C2019 C2020 1.421 . S
C2019 C2027 1.511 . S
C2020 C2019 1.421 . S
C2020 C2021 1.392 . S
C2020 C2023 1.511 . S
C2021 C2017 1.376 . S
C2021 C2020 1.392 . S
C2021 H2033 0.929 . S
C2022 C2018 1.531 . S
C2022 H2034 0.960 . S
C2022 H2035 0.962 . S
C2022 H2036 0.960 . S
C2023 C2020 1.511 . S
C2023 H2037 0.961 . S
C2023 H2038 0.961 . S
C2023 H2039 0.961 . S
C2024 C2025 1.370 . S
C2024 C2026 1.363 . S
C2024 H2040 0.931 . S
C2025 C2024 1.370 . S
C2025 C2029 1.408 1_556 S
C2026 C2024 1.363 . S
C2026 C2027 1.370 . S
C2026 C2030 1.524 . S
C2027 C2019 1.511 . S
C2027 C2026 1.370 . S
C2027 C2028 1.403 1_556 S
C2028 C2027 1.403 1_554 S
C2028 C2029 1.404 . S
C2028 C2031 1.539 . S
C2029 C2025 1.408 1_554 S
C2029 C2028 1.404 . S
C2029 H2041 0.930 . S
C2030 C2026 1.524 . S
C2030 H2042 0.956 . S
C2030 H2043 0.961 . S
C2030 H2044 0.961 . S
C2031 C2028 1.539 . S
C2031 H2045 0.958 . S
C2031 H2046 0.961 . S
C2031 H2047 0.960 . S
H2032 C2016 0.931 . S
H2033 C2021 0.929 . S
H2034 C2022 0.960 . S
H2035 C2022 0.962 . S
H2036 C2022 0.960 . S
H2037 C2023 0.961 . S
H2038 C2023 0.961 . S
H2039 C2023 0.961 . S
H2040 C2024 0.931 . S
H2041 C2029 0.930 . S
H2042 C2030 0.956 . S
H2043 C2030 0.961 . S
H2044 C2030 0.961 . S
H2045 C2031 0.958 . S
H2046 C2031 0.961 . S
H2047 C2031 0.960 . S
C2048 C2049 1.391 . S
C2048 C2050 1.394 . S
C2048 H2064 0.931 . S
C2049 C2048 1.391 . S
C2049 C2053 1.376 . S
C2050 C2048 1.394 . S
C2050 C2051 1.369 . S
C2050 C2054 1.531 . S
C2051 C2050 1.369 . S
C2051 C2052 1.410 . S
C2051 C2059 1.503 . S
C2052 C2051 1.410 . S
C2052 C2053 1.392 . S
C2052 C2055 1.511 . S
C2053 C2049 1.376 . S
C2053 C2052 1.392 . S
C2053 H2065 0.929 . S
C2054 C2050 1.531 . S
C2054 H2066 0.960 . S
C2054 H2067 0.962 . S
C2054 H2068 0.960 . S
C2055 C2052 1.511 . S
C2055 H2069 0.961 . S
C2055 H2070 0.961 . S
C2055 H2071 0.961 . S
C2056 C2057 1.370 . S
C2056 C2058 1.363 . S
C2056 H2072 0.931 . S
C2057 C2056 1.370 . S
C2057 C2061 1.408 . S
C2058 C2056 1.363 . S
C2058 C2059 1.370 . S
C2058 C2062 1.524 . S
C2059 C2051 1.503 . S
C2059 C2058 1.370 . S
C2059 C2060 1.403 . S
C2060 C2059 1.403 . S
C2060 C2061 1.404 . S
C2060 C2063 1.539 . S
C2061 C2057 1.408 . S
C2061 C2060 1.404 . S
C2061 H2073 0.930 . S
C2062 C2058 1.524 . S
C2062 H2074 0.956 . S
C2062 H2075 0.961 . S
C2062 H2076 0.961 . S
C2063 C2060 1.539 . S
C2063 H2077 0.958 . S
C2063 H2078 0.961 . S
C2063 H2079 0.960 . S
H2064 C2048 0.931 . S
H2065 C2053 0.929 . S
H2066 C2054 0.960 . S
H2067 C2054 0.962 . S
H2068 C2054 0.960 . S
H2069 C2055 0.961 . S
H2070 C2055 0.961 . S
H2071 C2055 0.961 . S
H2072 C2056 0.931 . S
H2073 C2061 0.930 . S
H2074 C2062 0.956 . S
H2075 C2062 0.961 . S
H2076 C2062 0.961 . S
H2077 C2063 0.958 . S
H2078 C2063 0.961 . S
H2079 C2063 0.960 . S
C2080 C2081 1.391 . S
C2080 C2082 1.394 . S
C2080 H2096 0.931 . S
C2081 C2080 1.391 . S
C2081 C2085 1.376 . S
C2082 C2080 1.394 . S
C2082 C2083 1.369 . S
C2082 C2086 1.548 . S
C2083 C2082 1.369 . S
C2083 C2084 1.410 . S
C2083 C2091 1.503 . S
C2084 C2083 1.410 . S
C2084 C2085 1.392 . S
C2084 C2087 1.511 . S
C2085 C2081 1.376 . S
C2085 C2084 1.392 . S
C2085 H2097 0.929 . S
C2086 C2082 1.548 . S
C2086 H2098 0.938 1_554 S
C2086 H2099 0.984 . S
C2086 H2100 0.945 1_554 S
C2087 C2084 1.511 . S
C2087 H2101 0.961 . S
C2087 H2102 0.961 . S
C2087 H2103 0.961 . S
C2088 C2089 1.370 . S
C2088 C2090 1.363 . S
C2088 H2104 0.931 . S
C2089 C2088 1.370 . S
C2089 C2093 1.408 1_554 S
C2090 C2088 1.363 . S
C2090 C2091 1.370 . S
C2090 C2094 1.524 . S
C2091 C2083 1.503 . S
C2091 C2090 1.370 . S
C2091 C2092 1.403 1_554 S
C2092 C2091 1.403 1_556 S
C2092 C2093 1.404 . S
C2092 C2095 1.539 . S
C2093 C2089 1.408 1_556 S
C2093 C2092 1.404 . S
C2093 H2105 0.930 . S
C2094 C2090 1.524 . S
C2094 H2106 0.956 . S
C2094 H2107 0.961 . S
C2094 H2108 0.961 . S
C2095 C2092 1.539 . S
C2095 H2109 0.958 . S
C2095 H2110 0.961 . S
C2095 H2111 0.960 . S
H2096 C2080 0.931 . S
H2097 C2085 0.929 . S
H2098 C2086 0.938 1_556 S
H2099 C2086 0.984 . S
H2100 C2086 0.945 1_556 S
H2101 C2087 0.961 . S
H2102 C2087 0.961 . S
H2103 C2087 0.961 . S
H2104 C2088 0.931 . S
H2105 C2093 0.930 . S
H2106 C2094 0.956 . S
H2107 C2094 0.961 . S
H2108 C2094 0.961 . S
H2109 C2095 0.958 . S
H2110 C2095 0.961 . S
H2111 C2095 0.960 . S
C2112 C2113 1.391 . S
C2112 C2114 1.394 . S
C2112 H2128 0.931 . S
C2113 C2112 1.391 . S
C2113 C2117 1.376 1_545 S
C2114 C2112 1.394 . S
C2114 C2115 1.369 1_545 S
C2114 C2118 1.531 . S
C2115 C2114 1.369 1_565 S
C2115 C2116 1.410 . S
C2115 C2123 1.503 . S
C2116 C2115 1.410 . S
C2116 C2117 1.392 . S
C2116 C2119 1.511 . S
C2117 C2113 1.376 1_565 S
C2117 C2116 1.392 . S
C2117 H2129 0.929 . S
C2118 C2114 1.531 . S
C2118 H2130 0.960 . S
C2118 H2131 0.962 . S
C2118 H2132 0.960 . S
C2119 C2116 1.511 . S
C2119 H2133 0.961 . S
C2119 H2134 0.961 . S
C2119 H2135 0.961 . S
C2120 C2121 1.370 . S
C2120 C2122 1.363 . S
C2120 H2136 0.931 . S
C2121 C2120 1.370 . S
C2121 C2125 1.408 . S
C2122 C2120 1.363 . S
C2122 C2123 1.370 . S
C2122 C2126 1.524 . S
C2123 C2115 1.503 . S
C2123 C2122 1.370 . S
C2123 C2124 1.403 . S
C2124 C2123 1.403 . S
C2124 C2125 1.404 . S
C2124 C2127 1.539 . S
C2125 C2121 1.408 . S
C2125 C2124 1.404 . S
C2125 H2137 0.930 . S
C2126 C2122 1.524 . S
C2126 H2138 0.956 . S
C2126 H2139 0.961 . S
C2126 H2140 0.961 1_554 S
C2127 C2124 1.539 . S
C2127 H2141 0.958 1_565 S
C2127 H2142 0.961 . S
C2127 H2143 0.960 . S
H2128 C2112 0.931 . S
H2129 C2117 0.929 . S
H2130 C2118 0.960 . S
H2131 C2118 0.962 . S
H2132 C2118 0.960 . S
H2133 C2119 0.961 . S
H2134 C2119 0.961 . S
H2135 C2119 0.961 . S
H2136 C2120 0.931 . S
H2137 C2125 0.930 . S
H2138 C2126 0.956 . S
H2139 C2126 0.961 . S
H2140 C2126 0.961 1_556 S
H2141 C2127 0.958 1_545 S
H2142 C2127 0.961 . S
H2143 C2127 0.960 . S
C617 C178 1.526 1_556 S
C609 C60 1.506 . S
C649 C226 1.416 . S
C641 C76 1.454 . S
C673 C81 1.550 . S
C681 C262 1.503 . S
C713 C298 1.625 . S
C705 C48 1.705 . S
C745 C324 1.437 . S
C737 C115 1.427 . S
C777 C360 1.698 . S
C769 C136 1.711 . S
C801 C131 1.402 . S
C809 C395 1.401 . S
C841 C432 1.542 . S
C833 C104 1.559 . S
C865 C126 1.449 . S
C873 C466 1.461 . S
C905 C514 1.471 . S
C897 C103 1.513 . S
C929 C120 1.364 . S
C937 C467 1.365 . S
C969 C504 1.559 . S
C961 C142 1.548 . S
C993 C82 1.386 . S
C1001 C550 1.326 . S
C1025 C54 1.855 . S
C1033 C539 1.854 . S
C1057 C65 1.434 . S
C1065 C540 1.459 . S
C1089 C71 1.368 . S
C1097 C538 1.375 . S
C1121 C37 1.480 . S
C1129 C286 1.487 . S
C1153 C158 1.889 . S
C1161 C287 1.904 . S
C1193 C190 1.489 . S
C1185 C169 1.542 . S
C1225 C215 1.193 . S
C1217 C98 1.185 . S
C1249 C49 1.804 1_545 S
C1257 C322 1.792 . S
C1289 C430 1.421 . S
C1281 C125 1.412 . S
C1321 C323 1.430 . S
C1313 C109 1.434 . S
C1353 C396 1.853 . S
C1345 C137 1.845 . S
C1385 C394 1.519 . S
C1377 C159 1.515 . S
C1409 C175 1.439 . S
C1417 C442 1.401 . S
C1441 C92 1.550 . S
C1449 C334 1.504 . S
C1481 C370 1.635 . S
C1473 C147 1.701 . S
C1505 C38 1.412 . S
C1513 C252 1.443 . S
C1545 C288 1.702 . S
C1537 C4 1.708 . S
C1577 C179 1.409 . S
C1569 C21 1.371 . S
C1609 C216 1.546 . S
C1601 C27 1.559 . S
C1633 C16 1.442 . S
C1641 C502 1.463 . S
C1665 C26 1.502 1_455 S
C1673 C478 1.471 . S
C1697 C43 1.366 . S
C1705 C503 1.364 . S
C1729 C10 1.549 1_556 S
C1737 C468 1.559 . S
C1769 C586 1.353 . S
C1761 C93 1.396 . S
C1801 C575 1.855 . S
C1793 C153 1.848 . S
C1833 C576 1.451 . S
C1825 C164 1.461 . S
C1857 C170 1.366 1_554 S
C1865 C574 1.376 . S
C1889 C114 1.500 . S
C1897 C358 1.478 . S
C1929 C359 1.897 . S
C1921 C59 1.885 . S
C1961 C406 1.479 . S
C1953 C70 1.558 . S
C1993 C431 1.193 . S
C1985 C87 1.184 . S
C2017 C148 1.806 . S
C2025 C250 1.792 1_556 S
C2057 C214 1.413 . S
C2049 C15 1.414 . S
C2081 C32 1.441 . S
C2089 C251 1.443 . S
C2121 C180 1.856 . S
C2113 C5 1.846 . S
