# Generated by pormake.
# Topology ftw, (4,12)-cn, num edge types: 1
# Building blocks:
#     Node 0, Type 0, BuildingBlock: MUDLON_clean_linker_0, # of connection points: 4
#     Node 1, Type 0, BuildingBlock: MUDLON_clean_linker_0, # of connection points: 4
#     Node 2, Type 0, BuildingBlock: MUDLON_clean_linker_0, # of connection points: 4
#     Node 3, Type 1, BuildingBlock: QEWDON_clean_sbu_0, # of connection points: 12
#     Edge 4, Type (0, 1), BuildingBlock: AJUNOK_clean_linker_0, # of connection points: 2
#     Edge 5, Type (0, 1), BuildingBlock: AJUNOK_clean_linker_0, # of connection points: 2
#     Edge 6, Type (0, 1), BuildingBlock: AJUNOK_clean_linker_0, # of connection points: 2
#     Edge 7, Type (0, 1), BuildingBlock: AJUNOK_clean_linker_0, # of connection points: 2
#     Edge 8, Type (0, 1), BuildingBlock: AJUNOK_clean_linker_0, # of connection points: 2
#     Edge 9, Type (0, 1), BuildingBlock: AJUNOK_clean_linker_0, # of connection points: 2
#     Edge 10, Type (0, 1), BuildingBlock: AJUNOK_clean_linker_0, # of connection points: 2
#     Edge 11, Type (0, 1), BuildingBlock: AJUNOK_clean_linker_0, # of connection points: 2
#     Edge 12, Type (0, 1), BuildingBlock: AJUNOK_clean_linker_0, # of connection points: 2
#     Edge 13, Type (0, 1), BuildingBlock: AJUNOK_clean_linker_0, # of connection points: 2
#     Edge 14, Type (0, 1), BuildingBlock: AJUNOK_clean_linker_0, # of connection points: 2
#     Edge 15, Type (0, 1), BuildingBlock: AJUNOK_clean_linker_0, # of connection points: 2
# Relax obj value: 0.102
# Max RMSD: 0.248
# Mean RMSD: 0.184
data_MOF--net-ftw--node1-QEWDON_clean_sbu_0--node2-MUDLON_clean_linker_0--edge1-AJUNOK_clean_linker_0
_symmetry_space_group_name_H-M    P1
_symmetry_Int_Tables_number       1
_symmetry_cell_setting            triclinic
loop_
_symmetry_equiv_pos_as_xyz
'x, y, z'
_cell_length_a     23.790686
_cell_length_b     27.69091
_cell_length_c     25.268961
_cell_angle_alpha  90.789325
_cell_angle_beta   90.317377
_cell_angle_gamma 89.415595
loop_
_atom_site_label
_atom_site_type_symbol
_atom_site_fract_x
_atom_site_fract_y
_atom_site_fract_z
_atom_type_partial_charge
H0 H 0.92406 0.71807 0.59772 0.0
N1 N -0.00461 0.65857 0.54894 0.0
H2 H 0.93821 0.76176 0.68174 0.0
H3 H 0.09046 0.65643 0.60964 0.0
H4 H 0.10516 0.70011 0.69407 0.0
H5 H 0.09201 0.70106 0.5164 0.0
H6 H 0.10283 0.75065 0.43726 0.0
H7 H 0.91944 0.67455 0.47391 0.0
H8 H 0.93027 0.72221 0.39381 0.0
H9 H 0.92369 0.59659 0.58936 0.0
H10 H 0.08111 0.60403 0.50693 0.0
H11 H 0.92933 0.50869 0.58769 0.0
H12 H 0.08561 0.51592 0.50128 0.0
H13 H 0.9181 0.27054 0.58201 0.0
H14 H 0.90747 0.22684 0.66562 0.0
H15 H 0.08798 0.22358 0.68484 0.0
H16 H 0.09791 0.26643 0.60123 0.0
H17 H 0.09264 0.23925 0.48973 0.0
H18 H 0.08165 0.19172 0.40789 0.0
H19 H 0.91237 0.2478 0.39083 0.0
H20 H 0.92244 0.29183 0.47451 0.0
H21 H 0.92255 0.35298 0.53667 0.0
H22 H 0.91895 0.44088 0.53641 0.0
H23 H 0.10073 0.44421 0.54424 0.0
N24 N 0.01666 0.2961 0.53669 0.0
H25 H 0.1033 0.356 0.53967 0.0
C26 C 0.00584 0.6838 0.59806 0.0
C27 C 0.96359 0.71401 0.61872 0.0
C28 C 0.97181 0.73894 0.66645 0.0
C29 C 0.02248 0.73383 0.69463 0.0
C30 C 0.06529 0.70394 0.67356 0.0
C31 C 0.05712 0.6792 0.62541 0.0
C32 C 0.00461 0.68465 0.50098 0.0
C33 C 0.05665 0.70567 0.48976 0.0
C34 C 0.06276 0.73383 0.44455 0.0
C35 C 0.01702 0.74121 0.40992 0.0
C36 C 0.96576 0.71853 0.42052 0.0
C37 C 0.95962 0.69084 0.4658 0.0
C38 C 0.00149 0.60675 0.54795 0.0
C39 C 0.9593 0.57898 0.57047 0.0
C40 C 0.96239 0.52859 0.56879 0.0
C41 C 0.00752 0.50449 0.54358 0.0
C42 C 0.0504 0.53272 0.52155 0.0
C43 C 0.04774 0.58332 0.52425 0.0
C44 C 0.00888 0.27142 0.58571 0.0
C45 C 0.95516 0.26032 0.60441 0.0
C46 C 0.94924 0.23549 0.65208 0.0
C47 C -0.00303 0.22117 0.68142 0.0
C48 C 0.0505 0.23307 0.66263 0.0
C49 C 0.05629 0.25782 0.6152 0.0
C50 C 0.00876 0.26943 0.48796 0.0
C51 C 0.05311 0.24089 0.46833 0.0
C52 C 0.0468 0.21402 0.42144 0.0
C53 C -0.00404 0.21549 0.39278 0.0
C54 C 0.95161 0.24461 0.41244 0.0
C55 C 0.95762 0.27064 0.46001 0.0
C56 C 0.01334 0.34803 0.53698 0.0
C57 C 0.96156 0.37267 0.53704 0.0
C58 C 0.9597 0.42323 0.53793 0.0
C59 C 0.0096 0.45038 0.54054 0.0
C60 C 0.06135 0.42514 0.5411 0.0
C61 C 0.06305 0.37462 0.53896 0.0
H62 H 0.48046 0.92787 0.2892 0.0
N63 N 0.50043 0.0119 0.34518 0.0
H64 H 0.39028 0.90376 0.24881 0.0
H65 H 0.4025 0.05803 0.35036 0.0
H66 H 0.31263 0.03391 0.31127 0.0
H67 H 0.53329 0.07481 0.2732 0.0
H68 H 0.62223 0.07458 0.22447 0.0
H69 H 0.58055 0.9406 0.34614 0.0
H70 H 0.67018 0.94073 0.2985 0.0
H71 H 0.46835 0.93539 0.40549 0.0
H72 H 0.55198 0.07265 0.41125 0.0
H73 H 0.47926 0.92816 0.50078 0.0
H74 H 0.56808 0.06391 0.50592 0.0
H75 H 0.48071 0.90825 0.78309 0.0
H76 H 0.39014 0.91703 0.82878 0.0
H77 H 0.39006 0.06994 0.79776 0.0
H78 H 0.47993 0.06107 0.75277 0.0
H79 H 0.56928 0.06019 0.79273 0.0
H80 H 0.65586 0.07274 0.84431 0.0
H81 H 0.71513 0.93104 0.79684 0.0
H82 H 0.62771 0.91782 0.74706 0.0
H83 H 0.5418 0.90623 0.66675 0.0
H84 H 0.537 0.91284 0.57066 0.0
H85 H 0.52883 0.06865 0.58747 0.0
N86 N 0.54029 0.97721 0.73825 0.0
H87 H 0.53974 0.06111 0.68283 0.0
C88 C 0.44824 -0.00469 0.32213 0.0
C89 C 0.44399 0.95114 0.2941 0.0
C90 C 0.39247 0.93724 0.27136 0.0
C91 C 0.34426 0.9666 0.27757 0.0
C92 C 0.34867 0.01 0.30674 0.0
C93 C 0.40002 0.02412 0.32863 0.0
C94 C 0.55042 0.00794 0.31326 0.0
C95 C 0.56272 0.0451 0.27819 0.0
C96 C 0.61355 0.04504 0.25061 0.0
C97 C 0.6534 0.00797 0.25811 0.0
C98 C 0.6405 0.97009 0.29246 0.0
C99 C 0.58924 0.96979 0.31941 0.0
C100 C 0.50835 0.00522 0.40134 0.0
C101 C 0.48948 0.96389 0.42725 0.0
C102 C 0.4966 0.95952 0.482 0.0
C103 C 0.52448 -0.00445 0.51189 0.0
C104 C 0.54497 0.03599 0.48513 0.0
C105 C 0.53638 0.04092 0.43075 0.0
C106 C 0.48754 0.9839 0.76519 0.0
C107 C 0.46111 0.94362 0.7865 0.0
C108 C 0.40944 0.94864 0.81226 0.0
C109 C 0.38361 0.99429 0.81748 0.0
C110 C 0.40965 0.0345 0.79525 0.0
C111 C 0.4611 0.0294 0.76933 0.0
C112 C 0.59166 0.98754 0.76654 0.0
C113 C 0.60054 0.03166 0.7936 0.0
C114 C 0.65003 0.03892 0.82303 0.0
C115 C 0.69187 0.00281 0.82444 0.0
C116 C 0.68348 0.95944 0.79621 0.0
C117 C 0.63375 0.95186 0.76783 0.0
C118 C 0.54 0.98299 0.6818 0.0
C119 C 0.53965 0.94171 0.64929 0.0
C120 C 0.5361 0.94569 0.59432 0.0
C121 C 0.53148 0.99132 0.57057 0.0
C122 C 0.5329 0.03281 0.60365 0.0
C123 C 0.5381 0.02868 0.65859 0.0
H124 H 0.44469 0.31872 0.11958 0.0
N125 N 0.47943 0.341 1.02036 0.0
H126 H 0.35279 0.28603 0.14195 0.0
H127 H 0.38893 0.33984 0.95897 0.0
H128 H 0.29763 0.30526 0.98037 0.0
H129 H 0.48788 0.26001 0.96382 0.0
H130 H 0.55581 0.19397 0.97505 0.0
H131 H 0.55894 0.33459 0.09889 0.0
H132 H 0.62958 0.27077 0.10797 0.0
H133 H 0.4702 0.4016 0.10734 0.0
H134 H 0.53503 0.38933 0.94863 0.0
H135 H 0.49976 0.4859 0.11223 0.0
H136 H 0.56549 0.47323 0.95353 0.0
H137 H 0.54147 0.72889 0.08581 0.0
H138 H 0.46052 0.78117 0.10488 0.0
H139 H 0.4069 0.76752 0.94176 0.0
H140 H 0.48951 0.71728 0.92254 0.0
H141 H 0.62686 0.70821 0.90637 0.0
H142 H 0.72515 0.73414 0.90535 0.0
H143 H 0.72743 0.73447 0.07649 0.0
H144 H 0.63162 0.70474 0.07673 0.0
H145 H 0.4769 0.64486 0.0431 0.0
H146 H 0.46517 0.56027 0.06174 0.0
H147 H 0.63094 0.52888 1.00137 0.0
N148 N 0.56622 0.68554 0.99006 0.0
H149 H 0.64317 0.61327 0.98123 0.0
C150 C 0.42331 0.33129 0.03742 0.0
C151 C 0.41205 0.3176 0.08959 0.0
C152 C 0.3598 0.29866 0.10217 0.0
C153 C 0.31876 0.29223 0.06254 0.0
C154 C 0.32852 0.30989 1.01164 0.0
C155 C 0.38054 0.32937 0.99928 0.0
C156 C 0.51925 0.30255 1.02956 0.0
C157 C 0.51834 0.26207 0.99577 0.0
C158 C 0.55702 0.2245 1.00229 0.0
C159 C 0.59805 0.22709 0.04239 0.0
C160 C 0.59777 0.26706 0.07743 0.0
C161 C 0.55809 0.30414 0.07163 0.0
C162 C 0.49928 0.3896 1.02681 0.0
C163 C 0.4909 0.41686 0.07361 0.0
C164 C 0.50805 0.46496 0.07655 0.0
C165 C 0.5348 0.48599 0.03328 0.0
C166 C 0.54551 0.45781 0.98772 0.0
C167 C 0.52775 0.41014 0.98459 0.0
C168 C 0.52201 0.71986 1.00226 0.0
C169 C 0.51359 0.73857 0.05373 0.0
C170 C 0.46684 0.76799 0.06477 0.0
C171 C 0.42775 0.77903 1.02469 0.0
C172 C 0.43705 0.76094 0.97318 0.0
C173 C 0.4839 0.73193 0.96214 0.0
C174 C 0.62166 0.7058 0.99147 0.0
C175 C 0.64886 0.71412 0.9435 0.0
C176 C 0.70491 0.72852 0.94302 0.0
C177 C 0.7345 0.73534 0.99077 0.0
C178 C 0.7066 0.72789 0.03892 0.0
C179 C 0.65103 0.71249 0.03928 0.0
C180 C 0.56185 0.63717 1.01138 0.0
C181 C 0.51202 0.62081 0.0352 0.0
C182 C 0.50506 0.57196 0.04619 0.0
C183 C 0.54709 0.53814 0.03285 0.0
C184 C 0.59775 0.5543 1.0118 0.0
C185 C 0.60478 0.60294 1.00065 0.0
Zn186 Zn 0.09239 0.08207 0.99817 0.0
Zn187 Zn 0.0828 0.07034 0.12345 0.0
O188 O 0.06231 0.03753 0.05468 0.0
H189 H 0.06325 0.00313 0.04801 0.0
C190 C 0.96957 0.11689 0.87909 0.0
O191 O 0.98422 0.0712 0.88272 0.0
Zn192 Zn 0.95134 0.90374 0.13597 0.0
Zn193 Zn 0.96323 0.95101 1.02693 0.0
O194 O -0.00516 0.95602 0.10297 0.0
H195 H 0.00392 0.98542 0.12206 0.0
Zn196 Zn 0.91232 0.09826 0.9818 0.0
O197 O 0.95824 0.0834 0.04873 0.0
Zn198 Zn 0.90102 0.07163 0.10569 0.0
H199 H 0.94165 0.09084 1.01481 0.0
Zn200 Zn 0.09099 0.8647 1.00008 0.0
O201 O 0.0466 0.86781 0.06879 0.0
H202 H 0.06256 0.86526 0.03381 0.0
Zn203 Zn 0.10346 0.88488 0.12411 0.0
C204 C 0.05434 0.84242 0.89166 0.0
O205 O 0.05766 0.88966 0.88891 0.0
O206 O 0.11379 0.14986 1.02548 0.0
O207 O 0.13033 0.1281 0.10848 0.0
O208 O 0.94162 0.88237 1.00346 0.0
O209 O 0.92649 0.8531 0.08329 0.0
O210 O 0.83006 0.11401 0.99895 0.0
O211 O 0.82517 0.09811 0.0847 0.0
C212 C 0.13941 0.98171 0.16378 0.0
O213 O 0.17629 0.86078 1.01366 0.0
O214 O 0.18117 0.8614 0.10179 0.0
O215 O 0.89791 0.99453 0.99784 0.0
C216 C 0.13604 0.15751 0.07065 0.0
O217 O 0.16242 0.05696 0.95716 0.0
C218 C 0.86559 0.97668 0.15383 0.0
O219 O 0.94222 0.13658 0.91685 0.0
C220 C 0.92519 0.84863 0.03308 0.0
O221 O 0.06391 0.82248 0.93584 0.0
C222 C 0.9726 0.11003 0.19196 0.0
O223 O 0.13395 0.02738 0.16637 0.0
O224 O 0.10666 0.95717 0.13422 0.0
C225 C 0.80264 0.11305 0.04203 0.0
O226 O 0.88005 0.9336 0.16448 0.0
O227 O 0.89689 0.00111 0.1237 0.0
C228 C 0.03518 0.85291 0.21711 0.0
O229 O 0.92347 0.10524 0.17278 0.0
O230 O 0.01503 0.09481 0.16572 0.0
C231 C 0.20436 0.85702 0.0565 0.0
O232 O 0.08206 0.85459 0.19301 0.0
O233 O -0.00978 0.8705 0.19716 0.0
C234 C 0.89691 0.99121 0.94758 0.0
O235 O 0.93853 0.96801 0.92416 0.0
C236 C 0.16934 0.0216 0.92527 0.0
O237 O 0.1265 0.99381 0.91346 0.0
C238 C 0.03396 0.18511 0.30538 0.0
C239 C 0.98974 0.18708 0.34239 0.0
C240 C 0.02893 0.15921 0.25737 0.0
C241 C 0.9792 0.13471 0.24418 0.0
H242 H 0.07252 0.2045 0.31306 0.0
H243 H 0.06371 0.15941 0.22988 0.0
S244 S 0.85296 0.12433 0.32904 0.0
N245 N 0.89623 0.15865 0.36389 0.0
N246 N 0.8861 0.11152 0.27334 0.0
C247 C 0.9351 0.13554 0.28119 0.0
C248 C 0.94047 0.16135 0.33025 0.0
C249 C 0.75856 0.00191 0.25992 0.0
C250 C 0.7086 0.0085 0.23069 0.0
C251 C 0.81052 -0.00404 0.23456 0.0
C252 C 0.81455 -0.00325 0.1791 0.0
H253 H 0.75718 -0.0004 0.30266 0.0
H254 H 0.84747 0.98827 0.25839 0.0
S255 S 0.69674 0.01354 0.08446 0.0
N256 N 0.66682 0.01692 0.14327 0.0
N257 N 0.76459 0.00514 0.09574 0.0
C258 C 0.76549 0.00546 0.14949 0.0
C259 C 0.71246 0.01158 0.17529 0.0
C260 C 0.06912 0.76666 0.32896 0.0
C261 C 0.02256 0.77223 0.36268 0.0
C262 C 0.07367 0.79379 0.28271 0.0
C263 C 0.03169 0.82741 0.26827 0.0
H264 H 0.10163 0.74021 0.33763 0.0
H265 H 0.10965 0.78733 0.25741 0.0
S266 S 0.90429 0.85935 0.3462 0.0
N267 N 0.93608 0.81688 0.38085 0.0
N268 N 0.94388 0.86712 0.29364 0.0
C269 C 0.98574 0.83438 0.30258 0.0
C270 C 0.98135 0.80699 0.34977 0.0
C271 C 0.28907 0.94944 0.19472 0.0
C272 C 0.29033 0.95515 0.25019 0.0
C273 C 0.23805 0.95202 0.16647 0.0
C274 C 0.18676 0.95975 0.19286 0.0
H275 H 0.32798 0.94726 0.1727 0.0
H276 H 0.23933 0.95236 0.12362 0.0
S277 S 0.16623 0.96737 0.33775 0.0
N278 N 0.23498 0.96147 0.33063 0.0
N279 N 0.13945 0.9666 0.27729 0.0
C280 C 0.187 0.96067 0.24829 0.0
C281 C 0.23873 0.95819 0.27706 0.0
C282 C 0.01954 0.81023 0.74862 0.0
C283 C 0.03034 0.76026 0.7456 0.0
C284 C 0.02654 0.83614 0.79619 0.0
C285 C 0.04409 0.81308 0.84288 0.0
H286 H 0.00632 0.82962 0.71366 0.0
H287 H 0.01835 0.8747 0.79616 0.0
S288 S 0.07466 0.68188 0.85634 0.0
N289 N 0.05725 0.68813 0.79345 0.0
N290 N 0.07032 0.73653 0.88312 0.0
C291 C 0.05387 0.76277 0.84059 0.0
C292 C 0.04718 0.73649 0.7919 0.0
C293 C 0.28343 0.97141 0.83399 0.0
C294 C 0.33001 0.0003 0.84671 0.0
C295 C 0.23189 0.97792 0.86012 0.0
C296 C 0.22508 0.01354 0.90001 0.0
H297 H 0.28658 0.94411 0.80299 0.0
H298 H 0.197 0.95528 0.84839 0.0
S299 S 0.33648 0.09555 0.9511 0.0
N300 N 0.36751 0.06347 0.90391 0.0
N301 N 0.27119 0.07611 0.95296 0.0
C302 C 0.27214 0.04171 0.91404 0.0
C303 C 0.32439 0.03504 0.88736 0.0
C304 C 0.95413 0.21104 0.7712 0.0
C305 C -0.00885 0.19418 0.7317 0.0
C306 C 0.94856 0.18654 0.81917 0.0
C307 C 0.9793 0.14383 0.8294 0.0
H308 H 0.92958 0.24369 0.76518 0.0
H309 H 0.91912 0.20087 0.84808 0.0
S310 S 0.08176 0.08448 0.73854 0.0
N311 N 0.05884 0.13202 0.70578 0.0
N312 N 0.04863 0.08615 0.79578 0.0
C313 C 0.01663 0.12671 0.79021 0.0
C314 C 0.02251 0.15182 0.74149 0.0
C315 C 0.7432 0.01224 0.91102 0.0
C316 C 0.74445 0.00933 0.8554 0.0
C317 C 0.79314 0.00964 0.94105 0.0
C318 C 0.8459 0.00426 0.91635 0.0
H319 H 0.70329 0.01383 0.93144 0.0
H320 H 0.79006 0.00918 0.98376 0.0
S321 S 0.8715 0.00328 0.77143 0.0
N322 N 0.80243 0.00653 0.7768 0.0
N323 N 0.89609 0.00244 0.83262 0.0
C324 C 0.84752 0.00508 0.86064 0.0
C325 C 0.79685 0.00735 0.83032 0.0
C326 C 0.21606 0.2737 0.05435 0.0
C327 C 0.27041 0.26029 0.07137 0.0
C328 C 0.17156 0.24087 0.05588 0.0
C329 C 0.18007 0.19406 0.07523 0.0
H330 H 0.20834 0.30929 0.03843 0.0
H331 H 0.13065 0.25178 0.04097 0.0
S332 S 0.31518 0.13978 0.11956 0.0
N333 N 0.33073 0.19588 0.10461 0.0
N334 N 0.24694 0.13499 0.10904 0.0
C335 C 0.23396 0.18042 0.09281 0.0
C336 C 0.27922 0.21339 0.09055 0.0
C337 C 0.34205 0.7914 0.08058 0.0
C338 C 0.3747 0.8054 0.03716 0.0
C339 C 0.28789 0.81049 0.08853 0.0
C340 C 0.26437 0.84371 0.05295 0.0
H341 H 0.35723 0.76369 0.10708 0.0
H342 H 0.26317 0.79708 0.12097 0.0
S343 S 0.33601 0.8985 0.93896 0.0
N344 N 0.38248 0.85969 0.96279 0.0
N345 N 0.27997 0.89437 0.9768 0.0
C346 C 0.29777 0.86027 1.01144 0.0
C347 C 0.35311 0.84139 1.00376 0.0
C348 C 0.67172 0.17842 0.99587 0.0
C349 C 0.64479 0.19129 0.04349 0.0
C350 C 0.72087 0.1505 0.99571 0.0
C351 C 0.74557 0.13474 0.04322 0.0
H352 H 0.65641 0.19204 0.95842 0.0
H353 H 0.7409 0.14315 0.958 0.0
S354 S 0.6874 0.15333 0.17819 0.0
N355 N 0.64244 0.18139 0.13892 0.0
N356 N 0.73637 0.1303 0.13906 0.0
C357 C 0.71724 0.14484 0.091 0.0
C358 C 0.66662 0.17292 0.09104 0.0
C359 C 0.80513 0.79426 0.95916 0.0
C360 C 0.79246 0.75456 0.99098 0.0
C361 C 0.85366 0.82126 0.96829 0.0
C362 C 0.89045 0.8099 1.01017 0.0
H363 H 0.77509 0.8073 0.93019 0.0
H364 H 0.85882 0.8542 0.94622 0.0
S365 S 0.88476 0.70157 0.09427 0.0
N366 N 0.82745 0.69857 0.05722 0.0
N367 N 0.91748 0.75094 0.07612 0.0
C368 C 0.88206 0.76688 0.03761 0.0
C369 C 0.83318 0.73886 1.02769 0.0
loop_
_geom_bond_atom_site_label_1
_geom_bond_atom_site_label_2
_geom_bond_distance
_geom_bond_site_symmetry_2
_ccdc_geom_bond_type
H0 C27 0.929 . S
N1 C26 1.433 . S
N1 C32 1.435 . S
N1 C38 1.423 1_455 S
H2 C28 0.930 . S
H3 C31 0.931 . S
H4 C30 0.929 . S
H5 C33 0.930 . S
H6 C34 0.932 . S
H7 C37 0.929 . S
H8 C36 0.931 . S
H9 C39 0.929 . S
H10 C43 0.932 . S
H11 C40 0.931 . S
H12 C42 0.929 . S
H13 C45 0.929 . S
H14 C46 0.930 . S
H15 C48 0.929 . S
H16 C49 0.931 . S
H17 C51 0.930 . S
H18 C52 0.932 . S
H19 C54 0.931 . S
H20 C55 0.929 . S
H21 C57 0.929 . S
H22 C58 0.931 . S
H23 C60 0.929 . S
N24 C44 1.433 . S
N24 C50 1.435 . S
N24 C56 1.423 1_455 S
H25 C61 0.932 . S
C26 N1 1.433 . S
C26 C27 1.363 1_455 S
C26 C31 1.370 . S
C27 H0 0.929 . S
C27 C26 1.363 1_655 S
C27 C28 1.385 . S
C28 H2 0.930 . S
C28 C27 1.385 . S
C28 C29 1.357 1_655 S
C29 C28 1.357 1_455 S
C29 C30 1.406 . S
C30 H4 0.929 . S
C30 C29 1.406 . S
C30 C31 1.391 . S
C31 H3 0.931 . S
C31 C26 1.370 . S
C31 C30 1.391 . S
C32 N1 1.435 . S
C32 C33 1.358 . S
C32 C37 1.371 1_455 S
C33 H5 0.930 . S
C33 C32 1.358 . S
C33 C34 1.405 . S
C34 H6 0.932 . S
C34 C33 1.405 . S
C34 C35 1.383 . S
C35 C34 1.383 . S
C35 C36 1.393 1_455 S
C36 H8 0.931 . S
C36 C35 1.393 1_655 S
C36 C37 1.382 . S
C37 H7 0.929 . S
C37 C32 1.371 1_655 S
C37 C36 1.382 . S
C38 N1 1.423 1_655 S
C38 C39 1.362 . S
C38 C43 1.388 1_655 S
C39 H9 0.929 . S
C39 C38 1.362 . S
C39 C40 1.376 . S
C40 H11 0.931 . S
C40 C39 1.376 . S
C40 C41 1.396 . S
C41 C40 1.396 . S
C41 C42 1.348 1_655 S
C41 C59 1.472 . S
C42 H12 0.929 . S
C42 C41 1.348 1_455 S
C42 C43 1.443 . S
C43 H10 0.932 . S
C43 C38 1.388 1_455 S
C43 C42 1.443 . S
C44 N24 1.433 . S
C44 C45 1.363 1_455 S
C44 C49 1.370 . S
C45 H13 0.929 . S
C45 C44 1.363 1_655 S
C45 C46 1.385 . S
C46 H14 0.930 . S
C46 C45 1.385 . S
C46 C47 1.357 1_655 S
C47 C46 1.357 1_455 S
C47 C48 1.406 . S
C48 H15 0.929 . S
C48 C47 1.406 . S
C48 C49 1.391 . S
C49 H16 0.931 . S
C49 C44 1.370 . S
C49 C48 1.391 . S
C50 N24 1.435 . S
C50 C51 1.358 . S
C50 C55 1.371 1_455 S
C51 H17 0.930 . S
C51 C50 1.358 . S
C51 C52 1.405 . S
C52 H18 0.932 . S
C52 C51 1.405 . S
C52 C53 1.383 . S
C53 C52 1.383 . S
C53 C54 1.393 1_455 S
C54 H19 0.931 . S
C54 C53 1.393 1_655 S
C54 C55 1.382 . S
C55 H20 0.929 . S
C55 C50 1.371 1_655 S
C55 C54 1.382 . S
C56 N24 1.423 1_655 S
C56 C57 1.362 . S
C56 C61 1.388 1_655 S
C57 H21 0.929 . S
C57 C56 1.362 . S
C57 C58 1.376 . S
C58 H22 0.931 . S
C58 C57 1.376 . S
C58 C59 1.396 . S
C59 C41 1.472 . S
C59 C58 1.396 . S
C59 C60 1.348 1_655 S
C60 H23 0.929 . S
C60 C59 1.348 1_455 S
C60 C61 1.443 . S
C61 H25 0.932 . S
C61 C56 1.388 1_455 S
C61 C60 1.443 . S
H62 C89 0.929 . S
N63 C88 1.433 . S
N63 C94 1.435 . S
N63 C100 1.423 . S
H64 C90 0.930 . S
H65 C93 0.931 . S
H66 C92 0.929 . S
H67 C95 0.930 . S
H68 C96 0.932 . S
H69 C99 0.929 . S
H70 C98 0.931 . S
H71 C101 0.929 . S
H72 C105 0.932 1_545 S
H73 C102 0.931 . S
H74 C104 0.929 1_545 S
H75 C107 0.929 . S
H76 C108 0.930 . S
H77 C110 0.929 . S
H78 C111 0.931 . S
H79 C113 0.930 . S
H80 C114 0.932 . S
H81 C116 0.931 . S
H82 C117 0.929 . S
H83 C119 0.929 . S
H84 C120 0.931 . S
H85 C122 0.929 1_545 S
N86 C106 1.433 . S
N86 C112 1.435 . S
N86 C118 1.423 . S
H87 C123 0.932 1_545 S
C88 N63 1.433 . S
C88 C89 1.363 . S
C88 C93 1.370 1_565 S
C89 H62 0.929 . S
C89 C88 1.363 . S
C89 C90 1.385 . S
C90 H64 0.930 . S
C90 C89 1.385 . S
C90 C91 1.357 . S
C91 C90 1.357 . S
C91 C92 1.406 1_565 S
C92 H66 0.929 . S
C92 C91 1.406 1_545 S
C92 C93 1.391 . S
C93 H65 0.931 . S
C93 C88 1.370 1_545 S
C93 C92 1.391 . S
C94 N63 1.435 . S
C94 C95 1.358 1_565 S
C94 C99 1.371 . S
C95 H67 0.930 . S
C95 C94 1.358 1_545 S
C95 C96 1.405 . S
C96 H68 0.932 . S
C96 C95 1.405 . S
C96 C97 1.372 1_545 S
C97 C96 1.372 1_565 S
C97 C98 1.408 . S
C98 H70 0.931 . S
C98 C97 1.408 . S
C98 C99 1.382 . S
C99 H69 0.929 . S
C99 C94 1.371 . S
C99 C98 1.382 . S
C100 N63 1.423 . S
C100 C101 1.362 . S
C100 C105 1.388 . S
C101 H71 0.929 . S
C101 C100 1.362 . S
C101 C102 1.376 . S
C102 H73 0.931 . S
C102 C101 1.376 . S
C102 C103 1.396 . S
C103 C102 1.396 . S
C103 C104 1.348 . S
C103 C121 1.472 . S
C104 H74 0.929 1_565 S
C104 C103 1.348 . S
C104 C105 1.443 . S
C105 H72 0.932 1_565 S
C105 C100 1.388 . S
C105 C104 1.443 . S
C106 N86 1.433 . S
C106 C107 1.363 . S
C106 C111 1.370 1_565 S
C107 H75 0.929 . S
C107 C106 1.363 . S
C107 C108 1.385 . S
C108 H76 0.930 . S
C108 C107 1.385 . S
C108 C109 1.357 . S
C109 C108 1.357 . S
C109 C110 1.406 1_565 S
C110 H77 0.929 . S
C110 C109 1.406 1_545 S
C110 C111 1.391 . S
C111 H78 0.931 . S
C111 C106 1.370 1_545 S
C111 C110 1.391 . S
C112 N86 1.435 . S
C112 C113 1.358 1_565 S
C112 C117 1.371 . S
C113 H79 0.930 . S
C113 C112 1.358 1_545 S
C113 C114 1.405 . S
C114 H80 0.932 . S
C114 C113 1.405 . S
C114 C115 1.372 1_545 S
C115 C114 1.372 1_565 S
C115 C116 1.408 . S
C116 H81 0.931 . S
C116 C115 1.408 . S
C116 C117 1.382 . S
C117 H82 0.929 . S
C117 C112 1.371 . S
C117 C116 1.382 . S
C118 N86 1.423 . S
C118 C119 1.362 . S
C118 C123 1.388 . S
C119 H83 0.929 . S
C119 C118 1.362 . S
C119 C120 1.376 . S
C120 H84 0.931 . S
C120 C119 1.376 . S
C120 C121 1.396 . S
C121 C103 1.472 . S
C121 C120 1.396 . S
C121 C122 1.348 . S
C122 H85 0.929 1_565 S
C122 C121 1.348 . S
C122 C123 1.443 . S
C123 H87 0.932 1_565 S
C123 C118 1.388 . S
C123 C122 1.443 . S
H124 C151 0.929 . S
N125 C150 1.433 . S
N125 C156 1.435 . S
N125 C162 1.423 . S
H126 C152 0.930 . S
H127 C155 0.925 1_556 S
H128 C154 0.929 . S
H129 C157 0.930 . S
H130 C158 0.932 . S
H131 C161 0.929 . S
H132 C160 0.931 . S
H133 C163 0.929 . S
H134 C167 0.932 1_556 S
H135 C164 0.931 . S
H136 C166 0.929 . S
H137 C169 0.929 . S
H138 C170 0.930 . S
H139 C172 0.929 . S
H140 C173 0.925 1_556 S
H141 C175 0.930 . S
H142 C176 0.932 . S
H143 C178 0.931 . S
H144 C179 0.929 . S
H145 C181 0.929 . S
H146 C182 0.931 . S
H147 C184 0.929 . S
N148 C168 1.433 . S
N148 C174 1.435 . S
N148 C180 1.423 . S
H149 C185 0.932 1_556 S
C150 N125 1.433 . S
C150 C151 1.363 . S
C150 C155 1.378 . S
C151 H124 0.929 . S
C151 C150 1.363 . S
C151 C152 1.385 . S
C152 H126 0.930 . S
C152 C151 1.385 . S
C152 C153 1.357 . S
C153 C152 1.357 . S
C153 C154 1.406 1_554 S
C154 H128 0.929 . S
C154 C153 1.406 1_556 S
C154 C155 1.390 1_556 S
C155 H127 0.925 1_554 S
C155 C150 1.378 . S
C155 C154 1.390 1_554 S
C156 N125 1.435 . S
C156 C157 1.358 1_554 S
C156 C161 1.371 . S
C157 H129 0.930 . S
C157 C156 1.358 1_556 S
C157 C158 1.405 . S
C158 H130 0.932 . S
C158 C157 1.405 . S
C158 C159 1.383 1_556 S
C159 C158 1.383 1_554 S
C159 C160 1.393 . S
C160 H132 0.931 . S
C160 C159 1.393 . S
C160 C161 1.382 . S
C161 H131 0.929 . S
C161 C156 1.371 . S
C161 C160 1.382 . S
C162 N125 1.423 . S
C162 C163 1.362 . S
C162 C167 1.388 . S
C163 H133 0.929 . S
C163 C162 1.362 . S
C163 C164 1.376 . S
C164 H135 0.931 . S
C164 C163 1.376 . S
C164 C165 1.396 . S
C165 C164 1.396 . S
C165 C166 1.348 . S
C165 C183 1.472 . S
C166 H136 0.929 . S
C166 C165 1.348 . S
C166 C167 1.443 . S
C167 H134 0.932 1_554 S
C167 C162 1.388 . S
C167 C166 1.443 . S
C168 N148 1.433 . S
C168 C169 1.363 . S
C168 C173 1.378 . S
C169 H137 0.929 . S
C169 C168 1.363 . S
C169 C170 1.385 . S
C170 H138 0.930 . S
C170 C169 1.385 . S
C170 C171 1.357 . S
C171 C170 1.357 . S
C171 C172 1.406 1_554 S
C172 H139 0.929 . S
C172 C171 1.406 1_556 S
C172 C173 1.390 1_556 S
C173 H140 0.925 1_554 S
C173 C168 1.378 . S
C173 C172 1.390 1_554 S
C174 N148 1.435 . S
C174 C175 1.358 1_554 S
C174 C179 1.371 . S
C175 H141 0.930 . S
C175 C174 1.358 1_556 S
C175 C176 1.405 . S
C176 H142 0.932 . S
C176 C175 1.405 . S
C176 C177 1.383 1_556 S
C177 C176 1.383 1_554 S
C177 C178 1.393 . S
C178 H143 0.931 . S
C178 C177 1.393 . S
C178 C179 1.382 . S
C179 H144 0.929 . S
C179 C174 1.371 . S
C179 C178 1.382 . S
C180 N148 1.423 . S
C180 C181 1.362 . S
C180 C185 1.388 . S
C181 H145 0.929 . S
C181 C180 1.362 . S
C181 C182 1.376 . S
C182 H146 0.931 . S
C182 C181 1.376 . S
C182 C183 1.396 . S
C183 C165 1.472 . S
C183 C182 1.396 . S
C183 C184 1.348 . S
C184 H147 0.929 . S
C184 C183 1.348 . S
C184 C185 1.443 . S
C185 H149 0.932 1_554 S
C185 C180 1.388 . S
C185 C184 1.443 . S
Zn186 O188 1.933 1_556 S
Zn186 O206 1.985 . S
Zn186 O217 1.955 . S
Zn187 O188 1.911 . S
Zn187 O207 1.970 . S
Zn187 O223 1.945 . S
Zn187 O230 1.981 . S
O188 Zn186 1.933 1_554 S
O188 Zn187 1.911 . S
O188 H189 0.841 . S
H189 O188 0.841 . S
C190 O191 1.246 . S
C190 O219 1.276 1_455 S
O191 C190 1.246 . S
Zn192 O194 1.911 . S
Zn192 O209 1.970 . S
Zn192 O226 1.945 . S
Zn192 O233 1.981 1_655 S
Zn193 O194 1.933 1_556 S
Zn193 O208 1.985 . S
Zn193 O215 1.955 . S
O194 Zn192 1.911 . S
O194 Zn193 1.933 1_554 S
O194 H195 0.841 . S
H195 O194 0.841 . S
Zn196 O197 1.933 1_556 S
Zn196 O210 1.985 . S
Zn196 O219 1.955 . S
O197 Zn196 1.933 1_554 S
O197 Zn198 1.911 . S
O197 H199 0.841 1_655 S
Zn198 O197 1.911 . S
Zn198 O211 1.970 . S
Zn198 O227 1.981 . S
Zn198 O229 1.945 . S
H199 O197 0.841 1_455 S
Zn200 O201 1.933 1_556 S
Zn200 O213 1.985 . S
Zn200 O221 1.955 . S
O201 Zn200 1.933 1_554 S
O201 H202 0.841 . S
O201 Zn203 1.911 . S
H202 O201 0.841 . S
Zn203 O201 1.911 . S
Zn203 O214 1.970 . S
Zn203 O224 1.981 . S
Zn203 O232 1.945 . S
C204 O205 1.244 1_455 S
C204 O221 1.276 . S
O205 C204 1.244 1_655 S
O206 Zn186 1.985 . S
O206 C216 1.245 1_556 S
O207 Zn187 1.970 . S
O207 C216 1.263 . S
O208 Zn193 1.985 . S
O208 C220 1.245 1_556 S
O209 Zn192 1.970 . S
O209 C220 1.263 . S
O210 Zn196 1.985 . S
O210 C225 1.245 1_556 S
O211 Zn198 1.970 . S
O211 C225 1.263 . S
C212 O223 1.263 . S
C212 O224 1.244 1_545 S
O213 Zn200 1.985 . S
O213 C231 1.245 1_556 S
O214 Zn203 1.970 . S
O214 C231 1.263 . S
O215 Zn193 1.955 . S
O215 C234 1.276 1_565 S
C216 O206 1.245 1_554 S
C216 O207 1.263 . S
O217 Zn186 1.955 . S
O217 C236 1.276 1_545 S
C218 O226 1.263 1_545 S
C218 O227 1.244 . S
O219 C190 1.276 1_655 S
O219 Zn196 1.955 . S
C220 O208 1.245 1_554 S
C220 O209 1.263 . S
O221 Zn200 1.955 . S
O221 C204 1.276 . S
C222 O229 1.262 1_455 S
C222 O230 1.245 . S
O223 Zn187 1.945 . S
O223 C212 1.263 . S
O224 Zn203 1.981 . S
O224 C212 1.244 1_565 S
C225 O210 1.245 1_554 S
C225 O211 1.263 . S
O226 Zn192 1.945 . S
O226 C218 1.263 1_565 S
O227 Zn198 1.981 . S
O227 C218 1.244 . S
C228 O232 1.262 . S
C228 O233 1.245 . S
O229 Zn198 1.945 . S
O229 C222 1.262 1_655 S
O230 Zn187 1.981 . S
O230 C222 1.245 . S
C231 O213 1.245 1_554 S
C231 O214 1.263 . S
O232 Zn203 1.945 . S
O232 C228 1.262 . S
O233 Zn192 1.981 1_455 S
O233 C228 1.245 . S
C234 O215 1.276 1_545 S
C234 O235 1.246 . S
O235 C234 1.246 . S
C236 O217 1.276 1_565 S
C236 O237 1.246 . S
O237 C236 1.246 . S
C238 C239 1.369 . S
C238 C240 1.419 . S
C238 H242 0.930 . S
C239 C238 1.369 . S
C239 C248 1.439 . S
C240 C238 1.419 . S
C240 C241 1.363 . S
C240 H243 0.929 . S
C241 C240 1.363 . S
C241 C247 1.428 . S
H242 C238 0.930 . S
H243 C240 0.929 . S
S244 N245 1.613 . S
S244 N246 1.610 . S
N245 S244 1.613 . S
N245 C248 1.338 1_655 S
N246 S244 1.610 . S
N246 C247 1.351 1_655 S
C247 C241 1.428 . S
C247 N246 1.351 1_455 S
C247 C248 1.435 . S
C248 C239 1.439 . S
C248 N245 1.338 1_455 S
C248 C247 1.435 . S
C249 C250 1.369 1_565 S
C249 C251 1.419 . S
C249 H253 0.930 . S
C250 C249 1.369 1_545 S
C250 C259 1.429 . S
C251 C249 1.419 . S
C251 C252 1.363 1_565 S
C251 H254 0.929 . S
C252 C251 1.363 1_545 S
C252 C258 1.428 . S
H253 C249 0.930 . S
H254 C251 0.929 . S
S255 N256 1.613 . S
S255 N257 1.610 . S
N256 S255 1.613 . S
N256 C259 1.350 . S
N257 S255 1.610 . S
N257 C258 1.351 . S
C258 C252 1.428 . S
C258 N257 1.351 . S
C258 C259 1.434 . S
C259 C250 1.429 . S
C259 N256 1.350 . S
C259 C258 1.434 . S
C260 C261 1.369 . S
C260 C262 1.419 . S
C260 H264 0.930 . S
C261 C260 1.369 . S
C261 C270 1.429 1_455 S
C262 C260 1.419 . S
C262 C263 1.363 . S
C262 H265 0.929 . S
C263 C262 1.363 . S
C263 C269 1.428 1_455 S
H264 C260 0.930 . S
H265 C262 0.929 . S
S266 N267 1.613 . S
S266 N268 1.610 . S
N267 S266 1.613 . S
N267 C270 1.350 . S
N268 S266 1.610 . S
N268 C269 1.351 . S
C269 C263 1.428 1_655 S
C269 N268 1.351 . S
C269 C270 1.434 . S
C270 C261 1.429 1_655 S
C270 N267 1.350 . S
C270 C269 1.434 . S
C271 C272 1.369 1_545 S
C271 C273 1.419 1_545 S
C271 H275 0.930 . S
C272 C271 1.369 1_565 S
C272 C281 1.429 . S
C273 C271 1.419 1_565 S
C273 C274 1.363 . S
C273 H276 0.931 . S
C274 C273 1.363 . S
C274 C280 1.428 . S
H275 C271 0.930 . S
H276 C273 0.931 . S
S277 N278 1.613 . S
S277 N279 1.610 . S
N278 S277 1.613 . S
N278 C281 1.350 . S
N279 S277 1.610 . S
N279 C280 1.351 . S
C280 C274 1.428 . S
C280 N279 1.351 . S
C280 C281 1.434 . S
C281 C272 1.429 . S
C281 N278 1.350 . S
C281 C280 1.434 . S
C282 C283 1.369 1_655 S
C282 C284 1.419 . S
C282 H286 0.930 . S
C283 C282 1.369 1_455 S
C283 C292 1.429 . S
C284 C282 1.419 . S
C284 C285 1.363 1_655 S
C284 H287 0.929 . S
C285 C284 1.363 1_455 S
C285 C291 1.428 . S
H286 C282 0.930 . S
H287 C284 0.929 . S
S288 N289 1.613 . S
S288 N290 1.610 . S
N289 S288 1.613 . S
N289 C292 1.350 . S
N290 S288 1.610 . S
N290 C291 1.351 . S
C291 C285 1.428 . S
C291 N290 1.351 . S
C291 C292 1.434 . S
C292 C283 1.429 . S
C292 N289 1.350 . S
C292 C291 1.434 . S
C293 C294 1.369 . S
C293 C295 1.419 . S
C293 H297 0.930 . S
C294 C293 1.369 . S
C294 C303 1.429 1_565 S
C295 C293 1.419 . S
C295 C296 1.363 . S
C295 H298 0.929 . S
C296 C295 1.363 . S
C296 C302 1.428 1_565 S
H297 C293 0.930 . S
H298 C295 0.929 . S
S299 N300 1.613 . S
S299 N301 1.610 . S
N300 S299 1.613 . S
N300 C303 1.350 . S
N301 S299 1.610 . S
N301 C302 1.351 . S
C302 C296 1.428 1_545 S
C302 N301 1.351 . S
C302 C303 1.434 . S
C303 C294 1.429 1_545 S
C303 N300 1.350 . S
C303 C302 1.434 . S
C304 C305 1.369 . S
C304 C306 1.419 . S
C304 H308 0.930 1_455 S
C305 C304 1.369 . S
C305 C314 1.429 . S
C306 C304 1.419 . S
C306 C307 1.363 . S
C306 H309 0.929 1_455 S
C307 C306 1.363 . S
C307 C313 1.428 . S
H308 C304 0.930 1_655 S
H309 C306 0.929 1_655 S
S310 N311 1.613 . S
S310 N312 1.610 . S
N311 S310 1.613 . S
N311 C314 1.350 . S
N312 S310 1.610 . S
N312 C313 1.351 . S
C313 C307 1.428 . S
C313 N312 1.351 . S
C313 C314 1.434 . S
C314 C305 1.429 . S
C314 N311 1.350 . S
C314 C313 1.434 . S
C315 C316 1.369 1_565 S
C315 C317 1.419 . S
C315 H319 0.930 . S
C316 C315 1.369 1_545 S
C316 C325 1.429 . S
C317 C315 1.419 . S
C317 C318 1.363 1_565 S
C317 H320 0.929 . S
C318 C317 1.363 1_545 S
C318 C324 1.428 . S
H319 C315 0.930 . S
H320 C317 0.929 . S
S321 N322 1.613 . S
S321 N323 1.610 . S
N322 S321 1.613 . S
N322 C325 1.350 . S
N323 S321 1.610 . S
N323 C324 1.351 . S
C324 C318 1.428 . S
C324 N323 1.351 . S
C324 C325 1.434 . S
C325 C316 1.429 . S
C325 N322 1.350 . S
C325 C324 1.434 . S
C326 C327 1.369 1_556 S
C326 C328 1.419 . S
C326 H330 0.930 . S
C327 C326 1.369 1_554 S
C327 C336 1.429 . S
C328 C326 1.419 . S
C328 C329 1.363 1_556 S
C328 H331 0.929 . S
C329 C328 1.363 1_554 S
C329 C335 1.428 . S
H330 C326 0.930 . S
H331 C328 0.929 . S
S332 N333 1.613 . S
S332 N334 1.610 . S
N333 S332 1.613 . S
N333 C336 1.350 . S
N334 S332 1.610 . S
N334 C335 1.351 . S
C335 C329 1.428 . S
C335 N334 1.351 . S
C335 C336 1.434 . S
C336 C327 1.429 . S
C336 N333 1.350 . S
C336 C335 1.434 . S
C337 C338 1.369 . S
C337 C339 1.419 . S
C337 H341 0.930 . S
C338 C337 1.369 . S
C338 C347 1.429 1_554 S
C339 C337 1.419 . S
C339 C340 1.363 . S
C339 H342 0.929 . S
C340 C339 1.363 . S
C340 C346 1.428 1_554 S
H341 C337 0.930 . S
H342 C339 0.929 . S
S343 N344 1.613 . S
S343 N345 1.610 . S
N344 S343 1.613 . S
N344 C347 1.350 . S
N345 S343 1.610 . S
N345 C346 1.351 . S
C346 C340 1.428 1_556 S
C346 N345 1.351 . S
C346 C347 1.434 . S
C347 C338 1.429 1_556 S
C347 N344 1.350 . S
C347 C346 1.434 . S
C348 C349 1.369 1_556 S
C348 C350 1.419 . S
C348 H352 0.930 . S
C349 C348 1.369 1_554 S
C349 C358 1.429 . S
C350 C348 1.419 . S
C350 C351 1.363 1_556 S
C350 H353 0.929 . S
C351 C350 1.363 1_554 S
C351 C357 1.428 . S
H352 C348 0.930 . S
H353 C350 0.929 . S
S354 N355 1.613 . S
S354 N356 1.610 . S
N355 S354 1.613 . S
N355 C358 1.350 . S
N356 S354 1.610 . S
N356 C357 1.351 . S
C357 C351 1.428 . S
C357 N356 1.351 . S
C357 C358 1.434 . S
C358 C349 1.429 . S
C358 N355 1.350 . S
C358 C357 1.434 . S
C359 C360 1.369 1_556 S
C359 C361 1.419 . S
C359 H363 0.930 . S
C360 C359 1.369 1_554 S
C360 C369 1.429 . S
C361 C359 1.419 . S
C361 C362 1.363 1_556 S
C361 H364 0.929 . S
C362 C361 1.363 1_554 S
C362 C368 1.428 . S
H363 C359 0.930 . S
H364 C361 0.929 . S
S365 N366 1.613 . S
S365 N367 1.610 . S
N366 S365 1.613 . S
N366 C369 1.350 . S
N367 S365 1.610 . S
N367 C368 1.351 . S
C368 C362 1.428 . S
C368 N367 1.351 . S
C368 C369 1.434 . S
C369 C360 1.429 . S
C369 N366 1.350 . S
C369 C368 1.434 . S
C241 C222 2.224 . S
C239 C53 2.272 . S
C252 C218 1.373 . S
C250 C97 1.571 1_545 S
C263 C228 2.228 . S
C261 C35 2.268 . S
C274 C212 1.464 1_565 S
C272 C91 1.548 . S
C283 C29 2.371 . S
C285 C204 2.305 . S
C296 C236 1.545 . S
C294 C109 1.665 . S
C305 C47 2.382 . S
C307 C190 2.311 . S
C316 C115 1.692 1_545 S
C318 C234 1.473 . S
C327 C153 1.216 . S
C329 C216 1.190 . S
C338 C171 1.188 . S
C340 C231 1.211 . S
C351 C225 1.071 . S
C349 C159 1.071 . S
C362 C220 1.188 . S
C360 C177 1.291 . S
