# Generated by pormake.
# Topology zzz, (3,6)-cn, num edge types: 1
# Building blocks:
#     Node 0, Type 0, BuildingBlock: ESEHIV_clean_linker_0, # of connection points: 3
#     Node 1, Type 0, BuildingBlock: ESEHIV_clean_linker_0, # of connection points: 3
#     Node 2, Type 0, BuildingBlock: ESEHIV_clean_linker_0, # of connection points: 3
#     Node 3, Type 0, BuildingBlock: ESEHIV_clean_linker_0, # of connection points: 3
#     Node 4, Type 0, BuildingBlock: ESEHIV_clean_linker_0, # of connection points: 3
#     Node 5, Type 0, BuildingBlock: ESEHIV_clean_linker_0, # of connection points: 3
#     Node 6, Type 0, BuildingBlock: ESEHIV_clean_linker_0, # of connection points: 3
#     Node 7, Type 0, BuildingBlock: ESEHIV_clean_linker_0, # of connection points: 3
#     Node 8, Type 1, BuildingBlock: CIFDUS_clean_sbu_1, # of connection points: 6
#     Node 9, Type 1, BuildingBlock: CIFDUS_clean_sbu_1, # of connection points: 6
#     Node 10, Type 1, BuildingBlock: CIFDUS_clean_sbu_1, # of connection points: 6
#     Node 11, Type 1, BuildingBlock: CIFDUS_clean_sbu_1, # of connection points: 6
#     Edge 12, Type (0, 1), BuildingBlock: EYOCIG_clean_linker_4, # of connection points: 2
#     Edge 13, Type (0, 1), BuildingBlock: EYOCIG_clean_linker_4, # of connection points: 2
#     Edge 14, Type (0, 1), BuildingBlock: EYOCIG_clean_linker_4, # of connection points: 2
#     Edge 15, Type (0, 1), BuildingBlock: EYOCIG_clean_linker_4, # of connection points: 2
#     Edge 16, Type (0, 1), BuildingBlock: EYOCIG_clean_linker_4, # of connection points: 2
#     Edge 17, Type (0, 1), BuildingBlock: EYOCIG_clean_linker_4, # of connection points: 2
#     Edge 18, Type (0, 1), BuildingBlock: EYOCIG_clean_linker_4, # of connection points: 2
#     Edge 19, Type (0, 1), BuildingBlock: EYOCIG_clean_linker_4, # of connection points: 2
#     Edge 20, Type (0, 1), BuildingBlock: EYOCIG_clean_linker_4, # of connection points: 2
#     Edge 21, Type (0, 1), BuildingBlock: EYOCIG_clean_linker_4, # of connection points: 2
#     Edge 22, Type (0, 1), BuildingBlock: EYOCIG_clean_linker_4, # of connection points: 2
#     Edge 23, Type (0, 1), BuildingBlock: EYOCIG_clean_linker_4, # of connection points: 2
#     Edge 24, Type (0, 1), BuildingBlock: EYOCIG_clean_linker_4, # of connection points: 2
#     Edge 25, Type (0, 1), BuildingBlock: EYOCIG_clean_linker_4, # of connection points: 2
#     Edge 26, Type (0, 1), BuildingBlock: EYOCIG_clean_linker_4, # of connection points: 2
#     Edge 27, Type (0, 1), BuildingBlock: EYOCIG_clean_linker_4, # of connection points: 2
#     Edge 28, Type (0, 1), BuildingBlock: EYOCIG_clean_linker_4, # of connection points: 2
#     Edge 29, Type (0, 1), BuildingBlock: EYOCIG_clean_linker_4, # of connection points: 2
#     Edge 30, Type (0, 1), BuildingBlock: EYOCIG_clean_linker_4, # of connection points: 2
#     Edge 31, Type (0, 1), BuildingBlock: EYOCIG_clean_linker_4, # of connection points: 2
#     Edge 32, Type (0, 1), BuildingBlock: EYOCIG_clean_linker_4, # of connection points: 2
#     Edge 33, Type (0, 1), BuildingBlock: EYOCIG_clean_linker_4, # of connection points: 2
#     Edge 34, Type (0, 1), BuildingBlock: EYOCIG_clean_linker_4, # of connection points: 2
#     Edge 35, Type (0, 1), BuildingBlock: EYOCIG_clean_linker_4, # of connection points: 2
# Relax obj value: 0.311
# Max RMSD: 0.222
# Mean RMSD: 0.206
data_MOF--net-zzz--node1-CIFDUS_clean_sbu_1--node2-ESEHIV_clean_linker_0--edge1-EYOCIG_clean_linker_4
_symmetry_space_group_name_H-M    P1
_symmetry_Int_Tables_number       1
_symmetry_cell_setting            triclinic
loop_
_symmetry_equiv_pos_as_xyz
'x, y, z'
_cell_length_a     32.378541
_cell_length_b     33.480657
_cell_length_c     12.700619
_cell_angle_alpha  90.021055
_cell_angle_beta   90.031728
_cell_angle_gamma 88.125324
loop_
_atom_site_label
_atom_site_type_symbol
_atom_site_fract_x
_atom_site_fract_y
_atom_site_fract_z
_atom_type_partial_charge
H0 H 0.84511 0.62088 0.20113 0.0
H1 H 0.74481 0.62232 0.98207 0.0
H2 H 0.72189 0.60108 0.31161 0.0
C3 C 0.81193 0.6214 0.18724 0.0
C4 C 0.78542 0.61303 0.26986 0.0
C5 C 0.79741 0.62344 0.08438 0.0
C6 C 0.75528 0.62253 0.06335 0.0
C7 C 0.72747 0.6149 0.14476 0.0
C8 C 0.74255 0.60984 0.2493 0.0
H9 H 1.00813 0.85495 0.2374 0.0
H10 H 0.0155 0.76481 0.99936 0.0
H11 H 0.96344 0.73761 0.30423 0.0
C12 C 1.00224 0.82449 0.21311 0.0
C13 C 0.98435 0.79832 0.2832 0.0
C14 C 0.01361 0.8122 0.11294 0.0
C15 C 1.00644 0.77364 0.07856 0.0
C16 C 0.98812 0.74633 0.14617 0.0
C17 C 0.97702 0.75852 0.25034 0.0
H18 H 0.6736 0.92571 0.20698 0.0
H19 H 0.77322 0.92463 0.98619 0.0
H20 H 0.79665 0.94839 0.31437 0.0
C21 C 0.70672 0.9257 0.19249 0.0
C22 C 0.73329 0.93512 0.27421 0.0
C23 C 0.72096 0.92317 0.0895 0.0
C24 C 0.76299 0.92478 0.06765 0.0
C25 C 0.79087 0.9334 0.14825 0.0
C26 C 0.776 0.93888 0.2528 0.0
H27 H 0.50086 0.69266 0.23757 0.0
H28 H 0.55137 0.80821 0.2971 0.0
H29 H 0.49204 0.78283 -0.00024 0.0
C30 C 0.50691 0.72301 0.21266 0.0
C31 C 0.49424 0.73551 0.11358 0.0
C32 C 0.5274 0.74849 0.27985 0.0
C33 C 0.53547 0.78796 0.24572 0.0
C34 C 0.52254 0.80055 0.14325 0.0
C35 C 0.50186 0.77388 0.0783 0.0
H36 H 0.17248 0.42689 0.23855 0.0
H37 H 0.27281 0.42517 0.45754 0.0
H38 H 0.29604 0.44427 0.12721 0.0
C39 C 0.20566 0.42597 0.25243 0.0
C40 C 0.23231 0.43352 0.16949 0.0
C41 C 0.22016 0.42426 0.35531 0.0
C42 C 0.26232 0.42469 0.37629 0.0
C43 C 0.29026 0.43144 0.29455 0.0
C44 C 0.27525 0.43615 0.18986 0.0
H45 H 0.01032 0.19217 0.20326 0.0
H46 H 1.00257 0.28176 0.4427 0.0
H47 H 0.05435 0.3099 0.13814 0.0
C48 C 0.01607 0.22261 0.22802 0.0
C49 C 0.03379 0.24903 0.15829 0.0
C50 C 1.00467 0.23463 0.32838 0.0
C51 C 0.01167 0.27314 0.36337 0.0
C52 C 0.02981 0.3007 0.29614 0.0
C53 C 0.04093 0.2888 0.19175 0.0
H54 H 0.34491 0.1225 0.23577 0.0
H55 H 0.24578 0.1233 0.458 0.0
H56 H 0.22162 0.09996 0.12997 0.0
C57 C 0.31181 0.12251 0.25074 0.0
C58 C 0.28507 0.11316 0.16936 0.0
C59 C 0.29781 0.12488 0.35395 0.0
C60 C 0.25583 0.12326 0.3764 0.0
C61 C 0.22776 0.11478 0.29611 0.0
C62 C 0.2424 0.1094 0.19132 0.0
H63 H 0.52219 0.35286 0.19323 0.0
H64 H 0.46471 0.23956 0.14963 0.0
H65 H 0.53237 0.26442 0.43529 0.0
C66 C 0.51564 0.32294 0.22069 0.0
C67 C 0.52989 0.31078 0.31869 0.0
C68 C 0.49221 0.29799 0.15876 0.0
C69 C 0.48308 0.25929 0.1967 0.0
C70 C 0.49799 0.24688 0.29756 0.0
C71 C 0.52148 0.27303 0.35739 0.0
O72 O 0.02661 0.07478 0.80659 0.0
Mn73 Mn 0.00925 0.02367 0.72129 0.0
O74 O 0.96625 0.10798 0.83893 0.0
Mn75 Mn 0.93206 0.06968 0.78332 0.0
O76 O 0.99184 0.97258 0.63591 0.0
O77 O 0.06372 0.02579 0.63552 0.0
Mn78 Mn 0.08638 0.97758 0.6583 0.0
O79 O 0.03288 0.98566 0.8365 0.0
O80 O 0.05212 0.93951 0.60192 0.0
O81 O 0.98565 0.06163 0.60595 0.0
O82 O 0.91982 0.07484 0.64291 0.0
O83 O 0.1235 1.00072 0.57442 0.0
O84 O 0.09857 0.97194 0.79862 0.0
C85 C 0.92151 0.01704 0.8647 0.0
C86 C 1.00557 0.10525 0.84269 0.0
C87 C 0.0128 0.94222 0.59888 0.0
C88 C 0.09699 0.03048 0.57812 0.0
C89 C 0.06799 0.96962 0.85927 0.0
C90 C 0.95045 0.07728 0.58248 0.0
O91 O 0.9548 0.02157 0.80723 0.0
O92 O 0.89496 0.04677 0.86768 0.0
O93 O 0.54831 0.01513 0.84671 0.0
Mn94 Mn 0.50921 0.02414 0.72239 0.0
O95 O 0.58699 0.06858 0.86346 0.0
Mn96 Mn 0.58356 0.07994 0.7211 0.0
O97 O 0.47012 0.03311 0.59802 0.0
O98 O 0.48748 0.96988 0.75811 0.0
Mn99 Mn 0.43493 0.96824 0.723 0.0
O100 O 0.46218 0.05 0.81928 0.0
O101 O 0.43194 0.97936 0.58043 0.0
O102 O 0.55619 0.99824 0.62534 0.0
O103 O 0.60906 0.04082 0.63738 0.0
O104 O 0.4484 0.91975 0.78618 0.0
O105 O 0.40924 1.00753 0.80588 0.0
C106 C 0.53477 0.11285 0.64153 0.0
C107 C 0.57651 0.03406 0.89261 0.0
C108 C 0.44229 1.01393 0.55136 0.0
C109 C 0.4836 0.93558 0.80387 0.0
C110 C 0.42477 0.03968 0.8396 0.0
C111 C 0.59351 1.00862 0.60419 0.0
O112 O 0.53091 0.07845 0.68675 0.0
O113 O 0.57006 0.12858 0.65892 0.0
O114 O 0.48401 0.56112 0.83182 0.0
Mn115 Mn 0.5092 0.52269 0.71895 0.0
O116 O 0.41884 0.57483 0.78826 0.0
Mn117 Mn 0.43269 0.56786 0.64951 0.0
O118 O 0.53473 0.48436 0.60583 0.0
O119 O 0.5628 0.52586 0.8087 0.0
Mn120 Mn 0.58514 0.47715 0.79148 0.0
O121 O 0.49094 0.47195 0.80475 0.0
O122 O 0.59931 0.46913 0.65343 0.0
O123 O 0.52709 0.57358 0.63314 0.0
O124 O 0.46693 0.60582 0.59342 0.0
O125 O 0.62178 0.5006 0.87555 0.0
O126 O 0.55059 0.43975 0.84869 0.0
C127 C 0.42245 0.51477 0.57103 0.0
C128 C 0.44863 0.57724 0.85144 0.0
C129 C 0.57012 0.46782 0.58804 0.0
C130 C 0.59575 0.53063 0.86766 0.0
C131 C 0.5113 0.4422 0.84667 0.0
C132 C 0.50625 0.6035 0.59335 0.0
O133 O 0.45548 0.51947 0.62969 0.0
O134 O 0.39611 0.54462 0.56482 0.0
O135 O 0.05565 0.49732 0.81769 0.0
Mn136 Mn 1.00885 0.52371 0.72091 0.0
O137 O 0.1079 0.54077 0.81119 0.0
Mn138 Mn 0.08209 0.5806 0.73022 0.0
O139 O 0.96205 0.55008 0.62395 0.0
O140 O 0.98835 0.46943 0.6794 0.0
Mn141 Mn 0.93557 0.46691 0.71165 0.0
O142 O 0.96888 0.53058 0.84411 0.0
O143 O 0.90987 0.50655 0.62995 0.0
O144 O 0.04885 0.51692 0.5977 0.0
O145 O 0.08635 0.57136 0.587 0.0
O146 O 0.94998 0.419 0.64711 0.0
O147 O 0.93102 0.4764 0.85472 0.0
C148 C 0.03246 0.61203 0.81011 0.0
C149 C 0.09271 0.50793 0.84098 0.0
C150 C 0.92506 0.53939 0.60018 0.0
C151 C 0.98518 0.43525 0.6324 0.0
C152 C 0.9408 0.51068 0.88731 0.0
C153 C 0.07671 0.53705 0.55428 0.0
O154 O 0.02934 0.57795 0.76257 0.0
O155 O 0.06762 0.62836 0.79557 0.0
C156 C 0.1553 0.09767 0.37866 0.0
C157 C 0.18635 0.10485 0.32935 0.0
C158 C 0.12466 0.08373 0.44936 0.0
C159 C 0.10525 0.0645 0.51231 0.0
C160 C 0.48956 0.18015 0.40613 0.0
C161 C 0.49006 0.20833 0.34558 0.0
C162 C 0.49578 0.15102 0.48765 0.0
C163 C 0.50848 0.12956 0.55882 0.0
C164 C 0.36349 0.44722 0.37458 0.0
C165 C 0.33214 0.44045 0.32595 0.0
C166 C 0.39445 0.46097 0.44468 0.0
C167 C 0.41409 0.48029 0.50701 0.0
C168 C 0.03376 0.36915 0.39878 0.0
C169 C 0.03478 0.34058 0.33933 0.0
C170 C 0.02609 0.39812 0.48 0.0
C171 C 0.01242 0.41916 0.55091 0.0
C172 C 0.8634 0.95044 0.06608 0.0
C173 C 0.83233 0.94331 0.11542 0.0
C174 C 0.89399 0.96423 0.99501 0.0
C175 C 0.91333 0.98327 0.93149 0.0
C176 C 0.52912 0.86859 0.03975 0.0
C177 C 0.52919 0.83999 0.09903 0.0
C178 C 0.52254 0.89779 0.95856 0.0
C179 C 0.5098 0.91908 0.88709 0.0
C180 C 0.65454 0.59847 0.06387 0.0
C181 C 0.68576 0.60543 0.11287 0.0
C182 C 0.62373 0.58465 0.99339 0.0
C183 C 0.60415 0.56528 0.93102 0.0
C184 C 0.98388 0.67779 0.04424 0.0
C185 C 0.98294 0.7064 0.10353 0.0
C186 C 0.99153 0.64885 0.96293 0.0
C187 C 1.00519 0.62793 0.8918 0.0
C188 C 0.9699 0.17731 0.42872 0.0
C189 C 0.98507 0.20623 0.39251 0.0
C190 C 0.95692 0.14109 0.46829 0.0
C191 C 0.95119 0.11227 0.52063 0.0
C192 C 0.35741 0.09576 0.46461 0.0
C193 C 0.32684 0.11226 0.43178 0.0
C194 C 0.38807 0.06637 0.48277 0.0
C195 C 0.41064 0.03939 0.50992 0.0
C196 C 0.56388 0.36913 0.41758 0.0
C197 C 0.54951 0.33973 0.38143 0.0
C198 C 0.57155 0.40608 0.46276 0.0
C199 C 0.57126 0.43426 0.52034 0.0
C200 C 0.16218 0.45611 0.46676 0.0
C201 C 0.19204 0.43864 0.43317 0.0
C202 C 0.13194 0.48584 0.48533 0.0
C203 C 0.10905 0.51254 0.51258 0.0
C204 C 0.04848 0.86924 0.0118 0.0
C205 C 0.03327 0.84038 0.04827 0.0
C206 C 0.06139 0.90551 0.97232 0.0
C207 C 0.06701 0.93446 0.9204 0.0
C208 C 0.66158 0.95203 0.97771 0.0
C209 C 0.69211 0.93561 0.01106 0.0
C210 C 0.63088 0.98136 0.95944 0.0
C211 C 0.6082 1.00833 0.93275 0.0
C212 C 0.4607 0.67786 0.01104 0.0
C213 C 0.47508 0.707 0.04855 0.0
C214 C 0.45078 0.64108 0.96833 0.0
C215 C 0.44836 0.61211 0.91427 0.0
C216 C 0.85562 0.59227 0.97276 0.0
C217 C 0.82566 0.60964 0.00614 0.0
C218 C 0.88577 0.5624 0.95477 0.0
C219 C 0.90853 0.53548 0.92823 0.0
C220 C 0.04231 0.206 0.98812 0.0
C221 C 0.04217 0.23225 0.05453 0.0
C222 C 0.03622 0.17002 0.93006 0.0
C223 C 0.02607 0.13901 0.88886 0.0
C224 C 0.3322 0.09233 0.00849 0.0
C225 C 0.30519 0.10089 0.0718 0.0
C226 C 0.36785 0.07975 0.94955 0.0
C227 C 0.39702 0.065 0.90161 0.0
C228 C 0.47585 0.34194 0.99366 0.0
C229 C 0.47857 0.3156 0.05953 0.0
C230 C 0.48037 0.37789 0.93458 0.0
C231 C 0.49017 0.40878 0.89233 0.0
C232 C 0.18508 0.45394 0.00826 0.0
C233 C 0.21209 0.44528 0.07157 0.0
C234 C 0.14955 0.46694 0.94929 0.0
C235 C 0.1205 0.48209 0.90158 0.0
C236 C 0.97586 0.84166 0.45295 0.0
C237 C 0.97598 0.81536 0.38669 0.0
C238 C 0.98199 0.8776 0.51112 0.0
C239 C 0.9922 0.90855 0.55258 0.0
C240 C 0.6859 0.95596 0.4347 0.0
C241 C 0.71296 0.94741 0.3715 0.0
C242 C 0.65028 0.96853 0.49376 0.0
C243 C 0.62116 0.98326 0.54198 0.0
C244 C 0.54066 0.70441 0.44673 0.0
C245 C 0.53872 0.73084 0.38091 0.0
C246 C 0.53618 0.66832 0.50538 0.0
C247 C 0.52682 0.63722 0.54738 0.0
C248 C 0.83281 0.59264 0.43098 0.0
C249 C 0.8058 0.60114 0.36751 0.0
C250 C 0.86833 0.57996 0.49051 0.0
C251 C 0.89736 0.56506 0.53883 0.0
loop_
_geom_bond_atom_site_label_1
_geom_bond_atom_site_label_2
_geom_bond_distance
_geom_bond_site_symmetry_2
_ccdc_geom_bond_type
H0 C3 0.931 . S
H1 C6 0.928 . S
H2 C8 0.930 . S
C3 H0 0.931 . S
C3 C4 1.413 . S
C3 C5 1.360 . S
C4 C3 1.413 . S
C4 C8 1.429 . S
C5 C3 1.360 . S
C5 C6 1.372 1_554 S
C6 H1 0.928 . S
C6 C5 1.372 1_556 S
C6 C7 1.404 1_556 S
C7 C6 1.404 1_554 S
C7 C8 1.391 . S
C8 H2 0.930 . S
C8 C4 1.429 . S
C8 C7 1.391 . S
H9 C12 0.931 . S
H10 C15 0.928 1_556 S
H11 C17 0.930 . S
C12 H9 0.931 . S
C12 C13 1.413 . S
C12 C14 1.360 . S
C13 C12 1.413 . S
C13 C17 1.429 1_655 S
C14 C12 1.360 . S
C14 C15 1.373 . S
C15 H10 0.928 1_554 S
C15 C14 1.373 . S
C15 C16 1.404 . S
C16 C15 1.404 . S
C16 C17 1.390 1_655 S
C17 H11 0.930 . S
C17 C13 1.429 1_455 S
C17 C16 1.390 1_455 S
H18 C21 0.931 . S
H19 C24 0.928 1_556 S
H20 C26 0.930 . S
C21 H18 0.931 . S
C21 C22 1.413 . S
C21 C23 1.360 . S
C22 C21 1.413 . S
C22 C26 1.429 . S
C23 C21 1.360 . S
C23 C24 1.372 . S
C24 H19 0.928 1_554 S
C24 C23 1.372 . S
C24 C25 1.404 . S
C25 C24 1.404 . S
C25 C26 1.391 . S
C26 H20 0.930 . S
C26 C22 1.429 . S
C26 C25 1.391 . S
H27 C30 0.931 . S
H28 C33 0.928 . S
H29 C35 0.930 1_556 S
C30 H27 0.931 . S
C30 C31 1.413 . S
C30 C32 1.360 . S
C31 C30 1.413 . S
C31 C35 1.429 . S
C32 C30 1.360 . S
C32 C33 1.372 . S
C33 H28 0.928 . S
C33 C32 1.372 . S
C33 C34 1.404 . S
C34 C33 1.404 . S
C34 C35 1.391 . S
C35 H29 0.930 1_554 S
C35 C31 1.429 . S
C35 C34 1.391 . S
H36 C39 0.931 . S
H37 C42 0.928 . S
H38 C44 0.930 . S
C39 H36 0.931 . S
C39 C40 1.413 . S
C39 C41 1.360 . S
C40 C39 1.413 . S
C40 C44 1.429 . S
C41 C39 1.360 . S
C41 C42 1.372 . S
C42 H37 0.928 . S
C42 C41 1.372 . S
C42 C43 1.404 . S
C43 C42 1.404 . S
C43 C44 1.391 . S
C44 H38 0.930 . S
C44 C40 1.429 . S
C44 C43 1.391 . S
H45 C48 0.930 . S
H46 C51 0.928 . S
H47 C53 0.931 . S
C48 H45 0.930 . S
C48 C49 1.413 . S
C48 C50 1.360 . S
C49 C48 1.413 . S
C49 C53 1.429 1_655 S
C50 C48 1.360 . S
C50 C51 1.372 . S
C51 H46 0.928 . S
C51 C50 1.372 . S
C51 C52 1.404 . S
C52 C51 1.404 . S
C52 C53 1.391 1_655 S
C53 H47 0.931 . S
C53 C49 1.429 1_455 S
C53 C52 1.391 1_455 S
H54 C57 0.931 . S
H55 C60 0.928 . S
H56 C62 0.930 . S
C57 H54 0.931 . S
C57 C58 1.413 . S
C57 C59 1.360 . S
C58 C57 1.413 . S
C58 C62 1.429 . S
C59 C57 1.360 . S
C59 C60 1.372 . S
C60 H55 0.928 . S
C60 C59 1.372 . S
C60 C61 1.404 . S
C61 C60 1.404 . S
C61 C62 1.391 . S
C62 H56 0.930 . S
C62 C58 1.429 . S
C62 C61 1.391 . S
H63 C66 0.931 . S
H64 C69 0.928 . S
H65 C71 0.930 . S
C66 H63 0.931 . S
C66 C67 1.413 . S
C66 C68 1.360 . S
C67 C66 1.413 . S
C67 C71 1.429 . S
C68 C66 1.360 . S
C68 C69 1.372 . S
C69 H64 0.928 . S
C69 C68 1.372 . S
C69 C70 1.404 . S
C70 C69 1.404 . S
C70 C71 1.391 . S
C71 H65 0.930 . S
C71 C67 1.429 . S
C71 C70 1.391 . S
O72 Mn73 2.163 1_455 S
O72 C86 1.244 . S
Mn73 O72 2.163 1_655 S
Mn73 O76 2.160 1_545 S
Mn73 O77 2.221 1_655 S
Mn73 O79 2.163 1_645 S
Mn73 O81 2.160 . S
Mn73 O91 2.221 . S
O74 Mn75 2.087 . S
O74 C86 1.256 1_655 S
Mn75 O74 2.087 . S
Mn75 O82 2.089 . S
Mn75 O91 2.290 . S
Mn75 O92 2.251 . S
O76 Mn73 2.160 1_565 S
O76 C87 1.239 . S
O77 Mn73 2.221 1_455 S
O77 Mn78 2.290 1_545 S
O77 C88 1.278 . S
Mn78 O77 2.290 1_565 S
Mn78 O80 2.089 . S
Mn78 O83 2.251 . S
Mn78 O84 2.087 . S
O79 Mn73 2.163 1_465 S
O79 C89 1.244 . S
O80 Mn78 2.089 . S
O80 C87 1.256 1_455 S
O81 Mn73 2.160 . S
O81 C90 1.239 . S
O82 Mn75 2.089 . S
O82 C90 1.256 . S
O83 Mn78 2.251 . S
O83 C88 1.241 1_565 S
O84 Mn78 2.087 . S
O84 C89 1.256 . S
C85 O91 1.278 . S
C85 O92 1.241 . S
C86 O72 1.244 . S
C86 O74 1.256 1_455 S
C87 O76 1.239 . S
C87 O80 1.256 1_655 S
C88 O77 1.278 . S
C88 O83 1.241 1_545 S
C89 O79 1.244 . S
C89 O84 1.256 . S
C90 O81 1.239 . S
C90 O82 1.256 . S
O91 Mn73 2.221 . S
O91 Mn75 2.290 . S
O91 C85 1.278 . S
O92 Mn75 2.251 . S
O92 C85 1.241 . S
O93 Mn94 2.163 1_565 S
O93 C107 1.244 1_565 S
Mn94 O93 2.163 1_545 S
Mn94 O97 2.160 . S
Mn94 O98 2.221 1_545 S
Mn94 O100 2.163 . S
Mn94 O102 2.160 1_545 S
Mn94 O112 2.221 . S
O95 Mn96 2.087 . S
O95 C107 1.256 . S
Mn96 O95 2.087 . S
Mn96 O103 2.089 1_545 S
Mn96 O112 2.290 . S
Mn96 O113 2.251 . S
O97 Mn94 2.160 . S
O97 C108 1.239 . S
O98 Mn94 2.221 1_565 S
O98 Mn99 2.290 . S
O98 C109 1.278 . S
Mn99 O98 2.290 . S
Mn99 O101 2.089 1_565 S
Mn99 O104 2.251 . S
Mn99 O105 2.087 1_565 S
O100 Mn94 2.163 . S
O100 C110 1.244 . S
O101 Mn99 2.089 1_545 S
O101 C108 1.256 . S
O102 Mn94 2.160 1_565 S
O102 C111 1.239 . S
O103 Mn96 2.089 1_565 S
O103 C111 1.256 . S
O104 Mn99 2.251 . S
O104 C109 1.241 . S
O105 Mn99 2.087 1_545 S
O105 C110 1.256 . S
C106 O112 1.278 . S
C106 O113 1.241 . S
C107 O93 1.244 1_545 S
C107 O95 1.256 . S
C108 O97 1.239 . S
C108 O101 1.256 . S
C109 O98 1.278 . S
C109 O104 1.241 . S
C110 O100 1.244 . S
C110 O105 1.256 . S
C111 O102 1.239 . S
C111 O103 1.256 . S
O112 Mn94 2.221 . S
O112 Mn96 2.290 . S
O112 C106 1.278 . S
O113 Mn96 2.251 . S
O113 C106 1.241 . S
O114 Mn115 2.163 . S
O114 C128 1.244 . S
Mn115 O114 2.163 . S
Mn115 O118 2.160 . S
Mn115 O119 2.221 . S
Mn115 O121 2.163 . S
Mn115 O123 2.160 . S
Mn115 O133 2.221 . S
O116 Mn117 2.087 . S
O116 C128 1.256 . S
Mn117 O116 2.087 . S
Mn117 O124 2.089 . S
Mn117 O133 2.290 . S
Mn117 O134 2.251 . S
O118 Mn115 2.160 . S
O118 C129 1.239 . S
O119 Mn115 2.221 . S
O119 Mn120 2.290 . S
O119 C130 1.278 . S
Mn120 O119 2.290 . S
Mn120 O122 2.089 . S
Mn120 O125 2.251 . S
Mn120 O126 2.087 . S
O121 Mn115 2.163 . S
O121 C131 1.244 . S
O122 Mn120 2.089 . S
O122 C129 1.256 . S
O123 Mn115 2.160 . S
O123 C132 1.239 . S
O124 Mn117 2.089 . S
O124 C132 1.256 . S
O125 Mn120 2.251 . S
O125 C130 1.241 . S
O126 Mn120 2.087 . S
O126 C131 1.256 . S
C127 O133 1.278 . S
C127 O134 1.241 . S
C128 O114 1.244 . S
C128 O116 1.256 . S
C129 O118 1.239 . S
C129 O122 1.256 . S
C130 O119 1.278 . S
C130 O125 1.241 . S
C131 O121 1.244 . S
C131 O126 1.256 . S
C132 O123 1.239 . S
C132 O124 1.256 . S
O133 Mn115 2.221 . S
O133 Mn117 2.290 . S
O133 C127 1.278 . S
O134 Mn117 2.251 . S
O134 C127 1.241 . S
O135 Mn136 2.163 . S
O135 C149 1.244 . S
Mn136 O135 2.163 . S
Mn136 O139 2.160 1_455 S
Mn136 O140 2.221 1_455 S
Mn136 O142 2.163 1_455 S
Mn136 O144 2.160 . S
Mn136 O154 2.221 . S
O137 Mn138 2.087 . S
O137 C149 1.256 . S
Mn138 O137 2.087 . S
Mn138 O145 2.089 . S
Mn138 O154 2.290 . S
Mn138 O155 2.251 . S
O139 Mn136 2.160 1_655 S
O139 C150 1.239 . S
O140 Mn136 2.221 1_655 S
O140 Mn141 2.290 . S
O140 C151 1.278 . S
Mn141 O140 2.290 . S
Mn141 O143 2.089 . S
Mn141 O146 2.251 . S
Mn141 O147 2.087 . S
O142 Mn136 2.163 1_655 S
O142 C152 1.244 . S
O143 Mn141 2.089 . S
O143 C150 1.256 . S
O144 Mn136 2.160 . S
O144 C153 1.239 . S
O145 Mn138 2.089 . S
O145 C153 1.256 . S
O146 Mn141 2.251 . S
O146 C151 1.241 . S
O147 Mn141 2.087 . S
O147 C152 1.256 . S
C148 O154 1.278 . S
C148 O155 1.241 . S
C149 O135 1.244 . S
C149 O137 1.256 . S
C150 O139 1.239 . S
C150 O143 1.256 . S
C151 O140 1.278 . S
C151 O146 1.241 . S
C152 O142 1.244 . S
C152 O147 1.256 . S
C153 O144 1.239 . S
C153 O145 1.256 . S
O154 Mn136 2.221 . S
O154 Mn138 2.290 . S
O154 C148 1.278 . S
O155 Mn138 2.251 . S
O155 C148 1.241 . S
C156 C157 1.170 . S
C156 C158 1.380 . S
C157 C156 1.170 . S
C158 C156 1.380 . S
C158 C159 1.170 . S
C159 C158 1.170 . S
C160 C161 1.170 . S
C160 C162 1.380 . S
C161 C160 1.170 . S
C162 C160 1.380 . S
C162 C163 1.170 . S
C163 C162 1.170 . S
C164 C165 1.170 . S
C164 C166 1.380 . S
C165 C164 1.170 . S
C166 C164 1.380 . S
C166 C167 1.170 . S
C167 C166 1.170 . S
C168 C169 1.170 . S
C168 C170 1.380 . S
C169 C168 1.170 . S
C170 C168 1.380 . S
C170 C171 1.170 . S
C171 C170 1.170 . S
C172 C173 1.170 1_556 S
C172 C174 1.380 . S
C173 C172 1.170 1_554 S
C174 C172 1.380 . S
C174 C175 1.170 . S
C175 C174 1.170 . S
C176 C177 1.170 1_556 S
C176 C178 1.380 . S
C177 C176 1.170 1_554 S
C178 C176 1.380 . S
C178 C179 1.170 . S
C179 C178 1.170 . S
C180 C181 1.170 1_556 S
C180 C182 1.380 . S
C181 C180 1.170 1_554 S
C182 C180 1.380 . S
C182 C183 1.170 . S
C183 C182 1.170 . S
C184 C185 1.170 1_556 S
C184 C186 1.380 1_655 S
C185 C184 1.170 1_554 S
C186 C184 1.380 1_455 S
C186 C187 1.170 . S
C187 C186 1.170 . S
C188 C189 1.170 1_655 S
C188 C190 1.380 . S
C189 C188 1.170 1_455 S
C190 C188 1.380 . S
C190 C191 1.170 . S
C191 C190 1.170 . S
C192 C193 1.170 . S
C192 C194 1.380 . S
C193 C192 1.170 . S
C194 C192 1.380 . S
C194 C195 1.170 . S
C195 C194 1.170 . S
C196 C197 1.170 . S
C196 C198 1.380 . S
C197 C196 1.170 . S
C198 C196 1.380 . S
C198 C199 1.170 . S
C199 C198 1.170 . S
C200 C201 1.170 . S
C200 C202 1.380 . S
C201 C200 1.170 . S
C202 C200 1.380 . S
C202 C203 1.170 . S
C203 C202 1.170 . S
C204 C205 1.167 1_456 S
C204 C206 1.380 . S
C205 C204 1.167 1_654 S
C206 C204 1.380 . S
C206 C207 1.170 . S
C207 C206 1.170 . S
C208 C209 1.170 . S
C208 C210 1.380 . S
C209 C208 1.170 . S
C210 C208 1.380 . S
C210 C211 1.170 . S
C211 C210 1.170 . S
C212 C213 1.170 . S
C212 C214 1.380 . S
C213 C212 1.170 . S
C214 C212 1.380 . S
C214 C215 1.170 . S
C215 C214 1.170 . S
C216 C217 1.170 . S
C216 C218 1.380 . S
C217 C216 1.170 . S
C218 C216 1.380 . S
C218 C219 1.170 . S
C219 C218 1.170 . S
C220 C221 1.170 . S
C220 C222 1.380 1_554 S
C221 C220 1.170 . S
C222 C220 1.380 1_556 S
C222 C223 1.170 . S
C223 C222 1.170 . S
C224 C225 1.170 . S
C224 C226 1.380 . S
C225 C224 1.170 . S
C226 C224 1.380 . S
C226 C227 1.170 1_554 S
C227 C226 1.170 1_556 S
C228 C229 1.170 . S
C228 C230 1.380 1_554 S
C229 C228 1.170 . S
C230 C228 1.380 1_556 S
C230 C231 1.170 . S
C231 C230 1.170 . S
C232 C233 1.170 . S
C232 C234 1.380 . S
C233 C232 1.170 . S
C234 C232 1.380 . S
C234 C235 1.170 1_554 S
C235 C234 1.170 1_556 S
C236 C237 1.170 . S
C236 C238 1.380 . S
C237 C236 1.170 . S
C238 C236 1.380 . S
C238 C239 1.170 . S
C239 C238 1.170 . S
C240 C241 1.170 . S
C240 C242 1.380 . S
C241 C240 1.170 . S
C242 C240 1.380 . S
C242 C243 1.170 . S
C243 C242 1.170 . S
C244 C245 1.170 . S
C244 C246 1.380 . S
C245 C244 1.170 . S
C246 C244 1.380 . S
C246 C247 1.170 . S
C247 C246 1.170 . S
C248 C249 1.170 . S
C248 C250 1.380 . S
C249 C248 1.170 . S
C250 C248 1.380 . S
C250 C251 1.170 . S
C251 C250 1.170 . S
C157 C61 1.683 . S
C159 C88 1.622 . S
C163 C106 1.379 . S
C161 C70 1.581 . S
C167 C127 1.622 . S
C165 C43 1.693 . S
C171 C151 1.424 . S
C169 C52 1.548 . S
C175 C85 1.481 1_565 S
C173 C25 1.559 . S
C177 C34 1.430 . S
C179 C109 1.219 . S
C181 C7 1.574 . S
C183 C130 1.504 . S
C185 C16 1.410 . S
C187 C148 1.320 . S
C191 C90 0.714 . S
C189 C50 0.740 1_455 S
C195 C108 0.857 . S
C193 C59 0.896 . S
C199 C129 0.732 . S
C197 C67 0.674 . S
C201 C41 0.794 . S
C203 C153 0.874 . S
C205 C14 0.752 . S
C207 C89 0.793 . S
C211 C107 0.949 1_565 S
C209 C23 0.861 1_556 S
C215 C128 0.752 . S
C213 C31 0.799 1_556 S
C217 C5 0.910 1_556 S
C219 C152 0.925 . S
C221 C49 1.589 1_455 S
C223 C86 1.519 . S
C225 C58 1.677 . S
C227 C110 1.680 . S
C231 C131 1.501 . S
C229 C68 1.576 . S
C235 C149 1.669 . S
C233 C40 1.671 . S
C237 C13 1.431 . S
C239 C87 1.412 . S
C243 C111 1.536 . S
C241 C22 1.584 . S
C247 C132 1.406 . S
C245 C32 1.418 . S
C249 C4 1.577 . S
C251 C150 1.538 . S
