# Generated by pormake.
# Topology pth, (4,4)-cn, num edge types: 1
# Building blocks:
#     Node 0, Type 0, BuildingBlock: AZAVOO_clean_sbu_0, # of connection points: 4
#     Node 1, Type 0, BuildingBlock: AZAVOO_clean_sbu_0, # of connection points: 4
#     Node 2, Type 0, BuildingBlock: AZAVOO_clean_sbu_0, # of connection points: 4
#     Node 3, Type 1, BuildingBlock: MIFKUJ_clean_linker_1, # of connection points: 4
#     Node 4, Type 1, BuildingBlock: MIFKUJ_clean_linker_1, # of connection points: 4
#     Node 5, Type 1, BuildingBlock: MIFKUJ_clean_linker_1, # of connection points: 4
#     Edge 6, Type (0, 1), BuildingBlock: EZIPEK_clean_linker_0, # of connection points: 2
#     Edge 7, Type (0, 1), BuildingBlock: EZIPEK_clean_linker_0, # of connection points: 2
#     Edge 8, Type (0, 1), BuildingBlock: EZIPEK_clean_linker_0, # of connection points: 2
#     Edge 9, Type (0, 1), BuildingBlock: EZIPEK_clean_linker_0, # of connection points: 2
#     Edge 10, Type (0, 1), BuildingBlock: EZIPEK_clean_linker_0, # of connection points: 2
#     Edge 11, Type (0, 1), BuildingBlock: EZIPEK_clean_linker_0, # of connection points: 2
#     Edge 12, Type (0, 1), BuildingBlock: EZIPEK_clean_linker_0, # of connection points: 2
#     Edge 13, Type (0, 1), BuildingBlock: EZIPEK_clean_linker_0, # of connection points: 2
#     Edge 14, Type (0, 1), BuildingBlock: EZIPEK_clean_linker_0, # of connection points: 2
#     Edge 15, Type (0, 1), BuildingBlock: EZIPEK_clean_linker_0, # of connection points: 2
#     Edge 16, Type (0, 1), BuildingBlock: EZIPEK_clean_linker_0, # of connection points: 2
#     Edge 17, Type (0, 1), BuildingBlock: EZIPEK_clean_linker_0, # of connection points: 2
# Relax obj value: 0.066
# Max RMSD: 0.214
# Mean RMSD: 0.113
data_MOF--net-pth--node1-AZAVOO_clean_sbu_0--node2-MIFKUJ_clean_linker_1--edge1-EZIPEK_clean_linker_0
_symmetry_space_group_name_H-M    P1
_symmetry_Int_Tables_number       1
_symmetry_cell_setting            triclinic
loop_
_symmetry_equiv_pos_as_xyz
'x, y, z'
_cell_length_a     22.876229
_cell_length_b     23.376349
_cell_length_c     48.84223
_cell_angle_alpha  91.056944
_cell_angle_beta   93.01355
_cell_angle_gamma 122.34915
loop_
_atom_site_label
_atom_site_type_symbol
_atom_site_fract_x
_atom_site_fract_y
_atom_site_fract_z
_atom_type_partial_charge
Mg0 Mg 0.1037 0.05409 0.03004 0.0
O1 O 0.01149 -0.00167 -0.0017 0.0
O2 O -0.00109 0.07441 0.97622 0.0
Mg3 Mg 0.09184 0.18012 0.99109 0.0
C4 C 0.97944 0.01319 0.98056 0.0
C5 C 0.09745 0.95879 0.07407 0.0
O6 O 0.15175 0.017 0.0838 0.0
O7 O 0.04428 0.08382 0.05673 0.0
O8 O 0.05169 0.16953 0.03394 0.0
O9 O 0.1753 0.05722 -0.00045 0.0
O10 O 0.15131 0.13636 0.00581 0.0
C11 C 0.03617 0.13361 0.05493 0.0
C12 C 0.18273 0.11387 0.99266 0.0
O13 O 0.06468 0.95657 0.05187 0.0
Mg14 Mg 0.93874 0.98154 0.35852 0.0
O15 O 0.03792 0.01425 0.38517 0.0
O16 O 0.05245 0.0874 0.41885 0.0
Mg17 Mg 0.96398 0.10561 0.41236 0.0
C18 C 0.07149 0.05198 0.40664 0.0
C19 C 0.92811 0.88515 0.31087 0.0
O20 O 0.86343 0.86887 0.30936 0.0
O21 O 0.98934 0.08097 0.33707 0.0
O22 O -0.00039 0.15273 0.37083 0.0
O23 O 0.87376 0.90098 0.38741 0.0
O24 O 0.89774 0.00606 0.39011 0.0
C25 C 0.00499 0.1397 0.34587 0.0
C26 C 0.86716 0.94675 0.39955 0.0
O27 O 0.97217 0.93158 0.32814 0.0
Mg28 Mg 0.01016 0.99397 0.68568 0.0
O29 O 0.06784 0.08198 0.71768 0.0
O30 O 0.99005 0.09023 0.74045 0.0
Mg31 Mg 0.88168 0.00207 0.7241 0.0
C32 C 0.05256 0.1106 0.7359 0.0
C33 C 0.10492 0.0014 0.64226 0.0
O34 O 0.04639 0.94444 0.6346 0.0
O35 O 0.97965 0.05387 0.65933 0.0
O36 O 0.89279 0.0464 0.68156 0.0
O37 O 0.00748 0.92127 0.71584 0.0
O38 O 0.92657 0.94519 0.70948 0.0
C39 C 0.92972 0.06296 0.66092 0.0
C40 C 0.94944 0.91301 0.72249 0.0
O41 O 0.10824 0.03504 0.66361 0.0
H42 H 0.10849 0.45855 0.15046 0.0
H43 H 0.10155 0.36552 0.12317 0.0
H44 H 0.8974 0.22651 0.1497 0.0
H45 H 0.90312 0.32006 0.17609 0.0
H46 H 0.01538 0.50347 0.14351 0.0
H47 H 0.12509 0.47219 0.23357 0.0
H48 H 0.13486 0.3983 0.26628 0.0
H49 H 0.91308 0.25772 0.2561 0.0
H50 H 0.90308 0.33342 0.22486 0.0
H51 H 0.90009 0.53821 0.23754 0.0
H52 H 0.88821 0.62406 0.26165 0.0
H53 H 0.08369 0.78214 0.23413 0.0
H54 H 0.09647 0.69615 0.21032 0.0
H55 H 0.00155 0.50875 0.2445 0.0
H56 H 0.9151 0.59297 0.16966 0.0
H57 H 0.92904 0.68833 0.1437 0.0
H58 H 0.13327 0.74018 0.12459 0.0
H59 H 0.11923 0.64485 0.15023 0.0
C60 C 0.00693 0.39584 0.16572 0.0
C61 C 0.06245 0.40801 0.15053 0.0
C62 C 0.05849 0.35512 0.13503 0.0
C63 C -0.0011 0.28945 0.13446 0.0
C64 C 0.94376 0.2769 0.14999 0.0
C65 C 0.94744 0.33002 0.16525 0.0
C66 C 0.00922 0.45269 0.18063 0.0
C67 C 0.0125 0.50474 0.1656 0.0
C68 C 0.00727 0.4554 0.20939 0.0
C69 C 0.01346 0.4075 0.2266 0.0
C70 C 0.0788 0.42496 0.23817 0.0
C71 C 0.08445 0.38284 0.25663 0.0
C72 C 0.02481 0.32224 0.2633 0.0
C73 C 0.95976 0.30388 0.25092 0.0
C74 C 0.95401 0.34681 0.23308 0.0
C75 C -0.00115 0.61081 0.22197 0.0
C76 C 0.94055 0.59128 0.23675 0.0
C77 C 0.93357 0.64007 0.25034 0.0
C78 C 0.98482 0.7091 0.2494 0.0
C79 C 0.04346 0.72898 0.23482 0.0
C80 C 0.05059 0.68004 0.22127 0.0
C81 C 0.00462 0.5582 0.20728 0.0
C82 C 0.00376 0.50731 0.22238 0.0
C83 C 0.01061 0.55766 0.17861 0.0
C84 C 0.01632 0.61225 0.16189 0.0
C85 C 0.96266 0.62473 0.15975 0.0
C86 C 0.97057 0.6789 0.14504 0.0
C87 C 0.03236 0.72126 0.13247 0.0
C88 C 0.0854 0.70804 0.13426 0.0
C89 C 0.07728 0.65368 0.14874 0.0
H90 H 0.65064 0.09379 0.45672 0.0
H91 H 0.71695 0.05089 0.43633 0.0
H92 H 0.67116 0.91632 0.50232 0.0
H93 H 0.60342 0.95765 0.52239 0.0
H94 H 0.5164 0.03373 0.4673 0.0
H95 H 0.7347 0.15899 0.52153 0.0
H96 H 0.83509 0.17248 0.54917 0.0
H97 H 0.6975 0.0357 0.60697 0.0
H98 H 0.59767 0.02213 0.57962 0.0
H99 H 0.41947 0.99054 0.56757 0.0
H100 H 0.32786 0.98287 0.59393 0.0
H101 H 0.35304 0.15958 0.55628 0.0
H102 H 0.44459 0.16644 0.52915 0.0
H103 H 0.56034 0.10551 0.56637 0.0
H104 H 0.34124 0.97877 0.5098 0.0
H105 H 0.24441 0.9786 0.48596 0.0
H106 H 0.38379 0.12145 0.43014 0.0
H107 H 0.48201 0.12617 0.45549 0.0
C108 C 0.62297 0.02971 0.49127 0.0
C109 C 0.65461 0.05492 0.46674 0.0
C110 C 0.69251 0.03072 0.45522 0.0
C111 C 0.69908 0.98097 0.46803 0.0
C112 C 0.66692 0.95509 0.49234 0.0
C113 C 0.62869 0.97895 0.50377 0.0
C114 C 0.58352 0.05571 0.50396 0.0
C115 C 0.52674 0.0507 0.48883 0.0
C116 C 0.59769 0.07921 0.53185 0.0
C117 C 0.6588 0.08938 0.54852 0.0
C118 C 0.72631 0.13209 0.54019 0.0
C119 C 0.78338 0.14008 0.55592 0.0
C120 C 0.77318 0.10502 0.57998 0.0
C121 C 0.706 0.06316 0.58844 0.0
C122 C 0.64925 0.05555 0.5729 0.0
C123 C 0.43846 0.07896 0.54647 0.0
C124 C 0.40555 0.02786 0.56504 0.0
C125 C 0.35329 0.02333 0.57997 0.0
C126 C 0.33371 0.07042 0.57688 0.0
C127 C 0.36749 0.12267 0.55873 0.0
C128 C 0.4195 0.12667 0.5434 0.0
C129 C 0.49139 0.0797 0.53023 0.0
C130 C 0.55114 0.09035 0.54464 0.0
C131 C 0.48001 0.06217 0.50169 0.0
C132 C 0.41951 0.05448 0.48512 0.0
C133 C 0.35147 0.01111 0.49278 0.0
C134 C 0.296 0.01038 0.47899 0.0
C135 C 0.30706 0.05073 0.45651 0.0
C136 C 0.37432 0.0906 0.44765 0.0
C137 C 0.43018 0.09292 0.462 0.0
H138 H 0.46953 0.38978 0.80505 0.0
H139 H 0.36248 0.30033 0.7791 0.0
H140 H 0.24608 0.37077 0.81838 0.0
H141 H 0.35235 0.45883 0.84479 0.0
H142 H 0.53654 0.53117 0.80797 0.0
H143 H 0.45408 0.35618 0.86507 0.0
H144 H 0.37887 0.25824 0.89156 0.0
H145 H 0.33086 0.3815 0.94033 0.0
H146 H 0.40577 0.47983 0.91365 0.0
H147 H 0.57815 0.68281 0.90503 0.0
H148 H 0.669 0.78651 0.93113 0.0
H149 H 0.8233 0.7471 0.90683 0.0
H150 H 0.73246 0.64327 0.88067 0.0
H151 H 0.54075 0.54491 0.90967 0.0
H152 H 0.64674 0.72524 0.84234 0.0
H153 H 0.74167 0.80596 0.81512 0.0
H154 H 0.76873 0.6463 0.78685 0.0
H155 H 0.67467 0.5658 0.81422 0.0
C156 C 0.4186 0.43048 0.82691 0.0
C157 C 0.421 0.386 0.80798 0.0
C158 C 0.36018 0.33511 0.79329 0.0
C159 C 0.2967 0.32916 0.79697 0.0
C160 C 0.29466 0.37468 0.81538 0.0
C161 C 0.35508 0.42463 0.8304 0.0
C162 C 0.48183 0.48294 0.84346 0.0
C163 C 0.53785 0.53384 0.83022 0.0
C164 C 0.48468 0.48505 0.87241 0.0
C165 C 0.43502 0.4252 0.88724 0.0
C166 C 0.42623 0.36193 0.88105 0.0
C167 C 0.38361 0.30614 0.89614 0.0
C168 C 0.34926 0.31286 0.91767 0.0
C169 C 0.35679 0.37558 0.9236 0.0
C170 C 0.39961 0.43152 0.90852 0.0
C171 C 0.64873 0.65569 0.89083 0.0
C172 C 0.63147 0.69622 0.90549 0.0
C173 C 0.68309 0.75529 0.92027 0.0
C174 C 0.75258 0.7742 0.92082 0.0
C175 C 0.76984 0.73315 0.90656 0.0
C176 C 0.71821 0.67417 0.89167 0.0
C177 C 0.59377 0.59521 0.87413 0.0
C178 C 0.53927 0.54238 0.88742 0.0
C179 C 0.59463 0.58931 0.84529 0.0
C180 C 0.65382 0.63961 0.83026 0.0
C181 C 0.67392 0.70792 0.83068 0.0
C182 C 0.72799 0.75388 0.81528 0.0
C183 C 0.76211 0.73182 0.79925 0.0
C184 C 0.74319 0.66406 0.79934 0.0
C185 C 0.68933 0.61824 0.81472 0.0
C186 C 0.9585 0.1663 0.07375 0.0
C187 C 0.01333 0.15541 0.07858 0.0
C188 C 0.03896 0.21125 0.12446 0.0
C189 C 0.99495 0.23466 0.11706 0.0
N190 N 0.91368 0.23681 0.08412 0.0
N191 N 0.10972 0.17135 0.10838 0.0
C192 C 0.95385 0.21187 0.09175 0.0
C193 C 0.05379 0.17748 0.10415 0.0
N194 N 0.91113 0.13299 0.05188 0.0
N195 N 0.06694 0.22192 0.15088 0.0
H196 H 0.12377 0.14786 0.09421 0.0
H197 H 0.14568 0.19426 0.12527 0.0
H198 H 0.05683 0.24666 0.16616 0.0
H199 H 0.09414 0.20043 0.15821 0.0
H200 H 0.86645 0.13417 0.04854 0.0
H201 H 0.91308 0.09851 0.03867 0.0
H202 H 0.88905 0.22802 0.06456 0.0
H203 H 0.90877 0.27034 0.09667 0.0
C204 C 0.85123 0.97133 0.4471 0.0
C205 C 0.82131 0.93229 0.42208 0.0
C206 C 0.7066 0.90488 0.43378 0.0
C207 C 0.73916 0.95572 0.45541 0.0
N208 N 0.84113 0.03487 0.48442 0.0
N209 N 0.72018 0.85756 0.39179 0.0
C210 C 0.81102 0.98732 0.46298 0.0
C211 C 0.74849 0.89612 0.41583 0.0
N212 N 0.91831 0.99321 0.45527 0.0
N213 N 0.63581 0.86582 0.43031 0.0
H214 H 0.74875 0.84774 0.37873 0.0
H215 H 0.6691 0.83734 0.38419 0.0
H216 H 0.60405 0.87195 0.44301 0.0
H217 H 0.60854 0.82379 0.41653 0.0
H218 H 0.94276 0.01832 0.47416 0.0
H219 H 0.94723 0.98004 0.44391 0.0
H220 H 0.89445 0.0651 0.48918 0.0
H221 H 0.81264 0.04635 0.49685 0.0
C222 C 0.83761 0.8104 0.73268 0.0
C223 C 0.90579 0.86299 0.74221 0.0
C224 C 0.88265 0.82437 0.78904 0.0
C225 C 0.81221 0.77745 0.77987 0.0
N226 N 0.71969 0.73158 0.74389 0.0
N227 N 0.99364 0.92335 0.77935 0.0
C228 C 0.78888 0.77199 0.75193 0.0
C229 C 0.92881 0.87061 0.77036 0.0
N230 N 0.82026 0.79541 0.7051 0.0
N231 N 0.90536 0.82382 0.81543 0.0
H232 H 0.02928 0.95683 0.76611 0.0
H233 H 0.01088 0.93651 0.79998 0.0
H234 H 0.8724 0.79162 0.82972 0.0
H235 H 0.95734 0.85176 0.82272 0.0
H236 H 0.77365 0.75314 0.69696 0.0
H237 H 0.8553 0.82103 0.69028 0.0
H238 H 0.69879 0.73182 0.72445 0.0
H239 H 0.68203 0.70188 0.75728 0.0
C240 C 0.07002 0.8394 0.07458 0.0
C241 C 0.07574 0.89614 0.08861 0.0
C242 C 0.05285 0.8382 0.13175 0.0
C243 C 0.04233 0.77985 0.11728 0.0
N244 N 0.02472 0.71906 0.07412 0.0
N245 N 0.05653 0.9434 0.12897 0.0
C246 C 0.04576 0.77862 0.0884 0.0
C247 C 0.06243 0.89378 0.11677 0.0
N248 N 0.09147 0.84456 0.04863 0.0
N249 N 0.05642 0.84171 0.15982 0.0
H250 H 0.06137 0.98402 0.11847 0.0
H251 H 0.03996 0.94071 0.14863 0.0
H252 H 0.04991 0.80222 0.17162 0.0
H253 H 0.07153 0.88585 0.1715 0.0
H254 H 0.09536 0.80707 0.03866 0.0
H255 H 0.11197 0.8888 0.03798 0.0
H256 H 0.01938 0.7137 0.05275 0.0
H257 H 0.00604 0.67333 0.08357 0.0
C258 C 0.19519 0.11428 0.42706 0.0
C259 C 0.13282 0.05211 0.41854 0.0
C260 C 0.18979 0.99106 0.4304 0.0
C261 C 0.2481 0.05183 0.44262 0.0
N262 N 0.29909 0.1692 0.45782 0.0
N263 N 0.06634 0.92942 0.41873 0.0
C264 C 0.2489 0.113 0.44244 0.0
C265 C 0.1288 0.98982 0.42194 0.0
N266 N 0.20456 0.17455 0.41962 0.0
N267 N 0.19298 0.93486 0.42625 0.0
H268 H 0.01931 0.92583 0.4145 0.0
H269 H 0.06034 0.88336 0.42348 0.0
H270 H 0.23749 0.93432 0.43144 0.0
H271 H 0.15403 0.89134 0.41504 0.0
H272 H 0.25171 0.22071 0.42322 0.0
H273 H 0.16805 0.17772 0.40717 0.0
H274 H 0.29777 0.21284 0.46042 0.0
H275 H 0.33795 0.16989 0.47026 0.0
C276 C 0.12502 0.16138 0.78036 0.0
C277 C 0.11036 0.1691 0.75254 0.0
C278 C 0.2174 0.28189 0.75389 0.0
C279 C 0.23183 0.27452 0.78178 0.0
N280 N 0.19714 0.21219 0.82288 0.0
N281 N 0.13402 0.23957 0.71414 0.0
C282 C 0.18471 0.21577 0.79544 0.0
C283 C 0.15423 0.23026 0.73967 0.0
N284 N 0.08346 0.10085 0.79192 0.0
N285 N 0.26471 0.33789 0.74094 0.0
H286 H 0.08771 0.20289 0.70332 0.0
H287 H 0.15975 0.28521 0.7045 0.0
H288 H 0.30965 0.37853 0.75106 0.0
H289 H 0.26171 0.34292 0.71988 0.0
H290 H 0.09559 0.08827 0.81078 0.0
H291 H 0.03759 0.06114 0.78201 0.0
H292 H 0.16125 0.17496 0.83493 0.0
H293 H 0.24249 0.24876 0.83423 0.0
C294 C 0.88038 0.04349 0.61208 0.0
C295 C 0.90746 0.0856 0.63672 0.0
C296 C 0.86103 0.1529 0.62031 0.0
C297 C 0.83157 0.10897 0.59638 0.0
N298 N 0.82964 0.0266 0.56545 0.0
N299 N 0.94058 0.19013 0.66114 0.0
C300 C 0.84753 0.05943 0.59083 0.0
C301 C 0.9035 0.14382 0.63973 0.0
N302 N 0.88052 0.98512 0.60981 0.0
N303 N 0.84575 0.20117 0.62493 0.0
H304 H 0.97261 0.18461 0.67542 0.0
H305 H 0.94462 0.2365 0.66341 0.0
H306 H 0.81744 0.2109 0.61041 0.0
H307 H 0.85853 0.22956 0.64341 0.0
H308 H 0.85376 0.94843 0.59382 0.0
H309 H 0.90289 0.97018 0.62483 0.0
H310 H 0.846 0.99488 0.55917 0.0
H311 H 0.80384 0.03613 0.54971 0.0
C312 C 0.91291 0.95136 0.93562 0.0
C313 C 0.91705 0.9564 0.96482 0.0
C314 C 0.81363 0.84152 0.96514 0.0
C315 C 0.80768 0.83777 0.93602 0.0
N316 N 0.84162 0.89404 0.89356 0.0
N317 N 0.86095 0.91407 0.00679 0.0
C318 C 0.85426 0.8943 0.92126 0.0
C319 C 0.86418 0.90373 0.97941 0.0
N320 N 0.96633 -0.00096 0.92155 0.0
N321 N 0.77281 0.78499 0.97918 0.0
H322 H 0.89563 0.95998 0.01772 0.0
H323 H 0.81978 0.88002 0.01794 0.0
H324 H 0.73523 0.73831 0.96949 0.0
H325 H 0.78022 0.78284 0.00027 0.0
H326 H 0.97007 0.99328 0.90064 0.0
H327 H 0.00979 0.0423 0.93096 0.0
H328 H 0.86944 0.93654 0.88213 0.0
H329 H 0.79923 0.85311 0.88232 0.0
C330 C 0.97007 0.80579 0.30888 0.0
C331 C 0.94764 0.84424 0.29488 0.0
C332 C 0.95177 0.79577 0.25058 0.0
C333 C 0.97735 0.76002 0.26461 0.0
N334 N 0.02525 0.74186 0.30622 0.0
N335 N 0.92956 0.88627 0.25265 0.0
C336 C 0.99114 0.76861 0.29351 0.0
C337 C 0.94207 0.84227 0.26575 0.0
N338 N 0.96753 0.80161 0.33675 0.0
N339 N 0.93473 0.78365 0.22291 0.0
H340 H 0.92256 0.92119 0.26316 0.0
H341 H 0.93196 0.89231 0.23159 0.0
H342 H 0.94276 0.75122 0.21104 0.0
H343 H 0.90855 0.80216 0.21198 0.0
H344 H 0.9758 0.76837 0.34764 0.0
H345 H 0.95095 0.82668 0.34887 0.0
H346 H 0.04348 0.75256 0.32683 0.0
H347 H 0.04108 0.7139 0.29558 0.0
C348 C 0.15745 0.03033 0.59687 0.0
C349 C 0.16568 0.02675 0.62569 0.0
C350 C 0.28917 0.07216 0.62222 0.0
C351 C 0.27787 0.0639 0.59322 0.0
N352 N 0.19879 0.0271 0.55263 0.0
N353 N 0.23797 0.03481 0.66547 0.0
C354 C 0.21144 0.04126 0.58037 0.0
C355 C 0.23137 0.04583 0.6384 0.0
N356 N 0.09914 0.02555 0.58533 0.0
N357 N 0.35528 0.10537 0.63424 0.0
H358 H 0.1965 0.01259 0.67793 0.0
H359 H 0.28327 0.04135 0.67486 0.0
H360 H 0.39885 0.12593 0.62285 0.0
H361 H 0.367 0.11848 0.6552 0.0
H362 H 0.09352 0.03418 0.56479 0.0
H363 H 0.05963 0.02036 0.59687 0.0
H364 H 0.14923 0.00318 0.54273 0.0
H365 H 0.23675 0.03413 0.53973 0.0
C366 C 0.29734 0.21147 0.98133 0.0
C367 C 0.23053 0.15582 0.97212 0.0
C368 C 0.24318 0.19985 0.92633 0.0
C369 C 0.30993 0.25583 0.93558 0.0
N370 N 0.40792 0.30634 0.96915 0.0
N371 N 0.14696 0.08708 0.93498 0.0
C372 C 0.33938 0.2589 0.96227 0.0
C373 C 0.20582 0.14669 0.94424 0.0
N374 N 0.31962 0.22005 0.0085 0.0
N375 N 0.21427 0.19915 0.90101 0.0
H376 H 0.11891 0.04754 0.94784 0.0
H377 H 0.12957 0.07447 0.91433 0.0
H378 H 0.24022 0.23724 0.88735 0.0
H379 H 0.16296 0.16347 0.89424 0.0
H380 H 0.36371 0.26404 0.01719 0.0
H381 H 0.2919 0.18425 0.02278 0.0
H382 H 0.43424 0.30693 0.98731 0.0
H383 H 0.44041 0.34176 0.95562 0.0
C384 C 0.06195 0.20583 0.30448 0.0
C385 C 0.01602 0.19054 0.32558 0.0
C386 C 0.99241 0.27493 0.30923 0.0
C387 C 0.02826 0.28155 0.2856 0.0
N388 N 0.09075 0.24665 0.25879 0.0
N389 N 0.92155 0.19736 0.34227 0.0
C390 C 0.06174 0.24545 0.28268 0.0
C391 C 0.97707 0.22173 0.32656 0.0
N392 N 0.10673 0.18405 0.30559 0.0
N393 N 0.97295 0.31949 0.31522 0.0
H394 H 0.90256 0.1536 0.35314 0.0
H395 H 0.88857 0.21542 0.34155 0.0
H396 H 0.98495 0.36054 0.30333 0.0
H397 H 0.95188 0.31986 0.3336 0.0
H398 H 0.14556 0.1989 0.29207 0.0
H399 H 0.1095 0.15663 0.32166 0.0
H400 H 0.10941 0.21566 0.25451 0.0
H401 H 0.09096 0.27449 0.24231 0.0
loop_
_geom_bond_atom_site_label_1
_geom_bond_atom_site_label_2
_geom_bond_distance
_geom_bond_site_symmetry_2
_ccdc_geom_bond_type
Mg0 O1 2.028 1_445 S
Mg0 O7 1.986 . S
Mg0 O9 2.114 . S
Mg0 O10 2.251 . S
Mg0 O13 2.010 1_545 S
O1 Mg0 2.028 1_665 S
O1 C4 1.250 1_554 S
O2 Mg3 2.028 1_655 S
O2 C4 1.248 1_545 S
Mg3 O2 2.028 1_455 S
Mg3 O8 2.032 1_556 S
Mg3 O10 2.079 1_556 S
C4 O1 1.250 1_556 S
C4 O2 1.248 1_565 S
C5 O6 1.264 . S
C5 O13 1.249 . S
O6 C5 1.264 . S
O7 Mg0 1.986 . S
O7 C11 1.246 . S
O8 Mg3 2.032 1_554 S
O8 C11 1.259 . S
O9 Mg0 2.114 . S
O9 C12 1.252 1_554 S
O10 Mg0 2.251 . S
O10 Mg3 2.079 1_554 S
O10 C12 1.273 1_554 S
C11 O7 1.246 . S
C11 O8 1.259 . S
C12 O9 1.252 1_556 S
C12 O10 1.273 1_556 S
O13 Mg0 2.010 1_565 S
O13 C5 1.249 . S
Mg14 O15 2.028 1_655 S
Mg14 O21 1.986 1_655 S
Mg14 O23 2.114 1_545 S
Mg14 O24 2.251 . S
Mg14 O27 2.010 1_545 S
O15 Mg14 2.028 1_455 S
O15 C18 1.250 . S
O16 Mg17 2.028 . S
O16 C18 1.248 . S
Mg17 O16 2.028 . S
Mg17 O22 2.032 . S
Mg17 O24 2.079 1_455 S
C18 O15 1.250 . S
C18 O16 1.248 . S
C19 O20 1.264 . S
C19 O27 1.249 . S
O20 C19 1.264 . S
O21 Mg14 1.986 1_455 S
O21 C25 1.246 . S
O22 Mg17 2.032 . S
O22 C25 1.259 . S
O23 Mg14 2.114 1_565 S
O23 C26 1.252 . S
O24 Mg14 2.251 . S
O24 Mg17 2.079 1_655 S
O24 C26 1.273 1_545 S
C25 O21 1.246 . S
C25 O22 1.259 . S
C26 O23 1.252 . S
C26 O24 1.273 1_565 S
O27 Mg14 2.010 1_565 S
O27 C19 1.249 . S
Mg28 O29 2.028 1_565 S
Mg28 O35 1.986 1_465 S
Mg28 O37 2.114 1_455 S
Mg28 O38 2.251 1_455 S
Mg28 O41 2.010 . S
O29 Mg28 2.028 1_545 S
O29 C32 1.250 . S
O30 Mg31 2.028 1_455 S
O30 C32 1.248 . S
Mg31 O30 2.028 1_655 S
Mg31 O36 2.032 . S
Mg31 O38 2.079 1_545 S
C32 O29 1.250 . S
C32 O30 1.248 . S
C33 O34 1.264 . S
C33 O41 1.249 . S
O34 C33 1.264 . S
O35 Mg28 1.986 1_645 S
O35 C39 1.246 . S
O36 Mg31 2.032 . S
O36 C39 1.259 . S
O37 Mg28 2.114 1_655 S
O37 C40 1.252 . S
O38 Mg28 2.251 1_655 S
O38 Mg31 2.079 1_565 S
O38 C40 1.273 . S
C39 O35 1.246 . S
C39 O36 1.259 . S
C40 O37 1.252 . S
C40 O38 1.273 . S
O41 Mg28 2.010 . S
O41 C33 1.249 . S
H42 C61 0.949 . S
H43 C62 0.950 . S
H44 C64 0.950 . S
H45 C65 0.950 . S
H46 C67 0.950 . S
H47 C70 0.950 . S
H48 C71 0.950 . S
H49 C73 0.951 . S
H50 C74 0.949 . S
H51 C76 0.949 . S
H52 C77 0.950 . S
H53 C79 0.950 . S
H54 C80 0.950 . S
H55 C82 0.950 . S
H56 C85 0.950 . S
H57 C86 0.950 . S
H58 C88 0.951 . S
H59 C89 0.949 . S
C60 C61 1.376 . S
C60 C65 1.386 1_455 S
C60 C66 1.483 . S
C61 H42 0.949 . S
C61 C60 1.376 . S
C61 C62 1.397 . S
C62 H43 0.950 . S
C62 C61 1.397 . S
C62 C63 1.391 . S
C63 C62 1.391 . S
C63 C64 1.405 1_455 S
C64 H44 0.950 . S
C64 C63 1.405 1_655 S
C64 C65 1.367 . S
C65 H45 0.950 . S
C65 C60 1.386 1_655 S
C65 C64 1.367 . S
C66 C60 1.483 . S
C66 C67 1.382 . S
C66 C68 1.403 . S
C67 H46 0.950 . S
C67 C66 1.382 . S
C67 C83 1.411 . S
C68 C66 1.403 . S
C68 C69 1.489 . S
C68 C82 1.411 . S
C69 C68 1.489 . S
C69 C70 1.383 . S
C69 C74 1.382 1_455 S
C70 H47 0.950 . S
C70 C69 1.383 . S
C70 C71 1.395 . S
C71 H48 0.950 . S
C71 C70 1.395 . S
C71 C72 1.288 . S
C72 C71 1.288 . S
C72 C73 1.392 1_455 S
C73 H49 0.951 . S
C73 C72 1.392 1_655 S
C73 C74 1.392 . S
C74 H50 0.949 . S
C74 C69 1.382 1_655 S
C74 C73 1.392 . S
C75 C76 1.376 1_455 S
C75 C80 1.386 . S
C75 C81 1.483 . S
C76 H51 0.949 . S
C76 C75 1.376 1_655 S
C76 C77 1.397 . S
C77 H52 0.950 . S
C77 C76 1.397 . S
C77 C78 1.391 1_655 S
C78 C77 1.391 1_455 S
C78 C79 1.405 . S
C79 H53 0.950 . S
C79 C78 1.405 . S
C79 C80 1.367 . S
C80 H54 0.950 . S
C80 C75 1.386 . S
C80 C79 1.367 . S
C81 C75 1.483 . S
C81 C82 1.382 . S
C81 C83 1.403 . S
C82 H55 0.950 . S
C82 C68 1.411 . S
C82 C81 1.382 . S
C83 C67 1.411 . S
C83 C81 1.403 . S
C83 C84 1.489 . S
C84 C83 1.489 . S
C84 C85 1.383 1_455 S
C84 C89 1.382 . S
C85 H56 0.950 . S
C85 C84 1.383 1_655 S
C85 C86 1.395 . S
C86 H57 0.950 . S
C86 C85 1.395 . S
C86 C87 1.288 1_655 S
C87 C86 1.288 1_455 S
C87 C88 1.392 . S
C88 H58 0.951 . S
C88 C87 1.392 . S
C88 C89 1.392 . S
C89 H59 0.949 . S
C89 C84 1.382 . S
C89 C88 1.392 . S
H90 C109 0.949 . S
H91 C110 0.950 . S
H92 C112 0.959 . S
H93 C113 0.950 1_565 S
H94 C115 0.950 . S
H95 C118 0.950 . S
H96 C119 0.950 . S
H97 C121 0.951 . S
H98 C122 0.949 . S
H99 C124 0.949 . S
H100 C125 0.950 . S
H101 C127 0.950 . S
H102 C128 0.950 . S
H103 C130 0.950 . S
H104 C133 0.950 1_565 S
H105 C134 0.950 1_565 S
H106 C136 0.951 . S
H107 C137 0.949 . S
C108 C109 1.376 . S
C108 C113 1.386 . S
C108 C114 1.483 . S
C109 H90 0.949 . S
C109 C108 1.376 . S
C109 C110 1.397 . S
C110 H91 0.950 . S
C110 C109 1.397 . S
C110 C111 1.391 . S
C111 C110 1.391 . S
C111 C112 1.400 1_545 S
C112 H92 0.959 . S
C112 C111 1.400 1_565 S
C112 C113 1.363 1_565 S
C113 H93 0.950 1_545 S
C113 C108 1.386 . S
C113 C112 1.363 1_545 S
C114 C108 1.483 . S
C114 C115 1.382 . S
C114 C116 1.403 . S
C115 H94 0.950 . S
C115 C114 1.382 . S
C115 C131 1.411 . S
C116 C114 1.403 . S
C116 C117 1.489 . S
C116 C130 1.411 . S
C117 C116 1.489 . S
C117 C118 1.383 . S
C117 C122 1.382 1_545 S
C118 H95 0.950 . S
C118 C117 1.383 . S
C118 C119 1.395 . S
C119 H96 0.950 . S
C119 C118 1.395 . S
C119 C120 1.288 . S
C120 C119 1.288 . S
C120 C121 1.392 1_545 S
C121 H97 0.951 . S
C121 C120 1.392 1_565 S
C121 C122 1.392 . S
C122 H98 0.949 . S
C122 C117 1.382 1_565 S
C122 C121 1.392 . S
C123 C124 1.376 1_545 S
C123 C128 1.386 . S
C123 C129 1.483 . S
C124 H99 0.949 . S
C124 C123 1.376 1_565 S
C124 C125 1.397 . S
C125 H100 0.950 . S
C125 C124 1.397 . S
C125 C126 1.391 1_565 S
C126 C125 1.391 1_545 S
C126 C127 1.405 . S
C127 H101 0.950 . S
C127 C126 1.405 . S
C127 C128 1.367 . S
C128 H102 0.950 . S
C128 C123 1.386 . S
C128 C127 1.367 . S
C129 C123 1.483 . S
C129 C130 1.382 . S
C129 C131 1.403 . S
C130 H103 0.950 . S
C130 C116 1.411 . S
C130 C129 1.382 . S
C131 C115 1.411 . S
C131 C129 1.403 . S
C131 C132 1.489 . S
C132 C131 1.489 . S
C132 C133 1.383 . S
C132 C137 1.382 . S
C133 H104 0.950 1_545 S
C133 C132 1.383 . S
C133 C134 1.395 . S
C134 H105 0.950 1_545 S
C134 C133 1.395 . S
C134 C135 1.288 . S
C135 C134 1.288 . S
C135 C136 1.392 . S
C136 H106 0.951 . S
C136 C135 1.392 . S
C136 C137 1.392 . S
C137 H107 0.949 . S
C137 C132 1.382 . S
C137 C136 1.392 . S
H138 C157 0.949 . S
H139 C158 0.950 . S
H140 C160 0.950 . S
H141 C161 0.950 . S
H142 C163 0.950 . S
H143 C166 0.950 . S
H144 C167 0.950 . S
H145 C169 0.951 . S
H146 C170 0.949 . S
H147 C172 0.949 . S
H148 C173 0.950 . S
H149 C175 0.950 . S
H150 C176 0.950 . S
H151 C178 0.950 . S
H152 C181 0.950 . S
H153 C182 0.950 . S
H154 C184 0.951 . S
H155 C185 0.949 . S
C156 C157 1.376 . S
C156 C161 1.386 . S
C156 C162 1.483 . S
C157 H138 0.949 . S
C157 C156 1.376 . S
C157 C158 1.397 . S
C158 H139 0.950 . S
C158 C157 1.397 . S
C158 C159 1.391 . S
C159 C158 1.391 . S
C159 C160 1.405 . S
C160 H140 0.950 . S
C160 C159 1.405 . S
C160 C161 1.367 . S
C161 H141 0.950 . S
C161 C156 1.386 . S
C161 C160 1.367 . S
C162 C156 1.483 . S
C162 C163 1.382 . S
C162 C164 1.403 . S
C163 H142 0.950 . S
C163 C162 1.382 . S
C163 C179 1.411 . S
C164 C162 1.403 . S
C164 C165 1.489 . S
C164 C178 1.411 . S
C165 C164 1.489 . S
C165 C166 1.383 . S
C165 C170 1.382 . S
C166 H143 0.950 . S
C166 C165 1.383 . S
C166 C167 1.395 . S
C167 H144 0.950 . S
C167 C166 1.395 . S
C167 C168 1.288 . S
C168 C167 1.288 . S
C168 C169 1.392 . S
C169 H145 0.951 . S
C169 C168 1.392 . S
C169 C170 1.392 . S
C170 H146 0.949 . S
C170 C165 1.382 . S
C170 C169 1.392 . S
C171 C172 1.376 . S
C171 C176 1.386 . S
C171 C177 1.483 . S
C172 H147 0.949 . S
C172 C171 1.376 . S
C172 C173 1.397 . S
C173 H148 0.950 . S
C173 C172 1.397 . S
C173 C174 1.391 . S
C174 C173 1.391 . S
C174 C175 1.405 . S
C175 H149 0.950 . S
C175 C174 1.405 . S
C175 C176 1.367 . S
C176 H150 0.950 . S
C176 C171 1.386 . S
C176 C175 1.367 . S
C177 C171 1.483 . S
C177 C178 1.382 . S
C177 C179 1.403 . S
C178 H151 0.950 . S
C178 C164 1.411 . S
C178 C177 1.382 . S
C179 C163 1.411 . S
C179 C177 1.403 . S
C179 C180 1.489 . S
C180 C179 1.489 . S
C180 C181 1.383 . S
C180 C185 1.382 . S
C181 H152 0.950 . S
C181 C180 1.383 . S
C181 C182 1.395 . S
C182 H153 0.950 . S
C182 C181 1.395 . S
C182 C183 1.288 . S
C183 C182 1.288 . S
C183 C184 1.392 . S
C184 H154 0.951 . S
C184 C183 1.392 . S
C184 C185 1.392 . S
C185 H155 0.949 . S
C185 C180 1.382 . S
C185 C184 1.392 . S
C186 C187 1.363 1_655 S
C186 C192 1.379 . S
C186 N194 1.356 . S
C187 C186 1.363 1_455 S
C187 C193 1.363 . S
C188 C189 1.363 . S
C188 C193 1.379 . S
C188 N195 1.356 . S
C189 C188 1.363 . S
C189 C192 1.363 1_455 S
N190 C192 1.356 . S
N190 H202 0.984 . S
N190 H203 0.985 . S
N191 C193 1.356 . S
N191 H196 0.984 . S
N191 H197 0.985 . S
C192 C186 1.379 . S
C192 C189 1.363 1_655 S
C192 N190 1.356 . S
C193 C187 1.363 . S
C193 C188 1.379 . S
C193 N191 1.356 . S
N194 C186 1.356 . S
N194 H200 0.984 . S
N194 H201 0.984 . S
N195 C188 1.356 . S
N195 H198 0.984 . S
N195 H199 0.985 . S
H196 N191 0.984 . S
H197 N191 0.985 . S
H198 N195 0.984 . S
H199 N195 0.985 . S
H200 N194 0.984 . S
H201 N194 0.984 . S
H202 N190 0.984 . S
H203 N190 0.985 . S
C204 C205 1.363 . S
C204 C210 1.379 . S
C204 N212 1.356 . S
C205 C204 1.363 . S
C205 C211 1.363 1_545 S
C206 C207 1.363 1_565 S
C206 C211 1.379 . S
C206 N213 1.356 . S
C207 C206 1.363 1_545 S
C207 C210 1.363 . S
N208 C210 1.356 . S
N208 H220 0.984 . S
N208 H221 0.985 . S
N209 C211 1.356 . S
N209 H214 0.984 . S
N209 H215 0.985 . S
C210 C204 1.379 . S
C210 C207 1.363 . S
C210 N208 1.356 . S
C211 C205 1.363 1_565 S
C211 C206 1.379 . S
C211 N209 1.356 . S
N212 C204 1.356 . S
N212 H218 0.984 . S
N212 H219 0.984 . S
N213 C206 1.356 . S
N213 H216 0.984 . S
N213 H217 0.985 . S
H214 N209 0.984 . S
H215 N209 0.985 . S
H216 N213 0.984 . S
H217 N213 0.985 . S
H218 N212 0.984 . S
H219 N212 0.984 . S
H220 N208 0.984 . S
H221 N208 0.985 . S
C222 C223 1.363 . S
C222 C228 1.379 . S
C222 N230 1.356 . S
C223 C222 1.363 . S
C223 C229 1.363 . S
C224 C225 1.363 . S
C224 C229 1.379 . S
C224 N231 1.356 . S
C225 C224 1.363 . S
C225 C228 1.363 . S
N226 C228 1.356 . S
N226 H238 0.984 . S
N226 H239 0.985 . S
N227 C229 1.356 . S
N227 H232 0.984 1_655 S
N227 H233 0.985 1_655 S
C228 C222 1.379 . S
C228 C225 1.363 . S
C228 N226 1.356 . S
C229 C223 1.363 . S
C229 C224 1.379 . S
C229 N227 1.356 . S
N230 C222 1.356 . S
N230 H236 0.984 . S
N230 H237 0.984 . S
N231 C224 1.356 . S
N231 H234 0.984 . S
N231 H235 0.985 . S
H232 N227 0.984 1_455 S
H233 N227 0.985 1_455 S
H234 N231 0.984 . S
H235 N231 0.985 . S
H236 N230 0.984 . S
H237 N230 0.984 . S
H238 N226 0.984 . S
H239 N226 0.985 . S
C240 C241 1.363 . S
C240 C246 1.379 . S
C240 N248 1.356 . S
C241 C240 1.363 . S
C241 C247 1.363 . S
C242 C243 1.363 . S
C242 C247 1.379 . S
C242 N249 1.356 . S
C243 C242 1.363 . S
C243 C246 1.363 . S
N244 C246 1.356 . S
N244 H256 0.984 . S
N244 H257 0.985 . S
N245 C247 1.356 . S
N245 H250 0.984 . S
N245 H251 0.985 . S
C246 C240 1.379 . S
C246 C243 1.363 . S
C246 N244 1.356 . S
C247 C241 1.363 . S
C247 C242 1.379 . S
C247 N245 1.356 . S
N248 C240 1.356 . S
N248 H254 0.984 . S
N248 H255 0.984 . S
N249 C242 1.356 . S
N249 H252 0.984 . S
N249 H253 0.985 1_455 S
H250 N245 0.984 . S
H251 N245 0.985 . S
H252 N249 0.984 . S
H253 N249 0.985 1_655 S
H254 N248 0.984 . S
H255 N248 0.984 . S
H256 N244 0.984 . S
H257 N244 0.985 . S
C258 C259 1.363 . S
C258 C264 1.379 . S
C258 N266 1.356 . S
C259 C258 1.363 . S
C259 C265 1.363 . S
C260 C261 1.359 1_565 S
C260 C265 1.372 1_565 S
C260 N267 1.368 . S
C261 C260 1.359 1_545 S
C261 C264 1.363 . S
N262 C264 1.356 . S
N262 H274 0.984 . S
N262 H275 0.985 . S
N263 C265 1.356 1_565 S
N263 H268 0.984 . S
N263 H269 0.985 . S
C264 C258 1.379 . S
C264 C261 1.363 . S
C264 N262 1.356 . S
C265 C259 1.363 . S
C265 C260 1.372 1_545 S
C265 N263 1.356 1_545 S
N266 C258 1.356 . S
N266 H272 0.984 . S
N266 H273 0.984 . S
N267 C260 1.368 . S
N267 H270 0.984 . S
N267 H271 0.985 . S
H268 N263 0.984 . S
H269 N263 0.985 . S
H270 N267 0.984 . S
H271 N267 0.985 . S
H272 N266 0.984 . S
H273 N266 0.984 . S
H274 N262 0.984 . S
H275 N262 0.985 . S
C276 C277 1.363 . S
C276 C282 1.379 . S
C276 N284 1.356 . S
C277 C276 1.363 . S
C277 C283 1.363 . S
C278 C279 1.363 . S
C278 C283 1.379 . S
C278 N285 1.356 . S
C279 C278 1.363 . S
C279 C282 1.363 . S
N280 C282 1.356 . S
N280 H292 0.984 . S
N280 H293 0.985 . S
N281 C283 1.356 . S
N281 H286 0.984 . S
N281 H287 0.985 . S
C282 C276 1.379 . S
C282 C279 1.363 . S
C282 N280 1.356 . S
C283 C277 1.363 . S
C283 C278 1.379 . S
C283 N281 1.356 . S
N284 C276 1.356 . S
N284 H290 0.984 . S
N284 H291 0.984 . S
N285 C278 1.356 . S
N285 H288 0.984 . S
N285 H289 0.985 . S
H286 N281 0.984 . S
H287 N281 0.985 . S
H288 N285 0.984 . S
H289 N285 0.985 . S
H290 N284 0.984 . S
H291 N284 0.984 . S
H292 N280 0.984 . S
H293 N280 0.985 . S
C294 C295 1.363 . S
C294 C300 1.379 . S
C294 N302 1.356 1_545 S
C295 C294 1.363 . S
C295 C301 1.363 . S
C296 C297 1.363 . S
C296 C301 1.379 . S
C296 N303 1.356 . S
C297 C296 1.363 . S
C297 C300 1.363 . S
N298 C300 1.356 1_565 S
N298 H310 0.984 . S
N298 H311 0.985 . S
N299 C301 1.356 . S
N299 H304 0.984 . S
N299 H305 0.985 . S
C300 C294 1.379 . S
C300 C297 1.363 . S
C300 N298 1.356 1_545 S
C301 C295 1.363 . S
C301 C296 1.379 . S
C301 N299 1.356 . S
N302 C294 1.356 1_565 S
N302 H308 0.984 . S
N302 H309 0.984 . S
N303 C296 1.356 . S
N303 H306 0.984 . S
N303 H307 0.985 . S
H304 N299 0.984 . S
H305 N299 0.985 . S
H306 N303 0.984 . S
H307 N303 0.985 . S
H308 N302 0.984 . S
H309 N302 0.984 . S
H310 N298 0.984 . S
H311 N298 0.985 . S
C312 C313 1.363 . S
C312 C318 1.379 . S
C312 N320 1.356 . S
C313 C312 1.363 . S
C313 C319 1.363 . S
C314 C315 1.363 . S
C314 C319 1.379 . S
C314 N321 1.356 . S
C315 C314 1.363 . S
C315 C318 1.363 . S
N316 C318 1.356 . S
N316 H328 0.984 . S
N316 H329 0.985 . S
N317 C319 1.356 1_554 S
N317 H322 0.984 . S
N317 H323 0.985 . S
C318 C312 1.379 . S
C318 C315 1.363 . S
C318 N316 1.356 . S
C319 C313 1.363 . S
C319 C314 1.379 . S
C319 N317 1.356 1_556 S
N320 C312 1.356 . S
N320 H326 0.984 1_565 S
N320 H327 0.984 1_565 S
N321 C314 1.356 . S
N321 H324 0.984 . S
N321 H325 0.985 . S
H322 N317 0.984 . S
H323 N317 0.985 . S
H324 N321 0.984 . S
H325 N321 0.985 . S
H326 N320 0.984 1_545 S
H327 N320 0.984 1_545 S
H328 N316 0.984 . S
H329 N316 0.985 . S
C330 C331 1.363 . S
C330 C336 1.379 . S
C330 N338 1.356 . S
C331 C330 1.363 . S
C331 C337 1.363 . S
C332 C333 1.363 . S
C332 C337 1.379 1_455 S
C332 N339 1.356 . S
C333 C332 1.363 . S
C333 C336 1.363 1_455 S
N334 C336 1.364 . S
N334 H346 0.984 . S
N334 H347 0.978 1_655 S
N335 C337 1.356 . S
N335 H340 0.984 . S
N335 H341 0.985 . S
C336 C330 1.379 . S
C336 C333 1.363 1_655 S
C336 N334 1.364 . S
C337 C331 1.363 . S
C337 C332 1.379 1_655 S
C337 N335 1.356 . S
N338 C330 1.356 . S
N338 H344 0.984 . S
N338 H345 0.984 . S
N339 C332 1.356 . S
N339 H342 0.984 . S
N339 H343 0.985 . S
H340 N335 0.984 . S
H341 N335 0.985 . S
H342 N339 0.984 . S
H343 N339 0.985 . S
H344 N338 0.984 . S
H345 N338 0.984 . S
H346 N334 0.984 . S
H347 N334 0.978 1_455 S
C348 C349 1.363 . S
C348 C354 1.379 . S
C348 N356 1.356 . S
C349 C348 1.363 . S
C349 C355 1.363 . S
C350 C351 1.363 . S
C350 C355 1.379 . S
C350 N357 1.356 . S
C351 C350 1.363 . S
C351 C354 1.363 . S
N352 C354 1.356 . S
N352 H364 0.984 . S
N352 H365 0.985 . S
N353 C355 1.356 1_565 S
N353 H358 0.984 . S
N353 H359 0.985 . S
C354 C348 1.379 . S
C354 C351 1.363 . S
C354 N352 1.356 . S
C355 C349 1.363 . S
C355 C350 1.379 . S
C355 N353 1.356 1_545 S
N356 C348 1.356 . S
N356 H362 0.984 . S
N356 H363 0.984 1_545 S
N357 C350 1.356 . S
N357 H360 0.984 . S
N357 H361 0.985 . S
H358 N353 0.984 . S
H359 N353 0.985 . S
H360 N357 0.984 . S
H361 N357 0.985 . S
H362 N356 0.984 . S
H363 N356 0.984 1_565 S
H364 N352 0.984 . S
H365 N352 0.985 . S
C366 C367 1.363 . S
C366 C372 1.379 . S
C366 N374 1.356 1_556 S
C367 C366 1.363 . S
C367 C373 1.363 . S
C368 C369 1.363 . S
C368 C373 1.379 . S
C368 N375 1.356 . S
C369 C368 1.363 . S
C369 C372 1.363 . S
N370 C372 1.356 . S
N370 H382 0.984 . S
N370 H383 0.985 . S
N371 C373 1.356 . S
N371 H376 0.984 . S
N371 H377 0.985 . S
C372 C366 1.379 . S
C372 C369 1.363 . S
C372 N370 1.356 . S
C373 C367 1.363 . S
C373 C368 1.379 . S
C373 N371 1.356 . S
N374 C366 1.356 1_554 S
N374 H380 0.984 . S
N374 H381 0.984 . S
N375 C368 1.356 . S
N375 H378 0.984 . S
N375 H379 0.985 . S
H376 N371 0.984 . S
H377 N371 0.985 . S
H378 N375 0.984 . S
H379 N375 0.985 . S
H380 N374 0.984 . S
H381 N374 0.984 . S
H382 N370 0.984 . S
H383 N370 0.985 . S
C384 C385 1.363 . S
C384 C390 1.379 . S
C384 N392 1.356 . S
C385 C384 1.363 . S
C385 C391 1.363 . S
C386 C387 1.363 . S
C386 C391 1.379 . S
C386 N393 1.356 . S
C387 C386 1.363 . S
C387 C390 1.363 . S
N388 C390 1.356 . S
N388 H400 0.984 . S
N388 H401 0.985 . S
N389 C391 1.356 . S
N389 H394 0.984 . S
N389 H395 0.985 . S
C390 C384 1.379 . S
C390 C387 1.363 . S
C390 N388 1.356 . S
C391 C385 1.363 . S
C391 C386 1.379 . S
C391 N389 1.356 . S
N392 C384 1.356 . S
N392 H398 0.984 . S
N392 H399 0.984 . S
N393 C386 1.356 . S
N393 H396 0.984 . S
N393 H397 0.985 . S
H394 N389 0.984 . S
H395 N389 0.985 . S
H396 N393 0.984 . S
H397 N393 0.985 . S
H398 N392 0.984 . S
H399 N392 0.984 . S
H400 N388 0.984 . S
H401 N388 0.985 . S
C189 C63 1.443 . S
C187 C11 1.415 . S
C205 C26 1.570 1_545 S
C207 C111 1.596 . S
C223 C40 1.460 . S
C225 C183 1.456 . S
C241 C5 1.301 . S
C243 C87 1.425 . S
C261 C135 1.553 . S
C259 C18 1.548 . S
C277 C32 1.438 . S
C279 C159 1.454 . S
C297 C120 1.328 . S
C295 C39 1.317 . S
C313 C4 1.449 . S
C315 C174 1.460 . S
C333 C78 1.450 . S
C331 C19 1.318 . S
C351 C126 1.380 . S
C349 C33 1.253 1_545 S
C369 C168 1.492 . S
C367 C12 1.470 . S
C385 C25 1.425 . S
C387 C72 1.456 . S
