# Generated by pormake.
# Topology nom, (4,4)-cn, num edge types: 1
# Building blocks:
#     Node 0, Type 0, BuildingBlock: AZAVOO_clean_linker_0, # of connection points: 4
#     Node 1, Type 0, BuildingBlock: AZAVOO_clean_linker_0, # of connection points: 4
#     Node 2, Type 0, BuildingBlock: AZAVOO_clean_linker_0, # of connection points: 4
#     Node 3, Type 0, BuildingBlock: AZAVOO_clean_linker_0, # of connection points: 4
#     Node 4, Type 0, BuildingBlock: AZAVOO_clean_linker_0, # of connection points: 4
#     Node 5, Type 0, BuildingBlock: AZAVOO_clean_linker_0, # of connection points: 4
#     Node 6, Type 1, BuildingBlock: GALJAG_clean_sbu_0, # of connection points: 4
#     Node 7, Type 1, BuildingBlock: GALJAG_clean_sbu_0, # of connection points: 4
#     Node 8, Type 1, BuildingBlock: GALJAG_clean_sbu_0, # of connection points: 4
#     Node 9, Type 1, BuildingBlock: GALJAG_clean_sbu_0, # of connection points: 4
#     Node 10, Type 1, BuildingBlock: GALJAG_clean_sbu_0, # of connection points: 4
#     Node 11, Type 1, BuildingBlock: GALJAG_clean_sbu_0, # of connection points: 4
#     Edge 12, Type (0, 1), BuildingBlock: AJUNOK_clean_linker_0, # of connection points: 2
#     Edge 13, Type (0, 1), BuildingBlock: AJUNOK_clean_linker_0, # of connection points: 2
#     Edge 14, Type (0, 1), BuildingBlock: AJUNOK_clean_linker_0, # of connection points: 2
#     Edge 15, Type (0, 1), BuildingBlock: AJUNOK_clean_linker_0, # of connection points: 2
#     Edge 16, Type (0, 1), BuildingBlock: AJUNOK_clean_linker_0, # of connection points: 2
#     Edge 17, Type (0, 1), BuildingBlock: AJUNOK_clean_linker_0, # of connection points: 2
#     Edge 18, Type (0, 1), BuildingBlock: AJUNOK_clean_linker_0, # of connection points: 2
#     Edge 19, Type (0, 1), BuildingBlock: AJUNOK_clean_linker_0, # of connection points: 2
#     Edge 20, Type (0, 1), BuildingBlock: AJUNOK_clean_linker_0, # of connection points: 2
#     Edge 21, Type (0, 1), BuildingBlock: AJUNOK_clean_linker_0, # of connection points: 2
#     Edge 22, Type (0, 1), BuildingBlock: AJUNOK_clean_linker_0, # of connection points: 2
#     Edge 23, Type (0, 1), BuildingBlock: AJUNOK_clean_linker_0, # of connection points: 2
#     Edge 24, Type (0, 1), BuildingBlock: AJUNOK_clean_linker_0, # of connection points: 2
#     Edge 25, Type (0, 1), BuildingBlock: AJUNOK_clean_linker_0, # of connection points: 2
#     Edge 26, Type (0, 1), BuildingBlock: AJUNOK_clean_linker_0, # of connection points: 2
#     Edge 27, Type (0, 1), BuildingBlock: AJUNOK_clean_linker_0, # of connection points: 2
#     Edge 28, Type (0, 1), BuildingBlock: AJUNOK_clean_linker_0, # of connection points: 2
#     Edge 29, Type (0, 1), BuildingBlock: AJUNOK_clean_linker_0, # of connection points: 2
#     Edge 30, Type (0, 1), BuildingBlock: AJUNOK_clean_linker_0, # of connection points: 2
#     Edge 31, Type (0, 1), BuildingBlock: AJUNOK_clean_linker_0, # of connection points: 2
#     Edge 32, Type (0, 1), BuildingBlock: AJUNOK_clean_linker_0, # of connection points: 2
#     Edge 33, Type (0, 1), BuildingBlock: AJUNOK_clean_linker_0, # of connection points: 2
#     Edge 34, Type (0, 1), BuildingBlock: AJUNOK_clean_linker_0, # of connection points: 2
#     Edge 35, Type (0, 1), BuildingBlock: AJUNOK_clean_linker_0, # of connection points: 2
# Relax obj value: 0.124
# Max RMSD: 0.221
# Mean RMSD: 0.143
data_MOF--net-nom--node1-GALJAG_clean_sbu_0--node2-AZAVOO_clean_linker_0--edge1-AJUNOK_clean_linker_0
_symmetry_space_group_name_H-M    P1
_symmetry_Int_Tables_number       1
_symmetry_cell_setting            triclinic
loop_
_symmetry_equiv_pos_as_xyz
'x, y, z'
_cell_length_a     37.764176
_cell_length_b     38.443286
_cell_length_c     47.475493
_cell_angle_alpha  90.087962
_cell_angle_beta   90.010958
_cell_angle_gamma 122.27693
loop_
_atom_site_label
_atom_site_type_symbol
_atom_site_fract_x
_atom_site_fract_y
_atom_site_fract_z
_atom_type_partial_charge
H0 H 0.09322 0.59539 0.12599 0.0
H1 H 0.30655 0.80888 0.40686 0.0
H2 H 0.01612 0.53569 0.2776 0.0
H3 H 0.9742 0.49778 0.23656 0.0
H4 H 0.94455 0.59048 0.22288 0.0
H5 H 0.98701 0.62857 0.26423 0.0
H6 H 0.10173 0.59093 0.24887 0.0
H7 H 0.10283 0.58528 0.19754 0.0
H8 H 0.06591 0.67364 0.18903 0.0
H9 H 0.06521 0.67912 0.2404 0.0
H10 H 0.1765 0.64173 0.2963 0.0
H11 H 0.24716 0.68277 0.27731 0.0
H12 H 0.21866 0.76951 0.24352 0.0
H13 H 0.14856 0.72948 0.26456 0.0
H14 H 0.15697 0.6295 0.35215 0.0
H15 H 0.22035 0.66894 0.38072 0.0
H16 H 0.21984 0.77947 0.36503 0.0
H17 H 0.15604 0.73946 0.33684 0.0
H18 H 0.06962 0.56885 0.36362 0.0
H19 H 0.09637 0.56908 0.41033 0.0
H20 H 0.10236 0.682 0.4299 0.0
H21 H 0.07963 0.68355 0.38197 0.0
H22 H 0.96679 0.53353 0.32121 0.0
H23 H 0.89721 0.51042 0.33942 0.0
H24 H 0.94533 0.63065 0.37607 0.0
H25 H 0.01307 0.65486 0.35462 0.0
O26 O 0.09346 0.59873 0.14621 0.0
O27 O 0.07441 0.64424 0.143 0.0
O28 O 0.28056 0.73491 0.4028 0.0
O29 O 0.28133 0.7925 0.39581 0.0
C30 C 0.04008 0.61267 0.2924 0.0
C31 C 0.07977 0.63638 0.27935 0.0
C32 C 0.11608 0.65943 0.29579 0.0
C33 C 0.11316 0.65767 0.32539 0.0
C34 C 0.07366 0.63362 0.33858 0.0
C35 C 0.03664 0.61283 0.32215 0.0
C36 C 0.00399 0.58449 0.27421 0.0
C37 C -0.00102 0.54684 0.26656 0.0
C38 C 0.97527 0.52538 0.24297 0.0
C39 C 0.95616 0.54122 0.22654 0.0
C40 C 0.95908 0.57769 0.2352 0.0
C41 C 0.98268 0.5991 0.25901 0.0
C42 C 0.08335 0.63537 0.24824 0.0
C43 C 0.09431 0.60931 0.23584 0.0
C44 C 0.09473 0.60603 0.20654 0.0
C45 C 0.08427 0.62887 0.18917 0.0
C46 C 0.07404 0.65556 0.20177 0.0
C47 C 0.0737 0.65883 0.23107 0.0
C48 C 0.15769 0.68292 0.28207 0.0
C49 C 0.18554 0.66961 0.28482 0.0
C50 C 0.22566 0.69275 0.2735 0.0
C51 C 0.23828 0.72903 0.25841 0.0
C52 C 0.20981 0.7417 0.25503 0.0
C53 C 0.16982 0.71886 0.26688 0.0
C54 C 0.15177 0.6816 0.34266 0.0
C55 C 0.17041 0.66216 0.35511 0.0
C56 C 0.20672 0.6848 0.3713 0.0
C57 C 0.22522 0.72741 0.37512 0.0
C58 C 0.20643 0.74674 0.36252 0.0
C59 C 0.17003 0.72401 0.3464 0.0
C60 C 0.07282 0.62623 0.36931 0.0
C61 C 0.07533 0.5929 0.37833 0.0
C62 C 0.09092 0.59324 0.4051 0.0
C63 C 0.10328 0.62649 0.42358 0.0
C64 C 0.09527 0.657 0.41572 0.0
C65 C 0.08105 0.65737 0.38858 0.0
C66 C 0.99516 0.59627 0.33591 0.0
C67 C 0.96214 0.5552 0.33255 0.0
C68 C 0.92241 0.54183 0.34345 0.0
C69 C 0.91512 0.56892 0.35871 0.0
C70 C 0.94901 0.60932 0.36345 0.0
C71 C 0.98822 0.62299 0.35172 0.0
C72 C 0.08375 0.62457 0.15808 0.0
C73 C 0.26404 0.75168 0.39207 0.0
H74 H 0.61324 0.12531 0.31308 0.0
H75 H 0.54344 0.27137 0.59452 0.0
H76 H 0.57167 0.02262 0.45425 0.0
H77 H 0.57018 0.98384 0.41283 0.0
H78 H 0.43847 0.93642 0.40208 0.0
H79 H 0.44011 0.97514 0.44381 0.0
H80 H 0.60323 0.1159 0.43609 0.0
H81 H 0.62012 0.12678 0.38583 0.0
H82 H 0.4879 0.05957 0.36599 0.0
H83 H 0.47153 0.04954 0.41631 0.0
H84 H 0.60768 0.17769 0.48927 0.0
H85 H 0.63116 0.24655 0.47246 0.0
H86 H 0.5194 0.19653 0.42139 0.0
H87 H 0.49401 0.1283 0.44088 0.0
H88 H 0.59047 0.13783 0.54572 0.0
H89 H 0.60514 0.19373 0.57796 0.0
H90 H 0.49935 0.19459 0.54395 0.0
H91 H 0.48448 0.13808 0.51224 0.0
H92 H 0.5594 0.03995 0.54816 0.0
H93 H 0.57629 0.05297 0.59825 0.0
H94 H 0.48148 0.08245 0.60819 0.0
H95 H 0.46339 0.06743 0.55836 0.0
H96 H 0.52526 0.97017 0.50288 0.0
H97 H 0.48329 0.89863 0.51948 0.0
H98 H 0.38114 0.91487 0.53837 0.0
H99 H 0.42297 0.9859 0.52185 0.0
O100 O 0.6059 0.12108 0.33285 0.0
O101 O 0.53754 0.08557 0.3238 0.0
O102 O 0.59121 0.24626 0.5997 0.0
O103 O 0.5382 0.24908 0.58213 0.0
C104 C 0.51032 0.03393 0.47123 0.0
C105 C 0.52613 0.07382 0.46026 0.0
C106 C 0.53339 0.10623 0.47828 0.0
C107 C 0.52679 0.09914 0.50757 0.0
C108 C 0.5111 0.05916 0.51856 0.0
C109 C 0.50099 0.02613 0.50019 0.0
C110 C 0.50597 0.00152 0.45199 0.0
C111 C 0.54211 0.00245 0.44366 0.0
C112 C 0.54125 0.9804 0.42002 0.0
C113 C 0.50425 0.95736 0.40432 0.0
C114 C 0.46734 0.95405 0.41393 0.0
C115 C 0.46813 0.97579 0.4378 0.0
C116 C 0.5362 0.08179 0.42978 0.0
C117 C 0.57801 0.10382 0.42084 0.0
C118 C 0.58754 0.10986 0.39213 0.0
C119 C 0.55535 0.0939 0.37188 0.0
C120 C 0.51344 0.07218 0.38101 0.0
C121 C 0.50399 0.06634 0.40971 0.0
C122 C 0.54897 0.14788 0.46649 0.0
C123 C 0.58806 0.18165 0.47467 0.0
C124 C 0.60184 0.22096 0.46454 0.0
C125 C 0.57766 0.22713 0.445 0.0
C126 C 0.5388 0.19302 0.43646 0.0
C127 C 0.52442 0.1539 0.44733 0.0
C128 C 0.53625 0.13373 0.52677 0.0
C129 C 0.57039 0.15001 0.54537 0.0
C130 C 0.57876 0.18201 0.5637 0.0
C131 C 0.55339 0.19864 0.56354 0.0
C132 C 0.51947 0.18248 0.54466 0.0
C133 C 0.51095 0.15027 0.52648 0.0
C134 C 0.51069 0.05348 0.54953 0.0
C135 C 0.54084 0.04722 0.56143 0.0
C136 C 0.55075 0.05505 0.58998 0.0
C137 C 0.53069 0.06935 0.60703 0.0
C138 C 0.49723 0.07109 0.59571 0.0
C139 C 0.48698 0.06273 0.56718 0.0
C140 C 0.47712 0.98324 0.51103 0.0
C141 C 0.49383 0.95823 0.5106 0.0
C142 C 0.46992 0.9175 0.52014 0.0
C143 C 0.42915 0.90137 0.53054 0.0
C144 C 0.41277 0.92668 0.5311 0.0
C145 C 0.43654 0.96719 0.52151 0.0
C146 C 0.56554 0.09986 0.34139 0.0
C147 C 0.5622 0.23273 0.58292 0.0
H148 H 0.47603 0.43954 0.82929 0.0
H149 H 0.53187 0.30347 0.53356 0.0
H150 H 0.4955 0.5399 0.67293 0.0
H151 H 0.49636 0.57635 0.71521 0.0
H152 H 0.37459 0.47302 0.7383 0.0
H153 H 0.37337 0.43684 0.69521 0.0
H154 H 0.5108 0.48275 0.7101 0.0
H155 H 0.50807 0.47469 0.76133 0.0
H156 H 0.38752 0.36096 0.75366 0.0
H157 H 0.39049 0.36975 0.70245 0.0
H158 H 0.54704 0.44285 0.66532 0.0
H159 H 0.5764 0.40494 0.68541 0.0
H160 H 0.45232 0.2954 0.68985 0.0
H161 H 0.42305 0.33382 0.66977 0.0
H162 H 0.55003 0.46307 0.60345 0.0
H163 H 0.58052 0.43484 0.57254 0.0
H164 H 0.46432 0.31616 0.57521 0.0
H165 H 0.43396 0.34506 0.60567 0.0
H166 H 0.52301 0.52531 0.59702 0.0
H167 H 0.55996 0.54075 0.55207 0.0
H168 H 0.46327 0.42195 0.52019 0.0
H169 H 0.42595 0.40716 0.56497 0.0
H170 H 0.48173 0.55133 0.62446 0.0
H171 H 0.44903 0.58887 0.60927 0.0
H172 H 0.33192 0.47356 0.59637 0.0
H173 H 0.36469 0.43627 0.61178 0.0
O174 O 0.47675 0.44181 0.80897 0.0
O175 O 0.41561 0.38273 0.80383 0.0
O176 O 0.57885 0.37763 0.54382 0.0
O177 O 0.52049 0.31552 0.54559 0.0
C178 C 0.44059 0.46039 0.66073 0.0
C179 C 0.45148 0.43319 0.6718 0.0
C180 C 0.46615 0.41451 0.65381 0.0
C181 C 0.47088 0.42358 0.62481 0.0
C182 C 0.45965 0.45056 0.61359 0.0
C183 C 0.44315 0.4679 0.63145 0.0
C184 C 0.43404 0.48605 0.6807 0.0
C185 C 0.46793 0.52602 0.6862 0.0
C186 C 0.46865 0.54658 0.71057 0.0
C187 C 0.43561 0.52732 0.72995 0.0
C188 C 0.40043 0.48835 0.72361 0.0
C189 C 0.39946 0.46796 0.69892 0.0
C190 C 0.45081 0.42686 0.70269 0.0
C191 C 0.48394 0.45606 0.71956 0.0
C192 C 0.48225 0.45139 0.7488 0.0
C193 C 0.44752 0.41723 0.76161 0.0
C194 C 0.41469 0.38765 0.74448 0.0
C195 C 0.41635 0.39248 0.71525 0.0
C196 C 0.48307 0.39092 0.66605 0.0
C197 C 0.52624 0.41069 0.67067 0.0
C198 C 0.54288 0.38907 0.68212 0.0
C199 C 0.51653 0.34738 0.68927 0.0
C200 C 0.47315 0.32769 0.68488 0.0
C201 C 0.45649 0.34939 0.67329 0.0
C202 C 0.48966 0.4062 0.6065 0.0
C203 C 0.53115 0.43106 0.59717 0.0
C204 C 0.54852 0.41482 0.5796 0.0
C205 C 0.52481 0.37322 0.57136 0.0
C206 C 0.4834 0.34831 0.5811 0.0
C207 C 0.46599 0.36469 0.59852 0.0
C208 C 0.47175 0.46513 0.58424 0.0
C209 C 0.50857 0.50359 0.57981 0.0
C210 C 0.53001 0.51211 0.5543 0.0
C211 C 0.51472 0.48238 0.53282 0.0
C212 C 0.47556 0.44564 0.53626 0.0
C213 C 0.45408 0.43717 0.56179 0.0
C214 C 0.42545 0.49109 0.6195 0.0
C215 C 0.44911 0.5342 0.61824 0.0
C216 C 0.43039 0.55555 0.60963 0.0
C217 C 0.38781 0.53407 0.60197 0.0
C218 C 0.36477 0.49085 0.60212 0.0
C219 C 0.3834 0.46958 0.61093 0.0
C220 C 0.44552 0.41271 0.79271 0.0
C221 C 0.54315 0.35576 0.55276 0.0
H222 H 0.06714 0.56512 0.00352 0.0
H223 H 0.27421 0.58071 0.71423 0.0
H224 H 0.99278 0.55743 0.85723 0.0
H225 H 0.9536 0.54354 0.90099 0.0
H226 H 0.92002 0.41717 0.89799 0.0
H227 H 0.95996 0.43159 0.85416 0.0
H228 H 0.08177 0.59071 0.88151 0.0
H229 H 0.08143 0.59262 0.93309 0.0
H230 H 0.03381 0.46235 0.93527 0.0
H231 H 0.0345 0.46099 0.88376 0.0
H232 H 0.16254 0.61413 0.83379 0.0
H233 H 0.2306 0.63218 0.85265 0.0
H234 H 0.1766 0.50674 0.88065 0.0
H235 H 0.10956 0.48839 0.85989 0.0
H236 H 0.13224 0.61056 0.77354 0.0
H237 H 0.19281 0.63459 0.74263 0.0
H238 H 0.19282 0.52445 0.76107 0.0
H239 H 0.13185 0.50054 0.79163 0.0
H240 H 0.04267 0.5764 0.75709 0.0
H241 H 0.06842 0.59683 0.70882 0.0
H242 H 0.08493 0.49427 0.7025 0.0
H243 H 0.05857 0.47374 0.75047 0.0
H244 H 0.95048 0.52152 0.80111 0.0
H245 H 0.87913 0.47501 0.783 0.0
H246 H 0.91143 0.38621 0.76098 0.0
H247 H 0.98227 0.43276 0.77861 0.0
O248 O 0.06803 0.56394 0.98319 0.0
O249 O 0.04314 0.49686 0.98308 0.0
O250 O 0.2485 0.62772 0.71728 0.0
O251 O 0.25065 0.57222 0.72665 0.0
C252 C 0.01599 0.50841 0.83438 0.0
C253 C 0.05513 0.52404 0.84773 0.0
C254 C 0.09136 0.5378 0.83149 0.0
C255 C 0.08909 0.538 0.80188 0.0
C256 C 0.04985 0.52175 0.78843 0.0
C257 C 0.013 0.50554 0.80469 0.0
C258 C 0.97907 0.49549 0.8525 0.0
C259 C 0.9751 0.52621 0.86518 0.0
C260 C 0.95298 0.51829 0.89033 0.0
C261 C 0.93416 0.47938 0.90301 0.0
C262 C 0.93459 0.44752 0.88873 0.0
C263 C 0.95671 0.45548 0.86348 0.0
C264 C 0.05799 0.52571 0.87899 0.0
C265 C 0.07168 0.56275 0.89322 0.0
C266 C 0.07127 0.56369 0.92265 0.0
C267 C 0.05732 0.52757 0.9383 0.0
C268 C 0.04458 0.49069 0.92388 0.0
C269 C 0.04499 0.48982 0.89448 0.0
C270 C 0.13131 0.55002 0.8455 0.0
C271 C 0.16546 0.59072 0.84419 0.0
C272 C 0.20408 0.60105 0.85532 0.0
C273 C 0.20871 0.57093 0.86845 0.0
C274 C 0.1739 0.53051 0.87061 0.0
C275 C 0.1356 0.52007 0.85899 0.0
C276 C 0.12765 0.55379 0.78472 0.0
C277 C 0.14547 0.59175 0.77092 0.0
C278 C 0.18003 0.60537 0.75328 0.0
C279 C 0.19756 0.58134 0.74929 0.0
C280 C 0.18005 0.54366 0.76362 0.0
C281 C 0.14536 0.53 0.78118 0.0
C282 C 0.0488 0.52363 0.75726 0.0
C283 C 0.0497 0.5571 0.74474 0.0
C284 C 0.06495 0.56905 0.71734 0.0
C285 C 0.07906 0.54739 0.70205 0.0
C286 C 0.07383 0.51128 0.71361 0.0
C287 C 0.0586 0.49938 0.741 0.0
C288 C 0.97152 0.48054 0.79103 0.0
C289 C 0.94223 0.49233 0.79188 0.0
C290 C 0.90162 0.46579 0.78159 0.0
C291 C 0.8899 0.4272 0.77027 0.0
C292 C 0.91979 0.41614 0.76883 0.0
C293 C 0.96022 0.44261 0.77904 0.0
C294 C 0.05573 0.52837 0.96952 0.0
C295 C 0.23377 0.59531 0.73012 0.0
H296 H 0.6135 0.99091 0.79586 0.0
H297 H 0.62727 0.81498 0.0853 0.0
H298 H 0.61102 0.07482 0.95582 0.0
H299 H 0.60547 0.11204 0.916 0.0
H300 H 0.73017 0.14874 0.88954 0.0
H301 H 0.73501 0.11046 0.92903 0.0
H302 H 0.59789 0.00509 0.91725 0.0
H303 H 0.59278 0.99737 0.86597 0.0
H304 H 0.71671 0.01703 0.86367 0.0
H305 H 0.72151 0.02512 0.915 0.0
H306 H 0.57802 0.9278 0.95203 0.0
H307 H 0.55727 0.86404 0.92707 0.0
H308 H 0.68564 0.89576 0.928 0.0
H309 H 0.70621 0.95988 0.95342 0.0
H310 H 0.57546 0.93269 0.01617 0.0
H311 H 0.55493 0.87224 0.04526 0.0
H312 H 0.68365 0.90471 0.04655 0.0
H313 H 0.70372 0.96525 0.01761 0.0
H314 H 0.58825 0.00899 0.03306 0.0
H315 H 0.5682 0.9961 0.08241 0.0
H316 H 0.69413 0.03107 0.10461 0.0
H317 H 0.71336 0.04204 0.05446 0.0
H318 H 0.62636 0.08908 0.01849 0.0
H319 H 0.65427 0.15803 0.03844 0.0
H320 H 0.77928 0.19225 0.01451 0.0
H321 H 0.75139 0.12319 0.99556 0.0
O322 O 0.61621 0.9941 0.81612 0.0
O323 O 0.67988 0.00404 0.81607 0.0
O324 O 0.569 0.82385 0.07297 0.0
O325 O 0.63457 0.83876 0.07391 0.0
C326 C 0.67077 0.05728 0.96336 0.0
C327 C 0.66301 0.02056 0.95084 0.0
C328 C 0.65539 0.98736 0.96793 0.0
C329 C 0.65327 0.98987 0.9974 0.0
C330 C 0.66076 0.02652 0.00993 0.0
C331 C 0.67124 0.06074 0.99292 0.0
C332 C 0.6733 0.08978 0.94513 0.0
C333 C 0.6377 0.09212 0.94199 0.0
C334 C 0.63448 0.11319 0.91918 0.0
C335 C 0.66693 0.13225 0.8993 0.0
C336 C 0.70425 0.13331 0.90416 0.0
C337 C 0.70733 0.112 0.92686 0.0
C338 C 0.66011 0.01577 0.91972 0.0
C339 C 0.62392 0.00785 0.90559 0.0
C340 C 0.62107 0.00337 0.87632 0.0
C341 C 0.65431 0.00649 0.86072 0.0
C342 C 0.69053 0.01439 0.87506 0.0
C343 C 0.69337 0.01898 0.90433 0.0
C344 C 0.64341 0.94797 0.95455 0.0
C345 C 0.60156 0.92082 0.94699 0.0
C346 C 0.58994 0.88481 0.93253 0.0
C347 C 0.62004 0.87543 0.92543 0.0
C348 C 0.662 0.90248 0.93331 0.0
C349 C 0.67368 0.93877 0.94781 0.0
C350 C 0.64106 0.95332 0.015 0.0
C351 C 0.59914 0.92671 0.02287 0.0
C352 C 0.58753 0.89221 0.03944 0.0
C353 C 0.61767 0.88365 0.04826 0.0
C354 C 0.65967 0.91041 0.04016 0.0
C355 C 0.67124 0.94498 0.02365 0.0
C356 C 0.65229 0.02682 0.04031 0.0
C357 C 0.61182 0.01498 0.04867 0.0
C358 C 0.60054 0.00796 0.07697 0.0
C359 C 0.62978 0.01329 0.09762 0.0
C360 C 0.67097 0.02685 0.08923 0.0
C361 C 0.6821 0.03339 0.0607 0.0
C362 C 0.687 0.10134 0.0058 0.0
C363 C 0.65978 0.11139 0.01796 0.0
C364 C 0.67568 0.15072 0.02907 0.0
C365 C 0.71889 0.18041 0.02782 0.0
C366 C 0.74594 0.16984 0.01595 0.0
C367 C 0.73008 0.13061 0.00501 0.0
C368 C 0.65105 0.00146 0.82965 0.0
C369 C 0.60545 0.84694 0.06578 0.0
H370 H 0.50964 0.48517 0.96643 0.0
H371 H 0.72593 0.48732 0.23739 0.0
H372 H 0.4734 0.53396 0.11087 0.0
H373 H 0.44685 0.54634 0.0675 0.0
H374 H 0.5577 0.66853 0.06272 0.0
H375 H 0.58399 0.65595 0.10619 0.0
H376 H 0.51348 0.48586 0.08967 0.0
H377 H 0.50309 0.47322 0.03887 0.0
H378 H 0.60144 0.5997 0.0233 0.0
H379 H 0.61179 0.6117 0.07411 0.0
H380 H 0.56498 0.46271 0.13075 0.0
H381 H 0.6063 0.43527 0.11267 0.0
H382 H 0.70294 0.55763 0.08632 0.0
H383 H 0.66109 0.58426 0.10355 0.0
H384 H 0.55503 0.48349 0.19567 0.0
H385 H 0.5871 0.4537 0.22338 0.0
H386 H 0.7092 0.5483 0.19278 0.0
H387 H 0.67673 0.57798 0.16543 0.0
H388 H 0.52322 0.53864 0.2163 0.0
H389 H 0.53938 0.52999 0.26487 0.0
H390 H 0.67071 0.61656 0.24923 0.0
H391 H 0.65438 0.62588 0.20098 0.0
H392 H 0.48533 0.583 0.16592 0.0
H393 H 0.47305 0.63632 0.18232 0.0
H394 H 0.60608 0.71987 0.1944 0.0
H395 H 0.61821 0.66676 0.17782 0.0
O396 O 0.51475 0.49061 0.98641 0.0
O397 O 0.56536 0.55597 0.97958 0.0
O398 O 0.64895 0.45053 0.24177 0.0
O399 O 0.7124 0.49826 0.22647 0.0
C400 C 0.55313 0.58047 0.12937 0.0
C401 C 0.56812 0.55769 0.11633 0.0
C402 C 0.58898 0.54342 0.13238 0.0
C403 C 0.59378 0.55043 0.16159 0.0
C404 C 0.58061 0.57483 0.17452 0.0
C405 C 0.56103 0.59074 0.15828 0.0
C406 C 0.5306 0.59406 0.11157 0.0
C407 C 0.49087 0.56416 0.10127 0.0
C408 C 0.47605 0.57102 0.07634 0.0
C409 C 0.50055 0.6081 0.06166 0.0
C410 C 0.5381 0.63977 0.07377 0.0
C411 C 0.55301 0.6328 0.09871 0.0
C412 C 0.56309 0.54974 0.08549 0.0
C413 C 0.53287 0.51067 0.07521 0.0
C414 C 0.52696 0.5036 0.04621 0.0
C415 C 0.55134 0.5355 0.02702 0.0
C416 C 0.58208 0.57448 0.03748 0.0
C417 C 0.58801 0.58145 0.06647 0.0
C418 C 0.61015 0.52529 0.11822 0.0
C419 C 0.59458 0.48318 0.12037 0.0
C420 C 0.6182 0.46771 0.1102 0.0
C421 C 0.65756 0.49429 0.09786 0.0
C422 C 0.67223 0.53624 0.09498 0.0
C423 C 0.64855 0.55155 0.10494 0.0
C424 C 0.61357 0.53279 0.17856 0.0
C425 C 0.58869 0.49773 0.19504 0.0
C426 C 0.60708 0.48072 0.21075 0.0
C427 C 0.65072 0.49851 0.21018 0.0
C428 C 0.67552 0.53374 0.19362 0.0
C429 C 0.65708 0.55074 0.17797 0.0
C430 C 0.58767 0.58271 0.20516 0.0
C431 C 0.55515 0.55755 0.22386 0.0
C432 C 0.56443 0.55243 0.25148 0.0
C433 C 0.60627 0.57233 0.26044 0.0
C434 C 0.63825 0.60097 0.24266 0.0
C435 C 0.62892 0.60653 0.21524 0.0
C436 C 0.55265 0.62103 0.17067 0.0
C437 C 0.51175 0.61273 0.17228 0.0
C438 C 0.50483 0.64316 0.18151 0.0
C439 C 0.53872 0.68224 0.18931 0.0
C440 C 0.57946 0.68995 0.18859 0.0
C441 C 0.58638 0.65966 0.1792 0.0
C442 C 0.54442 0.52813 0.99624 0.0
C443 C 0.67046 0.48084 0.22709 0.0
In444 In 0.66077 0.47303 0.40092 0.0
O445 O 0.72965 0.52467 0.40786 0.0
O446 O 0.71609 0.47318 0.38247 0.0
C447 C 0.61794 0.48236 0.44236 0.0
C448 C 0.64419 0.505 0.3563 0.0
C449 C 0.6332 0.39401 0.41163 0.0
O450 O 0.65684 0.49669 0.44457 0.0
O451 O 0.60145 0.46322 0.41978 0.0
O452 O 0.61616 0.40404 0.39313 0.0
O453 O 0.66355 0.42355 0.42464 0.0
C454 C 0.74358 0.50721 0.39298 0.0
O455 O 0.64188 0.471 0.35488 0.0
O456 O 0.65548 0.52287 0.37982 0.0
In457 In 0.2522 0.64944 0.56611 0.0
O458 O 0.27854 0.60969 0.55344 0.0
O459 O 0.29365 0.63738 0.59388 0.0
C460 C 0.20409 0.64103 0.52126 0.0
C461 C 0.19331 0.618 0.60715 0.0
C462 C 0.3142 0.729 0.55908 0.0
O463 O 0.21195 0.6139 0.52758 0.0
O464 O 0.22029 0.6718 0.53741 0.0
O465 O 0.28841 0.71703 0.57924 0.0
O466 O 0.30903 0.70062 0.54277 0.0
C467 C 0.29764 0.61496 0.57645 0.0
O468 O 0.22411 0.65476 0.60747 0.0
O469 O 0.19239 0.59738 0.5862 0.0
In470 In 0.63943 0.22903 0.74595 0.0
O471 O 0.70725 0.26784 0.73093 0.0
O472 O 0.68899 0.2895 0.76581 0.0
C473 C 0.60597 0.16845 0.70716 0.0
C474 C 0.64049 0.19194 0.79376 0.0
C475 C 0.59737 0.26446 0.73047 0.0
O476 O 0.64406 0.19739 0.70692 0.0
O477 O 0.58509 0.16945 0.72756 0.0
O478 O 0.58784 0.24276 0.7525 0.0
O479 O 0.62797 0.26827 0.71695 0.0
C480 C 0.71795 0.29551 0.74935 0.0
O481 O 0.62212 0.21138 0.79227 0.0
O482 O 0.65688 0.1904 0.77104 0.0
In483 In 0.45752 0.63504 0.89002 0.0
O484 O 0.38799 0.58709 0.88968 0.0
O485 O 0.40737 0.65027 0.89161 0.0
C486 C 0.467 0.62229 0.94429 0.0
C487 C 0.45841 0.60317 0.83981 0.0
C488 C 0.52496 0.71113 0.88659 0.0
O489 O 0.45553 0.64598 0.93626 0.0
O490 O 0.47265 0.60329 0.92469 0.0
O491 O 0.52771 0.68088 0.89337 0.0
O492 O 0.48855 0.70239 0.88041 0.0
C493 C 0.37744 0.61317 0.8907 0.0
O494 O 0.46021 0.63662 0.8428 0.0
O495 O 0.45782 0.58582 0.86264 0.0
In496 In 0.83867 0.43306 0.06979 0.0
O497 O 0.85467 0.42843 0.11526 0.0
O498 O 0.89087 0.48666 0.09585 0.0
C499 C 0.79764 0.3517 0.05977 0.0
C500 C 0.77966 0.45049 0.07759 0.0
C501 C 0.87742 0.45767 0.01932 0.0
O502 O 0.83408 0.37136 0.07015 0.0
O503 O 0.78221 0.3731 0.05482 0.0
O504 O 0.84886 0.46306 0.02712 0.0
O505 O 0.88851 0.44166 0.03778 0.0
C506 C 0.883 0.46576 0.11805 0.0
O507 O 0.81088 0.47168 0.06183 0.0
O508 O 0.77874 0.42105 0.09003 0.0
In509 In 0.49993 0.87209 0.23844 0.0
O510 O 0.52886 0.83359 0.24476 0.0
O511 O 0.49422 0.825 0.20713 0.0
C512 C 0.511 0.90305 0.29127 0.0
C513 C 0.55003 0.93145 0.20137 0.0
C514 C 0.41559 0.82813 0.23627 0.0
O515 O 0.51637 0.8742 0.28534 0.0
O516 O 0.50208 0.91717 0.27045 0.0
O517 O 0.43694 0.86586 0.23017 0.0
O518 O 0.43661 0.81293 0.24338 0.0
C519 C 0.51499 0.81444 0.22165 0.0
O520 O 0.51104 0.91592 0.20248 0.0
O521 O 0.5641 0.91775 0.21937 0.0
C522 C 0.30507 0.79765 0.25337 0.0
C523 C 0.28207 0.75495 0.24821 0.0
C524 C 0.34812 0.82186 0.24779 0.0
C525 C 0.3696 0.804 0.23732 0.0
H526 H 0.29022 0.81217 0.26311 0.0
H527 H 0.36508 0.85424 0.25324 0.0
S528 S 0.32297 0.6954 0.21568 0.0
N529 N 0.28314 0.69723 0.22809 0.0
N530 N 0.36446 0.7425 0.21894 0.0
C531 C 0.34672 0.762 0.23052 0.0
C532 C 0.30283 0.73751 0.23564 0.0
C533 C 0.5635 0.28197 0.4318 0.0
C534 C 0.59212 0.26918 0.4344 0.0
C535 C 0.5767 0.32209 0.42335 0.0
C536 C 0.61908 0.35104 0.41785 0.0
H537 H 0.5308 0.26123 0.43707 0.0
H538 H 0.5539 0.33095 0.42216 0.0
S539 S 0.70586 0.33271 0.41815 0.0
N540 N 0.66429 0.28818 0.42756 0.0
N541 N 0.68918 0.3642 0.41352 0.0
C542 C 0.64786 0.33871 0.41964 0.0
C543 C 0.63437 0.29764 0.42748 0.0
C544 C 0.34305 0.54743 0.57028 0.0
C545 C 0.36672 0.55643 0.59514 0.0
C546 C 0.32139 0.56698 0.56414 0.0
C547 C 0.32215 0.59587 0.58282 0.0
H548 H 0.34125 0.52508 0.55546 0.0
H549 H 0.30347 0.55893 0.54478 0.0
S550 S 0.37876 0.62928 0.65121 0.0
N551 N 0.38921 0.59562 0.63873 0.0
N552 N 0.34864 0.63228 0.6274 0.0
C553 C 0.34584 0.60514 0.60776 0.0
C554 C 0.3681 0.58547 0.61386 0.0
C555 C 0.81362 0.38825 0.7817 0.0
C556 C 0.8457 0.39674 0.7626 0.0
C557 C 0.77223 0.35617 0.77676 0.0
C558 C 0.76134 0.33122 0.75259 0.0
H559 H 0.82077 0.40545 0.80119 0.0
H560 H 0.74886 0.35014 0.79251 0.0
S561 S 0.83295 0.34389 0.69445 0.0
N562 N 0.86328 0.38016 0.71735 0.0
N563 N 0.78548 0.31932 0.70823 0.0
C564 C 0.7928 0.34045 0.73273 0.0
C565 C 0.83497 0.37332 0.73771 0.0
C566 C 0.58037 0.82585 0.88694 0.0
C567 C 0.60619 0.83634 0.9108 0.0
C568 C 0.55707 0.78531 0.87723 0.0
C569 C 0.55913 0.7541 0.89094 0.0
H570 H 0.57583 0.84856 0.87701 0.0
H571 H 0.53504 0.77787 0.86017 0.0
S572 S 0.62672 0.76698 0.95179 0.0
N573 N 0.63613 0.81354 0.946 0.0
N574 N 0.59279 0.73713 0.92738 0.0
C575 C 0.58816 0.76497 0.91294 0.0
C576 C 0.61166 0.80629 0.92301 0.0
C577 C 0.69211 0.45649 0.11048 0.0
C578 C 0.68535 0.4795 0.09065 0.0
C579 C 0.72212 0.4464 0.10577 0.0
C580 C 0.74669 0.45945 0.08126 0.0
H581 H 0.67523 0.44753 0.13027 0.0
H582 H 0.72703 0.42944 0.12187 0.0
S583 S 0.73759 0.51598 0.02132 0.0
N584 N 0.70265 0.51148 0.04438 0.0
N585 N 0.76004 0.49349 0.03586 0.0
C586 C 0.73923 0.48115 0.06079 0.0
C587 C 0.70828 0.49093 0.06541 0.0
C588 C 0.39764 0.82608 0.5218 0.0
C589 C 0.40281 0.85772 0.53963 0.0
C590 C 0.36978 0.78455 0.52866 0.0
C591 C 0.34607 0.77304 0.55366 0.0
H592 H 0.41416 0.83346 0.5019 0.0
H593 H 0.36605 0.76135 0.51385 0.0
S594 S 0.35166 0.84428 0.60893 0.0
N595 N 0.38458 0.87483 0.5844 0.0
N596 N 0.33202 0.79691 0.59726 0.0
C597 C 0.35222 0.80442 0.5722 0.0
C598 C 0.38058 0.84669 0.56519 0.0
C599 C 0.56833 0.32651 0.68532 0.0
C600 C 0.53507 0.32448 0.70008 0.0
C601 C 0.58784 0.3067 0.69535 0.0
C602 C 0.57498 0.28412 0.72062 0.0
H603 H 0.57938 0.34358 0.66578 0.0
H604 H 0.61342 0.30936 0.68315 0.0
S605 S 0.48916 0.26947 0.76722 0.0
N606 N 0.48988 0.29829 0.74117 0.0
N607 N 0.52652 0.26065 0.76013 0.0
C608 C 0.5414 0.28145 0.7355 0.0
C609 C 0.5214 0.30167 0.72518 0.0
C610 C 0.26383 0.55404 0.8694 0.0
C611 C 0.25054 0.58057 0.87734 0.0
C612 C 0.30455 0.5641 0.87498 0.0
C613 C 0.33359 0.6013 0.88831 0.0
H614 H 0.24314 0.52599 0.85782 0.0
H615 H 0.31382 0.54337 0.86767 0.0
S616 S 0.31304 0.67886 0.91649 0.0
N617 N 0.2683 0.6435 0.90188 0.0
N618 N 0.34561 0.66313 0.91152 0.0
C619 C 0.32037 0.62737 0.89738 0.0
C620 C 0.27865 0.61684 0.89206 0.0
C621 C 0.77189 0.24226 0.05504 0.0
C622 C 0.73609 0.22299 0.03774 0.0
C623 C 0.79118 0.28375 0.0625 0.0
C624 C 0.7753 0.30742 0.05299 0.0
H625 H 0.78539 0.22522 0.06255 0.0
H626 H 0.81901 0.29746 0.07556 0.0
S627 S 0.68241 0.27141 0.00697 0.0
N628 N 0.68569 0.2306 0.01109 0.0
N629 N 0.72138 0.30844 0.0255 0.0
C630 C 0.73897 0.28827 0.03614 0.0
C631 C 0.71948 0.24607 0.02844 0.0
C632 C 0.54896 0.73758 0.22248 0.0
C633 C 0.53198 0.71554 0.19728 0.0
C634 C 0.54349 0.76966 0.23014 0.0
C635 C 0.52115 0.78107 0.21275 0.0
H636 H 0.56627 0.7297 0.23649 0.0
H637 H 0.5568 0.78551 0.24988 0.0
S638 S 0.47272 0.73432 0.14364 0.0
N639 N 0.49351 0.70823 0.15439 0.0
N640 N 0.48304 0.76836 0.16866 0.0
C641 C 0.50449 0.75952 0.18727 0.0
C642 C 0.50993 0.72677 0.17959 0.0
C643 C 0.84632 0.51494 0.38005 0.0
C644 C 0.87224 0.55504 0.36927 0.0
C645 C 0.80503 0.50012 0.38841 0.0
C646 C 0.78839 0.52517 0.38712 0.0
H647 H 0.85782 0.49456 0.38182 0.0
H648 H 0.78584 0.46868 0.39578 0.0
S649 S 0.84161 0.63163 0.35991 0.0
N650 N 0.87679 0.61884 0.35675 0.0
N651 N 0.80003 0.59144 0.37421 0.0
C652 C 0.81389 0.56549 0.37717 0.0
C653 C 0.85561 0.58034 0.36786 0.0
C654 C 0.11845 0.59641 0.46565 0.0
C655 C 0.12811 0.63112 0.44941 0.0
C656 C 0.14344 0.5996 0.48866 0.0
C657 C 0.17848 0.63776 0.49668 0.0
H658 H 0.09139 0.56643 0.46054 0.0
H659 H 0.13492 0.57214 0.50051 0.0
S660 S 0.2193 0.73761 0.46069 0.0
N661 N 0.17747 0.70461 0.4423 0.0
N662 N 0.22252 0.71068 0.48647 0.0
C663 C 0.18847 0.6727 0.48091 0.0
C664 C 0.16376 0.66939 0.45709 0.0
C665 C 0.5927 0.11904 0.63577 0.0
C666 C 0.54947 0.08936 0.63445 0.0
C667 C 0.61092 0.14305 0.6599 0.0
C668 C 0.58665 0.13854 0.68369 0.0
H669 H 0.6124 0.12523 0.61751 0.0
H670 H 0.64405 0.16647 0.65941 0.0
S671 S 0.4728 0.06201 0.6921 0.0
N672 N 0.48345 0.05427 0.6598 0.0
N673 N 0.51755 0.09975 0.70525 0.0
C674 C 0.5437 0.10761 0.68319 0.0
C675 C 0.52514 0.08303 0.65854 0.0
C676 C 0.43693 0.52514 0.78252 0.0
C677 C 0.43991 0.54657 0.75774 0.0
C678 C 0.44392 0.54392 0.80903 0.0
C679 C 0.45392 0.58467 0.81163 0.0
H680 H 0.42986 0.4939 0.78135 0.0
H681 H 0.44111 0.52625 0.82759 0.0
S682 S 0.46477 0.6535 0.75281 0.0
N683 N 0.45297 0.61015 0.73726 0.0
N684 N 0.46628 0.64573 0.78686 0.0
C685 C 0.45691 0.60631 0.78687 0.0
C686 C 0.44987 0.58719 0.75998 0.0
C687 C 0.93313 0.45751 0.95276 0.0
C688 C 0.9186 0.47356 0.93238 0.0
C689 C 0.92072 0.45362 0.98101 0.0
C690 C 0.89316 0.46551 0.98993 0.0
H691 H 0.9547 0.4483 0.94689 0.0
H692 H 0.93242 0.44072 0.99587 0.0
S693 S 0.84602 0.50919 0.9446 0.0
N694 N 0.87517 0.50125 0.92291 0.0
N695 N 0.85186 0.49428 0.97592 0.0
C696 C 0.87864 0.48191 0.96972 0.0
C697 C 0.89135 0.48586 0.94099 0.0
C698 C 0.62625 0.9741 0.14074 0.0
C699 C 0.61553 -0.00028 0.12702 0.0
C700 C 0.60694 0.95431 0.16605 0.0
C701 C 0.57578 0.9589 0.17825 0.0
H702 H 0.64779 0.96723 0.13103 0.0
H703 H 0.61448 0.93315 0.17507 0.0
S704 S 0.54195 0.0282 0.15379 0.0
N705 N 0.57652 0.03353 0.13009 0.0
N706 N 0.53877 0.9946 0.17694 0.0
C707 C 0.56679 0.98645 0.16589 0.0
C708 C 0.58705 0.00731 0.14046 0.0
C709 C 0.6391 0.53762 0.28221 0.0
C710 C 0.61703 0.55742 0.28563 0.0
C711 C 0.64716 0.52001 0.30514 0.0
C712 C 0.63449 0.52279 0.33238 0.0
H713 H 0.64956 0.53514 0.26153 0.0
H714 H 0.66393 0.50469 0.30159 0.0
S715 S 0.57618 0.57186 0.35255 0.0
N716 N 0.58225 0.57845 0.3181 0.0
N717 N 0.59907 0.54701 0.36168 0.0
C718 C 0.61303 0.54315 0.3362 0.0
C719 C 0.60382 0.56005 0.31268 0.0
C720 C 0.49341 0.95523 0.35255 0.0
C721 C 0.50562 0.94191 0.37604 0.0
C722 C 0.49626 0.94317 0.32527 0.0
C723 C 0.51112 0.91701 0.32039 0.0
H724 H 0.48213 0.97571 0.35526 0.0
H725 H 0.48624 0.95416 0.3079 0.0
S726 S 0.54721 0.87375 0.37501 0.0
N727 N 0.53351 0.90163 0.39292 0.0
N728 N 0.53844 0.87832 0.34152 0.0
C729 C 0.52357 0.90352 0.34375 0.0
C730 C 0.52099 0.91619 0.3716 0.0
C731 C 0.58293 0.49617 0.51415 0.0
C732 C 0.54206 0.48693 0.50887 0.0
C733 C 0.60793 0.49597 0.49238 0.0
C734 C 0.59281 0.48624 0.46461 0.0
H735 H 0.59513 0.50205 0.53545 0.0
H736 H 0.6387 0.50207 0.49754 0.0
S737 S 0.48969 0.46433 0.43932 0.0
N738 N 0.48897 0.47118 0.4736 0.0
N739 N 0.53559 0.47042 0.43264 0.0
C740 C 0.5526 0.47853 0.4589 0.0
C741 C 0.52728 0.4789 0.48104 0.0
C742 C 0.1394 0.60648 0.67709 0.0
C743 C 0.10484 0.56563 0.67634 0.0
C744 C 0.16729 0.62338 0.6544 0.0
C745 C 0.16175 0.6001 0.63004 0.0
H746 H 0.14581 0.62514 0.69579 0.0
H747 H 0.19393 0.65465 0.65628 0.0
S748 S 0.07422 0.4926 0.61673 0.0
N749 N 0.06517 0.50307 0.64869 0.0
N750 N 0.11755 0.53461 0.60596 0.0
C751 C 0.12656 0.55956 0.62868 0.0
C752 C 0.09817 0.54237 0.65184 0.0
C753 C 0.64393 0.17271 0.87192 0.0
C754 C 0.66014 0.14719 0.87227 0.0
C755 C 0.63667 0.18633 0.84641 0.0
C756 C 0.6453 0.17482 0.82037 0.0
H757 H 0.63731 0.18263 0.89151 0.0
H758 H 0.62496 0.20661 0.84713 0.0
S759 S 0.68409 0.10503 0.80988 0.0
N760 N 0.68152 0.10837 0.84439 0.0
N761 N 0.66857 0.13437 0.79657 0.0
C762 C 0.66051 0.14845 0.82048 0.0
C763 C 0.66778 0.13456 0.84639 0.0
C764 C 0.48331 0.58127 0.01243 0.0
C765 C 0.48991 0.6115 0.03223 0.0
C766 C 0.47608 0.58495 0.98395 0.0
C767 C 0.47455 0.61867 0.97439 0.0
H768 H 0.48462 0.55498 0.01891 0.0
H769 H 0.47157 0.56118 0.96939 0.0
S770 S 0.48975 0.70609 0.01798 0.0
N771 N 0.49445 0.67607 0.04047 0.0
N772 N 0.48049 0.68309 0.98705 0.0
C773 C 0.48076 0.64896 0.99409 0.0
C774 C 0.48858 0.64538 0.02298 0.0
C775 C 0.94859 0.54495 0.17438 0.0
C776 C 0.93636 0.52146 0.19926 0.0
C777 C 0.93194 0.52659 0.14812 0.0
C778 C 0.90241 0.48405 0.14574 0.0
H779 H 0.97169 0.5777 0.17518 0.0
H780 H 0.94212 0.54598 0.12959 0.0
S781 S 0.85958 0.4092 0.20481 0.0
N782 N 0.8926 0.45375 0.22001 0.0
N783 N 0.86151 0.41904 0.17082 0.0
C784 C 0.89004 0.46025 0.17053 0.0
C785 C 0.90696 0.47899 0.19722 0.0
loop_
_geom_bond_atom_site_label_1
_geom_bond_atom_site_label_2
_geom_bond_distance
_geom_bond_site_symmetry_2
_ccdc_geom_bond_type
H0 O26 0.856 . S
H1 O29 0.854 . S
H2 C37 0.930 . S
H3 C38 0.930 . S
H4 C40 0.930 . S
H5 C41 0.930 . S
H6 C43 0.931 . S
H7 C44 0.930 . S
H8 C46 0.930 . S
H9 C47 0.929 . S
H10 C49 0.930 . S
H11 C50 0.931 . S
H12 C52 0.930 . S
H13 C53 0.929 . S
H14 C55 0.931 . S
H15 C56 0.930 . S
H16 C58 0.930 . S
H17 C59 0.932 . S
H18 C61 0.930 . S
H19 C62 0.929 . S
H20 C64 0.931 . S
H21 C65 0.930 . S
H22 C67 0.929 . S
H23 C68 0.931 . S
H24 C70 0.930 . S
H25 C71 0.929 1_455 S
O26 H0 0.856 . S
O26 C72 1.300 . S
O27 C72 1.209 . S
O28 C73 1.199 . S
O29 H1 0.854 . S
O29 C73 1.297 . S
C30 C31 1.404 . S
C30 C35 1.397 . S
C30 C36 1.492 . S
C31 C30 1.404 . S
C31 C32 1.396 . S
C31 C42 1.492 . S
C32 C31 1.396 . S
C32 C33 1.397 . S
C32 C48 1.509 . S
C33 C32 1.397 . S
C33 C34 1.412 . S
C33 C54 1.485 . S
C34 C33 1.412 . S
C34 C35 1.388 . S
C34 C60 1.490 . S
C35 C30 1.397 . S
C35 C34 1.388 . S
C35 C66 1.519 . S
C36 C30 1.492 . S
C36 C37 1.363 . S
C36 C41 1.390 1_455 S
C37 H2 0.930 . S
C37 C36 1.363 . S
C37 C38 1.372 1_455 S
C38 H3 0.930 . S
C38 C37 1.372 1_655 S
C38 C39 1.383 . S
C39 C38 1.383 . S
C39 C40 1.395 . S
C40 H4 0.930 . S
C40 C39 1.395 . S
C40 C41 1.362 . S
C41 H5 0.930 . S
C41 C36 1.390 1_655 S
C41 C40 1.362 . S
C42 C31 1.492 . S
C42 C43 1.377 . S
C42 C47 1.397 . S
C43 H6 0.931 . S
C43 C42 1.377 . S
C43 C44 1.376 . S
C44 H7 0.930 . S
C44 C43 1.376 . S
C44 C45 1.376 . S
C45 C44 1.376 . S
C45 C46 1.378 . S
C45 C72 1.486 . S
C46 H8 0.930 . S
C46 C45 1.378 . S
C46 C47 1.376 . S
C47 H9 0.929 . S
C47 C42 1.397 . S
C47 C46 1.376 . S
C48 C32 1.509 . S
C48 C49 1.391 . S
C48 C53 1.386 . S
C49 H10 0.930 . S
C49 C48 1.391 . S
C49 C50 1.375 . S
C50 H11 0.931 . S
C50 C49 1.375 . S
C50 C51 1.375 . S
C51 C50 1.375 . S
C51 C52 1.361 . S
C52 H12 0.930 . S
C52 C51 1.361 . S
C52 C53 1.399 . S
C53 H13 0.929 . S
C53 C48 1.386 . S
C53 C52 1.399 . S
C54 C33 1.485 . S
C54 C55 1.394 . S
C54 C59 1.360 . S
C55 H14 0.931 . S
C55 C54 1.394 . S
C55 C56 1.372 . S
C56 H15 0.930 . S
C56 C55 1.372 . S
C56 C57 1.397 . S
C57 C56 1.397 . S
C57 C58 1.390 . S
C57 C73 1.476 . S
C58 H16 0.930 . S
C58 C57 1.390 . S
C58 C59 1.366 . S
C59 H17 0.932 . S
C59 C54 1.360 . S
C59 C58 1.366 . S
C60 C34 1.490 . S
C60 C61 1.380 . S
C60 C65 1.386 . S
C61 H18 0.930 . S
C61 C60 1.380 . S
C61 C62 1.381 . S
C62 H19 0.929 . S
C62 C61 1.381 . S
C62 C63 1.371 . S
C63 C62 1.371 . S
C63 C64 1.380 . S
C64 H20 0.931 . S
C64 C63 1.380 . S
C64 C65 1.387 . S
C65 H21 0.930 . S
C65 C60 1.386 . S
C65 C64 1.387 . S
C66 C35 1.519 . S
C66 C67 1.377 1_455 S
C66 C71 1.361 1_455 S
C67 H22 0.929 . S
C67 C66 1.377 1_655 S
C67 C68 1.386 . S
C68 H23 0.931 . S
C68 C67 1.386 . S
C68 C69 1.363 . S
C69 C68 1.363 . S
C69 C70 1.385 . S
C70 H24 0.930 . S
C70 C69 1.385 . S
C70 C71 1.396 . S
C71 H25 0.929 1_655 S
C71 C66 1.361 1_655 S
C71 C70 1.396 . S
C72 O26 1.300 . S
C72 O27 1.209 . S
C72 C45 1.486 . S
C73 O28 1.199 . S
C73 O29 1.297 . S
C73 C57 1.476 . S
H74 O100 0.856 . S
H75 O103 0.854 . S
H76 C111 0.930 . S
H77 C112 0.930 . S
H78 C114 0.930 . S
H79 C115 0.930 . S
H80 C117 0.931 . S
H81 C118 0.930 . S
H82 C120 0.930 . S
H83 C121 0.929 . S
H84 C123 0.930 . S
H85 C124 0.931 . S
H86 C126 0.930 . S
H87 C127 0.929 . S
H88 C129 0.931 . S
H89 C130 0.930 . S
H90 C132 0.930 . S
H91 C133 0.932 . S
H92 C135 0.930 . S
H93 C136 0.929 . S
H94 C138 0.931 . S
H95 C139 0.930 . S
H96 C141 0.933 1_545 S
H97 C142 0.931 . S
H98 C144 0.930 . S
H99 C145 0.929 1_545 S
O100 H74 0.856 . S
O100 C146 1.300 . S
O101 C146 1.209 . S
O102 C147 1.199 . S
O103 H75 0.854 . S
O103 C147 1.297 . S
C104 C105 1.404 . S
C104 C109 1.397 . S
C104 C110 1.492 . S
C105 C104 1.404 . S
C105 C106 1.396 . S
C105 C116 1.492 . S
C106 C105 1.396 . S
C106 C107 1.397 . S
C106 C122 1.509 . S
C107 C106 1.397 . S
C107 C108 1.412 . S
C107 C128 1.485 . S
C108 C107 1.412 . S
C108 C109 1.388 . S
C108 C134 1.490 . S
C109 C104 1.397 . S
C109 C108 1.388 . S
C109 C140 1.519 . S
C110 C104 1.492 . S
C110 C111 1.363 . S
C110 C115 1.390 1_545 S
C111 H76 0.930 . S
C111 C110 1.363 . S
C111 C112 1.372 1_545 S
C112 H77 0.930 . S
C112 C111 1.372 1_565 S
C112 C113 1.383 . S
C113 C112 1.383 . S
C113 C114 1.395 . S
C114 H78 0.930 . S
C114 C113 1.395 . S
C114 C115 1.362 . S
C115 H79 0.930 . S
C115 C110 1.390 1_565 S
C115 C114 1.362 . S
C116 C105 1.492 . S
C116 C117 1.377 . S
C116 C121 1.397 . S
C117 H80 0.931 . S
C117 C116 1.377 . S
C117 C118 1.376 . S
C118 H81 0.930 . S
C118 C117 1.376 . S
C118 C119 1.376 . S
C119 C118 1.376 . S
C119 C120 1.378 . S
C119 C146 1.486 . S
C120 H82 0.930 . S
C120 C119 1.378 . S
C120 C121 1.376 . S
C121 H83 0.929 . S
C121 C116 1.397 . S
C121 C120 1.376 . S
C122 C106 1.509 . S
C122 C123 1.391 . S
C122 C127 1.386 . S
C123 H84 0.930 . S
C123 C122 1.391 . S
C123 C124 1.375 . S
C124 H85 0.931 . S
C124 C123 1.375 . S
C124 C125 1.375 . S
C125 C124 1.375 . S
C125 C126 1.361 . S
C126 H86 0.930 . S
C126 C125 1.361 . S
C126 C127 1.399 . S
C127 H87 0.929 . S
C127 C122 1.386 . S
C127 C126 1.399 . S
C128 C107 1.485 . S
C128 C129 1.394 . S
C128 C133 1.360 . S
C129 H88 0.931 . S
C129 C128 1.394 . S
C129 C130 1.372 . S
C130 H89 0.930 . S
C130 C129 1.372 . S
C130 C131 1.397 . S
C131 C130 1.397 . S
C131 C132 1.390 . S
C131 C147 1.476 . S
C132 H90 0.930 . S
C132 C131 1.390 . S
C132 C133 1.366 . S
C133 H91 0.932 . S
C133 C128 1.360 . S
C133 C132 1.366 . S
C134 C108 1.490 . S
C134 C135 1.380 . S
C134 C139 1.386 . S
C135 H92 0.930 . S
C135 C134 1.380 . S
C135 C136 1.381 . S
C136 H93 0.929 . S
C136 C135 1.381 . S
C136 C137 1.371 . S
C137 C136 1.371 . S
C137 C138 1.380 . S
C138 H94 0.931 . S
C138 C137 1.380 . S
C138 C139 1.387 . S
C139 H95 0.930 . S
C139 C134 1.386 . S
C139 C138 1.387 . S
C140 C109 1.519 . S
C140 C141 1.377 1_545 S
C140 C145 1.361 1_545 S
C141 H96 0.933 1_565 S
C141 C140 1.377 1_565 S
C141 C142 1.386 . S
C142 H97 0.931 . S
C142 C141 1.386 . S
C142 C143 1.363 . S
C143 C142 1.363 . S
C143 C144 1.385 . S
C144 H98 0.930 . S
C144 C143 1.385 . S
C144 C145 1.396 . S
C145 H99 0.929 1_565 S
C145 C140 1.361 1_565 S
C145 C144 1.396 . S
C146 O100 1.300 . S
C146 O101 1.209 . S
C146 C119 1.486 . S
C147 O102 1.199 . S
C147 O103 1.297 . S
C147 C131 1.476 . S
H148 O174 0.856 . S
H149 O177 0.854 . S
H150 C185 0.930 . S
H151 C186 0.930 . S
H152 C188 0.930 . S
H153 C189 0.930 . S
H154 C191 0.931 . S
H155 C192 0.930 . S
H156 C194 0.930 . S
H157 C195 0.929 . S
H158 C197 0.930 . S
H159 C198 0.931 . S
H160 C200 0.930 . S
H161 C201 0.929 . S
H162 C203 0.931 . S
H163 C204 0.930 . S
H164 C206 0.930 . S
H165 C207 0.932 . S
H166 C209 0.930 . S
H167 C210 0.929 . S
H168 C212 0.931 . S
H169 C213 0.930 . S
H170 C215 0.929 . S
H171 C216 0.931 . S
H172 C218 0.930 . S
H173 C219 0.929 . S
O174 H148 0.856 . S
O174 C220 1.300 . S
O175 C220 1.209 . S
O176 C221 1.199 . S
O177 H149 0.854 . S
O177 C221 1.297 . S
C178 C179 1.404 . S
C178 C183 1.397 . S
C178 C184 1.492 . S
C179 C178 1.404 . S
C179 C180 1.396 . S
C179 C190 1.492 . S
C180 C179 1.396 . S
C180 C181 1.397 . S
C180 C196 1.509 . S
C181 C180 1.397 . S
C181 C182 1.412 . S
C181 C202 1.485 . S
C182 C181 1.412 . S
C182 C183 1.388 . S
C182 C208 1.490 . S
C183 C178 1.397 . S
C183 C182 1.388 . S
C183 C214 1.519 . S
C184 C178 1.492 . S
C184 C185 1.363 . S
C184 C189 1.390 . S
C185 H150 0.930 . S
C185 C184 1.363 . S
C185 C186 1.372 . S
C186 H151 0.930 . S
C186 C185 1.372 . S
C186 C187 1.383 . S
C187 C186 1.383 . S
C187 C188 1.395 . S
C188 H152 0.930 . S
C188 C187 1.395 . S
C188 C189 1.362 . S
C189 H153 0.930 . S
C189 C184 1.390 . S
C189 C188 1.362 . S
C190 C179 1.492 . S
C190 C191 1.377 . S
C190 C195 1.397 . S
C191 H154 0.931 . S
C191 C190 1.377 . S
C191 C192 1.376 . S
C192 H155 0.930 . S
C192 C191 1.376 . S
C192 C193 1.376 . S
C193 C192 1.376 . S
C193 C194 1.378 . S
C193 C220 1.486 . S
C194 H156 0.930 . S
C194 C193 1.378 . S
C194 C195 1.376 . S
C195 H157 0.929 . S
C195 C190 1.397 . S
C195 C194 1.376 . S
C196 C180 1.509 . S
C196 C197 1.391 . S
C196 C201 1.386 . S
C197 H158 0.930 . S
C197 C196 1.391 . S
C197 C198 1.375 . S
C198 H159 0.931 . S
C198 C197 1.375 . S
C198 C199 1.375 . S
C199 C198 1.375 . S
C199 C200 1.361 . S
C200 H160 0.930 . S
C200 C199 1.361 . S
C200 C201 1.399 . S
C201 H161 0.929 . S
C201 C196 1.386 . S
C201 C200 1.399 . S
C202 C181 1.485 . S
C202 C203 1.394 . S
C202 C207 1.360 . S
C203 H162 0.931 . S
C203 C202 1.394 . S
C203 C204 1.372 . S
C204 H163 0.930 . S
C204 C203 1.372 . S
C204 C205 1.397 . S
C205 C204 1.397 . S
C205 C206 1.390 . S
C205 C221 1.476 . S
C206 H164 0.930 . S
C206 C205 1.390 . S
C206 C207 1.366 . S
C207 H165 0.932 . S
C207 C202 1.360 . S
C207 C206 1.366 . S
C208 C182 1.490 . S
C208 C209 1.380 . S
C208 C213 1.386 . S
C209 H166 0.930 . S
C209 C208 1.380 . S
C209 C210 1.381 . S
C210 H167 0.929 . S
C210 C209 1.381 . S
C210 C211 1.371 . S
C211 C210 1.371 . S
C211 C212 1.380 . S
C212 H168 0.931 . S
C212 C211 1.380 . S
C212 C213 1.387 . S
C213 H169 0.930 . S
C213 C208 1.386 . S
C213 C212 1.387 . S
C214 C183 1.519 . S
C214 C215 1.377 . S
C214 C219 1.361 . S
C215 H170 0.929 . S
C215 C214 1.377 . S
C215 C216 1.386 . S
C216 H171 0.931 . S
C216 C215 1.386 . S
C216 C217 1.363 . S
C217 C216 1.363 . S
C217 C218 1.385 . S
C218 H172 0.930 . S
C218 C217 1.385 . S
C218 C219 1.396 . S
C219 H173 0.929 . S
C219 C214 1.361 . S
C219 C218 1.396 . S
C220 O174 1.300 . S
C220 O175 1.209 . S
C220 C193 1.486 . S
C221 O176 1.199 . S
C221 O177 1.297 . S
C221 C205 1.476 . S
H222 O248 0.856 1_554 S
H223 O251 0.854 . S
H224 C259 0.930 1_455 S
H225 C260 0.930 . S
H226 C262 0.930 . S
H227 C263 0.930 . S
H228 C265 0.931 . S
H229 C266 0.930 . S
H230 C268 0.930 . S
H231 C269 0.929 . S
H232 C271 0.930 . S
H233 C272 0.931 . S
H234 C274 0.930 . S
H235 C275 0.929 . S
H236 C277 0.931 . S
H237 C278 0.930 . S
H238 C280 0.930 . S
H239 C281 0.932 . S
H240 C283 0.930 . S
H241 C284 0.929 . S
H242 C286 0.931 . S
H243 C287 0.930 . S
H244 C289 0.929 . S
H245 C290 0.931 . S
H246 C292 0.930 . S
H247 C293 0.929 . S
O248 H222 0.856 1_556 S
O248 C294 1.300 . S
O249 C294 1.209 . S
O250 C295 1.199 . S
O251 H223 0.854 . S
O251 C295 1.297 . S
C252 C253 1.404 . S
C252 C257 1.397 . S
C252 C258 1.492 . S
C253 C252 1.404 . S
C253 C254 1.396 . S
C253 C264 1.492 . S
C254 C253 1.396 . S
C254 C255 1.397 . S
C254 C270 1.509 . S
C255 C254 1.397 . S
C255 C256 1.412 . S
C255 C276 1.485 . S
C256 C255 1.412 . S
C256 C257 1.388 . S
C256 C282 1.490 . S
C257 C252 1.397 . S
C257 C256 1.388 . S
C257 C288 1.519 1_455 S
C258 C252 1.492 . S
C258 C259 1.363 1_455 S
C258 C263 1.390 1_455 S
C259 H224 0.930 1_655 S
C259 C258 1.363 1_655 S
C259 C260 1.372 . S
C260 H225 0.930 . S
C260 C259 1.372 . S
C260 C261 1.383 . S
C261 C260 1.383 . S
C261 C262 1.395 . S
C262 H226 0.930 . S
C262 C261 1.395 . S
C262 C263 1.362 . S
C263 H227 0.930 . S
C263 C258 1.390 1_655 S
C263 C262 1.362 . S
C264 C253 1.492 . S
C264 C265 1.377 . S
C264 C269 1.397 . S
C265 H228 0.931 . S
C265 C264 1.377 . S
C265 C266 1.376 . S
C266 H229 0.930 . S
C266 C265 1.376 . S
C266 C267 1.376 . S
C267 C266 1.376 . S
C267 C268 1.378 . S
C267 C294 1.486 . S
C268 H230 0.930 . S
C268 C267 1.378 . S
C268 C269 1.376 . S
C269 H231 0.929 . S
C269 C264 1.397 . S
C269 C268 1.376 . S
C270 C254 1.509 . S
C270 C271 1.391 . S
C270 C275 1.386 . S
C271 H232 0.930 . S
C271 C270 1.391 . S
C271 C272 1.375 . S
C272 H233 0.931 . S
C272 C271 1.375 . S
C272 C273 1.375 . S
C273 C272 1.375 . S
C273 C274 1.361 . S
C274 H234 0.930 . S
C274 C273 1.361 . S
C274 C275 1.399 . S
C275 H235 0.929 . S
C275 C270 1.386 . S
C275 C274 1.399 . S
C276 C255 1.485 . S
C276 C277 1.394 . S
C276 C281 1.360 . S
C277 H236 0.931 . S
C277 C276 1.394 . S
C277 C278 1.372 . S
C278 H237 0.930 . S
C278 C277 1.372 . S
C278 C279 1.397 . S
C279 C278 1.397 . S
C279 C280 1.390 . S
C279 C295 1.476 . S
C280 H238 0.930 . S
C280 C279 1.390 . S
C280 C281 1.366 . S
C281 H239 0.932 . S
C281 C276 1.360 . S
C281 C280 1.366 . S
C282 C256 1.490 . S
C282 C283 1.380 . S
C282 C287 1.386 . S
C283 H240 0.930 . S
C283 C282 1.380 . S
C283 C284 1.381 . S
C284 H241 0.929 . S
C284 C283 1.381 . S
C284 C285 1.371 . S
C285 C284 1.371 . S
C285 C286 1.380 . S
C286 H242 0.931 . S
C286 C285 1.380 . S
C286 C287 1.387 . S
C287 H243 0.930 . S
C287 C282 1.386 . S
C287 C286 1.387 . S
C288 C257 1.519 1_655 S
C288 C289 1.377 . S
C288 C293 1.361 . S
C289 H244 0.929 . S
C289 C288 1.377 . S
C289 C290 1.386 . S
C290 H245 0.931 . S
C290 C289 1.386 . S
C290 C291 1.363 . S
C291 C290 1.363 . S
C291 C292 1.385 . S
C292 H246 0.930 . S
C292 C291 1.385 . S
C292 C293 1.396 . S
C293 H247 0.929 . S
C293 C288 1.361 . S
C293 C292 1.396 . S
C294 O248 1.300 . S
C294 O249 1.209 . S
C294 C267 1.486 . S
C295 O250 1.199 . S
C295 O251 1.297 . S
C295 C279 1.476 . S
H296 O322 0.856 . S
H297 O325 0.854 . S
H298 C333 0.930 . S
H299 C334 0.930 . S
H300 C336 0.930 . S
H301 C337 0.930 . S
H302 C339 0.931 . S
H303 C340 0.930 . S
H304 C342 0.930 . S
H305 C343 0.929 . S
H306 C345 0.930 . S
H307 C346 0.931 . S
H308 C348 0.930 . S
H309 C349 0.929 . S
H310 C351 0.931 . S
H311 C352 0.930 . S
H312 C354 0.930 . S
H313 C355 0.932 . S
H314 C357 0.930 . S
H315 C358 0.929 . S
H316 C360 0.931 . S
H317 C361 0.930 . S
H318 C363 0.939 . S
H319 C364 0.931 . S
H320 C366 0.930 . S
H321 C367 0.929 . S
O322 H296 0.856 . S
O322 C368 1.300 . S
O323 C368 1.209 . S
O324 C369 1.199 . S
O325 H297 0.854 . S
O325 C369 1.297 . S
C326 C327 1.404 1_545 S
C326 C331 1.397 . S
C326 C332 1.492 . S
C327 C326 1.404 1_565 S
C327 C328 1.396 . S
C327 C338 1.492 . S
C328 C327 1.396 . S
C328 C329 1.397 . S
C328 C344 1.509 . S
C329 C328 1.397 . S
C329 C330 1.412 1_566 S
C329 C350 1.485 1_556 S
C330 C329 1.412 1_544 S
C330 C331 1.388 1_554 S
C330 C356 1.490 . S
C331 C326 1.397 . S
C331 C330 1.388 1_556 S
C331 C362 1.519 1_556 S
C332 C326 1.492 . S
C332 C333 1.363 . S
C332 C337 1.390 . S
C333 H298 0.930 . S
C333 C332 1.363 . S
C333 C334 1.372 . S
C334 H299 0.930 . S
C334 C333 1.372 . S
C334 C335 1.383 . S
C335 C334 1.383 . S
C335 C336 1.395 . S
C336 H300 0.930 . S
C336 C335 1.395 . S
C336 C337 1.362 . S
C337 H301 0.930 . S
C337 C332 1.390 . S
C337 C336 1.362 . S
C338 C327 1.492 . S
C338 C339 1.377 . S
C338 C343 1.397 1_565 S
C339 H302 0.931 . S
C339 C338 1.377 . S
C339 C340 1.376 . S
C340 H303 0.930 . S
C340 C339 1.376 . S
C340 C341 1.376 . S
C341 C340 1.376 . S
C341 C342 1.378 1_565 S
C341 C368 1.486 . S
C342 H304 0.930 . S
C342 C341 1.378 1_545 S
C342 C343 1.376 . S
C343 H305 0.929 . S
C343 C338 1.397 1_545 S
C343 C342 1.376 . S
C344 C328 1.509 . S
C344 C345 1.391 . S
C344 C349 1.386 . S
C345 H306 0.930 . S
C345 C344 1.391 . S
C345 C346 1.375 . S
C346 H307 0.931 . S
C346 C345 1.375 . S
C346 C347 1.375 . S
C347 C346 1.375 . S
C347 C348 1.361 . S
C348 H308 0.930 . S
C348 C347 1.361 . S
C348 C349 1.399 . S
C349 H309 0.929 . S
C349 C344 1.386 . S
C349 C348 1.399 . S
C350 C329 1.485 1_554 S
C350 C351 1.394 . S
C350 C355 1.360 . S
C351 H310 0.931 . S
C351 C350 1.394 . S
C351 C352 1.372 . S
C352 H311 0.930 . S
C352 C351 1.372 . S
C352 C353 1.397 . S
C353 C352 1.397 . S
C353 C354 1.390 . S
C353 C369 1.476 . S
C354 H312 0.930 . S
C354 C353 1.390 . S
C354 C355 1.366 . S
C355 H313 0.932 . S
C355 C350 1.360 . S
C355 C354 1.366 . S
C356 C330 1.490 . S
C356 C357 1.380 . S
C356 C361 1.386 . S
C357 H314 0.930 . S
C357 C356 1.380 . S
C357 C358 1.381 . S
C358 H315 0.929 . S
C358 C357 1.381 . S
C358 C359 1.371 . S
C359 C358 1.371 . S
C359 C360 1.380 . S
C360 H316 0.931 . S
C360 C359 1.380 . S
C360 C361 1.387 . S
C361 H317 0.930 . S
C361 C356 1.386 . S
C361 C360 1.387 . S
C362 C331 1.519 1_554 S
C362 C363 1.376 1_554 S
C362 C367 1.361 . S
C363 H318 0.939 . S
C363 C362 1.376 1_556 S
C363 C364 1.378 1_556 S
C364 H319 0.931 . S
C364 C363 1.378 1_554 S
C364 C365 1.363 . S
C365 C364 1.363 . S
C365 C366 1.385 . S
C366 H320 0.930 . S
C366 C365 1.385 . S
C366 C367 1.396 . S
C367 H321 0.929 . S
C367 C362 1.361 . S
C367 C366 1.396 . S
C368 O322 1.300 . S
C368 O323 1.209 . S
C368 C341 1.486 . S
C369 O324 1.199 . S
C369 O325 1.297 . S
C369 C353 1.476 . S
H370 O396 0.856 . S
H371 O399 0.854 . S
H372 C407 0.930 . S
H373 C408 0.930 . S
H374 C410 0.930 . S
H375 C411 0.930 . S
H376 C413 0.931 . S
H377 C414 0.930 . S
H378 C416 0.930 . S
H379 C417 0.929 . S
H380 C419 0.930 . S
H381 C420 0.931 . S
H382 C422 0.930 . S
H383 C423 0.929 . S
H384 C425 0.931 . S
H385 C426 0.930 . S
H386 C428 0.930 . S
H387 C429 0.932 . S
H388 C431 0.930 . S
H389 C432 0.929 . S
H390 C434 0.931 . S
H391 C435 0.930 . S
H392 C437 0.929 . S
H393 C438 0.931 . S
H394 C440 0.930 . S
H395 C441 0.929 . S
O396 H370 0.856 . S
O396 C442 1.300 . S
O397 C442 1.209 . S
O398 C443 1.199 . S
O399 H371 0.854 . S
O399 C443 1.297 . S
C400 C401 1.404 . S
C400 C405 1.397 . S
C400 C406 1.492 . S
C401 C400 1.404 . S
C401 C402 1.396 . S
C401 C412 1.492 . S
C402 C401 1.396 . S
C402 C403 1.397 . S
C402 C418 1.509 . S
C403 C402 1.397 . S
C403 C404 1.412 . S
C403 C424 1.485 . S
C404 C403 1.412 . S
C404 C405 1.388 . S
C404 C430 1.490 . S
C405 C400 1.397 . S
C405 C404 1.388 . S
C405 C436 1.519 . S
C406 C400 1.492 . S
C406 C407 1.363 . S
C406 C411 1.390 . S
C407 H372 0.930 . S
C407 C406 1.363 . S
C407 C408 1.372 . S
C408 H373 0.930 . S
C408 C407 1.372 . S
C408 C409 1.383 . S
C409 C408 1.383 . S
C409 C410 1.395 . S
C410 H374 0.930 . S
C410 C409 1.395 . S
C410 C411 1.362 . S
C411 H375 0.930 . S
C411 C406 1.390 . S
C411 C410 1.362 . S
C412 C401 1.492 . S
C412 C413 1.377 . S
C412 C417 1.397 . S
C413 H376 0.931 . S
C413 C412 1.377 . S
C413 C414 1.376 . S
C414 H377 0.930 . S
C414 C413 1.376 . S
C414 C415 1.376 . S
C415 C414 1.376 . S
C415 C416 1.378 . S
C415 C442 1.486 1_554 S
C416 H378 0.930 . S
C416 C415 1.378 . S
C416 C417 1.376 . S
C417 H379 0.929 . S
C417 C412 1.397 . S
C417 C416 1.376 . S
C418 C402 1.509 . S
C418 C419 1.391 . S
C418 C423 1.386 . S
C419 H380 0.930 . S
C419 C418 1.391 . S
C419 C420 1.375 . S
C420 H381 0.931 . S
C420 C419 1.375 . S
C420 C421 1.375 . S
C421 C420 1.375 . S
C421 C422 1.361 . S
C422 H382 0.930 . S
C422 C421 1.361 . S
C422 C423 1.399 . S
C423 H383 0.929 . S
C423 C418 1.386 . S
C423 C422 1.399 . S
C424 C403 1.485 . S
C424 C425 1.394 . S
C424 C429 1.360 . S
C425 H384 0.931 . S
C425 C424 1.394 . S
C425 C426 1.372 . S
C426 H385 0.930 . S
C426 C425 1.372 . S
C426 C427 1.397 . S
C427 C426 1.397 . S
C427 C428 1.390 . S
C427 C443 1.476 . S
C428 H386 0.930 . S
C428 C427 1.390 . S
C428 C429 1.366 . S
C429 H387 0.932 . S
C429 C424 1.360 . S
C429 C428 1.366 . S
C430 C404 1.490 . S
C430 C431 1.380 . S
C430 C435 1.386 . S
C431 H388 0.930 . S
C431 C430 1.380 . S
C431 C432 1.381 . S
C432 H389 0.929 . S
C432 C431 1.381 . S
C432 C433 1.371 . S
C433 C432 1.371 . S
C433 C434 1.380 . S
C434 H390 0.931 . S
C434 C433 1.380 . S
C434 C435 1.387 . S
C435 H391 0.930 . S
C435 C430 1.386 . S
C435 C434 1.387 . S
C436 C405 1.519 . S
C436 C437 1.377 . S
C436 C441 1.361 . S
C437 H392 0.929 . S
C437 C436 1.377 . S
C437 C438 1.386 . S
C438 H393 0.931 . S
C438 C437 1.386 . S
C438 C439 1.363 . S
C439 C438 1.363 . S
C439 C440 1.385 . S
C440 H394 0.930 . S
C440 C439 1.385 . S
C440 C441 1.396 . S
C441 H395 0.929 . S
C441 C436 1.361 . S
C441 C440 1.396 . S
C442 O396 1.300 . S
C442 O397 1.209 . S
C442 C415 1.486 1_556 S
C443 O398 1.199 . S
C443 O399 1.297 . S
C443 C427 1.476 . S
In444 O445 2.294 . S
In444 O446 2.326 . S
In444 O450 2.266 . S
In444 O451 2.326 . S
In444 O452 2.266 . S
In444 O453 2.326 . S
In444 O455 2.294 . S
In444 O456 2.326 . S
O445 In444 2.294 . S
O445 C454 1.240 . S
O446 In444 2.326 . S
O446 C454 1.252 . S
C447 O450 1.252 . S
C447 O451 1.260 . S
C448 O455 1.240 . S
C448 O456 1.252 . S
C449 O452 1.252 . S
C449 O453 1.260 . S
O450 In444 2.266 . S
O450 C447 1.252 . S
O451 In444 2.326 . S
O451 C447 1.260 . S
O452 In444 2.266 . S
O452 C449 1.252 . S
O453 In444 2.326 . S
O453 C449 1.260 . S
C454 O445 1.240 . S
C454 O446 1.252 . S
O455 In444 2.294 . S
O455 C448 1.240 . S
O456 In444 2.326 . S
O456 C448 1.252 . S
In457 O458 2.294 . S
In457 O459 2.326 . S
In457 O463 2.266 . S
In457 O464 2.326 . S
In457 O465 2.266 . S
In457 O466 2.326 . S
In457 O468 2.294 . S
In457 O469 2.326 . S
O458 In457 2.294 . S
O458 C467 1.240 . S
O459 In457 2.326 . S
O459 C467 1.252 . S
C460 O463 1.252 . S
C460 O464 1.260 . S
C461 O468 1.240 . S
C461 O469 1.252 . S
C462 O465 1.252 . S
C462 O466 1.260 . S
O463 In457 2.266 . S
O463 C460 1.252 . S
O464 In457 2.326 . S
O464 C460 1.260 . S
O465 In457 2.266 . S
O465 C462 1.252 . S
O466 In457 2.326 . S
O466 C462 1.260 . S
C467 O458 1.240 . S
C467 O459 1.252 . S
O468 In457 2.294 . S
O468 C461 1.240 . S
O469 In457 2.326 . S
O469 C461 1.252 . S
In470 O471 2.294 . S
In470 O472 2.326 . S
In470 O476 2.266 . S
In470 O477 2.326 . S
In470 O478 2.266 . S
In470 O479 2.326 . S
In470 O481 2.294 . S
In470 O482 2.326 . S
O471 In470 2.294 . S
O471 C480 1.240 . S
O472 In470 2.326 . S
O472 C480 1.252 . S
C473 O476 1.252 . S
C473 O477 1.260 . S
C474 O481 1.240 . S
C474 O482 1.252 . S
C475 O478 1.252 . S
C475 O479 1.260 . S
O476 In470 2.266 . S
O476 C473 1.252 . S
O477 In470 2.326 . S
O477 C473 1.260 . S
O478 In470 2.266 . S
O478 C475 1.252 . S
O479 In470 2.326 . S
O479 C475 1.260 . S
C480 O471 1.240 . S
C480 O472 1.252 . S
O481 In470 2.294 . S
O481 C474 1.240 . S
O482 In470 2.326 . S
O482 C474 1.252 . S
In483 O484 2.294 . S
In483 O485 2.326 . S
In483 O489 2.266 . S
In483 O490 2.326 . S
In483 O491 2.266 . S
In483 O492 2.326 . S
In483 O494 2.294 . S
In483 O495 2.326 . S
O484 In483 2.294 . S
O484 C493 1.240 . S
O485 In483 2.326 . S
O485 C493 1.252 . S
C486 O489 1.252 . S
C486 O490 1.260 . S
C487 O494 1.240 . S
C487 O495 1.252 . S
C488 O491 1.252 . S
C488 O492 1.260 . S
O489 In483 2.266 . S
O489 C486 1.252 . S
O490 In483 2.326 . S
O490 C486 1.260 . S
O491 In483 2.266 . S
O491 C488 1.252 . S
O492 In483 2.326 . S
O492 C488 1.260 . S
C493 O484 1.240 . S
C493 O485 1.252 . S
O494 In483 2.294 . S
O494 C487 1.240 . S
O495 In483 2.326 . S
O495 C487 1.252 . S
In496 O497 2.294 . S
In496 O498 2.326 . S
In496 O502 2.266 . S
In496 O503 2.326 . S
In496 O504 2.266 . S
In496 O505 2.326 . S
In496 O507 2.294 . S
In496 O508 2.326 . S
O497 In496 2.294 . S
O497 C506 1.240 . S
O498 In496 2.326 . S
O498 C506 1.252 . S
C499 O502 1.252 . S
C499 O503 1.260 . S
C500 O507 1.240 . S
C500 O508 1.252 . S
C501 O504 1.252 . S
C501 O505 1.260 . S
O502 In496 2.266 . S
O502 C499 1.252 . S
O503 In496 2.326 . S
O503 C499 1.260 . S
O504 In496 2.266 . S
O504 C501 1.252 . S
O505 In496 2.326 . S
O505 C501 1.260 . S
C506 O497 1.240 . S
C506 O498 1.252 . S
O507 In496 2.294 . S
O507 C500 1.240 . S
O508 In496 2.326 . S
O508 C500 1.252 . S
In509 O510 2.294 . S
In509 O511 2.326 . S
In509 O515 2.266 . S
In509 O516 2.326 . S
In509 O517 2.266 . S
In509 O518 2.326 . S
In509 O520 2.294 . S
In509 O521 2.326 . S
O510 In509 2.294 . S
O510 C519 1.240 . S
O511 In509 2.326 . S
O511 C519 1.252 . S
C512 O515 1.252 . S
C512 O516 1.260 . S
C513 O520 1.240 . S
C513 O521 1.252 . S
C514 O517 1.252 . S
C514 O518 1.260 . S
O515 In509 2.266 . S
O515 C512 1.252 . S
O516 In509 2.326 . S
O516 C512 1.260 . S
O517 In509 2.266 . S
O517 C514 1.252 . S
O518 In509 2.326 . S
O518 C514 1.260 . S
C519 O510 1.240 . S
C519 O511 1.252 . S
O520 In509 2.294 . S
O520 C513 1.240 . S
O521 In509 2.326 . S
O521 C513 1.252 . S
C522 C523 1.369 . S
C522 C524 1.419 . S
C522 H526 0.930 . S
C523 C522 1.369 . S
C523 C532 1.429 . S
C524 C522 1.419 . S
C524 C525 1.363 . S
C524 H527 0.929 . S
C525 C524 1.363 . S
C525 C531 1.428 . S
H526 C522 0.930 . S
H527 C524 0.929 . S
S528 N529 1.613 . S
S528 N530 1.610 . S
N529 S528 1.613 . S
N529 C532 1.350 . S
N530 S528 1.610 . S
N530 C531 1.351 . S
C531 C525 1.428 . S
C531 N530 1.351 . S
C531 C532 1.434 . S
C532 C523 1.429 . S
C532 N529 1.350 . S
C532 C531 1.434 . S
C533 C534 1.369 . S
C533 C535 1.419 . S
C533 H537 0.930 . S
C534 C533 1.369 . S
C534 C543 1.429 . S
C535 C533 1.419 . S
C535 C536 1.363 . S
C535 H538 0.929 . S
C536 C535 1.363 . S
C536 C542 1.428 . S
H537 C533 0.930 . S
H538 C535 0.929 . S
S539 N540 1.613 . S
S539 N541 1.610 . S
N540 S539 1.613 . S
N540 C543 1.350 . S
N541 S539 1.610 . S
N541 C542 1.351 . S
C542 C536 1.428 . S
C542 N541 1.351 . S
C542 C543 1.434 . S
C543 C534 1.429 . S
C543 N540 1.350 . S
C543 C542 1.434 . S
C544 C545 1.369 . S
C544 C546 1.419 . S
C544 H548 0.930 . S
C545 C544 1.369 . S
C545 C554 1.429 . S
C546 C544 1.419 . S
C546 C547 1.363 . S
C546 H549 0.929 . S
C547 C546 1.363 . S
C547 C553 1.428 . S
H548 C544 0.930 . S
H549 C546 0.929 . S
S550 N551 1.613 . S
S550 N552 1.610 . S
N551 S550 1.613 . S
N551 C554 1.350 . S
N552 S550 1.610 . S
N552 C553 1.351 . S
C553 C547 1.428 . S
C553 N552 1.351 . S
C553 C554 1.434 . S
C554 C545 1.429 . S
C554 N551 1.350 . S
C554 C553 1.434 . S
C555 C556 1.369 . S
C555 C557 1.419 . S
C555 H559 0.930 . S
C556 C555 1.369 . S
C556 C565 1.429 . S
C557 C555 1.419 . S
C557 C558 1.363 . S
C557 H560 0.929 . S
C558 C557 1.363 . S
C558 C564 1.428 . S
H559 C555 0.930 . S
H560 C557 0.929 . S
S561 N562 1.613 . S
S561 N563 1.610 . S
N562 S561 1.613 . S
N562 C565 1.350 . S
N563 S561 1.610 . S
N563 C564 1.351 . S
C564 C558 1.428 . S
C564 N563 1.351 . S
C564 C565 1.434 . S
C565 C556 1.429 . S
C565 N562 1.350 . S
C565 C564 1.434 . S
C566 C567 1.369 . S
C566 C568 1.419 . S
C566 H570 0.930 . S
C567 C566 1.369 . S
C567 C576 1.429 . S
C568 C566 1.419 . S
C568 C569 1.363 . S
C568 H571 0.929 . S
C569 C568 1.363 . S
C569 C575 1.428 . S
H570 C566 0.930 . S
H571 C568 0.929 . S
S572 N573 1.613 . S
S572 N574 1.610 . S
N573 S572 1.613 . S
N573 C576 1.350 . S
N574 S572 1.610 . S
N574 C575 1.351 . S
C575 C569 1.428 . S
C575 N574 1.351 . S
C575 C576 1.434 . S
C576 C567 1.429 . S
C576 N573 1.350 . S
C576 C575 1.434 . S
C577 C578 1.369 . S
C577 C579 1.419 . S
C577 H581 0.930 . S
C578 C577 1.369 . S
C578 C587 1.429 . S
C579 C577 1.419 . S
C579 C580 1.363 . S
C579 H582 0.929 . S
C580 C579 1.363 . S
C580 C586 1.428 . S
H581 C577 0.930 . S
H582 C579 0.929 . S
S583 N584 1.613 . S
S583 N585 1.610 . S
N584 S583 1.613 . S
N584 C587 1.350 . S
N585 S583 1.610 . S
N585 C586 1.351 . S
C586 C580 1.428 . S
C586 N585 1.351 . S
C586 C587 1.434 . S
C587 C578 1.429 . S
C587 N584 1.350 . S
C587 C586 1.434 . S
C588 C589 1.369 . S
C588 C590 1.419 . S
C588 H592 0.930 . S
C589 C588 1.369 . S
C589 C598 1.429 . S
C590 C588 1.419 . S
C590 C591 1.363 . S
C590 H593 0.929 . S
C591 C590 1.363 . S
C591 C597 1.428 . S
H592 C588 0.930 . S
H593 C590 0.929 . S
S594 N595 1.613 . S
S594 N596 1.610 . S
N595 S594 1.613 . S
N595 C598 1.350 . S
N596 S594 1.610 . S
N596 C597 1.351 . S
C597 C591 1.428 . S
C597 N596 1.351 . S
C597 C598 1.434 . S
C598 C589 1.429 . S
C598 N595 1.350 . S
C598 C597 1.434 . S
C599 C600 1.369 . S
C599 C601 1.419 . S
C599 H603 0.930 . S
C600 C599 1.369 . S
C600 C609 1.429 . S
C601 C599 1.419 . S
C601 C602 1.363 . S
C601 H604 0.929 . S
C602 C601 1.363 . S
C602 C608 1.428 . S
H603 C599 0.930 . S
H604 C601 0.929 . S
S605 N606 1.613 . S
S605 N607 1.610 . S
N606 S605 1.613 . S
N606 C609 1.350 . S
N607 S605 1.610 . S
N607 C608 1.351 . S
C608 C602 1.428 . S
C608 N607 1.351 . S
C608 C609 1.434 . S
C609 C600 1.429 . S
C609 N606 1.350 . S
C609 C608 1.434 . S
C610 C611 1.369 . S
C610 C612 1.419 . S
C610 H614 0.930 . S
C611 C610 1.369 . S
C611 C620 1.429 . S
C612 C610 1.419 . S
C612 C613 1.363 . S
C612 H615 0.929 . S
C613 C612 1.363 . S
C613 C619 1.428 . S
H614 C610 0.930 . S
H615 C612 0.929 . S
S616 N617 1.613 . S
S616 N618 1.610 . S
N617 S616 1.613 . S
N617 C620 1.350 . S
N618 S616 1.610 . S
N618 C619 1.351 . S
C619 C613 1.428 . S
C619 N618 1.351 . S
C619 C620 1.434 . S
C620 C611 1.429 . S
C620 N617 1.350 . S
C620 C619 1.434 . S
C621 C622 1.369 . S
C621 C623 1.419 . S
C621 H625 0.930 . S
C622 C621 1.369 . S
C622 C631 1.429 . S
C623 C621 1.419 . S
C623 C624 1.363 . S
C623 H626 0.929 . S
C624 C623 1.363 . S
C624 C630 1.428 . S
H625 C621 0.930 . S
H626 C623 0.929 . S
S627 N628 1.613 . S
S627 N629 1.610 1_556 S
N628 S627 1.613 . S
N628 C631 1.350 1_556 S
N629 S627 1.610 1_554 S
N629 C630 1.351 . S
C630 C624 1.428 . S
C630 N629 1.351 . S
C630 C631 1.434 . S
C631 C622 1.429 . S
C631 N628 1.350 1_554 S
C631 C630 1.434 . S
C632 C633 1.369 . S
C632 C634 1.419 . S
C632 H636 0.930 . S
C633 C632 1.369 . S
C633 C642 1.429 . S
C634 C632 1.419 . S
C634 C635 1.363 . S
C634 H637 0.929 . S
C635 C634 1.363 . S
C635 C641 1.428 . S
H636 C632 0.930 . S
H637 C634 0.929 . S
S638 N639 1.613 . S
S638 N640 1.610 . S
N639 S638 1.613 . S
N639 C642 1.350 . S
N640 S638 1.610 . S
N640 C641 1.351 . S
C641 C635 1.428 . S
C641 N640 1.351 . S
C641 C642 1.434 . S
C642 C633 1.429 . S
C642 N639 1.350 . S
C642 C641 1.434 . S
C643 C644 1.369 . S
C643 C645 1.419 . S
C643 H647 0.930 . S
C644 C643 1.369 . S
C644 C653 1.429 . S
C645 C643 1.419 . S
C645 C646 1.363 . S
C645 H648 0.929 . S
C646 C645 1.363 . S
C646 C652 1.428 . S
H647 C643 0.930 . S
H648 C645 0.929 . S
S649 N650 1.613 . S
S649 N651 1.610 . S
N650 S649 1.613 . S
N650 C653 1.350 . S
N651 S649 1.610 . S
N651 C652 1.351 . S
C652 C646 1.428 . S
C652 N651 1.351 . S
C652 C653 1.434 . S
C653 C644 1.429 . S
C653 N650 1.350 . S
C653 C652 1.434 . S
C654 C655 1.369 . S
C654 C656 1.419 . S
C654 H658 0.930 . S
C655 C654 1.369 . S
C655 C664 1.429 . S
C656 C654 1.419 . S
C656 C657 1.363 . S
C656 H659 0.929 . S
C657 C656 1.363 . S
C657 C663 1.428 . S
H658 C654 0.930 . S
H659 C656 0.929 . S
S660 N661 1.613 . S
S660 N662 1.610 . S
N661 S660 1.613 . S
N661 C664 1.350 . S
N662 S660 1.610 . S
N662 C663 1.351 . S
C663 C657 1.428 . S
C663 N662 1.351 . S
C663 C664 1.434 . S
C664 C655 1.429 . S
C664 N661 1.350 . S
C664 C663 1.434 . S
C665 C666 1.369 . S
C665 C667 1.419 . S
C665 H669 0.930 . S
C666 C665 1.369 . S
C666 C675 1.429 . S
C667 C665 1.419 . S
C667 C668 1.363 . S
C667 H670 0.929 . S
C668 C667 1.363 . S
C668 C674 1.428 . S
H669 C665 0.930 . S
H670 C667 0.929 . S
S671 N672 1.613 . S
S671 N673 1.610 . S
N672 S671 1.613 . S
N672 C675 1.350 . S
N673 S671 1.610 . S
N673 C674 1.351 . S
C674 C668 1.428 . S
C674 N673 1.351 . S
C674 C675 1.434 . S
C675 C666 1.429 . S
C675 N672 1.350 . S
C675 C674 1.434 . S
C676 C677 1.369 . S
C676 C678 1.419 . S
C676 H680 0.930 . S
C677 C676 1.369 . S
C677 C686 1.429 . S
C678 C676 1.419 . S
C678 C679 1.363 . S
C678 H681 0.929 . S
C679 C678 1.363 . S
C679 C685 1.428 . S
H680 C676 0.930 . S
H681 C678 0.929 . S
S682 N683 1.613 . S
S682 N684 1.610 . S
N683 S682 1.613 . S
N683 C686 1.350 . S
N684 S682 1.610 . S
N684 C685 1.351 . S
C685 C679 1.428 . S
C685 N684 1.351 . S
C685 C686 1.434 . S
C686 C677 1.429 . S
C686 N683 1.350 . S
C686 C685 1.434 . S
C687 C688 1.369 . S
C687 C689 1.419 . S
C687 H691 0.930 . S
C688 C687 1.369 . S
C688 C697 1.429 . S
C689 C687 1.419 . S
C689 C690 1.363 . S
C689 H692 0.929 . S
C690 C689 1.363 . S
C690 C696 1.428 . S
H691 C687 0.930 . S
H692 C689 0.929 . S
S693 N694 1.613 . S
S693 N695 1.610 . S
N694 S693 1.613 . S
N694 C697 1.350 . S
N695 S693 1.610 . S
N695 C696 1.351 . S
C696 C690 1.428 . S
C696 N695 1.351 . S
C696 C697 1.434 . S
C697 C688 1.429 . S
C697 N694 1.350 . S
C697 C696 1.434 . S
C698 C699 1.369 1_565 S
C698 C700 1.419 . S
C698 H702 0.930 . S
C699 C698 1.369 1_545 S
C699 C708 1.429 . S
C700 C698 1.419 . S
C700 C701 1.363 . S
C700 H703 0.929 . S
C701 C700 1.363 . S
C701 C707 1.428 . S
H702 C698 0.930 . S
H703 C700 0.929 . S
S704 N705 1.613 . S
S704 N706 1.610 . S
N705 S704 1.613 . S
N705 C708 1.350 . S
N706 S704 1.610 . S
N706 C707 1.351 1_545 S
C707 C701 1.428 . S
C707 N706 1.351 1_565 S
C707 C708 1.434 1_565 S
C708 C699 1.429 . S
C708 N705 1.350 . S
C708 C707 1.434 1_545 S
C709 C710 1.369 . S
C709 C711 1.419 . S
C709 H713 0.930 . S
C710 C709 1.369 . S
C710 C719 1.429 . S
C711 C709 1.419 . S
C711 C712 1.363 . S
C711 H714 0.929 . S
C712 C711 1.363 . S
C712 C718 1.428 . S
H713 C709 0.930 . S
H714 C711 0.929 . S
S715 N716 1.613 . S
S715 N717 1.610 . S
N716 S715 1.613 . S
N716 C719 1.350 . S
N717 S715 1.610 . S
N717 C718 1.351 . S
C718 C712 1.428 . S
C718 N717 1.351 . S
C718 C719 1.434 . S
C719 C710 1.429 . S
C719 N716 1.350 . S
C719 C718 1.434 . S
C720 C721 1.369 . S
C720 C722 1.419 . S
C720 H724 0.930 . S
C721 C720 1.369 . S
C721 C730 1.429 . S
C722 C720 1.419 . S
C722 C723 1.363 . S
C722 H725 0.929 . S
C723 C722 1.363 . S
C723 C729 1.428 . S
H724 C720 0.930 . S
H725 C722 0.929 . S
S726 N727 1.613 . S
S726 N728 1.610 . S
N727 S726 1.613 . S
N727 C730 1.350 . S
N728 S726 1.610 . S
N728 C729 1.351 . S
C729 C723 1.428 . S
C729 N728 1.351 . S
C729 C730 1.434 . S
C730 C721 1.429 . S
C730 N727 1.350 . S
C730 C729 1.434 . S
C731 C732 1.369 . S
C731 C733 1.419 . S
C731 H735 0.930 . S
C732 C731 1.369 . S
C732 C741 1.429 . S
C733 C731 1.419 . S
C733 C734 1.363 . S
C733 H736 0.929 . S
C734 C733 1.363 . S
C734 C740 1.428 . S
H735 C731 0.930 . S
H736 C733 0.929 . S
S737 N738 1.613 . S
S737 N739 1.610 . S
N738 S737 1.613 . S
N738 C741 1.350 . S
N739 S737 1.610 . S
N739 C740 1.351 . S
C740 C734 1.428 . S
C740 N739 1.351 . S
C740 C741 1.434 . S
C741 C732 1.429 . S
C741 N738 1.350 . S
C741 C740 1.434 . S
C742 C743 1.369 . S
C742 C744 1.419 . S
C742 H746 0.930 . S
C743 C742 1.369 . S
C743 C752 1.429 . S
C744 C742 1.419 . S
C744 C745 1.363 . S
C744 H747 0.929 . S
C745 C744 1.363 . S
C745 C751 1.428 . S
H746 C742 0.930 . S
H747 C744 0.929 . S
S748 N749 1.613 . S
S748 N750 1.610 . S
N749 S748 1.613 . S
N749 C752 1.350 . S
N750 S748 1.610 . S
N750 C751 1.351 . S
C751 C745 1.428 . S
C751 N750 1.351 . S
C751 C752 1.434 . S
C752 C743 1.429 . S
C752 N749 1.350 . S
C752 C751 1.434 . S
C753 C754 1.369 . S
C753 C755 1.419 . S
C753 H757 0.930 . S
C754 C753 1.369 . S
C754 C763 1.429 . S
C755 C753 1.419 . S
C755 C756 1.363 . S
C755 H758 0.929 . S
C756 C755 1.363 . S
C756 C762 1.428 . S
H757 C753 0.930 . S
H758 C755 0.929 . S
S759 N760 1.613 . S
S759 N761 1.610 . S
N760 S759 1.613 . S
N760 C763 1.350 . S
N761 S759 1.610 . S
N761 C762 1.351 . S
C762 C756 1.428 . S
C762 N761 1.351 . S
C762 C763 1.434 . S
C763 C754 1.429 . S
C763 N760 1.350 . S
C763 C762 1.434 . S
C764 C765 1.369 . S
C764 C766 1.419 1_554 S
C764 H768 0.930 . S
C765 C764 1.369 . S
C765 C774 1.429 . S
C766 C764 1.419 1_556 S
C766 C767 1.363 . S
C766 H769 0.929 . S
C767 C766 1.363 . S
C767 C773 1.428 . S
H768 C764 0.930 . S
H769 C766 0.929 . S
S770 N771 1.620 . S
S770 N772 1.604 1_554 S
N771 S770 1.620 . S
N771 C774 1.350 . S
N772 S770 1.604 1_556 S
N772 C773 1.351 . S
C773 C767 1.428 . S
C773 N772 1.351 . S
C773 C774 1.434 1_556 S
C774 C765 1.429 . S
C774 N771 1.350 . S
C774 C773 1.434 1_554 S
C775 C776 1.369 . S
C775 C777 1.419 . S
C775 H779 0.930 . S
C776 C775 1.369 . S
C776 C785 1.429 . S
C777 C775 1.419 . S
C777 C778 1.363 . S
C777 H780 0.929 . S
C778 C777 1.363 . S
C778 C784 1.428 . S
H779 C775 0.930 . S
H780 C777 0.929 . S
S781 N782 1.613 . S
S781 N783 1.610 . S
N782 S781 1.613 . S
N782 C785 1.350 . S
N783 S781 1.610 . S
N783 C784 1.351 . S
C784 C778 1.428 . S
C784 N783 1.351 . S
C784 C785 1.434 . S
C785 C776 1.429 . S
C785 N782 1.350 . S
C785 C784 1.434 . S
C525 C514 1.270 . S
C523 C51 1.245 . S
C534 C125 1.616 . S
C536 C449 1.625 . S
C545 C217 2.293 . S
C547 C467 2.295 . S
C556 C291 1.792 . S
C558 C480 1.816 . S
C569 C488 0.879 . S
C567 C347 0.877 . S
C578 C421 1.079 . S
C580 C500 1.080 . S
C589 C143 2.377 . S
C591 C462 2.400 . S
C600 C199 1.337 . S
C602 C475 1.340 . S
C611 C273 0.914 . S
C613 C493 0.921 . S
C624 C499 1.413 . S
C622 C365 1.407 . S
C635 C519 1.990 . S
C633 C439 1.978 . S
C646 C454 2.106 . S
C644 C69 2.112 . S
C655 C63 1.642 . S
C657 C460 1.792 . S
C666 C137 1.532 . S
C668 C473 1.641 . S
C679 C487 1.644 . S
C677 C187 1.585 . S
C688 C261 1.531 . S
C690 C501 1.591 1_556 S
C701 C513 1.591 . S
C699 C359 1.464 . S
C712 C448 1.352 . S
C710 C433 1.257 . S
C723 C512 1.701 . S
C721 C113 1.650 . S
C732 C211 1.579 . S
C734 C447 1.675 . S
C745 C461 1.636 . S
C743 C285 1.488 . S
C754 C335 1.523 . S
C756 C474 1.564 . S
C765 C409 1.470 . S
C767 C486 1.537 . S
C776 C39 1.818 . S
C778 C506 1.874 . S
