# Generated by pormake.
# Topology apo, (3,6)-cn, num edge types: 1
# Building blocks:
#     Node 0, Type 0, BuildingBlock: CUQRIR_clean_linker_1, # of connection points: 3
#     Node 1, Type 0, BuildingBlock: CUQRIR_clean_linker_1, # of connection points: 3
#     Node 2, Type 0, BuildingBlock: CUQRIR_clean_linker_1, # of connection points: 3
#     Node 3, Type 0, BuildingBlock: CUQRIR_clean_linker_1, # of connection points: 3
#     Node 4, Type 0, BuildingBlock: CUQRIR_clean_linker_1, # of connection points: 3
#     Node 5, Type 0, BuildingBlock: CUQRIR_clean_linker_1, # of connection points: 3
#     Node 6, Type 0, BuildingBlock: CUQRIR_clean_linker_1, # of connection points: 3
#     Node 7, Type 0, BuildingBlock: CUQRIR_clean_linker_1, # of connection points: 3
#     Node 8, Type 1, BuildingBlock: MIDCAF_clean_sbu_0, # of connection points: 6
#     Node 9, Type 1, BuildingBlock: MIDCAF_clean_sbu_0, # of connection points: 6
#     Node 10, Type 1, BuildingBlock: MIDCAF_clean_sbu_0, # of connection points: 6
#     Node 11, Type 1, BuildingBlock: MIDCAF_clean_sbu_0, # of connection points: 6
#     Edge 12, Type (0, 1), BuildingBlock: ZUJKAS_clean_linker_0, # of connection points: 2
#     Edge 13, Type (0, 1), BuildingBlock: ZUJKAS_clean_linker_0, # of connection points: 2
#     Edge 14, Type (0, 1), BuildingBlock: ZUJKAS_clean_linker_0, # of connection points: 2
#     Edge 15, Type (0, 1), BuildingBlock: ZUJKAS_clean_linker_0, # of connection points: 2
#     Edge 16, Type (0, 1), BuildingBlock: ZUJKAS_clean_linker_0, # of connection points: 2
#     Edge 17, Type (0, 1), BuildingBlock: ZUJKAS_clean_linker_0, # of connection points: 2
#     Edge 18, Type (0, 1), BuildingBlock: ZUJKAS_clean_linker_0, # of connection points: 2
#     Edge 19, Type (0, 1), BuildingBlock: ZUJKAS_clean_linker_0, # of connection points: 2
#     Edge 20, Type (0, 1), BuildingBlock: ZUJKAS_clean_linker_0, # of connection points: 2
#     Edge 21, Type (0, 1), BuildingBlock: ZUJKAS_clean_linker_0, # of connection points: 2
#     Edge 22, Type (0, 1), BuildingBlock: ZUJKAS_clean_linker_0, # of connection points: 2
#     Edge 23, Type (0, 1), BuildingBlock: ZUJKAS_clean_linker_0, # of connection points: 2
#     Edge 24, Type (0, 1), BuildingBlock: ZUJKAS_clean_linker_0, # of connection points: 2
#     Edge 25, Type (0, 1), BuildingBlock: ZUJKAS_clean_linker_0, # of connection points: 2
#     Edge 26, Type (0, 1), BuildingBlock: ZUJKAS_clean_linker_0, # of connection points: 2
#     Edge 27, Type (0, 1), BuildingBlock: ZUJKAS_clean_linker_0, # of connection points: 2
#     Edge 28, Type (0, 1), BuildingBlock: ZUJKAS_clean_linker_0, # of connection points: 2
#     Edge 29, Type (0, 1), BuildingBlock: ZUJKAS_clean_linker_0, # of connection points: 2
#     Edge 30, Type (0, 1), BuildingBlock: ZUJKAS_clean_linker_0, # of connection points: 2
#     Edge 31, Type (0, 1), BuildingBlock: ZUJKAS_clean_linker_0, # of connection points: 2
#     Edge 32, Type (0, 1), BuildingBlock: ZUJKAS_clean_linker_0, # of connection points: 2
#     Edge 33, Type (0, 1), BuildingBlock: ZUJKAS_clean_linker_0, # of connection points: 2
#     Edge 34, Type (0, 1), BuildingBlock: ZUJKAS_clean_linker_0, # of connection points: 2
#     Edge 35, Type (0, 1), BuildingBlock: ZUJKAS_clean_linker_0, # of connection points: 2
# Relax obj value: 0.009
# Max RMSD: 0.064
# Mean RMSD: 0.062
data_MOF--net-apo--node1-MIDCAF_clean_sbu_0--node2-CUQRIR_clean_linker_1--edge1-ZUJKAS_clean_linker_0
_symmetry_space_group_name_H-M    P1
_symmetry_Int_Tables_number       1
_symmetry_cell_setting            triclinic
loop_
_symmetry_equiv_pos_as_xyz
'x, y, z'
_cell_length_a     44.876073
_cell_length_b     51.192227
_cell_length_c     41.854811
_cell_angle_alpha  89.880833
_cell_angle_beta   89.736953
_cell_angle_gamma 90.03364
loop_
_atom_site_label
_atom_site_type_symbol
_atom_site_fract_x
_atom_site_fract_y
_atom_site_fract_z
_atom_type_partial_charge
C0 C 0.3067 0.29945 0.40793 0.0
N1 N 0.32931 0.31635 0.41379 0.0
N2 N 0.30122 0.29794 0.37616 0.0
C3 C 0.29149 0.28289 0.43288 0.0
C4 C 0.3214 0.31441 0.36287 0.0
N5 N 0.33873 0.32535 0.38566 0.0
C6 C 0.32219 0.32176 0.32801 0.0
H7 H 0.28305 0.26445 0.42236 0.0
H8 H 0.27229 0.29385 0.44289 0.0
H9 H 0.30696 0.27816 0.45267 0.0
H10 H 0.30008 0.31898 0.31677 0.0
H11 H 0.33858 0.30913 0.31552 0.0
H12 H 0.32913 0.34241 0.3248 0.0
C13 C 0.20299 0.20305 0.90566 0.0
N14 N 0.18288 0.18414 0.91285 0.0
N15 N 0.2118 0.20125 0.87471 0.0
C16 C 0.21581 0.22195 0.9294 0.0
C17 C 0.19644 0.1805 0.86337 0.0
N18 N 0.17901 0.17 0.88658 0.0
C19 C 0.19686 0.17172 0.82909 0.0
H20 H 0.20165 0.2397 0.93011 0.0
H21 H 0.23875 0.22783 0.92247 0.0
H22 H 0.21625 0.21327 0.95371 0.0
H23 H 0.21381 0.15612 0.82624 0.0
H24 H 0.20274 0.1881 0.81284 0.0
H25 H 0.17488 0.16367 0.82208 0.0
C26 C 0.81093 0.20793 0.63074 0.0
N27 N 0.83242 0.18979 0.62527 0.0
N28 N 0.80231 0.20761 0.66184 0.0
C29 C 0.79634 0.22425 0.6053 0.0
C30 C 0.81914 0.18857 0.67507 0.0
N31 N 0.83724 0.17762 0.65288 0.0
C32 C 0.81916 0.18171 0.71006 0.0
H33 H 0.80915 0.24263 0.6022 0.0
H34 H 0.77315 0.22935 0.61213 0.0
H35 H 0.79605 0.21379 0.58211 0.0
H36 H 0.80326 0.16545 0.71427 0.0
H37 H 0.81216 0.19863 0.72481 0.0
H38 H 0.8416 0.17521 0.71777 0.0
C39 C 0.69877 0.29189 0.12512 0.0
N40 N 0.67638 0.30872 0.11814 0.0
N41 N 0.70233 0.28977 0.15717 0.0
C42 C 0.716 0.27633 0.10084 0.0
C43 C 0.68133 0.3059 0.16945 0.0
N44 N 0.6653 0.31718 0.14578 0.0
C45 C 0.67853 0.31261 0.20436 0.0
H46 H 0.7245 0.25792 0.11144 0.0
H47 H 0.7353 0.28807 0.09245 0.0
H48 H 0.70189 0.27167 0.07991 0.0
H49 H 0.69976 0.30914 0.21715 0.0
H50 H 0.66103 0.30012 0.21531 0.0
H51 H 0.672 0.33334 0.20754 0.0
C52 C 0.69783 0.70494 0.61369 0.0
N53 N 0.67725 0.68627 0.60761 0.0
N54 N 0.70601 0.70427 0.64483 0.0
C55 C 0.71175 0.7223 0.58869 0.0
C56 C 0.68974 0.68442 0.65739 0.0
N57 N 0.67245 0.67335 0.63471 0.0
C58 C 0.68911 0.67711 0.69223 0.0
H59 H 0.71189 0.71262 0.56499 0.0
H60 H 0.73493 0.72755 0.59518 0.0
H61 H 0.69849 0.74051 0.58676 0.0
H62 H 0.69501 0.69407 0.70742 0.0
H63 H 0.70554 0.66132 0.69649 0.0
H64 H 0.66675 0.66981 0.69934 0.0
C65 C 0.80903 0.79727 0.11202 0.0
N66 N 0.83133 0.8147 0.10666 0.0
N67 N 0.80254 0.79572 0.14365 0.0
C68 C 0.79338 0.78198 0.08643 0.0
C69 C 0.82182 0.81262 0.15737 0.0
N70 N 0.83951 0.82393 0.13498 0.0
C71 C 0.82307 0.8186 0.19255 0.0
H72 H 0.77497 0.79401 0.07668 0.0
H73 H 0.78364 0.76368 0.09603 0.0
H74 H 0.80895 0.77721 0.06663 0.0
H75 H 0.80425 0.80982 0.206 0.0
H76 H 0.82317 0.84006 0.19622 0.0
H77 H 0.84412 0.81074 0.20247 0.0
C78 C 0.20334 0.79407 0.39331 0.0
N79 N 0.18089 0.81105 0.39989 0.0
N80 N 0.20857 0.79292 0.3614 0.0
C81 C 0.22024 0.77859 0.41787 0.0
C82 C 0.18836 0.80955 0.34875 0.0
N83 N 0.17135 0.82034 0.37203 0.0
C84 C 0.18549 0.81571 0.31371 0.0
H85 H 0.23938 0.7904 0.4263 0.0
H86 H 0.22916 0.76023 0.40767 0.0
H87 H 0.20579 0.77383 0.43866 0.0
H88 H 0.20421 0.80777 0.29941 0.0
H89 H 0.18419 0.83718 0.31019 0.0
H90 H 0.16449 0.80709 0.30466 0.0
C91 C 0.30045 0.70362 0.90201 0.0
N92 N 0.32291 0.68628 0.90611 0.0
N93 N 0.29434 0.70667 0.87056 0.0
C94 C 0.28549 0.71871 0.92841 0.0
C95 C 0.31395 0.69065 0.85563 0.0
N96 N 0.33161 0.67851 0.87724 0.0
C97 C 0.31613 0.68701 0.82002 0.0
H98 H 0.26273 0.72482 0.92139 0.0
H99 H 0.29882 0.7365 0.93336 0.0
H100 H 0.28408 0.70716 0.95074 0.0
H101 H 0.29588 0.69383 0.80752 0.0
H102 H 0.32008 0.66614 0.81426 0.0
H103 H 0.33534 0.69845 0.81082 0.0
Zn104 Zn 0.02606 0.10273 0.31733 0.0
Zn105 Zn 0.98021 0.11438 0.21042 0.0
Zn106 Zn 0.00287 0.10883 0.2661 0.0
C107 C 0.03649 0.13432 0.20385 0.0
C108 C 0.97922 0.06116 0.22186 0.0
O109 O 0.97187 0.12504 0.30343 0.0
O110 O 0.98973 0.10293 0.34433 0.0
C111 C 0.05858 0.14159 0.29002 0.0
O112 O 0.03647 0.12894 0.23404 0.0
O113 O 0.01397 0.12939 0.18707 0.0
O114 O 0.97049 0.07751 0.20134 0.0
O115 O 0.99244 0.06905 0.24742 0.0
O116 O 0.05109 0.13455 0.31782 0.0
O117 O 0.04539 0.13146 0.26569 0.0
O118 O 0.01062 0.06616 0.27445 0.0
O119 O 0.04604 0.06876 0.31073 0.0
C120 C 0.03097 0.05524 0.29155 0.0
O121 O 0.96138 0.13231 0.27307 0.0
O122 O 0.94845 0.13885 0.22274 0.0
C123 C 0.96976 0.11743 0.3328 0.0
C124 C 0.94431 0.14304 0.25211 0.0
Zn125 Zn 0.53042 0.39342 0.71276 0.0
Zn126 Zn 0.47627 0.39813 0.81918 0.0
Zn127 Zn 0.50368 0.39506 0.76576 0.0
C128 C 0.48685 0.44905 0.80345 0.0
C129 C 0.43729 0.37293 0.77858 0.0
O130 O 0.54705 0.3744 0.77327 0.0
O131 O 0.57001 0.38223 0.72743 0.0
C132 C 0.519 0.44528 0.72124 0.0
O133 O 0.49597 0.43721 0.77801 0.0
O134 O 0.47864 0.43596 0.82748 0.0
O135 O 0.43741 0.38407 0.80543 0.0
O136 O 0.46058 0.3739 0.76046 0.0
O137 O 0.52634 0.43007 0.69892 0.0
O138 O 0.51121 0.43592 0.74869 0.0
O139 O 0.47504 0.37373 0.73042 0.0
O140 O 0.50593 0.36758 0.68995 0.0
C141 C 0.48065 0.36412 0.70253 0.0
O142 O 0.53207 0.37547 0.80288 0.0
O143 O 0.50203 0.37507 0.84484 0.0
C144 C 0.57041 0.37283 0.75528 0.0
C145 C 0.5266 0.36896 0.83215 0.0
Zn146 Zn 0.03631 0.88673 0.84484 0.0
Zn147 Zn 0.97549 0.91056 0.70364 0.0
Zn148 Zn 1.00077 0.89626 0.75401 0.0
C149 C 0.98854 0.95579 0.73771 0.0
C150 C 0.93484 0.87724 0.73176 0.0
O151 O 0.04164 0.87366 0.74587 0.0
O152 O 0.03747 0.87939 0.7965 0.0
C153 C 0.02377 0.93968 0.81482 0.0
O154 O 0.99963 0.93905 0.75724 0.0
O155 O 0.9761 0.94832 0.71237 0.0
O156 O 0.93707 0.89144 0.70716 0.0
O157 O 0.95622 0.87671 0.75225 0.0
O158 O 0.03221 0.92596 0.83885 0.0
O159 O 0.01414 0.92979 0.78799 0.0
O160 O 0.96847 0.87297 0.7818 0.0
O161 O 0.00673 0.87699 0.81136 0.0
C162 C 0.97995 0.86974 0.80926 0.0
O163 O 0.03095 0.88135 0.7152 0.0
O164 O 0.00645 0.89741 0.67391 0.0
C165 C 0.05262 0.87005 0.77359 0.0
C166 C 0.02855 0.88507 0.68481 0.0
Zn167 Zn 0.5342 0.60482 0.20168 0.0
Zn168 Zn 0.4787 0.60893 0.30855 0.0
Zn169 Zn 0.50614 0.60722 0.25485 0.0
C170 C 0.5305 0.63646 0.31836 0.0
C171 C 0.48765 0.55662 0.29792 0.0
O172 O 0.47802 0.62702 0.21812 0.0
O173 O 0.50828 0.62798 0.17635 0.0
C174 C 0.57312 0.62967 0.24181 0.0
O175 O 0.53534 0.62768 0.28993 0.0
O176 O 0.50559 0.63275 0.33168 0.0
O177 O 0.47987 0.57161 0.32032 0.0
O178 O 0.49722 0.56628 0.27125 0.0
O179 O 0.57317 0.6188 0.2148 0.0
O180 O 0.5498 0.62821 0.2599 0.0
O181 O 0.51309 0.56517 0.24217 0.0
O182 O 0.53162 0.56706 0.19321 0.0
C183 C 0.52259 0.55368 0.21665 0.0
O184 O 0.46328 0.62888 0.24778 0.0
O185 O 0.44022 0.62295 0.29402 0.0
C186 C 0.4836 0.6338 0.18899 0.0
C187 C 0.4402 0.63189 0.26592 0.0
H188 H 0.17383 0.86954 0.39424 0.0
H189 H 0.14075 0.9058 0.37948 0.0
H190 H 0.08711 0.8528 0.32397 0.0
H191 H 0.12043 0.8167 0.33869 0.0
H192 H 0.10359 0.89539 0.28968 0.0
H193 H 0.0572 0.92684 0.40607 0.0
H194 H 0.09712 0.92516 0.40649 0.0
H195 H 0.07569 0.89581 0.40081 0.0
C196 C 0.15451 0.86569 0.37957 0.0
C197 C 0.14952 0.84057 0.36747 0.0
C198 C 0.1356 0.8863 0.37118 0.0
C199 C 0.11125 0.88199 0.35081 0.0
C200 C 0.1057 0.85659 0.33972 0.0
H201 H 0.99464 0.0158 0.31121 0.0
H202 H 0.00943 0.97032 0.3213 0.0
C203 C 0.12464 0.83604 0.34807 0.0
C204 C 0.09332 0.90432 0.33883 0.0
H205 H 0.05434 0.95803 0.36308 0.0
C206 C 0.09242 0.90886 0.30572 0.0
C207 C 0.07833 0.92169 0.35963 0.0
C208 C 0.07683 0.917 0.3952 0.0
C209 C 0.0783 0.93103 0.29302 0.0
C210 C 0.06513 0.94934 0.31401 0.0
C211 C 0.06464 0.94409 0.34697 0.0
C212 C 0.05421 0.97512 0.30273 0.0
C213 C 0.07797 0.9348 0.25727 0.0
C214 C 0.07419 0.9927 0.28828 0.0
C215 C 0.06563 0.01845 0.28222 0.0
C216 C 0.03691 0.02704 0.29027 0.0
C217 C 0.01648 0.00928 0.30356 0.0
C218 C 0.02507 0.98346 0.30974 0.0
H219 H 0.07976 0.91583 0.24457 0.0
H220 H 0.05733 0.94485 0.24943 0.0
H221 H 0.09737 0.94696 0.25009 0.0
H222 H 0.09699 0.98697 0.28343 0.0
H223 H 0.08197 0.03207 0.27279 0.0
H224 H 0.38004 0.6836 0.83921 0.0
H225 H 0.41348 0.6484 0.82155 0.0
H226 H 0.36698 0.59428 0.88324 0.0
H227 H 0.33303 0.62936 0.90002 0.0
H228 H 0.45181 0.6139 0.85335 0.0
H229 H 0.35934 0.5611 0.79447 0.0
H230 H 0.35589 0.59442 0.80802 0.0
H231 H 0.35215 0.56779 0.83588 0.0
C232 C 0.37714 0.66415 0.84895 0.0
C233 C 0.35381 0.65893 0.87051 0.0
C234 C 0.39626 0.64414 0.83902 0.0
C235 C 0.39228 0.6186 0.85052 0.0
C236 C 0.37003 0.61374 0.87353 0.0
H237 H 0.49404 0.48047 0.85475 0.0
H238 H 0.47596 0.52506 0.86099 0.0
C239 C 0.35089 0.63374 0.88337 0.0
C240 C 0.41054 0.59682 0.83762 0.0
H241 H 0.40472 0.53749 0.80113 0.0
C242 C 0.44159 0.59729 0.84165 0.0
C243 C 0.39731 0.57551 0.82151 0.0
C244 C 0.36439 0.57472 0.81437 0.0
C245 C 0.45952 0.5763 0.83159 0.0
C246 C 0.44597 0.55416 0.81758 0.0
C247 C 0.41514 0.55437 0.81202 0.0
C248 C 0.46246 0.52946 0.81169 0.0
C249 C 0.49277 0.57793 0.83627 0.0
C250 C 0.46137 0.5171 0.78173 0.0
C251 C 0.47162 0.4914 0.77816 0.0
C252 C 0.48296 0.47769 0.80454 0.0
C253 C 0.48561 0.49066 0.83395 0.0
C254 C 0.47546 0.51625 0.83749 0.0
H255 H 0.50048 0.59855 0.83653 0.0
H256 H 0.49857 0.56905 0.85964 0.0
H257 H 0.50497 0.56727 0.81718 0.0
H258 H 0.45117 0.52684 0.76155 0.0
H259 H 0.46868 0.4817 0.75543 0.0
H260 H 0.68657 0.62558 0.6561 0.0
H261 H 0.65198 0.58999 0.66929 0.0
H262 H 0.57826 0.63719 0.6373 0.0
H263 H 0.61316 0.67299 0.62431 0.0
H264 H 0.57115 0.61191 0.70053 0.0
H265 H 0.60573 0.54347 0.60469 0.0
H266 H 0.63615 0.55694 0.62704 0.0
H267 H 0.61346 0.57808 0.60297 0.0
C268 C 0.663 0.62814 0.65168 0.0
C269 C 0.65234 0.65177 0.63923 0.0
C270 C 0.64331 0.60791 0.65914 0.0
C271 C 0.6126 0.61097 0.65418 0.0
C272 C 0.60189 0.63449 0.64128 0.0
H273 H 0.50393 0.47166 0.66774 0.0
H274 H 0.52004 0.51553 0.65247 0.0
C275 C 0.62172 0.65475 0.63364 0.0
C276 C 0.59196 0.58955 0.66304 0.0
H277 H 0.57767 0.52544 0.64781 0.0
C278 C 0.57217 0.59307 0.68878 0.0
C279 C 0.5932 0.56514 0.64747 0.0
C280 C 0.61307 0.56065 0.61881 0.0
C281 C 0.55438 0.57236 0.70017 0.0
C282 C 0.55681 0.54753 0.68561 0.0
C283 C 0.57583 0.54443 0.6591 0.0
C284 C 0.54097 0.52402 0.69777 0.0
C285 C 0.53328 0.57724 0.72767 0.0
C286 C 0.54611 0.51463 0.72888 0.0
C287 C 0.53646 0.4896 0.73781 0.0
C288 C 0.52197 0.47358 0.71557 0.0
C289 C 0.51508 0.48368 0.68529 0.0
C290 C 0.52432 0.50872 0.67654 0.0
H291 H 0.52703 0.5982 0.72924 0.0
H292 H 0.51267 0.56538 0.72543 0.0
H293 H 0.54439 0.57179 0.75036 0.0
H294 H 0.55938 0.52582 0.7455 0.0
H295 H 0.54237 0.48207 0.76114 0.0
H296 H 0.83579 0.87265 0.11142 0.0
H297 H 0.86637 0.91039 0.12694 0.0
H298 H 0.91903 0.86047 0.18769 0.0
H299 H 0.88876 0.82276 0.17155 0.0
H300 H 0.87084 0.9274 0.19096 0.0
H301 H 0.98214 0.90435 0.13948 0.0
H302 H 0.94833 0.88888 0.12584 0.0
H303 H 0.96511 0.87875 0.1627 0.0
C304 C 0.8544 0.86979 0.12742 0.0
C305 C 0.86004 0.84505 0.14044 0.0
C306 C 0.87169 0.89126 0.13644 0.0
C307 C 0.89504 0.88821 0.1584 0.0
C308 C 0.9014 0.86323 0.17044 0.0
H309 H 0.96445 0.02304 0.26513 0.0
H310 H 0.94779 0.97833 0.25318 0.0
C311 C 0.88405 0.84179 0.16143 0.0
C312 C 0.91101 0.91149 0.1706 0.0
H313 H 0.97905 0.94139 0.17314 0.0
C314 C 0.89452 0.93043 0.18719 0.0
C315 C 0.9419 0.91532 0.16564 0.0
C316 C 0.96047 0.8959 0.14724 0.0
C317 C 0.90796 0.95333 0.19856 0.0
C318 C 0.93886 0.95723 0.1936 0.0
C319 C 0.95546 0.93815 0.17731 0.0
C320 C 0.9534 0.9823 0.20198 0.0
C321 C 0.88877 0.97364 0.21473 0.0
C322 C 0.9633 0.99881 0.17738 0.0
C323 C 0.97306 0.02405 0.18423 0.0
C324 C 0.97342 0.0332 0.21586 0.0
C325 C 0.96505 0.01622 0.2407 0.0
C326 C 0.95516 0.99087 0.23382 0.0
H327 H 0.86461 0.96964 0.21168 0.0
H328 H 0.89365 0.97379 0.24069 0.0
H329 H 0.89371 0.9934 0.20508 0.0
H330 H 0.96214 0.99261 0.15268 0.0
H331 H 0.97945 0.03674 0.16461 0.0
H332 H 0.82463 0.129 0.67226 0.0
H333 H 0.8603 0.09569 0.69002 0.0
H334 H 0.93313 0.1472 0.66585 0.0
H335 H 0.89711 0.18055 0.64787 0.0
H336 H 0.91126 0.07345 0.65285 0.0
H337 H 0.94294 0.12554 0.76444 0.0
H338 H 0.90838 0.13215 0.74396 0.0
H339 H 0.94291 0.1435 0.72734 0.0
C340 C 0.84829 0.1329 0.67035 0.0
C341 C 0.85835 0.15706 0.65871 0.0
C342 C 0.86858 0.11406 0.68059 0.0
C343 C 0.89929 0.11919 0.67969 0.0
C344 C 0.90949 0.14304 0.66708 0.0
H345 H 0.02305 0.99171 0.70843 0.0
H346 H 0.00755 0.03682 0.69847 0.0
C347 C 0.88907 0.16188 0.65654 0.0
C348 C 0.92026 0.09928 0.69204 0.0
H349 H 0.96335 0.08355 0.75654 0.0
C350 C 0.92301 0.07577 0.67526 0.0
C351 C 0.93521 0.10236 0.7215 0.0
C352 C 0.93227 0.12716 0.74062 0.0
C353 C 0.93987 0.05499 0.68741 0.0
C354 C 0.95461 0.05788 0.71706 0.0
C355 C 0.95227 0.08155 0.7337 0.0
C356 C 0.9705 0.03549 0.73161 0.0
C357 C 0.94092 0.02967 0.66896 0.0
C358 C 0.95634 0.02069 0.75556 0.0
C359 C 0.96548 0.995 0.76161 0.0
C360 C 0.9888 0.984 0.74372 0.0
C361 C 0.00527 0.99996 0.72281 0.0
C362 C 0.9963 0.02565 0.71694 0.0
H363 H 0.92465 0.02935 0.64904 0.0
H364 H 0.96356 0.02698 0.65873 0.0
H365 H 0.93625 0.01284 0.68501 0.0
H366 H 0.93634 0.02796 0.76709 0.0
H367 H 0.95216 0.98288 0.7774 0.0
H368 H 0.66698 0.36556 0.12047 0.0
H369 H 0.63461 0.4024 0.13497 0.0
H370 H 0.58298 0.3516 0.19621 0.0
H371 H 0.61498 0.31467 0.18096 0.0
H372 H 0.548 0.38834 0.1626 0.0
H373 H 0.64322 0.43493 0.22438 0.0
H374 H 0.65065 0.42765 0.18316 0.0
H375 H 0.64408 0.40144 0.211 0.0
C376 C 0.64821 0.36224 0.13632 0.0
C377 C 0.64343 0.3375 0.14983 0.0
C378 C 0.62998 0.38326 0.14489 0.0
C379 C 0.60684 0.37983 0.16726 0.0
C380 C 0.60086 0.35472 0.17915 0.0
H381 H 0.53905 0.51945 0.26375 0.0
H382 H 0.55401 0.47369 0.25643 0.0
C383 C 0.61906 0.3337 0.17049 0.0
C384 C 0.59014 0.40269 0.17966 0.0
H385 H 0.59985 0.46105 0.21748 0.0
C386 C 0.55925 0.40417 0.17482 0.0
C387 C 0.60468 0.42295 0.19646 0.0
C388 C 0.63743 0.42163 0.2044 0.0
C389 C 0.5428 0.42607 0.18489 0.0
C390 C 0.55775 0.44712 0.19975 0.0
C391 C 0.58837 0.44499 0.20597 0.0
C392 C 0.54305 0.47258 0.20611 0.0
C393 C 0.50963 0.4265 0.17934 0.0
C394 C 0.53119 0.48689 0.18055 0.0
C395 C 0.52247 0.51281 0.18478 0.0
C396 C 0.52549 0.52501 0.21463 0.0
C397 C 0.5359 0.51035 0.24067 0.0
C398 C 0.54465 0.4843 0.23643 0.0
H399 H 0.50032 0.40639 0.17863 0.0
H400 H 0.49785 0.43773 0.19823 0.0
H401 H 0.50508 0.43586 0.15593 0.0
H402 H 0.53038 0.47858 0.1568 0.0
H403 H 0.51476 0.52375 0.16423 0.0
H404 H 0.33927 0.37388 0.41046 0.0
H405 H 0.37203 0.41006 0.39398 0.0
H406 H 0.41988 0.35795 0.33123 0.0
H407 H 0.38742 0.32177 0.34825 0.0
H408 H 0.45709 0.39431 0.36362 0.0
H409 H 0.3612 0.44195 0.30389 0.0
H410 H 0.35507 0.43496 0.34548 0.0
H411 H 0.36003 0.40854 0.31773 0.0
C412 C 0.3573 0.37015 0.39381 0.0
C413 C 0.3609 0.34527 0.38042 0.0
C414 C 0.37576 0.39077 0.38415 0.0
C415 C 0.39798 0.38677 0.36087 0.0
C416 C 0.40276 0.3615 0.34903 0.0
H417 H 0.46863 0.52065 0.25415 0.0
H418 H 0.45161 0.47595 0.26552 0.0
C419 C 0.3843 0.34091 0.3587 0.0
C420 C 0.41489 0.40918 0.34742 0.0
H421 H 0.40579 0.46677 0.3074 0.0
C422 C 0.44595 0.4101 0.35117 0.0
C423 C 0.40042 0.42939 0.33039 0.0
C424 C 0.36739 0.42864 0.32379 0.0
C425 C 0.46272 0.43136 0.33958 0.0
C426 C 0.44797 0.45229 0.3242 0.0
C427 C 0.4171 0.45077 0.31928 0.0
C428 C 0.46339 0.47703 0.31562 0.0
C429 C 0.49606 0.43123 0.34399 0.0
C430 C 0.4763 0.4922 0.33975 0.0
C431 C 0.4861 0.51754 0.33325 0.0
C432 C 0.48321 0.52826 0.30249 0.0
C433 C 0.47166 0.51267 0.2779 0.0
C434 C 0.46175 0.48724 0.28444 0.0
H435 H 0.50477 0.411 0.34612 0.0
H436 H 0.50758 0.44115 0.32379 0.0
H437 H 0.50162 0.44174 0.36635 0.0
H438 H 0.4772 0.48505 0.36409 0.0
H439 H 0.49469 0.52922 0.3527 0.0
H440 H 0.11951 0.17035 0.89605 0.0
H441 H 0.08456 0.13432 0.88485 0.0
H442 H 0.15847 0.08552 0.85674 0.0
H443 H 0.19313 0.12141 0.86809 0.0
H444 H 0.07873 0.10627 0.82285 0.0
H445 H 0.11028 0.04229 0.92444 0.0
H446 H 0.11804 0.07692 0.9238 0.0
H447 H 0.14123 0.05474 0.90165 0.0
C448 C 0.1281 0.15174 0.88794 0.0
C449 C 0.1588 0.14839 0.88297 0.0
C450 C 0.10824 0.13134 0.88131 0.0
C451 C 0.11899 0.10729 0.87003 0.0
C452 C 0.14976 0.10387 0.86563 0.0
H453 H 0.05076 0.97338 0.77323 0.0
H454 H 0.06802 0.01767 0.78549 0.0
C455 C 0.16949 0.12426 0.87206 0.0
C456 C 0.09831 0.08564 0.86244 0.0
H457 H 0.08243 0.02263 0.88269 0.0
C458 C 0.07916 0.08806 0.83612 0.0
C459 C 0.09876 0.06206 0.87999 0.0
C460 C 0.11797 0.05881 0.90923 0.0
C461 C 0.06129 0.06701 0.82614 0.0
C462 C 0.06292 0.04299 0.84279 0.0
C463 C 0.08124 0.04102 0.86983 0.0
C464 C 0.04704 0.0191 0.83218 0.0
C465 C 0.04096 0.07062 0.79786 0.0
C466 C 0.02889 0.00544 0.85391 0.0
C467 C 0.01922 0.98018 0.84698 0.0
C468 C 0.02731 0.96817 0.81809 0.0
C469 C 0.04369 0.98246 0.79536 0.0
C470 C 0.05355 0.00776 0.80238 0.0
H471 H 0.03549 0.09155 0.794 0.0
H472 H 0.05231 0.06333 0.77602 0.0
H473 H 0.01989 0.05949 0.801 0.0
H474 H 0.02365 0.01375 0.87705 0.0
H475 H 0.00678 0.96945 0.86497 0.0
H476 H 0.18485 0.13946 0.94718 0.0
H477 H 0.16446 0.13233 1.00128 0.0
H478 H 0.13106 0.21132 1.00207 0.0
H479 H 0.15108 0.21819 0.948 0.0
H480 H 0.17749 0.1627 0.05911 0.0
H481 H 0.05796 0.16513 0.02533 0.0
H482 H 0.0874 0.15966 0.99656 0.0
H483 H 0.0798 0.1921 1.01072 0.0
C484 C 0.17279 0.15507 0.95889 0.0
C485 C 0.16935 0.17932 0.94362 0.0
C486 C 0.16141 0.15111 0.98978 0.0
C487 C 0.14617 0.17128 1.00565 0.0
C488 C 0.14253 0.19543 0.99019 0.0
H489 H 0.04288 0.18272 0.17919 0.0
H490 H 0.07505 0.19405 0.13386 0.0
C491 C 0.15398 0.19939 0.95944 0.0
C492 C 0.13399 0.16723 0.03835 0.0
H493 H 0.06877 0.16551 0.08049 0.0
C494 C 0.15372 0.16322 0.06387 0.0
C495 C 0.10301 0.16797 0.04446 0.0
C496 C 0.08072 0.17122 0.01784 0.0
C497 C 0.14326 0.16047 0.09549 0.0
C498 C 0.11223 0.16135 0.10161 0.0
C499 C 0.09258 0.16517 0.07595 0.0
C500 C 0.09909 0.15741 0.13402 0.0
C501 C 0.16551 0.15722 0.12209 0.0
C502 C 0.10307 0.13369 0.15046 0.0
C503 C 0.08507 0.12748 0.17687 0.0
C504 C 0.06272 0.14479 0.18701 0.0
C505 C 0.06046 0.16934 0.17227 0.0
C506 C 0.07859 0.17566 0.14613 0.0
H507 H 0.18784 0.16476 0.1151 0.0
H508 H 0.15805 0.16746 0.14408 0.0
H509 H 0.16786 0.13614 0.12774 0.0
H510 H 0.11824 0.11904 0.1413 0.0
H511 H 0.08658 0.10812 0.18726 0.0
H512 H 0.38704 0.31371 0.43137 0.0
H513 H 0.40725 0.3211 0.48513 0.0
H514 H 0.31925 0.34045 0.51947 0.0
H515 H 0.29922 0.33337 0.46566 0.0
H516 H 0.40438 0.36643 0.52473 0.0
H517 H 0.34685 0.28138 0.58043 0.0
H518 H 0.35078 0.28504 0.53768 0.0
H519 H 0.32347 0.30386 0.55902 0.0
C520 C 0.3722 0.31985 0.45038 0.0
C521 C 0.3416 0.32274 0.44461 0.0
C522 C 0.38365 0.32392 0.48105 0.0
C523 C 0.36463 0.33079 0.50646 0.0
C524 C 0.3342 0.33455 0.50043 0.0
H525 H 0.42152 0.37732 0.69914 0.0
H526 H 0.38836 0.36777 0.65394 0.0
C527 C 0.3228 0.33058 0.46976 0.0
C528 C 0.37677 0.3341 0.53919 0.0
H529 H 0.37576 0.30794 0.61456 0.0
C530 C 0.39795 0.35377 0.5444 0.0
C531 C 0.36835 0.31752 0.56485 0.0
C532 C 0.34629 0.2956 0.56035 0.0
C533 C 0.41114 0.35716 0.57446 0.0
C534 C 0.4031 0.34035 0.59994 0.0
C535 C 0.3816 0.32092 0.595 0.0
C536 C 0.41924 0.34144 0.63071 0.0
C537 C 0.4342 0.3783 0.57878 0.0
C538 C 0.44678 0.32877 0.63326 0.0
C539 C 0.46563 0.3342 0.65882 0.0
C540 C 0.45723 0.35231 0.68242 0.0
C541 C 0.42842 0.36308 0.6815 0.0
C542 C 0.40957 0.35778 0.65561 0.0
H543 H 0.43611 0.39119 0.55748 0.0
H544 H 0.42851 0.39045 0.59989 0.0
H545 H 0.45626 0.36923 0.58329 0.0
H546 H 0.45458 0.31609 0.61429 0.0
H547 H 0.4877 0.32563 0.65892 0.0
H548 H 0.70788 0.32795 0.06823 0.0
H549 H 0.68953 0.3362 0.01381 0.0
H550 H 0.60144 0.31216 0.04317 0.0
H551 H 0.61993 0.30374 0.09748 0.0
H552 H 0.62619 0.2879 0.98388 0.0
H553 H 0.63198 0.39662 0.98469 0.0
H554 H 0.66422 0.37883 0.99804 0.0
H555 H 0.63048 0.37764 0.02111 0.0
C556 C 0.68461 0.32453 0.06292 0.0
C557 C 0.66525 0.31517 0.08681 0.0
C558 C 0.67414 0.32934 0.03199 0.0
C559 C 0.64411 0.32486 0.02449 0.0
C560 C 0.62469 0.31576 0.04847 0.0
H561 H 0.51576 0.33446 0.87965 0.0
H562 H 0.54948 0.32115 0.92199 0.0
C563 C 0.63514 0.31111 0.07943 0.0
C564 C 0.63293 0.32905 0.99151 0.0
H565 H 0.61402 0.37668 0.93806 0.0
C566 C 0.62375 0.30729 0.97373 0.0
C567 C 0.63022 0.35431 0.97811 0.0
C568 C 0.63955 0.3783 0.99639 0.0
C569 C 0.61113 0.31018 0.94325 0.0
C570 C 0.60689 0.33555 0.93051 0.0
C571 C 0.61732 0.35723 0.94773 0.0
C572 C 0.58824 0.34027 0.90173 0.0
C573 C 0.60215 0.28601 0.92513 0.0
C574 C 0.59876 0.35526 0.87578 0.0
C575 C 0.57931 0.36294 0.85126 0.0
C576 C 0.54901 0.35605 0.85269 0.0
C577 C 0.53903 0.33996 0.87781 0.0
C578 C 0.55837 0.33221 0.90202 0.0
H579 H 0.61622 0.26904 0.93189 0.0
H580 H 0.57871 0.28104 0.93114 0.0
H581 H 0.60388 0.28904 0.8989 0.0
H582 H 0.62169 0.36188 0.87516 0.0
H583 H 0.58749 0.37569 0.8325 0.0
H584 H 0.85893 0.2233 0.58425 0.0
H585 H 0.87676 0.21383 0.53002 0.0
H586 H 0.85532 0.13239 0.5438 0.0
H587 H 0.83607 0.14224 0.59743 0.0
H588 H 0.92014 0.18406 0.50756 0.0
H589 H 0.8134 0.14611 0.46101 0.0
H590 H 0.81602 0.16252 0.499 0.0
H591 H 0.82559 0.12847 0.49561 0.0
C592 C 0.85794 0.20343 0.57552 0.0
C593 C 0.84591 0.18354 0.59482 0.0
C594 C 0.86817 0.198 0.54461 0.0
C595 C 0.86668 0.1725 0.53236 0.0
C596 C 0.85587 0.15237 0.55223 0.0
H597 H 0.94211 0.0888 0.37826 0.0
H598 H 0.91282 0.10501 0.42334 0.0
C599 C 0.84538 0.15788 0.58308 0.0
C600 C 0.87705 0.16696 0.49913 0.0
H601 H 0.85684 0.1378 0.42895 0.0
C602 C 0.90611 0.1743 0.49025 0.0
C603 C 0.8587 0.15442 0.4763 0.0
C604 C 0.82659 0.14768 0.48332 0.0
C605 C 0.91772 0.16844 0.45984 0.0
C606 C 0.89979 0.15498 0.43756 0.0
C607 C 0.87049 0.14822 0.44603 0.0
C608 C 0.91244 0.14509 0.40704 0.0
C609 C 0.94956 0.17565 0.45214 0.0
C610 C 0.9207 0.16208 0.38203 0.0
C611 C 0.93717 0.15272 0.35579 0.0
C612 C 0.94586 0.12637 0.35461 0.0
C613 C 0.93572 0.10921 0.37859 0.0
C614 C 0.91903 0.11844 0.4044 0.0
H615 H 0.96144 0.18375 0.47315 0.0
H616 H 0.96191 0.15825 0.4434 0.0
H617 H 0.9499 0.19051 0.4328 0.0
H618 H 0.91563 0.18272 0.38356 0.0
H619 H 0.94491 0.16637 0.33777 0.0
H620 H 0.88978 0.81306 0.09177 0.0
H621 H 0.91286 0.82271 0.03971 0.0
H622 H 0.82623 0.84012 1.00084 0.0
H623 H 0.80343 0.83141 0.05321 0.0
H624 H 0.90316 0.798 0.98248 0.0
H625 H 0.87417 0.90301 0.97174 0.0
H626 H 0.87099 0.88532 1.00895 0.0
H627 H 0.84273 0.88207 0.97888 0.0
C628 C 0.87584 0.81933 0.07216 0.0
C629 C 0.84488 0.82139 0.07634 0.0
C630 C 0.88894 0.82469 0.04242 0.0
C631 C 0.87134 0.83238 0.01634 0.0
C632 C 0.84037 0.83466 0.02064 0.0
H633 H 0.91907 0.86672 0.81633 0.0
H634 H 0.89103 0.85617 0.86532 0.0
C635 C 0.82731 0.82938 0.05042 0.0
C636 C 0.88532 0.83701 0.98445 0.0
H637 H 0.89562 0.88303 0.92603 0.0
C638 C 0.90153 0.81662 0.97019 0.0
C639 C 0.88307 0.86125 0.96824 0.0
C640 C 0.86704 0.88426 0.98281 0.0
C641 C 0.9155 0.81978 0.94029 0.0
C642 C 0.91356 0.84409 0.9243 0.0
C643 C 0.89695 0.86436 0.93823 0.0
C644 C 0.9302 0.84937 0.89413 0.0
C645 C 0.93212 0.79701 0.92595 0.0
C646 C 0.96145 0.84905 0.89404 0.0
C647 C 0.97743 0.8551 0.86625 0.0
C648 C 0.96254 0.86168 0.83786 0.0
C649 C 0.93118 0.86161 0.83777 0.0
C650 C 0.91515 0.8557 0.86576 0.0
H651 H 0.92487 0.77813 0.93659 0.0
H652 H 0.92888 0.79617 0.89968 0.0
H653 H 0.9563 0.79936 0.93061 0.0
H654 H 0.97356 0.84457 0.9157 0.0
H655 H 1.00153 0.85478 0.86713 0.0
H656 H 0.64439 0.71843 0.57136 0.0
H657 H 0.62553 0.70988 0.5174 0.0
H658 H 0.66427 0.63275 0.5204 0.0
H659 H 0.68224 0.64124 0.57483 0.0
H660 H 0.65523 0.69963 0.46308 0.0
H661 H 0.58118 0.61588 0.49238 0.0
H662 H 0.5975 0.63619 0.52279 0.0
H663 H 0.61922 0.611 0.50389 0.0
C664 C 0.64841 0.69958 0.56047 0.0
C665 C 0.66438 0.68036 0.57704 0.0
C666 C 0.63785 0.69473 0.52969 0.0
C667 C 0.6432 0.67057 0.51486 0.0
C668 C 0.65924 0.65131 0.53153 0.0
H669 H 0.58869 0.62101 0.32232 0.0
H670 H 0.62239 0.63062 0.36704 0.0
C671 C 0.66951 0.6561 0.56252 0.0
C672 C 0.63222 0.66589 0.48187 0.0
H673 H 0.58637 0.62683 0.43781 0.0
C674 C 0.64032 0.6836 0.45755 0.0
C675 C 0.61271 0.64499 0.47458 0.0
C676 C 0.60189 0.62607 0.49981 0.0
C677 C 0.62897 0.68123 0.42642 0.0
C678 C 0.60931 0.66058 0.41941 0.0
C679 C 0.60185 0.64245 0.44332 0.0
C680 C 0.59313 0.65913 0.38875 0.0
C681 C 0.63732 0.7011 0.40131 0.0
C682 C 0.56625 0.67277 0.38565 0.0
C683 C 0.54699 0.66716 0.36051 0.0
C684 C 0.55443 0.64799 0.33786 0.0
C685 C 0.58261 0.63609 0.33926 0.0
C686 C 0.60175 0.64142 0.36486 0.0
H687 H 0.65536 0.71435 0.40943 0.0
H688 H 0.64461 0.69108 0.37911 0.0
H689 H 0.61744 0.71303 0.39534 0.0
H690 H 0.5592 0.68641 0.40395 0.0
H691 H 0.52534 0.67652 0.36 0.0
H692 H 0.37917 0.69706 0.92307 0.0
H693 H 0.40237 0.68841 0.97514 0.0
H694 H 0.32125 0.6516 1.00791 0.0
H695 H 0.2982 0.66038 0.9557 0.0
H696 H 0.34481 0.6878 0.05188 0.0
H697 H 0.43107 0.61821 1.01015 0.0
H698 H 0.43119 0.64839 0.98824 0.0
H699 H 0.39936 0.62709 0.98608 0.0
C700 C 0.36659 0.68689 0.9414 0.0
C701 C 0.33702 0.6795 0.93579 0.0
C702 C 0.37973 0.68193 0.97103 0.0
C703 C 0.36357 0.66923 0.99537 0.0
C704 C 0.33408 0.66148 0.98953 0.0
H705 H 0.42326 0.62484 0.18805 0.0
H706 H 0.38973 0.63524 0.14348 0.0
C707 C 0.32098 0.66644 0.95986 0.0
C708 C 0.37741 0.66447 0.02702 0.0
H709 H 0.4375 0.63586 0.06235 0.0
C710 C 0.36491 0.67622 0.05431 0.0
C711 C 0.40344 0.64915 0.03016 0.0
C712 C 0.41691 0.63476 1.00216 0.0
C713 C 0.37861 0.67403 0.08441 0.0
C714 C 0.4053 0.65961 0.08716 0.0
C715 C 0.41716 0.64715 0.06009 0.0
C716 C 0.42244 0.658 0.11733 0.0
C717 C 0.36517 0.68785 0.11279 0.0
C718 C 0.45143 0.66817 0.11797 0.0
C719 C 0.47046 0.66224 0.14317 0.0
C720 C 0.46091 0.64601 0.16832 0.0
C721 C 0.43107 0.63765 0.16916 0.0
C722 C 0.41195 0.6435 0.14365 0.0
H723 H 0.34688 0.70127 0.10578 0.0
H724 H 0.35604 0.67316 0.12975 0.0
H725 H 0.38252 0.69919 0.12557 0.0
H726 H 0.45993 0.67947 0.09798 0.0
H727 H 0.49333 0.66899 0.14196 0.0
H728 H 0.21168 0.82609 0.4522 0.0
H729 H 0.19168 0.83462 0.50569 0.0
H730 H 0.10257 0.82212 0.47048 0.0
H731 H 0.12291 0.8115 0.41767 0.0
H732 H 0.15836 0.87018 0.52839 0.0
H733 H 0.09805 0.77755 0.54767 0.0
H734 H 0.12338 0.78217 0.51456 0.0
H735 H 0.08527 0.79316 0.51194 0.0
C736 C 0.18789 0.8246 0.45615 0.0
C737 C 0.16889 0.81763 0.43098 0.0
C738 C 0.17641 0.8297 0.48665 0.0
C739 C 0.14558 0.82833 0.49258 0.0
C740 C 0.12648 0.82237 0.46703 0.0
H741 H 0.04538 0.91055 0.63143 0.0
H742 H 0.07746 0.89535 0.58852 0.0
C743 C 0.13804 0.81677 0.43666 0.0
C744 C 0.13338 0.8343 0.52502 0.0
H745 H 0.0831 0.81357 0.58127 0.0
C746 C 0.14223 0.85754 0.54008 0.0
C747 C 0.11296 0.8176 0.54105 0.0
C748 C 0.10466 0.7911 0.52811 0.0
C749 C 0.13012 0.86517 0.56964 0.0
C750 C 0.10761 0.84968 0.58413 0.0
C751 C 0.09997 0.82573 0.57004 0.0
C752 C 0.08976 0.8592 0.61191 0.0
C753 C 0.1416 0.88986 0.5849 0.0
C754 C 0.08509 0.84369 0.63935 0.0
C755 C 0.06607 0.85227 0.66401 0.0
C756 C 0.0515 0.87645 0.66154 0.0
C757 C 0.05654 0.89193 0.63425 0.0
C758 C 0.0752 0.88337 0.60974 0.0
H759 H 0.16535 0.89327 0.5785 0.0
H760 H 0.12866 0.90678 0.57589 0.0
H761 H 0.13958 0.88916 0.61134 0.0
H762 H 0.09564 0.82474 0.64137 0.0
H763 H 0.06163 0.83949 0.68409 0.0
H764 H 0.30807 0.26469 0.32672 0.0
H765 H 0.26855 0.24053 0.2989 0.0
H766 H 0.20317 0.27377 0.36285 0.0
H767 H 0.24251 0.29848 0.38976 0.0
H768 H 0.23079 0.20385 0.32226 0.0
H769 H 0.16508 0.28717 0.2771 0.0
H770 H 0.20246 0.29095 0.29221 0.0
H771 H 0.17117 0.2897 0.31929 0.0
C772 C 0.28516 0.26694 0.33446 0.0
C773 C 0.27817 0.28339 0.36024 0.0
C774 C 0.26266 0.25317 0.31867 0.0
C775 C 0.23279 0.25576 0.32833 0.0
C776 C 0.22591 0.27199 0.35438 0.0
H777 H 0.06948 0.18174 0.32981 0.0
H778 H 0.1129 0.21032 0.33058 0.0
C779 C 0.24838 0.28579 0.37005 0.0
C780 C 0.2089 0.24041 0.31258 0.0
H781 H 0.13885 0.24594 0.2817 0.0
C782 C 0.21098 0.21304 0.31266 0.0
C783 C 0.18318 0.25242 0.29973 0.0
C784 C 0.18046 0.28169 0.29674 0.0
C785 C 0.18712 0.19737 0.30252 0.0
C786 C 0.16062 0.20942 0.29183 0.0
C787 C 0.15921 0.23676 0.28992 0.0
C788 C 0.13278 0.19422 0.28779 0.0
C789 C 0.18958 0.16806 0.30532 0.0
C790 C 0.1291 0.1762 0.26279 0.0
C791 C 0.10397 0.15984 0.26215 0.0
C792 C 0.08254 0.16122 0.28669 0.0
C793 C 0.08575 0.18014 0.3107 0.0
C794 C 0.11049 0.19655 0.31113 0.0
H795 H 0.21093 0.16185 0.31631 0.0
H796 H 0.17087 0.16026 0.31996 0.0
H797 H 0.18803 0.15919 0.28122 0.0
H798 H 0.14605 0.17424 0.24446 0.0
H799 H 0.10216 0.14523 0.24361 0.0
H800 H 0.26056 0.1858 0.84185 0.0
H801 H 0.2975 0.21411 0.81525 0.0
H802 H 0.24666 0.28193 0.84294 0.0
H803 H 0.20981 0.25361 0.86935 0.0
H804 H 0.29169 0.25482 0.76584 0.0
H805 H 0.33044 0.29221 0.88298 0.0
H806 H 0.30806 0.26308 0.87931 0.0
H807 H 0.29095 0.29475 0.87692 0.0
C808 C 0.25725 0.20674 0.84183 0.0
C809 C 0.23265 0.21768 0.85779 0.0
C810 C 0.27823 0.22285 0.82667 0.0
C811 C 0.27492 0.2501 0.8274 0.0
C812 C 0.24979 0.26096 0.84244 0.0
H813 H 0.37956 0.38515 0.78886 0.0
H814 H 0.33831 0.35429 0.79336 0.0
C815 C 0.22887 0.24487 0.85757 0.0
C816 C 0.29857 0.26737 0.81434 0.0
H817 H 0.34874 0.31376 0.83689 0.0
C818 C 0.30431 0.26767 0.78128 0.0
C819 C 0.31519 0.28384 0.83463 0.0
C820 C 0.31113 0.28337 0.87047 0.0
C821 C 0.32557 0.28483 0.76791 0.0
C822 C 0.3415 0.30182 0.78821 0.0
C823 C 0.3362 0.30095 0.82129 0.0
C824 C 0.36362 0.32113 0.77633 0.0
C825 C 0.33031 0.28522 0.73224 0.0
C826 C 0.39107 0.31306 0.76336 0.0
C827 C 0.41468 0.3309 0.76027 0.0
C828 C 0.41112 0.3568 0.77068 0.0
C829 C 0.38285 0.36527 0.78073 0.0
C830 C 0.3593 0.34763 0.7834 0.0
H831 H 0.31235 0.27467 0.71941 0.0
H832 H 0.33139 0.30563 0.72326 0.0
H833 H 0.35186 0.27566 0.72649 0.0
H834 H 0.39501 0.29265 0.75811 0.0
H835 H 0.43637 0.32387 0.75277 0.0
H836 H 0.7548 0.19112 0.69615 0.0
H837 H 0.71651 0.21855 0.72164 0.0
H838 H 0.76211 0.2876 0.68802 0.0
H839 H 0.80024 0.26013 0.66257 0.0
H840 H 0.72034 0.25943 0.76824 0.0
H841 H 0.67754 0.29479 0.65177 0.0
H842 H 0.70201 0.26697 0.65509 0.0
H843 H 0.71688 0.29957 0.65668 0.0
C844 C 0.75661 0.21217 0.69449 0.0
C845 C 0.78019 0.22364 0.67729 0.0
C846 C 0.73484 0.22778 0.70903 0.0
C847 C 0.7363 0.2551 0.70644 0.0
C848 C 0.7603 0.26656 0.6899 0.0
H849 H 0.62774 0.38709 0.74693 0.0
H850 H 0.67004 0.35736 0.74252 0.0
C851 C 0.78199 0.25095 0.67534 0.0
C852 C 0.71216 0.27168 0.71979 0.0
H853 H 0.65976 0.31646 0.69804 0.0
C854 C 0.70695 0.27184 0.75296 0.0
C855 C 0.69449 0.28757 0.69974 0.0
C856 C 0.69774 0.2871 0.66382 0.0
C857 C 0.68522 0.28829 0.76665 0.0
C858 C 0.66831 0.30477 0.7466 0.0
C859 C 0.67307 0.30405 0.71344 0.0
C860 C 0.64567 0.32338 0.75886 0.0
C861 C 0.68096 0.28852 0.80239 0.0
C862 C 0.6184 0.31446 0.7715 0.0
C863 C 0.59418 0.33164 0.77452 0.0
C864 C 0.59699 0.35772 0.76444 0.0
C865 C 0.62508 0.36707 0.75492 0.0
C866 C 0.64922 0.35007 0.75226 0.0
H867 H 0.69913 0.278 0.81495 0.0
H868 H 0.67993 0.30891 0.81135 0.0
H869 H 0.6595 0.2789 0.80848 0.0
H870 H 0.61507 0.29388 0.77639 0.0
H871 H 0.57262 0.32393 0.78153 0.0
H872 H 0.69232 0.25407 0.2034 0.0
H873 H 0.73006 0.23004 0.23426 0.0
H874 H 0.79963 0.26849 0.18043 0.0
H875 H 0.76189 0.29258 0.14992 0.0
H876 H 0.77492 0.19615 0.21017 0.0
H877 H 0.82404 0.28001 0.27452 0.0
H878 H 0.78794 0.28151 0.25565 0.0
H879 H 0.82136 0.28522 0.23218 0.0
C880 C 0.71572 0.25732 0.19838 0.0
C881 C 0.72438 0.27504 0.17441 0.0
C882 C 0.73719 0.24368 0.21594 0.0
C883 C 0.76764 0.24784 0.21004 0.0
C884 C 0.77626 0.26538 0.18583 0.0
H885 H 0.93753 0.19133 0.22882 0.0
H886 H 0.89199 0.21712 0.22861 0.0
C887 C 0.7548 0.27888 0.16818 0.0
C888 C 0.79058 0.23302 0.22797 0.0
H889 H 0.85391 0.24109 0.27177 0.0
C890 C 0.79187 0.20582 0.22426 0.0
C891 C 0.81246 0.24571 0.24656 0.0
C892 C 0.81129 0.2747 0.25278 0.0
C893 C 0.8158 0.19122 0.23645 0.0
C894 C 0.83872 0.20416 0.25341 0.0
C895 C 0.83632 0.23115 0.2589 0.0
C896 C 0.86762 0.19112 0.26012 0.0
C897 C 0.81746 0.16242 0.22898 0.0
C898 C 0.86974 0.16866 0.27948 0.0
C899 C 0.89611 0.15384 0.27977 0.0
C900 C 0.92043 0.16147 0.26069 0.0
C901 C 0.91903 0.18511 0.24376 0.0
C902 C 0.89298 0.19984 0.24359 0.0
H903 H 0.79994 0.15621 0.21193 0.0
H904 H 0.83957 0.15743 0.21866 0.0
H905 H 0.81456 0.15102 0.25136 0.0
H906 H 0.85057 0.16183 0.2929 0.0
H907 H 0.89668 0.13556 0.29282 0.0
H908 H 0.70891 0.75686 0.64462 0.0
H909 H 0.74739 0.78411 0.66938 0.0
H910 H 0.78959 0.71497 0.70712 0.0
H911 H 0.75203 0.68774 0.68084 0.0
H912 H 0.76434 0.79074 0.73117 0.0
H913 H 0.85793 0.74903 0.66036 0.0
H914 H 0.81947 0.74253 0.651 0.0
H915 H 0.83733 0.72543 0.68324 0.0
C916 C 0.72662 0.74759 0.65797 0.0
C917 C 0.72779 0.72029 0.66064 0.0
C918 C 0.74839 0.7631 0.67232 0.0
C919 C 0.77165 0.75156 0.6897 0.0
C920 C 0.77225 0.72428 0.69327 0.0
H921 H 0.93049 0.83096 0.76459 0.0
H922 H 0.88949 0.79926 0.76174 0.0
C923 C 0.75065 0.70877 0.6786 0.0
C924 C 0.79552 0.76817 0.70332 0.0
H925 H 0.87015 0.78086 0.69858 0.0
C926 C 0.78751 0.78845 0.72423 0.0
C927 C 0.82579 0.76513 0.69431 0.0
C928 C 0.8357 0.74452 0.67079 0.0
C929 C 0.80882 0.80615 0.73572 0.0
C930 C 0.83884 0.80349 0.726 0.0
C931 C 0.84709 0.78263 0.70619 0.0
C932 C 0.86135 0.82387 0.73258 0.0
C933 C 0.79907 0.82789 0.75764 0.0
C934 C 0.8588 0.84826 0.71757 0.0
C935 C 0.88218 0.86617 0.71884 0.0
C936 C 0.90852 0.8601 0.7353 0.0
C937 C 0.91039 0.83625 0.7519 0.0
C938 C 0.88706 0.81812 0.75024 0.0
H939 H 0.77745 0.82336 0.76948 0.0
H940 H 0.8161 0.83162 0.77626 0.0
H941 H 0.79627 0.84607 0.74349 0.0
H942 H 0.83933 0.8529 0.70345 0.0
H943 H 0.88006 0.88442 0.70589 0.0
H944 H 0.80009 0.74347 0.15037 0.0
H945 H 0.7609 0.71805 0.17757 0.0
H946 H 0.71465 0.78952 0.20058 0.0
H947 H 0.75339 0.81465 0.17234 0.0
H948 H 0.74166 0.71861 0.23974 0.0
H949 H 0.64918 0.74769 0.15935 0.0
H950 H 0.6877 0.75413 0.14976 0.0
H951 H 0.66813 0.77458 0.17773 0.0
C952 C 0.78129 0.75354 0.16096 0.0
C953 C 0.77934 0.78083 0.15908 0.0
C954 C 0.75907 0.73913 0.17666 0.0
C955 C 0.73455 0.75182 0.19078 0.0
C956 C 0.73293 0.77921 0.18929 0.0
H957 H 0.57292 0.67817 0.26925 0.0
H958 H 0.61356 0.71033 0.26541 0.0
C959 C 0.75503 0.79356 0.17335 0.0
C960 C 0.71076 0.73626 0.20688 0.0
H961 H 0.63671 0.72102 0.20327 0.0
C962 C 0.71867 0.71927 0.23188 0.0
C963 C 0.68068 0.73722 0.19683 0.0
C964 C 0.67086 0.75419 0.16928 0.0
C965 C 0.69751 0.70283 0.24653 0.0
C966 C 0.66769 0.70323 0.23579 0.0
C967 C 0.65952 0.72093 0.21172 0.0
C968 C 0.64559 0.68312 0.24567 0.0
C969 C 0.70729 0.68484 0.27305 0.0
C970 C 0.65047 0.65701 0.23703 0.0
C971 C 0.62736 0.63882 0.23897 0.0
C972 C 0.59894 0.6463 0.24978 0.0
C973 C 0.59472 0.67183 0.2612 0.0
C974 C 0.61784 0.69023 0.25879 0.0
H975 H 0.72752 0.69238 0.28515 0.0
H976 H 0.68931 0.68218 0.2911 0.0
H977 H 0.71277 0.66543 0.26285 0.0
H978 H 0.67146 0.65112 0.22639 0.0
H979 H 0.63113 0.6193 0.22985 0.0
H980 H 0.21219 0.74085 0.35364 0.0
H981 H 0.25166 0.71667 0.32541 0.0
H982 H 0.29525 0.78947 0.3021 0.0
H983 H 0.25625 0.81338 0.33137 0.0
H984 H 0.27051 0.71819 0.26284 0.0
H985 H 0.3622 0.74915 0.34324 0.0
H986 H 0.3235 0.75443 0.35301 0.0
H987 H 0.34219 0.77554 0.32497 0.0
C988 C 0.23044 0.75148 0.34268 0.0
C989 C 0.23163 0.77878 0.34486 0.0
C990 C 0.2528 0.73779 0.32641 0.0
C991 C 0.27669 0.75121 0.31198 0.0
C992 C 0.27746 0.77863 0.3136 0.0
H993 H 0.44046 0.67973 0.23673 0.0
H994 H 0.39929 0.71143 0.2385 0.0
C995 C 0.25522 0.79227 0.33012 0.0
C996 C 0.3009 0.73637 0.29575 0.0
H997 H 0.37523 0.72245 0.29981 0.0
C998 C 0.29346 0.71929 0.27076 0.0
C999 C 0.33092 0.73791 0.30589 0.0
C1000 C 0.34025 0.75505 0.33341 0.0
C1001 C 0.31503 0.70321 0.25631 0.0
C1002 C 0.34476 0.70409 0.26726 0.0
C1003 C 0.35247 0.72199 0.29121 0.0
C1004 C 0.36717 0.68411 0.25806 0.0
C1005 C 0.30575 0.68504 0.22985 0.0
C1006 C 0.36244 0.65806 0.26723 0.0
C1007 C 0.38585 0.64016 0.26649 0.0
C1008 C 0.4144 0.64787 0.25634 0.0
C1009 C 0.41854 0.67324 0.24427 0.0
C1010 C 0.39511 0.69137 0.24548 0.0
H1011 H 0.2856 0.69237 0.2174 0.0
H1012 H 0.32397 0.68245 0.21208 0.0
H1013 H 0.30031 0.66562 0.2402 0.0
H1014 H 0.34131 0.65208 0.27751 0.0
H1015 H 0.38218 0.62076 0.27614 0.0
H1016 H 0.29187 0.75911 0.8729 0.0
H1017 H 0.25198 0.78718 0.8519 0.0
H1018 H 0.20692 0.71908 0.81534 0.0
H1019 H 0.24641 0.69112 0.83728 0.0
H1020 H 0.22983 0.79463 0.79038 0.0
H1021 H 0.14344 0.75307 0.87121 0.0
H1022 H 0.18267 0.74693 0.87659 0.0
H1023 H 0.1621 0.72931 0.84682 0.0
C1024 C 0.2734 0.75033 0.86028 0.0
C1025 C 0.27199 0.72314 0.85652 0.0
C1026 C 0.25076 0.76626 0.84821 0.0
C1027 C 0.22631 0.75519 0.83236 0.0
C1028 C 0.22533 0.72801 0.82791 0.0
H1029 H 0.08842 0.84425 0.73045 0.0
H1030 H 0.13152 0.81648 0.74225 0.0
C1031 C 0.24789 0.7121 0.84015 0.0
C1032 C 0.20141 0.77203 0.82148 0.0
H1033 H 0.12711 0.78332 0.83241 0.0
C1034 C 0.20733 0.79217 0.79949 0.0
C1035 C 0.17216 0.76894 0.83368 0.0
C1036 C 0.16466 0.74857 0.8586 0.0
C1037 C 0.18477 0.80934 0.78941 0.0
C1038 C 0.15546 0.806 0.80132 0.0
C1039 C 0.14956 0.78576 0.82314 0.0
C1040 C 0.13076 0.82408 0.79313 0.0
C1041 C 0.19268 0.83136 0.76691 0.0
C1042 C 0.11595 0.83749 0.81767 0.0
C1043 C 0.09119 0.85297 0.811 0.0
C1044 C 0.08056 0.85543 0.77958 0.0
C1045 C 0.09593 0.84264 0.75483 0.0
C1046 C 0.12073 0.82693 0.76155 0.0
H1047 H 0.2171 0.83488 0.76595 0.0
H1048 H 0.18514 0.82631 0.74248 0.0
H1049 H 0.18141 0.84974 0.77415 0.0
H1050 H 0.12331 0.83564 0.8422 0.0
H1051 H 0.08009 0.86261 0.8307 0.0
loop_
_geom_bond_atom_site_label_1
_geom_bond_atom_site_label_2
_geom_bond_distance
_geom_bond_site_symmetry_2
_ccdc_geom_bond_type
C0 N1 1.317 . S
C0 N2 1.348 . S
C0 C3 1.485 . S
N1 C0 1.317 . S
N1 N5 1.370 . S
N2 C0 1.348 . S
N2 C4 1.346 . S
C3 C0 1.485 . S
C3 H7 0.960 . S
C3 H8 0.961 . S
C3 H9 0.960 . S
C4 N2 1.346 . S
C4 N5 1.307 . S
C4 C6 1.486 . S
N5 N1 1.370 . S
N5 C4 1.307 . S
C6 C4 1.486 . S
C6 H10 0.960 . S
C6 H11 0.960 . S
C6 H12 0.959 . S
H7 C3 0.960 . S
H8 C3 0.961 . S
H9 C3 0.960 . S
H10 C6 0.960 . S
H11 C6 0.960 . S
H12 C6 0.959 . S
C13 N14 1.317 . S
C13 N15 1.348 . S
C13 C16 1.485 . S
N14 C13 1.317 . S
N14 N18 1.370 . S
N15 C13 1.348 . S
N15 C17 1.346 . S
C16 C13 1.485 . S
C16 H20 0.960 . S
C16 H21 0.961 . S
C16 H22 0.960 . S
C17 N15 1.346 . S
C17 N18 1.307 . S
C17 C19 1.486 . S
N18 N14 1.370 . S
N18 C17 1.307 . S
C19 C17 1.486 . S
C19 H23 0.960 . S
C19 H24 0.960 . S
C19 H25 0.959 . S
H20 C16 0.960 . S
H21 C16 0.961 . S
H22 C16 0.960 . S
H23 C19 0.960 . S
H24 C19 0.960 . S
H25 C19 0.959 . S
C26 N27 1.317 . S
C26 N28 1.348 . S
C26 C29 1.485 . S
N27 C26 1.317 . S
N27 N31 1.370 . S
N28 C26 1.348 . S
N28 C30 1.346 . S
C29 C26 1.485 . S
C29 H33 0.960 . S
C29 H34 0.961 . S
C29 H35 0.960 . S
C30 N28 1.346 . S
C30 N31 1.307 . S
C30 C32 1.486 . S
N31 N27 1.370 . S
N31 C30 1.307 . S
C32 C30 1.486 . S
C32 H36 0.960 . S
C32 H37 0.960 . S
C32 H38 0.959 . S
H33 C29 0.960 . S
H34 C29 0.961 . S
H35 C29 0.960 . S
H36 C32 0.960 . S
H37 C32 0.960 . S
H38 C32 0.959 . S
C39 N40 1.317 . S
C39 N41 1.348 . S
C39 C42 1.485 . S
N40 C39 1.317 . S
N40 N44 1.370 . S
N41 C39 1.348 . S
N41 C43 1.346 . S
C42 C39 1.485 . S
C42 H46 0.960 . S
C42 H47 0.961 . S
C42 H48 0.960 . S
C43 N41 1.346 . S
C43 N44 1.307 . S
C43 C45 1.486 . S
N44 N40 1.370 . S
N44 C43 1.307 . S
C45 C43 1.486 . S
C45 H49 0.960 . S
C45 H50 0.960 . S
C45 H51 0.959 . S
H46 C42 0.960 . S
H47 C42 0.961 . S
H48 C42 0.960 . S
H49 C45 0.960 . S
H50 C45 0.960 . S
H51 C45 0.959 . S
C52 N53 1.317 . S
C52 N54 1.348 . S
C52 C55 1.485 . S
N53 C52 1.317 . S
N53 N57 1.370 . S
N54 C52 1.348 . S
N54 C56 1.346 . S
C55 C52 1.485 . S
C55 H59 0.960 . S
C55 H60 0.961 . S
C55 H61 0.960 . S
C56 N54 1.346 . S
C56 N57 1.307 . S
C56 C58 1.486 . S
N57 N53 1.370 . S
N57 C56 1.307 . S
C58 C56 1.486 . S
C58 H62 0.960 . S
C58 H63 0.960 . S
C58 H64 0.959 . S
H59 C55 0.960 . S
H60 C55 0.961 . S
H61 C55 0.960 . S
H62 C58 0.960 . S
H63 C58 0.960 . S
H64 C58 0.959 . S
C65 N66 1.317 . S
C65 N67 1.348 . S
C65 C68 1.485 . S
N66 C65 1.317 . S
N66 N70 1.370 . S
N67 C65 1.348 . S
N67 C69 1.346 . S
C68 C65 1.485 . S
C68 H72 0.960 . S
C68 H73 0.961 . S
C68 H74 0.960 . S
C69 N67 1.346 . S
C69 N70 1.307 . S
C69 C71 1.486 . S
N70 N66 1.370 . S
N70 C69 1.307 . S
C71 C69 1.486 . S
C71 H75 0.960 . S
C71 H76 0.960 . S
C71 H77 0.959 . S
H72 C68 0.960 . S
H73 C68 0.961 . S
H74 C68 0.960 . S
H75 C71 0.960 . S
H76 C71 0.960 . S
H77 C71 0.959 . S
C78 N79 1.317 . S
C78 N80 1.348 . S
C78 C81 1.485 . S
N79 C78 1.317 . S
N79 N83 1.370 . S
N80 C78 1.348 . S
N80 C82 1.346 . S
C81 C78 1.485 . S
C81 H85 0.960 . S
C81 H86 0.961 . S
C81 H87 0.960 . S
C82 N80 1.346 . S
C82 N83 1.307 . S
C82 C84 1.486 . S
N83 N79 1.370 . S
N83 C82 1.307 . S
C84 C82 1.486 . S
C84 H88 0.960 . S
C84 H89 0.960 . S
C84 H90 0.959 . S
H85 C81 0.960 . S
H86 C81 0.961 . S
H87 C81 0.960 . S
H88 C84 0.960 . S
H89 C84 0.960 . S
H90 C84 0.959 . S
C91 N92 1.317 . S
C91 N93 1.348 . S
C91 C94 1.485 . S
N92 C91 1.317 . S
N92 N96 1.370 . S
N93 C91 1.348 . S
N93 C95 1.346 . S
C94 C91 1.485 . S
C94 H98 0.960 . S
C94 H99 0.961 . S
C94 H100 0.960 . S
C95 N93 1.346 . S
C95 N96 1.307 . S
C95 C97 1.486 . S
N96 N92 1.370 . S
N96 C95 1.307 . S
C97 C95 1.486 . S
C97 H101 0.960 . S
C97 H102 0.960 . S
C97 H103 0.959 . S
H98 C94 0.960 . S
H99 C94 0.961 . S
H100 C94 0.960 . S
H101 C97 0.960 . S
H102 C97 0.960 . S
H103 C97 0.959 . S
Zn104 O110 1.920 1_455 S
Zn104 O116 1.898 . S
Zn104 O119 1.905 . S
Zn105 O113 1.905 1_655 S
Zn105 O114 1.898 . S
Zn105 O122 1.920 . S
Zn106 O109 2.080 1_455 S
Zn106 O112 2.114 . S
Zn106 O115 2.120 1_455 S
Zn106 O117 2.120 . S
Zn106 O118 2.114 . S
Zn106 O121 2.080 1_455 S
C107 O112 1.166 . S
C107 O113 1.182 . S
C108 O114 1.167 . S
C108 O115 1.299 . S
O109 Zn106 2.080 1_655 S
O109 C123 1.305 . S
O110 Zn104 1.920 1_655 S
O110 C123 1.234 . S
C111 O116 1.167 . S
C111 O117 1.299 . S
O112 Zn106 2.114 . S
O112 C107 1.166 . S
O113 Zn105 1.905 1_455 S
O113 C107 1.182 . S
O114 Zn105 1.898 . S
O114 C108 1.167 . S
O115 Zn106 2.120 1_655 S
O115 C108 1.299 . S
O116 Zn104 1.898 . S
O116 C111 1.167 . S
O117 Zn106 2.120 . S
O117 C111 1.299 . S
O118 Zn106 2.114 . S
O118 C120 1.166 . S
O119 Zn104 1.905 . S
O119 C120 1.182 . S
C120 O118 1.166 . S
C120 O119 1.182 . S
O121 Zn106 2.080 1_655 S
O121 C124 1.305 . S
O122 Zn105 1.920 . S
O122 C124 1.234 . S
C123 O109 1.305 . S
C123 O110 1.234 . S
C124 O121 1.305 . S
C124 O122 1.234 . S
Zn125 O131 1.920 . S
Zn125 O137 1.898 . S
Zn125 O140 1.905 . S
Zn126 O134 1.905 . S
Zn126 O135 1.898 . S
Zn126 O143 1.920 . S
Zn127 O130 2.080 . S
Zn127 O133 2.114 . S
Zn127 O136 2.120 . S
Zn127 O138 2.120 . S
Zn127 O139 2.114 . S
Zn127 O142 2.080 . S
C128 O133 1.166 . S
C128 O134 1.182 . S
C129 O135 1.167 . S
C129 O136 1.299 . S
O130 Zn127 2.080 . S
O130 C144 1.305 . S
O131 Zn125 1.920 . S
O131 C144 1.234 . S
C132 O137 1.167 . S
C132 O138 1.299 . S
O133 Zn127 2.114 . S
O133 C128 1.166 . S
O134 Zn126 1.905 . S
O134 C128 1.182 . S
O135 Zn126 1.898 . S
O135 C129 1.167 . S
O136 Zn127 2.120 . S
O136 C129 1.299 . S
O137 Zn125 1.898 . S
O137 C132 1.167 . S
O138 Zn127 2.120 . S
O138 C132 1.299 . S
O139 Zn127 2.114 . S
O139 C141 1.166 . S
O140 Zn125 1.905 . S
O140 C141 1.182 . S
C141 O139 1.166 . S
C141 O140 1.182 . S
O142 Zn127 2.080 . S
O142 C145 1.305 . S
O143 Zn126 1.920 . S
O143 C145 1.234 . S
C144 O130 1.305 . S
C144 O131 1.234 . S
C145 O142 1.305 . S
C145 O143 1.234 . S
Zn146 O152 1.920 . S
Zn146 O158 1.898 . S
Zn146 O161 1.905 1_455 S
Zn147 O155 1.905 . S
Zn147 O156 1.898 . S
Zn147 O164 1.920 1_655 S
Zn148 O151 2.080 . S
Zn148 O154 2.114 1_455 S
Zn148 O157 2.120 1_455 S
Zn148 O159 2.120 . S
Zn148 O160 2.114 1_455 S
Zn148 O163 2.080 . S
C149 O154 1.166 . S
C149 O155 1.182 . S
C150 O156 1.167 . S
C150 O157 1.299 . S
O151 Zn148 2.080 . S
O151 C165 1.305 . S
O152 Zn146 1.920 . S
O152 C165 1.234 . S
C153 O158 1.167 . S
C153 O159 1.299 . S
O154 Zn148 2.114 1_655 S
O154 C149 1.166 . S
O155 Zn147 1.905 . S
O155 C149 1.182 . S
O156 Zn147 1.898 . S
O156 C150 1.167 . S
O157 Zn148 2.120 1_655 S
O157 C150 1.299 . S
O158 Zn146 1.898 . S
O158 C153 1.167 . S
O159 Zn148 2.120 . S
O159 C153 1.299 . S
O160 Zn148 2.114 1_655 S
O160 C162 1.166 . S
O161 Zn146 1.905 1_655 S
O161 C162 1.182 . S
C162 O160 1.166 . S
C162 O161 1.182 . S
O163 Zn148 2.080 . S
O163 C166 1.305 . S
O164 Zn147 1.920 1_455 S
O164 C166 1.234 . S
C165 O151 1.305 . S
C165 O152 1.234 . S
C166 O163 1.305 . S
C166 O164 1.234 . S
Zn167 O173 1.920 . S
Zn167 O179 1.898 . S
Zn167 O182 1.905 . S
Zn168 O176 1.905 . S
Zn168 O177 1.898 . S
Zn168 O185 1.920 . S
Zn169 O172 2.080 . S
Zn169 O175 2.114 . S
Zn169 O178 2.120 . S
Zn169 O180 2.120 . S
Zn169 O181 2.114 . S
Zn169 O184 2.080 . S
C170 O175 1.166 . S
C170 O176 1.182 . S
C171 O177 1.167 . S
C171 O178 1.299 . S
O172 Zn169 2.080 . S
O172 C186 1.305 . S
O173 Zn167 1.920 . S
O173 C186 1.234 . S
C174 O179 1.167 . S
C174 O180 1.299 . S
O175 Zn169 2.114 . S
O175 C170 1.166 . S
O176 Zn168 1.905 . S
O176 C170 1.182 . S
O177 Zn168 1.898 . S
O177 C171 1.167 . S
O178 Zn169 2.120 . S
O178 C171 1.299 . S
O179 Zn167 1.898 . S
O179 C174 1.167 . S
O180 Zn169 2.120 . S
O180 C174 1.299 . S
O181 Zn169 2.114 . S
O181 C183 1.166 . S
O182 Zn167 1.905 . S
O182 C183 1.182 . S
C183 O181 1.166 . S
C183 O182 1.182 . S
O184 Zn169 2.080 . S
O184 C187 1.305 . S
O185 Zn168 1.920 . S
O185 C187 1.234 . S
C186 O172 1.305 . S
C186 O173 1.234 . S
C187 O184 1.305 . S
C187 O185 1.234 . S
H188 C196 0.929 . S
H189 C198 0.930 . S
H190 C200 0.930 . S
H191 C203 0.929 . S
H192 C206 0.930 . S
H193 C208 0.960 . S
H194 C208 0.960 . S
H195 C208 0.960 . S
C196 H188 0.929 . S
C196 C197 1.377 . S
C196 C198 1.384 . S
C197 C196 1.377 . S
C197 C203 1.390 . S
C198 H189 0.930 . S
C198 C196 1.384 . S
C198 C199 1.372 . S
C199 C198 1.372 . S
C199 C200 1.400 . S
C199 C204 1.490 . S
C200 H190 0.930 . S
C200 C199 1.400 . S
C200 C203 1.386 . S
H201 C217 0.930 . S
H202 C218 0.931 1_565 S
C203 H191 0.929 . S
C203 C197 1.390 . S
C203 C200 1.386 . S
C204 C199 1.490 . S
C204 C206 1.395 . S
C204 C207 1.403 . S
H205 C211 0.930 . S
C206 H192 0.930 . S
C206 C204 1.395 . S
C206 C209 1.403 . S
C207 C204 1.403 . S
C207 C208 1.524 . S
C207 C211 1.400 . S
C208 H193 0.960 . S
C208 H194 0.960 . S
C208 H195 0.960 . S
C208 C207 1.524 . S
C209 C206 1.403 . S
C209 C210 1.392 . S
C209 C213 1.495 . S
C210 C209 1.392 . S
C210 C211 1.385 . S
C210 C212 1.486 . S
C211 H205 0.930 . S
C211 C207 1.400 . S
C211 C210 1.385 . S
C212 C210 1.486 . S
C212 C214 1.375 1_565 S
C212 C218 1.380 1_565 S
C213 C209 1.495 . S
C213 H219 0.959 . S
C213 H220 0.961 . S
C213 H221 0.960 . S
C214 C212 1.375 1_545 S
C214 C215 1.394 . S
C214 H222 0.930 . S
C215 C214 1.394 . S
C215 C216 1.383 . S
C215 H223 0.929 . S
C216 C215 1.383 . S
C216 C217 1.377 . S
C217 H201 0.930 . S
C217 C216 1.377 . S
C217 C218 1.379 . S
C218 H202 0.931 1_545 S
C218 C212 1.380 1_545 S
C218 C217 1.379 . S
H219 C213 0.959 . S
H220 C213 0.961 . S
H221 C213 0.960 . S
H222 C214 0.930 . S
H223 C215 0.929 . S
H224 C232 0.929 . S
H225 C234 0.930 . S
H226 C236 0.930 . S
H227 C239 0.929 . S
H228 C242 0.930 . S
H229 C244 0.960 . S
H230 C244 0.960 . S
H231 C244 0.960 . S
C232 H224 0.929 . S
C232 C233 1.377 . S
C232 C234 1.384 . S
C233 C232 1.377 . S
C233 C239 1.390 . S
C234 H225 0.930 . S
C234 C232 1.384 . S
C234 C235 1.372 . S
C235 C234 1.372 . S
C235 C236 1.400 . S
C235 C240 1.490 . S
C236 H226 0.930 . S
C236 C235 1.400 . S
C236 C239 1.386 . S
H237 C253 0.930 . S
H238 C254 0.931 . S
C239 H227 0.929 . S
C239 C233 1.390 . S
C239 C236 1.386 . S
C240 C235 1.490 . S
C240 C242 1.395 . S
C240 C243 1.403 . S
H241 C247 0.930 . S
C242 H228 0.930 . S
C242 C240 1.395 . S
C242 C245 1.403 . S
C243 C240 1.403 . S
C243 C244 1.524 . S
C243 C247 1.400 . S
C244 H229 0.960 . S
C244 H230 0.960 . S
C244 H231 0.960 . S
C244 C243 1.524 . S
C245 C242 1.403 . S
C245 C246 1.392 . S
C245 C249 1.495 . S
C246 C245 1.392 . S
C246 C247 1.385 . S
C246 C248 1.478 . S
C247 H241 0.930 . S
C247 C243 1.400 . S
C247 C246 1.385 . S
C248 C246 1.478 . S
C248 C250 1.381 . S
C248 C254 1.383 . S
C249 C245 1.495 . S
C249 H255 0.959 . S
C249 H256 0.961 . S
C249 H257 0.960 . S
C250 C248 1.381 . S
C250 C251 1.394 . S
C250 H258 0.930 . S
C251 C250 1.394 . S
C251 C252 1.383 . S
C251 H259 0.929 . S
C252 C251 1.383 . S
C252 C253 1.377 . S
C253 H237 0.930 . S
C253 C252 1.377 . S
C253 C254 1.379 . S
C254 H238 0.931 . S
C254 C248 1.383 . S
C254 C253 1.379 . S
H255 C249 0.959 . S
H256 C249 0.961 . S
H257 C249 0.960 . S
H258 C250 0.930 . S
H259 C251 0.929 . S
H260 C268 0.929 . S
H261 C270 0.930 . S
H262 C272 0.930 . S
H263 C275 0.929 . S
H264 C278 0.930 . S
H265 C280 0.960 . S
H266 C280 0.960 . S
H267 C280 0.960 . S
C268 H260 0.929 . S
C268 C269 1.377 . S
C268 C270 1.384 . S
C269 C268 1.377 . S
C269 C275 1.390 . S
C270 H261 0.930 . S
C270 C268 1.384 . S
C270 C271 1.372 . S
C271 C270 1.372 . S
C271 C272 1.400 . S
C271 C276 1.490 . S
C272 H262 0.930 . S
C272 C271 1.400 . S
C272 C275 1.386 . S
H273 C289 0.930 . S
H274 C290 0.931 . S
C275 H263 0.929 . S
C275 C269 1.390 . S
C275 C272 1.386 . S
C276 C271 1.490 . S
C276 C278 1.395 . S
C276 C279 1.403 . S
H277 C283 0.930 . S
C278 H264 0.930 . S
C278 C276 1.395 . S
C278 C281 1.403 . S
C279 C276 1.403 . S
C279 C280 1.524 . S
C279 C283 1.400 . S
C280 H265 0.960 . S
C280 H266 0.960 . S
C280 H267 0.960 . S
C280 C279 1.524 . S
C281 C278 1.403 . S
C281 C282 1.392 . S
C281 C285 1.495 . S
C282 C281 1.392 . S
C282 C283 1.385 . S
C282 C284 1.478 . S
C283 H277 0.930 . S
C283 C279 1.400 . S
C283 C282 1.385 . S
C284 C282 1.478 . S
C284 C286 1.381 . S
C284 C290 1.383 . S
C285 C281 1.495 . S
C285 H291 0.959 . S
C285 H292 0.961 . S
C285 H293 0.960 . S
C286 C284 1.381 . S
C286 C287 1.394 . S
C286 H294 0.930 . S
C287 C286 1.394 . S
C287 C288 1.383 . S
C287 H295 0.929 . S
C288 C287 1.383 . S
C288 C289 1.377 . S
C289 H273 0.930 . S
C289 C288 1.377 . S
C289 C290 1.379 . S
C290 H274 0.931 . S
C290 C284 1.383 . S
C290 C289 1.379 . S
H291 C285 0.959 . S
H292 C285 0.961 . S
H293 C285 0.960 . S
H294 C286 0.930 . S
H295 C287 0.929 . S
H296 C304 0.929 . S
H297 C306 0.930 . S
H298 C308 0.930 . S
H299 C311 0.929 . S
H300 C314 0.930 . S
H301 C316 0.960 . S
H302 C316 0.960 . S
H303 C316 0.960 . S
C304 H296 0.929 . S
C304 C305 1.377 . S
C304 C306 1.384 . S
C305 C304 1.377 . S
C305 C311 1.390 . S
C306 H297 0.930 . S
C306 C304 1.384 . S
C306 C307 1.372 . S
C307 C306 1.372 . S
C307 C308 1.400 . S
C307 C312 1.490 . S
C308 H298 0.930 . S
C308 C307 1.400 . S
C308 C311 1.386 . S
H309 C325 0.930 . S
H310 C326 0.931 1_565 S
C311 H299 0.929 . S
C311 C305 1.390 . S
C311 C308 1.386 . S
C312 C307 1.490 . S
C312 C314 1.395 . S
C312 C315 1.403 . S
H313 C319 0.930 . S
C314 H300 0.930 . S
C314 C312 1.395 . S
C314 C317 1.403 . S
C315 C312 1.403 . S
C315 C316 1.524 . S
C315 C319 1.400 . S
C316 H301 0.960 . S
C316 H302 0.960 . S
C316 H303 0.960 . S
C316 C315 1.524 . S
C317 C314 1.403 . S
C317 C318 1.392 . S
C317 C321 1.520 . S
C318 C317 1.392 . S
C318 C319 1.385 . S
C318 C320 1.478 1_565 S
C319 H313 0.930 . S
C319 C315 1.400 . S
C319 C318 1.385 . S
C320 C318 1.478 1_545 S
C320 C322 1.381 . S
C320 C326 1.383 . S
C321 C317 1.520 . S
C321 H327 0.968 . S
C321 H328 0.953 1_565 S
C321 H329 0.935 1_565 S
C322 C320 1.381 . S
C322 C323 1.394 . S
C322 H330 0.930 . S
C323 C322 1.394 . S
C323 C324 1.383 . S
C323 H331 0.929 . S
C324 C323 1.383 . S
C324 C325 1.377 . S
C325 H309 0.930 . S
C325 C324 1.377 . S
C325 C326 1.379 . S
C326 H310 0.931 1_545 S
C326 C320 1.383 . S
C326 C325 1.379 . S
H327 C321 0.968 . S
H328 C321 0.953 1_545 S
H329 C321 0.935 1_545 S
H330 C322 0.930 . S
H331 C323 0.929 . S
H332 C340 0.929 . S
H333 C342 0.930 . S
H334 C344 0.930 . S
H335 C347 0.929 . S
H336 C350 0.930 . S
H337 C352 0.960 . S
H338 C352 0.960 . S
H339 C352 0.960 . S
C340 H332 0.929 . S
C340 C341 1.377 . S
C340 C342 1.384 . S
C341 C340 1.377 . S
C341 C347 1.390 . S
C342 H333 0.930 . S
C342 C340 1.384 . S
C342 C343 1.372 . S
C343 C342 1.372 . S
C343 C344 1.400 . S
C343 C348 1.490 . S
C344 H334 0.930 . S
C344 C343 1.400 . S
C344 C347 1.386 . S
H345 C361 0.930 . S
H346 C362 0.921 1_545 S
C347 H335 0.929 . S
C347 C341 1.390 . S
C347 C344 1.386 . S
C348 C343 1.490 . S
C348 C350 1.395 . S
C348 C351 1.403 . S
H349 C355 0.930 . S
C350 H336 0.930 . S
C350 C348 1.395 . S
C350 C353 1.403 . S
C351 C348 1.403 . S
C351 C352 1.524 . S
C351 C355 1.400 . S
C352 H337 0.960 . S
C352 H338 0.960 . S
C352 H339 0.960 . S
C352 C351 1.524 . S
C353 C350 1.403 . S
C353 C354 1.392 . S
C353 C357 1.495 1_545 S
C354 C353 1.392 . S
C354 C355 1.385 . S
C354 C356 1.478 1_545 S
C355 H349 0.930 . S
C355 C351 1.400 . S
C355 C354 1.385 . S
C356 C354 1.478 1_565 S
C356 C358 1.381 . S
C356 C362 1.383 . S
C357 C353 1.495 1_565 S
C357 H363 0.959 . S
C357 H364 0.961 . S
C357 H365 0.960 . S
C358 C356 1.381 . S
C358 C359 1.394 . S
C358 H366 0.930 . S
C359 C358 1.394 . S
C359 C360 1.383 . S
C359 H367 0.929 . S
C360 C359 1.383 . S
C360 C361 1.377 . S
C361 H345 0.930 . S
C361 C360 1.377 . S
C361 C362 1.379 . S
C362 H346 0.921 1_565 S
C362 C356 1.383 . S
C362 C361 1.379 . S
H363 C357 0.959 . S
H364 C357 0.961 . S
H365 C357 0.960 . S
H366 C358 0.930 . S
H367 C359 0.929 . S
H368 C376 0.929 . S
H369 C378 0.930 . S
H370 C380 0.930 . S
H371 C383 0.929 . S
H372 C386 0.930 . S
H373 C388 0.960 . S
H374 C388 0.960 . S
H375 C388 0.960 . S
C376 H368 0.929 . S
C376 C377 1.377 . S
C376 C378 1.384 . S
C377 C376 1.377 . S
C377 C383 1.390 . S
C378 H369 0.930 . S
C378 C376 1.384 . S
C378 C379 1.372 . S
C379 C378 1.372 . S
C379 C380 1.400 . S
C379 C384 1.490 . S
C380 H370 0.930 . S
C380 C379 1.400 . S
C380 C383 1.386 . S
H381 C397 0.930 . S
H382 C398 0.931 . S
C383 H371 0.929 . S
C383 C377 1.390 . S
C383 C380 1.386 . S
C384 C379 1.490 . S
C384 C386 1.395 . S
C384 C387 1.403 . S
H385 C391 0.930 . S
C386 H372 0.930 . S
C386 C384 1.395 . S
C386 C389 1.403 . S
C387 C384 1.403 . S
C387 C388 1.524 . S
C387 C391 1.400 . S
C388 H373 0.960 . S
C388 H374 0.960 . S
C388 H375 0.960 . S
C388 C387 1.524 . S
C389 C386 1.403 . S
C389 C390 1.392 . S
C389 C393 1.495 . S
C390 C389 1.392 . S
C390 C391 1.385 . S
C390 C392 1.478 . S
C391 H385 0.930 . S
C391 C387 1.400 . S
C391 C390 1.385 . S
C392 C390 1.478 . S
C392 C394 1.381 . S
C392 C398 1.383 . S
C393 C389 1.495 . S
C393 H399 0.959 . S
C393 H400 0.961 . S
C393 H401 0.960 . S
C394 C392 1.381 . S
C394 C395 1.394 . S
C394 H402 0.930 . S
C395 C394 1.394 . S
C395 C396 1.383 . S
C395 H403 0.929 . S
C396 C395 1.383 . S
C396 C397 1.377 . S
C397 H381 0.930 . S
C397 C396 1.377 . S
C397 C398 1.379 . S
C398 H382 0.931 . S
C398 C392 1.383 . S
C398 C397 1.379 . S
H399 C393 0.959 . S
H400 C393 0.961 . S
H401 C393 0.960 . S
H402 C394 0.930 . S
H403 C395 0.929 . S
H404 C412 0.929 . S
H405 C414 0.930 . S
H406 C416 0.930 . S
H407 C419 0.929 . S
H408 C422 0.930 . S
H409 C424 0.960 . S
H410 C424 0.960 . S
H411 C424 0.960 . S
C412 H404 0.929 . S
C412 C413 1.377 . S
C412 C414 1.384 . S
C413 C412 1.377 . S
C413 C419 1.390 . S
C414 H405 0.930 . S
C414 C412 1.384 . S
C414 C415 1.372 . S
C415 C414 1.372 . S
C415 C416 1.400 . S
C415 C420 1.490 . S
C416 H406 0.930 . S
C416 C415 1.400 . S
C416 C419 1.386 . S
H417 C433 0.930 . S
H418 C434 0.931 . S
C419 H407 0.929 . S
C419 C413 1.390 . S
C419 C416 1.386 . S
C420 C415 1.490 . S
C420 C422 1.395 . S
C420 C423 1.403 . S
H421 C427 0.930 . S
C422 H408 0.930 . S
C422 C420 1.395 . S
C422 C425 1.403 . S
C423 C420 1.403 . S
C423 C424 1.524 . S
C423 C427 1.400 . S
C424 H409 0.960 . S
C424 H410 0.960 . S
C424 H411 0.960 . S
C424 C423 1.524 . S
C425 C422 1.403 . S
C425 C426 1.392 . S
C425 C429 1.495 . S
C426 C425 1.392 . S
C426 C427 1.385 . S
C426 C428 1.478 . S
C427 H421 0.930 . S
C427 C423 1.400 . S
C427 C426 1.385 . S
C428 C426 1.478 . S
C428 C430 1.381 . S
C428 C434 1.383 . S
C429 C425 1.495 . S
C429 H435 0.959 . S
C429 H436 0.961 . S
C429 H437 0.960 . S
C430 C428 1.381 . S
C430 C431 1.394 . S
C430 H438 0.930 . S
C431 C430 1.394 . S
C431 C432 1.383 . S
C431 H439 0.929 . S
C432 C431 1.383 . S
C432 C433 1.377 . S
C433 H417 0.930 . S
C433 C432 1.377 . S
C433 C434 1.379 . S
C434 H418 0.931 . S
C434 C428 1.383 . S
C434 C433 1.379 . S
H435 C429 0.959 . S
H436 C429 0.961 . S
H437 C429 0.960 . S
H438 C430 0.930 . S
H439 C431 0.929 . S
H440 C448 0.929 . S
H441 C450 0.930 . S
H442 C452 0.930 . S
H443 C455 0.929 . S
H444 C458 0.930 . S
H445 C460 0.960 . S
H446 C460 0.960 . S
H447 C460 0.960 . S
C448 H440 0.929 . S
C448 C449 1.377 . S
C448 C450 1.384 . S
C449 C448 1.377 . S
C449 C455 1.390 . S
C450 H441 0.930 . S
C450 C448 1.384 . S
C450 C451 1.372 . S
C451 C450 1.372 . S
C451 C452 1.400 . S
C451 C456 1.490 . S
C452 H442 0.930 . S
C452 C451 1.400 . S
C452 C455 1.386 . S
H453 C469 0.930 . S
H454 C470 0.931 1_545 S
C455 H443 0.929 . S
C455 C449 1.390 . S
C455 C452 1.386 . S
C456 C451 1.490 . S
C456 C458 1.395 . S
C456 C459 1.403 . S
H457 C463 0.930 . S
C458 H444 0.930 . S
C458 C456 1.395 . S
C458 C461 1.403 . S
C459 C456 1.403 . S
C459 C460 1.524 . S
C459 C463 1.400 . S
C460 H445 0.960 . S
C460 H446 0.960 . S
C460 H447 0.960 . S
C460 C459 1.524 . S
C461 C458 1.403 . S
C461 C462 1.392 . S
C461 C465 1.495 . S
C462 C461 1.392 . S
C462 C463 1.385 . S
C462 C464 1.478 . S
C463 H457 0.930 . S
C463 C459 1.400 . S
C463 C462 1.385 . S
C464 C462 1.478 . S
C464 C466 1.381 1_545 S
C464 C470 1.383 1_545 S
C465 C461 1.495 . S
C465 H471 0.959 . S
C465 H472 0.961 . S
C465 H473 0.960 . S
C466 C464 1.381 1_565 S
C466 C467 1.394 . S
C466 H474 0.930 . S
C467 C466 1.394 . S
C467 C468 1.383 . S
C467 H475 0.929 . S
C468 C467 1.383 . S
C468 C469 1.377 . S
C469 H453 0.930 . S
C469 C468 1.377 . S
C469 C470 1.379 . S
C470 H454 0.931 1_565 S
C470 C464 1.383 1_565 S
C470 C469 1.379 . S
H471 C465 0.959 . S
H472 C465 0.961 . S
H473 C465 0.960 . S
H474 C466 0.930 . S
H475 C467 0.929 . S
H476 C484 0.929 . S
H477 C486 0.930 . S
H478 C488 0.944 . S
H479 C491 0.929 . S
H480 C494 0.930 . S
H481 C496 0.960 . S
H482 C496 0.960 1_556 S
H483 C496 0.960 . S
C484 H476 0.929 . S
C484 C485 1.377 . S
C484 C486 1.384 . S
C485 C484 1.377 . S
C485 C491 1.390 . S
C486 H477 0.930 . S
C486 C484 1.384 . S
C486 C487 1.372 . S
C487 C486 1.372 . S
C487 C488 1.400 . S
C487 C492 1.490 1_556 S
C488 H478 0.944 . S
C488 C487 1.400 . S
C488 C491 1.386 . S
H489 C505 0.930 . S
H490 C506 0.931 . S
C491 H479 0.929 . S
C491 C485 1.390 . S
C491 C488 1.386 . S
C492 C487 1.490 1_554 S
C492 C494 1.395 . S
C492 C495 1.403 . S
H493 C499 0.930 . S
C494 H480 0.930 . S
C494 C492 1.395 . S
C494 C497 1.403 . S
C495 C492 1.403 . S
C495 C496 1.524 . S
C495 C499 1.400 . S
C496 H481 0.960 . S
C496 H482 0.960 1_554 S
C496 H483 0.960 . S
C496 C495 1.524 . S
C497 C494 1.403 . S
C497 C498 1.392 . S
C497 C501 1.495 . S
C498 C497 1.392 . S
C498 C499 1.385 . S
C498 C500 1.478 . S
C499 H493 0.930 . S
C499 C495 1.400 . S
C499 C498 1.385 . S
C500 C498 1.478 . S
C500 C502 1.381 . S
C500 C506 1.383 . S
C501 C497 1.495 . S
C501 H507 0.959 . S
C501 H508 0.961 . S
C501 H509 0.960 . S
C502 C500 1.381 . S
C502 C503 1.394 . S
C502 H510 0.930 . S
C503 C502 1.394 . S
C503 C504 1.383 . S
C503 H511 0.929 . S
C504 C503 1.383 . S
C504 C505 1.377 . S
C505 H489 0.930 . S
C505 C504 1.377 . S
C505 C506 1.379 . S
C506 H490 0.931 . S
C506 C500 1.383 . S
C506 C505 1.379 . S
H507 C501 0.959 . S
H508 C501 0.961 . S
H509 C501 0.960 . S
H510 C502 0.930 . S
H511 C503 0.929 . S
H512 C520 0.929 . S
H513 C522 0.930 . S
H514 C524 0.930 . S
H515 C527 0.929 . S
H516 C530 0.930 . S
H517 C532 0.960 . S
H518 C532 0.960 . S
H519 C532 0.960 . S
C520 H512 0.929 . S
C520 C521 1.377 . S
C520 C522 1.384 . S
C521 C520 1.377 . S
C521 C527 1.390 . S
C522 H513 0.930 . S
C522 C520 1.384 . S
C522 C523 1.372 . S
C523 C522 1.372 . S
C523 C524 1.400 . S
C523 C528 1.490 . S
C524 H514 0.930 . S
C524 C523 1.400 . S
C524 C527 1.386 . S
H525 C541 0.930 . S
H526 C542 0.931 . S
C527 H515 0.929 . S
C527 C521 1.390 . S
C527 C524 1.386 . S
C528 C523 1.490 . S
C528 C530 1.395 . S
C528 C531 1.403 . S
H529 C535 0.930 . S
C530 H516 0.930 . S
C530 C528 1.395 . S
C530 C533 1.403 . S
C531 C528 1.403 . S
C531 C532 1.524 . S
C531 C535 1.400 . S
C532 H517 0.960 . S
C532 H518 0.960 . S
C532 H519 0.960 . S
C532 C531 1.524 . S
C533 C530 1.403 . S
C533 C534 1.392 . S
C533 C537 1.495 . S
C534 C533 1.392 . S
C534 C535 1.385 . S
C534 C536 1.478 . S
C535 H529 0.930 . S
C535 C531 1.400 . S
C535 C534 1.385 . S
C536 C534 1.478 . S
C536 C538 1.381 . S
C536 C542 1.383 . S
C537 C533 1.495 . S
C537 H543 0.959 . S
C537 H544 0.961 . S
C537 H545 0.960 . S
C538 C536 1.381 . S
C538 C539 1.394 . S
C538 H546 0.930 . S
C539 C538 1.394 . S
C539 C540 1.383 . S
C539 H547 0.929 . S
C540 C539 1.383 . S
C540 C541 1.377 . S
C541 H525 0.930 . S
C541 C540 1.377 . S
C541 C542 1.379 . S
C542 H526 0.931 . S
C542 C536 1.383 . S
C542 C541 1.379 . S
H543 C537 0.959 . S
H544 C537 0.961 . S
H545 C537 0.960 . S
H546 C538 0.930 . S
H547 C539 0.929 . S
H548 C556 0.929 . S
H549 C558 0.930 1_556 S
H550 C560 0.930 . S
H551 C563 0.929 . S
H552 C566 0.930 . S
H553 C568 0.960 . S
H554 C568 0.960 . S
H555 C568 0.960 1_554 S
C556 H548 0.929 . S
C556 C557 1.377 . S
C556 C558 1.384 . S
C557 C556 1.377 . S
C557 C563 1.390 . S
C558 H549 0.930 1_554 S
C558 C556 1.384 . S
C558 C559 1.372 . S
C559 C558 1.372 . S
C559 C560 1.400 . S
C559 C564 1.490 1_554 S
C560 H550 0.930 . S
C560 C559 1.400 . S
C560 C563 1.386 . S
H561 C577 0.930 . S
H562 C578 0.931 . S
C563 H551 0.929 . S
C563 C557 1.390 . S
C563 C560 1.386 . S
C564 C559 1.490 1_556 S
C564 C566 1.395 . S
C564 C567 1.403 . S
H565 C571 0.930 . S
C566 H552 0.930 . S
C566 C564 1.395 . S
C566 C569 1.403 . S
C567 C564 1.403 . S
C567 C568 1.524 . S
C567 C571 1.400 . S
C568 H553 0.960 . S
C568 H554 0.960 . S
C568 H555 0.960 1_556 S
C568 C567 1.524 . S
C569 C566 1.403 . S
C569 C570 1.392 . S
C569 C573 1.495 . S
C570 C569 1.392 . S
C570 C571 1.385 . S
C570 C572 1.478 . S
C571 H565 0.930 . S
C571 C567 1.400 . S
C571 C570 1.385 . S
C572 C570 1.478 . S
C572 C574 1.381 . S
C572 C578 1.383 . S
C573 C569 1.495 . S
C573 H579 0.959 . S
C573 H580 0.961 . S
C573 H581 0.960 . S
C574 C572 1.381 . S
C574 C575 1.394 . S
C574 H582 0.930 . S
C575 C574 1.394 . S
C575 C576 1.383 . S
C575 H583 0.929 . S
C576 C575 1.383 . S
C576 C577 1.377 . S
C577 H561 0.930 . S
C577 C576 1.377 . S
C577 C578 1.379 . S
C578 H562 0.931 . S
C578 C572 1.383 . S
C578 C577 1.379 . S
H579 C573 0.959 . S
H580 C573 0.961 . S
H581 C573 0.960 . S
H582 C574 0.930 . S
H583 C575 0.929 . S
H584 C592 0.929 . S
H585 C594 0.930 . S
H586 C596 0.930 . S
H587 C599 0.929 . S
H588 C602 0.930 . S
H589 C604 0.960 . S
H590 C604 0.960 . S
H591 C604 0.960 . S
C592 H584 0.929 . S
C592 C593 1.377 . S
C592 C594 1.384 . S
C593 C592 1.377 . S
C593 C599 1.390 . S
C594 H585 0.930 . S
C594 C592 1.384 . S
C594 C595 1.372 . S
C595 C594 1.372 . S
C595 C596 1.400 . S
C595 C600 1.490 . S
C596 H586 0.930 . S
C596 C595 1.400 . S
C596 C599 1.386 . S
H597 C613 0.930 . S
H598 C614 0.931 . S
C599 H587 0.929 . S
C599 C593 1.390 . S
C599 C596 1.386 . S
C600 C595 1.490 . S
C600 C602 1.395 . S
C600 C603 1.403 . S
H601 C607 0.930 . S
C602 H588 0.930 . S
C602 C600 1.395 . S
C602 C605 1.403 . S
C603 C600 1.403 . S
C603 C604 1.524 . S
C603 C607 1.400 . S
C604 H589 0.960 . S
C604 H590 0.960 . S
C604 H591 0.960 . S
C604 C603 1.524 . S
C605 C602 1.403 . S
C605 C606 1.392 . S
C605 C609 1.495 . S
C606 C605 1.392 . S
C606 C607 1.385 . S
C606 C608 1.478 . S
C607 H601 0.930 . S
C607 C603 1.400 . S
C607 C606 1.385 . S
C608 C606 1.478 . S
C608 C610 1.381 . S
C608 C614 1.383 . S
C609 C605 1.495 . S
C609 H615 0.959 . S
C609 H616 0.961 . S
C609 H617 0.960 . S
C610 C608 1.381 . S
C610 C611 1.394 . S
C610 H618 0.930 . S
C611 C610 1.394 . S
C611 C612 1.383 . S
C611 H619 0.929 . S
C612 C611 1.383 . S
C612 C613 1.377 . S
C613 H597 0.930 . S
C613 C612 1.377 . S
C613 C614 1.379 . S
C614 H598 0.931 . S
C614 C608 1.383 . S
C614 C613 1.379 . S
H615 C609 0.959 . S
H616 C609 0.961 . S
H617 C609 0.960 . S
H618 C610 0.930 . S
H619 C611 0.929 . S
H620 C628 0.929 . S
H621 C630 0.930 . S
H622 C632 0.930 1_556 S
H623 C635 0.929 . S
H624 C638 0.930 . S
H625 C640 0.960 . S
H626 C640 0.960 . S
H627 C640 0.960 . S
C628 H620 0.929 . S
C628 C629 1.377 . S
C628 C630 1.384 . S
C629 C628 1.377 . S
C629 C635 1.390 . S
C630 H621 0.930 . S
C630 C628 1.384 . S
C630 C631 1.372 . S
C631 C630 1.372 . S
C631 C632 1.400 . S
C631 C636 1.490 1_554 S
C632 H622 0.930 1_554 S
C632 C631 1.400 . S
C632 C635 1.386 . S
H633 C649 0.930 . S
H634 C650 0.931 . S
C635 H623 0.929 . S
C635 C629 1.390 . S
C635 C632 1.386 . S
C636 C631 1.490 1_556 S
C636 C638 1.395 . S
C636 C639 1.403 . S
H637 C643 0.930 . S
C638 H624 0.930 . S
C638 C636 1.395 . S
C638 C641 1.403 . S
C639 C636 1.403 . S
C639 C640 1.524 . S
C639 C643 1.400 . S
C640 H625 0.960 . S
C640 H626 0.960 . S
C640 H627 0.960 . S
C640 C639 1.524 . S
C641 C638 1.403 . S
C641 C642 1.392 . S
C641 C645 1.495 . S
C642 C641 1.392 . S
C642 C643 1.385 . S
C642 C644 1.478 . S
C643 H637 0.930 . S
C643 C639 1.400 . S
C643 C642 1.385 . S
C644 C642 1.478 . S
C644 C646 1.381 . S
C644 C650 1.383 . S
C645 C641 1.495 . S
C645 H651 0.959 . S
C645 H652 0.961 . S
C645 H653 0.960 . S
C646 C644 1.381 . S
C646 C647 1.394 . S
C646 H654 0.930 . S
C647 C646 1.394 . S
C647 C648 1.383 . S
C647 H655 0.929 . S
C648 C647 1.383 . S
C648 C649 1.377 . S
C649 H633 0.930 . S
C649 C648 1.377 . S
C649 C650 1.379 . S
C650 H634 0.931 . S
C650 C644 1.383 . S
C650 C649 1.379 . S
H651 C645 0.959 . S
H652 C645 0.961 . S
H653 C645 0.960 . S
H654 C646 0.930 . S
H655 C647 0.929 . S
H656 C664 0.929 . S
H657 C666 0.930 . S
H658 C668 0.930 . S
H659 C671 0.929 . S
H660 C674 0.930 . S
H661 C676 0.960 . S
H662 C676 0.960 . S
H663 C676 0.960 . S
C664 H656 0.929 . S
C664 C665 1.377 . S
C664 C666 1.384 . S
C665 C664 1.377 . S
C665 C671 1.390 . S
C666 H657 0.930 . S
C666 C664 1.384 . S
C666 C667 1.372 . S
C667 C666 1.372 . S
C667 C668 1.400 . S
C667 C672 1.490 . S
C668 H658 0.930 . S
C668 C667 1.400 . S
C668 C671 1.386 . S
H669 C685 0.930 . S
H670 C686 0.931 . S
C671 H659 0.929 . S
C671 C665 1.390 . S
C671 C668 1.386 . S
C672 C667 1.490 . S
C672 C674 1.395 . S
C672 C675 1.403 . S
H673 C679 0.930 . S
C674 H660 0.930 . S
C674 C672 1.395 . S
C674 C677 1.403 . S
C675 C672 1.403 . S
C675 C676 1.524 . S
C675 C679 1.400 . S
C676 H661 0.960 . S
C676 H662 0.960 . S
C676 H663 0.960 . S
C676 C675 1.524 . S
C677 C674 1.403 . S
C677 C678 1.392 . S
C677 C681 1.495 . S
C678 C677 1.392 . S
C678 C679 1.385 . S
C678 C680 1.478 . S
C679 H673 0.930 . S
C679 C675 1.400 . S
C679 C678 1.385 . S
C680 C678 1.478 . S
C680 C682 1.381 . S
C680 C686 1.383 . S
C681 C677 1.495 . S
C681 H687 0.959 . S
C681 H688 0.961 . S
C681 H689 0.960 . S
C682 C680 1.381 . S
C682 C683 1.394 . S
C682 H690 0.930 . S
C683 C682 1.394 . S
C683 C684 1.383 . S
C683 H691 0.929 . S
C684 C683 1.383 . S
C684 C685 1.377 . S
C685 H669 0.930 . S
C685 C684 1.377 . S
C685 C686 1.379 . S
C686 H670 0.931 . S
C686 C680 1.383 . S
C686 C685 1.379 . S
H687 C681 0.959 . S
H688 C681 0.961 . S
H689 C681 0.960 . S
H690 C682 0.930 . S
H691 C683 0.929 . S
H692 C700 0.929 . S
H693 C702 0.930 . S
H694 C704 0.930 . S
H695 C707 0.929 . S
H696 C710 0.930 . S
H697 C712 0.960 . S
H698 C712 0.960 . S
H699 C712 0.960 . S
C700 H692 0.929 . S
C700 C701 1.377 . S
C700 C702 1.384 . S
C701 C700 1.377 . S
C701 C707 1.390 . S
C702 H693 0.930 . S
C702 C700 1.384 . S
C702 C703 1.372 . S
C703 C702 1.372 . S
C703 C704 1.400 . S
C703 C708 1.490 1_556 S
C704 H694 0.930 . S
C704 C703 1.400 . S
C704 C707 1.386 . S
H705 C721 0.930 . S
H706 C722 0.931 . S
C707 H695 0.929 . S
C707 C701 1.390 . S
C707 C704 1.386 . S
C708 C703 1.490 1_554 S
C708 C710 1.395 . S
C708 C711 1.403 . S
H709 C715 0.930 . S
C710 H696 0.930 . S
C710 C708 1.395 . S
C710 C713 1.403 . S
C711 C708 1.403 . S
C711 C712 1.524 1_554 S
C711 C715 1.400 . S
C712 H697 0.960 . S
C712 H698 0.960 . S
C712 H699 0.960 . S
C712 C711 1.524 1_556 S
C713 C710 1.403 . S
C713 C714 1.392 . S
C713 C717 1.495 . S
C714 C713 1.392 . S
C714 C715 1.385 . S
C714 C716 1.478 . S
C715 H709 0.930 . S
C715 C711 1.400 . S
C715 C714 1.385 . S
C716 C714 1.478 . S
C716 C718 1.381 . S
C716 C722 1.383 . S
C717 C713 1.495 . S
C717 H723 0.959 . S
C717 H724 0.961 . S
C717 H725 0.960 . S
C718 C716 1.381 . S
C718 C719 1.394 . S
C718 H726 0.930 . S
C719 C718 1.394 . S
C719 C720 1.383 . S
C719 H727 0.929 . S
C720 C719 1.383 . S
C720 C721 1.377 . S
C721 H705 0.930 . S
C721 C720 1.377 . S
C721 C722 1.379 . S
C722 H706 0.931 . S
C722 C716 1.383 . S
C722 C721 1.379 . S
H723 C717 0.959 . S
H724 C717 0.961 . S
H725 C717 0.960 . S
H726 C718 0.930 . S
H727 C719 0.929 . S
H728 C736 0.929 . S
H729 C738 0.930 . S
H730 C740 0.930 . S
H731 C743 0.929 . S
H732 C746 0.930 . S
H733 C748 0.960 . S
H734 C748 0.960 . S
H735 C748 0.960 . S
C736 H728 0.929 . S
C736 C737 1.377 . S
C736 C738 1.384 . S
C737 C736 1.377 . S
C737 C743 1.390 . S
C738 H729 0.930 . S
C738 C736 1.384 . S
C738 C739 1.372 . S
C739 C738 1.372 . S
C739 C740 1.400 . S
C739 C744 1.490 . S
C740 H730 0.930 . S
C740 C739 1.400 . S
C740 C743 1.386 . S
H741 C757 0.930 . S
H742 C758 0.931 . S
C743 H731 0.929 . S
C743 C737 1.390 . S
C743 C740 1.386 . S
C744 C739 1.490 . S
C744 C746 1.395 . S
C744 C747 1.403 . S
H745 C751 0.930 . S
C746 H732 0.930 . S
C746 C744 1.395 . S
C746 C749 1.403 . S
C747 C744 1.403 . S
C747 C748 1.524 . S
C747 C751 1.400 . S
C748 H733 0.960 . S
C748 H734 0.960 . S
C748 H735 0.960 . S
C748 C747 1.524 . S
C749 C746 1.403 . S
C749 C750 1.392 . S
C749 C753 1.495 . S
C750 C749 1.392 . S
C750 C751 1.385 . S
C750 C752 1.478 . S
C751 H745 0.930 . S
C751 C747 1.400 . S
C751 C750 1.385 . S
C752 C750 1.478 . S
C752 C754 1.381 . S
C752 C758 1.383 . S
C753 C749 1.495 . S
C753 H759 0.959 . S
C753 H760 0.961 . S
C753 H761 0.960 . S
C754 C752 1.381 . S
C754 C755 1.394 . S
C754 H762 0.930 . S
C755 C754 1.394 . S
C755 C756 1.383 . S
C755 H763 0.929 . S
C756 C755 1.383 . S
C756 C757 1.377 . S
C757 H741 0.930 . S
C757 C756 1.377 . S
C757 C758 1.379 . S
C758 H742 0.931 . S
C758 C752 1.383 . S
C758 C757 1.379 . S
H759 C753 0.959 . S
H760 C753 0.961 . S
H761 C753 0.960 . S
H762 C754 0.930 . S
H763 C755 0.929 . S
H764 C772 0.929 . S
H765 C774 0.930 . S
H766 C776 0.930 . S
H767 C779 0.929 . S
H768 C782 0.930 . S
H769 C784 0.960 . S
H770 C784 0.960 . S
H771 C784 0.960 . S
C772 H764 0.929 . S
C772 C773 1.377 . S
C772 C774 1.384 . S
C773 C772 1.377 . S
C773 C779 1.390 . S
C774 H765 0.930 . S
C774 C772 1.384 . S
C774 C775 1.372 . S
C775 C774 1.372 . S
C775 C776 1.400 . S
C775 C780 1.490 . S
C776 H766 0.930 . S
C776 C775 1.400 . S
C776 C779 1.386 . S
H777 C793 0.930 . S
H778 C794 0.931 . S
C779 H767 0.929 . S
C779 C773 1.390 . S
C779 C776 1.386 . S
C780 C775 1.490 . S
C780 C782 1.395 . S
C780 C783 1.403 . S
H781 C787 0.930 . S
C782 H768 0.930 . S
C782 C780 1.395 . S
C782 C785 1.403 . S
C783 C780 1.403 . S
C783 C784 1.524 . S
C783 C787 1.400 . S
C784 H769 0.960 . S
C784 H770 0.960 . S
C784 H771 0.960 . S
C784 C783 1.524 . S
C785 C782 1.403 . S
C785 C786 1.392 . S
C785 C789 1.495 . S
C786 C785 1.392 . S
C786 C787 1.385 . S
C786 C788 1.478 . S
C787 H781 0.930 . S
C787 C783 1.400 . S
C787 C786 1.385 . S
C788 C786 1.478 . S
C788 C790 1.381 . S
C788 C794 1.383 . S
C789 C785 1.495 . S
C789 H795 0.959 . S
C789 H796 0.961 . S
C789 H797 0.960 . S
C790 C788 1.381 . S
C790 C791 1.394 . S
C790 H798 0.930 . S
C791 C790 1.394 . S
C791 C792 1.383 . S
C791 H799 0.929 . S
C792 C791 1.383 . S
C792 C793 1.377 . S
C793 H777 0.930 . S
C793 C792 1.377 . S
C793 C794 1.379 . S
C794 H778 0.931 . S
C794 C788 1.383 . S
C794 C793 1.379 . S
H795 C789 0.959 . S
H796 C789 0.961 . S
H797 C789 0.960 . S
H798 C790 0.930 . S
H799 C791 0.929 . S
H800 C808 0.929 . S
H801 C810 0.930 . S
H802 C812 0.930 . S
H803 C815 0.929 . S
H804 C818 0.930 . S
H805 C820 0.960 . S
H806 C820 0.960 . S
H807 C820 0.960 . S
C808 H800 0.929 . S
C808 C809 1.377 . S
C808 C810 1.384 . S
C809 C808 1.377 . S
C809 C815 1.390 . S
C810 H801 0.930 . S
C810 C808 1.384 . S
C810 C811 1.372 . S
C811 C810 1.372 . S
C811 C812 1.400 . S
C811 C816 1.490 . S
C812 H802 0.930 . S
C812 C811 1.400 . S
C812 C815 1.386 . S
H813 C829 0.930 . S
H814 C830 0.931 . S
C815 H803 0.929 . S
C815 C809 1.390 . S
C815 C812 1.386 . S
C816 C811 1.490 . S
C816 C818 1.395 . S
C816 C819 1.403 . S
H817 C823 0.930 . S
C818 H804 0.930 . S
C818 C816 1.395 . S
C818 C821 1.403 . S
C819 C816 1.403 . S
C819 C820 1.524 . S
C819 C823 1.400 . S
C820 H805 0.960 . S
C820 H806 0.960 . S
C820 H807 0.960 . S
C820 C819 1.524 . S
C821 C818 1.403 . S
C821 C822 1.392 . S
C821 C825 1.495 . S
C822 C821 1.392 . S
C822 C823 1.385 . S
C822 C824 1.478 . S
C823 H817 0.930 . S
C823 C819 1.400 . S
C823 C822 1.385 . S
C824 C822 1.478 . S
C824 C826 1.381 . S
C824 C830 1.383 . S
C825 C821 1.495 . S
C825 H831 0.959 . S
C825 H832 0.961 . S
C825 H833 0.960 . S
C826 C824 1.381 . S
C826 C827 1.394 . S
C826 H834 0.930 . S
C827 C826 1.394 . S
C827 C828 1.383 . S
C827 H835 0.929 . S
C828 C827 1.383 . S
C828 C829 1.377 . S
C829 H813 0.930 . S
C829 C828 1.377 . S
C829 C830 1.379 . S
C830 H814 0.931 . S
C830 C824 1.383 . S
C830 C829 1.379 . S
H831 C825 0.959 . S
H832 C825 0.961 . S
H833 C825 0.960 . S
H834 C826 0.930 . S
H835 C827 0.929 . S
H836 C844 0.929 . S
H837 C846 0.930 . S
H838 C848 0.930 . S
H839 C851 0.929 . S
H840 C854 0.930 . S
H841 C856 0.960 . S
H842 C856 0.960 . S
H843 C856 0.960 . S
C844 H836 0.929 . S
C844 C845 1.377 . S
C844 C846 1.384 . S
C845 C844 1.377 . S
C845 C851 1.390 . S
C846 H837 0.930 . S
C846 C844 1.384 . S
C846 C847 1.372 . S
C847 C846 1.372 . S
C847 C848 1.400 . S
C847 C852 1.490 . S
C848 H838 0.930 . S
C848 C847 1.400 . S
C848 C851 1.386 . S
H849 C865 0.930 . S
H850 C866 0.931 . S
C851 H839 0.929 . S
C851 C845 1.390 . S
C851 C848 1.386 . S
C852 C847 1.490 . S
C852 C854 1.395 . S
C852 C855 1.403 . S
H853 C859 0.930 . S
C854 H840 0.930 . S
C854 C852 1.395 . S
C854 C857 1.403 . S
C855 C852 1.403 . S
C855 C856 1.524 . S
C855 C859 1.400 . S
C856 H841 0.960 . S
C856 H842 0.960 . S
C856 H843 0.960 . S
C856 C855 1.524 . S
C857 C854 1.403 . S
C857 C858 1.392 . S
C857 C861 1.495 . S
C858 C857 1.392 . S
C858 C859 1.385 . S
C858 C860 1.478 . S
C859 H853 0.930 . S
C859 C855 1.400 . S
C859 C858 1.385 . S
C860 C858 1.478 . S
C860 C862 1.381 . S
C860 C866 1.383 . S
C861 C857 1.495 . S
C861 H867 0.959 . S
C861 H868 0.961 . S
C861 H869 0.960 . S
C862 C860 1.381 . S
C862 C863 1.394 . S
C862 H870 0.930 . S
C863 C862 1.394 . S
C863 C864 1.383 . S
C863 H871 0.929 . S
C864 C863 1.383 . S
C864 C865 1.377 . S
C865 H849 0.930 . S
C865 C864 1.377 . S
C865 C866 1.379 . S
C866 H850 0.931 . S
C866 C860 1.383 . S
C866 C865 1.379 . S
H867 C861 0.959 . S
H868 C861 0.961 . S
H869 C861 0.960 . S
H870 C862 0.930 . S
H871 C863 0.929 . S
H872 C880 0.929 . S
H873 C882 0.930 . S
H874 C884 0.930 . S
H875 C887 0.929 . S
H876 C890 0.930 . S
H877 C892 0.960 . S
H878 C892 0.960 . S
H879 C892 0.960 . S
C880 H872 0.929 . S
C880 C881 1.377 . S
C880 C882 1.384 . S
C881 C880 1.377 . S
C881 C887 1.390 . S
C882 H873 0.930 . S
C882 C880 1.384 . S
C882 C883 1.372 . S
C883 C882 1.372 . S
C883 C884 1.400 . S
C883 C888 1.490 . S
C884 H874 0.930 . S
C884 C883 1.400 . S
C884 C887 1.386 . S
H885 C901 0.930 . S
H886 C902 0.931 . S
C887 H875 0.929 . S
C887 C881 1.390 . S
C887 C884 1.386 . S
C888 C883 1.490 . S
C888 C890 1.395 . S
C888 C891 1.403 . S
H889 C895 0.930 . S
C890 H876 0.930 . S
C890 C888 1.395 . S
C890 C893 1.403 . S
C891 C888 1.403 . S
C891 C892 1.524 . S
C891 C895 1.400 . S
C892 H877 0.960 . S
C892 H878 0.960 . S
C892 H879 0.960 . S
C892 C891 1.524 . S
C893 C890 1.403 . S
C893 C894 1.392 . S
C893 C897 1.495 . S
C894 C893 1.392 . S
C894 C895 1.385 . S
C894 C896 1.478 . S
C895 H889 0.930 . S
C895 C891 1.400 . S
C895 C894 1.385 . S
C896 C894 1.478 . S
C896 C898 1.381 . S
C896 C902 1.383 . S
C897 C893 1.495 . S
C897 H903 0.959 . S
C897 H904 0.961 . S
C897 H905 0.960 . S
C898 C896 1.381 . S
C898 C899 1.394 . S
C898 H906 0.930 . S
C899 C898 1.394 . S
C899 C900 1.383 . S
C899 H907 0.929 . S
C900 C899 1.383 . S
C900 C901 1.377 . S
C901 H885 0.930 . S
C901 C900 1.377 . S
C901 C902 1.379 . S
C902 H886 0.931 . S
C902 C896 1.383 . S
C902 C901 1.379 . S
H903 C897 0.959 . S
H904 C897 0.961 . S
H905 C897 0.960 . S
H906 C898 0.930 . S
H907 C899 0.929 . S
H908 C916 0.929 . S
H909 C918 0.930 . S
H910 C920 0.930 . S
H911 C923 0.929 . S
H912 C926 0.930 . S
H913 C928 0.960 . S
H914 C928 0.960 . S
H915 C928 0.960 . S
C916 H908 0.929 . S
C916 C917 1.377 . S
C916 C918 1.384 . S
C917 C916 1.377 . S
C917 C923 1.390 . S
C918 H909 0.930 . S
C918 C916 1.384 . S
C918 C919 1.372 . S
C919 C918 1.372 . S
C919 C920 1.400 . S
C919 C924 1.490 . S
C920 H910 0.930 . S
C920 C919 1.400 . S
C920 C923 1.386 . S
H921 C937 0.930 . S
H922 C938 0.931 . S
C923 H911 0.929 . S
C923 C917 1.390 . S
C923 C920 1.386 . S
C924 C919 1.490 . S
C924 C926 1.395 . S
C924 C927 1.403 . S
H925 C931 0.930 . S
C926 H912 0.930 . S
C926 C924 1.395 . S
C926 C929 1.403 . S
C927 C924 1.403 . S
C927 C928 1.524 . S
C927 C931 1.400 . S
C928 H913 0.960 . S
C928 H914 0.960 . S
C928 H915 0.960 . S
C928 C927 1.524 . S
C929 C926 1.403 . S
C929 C930 1.392 . S
C929 C933 1.495 . S
C930 C929 1.392 . S
C930 C931 1.385 . S
C930 C932 1.478 . S
C931 H925 0.930 . S
C931 C927 1.400 . S
C931 C930 1.385 . S
C932 C930 1.478 . S
C932 C934 1.381 . S
C932 C938 1.383 . S
C933 C929 1.495 . S
C933 H939 0.959 . S
C933 H940 0.961 . S
C933 H941 0.960 . S
C934 C932 1.381 . S
C934 C935 1.394 . S
C934 H942 0.930 . S
C935 C934 1.394 . S
C935 C936 1.383 . S
C935 H943 0.929 . S
C936 C935 1.383 . S
C936 C937 1.377 . S
C937 H921 0.930 . S
C937 C936 1.377 . S
C937 C938 1.379 . S
C938 H922 0.931 . S
C938 C932 1.383 . S
C938 C937 1.379 . S
H939 C933 0.959 . S
H940 C933 0.961 . S
H941 C933 0.960 . S
H942 C934 0.930 . S
H943 C935 0.929 . S
H944 C952 0.929 . S
H945 C954 0.930 . S
H946 C956 0.930 . S
H947 C959 0.929 . S
H948 C962 0.930 . S
H949 C964 0.960 . S
H950 C964 0.960 . S
H951 C964 0.960 . S
C952 H944 0.929 . S
C952 C953 1.377 . S
C952 C954 1.384 . S
C953 C952 1.377 . S
C953 C959 1.390 . S
C954 H945 0.930 . S
C954 C952 1.384 . S
C954 C955 1.372 . S
C955 C954 1.372 . S
C955 C956 1.400 . S
C955 C960 1.490 . S
C956 H946 0.930 . S
C956 C955 1.400 . S
C956 C959 1.386 . S
H957 C973 0.930 . S
H958 C974 0.931 . S
C959 H947 0.929 . S
C959 C953 1.390 . S
C959 C956 1.386 . S
C960 C955 1.490 . S
C960 C962 1.395 . S
C960 C963 1.403 . S
H961 C967 0.930 . S
C962 H948 0.930 . S
C962 C960 1.395 . S
C962 C965 1.403 . S
C963 C960 1.403 . S
C963 C964 1.524 . S
C963 C967 1.400 . S
C964 H949 0.960 . S
C964 H950 0.960 . S
C964 H951 0.960 . S
C964 C963 1.524 . S
C965 C962 1.403 . S
C965 C966 1.392 . S
C965 C969 1.495 . S
C966 C965 1.392 . S
C966 C967 1.385 . S
C966 C968 1.478 . S
C967 H961 0.930 . S
C967 C963 1.400 . S
C967 C966 1.385 . S
C968 C966 1.478 . S
C968 C970 1.381 . S
C968 C974 1.383 . S
C969 C965 1.495 . S
C969 H975 0.959 . S
C969 H976 0.961 . S
C969 H977 0.960 . S
C970 C968 1.381 . S
C970 C971 1.394 . S
C970 H978 0.930 . S
C971 C970 1.394 . S
C971 C972 1.383 . S
C971 H979 0.929 . S
C972 C971 1.383 . S
C972 C973 1.377 . S
C973 H957 0.930 . S
C973 C972 1.377 . S
C973 C974 1.379 . S
C974 H958 0.931 . S
C974 C968 1.383 . S
C974 C973 1.379 . S
H975 C969 0.959 . S
H976 C969 0.961 . S
H977 C969 0.960 . S
H978 C970 0.930 . S
H979 C971 0.929 . S
H980 C988 0.929 . S
H981 C990 0.930 . S
H982 C992 0.930 . S
H983 C995 0.929 . S
H984 C998 0.930 . S
H985 C1000 0.960 . S
H986 C1000 0.960 . S
H987 C1000 0.960 . S
C988 H980 0.929 . S
C988 C989 1.377 . S
C988 C990 1.384 . S
C989 C988 1.377 . S
C989 C995 1.390 . S
C990 H981 0.930 . S
C990 C988 1.384 . S
C990 C991 1.372 . S
C991 C990 1.372 . S
C991 C992 1.400 . S
C991 C996 1.490 . S
C992 H982 0.930 . S
C992 C991 1.400 . S
C992 C995 1.386 . S
H993 C1009 0.930 . S
H994 C1010 0.931 . S
C995 H983 0.929 . S
C995 C989 1.390 . S
C995 C992 1.386 . S
C996 C991 1.490 . S
C996 C998 1.395 . S
C996 C999 1.403 . S
H997 C1003 0.930 . S
C998 H984 0.930 . S
C998 C996 1.395 . S
C998 C1001 1.403 . S
C999 C996 1.403 . S
C999 C1000 1.524 . S
C999 C1003 1.400 . S
C1000 H985 0.960 . S
C1000 H986 0.960 . S
C1000 H987 0.960 . S
C1000 C999 1.524 . S
C1001 C998 1.403 . S
C1001 C1002 1.392 . S
C1001 C1005 1.495 . S
C1002 C1001 1.392 . S
C1002 C1003 1.385 . S
C1002 C1004 1.478 . S
C1003 H997 0.930 . S
C1003 C999 1.400 . S
C1003 C1002 1.385 . S
C1004 C1002 1.478 . S
C1004 C1006 1.381 . S
C1004 C1010 1.383 . S
C1005 C1001 1.495 . S
C1005 H1011 0.959 . S
C1005 H1012 0.961 . S
C1005 H1013 0.960 . S
C1006 C1004 1.381 . S
C1006 C1007 1.394 . S
C1006 H1014 0.930 . S
C1007 C1006 1.394 . S
C1007 C1008 1.383 . S
C1007 H1015 0.929 . S
C1008 C1007 1.383 . S
C1008 C1009 1.377 . S
C1009 H993 0.930 . S
C1009 C1008 1.377 . S
C1009 C1010 1.379 . S
C1010 H994 0.931 . S
C1010 C1004 1.383 . S
C1010 C1009 1.379 . S
H1011 C1005 0.959 . S
H1012 C1005 0.961 . S
H1013 C1005 0.960 . S
H1014 C1006 0.930 . S
H1015 C1007 0.929 . S
H1016 C1024 0.929 . S
H1017 C1026 0.930 . S
H1018 C1028 0.930 . S
H1019 C1031 0.929 . S
H1020 C1034 0.930 . S
H1021 C1036 0.960 . S
H1022 C1036 0.960 . S
H1023 C1036 0.960 . S
C1024 H1016 0.929 . S
C1024 C1025 1.377 . S
C1024 C1026 1.384 . S
C1025 C1024 1.377 . S
C1025 C1031 1.390 . S
C1026 H1017 0.930 . S
C1026 C1024 1.384 . S
C1026 C1027 1.372 . S
C1027 C1026 1.372 . S
C1027 C1028 1.400 . S
C1027 C1032 1.490 . S
C1028 H1018 0.930 . S
C1028 C1027 1.400 . S
C1028 C1031 1.386 . S
H1029 C1045 0.930 . S
H1030 C1046 0.931 . S
C1031 H1019 0.929 . S
C1031 C1025 1.390 . S
C1031 C1028 1.386 . S
C1032 C1027 1.490 . S
C1032 C1034 1.395 . S
C1032 C1035 1.403 . S
H1033 C1039 0.930 . S
C1034 H1020 0.930 . S
C1034 C1032 1.395 . S
C1034 C1037 1.403 . S
C1035 C1032 1.403 . S
C1035 C1036 1.524 . S
C1035 C1039 1.400 . S
C1036 H1021 0.960 . S
C1036 H1022 0.960 . S
C1036 H1023 0.960 . S
C1036 C1035 1.524 . S
C1037 C1034 1.403 . S
C1037 C1038 1.392 . S
C1037 C1041 1.495 . S
C1038 C1037 1.392 . S
C1038 C1039 1.385 . S
C1038 C1040 1.478 . S
C1039 H1033 0.930 . S
C1039 C1035 1.400 . S
C1039 C1038 1.385 . S
C1040 C1038 1.478 . S
C1040 C1042 1.381 . S
C1040 C1046 1.383 . S
C1041 C1037 1.495 . S
C1041 H1047 0.959 . S
C1041 H1048 0.961 . S
C1041 H1049 0.960 . S
C1042 C1040 1.381 . S
C1042 C1043 1.394 . S
C1042 H1050 0.930 . S
C1043 C1042 1.394 . S
C1043 C1044 1.383 . S
C1043 H1051 0.929 . S
C1044 C1043 1.383 . S
C1044 C1045 1.377 . S
C1045 H1029 0.930 . S
C1045 C1044 1.377 . S
C1045 C1046 1.379 . S
C1046 H1030 0.931 . S
C1046 C1040 1.383 . S
C1046 C1045 1.379 . S
H1047 C1041 0.959 . S
H1048 C1041 0.961 . S
H1049 C1041 0.960 . S
H1050 C1042 0.930 . S
H1051 C1043 0.929 . S
C197 N83 1.429 . S
C216 C120 1.370 . S
C252 C128 1.362 . S
C233 N96 1.429 . S
C288 C132 1.353 . S
C269 N57 1.425 . S
C305 N70 1.426 . S
C324 C108 1.305 . S
C360 C149 1.296 . S
C341 N31 1.428 . S
C396 C183 1.321 . S
C377 N44 1.427 . S
C413 N5 1.424 . S
C432 C171 1.338 . S
C449 N18 1.424 . S
C468 C153 1.343 . S
C504 C107 1.371 . S
C485 N14 1.477 . S
C540 C141 1.308 . S
C521 N1 1.476 . S
C576 C145 1.351 . S
C557 N40 1.474 . S
C612 C123 1.322 . S
C593 N27 1.474 . S
C648 C162 1.329 . S
C629 N66 1.483 . S
C665 N53 1.482 . S
C684 C170 1.364 . S
C720 C186 1.387 . S
C701 N92 1.481 . S
C737 N79 1.480 . S
C756 C166 1.382 . S
C792 C111 1.345 . S
C773 N2 1.547 . S
C828 C129 1.408 . S
C809 N15 1.546 . S
C845 N28 1.540 . S
C864 C144 1.385 . S
C900 C124 1.372 . S
C881 N41 1.540 . S
C936 C150 1.413 . S
C917 N54 1.549 . S
C953 N67 1.549 . S
C972 C174 1.393 . S
C989 N80 1.542 . S
C1008 C187 1.395 . S
C1025 N93 1.542 . S
C1044 C165 1.378 . S
