# Generated by pormake.
# Topology pyr, (3,6)-cn, num edge types: 1
# Building blocks:
#     Node 0, Type 0, BuildingBlock: KAKCAD_clean_linker_0, # of connection points: 3
#     Node 1, Type 0, BuildingBlock: KAKCAD_clean_linker_0, # of connection points: 3
#     Node 2, Type 0, BuildingBlock: KAKCAD_clean_linker_0, # of connection points: 3
#     Node 3, Type 0, BuildingBlock: KAKCAD_clean_linker_0, # of connection points: 3
#     Node 4, Type 0, BuildingBlock: KAKCAD_clean_linker_0, # of connection points: 3
#     Node 5, Type 0, BuildingBlock: KAKCAD_clean_linker_0, # of connection points: 3
#     Node 6, Type 0, BuildingBlock: KAKCAD_clean_linker_0, # of connection points: 3
#     Node 7, Type 0, BuildingBlock: KAKCAD_clean_linker_0, # of connection points: 3
#     Node 8, Type 1, BuildingBlock: FUNLAD_clean_sbu_0, # of connection points: 6
#     Node 9, Type 1, BuildingBlock: FUNLAD_clean_sbu_0, # of connection points: 6
#     Node 10, Type 1, BuildingBlock: FUNLAD_clean_sbu_0, # of connection points: 6
#     Node 11, Type 1, BuildingBlock: FUNLAD_clean_sbu_0, # of connection points: 6
#     Edge 12, Type (0, 1), BuildingBlock: CIFDUS_clean_linker_0, # of connection points: 2
#     Edge 13, Type (0, 1), BuildingBlock: CIFDUS_clean_linker_0, # of connection points: 2
#     Edge 14, Type (0, 1), BuildingBlock: CIFDUS_clean_linker_0, # of connection points: 2
#     Edge 15, Type (0, 1), BuildingBlock: CIFDUS_clean_linker_0, # of connection points: 2
#     Edge 16, Type (0, 1), BuildingBlock: CIFDUS_clean_linker_0, # of connection points: 2
#     Edge 17, Type (0, 1), BuildingBlock: CIFDUS_clean_linker_0, # of connection points: 2
#     Edge 18, Type (0, 1), BuildingBlock: CIFDUS_clean_linker_0, # of connection points: 2
#     Edge 19, Type (0, 1), BuildingBlock: CIFDUS_clean_linker_0, # of connection points: 2
#     Edge 20, Type (0, 1), BuildingBlock: CIFDUS_clean_linker_0, # of connection points: 2
#     Edge 21, Type (0, 1), BuildingBlock: CIFDUS_clean_linker_0, # of connection points: 2
#     Edge 22, Type (0, 1), BuildingBlock: CIFDUS_clean_linker_0, # of connection points: 2
#     Edge 23, Type (0, 1), BuildingBlock: CIFDUS_clean_linker_0, # of connection points: 2
#     Edge 24, Type (0, 1), BuildingBlock: CIFDUS_clean_linker_0, # of connection points: 2
#     Edge 25, Type (0, 1), BuildingBlock: CIFDUS_clean_linker_0, # of connection points: 2
#     Edge 26, Type (0, 1), BuildingBlock: CIFDUS_clean_linker_0, # of connection points: 2
#     Edge 27, Type (0, 1), BuildingBlock: CIFDUS_clean_linker_0, # of connection points: 2
#     Edge 28, Type (0, 1), BuildingBlock: CIFDUS_clean_linker_0, # of connection points: 2
#     Edge 29, Type (0, 1), BuildingBlock: CIFDUS_clean_linker_0, # of connection points: 2
#     Edge 30, Type (0, 1), BuildingBlock: CIFDUS_clean_linker_0, # of connection points: 2
#     Edge 31, Type (0, 1), BuildingBlock: CIFDUS_clean_linker_0, # of connection points: 2
#     Edge 32, Type (0, 1), BuildingBlock: CIFDUS_clean_linker_0, # of connection points: 2
#     Edge 33, Type (0, 1), BuildingBlock: CIFDUS_clean_linker_0, # of connection points: 2
#     Edge 34, Type (0, 1), BuildingBlock: CIFDUS_clean_linker_0, # of connection points: 2
#     Edge 35, Type (0, 1), BuildingBlock: CIFDUS_clean_linker_0, # of connection points: 2
# Relax obj value: 0.067
# Max RMSD: 0.065
# Mean RMSD: 0.032
data_MOF--net-pry--node1-FUNLAD_clean_sbu_0--node2-KAKCAD_clean_linker_0--edge1-CIFDUS_clean_linker_0
_symmetry_space_group_name_H-M    P1
_symmetry_Int_Tables_number       1
_symmetry_cell_setting            triclinic
loop_
_symmetry_equiv_pos_as_xyz
'x, y, z'
_cell_length_a     39.561844
_cell_length_b     41.934276
_cell_length_c     42.065671
_cell_angle_alpha  90.409926
_cell_angle_beta   90.000471
_cell_angle_gamma 83.88532
loop_
_atom_site_label
_atom_site_type_symbol
_atom_site_fract_x
_atom_site_fract_y
_atom_site_fract_z
_atom_type_partial_charge
C0 C 0.10097 0.16009 0.2944 0.0
C1 C 0.10543 0.12683 0.30041 0.0
C2 C 0.11265 0.17276 0.26609 0.0
C3 C 0.12883 0.15263 0.24244 0.0
C4 C 0.13212 0.11927 0.24792 0.0
C5 C 0.12089 0.10664 0.27643 0.0
C6 C 0.14357 0.16636 0.21303 0.0
C7 C 0.12844 0.19508 0.19906 0.0
C8 C 0.14372 0.20881 0.17288 0.0
C9 C 0.17387 0.19315 0.16003 0.0
C10 C 0.18902 0.16412 0.1727 0.0
C11 C 0.17384 0.15121 0.19937 0.0
C12 C 0.22081 0.14751 0.15812 0.0
C13 C 0.22535 0.14674 0.12488 0.0
C14 C 0.24691 0.13229 0.17717 0.0
C15 C 0.27652 0.11667 0.16341 0.0
C16 C 0.281 0.11593 0.1302 0.0
C17 C 0.12938 0.2402 0.1593 0.0
C18 C 0.09642 0.24448 0.14635 0.0
C19 C 0.1496 0.26576 0.15782 0.0
C20 C 0.13716 0.29499 0.14402 0.0
C21 C 0.1044 0.29928 0.13067 0.0
C22 C 0.0842 0.27362 0.13184 0.0
C23 C 0.25504 0.13128 0.11115 0.0
H24 H 0.08851 0.17664 0.31165 0.0
H25 H 0.10971 0.19853 0.26326 0.0
H26 H 0.14362 0.10265 0.23024 0.0
H27 H 0.12519 0.08098 0.27985 0.0
H28 H 0.10508 0.20714 0.20873 0.0
H29 H 0.18592 0.12932 0.20963 0.0
H30 H 0.18572 0.20391 0.14013 0.0
H31 H 0.20568 0.15768 0.10933 0.0
H32 H 0.24476 0.13281 0.20283 0.0
H33 H 0.29617 0.10554 0.17889 0.0
H34 H 0.0804 0.2251 0.14693 0.0
H35 H 0.17511 0.26314 0.16751 0.0
H36 H 0.25736 0.13083 0.08549 0.0
H37 H 0.05877 0.27629 0.12197 0.0
H38 H 0.15335 0.31425 0.14347 0.0
C39 C 0.40558 0.94791 0.7647 0.0
C40 C 0.42004 0.93067 0.79087 0.0
C41 C 0.39354 0.93201 0.73821 0.0
C42 C 0.39535 0.89828 0.73699 0.0
C43 C 0.40992 0.881 0.7631 0.0
C44 C 0.42207 0.89692 0.78959 0.0
C45 C 0.38152 0.88134 0.70896 0.0
C46 C 0.35147 0.89455 0.69358 0.0
C47 C 0.33787 0.87884 0.66752 0.0
C48 C 0.35428 0.84909 0.65748 0.0
C49 C 0.38435 0.83557 0.67192 0.0
C50 C 0.39804 0.85191 0.69746 0.0
C51 C 0.40109 0.80447 0.65943 0.0
C52 C 0.38249 0.77782 0.65673 0.0
C53 C 0.43431 0.80206 0.64714 0.0
C54 C 0.44814 0.77396 0.63145 0.0
C55 C 0.42925 0.74747 0.62826 0.0
C56 C 0.30673 0.89316 0.65035 0.0
C57 C 0.27899 0.90953 0.66676 0.0
C58 C 0.30419 0.88965 0.61712 0.0
C59 C 0.27448 0.901 0.60097 0.0
C60 C 0.24652 0.91666 0.61742 0.0
C61 C 0.2493 0.92127 0.65046 0.0
C62 C 0.39649 0.74959 0.64161 0.0
H63 H 0.40311 0.97387 0.76474 0.0
H64 H 0.38298 0.9463 0.71854 0.0
H65 H 0.41152 0.85507 0.76336 0.0
H66 H 0.43338 0.88265 0.80895 0.0
H67 H 0.33862 0.91717 0.70185 0.0
H68 H 0.42146 0.84158 0.70836 0.0
H69 H 0.34375 0.83625 0.63802 0.0
H70 H 0.35676 0.77907 0.66585 0.0
H71 H 0.44907 0.82235 0.6486 0.0
H72 H 0.47353 0.77299 0.62162 0.0
H73 H 0.27977 0.91251 0.69232 0.0
H74 H 0.32524 0.87802 0.60342 0.0
H75 H 0.38118 0.72976 0.63941 0.0
H76 H 0.22812 0.93311 0.66384 0.0
H77 H 0.27342 0.89761 0.57545 0.0
C78 C 0.72604 0.50479 0.97911 0.0
C79 C 0.75205 0.48208 0.98987 0.0
C80 C 0.69242 0.49743 0.97819 0.0
C81 C 0.68425 0.46697 0.98744 0.0
C82 C 0.71038 0.44459 0.99894 0.0
C83 C 0.74384 0.45219 1.00038 0.0
C84 C 0.64946 0.45741 0.98229 0.0
C85 C 0.63171 0.46667 0.95428 0.0
C86 C 0.60117 0.45424 0.94653 0.0
C87 C 0.58808 0.43282 0.96749 0.0
C88 C 0.60623 0.42178 0.99465 0.0
C89 C 0.63604 0.43544 1.0027 0.0
C90 C 0.59843 0.39102 1.009 0.0
C91 C 0.56485 0.38283 1.00951 0.0
C92 C 0.62512 0.36681 1.01474 0.0
C93 C 0.61877 0.33478 1.01621 0.0
C94 C 0.58575 0.3262 1.01134 0.0
C95 C 0.58591 0.45944 0.9144 0.0
C96 C 0.58611 0.48903 0.89889 0.0
C97 C 0.57324 0.4338 0.89801 0.0
C98 C 0.56158 0.43747 0.86689 0.0
C99 C 0.56302 0.46658 0.85116 0.0
C100 C 0.57504 0.49247 0.86741 0.0
C101 C 0.55857 0.35068 1.01014 0.0
H102 H 0.73178 0.52816 0.97122 0.0
H103 H 0.67291 0.51541 0.96965 0.0
H104 H 0.70539 0.42064 1.00557 0.0
H105 H 0.76356 0.43418 1.00852 0.0
H106 H 0.64311 0.48152 0.93722 0.0
H107 H 0.64983 0.42747 0.02393 0.0
H108 H 0.56514 0.42247 0.96093 0.0
H109 H 0.54356 0.401 1.00627 0.0
H110 H 0.65136 0.37197 1.01484 0.0
H111 H 0.64016 0.31658 0.01864 0.0
H112 H 0.59538 0.50933 0.91085 0.0
H113 H 0.57362 0.41032 0.90862 0.0
H114 H 0.53269 0.34516 1.00685 0.0
H115 H 0.57628 0.51519 0.8556 0.0
H116 H 0.55295 0.41704 0.85459 0.0
C117 C 0.91463 0.58778 0.33788 0.0
C118 C 0.9493 0.58048 0.33106 0.0
C119 C 0.90311 0.58819 0.36915 0.0
C120 C 0.92606 0.58145 0.39431 0.0
C121 C 0.96066 0.57313 0.38746 0.0
C122 C 0.97217 0.57242 0.356 0.0
C123 C 0.91413 0.58733 0.42738 0.0
C124 C 0.88265 0.57822 0.43689 0.0
C125 C 0.86641 0.59131 0.46444 0.0
C126 C 0.88332 0.61206 0.48377 0.0
C127 C 0.91542 0.62069 0.47497 0.0
C128 C 0.93082 0.60771 0.44701 0.0
C129 C 0.92962 0.64834 0.49022 0.0
C130 C 0.90835 0.6769 0.49551 0.0
C131 C 0.96501 0.6486 0.49352 0.0
C132 C 0.97895 0.67748 0.49861 0.0
C133 C 0.95767 0.70641 0.50046 0.0
C134 C 0.83014 0.58692 0.4703 0.0
C135 C 0.80732 0.58719 0.44461 0.0
C136 C 0.81766 0.58374 0.50126 0.0
C137 C 0.7832 0.58066 0.50633 0.0
C138 C 0.76053 0.58055 0.48052 0.0
C139 C 0.7731 0.58379 0.44963 0.0
C140 C 0.92227 0.70565 0.50059 0.0
H141 H 0.89643 0.59359 0.319 0.0
H142 H 0.87639 0.59525 0.37369 0.0
H143 H 0.97884 0.56795 0.40647 0.0
H144 H 0.99904 0.56662 0.35125 0.0
H145 H 0.86986 0.56238 0.42162 0.0
H146 H 0.95413 0.61627 0.43865 0.0
H147 H 0.87055 0.62332 0.50439 0.0
H148 H 0.88104 0.67766 0.49293 0.0
H149 H 0.98196 0.62685 0.48987 0.0
H150 H 1.00634 0.67746 0.4986 0.0
H151 H 0.81574 0.59046 0.42047 0.0
H152 H 0.83452 0.58348 0.52156 0.0
H153 H 0.90534 0.72766 0.50251 0.0
H154 H 0.75658 0.58335 0.42914 0.0
H155 H 0.77431 0.57863 0.5305 0.0
C156 C 0.92085 0.87763 0.72843 0.0
C157 C 0.91652 0.91087 0.72226 0.0
C158 C 0.90982 0.86524 0.75712 0.0
C159 C 0.89445 0.88563 0.78097 0.0
C160 C 0.891 0.91893 0.77517 0.0
C161 C 0.90158 0.93128 0.7463 0.0
C162 C 0.88133 0.8724 0.81133 0.0
C163 C 0.89742 0.84415 0.82535 0.0
C164 C 0.885 0.83197 0.85381 0.0
C165 C 0.85605 0.84837 0.86827 0.0
C166 C 0.8393 0.8763 0.85473 0.0
C167 C 0.85209 0.88796 0.82632 0.0
C168 C 0.8082 0.89321 0.87006 0.0
C169 C 0.78252 0.8759 0.88218 0.0
C170 C 0.80381 0.92687 0.87246 0.0
C171 C 0.77451 0.9428 0.88643 0.0
C172 C 0.74855 0.92557 0.89823 0.0
C173 C 0.90176 0.80186 0.86844 0.0
C174 C 0.90964 0.77402 0.84998 0.0
C175 C 0.90874 0.80033 0.90124 0.0
C176 C 0.92329 0.77176 0.91519 0.0
C177 C 0.93085 0.74361 0.89686 0.0
C178 C 0.92365 0.7453 0.86398 0.0
C179 C 0.75308 0.89185 0.89598 0.0
H180 H 0.93285 0.86092 0.71107 0.0
H181 H 0.91282 0.83949 0.76023 0.0
H182 H 0.88005 0.93573 0.79296 0.0
H183 H 0.89733 0.95692 0.74274 0.0
H184 H 0.92014 0.83192 0.81464 0.0
H185 H 0.83845 0.90881 0.81539 0.0
H186 H 0.84638 0.8392 0.89011 0.0
H187 H 0.78482 0.84999 0.88038 0.0
H188 H 0.82327 0.94095 0.86383 0.0
H189 H 0.77241 0.9687 0.88823 0.0
H190 H 0.90412 0.77419 0.82475 0.0
H191 H 0.90323 0.82142 0.91614 0.0
H192 H 0.73355 0.87768 0.90426 0.0
H193 H 0.92818 0.72426 0.84892 0.0
H194 H 0.92892 0.77198 0.94036 0.0
C195 C 0.638 0.12246 0.23526 0.0
C196 C 0.6037 0.11656 0.23342 0.0
C197 C 0.65031 0.13786 0.26195 0.0
C198 C 0.62855 0.14824 0.28733 0.0
C199 C 0.5941 0.14292 0.2852 0.0
C200 C 0.5819 0.12709 0.25873 0.0
C201 C 0.64195 0.16371 0.31624 0.0
C202 C 0.67243 0.15033 0.33057 0.0
C203 C 0.68532 0.16445 0.35784 0.0
C204 C 0.66718 0.19202 0.37104 0.0
C205 C 0.63675 0.20583 0.35734 0.0
C206 C 0.62434 0.19163 0.32981 0.0
C207 C 0.61864 0.23534 0.37202 0.0
C208 C 0.61175 0.23658 0.40482 0.0
C209 C 0.6103 0.2631 0.35397 0.0
C210 C 0.5964 0.29174 0.36859 0.0
C211 C 0.58989 0.29327 0.40161 0.0
C212 C 0.71779 0.15079 0.37283 0.0
C213 C 0.72383 0.11794 0.37978 0.0
C214 C 0.74245 0.17098 0.38151 0.0
C215 C 0.7721 0.15883 0.39733 0.0
C216 C 0.77783 0.12614 0.40533 0.0
C217 C 0.7534 0.10578 0.39599 0.0
C218 C 0.59732 0.26499 0.41935 0.0
H219 H 0.65554 0.11455 0.21633 0.0
H220 H 0.67693 0.14176 0.26268 0.0
H221 H 0.57668 0.1504 0.30436 0.0
H222 H 0.55528 0.12319 0.258 0.0
H223 H 0.68619 0.12891 0.32047 0.0
H224 H 0.60099 0.20229 0.31901 0.0
H225 H 0.67688 0.20292 0.39214 0.0
H226 H 0.61767 0.21547 0.41931 0.0
H227 H 0.61572 0.26298 0.32873 0.0
H228 H 0.59168 0.31289 0.35399 0.0
H229 H 0.70517 0.10182 0.3736 0.0
H230 H 0.73879 0.19632 0.37604 0.0
H231 H 0.592 0.26466 0.44457 0.0
H232 H 0.7566 0.08056 0.40194 0.0
H233 H 0.79058 0.17519 0.40326 0.0
C234 C 0.279 0.60825 0.05793 0.0
C235 C 0.26867 0.57794 0.0511 0.0
C236 C 0.31302 0.61158 0.06438 0.0
C237 C 0.33745 0.58465 0.0642 0.0
C238 C 0.32736 0.55452 0.05606 0.0
C239 C 0.29327 0.55121 0.04942 0.0
C240 C 0.37228 0.5877 0.07599 0.0
C241 C 0.38606 0.56701 0.09997 0.0
C242 C 0.41576 0.57327 0.116 0.0
C243 C 0.43236 0.59969 0.10719 0.0
C244 C 0.41834 0.62112 0.08418 0.0
C245 C 0.38898 0.61447 0.06783 0.0
C246 C 0.42951 0.65357 0.08287 0.0
C247 C 0.43091 0.67127 0.11125 0.0
C248 C 0.4362 0.66797 0.05385 0.0
C249 C 0.44409 0.69973 0.05332 0.0
C250 C 0.44457 0.71752 0.08173 0.0
C251 C 0.42453 0.55835 0.14698 0.0
C252 C 0.40024 0.56167 0.17137 0.0
C253 C 0.4583 0.54717 0.1543 0.0
C254 C 0.46798 0.54114 0.18585 0.0
C255 C 0.44417 0.54694 0.21067 0.0
C256 C 0.40996 0.55633 0.20286 0.0
C257 C 0.43823 0.70296 0.11066 0.0
H258 H 0.2606 0.62929 0.05908 0.0
H259 H 0.31985 0.63505 0.07104 0.0
H260 H 0.34568 0.53339 0.05574 0.0
H261 H 0.28595 0.52753 0.04436 0.0
H262 H 0.37214 0.5477 0.10814 0.0
H263 H 0.37753 0.63159 0.05074 0.0
H264 H 0.45414 0.60566 0.1208 0.0
H265 H 0.42522 0.66091 0.1339 0.0
H266 H 0.43499 0.6548 0.0317 0.0
H267 H 0.44875 0.71069 0.03072 0.0
H268 H 0.37417 0.57099 0.16641 0.0
H269 H 0.47748 0.54465 0.1358 0.0
H270 H 0.4386 0.71625 0.13283 0.0
H271 H 0.39088 0.56168 0.22111 0.0
H272 H 0.49435 0.53314 0.19082 0.0
C273 C 0.09026 0.34105 0.59777 0.0
C274 C 0.08147 0.32633 0.56938 0.0
C275 C 0.09777 0.37271 0.59781 0.0
C276 C 0.09687 0.3902 0.56942 0.0
C277 C 0.08825 0.37553 0.5409 0.0
C278 C 0.08024 0.34383 0.54093 0.0
C279 C 0.10595 0.42341 0.57013 0.0
C280 C 0.13364 0.43169 0.5525 0.0
C281 C 0.14738 0.46067 0.55863 0.0
C282 C 0.13148 0.48235 0.58112 0.0
C283 C 0.10375 0.47421 0.59921 0.0
C284 C 0.0909 0.44484 0.5929 0.0
C285 C 0.09275 0.49213 0.62887 0.0
C286 C 0.11683 0.50517 0.64828 0.0
C287 C 0.05981 0.49074 0.64107 0.0
C288 C 0.05295 0.4969 0.6732 0.0
C289 C 0.07844 0.50611 0.6936 0.0
C290 C 0.18177 0.46537 0.54665 0.0
C291 C 0.20795 0.43997 0.54835 0.0
C292 C 0.18974 0.49572 0.53704 0.0
C293 C 0.22341 0.50078 0.53043 0.0
C294 C 0.24968 0.47564 0.53358 0.0
C295 C 0.24148 0.44505 0.54187 0.0
C296 C 0.10949 0.51268 0.68007 0.0
H297 H 0.09123 0.32806 0.61999 0.0
H298 H 0.10482 0.38342 0.62004 0.0
H299 H 0.08757 0.38862 0.51876 0.0
H300 H 0.07375 0.33277 0.51872 0.0
H301 H 0.14621 0.4144 0.53591 0.0
H302 H 0.07088 0.43703 0.60758 0.0
H303 H 0.14251 0.50434 0.58635 0.0
H304 H 0.14242 0.50713 0.64002 0.0
H305 H 0.04004 0.48222 0.62647 0.0
H306 H 0.02846 0.49194 0.6822 0.0
H307 H 0.20285 0.41641 0.55621 0.0
H308 H 0.17009 0.51571 0.53548 0.0
H309 H 0.12919 0.52153 0.69449 0.0
H310 H 0.26116 0.42515 0.54408 0.0
H311 H 0.22905 0.52466 0.52415 0.0
C312 C 0.04064 0.03537 0.45395 0.0
N313 N 0.01617 0.08789 0.53738 0.0
C314 C 0.04675 0.09922 0.53293 0.0
C315 C 0.05076 0.13108 0.53968 0.0
C316 C 0.02297 0.15164 0.55085 0.0
C317 C 0.99182 0.13928 0.55594 0.0
C318 C 0.989 0.107 0.54913 0.0
Zn319 Zn 0.01172 0.04275 0.52149 0.0
C320 C 0.94784 0.0392 0.48493 0.0
N321 N 1.00542 0.94885 0.48528 0.0
C322 C 0.03272 0.92805 0.4766 0.0
C323 C 0.97375 0.93917 0.4873 0.0
C324 C 0.96856 0.90756 0.48079 0.0
C325 C 0.99631 0.88539 0.47292 0.0
C326 C 0.02875 0.89578 0.47061 0.0
Zn327 Zn 0.01034 0.99422 0.50097 0.0
O328 O 0.03458 0.05483 0.47711 0.0
C329 C 0.07425 0.99823 0.53774 0.0
O330 O 0.0337 1.00656 0.4571 0.0
H331 H 0.95253 0.95563 0.49526 0.0
H332 H 0.06784 0.08381 0.52303 0.0
H333 H 0.05773 0.93617 0.47539 0.0
O334 O 0.06033 0.0268 0.5411 0.0
O335 O 0.0591 0.97855 0.52126 0.0
H336 H 0.9649 0.09745 0.55234 0.0
O337 O 0.98681 0.98229 0.54507 0.0
O338 O 0.98901 0.03019 0.5655 0.0
O339 O 0.9619 1.0108 0.48073 0.0
O340 O 0.96287 0.05841 0.50204 0.0
C341 C 0.98139 1.00159 0.56844 0.0
H342 H 0.07504 0.13983 0.53492 0.0
H343 H 0.96988 0.15447 0.56466 0.0
H344 H 0.94328 0.90015 0.48336 0.0
H345 H 0.0507 0.87909 0.46471 0.0
C346 C 0.57666 0.99434 0.98916 0.0
N347 N 0.52435 0.08646 0.97968 0.0
C348 C 0.55562 0.09648 0.98393 0.0
C349 C 0.55993 0.1289 0.98216 0.0
C350 C 0.53175 0.1513 0.97613 0.0
C351 C 0.50041 0.14004 0.96894 0.0
C352 C 0.49727 0.10722 0.97077 0.0
Zn353 Zn 0.51733 0.04312 0.99866 0.0
C354 C 0.48315 0.99966 0.95789 0.0
N355 N 0.50416 0.95706 0.04666 0.0
C356 C 0.53115 0.9386 0.0593 0.0
C357 C 0.47342 0.94576 0.04306 0.0
C358 C 0.46933 0.91423 0.0509 0.0
C359 C 0.49723 0.89407 0.06226 0.0
C360 C 0.52826 0.90672 0.06717 0.0
Zn361 Zn 0.51062 0.99986 0.02673 0.0
O362 O 0.56524 0.02232 0.9802 0.0
C363 C 0.54484 0.04325 0.06743 0.0
O364 O 0.55926 0.97988 1.00877 0.0
H365 H 0.45248 0.9607 0.03253 0.0
H366 H 0.57666 0.0798 0.99169 0.0
H367 H 0.55535 0.94813 0.06191 0.0
O368 O 0.54164 0.05835 0.0413 0.0
O369 O 0.53382 0.01591 0.06922 0.0
H370 H 0.47259 0.09875 0.96761 0.0
O371 O 0.46246 0.02015 0.04467 0.0
O372 O 0.46895 0.06329 0.01739 0.0
O373 O 0.48708 0.98422 0.98384 0.0
O374 O 0.49331 0.02744 0.95636 0.0
C375 C 0.45134 0.04845 0.03649 0.0
H376 H 0.58446 0.13648 0.98824 0.0
H377 H 0.47818 0.15655 0.96376 0.0
H378 H 0.44509 0.90523 0.04642 0.0
H379 H 0.55024 0.8919 0.07614 0.0
C380 C 0.53481 0.45109 0.50772 0.0
N381 N 0.53302 0.49071 0.59971 0.0
C382 C 0.52494 0.46382 0.61456 0.0
C383 C 0.5337 0.45859 0.64647 0.0
C384 C 0.55102 0.48121 0.66292 0.0
C385 C 0.5594 0.50838 0.64675 0.0
C386 C 0.5501 0.51269 0.61513 0.0
Zn387 Zn 0.5185 0.50193 0.55447 0.0
C388 C 0.57646 0.52994 0.52075 0.0
N389 N 0.49079 0.5334 0.46174 0.0
C390 C 0.4731 0.51091 0.44788 0.0
C391 C 0.49838 0.55962 0.4454 0.0
C392 C 0.48812 0.56371 0.41364 0.0
C393 C 0.46986 0.54062 0.39896 0.0
C394 C 0.46244 0.51404 0.41658 0.0
Zn395 Zn 0.50606 0.5227 0.50709 0.0
O396 O 0.53658 0.45526 0.53762 0.0
C397 C 0.44798 0.49487 0.54093 0.0
O398 O 0.52305 0.47455 0.49054 0.0
H399 H 0.51266 0.57709 0.45684 0.0
H400 H 0.51126 0.44674 0.60182 0.0
H401 H 0.46766 0.48996 0.46093 0.0
O402 O 0.46976 0.48715 0.56247 0.0
O403 O 0.45688 0.50958 0.51658 0.0
H404 H 0.55593 0.53412 0.60308 0.0
O405 O 0.48965 0.57052 0.52432 0.0
O406 O 0.49986 0.54879 0.57106 0.0
O407 O 0.55514 0.53618 0.49846 0.0
O408 O 0.56726 0.51649 0.54578 0.0
C409 C 0.48955 0.57315 0.55451 0.0
H410 H 0.52693 0.43722 0.65815 0.0
H411 H 0.57213 0.52671 0.65869 0.0
H412 H 0.49431 0.5846 0.40078 0.0
H413 H 0.44918 0.49527 0.40605 0.0
C414 C 0.99244 0.58339 0.9956 0.0
N415 N 1.00505 0.54034 0.08606 0.0
C416 C 0.0156 0.56741 0.09904 0.0
C417 C 0.01425 0.57222 0.13198 0.0
C418 C 1.00248 0.54864 0.1514 0.0
C419 C 0.99116 0.52138 0.13728 0.0
C420 C 0.99247 0.51779 0.10444 0.0
Zn421 Zn 0.01089 0.5295 0.03913 0.0
C422 C 0.94755 0.50668 1.01247 0.0
N423 N 0.02376 0.50148 0.94256 0.0
C424 C 0.04405 0.5204 0.92688 0.0
C425 C 1.00634 0.48005 0.92662 0.0
C426 C 0.0086 0.47761 0.89343 0.0
C427 C 0.02943 0.49701 0.877 0.0
C428 C 0.04756 0.51827 0.8941 0.0
Zn429 Zn 0.01704 0.51167 0.98979 0.0
O430 O 0.99173 0.57746 0.02524 0.0
C431 C 0.08051 0.53427 0.01735 0.0
O432 O 1.00301 0.56082 0.97657 0.0
H433 H 0.98996 0.46557 0.93947 0.0
H434 H 0.02568 0.5849 0.08393 0.0
H435 H 0.05667 0.53821 0.93957 0.0
O436 O 0.06078 0.54265 0.04041 0.0
O437 O 0.06905 0.51995 0.99364 0.0
H438 H 0.98404 0.49653 0.09369 0.0
O439 O 0.03088 0.46238 1.00355 0.0
O440 O 0.03017 0.48153 0.05215 0.0
O441 O 0.96507 0.50342 0.98711 0.0
O442 O 0.96097 0.5162 0.03774 0.0
C443 C 0.03557 0.45775 0.03323 0.0
H444 H 0.02302 0.59364 0.14221 0.0
H445 H 0.98129 0.50304 0.15152 0.0
H446 H 0.9942 0.46099 0.88076 0.0
H447 H 0.0634 0.53397 0.88208 0.0
H448 H 0.08196 0.06816 0.31283 0.0
H449 H 0.10567 0.15507 0.35974 0.0
H450 H 0.08791 0.13479 0.41037 0.0
H451 H 0.06544 0.0926 0.442 0.0
H452 H 0.04487 1.00436 0.39616 0.0
H453 H 0.06249 0.02463 0.34504 0.0
C454 C 0.08375 0.08265 0.33406 0.0
C455 C 0.09491 0.11355 0.33178 0.0
C456 C 0.07421 0.07047 0.36366 0.0
C457 C 0.0964 0.13171 0.36001 0.0
C458 C 0.08655 0.11995 0.3893 0.0
C459 C 0.06495 0.07766 0.42088 0.0
C460 C 0.0537 0.04691 0.42314 0.0
C461 C 0.0753 0.08943 0.39145 0.0
C462 C 0.05345 0.02802 0.39536 0.0
C463 C 0.06343 0.03968 0.36599 0.0
H464 H 0.41692 0.91502 0.85414 0.0
H465 H 0.45285 0.98535 0.79165 0.0
H466 H 0.47363 1.01372 0.83727 0.0
H467 H 0.48316 0.01813 0.89522 0.0
H468 H 0.44925 0.94634 0.95717 0.0
H469 H 0.42667 0.91915 0.91169 0.0
C470 C 0.42958 0.93636 0.85034 0.0
C471 C 0.43306 0.94785 0.81916 0.0
C472 C 0.44198 0.95249 0.87678 0.0
C473 C 0.44914 0.976 0.81517 0.0
C474 C 0.46131 0.99223 0.84134 0.0
C475 C 0.47062 0.99667 0.89881 0.0
C476 C 0.46796 0.98446 0.92979 0.0
C477 C 0.45795 0.98072 0.87231 0.0
C478 C 0.45181 0.9564 0.93375 0.0
C479 C 0.43885 0.94073 0.90767 0.0
H480 H 0.60335 0.48384 0.80425 0.0
H481 H 0.50472 0.45287 0.82204 0.0
H482 H 0.49264 0.45331 0.76487 0.0
H483 H 0.51022 0.46311 0.71 0.0
H484 H 0.61004 0.49196 0.69253 0.0
H485 H 0.6217 0.49168 0.74948 0.0
C486 C 0.57909 0.47758 0.79552 0.0
C487 C 0.55473 0.46878 0.81705 0.0
C488 C 0.57271 0.47724 0.76279 0.0
C489 C 0.52367 0.45992 0.80567 0.0
C490 C 0.51686 0.46007 0.7731 0.0
C491 C 0.53471 0.46882 0.71866 0.0
C492 C 0.55916 0.47768 0.69714 0.0
C493 C 0.54126 0.46858 0.75143 0.0
C494 C 0.59064 0.48544 0.7087 0.0
C495 C 0.59734 0.48528 0.74122 0.0
H496 H 0.99053 0.53522 0.29945 0.0
H497 H 0.93437 0.6284 0.28851 0.0
H498 H 0.94912 0.62834 0.2321 0.0
H499 H 0.97368 0.59961 0.18502 0.0
H500 H 0.02749 0.50536 0.19549 0.0
H501 H 0.01847 0.50809 0.253 0.0
C502 C 0.98206 0.55568 0.28475 0.0
C503 C 0.96122 0.58162 0.29787 0.0
C504 C 0.9901 0.55521 0.25228 0.0
C505 C 0.95009 0.60796 0.27867 0.0
C506 C 0.95857 0.60798 0.2465 0.0
C507 C 0.98396 0.58001 0.20007 0.0
C508 C 1.00105 0.55232 0.18628 0.0
C509 C 0.97792 0.58143 0.23291 0.0
C510 C 0.01399 0.52682 0.20577 0.0
C511 C 0.00883 0.52835 0.23856 0.0
H512 H 0.31859 0.13562 0.08076 0.0
H513 H 0.31428 0.05779 0.14666 0.0
H514 H 0.36578 0.02986 0.12327 0.0
H515 H 0.41249 0.02753 0.08429 0.0
H516 H 0.41725 0.10576 0.01888 0.0
H517 H 0.36512 0.13315 0.04156 0.0
C518 C 0.32873 0.11242 0.08985 0.0
C519 C 0.31245 0.09894 0.11555 0.0
C520 C 0.35852 0.09644 0.07629 0.0
C521 C 0.32639 0.06901 0.12722 0.0
C522 C 0.3558 0.05289 0.11372 0.0
C523 C 0.40206 0.05049 0.07486 0.0
C524 C 0.41888 0.06443 0.04979 0.0
C525 C 0.37216 0.06638 0.08828 0.0
C526 C 0.40497 0.09436 0.03811 0.0
C527 C 0.3751 0.11011 0.05111 0.0
H528 H 0.20767 0.9745 0.62157 0.0
H529 H 0.21334 0.8826 0.57414 0.0
H530 H 0.16113 0.89957 0.54501 0.0
H531 H 0.1134 0.94044 0.53315 0.0
H532 H 0.10853 0.03286 0.57977 0.0
H533 H 0.16059 0.01581 0.60885 0.0
C534 C 0.19735 0.95816 0.60498 0.0
C535 C 0.21443 0.92731 0.60009 0.0
C536 C 0.1674 0.9682 0.58802 0.0
C537 C 0.2009 0.90657 0.57818 0.0
C538 C 0.17096 0.91622 0.56156 0.0
C539 C 0.12377 0.95691 0.54958 0.0
C540 C 0.10689 0.98791 0.55419 0.0
C541 C 0.15397 0.947 0.56624 0.0
C542 C 0.12088 1.00888 0.5756 0.0
C543 C 0.15068 0.99913 0.59237 0.0
H544 H 0.79755 0.47584 0.038 0.0
H545 H 0.78662 0.50335 0.93972 0.0
H546 H 0.84679 0.51212 0.93742 0.0
H547 H 0.90262 0.51166 0.96352 0.0
H548 H 0.91234 0.4872 0.06277 0.0
H549 H 0.85266 0.47722 0.06455 0.0
C550 C 0.80845 0.48376 1.01614 0.0
C551 C 0.78792 0.48891 0.98907 0.0
C552 C 0.84283 0.4891 1.01515 0.0
C553 C 0.80204 0.49949 0.96091 0.0
C554 C 0.83641 0.50432 0.95955 0.0
C555 C 0.89164 0.50396 0.98543 0.0
C556 C 0.91177 0.49993 1.0129 0.0
C557 C 0.85708 0.49909 0.9865 0.0
C558 C 0.89724 0.49045 0.04132 0.0
C559 C 0.86316 0.48475 0.04237 0.0
H560 H 0.73371 0.54161 0.52306 0.0
H561 H 0.70519 0.61001 0.44899 0.0
H562 H 0.64585 0.60001 0.45436 0.0
H563 H 0.60205 0.57104 0.47948 0.0
H564 H 0.63063 0.50507 0.55558 0.0
H565 H 0.68979 0.51543 0.55036 0.0
C566 C 0.71451 0.5548 0.50845 0.0
C567 C 0.72407 0.57631 0.48548 0.0
C568 C 0.68036 0.54934 0.51196 0.0
C569 C 0.69874 0.59279 0.46645 0.0
C570 C 0.66472 0.58725 0.46961 0.0
C571 C 0.62126 0.55898 0.49489 0.0
C572 C 0.612 0.5372 0.51771 0.0
C573 C 0.65528 0.56533 0.49207 0.0
C574 C 0.63708 0.52198 0.53779 0.0
C575 C 0.67095 0.52784 0.53483 0.0
H576 H 0.07769 0.31195 0.07114 0.0
H577 H 0.10228 0.35782 0.15894 0.0
H578 H 0.08289 0.41033 0.13684 0.0
H579 H 0.05966 0.44349 0.0926 0.0
H580 H 0.0375 0.39885 1.0034 0.0
H581 H 0.05528 0.34586 0.02581 0.0
C582 C 0.07856 0.33348 0.08542 0.0
C583 C 0.09133 0.33092 0.11675 0.0
C584 C 0.06798 0.36388 0.07222 0.0
C585 C 0.0927 0.35909 0.1348 0.0
C586 C 0.08159 0.38915 0.12216 0.0
C587 C 0.05865 0.42221 0.07796 0.0
C588 C 0.04709 0.42532 0.04628 0.0
C589 C 0.06934 0.39188 0.09088 0.0
C590 C 0.04631 0.39733 0.02777 0.0
C591 C 0.05641 0.36696 0.04064 0.0
H592 H 0.5316 0.29324 0.02626 0.0
H593 H 0.62748 0.2837 0.97599 0.0
H594 H 0.61822 0.22988 0.95912 0.0
H595 H 0.58312 0.18536 0.95822 0.0
H596 H 0.48689 0.19456 1.00748 0.0
H597 H 0.49525 0.24925 0.0235 0.0
C598 C 0.55041 0.2795 1.01148 0.0
C599 C 0.58046 0.29255 1.00298 0.0
C600 C 0.54455 0.24869 1.00098 0.0
C601 C 0.60458 0.27412 0.98391 0.0
C602 C 0.59912 0.24341 0.97374 0.0
C603 C 0.56391 0.19939 0.97235 0.0
C604 C 0.53448 0.1859 0.98161 0.0
C605 C 0.56922 0.23048 0.98211 0.0
C606 C 0.50958 0.20453 0.99957 0.0
C607 C 0.51454 0.23566 1.00913 0.0
H608 H 0.93815 0.75315 0.4591 0.0
H609 H 0.00966 0.72853 0.53459 0.0
H610 H 0.0313 0.78107 0.52991 0.0
H611 H 0.02629 0.83558 0.5069 0.0
H612 H 0.9531 0.85973 0.43265 0.0
H613 H 0.93582 0.8055 0.4339 0.0
C614 C 0.95836 0.75939 0.47466 0.0
C615 C 0.97183 0.73749 0.49765 0.0
C616 C 0.97045 0.78936 0.47181 0.0
C617 C 0.99872 0.74529 0.51697 0.0
C618 C 0.01105 0.77523 0.51426 0.0
C619 C 1.00717 0.82857 0.49054 0.0
C620 C 0.99096 0.8513 0.46964 0.0
C621 C 0.99674 0.79763 0.49205 0.0
C622 C 0.96584 0.8424 0.44883 0.0
C623 C 0.95586 0.81156 0.44969 0.0
H624 H 0.42946 0.68526 0.64638 0.0
H625 H 0.45987 0.74354 0.5697 0.0
H626 H 0.48008 0.69519 0.53923 0.0
H627 H 0.48884 0.63568 0.53424 0.0
H628 H 0.46081 0.5784 0.61286 0.0
H629 H 0.43976 0.62666 0.64229 0.0
C630 C 0.44046 0.68738 0.62297 0.0
C631 C 0.44304 0.71801 0.61035 0.0
C632 C 0.45236 0.65949 0.60575 0.0
C633 C 0.45781 0.72028 0.58012 0.0
C634 C 0.4692 0.6926 0.56259 0.0
C635 C 0.47797 0.63385 0.55773 0.0
C636 C 0.47631 0.60336 0.57119 0.0
C637 C 0.46652 0.66199 0.57509 0.0
C638 C 0.46253 0.60147 0.60188 0.0
C639 C 0.45043 0.62911 0.61881 0.0
H640 H 0.94067 0.96908 0.70967 0.0
H641 H 0.91535 0.88263 0.66296 0.0
H642 H 0.93296 0.90275 0.61217 0.0
H643 H 0.95581 0.9447 0.58039 0.0
H644 H 0.978 0.03244 0.62624 0.0
H645 H 0.96045 1.01233 0.67742 0.0
C646 C 0.93847 0.95467 0.68844 0.0
C647 C 0.92689 0.92397 0.69079 0.0
C648 C 0.94793 0.96675 0.65881 0.0
C649 C 0.92491 0.90586 0.66259 0.0
C650 C 0.93469 0.91753 0.63323 0.0
C651 C 0.95666 0.95956 0.60153 0.0
C652 C 0.96835 0.99012 0.59925 0.0
C653 C 0.94636 0.94788 0.63101 0.0
C654 C 0.96907 1.00892 0.62705 0.0
C655 C 0.95914 0.99735 0.65645 0.0
H656 H 0.61512 0.12591 0.17015 0.0
H657 H 0.56317 0.06759 0.23402 0.0
H658 H 0.54182 0.03868 0.18881 0.0
H659 H 0.53699 0.0304 0.13073 0.0
H660 H 0.58677 0.09072 0.06705 0.0
H661 H 0.61003 0.11793 0.11228 0.0
C662 C 0.59931 0.10673 0.17418 0.0
C663 C 0.59082 0.09901 0.20555 0.0
C664 C 0.58673 0.0904 0.14798 0.0
C665 C 0.56988 0.07432 0.21021 0.0
C666 C 0.55777 0.05763 0.18432 0.0
C667 C 0.55318 0.0493 0.12677 0.0
C668 C 0.56023 0.05829 0.09542 0.0
C669 C 0.56592 0.0655 0.15304 0.0
C670 C 0.58089 0.08321 0.09083 0.0
C671 C 0.59421 0.09886 0.11674 0.0
H672 H 0.40878 0.52896 0.26204 0.0
H673 H 0.50407 0.56336 0.236 0.0
H674 H 0.52018 0.56513 0.29182 0.0
H675 H 0.50685 0.55765 0.34833 0.0
H676 H 0.40913 0.52836 0.37383 0.0
H677 H 0.39387 0.52518 0.3179 0.0
C678 C 0.43291 0.5373 0.26841 0.0
C679 C 0.45508 0.54591 0.24457 0.0
C680 C 0.44144 0.53965 0.30059 0.0
C681 C 0.48665 0.55584 0.25359 0.0
C682 C 0.49575 0.55735 0.28562 0.0
C683 C 0.482 0.55115 0.34163 0.0
C684 C 0.45931 0.54297 0.36519 0.0
C685 C 0.47323 0.54955 0.30934 0.0
C686 C 0.4273 0.53427 0.35612 0.0
C687 C 0.41853 0.53243 0.32416 0.0
H688 H 0.01976 0.51708 0.72929 0.0
H689 H 0.12814 0.49049 0.73797 0.0
H690 H 0.12215 0.48491 0.79478 0.0
H691 H 0.08651 0.48641 0.8423 0.0
H692 H 0.97796 0.50769 0.83404 0.0
H693 H 0.98349 0.51466 0.77645 0.0
C694 C 0.04212 0.50968 0.74335 0.0
C695 C 0.07444 0.50481 0.72886 0.0
C696 C 0.03842 0.50479 0.77612 0.0
C697 C 0.103 0.49569 0.74809 0.0
C698 C 0.09962 0.49185 0.78073 0.0
C699 C 0.06409 0.49221 0.82772 0.0
C700 C 0.03193 0.49649 0.84206 0.0
C701 C 0.0675 0.49616 0.79493 0.0
C702 C 1.00293 0.50394 0.82322 0.0
C703 C 1.00615 0.50825 0.79046 0.0
H704 H 0.71129 0.90778 0.94902 0.0
H705 H 0.71368 0.98228 0.87898 0.0
H706 H 0.66212 1.01059 0.90156 0.0
H707 H 0.61529 1.01391 0.94047 0.0
H708 H 0.61154 0.93825 1.009 0.0
H709 H 0.66417 0.91073 0.98748 0.0
C710 C 0.70044 0.93004 0.93843 0.0
C711 C 0.71676 0.94276 0.91228 0.0
C712 C 0.67031 0.94611 0.95127 0.0
C713 C 0.7023 0.97201 0.8994 0.0
C714 C 0.67254 0.9882 0.91218 0.0
C715 C 0.62604 0.99147 0.95081 0.0
C716 C 0.60934 0.97828 0.97641 0.0
C717 C 0.65626 0.97548 0.93808 0.0
C718 C 0.62369 0.94904 0.9893 0.0
C719 C 0.65386 0.93322 0.97699 0.0
H720 H 0.81624 0.06772 0.39976 0.0
H721 H 0.80927 0.15647 0.45327 0.0
H722 H 0.86067 0.13764 0.48233 0.0
H723 H 0.90829 0.09629 0.49243 0.0
H724 H 0.91398 1.00661 0.44072 0.0
H725 H 0.86219 0.02525 0.41182 0.0
C726 C 0.82561 0.08285 0.41804 0.0
C727 C 0.8088 0.11373 0.42384 0.0
C728 C 0.85507 0.07166 0.43521 0.0
C729 C 0.82188 0.13295 0.44752 0.0
C730 C 0.85124 0.12208 0.46446 0.0
C731 C 0.89814 0.08074 0.47495 0.0
C732 C 0.91521 0.0501 0.46877 0.0
C733 C 0.86819 0.09156 0.45839 0.0
C734 C 0.90148 0.03029 0.44607 0.0
C735 C 0.87184 0.04097 0.42941 0.0
H736 H 0.23822 0.54403 1.00593 0.0
H737 H 0.21719 0.60281 0.08966 0.0
H738 H 0.15704 0.59504 0.08626 0.0
H739 H 0.11073 0.57043 0.06044 0.0
H740 H 0.13126 0.512 0.97632 0.0
H741 H 0.19127 0.52066 0.979 0.0
C742 C 0.22041 0.55507 0.0234 0.0
C743 C 0.23207 0.57398 0.04796 0.0
C744 C 0.18583 0.55051 0.02131 0.0
C745 C 0.20873 0.58846 0.0703 0.0
C746 C 0.17439 0.58388 0.06849 0.0
C747 C 0.1283 0.55962 0.04266 0.0
C748 C 0.11657 0.54046 0.01835 0.0
C749 C 0.16269 0.56481 0.04422 0.0
C750 C 0.13964 0.52684 0.99533 0.0
C751 C 0.17398 0.53173 0.99685 0.0
H752 H 0.3021 0.4558 0.57263 0.0
H753 H 0.27788 0.50906 0.48675 0.0
H754 H 0.33735 0.51926 0.48137 0.0
H755 H 0.39577 0.5132 0.50118 0.0
H756 H 0.42012 0.46051 0.5875 0.0
H757 H 0.36085 0.44956 0.59241 0.0
C758 C 0.30994 0.46935 0.55255 0.0
C759 C 0.28573 0.48154 0.52999 0.0
C760 C 0.34405 0.47518 0.54972 0.0
C761 C 0.29605 0.49961 0.50447 0.0
C762 C 0.33002 0.50533 0.50135 0.0
C763 C 0.38822 0.49923 0.52107 0.0
C764 C 0.41237 0.48765 0.54395 0.0
C765 C 0.35417 0.49327 0.52386 0.0
C766 C 0.40205 0.46971 0.56959 0.0
C767 C 0.36818 0.46345 0.5724 0.0
H768 H 0.92158 0.72086 0.95758 0.0
H769 H 0.97568 0.6962 0.87003 0.0
H770 H 0.99872 0.64525 0.89252 0.0
H771 H 1.0035 0.60694 0.93666 0.0
H772 H 0.953 0.63255 0.02552 0.0
H773 H 0.92955 0.68397 1.00314 0.0
C774 C 0.9388 0.70471 0.94342 0.0
C775 C 0.94621 0.71274 0.91171 0.0
C776 C 0.95289 0.67542 0.95684 0.0
C777 C 0.96842 0.69079 0.89404 0.0
C778 C 0.98203 0.66156 0.90703 0.0
C779 C 0.98747 0.6238 0.95125 0.0
C780 C 0.97996 0.61566 0.98278 0.0
C781 C 0.9743 0.6535 0.93831 0.0
C782 C 0.95933 0.63806 1.00127 0.0
C783 C 0.94579 0.66749 0.9884 0.0
H784 H 0.49786 0.7438 0.05604 0.0
H785 H 0.404 0.76723 0.10723 0.0
H786 H 0.41295 0.82402 0.10741 0.0
H787 H 0.44675 0.86702 0.09183 0.0
H788 H 0.54104 0.84387 0.04115 0.0
H789 H 0.53313 0.78685 0.04252 0.0
C790 C 0.47943 0.76147 0.06709 0.0
C791 C 0.45028 0.75166 0.0814 0.0
C792 C 0.48499 0.79396 0.06748 0.0
C793 C 0.42666 0.77447 0.09611 0.0
C794 C 0.43175 0.80684 0.09622 0.0
C795 C 0.4656 0.84942 0.08122 0.0
C796 C 0.49434 0.85951 0.06636 0.0
C797 C 0.46075 0.81684 0.08187 0.0
C798 C 0.51886 0.83656 0.05303 0.0
C799 C 0.5142 0.80403 0.05353 0.0
H800 H 0.02653 0.30134 0.5449 0.0
H801 H 0.12062 0.27595 0.59487 0.0
H802 H 0.1095 0.21976 0.59567 0.0
H803 H 0.07406 0.17776 0.58058 0.0
H804 H 0.97997 0.20257 0.53042 0.0
H805 H 0.98956 0.25927 0.53188 0.0
C806 C 0.04455 0.28338 0.55582 0.0
C807 C 0.0744 0.29251 0.56961 0.0
C808 C 0.03784 0.25121 0.55643 0.0
C809 C 0.09743 0.26931 0.58418 0.0
C810 C 0.09111 0.23727 0.58463 0.0
C811 C 0.05561 0.19565 0.57009 0.0
C812 C 0.0265 0.18612 0.55527 0.0
C813 C 0.06152 0.22795 0.57066 0.0
C814 C 1.00246 0.20946 0.5422 0.0
C815 C 0.00809 0.24178 0.54276 0.0
H816 H 0.60268 0.31486 0.46201 0.0
H817 H 0.54513 0.34191 0.3773 0.0
H818 H 0.52397 0.39277 0.40214 0.0
H819 H 0.52146 0.42996 0.44792 0.0
H820 H 0.57569 0.40135 0.53384 0.0
H821 H 0.59759 0.35055 0.50875 0.0
C822 C 0.58507 0.33149 0.449 0.0
C823 C 0.57592 0.32417 0.41749 0.0
C824 C 0.57217 0.36059 0.46374 0.0
C825 C 0.55347 0.34677 0.40119 0.0
C826 C 0.54101 0.37592 0.41552 0.0
C827 C 0.53804 0.41259 0.46121 0.0
C828 C 0.54699 0.41964 0.49275 0.0
C829 C 0.55026 0.38316 0.44674 0.0
C830 C 0.56828 0.39665 0.5096 0.0
C831 C 0.58091 0.36757 0.49521 0.0
loop_
_geom_bond_atom_site_label_1
_geom_bond_atom_site_label_2
_geom_bond_distance
_geom_bond_site_symmetry_2
_ccdc_geom_bond_type
C0 C1 1.386 . S
C0 C2 1.397 . S
C0 H24 0.931 . S
C1 C0 1.386 . S
C1 C5 1.397 . S
C2 C0 1.397 . S
C2 C3 1.384 . S
C2 H25 0.930 . S
C3 C2 1.384 . S
C3 C4 1.377 . S
C3 C6 1.481 . S
C4 C3 1.377 . S
C4 C5 1.389 . S
C4 H26 0.929 . S
C5 C1 1.397 . S
C5 C4 1.389 . S
C5 H27 0.931 . S
C6 C3 1.481 . S
C6 C7 1.387 . S
C6 C11 1.390 . S
C7 C6 1.387 . S
C7 C8 1.401 . S
C7 H28 0.930 . S
C8 C7 1.401 . S
C8 C9 1.376 . S
C8 C17 1.511 . S
C9 C8 1.376 . S
C9 C10 1.392 . S
C9 H30 0.931 . S
C10 C9 1.392 . S
C10 C11 1.361 . S
C10 C12 1.500 . S
C11 C6 1.390 . S
C11 C10 1.361 . S
C11 H29 0.931 . S
C12 C10 1.500 . S
C12 C13 1.371 . S
C12 C14 1.365 . S
C13 C12 1.371 . S
C13 C23 1.386 . S
C13 H31 0.931 . S
C14 C12 1.365 . S
C14 C15 1.409 . S
C14 H32 0.929 . S
C15 C14 1.409 . S
C15 C16 1.380 . S
C15 H33 0.930 . S
C16 C15 1.380 . S
C16 C23 1.357 . S
C17 C8 1.511 . S
C17 C18 1.341 . S
C17 C19 1.371 . S
C18 C17 1.341 . S
C18 C22 1.394 . S
C18 H34 0.930 . S
C19 C17 1.371 . S
C19 C20 1.392 . S
C19 H35 0.931 . S
C20 C19 1.392 . S
C20 C21 1.331 . S
C20 H38 0.932 . S
C21 C20 1.331 . S
C21 C22 1.336 . S
C22 C18 1.394 . S
C22 C21 1.336 . S
C22 H37 0.929 . S
C23 C13 1.386 . S
C23 C16 1.357 . S
C23 H36 0.928 . S
H24 C0 0.931 . S
H25 C2 0.930 . S
H26 C4 0.929 . S
H27 C5 0.931 . S
H28 C7 0.930 . S
H29 C11 0.931 . S
H30 C9 0.931 . S
H31 C13 0.931 . S
H32 C14 0.929 . S
H33 C15 0.930 . S
H34 C18 0.930 . S
H35 C19 0.931 . S
H36 C23 0.928 . S
H37 C22 0.929 . S
H38 C20 0.932 . S
C39 C40 1.386 . S
C39 C41 1.397 . S
C39 H63 0.931 . S
C40 C39 1.386 . S
C40 C44 1.397 . S
C41 C39 1.397 . S
C41 C42 1.384 . S
C41 H64 0.930 . S
C42 C41 1.384 . S
C42 C43 1.377 . S
C42 C45 1.481 . S
C43 C42 1.377 . S
C43 C44 1.389 . S
C43 H65 0.929 . S
C44 C40 1.397 . S
C44 C43 1.389 . S
C44 H66 0.931 . S
C45 C42 1.481 . S
C45 C46 1.387 . S
C45 C50 1.390 . S
C46 C45 1.387 . S
C46 C47 1.401 . S
C46 H67 0.930 . S
C47 C46 1.401 . S
C47 C48 1.376 . S
C47 C56 1.511 . S
C48 C47 1.376 . S
C48 C49 1.392 . S
C48 H69 0.931 . S
C49 C48 1.392 . S
C49 C50 1.361 . S
C49 C51 1.500 . S
C50 C45 1.390 . S
C50 C49 1.361 . S
C50 H68 0.931 . S
C51 C49 1.500 . S
C51 C52 1.371 . S
C51 C53 1.365 . S
C52 C51 1.371 . S
C52 C62 1.386 . S
C52 H70 0.931 . S
C53 C51 1.365 . S
C53 C54 1.409 . S
C53 H71 0.929 . S
C54 C53 1.409 . S
C54 C55 1.380 . S
C54 H72 0.930 . S
C55 C54 1.380 . S
C55 C62 1.357 . S
C56 C47 1.511 . S
C56 C57 1.341 . S
C56 C58 1.371 . S
C57 C56 1.341 . S
C57 C61 1.394 . S
C57 H73 0.930 . S
C58 C56 1.371 . S
C58 C59 1.392 . S
C58 H74 0.931 . S
C59 C58 1.392 . S
C59 C60 1.331 . S
C59 H77 0.932 . S
C60 C59 1.331 . S
C60 C61 1.336 . S
C61 C57 1.394 . S
C61 C60 1.336 . S
C61 H76 0.929 . S
C62 C52 1.386 . S
C62 C55 1.357 . S
C62 H75 0.928 . S
H63 C39 0.931 . S
H64 C41 0.930 . S
H65 C43 0.929 . S
H66 C44 0.931 . S
H67 C46 0.930 . S
H68 C50 0.931 . S
H69 C48 0.931 . S
H70 C52 0.931 . S
H71 C53 0.929 . S
H72 C54 0.930 . S
H73 C57 0.930 . S
H74 C58 0.931 . S
H75 C62 0.928 . S
H76 C61 0.929 . S
H77 C59 0.932 . S
C78 C79 1.386 . S
C78 C80 1.397 . S
C78 H102 0.931 . S
C79 C78 1.386 . S
C79 C83 1.397 . S
C80 C78 1.397 . S
C80 C81 1.384 . S
C80 H103 0.930 . S
C81 C80 1.384 . S
C81 C82 1.377 . S
C81 C84 1.481 . S
C82 C81 1.377 . S
C82 C83 1.389 . S
C82 H104 0.929 . S
C83 C79 1.397 . S
C83 C82 1.389 . S
C83 H105 0.931 . S
C84 C81 1.481 . S
C84 C85 1.387 . S
C84 C89 1.390 . S
C85 C84 1.387 . S
C85 C86 1.401 . S
C85 H106 0.930 . S
C86 C85 1.401 . S
C86 C87 1.376 . S
C86 C95 1.511 . S
C87 C86 1.376 . S
C87 C88 1.392 . S
C87 H108 0.931 . S
C88 C87 1.392 . S
C88 C89 1.361 . S
C88 C90 1.500 . S
C89 C84 1.390 . S
C89 C88 1.361 . S
C89 H107 0.931 . S
C90 C88 1.500 . S
C90 C91 1.371 . S
C90 C92 1.365 . S
C91 C90 1.371 . S
C91 C101 1.386 . S
C91 H109 0.931 . S
C92 C90 1.365 . S
C92 C93 1.409 . S
C92 H110 0.929 . S
C93 C92 1.409 . S
C93 C94 1.380 . S
C93 H111 0.930 . S
C94 C93 1.380 . S
C94 C101 1.357 . S
C95 C86 1.511 . S
C95 C96 1.341 . S
C95 C97 1.371 . S
C96 C95 1.341 . S
C96 C100 1.394 . S
C96 H112 0.930 . S
C97 C95 1.371 . S
C97 C98 1.392 . S
C97 H113 0.931 . S
C98 C97 1.392 . S
C98 C99 1.331 . S
C98 H116 0.932 . S
C99 C98 1.331 . S
C99 C100 1.336 . S
C100 C96 1.394 . S
C100 C99 1.336 . S
C100 H115 0.929 . S
C101 C91 1.386 . S
C101 C94 1.357 . S
C101 H114 0.928 . S
H102 C78 0.931 . S
H103 C80 0.930 . S
H104 C82 0.929 . S
H105 C83 0.931 . S
H106 C85 0.930 . S
H107 C89 0.931 . S
H108 C87 0.931 . S
H109 C91 0.931 . S
H110 C92 0.929 . S
H111 C93 0.930 . S
H112 C96 0.930 . S
H113 C97 0.931 . S
H114 C101 0.928 . S
H115 C100 0.929 . S
H116 C98 0.932 . S
C117 C118 1.386 . S
C117 C119 1.397 . S
C117 H141 0.931 . S
C118 C117 1.386 . S
C118 C122 1.397 . S
C119 C117 1.397 . S
C119 C120 1.384 . S
C119 H142 0.930 . S
C120 C119 1.384 . S
C120 C121 1.377 . S
C120 C123 1.481 . S
C121 C120 1.377 . S
C121 C122 1.389 . S
C121 H143 0.929 . S
C122 C118 1.397 . S
C122 C121 1.389 . S
C122 H144 0.931 . S
C123 C120 1.481 . S
C123 C124 1.387 . S
C123 C128 1.390 . S
C124 C123 1.387 . S
C124 C125 1.401 . S
C124 H145 0.930 . S
C125 C124 1.401 . S
C125 C126 1.376 . S
C125 C134 1.511 . S
C126 C125 1.376 . S
C126 C127 1.392 . S
C126 H147 0.931 . S
C127 C126 1.392 . S
C127 C128 1.361 . S
C127 C129 1.500 . S
C128 C123 1.390 . S
C128 C127 1.361 . S
C128 H146 0.931 . S
C129 C127 1.500 . S
C129 C130 1.371 . S
C129 C131 1.365 . S
C130 C129 1.371 . S
C130 C140 1.386 . S
C130 H148 0.931 . S
C131 C129 1.365 . S
C131 C132 1.409 . S
C131 H149 0.929 . S
C132 C131 1.409 . S
C132 C133 1.380 . S
C132 H150 0.930 . S
C133 C132 1.380 . S
C133 C140 1.357 . S
C134 C125 1.511 . S
C134 C135 1.341 . S
C134 C136 1.371 . S
C135 C134 1.341 . S
C135 C139 1.394 . S
C135 H151 0.930 . S
C136 C134 1.371 . S
C136 C137 1.392 . S
C136 H152 0.931 . S
C137 C136 1.392 . S
C137 C138 1.331 . S
C137 H155 0.932 . S
C138 C137 1.331 . S
C138 C139 1.336 . S
C139 C135 1.394 . S
C139 C138 1.336 . S
C139 H154 0.929 . S
C140 C130 1.386 . S
C140 C133 1.357 . S
C140 H153 0.928 . S
H141 C117 0.931 . S
H142 C119 0.930 . S
H143 C121 0.929 . S
H144 C122 0.931 . S
H145 C124 0.930 . S
H146 C128 0.931 . S
H147 C126 0.931 . S
H148 C130 0.931 . S
H149 C131 0.929 . S
H150 C132 0.930 . S
H151 C135 0.930 . S
H152 C136 0.931 . S
H153 C140 0.928 . S
H154 C139 0.929 . S
H155 C137 0.932 . S
C156 C157 1.386 . S
C156 C158 1.397 . S
C156 H180 0.931 . S
C157 C156 1.386 . S
C157 C161 1.397 . S
C158 C156 1.397 . S
C158 C159 1.384 . S
C158 H181 0.930 . S
C159 C158 1.384 . S
C159 C160 1.377 . S
C159 C162 1.481 . S
C160 C159 1.377 . S
C160 C161 1.389 . S
C160 H182 0.929 . S
C161 C157 1.397 . S
C161 C160 1.389 . S
C161 H183 0.931 . S
C162 C159 1.481 . S
C162 C163 1.387 . S
C162 C167 1.390 . S
C163 C162 1.387 . S
C163 C164 1.401 . S
C163 H184 0.930 . S
C164 C163 1.401 . S
C164 C165 1.376 . S
C164 C173 1.511 . S
C165 C164 1.376 . S
C165 C166 1.392 . S
C165 H186 0.931 . S
C166 C165 1.392 . S
C166 C167 1.361 . S
C166 C168 1.500 . S
C167 C162 1.390 . S
C167 C166 1.361 . S
C167 H185 0.931 . S
C168 C166 1.500 . S
C168 C169 1.371 . S
C168 C170 1.365 . S
C169 C168 1.371 . S
C169 C179 1.386 . S
C169 H187 0.931 . S
C170 C168 1.365 . S
C170 C171 1.409 . S
C170 H188 0.929 . S
C171 C170 1.409 . S
C171 C172 1.380 . S
C171 H189 0.930 . S
C172 C171 1.380 . S
C172 C179 1.357 . S
C173 C164 1.511 . S
C173 C174 1.341 . S
C173 C175 1.371 . S
C174 C173 1.341 . S
C174 C178 1.394 . S
C174 H190 0.930 . S
C175 C173 1.371 . S
C175 C176 1.392 . S
C175 H191 0.931 . S
C176 C175 1.392 . S
C176 C177 1.331 . S
C176 H194 0.932 . S
C177 C176 1.331 . S
C177 C178 1.336 . S
C178 C174 1.394 . S
C178 C177 1.336 . S
C178 H193 0.929 . S
C179 C169 1.386 . S
C179 C172 1.357 . S
C179 H192 0.928 . S
H180 C156 0.931 . S
H181 C158 0.930 . S
H182 C160 0.929 . S
H183 C161 0.931 . S
H184 C163 0.930 . S
H185 C167 0.931 . S
H186 C165 0.931 . S
H187 C169 0.931 . S
H188 C170 0.929 . S
H189 C171 0.930 . S
H190 C174 0.930 . S
H191 C175 0.931 . S
H192 C179 0.928 . S
H193 C178 0.929 . S
H194 C176 0.932 . S
C195 C196 1.386 . S
C195 C197 1.397 . S
C195 H219 0.931 . S
C196 C195 1.386 . S
C196 C200 1.397 . S
C197 C195 1.397 . S
C197 C198 1.384 . S
C197 H220 0.930 . S
C198 C197 1.384 . S
C198 C199 1.377 . S
C198 C201 1.481 . S
C199 C198 1.377 . S
C199 C200 1.389 . S
C199 H221 0.929 . S
C200 C196 1.397 . S
C200 C199 1.389 . S
C200 H222 0.931 . S
C201 C198 1.481 . S
C201 C202 1.387 . S
C201 C206 1.390 . S
C202 C201 1.387 . S
C202 C203 1.401 . S
C202 H223 0.930 . S
C203 C202 1.401 . S
C203 C204 1.376 . S
C203 C212 1.511 . S
C204 C203 1.376 . S
C204 C205 1.392 . S
C204 H225 0.931 . S
C205 C204 1.392 . S
C205 C206 1.361 . S
C205 C207 1.500 . S
C206 C201 1.390 . S
C206 C205 1.361 . S
C206 H224 0.931 . S
C207 C205 1.500 . S
C207 C208 1.371 . S
C207 C209 1.365 . S
C208 C207 1.371 . S
C208 C218 1.386 . S
C208 H226 0.931 . S
C209 C207 1.365 . S
C209 C210 1.409 . S
C209 H227 0.929 . S
C210 C209 1.409 . S
C210 C211 1.380 . S
C210 H228 0.930 . S
C211 C210 1.380 . S
C211 C218 1.357 . S
C212 C203 1.511 . S
C212 C213 1.341 . S
C212 C214 1.371 . S
C213 C212 1.341 . S
C213 C217 1.394 . S
C213 H229 0.930 . S
C214 C212 1.371 . S
C214 C215 1.392 . S
C214 H230 0.931 . S
C215 C214 1.392 . S
C215 C216 1.331 . S
C215 H233 0.932 . S
C216 C215 1.331 . S
C216 C217 1.336 . S
C217 C213 1.394 . S
C217 C216 1.336 . S
C217 H232 0.929 . S
C218 C208 1.386 . S
C218 C211 1.357 . S
C218 H231 0.928 . S
H219 C195 0.931 . S
H220 C197 0.930 . S
H221 C199 0.929 . S
H222 C200 0.931 . S
H223 C202 0.930 . S
H224 C206 0.931 . S
H225 C204 0.931 . S
H226 C208 0.931 . S
H227 C209 0.929 . S
H228 C210 0.930 . S
H229 C213 0.930 . S
H230 C214 0.931 . S
H231 C218 0.928 . S
H232 C217 0.929 . S
H233 C215 0.932 . S
C234 C235 1.386 . S
C234 C236 1.397 . S
C234 H258 0.931 . S
C235 C234 1.386 . S
C235 C239 1.397 . S
C236 C234 1.397 . S
C236 C237 1.384 . S
C236 H259 0.930 . S
C237 C236 1.384 . S
C237 C238 1.377 . S
C237 C240 1.481 . S
C238 C237 1.377 . S
C238 C239 1.389 . S
C238 H260 0.929 . S
C239 C235 1.397 . S
C239 C238 1.389 . S
C239 H261 0.931 . S
C240 C237 1.481 . S
C240 C241 1.387 . S
C240 C245 1.390 . S
C241 C240 1.387 . S
C241 C242 1.401 . S
C241 H262 0.930 . S
C242 C241 1.401 . S
C242 C243 1.376 . S
C242 C251 1.511 . S
C243 C242 1.376 . S
C243 C244 1.392 . S
C243 H264 0.931 . S
C244 C243 1.392 . S
C244 C245 1.361 . S
C244 C246 1.500 . S
C245 C240 1.390 . S
C245 C244 1.361 . S
C245 H263 0.931 . S
C246 C244 1.500 . S
C246 C247 1.371 . S
C246 C248 1.365 . S
C247 C246 1.371 . S
C247 C257 1.386 . S
C247 H265 0.931 . S
C248 C246 1.365 . S
C248 C249 1.409 . S
C248 H266 0.929 . S
C249 C248 1.409 . S
C249 C250 1.380 . S
C249 H267 0.930 . S
C250 C249 1.380 . S
C250 C257 1.357 . S
C251 C242 1.511 . S
C251 C252 1.341 . S
C251 C253 1.371 . S
C252 C251 1.341 . S
C252 C256 1.394 . S
C252 H268 0.930 . S
C253 C251 1.371 . S
C253 C254 1.392 . S
C253 H269 0.931 . S
C254 C253 1.392 . S
C254 C255 1.331 . S
C254 H272 0.932 . S
C255 C254 1.331 . S
C255 C256 1.336 . S
C256 C252 1.394 . S
C256 C255 1.336 . S
C256 H271 0.929 . S
C257 C247 1.386 . S
C257 C250 1.357 . S
C257 H270 0.928 . S
H258 C234 0.931 . S
H259 C236 0.930 . S
H260 C238 0.929 . S
H261 C239 0.931 . S
H262 C241 0.930 . S
H263 C245 0.931 . S
H264 C243 0.931 . S
H265 C247 0.931 . S
H266 C248 0.929 . S
H267 C249 0.930 . S
H268 C252 0.930 . S
H269 C253 0.931 . S
H270 C257 0.928 . S
H271 C256 0.929 . S
H272 C254 0.932 . S
C273 C274 1.386 . S
C273 C275 1.397 . S
C273 H297 0.931 . S
C274 C273 1.386 . S
C274 C278 1.397 . S
C275 C273 1.397 . S
C275 C276 1.384 . S
C275 H298 0.930 . S
C276 C275 1.384 . S
C276 C277 1.377 . S
C276 C279 1.481 . S
C277 C276 1.377 . S
C277 C278 1.389 . S
C277 H299 0.929 . S
C278 C274 1.397 . S
C278 C277 1.389 . S
C278 H300 0.931 . S
C279 C276 1.481 . S
C279 C280 1.387 . S
C279 C284 1.390 . S
C280 C279 1.387 . S
C280 C281 1.401 . S
C280 H301 0.930 . S
C281 C280 1.401 . S
C281 C282 1.376 . S
C281 C290 1.511 . S
C282 C281 1.376 . S
C282 C283 1.392 . S
C282 H303 0.931 . S
C283 C282 1.392 . S
C283 C284 1.361 . S
C283 C285 1.500 . S
C284 C279 1.390 . S
C284 C283 1.361 . S
C284 H302 0.931 . S
C285 C283 1.500 . S
C285 C286 1.371 . S
C285 C287 1.365 . S
C286 C285 1.371 . S
C286 C296 1.386 . S
C286 H304 0.931 . S
C287 C285 1.365 . S
C287 C288 1.409 . S
C287 H305 0.929 . S
C288 C287 1.409 . S
C288 C289 1.380 . S
C288 H306 0.930 . S
C289 C288 1.380 . S
C289 C296 1.357 . S
C290 C281 1.511 . S
C290 C291 1.341 . S
C290 C292 1.371 . S
C291 C290 1.341 . S
C291 C295 1.394 . S
C291 H307 0.930 . S
C292 C290 1.371 . S
C292 C293 1.392 . S
C292 H308 0.931 . S
C293 C292 1.392 . S
C293 C294 1.331 . S
C293 H311 0.932 . S
C294 C293 1.331 . S
C294 C295 1.336 . S
C295 C291 1.394 . S
C295 C294 1.336 . S
C295 H310 0.929 . S
C296 C286 1.386 . S
C296 C289 1.357 . S
C296 H309 0.928 . S
H297 C273 0.931 . S
H298 C275 0.930 . S
H299 C277 0.929 . S
H300 C278 0.931 . S
H301 C280 0.930 . S
H302 C284 0.931 . S
H303 C282 0.931 . S
H304 C286 0.931 . S
H305 C287 0.929 . S
H306 C288 0.930 . S
H307 C291 0.930 . S
H308 C292 0.931 . S
H309 C296 0.928 . S
H310 C295 0.929 . S
H311 C293 0.932 . S
C312 O328 1.251 . S
C312 O330 1.254 1_545 S
N313 C314 1.333 . S
N313 C318 1.307 . S
N313 Zn319 2.020 . S
C314 N313 1.333 . S
C314 C315 1.379 . S
C314 H332 0.952 . S
C315 C314 1.379 . S
C315 C316 1.390 . S
C315 H342 0.949 . S
C316 C315 1.390 . S
C316 C317 1.357 . S
C317 C316 1.357 . S
C317 C318 1.370 . S
C317 H343 0.950 . S
C318 N313 1.307 . S
C318 C317 1.370 . S
C318 H336 0.948 1_455 S
Zn319 N313 2.020 . S
Zn319 O328 2.039 . S
Zn319 O334 2.034 . S
Zn319 O338 2.025 1_455 S
Zn319 O340 2.024 1_455 S
C320 O339 1.246 1_545 S
C320 O340 1.249 . S
N321 C322 1.307 . S
N321 C323 1.333 . S
N321 Zn327 2.020 . S
C322 N321 1.307 . S
C322 C326 1.370 . S
C322 H333 0.948 1_655 S
C323 N321 1.333 . S
C323 C324 1.379 . S
C323 H331 0.952 . S
C324 C323 1.379 . S
C324 C325 1.390 . S
C324 H344 0.949 . S
C325 C324 1.390 . S
C325 C326 1.357 . S
C326 C322 1.370 . S
C326 C325 1.357 . S
C326 H345 0.950 1_655 S
Zn327 N321 2.020 . S
Zn327 O330 2.025 1_655 S
Zn327 O335 2.024 1_655 S
Zn327 O337 2.039 . S
Zn327 O339 2.034 . S
O328 C312 1.251 . S
O328 Zn319 2.039 . S
C329 O334 1.246 1_565 S
C329 O335 1.249 . S
O330 C312 1.254 1_565 S
O330 Zn327 2.025 1_455 S
H331 C323 0.952 . S
H332 C314 0.952 . S
H333 C322 0.948 1_455 S
O334 Zn319 2.034 . S
O334 C329 1.246 1_545 S
O335 Zn327 2.024 1_455 S
O335 C329 1.249 . S
H336 C318 0.948 1_655 S
O337 Zn327 2.039 . S
O337 C341 1.251 . S
O338 Zn319 2.025 1_655 S
O338 C341 1.254 1_545 S
O339 C320 1.246 1_565 S
O339 Zn327 2.034 . S
O340 Zn319 2.024 1_655 S
O340 C320 1.249 . S
C341 O337 1.251 . S
C341 O338 1.254 1_565 S
H342 C315 0.949 . S
H343 C317 0.950 . S
H344 C324 0.949 . S
H345 C326 0.950 1_455 S
C346 O362 1.251 1_565 S
C346 O364 1.254 . S
N347 C348 1.333 . S
N347 C352 1.307 . S
N347 Zn353 2.020 . S
C348 N347 1.333 . S
C348 C349 1.379 . S
C348 H366 0.952 . S
C349 C348 1.379 . S
C349 C350 1.390 . S
C349 H376 0.949 . S
C350 C349 1.390 . S
C350 C351 1.357 . S
C351 C350 1.357 . S
C351 C352 1.370 . S
C351 H377 0.950 . S
C352 N347 1.307 . S
C352 C351 1.370 . S
C352 H370 0.948 . S
Zn353 N347 2.020 . S
Zn353 O362 2.039 . S
Zn353 O368 2.034 1_556 S
Zn353 O372 2.025 1_556 S
Zn353 O374 2.024 . S
C354 O373 1.246 . S
C354 O374 1.249 1_565 S
N355 C356 1.307 . S
N355 C357 1.333 . S
N355 Zn361 2.020 . S
C356 N355 1.307 . S
C356 C360 1.370 . S
C356 H367 0.948 . S
C357 N355 1.333 . S
C357 C358 1.379 . S
C357 H365 0.952 . S
C358 C357 1.379 . S
C358 C359 1.390 . S
C358 H378 0.949 . S
C359 C358 1.390 . S
C359 C360 1.357 . S
C360 C356 1.370 . S
C360 C359 1.357 . S
C360 H379 0.950 . S
Zn361 N355 2.020 . S
Zn361 O364 2.025 1_554 S
Zn361 O369 2.024 . S
Zn361 O371 2.039 . S
Zn361 O373 2.034 1_554 S
O362 C346 1.251 1_545 S
O362 Zn353 2.039 . S
C363 O368 1.246 . S
C363 O369 1.249 1_545 S
O364 C346 1.254 . S
O364 Zn361 2.025 1_556 S
H365 C357 0.952 . S
H366 C348 0.952 . S
H367 C356 0.948 . S
O368 Zn353 2.034 1_554 S
O368 C363 1.246 . S
O369 Zn361 2.024 . S
O369 C363 1.249 1_565 S
H370 C352 0.948 . S
O371 Zn361 2.039 . S
O371 C375 1.251 1_565 S
O372 Zn353 2.025 1_554 S
O372 C375 1.254 . S
O373 C354 1.246 . S
O373 Zn361 2.034 1_556 S
O374 Zn353 2.024 . S
O374 C354 1.249 1_545 S
C375 O371 1.251 1_545 S
C375 O372 1.254 . S
H376 C349 0.949 . S
H377 C351 0.950 . S
H378 C358 0.949 . S
H379 C360 0.950 . S
C380 O396 1.251 . S
C380 O398 1.254 . S
N381 C382 1.333 . S
N381 C386 1.307 . S
N381 Zn387 2.020 . S
C382 N381 1.333 . S
C382 C383 1.379 . S
C382 H400 0.952 . S
C383 C382 1.379 . S
C383 C384 1.390 . S
C383 H410 0.949 . S
C384 C383 1.390 . S
C384 C385 1.357 . S
C385 C384 1.357 . S
C385 C386 1.370 . S
C385 H411 0.950 . S
C386 N381 1.307 . S
C386 C385 1.370 . S
C386 H404 0.948 . S
Zn387 N381 2.020 . S
Zn387 O396 2.039 . S
Zn387 O402 2.034 . S
Zn387 O406 2.025 . S
Zn387 O408 2.024 . S
C388 O407 1.246 . S
C388 O408 1.249 . S
N389 C390 1.307 . S
N389 C391 1.333 . S
N389 Zn395 2.020 . S
C390 N389 1.307 . S
C390 C394 1.370 . S
C390 H401 0.948 . S
C391 N389 1.333 . S
C391 C392 1.379 . S
C391 H399 0.952 . S
C392 C391 1.379 . S
C392 C393 1.390 . S
C392 H412 0.949 . S
C393 C392 1.390 . S
C393 C394 1.357 . S
C394 C390 1.370 . S
C394 C393 1.357 . S
C394 H413 0.950 . S
Zn395 N389 2.020 . S
Zn395 O398 2.025 . S
Zn395 O403 2.024 . S
Zn395 O405 2.039 . S
Zn395 O407 2.034 . S
O396 C380 1.251 . S
O396 Zn387 2.039 . S
C397 O402 1.246 . S
C397 O403 1.249 . S
O398 C380 1.254 . S
O398 Zn395 2.025 . S
H399 C391 0.952 . S
H400 C382 0.952 . S
H401 C390 0.948 . S
O402 Zn387 2.034 . S
O402 C397 1.246 . S
O403 Zn395 2.024 . S
O403 C397 1.249 . S
H404 C386 0.948 . S
O405 Zn395 2.039 . S
O405 C409 1.251 . S
O406 Zn387 2.025 . S
O406 C409 1.254 . S
O407 C388 1.246 . S
O407 Zn395 2.034 . S
O408 Zn387 2.024 . S
O408 C388 1.249 . S
C409 O405 1.251 . S
C409 O406 1.254 . S
H410 C383 0.949 . S
H411 C385 0.950 . S
H412 C392 0.949 . S
H413 C394 0.950 . S
C414 O430 1.251 1_556 S
C414 O432 1.257 . S
N415 C416 1.333 . S
N415 C420 1.307 . S
N415 Zn421 2.020 . S
C416 N415 1.333 . S
C416 C417 1.379 . S
C416 H434 0.952 . S
C417 C416 1.379 . S
C417 C418 1.390 . S
C417 H444 0.949 . S
C418 C417 1.390 . S
C418 C419 1.357 . S
C419 C418 1.357 . S
C419 C420 1.370 . S
C419 H445 0.950 . S
C420 N415 1.307 . S
C420 C419 1.370 . S
C420 H438 0.948 . S
Zn421 N415 2.020 . S
Zn421 O430 2.039 . S
Zn421 O436 2.034 1_655 S
Zn421 O440 2.025 1_655 S
Zn421 O442 2.024 . S
C422 O441 1.246 . S
C422 O442 1.249 1_556 S
N423 C424 1.307 . S
N423 C425 1.333 . S
N423 Zn429 2.020 . S
C424 N423 1.307 . S
C424 C428 1.370 . S
C424 H435 0.948 . S
C425 N423 1.333 . S
C425 C426 1.379 . S
C425 H433 0.952 . S
C426 C425 1.379 . S
C426 C427 1.390 . S
C426 H446 0.949 . S
C427 C426 1.390 . S
C427 C428 1.357 . S
C428 C424 1.370 . S
C428 C427 1.357 . S
C428 H447 0.950 . S
Zn429 N423 2.020 . S
Zn429 O432 2.023 1_455 S
Zn429 O437 2.024 . S
Zn429 O439 2.039 . S
Zn429 O441 2.034 1_455 S
O430 C414 1.251 1_554 S
O430 Zn421 2.039 . S
C431 O436 1.246 . S
C431 O437 1.249 1_554 S
O432 C414 1.257 . S
O432 Zn429 2.023 1_655 S
H433 C425 0.952 . S
H434 C416 0.952 . S
H435 C424 0.948 . S
O436 Zn421 2.034 1_455 S
O436 C431 1.246 . S
O437 Zn429 2.024 . S
O437 C431 1.249 1_556 S
H438 C420 0.948 . S
O439 Zn429 2.039 . S
O439 C443 1.251 1_556 S
O440 Zn421 2.025 1_455 S
O440 C443 1.254 . S
O441 C422 1.246 . S
O441 Zn429 2.034 1_655 S
O442 Zn421 2.024 . S
O442 C422 1.249 1_554 S
C443 O439 1.251 1_554 S
C443 O440 1.254 . S
H444 C417 0.949 . S
H445 C419 0.950 . S
H446 C426 0.949 . S
H447 C428 0.950 . S
H448 C454 0.930 . S
H449 C457 0.930 . S
H450 C458 0.930 1_655 S
H451 C459 0.930 . S
H452 C462 0.930 . S
H453 C463 0.930 . S
C454 H448 0.930 . S
C454 C455 1.355 . S
C454 C456 1.415 . S
C455 C454 1.355 . S
C455 C457 1.419 . S
C456 C454 1.415 . S
C456 C461 1.425 . S
C456 C463 1.409 . S
C457 H449 0.930 . S
C457 C455 1.419 . S
C457 C458 1.362 . S
C458 H450 0.930 1_455 S
C458 C457 1.362 . S
C458 C461 1.409 . S
C459 H451 0.930 . S
C459 C460 1.355 . S
C459 C461 1.415 . S
C460 C459 1.355 . S
C460 C462 1.419 . S
C461 C456 1.425 . S
C461 C458 1.409 . S
C461 C459 1.415 . S
C462 H452 0.930 . S
C462 C460 1.419 . S
C462 C463 1.362 . S
C463 H453 0.930 . S
C463 C456 1.409 . S
C463 C462 1.362 . S
H464 C470 0.930 . S
H465 C473 0.930 . S
H466 C474 0.930 1_545 S
H467 C475 0.930 1_545 S
H468 C478 0.930 . S
H469 C479 0.930 . S
C470 H464 0.930 . S
C470 C471 1.355 . S
C470 C472 1.415 . S
C471 C470 1.355 . S
C471 C473 1.419 . S
C472 C470 1.415 . S
C472 C477 1.425 . S
C472 C479 1.409 . S
C473 H465 0.930 . S
C473 C471 1.419 . S
C473 C474 1.362 . S
C474 H466 0.930 1_565 S
C474 C473 1.362 . S
C474 C477 1.409 . S
C475 H467 0.930 1_565 S
C475 C476 1.355 . S
C475 C477 1.415 . S
C476 C475 1.355 . S
C476 C478 1.419 . S
C477 C472 1.425 . S
C477 C474 1.409 . S
C477 C475 1.415 . S
C478 H468 0.930 . S
C478 C476 1.419 . S
C478 C479 1.362 . S
C479 H469 0.930 . S
C479 C472 1.409 . S
C479 C478 1.362 . S
H480 C486 0.930 . S
H481 C489 0.930 . S
H482 C490 0.930 . S
H483 C491 0.930 . S
H484 C494 0.930 . S
H485 C495 0.930 . S
C486 H480 0.930 . S
C486 C487 1.355 . S
C486 C488 1.415 . S
C487 C486 1.355 . S
C487 C489 1.419 . S
C488 C486 1.415 . S
C488 C493 1.425 . S
C488 C495 1.409 . S
C489 H481 0.930 . S
C489 C487 1.419 . S
C489 C490 1.362 . S
C490 H482 0.930 . S
C490 C489 1.362 . S
C490 C493 1.409 . S
C491 H483 0.930 . S
C491 C492 1.355 . S
C491 C493 1.415 . S
C492 C491 1.355 . S
C492 C494 1.419 . S
C493 C488 1.425 . S
C493 C490 1.409 . S
C493 C491 1.415 . S
C494 H484 0.930 . S
C494 C492 1.419 . S
C494 C495 1.362 . S
C495 H485 0.930 . S
C495 C488 1.409 . S
C495 C494 1.362 . S
H496 C502 0.930 . S
H497 C505 0.930 . S
H498 C506 0.930 . S
H499 C507 0.930 . S
H500 C510 0.937 . S
H501 C511 0.930 1_455 S
C502 H496 0.930 . S
C502 C503 1.355 . S
C502 C504 1.415 . S
C503 C502 1.355 . S
C503 C505 1.419 . S
C504 C502 1.415 . S
C504 C509 1.425 . S
C504 C511 1.409 . S
C505 H497 0.930 . S
C505 C503 1.419 . S
C505 C506 1.362 . S
C506 H498 0.930 . S
C506 C505 1.362 . S
C506 C509 1.409 . S
C507 H499 0.930 . S
C507 C508 1.355 . S
C507 C509 1.415 . S
C508 C507 1.355 . S
C508 C510 1.419 . S
C509 C504 1.425 . S
C509 C506 1.409 . S
C509 C507 1.415 . S
C510 H500 0.937 . S
C510 C508 1.419 . S
C510 C511 1.362 . S
C511 H501 0.930 1_655 S
C511 C504 1.409 . S
C511 C510 1.362 . S
H512 C518 0.930 . S
H513 C521 0.930 . S
H514 C522 0.930 . S
H515 C523 0.930 . S
H516 C526 0.930 1_556 S
H517 C527 0.930 1_556 S
C518 H512 0.930 . S
C518 C519 1.355 . S
C518 C520 1.415 . S
C519 C518 1.355 . S
C519 C521 1.419 . S
C520 C518 1.415 . S
C520 C525 1.425 . S
C520 C527 1.409 . S
C521 H513 0.930 . S
C521 C519 1.419 . S
C521 C522 1.362 . S
C522 H514 0.930 . S
C522 C521 1.362 . S
C522 C525 1.409 . S
C523 H515 0.930 . S
C523 C524 1.355 . S
C523 C525 1.415 . S
C524 C523 1.355 . S
C524 C526 1.419 . S
C525 C520 1.425 . S
C525 C522 1.409 . S
C525 C523 1.415 . S
C526 H516 0.930 1_554 S
C526 C524 1.419 . S
C526 C527 1.362 . S
C527 H517 0.930 1_554 S
C527 C520 1.409 . S
C527 C526 1.362 . S
H528 C534 0.930 . S
H529 C537 0.930 . S
H530 C538 0.930 . S
H531 C539 0.930 . S
H532 C542 0.930 . S
H533 C543 0.930 . S
C534 H528 0.930 . S
C534 C535 1.355 . S
C534 C536 1.415 . S
C535 C534 1.355 . S
C535 C537 1.419 . S
C536 C534 1.415 . S
C536 C541 1.425 . S
C536 C543 1.409 . S
C537 H529 0.930 . S
C537 C535 1.419 . S
C537 C538 1.362 . S
C538 H530 0.930 . S
C538 C537 1.362 . S
C538 C541 1.409 . S
C539 H531 0.930 . S
C539 C540 1.355 . S
C539 C541 1.415 . S
C540 C539 1.355 . S
C540 C542 1.419 . S
C541 C536 1.425 . S
C541 C538 1.409 . S
C541 C539 1.415 . S
C542 H532 0.930 . S
C542 C540 1.419 . S
C542 C543 1.362 . S
C543 H533 0.930 . S
C543 C536 1.409 . S
C543 C542 1.362 . S
H544 C550 0.930 . S
H545 C553 0.930 . S
H546 C554 0.930 . S
H547 C555 0.930 . S
H548 C558 0.930 . S
H549 C559 0.930 . S
C550 H544 0.930 . S
C550 C551 1.355 . S
C550 C552 1.415 . S
C551 C550 1.355 . S
C551 C553 1.419 . S
C552 C550 1.415 . S
C552 C557 1.425 . S
C552 C559 1.409 . S
C553 H545 0.930 . S
C553 C551 1.419 . S
C553 C554 1.362 . S
C554 H546 0.930 . S
C554 C553 1.362 . S
C554 C557 1.409 . S
C555 H547 0.930 . S
C555 C556 1.355 . S
C555 C557 1.415 . S
C556 C555 1.355 . S
C556 C558 1.419 . S
C557 C552 1.425 . S
C557 C554 1.409 . S
C557 C555 1.415 . S
C558 H548 0.930 . S
C558 C556 1.419 . S
C558 C559 1.362 . S
C559 H549 0.930 . S
C559 C552 1.409 . S
C559 C558 1.362 . S
H560 C566 0.930 . S
H561 C569 0.930 . S
H562 C570 0.930 . S
H563 C571 0.930 . S
H564 C574 0.930 . S
H565 C575 0.930 . S
C566 H560 0.930 . S
C566 C567 1.355 . S
C566 C568 1.415 . S
C567 C566 1.355 . S
C567 C569 1.419 . S
C568 C566 1.415 . S
C568 C573 1.425 . S
C568 C575 1.409 . S
C569 H561 0.930 . S
C569 C567 1.419 . S
C569 C570 1.362 . S
C570 H562 0.930 . S
C570 C569 1.362 . S
C570 C573 1.409 . S
C571 H563 0.930 . S
C571 C572 1.355 . S
C571 C573 1.415 . S
C572 C571 1.355 . S
C572 C574 1.419 . S
C573 C568 1.425 . S
C573 C570 1.409 . S
C573 C571 1.415 . S
C574 H564 0.930 . S
C574 C572 1.419 . S
C574 C575 1.362 . S
C575 H565 0.930 . S
C575 C568 1.409 . S
C575 C574 1.362 . S
H576 C582 0.930 . S
H577 C585 0.930 . S
H578 C586 0.930 . S
H579 C587 0.930 . S
H580 C590 0.930 1_655 S
H581 C591 0.930 1_655 S
C582 H576 0.930 . S
C582 C583 1.355 . S
C582 C584 1.415 . S
C583 C582 1.355 . S
C583 C585 1.419 . S
C584 C582 1.415 . S
C584 C589 1.425 . S
C584 C591 1.409 . S
C585 H577 0.930 . S
C585 C583 1.419 . S
C585 C586 1.362 . S
C586 H578 0.930 . S
C586 C585 1.362 . S
C586 C589 1.409 . S
C587 H579 0.930 . S
C587 C588 1.355 . S
C587 C589 1.415 . S
C588 C587 1.355 . S
C588 C590 1.419 . S
C589 C584 1.425 . S
C589 C586 1.409 . S
C589 C587 1.415 . S
C590 H580 0.930 1_455 S
C590 C588 1.419 . S
C590 C591 1.362 . S
C591 H581 0.930 1_455 S
C591 C584 1.409 . S
C591 C590 1.362 . S
H592 C598 0.930 . S
H593 C601 0.930 . S
H594 C602 0.930 . S
H595 C603 0.930 . S
H596 C606 0.930 . S
H597 C607 0.930 . S
C598 H592 0.930 . S
C598 C599 1.355 . S
C598 C600 1.415 . S
C599 C598 1.355 . S
C599 C601 1.419 . S
C600 C598 1.415 . S
C600 C605 1.425 . S
C600 C607 1.409 . S
C601 H593 0.930 . S
C601 C599 1.419 . S
C601 C602 1.362 . S
C602 H594 0.930 . S
C602 C601 1.362 . S
C602 C605 1.409 . S
C603 H595 0.930 . S
C603 C604 1.355 . S
C603 C605 1.415 . S
C604 C603 1.355 . S
C604 C606 1.419 . S
C605 C600 1.425 . S
C605 C602 1.409 . S
C605 C603 1.415 . S
C606 H596 0.930 . S
C606 C604 1.419 . S
C606 C607 1.362 . S
C607 H597 0.930 . S
C607 C600 1.409 . S
C607 C606 1.362 . S
H608 C614 0.930 . S
H609 C617 0.930 . S
H610 C618 0.930 1_455 S
H611 C619 0.930 . S
H612 C622 0.930 . S
H613 C623 0.930 . S
C614 H608 0.930 . S
C614 C615 1.355 . S
C614 C616 1.415 . S
C615 C614 1.355 . S
C615 C617 1.419 . S
C616 C614 1.415 . S
C616 C621 1.425 . S
C616 C623 1.409 . S
C617 H609 0.930 . S
C617 C615 1.419 . S
C617 C618 1.362 . S
C618 H610 0.930 1_655 S
C618 C617 1.362 . S
C618 C621 1.409 . S
C619 H611 0.930 . S
C619 C620 1.355 . S
C619 C621 1.415 . S
C620 C619 1.355 . S
C620 C622 1.419 . S
C621 C616 1.425 . S
C621 C618 1.409 . S
C621 C619 1.415 . S
C622 H612 0.930 . S
C622 C620 1.419 . S
C622 C623 1.362 . S
C623 H613 0.930 . S
C623 C616 1.409 . S
C623 C622 1.362 . S
H624 C630 0.930 . S
H625 C633 0.930 . S
H626 C634 0.930 . S
H627 C635 0.930 . S
H628 C638 0.930 . S
H629 C639 0.930 . S
C630 H624 0.930 . S
C630 C631 1.355 . S
C630 C632 1.415 . S
C631 C630 1.355 . S
C631 C633 1.419 . S
C632 C630 1.415 . S
C632 C637 1.425 . S
C632 C639 1.409 . S
C633 H625 0.930 . S
C633 C631 1.419 . S
C633 C634 1.362 . S
C634 H626 0.930 . S
C634 C633 1.362 . S
C634 C637 1.409 . S
C635 H627 0.930 . S
C635 C636 1.355 . S
C635 C637 1.415 . S
C636 C635 1.355 . S
C636 C638 1.419 . S
C637 C632 1.425 . S
C637 C634 1.409 . S
C637 C635 1.415 . S
C638 H628 0.930 . S
C638 C636 1.419 . S
C638 C639 1.362 . S
C639 H629 0.930 . S
C639 C632 1.409 . S
C639 C638 1.362 . S
H640 C646 0.930 . S
H641 C649 0.930 . S
H642 C650 0.930 . S
H643 C651 0.930 . S
H644 C654 0.930 . S
H645 C655 0.930 . S
C646 H640 0.930 . S
C646 C647 1.355 . S
C646 C648 1.415 . S
C647 C646 1.355 . S
C647 C649 1.419 . S
C648 C646 1.415 . S
C648 C653 1.425 . S
C648 C655 1.409 1_565 S
C649 H641 0.930 . S
C649 C647 1.419 . S
C649 C650 1.362 . S
C650 H642 0.930 . S
C650 C649 1.362 . S
C650 C653 1.409 . S
C651 H643 0.930 . S
C651 C652 1.355 . S
C651 C653 1.415 . S
C652 C651 1.355 . S
C652 C654 1.419 1_565 S
C653 C648 1.425 . S
C653 C650 1.409 . S
C653 C651 1.415 . S
C654 H644 0.930 . S
C654 C652 1.419 1_545 S
C654 C655 1.362 . S
C655 H645 0.930 . S
C655 C648 1.409 1_545 S
C655 C654 1.362 . S
H656 C662 0.930 . S
H657 C665 0.930 . S
H658 C666 0.930 . S
H659 C667 0.930 . S
H660 C670 0.930 . S
H661 C671 0.930 . S
C662 H656 0.930 . S
C662 C663 1.355 . S
C662 C664 1.415 . S
C663 C662 1.355 . S
C663 C665 1.419 . S
C664 C662 1.415 . S
C664 C669 1.425 . S
C664 C671 1.409 . S
C665 H657 0.930 . S
C665 C663 1.419 . S
C665 C666 1.362 . S
C666 H658 0.930 . S
C666 C665 1.362 . S
C666 C669 1.409 . S
C667 H659 0.930 . S
C667 C668 1.355 . S
C667 C669 1.415 . S
C668 C667 1.355 . S
C668 C670 1.419 . S
C669 C664 1.425 . S
C669 C666 1.409 . S
C669 C667 1.415 . S
C670 H660 0.930 . S
C670 C668 1.419 . S
C670 C671 1.362 . S
C671 H661 0.930 . S
C671 C664 1.409 . S
C671 C670 1.362 . S
H672 C678 0.930 . S
H673 C681 0.930 . S
H674 C682 0.930 . S
H675 C683 0.930 . S
H676 C686 0.930 . S
H677 C687 0.930 . S
C678 H672 0.930 . S
C678 C679 1.355 . S
C678 C680 1.415 . S
C679 C678 1.355 . S
C679 C681 1.419 . S
C680 C678 1.415 . S
C680 C685 1.425 . S
C680 C687 1.409 . S
C681 H673 0.930 . S
C681 C679 1.419 . S
C681 C682 1.362 . S
C682 H674 0.930 . S
C682 C681 1.362 . S
C682 C685 1.409 . S
C683 H675 0.930 . S
C683 C684 1.355 . S
C683 C685 1.415 . S
C684 C683 1.355 . S
C684 C686 1.419 . S
C685 C680 1.425 . S
C685 C682 1.409 . S
C685 C683 1.415 . S
C686 H676 0.930 . S
C686 C684 1.419 . S
C686 C687 1.362 . S
C687 H677 0.930 . S
C687 C680 1.409 . S
C687 C686 1.362 . S
H688 C694 0.930 . S
H689 C697 0.930 . S
H690 C698 0.930 . S
H691 C699 0.930 . S
H692 C702 0.930 . S
H693 C703 0.930 . S
C694 H688 0.930 . S
C694 C695 1.355 . S
C694 C696 1.415 . S
C695 C694 1.355 . S
C695 C697 1.419 . S
C696 C694 1.415 . S
C696 C701 1.425 . S
C696 C703 1.409 . S
C697 H689 0.930 . S
C697 C695 1.419 . S
C697 C698 1.362 . S
C698 H690 0.930 . S
C698 C697 1.362 . S
C698 C701 1.409 . S
C699 H691 0.930 . S
C699 C700 1.355 . S
C699 C701 1.415 . S
C700 C699 1.355 . S
C700 C702 1.419 . S
C701 C696 1.425 . S
C701 C698 1.409 . S
C701 C699 1.415 . S
C702 H692 0.930 . S
C702 C700 1.419 . S
C702 C703 1.362 . S
C703 H693 0.930 . S
C703 C696 1.409 . S
C703 C702 1.362 . S
H704 C710 0.930 . S
H705 C713 0.930 . S
H706 C714 0.930 1_545 S
H707 C715 0.930 1_545 S
H708 C718 0.930 1_554 S
H709 C719 0.930 1_554 S
C710 H704 0.930 . S
C710 C711 1.355 . S
C710 C712 1.415 . S
C711 C710 1.355 . S
C711 C713 1.419 . S
C712 C710 1.415 . S
C712 C717 1.425 . S
C712 C719 1.409 . S
C713 H705 0.930 . S
C713 C711 1.419 . S
C713 C714 1.362 . S
C714 H706 0.930 1_565 S
C714 C713 1.362 . S
C714 C717 1.409 . S
C715 H707 0.930 1_565 S
C715 C716 1.355 . S
C715 C717 1.415 . S
C716 C715 1.355 . S
C716 C718 1.419 . S
C717 C712 1.425 . S
C717 C714 1.409 . S
C717 C715 1.415 . S
C718 H708 0.930 1_556 S
C718 C716 1.419 . S
C718 C719 1.362 . S
C719 H709 0.930 1_556 S
C719 C712 1.409 . S
C719 C718 1.362 . S
H720 C726 0.930 . S
H721 C729 0.930 . S
H722 C730 0.930 . S
H723 C731 0.930 . S
H724 C734 0.930 . S
H725 C735 0.930 . S
C726 H720 0.930 . S
C726 C727 1.355 . S
C726 C728 1.415 . S
C727 C726 1.355 . S
C727 C729 1.419 . S
C728 C726 1.415 . S
C728 C733 1.425 . S
C728 C735 1.409 . S
C729 H721 0.930 . S
C729 C727 1.419 . S
C729 C730 1.362 . S
C730 H722 0.930 . S
C730 C729 1.362 . S
C730 C733 1.409 . S
C731 H723 0.930 . S
C731 C732 1.355 . S
C731 C733 1.415 . S
C732 C731 1.355 . S
C732 C734 1.419 . S
C733 C728 1.425 . S
C733 C730 1.409 . S
C733 C731 1.415 . S
C734 H724 0.930 . S
C734 C732 1.419 . S
C734 C735 1.362 . S
C735 H725 0.930 . S
C735 C728 1.409 . S
C735 C734 1.362 . S
H736 C742 0.930 . S
H737 C745 0.930 . S
H738 C746 0.930 . S
H739 C747 0.930 . S
H740 C750 0.930 1_556 S
H741 C751 0.930 1_556 S
C742 H736 0.930 . S
C742 C743 1.355 . S
C742 C744 1.415 . S
C743 C742 1.355 . S
C743 C745 1.419 . S
C744 C742 1.415 . S
C744 C749 1.425 . S
C744 C751 1.409 . S
C745 H737 0.930 . S
C745 C743 1.419 . S
C745 C746 1.362 . S
C746 H738 0.930 . S
C746 C745 1.362 . S
C746 C749 1.409 . S
C747 H739 0.930 . S
C747 C748 1.355 . S
C747 C749 1.415 . S
C748 C747 1.355 . S
C748 C750 1.419 . S
C749 C744 1.425 . S
C749 C746 1.409 . S
C749 C747 1.415 . S
C750 H740 0.930 1_554 S
C750 C748 1.419 . S
C750 C751 1.362 . S
C751 H741 0.930 1_554 S
C751 C744 1.409 . S
C751 C750 1.362 . S
H752 C758 0.930 . S
H753 C761 0.930 . S
H754 C762 0.930 . S
H755 C763 0.930 . S
H756 C766 0.930 . S
H757 C767 0.930 . S
C758 H752 0.930 . S
C758 C759 1.355 . S
C758 C760 1.415 . S
C759 C758 1.355 . S
C759 C761 1.419 . S
C760 C758 1.415 . S
C760 C765 1.425 . S
C760 C767 1.409 . S
C761 H753 0.930 . S
C761 C759 1.419 . S
C761 C762 1.362 . S
C762 H754 0.930 . S
C762 C761 1.362 . S
C762 C765 1.409 . S
C763 H755 0.930 . S
C763 C764 1.355 . S
C763 C765 1.415 . S
C764 C763 1.355 . S
C764 C766 1.419 . S
C765 C760 1.425 . S
C765 C762 1.409 . S
C765 C763 1.415 . S
C766 H756 0.930 . S
C766 C764 1.419 . S
C766 C767 1.362 . S
C767 H757 0.930 . S
C767 C760 1.409 . S
C767 C766 1.362 . S
H768 C774 0.930 . S
H769 C777 0.930 1_455 S
H770 C778 0.930 . S
H771 C779 0.930 1_455 S
H772 C782 0.930 . S
H773 C783 0.930 . S
C774 H768 0.930 . S
C774 C775 1.355 . S
C774 C776 1.415 . S
C775 C774 1.355 . S
C775 C777 1.419 . S
C776 C774 1.415 . S
C776 C781 1.425 . S
C776 C783 1.409 . S
C777 H769 0.930 1_655 S
C777 C775 1.419 . S
C777 C778 1.362 1_655 S
C778 H770 0.930 . S
C778 C777 1.362 1_455 S
C778 C781 1.409 1_455 S
C779 H771 0.930 1_655 S
C779 C780 1.355 . S
C779 C781 1.415 . S
C780 C779 1.355 . S
C780 C782 1.419 . S
C781 C776 1.425 . S
C781 C778 1.409 1_655 S
C781 C779 1.415 . S
C782 H772 0.930 . S
C782 C780 1.419 . S
C782 C783 1.362 . S
C783 H773 0.930 . S
C783 C776 1.409 . S
C783 C782 1.362 . S
H784 C790 0.930 . S
H785 C793 0.930 . S
H786 C794 0.930 . S
H787 C795 0.930 . S
H788 C798 0.930 . S
H789 C799 0.930 . S
C790 H784 0.930 . S
C790 C791 1.355 . S
C790 C792 1.415 . S
C791 C790 1.355 . S
C791 C793 1.419 . S
C792 C790 1.415 . S
C792 C797 1.425 . S
C792 C799 1.409 . S
C793 H785 0.930 . S
C793 C791 1.419 . S
C793 C794 1.362 . S
C794 H786 0.930 . S
C794 C793 1.362 . S
C794 C797 1.409 . S
C795 H787 0.930 . S
C795 C796 1.355 . S
C795 C797 1.415 . S
C796 C795 1.355 . S
C796 C798 1.419 . S
C797 C792 1.425 . S
C797 C794 1.409 . S
C797 C795 1.415 . S
C798 H788 0.930 . S
C798 C796 1.419 . S
C798 C799 1.362 . S
C799 H789 0.930 . S
C799 C792 1.409 . S
C799 C798 1.362 . S
H800 C806 0.930 . S
H801 C809 0.930 . S
H802 C810 0.930 . S
H803 C811 0.930 . S
H804 C814 0.930 . S
H805 C815 0.930 . S
C806 H800 0.930 . S
C806 C807 1.355 . S
C806 C808 1.415 . S
C807 C806 1.355 . S
C807 C809 1.419 . S
C808 C806 1.415 . S
C808 C813 1.425 . S
C808 C815 1.409 . S
C809 H801 0.930 . S
C809 C807 1.419 . S
C809 C810 1.362 . S
C810 H802 0.930 . S
C810 C809 1.362 . S
C810 C813 1.409 . S
C811 H803 0.930 . S
C811 C812 1.355 . S
C811 C813 1.415 . S
C812 C811 1.355 . S
C812 C814 1.419 . S
C813 C808 1.425 . S
C813 C810 1.409 . S
C813 C811 1.415 . S
C814 H804 0.930 . S
C814 C812 1.419 . S
C814 C815 1.362 . S
C815 H805 0.930 . S
C815 C808 1.409 . S
C815 C814 1.362 . S
H816 C822 0.930 . S
H817 C825 0.930 . S
H818 C826 0.930 . S
H819 C827 0.930 . S
H820 C830 0.930 . S
H821 C831 0.930 . S
C822 H816 0.930 . S
C822 C823 1.355 . S
C822 C824 1.415 . S
C823 C822 1.355 . S
C823 C825 1.419 . S
C824 C822 1.415 . S
C824 C829 1.425 . S
C824 C831 1.409 . S
C825 H817 0.930 . S
C825 C823 1.419 . S
C825 C826 1.362 . S
C826 H818 0.930 . S
C826 C825 1.362 . S
C826 C829 1.409 . S
C827 H819 0.930 . S
C827 C828 1.355 . S
C827 C829 1.415 . S
C828 C827 1.355 . S
C828 C830 1.419 . S
C829 C824 1.425 . S
C829 C826 1.409 . S
C829 C827 1.415 . S
C830 H820 0.930 . S
C830 C828 1.419 . S
C830 C831 1.362 . S
C831 H821 0.930 . S
C831 C824 1.409 . S
C831 C830 1.362 . S
C455 C1 2.337 . S
C460 C312 2.349 . S
C471 C40 2.281 . S
C476 C354 2.305 . S
C492 C384 1.045 . S
C487 C99 1.038 . S
C503 C118 1.055 . S
C508 C418 1.073 . S
C524 C375 1.882 . S
C519 C16 1.857 . S
C540 C329 1.880 . S
C535 C60 1.861 . S
C556 C422 1.413 . S
C551 C79 1.405 . S
C572 C388 1.420 . S
C567 C138 1.387 . S
C583 C21 2.201 . S
C588 C443 2.217 . S
C604 C350 1.184 . S
C599 C94 1.165 . S
C615 C133 1.158 . S
C620 C325 1.180 . S
C631 C55 2.201 . S
C636 C409 2.210 . S
C652 C341 2.350 . S
C647 C157 2.323 . S
C663 C196 2.292 . S
C668 C363 2.303 . S
C679 C255 1.003 . S
C684 C393 1.022 . S
C695 C289 1.069 . S
C700 C427 1.080 . S
C711 C172 1.863 . S
C716 C346 1.883 . S
C732 C320 1.881 . S
C727 C216 1.870 . S
C748 C431 1.400 . S
C743 C235 1.371 . S
C764 C397 1.451 . S
C759 C294 1.430 . S
C775 C177 2.219 . S
C780 C414 2.235 . S
C796 C359 1.179 . S
C791 C250 1.163 . S
C812 C316 1.194 . S
C807 C274 1.160 . S
C823 C211 2.190 . S
C828 C380 2.206 . S
