# Generated by pormake.
# Topology rtl, (3,6)-cn, num edge types: 1
# Building blocks:
#     Node 0, Type 0, BuildingBlock: MIDCAF_clean_linker_0, # of connection points: 3
#     Node 1, Type 0, BuildingBlock: MIDCAF_clean_linker_0, # of connection points: 3
#     Node 2, Type 0, BuildingBlock: MIDCAF_clean_linker_0, # of connection points: 3
#     Node 3, Type 0, BuildingBlock: MIDCAF_clean_linker_0, # of connection points: 3
#     Node 4, Type 1, BuildingBlock: KUMBUR_clean_sbu_1, # of connection points: 6
#     Node 5, Type 1, BuildingBlock: KUMBUR_clean_sbu_1, # of connection points: 6
#     Edge 6, Type (0, 1), BuildingBlock: KIFKEQ_clean_linker_1, # of connection points: 2
#     Edge 7, Type (0, 1), BuildingBlock: KIFKEQ_clean_linker_1, # of connection points: 2
#     Edge 8, Type (0, 1), BuildingBlock: KIFKEQ_clean_linker_1, # of connection points: 2
#     Edge 9, Type (0, 1), BuildingBlock: KIFKEQ_clean_linker_1, # of connection points: 2
#     Edge 10, Type (0, 1), BuildingBlock: KIFKEQ_clean_linker_1, # of connection points: 2
#     Edge 11, Type (0, 1), BuildingBlock: KIFKEQ_clean_linker_1, # of connection points: 2
#     Edge 12, Type (0, 1), BuildingBlock: KIFKEQ_clean_linker_1, # of connection points: 2
#     Edge 13, Type (0, 1), BuildingBlock: KIFKEQ_clean_linker_1, # of connection points: 2
#     Edge 14, Type (0, 1), BuildingBlock: KIFKEQ_clean_linker_1, # of connection points: 2
#     Edge 15, Type (0, 1), BuildingBlock: KIFKEQ_clean_linker_1, # of connection points: 2
#     Edge 16, Type (0, 1), BuildingBlock: KIFKEQ_clean_linker_1, # of connection points: 2
#     Edge 17, Type (0, 1), BuildingBlock: KIFKEQ_clean_linker_1, # of connection points: 2
# Relax obj value: 0.018
# Max RMSD: 0.095
# Mean RMSD: 0.057
data_MOF--net-rtl--node1-KUMBUR_clean_sbu_1--node2-MIDCAF_clean_linker_0--edge1-KIFKEQ_clean_linker_1
_symmetry_space_group_name_H-M    P1
_symmetry_Int_Tables_number       1
_symmetry_cell_setting            triclinic
loop_
_symmetry_equiv_pos_as_xyz
'x, y, z'
_cell_length_a     40.073807
_cell_length_b     40.788052
_cell_length_c     35.533268
_cell_angle_alpha  79.933123
_cell_angle_beta   99.474811
_cell_angle_gamma 90.692499
loop_
_atom_site_label
_atom_site_type_symbol
_atom_site_fract_x
_atom_site_fract_y
_atom_site_fract_z
_atom_type_partial_charge
C0 C 0.14752 0.88221 0.12328 0.0
C1 C 0.16116 0.86325 0.15943 0.0
C2 C 0.18671 0.8395 0.161 0.0
C3 C 0.19782 0.83431 0.1272 0.0
H4 H 0.26778 0.78058 0.08843 0.0
H5 H 0.31016 0.73731 0.09126 0.0
H6 H 0.28594 0.74416 0.96712 0.0
H7 H 0.24347 0.78694 0.96411 0.0
H8 H 0.17249 0.82618 0.92108 0.0
H9 H 0.14471 0.85293 0.85679 0.0
H10 H 0.13355 0.94403 0.89984 0.0
H11 H 0.16057 0.91697 0.96492 0.0
H12 H 0.14718 0.89178 0.06207 0.0
H13 H 0.12818 0.90108 0.1211 0.0
H14 H 0.19751 0.82418 0.18825 0.0
H15 H 0.2171 0.81534 0.12959 0.0
N16 N 0.21778 0.82159 0.05673 0.0
N17 N 0.20995 0.82918 0.989 0.0
N18 N 0.17822 0.86135 0.01947 0.0
C19 C 0.22609 0.81342 0.02395 0.0
C20 C 0.18618 0.85321 0.98648 0.0
C21 C 0.19381 0.84544 0.0548 0.0
C22 C 0.25208 0.78727 0.02605 0.0
C23 C 0.27143 0.77285 0.06172 0.0
C24 C 0.29587 0.74819 0.06336 0.0
C25 C 0.30129 0.73727 0.02944 0.0
C26 C 0.28203 0.75173 0.99383 0.0
C27 C 0.25779 0.77644 0.99213 0.0
C28 C 0.1687 0.86953 0.94798 0.0
C29 C 0.16402 0.85187 0.91694 0.0
C30 C 0.14805 0.86706 0.88025 0.0
C31 C 0.13713 0.9004 0.87364 0.0
C32 C 0.14186 0.91825 0.90445 0.0
C33 C 0.15714 0.90276 0.94154 0.0
C34 C 0.1836 0.85268 0.0909 0.0
C35 C 0.15859 0.87699 0.08942 0.0
C36 C 0.62813 0.62217 0.50876 0.0
C37 C 0.64288 0.62953 0.47505 0.0
C38 C 0.66955 0.65226 0.47433 0.0
C39 C 0.68127 0.66711 0.50655 0.0
H40 H 0.75187 0.73 0.54636 0.0
H41 H 0.79499 0.77198 0.54071 0.0
H42 H 0.78145 0.79726 0.65031 0.0
H43 H 0.73774 0.75499 0.65612 0.0
H44 H 0.6798 0.70922 0.70393 0.0
H45 H 0.65514 0.68889 0.76219 0.0
H46 H 0.62557 0.59876 0.71802 0.0
H47 H 0.64878 0.6194 0.65991 0.0
H48 H 0.62787 0.63057 0.56642 0.0
H49 H 0.60719 0.60521 0.51016 0.0
H50 H 0.68183 0.65818 0.44907 0.0
H51 H 0.70202 0.6843 0.50497 0.0
N52 N 0.70301 0.69894 0.57316 0.0
N53 N 0.7025 0.70297 0.63825 0.0
N54 N 0.66766 0.66481 0.60861 0.0
C55 C 0.71475 0.71317 0.60457 0.0
C56 C 0.679 0.67856 0.64043 0.0
C57 C 0.67937 0.67489 0.57484 0.0
C58 C 0.74119 0.73899 0.60176 0.0
C59 C 0.7579 0.7444 0.56939 0.0
C60 C 0.7829 0.76838 0.56621 0.0
C61 C 0.7918 0.78783 0.59515 0.0
C62 C 0.77501 0.78274 0.62744 0.0
C63 C 0.7501 0.75841 0.63084 0.0
C64 C 0.66592 0.66616 0.677 0.0
C65 C 0.66803 0.68507 0.70681 0.0
C66 C 0.65399 0.67334 0.74026 0.0
C67 C 0.63783 0.64235 0.74469 0.0
C68 C 0.6368 0.62316 0.71528 0.0
C69 C 0.65039 0.63497 0.68189 0.0
C70 C 0.6667 0.65951 0.54038 0.0
C71 C 0.63992 0.6369 0.54102 0.0
C72 C 0.8607 0.11495 0.95342 0.0
C73 C 0.84754 0.12989 0.91526 0.0
C74 C 0.82071 0.15318 0.90903 0.0
C75 C 0.80729 0.16118 0.94036 0.0
H76 H 0.74089 0.22715 0.97264 0.0
H77 H 0.69866 0.27122 0.967 0.0
H78 H 0.69376 0.24326 0.08893 0.0
H79 H 0.73516 0.19911 0.09455 0.0
H80 H 0.78008 0.13743 0.14595 0.0
H81 H 0.80638 0.11247 0.21125 0.0
H82 H 0.89847 0.09506 0.1685 0.0
H83 H 0.87152 0.1184 0.1031 0.0
H84 H 0.85843 0.11084 0.01351 0.0
H85 H 0.88178 0.09741 0.95934 0.0
H86 H 0.80986 0.16496 0.87993 0.0
H87 H 0.78658 0.17913 0.93458 0.0
N88 N 0.78102 0.17693 0.00736 0.0
N89 N 0.78235 0.16823 0.07468 0.0
N90 N 0.82021 0.13909 0.0486 0.0
C91 C 0.76869 0.18401 0.03861 0.0
C92 C 0.80813 0.14584 0.0799 0.0
C93 C 0.80674 0.15427 0.01221 0.0
C94 C 0.74161 0.20959 0.03407 0.0
C95 C 0.73057 0.2302 0.99816 0.0
C96 C 0.70652 0.2556 0.99496 0.0
C97 C 0.69288 0.26078 0.02753 0.0
C98 C 0.7034 0.2397 0.06316 0.0
C99 C 0.72742 0.21447 0.0664 0.0
C100 C 0.82373 0.1299 0.11939 0.0
C101 C 0.80589 0.12808 0.15054 0.0
C102 C 0.82108 0.11394 0.18805 0.0
C103 C 0.85469 0.10182 0.19538 0.0
C104 C 0.87238 0.1035 0.16402 0.0
C105 C 0.85698 0.1171 0.12645 0.0
C106 C 0.82051 0.14613 0.97856 0.0
C107 C 0.84738 0.12291 0.9846 0.0
C108 C 0.38356 0.39799 0.55245 0.0
C109 C 0.37576 0.38347 0.5888 0.0
C110 C 0.35904 0.35289 0.59229 0.0
C111 C 0.34947 0.33765 0.55995 0.0
H112 H 0.288 0.26749 0.52493 0.0
H113 H 0.24458 0.22613 0.53132 0.0
H114 H 0.22992 0.2266 0.40809 0.0
H115 H 0.27418 0.26817 0.40148 0.0
H116 H 0.33318 0.30984 0.35433 0.0
H117 H 0.35359 0.33207 0.29384 0.0
H118 H 0.40166 0.41224 0.34606 0.0
H119 H 0.38125 0.39051 0.406 0.0
H120 H 0.38024 0.39474 0.49248 0.0
H121 H 0.39674 0.42139 0.54896 0.0
H122 H 0.35241 0.34122 0.61981 0.0
H123 H 0.33608 0.31438 0.56364 0.0
N124 N 0.32229 0.31199 0.49071 0.0
N125 N 0.32091 0.30985 0.42491 0.0
N126 N 0.35511 0.3486 0.45441 0.0
C127 C 0.31016 0.29819 0.45917 0.0
C128 C 0.34355 0.33509 0.42238 0.0
C129 C 0.3447 0.33712 0.48871 0.0
C130 C 0.28459 0.27152 0.46256 0.0
C131 C 0.27571 0.25892 0.499 0.0
C132 C 0.25055 0.23523 0.50273 0.0
C133 C 0.2334 0.22335 0.47018 0.0
C134 C 0.24273 0.2352 0.43377 0.0
C135 C 0.26804 0.25909 0.42998 0.0
C136 C 0.35548 0.34832 0.3852 0.0
C137 C 0.34802 0.33226 0.35289 0.0
C138 C 0.35987 0.34489 0.31826 0.0
C139 C 0.37916 0.37401 0.31506 0.0
C140 C 0.38649 0.39004 0.34732 0.0
C141 C 0.37491 0.37736 0.38187 0.0
C142 C 0.35661 0.35248 0.52336 0.0
C143 C 0.37423 0.38261 0.52013 0.0
Tb144 Tb 0.03605 0.97597 0.5092 0.0
C145 C 0.956 0.10313 0.48658 0.0
N146 N 0.98485 0.09378 0.51212 0.0
C147 C 0.00933 0.14648 0.49095 0.0
C148 C 0.95343 0.13374 0.46065 0.0
C149 C 0.01026 0.11616 0.51661 0.0
C150 C 0.9811 0.15498 0.46221 0.0
C151 C 0.89673 0.09295 0.46508 0.0
C152 C 0.928 0.08319 0.48872 0.0
C153 C 0.89452 0.12248 0.43765 0.0
C154 C 0.92286 0.14281 0.43537 0.0
Tb155 Tb 0.98373 0.0423 0.55051 0.0
N156 N 0.93133 0.05443 0.51492 0.0
C157 C 0.86859 0.07299 0.4703 0.0
C158 C 0.90372 0.03574 0.52166 0.0
C159 C 0.87201 0.04452 0.49912 0.0
H160 H 0.03102 0.11124 0.54043 0.0
H161 H 0.85027 0.02932 0.50392 0.0
H162 H 0.00813 0.90388 0.54888 0.0
H163 H 0.16377 0.02179 0.51124 0.0
H164 H 0.90635 0.01382 0.54401 0.0
H165 H 0.84406 0.07965 0.45277 0.0
H166 H 0.10347 0.01862 0.48423 0.0
H167 H 0.03006 0.16359 0.49396 0.0
H168 H 0.87085 0.13022 0.41876 0.0
H169 H 0.92053 0.16605 0.41491 0.0
H170 H 0.03035 0.8555 0.59864 0.0
H171 H 0.98019 0.17872 0.44279 0.0
H172 H 0.18921 0.98083 0.56836 0.0
N173 N 0.05437 0.93006 0.55436 0.0
C174 C 0.08742 0.92925 0.57091 0.0
C175 C 0.04662 0.8762 0.5913 0.0
C176 C 0.10117 0.9024 0.59963 0.0
C177 C 0.03408 0.90361 0.5632 0.0
C178 C 0.0802 0.87578 0.61 0.0
N179 N 0.09333 0.97947 0.52883 0.0
C180 C 0.11358 0.00201 0.51061 0.0
C181 C 0.14223 0.95499 0.57356 0.0
C182 C 0.10746 0.95522 0.55817 0.0
C183 C 0.16238 0.98008 0.5574 0.0
C184 C 0.1481 0.0033 0.52525 0.0
H185 H 0.08981 0.8546 0.63188 0.0
H186 H 0.14645 0.88255 0.63885 0.0
H187 H 0.1825 0.92861 0.61592 0.0
O188 O 0.0633 0.95992 0.46974 0.0
O189 O 0.03282 0.96949 0.57123 0.0
O190 O 0.03258 0.02277 0.5833 0.0
O191 O 0.01112 0.94739 0.46944 0.0
O192 O 0.04729 0.0294 0.49503 0.0
O193 O 0.03758 0.05249 0.54728 0.0
O194 O 0.96494 0.02978 0.60309 0.0
O195 O 0.96355 0.02514 0.49601 0.0
O196 O 0.01184 0.02008 0.47169 0.0
O197 O 0.97184 0.08072 0.57871 0.0
O198 O 0.96857 0.99004 0.56378 0.0
O199 O 0.98396 0.96207 0.51677 0.0
C200 C 0.04013 0.99101 0.5947 0.0
C201 C 0.0456 0.91103 0.44606 0.0
C202 C 0.06776 0.87858 0.40368 0.0
C203 C 0.06053 0.84916 0.42791 0.0
C204 C 0.03804 0.88143 0.46951 0.0
C205 C 0.04573 0.85066 0.46057 0.0
C206 C 0.06041 0.90944 0.41327 0.0
C207 C 0.05424 0.05125 0.51843 0.0
C208 C 0.03797 0.94403 0.45421 0.0
C209 C 0.13542 0.90278 0.61643 0.0
C210 C 0.15592 0.92906 0.60345 0.0
C211 C 0.97925 0.02573 0.46637 0.0
C212 C 0.98051 0.0669 0.64636 0.0
C213 C 0.97578 0.07815 0.71047 0.0
C214 C 0.01128 0.07948 0.71901 0.0
C215 C 0.01578 0.06912 0.655 0.0
C216 C 0.96059 0.07154 0.674 0.0
C217 C 0.03109 0.07502 0.69135 0.0
C218 C 0.96568 0.96525 0.54387 0.0
C219 C 0.96421 0.06047 0.60833 0.0
H220 H 0.0656 0.825 0.42117 0.0
H221 H 0.02597 0.88199 0.49439 0.0
H222 H 0.03986 0.82789 0.47877 0.0
H223 H 0.06628 0.93238 0.39522 0.0
H224 H 0.02369 0.08476 0.74671 0.0
H225 H 0.03132 0.06661 0.63347 0.0
H226 H 0.9333 0.06995 0.6671 0.0
H227 H 0.05835 0.07655 0.69795 0.0
Tb228 Tb 0.46998 0.49214 0.98846 0.0
C229 C 0.61276 0.53655 0.03869 0.0
N230 N 0.59646 0.50999 0.05564 0.0
C231 C 0.64499 0.47506 0.05854 0.0
C232 C 0.6452 0.53308 0.02925 0.0
C233 C 0.61315 0.48002 0.06808 0.0
C234 C 0.66082 0.50155 0.03831 0.0
C235 C 0.61487 0.59645 0.01899 0.0
C236 C 0.59793 0.56776 0.03357 0.0
C237 C 0.64644 0.59301 0.00769 0.0
C238 C 0.66154 0.56136 0.01269 0.0
Tb239 Tb 0.54346 0.52116 0.06738 0.0
N240 N 0.56706 0.57001 0.04399 0.0
C241 C 0.5998 0.62766 0.01695 0.0
C242 C 0.55299 0.60034 0.04405 0.0
C243 C 0.56894 0.62961 0.03006 0.0
H244 H 0.60241 0.45998 0.08611 0.0
H245 H 0.55743 0.65363 0.02935 0.0
H246 H 0.40222 0.53086 1.00074 0.0
H247 H 0.49217 0.36144 0.98739 0.0
H248 H 0.52925 0.60185 0.05437 0.0
H249 H 0.61203 0.65034 0.00601 0.0
H250 H 0.50014 0.42166 0.96871 0.0
H251 H 0.65761 0.45098 0.06755 0.0
H252 H 0.65972 0.61471 0.9959 0.0
H253 H 0.68633 0.55915 0.00487 0.0
H254 H 0.34976 0.51622 0.02798 0.0
H255 H 0.68573 0.49779 0.03151 0.0
H256 H 0.44683 0.34106 0.02475 0.0
N257 N 0.42058 0.4809 0.01171 0.0
C258 C 0.41385 0.44835 0.02299 0.0
C259 C 0.36774 0.49691 0.02705 0.0
C260 C 0.38452 0.43873 0.03882 0.0
C261 C 0.39738 0.50516 0.01174 0.0
C262 C 0.36155 0.46358 0.04128 0.0
N263 N 0.46269 0.43554 0.99947 0.0
C264 C 0.4815 0.41323 0.98681 0.0
C265 C 0.42959 0.39063 0.02725 0.0
C266 C 0.43609 0.42481 0.01733 0.0
C267 C 0.45089 0.36758 0.01762 0.0
C268 C 0.47654 0.37898 0.9966 0.0
H269 H 0.33864 0.45725 0.05322 0.0
H270 H 0.35662 0.39675 0.06343 0.0
H271 H 0.39612 0.35453 0.05324 0.0
O272 O 0.447 0.47589 0.93652 0.0
O273 O 0.46246 0.49132 0.04864 0.0
O274 O 0.51443 0.47683 0.08495 0.0
O275 O 0.44706 0.52817 0.94234 0.0
O276 O 0.52067 0.46922 0.99623 0.0
O277 O 0.54354 0.46835 0.06061 0.0
O278 O 0.53158 0.54043 0.11487 0.0
O279 O 0.53421 0.54762 0.00665 0.0
O280 O 0.51896 0.5061 0.97187 0.0
O281 O 0.58068 0.5194 0.11696 0.0
O282 O 0.49422 0.54663 0.0595 0.0
O283 O 0.46817 0.54414 0.99651 0.0
C284 C 0.48128 0.47575 0.0803 0.0
C285 C 0.41892 0.51598 0.88081 0.0
C286 C 0.40297 0.50686 0.81412 0.0
C287 C 0.38551 0.53766 0.80482 0.0
C288 C 0.40125 0.54663 0.87079 0.0
C289 C 0.38451 0.55725 0.83306 0.0
C290 C 0.41929 0.49585 0.85246 0.0
C291 C 0.54064 0.45581 0.02843 0.0
C292 C 0.43811 0.50627 0.9203 0.0
C293 C 0.3788 0.40473 0.05071 0.0
C294 C 0.40134 0.3807 0.04499 0.0
C295 C 0.53389 0.53446 0.97538 0.0
C296 C 0.55983 0.51425 0.17574 0.0
C297 C 0.56769 0.51489 0.24526 0.0
C298 C 0.55832 0.48123 0.25153 0.0
C299 C 0.55091 0.48067 0.18261 0.0
C300 C 0.5681 0.53127 0.20699 0.0
C301 C 0.54995 0.46433 0.22036 0.0
C302 C 0.47195 0.5575 0.02815 0.0
C303 C 0.56072 0.53192 0.13622 0.0
H304 H 0.37244 0.54649 0.77564 0.0
H305 H 0.40048 0.56251 0.8921 0.0
H306 H 0.37095 0.58089 0.82561 0.0
H307 H 0.4332 0.47235 0.8598 0.0
H308 H 0.5581 0.46774 0.28058 0.0
H309 H 0.54494 0.46712 0.15885 0.0
H310 H 0.57465 0.55733 0.20137 0.0
H311 H 0.54302 0.4384 0.22551 0.0
H312 H 0.22047 0.1678 0.43644 0.0
H313 H 0.18357 0.22382 0.5141 0.0
H314 H 0.17692 0.12631 0.44731 0.0
H315 H 0.1402 0.18256 0.52489 0.0
H316 H 0.09359 0.08356 0.57011 0.0
H317 H 0.13631 0.12534 0.55707 0.0
H318 H 0.11579 0.11806 0.4356 0.0
H319 H 0.07326 0.07609 0.44882 0.0
C320 C 0.20285 0.17146 0.45546 0.0
C321 C 0.20574 0.19896 0.47468 0.0
C322 C 0.1779 0.14768 0.46173 0.0
C323 C 0.15526 0.15091 0.4873 0.0
C324 C 0.15767 0.17887 0.50571 0.0
C325 C 0.18254 0.20256 0.49947 0.0
C326 C 0.09818 0.091 0.54064 0.0
C327 C 0.08016 0.07657 0.51051 0.0
C328 C 0.12256 0.11501 0.5331 0.0
C329 C 0.12946 0.12513 0.49524 0.0
C330 C 0.11143 0.11055 0.46514 0.0
C331 C 0.08701 0.08658 0.47269 0.0
H332 H 0.29437 0.68408 0.99192 0.0
H333 H 0.36578 0.73062 0.07034 0.0
H334 H 0.33656 0.64153 0.99233 0.0
H335 H 0.40831 0.68813 0.07048 0.0
H336 H 0.4627 0.58567 0.0904 0.0
H337 H 0.42186 0.62913 0.09177 0.0
H338 H 0.38881 0.63644 0.9685 0.0
H339 H 0.42895 0.59268 0.9672 0.0
C340 C 0.3192 0.68533 0.00903 0.0
C341 C 0.32682 0.71081 0.03091 0.0
C342 C 0.34343 0.66099 0.00921 0.0
C343 C 0.37594 0.66158 0.03116 0.0
C344 C 0.38341 0.68678 0.05355 0.0
C345 C 0.35908 0.71111 0.05347 0.0
C346 C 0.44687 0.5967 0.06354 0.0
C347 C 0.44897 0.5855 0.02875 0.0
C348 C 0.42352 0.6217 0.06432 0.0
C349 C 0.40185 0.63606 0.03031 0.0
C350 C 0.40462 0.62543 0.99538 0.0
C351 C 0.42784 0.60045 0.99461 0.0
H352 H 0.85312 0.78123 0.57305 0.0
H353 H 0.79056 0.85217 0.60785 0.0
H354 H 0.89533 0.82376 0.56222 0.0
H355 H 0.83255 0.89511 0.59632 0.0
H356 H 0.92927 0.95637 0.60376 0.0
H357 H 0.8884 0.91328 0.61837 0.0
H358 H 0.90295 0.87294 0.51748 0.0
H359 H 0.94441 0.91538 0.50345 0.0
C360 C 0.84834 0.80601 0.57824 0.0
C361 C 0.81839 0.81339 0.59107 0.0
C362 C 0.87249 0.83047 0.57188 0.0
C363 C 0.86727 0.86306 0.57796 0.0
C364 C 0.83763 0.87023 0.59169 0.0
C365 C 0.81352 0.84564 0.59829 0.0
C366 C 0.92376 0.93833 0.58465 0.0
C367 C 0.94028 0.93938 0.55245 0.0
C368 C 0.90015 0.91366 0.59296 0.0
C369 C 0.89236 0.88947 0.56923 0.0
C370 C 0.90873 0.89072 0.53687 0.0
C371 C 0.93241 0.91527 0.52865 0.0
H372 H 0.63584 0.26002 0.06076 0.0
H373 H 0.69538 0.32479 0.98904 0.0
H374 H 0.59832 0.30675 0.06037 0.0
H375 H 0.65783 0.37152 0.98862 0.0
H376 H 0.56475 0.44022 0.96643 0.0
H377 H 0.59999 0.39236 0.96457 0.0
H378 H 0.60046 0.35842 0.08688 0.0
H379 H 0.56439 0.40594 0.08839 0.0
C380 C 0.64095 0.28425 0.04496 0.0
C381 C 0.66867 0.2887 0.02502 0.0
C382 C 0.61948 0.31103 0.0448 0.0
C383 C 0.62519 0.34288 0.02465 0.0
C384 C 0.6525 0.3472 0.00405 0.0
C385 C 0.67399 0.32041 0.00422 0.0
C386 C 0.5722 0.42237 0.99283 0.0
C387 C 0.56187 0.42672 0.02757 0.0
C388 C 0.59261 0.39513 0.99185 0.0
C389 C 0.60306 0.3716 0.02558 0.0
C390 C 0.59252 0.3759 0.0603 0.0
C391 C 0.57213 0.40321 0.06127 0.0
H392 H 0.19714 0.86304 0.2322 0.0
H393 H 0.09539 0.87236 0.16776 0.0
H394 H 0.17516 0.86736 0.29129 0.0
H395 H 0.07353 0.8769 0.2267 0.0
H396 H 0.04968 0.91655 0.33186 0.0
H397 H 0.07318 0.91447 0.27325 0.0
H398 H 0.14126 0.83468 0.33577 0.0
H399 H 0.11844 0.83748 0.3948 0.0
C400 C 0.17009 0.86589 0.23064 0.0
C401 C 0.14804 0.86734 0.1952 0.0
C402 C 0.15751 0.86836 0.26451 0.0
C403 C 0.1226 0.87243 0.26372 0.0
C404 C 0.1006 0.87426 0.22821 0.0
C405 C 0.11316 0.87172 0.19439 0.0
C406 C 0.06993 0.89881 0.33322 0.0
C407 C 0.08224 0.87722 0.36803 0.0
C408 C 0.08315 0.89738 0.29952 0.0
C409 C 0.10905 0.87437 0.29981 0.0
C410 C 0.12154 0.85291 0.33467 0.0
C411 C 0.10822 0.85426 0.36838 0.0
H412 H 0.65977 0.64848 0.82097 0.0
H413 H 0.57897 0.60787 0.74716 0.0
H414 H 0.63464 0.6243 0.87776 0.0
H415 H 0.55498 0.5829 0.80381 0.0
H416 H 0.55172 0.50799 0.91618 0.0
H417 H 0.57663 0.53621 0.86141 0.0
H418 H 0.57773 0.62818 0.90591 0.0
H419 H 0.55122 0.60022 0.96 0.0
C420 C 0.63658 0.63473 0.81671 0.0
C421 C 0.62176 0.62975 0.77939 0.0
C422 C 0.6223 0.62081 0.84927 0.0
C423 C 0.59316 0.60136 0.84516 0.0
C424 C 0.57783 0.59723 0.80788 0.0
C425 C 0.59175 0.61144 0.77543 0.0
C426 C 0.55714 0.53426 0.91434 0.0
C427 C 0.5499 0.55178 0.94283 0.0
C428 C 0.57144 0.55038 0.88296 0.0
C429 C 0.57915 0.58436 0.87946 0.0
C430 C 0.5724 0.60188 0.90815 0.0
C431 C 0.55749 0.58582 0.93927 0.0
H432 H 0.9009 0.05006 0.21943 0.0
H433 H 0.84698 0.12295 0.26277 0.0
H434 H 0.9309 0.0303 0.28488 0.0
H435 H 0.87586 0.10181 0.32831 0.0
H436 H 0.9108 0.02629 0.443 0.0
H437 H 0.87957 0.04423 0.37764 0.0
H438 H 0.97382 0.05917 0.33373 0.0
H439 H 0.00513 0.04297 0.39938 0.0
C440 C 0.8954 0.06193 0.24274 0.0
C441 C 0.87155 0.08829 0.23559 0.0
C442 C 0.91246 0.05042 0.28022 0.0
C443 C 0.90559 0.06458 0.31142 0.0
C444 C 0.88129 0.0903 0.30466 0.0
C445 C 0.86464 0.10223 0.26711 0.0
C446 C 0.92484 0.03406 0.41957 0.0
C447 C 0.96036 0.03416 0.42653 0.0
C448 C 0.90698 0.044 0.38217 0.0
C449 C 0.92438 0.05319 0.35086 0.0
C450 C 0.95989 0.05207 0.35748 0.0
C451 C 0.97774 0.04282 0.39502 0.0
H452 H 0.40297 0.357 0.66382 0.0
H453 H 0.36555 0.44915 0.59011 0.0
H454 H 0.4136 0.38556 0.71953 0.0
H455 H 0.37532 0.47751 0.64556 0.0
H456 H 0.42043 0.52801 0.74325 0.0
H457 H 0.41784 0.49731 0.68993 0.0
H458 H 0.38465 0.41026 0.76158 0.0
H459 H 0.38849 0.44096 0.81541 0.0
C460 C 0.39696 0.38335 0.65958 0.0
C461 C 0.38357 0.40087 0.62255 0.0
C462 C 0.40294 0.39971 0.6915 0.0
C463 C 0.39544 0.43392 0.68715 0.0
C464 C 0.38216 0.45135 0.64999 0.0
C465 C 0.37646 0.43508 0.61811 0.0
C466 C 0.41283 0.50223 0.74761 0.0
C467 C 0.40434 0.48693 0.78327 0.0
C468 C 0.41114 0.48465 0.71701 0.0
C469 C 0.40049 0.45141 0.72112 0.0
C470 C 0.39321 0.43572 0.75739 0.0
C471 C 0.3953 0.45327 0.78823 0.0
H472 H 0.63447 0.65744 0.39794 0.0
H473 H 0.62379 0.56479 0.47492 0.0
H474 H 0.61549 0.63047 0.34224 0.0
H475 H 0.60443 0.53804 0.41923 0.0
H476 H 0.53892 0.51084 0.31085 0.0
H477 H 0.55619 0.53898 0.36597 0.0
H478 H 0.63592 0.58755 0.31002 0.0
H479 H 0.61901 0.55917 0.25515 0.0
C480 C 0.62828 0.63129 0.40302 0.0
C481 C 0.63072 0.61331 0.44098 0.0
C482 C 0.61734 0.61586 0.37108 0.0
C483 C 0.60844 0.58212 0.37631 0.0
C484 C 0.61061 0.5642 0.41422 0.0
C485 C 0.62169 0.57957 0.44615 0.0
C486 C 0.5603 0.52732 0.31041 0.0
C487 C 0.57758 0.53268 0.27852 0.0
C488 C 0.57016 0.54348 0.34199 0.0
C489 C 0.59743 0.56549 0.34238 0.0
C490 C 0.61449 0.57112 0.31037 0.0
C491 C 0.60475 0.55486 0.27888 0.0
H492 H 0.86172 0.17215 0.85113 0.0
H493 H 0.86724 0.06847 0.90524 0.0
H494 H 0.89056 0.15866 0.80021 0.0
H495 H 0.89625 0.0551 0.85458 0.0
H496 H 0.98577 0.05396 0.78828 0.0
H497 H 0.9524 0.06605 0.83594 0.0
H498 H 0.88433 0.12806 0.74517 0.0
H499 H 0.91823 0.11662 0.69759 0.0
C500 C 0.86861 0.14643 0.85184 0.0
C501 C 0.86246 0.12144 0.88244 0.0
C502 C 0.88517 0.1387 0.8227 0.0
C503 C 0.89596 0.10585 0.82359 0.0
C504 C 0.88884 0.08074 0.85351 0.0
C505 C 0.87223 0.08842 0.88253 0.0
C506 C 0.96374 0.07025 0.77854 0.0
C507 C 0.95467 0.08438 0.73921 0.0
C508 C 0.94443 0.07691 0.80576 0.0
C509 C 0.91569 0.09797 0.7943 0.0
C510 C 0.90647 0.11193 0.75492 0.0
C511 C 0.92569 0.10511 0.72765 0.0
H512 H 0.37924 0.43913 0.27958 0.0
H513 H 0.408 0.34018 0.26786 0.0
H514 H 0.40303 0.46238 0.222 0.0
H515 H 0.43116 0.36346 0.20948 0.0
H516 H 0.50557 0.42341 0.13694 0.0
H517 H 0.4795 0.39787 0.19233 0.0
H518 H 0.39342 0.4649 0.15176 0.0
H519 H 0.42015 0.49115 0.09744 0.0
C520 C 0.39057 0.42231 0.26462 0.0
C521 C 0.39187 0.3878 0.27847 0.0
C522 C 0.40391 0.43563 0.23136 0.0
C523 C 0.41904 0.4148 0.21109 0.0
C524 C 0.41997 0.38022 0.22462 0.0
C525 C 0.4064 0.36685 0.25783 0.0
C526 C 0.48114 0.43272 0.14002 0.0
C527 C 0.46492 0.45931 0.11292 0.0
C528 C 0.46602 0.41786 0.17148 0.0
C529 C 0.43436 0.42935 0.17654 0.0
C530 C 0.41797 0.45565 0.149 0.0
C531 C 0.43309 0.47046 0.11759 0.0
H532 H 0.07894 0.88301 0.83171 0.0
H533 H 0.16018 0.95304 0.82727 0.0
H534 H 0.05439 0.90662 0.7652 0.0
H535 H 0.13719 0.97554 0.75978 0.0
H536 H 0.07466 0.02627 0.64703 0.0
H537 H 0.09539 0.00672 0.71555 0.0
H538 H 0.06221 0.9074 0.70229 0.0
H539 H 0.03825 0.92804 0.63528 0.0
C540 C 0.09149 0.9035 0.81624 0.0
C541 C 0.12128 0.91634 0.83433 0.0
C542 C 0.07773 0.91685 0.77798 0.0
C543 C 0.09396 0.94281 0.7566 0.0
C544 C 0.12361 0.95595 0.77524 0.0
C545 C 0.13694 0.94302 0.81385 0.0
C546 C 0.0711 1.00047 0.65909 0.0
C547 C 0.05449 0.9788 0.63579 0.0
C548 C 0.08359 0.98903 0.69829 0.0
C549 C 0.08047 0.95538 0.71488 0.0
C550 C 0.06449 0.93362 0.69109 0.0
C551 C 0.05131 0.94529 0.65225 0.0
loop_
_geom_bond_atom_site_label_1
_geom_bond_atom_site_label_2
_geom_bond_distance
_geom_bond_site_symmetry_2
_ccdc_geom_bond_type
C0 C1 1.384 . S
C0 H13 0.947 . S
C0 C35 1.382 . S
C1 C0 1.384 . S
C1 C2 1.378 . S
C2 C1 1.378 . S
C2 C3 1.378 . S
C2 H14 0.952 . S
C3 C2 1.378 . S
C3 H15 0.950 . S
C3 C34 1.383 . S
H4 C23 0.947 . S
H5 C24 0.946 . S
H6 C26 0.953 . S
H7 C27 0.945 . S
H8 C29 0.952 . S
H9 C30 0.949 . S
H10 C32 0.950 . S
H11 C33 0.948 . S
H12 C35 0.951 . S
H13 C0 0.947 . S
H14 C2 0.952 . S
H15 C3 0.950 . S
N16 C19 1.382 . S
N16 C21 1.363 . S
N17 C19 1.371 1_556 S
N17 C20 1.372 . S
N18 C20 1.361 1_554 S
N18 C21 1.377 . S
C19 N16 1.382 . S
C19 N17 1.371 1_554 S
C19 C22 1.480 . S
C20 N17 1.372 . S
C20 N18 1.361 1_556 S
C20 C28 1.457 . S
C21 N16 1.363 . S
C21 N18 1.377 . S
C21 C34 1.479 . S
C22 C19 1.480 . S
C22 C23 1.383 . S
C22 C27 1.385 1_554 S
C23 H4 0.947 . S
C23 C22 1.383 . S
C23 C24 1.388 . S
C24 H5 0.946 . S
C24 C23 1.388 . S
C24 C25 1.384 . S
C25 C24 1.384 . S
C25 C26 1.377 1_554 S
C26 H6 0.953 . S
C26 C25 1.377 1_556 S
C26 C27 1.369 . S
C27 H7 0.945 . S
C27 C22 1.385 1_556 S
C27 C26 1.369 . S
C28 C20 1.457 . S
C28 C29 1.372 . S
C28 C33 1.364 . S
C29 H8 0.952 . S
C29 C28 1.372 . S
C29 C30 1.389 . S
C30 H9 0.949 . S
C30 C29 1.389 . S
C30 C31 1.387 . S
C31 C30 1.387 . S
C31 C32 1.372 . S
C32 H10 0.950 . S
C32 C31 1.372 . S
C32 C33 1.379 . S
C33 H11 0.948 . S
C33 C28 1.364 . S
C33 C32 1.379 . S
C34 C3 1.383 . S
C34 C21 1.479 . S
C34 C35 1.398 . S
C35 C0 1.382 . S
C35 H12 0.951 . S
C35 C34 1.398 . S
C36 C37 1.384 . S
C36 H49 0.947 . S
C36 C71 1.382 . S
C37 C36 1.384 . S
C37 C38 1.378 . S
C38 C37 1.378 . S
C38 C39 1.378 . S
C38 H50 0.952 . S
C39 C38 1.378 . S
C39 H51 0.950 . S
C39 C70 1.383 . S
H40 C59 0.947 . S
H41 C60 0.946 . S
H42 C62 0.953 . S
H43 C63 0.945 . S
H44 C65 0.952 . S
H45 C66 0.949 . S
H46 C68 0.950 . S
H47 C69 0.948 . S
H48 C71 0.951 . S
H49 C36 0.947 . S
H50 C38 0.952 . S
H51 C39 0.950 . S
N52 C55 1.382 . S
N52 C57 1.363 . S
N53 C55 1.371 . S
N53 C56 1.372 . S
N54 C56 1.361 . S
N54 C57 1.377 . S
C55 N52 1.382 . S
C55 N53 1.371 . S
C55 C58 1.480 . S
C56 N53 1.372 . S
C56 N54 1.361 . S
C56 C64 1.457 . S
C57 N52 1.363 . S
C57 N54 1.377 . S
C57 C70 1.479 . S
C58 C55 1.480 . S
C58 C59 1.383 . S
C58 C63 1.385 . S
C59 H40 0.947 . S
C59 C58 1.383 . S
C59 C60 1.388 . S
C60 H41 0.946 . S
C60 C59 1.388 . S
C60 C61 1.384 . S
C61 C60 1.384 . S
C61 C62 1.377 . S
C62 H42 0.953 . S
C62 C61 1.377 . S
C62 C63 1.369 . S
C63 H43 0.945 . S
C63 C58 1.385 . S
C63 C62 1.369 . S
C64 C56 1.457 . S
C64 C65 1.372 . S
C64 C69 1.364 . S
C65 H44 0.952 . S
C65 C64 1.372 . S
C65 C66 1.389 . S
C66 H45 0.949 . S
C66 C65 1.389 . S
C66 C67 1.387 . S
C67 C66 1.387 . S
C67 C68 1.372 . S
C68 H46 0.950 . S
C68 C67 1.372 . S
C68 C69 1.379 . S
C69 H47 0.948 . S
C69 C64 1.364 . S
C69 C68 1.379 . S
C70 C39 1.383 . S
C70 C57 1.479 . S
C70 C71 1.398 . S
C71 C36 1.382 . S
C71 H48 0.951 . S
C71 C70 1.398 . S
C72 C73 1.384 . S
C72 H85 0.947 . S
C72 C107 1.382 . S
C73 C72 1.384 . S
C73 C74 1.378 . S
C74 C73 1.378 . S
C74 C75 1.378 . S
C74 H86 0.952 . S
C75 C74 1.378 . S
C75 H87 0.950 . S
C75 C106 1.383 . S
H76 C95 0.947 . S
H77 C96 0.946 . S
H78 C98 0.953 . S
H79 C99 0.945 . S
H80 C101 0.952 . S
H81 C102 0.949 . S
H82 C104 0.950 . S
H83 C105 0.948 . S
H84 C107 0.951 1_554 S
H85 C72 0.947 . S
H86 C74 0.952 . S
H87 C75 0.950 . S
N88 C91 1.382 . S
N88 C93 1.363 . S
N89 C91 1.371 . S
N89 C92 1.372 . S
N90 C92 1.361 . S
N90 C93 1.377 . S
C91 N88 1.382 . S
C91 N89 1.371 . S
C91 C94 1.480 . S
C92 N89 1.372 . S
C92 N90 1.361 . S
C92 C100 1.457 . S
C93 N88 1.363 . S
C93 N90 1.377 . S
C93 C106 1.479 1_554 S
C94 C91 1.480 . S
C94 C95 1.383 1_554 S
C94 C99 1.385 . S
C95 H76 0.947 . S
C95 C94 1.383 1_556 S
C95 C96 1.388 . S
C96 H77 0.946 . S
C96 C95 1.388 . S
C96 C97 1.384 1_556 S
C97 C96 1.384 1_554 S
C97 C98 1.377 . S
C98 H78 0.953 . S
C98 C97 1.377 . S
C98 C99 1.369 . S
C99 H79 0.945 . S
C99 C94 1.385 . S
C99 C98 1.369 . S
C100 C92 1.457 . S
C100 C101 1.372 . S
C100 C105 1.364 . S
C101 H80 0.952 . S
C101 C100 1.372 . S
C101 C102 1.389 . S
C102 H81 0.949 . S
C102 C101 1.389 . S
C102 C103 1.387 . S
C103 C102 1.387 . S
C103 C104 1.372 . S
C104 H82 0.950 . S
C104 C103 1.372 . S
C104 C105 1.379 . S
C105 H83 0.948 . S
C105 C100 1.364 . S
C105 C104 1.379 . S
C106 C75 1.383 . S
C106 C93 1.479 1_556 S
C106 C107 1.398 . S
C107 C72 1.382 . S
C107 H84 0.951 1_556 S
C107 C106 1.398 . S
C108 C109 1.384 . S
C108 H121 0.947 . S
C108 C143 1.382 . S
C109 C108 1.384 . S
C109 C110 1.378 . S
C110 C109 1.378 . S
C110 C111 1.378 . S
C110 H122 0.952 . S
C111 C110 1.378 . S
C111 H123 0.950 . S
C111 C142 1.383 . S
H112 C131 0.947 . S
H113 C132 0.946 . S
H114 C134 0.953 . S
H115 C135 0.945 . S
H116 C137 0.952 . S
H117 C138 0.949 . S
H118 C140 0.950 . S
H119 C141 0.948 . S
H120 C143 0.951 . S
H121 C108 0.947 . S
H122 C110 0.952 . S
H123 C111 0.950 . S
N124 C127 1.382 . S
N124 C129 1.363 . S
N125 C127 1.371 . S
N125 C128 1.372 . S
N126 C128 1.361 . S
N126 C129 1.377 . S
C127 N124 1.382 . S
C127 N125 1.371 . S
C127 C130 1.480 . S
C128 N125 1.372 . S
C128 N126 1.361 . S
C128 C136 1.457 . S
C129 N124 1.363 . S
C129 N126 1.377 . S
C129 C142 1.479 . S
C130 C127 1.480 . S
C130 C131 1.383 . S
C130 C135 1.385 . S
C131 H112 0.947 . S
C131 C130 1.383 . S
C131 C132 1.388 . S
C132 H113 0.946 . S
C132 C131 1.388 . S
C132 C133 1.384 . S
C133 C132 1.384 . S
C133 C134 1.377 . S
C134 H114 0.953 . S
C134 C133 1.377 . S
C134 C135 1.369 . S
C135 H115 0.945 . S
C135 C130 1.385 . S
C135 C134 1.369 . S
C136 C128 1.457 . S
C136 C137 1.372 . S
C136 C141 1.364 . S
C137 H116 0.952 . S
C137 C136 1.372 . S
C137 C138 1.389 . S
C138 H117 0.949 . S
C138 C137 1.389 . S
C138 C139 1.387 . S
C139 C138 1.387 . S
C139 C140 1.372 . S
C140 H118 0.950 . S
C140 C139 1.372 . S
C140 C141 1.379 . S
C141 H119 0.948 . S
C141 C136 1.364 . S
C141 C140 1.379 . S
C142 C111 1.383 . S
C142 C129 1.479 . S
C142 C143 1.398 . S
C143 C108 1.382 . S
C143 H120 0.951 . S
C143 C142 1.398 . S
Tb144 N173 2.617 . S
Tb144 N179 2.572 . S
Tb144 O188 2.465 . S
Tb144 O189 2.387 . S
Tb144 O191 2.428 . S
Tb144 O192 2.308 1_565 S
Tb144 O196 2.349 1_455 S
Tb144 O199 2.393 1_455 S
Tb144 C208 2.802 . S
C145 N146 1.379 . S
C145 C148 1.416 . S
C145 C152 1.424 . S
N146 C145 1.379 . S
N146 C149 1.309 1_655 S
N146 Tb155 2.617 . S
C147 C149 1.390 1_655 S
C147 C150 1.339 . S
C147 H167 0.930 1_655 S
C148 C145 1.416 . S
C148 C150 1.416 . S
C148 C154 1.448 . S
C149 N146 1.309 1_455 S
C149 C147 1.390 1_455 S
C149 H160 0.957 . S
C150 C147 1.339 . S
C150 C148 1.416 . S
C150 H171 0.930 . S
C151 C152 1.413 . S
C151 C153 1.427 . S
C151 C157 1.416 . S
C152 C145 1.424 . S
C152 C151 1.413 . S
C152 N156 1.361 . S
C153 C151 1.427 . S
C153 C154 1.328 . S
C153 H168 0.929 . S
C154 C148 1.448 . S
C154 C153 1.328 . S
C154 H169 0.930 . S
Tb155 N146 2.617 . S
Tb155 N156 2.572 . S
Tb155 O190 2.349 1_655 S
Tb155 O193 2.393 1_655 S
Tb155 O194 2.465 . S
Tb155 O195 2.387 . S
Tb155 O197 2.428 . S
Tb155 O198 2.308 1_545 S
Tb155 C219 2.802 . S
N156 C152 1.361 . S
N156 Tb155 2.572 . S
N156 C158 1.340 . S
C157 C151 1.416 . S
C157 C159 1.332 . S
C157 H165 0.931 . S
C158 N156 1.340 . S
C158 C159 1.407 . S
C158 H164 0.930 . S
C159 C157 1.332 . S
C159 C158 1.407 . S
C159 H161 0.929 . S
H160 C149 0.957 . S
H161 C159 0.929 . S
H162 C177 0.930 1_655 S
H163 C184 0.929 . S
H164 C158 0.930 . S
H165 C157 0.931 . S
H166 C180 0.930 . S
H167 C147 0.930 1_455 S
H168 C153 0.929 . S
H169 C154 0.930 . S
H170 C175 0.930 1_655 S
H171 C150 0.930 . S
H172 C183 0.931 . S
N173 Tb144 2.617 . S
N173 C174 1.379 . S
N173 C177 1.334 . S
C174 N173 1.379 . S
C174 C176 1.416 . S
C174 C182 1.424 . S
C175 H170 0.930 1_455 S
C175 C177 1.390 . S
C175 C178 1.339 . S
C176 C174 1.416 . S
C176 C178 1.416 . S
C176 C209 1.448 . S
C177 H162 0.930 1_455 S
C177 N173 1.334 . S
C177 C175 1.390 . S
C178 C175 1.339 . S
C178 C176 1.416 . S
C178 H185 0.930 . S
N179 Tb144 2.572 . S
N179 C180 1.340 . S
N179 C182 1.361 . S
C180 H166 0.930 . S
C180 N179 1.340 . S
C180 C184 1.407 . S
C181 C182 1.413 . S
C181 C183 1.416 . S
C181 C210 1.427 . S
C182 C174 1.424 . S
C182 N179 1.361 . S
C182 C181 1.413 . S
C183 H172 0.931 . S
C183 C181 1.416 . S
C183 C184 1.332 . S
C184 H163 0.929 . S
C184 C180 1.407 . S
C184 C183 1.332 . S
H185 C178 0.930 . S
H186 C209 0.930 . S
H187 C210 0.929 . S
O188 Tb144 2.465 . S
O188 C208 1.264 . S
O189 Tb144 2.387 . S
O189 C200 1.264 . S
O190 Tb155 2.349 1_455 S
O190 C200 1.243 1_545 S
O191 Tb144 2.428 . S
O191 C208 1.256 . S
O192 Tb144 2.308 1_545 S
O192 C207 1.266 . S
O193 Tb155 2.393 1_455 S
O193 C207 1.248 . S
O194 Tb155 2.465 . S
O194 C219 1.264 . S
O195 Tb155 2.387 . S
O195 C211 1.264 . S
O196 Tb144 2.349 1_655 S
O196 C211 1.243 1_565 S
O197 Tb155 2.428 . S
O197 C219 1.256 . S
O198 Tb155 2.308 1_565 S
O198 C218 1.266 . S
O199 Tb144 2.393 1_655 S
O199 C218 1.248 . S
C200 O189 1.264 . S
C200 O190 1.243 1_565 S
C201 C204 1.399 . S
C201 C206 1.383 . S
C201 C208 1.496 . S
C202 C203 1.399 . S
C202 C206 1.389 . S
C203 C202 1.399 . S
C203 C205 1.380 . S
C203 H220 0.929 . S
C204 C201 1.399 . S
C204 C205 1.392 . S
C204 H221 0.929 . S
C205 C203 1.380 . S
C205 C204 1.392 . S
C205 H222 0.929 . S
C206 C201 1.383 . S
C206 C202 1.389 . S
C206 H223 0.931 . S
C207 O192 1.266 . S
C207 O193 1.248 . S
C208 Tb144 2.802 . S
C208 O188 1.264 . S
C208 O191 1.256 . S
C208 C201 1.496 . S
C209 C176 1.448 . S
C209 H186 0.930 . S
C209 C210 1.328 . S
C210 C181 1.427 . S
C210 H187 0.929 . S
C210 C209 1.328 . S
C211 O195 1.264 . S
C211 O196 1.243 1_545 S
C212 C215 1.399 . S
C212 C216 1.383 . S
C212 C219 1.496 . S
C213 C214 1.399 . S
C213 C216 1.389 . S
C214 C213 1.399 . S
C214 C217 1.380 . S
C214 H224 0.929 . S
C215 C212 1.399 . S
C215 C217 1.392 . S
C215 H225 0.929 . S
C216 C212 1.383 . S
C216 C213 1.389 . S
C216 H226 0.931 . S
C217 C214 1.380 . S
C217 C215 1.392 . S
C217 H227 0.929 . S
C218 O198 1.266 . S
C218 O199 1.248 . S
C219 Tb155 2.802 . S
C219 O194 1.264 . S
C219 O197 1.256 . S
C219 C212 1.496 . S
H220 C203 0.929 . S
H221 C204 0.929 . S
H222 C205 0.929 . S
H223 C206 0.931 . S
H224 C214 0.929 . S
H225 C215 0.929 . S
H226 C216 0.931 . S
H227 C217 0.929 . S
Tb228 N257 2.617 . S
Tb228 N263 2.572 1_556 S
Tb228 O272 2.465 . S
Tb228 O273 2.387 1_556 S
Tb228 O275 2.428 . S
Tb228 O276 2.308 1_556 S
Tb228 O280 2.349 . S
Tb228 O283 2.402 . S
Tb228 C292 2.802 . S
C229 N230 1.379 . S
C229 C232 1.416 . S
C229 C236 1.424 . S
N230 C229 1.379 . S
N230 C233 1.334 . S
N230 Tb239 2.617 . S
C231 C233 1.390 . S
C231 C234 1.339 . S
C231 H251 0.930 . S
C232 C229 1.416 . S
C232 C234 1.416 . S
C232 C238 1.448 . S
C233 N230 1.334 . S
C233 C231 1.390 . S
C233 H244 0.930 . S
C234 C231 1.339 . S
C234 C232 1.416 . S
C234 H255 0.930 . S
C235 C236 1.413 . S
C235 C237 1.427 . S
C235 C241 1.416 . S
C236 C229 1.424 . S
C236 C235 1.413 . S
C236 N240 1.361 . S
C237 C235 1.427 . S
C237 C238 1.328 . S
C237 H252 0.929 . S
C238 C232 1.448 . S
C238 C237 1.328 . S
C238 H253 0.930 . S
Tb239 N230 2.617 . S
Tb239 N240 2.572 . S
Tb239 O274 2.349 . S
Tb239 O277 2.393 . S
Tb239 O278 2.465 . S
Tb239 O279 2.387 1_554 S
Tb239 O281 2.428 . S
Tb239 O282 2.308 . S
Tb239 C303 2.802 . S
N240 C236 1.361 . S
N240 Tb239 2.572 . S
N240 C242 1.340 . S
C241 C235 1.416 . S
C241 C243 1.332 . S
C241 H249 0.931 . S
C242 N240 1.340 . S
C242 C243 1.407 . S
C242 H248 0.930 . S
C243 C241 1.332 . S
C243 C242 1.407 . S
C243 H245 0.929 . S
H244 C233 0.930 . S
H245 C243 0.929 . S
H246 C261 0.930 . S
H247 C268 0.929 . S
H248 C242 0.930 . S
H249 C241 0.931 . S
H250 C264 0.930 . S
H251 C231 0.930 . S
H252 C237 0.929 . S
H253 C238 0.930 . S
H254 C259 0.930 . S
H255 C234 0.930 . S
H256 C267 0.931 . S
N257 Tb228 2.617 . S
N257 C258 1.379 1_556 S
N257 C261 1.334 . S
C258 N257 1.379 1_554 S
C258 C260 1.416 . S
C258 C266 1.424 . S
C259 H254 0.930 . S
C259 C261 1.390 . S
C259 C262 1.339 1_556 S
C260 C258 1.416 . S
C260 C262 1.416 . S
C260 C293 1.448 . S
C261 H246 0.930 . S
C261 N257 1.334 . S
C261 C259 1.390 . S
C262 C259 1.339 1_554 S
C262 C260 1.416 . S
C262 H269 0.930 . S
N263 Tb228 2.572 1_554 S
N263 C264 1.340 . S
N263 C266 1.361 . S
C264 H250 0.930 . S
C264 N263 1.340 . S
C264 C268 1.407 . S
C265 C266 1.413 . S
C265 C267 1.416 . S
C265 C294 1.427 . S
C266 C258 1.424 . S
C266 N263 1.361 . S
C266 C265 1.413 . S
C267 H256 0.931 . S
C267 C265 1.416 . S
C267 C268 1.332 . S
C268 H247 0.929 . S
C268 C264 1.407 . S
C268 C267 1.332 . S
H269 C262 0.930 . S
H270 C293 0.930 . S
H271 C294 0.929 . S
O272 Tb228 2.465 . S
O272 C292 1.264 . S
O273 Tb228 2.387 1_554 S
O273 C284 1.264 . S
O274 Tb239 2.349 . S
O274 C284 1.243 . S
O275 Tb228 2.428 . S
O275 C292 1.256 . S
O276 Tb228 2.308 1_554 S
O276 C291 1.266 . S
O277 Tb239 2.393 . S
O277 C291 1.248 . S
O278 Tb239 2.465 . S
O278 C303 1.264 . S
O279 Tb239 2.387 1_556 S
O279 C295 1.264 . S
O280 Tb228 2.349 . S
O280 C295 1.243 . S
O281 Tb239 2.428 . S
O281 C303 1.256 . S
O282 Tb239 2.308 . S
O282 C302 1.266 . S
O283 Tb228 2.402 . S
O283 C302 1.226 1_556 S
C284 O273 1.264 . S
C284 O274 1.243 . S
C285 C288 1.399 . S
C285 C290 1.383 . S
C285 C292 1.496 . S
C286 C287 1.399 . S
C286 C290 1.389 . S
C287 C286 1.399 . S
C287 C289 1.380 . S
C287 H304 0.929 . S
C288 C285 1.399 . S
C288 C289 1.392 . S
C288 H305 0.929 . S
C289 C287 1.380 . S
C289 C288 1.392 . S
C289 H306 0.929 . S
C290 C285 1.383 . S
C290 C286 1.389 . S
C290 H307 0.931 . S
C291 O276 1.266 . S
C291 O277 1.248 . S
C292 Tb228 2.802 . S
C292 O272 1.264 . S
C292 O275 1.256 . S
C292 C285 1.496 . S
C293 C260 1.448 . S
C293 H270 0.930 . S
C293 C294 1.328 . S
C294 C265 1.427 . S
C294 H271 0.929 . S
C294 C293 1.328 . S
C295 O279 1.264 . S
C295 O280 1.243 . S
C296 C299 1.399 . S
C296 C300 1.383 . S
C296 C303 1.496 . S
C297 C298 1.399 . S
C297 C300 1.389 . S
C298 C297 1.399 . S
C298 C301 1.380 . S
C298 H308 0.929 . S
C299 C296 1.399 . S
C299 C301 1.392 . S
C299 H309 0.929 . S
C300 C296 1.383 . S
C300 C297 1.389 . S
C300 H310 0.931 . S
C301 C298 1.380 . S
C301 C299 1.392 . S
C301 H311 0.929 . S
C302 O282 1.266 . S
C302 O283 1.226 1_554 S
C303 Tb239 2.802 . S
C303 O278 1.264 . S
C303 O281 1.256 . S
C303 C296 1.496 . S
H304 C287 0.929 . S
H305 C288 0.929 . S
H306 C289 0.929 . S
H307 C290 0.931 . S
H308 C298 0.929 . S
H309 C299 0.929 . S
H310 C300 0.931 . S
H311 C301 0.929 . S
H312 C320 0.950 . S
H313 C325 0.950 . S
H314 C322 0.950 . S
H315 C324 0.950 . S
H316 C326 0.950 . S
H317 C328 0.950 . S
H318 C330 0.950 . S
H319 C331 0.950 . S
C320 H312 0.950 . S
C320 C321 1.386 . S
C320 C322 1.391 . S
C321 C320 1.386 . S
C321 C325 1.393 . S
C322 H314 0.950 . S
C322 C320 1.391 . S
C322 C323 1.400 . S
C323 C322 1.400 . S
C323 C324 1.398 . S
C323 C329 1.491 . S
C324 H315 0.950 . S
C324 C323 1.398 . S
C324 C325 1.391 . S
C325 H313 0.950 . S
C325 C321 1.393 . S
C325 C324 1.391 . S
C326 H316 0.950 . S
C326 C327 1.386 . S
C326 C328 1.391 . S
C327 C326 1.386 . S
C327 C331 1.393 . S
C328 H317 0.950 . S
C328 C326 1.391 . S
C328 C329 1.400 . S
C329 C323 1.491 . S
C329 C328 1.400 . S
C329 C330 1.398 . S
C330 H318 0.950 . S
C330 C329 1.398 . S
C330 C331 1.391 . S
C331 H319 0.950 . S
C331 C327 1.393 . S
C331 C330 1.391 . S
H332 C340 0.950 . S
H333 C345 0.950 . S
H334 C342 0.950 . S
H335 C344 0.950 . S
H336 C346 0.950 . S
H337 C348 0.950 . S
H338 C350 0.950 . S
H339 C351 0.950 . S
C340 H332 0.950 . S
C340 C341 1.386 . S
C340 C342 1.391 . S
C341 C340 1.386 . S
C341 C345 1.393 . S
C342 H334 0.950 . S
C342 C340 1.391 . S
C342 C343 1.400 . S
C343 C342 1.400 . S
C343 C344 1.398 . S
C343 C349 1.491 . S
C344 H335 0.950 . S
C344 C343 1.398 . S
C344 C345 1.391 . S
C345 H333 0.950 . S
C345 C341 1.393 . S
C345 C344 1.391 . S
C346 H336 0.950 . S
C346 C347 1.386 . S
C346 C348 1.391 . S
C347 C346 1.386 . S
C347 C351 1.393 . S
C348 H337 0.950 . S
C348 C346 1.391 . S
C348 C349 1.400 . S
C349 C343 1.491 . S
C349 C348 1.400 . S
C349 C350 1.398 . S
C350 H338 0.950 . S
C350 C349 1.398 . S
C350 C351 1.391 . S
C351 H339 0.950 . S
C351 C347 1.393 . S
C351 C350 1.391 . S
H352 C360 0.950 . S
H353 C365 0.950 . S
H354 C362 0.950 . S
H355 C364 0.950 . S
H356 C366 0.950 . S
H357 C368 0.950 . S
H358 C370 0.950 . S
H359 C371 0.950 . S
C360 H352 0.950 . S
C360 C361 1.386 . S
C360 C362 1.391 . S
C361 C360 1.386 . S
C361 C365 1.393 . S
C362 H354 0.950 . S
C362 C360 1.391 . S
C362 C363 1.400 . S
C363 C362 1.400 . S
C363 C364 1.398 . S
C363 C369 1.491 . S
C364 H355 0.950 . S
C364 C363 1.398 . S
C364 C365 1.391 . S
C365 H353 0.950 . S
C365 C361 1.393 . S
C365 C364 1.391 . S
C366 H356 0.950 . S
C366 C367 1.386 . S
C366 C368 1.391 . S
C367 C366 1.386 . S
C367 C371 1.393 . S
C368 H357 0.950 . S
C368 C366 1.391 . S
C368 C369 1.400 . S
C369 C363 1.491 . S
C369 C368 1.400 . S
C369 C370 1.398 . S
C370 H358 0.950 . S
C370 C369 1.398 . S
C370 C371 1.391 . S
C371 H359 0.950 . S
C371 C367 1.393 . S
C371 C370 1.391 . S
H372 C380 0.950 . S
H373 C385 0.950 . S
H374 C382 0.950 . S
H375 C384 0.950 . S
H376 C386 0.950 . S
H377 C388 0.950 . S
H378 C390 0.950 . S
H379 C391 0.950 . S
C380 H372 0.950 . S
C380 C381 1.386 . S
C380 C382 1.391 . S
C381 C380 1.386 . S
C381 C385 1.393 . S
C382 H374 0.950 . S
C382 C380 1.391 . S
C382 C383 1.400 . S
C383 C382 1.400 . S
C383 C384 1.398 . S
C383 C389 1.491 . S
C384 H375 0.950 . S
C384 C383 1.398 . S
C384 C385 1.391 . S
C385 H373 0.950 . S
C385 C381 1.393 . S
C385 C384 1.391 . S
C386 H376 0.950 . S
C386 C387 1.386 . S
C386 C388 1.391 . S
C387 C386 1.386 . S
C387 C391 1.393 . S
C388 H377 0.950 . S
C388 C386 1.391 . S
C388 C389 1.400 . S
C389 C383 1.491 . S
C389 C388 1.400 . S
C389 C390 1.398 . S
C390 H378 0.950 . S
C390 C389 1.398 . S
C390 C391 1.391 . S
C391 H379 0.950 . S
C391 C387 1.393 . S
C391 C390 1.391 . S
H392 C400 0.950 . S
H393 C405 0.950 . S
H394 C402 0.950 . S
H395 C404 0.950 . S
H396 C406 0.950 . S
H397 C408 0.950 . S
H398 C410 0.950 . S
H399 C411 0.950 . S
C400 H392 0.950 . S
C400 C401 1.386 . S
C400 C402 1.391 . S
C401 C400 1.386 . S
C401 C405 1.393 . S
C402 H394 0.950 . S
C402 C400 1.391 . S
C402 C403 1.400 . S
C403 C402 1.400 . S
C403 C404 1.398 . S
C403 C409 1.491 . S
C404 H395 0.950 . S
C404 C403 1.398 . S
C404 C405 1.391 . S
C405 H393 0.950 . S
C405 C401 1.393 . S
C405 C404 1.391 . S
C406 H396 0.950 . S
C406 C407 1.386 . S
C406 C408 1.391 . S
C407 C406 1.386 . S
C407 C411 1.393 . S
C408 H397 0.950 . S
C408 C406 1.391 . S
C408 C409 1.400 . S
C409 C403 1.491 . S
C409 C408 1.400 . S
C409 C410 1.398 . S
C410 H398 0.950 . S
C410 C409 1.398 . S
C410 C411 1.391 . S
C411 H399 0.950 . S
C411 C407 1.393 . S
C411 C410 1.391 . S
H412 C420 0.950 . S
H413 C425 0.950 . S
H414 C422 0.950 . S
H415 C424 0.950 . S
H416 C426 0.950 . S
H417 C428 0.950 . S
H418 C430 0.950 . S
H419 C431 0.950 . S
C420 H412 0.950 . S
C420 C421 1.386 . S
C420 C422 1.391 . S
C421 C420 1.386 . S
C421 C425 1.393 . S
C422 H414 0.950 . S
C422 C420 1.391 . S
C422 C423 1.400 . S
C423 C422 1.400 . S
C423 C424 1.398 . S
C423 C429 1.491 . S
C424 H415 0.950 . S
C424 C423 1.398 . S
C424 C425 1.391 . S
C425 H413 0.950 . S
C425 C421 1.393 . S
C425 C424 1.391 . S
C426 H416 0.950 . S
C426 C427 1.386 . S
C426 C428 1.391 . S
C427 C426 1.386 . S
C427 C431 1.393 . S
C428 H417 0.950 . S
C428 C426 1.391 . S
C428 C429 1.400 . S
C429 C423 1.491 . S
C429 C428 1.400 . S
C429 C430 1.398 . S
C430 H418 0.950 . S
C430 C429 1.398 . S
C430 C431 1.391 . S
C431 H419 0.950 . S
C431 C427 1.393 . S
C431 C430 1.391 . S
H432 C440 0.950 . S
H433 C445 0.950 . S
H434 C442 0.950 . S
H435 C444 0.950 . S
H436 C446 0.950 . S
H437 C448 0.950 . S
H438 C450 0.950 1_565 S
H439 C451 0.950 1_565 S
C440 H432 0.950 . S
C440 C441 1.386 . S
C440 C442 1.391 . S
C441 C440 1.386 . S
C441 C445 1.393 . S
C442 H434 0.950 . S
C442 C440 1.391 . S
C442 C443 1.400 . S
C443 C442 1.400 . S
C443 C444 1.398 . S
C443 C449 1.491 . S
C444 H435 0.950 . S
C444 C443 1.398 . S
C444 C445 1.391 . S
C445 H433 0.950 . S
C445 C441 1.393 . S
C445 C444 1.391 . S
C446 H436 0.950 . S
C446 C447 1.386 . S
C446 C448 1.391 . S
C447 C446 1.386 . S
C447 C451 1.393 . S
C448 H437 0.950 . S
C448 C446 1.391 . S
C448 C449 1.400 . S
C449 C443 1.491 . S
C449 C448 1.400 . S
C449 C450 1.398 . S
C450 H438 0.950 1_545 S
C450 C449 1.398 . S
C450 C451 1.391 . S
C451 H439 0.950 1_545 S
C451 C447 1.393 . S
C451 C450 1.391 . S
H452 C460 0.950 . S
H453 C465 0.950 . S
H454 C462 0.950 . S
H455 C464 0.950 . S
H456 C466 0.950 . S
H457 C468 0.950 . S
H458 C470 0.950 . S
H459 C471 0.950 . S
C460 H452 0.950 . S
C460 C461 1.386 . S
C460 C462 1.391 . S
C461 C460 1.386 . S
C461 C465 1.393 . S
C462 H454 0.950 . S
C462 C460 1.391 . S
C462 C463 1.400 . S
C463 C462 1.400 . S
C463 C464 1.398 . S
C463 C469 1.491 . S
C464 H455 0.950 . S
C464 C463 1.398 . S
C464 C465 1.391 . S
C465 H453 0.950 . S
C465 C461 1.393 . S
C465 C464 1.391 . S
C466 H456 0.950 . S
C466 C467 1.386 . S
C466 C468 1.391 . S
C467 C466 1.386 . S
C467 C471 1.393 . S
C468 H457 0.950 . S
C468 C466 1.391 . S
C468 C469 1.400 . S
C469 C463 1.491 . S
C469 C468 1.400 . S
C469 C470 1.398 . S
C470 H458 0.950 . S
C470 C469 1.398 . S
C470 C471 1.391 . S
C471 H459 0.950 . S
C471 C467 1.393 . S
C471 C470 1.391 . S
H472 C480 0.950 . S
H473 C485 0.950 . S
H474 C482 0.950 . S
H475 C484 0.950 . S
H476 C486 0.950 . S
H477 C488 0.950 . S
H478 C490 0.950 . S
H479 C491 0.950 . S
C480 H472 0.950 . S
C480 C481 1.386 . S
C480 C482 1.391 . S
C481 C480 1.386 . S
C481 C485 1.393 . S
C482 H474 0.950 . S
C482 C480 1.391 . S
C482 C483 1.400 . S
C483 C482 1.400 . S
C483 C484 1.398 . S
C483 C489 1.491 . S
C484 H475 0.950 . S
C484 C483 1.398 . S
C484 C485 1.391 . S
C485 H473 0.950 . S
C485 C481 1.393 . S
C485 C484 1.391 . S
C486 H476 0.950 . S
C486 C487 1.386 . S
C486 C488 1.391 . S
C487 C486 1.386 . S
C487 C491 1.393 . S
C488 H477 0.950 . S
C488 C486 1.391 . S
C488 C489 1.400 . S
C489 C483 1.491 . S
C489 C488 1.400 . S
C489 C490 1.398 . S
C490 H478 0.950 . S
C490 C489 1.398 . S
C490 C491 1.391 . S
C491 H479 0.950 . S
C491 C487 1.393 . S
C491 C490 1.391 . S
H492 C500 0.950 . S
H493 C505 0.950 . S
H494 C502 0.950 . S
H495 C504 0.950 . S
H496 C506 0.950 . S
H497 C508 0.950 . S
H498 C510 0.950 . S
H499 C511 0.950 . S
C500 H492 0.950 . S
C500 C501 1.386 . S
C500 C502 1.391 . S
C501 C500 1.386 . S
C501 C505 1.393 . S
C502 H494 0.950 . S
C502 C500 1.391 . S
C502 C503 1.400 . S
C503 C502 1.400 . S
C503 C504 1.398 . S
C503 C509 1.491 . S
C504 H495 0.950 . S
C504 C503 1.398 . S
C504 C505 1.391 . S
C505 H493 0.950 . S
C505 C501 1.393 . S
C505 C504 1.391 . S
C506 H496 0.950 . S
C506 C507 1.386 . S
C506 C508 1.391 . S
C507 C506 1.386 . S
C507 C511 1.393 . S
C508 H497 0.950 . S
C508 C506 1.391 . S
C508 C509 1.400 . S
C509 C503 1.491 . S
C509 C508 1.400 . S
C509 C510 1.398 . S
C510 H498 0.950 . S
C510 C509 1.398 . S
C510 C511 1.391 . S
C511 H499 0.950 . S
C511 C507 1.393 . S
C511 C510 1.391 . S
H512 C520 0.950 . S
H513 C525 0.950 . S
H514 C522 0.950 . S
H515 C524 0.950 . S
H516 C526 0.950 . S
H517 C528 0.950 . S
H518 C530 0.950 . S
H519 C531 0.950 . S
C520 H512 0.950 . S
C520 C521 1.386 . S
C520 C522 1.391 . S
C521 C520 1.386 . S
C521 C525 1.393 . S
C522 H514 0.950 . S
C522 C520 1.391 . S
C522 C523 1.400 . S
C523 C522 1.400 . S
C523 C524 1.398 . S
C523 C529 1.491 . S
C524 H515 0.950 . S
C524 C523 1.398 . S
C524 C525 1.391 . S
C525 H513 0.950 . S
C525 C521 1.393 . S
C525 C524 1.391 . S
C526 H516 0.950 . S
C526 C527 1.386 . S
C526 C528 1.391 . S
C527 C526 1.386 . S
C527 C531 1.393 . S
C528 H517 0.950 . S
C528 C526 1.391 . S
C528 C529 1.400 . S
C529 C523 1.491 . S
C529 C528 1.400 . S
C529 C530 1.398 . S
C530 H518 0.950 . S
C530 C529 1.398 . S
C530 C531 1.391 . S
C531 H519 0.950 . S
C531 C527 1.393 . S
C531 C530 1.391 . S
H532 C540 0.950 . S
H533 C545 0.950 . S
H534 C542 0.950 . S
H535 C544 0.950 1_545 S
H536 C546 0.950 1_545 S
H537 C548 0.950 1_545 S
H538 C550 0.950 . S
H539 C551 0.950 . S
C540 H532 0.950 . S
C540 C541 1.386 . S
C540 C542 1.391 . S
C541 C540 1.386 . S
C541 C545 1.393 . S
C542 H534 0.950 . S
C542 C540 1.391 . S
C542 C543 1.400 . S
C543 C542 1.400 . S
C543 C544 1.398 . S
C543 C549 1.491 . S
C544 H535 0.950 1_565 S
C544 C543 1.398 . S
C544 C545 1.391 . S
C545 H533 0.950 . S
C545 C541 1.393 . S
C545 C544 1.391 . S
C546 H536 0.950 1_565 S
C546 C547 1.386 . S
C546 C548 1.391 . S
C547 C546 1.386 . S
C547 C551 1.393 . S
C548 H537 0.950 1_565 S
C548 C546 1.391 . S
C548 C549 1.400 . S
C549 C543 1.491 . S
C549 C548 1.400 . S
C549 C550 1.398 . S
C550 H538 0.950 . S
C550 C549 1.398 . S
C550 C551 1.391 . S
C551 H539 0.950 . S
C551 C547 1.393 . S
C551 C550 1.391 . S
C327 C207 1.636 . S
C321 C133 1.639 . S
C341 C25 1.619 . S
C347 C302 1.624 . S
C361 C61 1.620 . S
C367 C218 1.636 . S
C381 C97 1.581 . S
C387 C291 1.624 . S
C407 C202 1.405 . S
C401 C1 1.559 . S
C427 C295 1.610 . S
C421 C67 1.587 . S
C441 C103 1.572 . S
C447 C211 1.617 . S
C461 C109 1.539 . S
C467 C286 1.384 . S
C487 C297 1.422 . S
C481 C37 1.521 . S
C507 C213 1.415 . S
C501 C73 1.542 . S
C527 C284 1.610 . S
C521 C139 1.599 . S
C541 C31 1.610 . S
C547 C200 1.617 . S
