# Generated by pormake.
# Topology ptr, (4,4)-cn, num edge types: 1
# Building blocks:
#     Node 0, Type 0, BuildingBlock: GALJAG_clean_sbu_0, # of connection points: 4
#     Node 1, Type 0, BuildingBlock: GALJAG_clean_sbu_0, # of connection points: 4
#     Node 2, Type 0, BuildingBlock: GALJAG_clean_sbu_0, # of connection points: 4
#     Node 3, Type 0, BuildingBlock: GALJAG_clean_sbu_0, # of connection points: 4
#     Node 4, Type 0, BuildingBlock: GALJAG_clean_sbu_0, # of connection points: 4
#     Node 5, Type 0, BuildingBlock: GALJAG_clean_sbu_0, # of connection points: 4
#     Node 6, Type 0, BuildingBlock: GALJAG_clean_sbu_0, # of connection points: 4
#     Node 7, Type 0, BuildingBlock: GALJAG_clean_sbu_0, # of connection points: 4
#     Node 8, Type 0, BuildingBlock: GALJAG_clean_sbu_0, # of connection points: 4
#     Node 9, Type 0, BuildingBlock: GALJAG_clean_sbu_0, # of connection points: 4
#     Node 10, Type 0, BuildingBlock: GALJAG_clean_sbu_0, # of connection points: 4
#     Node 11, Type 0, BuildingBlock: GALJAG_clean_sbu_0, # of connection points: 4
#     Node 12, Type 0, BuildingBlock: GALJAG_clean_sbu_0, # of connection points: 4
#     Node 13, Type 0, BuildingBlock: GALJAG_clean_sbu_0, # of connection points: 4
#     Node 14, Type 0, BuildingBlock: GALJAG_clean_sbu_0, # of connection points: 4
#     Node 15, Type 0, BuildingBlock: GALJAG_clean_sbu_0, # of connection points: 4
#     Node 16, Type 0, BuildingBlock: GALJAG_clean_sbu_0, # of connection points: 4
#     Node 17, Type 0, BuildingBlock: GALJAG_clean_sbu_0, # of connection points: 4
#     Node 18, Type 1, BuildingBlock: GIZVER_clean_linker_0, # of connection points: 4
#     Node 19, Type 1, BuildingBlock: GIZVER_clean_linker_0, # of connection points: 4
#     Node 20, Type 1, BuildingBlock: GIZVER_clean_linker_0, # of connection points: 4
#     Node 21, Type 1, BuildingBlock: GIZVER_clean_linker_0, # of connection points: 4
#     Node 22, Type 1, BuildingBlock: GIZVER_clean_linker_0, # of connection points: 4
#     Node 23, Type 1, BuildingBlock: GIZVER_clean_linker_0, # of connection points: 4
#     Node 24, Type 1, BuildingBlock: GIZVER_clean_linker_0, # of connection points: 4
#     Node 25, Type 1, BuildingBlock: GIZVER_clean_linker_0, # of connection points: 4
#     Node 26, Type 1, BuildingBlock: GIZVER_clean_linker_0, # of connection points: 4
#     Node 27, Type 1, BuildingBlock: GIZVER_clean_linker_0, # of connection points: 4
#     Node 28, Type 1, BuildingBlock: GIZVER_clean_linker_0, # of connection points: 4
#     Node 29, Type 1, BuildingBlock: GIZVER_clean_linker_0, # of connection points: 4
#     Node 30, Type 1, BuildingBlock: GIZVER_clean_linker_0, # of connection points: 4
#     Node 31, Type 1, BuildingBlock: GIZVER_clean_linker_0, # of connection points: 4
#     Node 32, Type 1, BuildingBlock: GIZVER_clean_linker_0, # of connection points: 4
#     Node 33, Type 1, BuildingBlock: GIZVER_clean_linker_0, # of connection points: 4
#     Node 34, Type 1, BuildingBlock: GIZVER_clean_linker_0, # of connection points: 4
#     Node 35, Type 1, BuildingBlock: GIZVER_clean_linker_0, # of connection points: 4
#     Edge 36, Type (0, 1), BuildingBlock: CIFDUS_clean_linker_0, # of connection points: 2
#     Edge 37, Type (0, 1), BuildingBlock: CIFDUS_clean_linker_0, # of connection points: 2
#     Edge 38, Type (0, 1), BuildingBlock: CIFDUS_clean_linker_0, # of connection points: 2
#     Edge 39, Type (0, 1), BuildingBlock: CIFDUS_clean_linker_0, # of connection points: 2
#     Edge 40, Type (0, 1), BuildingBlock: CIFDUS_clean_linker_0, # of connection points: 2
#     Edge 41, Type (0, 1), BuildingBlock: CIFDUS_clean_linker_0, # of connection points: 2
#     Edge 42, Type (0, 1), BuildingBlock: CIFDUS_clean_linker_0, # of connection points: 2
#     Edge 43, Type (0, 1), BuildingBlock: CIFDUS_clean_linker_0, # of connection points: 2
#     Edge 44, Type (0, 1), BuildingBlock: CIFDUS_clean_linker_0, # of connection points: 2
#     Edge 45, Type (0, 1), BuildingBlock: CIFDUS_clean_linker_0, # of connection points: 2
#     Edge 46, Type (0, 1), BuildingBlock: CIFDUS_clean_linker_0, # of connection points: 2
#     Edge 47, Type (0, 1), BuildingBlock: CIFDUS_clean_linker_0, # of connection points: 2
#     Edge 48, Type (0, 1), BuildingBlock: CIFDUS_clean_linker_0, # of connection points: 2
#     Edge 49, Type (0, 1), BuildingBlock: CIFDUS_clean_linker_0, # of connection points: 2
#     Edge 50, Type (0, 1), BuildingBlock: CIFDUS_clean_linker_0, # of connection points: 2
#     Edge 51, Type (0, 1), BuildingBlock: CIFDUS_clean_linker_0, # of connection points: 2
#     Edge 52, Type (0, 1), BuildingBlock: CIFDUS_clean_linker_0, # of connection points: 2
#     Edge 53, Type (0, 1), BuildingBlock: CIFDUS_clean_linker_0, # of connection points: 2
#     Edge 54, Type (0, 1), BuildingBlock: CIFDUS_clean_linker_0, # of connection points: 2
#     Edge 55, Type (0, 1), BuildingBlock: CIFDUS_clean_linker_0, # of connection points: 2
#     Edge 56, Type (0, 1), BuildingBlock: CIFDUS_clean_linker_0, # of connection points: 2
#     Edge 57, Type (0, 1), BuildingBlock: CIFDUS_clean_linker_0, # of connection points: 2
#     Edge 58, Type (0, 1), BuildingBlock: CIFDUS_clean_linker_0, # of connection points: 2
#     Edge 59, Type (0, 1), BuildingBlock: CIFDUS_clean_linker_0, # of connection points: 2
#     Edge 60, Type (0, 1), BuildingBlock: CIFDUS_clean_linker_0, # of connection points: 2
#     Edge 61, Type (0, 1), BuildingBlock: CIFDUS_clean_linker_0, # of connection points: 2
#     Edge 62, Type (0, 1), BuildingBlock: CIFDUS_clean_linker_0, # of connection points: 2
#     Edge 63, Type (0, 1), BuildingBlock: CIFDUS_clean_linker_0, # of connection points: 2
#     Edge 64, Type (0, 1), BuildingBlock: CIFDUS_clean_linker_0, # of connection points: 2
#     Edge 65, Type (0, 1), BuildingBlock: CIFDUS_clean_linker_0, # of connection points: 2
#     Edge 66, Type (0, 1), BuildingBlock: CIFDUS_clean_linker_0, # of connection points: 2
#     Edge 67, Type (0, 1), BuildingBlock: CIFDUS_clean_linker_0, # of connection points: 2
#     Edge 68, Type (0, 1), BuildingBlock: CIFDUS_clean_linker_0, # of connection points: 2
#     Edge 69, Type (0, 1), BuildingBlock: CIFDUS_clean_linker_0, # of connection points: 2
#     Edge 70, Type (0, 1), BuildingBlock: CIFDUS_clean_linker_0, # of connection points: 2
#     Edge 71, Type (0, 1), BuildingBlock: CIFDUS_clean_linker_0, # of connection points: 2
#     Edge 72, Type (0, 1), BuildingBlock: CIFDUS_clean_linker_0, # of connection points: 2
#     Edge 73, Type (0, 1), BuildingBlock: CIFDUS_clean_linker_0, # of connection points: 2
#     Edge 74, Type (0, 1), BuildingBlock: CIFDUS_clean_linker_0, # of connection points: 2
#     Edge 75, Type (0, 1), BuildingBlock: CIFDUS_clean_linker_0, # of connection points: 2
#     Edge 76, Type (0, 1), BuildingBlock: CIFDUS_clean_linker_0, # of connection points: 2
#     Edge 77, Type (0, 1), BuildingBlock: CIFDUS_clean_linker_0, # of connection points: 2
#     Edge 78, Type (0, 1), BuildingBlock: CIFDUS_clean_linker_0, # of connection points: 2
#     Edge 79, Type (0, 1), BuildingBlock: CIFDUS_clean_linker_0, # of connection points: 2
#     Edge 80, Type (0, 1), BuildingBlock: CIFDUS_clean_linker_0, # of connection points: 2
#     Edge 81, Type (0, 1), BuildingBlock: CIFDUS_clean_linker_0, # of connection points: 2
#     Edge 82, Type (0, 1), BuildingBlock: CIFDUS_clean_linker_0, # of connection points: 2
#     Edge 83, Type (0, 1), BuildingBlock: CIFDUS_clean_linker_0, # of connection points: 2
#     Edge 84, Type (0, 1), BuildingBlock: CIFDUS_clean_linker_0, # of connection points: 2
#     Edge 85, Type (0, 1), BuildingBlock: CIFDUS_clean_linker_0, # of connection points: 2
#     Edge 86, Type (0, 1), BuildingBlock: CIFDUS_clean_linker_0, # of connection points: 2
#     Edge 87, Type (0, 1), BuildingBlock: CIFDUS_clean_linker_0, # of connection points: 2
#     Edge 88, Type (0, 1), BuildingBlock: CIFDUS_clean_linker_0, # of connection points: 2
#     Edge 89, Type (0, 1), BuildingBlock: CIFDUS_clean_linker_0, # of connection points: 2
#     Edge 90, Type (0, 1), BuildingBlock: CIFDUS_clean_linker_0, # of connection points: 2
#     Edge 91, Type (0, 1), BuildingBlock: CIFDUS_clean_linker_0, # of connection points: 2
#     Edge 92, Type (0, 1), BuildingBlock: CIFDUS_clean_linker_0, # of connection points: 2
#     Edge 93, Type (0, 1), BuildingBlock: CIFDUS_clean_linker_0, # of connection points: 2
#     Edge 94, Type (0, 1), BuildingBlock: CIFDUS_clean_linker_0, # of connection points: 2
#     Edge 95, Type (0, 1), BuildingBlock: CIFDUS_clean_linker_0, # of connection points: 2
#     Edge 96, Type (0, 1), BuildingBlock: CIFDUS_clean_linker_0, # of connection points: 2
#     Edge 97, Type (0, 1), BuildingBlock: CIFDUS_clean_linker_0, # of connection points: 2
#     Edge 98, Type (0, 1), BuildingBlock: CIFDUS_clean_linker_0, # of connection points: 2
#     Edge 99, Type (0, 1), BuildingBlock: CIFDUS_clean_linker_0, # of connection points: 2
#     Edge 100, Type (0, 1), BuildingBlock: CIFDUS_clean_linker_0, # of connection points: 2
#     Edge 101, Type (0, 1), BuildingBlock: CIFDUS_clean_linker_0, # of connection points: 2
#     Edge 102, Type (0, 1), BuildingBlock: CIFDUS_clean_linker_0, # of connection points: 2
#     Edge 103, Type (0, 1), BuildingBlock: CIFDUS_clean_linker_0, # of connection points: 2
#     Edge 104, Type (0, 1), BuildingBlock: CIFDUS_clean_linker_0, # of connection points: 2
#     Edge 105, Type (0, 1), BuildingBlock: CIFDUS_clean_linker_0, # of connection points: 2
#     Edge 106, Type (0, 1), BuildingBlock: CIFDUS_clean_linker_0, # of connection points: 2
#     Edge 107, Type (0, 1), BuildingBlock: CIFDUS_clean_linker_0, # of connection points: 2
# Relax obj value: 0.069
# Max RMSD: 0.094
# Mean RMSD: 0.093
data_MOF--net-ptr--node1-GALJAG_clean_sbu_0--node2-GIZVER_clean_linker_0--edge1-CIFDUS_clean_linker_0
_symmetry_space_group_name_H-M    P1
_symmetry_Int_Tables_number       1
_symmetry_cell_setting            triclinic
loop_
_symmetry_equiv_pos_as_xyz
'x, y, z'
_cell_length_a     69.054447
_cell_length_b     69.074349
_cell_length_c     45.422387
_cell_angle_alpha  90.255357
_cell_angle_beta   90.192485
_cell_angle_gamma 120.09767
loop_
_atom_site_label
_atom_site_type_symbol
_atom_site_fract_x
_atom_site_fract_y
_atom_site_fract_z
_atom_type_partial_charge
In0 In 0.01595 0.39038 0.00483 0.0
O1 O 0.0129 0.39413 0.0544 0.0
O2 O 0.01666 0.42055 0.027 0.0
C3 C 0.97806 0.34952 0.00215 0.0
C4 C 0.05229 0.38543 0.01073 0.0
C5 C 0.01922 0.41269 0.95433 0.0
O6 O 0.97779 0.36761 0.00323 0.0
O7 O 0.99737 0.35192 0.00342 0.0
O8 O 0.03623 0.41504 0.9679 0.0
O9 O 1.0009 0.39867 0.96559 0.0
C10 C 0.01469 0.41318 0.05275 0.0
O11 O 0.03683 0.37419 0.99232 0.0
O12 O 0.04974 0.3996 0.0253 0.0
In13 In 0.65083 0.64814 0.01523 0.0
O14 O 0.65391 0.64011 0.06331 0.0
O15 O 0.62161 0.62355 0.04356 0.0
C16 C 0.69089 0.65017 0.0097 0.0
C17 C 0.65114 0.68769 0.01863 0.0
C18 C 0.63018 0.6282 0.96405 0.0
O19 O 0.68885 0.66601 0.02008 0.0
O20 O 0.67258 0.63272 0.00361 0.0
O21 O 0.64656 0.64786 0.96542 0.0
O22 O 0.62373 0.61873 0.98857 0.0
C23 C 0.6333 0.62623 0.06622 0.0
O24 O 0.63517 0.66965 0.02822 0.0
O25 O 0.66655 0.68565 0.0071 0.0
In26 In 0.39046 0.01338 0.0082 0.0
O27 O 0.3981 0.04892 0.01808 0.0
O28 O 0.36829 0.02767 0.99413 0.0
C29 C 0.4205 0.0139 0.04676 0.0
C30 C 0.41073 0.01578 0.95638 0.0
C31 C 0.35296 0.97801 0.02965 0.0
O32 O 0.41344 0.02758 0.04835 0.0
O33 O 0.41288 1.00046 0.02526 0.0
O34 O 0.35572 0.98141 0.00225 0.0
O35 O 0.36848 0.99262 0.04544 0.0
C36 C 0.38098 0.04686 0.00504 0.0
O37 O 0.39618 0.99733 0.96709 0.0
O38 O 0.41453 0.0327 0.97139 0.0
In39 In 1.00717 0.63117 0.00889 0.0
O40 O 0.021 0.63708 0.96205 0.0
O41 O 1.00196 0.60355 0.97665 0.0
C42 C 0.03931 0.6703 0.03194 0.0
C43 C 0.96924 0.63334 0.00122 0.0
C44 C 0.01085 0.60489 0.04968 0.0
O45 O 0.03961 0.66525 0.00525 0.0
O46 O 0.02283 0.65589 0.0464 0.0
O47 O 0.9943 0.60798 0.04871 0.0
O48 O 0.02527 0.61482 0.02992 0.0
C49 C 0.01291 0.6166 0.95608 0.0
O50 O 0.96891 0.61518 0.00563 0.0
O51 O 0.98854 0.65028 0.00111 0.0
In52 In 0.38255 0.38646 0.01443 0.0
O53 O 0.39405 0.40741 0.97216 0.0
O54 O 0.41732 0.40132 0.99483 0.0
C55 C 0.34138 0.38133 0.0204 0.0
C56 C 0.37127 0.34408 -0.00011 0.0
C57 C 0.402 0.40966 0.06445 0.0
O58 O 0.3568 0.39751 0.00647 0.0
O59 O 0.34672 0.36783 0.03125 0.0
O60 O 0.40319 0.39266 0.05693 0.0
O61 O 0.39061 0.41438 0.04737 0.0
C62 C 0.41365 0.41046 0.97331 0.0
O63 O 0.38235 0.35351 0.023 0.0
O64 O 0.36608 0.35597 0.98446 0.0
In65 In 0.6411 0.01831 0.01464 0.0
O66 O 0.642 0.02051 0.06482 0.0
O67 O 0.61403 0.0189 0.04304 0.0
C68 C 0.68305 0.05349 0.00789 0.0
C69 C 0.63956 0.97851 0.01981 0.0
C70 C 0.61936 0.02028 0.9658 0.0
O71 O 0.66755 0.05535 0.01974 0.0
O72 O 0.6776 0.03382 0.00014 0.0
O73 O 0.61818 1.00235 0.97412 0.0
O74 O 0.63154 0.03698 0.98175 0.0
C75 C 0.62332 0.01947 0.0672 0.0
O76 O 0.62282 0.98091 0.02397 0.0
O77 O 0.65701 0.99608 0.01183 0.0
In78 In 0.68954 0.72293 0.33631 0.0
O79 O 0.67809 0.72991 0.38093 0.0
O80 O 0.70854 0.755 0.36274 0.0
C81 C 0.64932 0.68492 0.3294 0.0
C82 C 0.72376 0.71501 0.34497 0.0
C83 C 0.69162 0.74304 0.2846 0.0
O84 O 0.65172 0.70422 0.32748 0.0
O85 O 0.66706 0.68477 0.33553 0.0
O86 O 0.69627 0.72758 0.2867 0.0
O87 O 0.68597 0.74816 0.3084 0.0
C88 C 0.69479 0.74937 0.38345 0.0
O89 O 0.72608 0.73179 0.33103 0.0
O90 O 0.70419 0.70206 0.35406 0.0
In91 In 0.30138 0.98124 0.33618 0.0
O92 O 0.29538 0.95741 0.37482 0.0
O93 O 0.27319 0.96998 0.36921 0.0
C94 C 0.34298 0.98925 0.32281 0.0
C95 C 0.30746 0.02151 0.35282 0.0
C96 C 0.27726 0.9589 0.28778 0.0
O97 O 0.33033 0.97387 0.34019 0.0
O98 O 0.33467 1.00042 0.31243 0.0
O99 O 0.28605 0.97978 0.2907 0.0
O100 O 0.28072 0.94942 0.30906 0.0
C101 C 0.27826 0.95772 0.38385 0.0
O102 O 0.29016 0.00716 0.33922 0.0
O103 O 0.32175 0.01563 0.35805 0.0
In104 In 0.0558 0.35199 0.34848 0.0
O105 O 0.05917 0.38653 0.35414 0.0
O106 O 0.03017 0.36117 0.33235 0.0
C107 C 0.08682 0.35648 0.38831 0.0
C108 C 0.07712 0.35448 0.29752 0.0
C109 C 0.0201 0.31604 0.37215 0.0
O110 O 0.07847 0.36912 0.38827 0.0
O111 O 0.07991 0.34209 0.36784 0.0
O112 O 0.02288 0.31792 0.34458 0.0
O113 O 0.03488 0.33218 0.38699 0.0
C114 C 0.04093 0.38121 0.34126 0.0
O115 O 0.06247 0.33597 0.30803 0.0
O116 O 0.08047 0.37136 0.31231 0.0
In117 In 0.67921 0.97481 0.34171 0.0
O118 O 0.69472 0.97738 0.29658 0.0
O119 O 0.66903 0.94532 0.30985 0.0
C120 C 0.71026 0.01548 0.36228 0.0
C121 C 0.64506 0.98209 0.3293 0.0
C122 C 0.68006 0.9497 0.3867 0.0
O123 O 0.71515 1.00462 0.34427 0.0
O124 O 0.69009 1.00556 0.37031 0.0
O125 O 0.6638 0.95287 0.38227 0.0
O126 O 0.6957 0.95903 0.36836 0.0
C127 C 0.68284 0.95689 0.29025 0.0
O128 O 0.64182 0.96453 0.34216 0.0
O129 O 0.66507 0.99521 0.32214 0.0
In130 In 0.05467 0.71976 0.34215 0.0
O131 O 0.05044 0.72355 0.29312 0.0
O132 O 0.08045 0.74827 0.31343 0.0
C133 C 0.01641 0.7203 0.35414 0.0
C134 C 0.05567 0.68155 0.33177 0.0
C135 C 0.07775 0.73517 0.39322 0.0
O136 O 0.03562 0.73706 0.35808 0.0
O137 O 0.01646 0.70342 0.34364 0.0
O138 O 0.06145 0.7155 0.39026 0.0
O139 O 0.08256 0.74693 0.37034 0.0
C140 C 0.06913 0.74108 0.29005 0.0
O141 O 0.07292 0.7007 0.33055 0.0
O142 O 0.0381 0.68166 0.33894 0.0
In143 In 0.30974 0.34916 0.33148 0.0
O144 O 0.29723 0.31222 0.34247 0.0
O145 O 0.33216 0.33406 0.33718 0.0
C146 C 0.28697 0.34313 0.28025 0.0
C147 C 0.28624 0.34775 0.37983 0.0
C148 C 0.34901 0.38832 0.3249 0.0
O149 O 0.2952 0.33111 0.28728 0.0
O150 O 0.29073 0.35836 0.29851 0.0
O151 O 0.33179 0.3877 0.33528 0.0
O152 O 0.3464 0.36952 0.318 0.0
C153 C 0.31661 0.31457 0.34297 0.0
O154 O 0.30552 0.35002 0.38148 0.0
O155 O 0.27917 0.34682 0.35403 0.0
In156 In 0.35481 0.05817 0.67206 0.0
O157 O 0.39291 0.07254 0.6739 0.0
O158 O 0.37188 0.03956 0.68961 0.0
C159 C 0.34998 0.08153 0.62775 0.0
C160 C 0.34986 0.07648 0.72234 0.0
C161 C 0.32758 0.01653 0.65102 0.0
O162 O 0.36842 0.08265 0.63339 0.0
O163 O 0.33416 0.06878 0.6444 0.0
O164 O 0.32254 0.02396 0.67349 0.0
O165 O 0.34608 0.03014 0.63942 0.0
C166 C 0.39154 0.05518 0.68496 0.0
O167 O 0.33618 0.05657 0.71472 0.0
O168 O 0.36578 0.08688 0.70474 0.0
In169 In 0.98211 0.30418 0.68487 0.0
O170 O 0.97216 0.33137 0.68338 0.0
O171 O 1.00318 0.33932 0.70333 0.0
C172 C 0.95398 0.27667 0.64282 0.0
C173 C 0.96509 0.2839 0.73699 0.0
C174 C 0.02087 0.31108 0.66082 0.0
O175 O 0.95793 0.2965 0.64614 0.0
O176 O 0.96427 0.27094 0.66053 0.0
O177 O 0.01075 0.29644 0.68029 0.0
O178 O 0.01137 0.32189 0.65352 0.0
C179 C 0.98989 0.34599 0.69596 0.0
O180 O 0.9857 0.2933 0.73123 0.0
O181 O 0.95319 0.28492 0.71667 0.0
In182 In 0.71894 0.67376 0.67191 0.0
O183 O 0.73081 0.71153 0.67312 0.0
O184 O 0.69949 0.68918 0.65307 0.0
C185 C 0.74356 0.67071 0.7162 0.0
C186 C 0.73695 0.67073 0.62051 0.0
C187 C 0.67792 0.64238 0.69022 0.0
O188 O 0.73988 0.68684 0.71449 0.0
O189 O 0.73489 0.65645 0.69577 0.0
O190 O 0.68901 0.63792 0.67213 0.0
O191 O 0.6877 0.66236 0.69939 0.0
C192 C 0.71346 0.70906 0.66017 0.0
O193 O 0.71634 0.6591 0.62601 0.0
O194 O 0.74853 0.68406 0.64084 0.0
In195 In 0.34803 0.30583 0.68453 0.0
O196 O 0.36678 0.30258 0.64524 0.0
O197 O 0.33286 0.27735 0.65065 0.0
C198 C 0.3808 0.34681 0.70171 0.0
C199 C 0.31613 0.31511 0.66776 0.0
C200 C 0.34464 0.28056 0.73182 0.0
O201 O 0.38458 0.3343 0.68529 0.0
O202 O 0.36076 0.33846 0.70984 0.0
O203 O 0.36001 0.2867 0.71313 0.0
O204 O 0.33091 0.28709 0.72668 0.0
C205 C 0.35046 0.28459 0.63569 0.0
O206 O 0.31178 0.29826 0.68322 0.0
O207 O 0.33636 0.32681 0.66025 0.0
In208 In 0.72431 0.04896 0.68763 0.0
O209 O 0.73217 0.07281 0.64845 0.0
O210 O 0.75704 0.06544 0.66289 0.0
C211 C 0.68225 0.03736 0.70367 0.0
C212 C 0.71546 0.00917 0.66481 0.0
C213 C 0.74757 0.06998 0.73685 0.0
O214 O 0.69334 0.05342 0.68626 0.0
O215 O 0.69263 0.02793 0.71319 0.0
O216 O 0.74445 0.05113 0.72865 0.0
O217 O 0.73858 0.07805 0.72052 0.0
C218 C 0.75164 0.0758 0.64494 0.0
O219 O 0.72898 0.01834 0.68604 0.0
O220 O 0.7067 0.02013 0.65515 0.0
In221 In 0.98312 0.68388 0.67356 0.0
O222 O 0.9699 0.64701 0.68496 0.0
O223 O 1.0029 0.66568 0.66838 0.0
C224 C 0.95886 0.67538 0.62343 0.0
C225 C 0.96453 0.68523 0.72554 0.0
C226 C 0.02012 0.72467 0.66424 0.0
O227 O 0.97433 0.67083 0.6263 0.0
O228 O 0.95549 0.68402 0.64591 0.0
O229 O 1.00075 0.7198 0.65601 0.0
O230 O 0.02078 0.70931 0.67821 0.0
C231 C 0.98769 0.6472 0.6781 0.0
O232 O 0.98406 0.68823 0.72366 0.0
O233 O 0.9546 0.68217 0.70121 0.0
H234 H 0.14761 0.32608 0.15469 0.0
H235 H 0.15172 0.35024 0.06619 0.0
H236 H 0.11999 0.36788 0.13388 0.0
H237 H 0.15396 0.30742 0.11124 0.0
H238 H 0.15887 0.31986 0.07574 0.0
H239 H 0.18368 0.33114 0.15312 0.0
H240 H 0.25028 0.35607 0.12083 0.0
H241 H 0.19643 0.33827 0.05959 0.0
C242 C 0.14493 0.3363 0.13904 0.0
C243 C 0.13375 0.34757 0.14806 0.0
C244 C 0.15208 0.33764 0.10968 0.0
C245 C 0.14721 0.34989 0.08909 0.0
C246 C 0.13584 0.36104 0.09789 0.0
C247 C 0.12955 0.36003 0.12739 0.0
C248 C 0.16226 0.32375 0.09964 0.0
C249 C 0.18722 0.33489 0.10574 0.0
C250 C 0.19522 0.33674 0.13487 0.0
C251 C 0.21794 0.34419 0.14031 0.0
C252 C 0.23277 0.35059 0.1167 0.0
C253 C 0.22519 0.34854 0.0877 0.0
C254 C 0.20241 0.34067 0.08215 0.0
H255 H 0.69663 0.83961 0.15333 0.0
H256 H 0.66989 0.81954 0.06541 0.0
H257 H 0.65613 0.77 0.13134 0.0
H258 H 0.71283 0.86521 0.11036 0.0
H259 H 0.69936 0.85753 0.07527 0.0
H260 H 0.68944 0.86936 0.15397 0.0
H261 H 0.66177 0.90965 0.12582 0.0
H262 H 0.67932 0.87548 0.0614 0.0
C263 C 0.68595 0.82668 0.13775 0.0
C264 C 0.67633 0.80414 0.14582 0.0
C265 C 0.68323 0.8325 0.10893 0.0
C266 C 0.67097 0.81535 0.0881 0.0
C267 C 0.66104 0.79277 0.09625 0.0
C268 C 0.66333 0.78744 0.12524 0.0
C269 C 0.69615 0.8567 0.09935 0.0
C270 C 0.68444 0.86966 0.1069 0.0
C271 C 0.68303 0.87519 0.13645 0.0
C272 C 0.67498 0.88972 0.14329 0.0
C273 C 0.6676 0.8981 0.12055 0.0
C274 C 0.66905 0.89305 0.09104 0.0
C275 C 0.6775 0.87882 0.08426 0.0
H276 H 0.17082 0.81553 0.16168 0.0
H277 H 0.16391 0.79796 0.07025 0.0
H278 H 0.10622 0.78485 0.12027 0.0
H279 H 0.20118 0.81424 0.13009 0.0
H280 H 0.20005 0.81632 0.09117 0.0
H281 H 0.20134 0.84714 0.16138 0.0
H282 H 0.25208 0.91014 0.12854 0.0
H283 H 0.2243 0.85234 0.07205 0.0
C284 C 0.1607 0.81064 0.14194 0.0
C285 C 0.13733 0.8006 0.14458 0.0
C286 C 0.17073 0.81205 0.11437 0.0
C287 C 0.15673 0.80025 0.09022 0.0
C288 C 0.13336 0.78908 0.09324 0.0
C289 C 0.12425 0.79235 0.11899 0.0
C290 C 0.19586 0.82159 0.11226 0.0
C291 C 0.20956 0.84691 0.11552 0.0
C292 C 0.21096 0.85709 0.14304 0.0
C293 C 0.22593 0.87996 0.14783 0.0
C294 C 0.23967 0.89271 0.1247 0.0
C295 C 0.2395 0.88288 0.09759 0.0
C296 C 0.22399 0.8601 0.0927 0.0
H297 H 0.37682 0.20664 0.86382 0.0
H298 H 0.38061 0.22156 0.95658 0.0
H299 H 0.35851 0.25354 0.89482 0.0
H300 H 0.40605 0.20561 0.90275 0.0
H301 H 0.39667 0.20037 0.93971 0.0
H302 H 0.38161 0.1782 0.86194 0.0
H303 H 0.35041 0.11008 0.88976 0.0
H304 H 0.37271 0.16267 0.9543 0.0
C305 C 0.37369 0.21461 0.88214 0.0
C306 C 0.36573 0.2293 0.8763 0.0
C307 C 0.37872 0.21123 0.91108 0.0
C308 C 0.37596 0.22328 0.93436 0.0
C309 C 0.36836 0.23844 0.92877 0.0
C310 C 0.36308 0.241 0.8997 0.0
C311 C 0.39071 0.19816 0.91649 0.0
C312 C 0.37707 0.17338 0.9089 0.0
C313 C 0.37456 0.16609 0.87936 0.0
C314 C 0.36419 0.1432 0.87215 0.0
C315 C 0.35683 0.12759 0.895 0.0
C316 C 0.36004 0.1344 0.92461 0.0
C317 C 0.36974 0.1573 0.93146 0.0
H318 H 0.87685 0.188 0.86955 0.0
H319 H 0.8788 0.20379 0.96195 0.0
H320 H 0.91456 0.25612 0.89934 0.0
H321 H 0.86869 0.1595 0.90992 0.0
H322 H 0.86463 0.16562 0.94674 0.0
H323 H 0.8409 0.1585 0.86939 0.0
H324 H 0.77316 0.12242 0.89939 0.0
H325 H 0.82705 0.14977 0.96244 0.0
C326 C 0.8816 0.20018 0.88717 0.0
C327 C 0.89597 0.22291 0.881 0.0
C328 C 0.8748 0.19304 0.9163 0.0
C329 C 0.88289 0.20909 0.93929 0.0
C330 C 0.8971 0.23188 0.93313 0.0
C331 C 0.90316 0.23859 0.90399 0.0
C332 C 0.8619 0.16826 0.92329 0.0
C333 C 0.83702 0.1573 0.91679 0.0
C334 C 0.8292 0.15324 0.88744 0.0
C335 C 0.80619 0.14102 0.88124 0.0
C336 C 0.79088 0.13283 0.90434 0.0
C337 C 0.79826 0.1357 0.93361 0.0
C338 C 0.82133 0.14814 0.93984 0.0
H339 H 0.85265 0.64771 0.84425 0.0
H340 H 0.8537 0.63889 0.93775 0.0
H341 H 0.91525 0.67851 0.89168 0.0
H342 H 0.82004 0.61777 0.8704 0.0
H343 H 0.82001 0.61608 0.90954 0.0
H344 H 0.81949 0.6515 0.847 0.0
H345 H 0.77454 0.6674 0.89204 0.0
H346 H 0.80086 0.63085 0.93675 0.0
C347 C 0.86196 0.65194 0.86477 0.0
C348 C 0.88553 0.66438 0.86445 0.0
C349 C 0.85027 0.64339 0.89131 0.0
C350 C 0.86243 0.64674 0.9176 0.0
C351 C 0.8859 0.65916 0.91763 0.0
C352 C 0.89713 0.66884 0.89137 0.0
C353 C 0.82515 0.62805 0.89092 0.0
C354 C 0.81265 0.64083 0.89223 0.0
C355 C 0.81098 0.65161 0.86694 0.0
C356 C 0.79735 0.66137 0.86671 0.0
C357 C 0.78593 0.66088 0.89243 0.0
C358 C 0.78702 0.64984 0.91767 0.0
C359 C 0.80051 0.63994 0.91756 0.0
H360 H 0.82527 0.66147 0.49014 0.0
H361 H 0.81886 0.66708 0.39647 0.0
H362 H 0.78598 0.68894 0.45684 0.0
H363 H 0.82953 0.63631 0.45088 0.0
H364 H 0.83495 0.64578 0.41387 0.0
H365 H 0.85726 0.65788 0.49115 0.0
H366 H 0.92551 0.69323 0.46258 0.0
H367 H 0.87238 0.67303 0.39919 0.0
C368 C 0.81969 0.66735 0.47171 0.0
C369 C 0.80549 0.67607 0.47688 0.0
C370 C 0.82506 0.66443 0.44271 0.0
C371 C 0.81596 0.67039 0.41889 0.0
C372 C 0.80207 0.67945 0.42406 0.0
C373 C 0.79733 0.68262 0.45297 0.0
C374 C 0.83723 0.65166 0.43715 0.0
C375 C 0.86194 0.66508 0.44455 0.0
C376 C 0.86933 0.6661 0.47379 0.0
C377 C 0.89225 0.67614 0.48032 0.0
C378 C 0.90781 0.68585 0.4576 0.0
C379 C 0.90089 0.68476 0.42831 0.0
C380 C 0.87788 0.67448 0.42188 0.0
H381 H 0.36863 0.18242 0.49304 0.0
H382 H 0.35265 0.16419 0.40152 0.0
H383 H 0.33963 0.11384 0.46593 0.0
H384 H 0.38542 0.21077 0.45133 0.0
H385 H 0.37377 0.2031 0.41515 0.0
H386 H 0.35953 0.20972 0.49356 0.0
H387 H 0.31641 0.23443 0.46705 0.0
H388 H 0.34646 0.21298 0.40137 0.0
C389 C 0.36122 0.1698 0.47592 0.0
C390 C 0.35329 0.14731 0.48307 0.0
C391 C 0.36014 0.17602 0.44668 0.0
C392 C 0.3523 0.15952 0.42434 0.0
C393 C 0.3449 0.1371 0.43134 0.0
C394 C 0.34479 0.13108 0.46072 0.0
C395 C 0.36953 0.20043 0.43895 0.0
C396 C 0.35362 0.20879 0.44663 0.0
C397 C 0.35062 0.21275 0.47624 0.0
C398 C 0.33685 0.22153 0.48365 0.0
C399 C 0.32613 0.22659 0.46131 0.0
C400 C 0.3298 0.22395 0.4316 0.0
C401 C 0.34333 0.21475 0.42432 0.0
H402 H 0.84351 0.15179 0.5111 0.0
H403 H 0.83895 0.13717 0.41822 0.0
H404 H 0.77983 0.1084 0.47176 0.0
H405 H 0.87616 0.15433 0.48055 0.0
H406 H 0.87458 0.15453 0.44146 0.0
H407 H 0.87217 0.1857 0.5091 0.0
H408 H 0.91732 0.24954 0.4725 0.0
H409 H 0.89542 0.19022 0.42011 0.0
C410 C 0.8336 0.14456 0.49142 0.0
C411 C 0.81028 0.13129 0.49399 0.0
C412 C 0.84411 0.14748 0.46393 0.0
C413 C 0.83093 0.13594 0.43915 0.0
C414 C 0.80767 0.12164 0.44174 0.0
C415 C 0.79755 0.12006 0.46908 0.0
C416 C 0.86944 0.15965 0.46191 0.0
C417 C 0.88042 0.18495 0.46334 0.0
C418 C 0.88072 0.19554 0.49007 0.0
C419 C 0.89371 0.21884 0.49337 0.0
C420 C 0.90634 0.23165 0.46957 0.0
C421 C 0.90754 0.22147 0.44341 0.0
C422 C 0.89397 0.19818 0.43994 0.0
H423 H 0.03733 0.537 0.18594 0.0
H424 H 0.05412 0.56095 0.27537 0.0
H425 H 0.01259 0.5776 0.22339 0.0
H426 H 0.07309 0.54301 0.21373 0.0
H427 H 0.07301 0.54394 0.25287 0.0
H428 H 0.04849 0.50834 0.18633 0.0
H429 H 0.02305 0.44733 0.23489 0.0
H430 H 0.05057 0.51007 0.28118 0.0
C431 C 0.03539 0.54556 0.20474 0.0
C432 C 0.02298 0.55651 0.20173 0.0
C433 C 0.04629 0.54661 0.23146 0.0
C434 C 0.04489 0.55907 0.25518 0.0
C435 C 0.03243 0.56997 0.25244 0.0
C436 C 0.02119 0.56818 0.22594 0.0
C437 C 0.06188 0.53723 0.2332 0.0
C438 C 0.04947 0.51192 0.23372 0.0
C439 C 0.04412 0.49959 0.20714 0.0
C440 C 0.03486 0.47625 0.20748 0.0
C441 C 0.03 0.4653 0.23463 0.0
C442 C 0.03603 0.47724 0.26132 0.0
C443 C 0.04543 0.5006 0.26075 0.0
H444 H 0.54351 0.52582 0.19539 0.0
H445 H 0.54488 0.54119 0.28782 0.0
H446 H 0.58004 0.59394 0.22561 0.0
H447 H 0.53635 0.49759 0.23612 0.0
H448 H 0.53129 0.50327 0.27264 0.0
H449 H 0.50869 0.49242 0.19505 0.0
H450 H 0.44049 0.45763 0.22406 0.0
H451 H 0.4936 0.49028 0.28744 0.0
C452 C 0.54804 0.53796 0.21303 0.0
C453 C 0.56224 0.56078 0.20704 0.0
C454 C 0.5412 0.53067 0.24211 0.0
C455 C 0.54895 0.54662 0.2652 0.0
C456 C 0.56285 0.56951 0.25925 0.0
C457 C 0.56887 0.57635 0.23013 0.0
C458 C 0.52886 0.50589 0.24906 0.0
C459 C 0.50406 0.49427 0.24186 0.0
C460 C 0.49663 0.48806 0.21256 0.0
C461 C 0.47367 0.47508 0.20598 0.0
C462 C 0.45814 0.46866 0.22885 0.0
C463 C 0.46512 0.47386 0.25821 0.0
C464 C 0.48812 0.48687 0.26467 0.0
H465 H 0.51083 0.97884 0.18697 0.0
H466 H 0.51177 0.96914 0.28031 0.0
H467 H 0.57337 1.00448 0.23279 0.0
H468 H 0.47693 0.95004 0.21533 0.0
H469 H 0.47696 0.9513 0.25451 0.0
H470 H 0.48333 0.98653 0.18743 0.0
H471 H 0.4386 0.00689 0.22112 0.0
H472 H 0.45762 0.96821 0.2754 0.0
C473 C 0.5201 0.98243 0.2074 0.0
C474 C 0.5436 0.99327 0.20662 0.0
C475 C 0.50846 0.97479 0.23419 0.0
C476 C 0.5206 0.97654 0.26006 0.0
C477 C 0.54404 0.98672 0.25944 0.0
C478 C 0.55528 0.99619 0.23309 0.0
C479 C 0.48307 0.9618 0.23443 0.0
C480 C 0.4727 0.97661 0.23224 0.0
C481 C 0.47397 0.98762 0.20571 0.0
C482 C 0.46221 0.99911 0.20192 0.0
C483 C 0.44892 0.99941 0.22494 0.0
C484 C 0.447 0.98834 0.25158 0.0
C485 C 0.45922 0.97716 0.2552 0.0
H486 H 0.4862 0.98972 0.82021 0.0
H487 H 0.48787 0.00688 0.72874 0.0
H488 H 0.45271 0.0244 0.79138 0.0
H489 H 0.49427 0.96971 0.77791 0.0
H490 H 0.5017 0.98271 0.74277 0.0
H491 H 0.51919 0.99112 0.82306 0.0
H492 H 0.58897 0.02515 0.80236 0.0
H493 H 0.54056 0.00634 0.73271 0.0
C494 C 0.48256 0.99815 0.80293 0.0
C495 C 0.46952 0.00797 0.80948 0.0
C496 C 0.49013 0.99847 0.77405 0.0
C497 C 0.48344 0.00779 0.75137 0.0
C498 C 0.47007 0.0173 0.7577 0.0
C499 C 0.46377 0.01786 0.7868 0.0
C500 C 0.50265 0.98624 0.76682 0.0
C501 C 0.52692 0.99881 0.77687 0.0
C502 C 0.5323 0.99924 0.80696 0.0
C503 C 0.55468 0.00928 0.81631 0.0
C504 C 0.57171 0.01845 0.79539 0.0
C505 C 0.56677 0.01712 0.76532 0.0
C506 C 0.5444 0.00782 0.75604 0.0
H507 H 0.0219 0.50089 0.81822 0.0
H508 H 0.01005 0.48276 0.72615 0.0
H509 H 0.98577 0.43191 0.7924 0.0
H510 H 0.04564 0.52707 0.77474 0.0
H511 H 0.03314 0.52117 0.73903 0.0
H512 H 0.02701 0.5356 0.81717 0.0
H513 H 0.9919 0.56941 0.79171 0.0
H514 H 1.00814 0.5348 0.72627 0.0
C515 C 0.01395 0.48845 0.80102 0.0
C516 C 1.00262 0.46576 0.80866 0.0
C517 C 0.01574 0.49491 0.77126 0.0
C518 C 1.00727 0.47816 0.74917 0.0
C519 C 0.99644 0.45545 0.75687 0.0
C520 C 0.99347 0.44945 0.78654 0.0
C521 C 0.02927 0.5194 0.76296 0.0
C522 C 0.01775 0.53244 0.77106 0.0
C523 C 0.01835 0.53949 0.80039 0.0
C524 C 1.00903 0.55278 0.80791 0.0
C525 C 0.99889 0.5589 0.78601 0.0
C526 C 0.9986 0.55263 0.75662 0.0
C527 C 1.00796 0.5393 0.74911 0.0
H528 H 0.51708 0.48318 0.84742 0.0
H529 H 0.51396 0.46245 0.75707 0.0
H530 H 0.45355 0.44131 0.8062 0.0
H531 H 0.54902 0.48041 0.82156 0.0
H532 H 0.54894 0.47909 0.78238 0.0
H533 H 0.55379 0.51422 0.84746 0.0
H534 H 0.58866 0.57561 0.79954 0.0
H535 H 0.56209 0.5127 0.75389 0.0
C536 C 0.50744 0.47493 0.82782 0.0
C537 C 0.48398 0.46335 0.82912 0.0
C538 C 0.5184 0.47502 0.80168 0.0
C539 C 0.50559 0.46303 0.77691 0.0
C540 C 0.48208 0.45086 0.77822 0.0
C541 C 0.47157 0.45158 0.80426 0.0
C542 C 0.54357 0.48548 0.80136 0.0
C543 C 0.5553 0.51072 0.8005 0.0
C544 C 0.55921 0.52303 0.82679 0.0
C545 C 0.57142 0.54653 0.82671 0.0
C546 C 0.5792 0.55752 0.79974 0.0
C547 C 0.57675 0.54564 0.77351 0.0
C548 C 0.56418 0.52214 0.77393 0.0
H549 H 0.72664 0.88158 0.51012 0.0
H550 H 0.73129 0.89429 0.60351 0.0
H551 H 0.70501 0.92495 0.54583 0.0
H552 H 0.75409 0.87746 0.54287 0.0
H553 H 0.75223 0.8788 0.58185 0.0
H554 H 0.71811 0.84565 0.51535 0.0
H555 H 0.69649 0.78292 0.55749 0.0
H556 H 0.73525 0.84409 0.60627 0.0
C557 C 0.72324 0.88889 0.52912 0.0
C558 C 0.71364 0.90242 0.525 0.0
C559 C 0.72928 0.8855 0.55748 0.0
C560 C 0.72606 0.89631 0.58177 0.0
C561 C 0.71724 0.91061 0.57786 0.0
C562 C 0.71079 0.91318 0.54943 0.0
C563 C 0.74204 0.87311 0.56127 0.0
C564 C 0.72707 0.84789 0.5614 0.0
C565 C 0.7165 0.83641 0.5352 0.0
C566 C 0.70506 0.81295 0.53389 0.0
C567 C 0.70406 0.80095 0.55912 0.0
C568 C 0.71502 0.81194 0.58527 0.0
C569 C 0.72628 0.83547 0.5864 0.0
H570 H 0.20806 0.85389 0.52277 0.0
H571 H 0.21905 0.8752 0.61385 0.0
H572 H 0.24713 0.92346 0.54455 0.0
H573 H 0.20624 0.82872 0.5677 0.0
H574 H 0.20123 0.8363 0.60313 0.0
H575 H 0.17795 0.81993 0.52617 0.0
H576 H 0.10998 0.78731 0.55543 0.0
H577 H 0.16343 0.8239 0.61752 0.0
C578 C 0.21426 0.86698 0.53928 0.0
C579 C 0.227 0.8893 0.53027 0.0
C580 C 0.21037 0.86165 0.56947 0.0
C581 C 0.22058 0.87909 0.59059 0.0
C582 C 0.23429 0.90135 0.58158 0.0
C583 C 0.23652 0.90627 0.55151 0.0
C584 C 0.19851 0.8374 0.57918 0.0
C585 C 0.17362 0.82483 0.57224 0.0
C586 C 0.16604 0.81683 0.54347 0.0
C587 C 0.14311 0.80339 0.53727 0.0
C588 C 0.12768 0.79804 0.56008 0.0
C589 C 0.13477 0.80512 0.5891 0.0
C590 C 0.1578 0.81874 0.59505 0.0
H591 H 0.18632 0.30112 0.509 0.0
H592 H 0.18459 0.29803 0.60379 0.0
H593 H 0.24748 0.32878 0.5585 0.0
H594 H 0.15217 0.27382 0.53616 0.0
H595 H 0.15132 0.27454 0.57532 0.0
H596 H 0.15564 0.30817 0.50795 0.0
H597 H 0.10868 0.32581 0.54195 0.0
H598 H 0.1329 0.29208 0.59732 0.0
C599 C 0.19499 0.30572 0.53001 0.0
C600 C 0.21845 0.31619 0.53076 0.0
C601 C 0.18262 0.29955 0.5564 0.0
C602 C 0.19402 0.30384 0.58356 0.0
C603 C 0.21747 0.31431 0.58449 0.0
C604 C 0.22941 0.32111 0.55805 0.0
C605 C 0.15739 0.28534 0.55549 0.0
C606 C 0.14603 0.29915 0.55315 0.0
C607 C 0.14611 0.30911 0.52621 0.0
C608 C 0.13301 0.31921 0.52222 0.0
C609 C 0.11998 0.31946 0.54569 0.0
C610 C 0.11977 0.30986 0.57299 0.0
C611 C 0.13313 0.29992 0.57662 0.0
H612 H 0.02828 0.40974 0.10706 0.0
H613 H 1.00529 0.44713 0.05668 0.0
H614 H 1.0094 0.47023 0.10005 0.0
H615 H 0.01967 0.47968 0.15271 0.0
H616 H 0.04602 0.44391 0.20056 0.0
H617 H 0.04042 0.4204 0.15793 0.0
C618 C 0.02399 0.42283 0.10567 0.0
C619 C 0.01623 0.42658 0.07896 0.0
C620 C 0.02703 0.43639 0.13029 0.0
C621 C 0.01119 0.44389 0.07719 0.0
C622 C 0.01358 0.45711 0.10192 0.0
C623 C 0.02431 0.46685 0.15369 0.0
C624 C 0.03263 0.46322 0.18018 0.0
C625 C 0.02159 0.45357 0.12864 0.0
C626 C 0.03878 0.44661 0.18091 0.0
C627 C 0.03577 0.4332 0.15642 0.0
H628 H 0.58998 0.59426 0.07639 0.0
H629 H 0.6547 0.63155 0.11861 0.0
H630 H 0.63851 0.61335 0.16529 0.0
H631 H 0.60589 0.58817 0.19454 0.0
H632 H 0.54089 0.55101 0.15334 0.0
H633 H 0.55734 0.56744 0.10556 0.0
C634 C 0.60054 0.59833 0.0958 0.0
C635 C 0.62349 0.61438 0.09409 0.0
C636 C 0.59109 0.58778 0.12265 0.0
C637 C 0.63699 0.61935 0.11935 0.0
C638 C 0.62775 0.60894 0.14605 0.0
C639 C 0.5953 0.58368 0.17508 0.0
C640 C 0.57216 0.56868 0.17748 0.0
C641 C 0.60481 0.59336 0.14801 0.0
C642 C 0.55874 0.56255 0.15201 0.0
C643 C 0.56812 0.57205 0.12479 0.0
H644 H 0.43885 0.04071 0.09474 0.0
H645 H 0.43169 0.98147 0.05218 0.0
H646 H 0.44712 0.97324 0.0956 0.0
H647 H 0.45723 0.97984 0.14797 0.0
H648 H 0.46426 0.03894 0.19078 0.0
H649 H 0.45442 0.05032 0.14488 0.0
C650 C 0.44109 0.02625 0.09478 0.0
C651 C 0.43382 0.01154 0.0705 0.0
C652 C 0.44969 0.02143 0.11998 0.0
C653 C 0.437 0.99297 0.0707 0.0
C654 C 0.44574 0.98819 0.09558 0.0
C655 C 0.45731 0.99556 0.14707 0.0
C656 C 0.46115 0.00835 0.17287 0.0
C657 C 0.45139 1.00187 0.12071 0.0
C658 C 0.46097 0.0286 0.17132 0.0
C659 C 0.45534 0.03511 0.1451 0.0
H660 H 0.41477 0.98311 0.92802 0.0
H661 H 0.43479 0.05309 0.92381 0.0
H662 H 0.45598 0.05718 0.87914 0.0
H663 H 0.46818 0.0408 0.84065 0.0
H664 H 0.44862 0.97098 0.84445 0.0
H665 H 0.42844 0.96702 0.89029 0.0
C666 C 0.42371 0.9992 0.91721 0.0
C667 C 0.42305 0.01772 0.92901 0.0
C668 C 0.43619 1.00153 0.8917 0.0
C669 C 0.43498 0.03856 0.91507 0.0
C670 C 0.44714 0.04094 0.88957 0.0
C671 C 0.45959 0.02475 0.85163 0.0
C672 C 0.45985 0.00622 0.83917 0.0
C673 C 0.44781 0.02254 0.87765 0.0
C674 C 0.44888 0.98557 0.85378 0.0
C675 C 0.43714 0.98324 0.87981 0.0
H676 H 0.98463 0.41278 0.92645 0.0
H677 H 0.05642 0.44241 0.92379 0.0
H678 H 0.05791 0.46387 0.8802 0.0
H679 H 0.03835 0.47232 0.841 0.0
H680 H 0.96652 0.4414 0.84308 0.0
H681 H 0.96544 0.42267 0.88919 0.0
C682 C 1.00062 0.42396 0.91637 0.0
C683 C 0.02037 0.42584 0.92812 0.0
C684 C 1.00132 0.43618 0.89144 0.0
C685 C 0.04097 0.44055 0.915 0.0
C686 C 0.04183 0.45287 0.89016 0.0
C687 C 0.02259 0.46193 0.85209 0.0
C688 C 1.00256 0.4584 0.83912 0.0
C689 C 0.02208 0.45066 0.87803 0.0
C690 C 0.98211 0.4445 0.85305 0.0
C691 C 0.9815 0.43366 0.87918 0.0
H692 H 0.58965 0.5909 0.95398 0.0
H693 H 0.65059 0.63901 0.91111 0.0
H694 H 0.63785 0.61771 0.86526 0.0
H695 H 0.61091 0.58459 0.83862 0.0
H696 H 0.54781 0.53805 0.87863 0.0
H697 H 0.56033 0.55921 0.92485 0.0
C698 C 0.59997 0.59677 0.93446 0.0
C699 C 0.62105 0.61641 0.93588 0.0
C700 C 0.59238 0.5846 0.90794 0.0
C701 C 0.63426 0.62399 0.91049 0.0
C702 C 0.62706 0.61176 0.88433 0.0
C703 C 0.5994 0.57929 0.85695 0.0
C704 C 0.57826 0.55973 0.85476 0.0
C705 C 0.60629 0.59195 0.88294 0.0
C706 C 0.56426 0.55285 0.87958 0.0
C707 C 0.57133 0.56505 0.90599 0.0
H708 H 1.00245 0.57429 0.94136 0.0
H709 H 0.02918 0.64067 0.90587 0.0
H710 H 0.03142 0.62685 0.85713 0.0
H711 H 0.02417 0.59567 0.82424 0.0
H712 H 0.99781 0.5293 0.85932 0.0
H713 H 0.99738 0.54339 0.90884 0.0
C714 C 1.00885 0.58573 0.92296 0.0
C715 C 0.01545 0.60842 0.9271 0.0
C716 C 0.01018 0.57768 0.89504 0.0
C717 C 0.02394 0.62312 0.90319 0.0
C718 C 0.0252 0.61523 0.87533 0.0
C719 C 0.01837 0.58432 0.84279 0.0
C720 C 0.01076 0.56147 0.83824 0.0
C721 C 0.01811 0.59252 0.87096 0.0
C722 C 1.00373 0.54697 0.86241 0.0
C723 C 1.00337 0.555 0.89061 0.0
H724 H 0.41119 0.43427 0.92726 0.0
H725 H 0.45487 0.41471 0.96917 0.0
H726 H 0.4823 0.4325 0.93015 0.0
H727 H 0.49204 0.45002 0.88144 0.0
H728 H 0.44819 0.46897 0.83889 0.0
H729 H 0.42291 0.45548 0.88102 0.0
C730 C 0.4268 0.4341 0.92795 0.0
C731 C 0.43084 0.42293 0.95083 0.0
C732 C 0.44252 0.44432 0.90535 0.0
C733 C 0.45126 0.42304 0.95165 0.0
C734 C 0.46699 0.43323 0.92935 0.0
C735 C 0.47731 0.45182 0.88184 0.0
C736 C 0.47192 0.4604 0.85716 0.0
C737 C 0.46259 0.4435 0.90577 0.0
C738 C 0.4526 0.46234 0.8577 0.0
C739 C 0.43809 0.45449 0.88166 0.0
H740 H 0.58376 0.98656 0.93669 0.0
H741 H 0.62896 0.05794 0.93602 0.0
H742 H 0.61126 0.06116 0.89117 0.0
H743 H 0.58469 0.04343 0.85034 0.0
H744 H 0.53898 0.97227 0.85085 0.0
H745 H 0.55464 0.96924 0.89795 0.0
C746 C 0.58964 1.00279 0.92672 0.0
C747 C 0.60781 0.02194 0.93936 0.0
C748 C 0.57916 1.00458 0.90109 0.0
C749 C 0.61507 0.04294 0.92657 0.0
C750 C 0.60496 0.04481 0.90095 0.0
C751 C 0.57794 0.02734 0.86109 0.0
C752 C 0.5608 0.00811 0.84725 0.0
C753 C 0.58721 0.02573 0.88783 0.0
C754 C 0.55204 0.98733 0.86131 0.0
C755 C 0.56117 0.98557 0.88803 0.0
H756 H 0.5864 0.02283 0.07948 0.0
H757 H 0.63449 0.00806 0.11886 0.0
H758 H 0.61363 0.99802 0.16475 0.0
H759 H 0.58095 0.99129 0.19245 0.0
H760 H 0.53429 0.00933 0.15606 0.0
H761 H 0.55495 0.01935 0.10969 0.0
C762 C 0.59241 0.01767 0.09827 0.0
C763 C 0.61194 0.01615 0.09577 0.0
C764 C 0.58041 0.0121 0.12484 0.0
C765 C 0.61959 0.00949 0.12025 0.0
C766 C 0.60759 1.00359 0.14645 0.0
C767 C 0.5755 0.99806 0.17489 0.0
C768 C 0.55611 0.99977 0.17818 0.0
C769 C 0.58788 1.00461 0.14885 0.0
C770 C 0.54899 0.0076 0.15427 0.0
C771 C 0.56092 0.01354 0.12779 0.0
H772 H 0.98293 0.58296 0.09522 0.0
H773 H 0.04643 0.59865 0.0576 0.0
H774 H 0.05443 0.58205 0.09987 0.0
H775 H 0.04541 0.56723 0.15001 0.0
H776 H 0.98235 0.55219 0.18831 0.0
H777 H 0.97203 0.56412 0.14319 0.0
C778 C 0.99837 0.58246 0.0961 0.0
C779 C 0.01418 0.59227 0.07349 0.0
C780 C 1.00299 0.57309 0.12067 0.0
C781 C 0.03405 0.59136 0.07483 0.0
C782 C 0.03866 0.58189 0.09902 0.0
C783 C 0.02913 0.56593 0.14817 0.0
C784 C 0.01472 0.55896 0.17252 0.0
C785 C 0.02352 0.57324 0.12241 0.0
C786 C 0.99381 0.55769 0.16993 0.0
C787 C 0.98794 0.56457 0.14419 0.0
H788 H 0.43946 0.41478 0.09172 0.0
H789 H 0.39077 0.43642 0.09474 0.0
H790 H 0.40992 0.46033 0.13722 0.0
H791 H 0.43962 0.47397 0.17471 0.0
H792 H 0.48892 0.45316 0.17145 0.0
H793 H 0.47093 0.43066 0.12735 0.0
C794 C 0.43305 0.42468 0.10182 0.0
C795 C 0.41358 0.42362 0.09047 0.0
C796 C 0.44446 0.43881 0.12587 0.0
C797 C 0.40566 0.43686 0.10328 0.0
C798 C 0.41663 0.45059 0.12749 0.0
C799 C 0.44658 0.46474 0.16405 0.0
C800 C 0.46553 0.4652 0.17629 0.0
C801 C 0.43597 0.45161 0.13905 0.0
C802 C 0.4745 0.4533 0.16223 0.0
C803 C 0.46405 0.4402 0.13724 0.0
H804 H 0.66716 0.74259 0.43002 0.0
H805 H 0.73065 0.79067 0.39261 0.0
H806 H 0.73813 0.8158 0.43424 0.0
H807 H 0.72817 0.82293 0.48301 0.0
H808 H 0.66522 0.77503 0.52154 0.0
H809 H 0.65585 0.75119 0.47766 0.0
C810 C 0.68255 0.75861 0.43097 0.0
C811 C 0.69841 0.76463 0.40842 0.0
C812 C 0.68683 0.77307 0.45512 0.0
C813 C 0.71822 0.78553 0.40979 0.0
C814 C 0.72252 0.79997 0.43357 0.0
C815 C 0.71213 0.80758 0.48147 0.0
C816 C 0.69739 0.80077 0.50541 0.0
C817 C 0.70711 0.79379 0.45654 0.0
C818 C 0.67685 0.78058 0.50334 0.0
C819 C 0.67155 0.76691 0.47835 0.0
H820 H 0.27687 0.92138 0.40953 0.0
H821 H 0.25003 0.96578 0.41586 0.0
H822 H 0.22935 0.94652 0.4599 0.0
H823 H 0.22127 0.91908 0.49881 0.0
H824 H 0.24738 0.87418 0.49285 0.0
H825 H 0.26542 0.89108 0.44605 0.0
C826 C 0.26642 0.92674 0.42055 0.0
C827 C 0.26522 0.94516 0.40976 0.0
C828 C 0.25427 0.91535 0.44571 0.0
C829 C 0.25133 0.95172 0.42388 0.0
C830 C 0.23947 0.94071 0.44903 0.0
C831 C 0.2305 0.9127 0.48684 0.0
C832 C 0.23305 0.89548 0.49911 0.0
C833 C 0.24108 0.92274 0.46037 0.0
C834 C 0.24502 0.88728 0.48358 0.0
C835 C 0.25556 0.89713 0.45705 0.0
H836 H 0.10293 0.32819 0.39503 0.0
H837 H 0.10213 0.38413 0.43641 0.0
H838 H 0.11974 0.37948 0.48051 0.0
H839 H 0.13082 0.35655 0.50935 0.0
H840 H 0.12884 0.29892 0.46886 0.0
H841 H 0.11755 0.30762 0.42216 0.0
C842 C 0.10697 0.33962 0.41349 0.0
C843 C 0.10099 0.3563 0.41262 0.0
C844 C 0.11656 0.33649 0.439 0.0
C845 C 0.10644 0.37106 0.43663 0.0
C846 C 0.11643 0.36836 0.46189 0.0
C847 C 0.12813 0.34603 0.49021 0.0
C848 C 0.13043 0.32697 0.49275 0.0
C849 C 0.12084 0.35065 0.46367 0.0
C850 C 0.12736 0.31378 0.46758 0.0
C851 C 0.12065 0.3186 0.44089 0.0
H852 H 0.07874 0.32129 0.26648 0.0
H853 H 0.10453 0.3926 0.26816 0.0
H854 H 0.12588 0.39691 0.22367 0.0
H855 H 0.1362 0.38048 0.18324 0.0
H856 H 0.11036 0.30927 0.18031 0.0
H857 H 0.09066 0.30494 0.22673 0.0
C858 C 0.08902 0.33774 0.25704 0.0
C859 C 0.08987 0.35656 0.27046 0.0
C860 C 0.10146 0.34016 0.23143 0.0
C861 C 0.10348 0.37782 0.25821 0.0
C862 C 0.11576 0.38033 0.23278 0.0
C863 C 0.12635 0.36402 0.19286 0.0
C864 C 0.12464 0.34522 0.17828 0.0
C865 C 0.11475 0.36163 0.21911 0.0
C866 C 0.11211 0.32404 0.19123 0.0
C867 C 0.10064 0.32153 0.2176 0.0
H868 H 0.68396 0.77754 0.27625 0.0
H869 H 0.70007 0.73279 0.22988 0.0
H870 H 0.69834 0.74909 0.183 0.0
H871 H 0.69034 0.77455 0.15517 0.0
H872 H 0.67351 0.81893 0.20088 0.0
H873 H 0.67792 0.80462 0.2483 0.0
C874 C 0.68721 0.77145 0.25589 0.0
C875 C 0.69196 0.75385 0.25648 0.0
C876 C 0.6861 0.78084 0.22902 0.0
C877 C 0.6963 0.74624 0.22998 0.0
C878 C 0.6953 0.75554 0.20319 0.0
C879 C 0.68763 0.78109 0.17555 0.0
C880 C 0.68125 0.79749 0.17463 0.0
C881 C 0.6899 0.77259 0.20246 0.0
C882 C 0.67837 0.80626 0.20111 0.0
C883 C 0.68076 0.79798 0.22814 0.0
H884 H 0.25871 0.91451 0.2768 0.0
H885 H 0.26763 0.97566 0.23911 0.0
H886 H 0.24948 0.9557 0.19354 0.0
H887 H 0.23401 0.92161 0.16314 0.0
H888 H 0.2278 0.86125 0.20002 0.0
H889 H 0.2411 0.87993 0.24746 0.0
C890 C 0.25651 0.92343 0.25871 0.0
C891 C 0.2647 0.94656 0.26117 0.0
C892 C 0.24637 0.91193 0.23248 0.0
C893 C 0.26161 0.95788 0.23764 0.0
C894 C 0.25122 0.94647 0.2116 0.0
C895 C 0.23542 0.91249 0.18162 0.0
C896 C 0.23001 0.89007 0.17784 0.0
C897 C 0.24398 0.92361 0.20857 0.0
C898 C 0.23153 0.87839 0.20222 0.0
C899 C 0.23944 0.88917 0.22934 0.0
H900 H 0.66513 0.91287 0.27522 0.0
H901 H 0.70475 0.97984 0.24147 0.0
H902 H 0.70661 0.96482 0.19354 0.0
H903 H 0.69577 0.93283 0.16062 0.0
H904 H 0.65707 0.8657 0.19366 0.0
H905 H 0.65631 0.88052 0.24268 0.0
C906 C 0.67421 0.92413 0.25737 0.0
C907 C 0.68462 0.94744 0.2618 0.0
C908 C 0.67541 0.91535 0.22984 0.0
C909 C 0.69655 0.96185 0.2386 0.0
C910 C 0.69761 0.95328 0.21118 0.0
C911 C 0.68724 0.92147 0.17864 0.0
C912 C 0.67624 0.89825 0.17363 0.0
C913 C 0.68693 0.9301 0.20649 0.0
C914 C 0.6656 0.88364 0.19713 0.0
C915 C 0.66508 0.89213 0.22503 0.0
H916 H 0.1058 0.7817 0.27779 0.0
H917 H 0.05209 0.72236 0.23688 0.0
H918 H 0.06812 0.73606 0.18858 0.0
H919 H 0.09849 0.7628 0.15885 0.0
H920 H 0.1514 0.82397 0.19745 0.0
H921 H 0.13473 0.81126 0.24611 0.0
C922 C 0.09752 0.77194 0.25823 0.0
C923 C 0.07787 0.75096 0.26092 0.0
C924 C 0.10676 0.78004 0.23029 0.0
C925 C 0.06721 0.73853 0.23543 0.0
C926 C 0.07641 0.74631 0.2078 0.0
C927 C 0.10618 0.77397 0.17745 0.0
C928 C 0.12623 0.79454 0.17404 0.0
C929 C 0.09632 0.76684 0.20506 0.0
C930 C 0.13611 0.80799 0.1992 0.0
C931 C 0.12652 0.80076 0.22706 0.0
H932 H 0.26014 0.3603 0.26756 0.0
H933 H 0.28379 0.31779 0.23237 0.0
H934 H 0.26294 0.31305 0.18673 0.0
H935 H 0.23968 0.32256 0.15598 0.0
H936 H 0.21543 0.36454 0.19085 0.0
H937 H 0.23446 0.36758 0.2379 0.0
C938 C 0.26069 0.34997 0.24989 0.0
C939 C 0.27371 0.33963 0.25313 0.0
C940 C 0.24847 0.34715 0.22385 0.0
C941 C 0.274 0.32602 0.2303 0.0
C942 C 0.26208 0.32329 0.20424 0.0
C943 C 0.23843 0.33222 0.17404 0.0
C944 C 0.22642 0.34352 0.17005 0.0
C945 C 0.2495 0.33398 0.20068 0.0
C946 C 0.22458 0.35571 0.19356 0.0
C947 C 0.23558 0.35756 0.22029 0.0
H948 H 0.28822 0.33038 0.43196 0.0
H949 H 0.25202 0.35653 0.38515 0.0
H950 H 0.22722 0.34871 0.42741 0.0
H951 H 0.21593 0.33432 0.47816 0.0
H952 H 0.25089 0.30554 0.5224 0.0
H953 H 0.27584 0.31429 0.48074 0.0
C954 C 0.27504 0.33457 0.43117 0.0
C955 C 0.27212 0.3443 0.40579 0.0
C956 C 0.26049 0.32939 0.45507 0.0
C957 C 0.25465 0.34917 0.40467 0.0
C958 C 0.24043 0.34462 0.42875 0.0
C959 C 0.22888 0.32981 0.47848 0.0
C960 C 0.23185 0.31979 0.50366 0.0
C961 C 0.24312 0.33462 0.45409 0.0
C962 C 0.24862 0.31386 0.50366 0.0
C963 C 0.26289 0.31877 0.47979 0.0
H964 H 0.71264 0.93981 0.39908 0.0
H965 H 0.65034 0.93155 0.43174 0.0
H966 H 0.65415 0.91396 0.47625 0.0
H967 H 0.67663 0.90367 0.50752 0.0
H968 H 0.73949 0.913 0.47558 0.0
H969 H 0.73373 0.92686 0.42885 0.0
C970 C 0.6998 0.93397 0.41582 0.0
C971 C 0.68135 0.93719 0.41226 0.0
C972 C 0.70217 0.92401 0.44145 0.0
C973 C 0.66476 0.92938 0.43403 0.0
C974 C 0.66693 0.91934 0.4595 0.0
C975 C 0.68897 0.90857 0.49021 0.0
C976 C 0.70853 0.90745 0.49511 0.0
C977 C 0.68579 0.91699 0.46369 0.0
C978 C 0.72421 0.91352 0.47233 0.0
C979 C 0.72103 0.92166 0.4457 0.0
H980 H 0.11239 0.77707 0.40483 0.0
H981 H 0.06926 0.71328 0.44544 0.0
H982 H 0.08662 0.72855 0.49324 0.0
H983 H 0.11275 0.76032 0.52383 0.0
H984 H 0.15554 0.82442 0.48398 0.0
H985 H 0.13992 0.80862 0.43537 0.0
C986 C 0.10691 0.76648 0.42412 0.0
C987 C 0.08947 0.7441 0.42163 0.0
C988 C 0.11689 0.77542 0.45161 0.0
C989 C 0.0826 0.73056 0.44678 0.0
C990 C 0.0925 0.73928 0.47413 0.0
C991 C 0.1186 0.77087 0.50451 0.0
C992 C 0.13502 0.79359 0.50751 0.0
C993 C 0.10941 0.76175 0.47685 0.0
C994 C 0.14289 0.80689 0.4822 0.0
C995 C 0.13389 0.79789 0.45448 0.0
H996 H 0.37978 0.11718 0.74459 0.0
H997 H 0.31565 0.05891 0.76205 0.0
H998 H 0.31344 0.07554 0.80871 0.0
H999 H 0.33059 0.10583 0.84547 0.0
H1000 H 0.39609 0.16271 0.82925 0.0
H1001 H 0.39649 0.14777 0.78075 0.0
C1002 C 0.36524 0.10816 0.75852 0.0
C1003 C 0.34794 0.0868 0.74996 0.0
C1004 C 0.36424 0.11767 0.78543 0.0
C1005 C 0.32923 0.07533 0.76823 0.0
C1006 C 0.32795 0.08485 0.79488 0.0
C1007 C 0.34498 0.11498 0.83137 0.0
C1008 C 0.36328 0.1354 0.84122 0.0
C1009 C 0.34551 0.10588 0.80387 0.0
C1010 C 0.38157 0.14719 0.82228 0.0
C1011 C 0.38196 0.13851 0.79459 0.0
H1012 H 0.92129 0.25559 0.74978 0.0
H1013 H 0.98767 0.28722 0.78771 0.0
H1014 H 0.97207 0.27026 0.83526 0.0
H1015 H 0.93956 0.24766 0.86648 0.0
H1016 H 0.87315 0.21512 0.82888 0.0
H1017 H 0.88875 0.23091 0.78053 0.0
C1018 C 0.93232 0.25871 0.76846 0.0
C1019 C 0.95559 0.27281 0.76534 0.0
C1020 C 0.92323 0.2487 0.79568 0.0
C1021 C 0.96972 0.27649 0.78959 0.0
C1022 C 0.96081 0.26682 0.81678 0.0
C1023 C 0.92853 0.244 0.84763 0.0
C1024 C 0.90525 0.2305 0.85116 0.0
C1025 C 0.93761 0.25309 0.82012 0.0
C1026 C 0.89112 0.22549 0.82658 0.0
C1027 C 0.90003 0.23461 0.79905 0.0
H1028 H 0.7618 0.69739 0.76477 0.0
H1029 H 0.75373 0.63773 0.7223 0.0
H1030 H 0.77199 0.63103 0.76379 0.0
H1031 H 0.78722 0.64015 0.81382 0.0
H1032 H 0.79481 0.6992 0.85733 0.0
H1033 H 0.77995 0.70819 0.81375 0.0
C1034 C 0.76425 0.68306 0.76452 0.0
C1035 C 0.75623 0.66799 0.7406 0.0
C1036 C 0.77463 0.67915 0.78867 0.0
C1037 C 0.75959 0.64952 0.74053 0.0
C1038 C 0.77005 0.64566 0.76425 0.0
C1039 C 0.7862 0.65531 0.81351 0.0
C1040 C 0.79212 0.66899 0.83878 0.0
C1041 C 0.77728 0.66013 0.78865 0.0
C1042 C 0.79024 0.68834 0.83819 0.0
C1043 C 0.78169 0.69345 0.81331 0.0
H1044 H 0.78105 0.68791 0.60724 0.0
H1045 H 0.71442 0.64944 0.57065 0.0
H1046 H 0.72991 0.64716 0.52344 0.0
H1047 H 0.76221 0.65687 0.49217 0.0
H1048 H 0.82899 0.69444 0.52804 0.0
H1049 H 0.81367 0.69606 0.57618 0.0
C1050 C 0.76996 0.67902 0.5889 0.0
C1051 C 0.74662 0.669 0.59233 0.0
C1052 C 0.779 0.67758 0.56182 0.0
C1053 C 0.73243 0.65733 0.56854 0.0
C1054 C 0.74127 0.65602 0.54154 0.0
C1055 C 0.77339 0.66543 0.51057 0.0
C1056 C 0.79666 0.67581 0.50663 0.0
C1057 C 0.76448 0.66621 0.5379 0.0
C1058 C 0.81101 0.68641 0.53067 0.0
C1059 C 0.80225 0.6874 0.55806 0.0
H1060 H 0.38169 0.11838 0.59921 0.0
H1061 H 0.31083 0.07097 0.60056 0.0
H1062 H 0.30525 0.08836 0.55712 0.0
H1063 H 0.32091 0.11536 0.51669 0.0
H1064 H 0.39143 0.16369 0.51595 0.0
H1065 H 0.39677 0.14801 0.56151 0.0
C1066 C 0.36504 0.11199 0.59005 0.0
C1067 C 0.34674 0.09328 0.6028 0.0
C1068 C 0.3619 0.12231 0.5653 0.0
C1069 C 0.32519 0.08532 0.59105 0.0
C1070 C 0.32198 0.09524 0.5662 0.0
C1071 C 0.33735 0.12265 0.52686 0.0
C1072 C 0.35576 0.14056 0.5131 0.0
C1073 C 0.34025 0.11351 0.5529 0.0
C1074 C 0.377 0.15 0.52638 0.0
C1075 C 0.38008 0.1409 0.55223 0.0
H1076 H 0.93162 0.28557 0.60035 0.0
H1077 H 0.94351 0.23371 0.63255 0.0
H1078 H 0.92256 0.20968 0.59108 0.0
H1079 H 0.90488 0.20517 0.5429 0.0
H1080 H 0.89401 0.25725 0.50927 0.0
H1081 H 0.91021 0.2793 0.55428 0.0
C1082 C 0.92938 0.26891 0.59844 0.0
C1083 C 0.93935 0.26155 0.61926 0.0
C1084 C 0.91751 0.25523 0.57429 0.0
C1085 C 0.93619 0.23987 0.61665 0.0
C1086 C 0.92419 0.22609 0.59295 0.0
C1087 C 0.90536 0.22101 0.54583 0.0
C1088 C 0.89824 0.22958 0.52286 0.0
C1089 C 0.91527 0.23381 0.57128 0.0
C1090 C 0.89943 0.25035 0.52671 0.0
C1091 C 0.90881 0.263 0.55232 0.0
H1092 H 0.31606 0.25071 0.60554 0.0
H1093 H 0.38791 0.29307 0.60557 0.0
H1094 H 0.39017 0.27543 0.55996 0.0
H1095 H 0.37151 0.24967 0.5184 0.0
H1096 H 0.29959 0.20915 0.51653 0.0
H1097 H 0.29749 0.22413 0.56469 0.0
C1098 C 0.33221 0.25594 0.59566 0.0
C1099 C 0.35178 0.2732 0.60882 0.0
C1100 C 0.33334 0.24602 0.56915 0.0
C1101 C 0.37259 0.2799 0.59574 0.0
C1102 C 0.3739 0.2698 0.56971 0.0
C1103 C 0.35545 0.24383 0.5289 0.0
C1104 C 0.33574 0.22822 0.51428 0.0
C1105 C 0.35437 0.25305 0.55603 0.0
C1106 C 0.31495 0.22109 0.52762 0.0
C1107 C 0.31376 0.22971 0.55501 0.0
H1108 H 0.74327 0.09711 0.60043 0.0
H1109 H 0.79401 0.08439 0.63537 0.0
H1110 H 0.8179 0.10295 0.59333 0.0
H1111 H 0.82284 0.11935 0.54427 0.0
H1112 H 0.77205 0.13151 0.50843 0.0
H1113 H 0.74988 0.11687 0.55317 0.0
C1114 C 0.75967 0.09866 0.59898 0.0
C1115 C 0.76672 0.08917 0.62083 0.0
C1116 C 0.77331 0.1092 0.57449 0.0
C1117 C 0.78806 0.09139 0.61872 0.0
C1118 C 0.80178 0.10201 0.59467 0.0
C1119 C 0.80722 0.11936 0.54659 0.0
C1120 C 0.79907 0.12643 0.52307 0.0
C1121 C 0.79438 0.11053 0.57211 0.0
C1122 C 0.77859 0.126 0.52621 0.0
C1123 C 0.76588 0.11758 0.55173 0.0
H1124 H 0.92508 0.68395 0.61214 0.0
H1125 H 0.96508 0.65921 0.57184 0.0
H1126 H 0.94689 0.65602 0.52451 0.0
H1127 H 0.92116 0.66203 0.49407 0.0
H1128 H 0.88122 0.6871 0.53332 0.0
H1129 H 0.89753 0.68802 0.58179 0.0
C1130 C 0.92968 0.67772 0.59302 0.0
C1131 C 0.94653 0.67198 0.59544 0.0
C1132 C 0.91919 0.676 0.56577 0.0
C1133 C 0.95224 0.66382 0.57055 0.0
C1134 C 0.94186 0.662 0.54347 0.0
C1135 C 0.91604 0.66772 0.51326 0.0
C1136 C 0.90031 0.67484 0.51015 0.0
C1137 C 0.92559 0.66836 0.54076 0.0
C1138 C 0.89337 0.68161 0.53524 0.0
C1139 C 0.90277 0.68223 0.56286 0.0
H1140 H 0.92655 0.68707 0.73573 0.0
H1141 H 0.97747 0.6786 0.7792 0.0
H1142 H 0.95748 0.67143 0.82566 0.0
H1143 H 0.9247 0.66515 0.85289 0.0
H1144 H 0.87496 0.67672 0.8116 0.0
H1145 H 0.89506 0.6844 0.76498 0.0
C1146 C 0.93334 0.68386 0.75548 0.0
C1147 C 0.95341 0.68326 0.75402 0.0
C1148 C 0.92186 0.67999 0.78232 0.0
C1149 C 0.96211 0.67923 0.77976 0.0
C1150 C 0.95063 0.67501 0.8063 0.0
C1151 C 0.91843 0.67003 0.83413 0.0
C1152 C 0.89826 0.67047 0.83616 0.0
C1153 C 0.93039 0.6751 0.80773 0.0
C1154 C 0.89023 0.67595 0.81085 0.0
C1155 C 0.90182 0.68052 0.78417 0.0
H1156 H 0.37337 0.26643 0.74794 0.0
H1157 H 0.31337 0.26604 0.77521 0.0
H1158 H 0.31324 0.2477 0.82115 0.0
H1159 H 0.33178 0.23449 0.85508 0.0
H1160 H 0.39287 0.23672 0.82884 0.0
H1161 H 0.39058 0.25098 0.78066 0.0
C1162 C 0.36015 0.26214 0.76383 0.0
C1163 C 0.34353 0.26776 0.75834 0.0
C1164 C 0.36033 0.25184 0.79032 0.0
C1165 C 0.32644 0.26201 0.77903 0.0
C1166 C 0.32635 0.25153 0.80529 0.0
C1167 C 0.34451 0.23797 0.83873 0.0
C1168 C 0.36252 0.23466 0.84564 0.0
C1169 C 0.34347 0.24679 0.81141 0.0
C1170 C 0.37869 0.23888 0.82405 0.0
C1171 C 0.37754 0.24727 0.79658 0.0
H1172 H 0.75416 0.10909 0.76071 0.0
H1173 H 0.77117 0.05738 0.77219 0.0
H1174 H 0.79293 0.07634 0.81624 0.0
H1175 H 0.80547 0.10653 0.85308 0.0
H1176 H 0.78693 0.15709 0.84355 0.0
H1177 H 0.7677 0.13998 0.79689 0.0
C1178 C 0.76271 0.10203 0.77281 0.0
C1179 C 0.76096 0.08179 0.76328 0.0
C1180 C 0.77504 0.11294 0.79832 0.0
C1181 C 0.77213 0.07286 0.77916 0.0
C1182 C 0.78464 0.08372 0.80431 0.0
C1183 C 0.7976 0.11399 0.84033 0.0
C1184 C 0.79785 0.13317 0.85113 0.0
C1185 C 0.78604 0.10364 0.81422 0.0
C1186 C 0.78718 0.14251 0.83515 0.0
C1187 C 0.77607 0.13263 0.8087 0.0
H1188 H 0.08962 0.41045 0.04371 0.0
H1189 H 0.05526 0.34904 0.99356 0.0
H1190 H 0.08112 0.33751 0.0125 0.0
H1191 H 0.10978 0.34243 0.04929 0.0
H1192 H 0.14324 0.4035 0.10013 0.0
H1193 H 0.12188 0.41784 0.07455 0.0
C1194 C 0.08806 0.39474 0.03648 0.0
C1195 C 0.07036 0.38048 0.0176 0.0
C1196 C 0.10283 0.38812 0.0477 0.0
C1197 C 0.06869 0.36028 0.00819 0.0
C1198 C 0.08343 0.35363 0.01912 0.0
C1199 C 0.11293 0.35918 0.05394 0.0
C1200 C 0.12797 0.37188 0.0766 0.0
C1201 C 0.10008 0.36706 0.03969 0.0
C1202 C 0.13171 0.39345 0.08276 0.0
C1203 C 0.11937 0.40157 0.06833 0.0
H1204 H 0.62134 0.69676 0.04563 0.0
H1205 H 0.6854 0.72837 0.00231 0.0
H1206 H 0.69198 0.76513 0.0174 0.0
H1207 H 0.68244 0.78755 0.05008 0.0
H1208 H 0.61944 0.75587 0.09557 0.0
H1209 H 0.60918 0.72009 0.07183 0.0
C1210 C 0.63652 0.71173 0.039 0.0
C1211 C 0.65302 0.7098 0.02335 0.0
C1212 C 0.64038 0.73286 0.04817 0.0
C1213 C 0.67253 0.72936 0.01468 0.0
C1214 C 0.67633 0.75042 0.02331 0.0
C1215 C 0.66608 0.77301 0.05373 0.0
C1216 C 0.65167 0.77426 0.07442 0.0
C1217 C 0.66077 0.75232 0.04101 0.0
C1218 C 0.63069 0.75524 0.07952 0.0
C1219 C 0.62497 0.73475 0.06626 0.0
H1220 H 0.31025 0.95116 0.00763 0.0
H1221 H 0.35329 0.96018 0.08186 0.0
H1222 H 0.32246 0.92926 0.1072 0.0
H1223 H 0.28296 0.90199 0.11054 0.0
H1224 H 0.23801 0.89374 0.03946 0.0
H1225 H 0.26981 0.92149 0.01022 0.0
C1226 C 0.3128 0.94613 0.02921 0.0
C1227 C 0.33396 0.95808 0.043 0.0
C1228 C 0.29468 0.92847 0.04417 0.0
C1229 C 0.33711 0.95146 0.07096 0.0
C1230 C 0.31952 0.93372 0.08545 0.0
C1231 C 0.28017 0.90609 0.08847 0.0
C1232 C 0.25827 0.8961 0.0772 0.0
C1233 C 0.2982 0.92247 0.07258 0.0
C1234 C 0.2548 0.90126 0.04851 0.0
C1235 C 0.27294 0.91725 0.03198 0.0
H1236 H 0.34412 0.04611 0.9823 0.0
H1237 H 0.41064 0.09094 0.01549 0.0
H1238 H 0.40824 0.12307 -0.00185 0.0
H1239 H 0.38978 0.13775 0.96629 0.0
H1240 H 0.32353 0.09295 0.93242 0.0
H1241 H 0.32304 0.0616 0.95785 0.0
C1242 C 0.3579 0.06294 0.98624 0.0
C1243 C 0.37768 0.06612 -0.00036 0.0
C1244 C 0.35649 0.08137 0.97597 0.0
C1245 C 0.3953 0.08802 0.00497 0.0
C1246 C 0.39397 0.10643 0.99499 0.0
C1247 C 0.3749 0.1213 0.96543 0.0
C1248 C 0.35682 0.1176 0.94725 0.0
C1249 C 0.37499 0.10325 0.97947 0.0
C1250 C 0.33772 0.09614 0.94612 0.0
C1251 C 0.33751 0.07818 0.96045 0.0
H1252 H 0.97252 0.30783 0.00866 0.0
H1253 H 0.93831 0.34239 0.98023 0.0
H1254 H 0.9077 0.30752 0.96018 0.0
H1255 H 0.89371 0.2686 0.94399 0.0
H1256 H 0.92738 0.23377 0.97285 0.0
H1257 H 0.95484 0.26708 7e-05 0.0
C1258 C 0.95813 0.3076 -0.00138 0.0
C1259 C 0.95784 0.32772 -0.0045 0.0
C1260 C 0.94051 0.28742 0.98717 0.0
C1261 C 0.93899 0.32716 0.98278 0.0
C1262 C 0.9215 0.30722 0.97118 0.0
C1263 C 0.9066 0.26814 0.95717 0.0
C1264 C 0.90858 0.24886 0.95657 0.0
C1265 C 0.92247 0.28744 0.97234 0.0
C1266 C 0.92543 0.24838 0.97338 0.0
C1267 C 0.94128 0.26751 0.98859 0.0
H1268 H 0.70061 0.61803 0.99288 0.0
H1269 H 0.73037 0.6893 0.00563 0.0
H1270 H 0.76443 0.6955 0.98127 0.0
H1271 H 0.78354 0.68101 0.95011 0.0
H1272 H 0.75438 0.60985 0.93815 0.0
H1273 H 0.72255 0.6032 0.9688 0.0
C1274 C 0.71474 0.63487 0.99088 0.0
C1275 C 0.71283 0.65319 0.00067 0.0
C1276 C 0.73435 0.63834 0.9768 0.0
C1277 C 0.73135 0.6749 -0.00181 0.0
C1278 C 0.75082 0.67849 0.9841 0.0
C1279 C 0.77049 0.66406 0.95497 0.0
C1280 C 0.77119 0.64594 0.94191 0.0
C1281 C 0.7522 0.6604 0.97243 0.0
C1282 C 0.75424 0.62403 0.94822 0.0
C1283 C 0.73594 0.62024 0.96548 0.0
H1284 H 0.96629 0.67069 0.99327 0.0
H1285 H 0.92684 0.59861 0.99163 0.0
H1286 H 0.89522 0.60053 0.9706 0.0
H1287 H 0.88124 0.62258 0.94533 0.0
H1288 H 0.92142 0.69453 0.94482 0.0
H1289 H 0.9501 0.69286 0.97467 0.0
C1290 C 0.95063 0.65541 0.98881 0.0
C1291 C 0.94903 0.63454 0.99351 0.0
C1292 C 0.93267 0.65665 0.97627 0.0
C1293 C 0.92857 0.61488 0.98795 0.0
C1294 C 0.91049 0.61597 0.97586 0.0
C1295 C 0.89588 0.6379 0.95275 0.0
C1296 C 0.89929 0.65865 0.94288 0.0
C1297 C 0.91264 0.63674 0.96894 0.0
C1298 C 0.91849 0.67839 0.9522 0.0
C1299 C 0.93496 0.67741 0.96901 0.0
H1300 H 0.39419 0.32202 0.01006 0.0
H1301 H 0.33461 0.31493 0.96881 0.0
H1302 H 0.32602 0.27881 0.94809 0.0
H1303 H 0.33769 0.25165 0.93675 0.0
H1304 H 0.39984 0.26089 0.97214 0.0
H1305 H 0.40464 0.29296 0.00111 0.0
C1306 C 0.37915 0.31232 -0.00305 0.0
C1307 C 0.36511 0.32112 0.99078 0.0
C1308 C 0.37476 0.29187 0.9841 0.0
C1309 C 0.34576 0.30855 0.9736 0.0
C1310 C 0.34083 0.28789 0.96179 0.0
C1311 C 0.35222 0.26055 0.95101 0.0
C1312 C 0.36854 0.25403 0.95181 0.0
C1313 C 0.35556 0.27975 0.96612 0.0
C1314 C 0.38692 0.2654 0.97108 0.0
C1315 C 0.38985 0.28398 0.98736 0.0
H1316 H 0.72303 0.05511 0.00235 0.0
H1317 H 0.6919 0.09564 -0.00387 0.0
H1318 H 0.72626 0.12641 0.97571 0.0
H1319 H 0.76352 0.13982 0.95371 0.0
H1320 H 0.79532 0.10011 0.96217 0.0
H1321 H 0.76265 0.07118 0.98817 0.0
C1322 C 0.72397 0.07084 -0.00301 0.0
C1323 C 0.70493 0.07305 0.00033 0.0
C1324 C 0.74391 0.08859 0.98568 0.0
C1325 C 0.70636 0.09357 0.99369 0.0
C1326 C 0.72597 0.11113 0.9819 0.0
C1327 C 0.76351 0.12516 0.96219 0.0
C1328 C 0.78173 0.12205 0.95626 0.0
C1329 C 0.74464 0.1086 0.97704 0.0
C1330 C 0.78156 0.10293 0.96693 0.0
C1331 C 0.76278 0.08629 0.98146 0.0
H1332 H 0.67278 0.96853 0.01171 0.0
H1333 H 0.60606 0.94175 0.04618 0.0
H1334 H 0.60802 0.91051 0.06771 0.0
H1335 H 0.63069 0.89393 0.08285 0.0
H1336 H 0.69739 0.92046 0.04898 0.0
H1337 H 0.69331 0.9483 0.02057 0.0
C1338 C 0.65852 0.95561 0.02344 0.0
C1339 C 0.63945 0.95767 0.02773 0.0
C1340 C 0.6598 0.93767 0.03597 0.0
C1341 C 0.62101 0.94068 0.04273 0.0
C1342 C 0.62213 0.92281 0.05515 0.0
C1343 C 0.64405 0.90542 0.06855 0.0
C1344 C 0.66432 0.90527 0.06802 0.0
C1345 C 0.64171 0.92157 0.05279 0.0
C1346 C 0.68157 0.92018 0.04949 0.0
C1347 C 0.67933 0.93625 0.03354 0.0
H1348 H 0.06949 0.71012 0.00611 0.0
H1349 H 0.04915 0.67633 0.08969 0.0
H1350 H 0.07756 0.70966 0.11494 0.0
H1351 H 0.10714 0.74811 0.11393 0.0
H1352 H 0.12709 0.78451 0.03245 0.0
H1353 H 0.10027 0.75026 0.0054 0.0
C1354 C 0.07142 0.71016 0.02981 0.0
C1355 C 0.05717 0.69083 0.04608 0.0
C1356 C 0.08766 0.72972 0.04445 0.0
C1357 C 0.05974 0.69102 0.07675 0.0
C1358 C 0.07603 0.71004 0.09121 0.0
C1359 C 0.10545 0.74873 0.09024 0.0
C1360 C 0.11857 0.76893 0.07526 0.0
C1361 C 0.08983 0.72945 0.07535 0.0
C1362 C 0.11692 0.76919 0.04447 0.0
C1363 C 0.10156 0.74966 0.02912 0.0
H1364 H 0.30122 0.34318 0.02314 0.0
H1365 H 0.33247 0.41491 0.02999 0.0
H1366 H 0.29725 0.41139 0.04714 0.0
H1367 H 0.25928 0.38745 0.06716 0.0
H1368 H 0.22772 0.31586 0.05844 0.0
H1369 H 0.26104 0.31965 0.03422 0.0
C1370 C 0.30013 0.358 0.02788 0.0
C1371 C 0.31937 0.37924 0.02583 0.0
C1372 C 0.27975 0.35584 0.03724 0.0
C1373 C 0.31781 0.3984 0.03155 0.0
C1374 C 0.29772 0.39638 0.04143 0.0
C1375 C 0.25943 0.37281 0.05874 0.0
C1376 C 0.24112 0.35143 0.06422 0.0
C1377 C 0.27878 0.37515 0.04522 0.0
C1378 C 0.24152 0.33246 0.05388 0.0
C1379 C 0.2607 0.33463 0.04048 0.0
H1380 H 0.72307 0.67583 0.35319 0.0
H1381 H 0.76696 0.74735 0.3547 0.0
H1382 H 0.79698 0.74268 0.37592 0.0
H1383 H 0.80876 0.71826 0.40035 0.0
H1384 H 0.7654 0.64678 0.39689 0.0
H1385 H 0.7373 0.65126 0.36954 0.0
C1386 C 0.73937 0.69034 0.35768 0.0
C1387 C 0.74278 0.7119 0.35285 0.0
C1388 C 0.75661 0.68749 0.36948 0.0
C1389 C 0.76398 0.73059 0.35833 0.0
C1390 C 0.78111 0.72793 0.37057 0.0
C1391 C 0.7935 0.70373 0.39256 0.0
C1392 C 0.7891 0.68224 0.40027 0.0
C1393 C 0.77739 0.70649 0.37704 0.0
C1394 C 0.76917 0.66344 0.39067 0.0
C1395 C 0.75303 0.66602 0.37539 0.0
H1396 H 0.34584 0.06152 0.35657 0.0
H1397 H 0.27496 0.02924 0.37283 0.0
H1398 H 0.27972 0.06348 0.3959 0.0
H1399 H 0.30485 0.10135 0.41618 0.0
H1400 H 0.37534 0.13427 0.39739 0.0
H1401 H 0.37001 0.10132 0.36997 0.0
C1402 C 0.33145 0.06216 0.36487 0.0
C1403 C 0.31015 0.04292 0.3635 0.0
C1404 C 0.33427 0.08204 0.37747 0.0
C1405 C 0.29152 0.0439 0.37381 0.0
C1406 C 0.29425 0.06344 0.38703 0.0
C1407 C 0.31883 0.10147 0.40519 0.0
C1408 C 0.3404 0.12011 0.40845 0.0
C1409 C 0.31561 0.08245 0.38956 0.0
C1410 C 0.35856 0.12014 0.39464 0.0
C1411 C 0.35554 0.10123 0.37931 0.0
H1412 H 0.97815 0.28629 0.35027 0.0
H1413 H 0.02053 0.30225 0.42718 0.0
H1414 H 0.98992 0.27261 0.45452 0.0
H1415 H 0.95075 0.24437 0.45823 0.0
H1416 H 0.9065 0.22881 0.38377 0.0
H1417 H 0.93817 0.25566 0.35353 0.0
C1418 C 0.98064 0.28302 0.37288 0.0
C1419 C 1.00152 0.29655 0.38679 0.0
C1420 C 0.96265 0.2661 0.38889 0.0
C1421 C 1.00457 0.29224 0.41611 0.0
C1422 C 0.9871 0.27527 0.43177 0.0
C1423 C 0.94806 0.24678 0.43529 0.0
C1424 C 0.92638 0.23499 0.42327 0.0
C1425 C 0.96602 0.26248 0.41862 0.0
C1426 C 0.9231 0.23783 0.39344 0.0
C1427 C 0.94116 0.25326 0.3763 0.0
H1428 H 0.06562 0.42661 0.34558 0.0
H1429 H 1.00033 0.37253 0.32051 0.0
H1430 H 0.99073 0.39922 0.29986 0.0
H1431 H 1.00337 0.43684 0.28107 0.0
H1432 H 0.07016 0.49026 0.30113 0.0
H1433 H 0.07625 0.46534 0.33283 0.0
C1434 C 0.04912 0.42074 0.33619 0.0
C1435 C 0.03385 0.39762 0.33409 0.0
C1436 C 0.04397 0.43616 0.32347 0.0
C1437 C 0.01249 0.39023 0.322 0.0
C1438 C 1.00699 0.40549 0.31019 0.0
C1439 C 0.01905 0.44316 0.29303 0.0
C1440 C 0.03643 0.46524 0.28824 0.0
C1441 C 0.02295 0.42836 0.30964 0.0
C1442 C 0.05647 0.47336 0.30436 0.0
C1443 C 0.06011 0.45898 0.32213 0.0
H1444 H 0.63837 0.64169 0.33888 0.0
H1445 H 0.61285 0.68198 0.30188 0.0
H1446 H 0.58094 0.64854 0.2809 0.0
H1447 H 0.5636 0.60883 0.26678 0.0
H1448 H 0.58913 0.56849 0.3032 0.0
H1449 H 0.61727 0.60073 0.33141 0.0
C1450 C 0.62559 0.64307 0.32669 0.0
C1451 C 0.62817 0.66432 0.32152 0.0
C1452 C 0.60727 0.62374 0.31459 0.0
C1453 C 0.61135 0.66585 0.30601 0.0
C1454 C 0.59311 0.64673 0.29392 0.0
C1455 C 0.57488 0.60699 0.28168 0.0
C1456 C 0.5744 0.5864 0.28288 0.0
C1457 C 0.59133 0.62571 0.2972 0.0
C1458 C 0.58907 0.58413 0.30216 0.0
C1459 C 0.60536 0.60264 0.31795 0.0
H1460 H 0.35907 0.96029 0.32378 0.0
H1461 H 0.37724 0.02807 0.30227 0.0
H1462 H 0.41309 0.03489 0.28315 0.0
H1463 H 0.43751 0.02065 0.26796 0.0
H1464 H 0.41773 0.95163 0.28384 0.0
H1465 H 0.38495 0.94654 0.31083 0.0
C1466 C 0.37105 0.97662 0.31529 0.0
C1467 C 0.36547 0.99362 0.31424 0.0
C1468 C 0.39143 0.98023 0.3034 0.0
C1469 C 0.38107 0.01467 0.30305 0.0
C1470 C 0.40159 0.0186 0.29216 0.0
C1471 C 0.42611 1.00448 0.27745 0.0
C1472 C 0.43001 0.98649 0.2734 0.0
C1473 C 0.40668 1.00134 0.29149 0.0
C1474 C 0.41534 0.96587 0.28664 0.0
C1475 C 0.39637 0.96285 0.30178 0.0
H1476 H 0.5997 0.95365 0.32894 0.0
H1477 H 0.65049 0.02252 0.31527 0.0
H1478 H 0.62213 0.0313 0.29911 0.0
H1479 H 0.58401 0.01843 0.28209 0.0
H1480 H 0.53365 0.94891 0.29038 0.0
H1481 H 0.56022 0.94162 0.3168 0.0
C1482 C 0.60445 0.97061 0.32283 0.0
C1483 C 0.62718 0.98731 0.32278 0.0
C1484 C 0.58803 0.97548 0.31279 0.0
C1485 C 0.63313 0.00927 0.31498 0.0
C1486 C 0.61691 0.01435 0.30586 0.0
C1487 C 0.57872 1.00179 0.2903 0.0
C1488 C 0.55702 0.9842 0.28384 0.0
C1489 C 0.59445 0.99745 0.30371 0.0
C1490 C 0.55023 0.9628 0.2951 0.0
C1491 C 0.56557 0.95854 0.30977 0.0
H1492 H 0.01969 0.63973 0.3259 0.0
H1493 H 0.0915 0.67708 0.31676 0.0
H1494 H 0.0909 0.64423 0.29544 0.0
H1495 H 0.06948 0.60637 0.27383 0.0
H1496 H 0.99756 0.57005 0.28001 0.0
H1497 H 0.99864 0.60076 0.30847 0.0
C1498 C 0.03525 0.64057 0.31968 0.0
C1499 C 0.05559 0.66088 0.32268 0.0
C1500 C 0.03472 0.62176 0.30683 0.0
C1501 C 0.0756 0.6617 0.31453 0.0
C1502 C 0.07527 0.64291 0.30229 0.0
C1503 C 0.05414 0.60496 0.28223 0.0
C1504 C 0.03348 0.58599 0.27508 0.0
C1505 C 0.05487 0.62305 0.29759 0.0
C1506 C 0.01364 0.58449 0.28545 0.0
C1507 C 0.01426 0.6021 0.30151 0.0
H1508 H 0.39109 0.39544 0.33008 0.0
H1509 H 0.35397 0.42782 0.30559 0.0
H1510 H 0.38817 0.45976 0.28636 0.0
H1511 H 0.42736 0.47548 0.26993 0.0
H1512 H 0.46458 0.44363 0.29631 0.0
H1513 H 0.43186 0.41478 0.32217 0.0
C1514 C 0.39065 0.40974 0.32109 0.0
C1515 C 0.37009 0.40924 0.31879 0.0
C1516 C 0.41039 0.4281 0.31047 0.0
C1517 C 0.36965 0.42789 0.3075 0.0
C1518 C 0.38917 0.44608 0.29639 0.0
C1519 C 0.42846 0.46267 0.28232 0.0
C1520 C 0.44829 0.46162 0.28129 0.0
C1521 C 0.40948 0.44601 0.29689 0.0
C1522 C 0.44958 0.4449 0.29714 0.0
C1523 C 0.43077 0.42823 0.31157 0.0
H1524 H 0.28754 0.27401 0.36679 0.0
H1525 H 0.35624 0.3152 0.33999 0.0
H1526 H 0.36558 0.28841 0.36094 0.0
H1527 H 0.35536 0.25587 0.39241 0.0
H1528 H 0.28738 0.21594 0.42209 0.0
H1529 H 0.27649 0.23924 0.3941 0.0
C1530 C 0.30445 0.2769 0.36509 0.0
C1531 C 0.3212 0.29667 0.35208 0.0
C1532 C 0.30985 0.26162 0.37779 0.0
C1533 C 0.34306 0.3002 0.35009 0.0
C1534 C 0.34843 0.28488 0.36208 0.0
C1535 C 0.33803 0.25187 0.39191 0.0
C1536 C 0.32215 0.23418 0.40909 0.0
C1537 C 0.33212 0.26587 0.37671 0.0
C1538 C 0.29984 0.22943 0.40886 0.0
C1539 C 0.29367 0.24286 0.39307 0.0
H1540 H 0.75587 0.03618 0.36167 0.0
H1541 H 0.70098 0.04553 0.38728 0.0
H1542 H 0.72712 0.0818 0.40903 0.0
H1543 H 0.76495 0.10885 0.42538 0.0
H1544 H 0.81961 0.0977 0.40512 0.0
H1545 H 0.79451 0.06494 0.37548 0.0
C1546 C 0.74972 0.04631 0.37174 0.0
C1547 C 0.72655 0.0381 0.37322 0.0
C1548 C 0.76486 0.06697 0.38496 0.0
C1549 C 0.71874 0.05136 0.38626 0.0
C1550 C 0.73368 0.07215 0.3986 0.0
C1551 C 0.77145 0.09938 0.41426 0.0
C1552 C 0.79408 0.10559 0.41792 0.0
C1553 C 0.75669 0.07982 0.39877 0.0
C1554 C 0.80231 0.09346 0.40265 0.0
C1555 C 0.78787 0.07447 0.38602 0.0
H1556 H 0.97332 0.68771 0.34361 0.0
H1557 H 0.01309 0.75148 0.38721 0.0
H1558 H 0.97959 0.74779 0.41048 0.0
H1559 H 0.94005 0.72402 0.42385 0.0
H1560 H 0.90037 0.65992 0.38126 0.0
H1561 H 0.93253 0.66642 0.35151 0.0
C1562 C 0.97458 0.70096 0.35782 0.0
C1563 C 0.9957 0.71966 0.36407 0.0
C1564 C 0.95524 0.69866 0.3713 0.0
C1565 C 0.99706 0.73683 0.38221 0.0
C1566 C 0.97791 0.73471 0.3956 0.0
C1567 C 0.93835 0.71177 0.40747 0.0
C1568 C 0.91796 0.69146 0.40488 0.0
C1569 C 0.95705 0.71537 0.39107 0.0
C1570 C 0.91584 0.67575 0.3835 0.0
C1571 C 0.93432 0.67934 0.36677 0.0
H1572 H 0.39652 0.01893 0.68013 0.0
H1573 H 0.43043 0.08767 0.70937 0.0
H1574 H 0.46034 0.08306 0.73131 0.0
H1575 H 0.47377 0.05775 0.74796 0.0
H1576 H 0.44066 0.98955 0.71671 0.0
H1577 H 0.41382 0.99573 0.68899 0.0
C1578 C 0.4107 0.03297 0.69086 0.0
C1579 C 0.41122 0.05349 0.69364 0.0
C1580 C 0.42795 0.03027 0.70294 0.0
C1581 C 0.42974 0.07171 0.70712 0.0
C1582 C 0.44677 0.06905 0.71973 0.0
C1583 C 0.46115 0.04455 0.73418 0.0
C1584 C 0.45912 0.02325 0.73425 0.0
C1585 C 0.44569 0.04821 0.71853 0.0
C1586 C 0.44265 1.00614 0.71662 0.0
C1587 C 0.42713 0.00959 0.70112 0.0
H1588 H 0.9609 0.36206 0.69699 0.0
H1589 H 0.0305 0.38185 0.70831 0.0
H1590 H 0.03929 0.4195 0.72233 0.0
H1591 H 0.02658 0.44533 0.73734 0.0
H1592 H 0.95672 0.42491 0.7315 0.0
H1593 H 0.94859 0.3893 0.70861 0.0
C1594 C 0.97801 0.37474 0.70215 0.0
C1595 C 0.99499 0.36914 0.70192 0.0
C1596 C 0.98287 0.39631 0.71099 0.0
C1597 C 0.01709 0.38568 0.7087 0.0
C1598 C 0.02216 0.40725 0.71661 0.0
C1599 C 0.00974 0.43337 0.72996 0.0
C1600 C 0.99232 0.43776 0.73532 0.0
C1601 C 1.00512 0.41258 0.71854 0.0
C1602 C 0.9704 0.42196 0.72681 0.0
C1603 C 0.96575 0.40152 0.71417 0.0
H1604 H 0.65901 0.59702 0.69068 0.0
H1605 H 0.64632 0.65047 0.71255 0.0
H1606 H 0.61048 0.62369 0.7342 0.0
H1607 H 0.58529 0.58612 0.75252 0.0
H1608 H 0.60061 0.53356 0.73715 0.0
H1609 H 0.63189 0.55843 0.70594 0.0
C1610 C 0.6482 0.60268 0.69982 0.0
C1611 C 0.65536 0.62567 0.70039 0.0
C1612 C 0.62792 0.58725 0.7132 0.0
C1613 C 0.64127 0.63287 0.71227 0.0
C1614 C 0.62075 0.61756 0.72454 0.0
C1615 C 0.59533 0.58 0.74211 0.0
C1616 C 0.59082 0.55811 0.74781 0.0
C1617 C 0.61427 0.59485 0.726 0.0
C1618 C 0.60355 0.55027 0.73324 0.0
C1619 C 0.62175 0.56464 0.71573 0.0
H1620 H 0.74421 0.7538 0.65759 0.0
H1621 H 0.67396 0.70597 0.64595 0.0
H1622 H 0.66747 0.73522 0.62721 0.0
H1623 H 0.68243 0.77291 0.6078 0.0
H1624 H 0.75307 0.82028 0.61494 0.0
H1625 H 0.75859 0.79317 0.64278 0.0
C1626 C 0.72746 0.74993 0.65141 0.0
C1627 C 0.70966 0.72771 0.65272 0.0
C1628 C 0.72389 0.76681 0.63988 0.0
C1629 C 0.688 0.72289 0.64472 0.0
C1630 C 0.68424 0.73962 0.63406 0.0
C1631 C 0.69896 0.77744 0.61599 0.0
C1632 C 0.71732 0.79845 0.60899 0.0
C1633 C 0.70217 0.76143 0.6306 0.0
C1634 C 0.7386 0.80425 0.62012 0.0
C1635 C 0.74183 0.78862 0.63568 0.0
H1636 H 0.28391 0.98623 0.66457 0.0
H1637 H 0.33903 0.99573 0.6099 0.0
H1638 H 0.31547 0.95951 0.58655 0.0
H1639 H 0.27883 0.92668 0.57867 0.0
H1640 H 0.22252 0.91692 0.63041 0.0
H1641 H 0.24696 0.95135 0.65851 0.0
C1642 C 0.29075 0.98023 0.64773 0.0
C1643 C 0.31315 0.99378 0.63877 0.0
C1644 C 0.27692 0.95935 0.63395 0.0
C1645 C 0.32182 0.98578 0.61698 0.0
C1646 C 0.30838 0.96503 0.60365 0.0
C1647 C 0.27196 0.93199 0.59634 0.0
C1648 C 0.24895 0.91953 0.60234 0.0
C1649 C 0.28587 0.95193 0.61154 0.0
C1650 C 0.24023 0.9263 0.62549 0.0
C1651 C 0.25416 0.94606 0.64131 0.0
H1652 H 0.03836 0.28331 0.65875 0.0
H1653 H 0.05074 0.34836 0.63186 0.0
H1654 H 0.08433 0.35493 0.60584 0.0
H1655 H 0.10855 0.34127 0.58767 0.0
H1656 H 0.09428 0.27471 0.60996 0.0
H1657 H 0.06377 0.27006 0.64168 0.0
C1658 C 0.04858 0.29899 0.64743 0.0
C1659 C 0.04201 0.31527 0.64707 0.0
C1660 C 0.06764 0.30245 0.63179 0.0
C1661 C 0.05533 0.33548 0.63224 0.0
C1662 C 0.07457 0.33928 0.6174 0.0
C1663 C 0.0988 0.3257 0.59943 0.0
C1664 C 0.10366 0.30831 0.59603 0.0
C1665 C 0.08061 0.32271 0.61651 0.0
C1666 C 0.09116 0.28852 0.61221 0.0
C1667 C 0.07347 0.28572 0.63013 0.0
H1668 H 0.27086 0.28819 0.66942 0.0
H1669 H 0.32297 0.35428 0.64496 0.0
H1670 H 0.29518 0.36208 0.62354 0.0
H1671 H 0.2572 0.34804 0.60492 0.0
H1672 H 0.20585 0.28035 0.62369 0.0
H1673 H 0.23173 0.27571 0.65561 0.0
C1674 C 0.27604 0.30441 0.65982 0.0
C1675 C 0.29893 0.32049 0.65825 0.0
C1676 C 0.26001 0.30855 0.64673 0.0
C1677 C 0.30546 0.34149 0.64594 0.0
C1678 C 0.28958 0.346 0.6338 0.0
C1679 C 0.25154 0.33245 0.61658 0.0
C1680 C 0.2298 0.31444 0.61143 0.0
C1681 C 0.26694 0.32936 0.63308 0.0
C1682 C 0.22249 0.29451 0.62721 0.0
C1683 C 0.23743 0.2917 0.64506 0.0
H1684 H 0.74057 0.98888 0.66811 0.0
H1685 H 0.67938 0.98127 0.63149 0.0
H1686 H 0.67255 0.94745 0.60536 0.0
H1687 H 0.68571 0.92233 0.58908 0.0
H1688 H 0.74906 0.93231 0.62097 0.0
H1689 H 0.75275 0.9621 0.65373 0.0
C1690 C 0.72561 0.97961 0.65471 0.0
C1691 C 0.71059 0.98763 0.6515 0.0
C1692 C 0.72211 0.9605 0.639 0.0
C1693 C 0.69131 0.97554 0.63403 0.0
C1694 C 0.68736 0.95618 0.61914 0.0
C1695 C 0.70031 0.93094 0.60327 0.0
C1696 C 0.71721 0.92522 0.60213 0.0
C1697 C 0.70294 0.94886 0.62083 0.0
C1698 C 0.73567 0.93616 0.62139 0.0
C1699 C 0.73796 0.95346 0.63989 0.0
H1700 H 0.06367 0.73769 0.67674 0.0
H1701 H 0.02232 0.75769 0.62941 0.0
H1702 H 0.05536 0.78753 0.60552 0.0
H1703 H 0.095 0.80404 0.59245 0.0
H1704 H 0.13629 0.78334 0.63819 0.0
H1705 H 0.10454 0.75824 0.66893 0.0
C1706 C 0.06196 0.74889 0.66167 0.0
C1707 C 0.04051 0.74523 0.65453 0.0
C1708 C 0.08106 0.76588 0.64764 0.0
C1709 C 0.03859 0.75999 0.63512 0.0
C1710 C 0.05749 0.77704 0.62136 0.0
C1711 C 0.09715 0.79445 0.6097 0.0
C1712 C 0.11787 0.79537 0.61288 0.0
C1713 C 0.07867 0.77959 0.62662 0.0
C1714 C 0.12054 0.78302 0.63543 0.0
C1715 C 0.1023 0.76845 0.65275 0.0
H1716 H 0.95804 0.60643 0.70046 0.0
H1717 H 0.02574 0.64537 0.66888 0.0
H1718 H 0.0339 0.61663 0.68554 0.0
H1719 H 0.02346 0.58334 0.71586 0.0
H1720 H 0.95651 0.54562 0.74975 0.0
H1721 H 0.94616 0.5705 0.72483 0.0
C1722 C 0.97445 0.60843 0.69674 0.0
C1723 C 0.99134 0.62816 0.68385 0.0
C1724 C 0.97914 0.59197 0.7068 0.0
C1725 C 0.01248 0.63043 0.67899 0.0
C1726 C 0.01718 0.614 0.68855 0.0
C1727 C 1.00639 0.58011 0.71673 0.0
C1728 C 0.99068 0.56264 0.7343 0.0
C1729 C 1.00088 0.59507 0.70336 0.0
C1730 C 0.96875 0.55886 0.73599 0.0
C1731 C 0.96293 0.57324 0.72206 0.0
H1732 H 0.42587 0.36371 0.7029 0.0
H1733 H 0.37476 0.38046 0.72143 0.0
H1734 H 0.40295 0.41676 0.74119 0.0
H1735 H 0.44115 0.44171 0.75829 0.0
H1736 H 0.49154 0.42297 0.74587 0.0
H1737 H 0.46503 0.39022 0.71729 0.0
C1738 C 0.42102 0.37547 0.71094 0.0
C1739 C 0.3983 0.36938 0.71107 0.0
C1740 C 0.43725 0.39606 0.72315 0.0
C1741 C 0.39214 0.38469 0.72151 0.0
C1742 C 0.40825 0.40547 0.73269 0.0
C1743 C 0.44642 0.43057 0.74912 0.0
C1744 C 0.46821 0.43464 0.75473 0.0
C1745 C 0.43072 0.41103 0.73442 0.0
C1746 C 0.47493 0.42038 0.74189 0.0
C1747 C 0.45965 0.40141 0.72589 0.0
H1748 H 0.65785 0.05863 0.69694 0.0
H1749 H 0.65391 0.99812 0.72953 0.0
H1750 H 0.61616 0.98508 0.74702 0.0
H1751 H 0.58575 0.99221 0.75759 0.0
H1752 H 0.58949 0.05326 0.72891 0.0
H1753 H 0.62546 0.06458 0.70472 0.0
C1754 C 0.64859 0.04253 0.70762 0.0
C1755 C 0.6588 0.0295 0.71223 0.0
C1756 C 0.6268 0.03518 0.71819 0.0
C1757 C 0.6466 0.00863 0.72605 0.0
C1758 C 0.62494 1.00107 0.73598 0.0
C1759 C 0.59422 0.00772 0.74532 0.0
C1760 C 0.58507 0.02182 0.74465 0.0
C1761 C 0.61509 0.01438 0.73273 0.0
C1762 C 0.59618 0.04204 0.72922 0.0
C1763 C 0.61683 0.04858 0.71577 0.0
loop_
_geom_bond_atom_site_label_1
_geom_bond_atom_site_label_2
_geom_bond_distance
_geom_bond_site_symmetry_2
_ccdc_geom_bond_type
In0 O1 2.294 1_455 S
In0 O2 2.326 . S
In0 O6 2.266 1_455 S
In0 O7 2.326 1_454 S
In0 O8 2.266 1_554 S
In0 O9 2.326 1_454 S
In0 O11 2.294 . S
In0 O12 2.326 . S
O1 In0 2.294 1_655 S
O1 C10 1.240 1_655 S
O2 In0 2.326 . S
O2 C10 1.252 . S
C3 O6 1.252 1_556 S
C3 O7 1.260 . S
C4 O11 1.240 . S
C4 O12 1.252 . S
C5 O8 1.252 . S
C5 O9 1.260 1_455 S
O6 In0 2.266 1_655 S
O6 C3 1.252 1_554 S
O7 In0 2.326 1_656 S
O7 C3 1.260 . S
O8 In0 2.266 1_556 S
O8 C5 1.252 . S
O9 In0 2.326 1_656 S
O9 C5 1.260 1_655 S
C10 O1 1.240 1_455 S
C10 O2 1.252 . S
O11 In0 2.294 . S
O11 C4 1.240 . S
O12 In0 2.326 . S
O12 C4 1.252 . S
In13 O14 2.294 . S
In13 O15 2.326 . S
In13 O19 2.266 . S
In13 O20 2.326 1_554 S
In13 O21 2.266 1_554 S
In13 O22 2.326 1_554 S
In13 O24 2.294 . S
In13 O25 2.326 . S
O14 In13 2.294 . S
O14 C23 1.240 . S
O15 In13 2.326 . S
O15 C23 1.252 . S
C16 O19 1.252 1_556 S
C16 O20 1.260 . S
C17 O24 1.240 . S
C17 O25 1.252 . S
C18 O21 1.252 . S
C18 O22 1.260 . S
O19 In13 2.266 . S
O19 C16 1.252 1_554 S
O20 In13 2.326 1_556 S
O20 C16 1.260 . S
O21 In13 2.266 1_556 S
O21 C18 1.252 . S
O22 In13 2.326 1_556 S
O22 C18 1.260 . S
C23 O14 1.240 . S
C23 O15 1.252 . S
O24 In13 2.294 . S
O24 C17 1.240 . S
O25 In13 2.326 . S
O25 C17 1.252 . S
In26 O27 2.294 . S
In26 O28 2.326 1_554 S
In26 O32 2.266 . S
In26 O33 2.326 1_545 S
In26 O34 2.266 1_545 S
In26 O35 2.326 1_545 S
In26 O37 2.294 1_544 S
In26 O38 2.326 1_554 S
O27 In26 2.294 . S
O27 C36 1.240 1_554 S
O28 In26 2.326 1_556 S
O28 C36 1.252 . S
C29 O32 1.252 . S
C29 O33 1.260 1_545 S
C30 O37 1.240 1_545 S
C30 O38 1.252 . S
C31 O34 1.252 . S
C31 O35 1.260 . S
O32 In26 2.266 . S
O32 C29 1.252 . S
O33 In26 2.326 1_565 S
O33 C29 1.260 1_565 S
O34 In26 2.266 1_565 S
O34 C31 1.252 . S
O35 In26 2.326 1_565 S
O35 C31 1.260 . S
C36 O27 1.240 1_556 S
C36 O28 1.252 . S
O37 In26 2.294 1_566 S
O37 C30 1.240 1_565 S
O38 In26 2.326 1_556 S
O38 C30 1.252 . S
In39 O40 2.294 1_554 S
In39 O41 2.326 1_454 S
In39 O45 2.266 . S
In39 O46 2.326 . S
In39 O47 2.266 1_455 S
In39 O48 2.326 . S
In39 O50 2.294 1_455 S
In39 O51 2.326 1_454 S
O40 In39 2.294 1_556 S
O40 C49 1.240 . S
O41 In39 2.326 1_656 S
O41 C49 1.252 1_655 S
C42 O45 1.252 . S
C42 O46 1.260 . S
C43 O50 1.240 1_556 S
C43 O51 1.252 . S
C44 O47 1.252 1_455 S
C44 O48 1.260 . S
O45 In39 2.266 . S
O45 C42 1.252 . S
O46 In39 2.326 . S
O46 C42 1.260 . S
O47 In39 2.266 1_655 S
O47 C44 1.252 1_655 S
O48 In39 2.326 . S
O48 C44 1.260 . S
C49 O40 1.240 . S
C49 O41 1.252 1_455 S
O50 In39 2.294 1_655 S
O50 C43 1.240 1_554 S
O51 In39 2.326 1_656 S
O51 C43 1.252 . S
In52 O53 2.294 1_554 S
In52 O54 2.326 1_554 S
In52 O58 2.266 . S
In52 O59 2.326 . S
In52 O60 2.266 . S
In52 O61 2.326 . S
In52 O63 2.294 . S
In52 O64 2.326 1_554 S
O53 In52 2.294 1_556 S
O53 C62 1.240 . S
O54 In52 2.326 1_556 S
O54 C62 1.252 . S
C55 O58 1.252 . S
C55 O59 1.260 . S
C56 O63 1.240 1_556 S
C56 O64 1.252 . S
C57 O60 1.252 . S
C57 O61 1.260 . S
O58 In52 2.266 . S
O58 C55 1.252 . S
O59 In52 2.326 . S
O59 C55 1.260 . S
O60 In52 2.266 . S
O60 C57 1.252 . S
O61 In52 2.326 . S
O61 C57 1.260 . S
C62 O53 1.240 . S
C62 O54 1.252 . S
O63 In52 2.294 . S
O63 C56 1.240 1_554 S
O64 In52 2.326 1_556 S
O64 C56 1.252 . S
In65 O66 2.294 . S
In65 O67 2.326 1_545 S
In65 O71 2.266 . S
In65 O72 2.326 1_554 S
In65 O73 2.266 1_544 S
In65 O74 2.326 1_554 S
In65 O76 2.294 1_545 S
In65 O77 2.326 1_545 S
O66 In65 2.294 . S
O66 C75 1.240 . S
O67 In65 2.326 1_565 S
O67 C75 1.252 1_565 S
C68 O71 1.252 1_556 S
C68 O72 1.260 . S
C69 O76 1.240 . S
C69 O77 1.252 . S
C70 O73 1.252 1_545 S
C70 O74 1.260 . S
O71 In65 2.266 . S
O71 C68 1.252 1_554 S
O72 In65 2.326 1_556 S
O72 C68 1.260 . S
O73 In65 2.266 1_566 S
O73 C70 1.252 1_565 S
O74 In65 2.326 1_556 S
O74 C70 1.260 . S
C75 O66 1.240 . S
C75 O67 1.252 1_545 S
O76 In65 2.294 1_565 S
O76 C69 1.240 . S
O77 In65 2.326 1_565 S
O77 C69 1.252 . S
In78 O79 2.294 . S
In78 O80 2.326 . S
In78 O84 2.266 . S
In78 O85 2.326 . S
In78 O86 2.266 . S
In78 O87 2.326 . S
In78 O89 2.294 . S
In78 O90 2.326 . S
O79 In78 2.294 . S
O79 C88 1.240 . S
O80 In78 2.326 . S
O80 C88 1.252 . S
C81 O84 1.252 . S
C81 O85 1.260 . S
C82 O89 1.240 . S
C82 O90 1.252 . S
C83 O86 1.252 . S
C83 O87 1.260 . S
O84 In78 2.266 . S
O84 C81 1.252 . S
O85 In78 2.326 . S
O85 C81 1.260 . S
O86 In78 2.266 . S
O86 C83 1.252 . S
O87 In78 2.326 . S
O87 C83 1.260 . S
C88 O79 1.240 . S
C88 O80 1.252 . S
O89 In78 2.294 . S
O89 C82 1.240 . S
O90 In78 2.326 . S
O90 C82 1.252 . S
In91 O92 2.294 . S
In91 O93 2.326 . S
In91 O97 2.266 . S
In91 O98 2.326 1_565 S
In91 O99 2.266 . S
In91 O100 2.326 . S
In91 O102 2.294 1_565 S
In91 O103 2.326 1_565 S
O92 In91 2.294 . S
O92 C101 1.240 . S
O93 In91 2.326 . S
O93 C101 1.252 . S
C94 O97 1.252 . S
C94 O98 1.260 1_565 S
C95 O102 1.240 . S
C95 O103 1.252 . S
C96 O99 1.252 . S
C96 O100 1.260 . S
O97 In91 2.266 . S
O97 C94 1.252 . S
O98 In91 2.326 1_545 S
O98 C94 1.260 1_545 S
O99 In91 2.266 . S
O99 C96 1.252 . S
O100 In91 2.326 . S
O100 C96 1.260 . S
C101 O92 1.240 . S
C101 O93 1.252 . S
O102 In91 2.294 1_545 S
O102 C95 1.240 . S
O103 In91 2.326 1_545 S
O103 C95 1.252 . S
In104 O105 2.294 . S
In104 O106 2.326 . S
In104 O110 2.266 . S
In104 O111 2.326 . S
In104 O112 2.266 1_455 S
In104 O113 2.294 1_455 S
In104 O115 2.294 . S
In104 O116 2.326 . S
O105 In104 2.294 . S
O105 C114 1.240 . S
O106 In104 2.326 . S
O106 C114 1.252 . S
C107 O110 1.252 . S
C107 O111 1.260 . S
C108 O115 1.240 . S
C108 O116 1.252 . S
C109 O112 1.252 . S
C109 O113 1.262 . S
O110 In104 2.266 . S
O110 C107 1.252 . S
O111 In104 2.326 . S
O111 C107 1.260 . S
O112 In104 2.266 1_655 S
O112 C109 1.252 . S
O113 In104 2.294 1_655 S
O113 C109 1.262 . S
C114 O105 1.240 . S
C114 O106 1.252 . S
O115 In104 2.294 . S
O115 C108 1.240 . S
O116 In104 2.326 . S
O116 C108 1.252 . S
In117 O118 2.294 . S
In117 O119 2.326 . S
In117 O123 2.266 1_565 S
In117 O124 2.326 1_565 S
In117 O125 2.266 . S
In117 O126 2.326 . S
In117 O128 2.294 . S
In117 O129 2.326 1_565 S
O118 In117 2.294 . S
O118 C127 1.240 . S
O119 In117 2.326 . S
O119 C127 1.252 . S
C120 O123 1.252 . S
C120 O124 1.260 . S
C121 O128 1.240 . S
C121 O129 1.252 1_565 S
C122 O125 1.252 . S
C122 O126 1.260 . S
O123 In117 2.266 1_545 S
O123 C120 1.252 . S
O124 In117 2.326 1_545 S
O124 C120 1.260 . S
O125 In117 2.266 . S
O125 C122 1.252 . S
O126 In117 2.326 . S
O126 C122 1.260 . S
C127 O118 1.240 . S
C127 O119 1.252 . S
O128 In117 2.294 . S
O128 C121 1.240 . S
O129 In117 2.326 1_545 S
O129 C121 1.252 1_545 S
In130 O131 2.294 . S
In130 O132 2.326 . S
In130 O136 2.266 1_455 S
In130 O137 2.326 1_455 S
In130 O138 2.266 . S
In130 O139 2.326 . S
In130 O141 2.294 . S
In130 O142 2.326 . S
O131 In130 2.294 . S
O131 C140 1.240 . S
O132 In130 2.326 . S
O132 C140 1.252 . S
C133 O136 1.252 . S
C133 O137 1.260 . S
C134 O141 1.240 . S
C134 O142 1.252 . S
C135 O138 1.252 . S
C135 O139 1.260 . S
O136 In130 2.266 1_655 S
O136 C133 1.252 . S
O137 In130 2.326 1_655 S
O137 C133 1.260 . S
O138 In130 2.266 . S
O138 C135 1.252 . S
O139 In130 2.326 . S
O139 C135 1.260 . S
C140 O131 1.240 . S
C140 O132 1.252 . S
O141 In130 2.294 . S
O141 C134 1.240 . S
O142 In130 2.326 . S
O142 C134 1.252 . S
In143 O144 2.294 . S
In143 O145 2.326 . S
In143 O149 2.266 . S
In143 O150 2.326 . S
In143 O151 2.266 . S
In143 O152 2.326 . S
In143 O154 2.294 . S
In143 O155 2.326 . S
O144 In143 2.294 . S
O144 C153 1.240 . S
O145 In143 2.326 . S
O145 C153 1.252 . S
C146 O149 1.252 . S
C146 O150 1.260 . S
C147 O154 1.240 . S
C147 O155 1.252 . S
C148 O151 1.252 . S
C148 O152 1.260 . S
O149 In143 2.266 . S
O149 C146 1.252 . S
O150 In143 2.326 . S
O150 C146 1.260 . S
O151 In143 2.266 . S
O151 C148 1.252 . S
O152 In143 2.326 . S
O152 C148 1.260 . S
C153 O144 1.240 . S
C153 O145 1.252 . S
O154 In143 2.294 . S
O154 C147 1.240 . S
O155 In143 2.326 . S
O155 C147 1.252 . S
In156 O157 2.294 . S
In156 O158 2.326 . S
In156 O162 2.266 . S
In156 O163 2.326 . S
In156 O164 2.266 1_545 S
In156 O165 2.326 1_545 S
In156 O167 2.294 . S
In156 O168 2.326 . S
O157 In156 2.294 . S
O157 C166 1.240 . S
O158 In156 2.326 . S
O158 C166 1.252 . S
C159 O162 1.252 . S
C159 O163 1.260 . S
C160 O167 1.240 . S
C160 O168 1.252 . S
C161 O164 1.252 . S
C161 O165 1.260 . S
O162 In156 2.266 . S
O162 C159 1.252 . S
O163 In156 2.326 . S
O163 C159 1.260 . S
O164 In156 2.266 1_565 S
O164 C161 1.252 . S
O165 In156 2.326 1_565 S
O165 C161 1.260 . S
C166 O157 1.240 . S
C166 O158 1.252 . S
O167 In156 2.294 . S
O167 C160 1.240 . S
O168 In156 2.326 . S
O168 C160 1.252 . S
In169 O170 2.294 . S
In169 O171 2.326 1_655 S
In169 O175 2.266 . S
In169 O176 2.326 . S
In169 O177 2.266 1_655 S
In169 O178 2.326 1_655 S
In169 O180 2.294 . S
In169 O181 2.326 . S
O170 In169 2.294 . S
O170 C179 1.240 . S
O171 In169 2.326 1_455 S
O171 C179 1.252 1_455 S
C172 O175 1.252 . S
C172 O176 1.260 . S
C173 O180 1.240 . S
C173 O181 1.252 . S
C174 O177 1.252 . S
C174 O178 1.260 . S
O175 In169 2.266 . S
O175 C172 1.252 . S
O176 In169 2.326 . S
O176 C172 1.260 . S
O177 In169 2.266 1_455 S
O177 C174 1.252 . S
O178 In169 2.326 1_455 S
O178 C174 1.260 . S
C179 O170 1.240 . S
C179 O171 1.252 1_655 S
O180 In169 2.294 . S
O180 C173 1.240 . S
O181 In169 2.326 . S
O181 C173 1.252 . S
In182 O183 2.294 . S
In182 O184 2.326 . S
In182 O188 2.266 . S
In182 O189 2.326 . S
In182 O190 2.266 . S
In182 O191 2.326 . S
In182 O193 2.294 . S
In182 O194 2.326 . S
O183 In182 2.294 . S
O183 C192 1.240 . S
O184 In182 2.326 . S
O184 C192 1.252 . S
C185 O188 1.252 . S
C185 O189 1.260 . S
C186 O193 1.240 . S
C186 O194 1.252 . S
C187 O190 1.252 . S
C187 O191 1.260 . S
O188 In182 2.266 . S
O188 C185 1.252 . S
O189 In182 2.326 . S
O189 C185 1.260 . S
O190 In182 2.266 . S
O190 C187 1.252 . S
O191 In182 2.326 . S
O191 C187 1.260 . S
C192 O183 1.240 . S
C192 O184 1.252 . S
O193 In182 2.294 . S
O193 C186 1.240 . S
O194 In182 2.326 . S
O194 C186 1.252 . S
In195 O196 2.294 . S
In195 O197 2.326 . S
In195 O201 2.266 . S
In195 O202 2.326 . S
In195 O203 2.266 . S
In195 O204 2.326 . S
In195 O206 2.294 . S
In195 O207 2.326 . S
O196 In195 2.294 . S
O196 C205 1.240 . S
O197 In195 2.326 . S
O197 C205 1.252 . S
C198 O201 1.252 . S
C198 O202 1.260 . S
C199 O206 1.240 . S
C199 O207 1.252 . S
C200 O203 1.252 . S
C200 O204 1.260 . S
O201 In195 2.266 . S
O201 C198 1.252 . S
O202 In195 2.326 . S
O202 C198 1.260 . S
O203 In195 2.266 . S
O203 C200 1.252 . S
O204 In195 2.326 . S
O204 C200 1.260 . S
C205 O196 1.240 . S
C205 O197 1.252 . S
O206 In195 2.294 . S
O206 C199 1.240 . S
O207 In195 2.326 . S
O207 C199 1.252 . S
In208 O209 2.294 . S
In208 O210 2.326 . S
In208 O214 2.266 . S
In208 O215 2.326 . S
In208 O216 2.266 . S
In208 O217 2.326 . S
In208 O219 2.294 1_545 S
In208 O220 2.326 1_545 S
O209 In208 2.294 . S
O209 C218 1.240 . S
O210 In208 2.326 . S
O210 C218 1.252 . S
C211 O214 1.252 . S
C211 O215 1.260 . S
C212 O219 1.240 . S
C212 O220 1.252 . S
C213 O216 1.252 . S
C213 O217 1.260 . S
O214 In208 2.266 . S
O214 C211 1.252 . S
O215 In208 2.326 . S
O215 C211 1.260 . S
O216 In208 2.266 . S
O216 C213 1.252 . S
O217 In208 2.326 . S
O217 C213 1.260 . S
C218 O209 1.240 . S
C218 O210 1.252 . S
O219 In208 2.294 1_565 S
O219 C212 1.240 . S
O220 In208 2.326 1_565 S
O220 C212 1.252 . S
In221 O222 2.294 . S
In221 O223 2.326 1_655 S
In221 O227 2.266 . S
In221 O228 2.326 . S
In221 O229 2.266 1_655 S
In221 O230 2.326 1_655 S
In221 O232 2.294 . S
In221 O233 2.326 . S
O222 In221 2.294 . S
O222 C231 1.240 . S
O223 In221 2.326 1_455 S
O223 C231 1.252 1_455 S
C224 O227 1.252 . S
C224 O228 1.260 . S
C225 O232 1.240 . S
C225 O233 1.252 . S
C226 O229 1.252 . S
C226 O230 1.260 . S
O227 In221 2.266 . S
O227 C224 1.252 . S
O228 In221 2.326 . S
O228 C224 1.260 . S
O229 In221 2.266 1_455 S
O229 C226 1.252 . S
O230 In221 2.326 1_455 S
O230 C226 1.260 . S
C231 O222 1.240 . S
C231 O223 1.252 1_655 S
O232 In221 2.294 . S
O232 C225 1.240 . S
O233 In221 2.326 . S
O233 C225 1.252 . S
H234 C242 0.930 . S
H235 C245 0.930 . S
H236 C247 0.930 . S
H237 C248 0.970 . S
H238 C248 0.970 . S
H239 C250 0.930 . S
H240 C252 0.930 . S
H241 C254 0.930 . S
C242 H234 0.930 . S
C242 C243 1.382 . S
C242 C244 1.426 . S
C243 C242 1.382 . S
C243 C247 1.389 . S
C244 C242 1.426 . S
C244 C245 1.375 . S
C244 C248 1.532 . S
C245 H235 0.930 . S
C245 C244 1.375 . S
C245 C246 1.416 . S
C246 C245 1.416 . S
C246 C247 1.371 . S
C247 H236 0.930 . S
C247 C243 1.389 . S
C247 C246 1.371 . S
C248 H237 0.970 . S
C248 H238 0.970 . S
C248 C244 1.532 . S
C248 C249 1.499 . S
C249 C248 1.499 . S
C249 C250 1.370 . S
C249 C254 1.415 . S
C250 H239 0.930 . S
C250 C249 1.370 . S
C250 C251 1.407 . S
C251 C250 1.407 . S
C251 C252 1.365 . S
C252 H240 0.930 . S
C252 C251 1.365 . S
C252 C253 1.393 . S
C253 C252 1.393 . S
C253 C254 1.387 . S
C254 H241 0.930 . S
C254 C249 1.415 . S
C254 C253 1.387 . S
H255 C263 0.930 . S
H256 C266 0.930 . S
H257 C268 0.930 . S
H258 C269 0.970 . S
H259 C269 0.970 . S
H260 C271 0.930 . S
H261 C273 0.930 . S
H262 C275 0.930 . S
C263 H255 0.930 . S
C263 C264 1.382 . S
C263 C265 1.426 . S
C264 C263 1.382 . S
C264 C268 1.389 . S
C265 C263 1.426 . S
C265 C266 1.375 . S
C265 C269 1.532 . S
C266 H256 0.930 . S
C266 C265 1.375 . S
C266 C267 1.416 . S
C267 C266 1.416 . S
C267 C268 1.371 . S
C268 H257 0.930 . S
C268 C264 1.389 . S
C268 C267 1.371 . S
C269 H258 0.970 . S
C269 H259 0.970 . S
C269 C265 1.532 . S
C269 C270 1.499 . S
C270 C269 1.499 . S
C270 C271 1.370 . S
C270 C275 1.415 . S
C271 H260 0.930 . S
C271 C270 1.370 . S
C271 C272 1.407 . S
C272 C271 1.407 . S
C272 C273 1.365 . S
C273 H261 0.930 . S
C273 C272 1.365 . S
C273 C274 1.393 . S
C274 C273 1.393 . S
C274 C275 1.387 . S
C275 H262 0.930 . S
C275 C270 1.415 . S
C275 C274 1.387 . S
H276 C284 0.930 . S
H277 C287 0.930 . S
H278 C289 0.930 . S
H279 C290 0.970 . S
H280 C290 0.970 . S
H281 C292 0.930 . S
H282 C294 0.930 . S
H283 C296 0.930 . S
C284 H276 0.930 . S
C284 C285 1.382 . S
C284 C286 1.426 . S
C285 C284 1.382 . S
C285 C289 1.389 . S
C286 C284 1.426 . S
C286 C287 1.375 . S
C286 C290 1.532 . S
C287 H277 0.930 . S
C287 C286 1.375 . S
C287 C288 1.416 . S
C288 C287 1.416 . S
C288 C289 1.371 . S
C289 H278 0.930 . S
C289 C285 1.389 . S
C289 C288 1.371 . S
C290 H279 0.970 . S
C290 H280 0.970 . S
C290 C286 1.532 . S
C290 C291 1.499 . S
C291 C290 1.499 . S
C291 C292 1.370 . S
C291 C296 1.415 . S
C292 H281 0.930 . S
C292 C291 1.370 . S
C292 C293 1.407 . S
C293 C292 1.407 . S
C293 C294 1.365 . S
C294 H282 0.930 . S
C294 C293 1.365 . S
C294 C295 1.393 . S
C295 C294 1.393 . S
C295 C296 1.387 . S
C296 H283 0.930 . S
C296 C291 1.415 . S
C296 C295 1.387 . S
H297 C305 0.930 . S
H298 C308 0.930 . S
H299 C310 0.930 . S
H300 C311 0.970 . S
H301 C311 0.970 . S
H302 C313 0.930 . S
H303 C315 0.930 . S
H304 C317 0.930 . S
C305 H297 0.930 . S
C305 C306 1.382 . S
C305 C307 1.426 . S
C306 C305 1.382 . S
C306 C310 1.389 . S
C307 C305 1.426 . S
C307 C308 1.375 . S
C307 C311 1.532 . S
C308 H298 0.930 . S
C308 C307 1.375 . S
C308 C309 1.416 . S
C309 C308 1.416 . S
C309 C310 1.371 . S
C310 H299 0.930 . S
C310 C306 1.389 . S
C310 C309 1.371 . S
C311 H300 0.970 . S
C311 H301 0.970 . S
C311 C307 1.532 . S
C311 C312 1.499 . S
C312 C311 1.499 . S
C312 C313 1.370 . S
C312 C317 1.415 . S
C313 H302 0.930 . S
C313 C312 1.370 . S
C313 C314 1.407 . S
C314 C313 1.407 . S
C314 C315 1.365 . S
C315 H303 0.930 . S
C315 C314 1.365 . S
C315 C316 1.393 . S
C316 C315 1.393 . S
C316 C317 1.387 . S
C317 H304 0.930 . S
C317 C312 1.415 . S
C317 C316 1.387 . S
H318 C326 0.930 . S
H319 C329 0.930 . S
H320 C331 0.930 . S
H321 C332 0.970 . S
H322 C332 0.970 . S
H323 C334 0.930 . S
H324 C336 0.930 . S
H325 C338 0.930 . S
C326 H318 0.930 . S
C326 C327 1.382 . S
C326 C328 1.426 . S
C327 C326 1.382 . S
C327 C331 1.389 . S
C328 C326 1.426 . S
C328 C329 1.375 . S
C328 C332 1.532 . S
C329 H319 0.930 . S
C329 C328 1.375 . S
C329 C330 1.416 . S
C330 C329 1.416 . S
C330 C331 1.371 . S
C331 H320 0.930 . S
C331 C327 1.389 . S
C331 C330 1.371 . S
C332 H321 0.970 . S
C332 H322 0.970 . S
C332 C328 1.532 . S
C332 C333 1.499 . S
C333 C332 1.499 . S
C333 C334 1.370 . S
C333 C338 1.415 . S
C334 H323 0.930 . S
C334 C333 1.370 . S
C334 C335 1.407 . S
C335 C334 1.407 . S
C335 C336 1.365 . S
C336 H324 0.930 . S
C336 C335 1.365 . S
C336 C337 1.393 . S
C337 C336 1.393 . S
C337 C338 1.387 . S
C338 H325 0.930 . S
C338 C333 1.415 . S
C338 C337 1.387 . S
H339 C347 0.930 . S
H340 C350 0.930 . S
H341 C352 0.930 . S
H342 C353 0.970 . S
H343 C353 0.970 . S
H344 C355 0.930 . S
H345 C357 0.930 . S
H346 C359 0.930 . S
C347 H339 0.930 . S
C347 C348 1.382 . S
C347 C349 1.426 . S
C348 C347 1.382 . S
C348 C352 1.389 . S
C349 C347 1.426 . S
C349 C350 1.375 . S
C349 C353 1.532 . S
C350 H340 0.930 . S
C350 C349 1.375 . S
C350 C351 1.416 . S
C351 C350 1.416 . S
C351 C352 1.371 . S
C352 H341 0.930 . S
C352 C348 1.389 . S
C352 C351 1.371 . S
C353 H342 0.970 . S
C353 H343 0.970 . S
C353 C349 1.532 . S
C353 C354 1.499 . S
C354 C353 1.499 . S
C354 C355 1.370 . S
C354 C359 1.415 . S
C355 H344 0.930 . S
C355 C354 1.370 . S
C355 C356 1.407 . S
C356 C355 1.407 . S
C356 C357 1.365 . S
C357 H345 0.930 . S
C357 C356 1.365 . S
C357 C358 1.393 . S
C358 C357 1.393 . S
C358 C359 1.387 . S
C359 H346 0.930 . S
C359 C354 1.415 . S
C359 C358 1.387 . S
H360 C368 0.930 . S
H361 C371 0.930 . S
H362 C373 0.930 . S
H363 C374 0.970 . S
H364 C374 0.970 . S
H365 C376 0.930 . S
H366 C378 0.930 . S
H367 C380 0.930 . S
C368 H360 0.930 . S
C368 C369 1.382 . S
C368 C370 1.426 . S
C369 C368 1.382 . S
C369 C373 1.389 . S
C370 C368 1.426 . S
C370 C371 1.375 . S
C370 C374 1.532 . S
C371 H361 0.930 . S
C371 C370 1.375 . S
C371 C372 1.416 . S
C372 C371 1.416 . S
C372 C373 1.371 . S
C373 H362 0.930 . S
C373 C369 1.389 . S
C373 C372 1.371 . S
C374 H363 0.970 . S
C374 H364 0.970 . S
C374 C370 1.532 . S
C374 C375 1.499 . S
C375 C374 1.499 . S
C375 C376 1.370 . S
C375 C380 1.415 . S
C376 H365 0.930 . S
C376 C375 1.370 . S
C376 C377 1.407 . S
C377 C376 1.407 . S
C377 C378 1.365 . S
C378 H366 0.930 . S
C378 C377 1.365 . S
C378 C379 1.393 . S
C379 C378 1.393 . S
C379 C380 1.387 . S
C380 H367 0.930 . S
C380 C375 1.415 . S
C380 C379 1.387 . S
H381 C389 0.930 . S
H382 C392 0.930 . S
H383 C394 0.930 . S
H384 C395 0.970 . S
H385 C395 0.970 . S
H386 C397 0.930 . S
H387 C399 0.930 . S
H388 C401 0.930 . S
C389 H381 0.930 . S
C389 C390 1.382 . S
C389 C391 1.426 . S
C390 C389 1.382 . S
C390 C394 1.389 . S
C391 C389 1.426 . S
C391 C392 1.375 . S
C391 C395 1.532 . S
C392 H382 0.930 . S
C392 C391 1.375 . S
C392 C393 1.416 . S
C393 C392 1.416 . S
C393 C394 1.371 . S
C394 H383 0.930 . S
C394 C390 1.389 . S
C394 C393 1.371 . S
C395 H384 0.970 . S
C395 H385 0.970 . S
C395 C391 1.532 . S
C395 C396 1.499 . S
C396 C395 1.499 . S
C396 C397 1.370 . S
C396 C401 1.415 . S
C397 H386 0.930 . S
C397 C396 1.370 . S
C397 C398 1.407 . S
C398 C397 1.407 . S
C398 C399 1.365 . S
C399 H387 0.930 . S
C399 C398 1.365 . S
C399 C400 1.393 . S
C400 C399 1.393 . S
C400 C401 1.387 . S
C401 H388 0.930 . S
C401 C396 1.415 . S
C401 C400 1.387 . S
H402 C410 0.930 . S
H403 C413 0.930 . S
H404 C415 0.930 . S
H405 C416 0.970 . S
H406 C416 0.970 . S
H407 C418 0.930 . S
H408 C420 0.930 . S
H409 C422 0.930 . S
C410 H402 0.930 . S
C410 C411 1.382 . S
C410 C412 1.426 . S
C411 C410 1.382 . S
C411 C415 1.389 . S
C412 C410 1.426 . S
C412 C413 1.375 . S
C412 C416 1.532 . S
C413 H403 0.930 . S
C413 C412 1.375 . S
C413 C414 1.416 . S
C414 C413 1.416 . S
C414 C415 1.371 . S
C415 H404 0.930 . S
C415 C411 1.389 . S
C415 C414 1.371 . S
C416 H405 0.970 . S
C416 H406 0.970 . S
C416 C412 1.532 . S
C416 C417 1.499 . S
C417 C416 1.499 . S
C417 C418 1.370 . S
C417 C422 1.415 . S
C418 H407 0.930 . S
C418 C417 1.370 . S
C418 C419 1.407 . S
C419 C418 1.407 . S
C419 C420 1.365 . S
C420 H408 0.930 . S
C420 C419 1.365 . S
C420 C421 1.393 . S
C421 C420 1.393 . S
C421 C422 1.387 . S
C422 H409 0.930 . S
C422 C417 1.415 . S
C422 C421 1.387 . S
H423 C431 0.930 . S
H424 C434 0.930 . S
H425 C436 0.930 . S
H426 C437 0.970 . S
H427 C437 0.970 . S
H428 C439 0.930 . S
H429 C441 0.932 . S
H430 C443 0.930 . S
C431 H423 0.930 . S
C431 C432 1.382 . S
C431 C433 1.426 . S
C432 C431 1.382 . S
C432 C436 1.389 . S
C433 C431 1.426 . S
C433 C434 1.375 . S
C433 C437 1.532 . S
C434 H424 0.930 . S
C434 C433 1.375 . S
C434 C435 1.416 . S
C435 C434 1.416 . S
C435 C436 1.371 . S
C436 H425 0.930 . S
C436 C432 1.389 . S
C436 C435 1.371 . S
C437 H426 0.970 . S
C437 H427 0.970 . S
C437 C433 1.532 . S
C437 C438 1.499 . S
C438 C437 1.499 . S
C438 C439 1.370 . S
C438 C443 1.415 . S
C439 H428 0.930 . S
C439 C438 1.370 . S
C439 C440 1.407 . S
C440 C439 1.407 . S
C440 C441 1.365 . S
C441 H429 0.932 . S
C441 C440 1.365 . S
C441 C442 1.393 . S
C442 C441 1.393 . S
C442 C443 1.387 . S
C443 H430 0.930 . S
C443 C438 1.415 . S
C443 C442 1.387 . S
H444 C452 0.930 . S
H445 C455 0.930 . S
H446 C457 0.930 . S
H447 C458 0.970 . S
H448 C458 0.970 . S
H449 C460 0.930 . S
H450 C462 0.930 . S
H451 C464 0.930 . S
C452 H444 0.930 . S
C452 C453 1.382 . S
C452 C454 1.426 . S
C453 C452 1.382 . S
C453 C457 1.389 . S
C454 C452 1.426 . S
C454 C455 1.375 . S
C454 C458 1.532 . S
C455 H445 0.930 . S
C455 C454 1.375 . S
C455 C456 1.416 . S
C456 C455 1.416 . S
C456 C457 1.371 . S
C457 H446 0.930 . S
C457 C453 1.389 . S
C457 C456 1.371 . S
C458 H447 0.970 . S
C458 H448 0.970 . S
C458 C454 1.532 . S
C458 C459 1.499 . S
C459 C458 1.499 . S
C459 C460 1.370 . S
C459 C464 1.415 . S
C460 H449 0.930 . S
C460 C459 1.370 . S
C460 C461 1.407 . S
C461 C460 1.407 . S
C461 C462 1.365 . S
C462 H450 0.930 . S
C462 C461 1.365 . S
C462 C463 1.393 . S
C463 C462 1.393 . S
C463 C464 1.387 . S
C464 H451 0.930 . S
C464 C459 1.415 . S
C464 C463 1.387 . S
H465 C473 0.930 . S
H466 C476 0.930 . S
H467 C478 0.930 . S
H468 C479 0.970 . S
H469 C479 0.970 . S
H470 C481 0.930 . S
H471 C483 0.930 . S
H472 C485 0.930 . S
C473 H465 0.930 . S
C473 C474 1.382 . S
C473 C475 1.426 . S
C474 C473 1.382 . S
C474 C478 1.389 1_565 S
C475 C473 1.426 . S
C475 C476 1.375 . S
C475 C479 1.532 . S
C476 H466 0.930 . S
C476 C475 1.375 . S
C476 C477 1.416 . S
C477 C476 1.416 . S
C477 C478 1.371 1_565 S
C478 H467 0.930 . S
C478 C474 1.389 1_545 S
C478 C477 1.371 1_545 S
C479 H468 0.970 . S
C479 H469 0.970 . S
C479 C475 1.532 . S
C479 C480 1.499 . S
C480 C479 1.499 . S
C480 C481 1.370 . S
C480 C485 1.415 . S
C481 H470 0.930 . S
C481 C480 1.370 . S
C481 C482 1.444 . S
C482 C481 1.444 . S
C482 C483 1.350 1_565 S
C483 H471 0.930 . S
C483 C482 1.350 1_545 S
C483 C484 1.393 1_545 S
C484 C483 1.393 1_565 S
C484 C485 1.387 . S
C485 H472 0.930 . S
C485 C480 1.415 . S
C485 C484 1.387 . S
H486 C494 0.930 . S
H487 C497 0.930 . S
H488 C499 0.930 . S
H489 C500 0.970 . S
H490 C500 0.970 . S
H491 C502 0.930 . S
H492 C504 0.930 . S
H493 C506 0.930 . S
C494 H486 0.930 . S
C494 C495 1.382 1_565 S
C494 C496 1.426 . S
C495 C494 1.382 1_545 S
C495 C499 1.389 . S
C496 C494 1.426 . S
C496 C497 1.375 . S
C496 C500 1.532 . S
C497 H487 0.930 . S
C497 C496 1.375 . S
C497 C498 1.416 1_565 S
C498 C497 1.416 1_545 S
C498 C499 1.371 . S
C499 H488 0.930 . S
C499 C495 1.389 . S
C499 C498 1.371 . S
C500 H489 0.970 . S
C500 H490 0.970 . S
C500 C496 1.532 . S
C500 C501 1.499 . S
C501 C500 1.499 . S
C501 C502 1.370 . S
C501 C506 1.415 . S
C502 H491 0.930 . S
C502 C501 1.370 . S
C502 C503 1.407 1_565 S
C503 C502 1.407 1_545 S
C503 C504 1.365 . S
C504 H492 0.930 . S
C504 C503 1.365 . S
C504 C505 1.393 . S
C505 C504 1.393 . S
C505 C506 1.387 1_545 S
C506 H493 0.930 . S
C506 C501 1.415 . S
C506 C505 1.387 1_565 S
H507 C515 0.930 . S
H508 C518 0.930 . S
H509 C520 0.930 . S
H510 C521 0.970 . S
H511 C521 0.970 . S
H512 C523 0.930 . S
H513 C525 0.930 . S
H514 C527 0.930 . S
C515 H507 0.930 . S
C515 C516 1.382 . S
C515 C517 1.426 . S
C516 C515 1.382 . S
C516 C520 1.389 1_455 S
C517 C515 1.426 . S
C517 C518 1.375 . S
C517 C521 1.532 . S
C518 H508 0.930 . S
C518 C517 1.375 . S
C518 C519 1.416 . S
C519 C518 1.416 . S
C519 C520 1.371 1_455 S
C520 H509 0.930 . S
C520 C516 1.389 1_655 S
C520 C519 1.371 1_655 S
C521 H510 0.970 . S
C521 H511 0.970 . S
C521 C517 1.532 . S
C521 C522 1.499 . S
C522 C521 1.499 . S
C522 C523 1.370 . S
C522 C527 1.415 . S
C523 H512 0.930 . S
C523 C522 1.370 . S
C523 C524 1.407 . S
C524 C523 1.407 . S
C524 C525 1.365 1_455 S
C525 H513 0.930 . S
C525 C524 1.365 1_655 S
C525 C526 1.393 1_655 S
C526 C525 1.393 1_455 S
C526 C527 1.387 . S
C527 H514 0.930 . S
C527 C522 1.415 . S
C527 C526 1.387 . S
H528 C536 0.930 . S
H529 C539 0.930 . S
H530 C541 0.930 . S
H531 C542 0.970 . S
H532 C542 0.970 . S
H533 C544 0.930 . S
H534 C546 0.930 . S
H535 C548 0.930 . S
C536 H528 0.930 . S
C536 C537 1.382 . S
C536 C538 1.426 . S
C537 C536 1.382 . S
C537 C541 1.389 . S
C538 C536 1.426 . S
C538 C539 1.375 . S
C538 C542 1.532 . S
C539 H529 0.930 . S
C539 C538 1.375 . S
C539 C540 1.416 . S
C540 C539 1.416 . S
C540 C541 1.371 . S
C541 H530 0.930 . S
C541 C537 1.389 . S
C541 C540 1.371 . S
C542 H531 0.970 . S
C542 H532 0.970 . S
C542 C538 1.532 . S
C542 C543 1.499 . S
C543 C542 1.499 . S
C543 C544 1.370 . S
C543 C548 1.415 . S
C544 H533 0.930 . S
C544 C543 1.370 . S
C544 C545 1.407 . S
C545 C544 1.407 . S
C545 C546 1.365 . S
C546 H534 0.930 . S
C546 C545 1.365 . S
C546 C547 1.393 . S
C547 C546 1.393 . S
C547 C548 1.387 . S
C548 H535 0.930 . S
C548 C543 1.415 . S
C548 C547 1.387 . S
H549 C557 0.930 . S
H550 C560 0.930 . S
H551 C562 0.930 . S
H552 C563 0.970 . S
H553 C563 0.970 . S
H554 C565 0.930 . S
H555 C567 0.930 . S
H556 C569 0.930 . S
C557 H549 0.930 . S
C557 C558 1.382 . S
C557 C559 1.426 . S
C558 C557 1.382 . S
C558 C562 1.389 . S
C559 C557 1.426 . S
C559 C560 1.375 . S
C559 C563 1.532 . S
C560 H550 0.930 . S
C560 C559 1.375 . S
C560 C561 1.416 . S
C561 C560 1.416 . S
C561 C562 1.371 . S
C562 H551 0.930 . S
C562 C558 1.389 . S
C562 C561 1.371 . S
C563 H552 0.970 . S
C563 H553 0.970 . S
C563 C559 1.532 . S
C563 C564 1.499 . S
C564 C563 1.499 . S
C564 C565 1.370 . S
C564 C569 1.415 . S
C565 H554 0.930 . S
C565 C564 1.370 . S
C565 C566 1.407 . S
C566 C565 1.407 . S
C566 C567 1.365 . S
C567 H555 0.930 . S
C567 C566 1.365 . S
C567 C568 1.393 . S
C568 C567 1.393 . S
C568 C569 1.387 . S
C569 H556 0.930 . S
C569 C564 1.415 . S
C569 C568 1.387 . S
H570 C578 0.930 . S
H571 C581 0.930 . S
H572 C583 0.930 . S
H573 C584 0.970 . S
H574 C584 0.970 . S
H575 C586 0.930 . S
H576 C588 0.930 . S
H577 C590 0.930 . S
C578 H570 0.930 . S
C578 C579 1.382 . S
C578 C580 1.426 . S
C579 C578 1.382 . S
C579 C583 1.389 . S
C580 C578 1.426 . S
C580 C581 1.375 . S
C580 C584 1.532 . S
C581 H571 0.930 . S
C581 C580 1.375 . S
C581 C582 1.416 . S
C582 C581 1.416 . S
C582 C583 1.371 . S
C583 H572 0.930 . S
C583 C579 1.389 . S
C583 C582 1.371 . S
C584 H573 0.970 . S
C584 H574 0.970 . S
C584 C580 1.532 . S
C584 C585 1.499 . S
C585 C584 1.499 . S
C585 C586 1.370 . S
C585 C590 1.415 . S
C586 H575 0.930 . S
C586 C585 1.370 . S
C586 C587 1.407 . S
C587 C586 1.407 . S
C587 C588 1.365 . S
C588 H576 0.930 . S
C588 C587 1.365 . S
C588 C589 1.393 . S
C589 C588 1.393 . S
C589 C590 1.387 . S
C590 H577 0.930 . S
C590 C585 1.415 . S
C590 C589 1.387 . S
H591 C599 0.930 . S
H592 C602 0.930 . S
H593 C604 0.930 . S
H594 C605 0.970 . S
H595 C605 0.970 . S
H596 C607 0.930 . S
H597 C609 0.930 . S
H598 C611 0.930 . S
C599 H591 0.930 . S
C599 C600 1.382 . S
C599 C601 1.426 . S
C600 C599 1.382 . S
C600 C604 1.389 . S
C601 C599 1.426 . S
C601 C602 1.375 . S
C601 C605 1.532 . S
C602 H592 0.930 . S
C602 C601 1.375 . S
C602 C603 1.416 . S
C603 C602 1.416 . S
C603 C604 1.371 . S
C604 H593 0.930 . S
C604 C600 1.389 . S
C604 C603 1.371 . S
C605 H594 0.970 . S
C605 H595 0.970 . S
C605 C601 1.532 . S
C605 C606 1.499 . S
C606 C605 1.499 . S
C606 C607 1.370 . S
C606 C611 1.415 . S
C607 H596 0.930 . S
C607 C606 1.370 . S
C607 C608 1.407 . S
C608 C607 1.407 . S
C608 C609 1.365 . S
C609 H597 0.930 . S
C609 C608 1.365 . S
C609 C610 1.393 . S
C610 C609 1.393 . S
C610 C611 1.387 . S
C611 H598 0.930 . S
C611 C606 1.415 . S
C611 C610 1.387 . S
H612 C618 0.930 . S
H613 C621 0.928 1_655 S
H614 C622 0.930 1_655 S
H615 C623 0.930 . S
H616 C626 0.930 . S
H617 C627 0.930 . S
C618 H612 0.930 . S
C618 C619 1.355 . S
C618 C620 1.415 . S
C619 C618 1.355 . S
C619 C621 1.419 . S
C620 C618 1.415 . S
C620 C625 1.425 . S
C620 C627 1.409 . S
C621 H613 0.928 1_455 S
C621 C619 1.419 . S
C621 C622 1.362 . S
C622 H614 0.930 1_455 S
C622 C621 1.362 . S
C622 C625 1.409 . S
C623 H615 0.930 . S
C623 C624 1.355 . S
C623 C625 1.415 . S
C624 C623 1.355 . S
C624 C626 1.419 . S
C625 C620 1.425 . S
C625 C622 1.409 . S
C625 C623 1.415 . S
C626 H616 0.930 . S
C626 C624 1.419 . S
C626 C627 1.362 . S
C627 H617 0.930 . S
C627 C620 1.409 . S
C627 C626 1.362 . S
H628 C634 0.930 . S
H629 C637 0.930 . S
H630 C638 0.930 . S
H631 C639 0.930 . S
H632 C642 0.930 . S
H633 C643 0.930 . S
C634 H628 0.930 . S
C634 C635 1.355 . S
C634 C636 1.415 . S
C635 C634 1.355 . S
C635 C637 1.419 . S
C636 C634 1.415 . S
C636 C641 1.425 . S
C636 C643 1.409 . S
C637 H629 0.930 . S
C637 C635 1.419 . S
C637 C638 1.362 . S
C638 H630 0.930 . S
C638 C637 1.362 . S
C638 C641 1.409 . S
C639 H631 0.930 . S
C639 C640 1.355 . S
C639 C641 1.415 . S
C640 C639 1.355 . S
C640 C642 1.419 . S
C641 C636 1.425 . S
C641 C638 1.409 . S
C641 C639 1.415 . S
C642 H632 0.930 . S
C642 C640 1.419 . S
C642 C643 1.362 . S
C643 H633 0.930 . S
C643 C636 1.409 . S
C643 C642 1.362 . S
H644 C650 0.930 . S
H645 C653 0.930 . S
H646 C654 0.930 . S
H647 C655 0.930 . S
H648 C658 0.930 . S
H649 C659 0.930 . S
C650 H644 0.930 . S
C650 C651 1.355 . S
C650 C652 1.415 . S
C651 C650 1.355 . S
C651 C653 1.419 1_545 S
C652 C650 1.415 . S
C652 C657 1.425 1_545 S
C652 C659 1.409 . S
C653 H645 0.930 . S
C653 C651 1.419 1_565 S
C653 C654 1.362 . S
C654 H646 0.930 . S
C654 C653 1.362 . S
C654 C657 1.409 . S
C655 H647 0.930 . S
C655 C656 1.355 1_565 S
C655 C657 1.415 . S
C656 C655 1.355 1_545 S
C656 C658 1.419 . S
C657 C652 1.425 1_565 S
C657 C654 1.409 . S
C657 C655 1.415 . S
C658 H648 0.930 . S
C658 C656 1.419 . S
C658 C659 1.362 . S
C659 H649 0.930 . S
C659 C652 1.409 . S
C659 C658 1.362 . S
H660 C666 0.930 . S
H661 C669 0.930 . S
H662 C670 0.930 . S
H663 C671 0.930 . S
H664 C674 0.930 . S
H665 C675 0.930 . S
C666 H660 0.930 . S
C666 C667 1.355 . S
C666 C668 1.415 . S
C667 C666 1.355 . S
C667 C669 1.419 . S
C668 C666 1.415 . S
C668 C673 1.425 . S
C668 C675 1.409 . S
C669 H661 0.930 . S
C669 C667 1.419 . S
C669 C670 1.362 . S
C670 H662 0.930 . S
C670 C669 1.362 . S
C670 C673 1.409 . S
C671 H663 0.930 . S
C671 C672 1.355 . S
C671 C673 1.415 . S
C672 C671 1.355 . S
C672 C674 1.419 . S
C673 C668 1.425 . S
C673 C670 1.409 . S
C673 C671 1.415 . S
C674 H664 0.930 . S
C674 C672 1.419 . S
C674 C675 1.362 . S
C675 H665 0.930 . S
C675 C668 1.409 . S
C675 C674 1.362 . S
H676 C682 0.930 . S
H677 C685 0.930 . S
H678 C686 0.930 . S
H679 C687 0.930 . S
H680 C690 0.930 . S
H681 C691 0.930 . S
C682 H676 0.930 . S
C682 C683 1.355 1_655 S
C682 C684 1.415 . S
C683 C682 1.355 1_455 S
C683 C685 1.419 . S
C684 C682 1.415 . S
C684 C689 1.425 1_655 S
C684 C691 1.409 . S
C685 H677 0.930 . S
C685 C683 1.419 . S
C685 C686 1.362 . S
C686 H678 0.930 . S
C686 C685 1.362 . S
C686 C689 1.409 . S
C687 H679 0.930 . S
C687 C688 1.355 . S
C687 C689 1.415 . S
C688 C687 1.355 . S
C688 C690 1.419 1_455 S
C689 C684 1.425 1_455 S
C689 C686 1.409 . S
C689 C687 1.415 . S
C690 H680 0.930 . S
C690 C688 1.419 1_655 S
C690 C691 1.362 . S
C691 H681 0.930 . S
C691 C684 1.409 . S
C691 C690 1.362 . S
H692 C698 0.930 . S
H693 C701 0.930 . S
H694 C702 0.930 . S
H695 C703 0.930 . S
H696 C706 0.930 . S
H697 C707 0.930 . S
C698 H692 0.930 . S
C698 C699 1.355 . S
C698 C700 1.415 . S
C699 C698 1.355 . S
C699 C701 1.419 . S
C700 C698 1.415 . S
C700 C705 1.425 . S
C700 C707 1.409 . S
C701 H693 0.930 . S
C701 C699 1.419 . S
C701 C702 1.362 . S
C702 H694 0.930 . S
C702 C701 1.362 . S
C702 C705 1.409 . S
C703 H695 0.930 . S
C703 C704 1.355 . S
C703 C705 1.415 . S
C704 C703 1.355 . S
C704 C706 1.419 . S
C705 C700 1.425 . S
C705 C702 1.409 . S
C705 C703 1.415 . S
C706 H696 0.930 . S
C706 C704 1.419 . S
C706 C707 1.362 . S
C707 H697 0.930 . S
C707 C700 1.409 . S
C707 C706 1.362 . S
H708 C714 0.930 . S
H709 C717 0.930 . S
H710 C718 0.930 . S
H711 C719 0.930 . S
H712 C722 0.930 . S
H713 C723 0.930 . S
C714 H708 0.930 . S
C714 C715 1.355 1_655 S
C714 C716 1.415 . S
C715 C714 1.355 1_455 S
C715 C717 1.419 . S
C716 C714 1.415 . S
C716 C721 1.425 1_655 S
C716 C723 1.409 . S
C717 H709 0.930 . S
C717 C715 1.419 . S
C717 C718 1.362 . S
C718 H710 0.930 . S
C718 C717 1.362 . S
C718 C721 1.409 . S
C719 H711 0.930 . S
C719 C720 1.355 1_455 S
C719 C721 1.415 . S
C720 C719 1.355 1_655 S
C720 C722 1.419 . S
C721 C716 1.425 1_455 S
C721 C718 1.409 . S
C721 C719 1.415 . S
C722 H712 0.930 . S
C722 C720 1.419 . S
C722 C723 1.362 . S
C723 H713 0.930 . S
C723 C716 1.409 . S
C723 C722 1.362 . S
H724 C730 0.930 . S
H725 C733 0.930 . S
H726 C734 0.930 . S
H727 C735 0.930 . S
H728 C738 0.930 . S
H729 C739 0.930 . S
C730 H724 0.930 . S
C730 C731 1.355 . S
C730 C732 1.415 . S
C731 C730 1.355 . S
C731 C733 1.419 . S
C732 C730 1.415 . S
C732 C737 1.425 . S
C732 C739 1.409 . S
C733 H725 0.930 . S
C733 C731 1.419 . S
C733 C734 1.362 . S
C734 H726 0.930 . S
C734 C733 1.362 . S
C734 C737 1.409 . S
C735 H727 0.930 . S
C735 C736 1.355 . S
C735 C737 1.415 . S
C736 C735 1.355 . S
C736 C738 1.419 . S
C737 C732 1.425 . S
C737 C734 1.409 . S
C737 C735 1.415 . S
C738 H728 0.930 . S
C738 C736 1.419 . S
C738 C739 1.362 . S
C739 H729 0.930 . S
C739 C732 1.409 . S
C739 C738 1.362 . S
H740 C746 0.930 . S
H741 C749 0.930 . S
H742 C750 0.930 . S
H743 C751 0.930 . S
H744 C754 0.941 . S
H745 C755 0.930 1_565 S
C746 H740 0.930 . S
C746 C747 1.355 . S
C746 C748 1.415 . S
C747 C746 1.355 . S
C747 C749 1.419 . S
C748 C746 1.415 . S
C748 C753 1.425 . S
C748 C755 1.409 . S
C749 H741 0.930 . S
C749 C747 1.419 . S
C749 C750 1.362 . S
C750 H742 0.930 . S
C750 C749 1.362 . S
C750 C753 1.409 . S
C751 H743 0.930 . S
C751 C752 1.355 . S
C751 C753 1.415 . S
C752 C751 1.355 . S
C752 C754 1.419 . S
C753 C748 1.425 . S
C753 C750 1.409 . S
C753 C751 1.415 . S
C754 H744 0.941 . S
C754 C752 1.419 . S
C754 C755 1.362 . S
C755 H745 0.930 1_545 S
C755 C748 1.409 . S
C755 C754 1.362 . S
H756 C762 0.930 . S
H757 C765 0.930 . S
H758 C766 0.930 . S
H759 C767 0.930 . S
H760 C770 0.930 . S
H761 C771 0.930 . S
C762 H756 0.930 . S
C762 C763 1.355 . S
C762 C764 1.415 . S
C763 C762 1.355 . S
C763 C765 1.419 1_545 S
C764 C762 1.415 . S
C764 C769 1.425 1_545 S
C764 C771 1.409 . S
C765 H757 0.930 . S
C765 C763 1.419 1_565 S
C765 C766 1.362 . S
C766 H758 0.930 . S
C766 C765 1.362 . S
C766 C769 1.409 . S
C767 H759 0.930 . S
C767 C768 1.355 1_565 S
C767 C769 1.415 . S
C768 C767 1.355 1_545 S
C768 C770 1.419 . S
C769 C764 1.425 1_565 S
C769 C766 1.409 . S
C769 C767 1.415 . S
C770 H760 0.930 . S
C770 C768 1.419 . S
C770 C771 1.362 . S
C771 H761 0.930 . S
C771 C764 1.409 . S
C771 C770 1.362 . S
H772 C778 0.930 1_655 S
H773 C781 0.930 . S
H774 C782 0.930 . S
H775 C783 0.930 . S
H776 C786 0.931 1_655 S
H777 C787 0.930 . S
C778 H772 0.930 1_455 S
C778 C779 1.355 . S
C778 C780 1.415 . S
C779 C778 1.355 . S
C779 C781 1.419 . S
C780 C778 1.415 . S
C780 C785 1.425 . S
C780 C787 1.409 1_455 S
C781 H773 0.930 . S
C781 C779 1.419 . S
C781 C782 1.362 . S
C782 H774 0.930 . S
C782 C781 1.362 . S
C782 C785 1.409 . S
C783 H775 0.930 . S
C783 C784 1.355 . S
C783 C785 1.415 . S
C784 C783 1.355 . S
C784 C786 1.417 . S
C785 C780 1.425 . S
C785 C782 1.409 . S
C785 C783 1.415 . S
C786 H776 0.931 1_455 S
C786 C784 1.417 . S
C786 C787 1.364 1_455 S
C787 H777 0.930 . S
C787 C780 1.409 1_655 S
C787 C786 1.364 1_655 S
H788 C794 0.930 . S
H789 C797 0.930 . S
H790 C798 0.930 . S
H791 C799 0.930 . S
H792 C802 0.930 . S
H793 C803 0.930 . S
C794 H788 0.930 . S
C794 C795 1.355 . S
C794 C796 1.415 . S
C795 C794 1.355 . S
C795 C797 1.419 . S
C796 C794 1.415 . S
C796 C801 1.425 . S
C796 C803 1.409 . S
C797 H789 0.930 . S
C797 C795 1.419 . S
C797 C798 1.362 . S
C798 H790 0.930 . S
C798 C797 1.362 . S
C798 C801 1.409 . S
C799 H791 0.930 . S
C799 C800 1.355 . S
C799 C801 1.415 . S
C800 C799 1.355 . S
C800 C802 1.419 . S
C801 C796 1.425 . S
C801 C798 1.409 . S
C801 C799 1.415 . S
C802 H792 0.930 . S
C802 C800 1.419 . S
C802 C803 1.362 . S
C803 H793 0.930 . S
C803 C796 1.409 . S
C803 C802 1.362 . S
H804 C810 0.930 . S
H805 C813 0.930 . S
H806 C814 0.930 . S
H807 C815 0.930 . S
H808 C818 0.930 . S
H809 C819 0.930 . S
C810 H804 0.930 . S
C810 C811 1.355 . S
C810 C812 1.415 . S
C811 C810 1.355 . S
C811 C813 1.419 . S
C812 C810 1.415 . S
C812 C817 1.425 . S
C812 C819 1.409 . S
C813 H805 0.930 . S
C813 C811 1.419 . S
C813 C814 1.362 . S
C814 H806 0.930 . S
C814 C813 1.362 . S
C814 C817 1.409 . S
C815 H807 0.930 . S
C815 C816 1.355 . S
C815 C817 1.415 . S
C816 C815 1.355 . S
C816 C818 1.419 . S
C817 C812 1.425 . S
C817 C814 1.409 . S
C817 C815 1.415 . S
C818 H808 0.930 . S
C818 C816 1.419 . S
C818 C819 1.362 . S
C819 H809 0.930 . S
C819 C812 1.409 . S
C819 C818 1.362 . S
H820 C826 0.930 . S
H821 C829 0.930 . S
H822 C830 0.930 . S
H823 C831 0.930 . S
H824 C834 0.930 . S
H825 C835 0.930 . S
C826 H820 0.930 . S
C826 C827 1.355 . S
C826 C828 1.415 . S
C827 C826 1.355 . S
C827 C829 1.419 . S
C828 C826 1.415 . S
C828 C833 1.425 . S
C828 C835 1.409 . S
C829 H821 0.930 . S
C829 C827 1.419 . S
C829 C830 1.362 . S
C830 H822 0.930 . S
C830 C829 1.362 . S
C830 C833 1.409 . S
C831 H823 0.930 . S
C831 C832 1.355 . S
C831 C833 1.415 . S
C832 C831 1.355 . S
C832 C834 1.419 . S
C833 C828 1.425 . S
C833 C830 1.409 . S
C833 C831 1.415 . S
C834 H824 0.930 . S
C834 C832 1.419 . S
C834 C835 1.362 . S
C835 H825 0.930 . S
C835 C828 1.409 . S
C835 C834 1.362 . S
H836 C842 0.930 . S
H837 C845 0.930 . S
H838 C846 0.930 . S
H839 C847 0.930 . S
H840 C850 0.930 . S
H841 C851 0.930 . S
C842 H836 0.930 . S
C842 C843 1.355 . S
C842 C844 1.415 . S
C843 C842 1.355 . S
C843 C845 1.419 . S
C844 C842 1.415 . S
C844 C849 1.425 . S
C844 C851 1.409 . S
C845 H837 0.930 . S
C845 C843 1.419 . S
C845 C846 1.362 . S
C846 H838 0.930 . S
C846 C845 1.362 . S
C846 C849 1.409 . S
C847 H839 0.930 . S
C847 C848 1.355 . S
C847 C849 1.415 . S
C848 C847 1.355 . S
C848 C850 1.419 . S
C849 C844 1.425 . S
C849 C846 1.409 . S
C849 C847 1.415 . S
C850 H840 0.930 . S
C850 C848 1.419 . S
C850 C851 1.362 . S
C851 H841 0.930 . S
C851 C844 1.409 . S
C851 C850 1.362 . S
H852 C858 0.930 . S
H853 C861 0.930 . S
H854 C862 0.930 . S
H855 C863 0.930 . S
H856 C866 0.930 . S
H857 C867 0.930 . S
C858 H852 0.930 . S
C858 C859 1.355 . S
C858 C860 1.415 . S
C859 C858 1.355 . S
C859 C861 1.419 . S
C860 C858 1.415 . S
C860 C865 1.425 . S
C860 C867 1.409 . S
C861 H853 0.930 . S
C861 C859 1.419 . S
C861 C862 1.362 . S
C862 H854 0.930 . S
C862 C861 1.362 . S
C862 C865 1.409 . S
C863 H855 0.930 . S
C863 C864 1.355 . S
C863 C865 1.415 . S
C864 C863 1.355 . S
C864 C866 1.419 . S
C865 C860 1.425 . S
C865 C862 1.409 . S
C865 C863 1.415 . S
C866 H856 0.930 . S
C866 C864 1.419 . S
C866 C867 1.362 . S
C867 H857 0.930 . S
C867 C860 1.409 . S
C867 C866 1.362 . S
H868 C874 0.930 . S
H869 C877 0.930 . S
H870 C878 0.930 . S
H871 C879 0.930 . S
H872 C882 0.930 . S
H873 C883 0.930 . S
C874 H868 0.930 . S
C874 C875 1.355 . S
C874 C876 1.415 . S
C875 C874 1.355 . S
C875 C877 1.419 . S
C876 C874 1.415 . S
C876 C881 1.425 . S
C876 C883 1.409 . S
C877 H869 0.930 . S
C877 C875 1.419 . S
C877 C878 1.362 . S
C878 H870 0.930 . S
C878 C877 1.362 . S
C878 C881 1.409 . S
C879 H871 0.930 . S
C879 C880 1.355 . S
C879 C881 1.415 . S
C880 C879 1.355 . S
C880 C882 1.419 . S
C881 C876 1.425 . S
C881 C878 1.409 . S
C881 C879 1.415 . S
C882 H872 0.930 . S
C882 C880 1.419 . S
C882 C883 1.362 . S
C883 H873 0.930 . S
C883 C876 1.409 . S
C883 C882 1.362 . S
H884 C890 0.930 . S
H885 C893 0.930 . S
H886 C894 0.930 . S
H887 C895 0.930 . S
H888 C898 0.930 . S
H889 C899 0.930 . S
C890 H884 0.930 . S
C890 C891 1.355 . S
C890 C892 1.415 . S
C891 C890 1.355 . S
C891 C893 1.419 . S
C892 C890 1.415 . S
C892 C897 1.425 . S
C892 C899 1.409 . S
C893 H885 0.930 . S
C893 C891 1.419 . S
C893 C894 1.362 . S
C894 H886 0.930 . S
C894 C893 1.362 . S
C894 C897 1.409 . S
C895 H887 0.930 . S
C895 C896 1.355 . S
C895 C897 1.415 . S
C896 C895 1.355 . S
C896 C898 1.419 . S
C897 C892 1.425 . S
C897 C894 1.409 . S
C897 C895 1.415 . S
C898 H888 0.930 . S
C898 C896 1.419 . S
C898 C899 1.362 . S
C899 H889 0.930 . S
C899 C892 1.409 . S
C899 C898 1.362 . S
H900 C906 0.930 . S
H901 C909 0.930 . S
H902 C910 0.930 . S
H903 C911 0.930 . S
H904 C914 0.930 . S
H905 C915 0.930 . S
C906 H900 0.930 . S
C906 C907 1.355 . S
C906 C908 1.415 . S
C907 C906 1.355 . S
C907 C909 1.419 . S
C908 C906 1.415 . S
C908 C913 1.425 . S
C908 C915 1.409 . S
C909 H901 0.930 . S
C909 C907 1.419 . S
C909 C910 1.362 . S
C910 H902 0.930 . S
C910 C909 1.362 . S
C910 C913 1.409 . S
C911 H903 0.930 . S
C911 C912 1.355 . S
C911 C913 1.415 . S
C912 C911 1.355 . S
C912 C914 1.419 . S
C913 C908 1.425 . S
C913 C910 1.409 . S
C913 C911 1.415 . S
C914 H904 0.930 . S
C914 C912 1.419 . S
C914 C915 1.362 . S
C915 H905 0.930 . S
C915 C908 1.409 . S
C915 C914 1.362 . S
H916 C922 0.930 . S
H917 C925 0.930 . S
H918 C926 0.930 . S
H919 C927 0.930 . S
H920 C930 0.930 . S
H921 C931 0.930 . S
C922 H916 0.930 . S
C922 C923 1.355 . S
C922 C924 1.415 . S
C923 C922 1.355 . S
C923 C925 1.419 . S
C924 C922 1.415 . S
C924 C929 1.425 . S
C924 C931 1.409 . S
C925 H917 0.930 . S
C925 C923 1.419 . S
C925 C926 1.362 . S
C926 H918 0.930 . S
C926 C925 1.362 . S
C926 C929 1.409 . S
C927 H919 0.930 . S
C927 C928 1.355 . S
C927 C929 1.415 . S
C928 C927 1.355 . S
C928 C930 1.419 . S
C929 C924 1.425 . S
C929 C926 1.409 . S
C929 C927 1.415 . S
C930 H920 0.930 . S
C930 C928 1.419 . S
C930 C931 1.362 . S
C931 H921 0.930 . S
C931 C924 1.409 . S
C931 C930 1.362 . S
H932 C938 0.930 . S
H933 C941 0.930 . S
H934 C942 0.930 . S
H935 C943 0.930 . S
H936 C946 0.930 . S
H937 C947 0.930 . S
C938 H932 0.930 . S
C938 C939 1.355 . S
C938 C940 1.415 . S
C939 C938 1.355 . S
C939 C941 1.419 . S
C940 C938 1.415 . S
C940 C945 1.425 . S
C940 C947 1.409 . S
C941 H933 0.930 . S
C941 C939 1.419 . S
C941 C942 1.362 . S
C942 H934 0.930 . S
C942 C941 1.362 . S
C942 C945 1.409 . S
C943 H935 0.930 . S
C943 C944 1.355 . S
C943 C945 1.415 . S
C944 C943 1.355 . S
C944 C946 1.419 . S
C945 C940 1.425 . S
C945 C942 1.409 . S
C945 C943 1.415 . S
C946 H936 0.930 . S
C946 C944 1.419 . S
C946 C947 1.362 . S
C947 H937 0.930 . S
C947 C940 1.409 . S
C947 C946 1.362 . S
H948 C954 0.930 . S
H949 C957 0.930 . S
H950 C958 0.930 . S
H951 C959 0.930 . S
H952 C962 0.930 . S
H953 C963 0.930 . S
C954 H948 0.930 . S
C954 C955 1.355 . S
C954 C956 1.415 . S
C955 C954 1.355 . S
C955 C957 1.419 . S
C956 C954 1.415 . S
C956 C961 1.425 . S
C956 C963 1.409 . S
C957 H949 0.930 . S
C957 C955 1.419 . S
C957 C958 1.362 . S
C958 H950 0.930 . S
C958 C957 1.362 . S
C958 C961 1.409 . S
C959 H951 0.930 . S
C959 C960 1.355 . S
C959 C961 1.415 . S
C960 C959 1.355 . S
C960 C962 1.419 . S
C961 C956 1.425 . S
C961 C958 1.409 . S
C961 C959 1.415 . S
C962 H952 0.930 . S
C962 C960 1.419 . S
C962 C963 1.362 . S
C963 H953 0.930 . S
C963 C956 1.409 . S
C963 C962 1.362 . S
H964 C970 0.930 . S
H965 C973 0.930 . S
H966 C974 0.930 . S
H967 C975 0.930 . S
H968 C978 0.930 . S
H969 C979 0.930 . S
C970 H964 0.930 . S
C970 C971 1.355 . S
C970 C972 1.415 . S
C971 C970 1.355 . S
C971 C973 1.419 . S
C972 C970 1.415 . S
C972 C977 1.425 . S
C972 C979 1.409 . S
C973 H965 0.930 . S
C973 C971 1.419 . S
C973 C974 1.362 . S
C974 H966 0.930 . S
C974 C973 1.362 . S
C974 C977 1.409 . S
C975 H967 0.930 . S
C975 C976 1.355 . S
C975 C977 1.415 . S
C976 C975 1.355 . S
C976 C978 1.419 . S
C977 C972 1.425 . S
C977 C974 1.409 . S
C977 C975 1.415 . S
C978 H968 0.930 . S
C978 C976 1.419 . S
C978 C979 1.362 . S
C979 H969 0.930 . S
C979 C972 1.409 . S
C979 C978 1.362 . S
H980 C986 0.930 . S
H981 C989 0.930 . S
H982 C990 0.930 . S
H983 C991 0.930 . S
H984 C994 0.930 . S
H985 C995 0.930 . S
C986 H980 0.930 . S
C986 C987 1.355 . S
C986 C988 1.415 . S
C987 C986 1.355 . S
C987 C989 1.419 . S
C988 C986 1.415 . S
C988 C993 1.425 . S
C988 C995 1.409 . S
C989 H981 0.930 . S
C989 C987 1.419 . S
C989 C990 1.362 . S
C990 H982 0.930 . S
C990 C989 1.362 . S
C990 C993 1.409 . S
C991 H983 0.930 . S
C991 C992 1.355 . S
C991 C993 1.415 . S
C992 C991 1.355 . S
C992 C994 1.419 . S
C993 C988 1.425 . S
C993 C990 1.409 . S
C993 C991 1.415 . S
C994 H984 0.930 . S
C994 C992 1.419 . S
C994 C995 1.362 . S
C995 H985 0.930 . S
C995 C988 1.409 . S
C995 C994 1.362 . S
H996 C1002 0.930 . S
H997 C1005 0.930 . S
H998 C1006 0.930 . S
H999 C1007 0.930 . S
H1000 C1010 0.930 . S
H1001 C1011 0.930 . S
C1002 H996 0.930 . S
C1002 C1003 1.355 . S
C1002 C1004 1.415 . S
C1003 C1002 1.355 . S
C1003 C1005 1.419 . S
C1004 C1002 1.415 . S
C1004 C1009 1.425 . S
C1004 C1011 1.409 . S
C1005 H997 0.930 . S
C1005 C1003 1.419 . S
C1005 C1006 1.362 . S
C1006 H998 0.930 . S
C1006 C1005 1.362 . S
C1006 C1009 1.409 . S
C1007 H999 0.930 . S
C1007 C1008 1.355 . S
C1007 C1009 1.415 . S
C1008 C1007 1.355 . S
C1008 C1010 1.419 . S
C1009 C1004 1.425 . S
C1009 C1006 1.409 . S
C1009 C1007 1.415 . S
C1010 H1000 0.930 . S
C1010 C1008 1.419 . S
C1010 C1011 1.362 . S
C1011 H1001 0.930 . S
C1011 C1004 1.409 . S
C1011 C1010 1.362 . S
H1012 C1018 0.930 . S
H1013 C1021 0.930 . S
H1014 C1022 0.930 . S
H1015 C1023 0.930 . S
H1016 C1026 0.930 . S
H1017 C1027 0.930 . S
C1018 H1012 0.930 . S
C1018 C1019 1.355 . S
C1018 C1020 1.415 . S
C1019 C1018 1.355 . S
C1019 C1021 1.419 . S
C1020 C1018 1.415 . S
C1020 C1025 1.425 . S
C1020 C1027 1.409 . S
C1021 H1013 0.930 . S
C1021 C1019 1.419 . S
C1021 C1022 1.362 . S
C1022 H1014 0.930 . S
C1022 C1021 1.362 . S
C1022 C1025 1.409 . S
C1023 H1015 0.930 . S
C1023 C1024 1.355 . S
C1023 C1025 1.415 . S
C1024 C1023 1.355 . S
C1024 C1026 1.419 . S
C1025 C1020 1.425 . S
C1025 C1022 1.409 . S
C1025 C1023 1.415 . S
C1026 H1016 0.930 . S
C1026 C1024 1.419 . S
C1026 C1027 1.362 . S
C1027 H1017 0.930 . S
C1027 C1020 1.409 . S
C1027 C1026 1.362 . S
H1028 C1034 0.930 . S
H1029 C1037 0.930 . S
H1030 C1038 0.930 . S
H1031 C1039 0.930 . S
H1032 C1042 0.930 . S
H1033 C1043 0.930 . S
C1034 H1028 0.930 . S
C1034 C1035 1.355 . S
C1034 C1036 1.415 . S
C1035 C1034 1.355 . S
C1035 C1037 1.419 . S
C1036 C1034 1.415 . S
C1036 C1041 1.425 . S
C1036 C1043 1.409 . S
C1037 H1029 0.930 . S
C1037 C1035 1.419 . S
C1037 C1038 1.362 . S
C1038 H1030 0.930 . S
C1038 C1037 1.362 . S
C1038 C1041 1.409 . S
C1039 H1031 0.930 . S
C1039 C1040 1.355 . S
C1039 C1041 1.415 . S
C1040 C1039 1.355 . S
C1040 C1042 1.419 . S
C1041 C1036 1.425 . S
C1041 C1038 1.409 . S
C1041 C1039 1.415 . S
C1042 H1032 0.930 . S
C1042 C1040 1.419 . S
C1042 C1043 1.362 . S
C1043 H1033 0.930 . S
C1043 C1036 1.409 . S
C1043 C1042 1.362 . S
H1044 C1050 0.930 . S
H1045 C1053 0.930 . S
H1046 C1054 0.930 . S
H1047 C1055 0.930 . S
H1048 C1058 0.930 . S
H1049 C1059 0.930 . S
C1050 H1044 0.930 . S
C1050 C1051 1.355 . S
C1050 C1052 1.415 . S
C1051 C1050 1.355 . S
C1051 C1053 1.419 . S
C1052 C1050 1.415 . S
C1052 C1057 1.425 . S
C1052 C1059 1.409 . S
C1053 H1045 0.930 . S
C1053 C1051 1.419 . S
C1053 C1054 1.362 . S
C1054 H1046 0.930 . S
C1054 C1053 1.362 . S
C1054 C1057 1.409 . S
C1055 H1047 0.930 . S
C1055 C1056 1.355 . S
C1055 C1057 1.415 . S
C1056 C1055 1.355 . S
C1056 C1058 1.419 . S
C1057 C1052 1.425 . S
C1057 C1054 1.409 . S
C1057 C1055 1.415 . S
C1058 H1048 0.930 . S
C1058 C1056 1.419 . S
C1058 C1059 1.362 . S
C1059 H1049 0.930 . S
C1059 C1052 1.409 . S
C1059 C1058 1.362 . S
H1060 C1066 0.930 . S
H1061 C1069 0.930 . S
H1062 C1070 0.930 . S
H1063 C1071 0.930 . S
H1064 C1074 0.930 . S
H1065 C1075 0.930 . S
C1066 H1060 0.930 . S
C1066 C1067 1.355 . S
C1066 C1068 1.415 . S
C1067 C1066 1.355 . S
C1067 C1069 1.419 . S
C1068 C1066 1.415 . S
C1068 C1073 1.425 . S
C1068 C1075 1.409 . S
C1069 H1061 0.930 . S
C1069 C1067 1.419 . S
C1069 C1070 1.362 . S
C1070 H1062 0.930 . S
C1070 C1069 1.362 . S
C1070 C1073 1.409 . S
C1071 H1063 0.930 . S
C1071 C1072 1.355 . S
C1071 C1073 1.415 . S
C1072 C1071 1.355 . S
C1072 C1074 1.419 . S
C1073 C1068 1.425 . S
C1073 C1070 1.409 . S
C1073 C1071 1.415 . S
C1074 H1064 0.930 . S
C1074 C1072 1.419 . S
C1074 C1075 1.362 . S
C1075 H1065 0.930 . S
C1075 C1068 1.409 . S
C1075 C1074 1.362 . S
H1076 C1082 0.930 . S
H1077 C1085 0.930 . S
H1078 C1086 0.930 . S
H1079 C1087 0.930 . S
H1080 C1090 0.930 . S
H1081 C1091 0.930 . S
C1082 H1076 0.930 . S
C1082 C1083 1.355 . S
C1082 C1084 1.415 . S
C1083 C1082 1.355 . S
C1083 C1085 1.419 . S
C1084 C1082 1.415 . S
C1084 C1089 1.425 . S
C1084 C1091 1.409 . S
C1085 H1077 0.930 . S
C1085 C1083 1.419 . S
C1085 C1086 1.362 . S
C1086 H1078 0.930 . S
C1086 C1085 1.362 . S
C1086 C1089 1.409 . S
C1087 H1079 0.930 . S
C1087 C1088 1.355 . S
C1087 C1089 1.415 . S
C1088 C1087 1.355 . S
C1088 C1090 1.419 . S
C1089 C1084 1.425 . S
C1089 C1086 1.409 . S
C1089 C1087 1.415 . S
C1090 H1080 0.930 . S
C1090 C1088 1.419 . S
C1090 C1091 1.362 . S
C1091 H1081 0.930 . S
C1091 C1084 1.409 . S
C1091 C1090 1.362 . S
H1092 C1098 0.930 . S
H1093 C1101 0.930 . S
H1094 C1102 0.930 . S
H1095 C1103 0.930 . S
H1096 C1106 0.930 . S
H1097 C1107 0.930 . S
C1098 H1092 0.930 . S
C1098 C1099 1.355 . S
C1098 C1100 1.415 . S
C1099 C1098 1.355 . S
C1099 C1101 1.419 . S
C1100 C1098 1.415 . S
C1100 C1105 1.425 . S
C1100 C1107 1.409 . S
C1101 H1093 0.930 . S
C1101 C1099 1.419 . S
C1101 C1102 1.362 . S
C1102 H1094 0.930 . S
C1102 C1101 1.362 . S
C1102 C1105 1.409 . S
C1103 H1095 0.930 . S
C1103 C1104 1.355 . S
C1103 C1105 1.415 . S
C1104 C1103 1.355 . S
C1104 C1106 1.419 . S
C1105 C1100 1.425 . S
C1105 C1102 1.409 . S
C1105 C1103 1.415 . S
C1106 H1096 0.930 . S
C1106 C1104 1.419 . S
C1106 C1107 1.362 . S
C1107 H1097 0.930 . S
C1107 C1100 1.409 . S
C1107 C1106 1.362 . S
H1108 C1114 0.930 . S
H1109 C1117 0.930 . S
H1110 C1118 0.930 . S
H1111 C1119 0.930 . S
H1112 C1122 0.930 . S
H1113 C1123 0.930 . S
C1114 H1108 0.930 . S
C1114 C1115 1.355 . S
C1114 C1116 1.415 . S
C1115 C1114 1.355 . S
C1115 C1117 1.419 . S
C1116 C1114 1.415 . S
C1116 C1121 1.425 . S
C1116 C1123 1.409 . S
C1117 H1109 0.930 . S
C1117 C1115 1.419 . S
C1117 C1118 1.362 . S
C1118 H1110 0.930 . S
C1118 C1117 1.362 . S
C1118 C1121 1.409 . S
C1119 H1111 0.930 . S
C1119 C1120 1.355 . S
C1119 C1121 1.415 . S
C1120 C1119 1.355 . S
C1120 C1122 1.419 . S
C1121 C1116 1.425 . S
C1121 C1118 1.409 . S
C1121 C1119 1.415 . S
C1122 H1112 0.930 . S
C1122 C1120 1.419 . S
C1122 C1123 1.362 . S
C1123 H1113 0.930 . S
C1123 C1116 1.409 . S
C1123 C1122 1.362 . S
H1124 C1130 0.930 . S
H1125 C1133 0.930 . S
H1126 C1134 0.930 . S
H1127 C1135 0.930 . S
H1128 C1138 0.930 . S
H1129 C1139 0.930 . S
C1130 H1124 0.930 . S
C1130 C1131 1.355 . S
C1130 C1132 1.415 . S
C1131 C1130 1.355 . S
C1131 C1133 1.419 . S
C1132 C1130 1.415 . S
C1132 C1137 1.425 . S
C1132 C1139 1.409 . S
C1133 H1125 0.930 . S
C1133 C1131 1.419 . S
C1133 C1134 1.362 . S
C1134 H1126 0.930 . S
C1134 C1133 1.362 . S
C1134 C1137 1.409 . S
C1135 H1127 0.930 . S
C1135 C1136 1.355 . S
C1135 C1137 1.415 . S
C1136 C1135 1.355 . S
C1136 C1138 1.419 . S
C1137 C1132 1.425 . S
C1137 C1134 1.409 . S
C1137 C1135 1.415 . S
C1138 H1128 0.930 . S
C1138 C1136 1.419 . S
C1138 C1139 1.362 . S
C1139 H1129 0.930 . S
C1139 C1132 1.409 . S
C1139 C1138 1.362 . S
H1140 C1146 0.930 . S
H1141 C1149 0.930 . S
H1142 C1150 0.930 . S
H1143 C1151 0.930 . S
H1144 C1154 0.930 . S
H1145 C1155 0.930 . S
C1146 H1140 0.930 . S
C1146 C1147 1.355 . S
C1146 C1148 1.415 . S
C1147 C1146 1.355 . S
C1147 C1149 1.419 . S
C1148 C1146 1.415 . S
C1148 C1153 1.425 . S
C1148 C1155 1.409 . S
C1149 H1141 0.930 . S
C1149 C1147 1.419 . S
C1149 C1150 1.362 . S
C1150 H1142 0.930 . S
C1150 C1149 1.362 . S
C1150 C1153 1.409 . S
C1151 H1143 0.930 . S
C1151 C1152 1.355 . S
C1151 C1153 1.415 . S
C1152 C1151 1.355 . S
C1152 C1154 1.419 . S
C1153 C1148 1.425 . S
C1153 C1150 1.409 . S
C1153 C1151 1.415 . S
C1154 H1144 0.930 . S
C1154 C1152 1.419 . S
C1154 C1155 1.362 . S
C1155 H1145 0.930 . S
C1155 C1148 1.409 . S
C1155 C1154 1.362 . S
H1156 C1162 0.930 . S
H1157 C1165 0.930 . S
H1158 C1166 0.930 . S
H1159 C1167 0.930 . S
H1160 C1170 0.930 . S
H1161 C1171 0.930 . S
C1162 H1156 0.930 . S
C1162 C1163 1.355 . S
C1162 C1164 1.415 . S
C1163 C1162 1.355 . S
C1163 C1165 1.419 . S
C1164 C1162 1.415 . S
C1164 C1169 1.425 . S
C1164 C1171 1.409 . S
C1165 H1157 0.930 . S
C1165 C1163 1.419 . S
C1165 C1166 1.362 . S
C1166 H1158 0.930 . S
C1166 C1165 1.362 . S
C1166 C1169 1.409 . S
C1167 H1159 0.930 . S
C1167 C1168 1.355 . S
C1167 C1169 1.415 . S
C1168 C1167 1.355 . S
C1168 C1170 1.419 . S
C1169 C1164 1.425 . S
C1169 C1166 1.409 . S
C1169 C1167 1.415 . S
C1170 H1160 0.930 . S
C1170 C1168 1.419 . S
C1170 C1171 1.362 . S
C1171 H1161 0.930 . S
C1171 C1164 1.409 . S
C1171 C1170 1.362 . S
H1172 C1178 0.930 . S
H1173 C1181 0.930 . S
H1174 C1182 0.930 . S
H1175 C1183 0.930 . S
H1176 C1186 0.930 . S
H1177 C1187 0.930 . S
C1178 H1172 0.930 . S
C1178 C1179 1.355 . S
C1178 C1180 1.415 . S
C1179 C1178 1.355 . S
C1179 C1181 1.419 . S
C1180 C1178 1.415 . S
C1180 C1185 1.425 . S
C1180 C1187 1.409 . S
C1181 H1173 0.930 . S
C1181 C1179 1.419 . S
C1181 C1182 1.362 . S
C1182 H1174 0.930 . S
C1182 C1181 1.362 . S
C1182 C1185 1.409 . S
C1183 H1175 0.930 . S
C1183 C1184 1.355 . S
C1183 C1185 1.415 . S
C1184 C1183 1.355 . S
C1184 C1186 1.419 . S
C1185 C1180 1.425 . S
C1185 C1182 1.409 . S
C1185 C1183 1.415 . S
C1186 H1176 0.930 . S
C1186 C1184 1.419 . S
C1186 C1187 1.362 . S
C1187 H1177 0.930 . S
C1187 C1180 1.409 . S
C1187 C1186 1.362 . S
H1188 C1194 0.930 . S
H1189 C1197 0.930 . S
H1190 C1198 0.930 . S
H1191 C1199 0.930 . S
H1192 C1202 0.930 . S
H1193 C1203 0.930 . S
C1194 H1188 0.930 . S
C1194 C1195 1.355 . S
C1194 C1196 1.415 . S
C1195 C1194 1.355 . S
C1195 C1197 1.419 . S
C1196 C1194 1.415 . S
C1196 C1201 1.425 . S
C1196 C1203 1.409 . S
C1197 H1189 0.930 . S
C1197 C1195 1.419 . S
C1197 C1198 1.362 . S
C1198 H1190 0.930 . S
C1198 C1197 1.362 . S
C1198 C1201 1.409 . S
C1199 H1191 0.930 . S
C1199 C1200 1.355 . S
C1199 C1201 1.415 . S
C1200 C1199 1.355 . S
C1200 C1202 1.419 . S
C1201 C1196 1.425 . S
C1201 C1198 1.409 . S
C1201 C1199 1.415 . S
C1202 H1192 0.930 . S
C1202 C1200 1.419 . S
C1202 C1203 1.362 . S
C1203 H1193 0.930 . S
C1203 C1196 1.409 . S
C1203 C1202 1.362 . S
H1204 C1210 0.930 . S
H1205 C1213 0.930 . S
H1206 C1214 0.930 . S
H1207 C1215 0.930 . S
H1208 C1218 0.930 . S
H1209 C1219 0.930 . S
C1210 H1204 0.930 . S
C1210 C1211 1.355 . S
C1210 C1212 1.415 . S
C1211 C1210 1.355 . S
C1211 C1213 1.419 . S
C1212 C1210 1.415 . S
C1212 C1217 1.425 . S
C1212 C1219 1.409 . S
C1213 H1205 0.930 . S
C1213 C1211 1.419 . S
C1213 C1214 1.362 . S
C1214 H1206 0.930 . S
C1214 C1213 1.362 . S
C1214 C1217 1.409 . S
C1215 H1207 0.930 . S
C1215 C1216 1.355 . S
C1215 C1217 1.415 . S
C1216 C1215 1.355 . S
C1216 C1218 1.419 . S
C1217 C1212 1.425 . S
C1217 C1214 1.409 . S
C1217 C1215 1.415 . S
C1218 H1208 0.930 . S
C1218 C1216 1.419 . S
C1218 C1219 1.362 . S
C1219 H1209 0.930 . S
C1219 C1212 1.409 . S
C1219 C1218 1.362 . S
H1220 C1226 0.930 . S
H1221 C1229 0.930 . S
H1222 C1230 0.930 . S
H1223 C1231 0.930 . S
H1224 C1234 0.930 . S
H1225 C1235 0.930 . S
C1226 H1220 0.930 . S
C1226 C1227 1.355 . S
C1226 C1228 1.415 . S
C1227 C1226 1.355 . S
C1227 C1229 1.419 . S
C1228 C1226 1.415 . S
C1228 C1233 1.425 . S
C1228 C1235 1.409 . S
C1229 H1221 0.930 . S
C1229 C1227 1.419 . S
C1229 C1230 1.362 . S
C1230 H1222 0.930 . S
C1230 C1229 1.362 . S
C1230 C1233 1.409 . S
C1231 H1223 0.930 . S
C1231 C1232 1.355 . S
C1231 C1233 1.415 . S
C1232 C1231 1.355 . S
C1232 C1234 1.419 . S
C1233 C1228 1.425 . S
C1233 C1230 1.409 . S
C1233 C1231 1.415 . S
C1234 H1224 0.930 . S
C1234 C1232 1.419 . S
C1234 C1235 1.362 . S
C1235 H1225 0.930 . S
C1235 C1228 1.409 . S
C1235 C1234 1.362 . S
H1236 C1242 0.930 . S
H1237 C1245 0.930 . S
H1238 C1246 0.930 . S
H1239 C1247 0.930 . S
H1240 C1250 0.930 . S
H1241 C1251 0.930 . S
C1242 H1236 0.930 . S
C1242 C1243 1.355 . S
C1242 C1244 1.415 . S
C1243 C1242 1.355 . S
C1243 C1245 1.419 . S
C1244 C1242 1.415 . S
C1244 C1249 1.425 . S
C1244 C1251 1.409 . S
C1245 H1237 0.930 . S
C1245 C1243 1.419 . S
C1245 C1246 1.362 . S
C1246 H1238 0.930 . S
C1246 C1245 1.362 . S
C1246 C1249 1.409 . S
C1247 H1239 0.930 . S
C1247 C1248 1.355 . S
C1247 C1249 1.415 . S
C1248 C1247 1.355 . S
C1248 C1250 1.419 . S
C1249 C1244 1.425 . S
C1249 C1246 1.409 . S
C1249 C1247 1.415 . S
C1250 H1240 0.930 . S
C1250 C1248 1.419 . S
C1250 C1251 1.362 . S
C1251 H1241 0.930 . S
C1251 C1244 1.409 . S
C1251 C1250 1.362 . S
H1252 C1258 0.930 . S
H1253 C1261 0.945 . S
H1254 C1262 0.930 . S
H1255 C1263 0.930 . S
H1256 C1266 0.930 . S
H1257 C1267 0.930 . S
C1258 H1252 0.930 . S
C1258 C1259 1.355 . S
C1258 C1260 1.415 . S
C1259 C1258 1.355 . S
C1259 C1261 1.419 . S
C1260 C1258 1.415 . S
C1260 C1265 1.425 . S
C1260 C1267 1.409 . S
C1261 H1253 0.945 . S
C1261 C1259 1.419 . S
C1261 C1262 1.362 . S
C1262 H1254 0.930 . S
C1262 C1261 1.362 . S
C1262 C1265 1.409 . S
C1263 H1255 0.930 . S
C1263 C1264 1.355 . S
C1263 C1265 1.415 . S
C1264 C1263 1.355 . S
C1264 C1266 1.419 . S
C1265 C1260 1.425 . S
C1265 C1262 1.409 . S
C1265 C1263 1.415 . S
C1266 H1256 0.930 . S
C1266 C1264 1.419 . S
C1266 C1267 1.362 . S
C1267 H1257 0.930 . S
C1267 C1260 1.409 . S
C1267 C1266 1.362 . S
H1268 C1274 0.930 . S
H1269 C1277 0.930 . S
H1270 C1278 0.930 1_554 S
H1271 C1279 0.930 . S
H1272 C1282 0.930 . S
H1273 C1283 0.930 . S
C1274 H1268 0.930 . S
C1274 C1275 1.355 . S
C1274 C1276 1.415 . S
C1275 C1274 1.355 . S
C1275 C1277 1.419 1_556 S
C1276 C1274 1.415 . S
C1276 C1281 1.425 . S
C1276 C1283 1.409 . S
C1277 H1269 0.930 . S
C1277 C1275 1.419 1_554 S
C1277 C1278 1.362 1_554 S
C1278 H1270 0.930 1_556 S
C1278 C1277 1.362 1_556 S
C1278 C1281 1.409 . S
C1279 H1271 0.930 . S
C1279 C1280 1.355 . S
C1279 C1281 1.415 . S
C1280 C1279 1.355 . S
C1280 C1282 1.419 . S
C1281 C1276 1.425 . S
C1281 C1278 1.409 . S
C1281 C1279 1.415 . S
C1282 H1272 0.930 . S
C1282 C1280 1.419 . S
C1282 C1283 1.362 . S
C1283 H1273 0.930 . S
C1283 C1276 1.409 . S
C1283 C1282 1.362 . S
H1284 C1290 0.930 . S
H1285 C1293 0.943 . S
H1286 C1294 0.930 . S
H1287 C1295 0.930 . S
H1288 C1298 0.930 . S
H1289 C1299 0.930 . S
C1290 H1284 0.930 . S
C1290 C1291 1.355 . S
C1290 C1292 1.415 . S
C1291 C1290 1.355 . S
C1291 C1293 1.419 . S
C1292 C1290 1.415 . S
C1292 C1297 1.425 . S
C1292 C1299 1.409 . S
C1293 H1285 0.943 . S
C1293 C1291 1.419 . S
C1293 C1294 1.362 . S
C1294 H1286 0.930 . S
C1294 C1293 1.362 . S
C1294 C1297 1.409 . S
C1295 H1287 0.930 . S
C1295 C1296 1.355 . S
C1295 C1297 1.415 . S
C1296 C1295 1.355 . S
C1296 C1298 1.419 . S
C1297 C1292 1.425 . S
C1297 C1294 1.409 . S
C1297 C1295 1.415 . S
C1298 H1288 0.930 . S
C1298 C1296 1.419 . S
C1298 C1299 1.362 . S
C1299 H1289 0.930 . S
C1299 C1292 1.409 . S
C1299 C1298 1.362 . S
H1300 C1306 0.930 . S
H1301 C1309 0.930 1_554 S
H1302 C1310 0.930 . S
H1303 C1311 0.930 . S
H1304 C1314 0.930 . S
H1305 C1315 0.930 . S
C1306 H1300 0.930 . S
C1306 C1307 1.355 . S
C1306 C1308 1.415 . S
C1307 C1306 1.355 . S
C1307 C1309 1.419 . S
C1308 C1306 1.415 . S
C1308 C1313 1.425 . S
C1308 C1315 1.409 . S
C1309 H1301 0.930 1_556 S
C1309 C1307 1.419 . S
C1309 C1310 1.362 . S
C1310 H1302 0.930 . S
C1310 C1309 1.362 . S
C1310 C1313 1.409 . S
C1311 H1303 0.930 . S
C1311 C1312 1.355 . S
C1311 C1313 1.415 . S
C1312 C1311 1.355 . S
C1312 C1314 1.419 . S
C1313 C1308 1.425 . S
C1313 C1310 1.409 . S
C1313 C1311 1.415 . S
C1314 H1304 0.930 . S
C1314 C1312 1.419 . S
C1314 C1315 1.362 . S
C1315 H1305 0.930 . S
C1315 C1308 1.409 . S
C1315 C1314 1.362 . S
H1316 C1322 0.930 . S
H1317 C1325 0.930 . S
H1318 C1326 0.930 . S
H1319 C1327 0.930 . S
H1320 C1330 0.930 . S
H1321 C1331 0.930 . S
C1322 H1316 0.930 . S
C1322 C1323 1.355 . S
C1322 C1324 1.415 . S
C1323 C1322 1.355 . S
C1323 C1325 1.419 . S
C1324 C1322 1.415 . S
C1324 C1329 1.425 . S
C1324 C1331 1.409 . S
C1325 H1317 0.930 . S
C1325 C1323 1.419 . S
C1325 C1326 1.362 . S
C1326 H1318 0.930 . S
C1326 C1325 1.362 . S
C1326 C1329 1.409 . S
C1327 H1319 0.930 . S
C1327 C1328 1.355 . S
C1327 C1329 1.415 . S
C1328 C1327 1.355 . S
C1328 C1330 1.419 . S
C1329 C1324 1.425 . S
C1329 C1326 1.409 . S
C1329 C1327 1.415 . S
C1330 H1320 0.930 . S
C1330 C1328 1.419 . S
C1330 C1331 1.362 . S
C1331 H1321 0.930 . S
C1331 C1324 1.409 . S
C1331 C1330 1.362 . S
H1332 C1338 0.930 . S
H1333 C1341 0.930 . S
H1334 C1342 0.930 . S
H1335 C1343 0.930 . S
H1336 C1346 0.930 . S
H1337 C1347 0.930 . S
C1338 H1332 0.930 . S
C1338 C1339 1.355 . S
C1338 C1340 1.415 . S
C1339 C1338 1.355 . S
C1339 C1341 1.419 . S
C1340 C1338 1.415 . S
C1340 C1345 1.425 . S
C1340 C1347 1.409 . S
C1341 H1333 0.930 . S
C1341 C1339 1.419 . S
C1341 C1342 1.362 . S
C1342 H1334 0.930 . S
C1342 C1341 1.362 . S
C1342 C1345 1.409 . S
C1343 H1335 0.930 . S
C1343 C1344 1.355 . S
C1343 C1345 1.415 . S
C1344 C1343 1.355 . S
C1344 C1346 1.419 . S
C1345 C1340 1.425 . S
C1345 C1342 1.409 . S
C1345 C1343 1.415 . S
C1346 H1336 0.930 . S
C1346 C1344 1.419 . S
C1346 C1347 1.362 . S
C1347 H1337 0.930 . S
C1347 C1340 1.409 . S
C1347 C1346 1.362 . S
H1348 C1354 0.930 . S
H1349 C1357 0.930 . S
H1350 C1358 0.930 . S
H1351 C1359 0.930 . S
H1352 C1362 0.930 . S
H1353 C1363 0.930 . S
C1354 H1348 0.930 . S
C1354 C1355 1.355 . S
C1354 C1356 1.415 . S
C1355 C1354 1.355 . S
C1355 C1357 1.419 . S
C1356 C1354 1.415 . S
C1356 C1361 1.425 . S
C1356 C1363 1.409 . S
C1357 H1349 0.930 . S
C1357 C1355 1.419 . S
C1357 C1358 1.362 . S
C1358 H1350 0.930 . S
C1358 C1357 1.362 . S
C1358 C1361 1.409 . S
C1359 H1351 0.930 . S
C1359 C1360 1.355 . S
C1359 C1361 1.415 . S
C1360 C1359 1.355 . S
C1360 C1362 1.419 . S
C1361 C1356 1.425 . S
C1361 C1358 1.409 . S
C1361 C1359 1.415 . S
C1362 H1352 0.930 . S
C1362 C1360 1.419 . S
C1362 C1363 1.362 . S
C1363 H1353 0.930 . S
C1363 C1356 1.409 . S
C1363 C1362 1.362 . S
H1364 C1370 0.930 . S
H1365 C1373 0.930 . S
H1366 C1374 0.930 . S
H1367 C1375 0.930 . S
H1368 C1378 0.930 . S
H1369 C1379 0.930 . S
C1370 H1364 0.930 . S
C1370 C1371 1.355 . S
C1370 C1372 1.415 . S
C1371 C1370 1.355 . S
C1371 C1373 1.419 . S
C1372 C1370 1.415 . S
C1372 C1377 1.425 . S
C1372 C1379 1.409 . S
C1373 H1365 0.930 . S
C1373 C1371 1.419 . S
C1373 C1374 1.362 . S
C1374 H1366 0.930 . S
C1374 C1373 1.362 . S
C1374 C1377 1.409 . S
C1375 H1367 0.930 . S
C1375 C1376 1.355 . S
C1375 C1377 1.415 . S
C1376 C1375 1.355 . S
C1376 C1378 1.419 . S
C1377 C1372 1.425 . S
C1377 C1374 1.409 . S
C1377 C1375 1.415 . S
C1378 H1368 0.930 . S
C1378 C1376 1.419 . S
C1378 C1379 1.362 . S
C1379 H1369 0.930 . S
C1379 C1372 1.409 . S
C1379 C1378 1.362 . S
H1380 C1386 0.930 . S
H1381 C1389 0.930 . S
H1382 C1390 0.930 . S
H1383 C1391 0.930 . S
H1384 C1394 0.930 . S
H1385 C1395 0.930 . S
C1386 H1380 0.930 . S
C1386 C1387 1.355 . S
C1386 C1388 1.415 . S
C1387 C1386 1.355 . S
C1387 C1389 1.419 . S
C1388 C1386 1.415 . S
C1388 C1393 1.425 . S
C1388 C1395 1.409 . S
C1389 H1381 0.930 . S
C1389 C1387 1.419 . S
C1389 C1390 1.362 . S
C1390 H1382 0.930 . S
C1390 C1389 1.362 . S
C1390 C1393 1.409 . S
C1391 H1383 0.930 . S
C1391 C1392 1.355 . S
C1391 C1393 1.415 . S
C1392 C1391 1.355 . S
C1392 C1394 1.419 . S
C1393 C1388 1.425 . S
C1393 C1390 1.409 . S
C1393 C1391 1.415 . S
C1394 H1384 0.930 . S
C1394 C1392 1.419 . S
C1394 C1395 1.362 . S
C1395 H1385 0.930 . S
C1395 C1388 1.409 . S
C1395 C1394 1.362 . S
H1396 C1402 0.930 . S
H1397 C1405 0.930 . S
H1398 C1406 0.930 . S
H1399 C1407 0.930 . S
H1400 C1410 0.930 . S
H1401 C1411 0.930 . S
C1402 H1396 0.930 . S
C1402 C1403 1.355 . S
C1402 C1404 1.415 . S
C1403 C1402 1.355 . S
C1403 C1405 1.419 . S
C1404 C1402 1.415 . S
C1404 C1409 1.425 . S
C1404 C1411 1.409 . S
C1405 H1397 0.930 . S
C1405 C1403 1.419 . S
C1405 C1406 1.362 . S
C1406 H1398 0.930 . S
C1406 C1405 1.362 . S
C1406 C1409 1.409 . S
C1407 H1399 0.930 . S
C1407 C1408 1.355 . S
C1407 C1409 1.415 . S
C1408 C1407 1.355 . S
C1408 C1410 1.419 . S
C1409 C1404 1.425 . S
C1409 C1406 1.409 . S
C1409 C1407 1.415 . S
C1410 H1400 0.930 . S
C1410 C1408 1.419 . S
C1410 C1411 1.362 . S
C1411 H1401 0.930 . S
C1411 C1404 1.409 . S
C1411 C1410 1.362 . S
H1412 C1418 0.930 . S
H1413 C1421 0.930 . S
H1414 C1422 0.930 . S
H1415 C1423 0.930 . S
H1416 C1426 0.930 . S
H1417 C1427 0.930 . S
C1418 H1412 0.930 . S
C1418 C1419 1.355 . S
C1418 C1420 1.415 . S
C1419 C1418 1.355 . S
C1419 C1421 1.419 . S
C1420 C1418 1.415 . S
C1420 C1425 1.425 . S
C1420 C1427 1.409 . S
C1421 H1413 0.930 . S
C1421 C1419 1.419 . S
C1421 C1422 1.362 . S
C1422 H1414 0.930 . S
C1422 C1421 1.362 . S
C1422 C1425 1.409 . S
C1423 H1415 0.930 . S
C1423 C1424 1.355 . S
C1423 C1425 1.415 . S
C1424 C1423 1.355 . S
C1424 C1426 1.419 . S
C1425 C1420 1.425 . S
C1425 C1422 1.409 . S
C1425 C1423 1.415 . S
C1426 H1416 0.930 . S
C1426 C1424 1.419 . S
C1426 C1427 1.362 . S
C1427 H1417 0.930 . S
C1427 C1420 1.409 . S
C1427 C1426 1.362 . S
H1428 C1434 0.930 . S
H1429 C1437 0.930 . S
H1430 C1438 0.930 . S
H1431 C1439 0.930 1_655 S
H1432 C1442 0.930 . S
H1433 C1443 0.930 . S
C1434 H1428 0.930 . S
C1434 C1435 1.355 . S
C1434 C1436 1.415 . S
C1435 C1434 1.355 . S
C1435 C1437 1.419 1_455 S
C1436 C1434 1.415 . S
C1436 C1441 1.425 . S
C1436 C1443 1.409 . S
C1437 H1429 0.930 . S
C1437 C1435 1.419 1_655 S
C1437 C1438 1.362 . S
C1438 H1430 0.930 . S
C1438 C1437 1.362 . S
C1438 C1441 1.409 1_655 S
C1439 H1431 0.930 1_455 S
C1439 C1440 1.355 . S
C1439 C1441 1.415 . S
C1440 C1439 1.355 . S
C1440 C1442 1.419 . S
C1441 C1436 1.425 . S
C1441 C1438 1.409 1_455 S
C1441 C1439 1.415 . S
C1442 H1432 0.930 . S
C1442 C1440 1.419 . S
C1442 C1443 1.362 . S
C1443 H1433 0.930 . S
C1443 C1436 1.409 . S
C1443 C1442 1.362 . S
H1444 C1450 0.930 . S
H1445 C1453 0.930 . S
H1446 C1454 0.930 . S
H1447 C1455 0.930 . S
H1448 C1458 0.930 . S
H1449 C1459 0.930 . S
C1450 H1444 0.930 . S
C1450 C1451 1.355 . S
C1450 C1452 1.415 . S
C1451 C1450 1.355 . S
C1451 C1453 1.419 . S
C1452 C1450 1.415 . S
C1452 C1457 1.425 . S
C1452 C1459 1.409 . S
C1453 H1445 0.930 . S
C1453 C1451 1.419 . S
C1453 C1454 1.362 . S
C1454 H1446 0.930 . S
C1454 C1453 1.362 . S
C1454 C1457 1.409 . S
C1455 H1447 0.930 . S
C1455 C1456 1.355 . S
C1455 C1457 1.415 . S
C1456 C1455 1.355 . S
C1456 C1458 1.419 . S
C1457 C1452 1.425 . S
C1457 C1454 1.409 . S
C1457 C1455 1.415 . S
C1458 H1448 0.930 . S
C1458 C1456 1.419 . S
C1458 C1459 1.362 . S
C1459 H1449 0.930 . S
C1459 C1452 1.409 . S
C1459 C1458 1.362 . S
H1460 C1466 0.930 . S
H1461 C1469 0.930 . S
H1462 C1470 0.930 . S
H1463 C1471 0.930 . S
H1464 C1474 0.930 . S
H1465 C1475 0.930 . S
C1466 H1460 0.930 . S
C1466 C1467 1.355 . S
C1466 C1468 1.415 . S
C1467 C1466 1.355 . S
C1467 C1469 1.419 1_565 S
C1468 C1466 1.415 . S
C1468 C1473 1.425 1_565 S
C1468 C1475 1.409 . S
C1469 H1461 0.930 . S
C1469 C1467 1.419 1_545 S
C1469 C1470 1.362 . S
C1470 H1462 0.930 . S
C1470 C1469 1.362 . S
C1470 C1473 1.409 . S
C1471 H1463 0.930 . S
C1471 C1472 1.355 1_545 S
C1471 C1473 1.415 . S
C1472 C1471 1.355 1_565 S
C1472 C1474 1.419 . S
C1473 C1468 1.425 1_545 S
C1473 C1470 1.409 . S
C1473 C1471 1.415 . S
C1474 H1464 0.930 . S
C1474 C1472 1.419 . S
C1474 C1475 1.362 . S
C1475 H1465 0.930 . S
C1475 C1468 1.409 . S
C1475 C1474 1.362 . S
H1476 C1482 0.930 . S
H1477 C1485 0.930 . S
H1478 C1486 0.930 . S
H1479 C1487 0.930 . S
H1480 C1490 0.930 . S
H1481 C1491 0.930 . S
C1482 H1476 0.930 . S
C1482 C1483 1.355 . S
C1482 C1484 1.415 . S
C1483 C1482 1.355 . S
C1483 C1485 1.419 1_565 S
C1484 C1482 1.415 . S
C1484 C1489 1.425 1_565 S
C1484 C1491 1.409 . S
C1485 H1477 0.930 . S
C1485 C1483 1.419 1_545 S
C1485 C1486 1.362 . S
C1486 H1478 0.930 . S
C1486 C1485 1.362 . S
C1486 C1489 1.409 . S
C1487 H1479 0.930 . S
C1487 C1488 1.355 1_545 S
C1487 C1489 1.415 . S
C1488 C1487 1.355 1_565 S
C1488 C1490 1.419 . S
C1489 C1484 1.425 1_545 S
C1489 C1486 1.409 . S
C1489 C1487 1.415 . S
C1490 H1480 0.930 . S
C1490 C1488 1.419 . S
C1490 C1491 1.362 . S
C1491 H1481 0.930 . S
C1491 C1484 1.409 . S
C1491 C1490 1.362 . S
H1492 C1498 0.930 1_655 S
H1493 C1501 0.930 . S
H1494 C1502 0.930 . S
H1495 C1503 0.930 . S
H1496 C1506 0.930 . S
H1497 C1507 0.930 . S
C1498 H1492 0.930 1_455 S
C1498 C1499 1.355 . S
C1498 C1500 1.415 . S
C1499 C1498 1.355 . S
C1499 C1501 1.419 . S
C1500 C1498 1.415 . S
C1500 C1505 1.425 . S
C1500 C1507 1.409 1_455 S
C1501 H1493 0.930 . S
C1501 C1499 1.419 . S
C1501 C1502 1.362 . S
C1502 H1494 0.930 . S
C1502 C1501 1.362 . S
C1502 C1505 1.409 . S
C1503 H1495 0.930 . S
C1503 C1504 1.355 . S
C1503 C1505 1.415 . S
C1504 C1503 1.355 . S
C1504 C1506 1.419 1_455 S
C1505 C1500 1.425 . S
C1505 C1502 1.409 . S
C1505 C1503 1.415 . S
C1506 H1496 0.930 . S
C1506 C1504 1.419 1_655 S
C1506 C1507 1.362 . S
C1507 H1497 0.930 . S
C1507 C1500 1.409 1_655 S
C1507 C1506 1.362 . S
H1508 C1514 0.930 . S
H1509 C1517 0.930 . S
H1510 C1518 0.930 . S
H1511 C1519 0.930 . S
H1512 C1522 0.930 . S
H1513 C1523 0.930 . S
C1514 H1508 0.930 . S
C1514 C1515 1.355 . S
C1514 C1516 1.415 . S
C1515 C1514 1.355 . S
C1515 C1517 1.419 . S
C1516 C1514 1.415 . S
C1516 C1521 1.425 . S
C1516 C1523 1.409 . S
C1517 H1509 0.930 . S
C1517 C1515 1.419 . S
C1517 C1518 1.362 . S
C1518 H1510 0.930 . S
C1518 C1517 1.362 . S
C1518 C1521 1.409 . S
C1519 H1511 0.930 . S
C1519 C1520 1.355 . S
C1519 C1521 1.415 . S
C1520 C1519 1.355 . S
C1520 C1522 1.419 . S
C1521 C1516 1.425 . S
C1521 C1518 1.409 . S
C1521 C1519 1.415 . S
C1522 H1512 0.930 . S
C1522 C1520 1.419 . S
C1522 C1523 1.362 . S
C1523 H1513 0.930 . S
C1523 C1516 1.409 . S
C1523 C1522 1.362 . S
H1524 C1530 0.930 . S
H1525 C1533 0.930 . S
H1526 C1534 0.930 . S
H1527 C1535 0.930 . S
H1528 C1538 0.930 . S
H1529 C1539 0.930 . S
C1530 H1524 0.930 . S
C1530 C1531 1.355 . S
C1530 C1532 1.415 . S
C1531 C1530 1.355 . S
C1531 C1533 1.419 . S
C1532 C1530 1.415 . S
C1532 C1537 1.425 . S
C1532 C1539 1.409 . S
C1533 H1525 0.930 . S
C1533 C1531 1.419 . S
C1533 C1534 1.362 . S
C1534 H1526 0.930 . S
C1534 C1533 1.362 . S
C1534 C1537 1.409 . S
C1535 H1527 0.930 . S
C1535 C1536 1.355 . S
C1535 C1537 1.415 . S
C1536 C1535 1.355 . S
C1536 C1538 1.419 . S
C1537 C1532 1.425 . S
C1537 C1534 1.409 . S
C1537 C1535 1.415 . S
C1538 H1528 0.930 . S
C1538 C1536 1.419 . S
C1538 C1539 1.362 . S
C1539 H1529 0.930 . S
C1539 C1532 1.409 . S
C1539 C1538 1.362 . S
H1540 C1546 0.930 . S
H1541 C1549 0.930 . S
H1542 C1550 0.930 . S
H1543 C1551 0.930 . S
H1544 C1554 0.930 . S
H1545 C1555 0.930 . S
C1546 H1540 0.930 . S
C1546 C1547 1.355 . S
C1546 C1548 1.415 . S
C1547 C1546 1.355 . S
C1547 C1549 1.419 . S
C1548 C1546 1.415 . S
C1548 C1553 1.425 . S
C1548 C1555 1.409 . S
C1549 H1541 0.930 . S
C1549 C1547 1.419 . S
C1549 C1550 1.362 . S
C1550 H1542 0.930 . S
C1550 C1549 1.362 . S
C1550 C1553 1.409 . S
C1551 H1543 0.930 . S
C1551 C1552 1.355 . S
C1551 C1553 1.415 . S
C1552 C1551 1.355 . S
C1552 C1554 1.419 . S
C1553 C1548 1.425 . S
C1553 C1550 1.409 . S
C1553 C1551 1.415 . S
C1554 H1544 0.930 . S
C1554 C1552 1.419 . S
C1554 C1555 1.362 . S
C1555 H1545 0.930 . S
C1555 C1548 1.409 . S
C1555 C1554 1.362 . S
H1556 C1562 0.930 . S
H1557 C1565 0.930 . S
H1558 C1566 0.930 . S
H1559 C1567 0.930 . S
H1560 C1570 0.930 . S
H1561 C1571 0.930 . S
C1562 H1556 0.930 . S
C1562 C1563 1.355 . S
C1562 C1564 1.415 . S
C1563 C1562 1.355 . S
C1563 C1565 1.419 . S
C1564 C1562 1.415 . S
C1564 C1569 1.425 . S
C1564 C1571 1.409 . S
C1565 H1557 0.930 . S
C1565 C1563 1.419 . S
C1565 C1566 1.362 . S
C1566 H1558 0.930 . S
C1566 C1565 1.362 . S
C1566 C1569 1.409 . S
C1567 H1559 0.930 . S
C1567 C1568 1.355 . S
C1567 C1569 1.415 . S
C1568 C1567 1.355 . S
C1568 C1570 1.419 . S
C1569 C1564 1.425 . S
C1569 C1566 1.409 . S
C1569 C1567 1.415 . S
C1570 H1560 0.930 . S
C1570 C1568 1.419 . S
C1570 C1571 1.362 . S
C1571 H1561 0.930 . S
C1571 C1564 1.409 . S
C1571 C1570 1.362 . S
H1572 C1578 0.930 . S
H1573 C1581 0.930 . S
H1574 C1582 0.930 . S
H1575 C1583 0.930 . S
H1576 C1586 0.930 1_565 S
H1577 C1587 0.930 1_565 S
C1578 H1572 0.930 . S
C1578 C1579 1.355 . S
C1578 C1580 1.415 . S
C1579 C1578 1.355 . S
C1579 C1581 1.419 . S
C1580 C1578 1.415 . S
C1580 C1585 1.425 . S
C1580 C1587 1.409 . S
C1581 H1573 0.930 . S
C1581 C1579 1.419 . S
C1581 C1582 1.362 . S
C1582 H1574 0.930 . S
C1582 C1581 1.362 . S
C1582 C1585 1.409 . S
C1583 H1575 0.930 . S
C1583 C1584 1.355 . S
C1583 C1585 1.415 . S
C1584 C1583 1.355 . S
C1584 C1586 1.419 . S
C1585 C1580 1.425 . S
C1585 C1582 1.409 . S
C1585 C1583 1.415 . S
C1586 H1576 0.930 1_545 S
C1586 C1584 1.419 . S
C1586 C1587 1.362 . S
C1587 H1577 0.930 1_545 S
C1587 C1580 1.409 . S
C1587 C1586 1.362 . S
H1588 C1594 0.930 . S
H1589 C1597 0.930 . S
H1590 C1598 0.930 . S
H1591 C1599 0.930 . S
H1592 C1602 0.930 . S
H1593 C1603 0.930 . S
C1594 H1588 0.930 . S
C1594 C1595 1.355 . S
C1594 C1596 1.415 . S
C1595 C1594 1.355 . S
C1595 C1597 1.419 1_655 S
C1596 C1594 1.415 . S
C1596 C1601 1.425 1_655 S
C1596 C1603 1.409 . S
C1597 H1589 0.930 . S
C1597 C1595 1.419 1_455 S
C1597 C1598 1.362 . S
C1598 H1590 0.930 . S
C1598 C1597 1.362 . S
C1598 C1601 1.409 . S
C1599 H1591 0.930 . S
C1599 C1600 1.355 1_455 S
C1599 C1601 1.415 . S
C1600 C1599 1.355 1_655 S
C1600 C1602 1.419 . S
C1601 C1596 1.425 1_455 S
C1601 C1598 1.409 . S
C1601 C1599 1.415 . S
C1602 H1592 0.930 . S
C1602 C1600 1.419 . S
C1602 C1603 1.362 . S
C1603 H1593 0.930 . S
C1603 C1596 1.409 . S
C1603 C1602 1.362 . S
H1604 C1610 0.930 . S
H1605 C1613 0.930 . S
H1606 C1614 0.930 . S
H1607 C1615 0.930 . S
H1608 C1618 0.930 . S
H1609 C1619 0.930 . S
C1610 H1604 0.930 . S
C1610 C1611 1.355 . S
C1610 C1612 1.415 . S
C1611 C1610 1.355 . S
C1611 C1613 1.419 . S
C1612 C1610 1.415 . S
C1612 C1617 1.425 . S
C1612 C1619 1.409 . S
C1613 H1605 0.930 . S
C1613 C1611 1.419 . S
C1613 C1614 1.362 . S
C1614 H1606 0.930 . S
C1614 C1613 1.362 . S
C1614 C1617 1.409 . S
C1615 H1607 0.930 . S
C1615 C1616 1.355 . S
C1615 C1617 1.415 . S
C1616 C1615 1.355 . S
C1616 C1618 1.419 . S
C1617 C1612 1.425 . S
C1617 C1614 1.409 . S
C1617 C1615 1.415 . S
C1618 H1608 0.930 . S
C1618 C1616 1.419 . S
C1618 C1619 1.362 . S
C1619 H1609 0.930 . S
C1619 C1612 1.409 . S
C1619 C1618 1.362 . S
H1620 C1626 0.930 . S
H1621 C1629 0.930 . S
H1622 C1630 0.930 . S
H1623 C1631 0.930 . S
H1624 C1634 0.930 . S
H1625 C1635 0.930 . S
C1626 H1620 0.930 . S
C1626 C1627 1.355 . S
C1626 C1628 1.415 . S
C1627 C1626 1.355 . S
C1627 C1629 1.419 . S
C1628 C1626 1.415 . S
C1628 C1633 1.425 . S
C1628 C1635 1.409 . S
C1629 H1621 0.930 . S
C1629 C1627 1.419 . S
C1629 C1630 1.362 . S
C1630 H1622 0.930 . S
C1630 C1629 1.362 . S
C1630 C1633 1.409 . S
C1631 H1623 0.930 . S
C1631 C1632 1.355 . S
C1631 C1633 1.415 . S
C1632 C1631 1.355 . S
C1632 C1634 1.419 . S
C1633 C1628 1.425 . S
C1633 C1630 1.409 . S
C1633 C1631 1.415 . S
C1634 H1624 0.930 . S
C1634 C1632 1.419 . S
C1634 C1635 1.362 . S
C1635 H1625 0.930 . S
C1635 C1628 1.409 . S
C1635 C1634 1.362 . S
H1636 C1642 0.930 . S
H1637 C1645 0.930 . S
H1638 C1646 0.930 . S
H1639 C1647 0.930 . S
H1640 C1650 0.930 . S
H1641 C1651 0.930 . S
C1642 H1636 0.930 . S
C1642 C1643 1.355 . S
C1642 C1644 1.415 . S
C1643 C1642 1.355 . S
C1643 C1645 1.419 . S
C1644 C1642 1.415 . S
C1644 C1649 1.425 . S
C1644 C1651 1.409 . S
C1645 H1637 0.930 . S
C1645 C1643 1.419 . S
C1645 C1646 1.362 . S
C1646 H1638 0.930 . S
C1646 C1645 1.362 . S
C1646 C1649 1.409 . S
C1647 H1639 0.930 . S
C1647 C1648 1.355 . S
C1647 C1649 1.415 . S
C1648 C1647 1.355 . S
C1648 C1650 1.419 . S
C1649 C1644 1.425 . S
C1649 C1646 1.409 . S
C1649 C1647 1.415 . S
C1650 H1640 0.930 . S
C1650 C1648 1.419 . S
C1650 C1651 1.362 . S
C1651 H1641 0.930 . S
C1651 C1644 1.409 . S
C1651 C1650 1.362 . S
H1652 C1658 0.930 . S
H1653 C1661 0.930 . S
H1654 C1662 0.930 . S
H1655 C1663 0.930 . S
H1656 C1666 0.930 . S
H1657 C1667 0.930 . S
C1658 H1652 0.930 . S
C1658 C1659 1.355 . S
C1658 C1660 1.415 . S
C1659 C1658 1.355 . S
C1659 C1661 1.419 . S
C1660 C1658 1.415 . S
C1660 C1665 1.425 . S
C1660 C1667 1.409 . S
C1661 H1653 0.930 . S
C1661 C1659 1.419 . S
C1661 C1662 1.362 . S
C1662 H1654 0.930 . S
C1662 C1661 1.362 . S
C1662 C1665 1.409 . S
C1663 H1655 0.930 . S
C1663 C1664 1.355 . S
C1663 C1665 1.415 . S
C1664 C1663 1.355 . S
C1664 C1666 1.419 . S
C1665 C1660 1.425 . S
C1665 C1662 1.409 . S
C1665 C1663 1.415 . S
C1666 H1656 0.930 . S
C1666 C1664 1.419 . S
C1666 C1667 1.362 . S
C1667 H1657 0.930 . S
C1667 C1660 1.409 . S
C1667 C1666 1.362 . S
H1668 C1674 0.930 . S
H1669 C1677 0.930 . S
H1670 C1678 0.930 . S
H1671 C1679 0.930 . S
H1672 C1682 0.930 . S
H1673 C1683 0.930 . S
C1674 H1668 0.930 . S
C1674 C1675 1.355 . S
C1674 C1676 1.415 . S
C1675 C1674 1.355 . S
C1675 C1677 1.419 . S
C1676 C1674 1.415 . S
C1676 C1681 1.425 . S
C1676 C1683 1.409 . S
C1677 H1669 0.930 . S
C1677 C1675 1.419 . S
C1677 C1678 1.362 . S
C1678 H1670 0.930 . S
C1678 C1677 1.362 . S
C1678 C1681 1.409 . S
C1679 H1671 0.930 . S
C1679 C1680 1.355 . S
C1679 C1681 1.415 . S
C1680 C1679 1.355 . S
C1680 C1682 1.419 . S
C1681 C1676 1.425 . S
C1681 C1678 1.409 . S
C1681 C1679 1.415 . S
C1682 H1672 0.930 . S
C1682 C1680 1.419 . S
C1682 C1683 1.362 . S
C1683 H1673 0.930 . S
C1683 C1676 1.409 . S
C1683 C1682 1.362 . S
H1684 C1690 0.930 . S
H1685 C1693 0.930 . S
H1686 C1694 0.930 . S
H1687 C1695 0.930 . S
H1688 C1698 0.930 . S
H1689 C1699 0.930 . S
C1690 H1684 0.930 . S
C1690 C1691 1.355 . S
C1690 C1692 1.415 . S
C1691 C1690 1.355 . S
C1691 C1693 1.419 . S
C1692 C1690 1.415 . S
C1692 C1697 1.425 . S
C1692 C1699 1.409 . S
C1693 H1685 0.930 . S
C1693 C1691 1.419 . S
C1693 C1694 1.362 . S
C1694 H1686 0.930 . S
C1694 C1693 1.362 . S
C1694 C1697 1.409 . S
C1695 H1687 0.930 . S
C1695 C1696 1.355 . S
C1695 C1697 1.415 . S
C1696 C1695 1.355 . S
C1696 C1698 1.419 . S
C1697 C1692 1.425 . S
C1697 C1694 1.409 . S
C1697 C1695 1.415 . S
C1698 H1688 0.930 . S
C1698 C1696 1.419 . S
C1698 C1699 1.362 . S
C1699 H1689 0.930 . S
C1699 C1692 1.409 . S
C1699 C1698 1.362 . S
H1700 C1706 0.930 . S
H1701 C1709 0.930 . S
H1702 C1710 0.930 . S
H1703 C1711 0.930 . S
H1704 C1714 0.930 . S
H1705 C1715 0.930 . S
C1706 H1700 0.930 . S
C1706 C1707 1.355 . S
C1706 C1708 1.415 . S
C1707 C1706 1.355 . S
C1707 C1709 1.419 . S
C1708 C1706 1.415 . S
C1708 C1713 1.425 . S
C1708 C1715 1.409 . S
C1709 H1701 0.930 . S
C1709 C1707 1.419 . S
C1709 C1710 1.362 . S
C1710 H1702 0.930 . S
C1710 C1709 1.362 . S
C1710 C1713 1.409 . S
C1711 H1703 0.930 . S
C1711 C1712 1.355 . S
C1711 C1713 1.415 . S
C1712 C1711 1.355 . S
C1712 C1714 1.419 . S
C1713 C1708 1.425 . S
C1713 C1710 1.409 . S
C1713 C1711 1.415 . S
C1714 H1704 0.930 . S
C1714 C1712 1.419 . S
C1714 C1715 1.362 . S
C1715 H1705 0.930 . S
C1715 C1708 1.409 . S
C1715 C1714 1.362 . S
H1716 C1722 0.930 . S
H1717 C1725 0.930 . S
H1718 C1726 0.930 . S
H1719 C1727 0.931 . S
H1720 C1730 0.930 . S
H1721 C1731 0.930 . S
C1722 H1716 0.930 . S
C1722 C1723 1.355 . S
C1722 C1724 1.415 . S
C1723 C1722 1.355 . S
C1723 C1725 1.419 . S
C1724 C1722 1.415 . S
C1724 C1729 1.425 . S
C1724 C1731 1.409 . S
C1725 H1717 0.930 . S
C1725 C1723 1.419 . S
C1725 C1726 1.362 . S
C1726 H1718 0.930 . S
C1726 C1725 1.362 . S
C1726 C1729 1.409 . S
C1727 H1719 0.931 . S
C1727 C1728 1.344 . S
C1727 C1729 1.446 . S
C1728 C1727 1.344 . S
C1728 C1730 1.419 . S
C1729 C1724 1.425 . S
C1729 C1726 1.409 . S
C1729 C1727 1.446 . S
C1730 H1720 0.930 . S
C1730 C1728 1.419 . S
C1730 C1731 1.362 . S
C1731 H1721 0.930 . S
C1731 C1724 1.409 . S
C1731 C1730 1.362 . S
H1732 C1738 0.930 . S
H1733 C1741 0.930 . S
H1734 C1742 0.930 . S
H1735 C1743 0.930 . S
H1736 C1746 0.930 . S
H1737 C1747 0.930 . S
C1738 H1732 0.930 . S
C1738 C1739 1.355 . S
C1738 C1740 1.415 . S
C1739 C1738 1.355 . S
C1739 C1741 1.419 . S
C1740 C1738 1.415 . S
C1740 C1745 1.425 . S
C1740 C1747 1.409 . S
C1741 H1733 0.930 . S
C1741 C1739 1.419 . S
C1741 C1742 1.362 . S
C1742 H1734 0.930 . S
C1742 C1741 1.362 . S
C1742 C1745 1.409 . S
C1743 H1735 0.930 . S
C1743 C1744 1.355 . S
C1743 C1745 1.415 . S
C1744 C1743 1.355 . S
C1744 C1746 1.419 . S
C1745 C1740 1.425 . S
C1745 C1742 1.409 . S
C1745 C1743 1.415 . S
C1746 H1736 0.930 . S
C1746 C1744 1.419 . S
C1746 C1747 1.362 . S
C1747 H1737 0.930 . S
C1747 C1740 1.409 . S
C1747 C1746 1.362 . S
H1748 C1754 0.930 . S
H1749 C1757 0.930 . S
H1750 C1758 0.930 . S
H1751 C1759 0.930 . S
H1752 C1762 0.930 . S
H1753 C1763 0.930 . S
C1754 H1748 0.930 . S
C1754 C1755 1.355 . S
C1754 C1756 1.415 . S
C1755 C1754 1.355 . S
C1755 C1757 1.419 . S
C1756 C1754 1.415 . S
C1756 C1761 1.425 . S
C1756 C1763 1.409 . S
C1757 H1749 0.930 . S
C1757 C1755 1.419 . S
C1757 C1758 1.362 . S
C1758 H1750 0.930 . S
C1758 C1757 1.362 . S
C1758 C1761 1.409 . S
C1759 H1751 0.930 . S
C1759 C1760 1.355 . S
C1759 C1761 1.415 . S
C1760 C1759 1.355 . S
C1760 C1762 1.419 . S
C1761 C1756 1.425 . S
C1761 C1758 1.409 . S
C1761 C1759 1.415 . S
C1762 H1752 0.930 . S
C1762 C1760 1.419 . S
C1762 C1763 1.362 . S
C1763 H1753 0.930 . S
C1763 C1756 1.409 . S
C1763 C1762 1.362 . S
C619 C10 1.619 . S
C624 C440 1.530 . S
C635 C23 1.625 . S
C640 C453 1.599 . S
C656 C482 1.533 1_545 S
C651 C29 1.607 . S
C667 C30 1.606 . S
C672 C495 1.559 . S
C683 C5 1.629 . S
C688 C516 1.614 . S
C699 C18 1.630 . S
C704 C545 1.593 . S
C715 C49 1.619 . S
C720 C524 1.579 1_655 S
C736 C537 1.575 . S
C731 C62 1.606 . S
C752 C503 1.532 . S
C747 C70 1.599 . S
C763 C75 1.620 . S
C768 C474 1.588 1_545 S
C784 C432 1.579 . S
C779 C44 1.614 . S
C795 C57 1.622 . S
C800 C461 1.575 . S
C811 C88 1.623 . S
C816 C566 1.566 . S
C827 C101 1.615 . S
C832 C579 1.560 . S
C848 C608 1.521 . S
C843 C107 1.606 . S
C859 C108 1.610 . S
C864 C243 1.552 . S
C875 C83 1.638 . S
C880 C264 1.601 . S
C891 C96 1.624 . S
C896 C293 1.552 . S
C907 C127 1.634 . S
C912 C272 1.599 . S
C923 C140 1.620 . S
C928 C285 1.583 . S
C944 C251 1.552 . S
C939 C146 1.600 . S
C960 C600 1.548 . S
C955 C147 1.601 . S
C976 C558 1.553 . S
C971 C122 1.611 . S
C992 C587 1.589 . S
C987 C135 1.625 . S
C1003 C160 1.631 . S
C1008 C314 1.552 . S
C1019 C173 1.624 . S
C1024 C327 1.607 . S
C1035 C185 1.612 . S
C1040 C356 1.571 . S
C1051 C186 1.625 . S
C1056 C369 1.601 . S
C1072 C390 1.576 . S
C1067 C159 1.616 . S
C1088 C419 1.587 . S
C1083 C172 1.620 . S
C1104 C398 1.552 . S
C1099 C205 1.614 . S
C1120 C411 1.589 . S
C1115 C218 1.611 . S
C1131 C224 1.623 . S
C1136 C377 1.593 . S
C1152 C348 1.568 . S
C1147 C225 1.618 . S
C1163 C200 1.611 . S
C1168 C306 1.565 . S
C1184 C335 1.568 . S
C1179 C213 1.607 . S
C1200 C246 1.336 . S
C1195 C4 1.512 . S
C1211 C17 1.509 . S
C1216 C267 1.400 . S
C1232 C295 1.454 . S
C1227 C31 1.505 . S
C1248 C316 1.428 . S
C1243 C36 1.479 . S
C1264 C330 1.338 . S
C1259 C3 1.504 . S
C1280 C358 1.371 . S
C1275 C16 1.504 . S
C1291 C43 1.505 . S
C1296 C351 1.360 . S
C1307 C56 1.508 . S
C1312 C309 1.329 . S
C1323 C68 1.496 . S
C1328 C337 1.390 . S
C1339 C69 1.490 . S
C1344 C274 1.352 . S
C1360 C288 1.438 . S
C1355 C42 1.510 . S
C1371 C55 1.505 . S
C1376 C253 1.362 . S
C1392 C372 1.329 . S
C1387 C82 1.509 . S
C1403 C95 1.485 . S
C1408 C393 1.319 . S
C1419 C109 1.500 . S
C1424 C421 1.459 . S
C1440 C442 1.372 . S
C1435 C114 1.505 . S
C1451 C81 1.509 . S
C1456 C456 1.324 . S
C1467 C94 1.514 . S
C1472 C484 1.375 . S
C1483 C121 1.513 . S
C1488 C477 1.426 . S
C1499 C134 1.489 . S
C1504 C435 1.360 . S
C1520 C463 1.368 . S
C1515 C148 1.506 . S
C1531 C153 1.501 . S
C1536 C400 1.440 . S
C1547 C120 1.521 . S
C1552 C414 1.337 . S
C1568 C379 1.363 . S
C1563 C133 1.505 . S
C1584 C498 1.325 . S
C1579 C166 1.501 . S
C1595 C179 1.506 . S
C1600 C519 1.420 1_655 S
C1611 C187 1.510 . S
C1616 C547 1.367 . S
C1632 C568 1.369 . S
C1627 C192 1.504 . S
C1648 C582 1.409 . S
C1643 C161 1.524 . S
C1659 C174 1.505 . S
C1664 C610 1.371 . S
C1675 C199 1.520 . S
C1680 C603 1.332 . S
C1691 C212 1.508 . S
C1696 C561 1.363 . S
C1712 C589 1.372 . S
C1707 C226 1.507 . S
C1728 C526 1.417 1_655 S
C1723 C231 1.487 . S
C1744 C540 1.386 . S
C1739 C198 1.520 . S
C1755 C211 1.504 . S
C1760 C505 1.450 . S
