# Generated by pormake.
# Topology ssa, (4,4)-cn, num edge types: 1
# Building blocks:
#     Node 0, Type 0, BuildingBlock: KOZSID_clean_sbu_0, # of connection points: 4
#     Node 1, Type 0, BuildingBlock: KOZSID_clean_sbu_0, # of connection points: 4
#     Node 2, Type 0, BuildingBlock: KOZSID_clean_sbu_0, # of connection points: 4
#     Node 3, Type 0, BuildingBlock: KOZSID_clean_sbu_0, # of connection points: 4
#     Node 4, Type 0, BuildingBlock: KOZSID_clean_sbu_0, # of connection points: 4
#     Node 5, Type 0, BuildingBlock: KOZSID_clean_sbu_0, # of connection points: 4
#     Node 6, Type 1, BuildingBlock: MIFKUJ_clean_linker_1, # of connection points: 4
#     Node 7, Type 1, BuildingBlock: MIFKUJ_clean_linker_1, # of connection points: 4
#     Node 8, Type 1, BuildingBlock: MIFKUJ_clean_linker_1, # of connection points: 4
#     Node 9, Type 1, BuildingBlock: MIFKUJ_clean_linker_1, # of connection points: 4
#     Node 10, Type 1, BuildingBlock: MIFKUJ_clean_linker_1, # of connection points: 4
#     Node 11, Type 1, BuildingBlock: MIFKUJ_clean_linker_1, # of connection points: 4
#     Edge 12, Type (0, 1), None
#     Edge 13, Type (0, 1), None
#     Edge 14, Type (0, 1), None
#     Edge 15, Type (0, 1), None
#     Edge 16, Type (0, 1), None
#     Edge 17, Type (0, 1), None
#     Edge 18, Type (0, 1), None
#     Edge 19, Type (0, 1), None
#     Edge 20, Type (0, 1), None
#     Edge 21, Type (0, 1), None
#     Edge 22, Type (0, 1), None
#     Edge 23, Type (0, 1), None
#     Edge 24, Type (0, 1), None
#     Edge 25, Type (0, 1), None
#     Edge 26, Type (0, 1), None
#     Edge 27, Type (0, 1), None
#     Edge 28, Type (0, 1), None
#     Edge 29, Type (0, 1), None
#     Edge 30, Type (0, 1), None
#     Edge 31, Type (0, 1), None
#     Edge 32, Type (0, 1), None
#     Edge 33, Type (0, 1), None
#     Edge 34, Type (0, 1), None
#     Edge 35, Type (0, 1), None
# Relax obj value: 0.009
# Max RMSD: 0.029
# Mean RMSD: 0.014
data_MOF--net-ssa--node1-KOZSID_clean_sbu_0--node2-MIFKUJ_clean_linker_1--edge1-none
_symmetry_space_group_name_H-M    P1
_symmetry_Int_Tables_number       1
_symmetry_cell_setting            triclinic
loop_
_symmetry_equiv_pos_as_xyz
'x, y, z'
_cell_length_a     37.467298
_cell_length_b     38.869939
_cell_length_c     24.398774
_cell_angle_alpha  85.974338
_cell_angle_beta   89.929466
_cell_angle_gamma 123.68793
loop_
_atom_site_label
_atom_site_type_symbol
_atom_site_fract_x
_atom_site_fract_y
_atom_site_fract_z
_atom_type_partial_charge
C0 C 0.92353 0.50883 0.01109 0.0
C1 C 0.88733 0.49639 0.0437 0.0
C2 C 0.88795 0.47422 0.08925 0.0
C3 C 0.9244 0.47446 0.08189 0.0
N4 N 0.94751 0.49616 0.03486 0.0
Co5 Co 1.00149 0.503 0.00636 0.0
N6 N 0.99815 0.46397 0.06778 0.0
C7 C 0.96664 0.44241 0.10774 0.0
C8 C 0.97417 0.41953 0.14545 0.0
C9 C 0.01312 0.42748 0.12914 0.0
C10 C 0.02715 0.45492 0.08231 0.0
N11 N 0.05624 0.51089 0.97883 0.0
C12 C 0.08015 0.49818 0.00277 0.0
C13 C 0.11785 0.5129 0.97209 0.0
C14 C 0.11831 0.5366 0.92773 0.0
C15 C 0.08103 0.53501 0.93393 0.0
N16 N 0.00397 0.54081 0.94382 0.0
C17 C 0.03437 0.56089 0.90235 0.0
C18 C 0.02547 0.58164 0.86288 0.0
C19 C 0.98648 0.57348 0.87933 0.0
C20 C 0.97396 0.54821 0.92813 0.0
N21 N 0.03594 0.55061 0.05202 0.0
C22 C 0.08996 0.61518 0.11839 0.0
C23 C 0.09614 0.62108 0.06121 0.0
C24 C 0.06917 0.58853 0.02905 0.0
C25 C 0.0555 0.57711 0.14173 0.0
C26 C 0.02871 0.54579 0.10804 0.0
N27 N 0.96699 0.45548 0.9608 0.0
C28 C 0.95307 0.42599 0.87285 0.0
C29 C 0.91222 0.39281 0.89234 0.0
C30 C 0.90025 0.39052 0.94738 0.0
C31 C 0.92795 0.42167 0.98063 0.0
C32 C 0.97976 0.45676 0.90755 0.0
H33 H 0.91662 0.41812 0.02199 0.0
H34 H 0.01015 0.48176 0.89002 0.0
H35 H 0.07643 0.59455 0.98584 0.0
H36 H 0.00279 0.51773 0.12856 0.0
C37 C 0.93397 0.44932 0.11337 0.0
C38 C 0.93209 0.52974 0.95608 0.0
C39 C 0.06974 0.47435 0.05593 0.0
C40 C 0.06946 0.55738 0.89994 0.0
H41 H 0.86222 0.50138 0.03435 0.0
H42 H 0.86341 0.45777 0.12213 0.0
H43 H 0.95486 0.40119 0.18219 0.0
H44 H 0.03015 0.41589 0.15061 0.0
H45 H 0.14294 0.50792 0.9817 0.0
H46 H 0.14348 0.55401 0.89577 0.0
H47 H 0.04426 0.59921 0.82549 0.0
H48 H 0.9686 0.58377 0.85706 0.0
H49 H 0.1226 0.65022 0.04148 0.0
H50 H 0.04925 0.57149 0.18592 0.0
H51 H 0.9639 0.42898 0.83055 0.0
H52 H 0.8694 0.36481 0.96484 0.0
C53 C 0.56421 0.02479 0.60025 0.0
C54 C 0.56564 0.00998 0.65307 0.0
C55 C 0.52735 0.9728 0.66405 0.0
C56 C 0.5049 0.96695 0.6174 0.0
N57 N 0.52683 0.99787 0.57691 0.0
Co58 Co 0.50548 0.00295 0.50325 0.0
N59 N 0.44712 0.95142 0.52226 0.0
C60 C 0.43305 0.92843 0.57123 0.0
C61 C 0.39162 0.89441 0.57161 0.0
C62 C 0.37877 0.89523 0.51948 0.0
C63 C 0.4134 0.92965 0.49004 0.0
N64 N 0.48443 0.0072 0.42889 0.0
C65 C 0.44794 0.97911 0.40465 0.0
C66 C 0.44826 0.99221 0.35006 0.0
C67 C 0.48618 0.02966 0.33936 0.0
C68 C 0.50706 0.03716 0.38752 0.0
N69 N 0.56358 0.0552 0.48483 0.0
C70 C 0.57652 0.08002 0.43739 0.0
C71 C 0.61692 0.11539 0.43809 0.0
C72 C 0.63031 0.11362 0.48953 0.0
C73 C 0.5972 0.07698 0.51727 0.0
N74 N 0.52421 0.96897 0.47288 0.0
C75 C 0.53975 0.91551 0.42201 0.0
C76 C 0.55552 0.95519 0.39768 0.0
C77 C 0.54775 0.98145 0.42392 0.0
C78 C 0.51804 0.9036 0.47326 0.0
C79 C 0.51092 0.93075 0.49802 0.0
N80 N 0.48671 0.03701 0.53373 0.0
C81 C 0.48467 0.0984 0.527 0.0
C82 C 0.47216 0.09195 0.5826 0.0
C83 C 0.46473 0.05658 0.61262 0.0
C84 C 0.47136 0.02934 0.58732 0.0
C85 C 0.49188 0.07077 0.50353 0.0
H86 H 0.46492 0.00289 0.61254 0.0
H87 H 0.50274 0.07804 0.46138 0.0
H88 H 0.56002 0.01119 0.40306 0.0
H89 H 0.49345 0.91962 0.5367 0.0
C90 C 0.46131 0.93623 0.61329 0.0
C91 C 0.59794 0.06569 0.57542 0.0
C92 C 0.41372 0.9387 0.43079 0.0
C93 C 0.54924 0.0702 0.39383 0.0
H94 H 0.5911 0.02528 0.68142 0.0
H95 H 0.51631 0.95346 0.70251 0.0
H96 H 0.37368 0.87064 0.60496 0.0
H97 H 0.34801 0.8722 0.50422 0.0
H98 H 0.42446 0.97593 0.32016 0.0
H99 H 0.49799 0.04828 0.30037 0.0
H100 H 0.63402 0.14019 0.40568 0.0
H101 H 0.6605 0.13729 0.5053 0.0
H102 H 0.57271 0.96546 0.35792 0.0
H103 H 0.50554 0.873 0.49338 0.0
H104 H 0.49051 0.1255 0.50235 0.0
H105 H 0.45439 0.05028 0.65575 0.0
C106 C 0.58134 0.54949 0.92618 0.0
C107 C 0.59825 0.57602 0.87848 0.0
C108 C 0.56812 0.58345 0.86213 0.0
C109 C 0.53469 0.56111 0.90062 0.0
N110 N 0.54206 0.5406 0.94132 0.0
Co111 Co 0.50082 0.50131 0.00282 0.0
N112 N 0.45418 0.50743 0.97451 0.0
C113 C 0.45621 0.53028 0.92866 0.0
C114 C 0.4199 0.5303 0.92186 0.0
C115 C 0.39348 0.50689 0.96671 0.0
C116 C 0.41537 0.49396 0.99831 0.0
N117 N 0.45959 0.46203 0.06433 0.0
C118 C 0.42029 0.45312 0.07946 0.0
C119 C 0.40338 0.42657 0.12714 0.0
C120 C 0.4335 0.41913 0.14347 0.0
C121 C 0.46694 0.44148 0.10499 0.0
N122 N 0.54747 0.4952 0.03115 0.0
C123 C 0.54543 0.47234 0.07699 0.0
C124 C 0.58176 0.47235 0.08382 0.0
C125 C 0.60819 0.4958 0.03901 0.0
C126 C 0.5863 0.50872 0.00739 0.0
N127 N 0.51937 0.54815 0.04898 0.0
C128 C 0.53269 0.60891 0.11812 0.0
C129 C 0.53444 0.57546 0.1384 0.0
C130 C 0.52766 0.54559 0.10336 0.0
C131 C 0.52679 0.61283 0.06212 0.0
C132 C 0.52081 0.58264 0.02844 0.0
N133 N 0.48232 0.45449 0.95664 0.0
C134 C 0.47568 0.3902 0.94328 0.0
C135 C 0.47022 0.39435 0.88717 0.0
C136 C 0.46807 0.42759 0.86699 0.0
C137 C 0.47421 0.45713 0.90221 0.0
C138 C 0.48104 0.42007 0.97712 0.0
H139 H 0.47356 0.48245 0.88401 0.0
H140 H 0.48533 0.41525 0.01939 0.0
H141 H 0.52806 0.52015 0.12163 0.0
H142 H 0.51627 0.58734 0.98623 0.0
C143 C 0.49434 0.55493 0.89624 0.0
C144 C 0.60216 0.53092 0.95314 0.0
C145 C 0.3995 0.47174 0.05255 0.0
C146 C 0.50729 0.44766 0.10938 0.0
H147 H 0.62847 0.58741 0.85662 0.0
H148 H 0.5695 0.60125 0.82506 0.0
H149 H 0.41418 0.54704 0.8896 0.0
H150 H 0.36235 0.50126 0.97628 0.0
H151 H 0.37316 0.41518 0.14901 0.0
H152 H 0.43212 0.40132 0.18053 0.0
H153 H 0.58747 0.45562 0.11609 0.0
H154 H 0.63934 0.50145 0.02947 0.0
H155 H 0.53926 0.57142 0.18154 0.0
H156 H 0.52627 0.6389 0.04441 0.0
H157 H 0.47643 0.36424 0.96092 0.0
H158 H 0.46352 0.43178 0.82378 0.0
C159 C 0.92317 0.414 0.51427 0.0
C160 C 0.88527 0.38795 0.48875 0.0
C161 C 0.885 0.41053 0.44354 0.0
C162 C 0.92259 0.44887 0.44412 0.0
N163 N 0.94738 0.45189 0.48621 0.0
Co164 Co 0.00295 0.50277 0.50534 0.0
N165 N 1.00034 0.53757 0.44263 0.0
C166 C 0.96899 0.5248 0.40621 0.0
C167 C 0.97817 0.55414 0.36411 0.0
C168 C 0.01815 0.58735 0.37331 0.0
C169 C 0.03106 0.57653 0.42116 0.0
N170 N 0.05821 0.55365 0.52486 0.0
C171 C 0.0823 0.59168 0.49714 0.0
C172 C 0.11894 0.61832 0.52457 0.0
C173 C 0.11888 0.59578 0.5701 0.0
C174 C 0.08218 0.55696 0.56815 0.0
N175 N 0.00593 0.46796 0.56759 0.0
C176 C 0.03756 0.48036 0.60346 0.0
C177 C 0.02935 0.45 0.6436 0.0
C178 C 0.98973 0.41645 0.63346 0.0
C179 C 0.97608 0.42841 0.58756 0.0
N180 N 0.03563 0.49028 0.45554 0.0
C181 C 0.08802 0.48366 0.37991 0.0
C182 C 0.10039 0.49351 0.43358 0.0
C183 C 0.07379 0.49627 0.47052 0.0
C184 C 0.04795 0.47502 0.36558 0.0
C185 C 0.02246 0.47847 0.40375 0.0
N186 N 0.97022 0.51524 0.55524 0.0
C187 C 0.95598 0.52761 0.64619 0.0
C188 C 0.91718 0.52138 0.63039 0.0
C189 C 0.90648 0.51424 0.57565 0.0
C190 C 0.93345 0.51177 0.53895 0.0
C191 C 0.98178 0.52438 0.60827 0.0
H192 H 0.92336 0.50608 0.49795 0.0
H193 H 0.01031 0.5283 0.62338 0.0
H194 H 0.08525 0.50422 0.51061 0.0
H195 H 0.99275 0.47245 0.38988 0.0
C196 C 0.9339 0.48354 0.40858 0.0
C197 C 0.93326 0.40238 0.5671 0.0
C198 C 0.07384 0.60275 0.44254 0.0
C199 C 0.07178 0.52199 0.60257 0.0
H200 H 0.85982 0.35637 0.50254 0.0
H201 H 0.85962 0.40073 0.41499 0.0
H202 H 0.95916 0.55087 0.32904 0.0
H203 H 0.03618 0.61542 0.34612 0.0
H204 H 0.14404 0.65021 0.51164 0.0
H205 H 0.14368 0.60593 0.59959 0.0
H206 H 0.0488 0.45263 0.67787 0.0
H207 H 0.9721 0.38708 0.65828 0.0
H208 H 0.13071 0.49937 0.44703 0.0
H209 H 0.0369 0.46703 0.32451 0.0
H210 H 0.96569 0.53345 0.68816 0.0
H211 H 0.87718 0.51026 0.56121 0.0
C212 C 0.44577 0.98424 0.10749 0.0
C213 C 0.44591 1.00012 0.15674 0.0
C214 C 0.48463 0.03709 0.1575 0.0
C215 C 0.50576 0.04167 0.10882 0.0
N216 N 0.48252 0.01023 0.07643 0.0
Co217 Co 0.50184 0.0027 0.00399 0.0
N218 N 0.56069 0.05416 0.00844 0.0
C219 C 0.57581 0.07909 0.05024 0.0
C220 C 0.61726 0.11271 0.04074 0.0
C221 C 0.62896 0.10965 0.98925 0.0
C222 C 0.59367 0.07435 0.97011 0.0
N223 N 0.5212 0.99543 0.93127 0.0
C224 C 0.55745 0.02209 0.89948 0.0
C225 C 0.55637 0.00692 0.8492 0.0
C226 C 0.51803 0.96957 0.849 0.0
C227 C 0.49776 0.96417 0.89868 0.0
N228 N 0.44297 0.95104 0.99976 0.0
C229 C 0.42834 0.92544 0.95869 0.0
C230 C 0.38747 0.89103 0.96894 0.0
C231 C 0.37554 0.89431 0.02012 0.0
C232 C 0.40995 0.93082 0.03814 0.0
N233 N 0.48353 0.03639 0.9645 0.0
C234 C 0.47045 0.09063 0.89872 0.0
C235 C 0.45587 0.05114 0.88315 0.0
C236 C 0.46223 0.02456 0.91672 0.0
C237 C 0.48897 0.10125 0.9497 0.0
C238 C 0.49517 0.07394 0.98161 0.0
N239 N 0.5202 0.96899 0.04346 0.0
C240 C 0.517 0.90511 0.05615 0.0
C241 C 0.53446 0.915 0.10777 0.0
C242 C 0.54715 0.95355 0.12505 0.0
C243 C 0.54014 0.97999 0.09229 0.0
C244 C 0.51028 0.93234 0.02493 0.0
H245 H 0.55 0.00859 0.10822 0.0
H246 H 0.49604 0.92253 0.9866 0.0
H247 H 0.45087 0.99515 0.9022 0.0
H248 H 0.51053 0.08438 0.01921 0.0
C249 C 0.54895 0.07246 0.09524 0.0
C250 C 0.41113 0.94329 0.09353 0.0
C251 C 0.59185 0.06324 0.91376 0.0
C252 C 0.45499 0.93273 0.91317 0.0
H253 H 0.42115 0.98571 0.1895 0.0
H254 H 0.49673 0.05725 0.19069 0.0
H255 H 0.63604 0.1375 0.06705 0.0
H256 H 0.65939 0.13177 0.96732 0.0
H257 H 0.57987 0.02185 0.81508 0.0
H258 H 0.50545 0.94983 0.81538 0.0
H259 H 0.36923 0.86566 0.94327 0.0
H260 H 0.3455 0.87157 0.04235 0.0
H261 H 0.44107 0.04118 0.84425 0.0
H262 H 0.49942 0.13088 0.9647 0.0
H263 H 0.50791 0.87617 0.04006 0.0
H264 H 0.56099 0.96281 0.1646 0.0
C265 C 0.52182 0.59001 0.4995 0.0
C266 C 0.51224 0.61414 0.52708 0.0
C267 C 0.48576 0.5896 0.57136 0.0
C268 C 0.48074 0.55207 0.56818 0.0
N269 N 0.50334 0.55152 0.52533 0.0
Co270 Co 0.50295 0.50282 0.50215 0.0
N271 N 0.45914 0.46498 0.56223 0.0
C272 C 0.44005 0.47484 0.59937 0.0
C273 C 0.41388 0.44288 0.63815 0.0
C274 C 0.41729 0.41104 0.62588 0.0
C275 C 0.44542 0.42557 0.58016 0.0
N276 N 0.50251 0.45411 0.47891 0.0
C277 C 0.48407 0.41564 0.50475 0.0
C278 C 0.49348 0.39145 0.47702 0.0
C279 C 0.51981 0.41594 0.43261 0.0
C280 C 0.5249 0.45349 0.43586 0.0
N281 N 0.54683 0.54067 0.44215 0.0
C282 C 0.56596 0.5308 0.40508 0.0
C283 C 0.59242 0.56284 0.36654 0.0
C284 C 0.58919 0.59476 0.37893 0.0
C285 C 0.56087 0.58021 0.42446 0.0
N286 N 0.54911 0.51461 0.55312 0.0
C287 C 0.60838 0.52045 0.62919 0.0
C288 C 0.61159 0.51373 0.57446 0.0
C289 C 0.58218 0.51141 0.5373 0.0
C290 C 0.57634 0.52624 0.64466 0.0
C291 C 0.54719 0.52312 0.60628 0.0
N292 N 0.45676 0.49101 0.45118 0.0
C293 C 0.42943 0.4795 0.35967 0.0
C294 C 0.39706 0.48474 0.3755 0.0
C295 C 0.3938 0.49118 0.43034 0.0
C296 C 0.42342 0.49372 0.46729 0.0
C297 C 0.45881 0.48286 0.39786 0.0
H298 H 0.41917 0.49876 0.50839 0.0
H299 H 0.48345 0.47974 0.38286 0.0
H300 H 0.58631 0.50609 0.4963 0.0
H301 H 0.5228 0.52669 0.62102 0.0
C302 C 0.45149 0.51567 0.60085 0.0
C303 C 0.5452 0.60357 0.44639 0.0
C304 C 0.46116 0.40228 0.55817 0.0
C305 C 0.55432 0.48993 0.40339 0.0
H306 H 0.52195 0.64563 0.51503 0.0
H307 H 0.47022 0.59749 0.60065 0.0
H308 H 0.39634 0.44341 0.67301 0.0
H309 H 0.40233 0.38116 0.64924 0.0
H310 H 0.48385 0.35999 0.48909 0.0
H311 H 0.53528 0.40803 0.40324 0.0
H312 H 0.61004 0.56232 0.33178 0.0
H313 H 0.6044 0.62473 0.35573 0.0
H314 H 0.63662 0.51005 0.56034 0.0
H315 H 0.57281 0.53172 0.68665 0.0
H316 H 0.433 0.47425 0.31756 0.0
H317 H 0.36854 0.49445 0.44472 0.0
H318 H 0.14458 0.41523 0.11108 0.0
H319 H 0.08779 0.41521 0.06036 0.0
H320 H 0.12856 0.53338 0.11841 0.0
H321 H 0.18555 0.53381 0.16858 0.0
H322 H 0.23158 0.46765 0.10371 0.0
H323 H 0.11866 0.4244 0.24324 0.0
H324 H 0.06857 0.42619 0.30588 0.0
H325 H 0.17372 0.54114 0.36145 0.0
H326 H 0.22339 0.53948 0.29869 0.0
H327 H 0.32379 0.53924 0.29831 0.0
H328 H 0.37607 0.54116 0.35985 0.0
H329 H 0.3515 0.42828 0.3002 0.0
H330 H 0.29813 0.42576 0.23935 0.0
H331 H 0.24235 0.48436 0.30374 0.0
H332 H 0.35465 0.53364 0.16484 0.0
H333 H 0.41014 0.53209 0.1136 0.0
H334 H 0.31328 0.41318 0.05904 0.0
H335 H 0.25754 0.41435 0.11074 0.0
C336 C 0.16904 0.47428 0.14418 0.0
C337 C 0.14143 0.4412 0.11275 0.0
C338 C 0.10901 0.44108 0.08403 0.0
C339 C 0.10401 0.47416 0.08609 0.0
C340 C 0.1319 0.5075 0.1167 0.0
C341 C 0.16423 0.50763 0.14542 0.0
C342 C 0.20289 0.47407 0.1757 0.0
C343 C 0.23368 0.47085 0.1476 0.0
C344 C 0.20631 0.4792 0.23274 0.0
C345 C 0.17484 0.48182 0.2662 0.0
C346 C 0.13078 0.45035 0.26819 0.0
C347 C 0.10222 0.45132 0.30412 0.0
C348 C 0.11737 0.4835 0.33914 0.0
C349 C 0.16124 0.5155 0.33584 0.0
C350 C 0.18962 0.51468 0.29977 0.0
C351 C 0.3069 0.48236 0.26411 0.0
C352 C 0.32967 0.51491 0.29823 0.0
C353 C 0.35944 0.51594 0.33351 0.0
C354 C 0.3674 0.4846 0.33522 0.0
C355 C 0.34598 0.45286 0.29956 0.0
C356 C 0.31566 0.45153 0.26463 0.0
C357 C 0.27179 0.47935 0.23172 0.0
C358 C 0.24044 0.48144 0.25976 0.0
C359 C 0.2685 0.47407 0.17469 0.0
C360 C 0.30194 0.47386 0.14217 0.0
C361 C 0.34527 0.50711 0.14211 0.0
C362 C 0.37688 0.50632 0.11284 0.0
C363 C 0.36563 0.47241 0.08298 0.0
C364 C 0.3224 0.43949 0.08211 0.0
C365 C 0.29072 0.44026 0.11138 0.0
H366 H 0.65746 0.19229 0.81564 0.0
H367 H 0.6017 0.13613 0.87979 0.0
H368 H 0.65323 0.06287 0.85313 0.0
H369 H 0.70779 0.11836 0.78695 0.0
H370 H 0.75002 0.22902 0.83242 0.0
H371 H 0.64126 0.16312 0.70329 0.0
H372 H 0.58676 0.10856 0.64902 0.0
H373 H 0.68259 0.09337 0.57975 0.0
H374 H 0.73724 0.14756 0.63473 0.0
H375 H 0.85242 0.26312 0.63266 0.0
H376 H 0.91157 0.32267 0.57563 0.0
H377 H 0.87683 0.40217 0.63679 0.0
H378 H 0.81746 0.34279 0.6934 0.0
H379 H 0.76676 0.22766 0.63114 0.0
H380 H 0.87684 0.29835 0.76098 0.0
H381 H 0.92859 0.35338 0.81683 0.0
H382 H 0.82679 0.36069 0.88506 0.0
H383 H 0.77544 0.30625 0.82886 0.0
C384 C 0.68635 0.15919 0.79625 0.0
C385 C 0.65616 0.16378 0.82277 0.0
C386 C 0.62452 0.13186 0.85935 0.0
C387 C 0.62313 0.09521 0.87083 0.0
C388 C 0.65324 0.09056 0.84407 0.0
C389 C 0.68434 0.12216 0.80649 0.0
C390 C 0.7223 0.19456 0.76187 0.0
C391 C 0.75355 0.22911 0.78825 0.0
C392 C 0.72698 0.19376 0.70456 0.0
C393 C 0.69339 0.15918 0.67379 0.0
C394 C 0.65053 0.14757 0.67738 0.0
C395 C 0.61947 0.11665 0.64616 0.0
C396 C 0.63076 0.09708 0.61041 0.0
C397 C 0.67335 0.10822 0.60709 0.0
C398 C 0.70445 0.13913 0.63838 0.0
C399 C 0.83076 0.29855 0.66774 0.0
C400 C 0.85752 0.29335 0.63386 0.0
C401 C 0.89128 0.32721 0.60158 0.0
C402 C 0.89853 0.36662 0.60255 0.0
C403 C 0.87178 0.37192 0.63602 0.0
C404 C 0.83807 0.33812 0.66832 0.0
C405 C 0.79472 0.26251 0.70168 0.0
C406 C 0.76346 0.22766 0.67531 0.0
C407 C 0.78982 0.26313 0.75913 0.0
C408 C 0.82213 0.29814 0.79045 0.0
C409 C 0.86577 0.31225 0.78729 0.0
C410 C 0.89534 0.34366 0.81933 0.0
C411 C 0.88171 0.36111 0.85577 0.0
C412 C 0.83819 0.34737 0.85816 0.0
C413 C 0.80879 0.3163 0.8259 0.0
H414 H 0.60759 0.85067 0.37518 0.0
H415 H 0.60349 0.90154 0.42478 0.0
H416 H 0.48254 0.86187 0.35349 0.0
H417 H 0.48608 0.81071 0.30478 0.0
H418 H 0.55508 0.76654 0.37965 0.0
H419 H 0.60336 0.87926 0.23601 0.0
H420 H 0.59928 0.92999 0.17581 0.0
H421 H 0.47653 0.83115 0.12267 0.0
H422 H 0.4814 0.78082 0.18174 0.0
H423 H 0.48275 0.68487 0.18233 0.0
H424 H 0.47815 0.63375 0.12491 0.0
H425 H 0.59201 0.6506 0.19505 0.0
H426 H 0.59743 0.70299 0.25164 0.0
H427 H 0.54064 0.76255 0.17786 0.0
H428 H 0.48672 0.65039 0.31879 0.0
H429 H 0.48539 0.59536 0.37667 0.0
H430 H 0.60822 0.68607 0.4377 0.0
H431 H 0.61 0.74131 0.37931 0.0
C432 C 0.54747 0.82729 0.33558 0.0
C433 C 0.58019 0.85291 0.37025 0.0
C434 C 0.57796 0.88194 0.39834 0.0
C435 C 0.54289 0.88552 0.39228 0.0
C436 C 0.51 0.8597 0.35822 0.0
C437 C 0.51216 0.83069 0.3303 0.0
C438 C 0.54963 0.7965 0.30546 0.0
C439 C 0.55266 0.76602 0.33538 0.0
C440 C 0.54544 0.79513 0.24794 0.0
C441 C 0.54265 0.82634 0.21333 0.0
C442 C 0.57555 0.86868 0.21148 0.0
C443 C 0.57312 0.8976 0.17711 0.0
C444 C 0.53772 0.88461 0.14405 0.0
C445 C 0.50471 0.84216 0.14655 0.0
C446 C 0.50727 0.81335 0.18061 0.0
C447 C 0.54046 0.69793 0.22137 0.0
C448 C 0.50684 0.6777 0.18545 0.0
C449 C 0.50425 0.64856 0.15255 0.0
C450 C 0.53501 0.63865 0.15513 0.0
C451 C 0.56788 0.65772 0.19238 0.0
C452 C 0.57085 0.68746 0.22488 0.0
C453 C 0.54471 0.73169 0.25204 0.0
C454 C 0.54336 0.76305 0.22212 0.0
C455 C 0.54959 0.73325 0.30956 0.0
C456 C 0.54875 0.6999 0.34422 0.0
C457 C 0.5136 0.65847 0.34413 0.0
C458 C 0.51273 0.62716 0.37719 0.0
C459 C 0.54682 0.63691 0.41099 0.0
C460 C 0.58179 0.67819 0.41157 0.0
C461 C 0.5827 0.70955 0.37848 0.0
H462 H 0.68032 0.46486 0.70765 0.0
H463 H 0.62894 0.46368 0.64506 0.0
H464 H 0.65355 0.57648 0.70512 0.0
H465 H 0.70593 0.57818 0.7671 0.0
H466 H 0.76198 0.51959 0.70417 0.0
H467 H 0.64755 0.46983 0.84017 0.0
H468 H 0.59175 0.47129 0.89076 0.0
H469 H 0.68842 0.5891 0.94831 0.0
H470 H 0.74446 0.58804 0.89725 0.0
H471 H 0.85532 0.58659 0.90051 0.0
H472 H 0.91154 0.58698 0.95303 0.0
H473 H 0.87475 0.47062 0.89241 0.0
H474 H 0.81818 0.46973 0.84046 0.0
H475 H 0.76959 0.53445 0.90462 0.0
H476 H 0.88482 0.57795 0.76901 0.0
H477 H 0.93576 0.5769 0.70701 0.0
H478 H 0.83118 0.46455 0.64531 0.0
H479 H 0.78068 0.46514 0.70783 0.0
C480 C 0.69708 0.52159 0.74219 0.0
C481 C 0.67464 0.48933 0.70757 0.0
C482 C 0.6454 0.48874 0.67168 0.0
C483 C 0.63769 0.52026 0.6698 0.0
C484 C 0.65886 0.55176 0.70585 0.0
C485 C 0.68862 0.55263 0.74144 0.0
C486 C 0.73153 0.52405 0.77551 0.0
C487 C 0.76321 0.52205 0.74825 0.0
C488 C 0.73392 0.52882 0.83265 0.0
C489 C 0.7002 0.52908 0.86438 0.0
C490 C 0.65682 0.49613 0.86335 0.0
C491 C 0.62504 0.49686 0.89226 0.0
C492 C 0.63616 0.5304 0.92284 0.0
C493 C 0.6794 0.56307 0.92467 0.0
C494 C 0.71125 0.56236 0.89577 0.0
C495 C 0.83284 0.5284 0.86593 0.0
C496 C 0.85913 0.56101 0.89874 0.0
C497 C 0.89116 0.5613 0.92861 0.0
C498 C 0.89712 0.52886 0.92637 0.0
C499 C 0.87052 0.49592 0.89446 0.0
C500 C 0.8385 0.49559 0.86463 0.0
C501 C 0.79938 0.52855 0.83334 0.0
C502 C 0.76819 0.5316 0.86064 0.0
C503 C 0.79688 0.52391 0.77613 0.0
C504 C 0.82883 0.52158 0.74324 0.0
C505 C 0.87297 0.55264 0.74297 0.0
C506 C 0.90202 0.55214 0.70734 0.0
C507 C 0.88728 0.52098 0.67077 0.0
C508 C 0.84333 0.4894 0.67223 0.0
C509 C 0.81449 0.48962 0.70815 0.0
H510 H 0.27272 0.8633 0.17301 0.0
H511 H 0.32772 0.91837 0.10705 0.0
H512 H 0.4225 0.90031 0.17637 0.0
H513 H 0.36757 0.84498 0.24218 0.0
H514 H 0.24738 0.78347 0.17615 0.0
H515 H 0.2975 0.88512 0.31684 0.0
H516 H 0.35211 0.93965 0.37148 0.0
H517 H 0.40001 0.86354 0.41622 0.0
H518 H 0.34417 0.80833 0.36357 0.0
H519 H 0.20939 0.67179 0.35442 0.0
H520 H 0.14855 0.61257 0.40952 0.0
H521 H 0.08139 0.67381 0.39955 0.0
H522 H 0.14079 0.73137 0.34064 0.0
H523 H 0.24978 0.77003 0.37953 0.0
H524 H 0.18844 0.66287 0.25508 0.0
H525 H 0.13487 0.60824 0.20082 0.0
H526 H 0.11396 0.6958 0.11434 0.0
H527 H 0.16563 0.75004 0.17143 0.0
C528 C 0.31603 0.85014 0.21277 0.0
C529 C 0.30546 0.87156 0.1746 0.0
C530 C 0.33671 0.90289 0.13702 0.0
C531 C 0.37891 0.91302 0.13677 0.0
C532 C 0.39 0.8928 0.17611 0.0
C533 C 0.35875 0.86148 0.21381 0.0
C534 C 0.28156 0.81328 0.2473 0.0
C535 C 0.24747 0.78076 0.2207 0.0
C536 C 0.28276 0.80912 0.3052 0.0
C537 C 0.31703 0.84285 0.33592 0.0
C538 C 0.31989 0.88029 0.33823 0.0
C539 C 0.35106 0.91137 0.36925 0.0
C540 C 0.38054 0.90592 0.39729 0.0
C541 C 0.37773 0.86849 0.3947 0.0
C542 C 0.34599 0.83707 0.36467 0.0
C543 C 0.17898 0.70532 0.34243 0.0
C544 C 0.18121 0.67206 0.36334 0.0
C545 C 0.14662 0.63843 0.39483 0.0
C546 C 0.10994 0.63829 0.40761 0.0
C547 C 0.10868 0.67257 0.38872 0.0
C548 C 0.14262 0.70549 0.35554 0.0
C549 C 0.21512 0.74068 0.30832 0.0
C550 C 0.24953 0.77281 0.33499 0.0
C551 C 0.21429 0.74431 0.25026 0.0
C552 C 0.18019 0.71044 0.21899 0.0
C553 C 0.17114 0.6701 0.22628 0.0
C554 C 0.14095 0.63897 0.19461 0.0
C555 C 0.12022 0.64785 0.15366 0.0
C556 C 0.12954 0.68822 0.14571 0.0
C557 C 0.159 0.71914 0.17836 0.0
H558 H 0.52311 0.32075 0.82332 0.0
H559 H 0.5258 0.37069 0.88134 0.0
H560 H 0.41228 0.35288 0.80871 0.0
H561 H 0.40881 0.30168 0.75144 0.0
H562 H 0.46549 0.24264 0.82597 0.0
H563 H 0.52031 0.35697 0.68694 0.0
H564 H 0.52049 0.41158 0.62958 0.0
H565 H 0.39984 0.31936 0.56518 0.0
H566 H 0.39921 0.26455 0.62304 0.0
H567 H 0.40877 0.16308 0.61795 0.0
H568 H 0.41425 0.1132 0.56812 0.0
H569 H 0.52452 0.14072 0.65899 0.0
H570 H 0.5209 0.19219 0.7062 0.0
H571 H 0.45653 0.24204 0.62333 0.0
H572 H 0.40397 0.12747 0.76759 0.0
H573 H 0.40635 0.0764 0.82943 0.0
H574 H 0.52989 0.17422 0.88227 0.0
H575 H 0.52631 0.22486 0.82221 0.0
C576 C 0.46576 0.30733 0.78292 0.0
C577 C 0.49869 0.32746 0.81977 0.0
C578 C 0.50017 0.35591 0.85304 0.0
C579 C 0.46895 0.3652 0.84993 0.0
C580 C 0.43674 0.34622 0.81182 0.0
C581 C 0.43489 0.31716 0.77893 0.0
C582 C 0.46275 0.27431 0.75178 0.0
C583 C 0.46392 0.24281 0.78154 0.0
C584 C 0.45925 0.27359 0.69404 0.0
C585 C 0.45947 0.30673 0.65973 0.0
C586 C 0.49365 0.34847 0.66098 0.0
C587 C 0.49384 0.37954 0.62825 0.0
C588 C 0.46005 0.36924 0.59362 0.0
C589 C 0.42602 0.32767 0.59196 0.0
C590 C 0.42578 0.29655 0.62473 0.0
C591 C 0.46371 0.18076 0.66708 0.0
C592 C 0.43435 0.15867 0.62691 0.0
C593 C 0.43739 0.13019 0.59853 0.0
C594 C 0.46949 0.12305 0.61039 0.0
C595 C 0.49917 0.14545 0.6498 0.0
C596 C 0.49676 0.17451 0.67718 0.0
C597 C 0.46057 0.21101 0.69755 0.0
C598 C 0.45775 0.24171 0.66777 0.0
C599 C 0.46298 0.21139 0.75544 0.0
C600 C 0.46495 0.17986 0.79043 0.0
C601 C 0.43151 0.13771 0.79253 0.0
C602 C 0.43302 0.1086 0.8278 0.0
C603 C 0.46814 0.1212 0.86133 0.0
C604 C 0.50181 0.16346 0.85826 0.0
C605 C 0.50004 0.19247 0.82356 0.0
loop_
_geom_bond_atom_site_label_1
_geom_bond_atom_site_label_2
_geom_bond_distance
_geom_bond_site_symmetry_2
_ccdc_geom_bond_type
C0 C1 1.443 1_556 S
C0 N4 1.376 1_556 S
C0 C38 1.389 . S
C1 C0 1.443 1_554 S
C1 C2 1.340 . S
C1 H41 0.951 1_554 S
C2 C1 1.340 . S
C2 C3 1.439 . S
C2 H42 0.950 . S
C3 C2 1.439 . S
C3 N4 1.374 . S
C3 C37 1.395 . S
N4 C0 1.376 1_554 S
N4 C3 1.374 . S
N4 Co5 1.995 1_655 S
Co5 N4 1.995 1_455 S
Co5 N6 1.998 1_455 S
Co5 N11 2.021 1_554 S
Co5 N16 1.991 1_554 S
Co5 N21 2.284 . S
Co5 N27 2.281 1_454 S
N6 Co5 1.998 1_655 S
N6 C7 1.376 . S
N6 C10 1.383 1_655 S
C7 N6 1.376 . S
C7 C8 1.446 . S
C7 C37 1.391 . S
C8 C7 1.446 . S
C8 C9 1.339 1_655 S
C8 H43 0.949 . S
C9 C8 1.339 1_455 S
C9 C10 1.439 . S
C9 H44 0.950 . S
C10 N6 1.383 1_455 S
C10 C9 1.439 . S
C10 C39 1.392 . S
N11 Co5 2.021 1_556 S
N11 C12 1.376 1_556 S
N11 C15 1.374 . S
C12 N11 1.376 1_554 S
C12 C13 1.443 1_554 S
C12 C39 1.389 . S
C13 C12 1.443 1_556 S
C13 C14 1.340 . S
C13 H45 0.951 1_556 S
C14 C13 1.340 . S
C14 C15 1.439 . S
C14 H46 0.950 . S
C15 N11 1.374 . S
C15 C14 1.439 . S
C15 C40 1.395 . S
N16 Co5 1.991 1_556 S
N16 C17 1.376 . S
N16 C20 1.383 1_455 S
C17 N16 1.376 . S
C17 C18 1.446 . S
C17 C40 1.391 . S
C18 C17 1.446 . S
C18 C19 1.339 1_455 S
C18 H47 0.949 . S
C19 C18 1.339 1_655 S
C19 C20 1.439 . S
C19 H48 0.950 . S
C20 N16 1.383 1_655 S
C20 C19 1.439 . S
C20 C38 1.392 . S
N21 Co5 2.284 . S
N21 C24 1.332 . S
N21 C26 1.332 . S
C22 C23 1.386 . S
C22 C25 1.388 . S
C23 C22 1.386 . S
C23 C24 1.382 . S
C23 H49 0.950 . S
C24 N21 1.332 . S
C24 C23 1.382 . S
C24 H35 0.952 1_554 S
C25 C22 1.388 . S
C25 C26 1.382 . S
C25 H50 0.950 . S
C26 N21 1.332 . S
C26 C25 1.382 . S
C26 H36 0.948 . S
N27 Co5 2.281 1_656 S
N27 C31 1.332 . S
N27 C32 1.332 . S
C28 C29 1.388 . S
C28 C32 1.382 . S
C28 H51 0.950 . S
C29 C28 1.388 . S
C29 C30 1.386 . S
C30 C29 1.386 . S
C30 C31 1.382 . S
C30 H52 0.950 . S
C31 N27 1.332 . S
C31 C30 1.382 . S
C31 H33 0.952 1_556 S
C32 N27 1.332 . S
C32 C28 1.382 . S
C32 H34 0.948 . S
H33 C31 0.952 1_554 S
H34 C32 0.948 . S
H35 C24 0.952 1_556 S
H36 C26 0.948 . S
C37 C3 1.395 . S
C37 C7 1.391 . S
C38 C0 1.389 . S
C38 C20 1.392 . S
C39 C10 1.392 . S
C39 C12 1.389 . S
C40 C15 1.395 . S
C40 C17 1.391 . S
H41 C1 0.951 1_556 S
H42 C2 0.950 . S
H43 C8 0.949 . S
H44 C9 0.950 . S
H45 C13 0.951 1_554 S
H46 C14 0.950 . S
H47 C18 0.949 . S
H48 C19 0.950 . S
H49 C23 0.950 . S
H50 C25 0.950 . S
H51 C28 0.950 . S
H52 C30 0.950 . S
C53 C54 1.443 . S
C53 N57 1.376 1_545 S
C53 C91 1.389 . S
C54 C53 1.443 . S
C54 C55 1.340 1_545 S
C54 H94 0.951 . S
C55 C54 1.340 1_565 S
C55 C56 1.439 . S
C55 H95 0.950 . S
C56 C55 1.439 . S
C56 N57 1.374 . S
C56 C90 1.395 . S
N57 C53 1.376 1_565 S
N57 C56 1.374 . S
N57 Co58 2.008 1_565 S
Co58 N57 2.008 1_545 S
Co58 N59 1.995 1_545 S
Co58 N64 2.008 . S
Co58 N69 1.995 . S
Co58 N74 2.282 1_545 S
Co58 N80 2.282 . S
N59 Co58 1.995 1_565 S
N59 C60 1.376 . S
N59 C63 1.383 . S
C60 N59 1.376 . S
C60 C61 1.446 . S
C60 C90 1.391 . S
C61 C60 1.446 . S
C61 C62 1.339 . S
C61 H96 0.949 . S
C62 C61 1.339 . S
C62 C63 1.439 . S
C62 H97 0.950 . S
C63 N59 1.383 . S
C63 C62 1.439 . S
C63 C92 1.392 . S
N64 Co58 2.008 . S
N64 C65 1.376 1_545 S
N64 C68 1.374 . S
C65 N64 1.376 1_565 S
C65 C66 1.443 . S
C65 C92 1.389 . S
C66 C65 1.443 . S
C66 C67 1.340 1_565 S
C66 H98 0.951 . S
C67 C66 1.340 1_545 S
C67 C68 1.439 . S
C67 H99 0.950 . S
C68 N64 1.374 . S
C68 C67 1.439 . S
C68 C93 1.395 . S
N69 Co58 1.995 . S
N69 C70 1.376 . S
N69 C73 1.383 . S
C70 N69 1.376 . S
C70 C71 1.446 . S
C70 C93 1.391 . S
C71 C70 1.446 . S
C71 C72 1.339 . S
C71 H100 0.949 . S
C72 C71 1.339 . S
C72 C73 1.439 . S
C72 H101 0.950 . S
C73 N69 1.383 . S
C73 C72 1.439 . S
C73 C91 1.392 . S
N74 Co58 2.282 1_565 S
N74 C77 1.332 . S
N74 C79 1.332 . S
C75 C76 1.386 . S
C75 C78 1.388 . S
C76 C75 1.386 . S
C76 C77 1.382 . S
C76 H102 0.950 . S
C77 N74 1.332 . S
C77 C76 1.382 . S
C77 H88 0.952 1_565 S
C78 C75 1.388 . S
C78 C79 1.382 . S
C78 H103 0.950 . S
C79 N74 1.332 . S
C79 C78 1.382 . S
C79 H89 0.948 . S
N80 Co58 2.282 . S
N80 C84 1.332 . S
N80 C85 1.332 . S
C81 C82 1.388 . S
C81 C85 1.382 . S
C81 H104 0.950 . S
C82 C81 1.388 . S
C82 C83 1.386 . S
C83 C82 1.386 . S
C83 C84 1.382 . S
C83 H105 0.950 . S
C84 N80 1.332 . S
C84 C83 1.382 . S
C84 H86 0.952 1_545 S
C85 N80 1.332 . S
C85 C81 1.382 . S
C85 H87 0.948 . S
H86 C84 0.952 1_565 S
H87 C85 0.948 . S
H88 C77 0.952 1_545 S
H89 C79 0.948 . S
C90 C56 1.395 . S
C90 C60 1.391 . S
C91 C53 1.389 . S
C91 C73 1.392 . S
C92 C63 1.392 . S
C92 C65 1.389 . S
C93 C68 1.395 . S
C93 C70 1.391 . S
H94 C54 0.951 . S
H95 C55 0.950 . S
H96 C61 0.949 . S
H97 C62 0.950 . S
H98 C66 0.951 . S
H99 C67 0.950 . S
H100 C71 0.949 . S
H101 C72 0.950 . S
H102 C76 0.950 . S
H103 C78 0.950 . S
H104 C81 0.950 . S
H105 C83 0.950 . S
C106 C107 1.443 . S
C106 N110 1.376 . S
C106 C144 1.389 . S
C107 C106 1.443 . S
C107 C108 1.340 . S
C107 H147 0.951 . S
C108 C107 1.340 . S
C108 C109 1.439 . S
C108 H148 0.950 . S
C109 C108 1.439 . S
C109 N110 1.374 . S
C109 C143 1.395 . S
N110 C106 1.376 . S
N110 C109 1.374 . S
N110 Co111 2.008 1_556 S
Co111 N110 2.008 1_554 S
Co111 N112 1.995 1_554 S
Co111 N117 2.008 . S
Co111 N122 1.995 . S
Co111 N127 2.282 . S
Co111 N133 2.282 1_554 S
N112 Co111 1.995 1_556 S
N112 C113 1.376 . S
N112 C116 1.383 1_556 S
C113 N112 1.376 . S
C113 C114 1.446 . S
C113 C143 1.391 . S
C114 C113 1.446 . S
C114 C115 1.339 . S
C114 H149 0.949 . S
C115 C114 1.339 . S
C115 C116 1.439 1_556 S
C115 H150 0.950 . S
C116 N112 1.383 1_554 S
C116 C115 1.439 1_554 S
C116 C145 1.392 . S
N117 Co111 2.008 . S
N117 C118 1.376 . S
N117 C121 1.374 . S
C118 N117 1.376 . S
C118 C119 1.443 . S
C118 C145 1.389 . S
C119 C118 1.443 . S
C119 C120 1.340 . S
C119 H151 0.951 . S
C120 C119 1.340 . S
C120 C121 1.439 . S
C120 H152 0.950 . S
C121 N117 1.374 . S
C121 C120 1.439 . S
C121 C146 1.395 . S
N122 Co111 1.995 . S
N122 C123 1.376 . S
N122 C126 1.383 1_554 S
C123 N122 1.376 . S
C123 C124 1.446 . S
C123 C146 1.391 . S
C124 C123 1.446 . S
C124 C125 1.339 . S
C124 H153 0.949 . S
C125 C124 1.339 . S
C125 C126 1.439 1_554 S
C125 H154 0.950 . S
C126 N122 1.383 1_556 S
C126 C125 1.439 1_556 S
C126 C144 1.392 . S
N127 Co111 2.282 . S
N127 C130 1.332 . S
N127 C132 1.332 . S
C128 C129 1.386 . S
C128 C131 1.388 . S
C129 C128 1.386 . S
C129 C130 1.382 . S
C129 H155 0.950 . S
C130 N127 1.332 . S
C130 C129 1.382 . S
C130 H141 0.952 . S
C131 C128 1.388 . S
C131 C132 1.382 . S
C131 H156 0.950 . S
C132 N127 1.332 . S
C132 C131 1.382 . S
C132 H142 0.948 1_554 S
N133 Co111 2.282 1_556 S
N133 C137 1.332 . S
N133 C138 1.332 . S
C134 C135 1.388 . S
C134 C138 1.382 . S
C134 H157 0.950 . S
C135 C134 1.388 . S
C135 C136 1.386 . S
C136 C135 1.386 . S
C136 C137 1.382 . S
C136 H158 0.950 . S
C137 N133 1.332 . S
C137 C136 1.382 . S
C137 H139 0.952 . S
C138 N133 1.332 . S
C138 C134 1.382 . S
C138 H140 0.948 1_556 S
H139 C137 0.952 . S
H140 C138 0.948 1_554 S
H141 C130 0.952 . S
H142 C132 0.948 1_556 S
C143 C109 1.395 . S
C143 C113 1.391 . S
C144 C106 1.389 . S
C144 C126 1.392 . S
C145 C116 1.392 . S
C145 C118 1.389 . S
C146 C121 1.395 . S
C146 C123 1.391 . S
H147 C107 0.951 . S
H148 C108 0.950 . S
H149 C114 0.949 . S
H150 C115 0.950 . S
H151 C119 0.951 . S
H152 C120 0.950 . S
H153 C124 0.949 . S
H154 C125 0.950 . S
H155 C129 0.950 . S
H156 C131 0.950 . S
H157 C134 0.950 . S
H158 C136 0.950 . S
C159 C160 1.443 . S
C159 N163 1.376 . S
C159 C197 1.389 . S
C160 C159 1.443 . S
C160 C161 1.340 . S
C160 H200 0.951 . S
C161 C160 1.340 . S
C161 C162 1.439 . S
C161 H201 0.950 . S
C162 C161 1.439 . S
C162 N163 1.374 . S
C162 C196 1.395 . S
N163 C159 1.376 . S
N163 C162 1.374 . S
N163 Co164 2.000 1_655 S
Co164 N163 2.000 1_455 S
Co164 N165 1.990 1_455 S
Co164 N170 2.017 . S
Co164 N175 2.000 . S
Co164 N180 2.293 . S
Co164 N186 2.272 1_455 S
N165 Co164 1.990 1_655 S
N165 C166 1.376 . S
N165 C169 1.383 1_655 S
C166 N165 1.376 . S
C166 C167 1.446 . S
C166 C196 1.391 . S
C167 C166 1.446 . S
C167 C168 1.339 1_655 S
C167 H202 0.949 . S
C168 C167 1.339 1_455 S
C168 C169 1.439 . S
C168 H203 0.950 . S
C169 N165 1.383 1_455 S
C169 C168 1.439 . S
C169 C198 1.392 . S
N170 Co164 2.017 . S
N170 C171 1.376 . S
N170 C174 1.374 . S
C171 N170 1.376 . S
C171 C172 1.443 . S
C171 C198 1.389 . S
C172 C171 1.443 . S
C172 C173 1.340 . S
C172 H204 0.951 . S
C173 C172 1.340 . S
C173 C174 1.439 . S
C173 H205 0.950 . S
C174 N170 1.374 . S
C174 C173 1.439 . S
C174 C199 1.395 . S
N175 Co164 2.000 . S
N175 C176 1.376 . S
N175 C179 1.383 1_455 S
C176 N175 1.376 . S
C176 C177 1.446 . S
C176 C199 1.391 . S
C177 C176 1.446 . S
C177 C178 1.339 1_455 S
C177 H206 0.949 . S
C178 C177 1.339 1_655 S
C178 C179 1.439 . S
C178 H207 0.950 . S
C179 N175 1.383 1_655 S
C179 C178 1.439 . S
C179 C197 1.392 . S
N180 Co164 2.293 . S
N180 C183 1.332 . S
N180 C185 1.332 . S
C181 C182 1.386 . S
C181 C184 1.388 . S
C182 C181 1.386 . S
C182 C183 1.382 . S
C182 H208 0.950 . S
C183 N180 1.332 . S
C183 C182 1.382 . S
C183 H194 0.952 . S
C184 C181 1.388 . S
C184 C185 1.382 . S
C184 H209 0.950 . S
C185 N180 1.332 . S
C185 C184 1.382 . S
C185 H195 0.948 . S
N186 Co164 2.272 1_655 S
N186 C190 1.332 . S
N186 C191 1.332 . S
C187 C188 1.388 . S
C187 C191 1.382 . S
C187 H210 0.950 . S
C188 C187 1.388 . S
C188 C189 1.386 . S
C189 C188 1.386 . S
C189 C190 1.382 . S
C189 H211 0.950 . S
C190 N186 1.332 . S
C190 C189 1.382 . S
C190 H192 0.952 . S
C191 N186 1.332 . S
C191 C187 1.382 . S
C191 H193 0.948 . S
H192 C190 0.952 . S
H193 C191 0.948 . S
H194 C183 0.952 . S
H195 C185 0.948 . S
C196 C162 1.395 . S
C196 C166 1.391 . S
C197 C159 1.389 . S
C197 C179 1.392 . S
C198 C169 1.392 . S
C198 C171 1.389 . S
C199 C174 1.395 . S
C199 C176 1.391 . S
H200 C160 0.951 . S
H201 C161 0.950 . S
H202 C167 0.949 . S
H203 C168 0.950 . S
H204 C172 0.951 . S
H205 C173 0.950 . S
H206 C177 0.949 . S
H207 C178 0.950 . S
H208 C182 0.950 . S
H209 C184 0.950 . S
H210 C187 0.950 . S
H211 C189 0.950 . S
C212 C213 1.443 . S
C212 N216 1.376 1_565 S
C212 C250 1.389 . S
C213 C212 1.443 . S
C213 C214 1.340 1_565 S
C213 H253 0.951 . S
C214 C213 1.340 1_545 S
C214 C215 1.439 . S
C214 H254 0.950 . S
C215 C214 1.439 . S
C215 N216 1.374 . S
C215 C249 1.395 . S
N216 C212 1.376 1_545 S
N216 C215 1.374 . S
N216 Co217 2.008 . S
Co217 N216 2.008 . S
Co217 N218 1.995 . S
Co217 N223 2.008 1_554 S
Co217 N228 1.995 1_544 S
Co217 N233 2.282 1_554 S
Co217 N239 2.282 1_545 S
N218 Co217 1.995 . S
N218 C219 1.376 . S
N218 C222 1.383 1_554 S
C219 N218 1.376 . S
C219 C220 1.446 . S
C219 C249 1.391 . S
C220 C219 1.446 . S
C220 C221 1.339 1_554 S
C220 H255 0.949 . S
C221 C220 1.339 1_556 S
C221 C222 1.439 . S
C221 H256 0.950 . S
C222 N218 1.383 1_556 S
C222 C221 1.439 . S
C222 C251 1.392 . S
N223 Co217 2.008 1_556 S
N223 C224 1.376 . S
N223 C227 1.375 1_545 S
C224 N223 1.376 . S
C224 C225 1.443 . S
C224 C251 1.389 . S
C225 C224 1.443 . S
C225 C226 1.340 1_545 S
C225 H257 0.951 . S
C226 C225 1.340 1_565 S
C226 C227 1.439 . S
C226 H258 0.950 . S
C227 N223 1.375 1_565 S
C227 C226 1.439 . S
C227 C252 1.395 . S
N228 Co217 1.995 1_566 S
N228 C229 1.376 . S
N228 C232 1.383 1_556 S
C229 N228 1.376 . S
C229 C230 1.446 . S
C229 C252 1.391 . S
C230 C229 1.446 . S
C230 C231 1.339 1_556 S
C230 H259 0.949 . S
C231 C230 1.339 1_554 S
C231 C232 1.439 . S
C231 H260 0.950 . S
C232 N228 1.383 1_554 S
C232 C231 1.439 . S
C232 C250 1.392 . S
N233 Co217 2.282 1_556 S
N233 C236 1.332 . S
N233 C238 1.332 . S
C234 C235 1.386 . S
C234 C237 1.388 . S
C235 C234 1.386 . S
C235 C236 1.382 . S
C235 H261 0.950 . S
C236 N233 1.332 . S
C236 C235 1.382 . S
C236 H247 0.952 1_545 S
C237 C234 1.388 . S
C237 C238 1.382 . S
C237 H262 0.950 . S
C238 N233 1.332 . S
C238 C237 1.382 . S
C238 H248 0.948 . S
N239 Co217 2.282 1_565 S
N239 C243 1.332 . S
N239 C244 1.332 . S
C240 C241 1.388 . S
C240 C244 1.382 . S
C240 H263 0.950 . S
C241 C240 1.388 . S
C241 C242 1.386 . S
C242 C241 1.386 . S
C242 C243 1.382 . S
C242 H264 0.950 . S
C243 N239 1.332 . S
C243 C242 1.382 . S
C243 H245 0.952 1_565 S
C244 N239 1.332 . S
C244 C240 1.382 . S
C244 H246 0.948 . S
H245 C243 0.952 1_545 S
H246 C244 0.948 . S
H247 C236 0.952 1_565 S
H248 C238 0.948 . S
C249 C215 1.395 . S
C249 C219 1.391 . S
C250 C212 1.389 . S
C250 C232 1.392 . S
C251 C222 1.392 . S
C251 C224 1.389 . S
C252 C227 1.395 . S
C252 C229 1.391 . S
H253 C213 0.951 . S
H254 C214 0.950 . S
H255 C220 0.949 . S
H256 C221 0.950 . S
H257 C225 0.951 . S
H258 C226 0.950 . S
H259 C230 0.949 . S
H260 C231 0.950 . S
H261 C235 0.950 . S
H262 C237 0.950 . S
H263 C240 0.950 . S
H264 C242 0.950 . S
C265 C266 1.443 . S
C265 N269 1.376 . S
C265 C303 1.389 . S
C266 C265 1.443 . S
C266 C267 1.340 . S
C266 H306 0.951 . S
C267 C266 1.340 . S
C267 C268 1.439 . S
C267 H307 0.950 . S
C268 C267 1.439 . S
C268 N269 1.374 . S
C268 C302 1.395 . S
N269 C265 1.376 . S
N269 C268 1.374 . S
N269 Co270 2.008 . S
Co270 N269 2.008 . S
Co270 N271 1.995 . S
Co270 N276 2.008 . S
Co270 N281 1.995 . S
Co270 N286 2.282 . S
Co270 N292 2.282 . S
N271 Co270 1.995 . S
N271 C272 1.376 . S
N271 C275 1.383 . S
C272 N271 1.376 . S
C272 C273 1.446 . S
C272 C302 1.391 . S
C273 C272 1.446 . S
C273 C274 1.339 . S
C273 H308 0.949 . S
C274 C273 1.339 . S
C274 C275 1.439 . S
C274 H309 0.950 . S
C275 N271 1.383 . S
C275 C274 1.439 . S
C275 C304 1.392 . S
N276 Co270 2.008 . S
N276 C277 1.376 . S
N276 C280 1.374 . S
C277 N276 1.376 . S
C277 C278 1.443 . S
C277 C304 1.389 . S
C278 C277 1.443 . S
C278 C279 1.340 . S
C278 H310 0.951 . S
C279 C278 1.340 . S
C279 C280 1.439 . S
C279 H311 0.950 . S
C280 N276 1.374 . S
C280 C279 1.439 . S
C280 C305 1.395 . S
N281 Co270 1.995 . S
N281 C282 1.376 . S
N281 C285 1.383 . S
C282 N281 1.376 . S
C282 C283 1.446 . S
C282 C305 1.391 . S
C283 C282 1.446 . S
C283 C284 1.339 . S
C283 H312 0.949 . S
C284 C283 1.339 . S
C284 C285 1.439 . S
C284 H313 0.950 . S
C285 N281 1.383 . S
C285 C284 1.439 . S
C285 C303 1.392 . S
N286 Co270 2.282 . S
N286 C289 1.332 . S
N286 C291 1.332 . S
C287 C288 1.386 . S
C287 C290 1.388 . S
C288 C287 1.386 . S
C288 C289 1.382 . S
C288 H314 0.950 . S
C289 N286 1.332 . S
C289 C288 1.382 . S
C289 H300 0.952 . S
C290 C287 1.388 . S
C290 C291 1.382 . S
C290 H315 0.950 . S
C291 N286 1.332 . S
C291 C290 1.382 . S
C291 H301 0.948 . S
N292 Co270 2.282 . S
N292 C296 1.332 . S
N292 C297 1.332 . S
C293 C294 1.388 . S
C293 C297 1.382 . S
C293 H316 0.950 . S
C294 C293 1.388 . S
C294 C295 1.386 . S
C295 C294 1.386 . S
C295 C296 1.382 . S
C295 H317 0.950 . S
C296 N292 1.332 . S
C296 C295 1.382 . S
C296 H298 0.952 . S
C297 N292 1.332 . S
C297 C293 1.382 . S
C297 H299 0.948 . S
H298 C296 0.952 . S
H299 C297 0.948 . S
H300 C289 0.952 . S
H301 C291 0.948 . S
C302 C268 1.395 . S
C302 C272 1.391 . S
C303 C265 1.389 . S
C303 C285 1.392 . S
C304 C275 1.392 . S
C304 C277 1.389 . S
C305 C280 1.395 . S
C305 C282 1.391 . S
H306 C266 0.951 . S
H307 C267 0.950 . S
H308 C273 0.949 . S
H309 C274 0.950 . S
H310 C278 0.951 . S
H311 C279 0.950 . S
H312 C283 0.949 . S
H313 C284 0.950 . S
H314 C288 0.950 . S
H315 C290 0.950 . S
H316 C293 0.950 . S
H317 C295 0.950 . S
H318 C337 0.949 . S
H319 C338 0.950 . S
H320 C340 0.950 . S
H321 C341 0.950 . S
H322 C343 0.950 . S
H323 C346 0.950 . S
H324 C347 0.950 . S
H325 C349 0.951 . S
H326 C350 0.949 . S
H327 C352 0.949 . S
H328 C353 0.950 . S
H329 C355 0.950 . S
H330 C356 0.950 . S
H331 C358 0.950 . S
H332 C361 0.950 . S
H333 C362 0.950 . S
H334 C364 0.951 . S
H335 C365 0.949 . S
C336 C337 1.376 . S
C336 C341 1.386 . S
C336 C342 1.483 . S
C337 H318 0.949 . S
C337 C336 1.376 . S
C337 C338 1.397 . S
C338 H319 0.950 . S
C338 C337 1.397 . S
C338 C339 1.391 . S
C339 C338 1.391 . S
C339 C340 1.405 . S
C340 H320 0.950 . S
C340 C339 1.405 . S
C340 C341 1.367 . S
C341 H321 0.950 . S
C341 C336 1.386 . S
C341 C340 1.367 . S
C342 C336 1.483 . S
C342 C343 1.382 . S
C342 C344 1.403 . S
C343 H322 0.950 . S
C343 C342 1.382 . S
C343 C359 1.411 . S
C344 C342 1.403 . S
C344 C345 1.489 . S
C344 C358 1.411 . S
C345 C344 1.489 . S
C345 C346 1.383 . S
C345 C350 1.382 . S
C346 H323 0.950 . S
C346 C345 1.383 . S
C346 C347 1.395 . S
C347 H324 0.950 . S
C347 C346 1.395 . S
C347 C348 1.288 . S
C348 C347 1.288 . S
C348 C349 1.392 . S
C349 H325 0.951 . S
C349 C348 1.392 . S
C349 C350 1.392 . S
C350 H326 0.949 . S
C350 C345 1.382 . S
C350 C349 1.392 . S
C351 C352 1.376 . S
C351 C356 1.386 . S
C351 C357 1.483 . S
C352 H327 0.949 . S
C352 C351 1.376 . S
C352 C353 1.397 . S
C353 H328 0.950 . S
C353 C352 1.397 . S
C353 C354 1.391 . S
C354 C353 1.391 . S
C354 C355 1.405 . S
C355 H329 0.950 . S
C355 C354 1.405 . S
C355 C356 1.367 . S
C356 H330 0.950 . S
C356 C351 1.386 . S
C356 C355 1.367 . S
C357 C351 1.483 . S
C357 C358 1.382 . S
C357 C359 1.403 . S
C358 H331 0.950 . S
C358 C344 1.411 . S
C358 C357 1.382 . S
C359 C343 1.411 . S
C359 C357 1.403 . S
C359 C360 1.489 . S
C360 C359 1.489 . S
C360 C361 1.383 . S
C360 C365 1.382 . S
C361 H332 0.950 . S
C361 C360 1.383 . S
C361 C362 1.395 . S
C362 H333 0.950 . S
C362 C361 1.395 . S
C362 C363 1.288 . S
C363 C362 1.288 . S
C363 C364 1.392 . S
C364 H334 0.951 . S
C364 C363 1.392 . S
C364 C365 1.392 . S
C365 H335 0.949 . S
C365 C360 1.382 . S
C365 C364 1.392 . S
H366 C385 0.949 . S
H367 C386 0.950 . S
H368 C388 0.950 . S
H369 C389 0.950 . S
H370 C391 0.950 . S
H371 C394 0.950 . S
H372 C395 0.950 . S
H373 C397 0.951 . S
H374 C398 0.949 . S
H375 C400 0.949 . S
H376 C401 0.950 . S
H377 C403 0.950 . S
H378 C404 0.950 . S
H379 C406 0.950 . S
H380 C409 0.950 . S
H381 C410 0.950 . S
H382 C412 0.951 . S
H383 C413 0.949 . S
C384 C385 1.376 . S
C384 C389 1.386 . S
C384 C390 1.483 . S
C385 H366 0.949 . S
C385 C384 1.376 . S
C385 C386 1.397 . S
C386 H367 0.950 . S
C386 C385 1.397 . S
C386 C387 1.391 . S
C387 C386 1.391 . S
C387 C388 1.405 . S
C388 H368 0.950 . S
C388 C387 1.405 . S
C388 C389 1.367 . S
C389 H369 0.950 . S
C389 C384 1.386 . S
C389 C388 1.367 . S
C390 C384 1.483 . S
C390 C391 1.382 . S
C390 C392 1.403 . S
C391 H370 0.950 . S
C391 C390 1.382 . S
C391 C407 1.411 . S
C392 C390 1.403 . S
C392 C393 1.489 . S
C392 C406 1.411 . S
C393 C392 1.489 . S
C393 C394 1.383 . S
C393 C398 1.382 . S
C394 H371 0.950 . S
C394 C393 1.383 . S
C394 C395 1.395 . S
C395 H372 0.950 . S
C395 C394 1.395 . S
C395 C396 1.288 . S
C396 C395 1.288 . S
C396 C397 1.392 . S
C397 H373 0.951 . S
C397 C396 1.392 . S
C397 C398 1.392 . S
C398 H374 0.949 . S
C398 C393 1.382 . S
C398 C397 1.392 . S
C399 C400 1.376 . S
C399 C404 1.386 . S
C399 C405 1.483 . S
C400 H375 0.949 . S
C400 C399 1.376 . S
C400 C401 1.397 . S
C401 H376 0.950 . S
C401 C400 1.397 . S
C401 C402 1.391 . S
C402 C401 1.391 . S
C402 C403 1.405 . S
C403 H377 0.950 . S
C403 C402 1.405 . S
C403 C404 1.367 . S
C404 H378 0.950 . S
C404 C399 1.386 . S
C404 C403 1.367 . S
C405 C399 1.483 . S
C405 C406 1.382 . S
C405 C407 1.403 . S
C406 H379 0.950 . S
C406 C392 1.411 . S
C406 C405 1.382 . S
C407 C391 1.411 . S
C407 C405 1.403 . S
C407 C408 1.489 . S
C408 C407 1.489 . S
C408 C409 1.383 . S
C408 C413 1.382 . S
C409 H380 0.950 . S
C409 C408 1.383 . S
C409 C410 1.395 . S
C410 H381 0.950 . S
C410 C409 1.395 . S
C410 C411 1.288 . S
C411 C410 1.288 . S
C411 C412 1.392 . S
C412 H382 0.951 . S
C412 C411 1.392 . S
C412 C413 1.392 . S
C413 H383 0.949 . S
C413 C408 1.382 . S
C413 C412 1.392 . S
H414 C433 0.949 . S
H415 C434 0.950 . S
H416 C436 0.950 . S
H417 C437 0.950 . S
H418 C439 0.950 . S
H419 C442 0.950 . S
H420 C443 0.950 . S
H421 C445 0.951 . S
H422 C446 0.949 . S
H423 C448 0.949 . S
H424 C449 0.950 . S
H425 C451 0.950 . S
H426 C452 0.950 . S
H427 C454 0.950 . S
H428 C457 0.950 . S
H429 C458 0.950 . S
H430 C460 0.951 . S
H431 C461 0.949 . S
C432 C433 1.376 . S
C432 C437 1.386 . S
C432 C438 1.483 . S
C433 H414 0.949 . S
C433 C432 1.376 . S
C433 C434 1.397 . S
C434 H415 0.950 . S
C434 C433 1.397 . S
C434 C435 1.391 . S
C435 C434 1.391 . S
C435 C436 1.405 . S
C436 H416 0.950 . S
C436 C435 1.405 . S
C436 C437 1.367 . S
C437 H417 0.950 . S
C437 C432 1.386 . S
C437 C436 1.367 . S
C438 C432 1.483 . S
C438 C439 1.382 . S
C438 C440 1.403 . S
C439 H418 0.950 . S
C439 C438 1.382 . S
C439 C455 1.411 . S
C440 C438 1.403 . S
C440 C441 1.489 . S
C440 C454 1.411 . S
C441 C440 1.489 . S
C441 C442 1.383 . S
C441 C446 1.382 . S
C442 H419 0.950 . S
C442 C441 1.383 . S
C442 C443 1.395 . S
C443 H420 0.950 . S
C443 C442 1.395 . S
C443 C444 1.288 . S
C444 C443 1.288 . S
C444 C445 1.392 . S
C445 H421 0.951 . S
C445 C444 1.392 . S
C445 C446 1.392 . S
C446 H422 0.949 . S
C446 C441 1.382 . S
C446 C445 1.392 . S
C447 C448 1.376 . S
C447 C452 1.386 . S
C447 C453 1.483 . S
C448 H423 0.949 . S
C448 C447 1.376 . S
C448 C449 1.397 . S
C449 H424 0.950 . S
C449 C448 1.397 . S
C449 C450 1.391 . S
C450 C449 1.391 . S
C450 C451 1.405 . S
C451 H425 0.950 . S
C451 C450 1.405 . S
C451 C452 1.367 . S
C452 H426 0.950 . S
C452 C447 1.386 . S
C452 C451 1.367 . S
C453 C447 1.483 . S
C453 C454 1.382 . S
C453 C455 1.403 . S
C454 H427 0.950 . S
C454 C440 1.411 . S
C454 C453 1.382 . S
C455 C439 1.411 . S
C455 C453 1.403 . S
C455 C456 1.489 . S
C456 C455 1.489 . S
C456 C457 1.383 . S
C456 C461 1.382 . S
C457 H428 0.950 . S
C457 C456 1.383 . S
C457 C458 1.395 . S
C458 H429 0.950 . S
C458 C457 1.395 . S
C458 C459 1.288 . S
C459 C458 1.288 . S
C459 C460 1.392 . S
C460 H430 0.951 . S
C460 C459 1.392 . S
C460 C461 1.392 . S
C461 H431 0.949 . S
C461 C456 1.382 . S
C461 C460 1.392 . S
H462 C481 0.949 . S
H463 C482 0.950 . S
H464 C484 0.950 . S
H465 C485 0.950 . S
H466 C487 0.950 . S
H467 C490 0.950 . S
H468 C491 0.950 . S
H469 C493 0.951 . S
H470 C494 0.949 . S
H471 C496 0.949 . S
H472 C497 0.950 . S
H473 C499 0.950 . S
H474 C500 0.950 . S
H475 C502 0.950 . S
H476 C505 0.950 . S
H477 C506 0.950 . S
H478 C508 0.951 . S
H479 C509 0.949 . S
C480 C481 1.376 . S
C480 C485 1.386 . S
C480 C486 1.483 . S
C481 H462 0.949 . S
C481 C480 1.376 . S
C481 C482 1.397 . S
C482 H463 0.950 . S
C482 C481 1.397 . S
C482 C483 1.391 . S
C483 C482 1.391 . S
C483 C484 1.405 . S
C484 H464 0.950 . S
C484 C483 1.405 . S
C484 C485 1.367 . S
C485 H465 0.950 . S
C485 C480 1.386 . S
C485 C484 1.367 . S
C486 C480 1.483 . S
C486 C487 1.382 . S
C486 C488 1.403 . S
C487 H466 0.950 . S
C487 C486 1.382 . S
C487 C503 1.411 . S
C488 C486 1.403 . S
C488 C489 1.489 . S
C488 C502 1.411 . S
C489 C488 1.489 . S
C489 C490 1.383 . S
C489 C494 1.382 . S
C490 H467 0.950 . S
C490 C489 1.383 . S
C490 C491 1.395 . S
C491 H468 0.950 . S
C491 C490 1.395 . S
C491 C492 1.288 . S
C492 C491 1.288 . S
C492 C493 1.392 . S
C493 H469 0.951 . S
C493 C492 1.392 . S
C493 C494 1.392 . S
C494 H470 0.949 . S
C494 C489 1.382 . S
C494 C493 1.392 . S
C495 C496 1.376 . S
C495 C500 1.386 . S
C495 C501 1.483 . S
C496 H471 0.949 . S
C496 C495 1.376 . S
C496 C497 1.397 . S
C497 H472 0.950 . S
C497 C496 1.397 . S
C497 C498 1.391 . S
C498 C497 1.391 . S
C498 C499 1.405 . S
C499 H473 0.950 . S
C499 C498 1.405 . S
C499 C500 1.367 . S
C500 H474 0.950 . S
C500 C495 1.386 . S
C500 C499 1.367 . S
C501 C495 1.483 . S
C501 C502 1.382 . S
C501 C503 1.403 . S
C502 H475 0.950 . S
C502 C488 1.411 . S
C502 C501 1.382 . S
C503 C487 1.411 . S
C503 C501 1.403 . S
C503 C504 1.489 . S
C504 C503 1.489 . S
C504 C505 1.383 . S
C504 C509 1.382 . S
C505 H476 0.950 . S
C505 C504 1.383 . S
C505 C506 1.395 . S
C506 H477 0.950 . S
C506 C505 1.395 . S
C506 C507 1.288 . S
C507 C506 1.288 . S
C507 C508 1.392 . S
C508 H478 0.951 . S
C508 C507 1.392 . S
C508 C509 1.392 . S
C509 H479 0.949 . S
C509 C504 1.382 . S
C509 C508 1.392 . S
H510 C529 0.949 . S
H511 C530 0.950 . S
H512 C532 0.950 . S
H513 C533 0.950 . S
H514 C535 0.950 . S
H515 C538 0.950 . S
H516 C539 0.950 . S
H517 C541 0.951 . S
H518 C542 0.949 . S
H519 C544 0.949 . S
H520 C545 0.950 . S
H521 C547 0.950 . S
H522 C548 0.950 . S
H523 C550 0.950 . S
H524 C553 0.950 . S
H525 C554 0.950 . S
H526 C556 0.951 . S
H527 C557 0.949 . S
C528 C529 1.376 . S
C528 C533 1.386 . S
C528 C534 1.483 . S
C529 H510 0.949 . S
C529 C528 1.376 . S
C529 C530 1.397 . S
C530 H511 0.950 . S
C530 C529 1.397 . S
C530 C531 1.391 . S
C531 C530 1.391 . S
C531 C532 1.405 . S
C532 H512 0.950 . S
C532 C531 1.405 . S
C532 C533 1.367 . S
C533 H513 0.950 . S
C533 C528 1.386 . S
C533 C532 1.367 . S
C534 C528 1.483 . S
C534 C535 1.382 . S
C534 C536 1.403 . S
C535 H514 0.950 . S
C535 C534 1.382 . S
C535 C551 1.411 . S
C536 C534 1.403 . S
C536 C537 1.489 . S
C536 C550 1.411 . S
C537 C536 1.489 . S
C537 C538 1.383 . S
C537 C542 1.382 . S
C538 H515 0.950 . S
C538 C537 1.383 . S
C538 C539 1.395 . S
C539 H516 0.950 . S
C539 C538 1.395 . S
C539 C540 1.288 . S
C540 C539 1.288 . S
C540 C541 1.392 . S
C541 H517 0.951 . S
C541 C540 1.392 . S
C541 C542 1.392 . S
C542 H518 0.949 . S
C542 C537 1.382 . S
C542 C541 1.392 . S
C543 C544 1.376 . S
C543 C548 1.386 . S
C543 C549 1.483 . S
C544 H519 0.949 . S
C544 C543 1.376 . S
C544 C545 1.397 . S
C545 H520 0.950 . S
C545 C544 1.397 . S
C545 C546 1.391 . S
C546 C545 1.391 . S
C546 C547 1.405 . S
C547 H521 0.950 . S
C547 C546 1.405 . S
C547 C548 1.367 . S
C548 H522 0.950 . S
C548 C543 1.386 . S
C548 C547 1.367 . S
C549 C543 1.483 . S
C549 C550 1.382 . S
C549 C551 1.403 . S
C550 H523 0.950 . S
C550 C536 1.411 . S
C550 C549 1.382 . S
C551 C535 1.411 . S
C551 C549 1.403 . S
C551 C552 1.489 . S
C552 C551 1.489 . S
C552 C553 1.383 . S
C552 C557 1.382 . S
C553 H524 0.950 . S
C553 C552 1.383 . S
C553 C554 1.395 . S
C554 H525 0.950 . S
C554 C553 1.395 . S
C554 C555 1.288 . S
C555 C554 1.288 . S
C555 C556 1.392 . S
C556 H526 0.951 . S
C556 C555 1.392 . S
C556 C557 1.392 . S
C557 H527 0.949 . S
C557 C552 1.382 . S
C557 C556 1.392 . S
H558 C577 0.949 . S
H559 C578 0.950 . S
H560 C580 0.950 . S
H561 C581 0.950 . S
H562 C583 0.950 . S
H563 C586 0.950 . S
H564 C587 0.950 . S
H565 C589 0.951 . S
H566 C590 0.949 . S
H567 C592 0.949 . S
H568 C593 0.950 . S
H569 C595 0.950 . S
H570 C596 0.950 . S
H571 C598 0.950 . S
H572 C601 0.950 . S
H573 C602 0.950 . S
H574 C604 0.951 . S
H575 C605 0.949 . S
C576 C577 1.376 . S
C576 C581 1.386 . S
C576 C582 1.483 . S
C577 H558 0.949 . S
C577 C576 1.376 . S
C577 C578 1.397 . S
C578 H559 0.950 . S
C578 C577 1.397 . S
C578 C579 1.391 . S
C579 C578 1.391 . S
C579 C580 1.405 . S
C580 H560 0.950 . S
C580 C579 1.405 . S
C580 C581 1.367 . S
C581 H561 0.950 . S
C581 C576 1.386 . S
C581 C580 1.367 . S
C582 C576 1.483 . S
C582 C583 1.382 . S
C582 C584 1.403 . S
C583 H562 0.950 . S
C583 C582 1.382 . S
C583 C599 1.411 . S
C584 C582 1.403 . S
C584 C585 1.489 . S
C584 C598 1.411 . S
C585 C584 1.489 . S
C585 C586 1.383 . S
C585 C590 1.382 . S
C586 H563 0.950 . S
C586 C585 1.383 . S
C586 C587 1.395 . S
C587 H564 0.950 . S
C587 C586 1.395 . S
C587 C588 1.288 . S
C588 C587 1.288 . S
C588 C589 1.392 . S
C589 H565 0.951 . S
C589 C588 1.392 . S
C589 C590 1.392 . S
C590 H566 0.949 . S
C590 C585 1.382 . S
C590 C589 1.392 . S
C591 C592 1.376 . S
C591 C596 1.386 . S
C591 C597 1.483 . S
C592 H567 0.949 . S
C592 C591 1.376 . S
C592 C593 1.397 . S
C593 H568 0.950 . S
C593 C592 1.397 . S
C593 C594 1.391 . S
C594 C593 1.391 . S
C594 C595 1.405 . S
C595 H569 0.950 . S
C595 C594 1.405 . S
C595 C596 1.367 . S
C596 H570 0.950 . S
C596 C591 1.386 . S
C596 C595 1.367 . S
C597 C591 1.483 . S
C597 C598 1.382 . S
C597 C599 1.403 . S
C598 H571 0.950 . S
C598 C584 1.411 . S
C598 C597 1.382 . S
C599 C583 1.411 . S
C599 C597 1.403 . S
C599 C600 1.489 . S
C600 C599 1.489 . S
C600 C601 1.383 . S
C600 C605 1.382 . S
C601 H572 0.950 . S
C601 C600 1.383 . S
C601 C602 1.395 . S
C602 H573 0.950 . S
C602 C601 1.395 . S
C602 C603 1.288 . S
C603 C602 1.288 . S
C603 C604 1.392 . S
C604 H574 0.951 . S
C604 C603 1.392 . S
C604 C605 1.392 . S
C605 H575 0.949 . S
C605 C600 1.382 . S
C605 C604 1.392 . S
C39 C339 2.283 . S
C91 C396 2.108 . S
C450 C128 1.913 . S
C507 C188 1.710 . S
C531 C250 2.014 . S
C588 C304 2.382 . S
C75 C435 2.102 . S
C144 C492 2.298 . S
C546 C198 2.022 . S
C603 C234 1.821 . S
C294 C354 1.742 . S
C411 C29 1.642 . S
C498 C38 2.283 . S
C92 C540 1.963 . S
C579 C135 1.912 . S
C181 C348 1.710 . S
C251 C387 1.960 . S
C303 C459 2.383 . S
C82 C594 2.101 . S
C363 C145 2.298 . S
C197 C402 2.077 . S
C241 C444 1.821 . S
C287 C483 1.742 . S
C22 C555 1.793 . S
