# Generated by pormake.
# Topology pth, (4,4)-cn, num edge types: 1
# Building blocks:
#     Node 0, Type 0, BuildingBlock: CEKHIL_clean_sbu_0, # of connection points: 4
#     Node 1, Type 0, BuildingBlock: CEKHIL_clean_sbu_0, # of connection points: 4
#     Node 2, Type 0, BuildingBlock: CEKHIL_clean_sbu_0, # of connection points: 4
#     Node 3, Type 1, BuildingBlock: MIFKUJ_clean_linker_1, # of connection points: 4
#     Node 4, Type 1, BuildingBlock: MIFKUJ_clean_linker_1, # of connection points: 4
#     Node 5, Type 1, BuildingBlock: MIFKUJ_clean_linker_1, # of connection points: 4
#     Edge 6, Type (0, 1), BuildingBlock: MIFKUJ_clean_linker_0, # of connection points: 2
#     Edge 7, Type (0, 1), BuildingBlock: MIFKUJ_clean_linker_0, # of connection points: 2
#     Edge 8, Type (0, 1), BuildingBlock: MIFKUJ_clean_linker_0, # of connection points: 2
#     Edge 9, Type (0, 1), BuildingBlock: MIFKUJ_clean_linker_0, # of connection points: 2
#     Edge 10, Type (0, 1), BuildingBlock: MIFKUJ_clean_linker_0, # of connection points: 2
#     Edge 11, Type (0, 1), BuildingBlock: MIFKUJ_clean_linker_0, # of connection points: 2
#     Edge 12, Type (0, 1), BuildingBlock: MIFKUJ_clean_linker_0, # of connection points: 2
#     Edge 13, Type (0, 1), BuildingBlock: MIFKUJ_clean_linker_0, # of connection points: 2
#     Edge 14, Type (0, 1), BuildingBlock: MIFKUJ_clean_linker_0, # of connection points: 2
#     Edge 15, Type (0, 1), BuildingBlock: MIFKUJ_clean_linker_0, # of connection points: 2
#     Edge 16, Type (0, 1), BuildingBlock: MIFKUJ_clean_linker_0, # of connection points: 2
#     Edge 17, Type (0, 1), BuildingBlock: MIFKUJ_clean_linker_0, # of connection points: 2
# Relax obj value: 0.014
# Max RMSD: 0.063
# Mean RMSD: 0.055
data_MOF--net-pth--node1-CEKHIL_clean_sbu_0--node2-MIFKUJ_clean_linker_1--edge1-MIFKUJ_clean_linker_0
_symmetry_space_group_name_H-M    P1
_symmetry_Int_Tables_number       1
_symmetry_cell_setting            triclinic
loop_
_symmetry_equiv_pos_as_xyz
'x, y, z'
_cell_length_a     36.411024
_cell_length_b     36.50868
_cell_length_c     80.661307
_cell_angle_alpha  90.717527
_cell_angle_beta   89.933115
_cell_angle_gamma 120.2626
loop_
_atom_site_label
_atom_site_type_symbol
_atom_site_fract_x
_atom_site_fract_y
_atom_site_fract_z
_atom_type_partial_charge
Co0 Co 0.01686 0.02649 0.05806 0.0
O1 O 0.99 0.98374 0.07464 0.0
O2 O 0.04312 0.99153 0.05886 0.0
C3 C 0.02264 0.07982 0.07442 0.0
O4 O 0.054 0.06847 0.04029 0.0
Co5 Co 0.97416 0.07569 0.04513 0.0
O6 O 0.03242 0.11592 0.03728 0.0
C7 C 0.94267 0.98743 0.03367 0.0
C8 C 0.01675 0.97148 0.07082 0.0
C9 C 0.05931 0.10386 0.03483 0.0
O10 O 0.97433 0.98752 0.04084 0.0
O11 O 0.93544 0.01825 0.03497 0.0
O12 O 0.05097 0.06823 0.07523 0.0
O13 O 0.99077 0.05732 0.06466 0.0
Co14 Co 0.01832 0.03486 0.37886 0.0
O15 O 0.99125 0.05152 0.36252 0.0
O16 O 0.0483 0.09615 0.37714 0.0
C17 C 0.01928 0.98365 0.36324 0.0
O18 O 0.0561 0.0295 0.39629 0.0
Co19 Co 0.97134 0.94432 0.39332 0.0
O20 O 0.02586 0.96186 0.40473 0.0
C21 C 0.94952 0.00755 0.40524 0.0
C22 C 0.02042 0.09036 0.3658 0.0
C23 C 0.05642 1.0001 0.40486 0.0
O24 O 0.97949 0.03639 0.39649 0.0
O25 O 0.93976 0.96864 0.40506 0.0
O26 O 0.04868 0.02308 0.36165 0.0
O27 O 0.98842 0.97673 0.37307 0.0
Co28 Co 0.01019 0.02002 0.71125 0.0
O29 O 0.05278 0.04405 0.69434 0.0
O30 O 0.0442 0.99263 0.71102 0.0
C31 C 0.95694 0.0135 0.69486 0.0
O32 O 0.96783 0.98555 0.72944 0.0
Co33 Co 0.96333 0.06646 0.72326 0.0
O34 O 0.92387 0.01126 0.73345 0.0
C35 C 0.05096 0.09627 0.73494 0.0
C36 C 0.06432 0.01724 0.69865 0.0
C37 C 0.93424 0.98322 0.73588 0.0
O38 O 0.05019 0.06395 0.72793 0.0
O39 O 0.02071 0.10429 0.73348 0.0
O40 O 0.96776 0.9846 0.69453 0.0
O41 O 0.98024 0.04632 0.7041 0.0
H42 H 0.07795 0.50526 0.18759 0.0
H43 H 0.07949 0.44968 0.17102 0.0
H44 H 0.96374 0.35563 0.19446 0.0
H45 H 0.96156 0.41175 0.21058 0.0
H46 H 0.02193 0.53039 0.18754 0.0
H47 H 0.07208 0.4687 0.22678 0.0
H48 H 0.07281 0.41478 0.24403 0.0
H49 H 0.9624 0.39991 0.27017 0.0
H50 H 0.95993 0.45135 0.25198 0.0
H51 H 0.95566 0.55634 0.24923 0.0
H52 H 0.95682 0.61213 0.26656 0.0
H53 H 0.07133 0.70519 0.24208 0.0
H54 H 0.07112 0.64881 0.22537 0.0
H55 H 0.01069 0.53047 0.24875 0.0
H56 H 0.96045 0.59188 0.20809 0.0
H57 H 0.9611 0.64534 0.18987 0.0
H58 H 0.07761 0.66481 0.16773 0.0
H59 H 0.07687 0.61157 0.18596 0.0
C60 C 0.01981 0.46269 0.20041 0.0
C61 C 0.05288 0.47267 0.18916 0.0
C62 C 0.05393 0.44078 0.17981 0.0
C63 C 0.02185 0.39814 0.18147 0.0
C64 C 0.98876 0.38817 0.19279 0.0
C65 C 0.98769 0.42017 0.20213 0.0
C66 C 0.01845 0.49713 0.20988 0.0
C67 C 0.01995 0.53067 0.20096 0.0
C68 C 0.01494 0.49689 0.22738 0.0
C69 C 0.01547 0.46371 0.23781 0.0
C70 C 0.04742 0.45314 0.23596 0.0
C71 C 0.04822 0.42269 0.24608 0.0
C72 C 0.01768 0.40275 0.25859 0.0
C73 C 0.98599 0.41378 0.26051 0.0
C74 C 0.98481 0.44369 0.2502 0.0
C75 C 0.01309 0.59833 0.23589 0.0
C76 C 0.98096 0.58879 0.24756 0.0
C77 C 0.98148 0.62084 0.25737 0.0
C78 C 0.01415 0.66326 0.25572 0.0
C79 C 0.04597 0.67283 0.24383 0.0
C80 C 0.04558 0.64067 0.23409 0.0
C81 C 0.01384 0.56356 0.2264 0.0
C82 C 0.01237 0.53 0.23533 0.0
C83 C 0.01772 0.56393 0.20893 0.0
C84 C 0.01877 0.59781 0.1985 0.0
C85 C 0.98645 0.60808 0.19948 0.0
C86 C 0.98684 0.63864 0.18903 0.0
C87 C 0.01932 0.65923 0.17728 0.0
C88 C 0.05178 0.6491 0.17645 0.0
C89 C 0.05147 0.61876 0.18692 0.0
H90 H 0.59464 0.08425 0.51986 0.0
H91 H 0.65086 0.08667 0.50245 0.0
H92 H 0.63038 0.97026 0.52404 0.0
H93 H 0.57329 0.96719 0.5411 0.0
H94 H 0.51415 0.03149 0.52085 0.0
H95 H 0.62845 0.07488 0.56011 0.0
H96 H 0.68313 0.07098 0.57623 0.0
H97 H 0.58661 0.95343 0.59755 0.0
H98 H 0.53252 0.95649 0.58079 0.0
H99 H 0.42932 0.9597 0.58352 0.0
H100 H 0.37663 0.95883 0.60258 0.0
H101 H 0.38906 0.07047 0.57955 0.0
H102 H 0.44369 0.07294 0.56103 0.0
H103 H 0.50707 0.01179 0.58163 0.0
H104 H 0.39226 0.96842 0.54168 0.0
H105 H 0.33921 0.97125 0.52392 0.0
H106 H 0.43688 0.09035 0.50419 0.0
H107 H 0.48958 0.08751 0.52197 0.0
C108 C 0.57995 0.02581 0.53197 0.0
C109 C 0.60209 0.05912 0.52082 0.0
C110 C 0.63419 0.06048 0.51087 0.0
C111 C 0.64505 0.02872 0.51194 0.0
C112 C 0.62304 0.99546 0.52312 0.0
C113 C 0.59049 0.99377 0.53291 0.0
C114 C 0.54509 0.02415 0.5422 0.0
C115 C 0.51282 0.02772 0.53419 0.0
C116 C 0.54278 0.01814 0.55955 0.0
C117 C 0.57639 0.01574 0.56909 0.0
C118 C 0.61917 0.04794 0.56806 0.0
C119 C 0.65036 0.04589 0.57744 0.0
C120 C 0.63932 0.01188 0.58821 0.0
C121 C 0.59641 0.97972 0.5892 0.0
C122 C 0.56534 0.98164 0.57974 0.0
C123 C 0.44048 0.0162 0.57066 0.0
C124 C 0.42088 0.98412 0.58252 0.0
C125 C 0.39077 0.98356 0.59342 0.0
C126 C 0.37898 0.0146 0.5925 0.0
C127 C 0.39751 0.04604 0.58039 0.0
C128 C 0.42846 0.0472 0.56972 0.0
C129 C 0.47553 0.01857 0.56028 0.0
C130 C 0.50809 0.01537 0.56828 0.0
C131 C 0.47808 0.025 0.54292 0.0
C132 C 0.44492 0.02786 0.53324 0.0
C133 C 0.4021 0.99548 0.53374 0.0
C134 C 0.37183 0.99711 0.52356 0.0
C135 C 0.38393 0.0309 0.51256 0.0
C136 C 0.42667 0.06357 0.51232 0.0
C137 C 0.45678 0.06207 0.52254 0.0
H138 H 0.48957 0.44291 0.85155 0.0
H139 H 0.43484 0.3882 0.83389 0.0
H140 H 0.33855 0.39927 0.86127 0.0
H141 H 0.39385 0.45661 0.87787 0.0
H142 H 0.51461 0.52129 0.85399 0.0
H143 H 0.4573 0.40901 0.89554 0.0
H144 H 0.40376 0.35474 0.91347 0.0
H145 H 0.37002 0.44574 0.93177 0.0
H146 H 0.42465 0.49993 0.91433 0.0
H147 H 0.53693 0.60788 0.91756 0.0
H148 H 0.59179 0.66255 0.93518 0.0
H149 H 0.68767 0.64928 0.9085 0.0
H150 H 0.63209 0.59221 0.89175 0.0
H151 H 0.51119 0.52911 0.91529 0.0
H152 H 0.57436 0.64333 0.87654 0.0
H153 H 0.63001 0.69906 0.85986 0.0
H154 H 0.64962 0.60522 0.83458 0.0
H155 H 0.59561 0.55011 0.85192 0.0
C156 C 0.44605 0.45378 0.86623 0.0
C157 C 0.45666 0.43363 0.85374 0.0
C158 C 0.42511 0.40182 0.84374 0.0
C159 C 0.38195 0.3889 0.8461 0.0
C160 C 0.37135 0.40861 0.85885 0.0
C161 C 0.40303 0.44102 0.86863 0.0
C162 C 0.48024 0.48964 0.87601 0.0
C163 C 0.51426 0.52266 0.86743 0.0
C164 C 0.47907 0.49232 0.89351 0.0
C165 C 0.44496 0.4585 0.9036 0.0
C166 C 0.43816 0.41709 0.90338 0.0
C167 C 0.40736 0.38604 0.9136 0.0
C168 C 0.38256 0.39575 0.92421 0.0
C169 C 0.38904 0.43718 0.9241 0.0
C170 C 0.4201 0.46823 0.91403 0.0
C171 C 0.58023 0.59602 0.90318 0.0
C172 C 0.56976 0.61663 0.91552 0.0
C173 C 0.60138 0.64838 0.92549 0.0
C174 C 0.64444 0.66074 0.92328 0.0
C175 C 0.65491 0.64037 0.91076 0.0
C176 C 0.62313 0.60808 0.90095 0.0
C177 C 0.54593 0.5606 0.89329 0.0
C178 C 0.51177 0.52773 0.90185 0.0
C179 C 0.54704 0.55819 0.87576 0.0
C180 C 0.58105 0.59247 0.86568 0.0
C181 C 0.5911 0.63484 0.86759 0.0
C182 C 0.62264 0.66666 0.85787 0.0
C183 C 0.64449 0.65679 0.84583 0.0
C184 C 0.63411 0.61425 0.84389 0.0
C185 C 0.60283 0.58254 0.8537 0.0
H186 H 0.09174 0.14253 0.09102 0.0
H187 H 0.09416 0.19858 0.10883 0.0
H188 H 0.96075 0.15038 0.09928 0.0
H189 H 0.95882 0.09587 0.08091 0.0
H190 H 0.9987 0.23107 0.09908 0.0
H191 H 0.00156 0.13053 0.13638 0.0
H192 H 0.02906 0.08665 0.14787 0.0
H193 H 0.14879 0.19866 0.15868 0.0
H194 H 0.12216 0.24318 0.14706 0.0
H195 H 0.95473 0.33002 0.16602 0.0
H196 H 0.9566 0.27657 0.14806 0.0
H197 H 0.09243 0.33746 0.15497 0.0
H198 H 0.09062 0.39011 0.17345 0.0
H199 H 0.05569 0.25248 0.15642 0.0
H200 H 0.0495 0.35259 0.11972 0.0
H201 H 0.01935 0.39468 0.10877 0.0
H202 H 0.90199 0.28037 0.09752 0.0
H203 H 0.93125 0.23761 0.10862 0.0
C204 C 0.06306 0.14415 0.09268 0.0
C205 C 0.02507 0.11479 0.08465 0.0
C206 C 0.06436 0.17599 0.10294 0.0
C207 C 0.0274 0.17828 0.1057 0.0
C208 C 0.98969 0.14935 0.0974 0.0
C209 C 0.98859 0.11811 0.08691 0.0
C210 C 0.02763 0.21052 0.11724 0.0
C211 C 0.01072 0.23532 0.11168 0.0
C212 C 0.04406 0.21684 0.13361 0.0
C213 C 0.06 0.19014 0.1407 0.0
C214 C 0.03384 0.14577 0.14111 0.0
C215 C 0.04926 0.1208 0.14766 0.0
C216 C 0.09068 0.13985 0.15396 0.0
C217 C 0.11673 0.18394 0.15378 0.0
C218 C 0.10149 0.20906 0.14722 0.0
C219 C 0.98493 0.33171 0.16392 0.0
C220 C 0.02257 0.36452 0.1711 0.0
C221 C 0.986 0.30138 0.1535 0.0
C222 C 0.02477 0.30344 0.14995 0.0
C223 C 0.06221 0.33543 0.15745 0.0
C224 C 0.06116 0.3657 0.1679 0.0
C225 C 0.02639 0.27254 0.13827 0.0
C226 C 0.04373 0.24814 0.14381 0.0
C227 C 0.00992 0.26623 0.12194 0.0
C228 C 0.99246 0.29193 0.11513 0.0
C229 C 0.01717 0.33645 0.11501 0.0
C230 C 1.00025 0.36042 0.10876 0.0
C231 C 0.95875 0.34022 0.10249 0.0
C232 C 0.93412 0.29598 0.1024 0.0
C233 C 0.95087 0.27186 0.10865 0.0
H234 H 0.9457 0.35883 0.09766 0.0
H235 H 0.10257 0.12046 0.15902 0.0
H236 H 0.94882 0.00516 0.43867 0.0
H237 H 0.90233 0.01616 0.45748 0.0
H238 H 0.84671 0.04381 0.41568 0.0
H239 H 0.89541 0.03543 0.39698 0.0
H240 H 0.85056 0.09113 0.44062 0.0
H241 H 0.80063 0.94152 0.43431 0.0
H242 H 0.80757 0.87774 0.43509 0.0
H243 H 0.83754 0.89879 0.48706 0.0
H244 H 0.83126 0.96298 0.48655 0.0
H245 H 0.65536 0.04271 0.47865 0.0
H246 H 0.71062 0.04414 0.46094 0.0
H247 H 0.76683 0.01996 0.50343 0.0
H248 H 0.71084 0.01737 0.5211 0.0
H249 H 0.76397 0.97247 0.47856 0.0
H250 H 0.81061 0.12086 0.48495 0.0
H251 H 0.80274 0.18406 0.48394 0.0
H252 H 0.77755 0.16461 0.43161 0.0
H253 H 0.78473 0.10097 0.43235 0.0
C254 C 0.92717 0.01441 0.43361 0.0
C255 C 0.92537 0.01942 0.41648 0.0
C256 C 0.90035 0.02029 0.44431 0.0
C257 C 0.87 0.02953 0.43798 0.0
C258 C 0.8696 0.03642 0.42087 0.0
C259 C 0.89732 0.03164 0.4102 0.0
C260 C 0.83748 0.02998 0.44906 0.0
C261 C 0.83131 0.06497 0.44878 0.0
C262 C 0.81278 0.99624 0.45998 0.0
C263 C 0.8158 0.95722 0.46036 0.0
C264 C 0.80886 0.93262 0.44589 0.0
C265 C 0.81268 0.89641 0.44628 0.0
C266 C 0.82308 0.88428 0.46111 0.0
C267 C 0.82952 0.90824 0.47559 0.0
C268 C 0.82579 0.94451 0.47525 0.0
C269 C 0.67971 0.03802 0.48421 0.0
C270 C 0.67892 0.03008 0.50125 0.0
C271 C 0.71138 0.03899 0.4741 0.0
C272 C 0.74342 0.03291 0.48088 0.0
C273 C 0.74255 0.02483 0.49791 0.0
C274 C 0.71054 0.0233 0.50799 0.0
C275 C 0.77708 0.03364 0.47015 0.0
C276 C 0.78334 0.99876 0.47046 0.0
C277 C 0.80166 0.06738 0.45923 0.0
C278 C 0.79789 0.10596 0.45874 0.0
C279 C 0.80316 0.12993 0.47325 0.0
C280 C 0.79885 0.16584 0.47272 0.0
C281 C 0.78956 0.17829 0.45773 0.0
C282 C 0.78471 0.15492 0.44322 0.0
C283 C 0.78895 0.11896 0.44368 0.0
H284 H 0.7862 0.20608 0.45735 0.0
H285 H 0.82607 0.85626 0.46138 0.0
H286 H 0.86017 0.96737 0.7506 0.0
H287 H 0.81611 0.91113 0.76963 0.0
H288 H 0.90113 0.86153 0.76585 0.0
H289 H 0.94577 0.91802 0.74647 0.0
H290 H 0.81712 0.7982 0.76487 0.0
H291 H 0.90478 0.91673 0.79988 0.0
H292 H 0.93952 0.99105 0.80969 0.0
H293 H 0.81746 0.97845 0.81875 0.0
H294 H 0.78194 0.90419 0.80876 0.0
H295 H 0.71973 0.66474 0.83488 0.0
H296 H 0.77218 0.7186 0.81656 0.0
H297 H 0.69717 0.77957 0.81447 0.0
H298 H 0.64397 0.72532 0.83241 0.0
H299 H 0.78241 0.83659 0.81956 0.0
H300 H 0.69538 0.71947 0.78262 0.0
H301 H 0.66097 0.64521 0.77274 0.0
H302 H 0.78313 0.65527 0.76766 0.0
H303 H 0.81825 0.72948 0.77774 0.0
C304 C 0.86975 0.94464 0.75374 0.0
C305 C 0.9069 0.9476 0.74704 0.0
C306 C 0.84446 0.91247 0.76471 0.0
C307 C 0.85566 0.88252 0.76941 0.0
C308 C 0.89202 0.88449 0.76246 0.0
C309 C 0.91753 0.91685 0.75142 0.0
C310 C 0.82911 0.84948 0.78163 0.0
C311 C 0.81019 0.80656 0.77696 0.0
C312 C 0.81949 0.86036 0.79732 0.0
C313 C 0.8407 0.90496 0.80344 0.0
C314 C 0.88533 0.92989 0.80385 0.0
C315 C 0.90516 0.97199 0.80946 0.0
C316 C 0.88071 0.98948 0.81481 0.0
C317 C 0.83636 0.96486 0.81459 0.0
C318 C 0.81636 0.92274 0.80897 0.0
C319 C 0.71407 0.68932 0.83041 0.0
C320 C 0.67737 0.69045 0.83512 0.0
C321 C 0.74425 0.72021 0.81998 0.0
C322 C 0.73846 0.75295 0.81405 0.0
C323 C 0.70235 0.75466 0.81894 0.0
C324 C 0.67203 0.72367 0.82928 0.0
C325 C 0.76987 0.7854 0.80268 0.0
C326 C 0.78972 0.82823 0.80754 0.0
C327 C 0.78044 0.77439 0.78722 0.0
C328 C 0.7594 0.72986 0.78111 0.0
C329 C 0.71488 0.70573 0.77953 0.0
C330 C 0.69525 0.66367 0.77387 0.0
C331 C 0.71984 0.64549 0.76963 0.0
C332 C 0.76412 0.66938 0.77098 0.0
C333 C 0.7839 0.71144 0.77666 0.0
H334 H 0.70459 0.61292 0.76524 0.0
H335 H 0.89612 0.02209 0.81915 0.0
H336 H 0.98278 0.94317 0.10116 0.0
H337 H 0.98646 0.88992 0.11793 0.0
H338 H 0.05668 0.86993 0.07932 0.0
H339 H 0.0541 0.92443 0.06246 0.0
H340 H 0.98023 0.79215 0.09511 0.0
H341 H 0.11331 0.91889 0.10778 0.0
H342 H 0.15846 0.99423 0.11572 0.0
H343 H 0.09143 0.97178 0.16172 0.0
H344 H 0.04541 0.89638 0.15394 0.0
H345 H 0.03725 0.66753 0.14411 0.0
H346 H 0.03829 0.71982 0.1252 0.0
H347 H 0.00114 0.77373 0.16516 0.0
H348 H 0.00108 0.72209 0.18427 0.0
H349 H 0.06395 0.83492 0.14748 0.0
H350 H 0.92999 0.71169 0.13571 0.0
H351 H 0.88013 0.63675 0.12849 0.0
H352 H 0.94281 0.65212 0.08182 0.0
H353 H 0.99349 0.72707 0.08887 0.0
C354 C 0.99892 0.92741 0.09615 0.0
C355 C 0.01816 0.93797 0.08047 0.0
C356 C 0.00105 0.89706 0.10579 0.0
C357 C 0.0219 0.87614 0.09987 0.0
C358 C 0.04045 0.88583 0.08407 0.0
C359 C 0.03905 0.91695 0.0745 0.0
C360 C 0.0244 0.84458 0.11046 0.0
C361 C 0.9992 0.8014 0.10639 0.0
C362 C 0.04793 0.8568 0.12545 0.0
C363 C 0.07562 0.90208 0.1302 0.0
C364 C 0.10791 0.9301 0.11952 0.0
C365 C 0.13372 0.9728 0.124 0.0
C366 C 0.12774 0.98781 0.13919 0.0
C367 C 0.09599 0.96012 0.14995 0.0
C368 C 0.07006 0.91739 0.14551 0.0
C369 C 0.02959 0.6907 0.14891 0.0
C370 C 0.01915 0.69065 0.16572 0.0
C371 C 0.02982 0.72034 0.13804 0.0
C372 C 0.01945 0.75051 0.14371 0.0
C373 C 0.00919 0.75071 0.16049 0.0
C374 C 0.00883 0.72096 0.17137 0.0
C375 C 0.0198 0.78216 0.13216 0.0
C376 C 0.04534 0.82547 0.13611 0.0
C377 C 0.99609 0.76998 0.11716 0.0
C378 C 0.96587 0.72486 0.11291 0.0
C379 C 0.93342 0.69899 0.12398 0.0
C380 C 0.90495 0.65653 0.1199 0.0
C381 C 0.90838 0.63965 0.10473 0.0
C382 C 0.94025 0.66522 0.09359 0.0
C383 C 0.96884 0.7077 0.09761 0.0
H384 H 0.88628 0.60677 0.10159 0.0
H385 H 0.14777 0.02088 0.14265 0.0
H386 H 0.14122 0.05156 0.39843 0.0
H387 H 0.20133 0.06307 0.41616 0.0
H388 H 0.1135 0.98477 0.45377 0.0
H389 H 0.05363 0.97185 0.43595 0.0
H390 H 0.19347 0.0726 0.46359 0.0
H391 H 0.14193 0.93489 0.43608 0.0
H392 H 0.12208 0.88841 0.41129 0.0
H393 H 0.24741 0.9658 0.39156 0.0
H394 H 0.26774 0.01318 0.41614 0.0
H395 H 0.30259 0.01225 0.51936 0.0
H396 H 0.25101 0.01347 0.50027 0.0
H397 H 0.34265 0.05294 0.46076 0.0
H398 H 0.39405 0.05095 0.47969 0.0
H399 H 0.26578 0.99145 0.45023 0.0
H400 H 0.32171 0.12357 0.47866 0.0
H401 H 0.34366 0.17267 0.50267 0.0
H402 H 0.21463 0.1114 0.51971 0.0
H403 H 0.19196 0.06145 0.49592 0.0
C404 C 0.13493 0.03722 0.41055 0.0
C405 C 0.09294 0.01069 0.41583 0.0
C406 C 0.16913 0.04373 0.42061 0.0
C407 C 0.16165 0.02472 0.43623 0.0
C408 C 0.1198 0.99972 0.44177 0.0
C409 C 0.08573 0.99226 0.43157 0.0
C410 C 0.19714 0.02881 0.44653 0.0
C411 C 0.20922 0.05476 0.46077 0.0
C412 C 0.21824 0.00634 0.44254 0.0
C413 C 0.20612 0.9779 0.4278 0.0
C414 C 0.16507 0.94228 0.42635 0.0
C415 C 0.15377 0.91571 0.41237 0.0
C416 C 0.18341 0.92424 0.39982 0.0
C417 C 0.22445 0.9593 0.40127 0.0
C418 C 0.23587 0.98602 0.41522 0.0
C419 C 0.31166 0.02097 0.50659 0.0
C420 C 0.35247 0.0317 0.50106 0.0
C421 C 0.2823 0.02201 0.49572 0.0
C422 C 0.29315 0.03379 0.47912 0.0
C423 C 0.33366 0.04397 0.47352 0.0
C424 C 0.36309 0.04312 0.4844 0.0
C425 C 0.26192 0.03481 0.46758 0.0
C426 C 0.25053 0.00976 0.45305 0.0
C427 C 0.24181 0.05855 0.47124 0.0
C428 C 0.2552 0.08849 0.48558 0.0
C429 C 0.29805 0.12031 0.4876 0.0
C430 C 0.31063 0.14835 0.50116 0.0
C431 C 0.28058 0.14509 0.51273 0.0
C432 C 0.23788 0.11385 0.51074 0.0
C433 C 0.22514 0.08568 0.49721 0.0
H434 H 0.29037 0.16684 0.52321 0.0
H435 H 0.17462 0.90361 0.38901 0.0
H436 H 0.12465 0.09446 0.74086 0.0
H437 H 0.1843 0.14245 0.75892 0.0
H438 H 0.11985 0.21092 0.77135 0.0
H439 H 0.0609 0.16405 0.7533 0.0
H440 H 0.20113 0.26433 0.7648 0.0
H441 H 0.12228 0.13782 0.7978 0.0
H442 H 0.09036 0.06152 0.80346 0.0
H443 H 0.21284 0.07205 0.79898 0.0
H444 H 0.2454 0.14832 0.79308 0.0
H445 H 0.30836 0.38462 0.8351 0.0
H446 H 0.25491 0.3327 0.81627 0.0
H447 H 0.32712 0.26898 0.81157 0.0
H448 H 0.3791 0.31875 0.83156 0.0
H449 H 0.2476 0.21246 0.81238 0.0
H450 H 0.32781 0.33919 0.78118 0.0
H451 H 0.36069 0.41542 0.77522 0.0
H452 H 0.23771 0.40469 0.77541 0.0
H453 H 0.20413 0.32851 0.78159 0.0
C454 C 0.12322 0.11979 0.74743 0.0
C455 C 0.08784 0.12526 0.7456 0.0
C456 C 0.15728 0.14707 0.75779 0.0
C457 C 0.1564 0.18009 0.76661 0.0
C458 C 0.12133 0.18576 0.76467 0.0
C459 C 0.0875 0.15875 0.75432 0.0
C460 C 0.19177 0.2092 0.77784 0.0
C461 C 0.21108 0.25301 0.77529 0.0
C462 C 0.20575 0.19442 0.7912 0.0
C463 C 0.18617 0.14864 0.79482 0.0
C464 C 0.14234 0.12378 0.7979 0.0
C465 C 0.12415 0.08056 0.80117 0.0
C466 C 0.14953 0.06192 0.80153 0.0
C467 C 0.1932 0.0865 0.79866 0.0
C468 C 0.21154 0.12973 0.79537 0.0
C469 C 0.31265 0.35914 0.8304 0.0
C470 C 0.34849 0.3563 0.83488 0.0
C471 C 0.28227 0.32977 0.81934 0.0
C472 C 0.28747 0.2975 0.8121 0.0
C473 C 0.32256 0.29383 0.81683 0.0
C474 C 0.3526 0.32275 0.82814 0.0
C475 C 0.25636 0.26777 0.79957 0.0
C476 C 0.23798 0.22387 0.80183 0.0
C477 C 0.24339 0.28243 0.78583 0.0
C478 C 0.2635 0.32819 0.78196 0.0
C479 C 0.3078 0.35314 0.78004 0.0
C480 C 0.32656 0.39633 0.77662 0.0
C481 C 0.30132 0.4149 0.77497 0.0
C482 C 0.25723 0.39028 0.7767 0.0
C483 C 0.23831 0.34707 0.78014 0.0
H484 H 0.3159 0.44835 0.77233 0.0
H485 H 0.13539 0.02846 0.80407 0.0
H486 H 0.94258 0.07741 0.68711 0.0
H487 H 0.88734 0.07411 0.66906 0.0
H488 H 0.83631 0.93967 0.66167 0.0
H489 H 0.89311 0.94331 0.67919 0.0
H490 H 0.83723 0.97362 0.63349 0.0
H491 H 0.78793 0.98217 0.68772 0.0
H492 H 0.79377 0.01186 0.71587 0.0
H493 H 0.81839 0.13004 0.69534 0.0
H494 H 0.81328 0.10125 0.66706 0.0
H495 H 0.64592 0.94246 0.5961 0.0
H496 H 0.69773 0.93988 0.61453 0.0
H497 H 0.75967 0.07536 0.62212 0.0
H498 H 0.7068 0.07795 0.60437 0.0
H499 H 0.75001 0.03671 0.65074 0.0
H500 H 0.80159 0.02814 0.59649 0.0
H501 H 0.79588 0.99801 0.56843 0.0
H502 H 0.76574 0.87846 0.5893 0.0
H503 H 0.77073 0.90774 0.61749 0.0
C504 C 0.91943 0.04707 0.68173 0.0
C505 C 0.92196 0.01055 0.68462 0.0
C506 C 0.88769 0.04517 0.67146 0.0
C507 C 0.85703 0.00647 0.66424 0.0
C508 C 0.85949 0.96987 0.66714 0.0
C509 C 0.89181 0.97193 0.67719 0.0
C510 C 0.82316 0.0046 0.65336 0.0
C511 C 0.81766 0.98677 0.63738 0.0
C512 C 0.79811 0.02248 0.65827 0.0
C513 C 0.80049 0.03962 0.67527 0.0
C514 C 0.79479 0.01455 0.68921 0.0
C515 C 0.79796 0.03122 0.70519 0.0
C516 C 0.80652 0.07283 0.70739 0.0
C517 C 0.81178 0.09782 0.69361 0.0
C518 C 0.80869 0.08132 0.67761 0.0
C519 C 0.67038 0.9717 0.60178 0.0
C520 C 0.67213 0.01044 0.59873 0.0
C521 C 0.70029 0.97022 0.61217 0.0
C522 C 0.7329 0.00749 0.61958 0.0
C523 C 0.73486 0.0462 0.61651 0.0
C524 C 0.70484 0.04768 0.60621 0.0
C525 C 0.76446 0.00618 0.63084 0.0
C526 C 0.76944 0.02335 0.6469 0.0
C527 C 0.78884 0.98753 0.62603 0.0
C528 C 0.78613 0.97002 0.60909 0.0
C529 C 0.79345 0.99534 0.59509 0.0
C530 C 0.79039 0.97843 0.57916 0.0
C531 C 0.78034 0.93632 0.57708 0.0
C532 C 0.77346 0.91106 0.59093 0.0
C533 C 0.77644 0.92781 0.60688 0.0
H534 H 0.77798 0.92328 0.56475 0.0
H535 H 0.809 0.08568 0.71977 0.0
H536 H 0.86461 0.96807 0.02187 0.0
H537 H 0.8169 0.90884 0.00393 0.0
H538 H 0.90578 0.86358 0.00345 0.0
H539 H 0.95414 0.92312 0.02155 0.0
H540 H 0.8747 0.86487 0.97192 0.0
H541 H 0.81919 0.8108 0.02513 0.0
H542 H 0.79342 0.81118 0.05337 0.0
H543 H 0.69109 0.82371 0.0334 0.0
H544 H 0.71662 0.82405 0.00503 0.0
H545 H 0.71726 0.66479 0.93522 0.0
H546 H 0.77076 0.71825 0.95389 0.0
H547 H 0.70039 0.7841 0.95575 0.0
H548 H 0.64783 0.73224 0.93643 0.0
H549 H 0.72458 0.7672 0.98756 0.0
H550 H 0.78431 0.82655 0.93446 0.0
H551 H 0.81042 0.82576 0.90632 0.0
H552 H 0.90517 0.80163 0.92649 0.0
H553 H 0.87917 0.80165 0.95476 0.0
C554 C 0.87415 0.94556 0.01802 0.0
C555 C 0.9133 0.95042 0.02318 0.0
C556 C 0.84668 0.91157 0.0078 0.0
C557 C 0.85765 0.88165 0.00246 0.0
C558 C 0.89671 0.88632 0.00748 0.0
C559 C 0.92418 0.92024 0.01787 0.0
C560 C 0.82829 0.8461 0.99138 0.0
C561 C 0.84212 0.84295 0.97545 0.0
C562 C 0.7856 0.81798 0.9959 0.0
C563 C 0.77006 0.81781 0.01295 0.0
C564 C 0.79141 0.81401 0.02676 0.0
C565 C 0.7768 0.81402 0.04279 0.0
C566 C 0.7407 0.81756 0.04518 0.0
C567 C 0.71908 0.82101 0.03153 0.0
C568 C 0.73358 0.82105 0.01547 0.0
C569 C 0.71345 0.69104 0.93929 0.0
C570 C 0.67794 0.69394 0.93427 0.0
C571 C 0.74396 0.72139 0.95008 0.0
C572 C 0.73938 0.75496 0.95622 0.0
C573 C 0.70426 0.75818 0.95123 0.0
C574 C 0.6741 0.72828 0.94025 0.0
C575 C 0.77082 0.7865 0.96805 0.0
C576 C 0.75732 0.78882 0.98412 0.0
C577 C 0.8138 0.81365 0.96368 0.0
C578 C 0.82943 0.81354 0.9467 0.0
C579 C 0.81041 0.82062 0.93288 0.0
C580 C 0.82526 0.82042 0.91691 0.0
C581 C 0.85934 0.8135 0.91461 0.0
C582 C 0.87871 0.80689 0.92829 0.0
C583 C 0.86395 0.80701 0.94429 0.0
H584 H 0.87081 0.81339 0.90224 0.0
H585 H 0.72943 0.81755 0.0576 0.0
H586 H 0.08837 0.98342 0.35042 0.0
H587 H 0.08926 0.92812 0.33331 0.0
H588 H 0.95251 0.85237 0.33665 0.0
H589 H 0.95195 0.90655 0.35462 0.0
H590 H 0.98168 0.80249 0.33784 0.0
H591 H 0.00887 0.91669 0.30147 0.0
H592 H 0.04613 0.99044 0.29165 0.0
H593 H 0.16203 0.98725 0.28724 0.0
H594 H 0.12557 0.91364 0.29723 0.0
H595 H 0.94747 0.67226 0.2664 0.0
H596 H 0.94984 0.72588 0.28553 0.0
H597 H 0.08625 0.78487 0.28889 0.0
H598 H 0.08419 0.73079 0.27011 0.0
H599 H 0.05872 0.84268 0.28436 0.0
H600 H 0.02733 0.72518 0.31981 0.0
H601 H 0.98684 0.65063 0.32857 0.0
H602 H 0.87407 0.65948 0.33327 0.0
H603 H 0.91376 0.73394 0.3243 0.0
C604 C 0.05858 0.95478 0.34758 0.0
C605 C 0.02006 0.94932 0.35372 0.0
C606 C 0.05904 0.92331 0.3377 0.0
C607 C 0.02083 0.88643 0.33326 0.0
C608 C 0.98243 0.88053 0.3398 0.0
C609 C 0.98209 0.91153 0.35005 0.0
C610 C 0.02067 0.8543 0.32165 0.0
C611 C 0.99811 0.81135 0.32606 0.0
C612 C 0.04267 0.86565 0.30635 0.0
C613 C 0.06458 0.90982 0.30025 0.0
C614 C 0.04236 0.93182 0.2985 0.0
C615 C 0.06333 0.97358 0.2929 0.0
C616 C 0.10645 0.99355 0.28887 0.0
C617 C 0.12866 0.97176 0.29039 0.0
C618 C 0.10785 0.93002 0.296 0.0
C619 C 0.97798 0.69638 0.27131 0.0
C620 C 0.01563 0.69703 0.26674 0.0
C621 C 0.97926 0.72709 0.2822 0.0
C622 C 0.01818 0.75908 0.28874 0.0
C623 C 0.05589 0.76043 0.28396 0.0
C624 C 0.05463 0.72961 0.27315 0.0
C625 C 0.01956 0.79121 0.30056 0.0
C626 C 0.04236 0.83404 0.29616 0.0
C627 C 0.99725 0.77969 0.31573 0.0
C628 C 0.97344 0.73502 0.32124 0.0
C629 C 0.99382 0.71113 0.32259 0.0
C630 C 0.97102 0.66891 0.32761 0.0
C631 C 0.92788 0.6503 0.33143 0.0
C632 C 0.90748 0.67392 0.33028 0.0
C633 C 0.93012 0.71614 0.32525 0.0
H634 H 0.91029 0.61761 0.33532 0.0
H635 H 0.12263 0.02588 0.28454 0.0
H636 H 0.12103 0.9938 0.7095 0.0
H637 H 0.177 0.9915 0.69302 0.0
H638 H 0.1354 0.02867 0.64965 0.0
H639 H 0.08102 0.03275 0.66605 0.0
H640 H 0.15338 0.94604 0.65144 0.0
H641 H 0.20592 0.10052 0.6546 0.0
H642 H 0.22431 0.16551 0.67067 0.0
H643 H 0.3098 0.14618 0.701 0.0
H644 H 0.2912 0.08055 0.68524 0.0
H645 H 0.30421 0.01173 0.58574 0.0
H646 H 0.25191 0.00901 0.60574 0.0
H647 H 0.33262 0.01571 0.64614 0.0
H648 H 0.3844 0.01723 0.62618 0.0
H649 H 0.29754 0.07344 0.64842 0.0
H650 H 0.25658 0.92772 0.64119 0.0
H651 H 0.23842 0.86247 0.6254 0.0
H652 H 0.1314 0.86317 0.60345 0.0
H653 H 0.14937 0.92893 0.61892 0.0
C654 C 0.12395 0.00143 0.69645 0.0
C655 C 0.09703 0.01379 0.68905 0.0
C656 C 0.1558 1.00013 0.68709 0.0
C657 C 0.16029 0.01015 0.67018 0.0
C658 C 0.13254 0.02112 0.66271 0.0
C659 C 0.10163 0.02355 0.6721 0.0
C660 C 0.19431 0.01006 0.66018 0.0
C661 C 0.18487 0.97385 0.65072 0.0
C662 C 0.23547 0.04612 0.65949 0.0
C663 C 0.24664 0.08536 0.66896 0.0
C664 C 0.22817 0.10984 0.66484 0.0
C665 C 0.23873 0.14684 0.67385 0.0
C666 C 0.26806 0.15987 0.68691 0.0
C667 C 0.28697 0.13596 0.69093 0.0
C668 C 0.27641 0.09886 0.68197 0.0
C669 C 0.31071 0.01272 0.59889 0.0
C670 C 0.34811 0.01455 0.60448 0.0
C671 C 0.2809 0.01106 0.61027 0.0
C672 C 0.28844 0.01203 0.62739 0.0
C673 C 0.32627 0.0149 0.63299 0.0
C674 C 0.35565 0.01561 0.62161 0.0
C675 C 0.25647 0.0096 0.6394 0.0
C676 C 0.26625 0.04537 0.64924 0.0
C677 C 0.21561 0.97305 0.64041 0.0
C678 C 0.20462 0.93354 0.63107 0.0
C679 C 0.22944 0.91424 0.63286 0.0
C680 C 0.21913 0.8771 0.624 0.0
C681 C 0.18385 0.85875 0.61339 0.0
C682 C 0.15876 0.87747 0.61166 0.0
C683 C 0.16899 0.91467 0.62047 0.0
H684 H 0.17589 0.82997 0.60655 0.0
H685 H 0.27625 0.18856 0.69386 0.0
H686 H 0.09555 0.07999 0.01042 0.0
H687 H 0.15181 0.12656 0.99131 0.0
H688 H 0.16479 0.23611 0.01779 0.0
H689 H 0.10676 0.1896 0.03606 0.0
H690 H 0.16423 0.25031 0.98784 0.0
H691 H 0.24107 0.19824 0.01871 0.0
H692 H 0.25482 0.14428 0.03052 0.0
H693 H 0.25463 0.09619 0.98165 0.0
H694 H 0.24036 0.14956 0.96955 0.0
H695 H 0.36245 0.40752 0.95591 0.0
H696 H 0.3086 0.35511 0.97412 0.0
H697 H 0.27749 0.2574 0.93715 0.0
H698 H 0.33025 0.30996 0.91846 0.0
H699 H 0.28668 0.23496 0.97068 0.0
H700 H 0.21288 0.29213 0.94056 0.0
H701 H 0.20287 0.34956 0.92993 0.0
H702 H 0.20192 0.3921 0.97971 0.0
H703 H 0.21257 0.33528 0.99064 0.0
C704 C 0.11092 0.11403 0.01223 0.0
C705 C 0.09688 0.13128 0.02467 0.0
C706 C 0.14324 0.14071 1.00136 0.0
C707 C 0.16311 0.18513 0.00311 0.0
C708 C 0.14996 0.2021 0.01601 0.0
C709 C 0.11692 0.17552 0.02652 0.0
C710 C 0.19577 0.21419 0.99106 0.0
C711 C 0.19128 0.24712 0.98435 0.0
C712 C 0.23066 0.20972 0.98599 0.0
C713 C 0.2392 0.1776 0.99324 0.0
C714 C 0.24364 0.17595 0.01049 0.0
C715 C 0.25159 0.14551 0.01724 0.0
C716 C 0.25548 0.11675 0.00685 0.0
C717 C 0.25154 0.11844 0.98968 0.0
C718 C 0.24356 0.1488 0.98288 0.0
C719 C 0.34387 0.37506 0.95148 0.0
C720 C 0.35059 0.36324 0.93556 0.0
C721 C 0.3133 0.34505 0.962 0.0
C722 C 0.28892 0.30244 0.95695 0.0
C723 C 0.2961 0.29014 0.9413 0.0
C724 C 0.32642 0.32027 0.93065 0.0
C725 C 0.2553 0.27113 0.96795 0.0
C726 C 0.25953 0.23784 0.97431 0.0
C727 C 0.22057 0.27565 0.97297 0.0
C728 C 0.2139 0.30967 0.96641 0.0
C729 C 0.21089 0.31394 0.94923 0.0
C730 C 0.20503 0.34634 0.94316 0.0
C731 C 0.20186 0.37452 0.95413 0.0
C732 C 0.20443 0.37028 0.97122 0.0
C733 C 0.21033 0.33796 0.97736 0.0
H734 H 0.19732 0.39958 0.9494 0.0
H735 H 0.26163 0.09321 0.01209 0.0
H736 H 0.09066 0.16447 0.35669 0.0
H737 H 0.09281 0.21898 0.33864 0.0
H738 H 0.95553 0.15091 0.33658 0.0
H739 H 0.95367 0.09517 0.35361 0.0
H740 H 0.98155 0.17343 0.30773 0.0
H741 H 0.02336 0.25028 0.36015 0.0
H742 H 0.06767 0.27967 0.38533 0.0
H743 H 0.17818 0.35181 0.35533 0.0
H744 H 0.1346 0.32249 0.32998 0.0
H745 H 0.95059 0.33135 0.27202 0.0
H746 H 0.95316 0.28121 0.29091 0.0
H747 H 0.09016 0.34994 0.28864 0.0
H748 H 0.08807 0.40219 0.27073 0.0
H749 H 0.06726 0.32811 0.31903 0.0
H750 H 0.02462 0.25271 0.26671 0.0
H751 H 0.98009 0.22364 0.24157 0.0
H752 H 0.87046 0.14868 0.27164 0.0
H753 H 0.91423 0.17769 0.29696 0.0
C754 C 0.06103 0.16155 0.35251 0.0
C755 C 0.022 0.12575 0.35654 0.0
C756 C 0.06221 0.19282 0.34225 0.0
C757 C 0.02428 0.18962 0.33635 0.0
C758 C 0.98529 0.15425 0.34084 0.0
C759 C 0.98419 0.12246 0.35065 0.0
C760 C 0.0248 0.22172 0.3249 0.0
C761 C 0.99984 0.20722 0.31039 0.0
C762 C 0.04971 0.26602 0.32793 0.0
C763 C 0.07578 0.28391 0.34318 0.0
C764 C 0.05715 0.27224 0.35894 0.0
C765 C 0.08213 0.28891 0.37323 0.0
C766 C 0.12573 0.31751 0.37193 0.0
C767 C 0.14442 0.32962 0.35632 0.0
C768 C 0.11959 0.31303 0.34199 0.0
C769 C 0.98139 0.33631 0.27568 0.0
C770 C 0.01913 0.37105 0.26973 0.0
C771 C 0.98276 0.3071 0.28633 0.0
C772 C 0.02184 0.31119 0.29099 0.0
C773 C 0.05957 0.34586 0.28516 0.0
C774 C 0.05827 0.37549 0.27471 0.0
C775 C 0.02339 0.27966 0.3021 0.0
C776 C 0.0489 0.29428 0.31645 0.0
C777 C 0.99888 0.23543 0.29897 0.0
C778 C 0.97266 0.21763 0.28373 0.0
C779 C 0.99098 0.2302 0.26796 0.0
C780 C 0.96587 0.21371 0.25368 0.0
C781 C 0.92246 0.1844 0.25501 0.0
C782 C 0.90408 0.17141 0.27062 0.0
C783 C 0.92903 0.18782 0.28494 0.0
H784 H 0.90308 0.1717 0.24394 0.0
H785 H 0.14502 0.33035 0.38302 0.0
loop_
_geom_bond_atom_site_label_1
_geom_bond_atom_site_label_2
_geom_bond_distance
_geom_bond_site_symmetry_2
_ccdc_geom_bond_type
Co0 O1 2.216 1_445 S
Co0 O2 2.091 1_545 S
Co0 O4 2.004 . S
Co0 O10 2.021 1_445 S
Co0 O12 2.137 . S
Co0 O13 2.244 1_455 S
O1 Co0 2.216 1_665 S
O1 C8 1.247 1_655 S
O2 Co0 2.091 1_565 S
O2 C8 1.261 . S
C3 O12 1.247 . S
C3 O13 1.272 1_455 S
O4 Co0 2.004 . S
O4 C9 1.259 . S
Co5 O6 2.061 1_655 S
Co5 O11 2.052 . S
Co5 O13 2.135 . S
O6 Co5 2.061 1_455 S
O6 C9 1.235 . S
C7 O10 1.238 . S
C7 O11 1.241 1_565 S
C8 O1 1.247 1_455 S
C8 O2 1.261 . S
C9 O4 1.259 . S
C9 O6 1.235 . S
O10 Co0 2.021 1_665 S
O10 C7 1.238 . S
O11 Co5 2.052 . S
O11 C7 1.241 1_545 S
O12 Co0 2.137 . S
O12 C3 1.247 . S
O13 Co0 2.244 1_655 S
O13 C3 1.272 1_655 S
O13 Co5 2.135 . S
Co14 O15 2.216 1_455 S
Co14 O16 2.091 . S
Co14 O18 2.004 . S
Co14 O24 2.021 1_455 S
Co14 O26 2.137 . S
Co14 O27 2.244 1_445 S
O15 Co14 2.216 1_655 S
O15 C22 1.247 1_655 S
O16 Co14 2.091 . S
O16 C22 1.261 . S
C17 O26 1.247 1_565 S
C17 O27 1.272 1_455 S
O18 Co14 2.004 . S
O18 C23 1.259 . S
Co19 O20 2.061 1_655 S
Co19 O25 2.052 . S
Co19 O27 2.135 . S
O20 Co19 2.061 1_455 S
O20 C23 1.235 1_565 S
C21 O24 1.238 . S
C21 O25 1.241 1_545 S
C22 O15 1.247 1_455 S
C22 O16 1.261 . S
C23 O18 1.259 . S
C23 O20 1.235 1_545 S
O24 Co14 2.021 1_655 S
O24 C21 1.238 . S
O25 Co19 2.052 . S
O25 C21 1.241 1_565 S
O26 Co14 2.137 . S
O26 C17 1.247 1_545 S
O27 Co14 2.244 1_665 S
O27 C17 1.272 1_655 S
O27 Co19 2.135 . S
Co28 O29 2.216 . S
Co28 O30 2.091 1_545 S
Co28 O32 2.004 1_445 S
Co28 O38 2.021 . S
Co28 O40 2.137 1_445 S
Co28 O41 2.244 1_455 S
O29 Co28 2.216 . S
O29 C36 1.247 . S
O30 Co28 2.091 1_565 S
O30 C36 1.261 1_565 S
C31 O40 1.247 1_545 S
C31 O41 1.272 . S
O32 Co28 2.004 1_665 S
O32 C37 1.259 . S
Co33 O34 2.061 1_545 S
Co33 O39 2.052 1_655 S
Co33 O41 2.135 . S
O34 Co33 2.061 1_565 S
O34 C37 1.235 . S
C35 O38 1.238 . S
C35 O39 1.241 . S
C36 O29 1.247 . S
C36 O30 1.261 1_545 S
C37 O32 1.259 . S
C37 O34 1.235 . S
O38 Co28 2.021 . S
O38 C35 1.238 . S
O39 Co33 2.052 1_455 S
O39 C35 1.241 . S
O40 Co28 2.137 1_665 S
O40 C31 1.247 1_565 S
O41 Co28 2.244 1_655 S
O41 C31 1.272 . S
O41 Co33 2.135 . S
H42 C61 0.949 . S
H43 C62 0.950 . S
H44 C64 0.950 . S
H45 C65 0.950 . S
H46 C67 0.950 . S
H47 C70 0.950 . S
H48 C71 0.950 . S
H49 C73 0.951 . S
H50 C74 0.949 . S
H51 C76 0.949 . S
H52 C77 0.950 . S
H53 C79 0.950 . S
H54 C80 0.950 . S
H55 C82 0.950 1_655 S
H56 C85 0.950 . S
H57 C86 0.950 . S
H58 C88 0.951 . S
H59 C89 0.949 . S
C60 C61 1.376 . S
C60 C65 1.386 1_455 S
C60 C66 1.483 . S
C61 H42 0.949 . S
C61 C60 1.376 . S
C61 C62 1.397 . S
C62 H43 0.950 . S
C62 C61 1.397 . S
C62 C63 1.391 . S
C63 C62 1.391 . S
C63 C64 1.405 1_455 S
C64 H44 0.950 . S
C64 C63 1.405 1_655 S
C64 C65 1.367 . S
C65 H45 0.950 . S
C65 C60 1.386 1_655 S
C65 C64 1.367 . S
C66 C60 1.483 . S
C66 C67 1.382 . S
C66 C68 1.403 . S
C67 H46 0.950 . S
C67 C66 1.382 . S
C67 C83 1.411 . S
C68 C66 1.403 . S
C68 C69 1.489 . S
C68 C82 1.411 . S
C69 C68 1.489 . S
C69 C70 1.383 . S
C69 C74 1.382 1_455 S
C70 H47 0.950 . S
C70 C69 1.383 . S
C70 C71 1.395 . S
C71 H48 0.950 . S
C71 C70 1.395 . S
C71 C72 1.288 . S
C72 C71 1.288 . S
C72 C73 1.392 1_455 S
C73 H49 0.951 . S
C73 C72 1.392 1_655 S
C73 C74 1.392 . S
C74 H50 0.949 . S
C74 C69 1.382 1_655 S
C74 C73 1.392 . S
C75 C76 1.376 1_455 S
C75 C80 1.386 . S
C75 C81 1.483 . S
C76 H51 0.949 . S
C76 C75 1.376 1_655 S
C76 C77 1.397 . S
C77 H52 0.950 . S
C77 C76 1.397 . S
C77 C78 1.391 1_655 S
C78 C77 1.391 1_455 S
C78 C79 1.405 . S
C79 H53 0.950 . S
C79 C78 1.405 . S
C79 C80 1.367 . S
C80 H54 0.950 . S
C80 C75 1.386 . S
C80 C79 1.367 . S
C81 C75 1.483 . S
C81 C82 1.382 . S
C81 C83 1.403 . S
C82 H55 0.950 1_455 S
C82 C68 1.411 . S
C82 C81 1.382 . S
C83 C67 1.411 . S
C83 C81 1.403 . S
C83 C84 1.489 . S
C84 C83 1.489 . S
C84 C85 1.383 1_455 S
C84 C89 1.382 . S
C85 H56 0.950 . S
C85 C84 1.383 1_655 S
C85 C86 1.395 . S
C86 H57 0.950 . S
C86 C85 1.395 . S
C86 C87 1.288 1_655 S
C87 C86 1.288 1_455 S
C87 C88 1.392 . S
C88 H58 0.951 . S
C88 C87 1.392 . S
C88 C89 1.392 . S
C89 H59 0.949 . S
C89 C84 1.382 . S
C89 C88 1.392 . S
H90 C109 0.949 . S
H91 C110 0.950 . S
H92 C112 0.950 . S
H93 C113 0.950 . S
H94 C115 0.950 . S
H95 C118 0.950 . S
H96 C119 0.950 . S
H97 C121 0.951 . S
H98 C122 0.949 . S
H99 C124 0.949 . S
H100 C125 0.950 . S
H101 C127 0.950 . S
H102 C128 0.950 . S
H103 C130 0.950 . S
H104 C133 0.950 . S
H105 C134 0.950 . S
H106 C136 0.951 . S
H107 C137 0.949 . S
C108 C109 1.376 . S
C108 C113 1.386 1_545 S
C108 C114 1.483 . S
C109 H90 0.949 . S
C109 C108 1.376 . S
C109 C110 1.397 . S
C110 H91 0.950 . S
C110 C109 1.397 . S
C110 C111 1.391 . S
C111 C110 1.391 . S
C111 C112 1.405 1_545 S
C112 H92 0.950 . S
C112 C111 1.405 1_565 S
C112 C113 1.367 . S
C113 H93 0.950 . S
C113 C108 1.386 1_565 S
C113 C112 1.367 . S
C114 C108 1.483 . S
C114 C115 1.382 . S
C114 C116 1.403 . S
C115 H94 0.950 . S
C115 C114 1.382 . S
C115 C131 1.411 . S
C116 C114 1.403 . S
C116 C117 1.489 . S
C116 C130 1.411 . S
C117 C116 1.489 . S
C117 C118 1.383 . S
C117 C122 1.382 1_545 S
C118 H95 0.950 . S
C118 C117 1.383 . S
C118 C119 1.395 . S
C119 H96 0.950 . S
C119 C118 1.395 . S
C119 C120 1.288 . S
C120 C119 1.288 . S
C120 C121 1.392 1_545 S
C121 H97 0.951 . S
C121 C120 1.392 1_565 S
C121 C122 1.392 . S
C122 H98 0.949 . S
C122 C117 1.382 1_565 S
C122 C121 1.392 . S
C123 C124 1.376 1_545 S
C123 C128 1.386 . S
C123 C129 1.483 . S
C124 H99 0.949 . S
C124 C123 1.376 1_565 S
C124 C125 1.397 . S
C125 H100 0.950 . S
C125 C124 1.397 . S
C125 C126 1.391 1_565 S
C126 C125 1.391 1_545 S
C126 C127 1.405 . S
C127 H101 0.950 . S
C127 C126 1.405 . S
C127 C128 1.367 . S
C128 H102 0.950 . S
C128 C123 1.386 . S
C128 C127 1.367 . S
C129 C123 1.483 . S
C129 C130 1.382 . S
C129 C131 1.403 . S
C130 H103 0.950 . S
C130 C116 1.411 . S
C130 C129 1.382 . S
C131 C115 1.411 . S
C131 C129 1.403 . S
C131 C132 1.489 . S
C132 C131 1.489 . S
C132 C133 1.383 1_545 S
C132 C137 1.382 . S
C133 H104 0.950 . S
C133 C132 1.383 1_565 S
C133 C134 1.395 . S
C134 H105 0.950 . S
C134 C133 1.395 . S
C134 C135 1.288 1_565 S
C135 C134 1.288 1_545 S
C135 C136 1.392 . S
C136 H106 0.951 . S
C136 C135 1.392 . S
C136 C137 1.392 . S
C137 H107 0.949 . S
C137 C132 1.382 . S
C137 C136 1.392 . S
H138 C157 0.949 . S
H139 C158 0.950 . S
H140 C160 0.950 . S
H141 C161 0.950 . S
H142 C163 0.950 . S
H143 C166 0.950 . S
H144 C167 0.950 . S
H145 C169 0.951 . S
H146 C170 0.949 . S
H147 C172 0.949 . S
H148 C173 0.950 . S
H149 C175 0.950 . S
H150 C176 0.950 . S
H151 C178 0.950 . S
H152 C181 0.950 . S
H153 C182 0.950 . S
H154 C184 0.951 . S
H155 C185 0.949 . S
C156 C157 1.376 . S
C156 C161 1.386 . S
C156 C162 1.483 . S
C157 H138 0.949 . S
C157 C156 1.376 . S
C157 C158 1.397 . S
C158 H139 0.950 . S
C158 C157 1.397 . S
C158 C159 1.391 . S
C159 C158 1.391 . S
C159 C160 1.405 . S
C160 H140 0.950 . S
C160 C159 1.405 . S
C160 C161 1.367 . S
C161 H141 0.950 . S
C161 C156 1.386 . S
C161 C160 1.367 . S
C162 C156 1.483 . S
C162 C163 1.382 . S
C162 C164 1.403 . S
C163 H142 0.950 . S
C163 C162 1.382 . S
C163 C179 1.411 . S
C164 C162 1.403 . S
C164 C165 1.489 . S
C164 C178 1.411 . S
C165 C164 1.489 . S
C165 C166 1.383 . S
C165 C170 1.382 . S
C166 H143 0.950 . S
C166 C165 1.383 . S
C166 C167 1.395 . S
C167 H144 0.950 . S
C167 C166 1.395 . S
C167 C168 1.288 . S
C168 C167 1.288 . S
C168 C169 1.392 . S
C169 H145 0.951 . S
C169 C168 1.392 . S
C169 C170 1.392 . S
C170 H146 0.949 . S
C170 C165 1.382 . S
C170 C169 1.392 . S
C171 C172 1.376 . S
C171 C176 1.386 . S
C171 C177 1.483 . S
C172 H147 0.949 . S
C172 C171 1.376 . S
C172 C173 1.397 . S
C173 H148 0.950 . S
C173 C172 1.397 . S
C173 C174 1.391 . S
C174 C173 1.391 . S
C174 C175 1.405 . S
C175 H149 0.950 . S
C175 C174 1.405 . S
C175 C176 1.367 . S
C176 H150 0.950 . S
C176 C171 1.386 . S
C176 C175 1.367 . S
C177 C171 1.483 . S
C177 C178 1.382 . S
C177 C179 1.403 . S
C178 H151 0.950 . S
C178 C164 1.411 . S
C178 C177 1.382 . S
C179 C163 1.411 . S
C179 C177 1.403 . S
C179 C180 1.489 . S
C180 C179 1.489 . S
C180 C181 1.383 . S
C180 C185 1.382 . S
C181 H152 0.950 . S
C181 C180 1.383 . S
C181 C182 1.395 . S
C182 H153 0.950 . S
C182 C181 1.395 . S
C182 C183 1.288 . S
C183 C182 1.288 . S
C183 C184 1.392 . S
C184 H154 0.951 . S
C184 C183 1.392 . S
C184 C185 1.392 . S
C185 H155 0.949 . S
C185 C180 1.382 . S
C185 C184 1.392 . S
H186 C204 0.951 . S
H187 C206 0.951 . S
H188 C208 0.950 . S
H189 C209 0.950 . S
H190 C211 0.950 . S
H191 C214 0.950 . S
H192 C215 0.950 . S
H193 C217 0.950 . S
H194 C218 0.950 . S
H195 C219 0.951 . S
H196 C221 0.951 . S
H197 C223 0.950 . S
H198 C224 0.950 . S
H199 C226 0.950 . S
H200 C229 0.950 1_455 S
H201 C230 0.950 . S
H202 C232 0.950 . S
H203 C233 0.950 . S
C204 H186 0.951 . S
C204 C205 1.366 . S
C204 C206 1.388 . S
C205 C204 1.366 . S
C205 C209 1.385 1_455 S
C206 H187 0.951 . S
C206 C204 1.388 . S
C206 C207 1.366 . S
C207 C206 1.366 . S
C207 C208 1.414 1_455 S
C207 C210 1.499 . S
C208 H188 0.950 . S
C208 C207 1.414 1_655 S
C208 C209 1.374 . S
C209 H189 0.950 . S
C209 C205 1.385 1_655 S
C209 C208 1.374 . S
C210 C207 1.499 . S
C210 C211 1.373 1_455 S
C210 C212 1.389 . S
C211 H190 0.950 . S
C211 C210 1.373 1_655 S
C211 C227 1.377 . S
C212 C210 1.389 . S
C212 C213 1.524 . S
C212 C226 1.377 . S
C213 C212 1.524 . S
C213 C214 1.397 . S
C213 C218 1.363 . S
C214 H191 0.950 . S
C214 C213 1.397 . S
C214 C215 1.334 . S
C215 H192 0.950 . S
C215 C214 1.334 . S
C215 C216 1.287 . S
C216 C215 1.287 . S
C216 C217 1.524 . S
C216 H235 0.913 . S
C217 H193 0.950 . S
C217 C216 1.524 . S
C217 C218 1.415 . S
C218 H194 0.950 . S
C218 C213 1.363 . S
C218 C217 1.415 . S
C219 H195 0.951 . S
C219 C220 1.366 1_655 S
C219 C221 1.388 . S
C220 C219 1.366 1_455 S
C220 C224 1.385 . S
C221 H196 0.951 . S
C221 C219 1.388 . S
C221 C222 1.366 1_655 S
C222 C221 1.366 1_455 S
C222 C223 1.414 . S
C222 C225 1.499 . S
C223 H197 0.950 . S
C223 C222 1.414 . S
C223 C224 1.374 . S
C224 H198 0.950 . S
C224 C220 1.385 . S
C224 C223 1.374 . S
C225 C222 1.499 . S
C225 C226 1.373 . S
C225 C227 1.389 1_455 S
C226 H199 0.950 . S
C226 C212 1.377 . S
C226 C225 1.373 . S
C227 C211 1.377 . S
C227 C225 1.389 1_655 S
C227 C228 1.524 . S
C228 C227 1.524 . S
C228 C229 1.397 . S
C228 C233 1.363 . S
C229 H200 0.950 1_655 S
C229 C228 1.397 . S
C229 C230 1.334 . S
C230 H201 0.950 . S
C230 C229 1.334 . S
C230 C231 1.287 . S
C231 C230 1.287 . S
C231 C232 1.524 . S
C231 H234 0.999 . S
C232 H202 0.950 . S
C232 C231 1.524 . S
C232 C233 1.415 . S
C233 H203 0.950 . S
C233 C228 1.363 . S
C233 C232 1.415 . S
H234 C231 0.999 . S
H235 C216 0.913 . S
H236 C254 0.951 . S
H237 C256 0.951 . S
H238 C258 0.950 . S
H239 C259 0.950 . S
H240 C261 0.950 . S
H241 C264 0.950 . S
H242 C265 0.950 . S
H243 C267 0.950 . S
H244 C268 0.950 . S
H245 C269 0.951 . S
H246 C271 0.951 . S
H247 C273 0.950 . S
H248 C274 0.950 . S
H249 C276 0.950 . S
H250 C279 0.950 . S
H251 C280 0.950 . S
H252 C282 0.950 . S
H253 C283 0.950 . S
C254 H236 0.951 . S
C254 C255 1.366 . S
C254 C256 1.388 . S
C255 C254 1.366 . S
C255 C259 1.385 . S
C256 H237 0.951 . S
C256 C254 1.388 . S
C256 C257 1.366 . S
C257 C256 1.366 . S
C257 C258 1.414 . S
C257 C260 1.499 . S
C258 H238 0.950 . S
C258 C257 1.414 . S
C258 C259 1.374 . S
C259 H239 0.950 . S
C259 C255 1.385 . S
C259 C258 1.374 . S
C260 C257 1.499 . S
C260 C261 1.373 . S
C260 C262 1.389 1_545 S
C261 H240 0.950 . S
C261 C260 1.373 . S
C261 C277 1.377 . S
C262 C260 1.389 1_565 S
C262 C263 1.524 . S
C262 C276 1.377 . S
C263 C262 1.524 . S
C263 C264 1.397 . S
C263 C268 1.363 . S
C264 H241 0.950 . S
C264 C263 1.397 . S
C264 C265 1.334 . S
C265 H242 0.950 . S
C265 C264 1.334 . S
C265 C266 1.287 . S
C266 C265 1.287 . S
C266 C267 1.524 . S
C266 H285 0.913 . S
C267 H243 0.950 . S
C267 C266 1.524 . S
C267 C268 1.415 . S
C268 H244 0.950 . S
C268 C263 1.363 . S
C268 C267 1.415 . S
C269 H245 0.951 . S
C269 C270 1.366 . S
C269 C271 1.388 . S
C270 C269 1.366 . S
C270 C274 1.385 . S
C271 H246 0.951 . S
C271 C269 1.388 . S
C271 C272 1.366 . S
C272 C271 1.366 . S
C272 C273 1.414 . S
C272 C275 1.499 . S
C273 H247 0.950 . S
C273 C272 1.414 . S
C273 C274 1.374 . S
C274 H248 0.950 . S
C274 C270 1.385 . S
C274 C273 1.374 . S
C275 C272 1.499 . S
C275 C276 1.373 1_545 S
C275 C277 1.389 . S
C276 H249 0.950 . S
C276 C262 1.377 . S
C276 C275 1.373 1_565 S
C277 C261 1.377 . S
C277 C275 1.389 . S
C277 C278 1.524 . S
C278 C277 1.524 . S
C278 C279 1.397 . S
C278 C283 1.363 . S
C279 H250 0.950 . S
C279 C278 1.397 . S
C279 C280 1.334 . S
C280 H251 0.950 . S
C280 C279 1.334 . S
C280 C281 1.287 . S
C281 C280 1.287 . S
C281 C282 1.524 . S
C281 H284 0.999 . S
C282 H252 0.950 . S
C282 C281 1.524 . S
C282 C283 1.415 . S
C283 H253 0.950 . S
C283 C278 1.363 . S
C283 C282 1.415 . S
H284 C281 0.999 . S
H285 C266 0.913 . S
H286 C304 0.951 . S
H287 C306 0.951 . S
H288 C308 0.950 . S
H289 C309 0.950 . S
H290 C311 0.950 . S
H291 C314 0.950 . S
H292 C315 0.950 . S
H293 C317 0.950 . S
H294 C318 0.950 . S
H295 C319 0.951 . S
H296 C321 0.951 . S
H297 C323 0.950 . S
H298 C324 0.950 . S
H299 C326 0.950 . S
H300 C329 0.950 . S
H301 C330 0.950 . S
H302 C332 0.950 . S
H303 C333 0.950 . S
C304 H286 0.951 . S
C304 C305 1.366 . S
C304 C306 1.388 . S
C305 C304 1.366 . S
C305 C309 1.385 . S
C306 H287 0.951 . S
C306 C304 1.388 . S
C306 C307 1.366 . S
C307 C306 1.366 . S
C307 C308 1.414 . S
C307 C310 1.499 . S
C308 H288 0.950 . S
C308 C307 1.414 . S
C308 C309 1.374 . S
C309 H289 0.950 . S
C309 C305 1.385 . S
C309 C308 1.374 . S
C310 C307 1.499 . S
C310 C311 1.373 . S
C310 C312 1.389 . S
C311 H290 0.950 . S
C311 C310 1.373 . S
C311 C327 1.377 . S
C312 C310 1.389 . S
C312 C313 1.524 . S
C312 C326 1.377 . S
C313 C312 1.524 . S
C313 C314 1.397 . S
C313 C318 1.363 . S
C314 H291 0.950 . S
C314 C313 1.397 . S
C314 C315 1.334 . S
C315 H292 0.950 . S
C315 C314 1.334 . S
C315 C316 1.287 . S
C316 C315 1.287 . S
C316 C317 1.524 . S
C316 H335 0.913 1_565 S
C317 H293 0.950 . S
C317 C316 1.524 . S
C317 C318 1.415 . S
C318 H294 0.950 . S
C318 C313 1.363 . S
C318 C317 1.415 . S
C319 H295 0.951 . S
C319 C320 1.366 . S
C319 C321 1.388 . S
C320 C319 1.366 . S
C320 C324 1.385 . S
C321 H296 0.951 . S
C321 C319 1.388 . S
C321 C322 1.366 . S
C322 C321 1.366 . S
C322 C323 1.414 . S
C322 C325 1.499 . S
C323 H297 0.950 . S
C323 C322 1.414 . S
C323 C324 1.374 . S
C324 H298 0.950 . S
C324 C320 1.385 . S
C324 C323 1.374 . S
C325 C322 1.499 . S
C325 C326 1.373 . S
C325 C327 1.389 . S
C326 H299 0.950 . S
C326 C312 1.377 . S
C326 C325 1.373 . S
C327 C311 1.377 . S
C327 C325 1.389 . S
C327 C328 1.524 . S
C328 C327 1.524 . S
C328 C329 1.397 . S
C328 C333 1.363 . S
C329 H300 0.950 . S
C329 C328 1.397 . S
C329 C330 1.334 . S
C330 H301 0.950 . S
C330 C329 1.334 . S
C330 C331 1.287 . S
C331 C330 1.287 . S
C331 C332 1.524 . S
C331 H334 0.999 . S
C332 H302 0.950 . S
C332 C331 1.524 . S
C332 C333 1.415 . S
C333 H303 0.950 . S
C333 C328 1.363 . S
C333 C332 1.415 . S
H334 C331 0.999 . S
H335 C316 0.913 1_545 S
H336 C354 0.951 . S
H337 C356 0.951 . S
H338 C358 0.950 . S
H339 C359 0.950 . S
H340 C361 0.950 . S
H341 C364 0.950 . S
H342 C365 0.950 . S
H343 C367 0.950 . S
H344 C368 0.950 . S
H345 C369 0.951 . S
H346 C371 0.951 . S
H347 C373 0.950 . S
H348 C374 0.950 . S
H349 C376 0.950 . S
H350 C379 0.950 . S
H351 C380 0.950 . S
H352 C382 0.950 . S
H353 C383 0.950 . S
C354 H336 0.951 . S
C354 C355 1.366 . S
C354 C356 1.388 . S
C355 C354 1.366 . S
C355 C359 1.385 . S
C356 H337 0.951 . S
C356 C354 1.388 . S
C356 C357 1.366 . S
C357 C356 1.366 . S
C357 C358 1.414 . S
C357 C360 1.499 . S
C358 H338 0.950 . S
C358 C357 1.414 . S
C358 C359 1.374 . S
C359 H339 0.950 . S
C359 C355 1.385 . S
C359 C358 1.374 . S
C360 C357 1.499 . S
C360 C361 1.373 1_455 S
C360 C362 1.389 . S
C361 H340 0.950 . S
C361 C360 1.373 1_655 S
C361 C377 1.377 . S
C362 C360 1.389 . S
C362 C363 1.524 . S
C362 C376 1.377 . S
C363 C362 1.524 . S
C363 C364 1.397 . S
C363 C368 1.363 . S
C364 H341 0.950 . S
C364 C363 1.397 . S
C364 C365 1.334 . S
C365 H342 0.950 . S
C365 C364 1.334 . S
C365 C366 1.287 . S
C366 C365 1.287 . S
C366 C367 1.524 . S
C366 H385 0.902 1_565 S
C367 H343 0.950 . S
C367 C366 1.524 . S
C367 C368 1.415 . S
C368 H344 0.950 . S
C368 C363 1.363 . S
C368 C367 1.415 . S
C369 H345 0.951 . S
C369 C370 1.366 . S
C369 C371 1.388 . S
C370 C369 1.366 . S
C370 C374 1.385 . S
C371 H346 0.951 . S
C371 C369 1.388 . S
C371 C372 1.366 . S
C372 C371 1.366 . S
C372 C373 1.414 . S
C372 C375 1.499 . S
C373 H347 0.950 . S
C373 C372 1.414 . S
C373 C374 1.374 . S
C374 H348 0.950 . S
C374 C370 1.385 . S
C374 C373 1.374 . S
C375 C372 1.499 . S
C375 C376 1.373 . S
C375 C377 1.389 1_455 S
C376 H349 0.950 . S
C376 C362 1.377 . S
C376 C375 1.373 . S
C377 C361 1.377 . S
C377 C375 1.389 1_655 S
C377 C378 1.524 . S
C378 C377 1.524 . S
C378 C379 1.397 . S
C378 C383 1.363 . S
C379 H350 0.950 . S
C379 C378 1.397 . S
C379 C380 1.334 . S
C380 H351 0.950 . S
C380 C379 1.334 . S
C380 C381 1.287 . S
C381 C380 1.287 . S
C381 C382 1.524 . S
C381 H384 0.999 . S
C382 H352 0.950 . S
C382 C381 1.524 . S
C382 C383 1.415 . S
C383 H353 0.950 . S
C383 C378 1.363 . S
C383 C382 1.415 . S
H384 C381 0.999 . S
H385 C366 0.902 1_545 S
H386 C404 0.951 . S
H387 C406 0.951 . S
H388 C408 0.950 . S
H389 C409 0.950 . S
H390 C411 0.950 . S
H391 C414 0.950 . S
H392 C415 0.950 . S
H393 C417 0.950 . S
H394 C418 0.950 . S
H395 C419 0.951 . S
H396 C421 0.951 . S
H397 C423 0.950 . S
H398 C424 0.950 . S
H399 C426 0.950 . S
H400 C429 0.950 . S
H401 C430 0.950 . S
H402 C432 0.950 . S
H403 C433 0.950 . S
C404 H386 0.951 . S
C404 C405 1.366 . S
C404 C406 1.388 . S
C405 C404 1.366 . S
C405 C409 1.385 . S
C406 H387 0.951 . S
C406 C404 1.388 . S
C406 C407 1.366 . S
C407 C406 1.366 . S
C407 C408 1.414 . S
C407 C410 1.499 . S
C408 H388 0.950 . S
C408 C407 1.414 . S
C408 C409 1.374 . S
C409 H389 0.950 . S
C409 C405 1.385 . S
C409 C408 1.374 . S
C410 C407 1.499 . S
C410 C411 1.373 . S
C410 C412 1.389 1_545 S
C411 H390 0.950 . S
C411 C410 1.373 . S
C411 C427 1.377 . S
C412 C410 1.389 1_565 S
C412 C413 1.524 . S
C412 C426 1.377 . S
C413 C412 1.524 . S
C413 C414 1.397 . S
C413 C418 1.363 . S
C414 H391 0.950 . S
C414 C413 1.397 . S
C414 C415 1.334 . S
C415 H392 0.950 . S
C415 C414 1.334 . S
C415 C416 1.287 . S
C416 C415 1.287 . S
C416 C417 1.524 . S
C416 H435 0.913 . S
C417 H393 0.950 . S
C417 C416 1.524 . S
C417 C418 1.415 . S
C418 H394 0.950 . S
C418 C413 1.363 . S
C418 C417 1.415 . S
C419 H395 0.951 . S
C419 C420 1.366 . S
C419 C421 1.388 . S
C420 C419 1.366 . S
C420 C424 1.385 . S
C421 H396 0.951 . S
C421 C419 1.388 . S
C421 C422 1.366 . S
C422 C421 1.366 . S
C422 C423 1.414 . S
C422 C425 1.499 . S
C423 H397 0.950 . S
C423 C422 1.414 . S
C423 C424 1.374 . S
C424 H398 0.950 . S
C424 C420 1.385 . S
C424 C423 1.374 . S
C425 C422 1.499 . S
C425 C426 1.373 1_545 S
C425 C427 1.389 . S
C426 H399 0.950 . S
C426 C412 1.377 . S
C426 C425 1.373 1_565 S
C427 C411 1.377 . S
C427 C425 1.389 . S
C427 C428 1.524 . S
C428 C427 1.524 . S
C428 C429 1.397 . S
C428 C433 1.363 . S
C429 H400 0.950 . S
C429 C428 1.397 . S
C429 C430 1.334 . S
C430 H401 0.950 . S
C430 C429 1.334 . S
C430 C431 1.287 . S
C431 C430 1.287 . S
C431 C432 1.524 . S
C431 H434 0.999 . S
C432 H402 0.950 . S
C432 C431 1.524 . S
C432 C433 1.415 . S
C433 H403 0.950 . S
C433 C428 1.363 . S
C433 C432 1.415 . S
H434 C431 0.999 . S
H435 C416 0.913 . S
H436 C454 0.951 . S
H437 C456 0.951 . S
H438 C458 0.950 . S
H439 C459 0.950 . S
H440 C461 0.950 . S
H441 C464 0.950 . S
H442 C465 0.950 . S
H443 C467 0.950 . S
H444 C468 0.950 . S
H445 C469 0.951 . S
H446 C471 0.951 . S
H447 C473 0.950 . S
H448 C474 0.950 . S
H449 C476 0.950 . S
H450 C479 0.950 . S
H451 C480 0.950 . S
H452 C482 0.950 . S
H453 C483 0.950 . S
C454 H436 0.951 . S
C454 C455 1.366 . S
C454 C456 1.388 . S
C455 C454 1.366 . S
C455 C459 1.385 . S
C456 H437 0.951 . S
C456 C454 1.388 . S
C456 C457 1.366 . S
C457 C456 1.366 . S
C457 C458 1.414 . S
C457 C460 1.499 . S
C458 H438 0.950 . S
C458 C457 1.414 . S
C458 C459 1.374 . S
C459 H439 0.950 . S
C459 C455 1.385 . S
C459 C458 1.374 . S
C460 C457 1.499 . S
C460 C461 1.373 . S
C460 C462 1.389 . S
C461 H440 0.950 . S
C461 C460 1.373 . S
C461 C477 1.377 . S
C462 C460 1.389 . S
C462 C463 1.524 . S
C462 C476 1.377 . S
C463 C462 1.524 . S
C463 C464 1.397 . S
C463 C468 1.363 . S
C464 H441 0.950 . S
C464 C463 1.397 . S
C464 C465 1.334 . S
C465 H442 0.950 . S
C465 C464 1.334 . S
C465 C466 1.287 . S
C466 C465 1.287 . S
C466 C467 1.524 . S
C466 H485 0.913 . S
C467 H443 0.950 . S
C467 C466 1.524 . S
C467 C468 1.415 . S
C468 H444 0.950 . S
C468 C463 1.363 . S
C468 C467 1.415 . S
C469 H445 0.951 . S
C469 C470 1.366 . S
C469 C471 1.388 . S
C470 C469 1.366 . S
C470 C474 1.385 . S
C471 H446 0.951 . S
C471 C469 1.388 . S
C471 C472 1.366 . S
C472 C471 1.366 . S
C472 C473 1.414 . S
C472 C475 1.499 . S
C473 H447 0.950 . S
C473 C472 1.414 . S
C473 C474 1.374 . S
C474 H448 0.950 . S
C474 C470 1.385 . S
C474 C473 1.374 . S
C475 C472 1.499 . S
C475 C476 1.373 . S
C475 C477 1.389 . S
C476 H449 0.950 . S
C476 C462 1.377 . S
C476 C475 1.373 . S
C477 C461 1.377 . S
C477 C475 1.389 . S
C477 C478 1.524 . S
C478 C477 1.524 . S
C478 C479 1.397 . S
C478 C483 1.363 . S
C479 H450 0.950 . S
C479 C478 1.397 . S
C479 C480 1.334 . S
C480 H451 0.950 . S
C480 C479 1.334 . S
C480 C481 1.287 . S
C481 C480 1.287 . S
C481 C482 1.524 . S
C481 H484 0.999 . S
C482 H452 0.950 . S
C482 C481 1.524 . S
C482 C483 1.415 . S
C483 H453 0.950 . S
C483 C478 1.363 . S
C483 C482 1.415 . S
H484 C481 0.999 . S
H485 C466 0.913 . S
H486 C504 0.951 . S
H487 C506 0.951 . S
H488 C508 0.950 . S
H489 C509 0.950 . S
H490 C511 0.950 . S
H491 C514 0.950 . S
H492 C515 0.950 . S
H493 C517 0.950 . S
H494 C518 0.950 . S
H495 C519 0.951 . S
H496 C521 0.951 . S
H497 C523 0.950 . S
H498 C524 0.950 . S
H499 C526 0.950 . S
H500 C529 0.950 1_545 S
H501 C530 0.950 . S
H502 C532 0.950 . S
H503 C533 0.950 . S
C504 H486 0.951 . S
C504 C505 1.366 . S
C504 C506 1.388 . S
C505 C504 1.366 . S
C505 C509 1.385 1_545 S
C506 H487 0.951 . S
C506 C504 1.388 . S
C506 C507 1.366 . S
C507 C506 1.366 . S
C507 C508 1.414 1_545 S
C507 C510 1.499 . S
C508 H488 0.950 . S
C508 C507 1.414 1_565 S
C508 C509 1.374 . S
C509 H489 0.950 . S
C509 C505 1.385 1_565 S
C509 C508 1.374 . S
C510 C507 1.499 . S
C510 C511 1.373 1_545 S
C510 C512 1.389 . S
C511 H490 0.950 . S
C511 C510 1.373 1_565 S
C511 C527 1.377 . S
C512 C510 1.389 . S
C512 C513 1.524 . S
C512 C526 1.377 . S
C513 C512 1.524 . S
C513 C514 1.397 . S
C513 C518 1.363 . S
C514 H491 0.950 . S
C514 C513 1.397 . S
C514 C515 1.334 . S
C515 H492 0.950 . S
C515 C514 1.334 . S
C515 C516 1.287 . S
C516 C515 1.287 . S
C516 C517 1.524 . S
C516 H535 0.913 . S
C517 H493 0.950 . S
C517 C516 1.524 . S
C517 C518 1.415 . S
C518 H494 0.950 . S
C518 C513 1.363 . S
C518 C517 1.415 . S
C519 H495 0.951 . S
C519 C520 1.366 1_565 S
C519 C521 1.388 . S
C520 C519 1.366 1_545 S
C520 C524 1.385 . S
C521 H496 0.951 . S
C521 C519 1.388 . S
C521 C522 1.366 1_565 S
C522 C521 1.366 1_545 S
C522 C523 1.414 . S
C522 C525 1.499 . S
C523 H497 0.950 . S
C523 C522 1.414 . S
C523 C524 1.374 . S
C524 H498 0.950 . S
C524 C520 1.385 . S
C524 C523 1.374 . S
C525 C522 1.499 . S
C525 C526 1.373 . S
C525 C527 1.389 1_545 S
C526 H499 0.950 . S
C526 C512 1.377 . S
C526 C525 1.373 . S
C527 C511 1.377 . S
C527 C525 1.389 1_565 S
C527 C528 1.524 . S
C528 C527 1.524 . S
C528 C529 1.397 . S
C528 C533 1.363 . S
C529 H500 0.950 1_565 S
C529 C528 1.397 . S
C529 C530 1.334 . S
C530 H501 0.950 . S
C530 C529 1.334 . S
C530 C531 1.287 . S
C531 C530 1.287 . S
C531 C532 1.524 . S
C531 H534 0.999 . S
C532 H502 0.950 . S
C532 C531 1.524 . S
C532 C533 1.415 . S
C533 H503 0.950 . S
C533 C528 1.363 . S
C533 C532 1.415 . S
H534 C531 0.999 . S
H535 C516 0.913 . S
H536 C554 0.951 . S
H537 C556 0.951 . S
H538 C558 0.950 . S
H539 C559 0.950 . S
H540 C561 0.950 . S
H541 C564 0.950 . S
H542 C565 0.950 . S
H543 C567 0.950 . S
H544 C568 0.950 . S
H545 C569 0.951 . S
H546 C571 0.951 . S
H547 C573 0.950 . S
H548 C574 0.950 . S
H549 C576 0.950 . S
H550 C579 0.950 . S
H551 C580 0.950 . S
H552 C582 0.950 . S
H553 C583 0.950 . S
C554 H536 0.951 . S
C554 C555 1.366 . S
C554 C556 1.388 . S
C555 C554 1.366 . S
C555 C559 1.385 . S
C556 H537 0.951 . S
C556 C554 1.388 . S
C556 C557 1.366 1_554 S
C557 C556 1.366 1_556 S
C557 C558 1.414 . S
C557 C560 1.499 . S
C558 H538 0.950 . S
C558 C557 1.414 . S
C558 C559 1.374 1_556 S
C559 H539 0.950 . S
C559 C555 1.385 . S
C559 C558 1.374 1_554 S
C560 C557 1.499 . S
C560 C561 1.373 . S
C560 C562 1.389 . S
C561 H540 0.950 . S
C561 C560 1.373 . S
C561 C577 1.377 . S
C562 C560 1.389 . S
C562 C563 1.524 1_556 S
C562 C576 1.377 . S
C563 C562 1.524 1_554 S
C563 C564 1.397 . S
C563 C568 1.363 . S
C564 H541 0.950 . S
C564 C563 1.397 . S
C564 C565 1.334 . S
C565 H542 0.950 . S
C565 C564 1.334 . S
C565 C566 1.287 . S
C566 C565 1.287 . S
C566 C567 1.524 . S
C566 H585 0.913 . S
C567 H543 0.950 . S
C567 C566 1.524 . S
C567 C568 1.415 . S
C568 H544 0.950 . S
C568 C563 1.363 . S
C568 C567 1.415 . S
C569 H545 0.951 . S
C569 C570 1.366 . S
C569 C571 1.388 . S
C570 C569 1.366 . S
C570 C574 1.385 . S
C571 H546 0.951 . S
C571 C569 1.388 . S
C571 C572 1.366 . S
C572 C571 1.366 . S
C572 C573 1.414 . S
C572 C575 1.499 . S
C573 H547 0.950 . S
C573 C572 1.414 . S
C573 C574 1.374 . S
C574 H548 0.950 . S
C574 C570 1.385 . S
C574 C573 1.374 . S
C575 C572 1.499 . S
C575 C576 1.373 . S
C575 C577 1.389 . S
C576 H549 0.950 . S
C576 C562 1.377 . S
C576 C575 1.373 . S
C577 C561 1.377 . S
C577 C575 1.389 . S
C577 C578 1.524 . S
C578 C577 1.524 . S
C578 C579 1.397 . S
C578 C583 1.363 . S
C579 H550 0.950 . S
C579 C578 1.397 . S
C579 C580 1.334 . S
C580 H551 0.950 . S
C580 C579 1.334 . S
C580 C581 1.287 . S
C581 C580 1.287 . S
C581 C582 1.524 . S
C581 H584 0.999 . S
C582 H552 0.950 . S
C582 C581 1.524 . S
C582 C583 1.415 . S
C583 H553 0.950 . S
C583 C578 1.363 . S
C583 C582 1.415 . S
H584 C581 0.999 . S
H585 C566 0.913 . S
H586 C604 0.951 . S
H587 C606 0.951 . S
H588 C608 0.950 . S
H589 C609 0.950 . S
H590 C611 0.950 . S
H591 C614 0.950 . S
H592 C615 0.950 . S
H593 C617 0.950 . S
H594 C618 0.950 . S
H595 C619 0.951 . S
H596 C621 0.951 . S
H597 C623 0.950 . S
H598 C624 0.950 . S
H599 C626 0.950 . S
H600 C629 0.923 1_455 S
H601 C630 0.950 . S
H602 C632 0.950 . S
H603 C633 0.950 . S
C604 H586 0.951 . S
C604 C605 1.366 . S
C604 C606 1.388 . S
C605 C604 1.366 . S
C605 C609 1.385 1_455 S
C606 H587 0.951 . S
C606 C604 1.388 . S
C606 C607 1.366 . S
C607 C606 1.366 . S
C607 C608 1.414 1_455 S
C607 C610 1.499 . S
C608 H588 0.950 . S
C608 C607 1.414 1_655 S
C608 C609 1.374 . S
C609 H589 0.950 . S
C609 C605 1.385 1_655 S
C609 C608 1.374 . S
C610 C607 1.499 . S
C610 C611 1.373 1_455 S
C610 C612 1.389 . S
C611 H590 0.950 . S
C611 C610 1.373 1_655 S
C611 C627 1.377 . S
C612 C610 1.389 . S
C612 C613 1.524 . S
C612 C626 1.377 . S
C613 C612 1.524 . S
C613 C614 1.397 . S
C613 C618 1.363 . S
C614 H591 0.950 . S
C614 C613 1.397 . S
C614 C615 1.334 . S
C615 H592 0.950 . S
C615 C614 1.334 . S
C615 C616 1.287 . S
C616 C615 1.287 . S
C616 C617 1.524 . S
C616 H635 0.913 1_565 S
C617 H593 0.950 . S
C617 C616 1.524 . S
C617 C618 1.415 . S
C618 H594 0.950 . S
C618 C613 1.363 . S
C618 C617 1.415 . S
C619 H595 0.951 . S
C619 C620 1.366 1_655 S
C619 C621 1.388 . S
C620 C619 1.366 1_455 S
C620 C624 1.385 . S
C621 H596 0.951 . S
C621 C619 1.388 . S
C621 C622 1.366 1_655 S
C622 C621 1.366 1_455 S
C622 C623 1.414 . S
C622 C625 1.499 . S
C623 H597 0.950 . S
C623 C622 1.414 . S
C623 C624 1.374 . S
C624 H598 0.950 . S
C624 C620 1.385 . S
C624 C623 1.374 . S
C625 C622 1.499 . S
C625 C626 1.373 . S
C625 C627 1.389 1_455 S
C626 H599 0.950 . S
C626 C612 1.377 . S
C626 C625 1.373 . S
C627 C611 1.377 . S
C627 C625 1.389 1_655 S
C627 C628 1.524 . S
C628 C627 1.524 . S
C628 C629 1.397 . S
C628 C633 1.363 . S
C629 H600 0.923 1_655 S
C629 C628 1.397 . S
C629 C630 1.334 . S
C630 H601 0.950 . S
C630 C629 1.334 . S
C630 C631 1.287 . S
C631 C630 1.287 . S
C631 C632 1.524 . S
C631 H634 0.999 . S
C632 H602 0.950 . S
C632 C631 1.524 . S
C632 C633 1.415 . S
C633 H603 0.950 . S
C633 C628 1.363 . S
C633 C632 1.415 . S
H634 C631 0.999 . S
H635 C616 0.913 1_545 S
H636 C654 0.951 . S
H637 C656 0.951 . S
H638 C658 0.950 . S
H639 C659 0.950 . S
H640 C661 0.950 . S
H641 C664 0.950 . S
H642 C665 0.950 . S
H643 C667 0.950 . S
H644 C668 0.950 . S
H645 C669 0.951 . S
H646 C671 0.951 . S
H647 C673 0.950 . S
H648 C674 0.950 . S
H649 C676 0.950 . S
H650 C679 0.950 . S
H651 C680 0.950 . S
H652 C682 0.950 . S
H653 C683 0.950 . S
C654 H636 0.951 . S
C654 C655 1.366 . S
C654 C656 1.388 . S
C655 C654 1.366 . S
C655 C659 1.385 1_545 S
C656 H637 0.951 . S
C656 C654 1.388 . S
C656 C657 1.366 . S
C657 C656 1.366 . S
C657 C658 1.414 1_545 S
C657 C660 1.499 . S
C658 H638 0.950 . S
C658 C657 1.414 1_565 S
C658 C659 1.374 . S
C659 H639 0.950 . S
C659 C655 1.385 1_565 S
C659 C658 1.374 . S
C660 C657 1.499 . S
C660 C661 1.373 1_545 S
C660 C662 1.389 . S
C661 H640 0.950 . S
C661 C660 1.373 1_565 S
C661 C677 1.377 . S
C662 C660 1.389 . S
C662 C663 1.524 . S
C662 C676 1.377 . S
C663 C662 1.524 . S
C663 C664 1.397 . S
C663 C668 1.363 . S
C664 H641 0.950 . S
C664 C663 1.397 . S
C664 C665 1.334 . S
C665 H642 0.950 . S
C665 C664 1.334 . S
C665 C666 1.287 . S
C666 C665 1.287 . S
C666 C667 1.524 . S
C666 H685 0.913 . S
C667 H643 0.950 . S
C667 C666 1.524 . S
C667 C668 1.415 . S
C668 H644 0.950 . S
C668 C663 1.363 . S
C668 C667 1.415 . S
C669 H645 0.951 . S
C669 C670 1.366 1_565 S
C669 C671 1.388 . S
C670 C669 1.366 1_545 S
C670 C674 1.385 . S
C671 H646 0.951 . S
C671 C669 1.388 . S
C671 C672 1.366 1_565 S
C672 C671 1.366 1_545 S
C672 C673 1.414 . S
C672 C675 1.499 . S
C673 H647 0.950 . S
C673 C672 1.414 . S
C673 C674 1.374 . S
C674 H648 0.950 . S
C674 C670 1.385 . S
C674 C673 1.374 . S
C675 C672 1.499 . S
C675 C676 1.373 . S
C675 C677 1.389 1_545 S
C676 H649 0.950 . S
C676 C662 1.377 . S
C676 C675 1.373 . S
C677 C661 1.377 . S
C677 C675 1.389 1_565 S
C677 C678 1.524 . S
C678 C677 1.524 . S
C678 C679 1.397 . S
C678 C683 1.363 . S
C679 H650 0.950 . S
C679 C678 1.397 . S
C679 C680 1.334 . S
C680 H651 0.950 . S
C680 C679 1.334 . S
C680 C681 1.287 . S
C681 C680 1.287 . S
C681 C682 1.524 . S
C681 H684 0.999 . S
C682 H652 0.950 . S
C682 C681 1.524 . S
C682 C683 1.415 . S
C683 H653 0.950 . S
C683 C678 1.363 . S
C683 C682 1.415 . S
H684 C681 0.999 . S
H685 C666 0.913 . S
H686 C704 0.951 1_556 S
H687 C706 0.951 . S
H688 C708 0.950 . S
H689 C709 0.950 . S
H690 C711 0.950 . S
H691 C714 0.950 1_554 S
H692 C715 0.950 . S
H693 C717 0.950 . S
H694 C718 0.950 . S
H695 C719 0.951 . S
H696 C721 0.951 . S
H697 C723 0.950 . S
H698 C724 0.950 . S
H699 C726 0.950 . S
H700 C729 0.950 . S
H701 C730 0.950 . S
H702 C732 0.950 . S
H703 C733 0.950 . S
C704 H686 0.951 1_554 S
C704 C705 1.366 . S
C704 C706 1.388 1_554 S
C705 C704 1.366 . S
C705 C709 1.385 . S
C706 H687 0.951 . S
C706 C704 1.388 1_556 S
C706 C707 1.366 . S
C707 C706 1.366 . S
C707 C708 1.414 1_556 S
C707 C710 1.499 . S
C708 H688 0.950 . S
C708 C707 1.414 1_554 S
C708 C709 1.374 . S
C709 H689 0.950 . S
C709 C705 1.385 . S
C709 C708 1.374 . S
C710 C707 1.499 . S
C710 C711 1.373 . S
C710 C712 1.389 . S
C711 H690 0.950 . S
C711 C710 1.373 . S
C711 C727 1.377 . S
C712 C710 1.389 . S
C712 C713 1.524 . S
C712 C726 1.377 . S
C713 C712 1.524 . S
C713 C714 1.397 . S
C713 C718 1.363 . S
C714 H691 0.950 1_556 S
C714 C713 1.397 . S
C714 C715 1.334 1_556 S
C715 H692 0.950 . S
C715 C714 1.334 1_554 S
C715 C716 1.287 1_554 S
C716 C715 1.287 1_556 S
C716 C717 1.524 . S
C716 H735 0.913 . S
C717 H693 0.950 . S
C717 C716 1.524 . S
C717 C718 1.415 . S
C718 H694 0.950 . S
C718 C713 1.363 . S
C718 C717 1.415 . S
C719 H695 0.951 . S
C719 C720 1.366 . S
C719 C721 1.388 . S
C720 C719 1.366 . S
C720 C724 1.385 . S
C721 H696 0.951 . S
C721 C719 1.388 . S
C721 C722 1.366 . S
C722 C721 1.366 . S
C722 C723 1.414 . S
C722 C725 1.499 . S
C723 H697 0.950 . S
C723 C722 1.414 . S
C723 C724 1.374 . S
C724 H698 0.950 . S
C724 C720 1.385 . S
C724 C723 1.374 . S
C725 C722 1.499 . S
C725 C726 1.373 . S
C725 C727 1.389 . S
C726 H699 0.950 . S
C726 C712 1.377 . S
C726 C725 1.373 . S
C727 C711 1.377 . S
C727 C725 1.389 . S
C727 C728 1.524 . S
C728 C727 1.524 . S
C728 C729 1.397 . S
C728 C733 1.363 . S
C729 H700 0.950 . S
C729 C728 1.397 . S
C729 C730 1.334 . S
C730 H701 0.950 . S
C730 C729 1.334 . S
C730 C731 1.287 . S
C731 C730 1.287 . S
C731 C732 1.524 . S
C731 H734 0.999 . S
C732 H702 0.950 . S
C732 C731 1.524 . S
C732 C733 1.415 . S
C733 H703 0.950 . S
C733 C728 1.363 . S
C733 C732 1.415 . S
H734 C731 0.999 . S
H735 C716 0.913 . S
H736 C754 0.951 . S
H737 C756 0.951 . S
H738 C758 0.950 . S
H739 C759 0.950 . S
H740 C761 0.950 . S
H741 C764 0.950 . S
H742 C765 0.950 . S
H743 C767 0.950 . S
H744 C768 0.950 . S
H745 C769 0.951 . S
H746 C771 0.951 . S
H747 C773 0.950 . S
H748 C774 0.950 . S
H749 C776 0.950 . S
H750 C779 0.950 . S
H751 C780 0.950 . S
H752 C782 0.950 . S
H753 C783 0.950 . S
C754 H736 0.951 . S
C754 C755 1.366 . S
C754 C756 1.388 . S
C755 C754 1.366 . S
C755 C759 1.385 1_455 S
C756 H737 0.951 . S
C756 C754 1.388 . S
C756 C757 1.366 . S
C757 C756 1.366 . S
C757 C758 1.414 1_455 S
C757 C760 1.499 . S
C758 H738 0.950 . S
C758 C757 1.414 1_655 S
C758 C759 1.374 . S
C759 H739 0.950 . S
C759 C755 1.385 1_655 S
C759 C758 1.374 . S
C760 C757 1.499 . S
C760 C761 1.373 1_455 S
C760 C762 1.389 . S
C761 H740 0.950 . S
C761 C760 1.373 1_655 S
C761 C777 1.377 . S
C762 C760 1.389 . S
C762 C763 1.524 . S
C762 C776 1.377 . S
C763 C762 1.524 . S
C763 C764 1.397 . S
C763 C768 1.363 . S
C764 H741 0.950 . S
C764 C763 1.397 . S
C764 C765 1.334 . S
C765 H742 0.950 . S
C765 C764 1.334 . S
C765 C766 1.287 . S
C766 C765 1.287 . S
C766 C767 1.524 . S
C766 H785 0.913 . S
C767 H743 0.950 . S
C767 C766 1.524 . S
C767 C768 1.415 . S
C768 H744 0.950 . S
C768 C763 1.363 . S
C768 C767 1.415 . S
C769 H745 0.951 . S
C769 C770 1.366 1_655 S
C769 C771 1.388 . S
C770 C769 1.366 1_455 S
C770 C774 1.385 . S
C771 H746 0.951 . S
C771 C769 1.388 . S
C771 C772 1.366 1_655 S
C772 C771 1.366 1_455 S
C772 C773 1.414 . S
C772 C775 1.499 . S
C773 H747 0.950 . S
C773 C772 1.414 . S
C773 C774 1.374 . S
C774 H748 0.950 . S
C774 C770 1.385 . S
C774 C773 1.374 . S
C775 C772 1.499 . S
C775 C776 1.373 . S
C775 C777 1.389 1_455 S
C776 H749 0.950 . S
C776 C762 1.377 . S
C776 C775 1.373 . S
C777 C761 1.377 . S
C777 C775 1.389 1_655 S
C777 C778 1.524 . S
C778 C777 1.524 . S
C778 C779 1.397 . S
C778 C783 1.363 . S
C779 H750 0.950 . S
C779 C778 1.397 . S
C779 C780 1.334 . S
C780 H751 0.950 . S
C780 C779 1.334 . S
C780 C781 1.287 . S
C781 C780 1.287 . S
C781 C782 1.524 . S
C781 H784 0.999 . S
C782 H752 0.950 . S
C782 C781 1.524 . S
C782 C783 1.415 . S
C783 H753 0.950 . S
C783 C778 1.363 . S
C783 C782 1.415 . S
H784 C781 0.999 . S
H785 C766 0.913 . S
C220 C63 1.513 . S
C205 C3 1.511 . S
C255 C21 1.531 . S
C270 C111 1.550 . S
C305 C37 1.509 . S
C320 C183 1.520 . S
C355 C8 1.521 . S
C370 C87 1.513 . S
C420 C135 1.531 . S
C405 C23 1.519 . S
C455 C35 1.510 . S
C470 C159 1.531 . S
C520 C120 1.495 . S
C505 C31 1.496 . S
C555 C7 1.510 . S
C570 C174 1.533 . S
C620 C78 1.514 . S
C605 C17 1.511 . S
C670 C126 1.497 . S
C655 C36 1.497 . S
C720 C168 1.528 . S
C705 C9 1.509 . S
C755 C22 1.522 . S
C770 C72 1.517 . S
