# Generated by pormake.
# Topology bpr, (3,3)-cn, num edge types: 1
# Building blocks:
#     Node 0, Type 0, BuildingBlock: WUSLED_clean_sbu_0, # of connection points: 3
#     Node 1, Type 0, BuildingBlock: WUSLED_clean_sbu_0, # of connection points: 3
#     Node 2, Type 0, BuildingBlock: WUSLED_clean_sbu_0, # of connection points: 3
#     Node 3, Type 0, BuildingBlock: WUSLED_clean_sbu_0, # of connection points: 3
#     Node 4, Type 0, BuildingBlock: WUSLED_clean_sbu_0, # of connection points: 3
#     Node 5, Type 0, BuildingBlock: WUSLED_clean_sbu_0, # of connection points: 3
#     Node 6, Type 0, BuildingBlock: WUSLED_clean_sbu_0, # of connection points: 3
#     Node 7, Type 0, BuildingBlock: WUSLED_clean_sbu_0, # of connection points: 3
#     Node 8, Type 0, BuildingBlock: WUSLED_clean_sbu_0, # of connection points: 3
#     Node 9, Type 0, BuildingBlock: WUSLED_clean_sbu_0, # of connection points: 3
#     Node 10, Type 0, BuildingBlock: WUSLED_clean_sbu_0, # of connection points: 3
#     Node 11, Type 0, BuildingBlock: WUSLED_clean_sbu_0, # of connection points: 3
#     Node 12, Type 0, BuildingBlock: WUSLED_clean_sbu_0, # of connection points: 3
#     Node 13, Type 0, BuildingBlock: WUSLED_clean_sbu_0, # of connection points: 3
#     Node 14, Type 0, BuildingBlock: WUSLED_clean_sbu_0, # of connection points: 3
#     Node 15, Type 0, BuildingBlock: WUSLED_clean_sbu_0, # of connection points: 3
#     Node 16, Type 0, BuildingBlock: WUSLED_clean_sbu_0, # of connection points: 3
#     Node 17, Type 0, BuildingBlock: WUSLED_clean_sbu_0, # of connection points: 3
#     Node 18, Type 0, BuildingBlock: WUSLED_clean_sbu_0, # of connection points: 3
#     Node 19, Type 0, BuildingBlock: WUSLED_clean_sbu_0, # of connection points: 3
#     Node 20, Type 0, BuildingBlock: WUSLED_clean_sbu_0, # of connection points: 3
#     Node 21, Type 0, BuildingBlock: WUSLED_clean_sbu_0, # of connection points: 3
#     Node 22, Type 0, BuildingBlock: WUSLED_clean_sbu_0, # of connection points: 3
#     Node 23, Type 0, BuildingBlock: WUSLED_clean_sbu_0, # of connection points: 3
#     Node 24, Type 0, BuildingBlock: WUSLED_clean_sbu_0, # of connection points: 3
#     Node 25, Type 0, BuildingBlock: WUSLED_clean_sbu_0, # of connection points: 3
#     Node 26, Type 0, BuildingBlock: WUSLED_clean_sbu_0, # of connection points: 3
#     Node 27, Type 0, BuildingBlock: WUSLED_clean_sbu_0, # of connection points: 3
#     Node 28, Type 0, BuildingBlock: WUSLED_clean_sbu_0, # of connection points: 3
#     Node 29, Type 0, BuildingBlock: WUSLED_clean_sbu_0, # of connection points: 3
#     Node 30, Type 0, BuildingBlock: WUSLED_clean_sbu_0, # of connection points: 3
#     Node 31, Type 0, BuildingBlock: WUSLED_clean_sbu_0, # of connection points: 3
#     Node 32, Type 0, BuildingBlock: WUSLED_clean_sbu_0, # of connection points: 3
#     Node 33, Type 0, BuildingBlock: WUSLED_clean_sbu_0, # of connection points: 3
#     Node 34, Type 0, BuildingBlock: WUSLED_clean_sbu_0, # of connection points: 3
#     Node 35, Type 0, BuildingBlock: WUSLED_clean_sbu_0, # of connection points: 3
#     Node 36, Type 0, BuildingBlock: WUSLED_clean_sbu_0, # of connection points: 3
#     Node 37, Type 0, BuildingBlock: WUSLED_clean_sbu_0, # of connection points: 3
#     Node 38, Type 0, BuildingBlock: WUSLED_clean_sbu_0, # of connection points: 3
#     Node 39, Type 0, BuildingBlock: WUSLED_clean_sbu_0, # of connection points: 3
#     Node 40, Type 0, BuildingBlock: WUSLED_clean_sbu_0, # of connection points: 3
#     Node 41, Type 0, BuildingBlock: WUSLED_clean_sbu_0, # of connection points: 3
#     Node 42, Type 0, BuildingBlock: WUSLED_clean_sbu_0, # of connection points: 3
#     Node 43, Type 0, BuildingBlock: WUSLED_clean_sbu_0, # of connection points: 3
#     Node 44, Type 0, BuildingBlock: WUSLED_clean_sbu_0, # of connection points: 3
#     Node 45, Type 0, BuildingBlock: WUSLED_clean_sbu_0, # of connection points: 3
#     Node 46, Type 0, BuildingBlock: WUSLED_clean_sbu_0, # of connection points: 3
#     Node 47, Type 0, BuildingBlock: WUSLED_clean_sbu_0, # of connection points: 3
#     Node 48, Type 1, BuildingBlock: PAMTOO_clean_linker_0, # of connection points: 3
#     Node 49, Type 1, BuildingBlock: PAMTOO_clean_linker_0, # of connection points: 3
#     Node 50, Type 1, BuildingBlock: PAMTOO_clean_linker_0, # of connection points: 3
#     Node 51, Type 1, BuildingBlock: PAMTOO_clean_linker_0, # of connection points: 3
#     Node 52, Type 1, BuildingBlock: PAMTOO_clean_linker_0, # of connection points: 3
#     Node 53, Type 1, BuildingBlock: PAMTOO_clean_linker_0, # of connection points: 3
#     Node 54, Type 1, BuildingBlock: PAMTOO_clean_linker_0, # of connection points: 3
#     Node 55, Type 1, BuildingBlock: PAMTOO_clean_linker_0, # of connection points: 3
#     Node 56, Type 1, BuildingBlock: PAMTOO_clean_linker_0, # of connection points: 3
#     Node 57, Type 1, BuildingBlock: PAMTOO_clean_linker_0, # of connection points: 3
#     Node 58, Type 1, BuildingBlock: PAMTOO_clean_linker_0, # of connection points: 3
#     Node 59, Type 1, BuildingBlock: PAMTOO_clean_linker_0, # of connection points: 3
#     Node 60, Type 1, BuildingBlock: PAMTOO_clean_linker_0, # of connection points: 3
#     Node 61, Type 1, BuildingBlock: PAMTOO_clean_linker_0, # of connection points: 3
#     Node 62, Type 1, BuildingBlock: PAMTOO_clean_linker_0, # of connection points: 3
#     Node 63, Type 1, BuildingBlock: PAMTOO_clean_linker_0, # of connection points: 3
#     Node 64, Type 1, BuildingBlock: PAMTOO_clean_linker_0, # of connection points: 3
#     Node 65, Type 1, BuildingBlock: PAMTOO_clean_linker_0, # of connection points: 3
#     Node 66, Type 1, BuildingBlock: PAMTOO_clean_linker_0, # of connection points: 3
#     Node 67, Type 1, BuildingBlock: PAMTOO_clean_linker_0, # of connection points: 3
#     Node 68, Type 1, BuildingBlock: PAMTOO_clean_linker_0, # of connection points: 3
#     Node 69, Type 1, BuildingBlock: PAMTOO_clean_linker_0, # of connection points: 3
#     Node 70, Type 1, BuildingBlock: PAMTOO_clean_linker_0, # of connection points: 3
#     Node 71, Type 1, BuildingBlock: PAMTOO_clean_linker_0, # of connection points: 3
#     Node 72, Type 1, BuildingBlock: PAMTOO_clean_linker_0, # of connection points: 3
#     Node 73, Type 1, BuildingBlock: PAMTOO_clean_linker_0, # of connection points: 3
#     Node 74, Type 1, BuildingBlock: PAMTOO_clean_linker_0, # of connection points: 3
#     Node 75, Type 1, BuildingBlock: PAMTOO_clean_linker_0, # of connection points: 3
#     Node 76, Type 1, BuildingBlock: PAMTOO_clean_linker_0, # of connection points: 3
#     Node 77, Type 1, BuildingBlock: PAMTOO_clean_linker_0, # of connection points: 3
#     Node 78, Type 1, BuildingBlock: PAMTOO_clean_linker_0, # of connection points: 3
#     Node 79, Type 1, BuildingBlock: PAMTOO_clean_linker_0, # of connection points: 3
#     Node 80, Type 1, BuildingBlock: PAMTOO_clean_linker_0, # of connection points: 3
#     Node 81, Type 1, BuildingBlock: PAMTOO_clean_linker_0, # of connection points: 3
#     Node 82, Type 1, BuildingBlock: PAMTOO_clean_linker_0, # of connection points: 3
#     Node 83, Type 1, BuildingBlock: PAMTOO_clean_linker_0, # of connection points: 3
#     Node 84, Type 1, BuildingBlock: PAMTOO_clean_linker_0, # of connection points: 3
#     Node 85, Type 1, BuildingBlock: PAMTOO_clean_linker_0, # of connection points: 3
#     Node 86, Type 1, BuildingBlock: PAMTOO_clean_linker_0, # of connection points: 3
#     Node 87, Type 1, BuildingBlock: PAMTOO_clean_linker_0, # of connection points: 3
#     Node 88, Type 1, BuildingBlock: PAMTOO_clean_linker_0, # of connection points: 3
#     Node 89, Type 1, BuildingBlock: PAMTOO_clean_linker_0, # of connection points: 3
#     Node 90, Type 1, BuildingBlock: PAMTOO_clean_linker_0, # of connection points: 3
#     Node 91, Type 1, BuildingBlock: PAMTOO_clean_linker_0, # of connection points: 3
#     Node 92, Type 1, BuildingBlock: PAMTOO_clean_linker_0, # of connection points: 3
#     Node 93, Type 1, BuildingBlock: PAMTOO_clean_linker_0, # of connection points: 3
#     Node 94, Type 1, BuildingBlock: PAMTOO_clean_linker_0, # of connection points: 3
#     Node 95, Type 1, BuildingBlock: PAMTOO_clean_linker_0, # of connection points: 3
#     Edge 96, Type (0, 1), BuildingBlock: XIVTED_clean_linker_0, # of connection points: 2
#     Edge 97, Type (0, 1), BuildingBlock: XIVTED_clean_linker_0, # of connection points: 2
#     Edge 98, Type (0, 1), BuildingBlock: XIVTED_clean_linker_0, # of connection points: 2
#     Edge 99, Type (0, 1), BuildingBlock: XIVTED_clean_linker_0, # of connection points: 2
#     Edge 100, Type (0, 1), BuildingBlock: XIVTED_clean_linker_0, # of connection points: 2
#     Edge 101, Type (0, 1), BuildingBlock: XIVTED_clean_linker_0, # of connection points: 2
#     Edge 102, Type (0, 1), BuildingBlock: XIVTED_clean_linker_0, # of connection points: 2
#     Edge 103, Type (0, 1), BuildingBlock: XIVTED_clean_linker_0, # of connection points: 2
#     Edge 104, Type (0, 1), BuildingBlock: XIVTED_clean_linker_0, # of connection points: 2
#     Edge 105, Type (0, 1), BuildingBlock: XIVTED_clean_linker_0, # of connection points: 2
#     Edge 106, Type (0, 1), BuildingBlock: XIVTED_clean_linker_0, # of connection points: 2
#     Edge 107, Type (0, 1), BuildingBlock: XIVTED_clean_linker_0, # of connection points: 2
#     Edge 108, Type (0, 1), BuildingBlock: XIVTED_clean_linker_0, # of connection points: 2
#     Edge 109, Type (0, 1), BuildingBlock: XIVTED_clean_linker_0, # of connection points: 2
#     Edge 110, Type (0, 1), BuildingBlock: XIVTED_clean_linker_0, # of connection points: 2
#     Edge 111, Type (0, 1), BuildingBlock: XIVTED_clean_linker_0, # of connection points: 2
#     Edge 112, Type (0, 1), BuildingBlock: XIVTED_clean_linker_0, # of connection points: 2
#     Edge 113, Type (0, 1), BuildingBlock: XIVTED_clean_linker_0, # of connection points: 2
#     Edge 114, Type (0, 1), BuildingBlock: XIVTED_clean_linker_0, # of connection points: 2
#     Edge 115, Type (0, 1), BuildingBlock: XIVTED_clean_linker_0, # of connection points: 2
#     Edge 116, Type (0, 1), BuildingBlock: XIVTED_clean_linker_0, # of connection points: 2
#     Edge 117, Type (0, 1), BuildingBlock: XIVTED_clean_linker_0, # of connection points: 2
#     Edge 118, Type (0, 1), BuildingBlock: XIVTED_clean_linker_0, # of connection points: 2
#     Edge 119, Type (0, 1), BuildingBlock: XIVTED_clean_linker_0, # of connection points: 2
#     Edge 120, Type (0, 1), BuildingBlock: XIVTED_clean_linker_0, # of connection points: 2
#     Edge 121, Type (0, 1), BuildingBlock: XIVTED_clean_linker_0, # of connection points: 2
#     Edge 122, Type (0, 1), BuildingBlock: XIVTED_clean_linker_0, # of connection points: 2
#     Edge 123, Type (0, 1), BuildingBlock: XIVTED_clean_linker_0, # of connection points: 2
#     Edge 124, Type (0, 1), BuildingBlock: XIVTED_clean_linker_0, # of connection points: 2
#     Edge 125, Type (0, 1), BuildingBlock: XIVTED_clean_linker_0, # of connection points: 2
#     Edge 126, Type (0, 1), BuildingBlock: XIVTED_clean_linker_0, # of connection points: 2
#     Edge 127, Type (0, 1), BuildingBlock: XIVTED_clean_linker_0, # of connection points: 2
#     Edge 128, Type (0, 1), BuildingBlock: XIVTED_clean_linker_0, # of connection points: 2
#     Edge 129, Type (0, 1), BuildingBlock: XIVTED_clean_linker_0, # of connection points: 2
#     Edge 130, Type (0, 1), BuildingBlock: XIVTED_clean_linker_0, # of connection points: 2
#     Edge 131, Type (0, 1), BuildingBlock: XIVTED_clean_linker_0, # of connection points: 2
#     Edge 132, Type (0, 1), BuildingBlock: XIVTED_clean_linker_0, # of connection points: 2
#     Edge 133, Type (0, 1), BuildingBlock: XIVTED_clean_linker_0, # of connection points: 2
#     Edge 134, Type (0, 1), BuildingBlock: XIVTED_clean_linker_0, # of connection points: 2
#     Edge 135, Type (0, 1), BuildingBlock: XIVTED_clean_linker_0, # of connection points: 2
#     Edge 136, Type (0, 1), BuildingBlock: XIVTED_clean_linker_0, # of connection points: 2
#     Edge 137, Type (0, 1), BuildingBlock: XIVTED_clean_linker_0, # of connection points: 2
#     Edge 138, Type (0, 1), BuildingBlock: XIVTED_clean_linker_0, # of connection points: 2
#     Edge 139, Type (0, 1), BuildingBlock: XIVTED_clean_linker_0, # of connection points: 2
#     Edge 140, Type (0, 1), BuildingBlock: XIVTED_clean_linker_0, # of connection points: 2
#     Edge 141, Type (0, 1), BuildingBlock: XIVTED_clean_linker_0, # of connection points: 2
#     Edge 142, Type (0, 1), BuildingBlock: XIVTED_clean_linker_0, # of connection points: 2
#     Edge 143, Type (0, 1), BuildingBlock: XIVTED_clean_linker_0, # of connection points: 2
#     Edge 144, Type (0, 1), BuildingBlock: XIVTED_clean_linker_0, # of connection points: 2
#     Edge 145, Type (0, 1), BuildingBlock: XIVTED_clean_linker_0, # of connection points: 2
#     Edge 146, Type (0, 1), BuildingBlock: XIVTED_clean_linker_0, # of connection points: 2
#     Edge 147, Type (0, 1), BuildingBlock: XIVTED_clean_linker_0, # of connection points: 2
#     Edge 148, Type (0, 1), BuildingBlock: XIVTED_clean_linker_0, # of connection points: 2
#     Edge 149, Type (0, 1), BuildingBlock: XIVTED_clean_linker_0, # of connection points: 2
#     Edge 150, Type (0, 1), BuildingBlock: XIVTED_clean_linker_0, # of connection points: 2
#     Edge 151, Type (0, 1), BuildingBlock: XIVTED_clean_linker_0, # of connection points: 2
#     Edge 152, Type (0, 1), BuildingBlock: XIVTED_clean_linker_0, # of connection points: 2
#     Edge 153, Type (0, 1), BuildingBlock: XIVTED_clean_linker_0, # of connection points: 2
#     Edge 154, Type (0, 1), BuildingBlock: XIVTED_clean_linker_0, # of connection points: 2
#     Edge 155, Type (0, 1), BuildingBlock: XIVTED_clean_linker_0, # of connection points: 2
#     Edge 156, Type (0, 1), BuildingBlock: XIVTED_clean_linker_0, # of connection points: 2
#     Edge 157, Type (0, 1), BuildingBlock: XIVTED_clean_linker_0, # of connection points: 2
#     Edge 158, Type (0, 1), BuildingBlock: XIVTED_clean_linker_0, # of connection points: 2
#     Edge 159, Type (0, 1), BuildingBlock: XIVTED_clean_linker_0, # of connection points: 2
#     Edge 160, Type (0, 1), BuildingBlock: XIVTED_clean_linker_0, # of connection points: 2
#     Edge 161, Type (0, 1), BuildingBlock: XIVTED_clean_linker_0, # of connection points: 2
#     Edge 162, Type (0, 1), BuildingBlock: XIVTED_clean_linker_0, # of connection points: 2
#     Edge 163, Type (0, 1), BuildingBlock: XIVTED_clean_linker_0, # of connection points: 2
#     Edge 164, Type (0, 1), BuildingBlock: XIVTED_clean_linker_0, # of connection points: 2
#     Edge 165, Type (0, 1), BuildingBlock: XIVTED_clean_linker_0, # of connection points: 2
#     Edge 166, Type (0, 1), BuildingBlock: XIVTED_clean_linker_0, # of connection points: 2
#     Edge 167, Type (0, 1), BuildingBlock: XIVTED_clean_linker_0, # of connection points: 2
#     Edge 168, Type (0, 1), BuildingBlock: XIVTED_clean_linker_0, # of connection points: 2
#     Edge 169, Type (0, 1), BuildingBlock: XIVTED_clean_linker_0, # of connection points: 2
#     Edge 170, Type (0, 1), BuildingBlock: XIVTED_clean_linker_0, # of connection points: 2
#     Edge 171, Type (0, 1), BuildingBlock: XIVTED_clean_linker_0, # of connection points: 2
#     Edge 172, Type (0, 1), BuildingBlock: XIVTED_clean_linker_0, # of connection points: 2
#     Edge 173, Type (0, 1), BuildingBlock: XIVTED_clean_linker_0, # of connection points: 2
#     Edge 174, Type (0, 1), BuildingBlock: XIVTED_clean_linker_0, # of connection points: 2
#     Edge 175, Type (0, 1), BuildingBlock: XIVTED_clean_linker_0, # of connection points: 2
#     Edge 176, Type (0, 1), BuildingBlock: XIVTED_clean_linker_0, # of connection points: 2
#     Edge 177, Type (0, 1), BuildingBlock: XIVTED_clean_linker_0, # of connection points: 2
#     Edge 178, Type (0, 1), BuildingBlock: XIVTED_clean_linker_0, # of connection points: 2
#     Edge 179, Type (0, 1), BuildingBlock: XIVTED_clean_linker_0, # of connection points: 2
#     Edge 180, Type (0, 1), BuildingBlock: XIVTED_clean_linker_0, # of connection points: 2
#     Edge 181, Type (0, 1), BuildingBlock: XIVTED_clean_linker_0, # of connection points: 2
#     Edge 182, Type (0, 1), BuildingBlock: XIVTED_clean_linker_0, # of connection points: 2
#     Edge 183, Type (0, 1), BuildingBlock: XIVTED_clean_linker_0, # of connection points: 2
#     Edge 184, Type (0, 1), BuildingBlock: XIVTED_clean_linker_0, # of connection points: 2
#     Edge 185, Type (0, 1), BuildingBlock: XIVTED_clean_linker_0, # of connection points: 2
#     Edge 186, Type (0, 1), BuildingBlock: XIVTED_clean_linker_0, # of connection points: 2
#     Edge 187, Type (0, 1), BuildingBlock: XIVTED_clean_linker_0, # of connection points: 2
#     Edge 188, Type (0, 1), BuildingBlock: XIVTED_clean_linker_0, # of connection points: 2
#     Edge 189, Type (0, 1), BuildingBlock: XIVTED_clean_linker_0, # of connection points: 2
#     Edge 190, Type (0, 1), BuildingBlock: XIVTED_clean_linker_0, # of connection points: 2
#     Edge 191, Type (0, 1), BuildingBlock: XIVTED_clean_linker_0, # of connection points: 2
#     Edge 192, Type (0, 1), BuildingBlock: XIVTED_clean_linker_0, # of connection points: 2
#     Edge 193, Type (0, 1), BuildingBlock: XIVTED_clean_linker_0, # of connection points: 2
#     Edge 194, Type (0, 1), BuildingBlock: XIVTED_clean_linker_0, # of connection points: 2
#     Edge 195, Type (0, 1), BuildingBlock: XIVTED_clean_linker_0, # of connection points: 2
#     Edge 196, Type (0, 1), BuildingBlock: XIVTED_clean_linker_0, # of connection points: 2
#     Edge 197, Type (0, 1), BuildingBlock: XIVTED_clean_linker_0, # of connection points: 2
#     Edge 198, Type (0, 1), BuildingBlock: XIVTED_clean_linker_0, # of connection points: 2
#     Edge 199, Type (0, 1), BuildingBlock: XIVTED_clean_linker_0, # of connection points: 2
#     Edge 200, Type (0, 1), BuildingBlock: XIVTED_clean_linker_0, # of connection points: 2
#     Edge 201, Type (0, 1), BuildingBlock: XIVTED_clean_linker_0, # of connection points: 2
#     Edge 202, Type (0, 1), BuildingBlock: XIVTED_clean_linker_0, # of connection points: 2
#     Edge 203, Type (0, 1), BuildingBlock: XIVTED_clean_linker_0, # of connection points: 2
#     Edge 204, Type (0, 1), BuildingBlock: XIVTED_clean_linker_0, # of connection points: 2
#     Edge 205, Type (0, 1), BuildingBlock: XIVTED_clean_linker_0, # of connection points: 2
#     Edge 206, Type (0, 1), BuildingBlock: XIVTED_clean_linker_0, # of connection points: 2
#     Edge 207, Type (0, 1), BuildingBlock: XIVTED_clean_linker_0, # of connection points: 2
#     Edge 208, Type (0, 1), BuildingBlock: XIVTED_clean_linker_0, # of connection points: 2
#     Edge 209, Type (0, 1), BuildingBlock: XIVTED_clean_linker_0, # of connection points: 2
#     Edge 210, Type (0, 1), BuildingBlock: XIVTED_clean_linker_0, # of connection points: 2
#     Edge 211, Type (0, 1), BuildingBlock: XIVTED_clean_linker_0, # of connection points: 2
#     Edge 212, Type (0, 1), BuildingBlock: XIVTED_clean_linker_0, # of connection points: 2
#     Edge 213, Type (0, 1), BuildingBlock: XIVTED_clean_linker_0, # of connection points: 2
#     Edge 214, Type (0, 1), BuildingBlock: XIVTED_clean_linker_0, # of connection points: 2
#     Edge 215, Type (0, 1), BuildingBlock: XIVTED_clean_linker_0, # of connection points: 2
#     Edge 216, Type (0, 1), BuildingBlock: XIVTED_clean_linker_0, # of connection points: 2
#     Edge 217, Type (0, 1), BuildingBlock: XIVTED_clean_linker_0, # of connection points: 2
#     Edge 218, Type (0, 1), BuildingBlock: XIVTED_clean_linker_0, # of connection points: 2
#     Edge 219, Type (0, 1), BuildingBlock: XIVTED_clean_linker_0, # of connection points: 2
#     Edge 220, Type (0, 1), BuildingBlock: XIVTED_clean_linker_0, # of connection points: 2
#     Edge 221, Type (0, 1), BuildingBlock: XIVTED_clean_linker_0, # of connection points: 2
#     Edge 222, Type (0, 1), BuildingBlock: XIVTED_clean_linker_0, # of connection points: 2
#     Edge 223, Type (0, 1), BuildingBlock: XIVTED_clean_linker_0, # of connection points: 2
#     Edge 224, Type (0, 1), BuildingBlock: XIVTED_clean_linker_0, # of connection points: 2
#     Edge 225, Type (0, 1), BuildingBlock: XIVTED_clean_linker_0, # of connection points: 2
#     Edge 226, Type (0, 1), BuildingBlock: XIVTED_clean_linker_0, # of connection points: 2
#     Edge 227, Type (0, 1), BuildingBlock: XIVTED_clean_linker_0, # of connection points: 2
#     Edge 228, Type (0, 1), BuildingBlock: XIVTED_clean_linker_0, # of connection points: 2
#     Edge 229, Type (0, 1), BuildingBlock: XIVTED_clean_linker_0, # of connection points: 2
#     Edge 230, Type (0, 1), BuildingBlock: XIVTED_clean_linker_0, # of connection points: 2
#     Edge 231, Type (0, 1), BuildingBlock: XIVTED_clean_linker_0, # of connection points: 2
#     Edge 232, Type (0, 1), BuildingBlock: XIVTED_clean_linker_0, # of connection points: 2
#     Edge 233, Type (0, 1), BuildingBlock: XIVTED_clean_linker_0, # of connection points: 2
#     Edge 234, Type (0, 1), BuildingBlock: XIVTED_clean_linker_0, # of connection points: 2
#     Edge 235, Type (0, 1), BuildingBlock: XIVTED_clean_linker_0, # of connection points: 2
#     Edge 236, Type (0, 1), BuildingBlock: XIVTED_clean_linker_0, # of connection points: 2
#     Edge 237, Type (0, 1), BuildingBlock: XIVTED_clean_linker_0, # of connection points: 2
#     Edge 238, Type (0, 1), BuildingBlock: XIVTED_clean_linker_0, # of connection points: 2
#     Edge 239, Type (0, 1), BuildingBlock: XIVTED_clean_linker_0, # of connection points: 2
# Relax obj value: 0.040
# Max RMSD: 0.110
# Mean RMSD: 0.050
data_MOF--net-bpr--node1-WUSLED_clean_sbu_0--node2-PAMTOO_clean_linker_0--edge1-XIVTED_clean_linker_0
_symmetry_space_group_name_H-M    P1
_symmetry_Int_Tables_number       1
_symmetry_cell_setting            triclinic
loop_
_symmetry_equiv_pos_as_xyz
'x, y, z'
_cell_length_a     100.80288
_cell_length_b     107.11246
_cell_length_c     109.92907
_cell_angle_alpha  92.192276
_cell_angle_beta   99.931924
_cell_angle_gamma 103.82149
loop_
_atom_site_label
_atom_site_type_symbol
_atom_site_fract_x
_atom_site_fract_y
_atom_site_fract_z
_atom_type_partial_charge
C0 C 0.96874 0.39317 0.23705 0.0
C1 C 0.97022 0.39506 0.24997 0.0
C2 C 0.9488 0.40226 0.24764 0.0
C3 C 0.9604 0.39961 0.25521 0.0
C4 C 0.94733 0.40029 0.23468 0.0
C5 C 0.95723 0.3958 0.22944 0.0
U6 U 0.99802 0.37663 0.24133 0.0
O7 O 1.00304 0.36167 0.22986 0.0
O8 O 0.01805 0.38048 0.23502 0.0
C9 C 0.01499 0.36924 0.22855 0.0
C10 C 0.97901 0.38818 0.23157 0.0
C11 C 0.01841 0.36909 0.21597 0.0
C12 C 0.02735 0.38008 0.19895 0.0
C13 C 0.02266 0.38049 0.21021 0.0
C14 C 0.02327 0.35687 0.19885 0.0
C15 C 0.02787 0.36828 0.1932 0.0
C16 C 0.01863 0.35729 0.2101 0.0
C17 C 0.00807 0.36704 0.27451 0.0
C18 C 0.02775 0.35812 0.2818 0.0
C19 C 0.0129 0.36205 0.29591 0.0
C20 C 0.00471 0.36655 0.28634 0.0
C21 C 0.02463 0.35797 0.29381 0.0
C22 C 0.01953 0.36267 0.27221 0.0
C23 C 0.9997 0.37257 0.2649 0.0
O24 O 0.99207 0.39432 0.2357 0.0
O25 O 0.97699 0.37557 0.23092 0.0
O26 O 0.9915 0.36439 0.25595 0.0
O27 O 0.00625 0.38332 0.26094 0.0
H28 H 0.97897 0.39295 0.25602 0.0
H29 H 0.96175 0.40083 0.26521 0.0
H30 H 0.93859 0.40234 0.22858 0.0
H31 H 0.95588 0.39436 0.21945 0.0
H32 H 0.03065 0.38903 0.19478 0.0
H33 H 0.02263 0.38975 0.21451 0.0
H34 H 0.02369 0.34763 0.1948 0.0
H35 H 0.01558 0.34839 0.21441 0.0
H36 H 0.03678 0.35513 0.27993 0.0
H37 H 0.01009 0.36187 0.30499 0.0
H38 H 0.99585 0.36984 0.28824 0.0
H39 H 0.02226 0.36299 0.2631 0.0
C40 C 0.90203 0.78764 0.54937 0.0
C41 C 0.90321 0.78844 0.5623 0.0
C42 C 0.90188 0.76543 0.56245 0.0
C43 C 0.90317 0.77745 0.56879 0.0
C44 C 0.90074 0.76471 0.54948 0.0
C45 C 0.90081 0.77573 0.543 0.0
U46 U 0.90017 0.82236 0.54961 0.0
O47 O 0.91079 0.83895 0.54073 0.0
O48 O 0.88798 0.83247 0.53669 0.0
C49 C 0.89913 0.84023 0.534 0.0
C50 C 0.90166 0.79915 0.54254 0.0
C51 C 0.89897 0.84204 0.5207 0.0
C52 C 0.90986 0.84319 0.50249 0.0
C53 C 0.90988 0.84042 0.51485 0.0
C54 C 0.88795 0.84899 0.50156 0.0
C55 C 0.89896 0.84765 0.49573 0.0
C56 C 0.88799 0.84626 0.5139 0.0
C57 C 0.89794 0.83786 0.58136 0.0
C58 C 0.90582 0.85992 0.59081 0.0
C59 C 0.88807 0.84443 0.59845 0.0
C60 C 0.88865 0.83501 0.58957 0.0
C61 C 0.89686 0.85693 0.59936 0.0
C62 C 0.90637 0.85046 0.58187 0.0
C63 C 0.89911 0.82727 0.57295 0.0
O64 O 0.88989 0.80263 0.5414 0.0
O65 O 0.91265 0.80892 0.54574 0.0
O66 O 0.91083 0.82871 0.56881 0.0
O67 O 0.88803 0.82209 0.56449 0.0
H68 H 0.90405 0.79756 0.56737 0.0
H69 H 0.90388 0.77834 0.57874 0.0
H70 H 0.89989 0.75564 0.54432 0.0
H71 H 0.89987 0.77493 0.53302 0.0
H72 H 0.91858 0.84216 0.49835 0.0
H73 H 0.91853 0.83722 0.51986 0.0
H74 H 0.87925 0.85216 0.49661 0.0
H75 H 0.87949 0.84763 0.5182 0.0
H76 H 0.91277 0.86943 0.5913 0.0
H77 H 0.88085 0.84186 0.60472 0.0
H78 H 0.88202 0.82537 0.58931 0.0
H79 H 0.9136 0.85292 0.57559 0.0
C80 C 0.43119 0.6187 0.69754 0.0
C81 C 0.42657 0.60822 0.68849 0.0
C82 C 0.4187 0.62201 0.67313 0.0
C83 C 0.42034 0.60983 0.67647 0.0
C84 C 0.42368 0.63258 0.68212 0.0
C85 C 0.42983 0.63095 0.69418 0.0
U86 U 0.42875 0.61744 0.73168 0.0
O87 O 0.43332 0.60354 0.74499 0.0
O88 O 0.44451 0.62399 0.74868 0.0
C89 C 0.4434 0.61222 0.75213 0.0
C90 C 0.43706 0.61659 0.7104 0.0
C91 C 0.45661 0.6086 0.75622 0.0
C92 C 0.4726 0.59508 0.75444 0.0
C93 C 0.4603 0.59867 0.74986 0.0
C94 C 0.47777 0.61143 0.77158 0.0
C95 C 0.48146 0.60141 0.76537 0.0
C96 C 0.46548 0.61496 0.76706 0.0
C97 C 0.39672 0.62494 0.7416 0.0
C98 C 0.39321 0.62485 0.76292 0.0
C99 C 0.37521 0.62821 0.74661 0.0
C100 C 0.38356 0.62721 0.73789 0.0
C101 C 0.37988 0.62696 0.75922 0.0
C102 C 0.40155 0.62382 0.75417 0.0
C103 C 0.40511 0.62353 0.7322 0.0
O104 O 0.44124 0.62678 0.71845 0.0
O105 O 0.43018 0.60633 0.7149 0.0
O106 O 0.40597 0.61171 0.72959 0.0
O107 O 0.41707 0.63214 0.73337 0.0
H108 H 0.42754 0.59869 0.69079 0.0
H109 H 0.41647 0.60141 0.66989 0.0
H110 H 0.42282 0.64213 0.67985 0.0
H111 H 0.43336 0.63927 0.70088 0.0
H112 H 0.4752 0.58739 0.74939 0.0
H113 H 0.45365 0.59363 0.74144 0.0
H114 H 0.48423 0.61638 0.78013 0.0
H115 H 0.4628 0.62257 0.77215 0.0
H116 H 0.39706 0.62371 0.77253 0.0
H117 H 0.36509 0.63001 0.74347 0.0
H118 H 0.3797 0.62813 0.72823 0.0
H119 H 0.41169 0.62202 0.75717 0.0
C120 C 0.61324 0.21263 0.07696 0.0
C121 C 0.60822 0.21237 0.08811 0.0
C122 C 0.61387 0.23588 0.09033 0.0
C123 C 0.60848 0.22388 0.09471 0.0
C124 C 0.61898 0.23605 0.07918 0.0
C125 C 0.61865 0.22452 0.07255 0.0
U126 U 0.61126 0.17686 0.07613 0.0
O127 O 0.60009 0.16087 0.06214 0.0
O128 O 0.62283 0.16515 0.06747 0.0
C129 C 0.61161 0.15819 0.06008 0.0
C130 C 0.61314 0.20056 0.07003 0.0
C131 C 0.61267 0.15634 0.04701 0.0
C132 C 0.6181 0.16472 0.02773 0.0
C133 C 0.61676 0.16684 0.04007 0.0
C134 C 0.61106 0.14163 0.02916 0.0
C135 C 0.61538 0.15207 0.02216 0.0
C136 C 0.60974 0.14377 0.04146 0.0
C137 C 0.60801 0.15984 0.10564 0.0
C138 C 0.61273 0.13884 0.10864 0.0
C139 C 0.60048 0.14779 0.12252 0.0
C140 C 0.60142 0.15875 0.11591 0.0
C141 C 0.60619 0.13774 0.11901 0.0
C142 C 0.61356 0.14977 0.10197 0.0
C143 C 0.60904 0.17152 0.09889 0.0
O144 O 0.62405 0.19597 0.07352 0.0
O145 O 0.60132 0.19165 0.06823 0.0
O146 O 0.59826 0.17143 0.09021 0.0
O147 O 0.62102 0.17607 0.09546 0.0
H148 H 0.60407 0.20326 0.0917 0.0
H149 H 0.60429 0.22335 0.10316 0.0
H150 H 0.62342 0.24509 0.07562 0.0
H151 H 0.62268 0.2249 0.06402 0.0
H152 H 0.62155 0.17297 0.02264 0.0
H153 H 0.61905 0.17663 0.04422 0.0
H154 H 0.60864 0.13179 0.02512 0.0
H155 H 0.60649 0.13556 0.04667 0.0
H156 H 0.61708 0.1312 0.10564 0.0
H157 H 0.5955 0.14728 0.13054 0.0
H158 H 0.59706 0.16643 0.11885 0.0
H159 H 0.61858 0.15038 0.09398 0.0
C160 C 0.01724 0.62095 0.25178 0.0
C161 C 0.01587 0.62563 0.24 0.0
C162 C 0.9907 0.61729 0.2367 0.0
C163 C 1.00273 0.62387 0.23256 0.0
C164 C 0.99218 0.61246 0.24847 0.0
C165 C 0.00533 0.6143 0.25594 0.0
U166 U 0.05636 0.62702 0.25526 0.0
O167 O 0.07328 0.64003 0.26863 0.0
O168 O 0.07156 0.61916 0.26734 0.0
C169 C 0.07794 0.63045 0.27332 0.0
C170 C 0.03101 0.62291 0.25974 0.0
C171 C 0.08081 0.63078 0.28693 0.0
C172 C 0.07499 0.62299 0.30631 0.0
C173 C 0.07145 0.62322 0.29345 0.0
C174 C 0.09702 0.63826 0.3063 0.0
C175 C 0.08794 0.63033 0.31286 0.0
C176 C 0.09349 0.63844 0.29347 0.0
C177 C 0.07239 0.62967 0.22623 0.0
C178 C 0.09728 0.63714 0.22702 0.0
C179 C 0.082 0.6278 0.20765 0.0
C180 C 0.07055 0.62593 0.21358 0.0
C181 C 0.09548 0.6335 0.21428 0.0
C182 C 0.08582 0.63519 0.23295 0.0
C183 C 0.06022 0.6277 0.23227 0.0
O184 O 0.0373 0.61361 0.25861 0.0
O185 O 0.03931 0.6345 0.26012 0.0
O186 O 0.05922 0.6378 0.2389 0.0
O187 O 0.0575 0.61696 0.23778 0.0
H188 H 0.02496 0.63073 0.23659 0.0
H189 H 1.00202 0.62789 0.22365 0.0
H190 H 0.9832 0.60715 0.25189 0.0
H191 H 0.00621 0.61053 0.26497 0.0
H192 H 0.0678 0.61672 0.31105 0.0
H193 H 0.06156 0.61728 0.28856 0.0
H194 H 0.10695 0.64423 0.31107 0.0
H195 H 0.1008 0.64441 0.28861 0.0
H196 H 0.10754 0.64142 0.2324 0.0
H197 H 0.08024 0.62504 0.19781 0.0
H198 H 0.06025 0.62163 0.20826 0.0
H199 H 0.08744 0.63803 0.24277 0.0
C200 C 0.63029 0.75096 0.46887 0.0
C201 C 0.62563 0.74779 0.4561 0.0
C202 C 0.63981 0.73225 0.45634 0.0
C203 C 0.63028 0.73851 0.44991 0.0
C204 C 0.64432 0.73534 0.46921 0.0
C205 C 0.63962 0.74465 0.47541 0.0
U206 U 0.61419 0.77901 0.46559 0.0
O207 O 0.59948 0.78587 0.47513 0.0
O208 O 0.62008 0.79861 0.47498 0.0
C209 C 0.6082 0.79715 0.47883 0.0
C210 C 0.62596 0.76134 0.47509 0.0
C211 C 0.60883 0.80249 0.49153 0.0
C212 C 0.609 0.80052 0.51355 0.0
C213 C 0.60912 0.79503 0.50176 0.0
C214 C 0.60836 0.82088 0.50492 0.0
C215 C 0.60861 0.81353 0.51526 0.0
C216 C 0.6085 0.81542 0.49323 0.0
C217 C 0.60301 0.78694 0.4322 0.0
C218 C 0.60302 0.80782 0.42425 0.0
C219 C 0.58852 0.78833 0.41242 0.0
C220 C 0.59328 0.78096 0.42165 0.0
C221 C 0.59349 0.80185 0.4135 0.0
C222 C 0.60766 0.80046 0.43352 0.0
C223 C 0.60865 0.77891 0.44136 0.0
O224 O 0.63302 0.77305 0.47374 0.0
O225 O 0.61245 0.76015 0.47333 0.0
O226 O 0.59987 0.77231 0.44773 0.0
O227 O 0.62093 0.78427 0.44814 0.0
H228 H 0.61848 0.75261 0.45086 0.0
H229 H 0.62637 0.73624 0.44007 0.0
H230 H 0.65174 0.7308 0.47443 0.0
H231 H 0.64343 0.74705 0.48525 0.0
H232 H 0.60931 0.79461 0.52132 0.0
H233 H 0.60935 0.785 0.50062 0.0
H234 H 0.60776 0.83082 0.50577 0.0
H235 H 0.60814 0.8213 0.48543 0.0
H236 H 0.60726 0.81817 0.42537 0.0
H237 H 0.58101 0.7834 0.4044 0.0
H238 H 0.58951 0.77055 0.42047 0.0
H239 H 0.61514 0.80534 0.44159 0.0
C240 C 0.50049 0.40687 0.74997 0.0
C241 C 0.50039 0.40907 0.73746 0.0
C242 C 0.52564 0.41307 0.74091 0.0
C243 C 0.51285 0.41219 0.73298 0.0
C244 C 0.52566 0.41081 0.75345 0.0
C245 C 0.51319 0.40776 0.75794 0.0
U246 U 0.46129 0.39626 0.74335 0.0
O247 O 0.44648 0.38236 0.75181 0.0
O248 O 0.44551 0.40265 0.75185 0.0
C249 C 0.4406 0.39119 0.75548 0.0
C250 C 0.48737 0.40344 0.75465 0.0
C251 C 0.43768 0.39086 0.76817 0.0
C252 C 0.44259 0.38605 0.78972 0.0
C253 C 0.44643 0.38723 0.77805 0.0
C254 C 0.42148 0.39247 0.78179 0.0
C255 C 0.42992 0.38843 0.79164 0.0
C256 C 0.42532 0.39365 0.7702 0.0
C257 C 0.4431 0.39082 0.70935 0.0
C258 C 0.41877 0.37976 0.70223 0.0
C259 C 0.43172 0.39236 0.68831 0.0
C260 C 0.44356 0.3955 0.69766 0.0
C261 C 0.41919 0.38444 0.69047 0.0
C262 C 0.43062 0.38298 0.71161 0.0
C263 C 0.45571 0.3943 0.71903 0.0
O264 O 0.47941 0.41152 0.75252 0.0
O265 O 0.48044 0.39128 0.75227 0.0
O266 O 0.45843 0.3849 0.72559 0.0
O267 O 0.45752 0.40517 0.72578 0.0
H268 H 0.49066 0.40832 0.73114 0.0
H269 H 0.51243 0.41369 0.72324 0.0
H270 H 0.53534 0.41154 0.75984 0.0
H271 H 0.51345 0.40607 0.76762 0.0
H272 H 0.4493 0.38289 0.7971 0.0
H273 H 0.45605 0.38505 0.77668 0.0
H274 H 0.41181 0.39465 0.783 0.0
H275 H 0.41845 0.39653 0.76272 0.0
H276 H 0.40924 0.37377 0.70422 0.0
H277 H 0.43242 0.39601 0.67933 0.0
H278 H 0.45311 0.40157 0.69576 0.0
H279 H 0.43003 0.37936 0.72062 0.0
C280 C 0.83761 0.21099 0.96775 0.0
C281 C 0.83433 0.19749 0.96774 0.0
C282 C 0.84005 0.19912 0.99032 0.0
C283 C 0.83544 0.19162 0.97889 0.0
C284 C 0.84339 0.21267 0.99026 0.0
C285 C 0.84215 0.21853 0.97909 0.0
U286 U 0.84243 0.21123 0.93445 0.0
O287 O 0.82972 0.21546 0.91751 0.0
O288 O 0.8513 0.22686 0.92353 0.0
C289 C 0.83955 0.22534 0.91562 0.0
C290 C 0.83687 0.21727 0.95602 0.0
C291 C 0.83533 0.23724 0.91241 0.0
C292 C 0.82059 0.25211 0.9134 0.0
C293 C 0.82469 0.24102 0.91719 0.0
C294 C 0.83787 0.25582 0.90024 0.0
C295 C 0.82713 0.25963 0.90486 0.0
C296 C 0.8419 0.24476 0.90398 0.0
C297 C 0.85607 0.18324 0.92246 0.0
C298 C 0.85202 0.17188 0.90205 0.0
C299 C 0.87225 0.17123 0.91729 0.0
C300 C 0.86829 0.17909 0.9257 0.0
C301 C 0.864 0.16727 0.90545 0.0
C302 C 0.8481 0.17981 0.91046 0.0
C303 C 0.85155 0.19046 0.932 0.0
O304 O 0.84891 0.22211 0.95282 0.0
O305 O 0.8273 0.21094 0.94671 0.0
O306 O 0.83827 0.19028 0.9303 0.0
O307 O 0.85978 0.20182 0.93621 0.0
H308 H 0.83092 0.19144 0.9591 0.0
H309 H 0.83256 0.18119 0.97853 0.0
H310 H 0.8472 0.21878 0.99884 0.0
H311 H 0.84489 0.22896 0.9793 0.0
H312 H 0.81236 0.25483 0.9172 0.0
H313 H 0.81949 0.23536 0.92374 0.0
H314 H 0.84297 0.26122 0.89349 0.0
H315 H 0.85007 0.24197 0.90013 0.0
H316 H 0.84536 0.16894 0.89306 0.0
H317 H 0.88166 0.16806 0.92014 0.0
H318 H 0.87463 0.18168 0.93487 0.0
H319 H 0.83865 0.18294 0.9077 0.0
C320 C 0.19462 0.99631 0.33893 0.0
C321 C 0.19695 0.00944 0.33681 0.0
C322 C 0.17222 0.00818 0.33498 0.0
C323 C 0.18585 0.0153 0.3348 0.0
C324 C 0.16996 0.99505 0.33719 0.0
C325 C 0.18107 0.98917 0.33912 0.0
U326 U 0.23328 0.99911 0.34775 0.0
O327 O 0.24508 0.98791 0.35966 0.0
O328 O 0.24694 0.98889 0.34008 0.0
C329 C 0.25027 0.98383 0.35053 0.0
C330 C 0.20627 0.9901 0.34116 0.0
C331 C 0.25002 0.97 0.34951 0.0
C332 C 0.24015 0.94759 0.35274 0.0
C333 C 0.23949 0.96053 0.3531 0.0
C334 C 0.26164 0.95344 0.3449 0.0
C335 C 0.2513 0.94391 0.34871 0.0
C336 C 0.261 0.96633 0.34531 0.0
C337 C 0.25761 0.03283 0.35536 0.0
C338 C 0.28178 0.03695 0.36564 0.0
C339 C 0.27298 0.05424 0.35637 0.0
C340 C 0.25987 0.04575 0.35261 0.0
C341 C 0.28406 0.04997 0.36301 0.0
C342 C 0.26867 0.02844 0.3618 0.0
C343 C 0.24364 0.02416 0.3516 0.0
O344 O 0.21472 0.99213 0.33317 0.0
O345 O 0.21283 0.99126 0.35272 0.0
O346 O 0.23906 0.01691 0.36013 0.0
O347 O 0.24112 0.01787 0.34062 0.0
H348 H 0.20738 0.01515 0.33676 0.0
H349 H 0.18797 0.02547 0.3333 0.0
H350 H 0.15958 0.98926 0.33727 0.0
H351 H 0.17908 0.97904 0.34077 0.0
H352 H 0.23193 0.94048 0.3556 0.0
H353 H 0.23087 0.96314 0.35633 0.0
H354 H 0.27047 0.951 0.34192 0.0
H355 H 0.26926 0.9735 0.34255 0.0
H356 H 0.29015 0.03334 0.37061 0.0
H357 H 0.27435 0.06423 0.35432 0.0
H358 H 0.25144 0.04929 0.34764 0.0
H359 H 0.26715 0.01846 0.36392 0.0
C360 C 0.19826 0.96678 0.65133 0.0
C361 C 0.18732 0.96434 0.65798 0.0
C362 C 0.18451 0.9412 0.65447 0.0
C363 C 0.18058 0.95168 0.6596 0.0
C364 C 0.19528 0.94365 0.64762 0.0
C365 C 0.20214 0.95633 0.64612 0.0
U366 U 0.19832 1.00143 0.64459 0.0
O367 O 0.21192 0.01979 0.65375 0.0
O368 O 0.21084 0.01497 0.63393 0.0
C369 C 0.21704 0.02296 0.64377 0.0
C370 C 0.20573 0.98009 0.64978 0.0
C371 C 0.23231 0.02743 0.64565 0.0
C372 C 0.25486 0.02491 0.64247 0.0
C373 C 0.24043 0.02009 0.64096 0.0
C374 C 0.25326 0.04424 0.65371 0.0
C375 C 0.26141 0.03708 0.6488 0.0
C376 C 0.23886 0.03946 0.65211 0.0
C377 C 0.16385 0.01107 0.63751 0.0
C378 C 0.15993 0.0297 0.62681 0.0
C379 C 0.14414 0.01965 0.63994 0.0
C380 C 0.15198 0.01063 0.64266 0.0
C381 C 0.14795 0.02927 0.63192 0.0
C382 C 0.16783 0.02072 0.62963 0.0
C383 C 0.1719 1.00141 0.64052 0.0
O384 O 0.20372 0.98373 0.63846 0.0
O385 O 0.20555 0.98897 0.65829 0.0
O386 O 0.1796 0.00309 0.65167 0.0
O387 O 0.17824 0.99815 0.63185 0.0
H388 H 0.184 0.97222 0.66198 0.0
H389 H 0.17218 0.95009 0.66477 0.0
H390 H 0.19857 0.93576 0.64362 0.0
H391 H 0.21053 0.958 0.64093 0.0
H392 H 0.26088 0.01912 0.63869 0.0
H393 H 0.23563 0.01071 0.63603 0.0
H394 H 0.25795 0.05371 0.65848 0.0
H395 H 0.23278 0.04527 0.6558 0.0
H396 H 0.16312 0.03686 0.62051 0.0
H397 H 0.13517 0.01916 0.64426 0.0
H398 H 0.1488 0.00332 0.64885 0.0
H399 H 0.17701 0.0213 0.62559 0.0
C400 C 0.2506 0.04803 0.87815 0.0
C401 C 0.2431 0.04726 0.88786 0.0
C402 C 0.23798 0.06796 0.88359 0.0
C403 C 0.23689 0.05714 0.89057 0.0
C404 C 0.2455 0.06866 0.87385 0.0
C405 C 0.25176 0.05878 0.87117 0.0
U406 U 0.25355 0.01396 0.88215 0.0
O407 O 0.2537 0.99819 0.8688 0.0
O408 O 0.27134 0.00509 0.88425 0.0
C409 C 0.26616 0.99735 0.87409 0.0
C410 C 0.25679 0.03745 0.87509 0.0
C411 C 0.27591 0.99549 0.86588 0.0
C412 C 0.27972 0.98803 0.84583 0.0
C413 C 0.27126 0.9923 0.85306 0.0
C414 C 0.29793 0.99066 0.86391 0.0
C415 C 0.29301 0.9868 0.85124 0.0
C416 C 0.28946 0.99489 0.87115 0.0
C417 C 0.23146 0.99464 0.90319 0.0
C418 C 0.22999 0.97185 0.90508 0.0
C419 C 0.2156 0.98241 0.91523 0.0
C420 C 0.22147 0.99406 0.91069 0.0
C421 C 0.21962 0.97111 0.91231 0.0
C422 C 0.23586 0.98353 0.90055 0.0
C423 C 0.23656 0.00665 0.89759 0.0
O424 O 0.26526 0.03433 0.88432 0.0
O425 O 0.24799 0.02736 0.86861 0.0
O426 O 0.23242 0.00619 0.88554 0.0
O427 O 0.24982 0.01238 0.90125 0.0
H428 H 0.24197 0.03896 0.89327 0.0
H429 H 0.23103 0.05618 0.89801 0.0
H430 H 0.24667 0.07691 0.86837 0.0
H431 H 0.25746 0.05952 0.86362 0.0
H432 H 0.27567 0.9853 0.83606 0.0
H433 H 0.26085 0.99253 0.84869 0.0
H434 H 0.30803 0.9897 0.86843 0.0
H435 H 0.29328 0.99707 0.88102 0.0
H436 H 0.23344 0.96338 0.90277 0.0
H437 H 0.20751 0.98216 0.92061 0.0
H438 H 0.21792 0.00255 0.91277 0.0
H439 H 0.24359 0.98383 0.89475 0.0
C440 C 0.24932 0.01398 0.14279 0.0
C441 C 0.24647 1.00056 0.1433 0.0
C442 C 0.22917 1.00131 0.15608 0.0
C443 C 0.23654 0.99429 0.1499 0.0
C444 C 0.23192 0.01476 0.15542 0.0
C445 C 0.24197 0.02105 0.14884 0.0
U446 U 0.27294 0.01093 0.12054 0.0
O447 O 0.27902 0.0223 0.10523 0.0
O448 O 0.29495 0.02014 0.12079 0.0
C449 C 0.29221 0.0258 0.11058 0.0
C450 C 0.25991 0.02044 0.13588 0.0
C451 C 0.29887 0.03966 0.11129 0.0
C452 C 0.30213 0.06163 0.11993 0.0
C453 C 0.29514 0.04855 0.11889 0.0
C454 C 0.31646 0.05704 0.10561 0.0
C455 C 0.31297 0.06602 0.11338 0.0
C456 C 0.30947 0.04399 0.10459 0.0
C457 C 0.27057 0.97587 0.1086 0.0
C458 C 0.28827 0.96689 0.10169 0.0
C459 C 0.2644 0.9542 0.09845 0.0
C460 C 0.26057 0.96444 0.10395 0.0
C461 C 0.27835 0.95517 0.09753 0.0
C462 C 0.28441 0.97716 0.10718 0.0
C463 C 0.26645 0.98578 0.11569 0.0
O464 O 0.27223 0.01822 0.13932 0.0
O465 O 0.25586 0.01942 0.12378 0.0
O466 O 0.26002 0.99338 0.10922 0.0
O467 O 0.27564 0.99188 0.12534 0.0
H468 H 0.25196 0.99492 0.13858 0.0
H469 H 0.23448 0.9839 0.15002 0.0
H470 H 0.22645 0.02042 0.16011 0.0
H471 H 0.24402 0.03142 0.14851 0.0
H472 H 0.29907 0.0683 0.12588 0.0
H473 H 0.28695 0.04535 0.12413 0.0
H474 H 0.32488 0.06001 0.10059 0.0
H475 H 0.31252 0.03722 0.09872 0.0
H476 H 0.29911 0.96793 0.1012 0.0
H477 H 0.25645 0.94541 0.09514 0.0
H478 H 0.24983 0.96328 0.10492 0.0
H479 H 0.2923 0.98594 0.11068 0.0
C480 C 0.40219 0.28567 0.04926 0.0
C481 C 0.39854 0.28507 0.06102 0.0
C482 C 0.40226 0.26346 0.06231 0.0
C483 C 0.39851 0.27405 0.06746 0.0
C484 C 0.40596 0.26414 0.05052 0.0
C485 C 0.40589 0.27514 0.04406 0.0
U486 U 0.40407 0.32135 0.04991 0.0
O487 O 0.41582 0.33688 0.04046 0.0
O488 O 0.39303 0.33279 0.0376 0.0
C489 C 0.40447 0.33935 0.03429 0.0
C490 C 0.40253 0.29737 0.04256 0.0
C491 C 0.40398 0.34075 0.0209 0.0
C492 C 0.39286 0.33486 0.99928 0.0
C493 C 0.39365 0.33264 0.01183 0.0
C494 C 0.41293 0.35308 0.00462 0.0
C495 C 0.40242 0.34518 0.99553 0.0
C496 C 0.41366 0.3509 0.01716 0.0
C497 C 0.40644 0.33814 0.08237 0.0
C498 C 0.3982 0.35638 0.08909 0.0
C499 C 0.41592 0.34925 0.10283 0.0
C500 C 0.41559 0.33963 0.09377 0.0
C501 C 0.40702 0.35757 0.10072 0.0
C502 C 0.3979 0.34674 0.07999 0.0
C503 C 0.40544 0.32703 0.07361 0.0
O504 O 0.39156 0.30207 0.0421 0.0
O505 O 0.41432 0.30629 0.04524 0.0
O506 O 0.41646 0.32715 0.06871 0.0
O507 O 0.39365 0.3228 0.0657 0.0
H508 H 0.3958 0.29317 0.06527 0.0
H509 H 0.3958 0.27391 0.07658 0.0
H510 H 0.40877 0.25611 0.04625 0.0
H511 H 0.40879 0.27545 0.03501 0.0
H512 H 0.38475 0.3285 0.99249 0.0
H513 H 0.38606 0.32469 0.01442 0.0
H514 H 0.42037 0.36118 0.00209 0.0
H515 H 0.42166 0.35733 0.02399 0.0
H516 H 0.39118 0.36259 0.08718 0.0
H517 H 0.42305 0.35006 0.11157 0.0
H518 H 0.42229 0.33313 0.09579 0.0
H519 H 0.39077 0.34582 0.07123 0.0
C520 C 0.00606 0.91208 0.25318 0.0
C521 C 0.00589 0.90928 0.24057 0.0
C522 C 0.03106 0.91755 0.24387 0.0
C523 C 0.01827 0.91196 0.23596 0.0
C524 C 0.03114 0.92038 0.25651 0.0
C525 C 0.01874 0.91766 0.26111 0.0
U526 U 0.9668 0.90166 0.24721 0.0
O527 O 0.95219 0.88891 0.25681 0.0
O528 O 0.95141 0.90913 0.2553 0.0
C529 C 0.94673 0.89823 0.26006 0.0
C530 C 0.99303 0.90934 0.25802 0.0
C531 C 0.94487 0.89933 0.27307 0.0
C532 C 0.9495 0.89431 0.29458 0.0
C533 C 0.95228 0.89383 0.28253 0.0
C534 C 0.93214 0.90608 0.28792 0.0
C535 C 0.93932 0.90038 0.29739 0.0
C536 C 0.93487 0.90553 0.27591 0.0
C537 C 0.94799 0.89366 0.21343 0.0
C538 C 0.92328 0.88363 0.20721 0.0
C539 C 0.9367 0.89266 0.19192 0.0
C540 C 0.94863 0.89631 0.20114 0.0
C541 C 0.92386 0.88624 0.19482 0.0
C542 C 0.93524 0.88734 0.21644 0.0
C543 C 0.9607 0.89767 0.22295 0.0
O544 O 0.98514 0.91733 0.25511 0.0
O545 O 0.98601 0.89718 0.25659 0.0
O546 O 0.96341 0.88882 0.23027 0.0
O547 O 0.96269 0.90904 0.22888 0.0
H548 H 0.99616 0.90505 0.23429 0.0
H549 H 0.01781 0.90982 0.22616 0.0
H550 H 0.04082 0.92455 0.26287 0.0
H551 H 0.01905 0.91989 0.27087 0.0
H552 H 0.9553 0.88995 0.30168 0.0
H553 H 0.9601 0.88902 0.2806 0.0
H554 H 0.92411 0.91066 0.28971 0.0
H555 H 0.92896 0.90976 0.26875 0.0
H556 H 0.91362 0.87859 0.20976 0.0
H557 H 0.9375 0.89506 0.18255 0.0
H558 H 0.95838 0.90127 0.19868 0.0
H559 H 0.93455 0.88525 0.22591 0.0
C560 C 0.11003 0.71145 0.58229 0.0
C561 C 0.10453 0.71083 0.59321 0.0
C562 C 0.1098 0.73431 0.59587 0.0
C563 C 0.10437 0.72214 0.5999 0.0
C564 C 0.11533 0.73484 0.58492 0.0
C565 C 0.11543 0.72351 0.5782 0.0
U566 U 0.10869 0.67581 0.5812 0.0
O567 O 0.09853 0.65993 0.56689 0.0
O568 O 0.1212 0.66465 0.57305 0.0
C569 C 0.11038 0.65769 0.5652 0.0
C570 C 0.11051 0.6996 0.57536 0.0
C571 C 0.1122 0.65626 0.55226 0.0
C572 C 0.10823 0.66149 0.53082 0.0
C573 C 0.10688 0.66354 0.54316 0.0
C574 C 0.1205 0.6451 0.53664 0.0
C575 C 0.11497 0.65216 0.52739 0.0
C576 C 0.11909 0.64712 0.54893 0.0
C577 C 0.1039 0.65827 0.61025 0.0
C578 C 0.10767 0.63688 0.61289 0.0
C579 C 0.09612 0.6463 0.62708 0.0
C580 C 0.09747 0.65737 0.62061 0.0
C581 C 0.10123 0.63594 0.62332 0.0
C582 C 0.10892 0.64794 0.60636 0.0
C583 C 0.10524 0.67002 0.6036 0.0
O584 O 0.12144 0.69516 0.57928 0.0
O585 O 0.09881 0.69053 0.57301 0.0
O586 O 0.09484 0.66992 0.59453 0.0
O587 O 0.11749 0.67473 0.60074 0.0
H588 H 0.10037 0.70158 0.59656 0.0
H589 H 0.09985 0.72133 0.60818 0.0
H590 H 0.1198 0.74402 0.58163 0.0
H591 H 0.11982 0.72417 0.56985 0.0
H592 H 0.10374 0.66702 0.52394 0.0
H593 H 0.10154 0.67068 0.54555 0.0
H594 H 0.12599 0.63804 0.53441 0.0
H595 H 0.12332 0.64145 0.55584 0.0
H596 H 0.11157 0.62901 0.60969 0.0
H597 H 0.09126 0.64593 0.63516 0.0
H598 H 0.09352 0.66526 0.62372 0.0
H599 H 0.11383 0.64843 0.5983 0.0
C600 C 0.97117 0.61025 0.7989 0.0
C601 C 0.95941 0.61513 0.79559 0.0
C602 C 0.95585 0.61528 0.81697 0.0
C603 C 0.95181 0.61758 0.80452 0.0
C604 C 0.96769 0.61044 0.82025 0.0
C605 C 0.97526 0.60793 0.81128 0.0
U606 U 0.97889 0.61431 0.76669 0.0
O607 O 0.9985 0.61871 0.75959 0.0
O608 O 0.9825 0.60083 0.75274 0.0
C609 C 0.9951 0.60781 0.75254 0.0
C610 C 0.97922 0.60778 0.78949 0.0
C611 C 0.0062 0.601 0.75204 0.0
C612 C 0.01374 0.58118 0.74962 0.0
C613 C 0.00373 0.58751 0.75219 0.0
C614 C 0.02899 0.60172 0.74711 0.0
C615 C 0.02639 0.58819 0.74679 0.0
C616 C 0.01902 0.60801 0.74968 0.0
C617 C 0.95829 0.63342 0.74576 0.0
C618 C 0.96109 0.63608 0.72443 0.0
C619 C 0.94444 0.64525 0.73277 0.0
C620 C 0.94818 0.64049 0.74418 0.0
C621 C 0.95075 0.643 0.72271 0.0
C622 C 0.96483 0.63133 0.73586 0.0
C623 C 0.96167 0.62803 0.75765 0.0
O624 O 0.97199 0.60016 0.77972 0.0
O625 O 0.98785 0.61804 0.78662 0.0
O626 O 0.97418 0.63317 0.7641 0.0
O627 O 0.95812 0.61538 0.75733 0.0
H628 H 0.95616 0.61709 0.78609 0.0
H629 H 0.94289 0.62149 0.8017 0.0
H630 H 0.97102 0.60846 0.82972 0.0
H631 H 0.98432 0.60419 0.81401 0.0
H632 H 0.01144 0.57077 0.7496 0.0
H633 H 0.99391 0.5818 0.7539 0.0
H634 H 0.03846 0.60746 0.74477 0.0
H635 H 0.02112 0.61838 0.74929 0.0
H636 H 0.96627 0.6343 0.71693 0.0
H637 H 0.9363 0.65036 0.73173 0.0
H638 H 0.94301 0.64216 0.75174 0.0
H639 H 0.97271 0.62592 0.73696 0.0
C640 C 0.09085 0.21484 0.45688 0.0
C641 C 0.08951 0.21293 0.44398 0.0
C642 C 0.09247 0.23597 0.44211 0.0
C643 C 0.09027 0.22336 0.43668 0.0
C644 C 0.09394 0.23787 0.45507 0.0
C645 C 0.0931 0.22737 0.4624 0.0
U646 U 0.09063 0.17999 0.45824 0.0
O647 O 0.10026 0.16898 0.47211 0.0
O648 O 0.07755 0.16381 0.4659 0.0
C649 C 0.08823 0.16153 0.47337 0.0
C650 C 0.09006 0.2037 0.46443 0.0
C651 C 0.08631 0.15867 0.48606 0.0
C652 C 0.09169 0.16374 0.50842 0.0
C653 C 0.09275 0.16743 0.49644 0.0
C654 C 0.07748 0.1427 0.49971 0.0
C655 C 0.08426 0.15123 0.51018 0.0
C656 C 0.07852 0.14639 0.4878 0.0
C657 C 0.09396 0.16323 0.4278 0.0
C658 C 0.08751 0.14009 0.42239 0.0
C659 C 0.10029 0.1545 0.40956 0.0
C660 C 0.1004 0.16505 0.41747 0.0
C661 C 0.09368 0.1419 0.41182 0.0
C662 C 0.08769 0.15067 0.43035 0.0
C663 C 0.09343 0.17459 0.43547 0.0
O664 O 0.07877 0.19429 0.46099 0.0
O665 O 0.10147 0.19959 0.46661 0.0
O666 O 0.10406 0.17898 0.44458 0.0
O667 O 0.08138 0.17433 0.43863 0.0
H668 H 0.08791 0.20334 0.43956 0.0
H669 H 0.08935 0.22157 0.42676 0.0
H670 H 0.09558 0.24745 0.45953 0.0
H671 H 0.0942 0.22903 0.47235 0.0
H672 H 0.09705 0.17052 0.5163 0.0
H673 H 0.09884 0.17697 0.49531 0.0
H674 H 0.07145 0.1331 0.50071 0.0
H675 H 0.07345 0.1395 0.47992 0.0
H676 H 0.08246 0.1305 0.42445 0.0
H677 H 0.10497 0.15625 0.40143 0.0
H678 H 0.10527 0.17469 0.41537 0.0
H679 H 0.08274 0.14908 0.43835 0.0
C680 C 0.50652 0.39722 0.27751 0.0
C681 C 0.50593 0.39594 0.26467 0.0
C682 C 0.48859 0.40846 0.26133 0.0
C683 C 0.49708 0.40149 0.25668 0.0
C684 C 0.48909 0.40962 0.27422 0.0
C685 C 0.49804 0.40407 0.28226 0.0
U686 U 0.5326 0.37767 0.27952 0.0
O687 O 0.5533 0.37991 0.29095 0.0
O688 O 0.53692 0.36223 0.29109 0.0
C689 C 0.54967 0.36885 0.29579 0.0
C690 C 0.51613 0.39142 0.28569 0.0
C691 C 0.554 0.36913 0.30929 0.0
C692 C 0.55562 0.37828 0.33022 0.0
C693 C 0.55042 0.37759 0.31747 0.0
C694 C 0.56768 0.36183 0.32668 0.0
C695 C 0.56447 0.37051 0.33496 0.0
C696 C 0.56249 0.36115 0.31398 0.0
C697 C 0.53888 0.36703 0.24749 0.0
C698 C 0.55908 0.36023 0.24324 0.0
C699 C 0.53975 0.35973 0.22656 0.0
C700 C 0.5327 0.36423 0.23496 0.0
C701 C 0.55316 0.35798 0.23053 0.0
C702 C 0.55199 0.36475 0.25167 0.0
C703 C 0.5319 0.37324 0.25574 0.0
O704 O 0.51278 0.37873 0.28482 0.0
O705 O 0.52935 0.39637 0.28551 0.0
O706 O 0.53963 0.38373 0.26238 0.0
O707 O 0.52379 0.36556 0.26196 0.0
H708 H 0.51235 0.39063 0.26082 0.0
H709 H 0.49676 0.40016 0.24681 0.0
H710 H 0.48271 0.41496 0.27809 0.0
H711 H 0.49837 0.40515 0.29216 0.0
H712 H 0.55281 0.38497 0.33635 0.0
H713 H 0.54383 0.3838 0.31398 0.0
H714 H 0.57464 0.35586 0.32993 0.0
H715 H 0.5654 0.3546 0.30778 0.0
H716 H 0.56943 0.35905 0.24658 0.0
H717 H 0.53481 0.35788 0.21688 0.0
H718 H 0.52256 0.36589 0.2316 0.0
H719 H 0.55692 0.36687 0.26134 0.0
C720 C 0.31183 0.75832 0.90861 0.0
C721 C 0.31269 0.75799 0.89601 0.0
C722 C 0.30957 0.73468 0.89515 0.0
C723 C 0.31156 0.74629 0.88934 0.0
C724 C 0.30864 0.73507 0.90779 0.0
C725 C 0.30978 0.7468 0.91447 0.0
U726 U 0.31836 0.79441 0.90906 0.0
O727 O 0.30879 0.80824 0.91743 0.0
O728 O 0.33125 0.81007 0.92264 0.0
C729 C 0.32057 0.81437 0.9246 0.0
C730 C 0.3133 0.7707 0.91561 0.0
C731 C 0.31995 0.81738 0.93763 0.0
C732 C 0.32198 0.81232 0.95914 0.0
C733 C 0.32187 0.80879 0.9467 0.0
C734 C 0.31795 0.83292 0.95345 0.0
C735 C 0.32011 0.82448 0.96267 0.0
C736 C 0.31787 0.82939 0.94107 0.0
C737 C 0.32441 0.80961 0.87897 0.0
C738 C 0.33556 0.83214 0.87757 0.0
C739 C 0.32191 0.81896 0.85917 0.0
C740 C 0.31905 0.80838 0.86622 0.0
C741 C 0.33026 0.83094 0.86476 0.0
C742 C 0.3326 0.82159 0.88463 0.0
C743 C 0.32139 0.7983 0.88617 0.0
O744 O 0.32585 0.77846 0.91747 0.0
O745 O 0.30345 0.7766 0.91196 0.0
O746 O 0.30923 0.79579 0.8896 0.0
O747 O 0.33158 0.79721 0.89497 0.0
H748 H 0.31425 0.7668 0.89133 0.0
H749 H 0.3121 0.74634 0.87959 0.0
H750 H 0.30725 0.72634 0.91259 0.0
H751 H 0.30914 0.7469 0.92421 0.0
H752 H 0.32352 0.80554 0.96598 0.0
H753 H 0.32344 0.79944 0.9442 0.0
H754 H 0.31669 0.84242 0.95583 0.0
H755 H 0.31642 0.83617 0.93419 0.0
H756 H 0.34186 0.8413 0.88216 0.0
H757 H 0.31776 0.81771 0.84931 0.0
H758 H 0.3127 0.79921 0.8617 0.0
H759 H 0.33672 0.82278 0.89449 0.0
C760 C 0.93327 0.34848 0.73358 0.0
C761 C 0.93283 0.3428 0.74485 0.0
C762 C 0.95791 0.35105 0.75126 0.0
C763 C 0.94502 0.344 0.75355 0.0
C764 C 0.95832 0.35656 0.73985 0.0
C765 C 0.9461 0.35528 0.73109 0.0
U766 U 0.89492 0.34591 0.72867 0.0
O767 O 0.88141 0.35605 0.71728 0.0
O768 O 0.87726 0.33493 0.71458 0.0
C769 C 0.87387 0.34541 0.71072 0.0
C770 C 0.92027 0.34801 0.72484 0.0
C771 C 0.87063 0.34601 0.6972 0.0
C772 C 0.87551 0.35551 0.67819 0.0
C773 C 0.87966 0.35418 0.69081 0.0
C774 C 0.85354 0.34013 0.67812 0.0
C775 C 0.86225 0.34871 0.67177 0.0
C776 C 0.85768 0.33882 0.6907 0.0
C777 C 0.87896 0.34325 0.75811 0.0
C778 C 0.85863 0.34992 0.76231 0.0
C779 C 0.86749 0.33443 0.77471 0.0
C780 C 0.87798 0.33512 0.76778 0.0
C781 C 0.85778 0.34192 0.77215 0.0
C782 C 0.86909 0.35053 0.7553 0.0
C783 C 0.89067 0.34433 0.75151 0.0
O784 O 0.91084 0.33694 0.72348 0.0
O785 O 0.91508 0.35802 0.72614 0.0
O786 O 0.89481 0.35533 0.74673 0.0
O787 O 0.89026 0.3342 0.74418 0.0
H788 H 0.92302 0.33758 0.74701 0.0
H789 H 0.9443 0.33944 0.76211 0.0
H790 H 0.96802 0.36219 0.73782 0.0
H791 H 0.94662 0.35984 0.7225 0.0
H792 H 0.88244 0.36224 0.67359 0.0
H793 H 0.88974 0.3598 0.69565 0.0
H794 H 0.84338 0.33457 0.67341 0.0
H795 H 0.85059 0.33243 0.69544 0.0
H796 H 0.85122 0.3557 0.76004 0.0
H797 H 0.86724 0.3283 0.78232 0.0
H798 H 0.88552 0.32946 0.77011 0.0
H799 H 0.86956 0.35682 0.74782 0.0
C800 C 0.35516 0.24523 0.53647 0.0
C801 C 0.35473 0.24516 0.54916 0.0
C802 C 0.34655 0.26482 0.54863 0.0
C803 C 0.3505 0.25485 0.55518 0.0
C804 C 0.34697 0.26483 0.53588 0.0
C805 C 0.35126 0.25512 0.52986 0.0
U806 U 0.36478 0.21354 0.53837 0.0
O807 O 0.35925 0.19598 0.52566 0.0
O808 O 0.38125 0.20615 0.53195 0.0
C809 C 0.37227 0.1965 0.52498 0.0
C810 C 0.35945 0.23485 0.5302 0.0
C811 C 0.37523 0.19325 0.51272 0.0
C812 C 0.36955 0.19103 0.49016 0.0
C813 C 0.36756 0.19585 0.50159 0.0
C814 C 0.38717 0.18136 0.5009 0.0
C815 C 0.37914 0.18344 0.48973 0.0
C816 C 0.38523 0.18622 0.51225 0.0
C817 C 0.36405 0.19882 0.56948 0.0
C818 C 0.37036 0.17867 0.57362 0.0
C819 C 0.36141 0.1895 0.58895 0.0
C820 C 0.36025 0.1993 0.58112 0.0
C821 C 0.3664 0.17902 0.58527 0.0
C822 C 0.36916 0.18848 0.56576 0.0
C823 C 0.36237 0.20907 0.56131 0.0
O824 O 0.37209 0.23384 0.53463 0.0
O825 O 0.3502 0.22366 0.5283 0.0
O826 O 0.35189 0.20582 0.55191 0.0
O827 O 0.37384 0.21585 0.55826 0.0
H828 H 0.35761 0.23753 0.5544 0.0
H829 H 0.35008 0.25439 0.56493 0.0
H830 H 0.34413 0.27242 0.53057 0.0
H831 H 0.35151 0.25533 0.52005 0.0
H832 H 0.36318 0.19275 0.48172 0.0
H833 H 0.35975 0.20124 0.50174 0.0
H834 H 0.39478 0.17574 0.50088 0.0
H835 H 0.39125 0.1841 0.52072 0.0
H836 H 0.37411 0.17067 0.57047 0.0
H837 H 0.35847 0.19017 0.59793 0.0
H838 H 0.35632 0.20724 0.58414 0.0
H839 H 0.37209 0.18797 0.55676 0.0
C840 C 0.48632 0.60322 0.26454 0.0
C841 C 0.48842 0.60536 0.27748 0.0
C842 C 0.46343 0.59866 0.27681 0.0
C843 C 0.47709 0.60313 0.28355 0.0
C844 C 0.46139 0.59646 0.26383 0.0
C845 C 0.47276 0.59875 0.25775 0.0
U846 U 0.52515 0.61105 0.26696 0.0
O847 O 0.53865 0.60362 0.25642 0.0
O848 O 0.53921 0.62427 0.25716 0.0
C849 C 0.5436 0.61489 0.25241 0.0
C850 C 0.49832 0.60557 0.25824 0.0
C851 C 0.54417 0.61493 0.23912 0.0
C852 C 0.53515 0.60644 0.21768 0.0
C853 C 0.53368 0.60694 0.23012 0.0
C854 C 0.55734 0.62221 0.22308 0.0
C855 C 0.54709 0.61395 0.21404 0.0
C856 C 0.55588 0.62267 0.23549 0.0
C857 C 0.54708 0.61544 0.29965 0.0
C858 C 0.57182 0.6257 0.30494 0.0
C859 C 0.56024 0.61342 0.31985 0.0
C860 C 0.54768 0.61066 0.31137 0.0
C861 C 0.57243 0.62107 0.31678 0.0
C862 C 0.55926 0.62286 0.29642 0.0
C863 C 0.53365 0.61269 0.29105 0.0
O864 O 0.50623 0.61742 0.26009 0.0
O865 O 0.50549 0.59677 0.25933 0.0
O866 O 0.53035 0.60177 0.28406 0.0
O867 O 0.5309 0.6224 0.28499 0.0
H868 H 0.49884 0.60873 0.28288 0.0
H869 H 0.47906 0.60472 0.29356 0.0
H870 H 0.45101 0.5931 0.25836 0.0
H871 H 0.47097 0.59703 0.24775 0.0
H872 H 0.527 0.60009 0.21092 0.0
H873 H 0.52451 0.60094 0.23273 0.0
H874 H 0.56675 0.62799 0.22066 0.0
H875 H 0.5641 0.62886 0.24231 0.0
H876 H 0.58107 0.6315 0.30226 0.0
H877 H 0.56031 0.60984 0.32894 0.0
H878 H 0.53838 0.60491 0.31401 0.0
H879 H 0.55902 0.62654 0.28736 0.0
C880 C 0.14728 0.80383 0.05295 0.0
C881 C 0.14078 0.81404 0.05287 0.0
C882 C 0.14383 0.81749 0.03165 0.0
C883 C 0.13902 0.82077 0.04231 0.0
C884 C 0.15048 0.80732 0.03182 0.0
C885 C 0.15216 0.80052 0.04238 0.0
U886 U 0.14737 0.80274 0.08707 0.0
O887 O 0.13863 0.78731 0.09821 0.0
O888 O 0.16104 0.79654 0.10222 0.0
C889 C 0.15088 0.78732 0.10469 0.0
C890 C 0.14918 0.79686 0.06415 0.0
C891 C 0.15362 0.7745 0.10645 0.0
C892 C 0.16735 0.75883 0.10482 0.0
C893 C 0.16476 0.77088 0.10239 0.0
C894 C 0.14762 0.75387 0.1152 0.0
C895 C 0.1588 0.7502 0.11127 0.0
C896 C 0.1451 0.76588 0.11284 0.0
C897 C 0.13917 0.83181 0.10298 0.0
C898 C 0.14308 0.83703 0.12523 0.0
C899 C 0.13007 0.84868 0.11125 0.0
C900 C 0.13173 0.84128 0.10114 0.0
C901 C 0.13586 0.84675 0.12341 0.0
C902 C 0.14469 0.82958 0.11509 0.0
C903 C 0.14133 0.82466 0.09212 0.0
O904 O 0.16005 0.80249 0.07267 0.0
O905 O 0.13786 0.79263 0.06872 0.0
O906 O 0.13182 0.81392 0.0881 0.0
O907 O 0.15408 0.8236 0.09229 0.0
H908 H 0.13709 0.81684 0.061 0.0
H909 H 0.13407 0.82869 0.04257 0.0
H910 H 0.15423 0.80451 0.02373 0.0
H911 H 0.15726 0.7927 0.04231 0.0
H912 H 0.17599 0.75625 0.1016 0.0
H913 H 0.17151 0.77735 0.09742 0.0
H914 H 0.14098 0.74756 0.12038 0.0
H915 H 0.13653 0.76851 0.11615 0.0
H916 H 0.14755 0.83522 0.13448 0.0
H917 H 0.12462 0.8562 0.1095 0.0
H918 H 0.12741 0.84313 0.09185 0.0
H919 H 0.15039 0.82222 0.11668 0.0
C920 C 0.78361 0.00604 0.66117 0.0
C921 C 0.7812 0.99412 0.66637 0.0
C922 C 0.80552 0.99391 0.66773 0.0
C923 C 0.79206 0.98816 0.66968 0.0
C924 C 0.80787 0.0058 0.66239 0.0
C925 C 0.797 0.01182 0.65918 0.0
U926 U 0.74518 0.00257 0.6507 0.0
O927 O 0.73087 0.01342 0.65607 0.0
O928 O 0.73349 0.01207 0.63667 0.0
C929 C 0.72791 0.01723 0.64492 0.0
C930 C 0.77208 0.01217 0.65743 0.0
C931 C 0.72778 0.03097 0.64406 0.0
C932 C 0.72964 0.05231 0.65379 0.0
C933 C 0.7316 0.03984 0.65461 0.0
C934 C 0.7205 0.04746 0.63182 0.0
C935 C 0.72384 0.05619 0.64242 0.0
C936 C 0.7224 0.03498 0.63265 0.0
C937 C 0.72182 0.96818 0.64664 0.0
C938 C 0.69758 0.96242 0.63635 0.0
C939 C 0.70756 0.94652 0.64711 0.0
C940 C 0.72032 0.95566 0.65039 0.0
C941 C 0.69606 0.94976 0.63996 0.0
C942 C 0.71035 0.97158 0.6397 0.0
C943 C 0.73548 0.97746 0.64983 0.0
O944 O 0.76582 0.00952 0.64578 0.0
O945 O 0.76334 0.01152 0.66514 0.0
O946 O 0.7375 0.98512 0.65995 0.0
O947 O 0.74004 0.98344 0.64057 0.0
H948 H 0.77089 0.98937 0.6678 0.0
H949 H 0.78985 0.97891 0.67357 0.0
H950 H 0.81814 0.01049 0.66083 0.0
H951 H 0.79904 0.02097 0.65509 0.0
H952 H 0.73248 0.05885 0.66209 0.0
H953 H 0.73577 0.03706 0.66356 0.0
H954 H 0.71586 0.05006 0.62295 0.0
H955 H 0.71921 0.02831 0.62441 0.0
H956 H 0.68888 0.96526 0.63097 0.0
H957 H 0.70681 0.93683 0.6499 0.0
H958 H 0.72909 0.95288 0.65574 0.0
H959 H 0.71131 0.98125 0.63678 0.0
C960 C 0.71211 0.95983 0.34426 0.0
C961 C 0.71011 0.94881 0.3509 0.0
C962 C 0.68551 0.94279 0.34152 0.0
C963 C 0.69691 0.94041 0.3496 0.0
C964 C 0.68763 0.95371 0.33471 0.0
C965 C 0.70082 0.96218 0.3361 0.0
U966 U 0.7515 0.96678 0.35247 0.0
O967 O 0.7677 0.97878 0.3438 0.0
O968 O 0.76696 0.98314 0.36333 0.0
C969 C 0.77279 0.98676 0.3538 0.0
C970 C 0.72591 0.96887 0.34574 0.0
C971 C 0.77557 1.00061 0.35191 0.0
C972 C 0.77034 0.02155 0.35378 0.0
C973 C 0.76677 0.00821 0.3548 0.0
C974 C 0.79124 0.01969 0.34657 0.0
C975 C 0.78275 0.02747 0.34985 0.0
C976 C 0.78769 0.00642 0.34763 0.0
C977 C 0.76899 0.94012 0.36188 0.0
C978 C 0.79404 0.945 0.36876 0.0
C979 C 0.78057 0.92276 0.36516 0.0
C980 C 0.7684 0.92692 0.36182 0.0
C981 C 0.79356 0.93175 0.36862 0.0
C982 C 0.78187 0.94914 0.36539 0.0
C983 C 0.75623 0.94442 0.35796 0.0
O984 O 0.73289 0.97157 0.35718 0.0
O985 O 0.73359 0.96667 0.33777 0.0
O986 O 0.75446 0.94792 0.34659 0.0
O987 O 0.75357 0.95244 0.36601 0.0
H988 H 0.71874 0.94674 0.35714 0.0
H989 H 0.69565 0.93197 0.35483 0.0
H990 H 0.67903 0.95583 0.32848 0.0
H991 H 0.7022 0.97061 0.33086 0.0
H992 H 0.7636 0.02726 0.35642 0.0
H993 H 0.75731 0.0039 0.35808 0.0
H994 H 0.8007 0.02387 0.34324 0.0
H995 H 0.79457 1.00069 0.34529 0.0
H996 H 0.80381 0.95219 0.37153 0.0
H997 H 0.77983 0.91249 0.36477 0.0
H998 H 0.75854 0.91983 0.35906 0.0
H999 H 0.78251 0.95939 0.36546 0.0
C1000 C 0.74439 0.95344 0.12658 0.0
C1001 C 0.75482 0.95554 0.11939 0.0
C1002 C 0.75868 0.93425 0.12306 0.0
C1003 C 0.76188 0.94603 0.11762 0.0
C1004 C 0.74811 0.93219 0.13019 0.0
C1005 C 0.74104 0.9417 0.13192 0.0
U1006 U 0.74144 0.98767 0.12318 0.0
O1007 O 0.72339 0.99606 0.11863 0.0
O1008 O 0.73814 0.00219 0.13624 0.0
C1009 C 0.72652 0.00317 0.12923 0.0
C1010 C 0.73729 0.96362 0.12878 0.0
C1011 C 0.71489 0.00405 0.13547 0.0
C1012 C 0.70317 1.00132 0.15316 0.0
C1013 C 0.7134 0.99889 0.14686 0.0
C1014 C 0.69561 0.01376 0.1366 0.0
C1015 C 0.69427 0.00896 0.14818 0.0
C1016 C 0.70579 0.01132 0.13034 0.0
C1017 C 0.76709 0.00949 0.10678 0.0
C1018 C 0.76696 0.032 0.10502 0.0
C1019 C 0.78466 0.02359 0.0976 0.0
C1020 C 0.7788 0.01141 0.10116 0.0
C1021 C 0.77891 0.03408 0.09962 0.0
C1022 C 0.7611 0.01981 0.10857 0.0
C1023 C 0.76153 0.99687 0.11115 0.0
O1024 O 0.74482 0.97341 0.13651 0.0
O1025 O 0.73041 0.9672 0.1188 0.0
O1026 O 0.74889 0.99076 0.10559 0.0
O1027 O 0.76349 0.99657 0.12325 0.0
H1028 H 0.75762 0.96459 0.11526 0.0
H1029 H 0.77007 0.94805 0.11223 0.0
H1030 H 0.74526 0.92319 0.13439 0.0
H1031 H 0.73301 0.93992 0.1375 0.0
H1032 H 0.70233 0.99733 0.16198 0.0
H1033 H 0.72031 0.99324 0.15102 0.0
H1034 H 0.68916 0.01985 0.13254 0.0
H1035 H 0.70684 0.0155 0.12163 0.0
H1036 H 0.76217 0.03981 0.10657 0.0
H1037 H 0.79397 0.02489 0.09363 0.0
H1038 H 0.78357 0.00355 0.09975 0.0
H1039 H 0.75203 0.01847 0.11289 0.0
C1040 C 0.70664 0.95521 0.89035 0.0
C1041 C 0.69724 0.95449 0.89849 0.0
C1042 C 0.6883 0.93141 0.89285 0.0
C1043 C 0.68822 0.9427 0.89979 0.0
C1044 C 0.69802 0.93213 0.88495 0.0
C1045 C 0.7071 0.94394 0.88371 0.0
U1046 U 0.71184 0.9912 0.8909 0.0
O1047 O 0.73041 0.00737 0.89643 0.0
O1048 O 0.71834 0.00498 0.87745 0.0
C1049 C 0.72964 0.01127 0.88519 0.0
C1050 C 0.71516 0.9678 0.8881 0.0
C1051 C 0.74276 0.01413 0.88038 0.0
C1052 C 0.75649 0.01131 0.86477 0.0
C1053 C 0.74414 0.00776 0.86941 0.0
C1054 C 0.7663 0.0274 0.88211 0.0
C1055 C 0.76769 0.02121 0.87105 0.0
C1056 C 0.75397 0.02391 0.88669 0.0
C1057 C 0.68404 0.00511 0.90212 0.0
C1058 C 0.68561 0.0281 0.90429 0.0
C1059 C 0.66439 0.01272 0.9065 0.0
C1060 C 0.67044 0.00257 0.9044 0.0
C1061 C 0.67186 0.0256 0.90637 0.0
C1062 C 0.69164 0.01792 0.90213 0.0
C1063 C 0.68995 0.99426 0.89943 0.0
O1064 O 0.70928 0.97346 0.87903 0.0
O1065 O 0.72111 0.97569 0.89804 0.0
O1066 O 0.70175 0.9941 0.90663 0.0
O1067 O 0.68978 0.99152 0.88765 0.0
H1068 H 0.69665 0.9631 0.90366 0.0
H1069 H 0.68103 0.94248 0.90609 0.0
H1070 H 0.69826 0.92367 0.87935 0.0
H1071 H 0.71422 0.94434 0.8773 0.0
H1072 H 0.75728 0.00631 0.85627 0.0
H1073 H 0.73566 1.00014 0.86436 0.0
H1074 H 0.77463 0.0352 0.88707 0.0
H1075 H 0.7531 0.02902 0.89511 0.0
H1076 H 0.69158 0.03791 0.90399 0.0
H1077 H 0.65386 0.01047 0.90822 0.0
H1078 H 0.66445 0.99273 0.90443 0.0
H1079 H 0.70215 0.02004 0.90033 0.0
C1080 C 0.59094 0.71498 0.95847 0.0
C1081 C 0.58898 0.71306 0.94552 0.0
C1082 C 0.593 0.73622 0.94384 0.0
C1083 C 0.58997 0.72356 0.93828 0.0
C1084 C 0.59502 0.7381 0.95685 0.0
C1085 C 0.59397 0.72754 0.9641 0.0
U1086 U 0.58729 0.67937 0.95974 0.0
O1087 O 0.59727 0.6679 0.97292 0.0
O1088 O 0.57455 0.66469 0.96922 0.0
C1089 C 0.58543 0.66189 0.97592 0.0
C1090 C 0.58996 0.70384 0.966 0.0
C1091 C 0.58524 0.66052 0.98928 0.0
C1092 C 0.59721 0.658 0.00994 0.0
C1093 C 0.5976 0.66112 0.99773 0.0
C1094 C 0.57213 0.65392 0.00562 0.0
C1095 C 0.58445 0.65413 0.01397 0.0
C1096 C 0.57251 0.65702 0.99342 0.0
C1097 C 0.58447 0.66044 0.92843 0.0
C1098 C 0.59227 0.64163 0.92255 0.0
C1099 C 0.57239 0.64663 0.90982 0.0
C1100 C 0.57381 0.65741 0.91794 0.0
C1101 C 0.58167 0.63868 0.91196 0.0
C1102 C 0.59364 0.65239 0.93074 0.0
C1103 C 0.58612 0.67236 0.93636 0.0
O1104 O 0.57789 0.69528 0.96359 0.0
O1105 O 0.60058 0.69859 0.96694 0.0
O1106 O 0.59786 0.67646 0.94436 0.0
O1107 O 0.57515 0.67339 0.9409 0.0
H1108 H 0.58673 0.70341 0.94102 0.0
H1109 H 0.58859 0.72177 0.92832 0.0
H1110 H 0.59725 0.7477 0.96142 0.0
H1111 H 0.59553 0.7292 0.97409 0.0
H1112 H 0.60692 0.65841 0.01616 0.0
H1113 H 0.60758 0.66362 0.99484 0.0
H1114 H 0.5621 0.6508 0.00833 0.0
H1115 H 0.56276 0.65622 0.98711 0.0
H1116 H 0.59951 0.63562 0.92448 0.0
H1117 H 0.56425 0.64475 0.90165 0.0
H1118 H 0.5667 0.66353 0.91591 0.0
H1119 H 0.60195 0.65446 0.93878 0.0
C1120 C 0.9859 0.10187 0.76251 0.0
C1121 C 0.98775 0.10335 0.77548 0.0
C1122 C 0.96267 0.09679 0.77435 0.0
C1123 C 0.97625 0.10086 0.78134 0.0
C1124 C 0.96089 0.09528 0.76134 0.0
C1125 C 0.97242 0.09782 0.75548 0.0
U1126 U 0.02483 0.10998 0.76535 0.0
O1127 O 0.03851 0.10288 0.75475 0.0
O1128 O 0.03897 0.12351 0.75587 0.0
C1129 C 0.04345 0.11428 0.75098 0.0
C1130 C 0.99805 0.10449 0.75641 0.0
C1131 C 0.0441 0.11459 0.73772 0.0
C1132 C 0.03487 0.10688 0.71611 0.0
C1133 C 0.0334 0.10711 0.72855 0.0
C1134 C 0.05751 0.12191 0.72184 0.0
C1135 C 0.04702 0.11417 0.71262 0.0
C1136 C 0.05605 0.1221 0.73425 0.0
C1137 C 0.04649 0.11381 0.79812 0.0
C1138 C 0.07125 0.12398 0.80357 0.0
C1139 C 0.05947 0.11165 0.81835 0.0
C1140 C 0.04697 0.10897 0.8098 0.0
C1141 C 0.07174 0.11927 0.81538 0.0
C1142 C 0.05874 0.12122 0.79498 0.0
C1143 C 0.03311 0.11115 0.78944 0.0
O1144 O 0.0059 0.11636 0.75856 0.0
O1145 O 0.00527 0.09573 0.75738 0.0
O1146 O 0.02993 0.10037 0.78226 0.0
O1147 O 0.03037 0.12097 0.78357 0.0
H1148 H 0.9981 0.1064 0.78106 0.0
H1149 H 0.97803 0.10192 0.79137 0.0
H1150 H 0.95057 0.09227 0.75569 0.0
H1151 H 0.97082 0.09664 0.74545 0.0
H1152 H 0.02653 0.10093 0.70922 0.0
H1153 H 0.02405 0.10129 0.73104 0.0
H1154 H 0.06708 0.1275 0.71954 0.0
H1155 H 0.06444 0.1279 0.7412 0.0
H1156 H 0.08055 0.12976 0.80096 0.0
H1157 H 0.05946 0.10802 0.82741 0.0
H1158 H 0.03762 0.10323 0.81237 0.0
H1159 H 0.05859 0.12495 0.78595 0.0
C1160 C 0.80745 0.26536 0.40494 0.0
C1161 C 0.80766 0.26505 0.39221 0.0
C1162 C 0.80503 0.24181 0.39128 0.0
C1163 C 0.80643 0.25339 0.38544 0.0
C1164 C 0.80467 0.24217 0.40404 0.0
C1165 C 0.80589 0.25386 0.41081 0.0
U1166 U 0.81599 0.30155 0.40597 0.0
O1167 O 0.80713 0.31597 0.41429 0.0
O1168 O 0.8293 0.31665 0.4199 0.0
C1169 C 0.81893 0.32152 0.42173 0.0
C1170 C 0.80935 0.27775 0.41209 0.0
C1171 C 0.81811 0.32437 0.43473 0.0
C1172 C 0.81831 0.31841 0.45586 0.0
C1173 C 0.81834 0.31512 0.4434 0.0
C1174 C 0.81752 0.34011 0.45098 0.0
C1175 C 0.818 0.33099 0.45982 0.0
C1176 C 0.81757 0.33682 0.43858 0.0
C1177 C 0.82403 0.31682 0.37634 0.0
C1178 C 0.83734 0.33874 0.3752 0.0
C1179 C 0.82211 0.32676 0.35684 0.0
C1180 C 0.81835 0.31619 0.3637 0.0
C1181 C 0.8317 0.33813 0.3625 0.0
C1182 C 0.83349 0.32821 0.38208 0.0
C1183 C 0.82005 0.3055 0.38334 0.0
O1184 O 0.82216 0.28498 0.41434 0.0
O1185 O 0.80006 0.28423 0.40831 0.0
O1186 O 0.80774 0.30359 0.38643 0.0
O1187 O 0.82973 0.30375 0.3923 0.0
H1188 H 0.80887 0.27386 0.38752 0.0
H1189 H 0.80653 0.25346 0.3756 0.0
H1190 H 0.80376 0.23346 0.40886 0.0
H1191 H 0.80579 0.25395 0.42065 0.0
H1192 H 0.81854 0.31111 0.46239 0.0
H1193 H 0.81871 0.30543 0.44057 0.0
H1194 H 0.8175 0.34993 0.45369 0.0
H1195 H 0.81744 0.3441 0.432 0.0
H1196 H 0.8446 0.34744 0.37985 0.0
H1197 H 0.81766 0.32598 0.34705 0.0
H1198 H 0.81104 0.30748 0.35912 0.0
H1199 H 0.8379 0.32896 0.39187 0.0
C1200 C 0.46468 0.88875 0.73794 0.0
C1201 C 0.46314 0.88563 0.74999 0.0
C1202 C 0.44444 0.8966 0.74915 0.0
C1203 C 0.4531 0.88949 0.75553 0.0
C1204 C 0.44603 0.89966 0.73704 0.0
C1205 C 0.45606 0.89576 0.7315 0.0
U1206 U 0.49618 0.87513 0.7416 0.0
O1207 O 0.50314 0.86204 0.72964 0.0
O1208 O 0.51632 0.88157 0.73556 0.0
C1209 C 0.51457 0.87071 0.72878 0.0
C1210 C 0.47563 0.88511 0.73233 0.0
C1211 C 0.51854 0.87174 0.71645 0.0
C1212 C 0.51364 0.86639 0.69412 0.0
C1213 C 0.50905 0.86664 0.70545 0.0
C1214 C 0.53713 0.87669 0.70455 0.0
C1215 C 0.52779 0.87124 0.69356 0.0
C1216 C 0.53255 0.87691 0.71584 0.0
C1217 C 0.50826 0.86497 0.77415 0.0
C1218 C 0.53088 0.86753 0.78739 0.0
C1219 C 0.5115 0.85016 0.79003 0.0
C1220 C 0.50296 0.85417 0.78032 0.0
C1221 C 0.52546 0.857 0.79384 0.0
C1222 C 0.52239 0.87146 0.77762 0.0
C1223 C 0.49869 0.86988 0.7649 0.0
O1224 O 0.48829 0.8921 0.73673 0.0
O1225 O 0.47486 0.87267 0.73122 0.0
O1226 O 0.4911 0.86159 0.75574 0.0
O1227 O 0.50357 0.8814 0.76135 0.0
H1228 H 0.4698 0.88031 0.75516 0.0
H1229 H 0.45233 0.88712 0.76491 0.0
H1230 H 0.43944 0.90499 0.73181 0.0
H1231 H 0.45713 0.89829 0.7222 0.0
H1232 H 0.50612 0.86229 0.68581 0.0
H1233 H 0.49817 0.86258 0.70562 0.0
H1234 H 0.54811 0.88036 0.70455 0.0
H1235 H 0.54009 0.88078 0.72421 0.0
H1236 H 0.54166 0.87288 0.79004 0.0
H1237 H 0.50702 0.84206 0.79488 0.0
H1238 H 0.49209 0.84904 0.77786 0.0
H1239 H 0.52684 0.87978 0.77302 0.0
C1240 C 0.94127 0.13511 0.20456 0.0
C1241 C 0.93352 0.14442 0.20413 0.0
C1242 C 0.92676 0.14024 0.1817 0.0
C1243 C 0.92641 0.14701 0.19282 0.0
C1244 C 0.93494 0.13124 0.18213 0.0
C1245 C 0.94212 0.12868 0.19348 0.0
U1246 U 0.93976 0.13221 0.23818 0.0
O1247 O 0.9413 0.11649 0.25021 0.0
O1248 O 0.95576 0.13561 0.25515 0.0
C1249 C 0.95213 0.12359 0.25795 0.0
C1250 C 0.94727 0.13124 0.21658 0.0
C1251 C 0.96348 0.11741 0.26206 0.0
C1252 C 0.98202 0.1077 0.25825 0.0
C1253 C 0.97151 0.11387 0.25392 0.0
C1254 C 0.97652 0.10869 0.27882 0.0
C1255 C 0.98455 0.10494 0.27075 0.0
C1256 C 0.9661 0.11483 0.27451 0.0
C1257 C 0.91076 0.14344 0.2499 0.0
C1258 C 0.90868 0.14339 0.27158 0.0
C1259 C 0.88976 0.14659 0.25615 0.0
C1260 C 0.89748 0.14564 0.2469 0.0
C1261 C 0.89521 0.14537 0.26861 0.0
C1262 C 0.91637 0.14239 0.2623 0.0
C1263 C 0.91837 0.14169 0.23997 0.0
O1264 O 0.95314 0.14071 0.22525 0.0
O1265 O 0.93914 0.12138 0.22058 0.0
O1266 O 0.91715 0.12962 0.23617 0.0
O1267 O 0.93119 0.14884 0.24145 0.0
H1268 H 0.93262 0.14943 0.21259 0.0
H1269 H 0.9204 0.15415 0.19283 0.0
H1270 H 0.93532 0.12574 0.17378 0.0
H1271 H 0.94794 0.12137 0.19364 0.0
H1272 H 0.988 0.1049 0.2518 0.0
H1273 H 0.96958 0.11579 0.24426 0.0
H1274 H 0.97836 0.10698 0.28854 0.0
H1275 H 0.96003 0.11756 0.28092 0.0
H1276 H 0.91328 0.14257 0.28108 0.0
H1277 H 0.87936 0.14791 0.25349 0.0
H1278 H 0.89297 0.14638 0.23734 0.0
H1279 H 0.92661 0.14065 0.26478 0.0
C1280 C 0.51781 0.12175 0.74743 0.0
C1281 C 0.51619 0.12611 0.73552 0.0
C1282 C 0.49109 0.11737 0.73251 0.0
C1283 C 0.50297 0.12399 0.72815 0.0
C1284 C 0.49283 0.11287 0.74442 0.0
C1285 C 0.50607 0.11507 0.75181 0.0
U1286 U 0.55698 0.12883 0.75062 0.0
O1287 O 0.57373 0.14211 0.76392 0.0
O1288 O 0.5726 0.12135 0.7626 0.0
C1289 C 0.57876 0.1327 0.76855 0.0
C1290 C 0.53168 0.12408 0.7553 0.0
C1291 C 0.58171 0.13299 0.78215 0.0
C1292 C 0.57549 0.12577 0.80158 0.0
C1293 C 0.57198 0.12608 0.78872 0.0
C1294 C 0.59827 0.13967 0.80144 0.0
C1295 C 0.58879 0.13238 0.80806 0.0
C1296 C 0.59476 0.13994 0.78861 0.0
C1297 C 0.57269 0.13184 0.72143 0.0
C1298 C 0.5976 0.13901 0.72222 0.0
C1299 C 0.58214 0.13069 0.70267 0.0
C1300 C 0.57074 0.12868 0.70866 0.0
C1301 C 0.5957 0.13592 0.70937 0.0
C1302 C 0.58619 0.13694 0.72821 0.0
C1303 C 0.56059 0.12963 0.72756 0.0
O1304 O 0.53828 0.11502 0.75415 0.0
O1305 O 0.53966 0.1358 0.75559 0.0
O1306 O 0.55943 0.13965 0.73422 0.0
O1307 O 0.55818 0.11889 0.73311 0.0
H1308 H 0.52516 0.13123 0.73194 0.0
H1309 H 0.50205 0.12775 0.71913 0.0
H1310 H 0.48398 0.10755 0.748 0.0
H1311 H 0.50715 0.11155 0.76094 0.0
H1312 H 0.56798 0.11999 0.80637 0.0
H1313 H 0.5618 0.12069 0.78388 0.0
H1314 H 0.60849 0.14507 0.80615 0.0
H1315 H 0.60236 0.14541 0.78369 0.0
H1316 H 0.60792 0.14292 0.72765 0.0
H1317 H 0.5803 0.12836 0.69275 0.0
H1318 H 0.56038 0.12471 0.7033 0.0
H1319 H 0.58788 0.13933 0.73811 0.0
C1320 C 0.12719 0.24796 0.96821 0.0
C1321 C 0.1234 0.24521 0.95532 0.0
C1322 C 0.13728 0.22937 0.95611 0.0
C1323 C 0.12834 0.23599 0.94935 0.0
C1324 C 0.14101 0.23213 0.96906 0.0
C1325 C 0.13602 0.24137 0.97506 0.0
U1326 U 0.10979 0.27522 0.96481 0.0
O1327 O 0.09378 0.2807 0.97369 0.0
O1328 O 0.11416 0.29433 0.97487 0.0
C1329 C 0.10193 0.29203 0.97817 0.0
C1330 C 0.12218 0.25795 0.97433 0.0
C1331 C 0.10169 0.29617 0.99105 0.0
C1332 C 0.11057 0.29811 0.01325 0.0
C1333 C 0.11072 0.29337 1.00121 0.0
C1334 C 0.09226 0.30828 0.00506 0.0
C1335 C 0.10136 0.3057 0.01532 0.0
C1336 C 0.09243 0.30356 0.99309 0.0
C1337 C 0.09908 0.28315 0.93136 0.0
C1338 C 0.0896 0.30148 0.92603 0.0
C1339 C 0.09281 0.28713 0.9098 0.0
C1340 C 0.09796 0.2797 0.91875 0.0
C1341 C 0.08868 0.29819 0.91332 0.0
C1342 C 0.09475 0.29401 0.93498 0.0
C1343 C 0.10517 0.27553 0.94057 0.0
O1344 O 0.12889 0.26987 0.97328 0.0
O1345 O 0.1086 0.25625 0.97219 0.0
O1346 O 0.09647 0.26827 0.94659 0.0
O1347 O 0.11689 0.28173 0.94777 0.0
H1348 H 0.11662 0.25022 0.94987 0.0
H1349 H 0.12501 0.23398 0.93941 0.0
H1350 H 0.14798 0.22732 0.97455 0.0
H1351 H 0.13913 0.24343 0.98501 0.0
H1352 H 0.11763 0.29583 0.02094 0.0
H1353 H 0.11794 0.28766 0.99981 0.0
H1354 H 0.08521 0.31426 0.00621 0.0
H1355 H 0.08543 0.30588 0.98535 0.0
H1356 H 0.08638 0.30984 0.92905 0.0
H1357 H 0.09246 0.28442 0.90014 0.0
H1358 H 0.1013 0.27136 0.91581 0.0
H1359 H 0.09552 0.29678 0.94471 0.0
C1360 C 0.32952 0.70704 0.4694 0.0
C1361 C 0.33697 0.69752 0.47117 0.0
C1362 C 0.32998 0.69378 0.49112 0.0
C1363 C 0.33724 0.69099 0.48194 0.0
C1364 C 0.32244 0.70327 0.48925 0.0
C1365 C 0.32224 0.70986 0.47848 0.0
U1366 U 0.33598 0.70864 0.43671 0.0
O1367 O 0.32408 0.71358 0.41965 0.0
O1368 O 0.34561 0.72466 0.42661 0.0
C1369 C 0.3342 0.72348 0.41834 0.0
C1370 C 0.32914 0.71378 0.45797 0.0
C1371 C 0.33042 0.7356 0.41519 0.0
C1372 C 0.31531 0.7503 0.41487 0.0
C1373 C 0.31885 0.73895 0.41864 0.0
C1374 C 0.33497 0.75508 0.40439 0.0
C1375 C 0.32333 0.75848 0.40767 0.0
C1376 C 0.33845 0.74378 0.40811 0.0
C1377 C 0.3504 0.68131 0.42451 0.0
C1378 C 0.34711 0.67034 0.40401 0.0
C1379 C 0.3673 0.6701 0.41946 0.0
C1380 C 0.36286 0.67756 0.42786 0.0
C1381 C 0.35931 0.66612 0.40752 0.0
C1382 C 0.3427 0.67787 0.41242 0.0
C1383 C 0.34533 0.68803 0.43404 0.0
O1384 O 0.34136 0.71898 0.45526 0.0
O1385 O 0.32006 0.70746 0.44835 0.0
O1386 O 0.33203 0.68782 0.43188 0.0
O1387 O 0.35339 0.69927 0.43887 0.0
H1388 H 0.34254 0.69511 0.46418 0.0
H1389 H 0.34296 0.68361 0.48299 0.0
H1390 H 0.31683 0.70571 0.49619 0.0
H1391 H 0.3164 0.71714 0.47724 0.0
H1392 H 0.30634 0.75268 0.41762 0.0
H1393 H 0.3125 0.73279 0.42414 0.0
H1394 H 0.34124 0.761 0.39867 0.0
H1395 H 0.34736 0.74133 0.40528 0.0
H1396 H 0.34063 0.66737 0.39495 0.0
H1397 H 0.37688 0.66723 0.4224 0.0
H1398 H 0.369 0.68014 0.43712 0.0
H1399 H 0.33307 0.68068 0.40956 0.0
C1400 C 0.68776 0.49234 0.83854 0.0
C1401 C 0.68968 0.5056 0.84146 0.0
C1402 C 0.66488 0.50359 0.83456 0.0
C1403 C 0.67834 0.51117 0.83951 0.0
C1404 C 0.66305 0.4903 0.83161 0.0
C1405 C 0.6744 0.48474 0.8336 0.0
U1406 U 0.7266 0.49599 0.84719 0.0
O1407 O 0.73882 0.48491 0.85883 0.0
O1408 O 0.74053 0.48631 0.83924 0.0
C1409 C 0.74405 0.48113 0.84958 0.0
C1410 C 0.69965 0.48645 0.84055 0.0
C1411 C 0.74416 0.46738 0.84834 0.0
C1412 C 0.73579 0.44497 0.85245 0.0
C1413 C 0.73462 0.45775 0.85292 0.0
C1414 C 0.75576 0.45123 0.84251 0.0
C1415 C 0.74646 0.44158 0.84733 0.0
C1416 C 0.75462 0.46398 0.84303 0.0
C1417 C 0.75021 0.53004 0.85519 0.0
C1418 C 0.77434 0.53483 0.86573 0.0
C1419 C 0.76518 0.55157 0.85573 0.0
C1420 C 0.75221 0.54282 0.85205 0.0
C1421 C 0.77637 0.54771 0.86269 0.0
C1422 C 0.76138 0.52605 0.86197 0.0
C1423 C 0.73639 0.52108 0.85142 0.0
O1424 O 0.70805 0.489 0.83256 0.0
O1425 O 0.70629 0.48747 0.85208 0.0
O1426 O 0.73203 0.51357 0.85985 0.0
O1427 O 0.73396 0.515 0.84034 0.0
H1428 H 0.69996 0.51164 0.84522 0.0
H1429 H 0.68016 0.52145 0.84173 0.0
H1430 H 0.65282 0.48416 0.82792 0.0
H1431 H 0.67273 0.47448 0.8313 0.0
H1432 H 0.72836 0.43774 0.85611 0.0
H1433 H 0.72641 0.46012 0.85703 0.0
H1434 H 0.7642 0.44903 0.83866 0.0
H1435 H 0.76213 0.47127 0.83951 0.0
H1436 H 0.7828 0.53152 0.87095 0.0
H1437 H 0.76635 0.56145 0.85335 0.0
H1438 H 0.7437 0.54606 0.84681 0.0
H1439 H 0.76007 0.51618 0.86439 0.0
C1440 C 0.7035 0.46795 0.1469 0.0
C1441 C 0.69191 0.46514 0.15275 0.0
C1442 C 0.69036 0.44215 0.14984 0.0
C1443 C 0.68547 0.45237 0.15427 0.0
C1444 C 0.70182 0.44498 0.14382 0.0
C1445 C 0.70837 0.45779 0.14241 0.0
U1446 U 0.70174 0.50226 0.14095 0.0
O1447 O 0.7149 0.52091 0.14969 0.0
O1448 O 0.71296 0.51624 0.12972 0.0
C1449 C 0.71927 0.52435 0.13942 0.0
C1450 C 0.71044 0.48138 0.14531 0.0
C1451 C 0.73439 0.52937 0.14049 0.0
C1452 C 0.75823 0.53016 0.15007 0.0
C1453 C 0.74393 0.52473 0.14885 0.0
C1454 C 0.75359 0.54463 0.13438 0.0
C1455 C 0.76321 0.54022 0.14288 0.0
C1456 C 0.73932 0.53927 0.13322 0.0
C1457 C 0.66653 0.51038 0.1357 0.0
C1458 C 0.66441 0.53246 0.13472 0.0
C1459 C 0.64378 0.5147 0.13016 0.0
C1460 C 0.65206 0.50594 0.1323 0.0
C1461 C 0.64984 0.52807 0.13143 0.0
C1462 C 0.67269 0.52368 0.13681 0.0
C1463 C 0.67506 0.50105 0.13807 0.0
O1464 O 0.7076 0.48511 0.1341 0.0
O1465 O 0.71039 0.49003 0.15411 0.0
O1466 O 0.68335 0.50284 0.14896 0.0
O1467 O 0.6811 0.49846 0.12894 0.0
H1468 H 0.68784 0.47281 0.15614 0.0
H1469 H 0.67653 0.45047 0.15878 0.0
H1470 H 0.70584 0.43731 0.14036 0.0
H1471 H 0.71725 0.45976 0.13783 0.0
H1472 H 0.76539 0.52647 0.15661 0.0
H1473 H 0.74034 0.51702 0.1545 0.0
H1474 H 0.75706 0.55247 0.12882 0.0
H1475 H 0.73212 0.54299 0.12675 0.0
H1476 H 0.66942 0.54268 0.13592 0.0
H1477 H 0.63263 0.51097 0.12745 0.0
H1478 H 0.64716 0.49569 0.13131 0.0
H1479 H 0.68387 0.52726 0.13941 0.0
C1480 C 0.75409 0.55173 0.37802 0.0
C1481 C 0.74183 0.54898 0.38291 0.0
C1482 C 0.74145 0.57166 0.38334 0.0
C1483 C 0.73554 0.55884 0.3855 0.0
C1484 C 0.75384 0.57438 0.37857 0.0
C1485 C 0.76008 0.56448 0.3759 0.0
U1486 U 0.7564 0.51735 0.38103 0.0
O1487 O 0.75777 0.50232 0.36737 0.0
O1488 O 0.77401 0.50833 0.38406 0.0
C1489 C 0.76982 0.50121 0.37343 0.0
C1490 C 0.76059 0.5413 0.37515 0.0
C1491 C 0.78049 0.50003 0.36599 0.0
C1492 C 0.78654 0.4886 0.34898 0.0
C1493 C 0.77652 0.49179 0.35503 0.0
C1494 C 0.80476 0.50226 0.36444 0.0
C1495 C 0.80079 0.4935 0.35381 0.0
C1496 C 0.79473 0.50548 0.37048 0.0
C1497 C 0.7321 0.49705 0.39994 0.0
C1498 C 0.72989 0.47408 0.40124 0.0
C1499 C 0.71618 0.48491 0.41199 0.0
C1500 C 0.72229 0.49658 0.40762 0.0
C1501 C 0.71977 0.47348 0.40873 0.0
C1502 C 0.73601 0.48578 0.39689 0.0
C1503 C 0.73779 0.50925 0.39488 0.0
O1504 O 0.76817 0.53771 0.3847 0.0
O1505 O 0.75229 0.5315 0.36785 0.0
O1506 O 0.73469 0.50921 0.38276 0.0
O1507 O 0.75087 0.5149 0.39947 0.0
H1508 H 0.7371 0.53919 0.3847 0.0
H1509 H 0.72613 0.55643 0.38934 0.0
H1510 H 0.75859 0.58412 0.37669 0.0
H1511 H 0.76955 0.56678 0.37215 0.0
H1512 H 0.78308 0.48171 0.34092 0.0
H1513 H 0.76564 0.48729 0.35144 0.0
H1514 H 0.81565 0.50635 0.36832 0.0
H1515 H 0.79818 0.51182 0.37893 0.0
H1516 H 0.733 0.46549 0.39868 0.0
H1517 H 0.70829 0.48478 0.41757 0.0
H1518 H 0.71915 0.5052 0.41003 0.0
H1519 H 0.74363 0.486 0.39099 0.0
C1520 C 0.73963 0.5189 0.63779 0.0
C1521 C 0.72662 0.51182 0.63116 0.0
C1522 C 0.71856 0.50666 0.65046 0.0
C1523 C 0.71619 0.5058 0.63743 0.0
C1524 C 0.73144 0.514 0.65707 0.0
C1525 C 0.74183 0.52011 0.6508 0.0
U1526 U 0.76552 0.51513 0.61733 0.0
O1527 O 0.77324 0.52661 0.60266 0.0
O1528 O 0.78782 0.52431 0.61922 0.0
C1529 C 0.78609 0.52999 0.60888 0.0
C1530 C 0.75115 0.52464 0.63138 0.0
C1531 C 0.793 0.54381 0.60978 0.0
C1532 C 0.79579 0.56591 0.61783 0.0
C1533 C 0.78864 0.55286 0.61666 0.0
C1534 C 0.81153 0.56094 0.6051 0.0
C1535 C 0.8074 0.57009 0.61214 0.0
C1536 C 0.80438 0.54793 0.60394 0.0
C1537 C 0.76525 0.48106 0.60549 0.0
C1538 C 0.784 0.47632 0.59639 0.0
C1539 C 0.76396 0.45912 0.59798 0.0
C1540 C 0.75813 0.46801 0.6034 0.0
C1541 C 0.77708 0.46313 0.59459 0.0
C1542 C 0.77812 0.48522 0.60178 0.0
C1543 C 0.75952 0.49005 0.61218 0.0
O1544 O 0.76314 0.52212 0.63572 0.0
O1545 O 0.74824 0.52388 0.61919 0.0
O1546 O 0.75352 0.49771 0.60536 0.0
O1547 O 0.76767 0.496 0.62242 0.0
H1548 H 0.72455 0.51067 0.62113 0.0
H1549 H 0.70643 0.50011 0.63207 0.0
H1550 H 0.73352 0.51495 0.66711 0.0
H1551 H 0.75171 0.52559 0.65613 0.0
H1552 H 0.79224 0.57271 0.62321 0.0
H1553 H 0.77983 0.54982 0.62123 0.0
H1554 H 0.82054 0.56375 0.60076 0.0
H1555 H 0.8079 0.54104 0.59863 0.0
H1556 H 0.79403 0.47975 0.59376 0.0
H1557 H 0.75843 0.44903 0.59688 0.0
H1558 H 0.7482 0.46464 0.60625 0.0
H1559 H 0.78375 0.49529 0.60331 0.0
C1560 C 0.48023 0.1159 0.29976 0.0
C1561 C 0.47386 0.12622 0.29882 0.0
C1562 C 0.46518 0.1213 0.31792 0.0
C1563 C 0.46646 0.12893 0.30783 0.0
C1564 C 0.47155 0.11093 0.31879 0.0
C1565 C 0.47903 0.10828 0.30979 0.0
U1566 U 0.48739 0.11919 0.26726 0.0
O1567 O 0.5067 0.12208 0.25974 0.0
O1568 O 0.48946 0.10505 0.25312 0.0
C1569 C 0.50234 0.11115 0.2527 0.0
C1570 C 0.48772 0.11283 0.2901 0.0
C1571 C 0.51249 0.10327 0.25194 0.0
C1572 C 0.51719 0.08279 0.24607 0.0
C1573 C 0.50807 0.08979 0.24935 0.0
C1574 C 0.53554 0.10244 0.24852 0.0
C1575 C 0.53091 0.08908 0.24523 0.0
C1576 C 0.52643 0.10945 0.25178 0.0
C1577 C 0.46762 0.13902 0.24644 0.0
C1578 C 0.46947 0.14051 0.22477 0.0
C1579 C 0.45332 0.15029 0.23322 0.0
C1580 C 0.45755 0.14613 0.24482 0.0
C1581 C 0.45909 0.14738 0.223 0.0
C1582 C 0.47369 0.13635 0.2364 0.0
C1583 C 0.47114 0.13387 0.25844 0.0
O1584 O 0.47985 0.10545 0.28044 0.0
O1585 O 0.49683 0.12263 0.28707 0.0
O1586 O 0.48395 0.13851 0.26447 0.0
O1587 O 0.46684 0.12129 0.25844 0.0
H1588 H 0.47452 0.13213 0.29106 0.0
H1589 H 0.46151 0.13685 0.30677 0.0
H1590 H 0.47087 0.10494 0.32648 0.0
H1591 H 0.48383 0.10024 0.31064 0.0
H1592 H 0.51333 0.07249 0.24376 0.0
H1593 H 0.49739 0.08471 0.24929 0.0
H1594 H 0.54598 0.10764 0.24784 0.0
H1595 H 0.53011 0.11983 0.25352 0.0
H1596 H 0.47424 0.13823 0.21715 0.0
H1597 H 0.44517 0.15539 0.23216 0.0
H1598 H 0.45271 0.14821 0.25248 0.0
H1599 H 0.4815 0.13086 0.23751 0.0
C1600 C 1.00044 0.89614 0.77966 0.0
C1601 C 0.99587 0.8904 0.7675 0.0
C1602 C 0.97956 0.90388 0.76342 0.0
C1603 C 0.98551 0.89419 0.75948 0.0
C1604 C 0.98433 0.9098 0.77556 0.0
C1605 C 0.99468 0.90591 0.78364 0.0
U1606 U 0.02946 0.87953 0.78288 0.0
O1607 O 0.05038 0.88413 0.79442 0.0
O1608 O 0.03555 0.86574 0.79569 0.0
C1609 C 0.04776 0.87357 0.80026 0.0
C1610 C 0.01145 0.89208 0.78796 0.0
C1611 C 0.05213 0.87494 0.81393 0.0
C1612 C 0.06711 0.88673 0.83266 0.0
C1613 C 0.06171 0.88613 0.82 0.0
C1614 C 0.05328 0.86508 0.83358 0.0
C1615 C 0.06315 0.87613 0.83958 0.0
C1616 C 0.04788 0.86447 0.82091 0.0
C1617 C 0.03687 0.86664 0.75242 0.0
C1618 C 0.057 0.85826 0.75115 0.0
C1619 C 0.0405 0.85899 0.7325 0.0
C1620 C 0.03257 0.86422 0.73956 0.0
C1621 C 0.05291 0.8561 0.73818 0.0
C1622 C 0.04903 0.86349 0.75822 0.0
C1623 C 0.02892 0.87304 0.75949 0.0
O1624 O 0.0095 0.87952 0.78838 0.0
O1625 O 0.02419 0.89789 0.78689 0.0
O1626 O 0.03578 0.88435 0.76515 0.0
O1627 O 0.02136 0.86573 0.76637 0.0
H1628 H 1.00035 0.88298 0.76418 0.0
H1629 H 0.98225 0.88962 0.75013 0.0
H1630 H 0.97992 0.91727 0.77884 0.0
H1631 H 0.99817 0.91052 0.79297 0.0
H1632 H 0.07486 0.89532 0.83691 0.0
H1633 H 0.06539 0.89431 0.8149 0.0
H1634 H 0.04988 0.85679 0.83865 0.0
H1635 H 0.04065 0.85564 0.8165 0.0
H1636 H 0.06641 0.85601 0.75583 0.0
H1637 H 0.03715 0.85764 0.72253 0.0
H1638 H 0.02324 0.86666 0.73495 0.0
H1639 H 0.05247 0.86529 0.76817 0.0
C1640 C 0.4372 0.84896 0.23616 0.0
C1641 C 0.43759 0.84791 0.24889 0.0
C1642 C 0.46287 0.85238 0.25255 0.0
C1643 C 0.45029 0.84958 0.257 0.0
C1644 C 0.46241 0.8534 0.23976 0.0
C1645 C 0.44966 0.85169 0.23163 0.0
U1646 U 0.39858 0.84483 0.2322 0.0
O1647 O 0.38406 0.85358 0.22031 0.0
O1648 O 0.38102 0.83252 0.21888 0.0
C1649 C 0.37696 0.84246 0.21435 0.0
C1650 C 0.42379 0.84747 0.22774 0.0
C1651 C 0.37354 0.84215 0.20073 0.0
C1652 C 0.37733 0.85107 0.18122 0.0
C1653 C 0.38174 0.8507 0.19398 0.0
C1654 C 0.35683 0.83398 0.18175 0.0
C1655 C 0.36465 0.84291 0.17501 0.0
C1656 C 0.36122 0.83364 0.19447 0.0
C1657 C 0.38353 0.84348 0.26214 0.0
C1658 C 0.36343 0.85022 0.26686 0.0
C1659 C 0.37222 0.83435 0.27873 0.0
C1660 C 0.3826 0.83514 0.27164 0.0
C1661 C 0.36261 0.84197 0.2765 0.0
C1662 C 0.37376 0.85093 0.25969 0.0
C1663 C 0.39508 0.84458 0.2553 0.0
O1664 O 0.41493 0.83619 0.22742 0.0
O1665 O 0.41807 0.85721 0.22856 0.0
O1666 O 0.39852 0.85524 0.24979 0.0
O1667 O 0.39504 0.83415 0.24857 0.0
H1668 H 0.42806 0.84589 0.25256 0.0
H1669 H 0.45026 0.84894 0.2668 0.0
H1670 H 0.47189 0.85544 0.23602 0.0
H1671 H 0.44953 0.85255 0.22182 0.0
H1672 H 0.38356 0.85813 0.17635 0.0
H1673 H 0.39133 0.85734 0.19861 0.0
H1674 H 0.34716 0.82738 0.17722 0.0
H1675 H 0.35478 0.82693 0.19949 0.0
H1676 H 0.35608 0.85611 0.26485 0.0
H1677 H 0.37198 0.82802 0.28618 0.0
H1678 H 0.39005 0.82935 0.27371 0.0
H1679 H 0.37419 0.85739 0.25235 0.0
C1680 C 0.85701 0.74814 0.03659 0.0
C1681 C 0.85698 0.74847 0.04936 0.0
C1682 C 0.84955 0.76854 0.04865 0.0
C1683 C 0.85331 0.75856 0.05533 0.0
C1684 C 0.8496 0.76814 0.03582 0.0
C1685 C 0.85331 0.75803 0.02986 0.0
U1686 U 0.86652 0.71635 0.03884 0.0
O1687 O 0.86003 0.69835 0.02667 0.0
O1688 O 0.88219 0.70847 0.03156 0.0
C1689 C 0.87279 0.69863 0.02527 0.0
C1690 C 0.86072 0.73738 0.03037 0.0
C1691 C 0.87476 0.6947 0.01284 0.0
C1692 C 0.86799 0.69212 0.99035 0.0
C1693 C 0.86692 0.69749 1.00189 0.0
C1694 C 0.88497 0.68147 1.00061 0.0
C1695 C 0.87678 0.68378 0.98963 0.0
C1696 C 0.88397 0.68688 0.01206 0.0
C1697 C 0.8684 0.70255 0.07033 0.0
C1698 C 0.87385 0.68187 0.07345 0.0
C1699 C 0.86902 0.69403 0.09049 0.0
C1700 C 0.86704 0.70373 0.08275 0.0
C1701 C 0.8724 0.68295 0.08593 0.0
C1702 C 0.87187 0.6916 0.06571 0.0
C1703 C 0.866 0.7127 0.06225 0.0
O1704 O 0.8735 0.73639 0.03422 0.0
O1705 O 0.85143 0.72625 0.02927 0.0
O1706 O 0.85491 0.70932 0.05344 0.0
O1707 O 0.87701 0.71934 0.05838 0.0
H1708 H 0.85973 0.74087 0.05471 0.0
H1709 H 0.85318 0.75841 0.06515 0.0
H1710 H 0.8469 0.77572 0.03041 0.0
H1711 H 0.85327 0.75793 0.01999 0.0
H1712 H 0.86152 0.69404 0.98205 0.0
H1713 H 0.85972 0.70348 0.00229 0.0
H1714 H 0.89199 0.67527 1.00036 0.0
H1715 H 0.89011 0.68461 0.02039 0.0
H1716 H 0.87659 0.67355 0.06967 0.0
H1717 H 0.86762 0.69508 0.09999 0.0
H1718 H 0.86432 0.71212 0.08643 0.0
H1719 H 0.87299 0.69056 0.05612 0.0
C1720 C 0.65525 0.30812 0.55076 0.0
C1721 C 0.65473 0.32109 0.55161 0.0
C1722 C 0.65236 0.32151 0.52921 0.0
C1723 C 0.65335 0.32773 0.54096 0.0
C1724 C 0.65282 0.30847 0.5284 0.0
C1725 C 0.65428 0.30184 0.5391 0.0
U1726 U 0.65293 0.307 0.58443 0.0
O1727 O 0.64418 0.29137 0.5954 0.0
O1728 O 0.66623 0.30176 0.60044 0.0
C1729 C 0.65619 0.29235 0.60277 0.0
C1730 C 0.65645 0.30114 0.56202 0.0
C1731 C 0.65983 0.28016 0.60571 0.0
C1732 C 0.67059 0.26272 0.60176 0.0
C1733 C 0.66678 0.27403 0.59824 0.0
C1734 C 0.66036 0.26358 0.62007 0.0
C1735 C 0.66756 0.25746 0.61282 0.0
C1736 C 0.65656 0.2748 0.61655 0.0
C1737 C 0.64286 0.33545 0.59926 0.0
C1738 C 0.64576 0.34046 0.62146 0.0
C1739 C 0.63251 0.3516 0.60711 0.0
C1740 C 0.63494 0.34451 0.59716 0.0
C1741 C 0.63802 0.34976 0.61938 0.0
C1742 C 0.64812 0.33332 0.61147 0.0
C1743 C 0.64575 0.32853 0.5886 0.0
O1744 O 0.66677 0.30686 0.57102 0.0
O1745 O 0.6447 0.29676 0.56589 0.0
O1746 O 0.63669 0.31757 0.58442 0.0
O1747 O 0.65872 0.32793 0.58926 0.0
H1748 H 0.6553 0.32607 0.56053 0.0
H1749 H 0.65279 0.33769 0.5419 0.0
H1750 H 0.65218 0.30343 0.5195 0.0
H1751 H 0.65462 0.29181 0.53827 0.0
H1752 H 0.67616 0.25827 0.59599 0.0
H1753 H 0.66938 0.27806 0.58981 0.0
H1754 H 0.65759 0.25966 0.62849 0.0
H1755 H 0.65115 0.27937 0.6224 0.0
H1756 H 0.65003 0.33873 0.6308 0.0
H1757 H 0.62667 0.3588 0.60518 0.0
H1758 H 0.6308 0.34627 0.58779 0.0
H1759 H 0.65418 0.32626 0.61327 0.0
C1760 C 0.28689 0.50379 0.1575 0.0
C1761 C 0.28432 0.49045 0.1546 0.0
C1762 C 0.30863 0.4912 0.16255 0.0
C1763 C 0.29507 0.48423 0.15708 0.0
C1764 C 0.31115 0.50459 0.16542 0.0
C1765 C 0.30036 0.51083 0.1629 0.0
U1766 U 0.24856 0.50102 0.14769 0.0
O1767 O 0.23433 0.51089 0.15481 0.0
O1768 O 0.23695 0.51213 0.13543 0.0
C1769 C 0.23139 0.51611 0.14435 0.0
C1770 C 0.27546 0.51023 0.15507 0.0
C1771 C 0.23125 0.52993 0.14514 0.0
C1772 C 0.23029 0.5493 0.157 0.0
C1773 C 0.23237 0.53683 0.15658 0.0
C1774 C 0.22633 0.54837 0.13461 0.0
C1775 C 0.22701 0.55513 0.14601 0.0
C1776 C 0.22837 0.53592 0.13418 0.0
C1777 C 0.22507 0.46672 0.13929 0.0
C1778 C 0.20075 0.45836 0.14065 0.0
C1779 C 0.21119 0.44735 0.12669 0.0
C1780 C 0.22383 0.45656 0.13041 0.0
C1781 C 0.19954 0.44808 0.13185 0.0
C1782 C 0.21338 0.46764 0.1443 0.0
C1783 C 0.23873 0.47595 0.14339 0.0
O1784 O 0.26925 0.50929 0.14341 0.0
O1785 O 0.26667 0.508 0.16276 0.0
O1786 O 0.24091 0.48208 0.15443 0.0
O1787 O 0.24335 0.48339 0.13502 0.0
H1788 H 0.27394 0.48484 0.1505 0.0
H1789 H 0.2927 0.47389 0.15493 0.0
H1790 H 0.32148 0.51027 0.16953 0.0
H1791 H 0.30252 0.52113 0.1652 0.0
H1792 H 0.23103 0.55429 0.16595 0.0
H1793 H 0.23447 0.53249 0.16521 0.0
H1794 H 0.22362 0.55247 0.12595 0.0
H1795 H 0.2272 0.53079 0.12522 0.0
H1796 H 0.19191 0.45926 0.14468 0.0
H1797 H 0.21064 0.43947 0.11999 0.0
H1798 H 0.23272 0.45565 0.12646 0.0
H1799 H 0.21403 0.47545 0.15111 0.0
C1800 C 0.24342 0.49479 0.84553 0.0
C1801 C 0.25703 0.50062 0.85169 0.0
C1802 C 0.25483 0.52136 0.84441 0.0
C1803 C 0.26267 0.51381 0.85118 0.0
C1804 C 0.24115 0.51546 0.83835 0.0
C1805 C 0.2355 0.50229 0.83893 0.0
U1806 U 0.24785 0.46094 0.85061 0.0
O1807 O 0.23537 0.4449 0.85881 0.0
O1808 O 0.2375 0.44263 0.83936 0.0
C1809 C 0.23121 0.4377 0.84824 0.0
C1810 C 0.23755 0.48085 0.84552 0.0
C1811 C 0.2161 0.43233 0.84466 0.0
C1812 C 0.19246 0.4347 0.84269 0.0
C1813 C 0.20682 0.44009 0.84552 0.0
C1814 C 0.19653 0.41386 0.83766 0.0
C1815 C 0.18716 0.42149 0.83885 0.0
C1816 C 0.21088 0.41924 0.84058 0.0
C1817 C 0.2841 0.45592 0.86148 0.0
C1818 C 0.28841 0.43458 0.86265 0.0
C1819 C 0.30714 0.45356 0.87009 0.0
C1820 C 0.29803 0.46141 0.86686 0.0
C1821 C 0.30246 0.44006 0.86795 0.0
C1822 C 0.27929 0.44245 0.85947 0.0
C1823 C 0.27475 0.46434 0.85795 0.0
O1824 O 0.24078 0.47368 0.83708 0.0
O1825 O 0.23849 0.47619 0.85645 0.0
O1826 O 0.26626 0.46526 0.86557 0.0
O1827 O 0.26868 0.46293 0.84622 0.0
H1828 H 0.26334 0.49493 0.85675 0.0
H1829 H 0.2733 0.51803 0.85581 0.0
H1830 H 0.2348 0.52103 0.83317 0.0
H1831 H 0.22498 0.49793 0.8341 0.0
H1832 H 0.18551 0.44084 0.84356 0.0
H1833 H 0.21067 0.45026 0.84855 0.0
H1834 H 0.19277 0.40364 0.83486 0.0
H1835 H 0.2179 0.41313 0.83984 0.0
H1836 H 0.28444 0.42422 0.86102 0.0
H1837 H 0.31793 0.4581 0.87399 0.0
H1838 H 0.3019 0.4718 0.86847 0.0
H1839 H 0.26852 0.43805 0.85539 0.0
C1840 C 0.23415 0.44519 0.62693 0.0
C1841 C 0.24864 0.44846 0.63109 0.0
C1842 C 0.25017 0.42756 0.62266 0.0
C1843 C 0.25651 0.43974 0.62904 0.0
C1844 C 0.23562 0.42419 0.6187 0.0
C1845 C 0.22771 0.43292 0.62083 0.0
U1846 U 0.22867 0.47825 0.62145 0.0
O1847 O 0.21 0.48559 0.61598 0.0
O1848 O 0.22458 0.49326 0.63341 0.0
C1849 C 0.21282 0.49341 0.62612 0.0
C1850 C 0.22588 0.45475 0.62831 0.0
C1851 C 0.20108 0.49427 0.63221 0.0
C1852 C 0.18849 0.49047 0.64927 0.0
C1853 C 0.19877 0.48813 0.64299 0.0
C1854 C 0.18253 0.50478 0.63388 0.0
C1855 C 0.18038 0.499 0.6449 0.0
C1856 C 0.19275 0.50243 0.62763 0.0
C1857 C 0.25498 0.49896 0.60414 0.0
C1858 C 0.26123 0.52235 0.60442 0.0
C1859 C 0.26901 0.50948 0.58983 0.0
C1860 C 0.26214 0.49824 0.5944 0.0
C1861 C 0.2689 0.52169 0.59495 0.0
C1862 C 0.25431 0.51107 0.60897 0.0
C1863 C 0.24893 0.487 0.60947 0.0
O1864 O 0.23221 0.46509 0.63584 0.0
O1865 O 0.21878 0.45738 0.61794 0.0
O1866 O 0.23641 0.48061 0.6039 0.0
O1867 O 0.25061 0.48758 0.62162 0.0
H1868 H 0.25399 0.45783 0.6358 0.0
H1869 H 0.26762 0.4426 0.63248 0.0
H1870 H 0.23038 0.41495 0.61367 0.0
H1871 H 0.21657 0.43018 0.61748 0.0
H1872 H 0.18701 0.4857 0.65762 0.0
H1873 H 0.20509 0.48178 0.6467 0.0
H1874 H 0.17671 0.51157 0.63031 0.0
H1875 H 0.19445 0.50735 0.61939 0.0
H1876 H 0.26101 0.53158 0.60865 0.0
H1877 H 0.27459 0.50861 0.58238 0.0
H1878 H 0.26268 0.48897 0.59051 0.0
H1879 H 0.24877 0.51182 0.61648 0.0
C1880 C 0.24833 0.49485 0.37818 0.0
C1881 C 0.25489 0.50743 0.38343 0.0
C1882 C 0.27241 0.50898 0.37046 0.0
C1883 C 0.26685 0.51439 0.37966 0.0
C1884 C 0.26566 0.49646 0.36505 0.0
C1885 C 0.25373 0.48943 0.36892 0.0
U1886 U 0.21646 0.49454 0.39205 0.0
O1887 O 0.19497 0.48269 0.38703 0.0
O1888 O 0.20708 0.48246 0.40561 0.0
C1889 C 0.19547 0.47749 0.39769 0.0
C1890 C 0.2357 0.48752 0.38213 0.0
C1891 C 0.19044 0.46339 0.39694 0.0
C1892 C 0.19047 0.44196 0.38891 0.0
C1893 C 0.19591 0.45534 0.3899 0.0
C1894 C 0.17433 0.44458 0.40221 0.0
C1895 C 0.17952 0.43643 0.39497 0.0
C1896 C 0.17974 0.45793 0.40317 0.0
C1897 C 0.20921 0.52655 0.40099 0.0
C1898 C 0.18741 0.52739 0.40715 0.0
C1899 C 0.20472 0.5472 0.40615 0.0
C1900 C 0.21349 0.54004 0.40248 0.0
C1901 C 0.19149 0.54097 0.40835 0.0
C1902 C 0.1962 0.52024 0.40351 0.0
C1903 C 0.21804 0.51919 0.3962 0.0
O1904 O 0.23595 0.48836 0.39415 0.0
O1905 O 0.22393 0.48868 0.37556 0.0
O1906 O 0.21253 0.51264 0.38543 0.0
O1907 O 0.22412 0.51257 0.40423 0.0
H1908 H 0.25076 0.51187 0.39046 0.0
H1909 H 0.27167 0.5241 0.38385 0.0
H1910 H 0.26974 0.49204 0.35797 0.0
H1911 H 0.24873 0.47977 0.3647 0.0
H1912 H 0.19479 0.43594 0.38336 0.0
H1913 H 0.20424 0.45943 0.38508 0.0
H1914 H 0.16577 0.44068 0.40684 0.0
H1915 H 0.17539 0.46402 0.40863 0.0
H1916 H 0.17736 0.5223 0.40891 0.0
H1917 H 0.20812 0.55763 0.40683 0.0
H1918 H 0.22348 0.54505 0.40053 0.0
H1919 H 0.19276 0.50981 0.40242 0.0
H1920 H 0.12163 0.3678 0.09338 0.0
H1921 H 0.10363 0.37847 0.12378 0.0
H1922 H 0.0827 0.34444 0.09987 0.0
H1923 H 0.06263 0.35783 0.10927 0.0
C1924 C 0.07042 0.36399 0.11689 0.0
O1925 O 0.08191 0.35896 0.11935 0.0
H1926 H 0.07332 0.37388 0.11375 0.0
C1927 C 0.11339 0.36595 0.09872 0.0
C1928 C 0.10211 0.35505 0.09523 0.0
C1929 C 0.11415 0.3745 0.10901 0.0
C1930 C 0.1034 0.372 0.11589 0.0
C1931 C 0.09208 0.36125 0.11252 0.0
C1932 C 0.09144 0.3528 0.10225 0.0
H1933 H 0.88513 0.90527 0.36621 0.0
H1934 H 0.87928 0.89341 0.40232 0.0
H1935 H 0.91324 0.88586 0.38708 0.0
H1936 H 0.90134 0.86467 0.40222 0.0
C1937 C 0.89548 0.87016 0.40713 0.0
O1938 O 0.9005 0.88316 0.40604 0.0
H1939 H 0.88427 0.86689 0.40278 0.0
C1940 C 0.88851 0.90097 0.37458 0.0
C1941 C 0.90026 0.8959 0.37548 0.0
C1942 C 0.88079 0.90014 0.38415 0.0
C1943 C 0.88495 0.89406 0.39475 0.0
C1944 C 0.89655 0.88886 0.39573 0.0
C1945 C 0.90419 0.88978 0.38613 0.0
H1946 H 0.3455 0.60098 0.59855 0.0
H1947 H 0.32195 0.61249 0.56633 0.0
H1948 H 0.36008 0.6382 0.58543 0.0
H1949 H 0.33874 0.6514 0.57574 0.0
C1950 C 0.33298 0.6446 0.5676 0.0
O1951 O 0.33959 0.63486 0.56633 0.0
H1952 H 0.32224 0.6404 0.56916 0.0
C1953 C 0.34428 0.60799 0.59185 0.0
C1954 C 0.35421 0.61985 0.59315 0.0
C1955 C 0.33254 0.60523 0.5823 0.0
C1956 C 0.33084 0.61451 0.57387 0.0
C1957 C 0.34082 0.62634 0.57495 0.0
C1958 C 0.35241 0.62905 0.58466 0.0
H1959 H 0.62449 0.09862 0.8894 0.0
H1960 H 0.62904 0.10359 0.92907 0.0
H1961 H 0.612 0.1298 0.90633 0.0
H1962 H 0.62893 0.14298 0.92978 0.0
C1963 C 0.62917 0.13437 0.93508 0.0
O1964 O 0.61893 0.12394 0.92909 0.0
H1965 H 0.63963 0.13247 0.93557 0.0
C1966 C 0.62331 0.10386 0.89762 0.0
C1967 C 0.61784 0.11474 0.89638 0.0
C1968 C 0.62734 0.0997 0.90932 0.0
C1969 C 0.62597 0.10663 0.91995 0.0
C1970 C 0.62037 0.11742 0.91883 0.0
C1971 C 0.6162 0.12139 0.90707 0.0
H1972 H 0.1283 0.60013 0.39489 0.0
H1973 H 0.13186 0.60502 0.43447 0.0
H1974 H 0.11075 0.62819 0.41106 0.0
H1975 H 0.12689 0.64258 0.43444 0.0
C1976 C 0.12778 0.63429 0.44005 0.0
O1977 O 0.11857 0.62325 0.43397 0.0
H1978 H 0.13865 0.63328 0.44113 0.0
C1979 C 0.12619 0.60486 0.40298 0.0
C1980 C 0.11898 0.61458 0.40147 0.0
C1981 C 0.13088 0.60129 0.4148 0.0
C1982 C 0.12829 0.60759 0.42525 0.0
C1983 C 0.12098 0.61722 0.42386 0.0
C1984 C 0.11623 0.62063 0.412 0.0
H1985 H 0.62098 0.87185 0.59562 0.0
H1986 H 0.60028 0.87795 0.6256 0.0
H1987 H 0.58139 0.84647 0.59795 0.0
H1988 H 0.55934 0.85619 0.60889 0.0
C1989 C 0.56724 0.86291 0.61604 0.0
O1990 O 0.579 0.85826 0.61854 0.0
H1991 H 0.5696 0.8725 0.61219 0.0
C1992 C 0.61209 0.86915 0.60014 0.0
C1993 C 0.60117 0.85834 0.59522 0.0
C1994 C 0.6119 0.87635 0.61104 0.0
C1995 C 0.60069 0.8725 0.61722 0.0
C1996 C 0.58976 0.86176 0.6125 0.0
C1997 C 0.59001 0.85467 0.60156 0.0
H1998 H 0.37832 0.39342 0.86203 0.0
H1999 H 0.37615 0.38619 0.89998 0.0
H2000 H 0.40757 0.37533 0.88312 0.0
H2001 H 0.39883 0.35696 0.90107 0.0
C2002 C 0.39253 0.36255 0.90529 0.0
O2003 O 0.39705 0.37542 0.90338 0.0
H2004 H 0.38147 0.35863 0.90065 0.0
C2005 C 0.38213 0.38959 0.87056 0.0
C2006 C 0.39361 0.38417 0.87121 0.0
C2007 C 0.37577 0.39046 0.88086 0.0
C2008 C 0.38102 0.38579 0.89197 0.0
C2009 C 0.39241 0.38029 0.89275 0.0
C2010 C 0.39882 0.37966 0.88244 0.0
H2011 H 0.84956 0.11848 0.10907 0.0
H2012 H 0.83219 0.12495 0.07197 0.0
H2013 H 0.86934 0.15149 0.09183 0.0
H2014 H 0.84757 0.16313 0.07862 0.0
C2015 C 0.84343 0.15602 0.07038 0.0
O2016 O 0.85075 0.14659 0.07121 0.0
H2017 H 0.83224 0.15157 0.0703 0.0
C2018 C 0.84984 0.12429 0.1012 0.0
C2019 C 0.86069 0.13541 0.10178 0.0
C2020 C 0.83954 0.12036 0.09052 0.0
C2021 C 0.84016 0.12773 0.08024 0.0
C2022 C 0.85079 0.13905 0.0808 0.0
C2023 C 0.86117 0.14275 0.09147 0.0
H2024 H 0.05999 0.08699 0.33205 0.0
H2025 H 0.09568 0.07125 0.34088 0.0
H2026 H 0.07087 0.06399 0.30421 0.0
H2027 H 0.0832 0.04158 0.31012 0.0
C2028 C 0.08909 0.04617 0.31934 0.0
O2029 O 0.09239 0.05941 0.31892 0.0
H2030 H 0.08227 0.04321 0.32624 0.0
C2031 C 0.06663 0.08118 0.32937 0.0
C2032 C 0.06392 0.07556 0.31717 0.0
C2033 C 0.07814 0.07985 0.33799 0.0
C2034 C 0.08686 0.07255 0.33433 0.0
C2035 C 0.08415 0.06675 0.32222 0.0
C2036 C 0.07286 0.06846 0.31358 0.0
H2037 H 0.12274 0.86112 0.68195 0.0
H2038 H 0.1042 0.82064 0.67221 0.0
H2039 H 0.13374 0.84136 0.65178 0.0
H2040 H 0.10747 0.824 0.63728 0.0
C2041 C 0.10672 0.81577 0.64322 0.0
O2042 O 0.11703 0.81908 0.65368 0.0
H2043 H 0.09635 0.81363 0.64596 0.0
C2044 C 0.12195 0.85233 0.67637 0.0
C2045 C 0.12964 0.85272 0.6668 0.0
C2046 C 0.11276 0.84085 0.67847 0.0
C2047 C 0.11121 0.82962 0.67077 0.0
C2048 C 0.1187 0.82989 0.66112 0.0
C2049 C 0.12792 0.84137 0.65919 0.0
H2050 H 0.33623 0.91728 0.82696 0.0
H2051 H 0.3678 0.90666 0.80994 0.0
H2052 H 0.35948 0.94386 0.80526 0.0
H2053 H 0.36877 0.93417 0.78243 0.0
C2054 C 0.37108 0.92552 0.78675 0.0
O2055 O 0.37439 0.92817 0.79947 0.0
H2056 H 0.36156 0.91745 0.78403 0.0
C2057 C 0.34404 0.91951 0.82117 0.0
C2058 C 0.34679 0.93161 0.81631 0.0
C2059 C 0.35161 0.91047 0.81906 0.0
C2060 C 0.36196 0.91357 0.81182 0.0
C2061 C 0.36468 0.92551 0.80675 0.0
C2062 C 0.35726 0.93461 0.80916 0.0
H2063 H 0.39126 0.14363 0.14536 0.0
H2064 H 0.4143 0.18097 0.13792 0.0
H2065 H 0.37495 0.16285 0.11471 0.0
H2066 H 0.39588 0.17545 0.10121 0.0
C2067 C 0.40199 0.18355 0.10809 0.0
O2068 O 0.39605 0.18324 0.11854 0.0
H2069 H 0.41278 0.18239 0.11071 0.0
C2070 C 0.39222 0.15186 0.13983 0.0
C2071 C 0.38159 0.15196 0.12975 0.0
C2072 C 0.40407 0.16221 0.14288 0.0
C2073 C 0.40523 0.17288 0.13572 0.0
C2074 C 0.39479 0.17302 0.1255 0.0
C2075 C 0.383 0.16259 0.12254 0.0
H2076 H 0.15789 0.92868 0.1763 0.0
H2077 H 0.12006 0.91493 0.19017 0.0
H2078 H 0.14247 0.95475 0.1976 0.0
H2079 H 0.1296 0.94492 0.21881 0.0
C2080 C 0.12225 0.93604 0.21384 0.0
O2081 O 0.12072 0.93718 0.20123 0.0
H2082 H 0.1267 0.92771 0.21635 0.0
C2083 C 0.15032 0.9304 0.18165 0.0
C2084 C 0.15171 0.9429 0.18693 0.0
C2085 C 0.13893 0.92023 0.18266 0.0
C2086 C 0.12888 0.92265 0.1892 0.0
C2087 C 0.13027 0.93504 0.19469 0.0
C2088 C 0.14155 0.94519 0.1934 0.0
H2089 H 0.31252 0.82487 0.34868 0.0
H2090 H 0.29429 0.85606 0.33728 0.0
H2091 H 0.28713 0.83887 0.37096 0.0
H2092 H 0.26259 0.84929 0.35847 0.0
C2093 C 0.26853 0.85511 0.35211 0.0
O2094 O 0.28259 0.85702 0.35657 0.0
H2095 H 0.26552 0.84966 0.3428 0.0
C2096 C 0.30605 0.83134 0.35014 0.0
C2097 C 0.30003 0.83069 0.36079 0.0
C2098 C 0.304 0.84035 0.34149 0.0
C2099 C 0.29593 0.84893 0.34373 0.0
C2100 C 0.2898 0.84833 0.35428 0.0
C2101 C 0.29173 0.83914 0.36273 0.0
H2102 H 0.34883 0.09867 0.63671 0.0
H2103 H 0.39143 0.11746 0.6526 0.0
H2104 H 0.37032 0.08393 0.66808 0.0
H2105 H 0.38758 0.10523 0.68611 0.0
C2106 C 0.39605 0.10906 0.68093 0.0
O2107 O 0.39367 0.1016 0.66987 0.0
H2108 H 0.39605 0.1192 0.67909 0.0
C2109 C 0.35818 0.09917 0.64346 0.0
C2110 C 0.35809 0.08999 0.65227 0.0
C2111 C 0.3701 0.1092 0.64349 0.0
C2112 C 0.38217 0.10975 0.65229 0.0
C2113 C 0.38217 0.10069 0.66116 0.0
C2114 C 0.37018 0.09086 0.66115 0.0
H2115 H 0.14325 0.1615 0.89171 0.0
H2116 H 0.16327 0.13152 0.88414 0.0
H2117 H 0.17824 0.15631 0.9178 0.0
H2118 H 0.20207 0.1472 0.9096 0.0
C2119 C 0.195 0.14094 0.90162 0.0
O2120 O 0.18192 0.13691 0.9045 0.0
H2121 H 0.19478 0.14686 0.89349 0.0
C2122 C 0.1514 0.15655 0.89429 0.0
C2123 C 0.16071 0.16032 0.90563 0.0
C2124 C 0.1521 0.14611 0.88649 0.0
C2125 C 0.16243 0.1395 0.89008 0.0
C2126 C 0.17188 0.14324 0.90129 0.0
C2127 C 0.1709 0.15351 0.90914 0.0
H2128 H 0.81096 0.32457 0.84552 0.0
H2129 H 0.79116 0.35496 0.83481 0.0
H2130 H 0.78753 0.33884 0.86963 0.0
H2131 H 0.7618 0.3482 0.85831 0.0
C2132 C 0.76696 0.35405 0.85151 0.0
O2133 O 0.7812 0.35632 0.85509 0.0
H2134 H 0.76338 0.34848 0.84227 0.0
C2135 C 0.80452 0.33095 0.84735 0.0
C2136 C 0.79958 0.33058 0.85856 0.0
C2137 C 0.80148 0.3396 0.83863 0.0
C2138 C 0.7935 0.3481 0.84132 0.0
C2139 C 0.78838 0.34773 0.85242 0.0
C2140 C 0.79131 0.3389 0.86098 0.0
H2141 H 0.85368 0.60411 0.13588 0.0
H2142 H 0.89597 0.62001 0.15462 0.0
H2143 H 0.87098 0.58683 0.1676 0.0
H2144 H 0.88869 0.60627 0.18758 0.0
C2145 C 0.89727 0.61048 0.18266 0.0
O2146 O 0.89525 0.60343 0.17143 0.0
H2147 H 0.89715 0.62067 0.18116 0.0
C2148 C 0.86243 0.60372 0.14301 0.0
C2149 C 0.86078 0.59414 0.15141 0.0
C2150 C 0.87504 0.61316 0.14404 0.0
C2151 C 0.88611 0.61291 0.15366 0.0
C2152 C 0.88456 0.60349 0.16216 0.0
C2153 C 0.87196 0.59413 0.16102 0.0
H2154 H 0.64478 0.66368 0.39274 0.0
H2155 H 0.66507 0.63422 0.3842 0.0
H2156 H 0.68118 0.65938 0.41753 0.0
H2157 H 0.70418 0.65182 0.40678 0.0
C2158 C 0.69716 0.64413 0.39994 0.0
O2159 O 0.68464 0.64011 0.4039 0.0
H2160 H 0.69563 0.64825 0.3908 0.0
C2161 C 0.65315 0.65892 0.39499 0.0
C2162 C 0.66292 0.66291 0.40605 0.0
C2163 C 0.65372 0.64854 0.38706 0.0
C2164 C 0.66433 0.64215 0.39025 0.0
C2165 C 0.67427 0.64614 0.40115 0.0
C2166 C 0.67346 0.65639 0.40911 0.0
H2167 H 0.84657 0.42693 0.33018 0.0
H2168 H 0.87348 0.41381 0.30895 0.0
H2169 H 0.86948 0.45282 0.30772 0.0
H2170 H 0.87744 0.44328 0.28322 0.0
C2171 C 0.87813 0.43394 0.28701 0.0
O2172 O 0.88181 0.43584 0.29978 0.0
H2173 H 0.86772 0.42704 0.2842 0.0
C2174 C 0.85373 0.42875 0.32375 0.0
C2175 C 0.8573 0.44107 0.31946 0.0
C2176 C 0.85941 0.41882 0.32 0.0
C2177 C 0.8689 0.42133 0.31189 0.0
C2178 C 0.87241 0.43351 0.30738 0.0
C2179 C 0.86655 0.44336 0.3111 0.0
H2180 H 0.5567 0.58793 0.83018 0.0
H2181 H 0.58816 0.56788 0.84266 0.0
H2182 H 0.56701 0.56188 0.80467 0.0
H2183 H 0.57459 0.53781 0.8143 0.0
C2184 C 0.58238 0.54276 0.82253 0.0
O2185 O 0.58622 0.55579 0.82107 0.0
H2186 H 0.57747 0.54102 0.83085 0.0
C2187 C 0.56272 0.58117 0.82832 0.0
C2188 C 0.56066 0.57531 0.81627 0.0
C2189 C 0.57251 0.57854 0.83795 0.0
C2190 C 0.58047 0.56998 0.83539 0.0
C2191 C 0.57838 0.5639 0.82344 0.0
C2192 C 0.56843 0.5665 0.81391 0.0
H2193 H 0.85663 0.62135 0.91051 0.0
H2194 H 0.87576 0.61278 0.88011 0.0
H2195 H 0.89733 0.64387 0.9075 0.0
H2196 H 0.90548 0.64904 0.88223 0.0
C2197 C 0.90003 0.63916 0.87796 0.0
O2198 O 0.89863 0.63082 0.88719 0.0
H2199 H 0.88964 0.63963 0.8728 0.0
C2200 C 0.86536 0.62329 0.90572 0.0
C2201 C 0.87703 0.6335 0.91041 0.0
C2202 C 0.86468 0.61579 0.89474 0.0
C2203 C 0.87593 0.61857 0.88846 0.0
C2204 C 0.88764 0.62867 0.89305 0.0
C2205 C 0.88815 0.63618 0.90395 0.0
H2206 H 0.08544 0.09027 0.63841 0.0
H2207 H 0.09507 0.10141 0.60311 0.0
H2208 H 0.07139 0.12169 0.6217 0.0
H2209 H 0.0622 0.12093 0.59529 0.0
C2210 C 0.07058 0.11712 0.59232 0.0
O2211 O 0.08206 0.11988 0.60179 0.0
H2212 H 0.06646 0.10649 0.59025 0.0
C2213 C 0.08457 0.09631 0.63077 0.0
C2214 C 0.07748 0.10608 0.63131 0.0
C2215 C 0.09106 0.09458 0.62072 0.0
C2216 C 0.09028 0.10269 0.61101 0.0
C2217 C 0.08311 0.11237 0.61136 0.0
C2218 C 0.07691 0.11418 0.62156 0.0
H2219 H 0.64101 0.39728 0.40765 0.0
H2220 H 0.66118 0.38904 0.44313 0.0
H2221 H 0.61961 0.36736 0.4275 0.0
H2222 H 0.62378 0.37237 0.45422 0.0
C2223 C 0.63527 0.3739 0.45665 0.0
O2224 O 0.64023 0.37045 0.44642 0.0
H2225 H 0.63985 0.38432 0.45963 0.0
C2226 C 0.64079 0.39175 0.4157 0.0
C2227 C 0.62879 0.38215 0.41641 0.0
C2228 C 0.65255 0.3943 0.42522 0.0
C2229 C 0.65221 0.38719 0.43568 0.0
C2230 C 0.64036 0.37745 0.43644 0.0
C2231 C 0.62873 0.37486 0.42678 0.0
H2232 H 0.31869 0.87753 0.09914 0.0
H2233 H 0.31231 0.87717 0.05938 0.0
H2234 H 0.33292 0.85048 0.0779 0.0
H2235 H 0.34446 0.86068 0.05623 0.0
C2236 C 0.33489 0.86241 0.05058 0.0
O2237 O 0.32374 0.858 0.05633 0.0
H2238 H 0.33659 0.87298 0.04977 0.0
C2239 C 0.3197 0.87345 0.09027 0.0
C2240 C 0.32637 0.86338 0.0899 0.0
C2241 C 0.31465 0.87857 0.07936 0.0
C2242 C 0.31632 0.87348 0.06792 0.0
C2243 C 0.32287 0.86334 0.06742 0.0
C2244 C 0.32798 0.85838 0.0784 0.0
H2245 H 0.82204 0.38931 0.59618 0.0
H2246 H 0.81347 0.38654 0.55628 0.0
H2247 H 0.83077 0.35823 0.57551 0.0
H2248 H 0.84237 0.36567 0.55339 0.0
C2249 C 0.83343 0.36853 0.54781 0.0
O2250 O 0.82218 0.3656 0.55371 0.0
H2251 H 0.8366 0.37911 0.547 0.0
C2252 C 0.82212 0.38443 0.58738 0.0
C2253 C 0.82696 0.37318 0.58725 0.0
C2254 C 0.81726 0.38939 0.5763 0.0
C2255 C 0.8172 0.38289 0.56494 0.0
C2256 C 0.82222 0.37176 0.56468 0.0
C2257 C 0.8271 0.36693 0.57581 0.0
H2258 H 0.3638 0.12306 0.41033 0.0
H2259 H 0.38375 0.11578 0.3801 0.0
H2260 H 0.40402 0.14696 0.40778 0.0
H2261 H 0.41038 0.1526 0.38181 0.0
C2262 C 0.40673 0.1424 0.37782 0.0
O2263 O 0.40602 0.13443 0.38741 0.0
H2264 H 0.39628 0.14111 0.3719 0.0
C2265 C 0.37259 0.12538 0.40564 0.0
C2266 C 0.38394 0.13582 0.4105 0.0
C2267 C 0.37229 0.11814 0.39461 0.0
C2268 C 0.38362 0.12138 0.38849 0.0
C2269 C 0.39499 0.13176 0.3932 0.0
C2270 C 0.3951 0.13904 0.40413 0.0
H2271 H 0.58736 0.58968 0.14105 0.0
H2272 H 0.59562 0.59952 0.10498 0.0
H2273 H 0.57102 0.61923 0.12294 0.0
H2274 H 0.56118 0.61501 0.09616 0.0
C2275 C 0.57076 0.61345 0.0933 0.0
O2276 O 0.58179 0.6173 0.10313 0.0
H2277 H 0.56891 0.60297 0.09056 0.0
C2278 C 0.58598 0.59522 0.13309 0.0
C2279 C 0.57823 0.60452 0.13322 0.0
C2280 C 0.59237 0.5933 0.123 0.0
C2281 C 0.59095 0.6009 0.11294 0.0
C2282 C 0.58324 0.61019 0.11295 0.0
C2283 C 0.57701 0.61207 0.1231 0.0
H2284 H 0.13989 0.89705 0.91197 0.0
H2285 H 0.15966 0.88719 0.94693 0.0
H2286 H 0.11754 0.8671 0.93118 0.0
H2287 H 0.12316 0.87417 0.95824 0.0
C2288 C 0.13406 0.87326 0.9606 0.0
O2289 O 0.13806 0.86924 0.95004 0.0
H2290 H 0.14086 0.88289 0.96442 0.0
C2291 C 0.13952 0.89125 0.91984 0.0
C2292 C 0.12727 0.88192 0.92041 0.0
C2293 C 0.1513 0.89321 0.92928 0.0
C2294 C 0.1507 0.88579 0.93952 0.0
C2295 C 0.13854 0.87638 0.94017 0.0
C2296 C 0.1269 0.87437 0.93058 0.0
H2297 H 0.91704 0.91017 0.6833 0.0
H2298 H 0.88747 0.92911 0.66404 0.0
H2299 H 0.90473 0.93998 0.7026 0.0
H2300 H 0.87533 0.93758 0.69634 0.0
C2301 C 0.8741 0.93976 0.68645 0.0
O2302 O 0.88712 0.94387 0.68345 0.0
H2303 H 0.86815 0.93076 0.68066 0.0
C2304 C 0.91099 0.91729 0.68328 0.0
C2305 C 0.91199 0.92486 0.69428 0.0
C2306 C 0.9022 0.91869 0.6723 0.0
C2307 C 0.89458 0.92809 0.67232 0.0
C2308 C 0.89548 0.93572 0.68324 0.0
C2309 C 0.90434 0.93424 0.69415 0.0
H2310 H 0.82806 0.11678 0.32778 0.0
H2311 H 0.83022 0.15736 0.33274 0.0
H2312 H 0.80267 0.13019 0.35047 0.0
H2313 H 0.79107 0.15205 0.34184 0.0
C2314 C 0.80103 0.15931 0.34187 0.0
O2315 O 0.81201 0.15462 0.34735 0.0
H2316 H 0.80179 0.16113 0.33207 0.0
C2317 C 0.8248 0.12465 0.33188 0.0
C2318 C 0.81478 0.12191 0.33948 0.0
C2319 C 0.83046 0.13737 0.32931 0.0
C2320 C 0.82585 0.14744 0.3344 0.0
C2321 C 0.8158 0.14481 0.34196 0.0
C2322 C 0.81024 0.13208 0.34443 0.0
H2323 H 0.58738 0.07529 0.18515 0.0
H2324 H 0.61733 0.0583 0.17172 0.0
H2325 H 0.60282 0.04626 0.20497 0.0
H2326 H 0.63375 0.04369 0.20471 0.0
C2327 C 0.63293 0.04604 0.19489 0.0
O2328 O 0.61903 0.04282 0.18934 0.0
H2329 H 0.6376 0.05656 0.19478 0.0
C2330 C 0.59386 0.06849 0.18593 0.0
C2331 C 0.5939 0.06077 0.19595 0.0
C2332 C 0.60236 0.06785 0.17717 0.0
C2333 C 0.61088 0.05916 0.17848 0.0
C2334 C 0.61109 0.05143 0.18849 0.0
C2335 C 0.60271 0.05233 0.1973 0.0
H2336 H 0.60164 0.86038 0.86818 0.0
H2337 H 0.57998 0.82126 0.87185 0.0
H2338 H 0.61893 0.83861 0.89601 0.0
H2339 H 0.6155 0.81175 0.88711 0.0
C2340 C 0.60415 0.80795 0.88686 0.0
O2341 O 0.59853 0.81775 0.89038 0.0
H2342 H 0.59917 0.80403 0.87719 0.0
C2343 C 0.60087 0.85157 0.87284 0.0
C2344 C 0.61156 0.85087 0.88263 0.0
C2345 C 0.58939 0.84101 0.86883 0.0
C2346 C 0.5888 0.82949 0.87467 0.0
C2347 C 0.59946 0.82866 0.88444 0.0
C2348 C 0.61084 0.83931 0.88837 0.0
H2349 H 0.85047 0.08413 0.85897 0.0
H2350 H 0.88126 0.09982 0.83726 0.0
H2351 H 0.85579 0.06109 0.82812 0.0
H2352 H 0.88336 0.06224 0.82324 0.0
C2353 C 0.88749 0.07289 0.82472 0.0
O2354 O 0.87653 0.07866 0.82265 0.0
H2355 H 0.89319 0.07514 0.83449 0.0
C2356 C 0.85582 0.08303 0.85139 0.0
C2357 C 0.8519 0.07137 0.84391 0.0
C2358 C 0.86625 0.0934 0.84901 0.0
C2359 C 0.873 0.09199 0.83908 0.0
C2360 C 0.86934 0.08028 0.83166 0.0
C2361 C 0.85858 0.07009 0.83389 0.0
H2362 H 0.66582 0.17701 0.65686 0.0
H2363 H 0.6777 0.14099 0.65881 0.0
H2364 H 0.69482 0.16888 0.63503 0.0
H2365 H 0.692 0.14132 0.62462 0.0
C2366 C 0.6896 0.13685 0.63321 0.0
O2367 O 0.69459 0.14608 0.64312 0.0
H2368 H 0.6781 0.13317 0.63198 0.0
C2369 C 0.67194 0.17068 0.65416 0.0
C2370 C 0.68056 0.17452 0.6455 0.0
C2371 C 0.6707 0.15858 0.65897 0.0
C2372 C 0.67836 0.1503 0.65511 0.0
C2373 C 0.68703 0.15403 0.64651 0.0
C2374 C 0.68805 0.16607 0.64164 0.0
H2375 H 0.60175 0.87082 0.3533 0.0
H2376 H 0.5601 0.85111 0.33563 0.0
H2377 H 0.5823 0.88384 0.31976 0.0
H2378 H 0.55354 0.8835 0.31906 0.0
C2379 C 0.54888 0.87294 0.31882 0.0
O2380 O 0.55881 0.86631 0.31759 0.0
H2381 H 0.54517 0.87103 0.3277 0.0
C2382 C 0.59285 0.87001 0.34593 0.0
C2383 C 0.59361 0.87865 0.33662 0.0
C2384 C 0.58086 0.86004 0.34568 0.0
C2385 C 0.56949 0.85867 0.33591 0.0
C2386 C 0.57003 0.86731 0.32665 0.0
C2387 C 0.5821 0.87717 0.32693 0.0
H2388 H 0.83204 0.8812 0.13384 0.0
H2389 H 0.84524 0.85132 0.11544 0.0
H2390 H 0.80821 0.86195 0.09899 0.0
H2391 H 0.8062 0.83377 0.09215 0.0
C2392 C 0.81726 0.83438 0.09619 0.0
O2393 O 0.8249 0.84699 0.09645 0.0
H2394 H 0.81758 0.83119 0.10575 0.0
C2395 C 0.83036 0.87389 0.12626 0.0
C2396 C 0.81878 0.8724 0.11662 0.0
C2397 C 0.84006 0.86641 0.12598 0.0
C2398 C 0.83804 0.85732 0.11584 0.0
C2399 C 0.8266 0.85575 0.10616 0.0
C2400 C 0.81705 0.86332 0.10651 0.0
H2401 H 0.15982 0.67073 0.15684 0.0
H2402 H 0.17754 0.63819 0.163 0.0
H2403 H 0.19058 0.66433 0.13623 0.0
H2404 H 0.19137 0.63791 0.12819 0.0
C2405 C 0.1893 0.63361 0.13694 0.0
O2406 O 0.19354 0.64321 0.14655 0.0
H2407 H 0.1779 0.62922 0.13566 0.0
C2408 C 0.16695 0.66514 0.15483 0.0
C2409 C 0.17505 0.66891 0.14577 0.0
C2410 C 0.16778 0.65413 0.16116 0.0
C2411 C 0.17682 0.64678 0.1583 0.0
C2412 C 0.18507 0.65051 0.14938 0.0
C2413 C 0.18431 0.66164 0.14324 0.0
H2414 H 0.09665 0.36478 0.85147 0.0
H2415 H 0.05363 0.34742 0.83578 0.0
H2416 H 0.0781 0.37577 0.81661 0.0
H2417 H 0.05066 0.37903 0.81529 0.0
C2418 C 0.0449 0.36914 0.81678 0.0
O2419 O 0.05332 0.36076 0.81628 0.0
H2420 H 0.04204 0.36945 0.82611 0.0
C2421 C 0.08762 0.36397 0.84424 0.0
C2422 C 0.08889 0.37141 0.83407 0.0
C2423 C 0.07503 0.35517 0.84494 0.0
C2424 C 0.06351 0.35399 0.83533 0.0
C2425 C 0.06461 0.3615 0.8252 0.0
C2426 C 0.07735 0.37001 0.82447 0.0
H2427 H 0.32637 0.37913 0.6295 0.0
H2428 H 0.3395 0.34789 0.6134 0.0
H2429 H 0.30102 0.3561 0.59698 0.0
H2430 H 0.30015 0.32717 0.59272 0.0
C2431 C 0.31149 0.32865 0.59623 0.0
O2432 O 0.31815 0.34133 0.59525 0.0
H2433 H 0.31284 0.32633 0.60609 0.0
C2434 C 0.32467 0.37132 0.62239 0.0
C2435 C 0.31254 0.36862 0.61322 0.0
C2436 C 0.33443 0.36386 0.62265 0.0
C2437 C 0.33198 0.3536 0.61353 0.0
C2438 C 0.31997 0.35082 0.60432 0.0
C2439 C 0.3102 0.35824 0.60422 0.0
H2440 H 0.08453 0.57394 0.68986 0.0
H2441 H 0.10775 0.55238 0.67184 0.0
H2442 H 0.09359 0.53987 0.70512 0.0
H2443 H 0.12144 0.53312 0.70335 0.0
C2444 C 0.12146 0.53653 0.69393 0.0
O2445 O 0.10783 0.5353 0.68815 0.0
H2446 H 0.12749 0.54681 0.69496 0.0
C2447 C 0.08917 0.56582 0.68937 0.0
C2448 C 0.08817 0.55713 0.69858 0.0
C2449 C 0.09605 0.56418 0.67957 0.0
C2450 C 0.10233 0.55381 0.67927 0.0
C2451 C 0.10153 0.54512 0.6885 0.0
C2452 C 0.09425 0.54665 0.69804 0.0
H2453 H 0.42608 0.41435 0.18282 0.0
H2454 H 0.39143 0.42756 0.16404 0.0
H2455 H 0.41095 0.44281 0.20123 0.0
H2456 H 0.38097 0.43945 0.19692 0.0
C2457 C 0.37883 0.43942 0.18664 0.0
O2458 O 0.3912 0.44356 0.18252 0.0
H2459 H 0.37355 0.42934 0.18278 0.0
C2460 C 0.4189 0.42046 0.18271 0.0
C2461 C 0.41985 0.42866 0.19328 0.0
C2462 C 0.40867 0.41988 0.17211 0.0
C2463 C 0.39947 0.4279 0.17207 0.0
C2464 C 0.40029 0.43609 0.18257 0.0
C2465 C 0.41043 0.43645 0.19316 0.0
H2466 H 0.62503 0.36371 0.17505 0.0
H2467 H 0.60596 0.32333 0.16548 0.0
H2468 H 0.63946 0.34245 0.14819 0.0
H2469 H 0.61373 0.32588 0.13202 0.0
C2470 C 0.61196 0.31762 0.1379 0.0
O2471 O 0.62126 0.32068 0.14902 0.0
H2472 H 0.60115 0.3158 0.13965 0.0
C2473 C 0.62454 0.35474 0.16988 0.0
C2474 C 0.63373 0.3545 0.16165 0.0
C2475 C 0.61451 0.34359 0.17136 0.0
C2476 C 0.61376 0.33199 0.16458 0.0
C2477 C 0.62262 0.33168 0.1561 0.0
C2478 C 0.63261 0.34288 0.15469 0.0
H2479 H 0.88667 0.64532 0.64449 0.0
H2480 H 0.91189 0.6823 0.63863 0.0
H2481 H 0.87302 0.66601 0.6139 0.0
H2482 H 0.89739 0.67747 0.60246 0.0
C2483 C 0.90206 0.68615 0.60911 0.0
O2484 O 0.89489 0.68567 0.61878 0.0
H2485 H 0.91306 0.68611 0.61274 0.0
C2486 C 0.88831 0.65372 0.63921 0.0
C2487 C 0.87825 0.65447 0.62889 0.0
C2488 C 0.9005 0.66363 0.6428 0.0
C2489 C 0.90255 0.67454 0.63599 0.0
C2490 C 0.89272 0.67529 0.62549 0.0
C2491 C 0.88061 0.66527 0.62195 0.0
H2492 H 0.6526 0.4307 0.6718 0.0
H2493 H 0.61545 0.41418 0.68578 0.0
H2494 H 0.6339 0.45497 0.69186 0.0
H2495 H 0.62125 0.44567 0.71314 0.0
C2496 C 0.61557 0.43588 0.70881 0.0
O2497 O 0.61369 0.43601 0.69607 0.0
H2498 H 0.62199 0.42906 0.71201 0.0
C2499 C 0.64466 0.43175 0.67701 0.0
C2500 C 0.64468 0.44408 0.68181 0.0
C2501 C 0.63411 0.4209 0.67823 0.0
C2502 C 0.62362 0.42244 0.68464 0.0
C2503 C 0.62367 0.43468 0.68969 0.0
C2504 C 0.63404 0.44552 0.68807 0.0
H2505 H 0.31183 0.60583 0.81924 0.0
H2506 H 0.32438 0.64688 0.82873 0.0
H2507 H 0.29569 0.62272 0.84783 0.0
H2508 H 0.28859 0.64666 0.84168 0.0
C2509 C 0.29912 0.65303 0.84185 0.0
O2510 O 0.30908 0.64645 0.84575 0.0
H2511 H 0.29966 0.65584 0.83227 0.0
C2512 C 0.31117 0.61426 0.82464 0.0
C2513 C 0.30272 0.61274 0.83366 0.0
C2514 C 0.31912 0.6265 0.82279 0.0
C2515 C 0.3185 0.63733 0.83011 0.0
C2516 C 0.30999 0.63593 0.83905 0.0
C2517 C 0.30226 0.62366 0.84092 0.0
H2518 H 0.10575 0.35823 0.36249 0.0
H2519 H 0.08234 0.3206 0.36873 0.0
H2520 H 0.12235 0.33731 0.39157 0.0
H2521 H 0.11719 0.30992 0.38447 0.0
C2522 C 0.10582 0.30677 0.38438 0.0
O2523 O 0.10091 0.31723 0.38739 0.0
H2524 H 0.10059 0.3025 0.37486 0.0
C2525 C 0.10486 0.34965 0.36753 0.0
C2526 C 0.11565 0.34895 0.37722 0.0
C2527 C 0.09278 0.33956 0.36442 0.0
C2528 C 0.09163 0.32846 0.37097 0.0
C2529 C 0.10229 0.32769 0.38077 0.0
C2530 C 0.11421 0.33797 0.38395 0.0
H2531 H 0.3493 0.58377 0.36045 0.0
H2532 H 0.38053 0.6009 0.33974 0.0
H2533 H 0.35774 0.56129 0.33074 0.0
H2534 H 0.38592 0.56423 0.32762 0.0
C2535 C 0.38928 0.57495 0.32821 0.0
O2536 O 0.3777 0.57982 0.32554 0.0
H2537 H 0.39497 0.57826 0.33785 0.0
C2538 C 0.35513 0.58294 0.35317 0.0
C2539 C 0.35229 0.57118 0.34595 0.0
C2540 C 0.36519 0.59372 0.35099 0.0
C2541 C 0.37254 0.59273 0.3414 0.0
C2542 C 0.36991 0.581 0.33418 0.0
C2543 C 0.35962 0.57032 0.3363 0.0
H2544 H 0.18659 0.43712 0.10857 0.0
H2545 H 0.12802 0.38462 0.13241 0.0
H2546 H 0.18243 0.43589 0.14695 0.0
H2547 H 0.12781 0.39058 0.09375 0.0
H2548 H 0.14814 0.40311 0.13797 0.0
H2549 H 0.1654 0.41969 0.10299 0.0
C2550 C 0.18121 0.43318 0.11582 0.0
C2551 C 0.18631 0.43794 0.12825 0.0
C2552 C 0.14366 0.4004 0.12827 0.0
C2553 C 0.16202 0.41798 0.12193 0.0
C2554 C 0.13211 0.38986 0.12508 0.0
C2555 C 0.1262 0.38596 0.11257 0.0
C2556 C 0.14942 0.40706 0.1189 0.0
C2557 C 0.13214 0.39305 0.1035 0.0
C2558 C 0.16907 0.42327 0.11263 0.0
C2559 C 0.17881 0.43258 0.13724 0.0
N2560 N 0.14344 0.4032 0.10684 0.0
N2561 N 0.1671 0.42284 0.13392 0.0
H2562 H 0.79786 0.91132 0.38188 0.0
H2563 H 0.87756 0.9228 0.37477 0.0
H2564 H 0.819 0.94205 0.36255 0.0
H2565 H 0.85555 0.88965 0.39066 0.0
H2566 H 0.85659 0.93078 0.37158 0.0
H2567 H 0.81922 0.90395 0.3864 0.0
C2568 C 0.80696 0.91651 0.37855 0.0
C2569 C 0.80658 0.92733 0.37179 0.0
C2570 C 0.85634 0.92177 0.37579 0.0
C2571 C 0.83115 0.919 0.37708 0.0
C2572 C 0.86831 0.91718 0.37757 0.0
C2573 C 0.86831 0.90547 0.3829 0.0
C2574 C 0.84423 0.91464 0.37937 0.0
C2575 C 0.85608 0.89876 0.3866 0.0
C2576 C 0.81918 0.91233 0.3812 0.0
C2577 C 0.81881 0.93378 0.36792 0.0
N2578 N 0.84452 0.90341 0.38471 0.0
N2579 N 0.83055 0.92951 0.3706 0.0
H2580 H 0.29509 0.52559 0.58978 0.0
H2581 H 0.30415 0.6006 0.57965 0.0
H2582 H 0.26245 0.54506 0.59128 0.0
H2583 H 0.33744 0.58132 0.58319 0.0
H2584 H 0.28773 0.57987 0.58094 0.0
H2585 H 0.30968 0.54541 0.58444 0.0
C2586 C 0.29089 0.53399 0.58883 0.0
C2587 C 0.27749 0.53362 0.591 0.0
C2588 C 0.29861 0.58017 0.58132 0.0
C2589 C 0.29434 0.55655 0.58508 0.0
C2590 C 0.30795 0.59196 0.5805 0.0
C2591 C 0.32217 0.59266 0.58143 0.0
C2592 C 0.30356 0.56903 0.583 0.0
C2593 C 0.32658 0.58122 0.58261 0.0
C2594 C 0.2993 0.54536 0.58586 0.0
C2595 C 0.27278 0.54493 0.58984 0.0
N2596 N 0.31733 0.56991 0.58342 0.0
N2597 N 0.28121 0.55596 0.58701 0.0
H2598 H 0.6829 0.04896 0.92007 0.0
H2599 H 0.61673 0.07632 0.89612 0.0
H2600 H 0.64547 0.0267 0.89618 0.0
H2601 H 0.65094 0.09687 0.92448 0.0
H2602 H 0.6272 0.05799 0.89623 0.0
H2603 H 0.67164 0.06667 0.92189 0.0
C2604 C 0.67232 0.0478 0.91521 0.0
C2605 C 0.66512 0.03632 0.90795 0.0
C2606 C 0.6324 0.06646 0.90251 0.0
C2607 C 0.65217 0.05651 0.91004 0.0
C2608 C 0.62644 0.07693 0.90241 0.0
C2609 C 0.63303 0.08815 0.91024 0.0
C2610 C 0.64515 0.0672 0.9104 0.0
C2611 C 0.64551 0.08837 0.91833 0.0
C2612 C 0.66587 0.05787 0.91632 0.0
C2613 C 0.65137 0.03529 0.90199 0.0
N2614 N 0.65125 0.07809 0.91812 0.0
N2615 N 0.64539 0.04527 0.90311 0.0
H2616 H 0.16359 0.5363 0.39913 0.0
H2617 H 0.15536 0.60205 0.4306 0.0
H2618 H 0.19709 0.56318 0.42377 0.0
H2619 H 0.12456 0.57779 0.40169 0.0
H2620 H 0.16956 0.58636 0.4307 0.0
H2621 H 0.148 0.54983 0.40247 0.0
C2622 C 0.16763 0.54496 0.40539 0.0
C2623 C 0.1817 0.54863 0.41113 0.0
C2624 C 0.15964 0.58443 0.42441 0.0
C2625 C 0.16391 0.5643 0.41486 0.0
C2626 C 0.1515 0.59333 0.42441 0.0
C2627 C 0.13884 0.59126 0.41604 0.0
C2628 C 0.15502 0.57336 0.41603 0.0
C2629 C 0.13436 0.57985 0.40816 0.0
C2630 C 0.15874 0.55274 0.40722 0.0
C2631 C 0.18637 0.56007 0.419 0.0
N2632 N 0.14247 0.57137 0.4083 0.0
N2633 N 0.17751 0.56753 0.4206 0.0
H2634 H 0.67887 0.94543 0.61719 0.0
H2635 H 0.62549 0.88361 0.63508 0.0
H2636 H 0.6829 0.93137 0.65358 0.0
H2637 H 0.62458 0.89539 0.59791 0.0
H2638 H 0.6452 0.90219 0.64251 0.0
H2639 H 0.65762 0.92833 0.61047 0.0
C2640 C 0.67521 0.93883 0.62381 0.0
C2641 C 0.68272 0.93982 0.63597 0.0
C2642 C 0.64066 0.90072 0.63273 0.0
C2643 C 0.65844 0.92009 0.62828 0.0
C2644 C 0.62936 0.89016 0.6285 0.0
C2645 C 0.62344 0.88789 0.61584 0.0
C2646 C 0.64603 0.90912 0.62426 0.0
C2647 C 0.62896 0.89664 0.60772 0.0
C2648 C 0.66312 0.929 0.61994 0.0
C2649 C 0.67755 0.93086 0.64408 0.0
N2650 N 0.63994 0.90684 0.61205 0.0
N2651 N 0.66576 0.92137 0.64009 0.0
H2652 H 0.32314 0.44237 0.8884 0.0
H2653 H 0.35322 0.38634 0.86202 0.0
H2654 H 0.30436 0.41891 0.85415 0.0
H2655 H 0.37095 0.40805 0.89734 0.0
H2656 H 0.33458 0.39751 0.85954 0.0
H2657 H 0.34014 0.42939 0.89236 0.0
C2658 C 0.32258 0.43448 0.88171 0.0
C2659 C 0.31234 0.43178 0.87089 0.0
C2660 C 0.34248 0.39979 0.86788 0.0
C2661 C 0.33173 0.41682 0.8754 0.0
C2662 C 0.35316 0.39345 0.86928 0.0
C2663 C 0.36373 0.39636 0.87985 0.0
C2664 C 0.34237 0.40921 0.87709 0.0
C2665 C 0.36299 0.40549 0.88906 0.0
C2666 C 0.33224 0.42703 0.88402 0.0
C2667 C 0.31198 0.42129 0.86266 0.0
N2668 N 0.35256 0.41167 0.88742 0.0
N2669 N 0.32158 0.41427 0.86505 0.0
H2670 H 0.79082 0.04126 0.0794 0.0
H2671 H 0.82353 0.11406 0.10801 0.0
H2672 H 0.78296 0.05694 0.11344 0.0
H2673 H 0.83 0.09986 0.07283 0.0
H2674 H 0.80704 0.09356 0.10915 0.0
H2675 H 0.8038 0.06284 0.07591 0.0
C2676 C 0.79177 0.04924 0.08612 0.0
C2677 C 0.78584 0.04724 0.09677 0.0
C2678 C 0.81194 0.09491 0.10111 0.0
C2679 C 0.80062 0.07198 0.0928 0.0
C2680 C 0.82137 0.10662 0.10047 0.0
C2681 C 0.82823 0.10858 0.09038 0.0
C2682 C 0.80941 0.085 0.09163 0.0
C2683 C 0.82491 0.09871 0.08077 0.0
C2684 C 0.79912 0.06157 0.08408 0.0
C2685 C 0.78723 0.05799 0.10504 0.0
N2686 N 0.81586 0.08726 0.0817 0.0
N2687 N 0.79455 0.06984 0.10293 0.0
H2688 H 0.1137 0.13693 0.39963 0.0
H2689 H 0.05993 0.08088 0.35358 0.0
H2690 H 0.07097 0.12183 0.4032 0.0
H2691 H 0.10315 0.09429 0.35098 0.0
H2692 H 0.06441 0.09434 0.37301 0.0
H2693 H 0.11071 0.12006 0.38304 0.0
C2694 C 0.10371 0.13002 0.39698 0.0
C2695 C 0.09253 0.13087 0.40275 0.0
C2696 C 0.07297 0.09425 0.36828 0.0
C2697 C 0.08904 0.11152 0.38376 0.0
C2698 C 0.0704 0.08659 0.35717 0.0
C2699 C 0.08115 0.08658 0.35059 0.0
C2700 C 0.08638 0.10207 0.37282 0.0
C2701 C 0.09457 0.094 0.35576 0.0
C2702 C 0.10203 0.12035 0.38754 0.0
C2703 C 0.0799 0.12151 0.39907 0.0
N2704 N 0.09677 0.10157 0.3665 0.0
N2705 N 0.07846 0.11232 0.38974 0.0
H2706 H 0.04495 0.83871 0.71761 0.0
H2707 H 0.12156 0.85238 0.7021 0.0
H2708 H 0.08134 0.86329 0.74106 0.0
H2709 H 0.08506 0.82951 0.67747 0.0
H2710 H 0.10731 0.85438 0.71756 0.0
H2711 H 0.05976 0.83321 0.70389 0.0
C2712 C 0.05606 0.84291 0.71991 0.0
C2713 C 0.06188 0.85157 0.73047 0.0
C2714 C 0.10242 0.84884 0.70882 0.0
C2715 C 0.07891 0.84525 0.71482 0.0
C2716 C 0.11055 0.84773 0.69997 0.0
C2717 C 0.10447 0.84089 0.68841 0.0
C2718 C 0.08806 0.84311 0.70611 0.0
C2719 C 0.09019 0.83484 0.68626 0.0
C2720 C 0.06452 0.83972 0.7121 0.0
C2721 C 0.07638 0.8565 0.7331 0.0
N2722 N 0.08245 0.83619 0.69498 0.0
N2723 N 0.08437 0.85336 0.72528 0.0
H2724 H 0.31234 0.83909 0.847 0.0
H2725 H 0.37045 0.89847 0.83141 0.0
H2726 H 0.3553 0.84828 0.86544 0.0
H2727 H 0.32638 0.89407 0.81961 0.0
H2728 H 0.36545 0.87856 0.84189 0.0
H2729 H 0.31767 0.85777 0.83494 0.0
C2730 C 0.32292 0.845 0.84845 0.0
C2731 C 0.33339 0.84215 0.85726 0.0
C2732 C 0.35688 0.88193 0.83697 0.0
C2733 C 0.33955 0.86356 0.84352 0.0
C2734 C 0.35973 0.89323 0.83091 0.0
C2735 C 0.34881 0.89795 0.82469 0.0
C2736 C 0.34301 0.87524 0.8367 0.0
C2737 C 0.3351 0.89085 0.82444 0.0
C2738 C 0.32593 0.85569 0.84161 0.0
C2739 C 0.34688 0.85022 0.85885 0.0
N2740 N 0.33259 0.87986 0.83037 0.0
N2741 N 0.34958 0.86054 0.85203 0.0
H2742 H 0.45392 0.13277 0.20089 0.0
H2743 H 0.41679 0.1808 0.16197 0.0
H2744 H 0.45161 0.16966 0.21641 0.0
H2745 H 0.41605 0.14231 0.14832 0.0
H2746 H 0.43248 0.17838 0.18097 0.0
H2747 H 0.44306 0.13761 0.18065 0.0
C2748 C 0.45133 0.14199 0.20002 0.0
C2749 C 0.45363 0.15078 0.21043 0.0
C2750 C 0.42899 0.17052 0.17376 0.0
C2751 C 0.4409 0.1563 0.18721 0.0
C2752 C 0.42012 0.17193 0.16289 0.0
C2753 C 0.415 0.16168 0.15364 0.0
C2754 C 0.4328 0.15879 0.17532 0.0
C2755 C 0.41957 0.15037 0.15533 0.0
C2756 C 0.44502 0.1447 0.18845 0.0
C2757 C 0.44982 0.16249 0.20871 0.0
N2758 N 0.42812 0.1492 0.16597 0.0
N2759 N 0.44357 0.16487 0.19735 0.0
H2760 H 0.11351 0.85566 0.12758 0.0
H2761 H 0.15887 0.90683 0.18282 0.0
H2762 H 0.15633 0.85767 0.14331 0.0
H2763 H 0.11574 0.90442 0.16804 0.0
H2764 H 0.15726 0.88717 0.17005 0.0
H2765 H 0.11326 0.87186 0.14378 0.0
C2766 C 0.12284 0.85945 0.13449 0.0
C2767 C 0.13501 0.85539 0.134 0.0
C2768 C 0.14809 0.89083 0.16968 0.0
C2769 C 0.13479 0.87392 0.1526 0.0
C2770 C 0.14901 0.90207 0.17695 0.0
C2771 C 0.13746 0.90734 0.17637 0.0
C2772 C 0.13554 0.88485 0.16165 0.0
C2773 C 0.12489 0.90068 0.16878 0.0
C2774 C 0.12267 0.86866 0.14377 0.0
C2775 C 0.1467 0.86045 0.14334 0.0
N2776 N 0.12431 0.88986 0.16159 0.0
N2777 N 0.14634 0.86954 0.15216 0.0
H2778 H 0.34653 0.82076 0.28469 0.0
H2779 H 0.31714 0.86178 0.33119 0.0
H2780 H 0.35485 0.86229 0.28668 0.0
H2781 H 0.30614 0.82016 0.32652 0.0
H2782 H 0.3298 0.86227 0.31404 0.0
H2783 H 0.33072 0.8204 0.29927 0.0
C2784 C 0.34499 0.82981 0.28818 0.0
C2785 C 0.3521 0.84157 0.28453 0.0
C2786 C 0.32453 0.85303 0.31672 0.0
C2787 C 0.33399 0.84126 0.30125 0.0
C2788 C 0.31723 0.85275 0.32646 0.0
C2789 C 0.31068 0.8409 0.3304 0.0
C2790 C 0.32532 0.8414 0.31087 0.0
C2791 C 0.31127 0.82951 0.32399 0.0
C2792 C 0.33591 0.8296 0.29646 0.0
C2793 C 0.34953 0.85299 0.28919 0.0
N2794 N 0.31854 0.83005 0.31462 0.0
N2795 N 0.34078 0.85256 0.29739 0.0
H2796 H 0.38721 0.16633 0.59032 0.0
H2797 H 0.34919 0.12125 0.63703 0.0
H2798 H 0.34735 0.16754 0.59898 0.0
H2799 H 0.38988 0.1205 0.63015 0.0
H2800 H 0.34826 0.13785 0.6226 0.0
H2801 H 0.38827 0.14914 0.60428 0.0
C2802 C 0.37865 0.16294 0.5951 0.0
C2803 C 0.3672 0.16844 0.59352 0.0
C2804 C 0.3574 0.13407 0.62421 0.0
C2805 C 0.36839 0.14885 0.60955 0.0
C2806 C 0.3579 0.12451 0.6324 0.0
C2807 C 0.36959 0.11939 0.63474 0.0
C2808 C 0.36868 0.13861 0.61826 0.0
C2809 C 0.3807 0.12423 0.62867 0.0
C2810 C 0.3793 0.15318 0.60312 0.0
C2811 C 0.35648 0.16375 0.60006 0.0
N2812 N 0.37996 0.13355 0.62068 0.0
N2813 N 0.35735 0.15425 0.60776 0.0
H2814 H 0.08259 0.10355 0.83126 0.0
H2815 H 0.14284 0.16132 0.86918 0.0
H2816 H 0.09063 0.14274 0.82095 0.0
H2817 H 0.13769 0.12154 0.87728 0.0
H2818 H 0.12433 0.15454 0.85097 0.0
H2819 H 0.10324 0.10974 0.84767 0.0
C2820 C 0.08873 0.11345 0.83243 0.0
C2821 C 0.08482 0.12265 0.82476 0.0
C2822 C 0.1273 0.14727 0.85666 0.0
C2823 C 0.10851 0.12982 0.84353 0.0
C2824 C 0.13784 0.15115 0.86709 0.0
C2825 C 0.14174 0.14199 0.87481 0.0
C2826 C 0.12051 0.13414 0.85396 0.0
C2827 C 0.13505 0.12891 0.87155 0.0
C2828 C 0.10055 0.11697 0.84177 0.0
C2829 C 0.09329 0.1353 0.82658 0.0
N2830 N 0.12468 0.12539 0.86144 0.0
N2831 N 0.10465 0.13853 0.83583 0.0
H2832 H 0.84974 0.36242 0.78162 0.0
H2833 H 0.80227 0.31912 0.82336 0.0
H2834 H 0.84186 0.32097 0.78086 0.0
H2835 H 0.81369 0.36074 0.82745 0.0
H2836 H 0.81406 0.31965 0.80571 0.0
H2837 H 0.8339 0.36199 0.79625 0.0
C2838 C 0.84453 0.35321 0.78439 0.0
C2839 C 0.84722 0.34172 0.78009 0.0
C2840 C 0.81392 0.32869 0.8104 0.0
C2841 C 0.82919 0.34116 0.79691 0.0
C2842 C 0.80721 0.32839 0.8205 0.0
C2843 C 0.80716 0.33991 0.827 0.0
C2844 C 0.82067 0.34059 0.80673 0.0
C2845 C 0.81346 0.35163 0.8227 0.0
C2846 C 0.83556 0.35298 0.79281 0.0
C2847 C 0.84027 0.33008 0.7841 0.0
N2848 N 0.82009 0.35168 0.81291 0.0
N2849 N 0.83165 0.33011 0.79232 0.0
H2850 H 0.86333 0.65679 0.08015 0.0
H2851 H 0.8874 0.63903 0.14924 0.0
H2852 H 0.88521 0.68516 0.11037 0.0
H2853 H 0.86557 0.61077 0.11892 0.0
H2854 H 0.88805 0.65595 0.13489 0.0
H2855 H 0.86533 0.63973 0.09394 0.0
C2856 C 0.86868 0.65944 0.08965 0.0
C2857 C 0.87406 0.67246 0.0941 0.0
C2858 C 0.88317 0.64604 0.13136 0.0
C2859 C 0.87624 0.65293 0.11002 0.0
C2860 C 0.88288 0.63636 0.13954 0.0
C2861 C 0.87635 0.62345 0.1353 0.0
C2862 C 0.87689 0.64282 0.11884 0.0
C2863 C 0.87051 0.6206 0.12265 0.0
C2864 C 0.86975 0.64968 0.09755 0.0
C2865 C 0.88071 0.67528 0.10657 0.0
N2866 N 0.87088 0.6302 0.11489 0.0
N2867 N 0.88157 0.66561 0.1141 0.0
H2868 H 0.58354 0.60549 0.33267 0.0
H2869 H 0.64371 0.66365 0.37007 0.0
H2870 H 0.59117 0.64462 0.32219 0.0
H2871 H 0.63941 0.62389 0.37798 0.0
H2872 H 0.62489 0.65673 0.35212 0.0
H2873 H 0.60432 0.61186 0.34895 0.0
C2874 C 0.58961 0.61542 0.33378 0.0
C2875 C 0.58557 0.62455 0.32609 0.0
C2876 C 0.62811 0.6495 0.35772 0.0
C2877 C 0.60938 0.63191 0.3447 0.0
C2878 C 0.63881 0.65345 0.368 0.0
C2879 C 0.64306 0.64434 0.37559 0.0
C2880 C 0.62149 0.63633 0.35502 0.0
C2881 C 0.63651 0.63123 0.37236 0.0
C2882 C 0.60151 0.61903 0.34303 0.0
C2883 C 0.59395 0.63723 0.32783 0.0
N2884 N 0.62596 0.62763 0.36238 0.0
N2885 N 0.60538 0.64056 0.337 0.0
H2886 H 0.81474 0.34845 0.34579 0.0
H2887 H 0.87664 0.40404 0.32996 0.0
H2888 H 0.8578 0.35333 0.36265 0.0
H2889 H 0.83339 0.4045 0.32115 0.0
H2890 H 0.87001 0.38366 0.33946 0.0
H2891 H 0.82152 0.36729 0.33425 0.0
C2892 C 0.82564 0.35344 0.34698 0.0
C2893 C 0.83572 0.34936 0.35522 0.0
C2894 C 0.86198 0.3882 0.3354 0.0
C2895 C 0.84355 0.37093 0.34207 0.0
C2896 C 0.86574 0.39976 0.3299 0.0
C2897 C 0.85555 0.40598 0.32484 0.0
C2898 C 0.84791 0.38278 0.3357 0.0
C2899 C 0.84158 0.40009 0.32509 0.0
C2900 C 0.82949 0.36422 0.34045 0.0
C2901 C 0.84968 0.35626 0.35651 0.0
N2902 N 0.83817 0.38883 0.33045 0.0
N2903 N 0.85319 0.3667 0.35 0.0
H2904 H 0.55809 0.62105 0.9002 0.0
H2905 H 0.59696 0.59041 0.8537 0.0
H2906 H 0.60263 0.63137 0.90287 0.0
H2907 H 0.55242 0.58155 0.85078 0.0
H2908 H 0.5996 0.6033 0.87329 0.0
H2909 H 0.55614 0.60455 0.88361 0.0
C2910 C 0.56748 0.6198 0.89733 0.0
C2911 C 0.58053 0.6277 0.90284 0.0
C2912 C 0.58926 0.59843 0.86841 0.0
C2913 C 0.5784 0.60879 0.88381 0.0
C2914 C 0.58776 0.59102 0.85728 0.0
C2915 C 0.57445 0.58505 0.85053 0.0
C2916 C 0.57736 0.59985 0.87282 0.0
C2917 C 0.56287 0.58621 0.85556 0.0
C2918 C 0.56637 0.61034 0.88787 0.0
C2919 C 0.59237 0.62547 0.8989 0.0
N2920 N 0.56459 0.59354 0.86633 0.0
N2921 N 0.59101 0.61631 0.88954 0.0
H2922 H 0.79042 0.56608 0.84962 0.0
H2923 H 0.85034 0.59764 0.90777 0.0
H2924 H 0.79331 0.55096 0.88554 0.0
H2925 H 0.85067 0.60954 0.87074 0.0
H2926 H 0.82932 0.58061 0.89981 0.0
H2927 H 0.81233 0.5822 0.85717 0.0
C2928 C 0.79566 0.56616 0.8591 0.0
C2929 C 0.78999 0.55718 0.86697 0.0
C2930 C 0.834 0.58691 0.89341 0.0
C2931 C 0.81511 0.57559 0.87568 0.0
C2932 C 0.84597 0.59668 0.89796 0.0
C2933 C 0.85223 0.60507 0.88992 0.0
C2934 C 0.82816 0.58555 0.88072 0.0
C2935 C 0.84624 0.60324 0.87726 0.0
C2936 C 0.80821 0.57532 0.86339 0.0
C2937 C 0.79735 0.55762 0.87911 0.0
N2938 N 0.83449 0.59373 0.87307 0.0
N2939 N 0.80947 0.56671 0.88311 0.0
H2940 H 0.15702 0.05509 0.62866 0.0
H2941 H 0.08251 0.06939 0.62552 0.0
H2942 H 0.11954 0.02532 0.62845 0.0
H2943 H 0.1173 0.09676 0.61594 0.0
H2944 H 0.09613 0.05325 0.62717 0.0
H2945 H 0.14293 0.07064 0.62443 0.0
C2946 C 0.14583 0.05177 0.62761 0.0
C2947 C 0.13951 0.03883 0.62899 0.0
C2948 C 0.10077 0.06275 0.62461 0.0
C2949 C 0.12332 0.05671 0.62435 0.0
C2950 C 0.09301 0.07196 0.62371 0.0
C2951 C 0.09882 0.08443 0.62064 0.0
C2952 C 0.11452 0.06604 0.62259 0.0
C2953 C 0.11242 0.08723 0.61827 0.0
C2954 C 0.1378 0.06069 0.62525 0.0
C2955 C 0.12495 0.03521 0.62773 0.0
N2956 N 0.11987 0.07815 0.61941 0.0
N2957 N 0.11738 0.0441 0.62556 0.0
H2958 H 0.712 0.46807 0.43114 0.0
H2959 H 0.66557 0.39762 0.40539 0.0
H2960 H 0.71041 0.45024 0.39486 0.0
H2961 H 0.66766 0.41425 0.44223 0.0
H2962 H 0.68397 0.416 0.40232 0.0
H2963 H 0.69763 0.44782 0.43626 0.0
C2964 C 0.7087 0.45988 0.42427 0.0
C2965 C 0.71233 0.46091 0.41251 0.0
C2966 C 0.68054 0.41562 0.41113 0.0
C2967 C 0.69594 0.43768 0.41833 0.0
C2968 C 0.67002 0.40513 0.41288 0.0
C2969 C 0.66499 0.40451 0.42403 0.0
C2970 C 0.68602 0.42568 0.42056 0.0
C2971 C 0.67125 0.41438 0.4335 0.0
C2972 C 0.70055 0.44831 0.42723 0.0
C2973 C 0.70797 0.44991 0.40407 0.0
N2974 N 0.68133 0.42466 0.43149 0.0
N2975 N 0.69991 0.43882 0.40711 0.0
H2976 H 0.29733 0.95398 0.08245 0.0
H2977 H 0.29423 0.87984 0.09232 0.0
H2978 H 0.26934 0.93016 0.10278 0.0
H2979 H 0.3192 0.90145 0.06837 0.0
H2980 H 0.28439 0.89815 0.09545 0.0
H2981 H 0.30509 0.93496 0.07654 0.0
C2982 C 0.29278 0.94476 0.08563 0.0
C2983 C 0.28265 0.94369 0.09312 0.0
C2984 C 0.29194 0.89891 0.08943 0.0
C2985 C 0.29145 0.9219 0.08638 0.0
C2986 C 0.29758 0.88845 0.08766 0.0
C2987 C 0.30762 0.88919 0.08016 0.0
C2988 C 0.29645 0.91029 0.08375 0.0
C2989 C 0.31145 0.9005 0.07421 0.0
C2990 C 0.29715 0.9339 0.0822 0.0
C2991 C 0.27702 0.93146 0.09686 0.0
N2992 N 0.30597 0.91069 0.07624 0.0
N2993 N 0.28155 0.92111 0.09351 0.0
H2994 H 0.80433 0.46227 0.60079 0.0
H2995 H 0.7932 0.39377 0.56332 0.0
H2996 H 0.76525 0.44183 0.57803 0.0
H2997 H 0.82965 0.41196 0.59057 0.0
H2998 H 0.78395 0.4127 0.56609 0.0
H2999 H 0.81487 0.44537 0.59458 0.0
C3000 C 0.798 0.45432 0.59434 0.0
C3001 C 0.78385 0.45345 0.58998 0.0
C3002 C 0.79402 0.41258 0.57139 0.0
C3003 C 0.79585 0.43391 0.58296 0.0
C3004 C 0.79933 0.40182 0.56975 0.0
C3005 C 0.81214 0.40126 0.57682 0.0
C3006 C 0.80163 0.42285 0.58009 0.0
C3007 C 0.81963 0.41192 0.58508 0.0
C3008 C 0.80401 0.44461 0.59087 0.0
C3009 C 0.77614 0.4428 0.58177 0.0
N3010 N 0.81424 0.42223 0.58653 0.0
N3011 N 0.78222 0.43341 0.57857 0.0
H3012 H 0.30111 0.05222 0.38571 0.0
H3013 H 0.35875 0.11225 0.37046 0.0
H3014 H 0.29834 0.06872 0.35044 0.0
H3015 H 0.35794 0.0994 0.40711 0.0
H3016 H 0.33794 0.09496 0.36241 0.0
H3017 H 0.32325 0.06804 0.39313 0.0
C3018 C 0.30522 0.05909 0.37948 0.0
C3019 C 0.29783 0.05917 0.36744 0.0
C3020 C 0.34233 0.0959 0.37221 0.0
C3021 C 0.32314 0.07739 0.37592 0.0
C3022 C 0.35426 0.10572 0.37679 0.0
C3023 C 0.36005 0.10731 0.38949 0.0
C3024 C 0.33618 0.08756 0.38036 0.0
C3025 C 0.35371 0.09864 0.39729 0.0
C3026 C 0.31782 0.06818 0.38376 0.0
C3027 C 0.30359 0.06842 0.35984 0.0
N3028 N 0.34212 0.08916 0.3926 0.0
N3029 N 0.31589 0.07716 0.36421 0.0
H3030 H 0.62475 0.52662 0.1385 0.0
H3031 H 0.61731 0.59504 0.11538 0.0
H3032 H 0.65468 0.55085 0.12019 0.0
H3033 H 0.5861 0.56901 0.13095 0.0
H3034 H 0.63104 0.57896 0.1167 0.0
H3035 H 0.61042 0.54204 0.13557 0.0
C3036 C 0.62827 0.53513 0.13376 0.0
C3037 C 0.64096 0.53739 0.12957 0.0
C3038 C 0.62116 0.57676 0.11979 0.0
C3039 C 0.62462 0.55526 0.12634 0.0
C3040 C 0.61328 0.5859 0.11897 0.0
C3041 C 0.60056 0.58342 0.12314 0.0
C3042 C 0.61631 0.56503 0.12482 0.0
C3043 C 0.59595 0.57146 0.12784 0.0
C3044 C 0.6201 0.54398 0.13215 0.0
C3045 C 0.64508 0.54875 0.12372 0.0
N3046 N 0.60383 0.56275 0.12859 0.0
N3047 N 0.63694 0.55726 0.1223 0.0
H3048 H 0.21118 0.94779 0.89856 0.0
H3049 H 0.16711 0.91227 0.94689 0.0
H3050 H 0.21103 0.96563 0.9344 0.0
H3051 H 0.1642 0.89698 0.90939 0.0
H3052 H 0.1861 0.93039 0.94391 0.0
H3053 H 0.19699 0.92768 0.90385 0.0
C3054 C 0.20837 0.94744 0.90764 0.0
C3055 C 0.21224 0.95848 0.91601 0.0
C3056 C 0.1814 0.92299 0.93639 0.0
C3057 C 0.1957 0.93546 0.92206 0.0
C3058 C 0.17064 0.91262 0.93811 0.0
C3059 C 0.16399 0.90322 0.92832 0.0
C3060 C 0.18555 0.92389 0.92481 0.0
C3061 C 0.1689 0.90415 0.91711 0.0
C3062 C 0.20015 0.93595 0.91062 0.0
C3063 C 0.20808 0.95743 0.92757 0.0
N3064 N 0.1793 0.91434 0.91564 0.0
N3065 N 0.19995 0.94616 0.93022 0.0
H3066 H 0.89887 0.88307 0.59881 0.0
H3067 H 0.89874 0.89265 0.67143 0.0
H3068 H 0.89577 0.85257 0.62352 0.0
H3069 H 0.90154 0.92416 0.64791 0.0
H3070 H 0.89712 0.87792 0.65356 0.0
H3071 H 0.89959 0.8984 0.61626 0.0
C3072 C 0.89835 0.87959 0.60788 0.0
C3073 C 0.89715 0.86647 0.60967 0.0
C3074 C 0.89808 0.88804 0.65224 0.0
C3075 C 0.89791 0.88392 0.62961 0.0
C3076 C 0.89907 0.89648 0.66248 0.0
C3077 C 0.90046 0.90969 0.66119 0.0
C3078 C 0.89847 0.89277 0.64053 0.0
C3079 C 0.90048 0.91404 0.6493 0.0
C3080 C 0.89869 0.88833 0.61781 0.0
C3081 C 0.89642 0.86251 0.62161 0.0
N3082 N 0.89959 0.9056 0.63941 0.0
N3083 N 0.89683 0.87117 0.63108 0.0
H3084 H 0.87734 0.16073 0.27117 0.0
H3085 H 0.85265 0.12674 0.32989 0.0
H3086 H 0.89341 0.13038 0.28822 0.0
H3087 H 0.83289 0.15389 0.3108 0.0
H3088 H 0.86919 0.12964 0.31584 0.0
H3089 H 0.86239 0.1599 0.28661 0.0
C3090 C 0.87774 0.1539 0.27815 0.0
C3091 C 0.88665 0.14558 0.27834 0.0
C3092 C 0.86128 0.13501 0.31472 0.0
C3093 C 0.86965 0.14469 0.29613 0.0
C3094 C 0.85178 0.13332 0.32272 0.0
C3095 C 0.84124 0.13995 0.32142 0.0
C3096 C 0.86028 0.14342 0.30531 0.0
C3097 C 0.84086 0.1486 0.31215 0.0
C3098 C 0.86925 0.15348 0.287 0.0
C3099 C 0.88688 0.13709 0.28776 0.0
N3100 N 0.85018 0.15002 0.30439 0.0
N3101 N 0.87848 0.13684 0.29622 0.0
H3102 H 0.62685 0.12555 0.12658 0.0
H3103 H 0.5802 0.0745 0.16318 0.0
H3104 H 0.58394 0.12385 0.12798 0.0
H3105 H 0.6248 0.08107 0.16784 0.0
H3106 H 0.58088 0.09054 0.14797 0.0
H3107 H 0.62572 0.10725 0.13939 0.0
C3108 C 0.61715 0.12124 0.12948 0.0
C3109 C 0.60549 0.12627 0.12626 0.0
C3110 C 0.59051 0.08843 0.15227 0.0
C3111 C 0.60415 0.10539 0.14096 0.0
C3112 C 0.59015 0.0793 0.16099 0.0
C3113 C 0.60249 0.07654 0.16694 0.0
C3114 C 0.60331 0.09487 0.1494 0.0
C3115 C 0.61502 0.08284 0.16347 0.0
C3116 C 0.61654 0.11085 0.13685 0.0
C3117 C 0.59324 0.1204 0.13039 0.0
N3118 N 0.61512 0.09177 0.155 0.0
N3119 N 0.5929 0.11029 0.13752 0.0
H3120 H 0.52855 0.83311 0.80027 0.0
H3121 H 0.57775 0.86145 0.86542 0.0
H3122 H 0.54187 0.87352 0.81298 0.0
H3123 H 0.57548 0.8236 0.84892 0.0
H3124 H 0.56147 0.86474 0.84746 0.0
H3125 H 0.54291 0.8283 0.8191 0.0
C3126 C 0.53447 0.84095 0.80703 0.0
C3127 C 0.53412 0.85375 0.80503 0.0
C3128 C 0.56449 0.85569 0.84776 0.0
C3129 C 0.55036 0.84832 0.82654 0.0
C3130 C 0.5738 0.85381 0.85801 0.0
C3131 C 0.57819 0.84232 0.85858 0.0
C3132 C 0.55938 0.84601 0.83797 0.0
C3133 C 0.57239 0.83261 0.84885 0.0
C3134 C 0.54267 0.8382 0.81773 0.0
C3135 C 0.542 0.86355 0.81405 0.0
N3136 N 0.56334 0.83471 0.83888 0.0
N3137 N 0.54974 0.86062 0.82441 0.0
H3138 H 0.8735 0.1461 0.91184 0.0
H3139 H 0.86722 0.11786 0.84204 0.0
H3140 H 0.86182 0.16625 0.88003 0.0
H3141 H 0.8728 0.09651 0.87418 0.0
H3142 H 0.86918 0.13717 0.85574 0.0
H3143 H 0.87723 0.12944 0.89812 0.0
C3144 C 0.87192 0.14715 0.90197 0.0
C3145 C 0.86729 0.15762 0.89711 0.0
C3146 C 0.87016 0.1283 0.85979 0.0
C3147 C 0.8713 0.13831 0.88124 0.0
C3148 C 0.86915 0.11734 0.85198 0.0
C3149 C 0.86974 0.1056 0.85702 0.0
C3150 C 0.87186 0.12747 0.87268 0.0
C3151 C 0.87214 0.10536 0.86994 0.0
C3152 C 0.87395 0.13754 0.89412 0.0
C3153 C 0.86518 0.15826 0.88419 0.0
N3154 N 0.87302 0.11609 0.87731 0.0
N3155 N 0.86712 0.1487 0.87669 0.0
H3156 H 0.60089 0.12041 0.69122 0.0
H3157 H 0.66727 0.17289 0.67884 0.0
H3158 H 0.61794 0.15708 0.71272 0.0
H3159 H 0.65213 0.13522 0.65898 0.0
H3160 H 0.64992 0.16685 0.69198 0.0
H3161 H 0.6201 0.12525 0.67987 0.0
C3162 C 0.60868 0.12948 0.69356 0.0
C3163 C 0.60775 0.13839 0.70289 0.0
C3164 C 0.65044 0.15986 0.68481 0.0
C3165 C 0.62983 0.14397 0.68997 0.0
C3166 C 0.66031 0.16333 0.67728 0.0
C3167 C 0.66108 0.15458 0.66773 0.0
C3168 C 0.64116 0.14758 0.68276 0.0
C3169 C 0.65195 0.14224 0.66626 0.0
C3170 C 0.61969 0.13221 0.68712 0.0
C3171 C 0.61828 0.14989 0.70566 0.0
N3172 N 0.64229 0.13915 0.67362 0.0
N3173 N 0.62881 0.15238 0.69918 0.0
H3174 H 0.58858 0.79556 0.38832 0.0
H3175 H 0.58731 0.86644 0.3706 0.0
H3176 H 0.58887 0.82613 0.41525 0.0
H3177 H 0.57352 0.83359 0.34356 0.0
H3178 H 0.58849 0.85185 0.3871 0.0
H3179 H 0.58335 0.80919 0.37177 0.0
C3180 C 0.58736 0.80505 0.39079 0.0
C3181 C 0.58929 0.80969 0.40328 0.0
C3182 C 0.58508 0.8478 0.37758 0.0
C3183 C 0.58359 0.82546 0.38429 0.0
C3184 C 0.58446 0.85613 0.36816 0.0
C3185 C 0.58039 0.85119 0.35572 0.0
C3186 C 0.58181 0.83443 0.37453 0.0
C3187 C 0.57667 0.83776 0.35305 0.0
C3188 C 0.58444 0.81285 0.38131 0.0
C3189 C 0.5878 0.8222 0.40582 0.0
N3190 N 0.57763 0.82983 0.36238 0.0
N3191 N 0.58518 0.82967 0.39642 0.0
H3192 H 0.89712 0.88707 0.19633 0.0
H3193 H 0.86694 0.86629 0.12432 0.0
H3194 H 0.92155 0.87675 0.17075 0.0
H3195 H 0.84128 0.87089 0.15099 0.0
H3196 H 0.88709 0.8702 0.14116 0.0
H3197 H 0.87659 0.88134 0.17984 0.0
C3198 C 0.89817 0.88349 0.18729 0.0
C3199 C 0.91115 0.88244 0.18496 0.0
C3200 C 0.87704 0.87031 0.14333 0.0
C3201 C 0.88764 0.87603 0.16593 0.0
C3202 C 0.86549 0.868 0.13372 0.0
C3203 C 0.85235 0.8683 0.1362 0.0
C3204 C 0.87549 0.87301 0.15554 0.0
C3205 C 0.85122 0.87078 0.14858 0.0
C3206 C 0.88643 0.88028 0.17784 0.0
C3207 C 0.91185 0.87794 0.17296 0.0
N3208 N 0.86263 0.87309 0.15776 0.0
N3209 N 0.90029 0.87495 0.1639 0.0
H3210 H 0.11705 0.65514 0.21689 0.0
H3211 H 0.15198 0.63002 0.16371 0.0
H3212 H 0.10134 0.61754 0.19692 0.0
H3213 H 0.16302 0.6694 0.17962 0.0
H3214 H 0.13553 0.62432 0.17782 0.0
H3215 H 0.13604 0.65955 0.20529 0.0
C3216 C 0.11768 0.64775 0.21016 0.0
C3217 C 0.10754 0.63598 0.20782 0.0
C3218 C 0.14162 0.63419 0.17827 0.0
C3219 C 0.12921 0.64101 0.19442 0.0
C3220 C 0.15108 0.63742 0.17029 0.0
C3221 C 0.15879 0.65022 0.17043 0.0
C3222 C 0.13994 0.64381 0.18651 0.0
C3223 C 0.15712 0.65945 0.17907 0.0
C3224 C 0.12848 0.6503 0.20348 0.0
C3225 C 0.10881 0.62682 0.19889 0.0
N3226 N 0.14785 0.65608 0.18672 0.0
N3227 N 0.11942 0.62954 0.19249 0.0
H3228 H 0.072 0.29082 0.89037 0.0
H3229 H 0.0851 0.36281 0.86951 0.0
H3230 H 0.09506 0.32462 0.91443 0.0
H3231 H 0.06335 0.32921 0.84471 0.0
H3232 H 0.08644 0.34907 0.88666 0.0
H3233 H 0.06652 0.30477 0.87413 0.0
C3234 C 0.07587 0.30118 0.89226 0.0
C3235 C 0.08411 0.30654 0.90378 0.0
C3236 C 0.08127 0.34469 0.8775 0.0
C3237 C 0.07778 0.32257 0.88523 0.0
C3238 C 0.08053 0.35253 0.86769 0.0
C3239 C 0.07426 0.34712 0.85563 0.0
C3240 C 0.07576 0.33129 0.87525 0.0
C3241 C 0.06826 0.33378 0.85386 0.0
C3242 C 0.07267 0.30914 0.883 0.0
C3243 C 0.0886 0.32004 0.90576 0.0
N3244 N 0.0693 0.3263 0.86354 0.0
N3245 N 0.08547 0.32756 0.89656 0.0
H3246 H 0.40048 0.36095 0.68386 0.0
H3247 H 0.35161 0.3876 0.63114 0.0
H3248 H 0.40927 0.40043 0.67437 0.0
H3249 H 0.34631 0.34711 0.63638 0.0
H3250 H 0.37216 0.39256 0.64764 0.0
H3251 H 0.37993 0.35578 0.66726 0.0
C3252 C 0.39805 0.36854 0.67832 0.0
C3253 C 0.40662 0.38114 0.6805 0.0
C3254 C 0.36654 0.38259 0.64517 0.0
C3255 C 0.38316 0.37528 0.66145 0.0
C3256 C 0.35476 0.37975 0.6358 0.0
C3257 C 0.3472 0.36692 0.63241 0.0
C3258 C 0.37079 0.37253 0.6513 0.0
C3259 C 0.35189 0.35713 0.63863 0.0
C3260 C 0.38637 0.36556 0.6688 0.0
C3261 C 0.40306 0.39056 0.67294 0.0
N3262 N 0.36334 0.36014 0.64782 0.0
N3263 N 0.39159 0.38744 0.66379 0.0
H3264 H 0.07865 0.62298 0.63238 0.0
H3265 H 0.11826 0.57513 0.66875 0.0
H3266 H 0.12083 0.62236 0.63026 0.0
H3267 H 0.07513 0.57428 0.66813 0.0
H3268 H 0.11925 0.59162 0.65386 0.0
H3269 H 0.07704 0.60454 0.6449 0.0
C3270 C 0.08758 0.61896 0.63456 0.0
C3271 C 0.09993 0.62428 0.63035 0.0
C3272 C 0.10956 0.58777 0.65694 0.0
C3273 C 0.09816 0.60309 0.64467 0.0
C3274 C 0.10897 0.5783 0.66538 0.0
C3275 C 0.09664 0.57342 0.66981 0.0
C3276 C 0.09773 0.59237 0.65289 0.0
C3277 C 0.08494 0.57796 0.66518 0.0
C3278 C 0.08664 0.60838 0.64166 0.0
C3279 C 0.11109 0.61852 0.63327 0.0
N3280 N 0.0858 0.58721 0.65706 0.0
N3281 N 0.10999 0.60829 0.64033 0.0
H3282 H 0.40477 0.38267 0.09928 0.0
H3283 H 0.40981 0.3947 0.17251 0.0
H3284 H 0.40803 0.35388 0.1253 0.0
H3285 H 0.4046 0.42375 0.14725 0.0
H3286 H 0.4089 0.37966 0.15504 0.0
H3287 H 0.40427 0.39787 0.11638 0.0
C3288 C 0.40532 0.37952 0.10856 0.0
C3289 C 0.40658 0.367 0.11085 0.0
C3290 C 0.40793 0.38931 0.15326 0.0
C3291 C 0.40607 0.38434 0.13044 0.0
C3292 C 0.40852 0.39793 0.16326 0.0
C3293 C 0.40742 0.41055 0.16136 0.0
C3294 C 0.40624 0.39328 0.14118 0.0
C3295 C 0.40545 0.4141 0.14913 0.0
C3296 C 0.40509 0.38822 0.11831 0.0
C3297 C 0.40735 0.3635 0.12309 0.0
N3298 N 0.405 0.40553 0.13949 0.0
N3299 N 0.40712 0.37211 0.13238 0.0
H3300 H 0.55514 0.36803 0.20832 0.0
H3301 H 0.60705 0.32776 0.18946 0.0
H3302 H 0.56985 0.34089 0.23179 0.0
H3303 H 0.59918 0.36127 0.17192 0.0
H3304 H 0.59131 0.33031 0.20367 0.0
H3305 H 0.56902 0.36347 0.19344 0.0
C3306 C 0.56118 0.36099 0.21028 0.0
C3307 C 0.56128 0.3548 0.22131 0.0
C3308 C 0.59303 0.33707 0.19668 0.0
C3309 C 0.57742 0.34964 0.20432 0.0
C3310 C 0.60192 0.33557 0.18855 0.0
C3311 C 0.60448 0.34439 0.17959 0.0
C3312 C 0.58655 0.34734 0.19569 0.0
C3313 C 0.59764 0.35438 0.17881 0.0
C3314 C 0.5692 0.35846 0.20182 0.0
C3315 C 0.56955 0.34595 0.22345 0.0
N3316 N 0.58901 0.35557 0.18674 0.0
N3317 N 0.57729 0.34362 0.21502 0.0
H3318 H 0.94656 0.62981 0.69997 0.0
H3319 H 0.91296 0.68112 0.66283 0.0
H3320 H 0.94395 0.66582 0.71719 0.0
H3321 H 0.91142 0.64301 0.64757 0.0
H3322 H 0.92755 0.67728 0.68195 0.0
H3323 H 0.93696 0.63609 0.67991 0.0
C3324 C 0.94416 0.63913 0.69952 0.0
C3325 C 0.94599 0.64725 0.71033 0.0
C3326 C 0.92413 0.66982 0.67436 0.0
C3327 C 0.93474 0.65445 0.68732 0.0
C3328 C 0.9159 0.67204 0.66344 0.0
C3329 C 0.91087 0.66231 0.65369 0.0
C3330 C 0.9274 0.65781 0.67546 0.0
C3331 C 0.91491 0.65069 0.65495 0.0
C3332 C 0.93857 0.64268 0.68805 0.0
C3333 C 0.94249 0.65915 0.70915 0.0
N3334 N 0.92284 0.64874 0.66565 0.0
N3335 N 0.93696 0.66236 0.69787 0.0
H3336 H 0.61459 0.35719 0.62284 0.0
H3337 H 0.65564 0.4094 0.67866 0.0
H3338 H 0.65751 0.3613 0.63973 0.0
H3339 H 0.61198 0.40373 0.66366 0.0
H3340 H 0.65584 0.39025 0.66596 0.0
H3341 H 0.61274 0.3727 0.63898 0.0
C3342 C 0.6236 0.3613 0.62999 0.0
C3343 C 0.63627 0.35803 0.62986 0.0
C3344 C 0.64616 0.39308 0.66554 0.0
C3345 C 0.63422 0.37579 0.64839 0.0
C3346 C 0.64605 0.40402 0.67278 0.0
C3347 C 0.6338 0.40822 0.67211 0.0
C3348 C 0.63396 0.38634 0.65744 0.0
C3349 C 0.62164 0.4008 0.66447 0.0
C3350 C 0.62252 0.37011 0.63924 0.0
C3351 C 0.64753 0.36348 0.63948 0.0
N3352 N 0.62206 0.39032 0.6573 0.0
N3353 N 0.64628 0.37218 0.64827 0.0
H3354 H 0.35195 0.6161 0.75651 0.0
H3355 H 0.34597 0.64095 0.82459 0.0
H3356 H 0.38693 0.63903 0.78281 0.0
H3357 H 0.31249 0.61496 0.79917 0.0
H3358 H 0.36076 0.64182 0.80896 0.0
H3359 H 0.33701 0.61694 0.77161 0.0
C3360 C 0.35648 0.6214 0.76544 0.0
C3361 C 0.37073 0.62752 0.76838 0.0
C3362 C 0.35017 0.63595 0.8068 0.0
C3363 C 0.35365 0.62841 0.78583 0.0
C3364 C 0.3417 0.63553 0.81568 0.0
C3365 C 0.32801 0.6278 0.81321 0.0
C3366 C 0.34487 0.62866 0.79534 0.0
C3367 C 0.32304 0.62088 0.80155 0.0
C3368 C 0.34795 0.62181 0.7741 0.0
C3369 C 0.37603 0.63406 0.78019 0.0
N3370 N 0.33147 0.62146 0.79308 0.0
N3371 N 0.3675 0.63433 0.78848 0.0
H3372 H 0.03708 0.33765 0.29434 0.0
H3373 H 0.08064 0.35963 0.36285 0.0
H3374 H 0.03344 0.36986 0.31721 0.0
H3375 H 0.07903 0.3232 0.34383 0.0
H3376 H 0.06337 0.36342 0.34591 0.0
H3377 H 0.05271 0.33215 0.3119 0.0
C3378 C 0.03956 0.34355 0.30304 0.0
C3379 C 0.03391 0.35421 0.30431 0.0
C3380 C 0.06668 0.35454 0.34542 0.0
C3381 C 0.05171 0.34798 0.32439 0.0
C3382 C 0.07655 0.35239 0.35509 0.0
C3383 C 0.08129 0.34113 0.35468 0.0
C3384 C 0.06156 0.34542 0.33513 0.0
C3385 C 0.07559 0.33199 0.34448 0.0
C3386 C 0.0484 0.34036 0.31307 0.0
C3387 C 0.03738 0.36146 0.31583 0.0
N3388 N 0.0661 0.33439 0.33502 0.0
N3389 N 0.04608 0.35825 0.32536 0.0
H3390 H 0.36961 0.64536 0.41387 0.0
H3391 H 0.3651 0.61806 0.34406 0.0
H3392 H 0.35746 0.66542 0.38213 0.0
H3393 H 0.37113 0.5967 0.37614 0.0
H3394 H 0.3661 0.63708 0.3578 0.0
H3395 H 0.37408 0.62915 0.40013 0.0
C3396 C 0.36809 0.64649 0.40402 0.0
C3397 C 0.3631 0.6568 0.39918 0.0
C3398 C 0.36737 0.62827 0.36182 0.0
C3399 C 0.36795 0.63798 0.38328 0.0
C3400 C 0.3669 0.61748 0.354 0.0
C3401 C 0.36791 0.60582 0.35901 0.0
C3402 C 0.36898 0.62735 0.3747 0.0
C3403 C 0.37014 0.60549 0.37192 0.0
C3404 C 0.37054 0.63714 0.39615 0.0
C3405 C 0.36109 0.65755 0.38627 0.0
N3406 N 0.37051 0.61606 0.3793 0.0
N3407 N 0.36344 0.64822 0.37876 0.0
H3408 H 0.12387 0.31588 0.03397 0.0
H3409 H 0.07937 0.3432 0.07741 0.0
H3410 H 0.07911 0.30847 0.02561 0.0
H3411 H 0.12349 0.34676 0.08778 0.0
H3412 H 0.07894 0.32987 0.05873 0.0
H3413 H 0.12387 0.32656 0.05402 0.0
C3414 C 0.11402 0.31634 0.03639 0.0
C3415 C 0.10148 0.31132 0.02799 0.0
C3416 C 0.08871 0.33351 0.06512 0.0
C3417 C 0.10142 0.32377 0.05093 0.0
C3418 C 0.08895 0.34108 0.07585 0.0
C3419 C 0.1015 0.34624 0.08419 0.0
C3420 C 0.10113 0.33108 0.06265 0.0
C3421 C 0.11361 0.34325 0.08153 0.0
C3422 C 0.11403 0.32253 0.04783 0.0
C3423 C 0.08906 0.3124 0.03164 0.0
N3424 N 0.11313 0.33595 0.07098 0.0
N3425 N 0.08936 0.31856 0.04278 0.0
H3426 H 0.93408 0.92023 0.31073 0.0
H3427 H 0.9108 0.87741 0.36521 0.0
H3428 H 0.93638 0.88063 0.31275 0.0
H3429 H 0.90772 0.9167 0.36217 0.0
H3430 H 0.92216 0.8789 0.34714 0.0
H3431 H 0.92625 0.91958 0.33056 0.0
C3432 C 0.93296 0.9114 0.31536 0.0
C3433 C 0.93578 0.90043 0.30999 0.0
C3434 C 0.91907 0.88722 0.35047 0.0
C3435 C 0.92684 0.89962 0.3328 0.0
C3436 C 0.91265 0.88639 0.36084 0.0
C3437 C 0.90817 0.8969 0.36515 0.0
C3438 C 0.92105 0.89865 0.34439 0.0
C3439 C 0.91076 0.90827 0.35904 0.0
C3440 C 0.92854 0.91104 0.32672 0.0
C3441 C 0.93441 0.88933 0.31656 0.0
N3442 N 0.91694 0.90881 0.34897 0.0
N3443 N 0.92993 0.88918 0.32756 0.0
H3444 H 0.30832 0.68403 0.50296 0.0
H3445 H 0.35492 0.65688 0.55727 0.0
H3446 H 0.35223 0.68745 0.50532 0.0
H3447 H 0.31027 0.6491 0.55215 0.0
H3448 H 0.35432 0.66899 0.53878 0.0
H3449 H 0.30898 0.67222 0.52158 0.0
C3450 C 0.31812 0.68237 0.50744 0.0
C3451 C 0.33024 0.68674 0.50255 0.0
C3452 C 0.34464 0.66462 0.54167 0.0
C3453 C 0.33105 0.67313 0.52385 0.0
C3454 C 0.345 0.65771 0.5522 0.0
C3455 C 0.33263 0.65191 0.55614 0.0
C3456 C 0.33182 0.66584 0.53509 0.0
C3457 C 0.32003 0.65336 0.54935 0.0
C3458 C 0.31847 0.67555 0.51803 0.0
C3459 C 0.3426 0.68414 0.50866 0.0
N3460 N 0.31995 0.66018 0.53916 0.0
N3461 N 0.34269 0.67754 0.51899 0.0
H3462 H 0.57353 0.13216 0.82665 0.0
H3463 H 0.63324 0.11763 0.87814 0.0
H3464 H 0.61383 0.12953 0.82014 0.0
H3465 H 0.59402 0.12171 0.88618 0.0
H3466 H 0.62642 0.123 0.85702 0.0
H3467 H 0.58081 0.12914 0.84857 0.0
C3468 C 0.5839 0.13097 0.82981 0.0
C3469 C 0.59308 0.13112 0.82151 0.0
C3470 C 0.61929 0.12279 0.86338 0.0
C3471 C 0.60149 0.12773 0.84658 0.0
C3472 C 0.62318 0.11968 0.87544 0.0
C3473 C 0.61412 0.11909 0.88388 0.0
C3474 C 0.60619 0.12527 0.85964 0.0
C3475 C 0.60131 0.12208 0.87995 0.0
C3476 C 0.58807 0.12931 0.84234 0.0
C3477 C 0.60645 0.12967 0.82619 0.0
N3478 N 0.59766 0.12494 0.86806 0.0
N3479 N 0.61021 0.12799 0.83836 0.0
H3480 H 0.11999 0.66969 0.51002 0.0
H3481 H 0.1241 0.61719 0.45785 0.0
H3482 H 0.1126 0.62891 0.51468 0.0
H3483 H 0.12532 0.65682 0.45125 0.0
H3484 H 0.12035 0.6214 0.47891 0.0
H3485 H 0.12229 0.6653 0.4886 0.0
C3486 C 0.11875 0.65981 0.50654 0.0
C3487 C 0.11615 0.64967 0.51424 0.0
C3488 C 0.12132 0.62916 0.47284 0.0
C3489 C 0.11897 0.6446 0.48972 0.0
C3490 C 0.12342 0.62674 0.46083 0.0
C3491 C 0.12476 0.63662 0.45277 0.0
C3492 C 0.12077 0.64161 0.47689 0.0
C3493 C 0.12413 0.6489 0.45714 0.0
C3494 C 0.12013 0.65732 0.49431 0.0
C3495 C 0.11485 0.63708 0.50921 0.0
N3496 N 0.1222 0.65106 0.4689 0.0
N3497 N 0.11631 0.63491 0.49731 0.0
H3498 H 0.5198 0.85102 0.67551 0.0
H3499 H 0.57541 0.88287 0.63425 0.0
H3500 H 0.54776 0.88885 0.68464 0.0
H3501 H 0.54643 0.84573 0.6244 0.0
H3502 H 0.56566 0.88512 0.65295 0.0
H3503 H 0.52929 0.84894 0.65674 0.0
C3504 C 0.52783 0.85896 0.67352 0.0
C3505 C 0.53297 0.87014 0.68173 0.0
C3506 C 0.56139 0.87648 0.6467 0.0
C3507 C 0.54408 0.86771 0.66026 0.0
C3508 C 0.56696 0.87521 0.63605 0.0
C3509 C 0.56154 0.8642 0.62772 0.0
C3510 C 0.55038 0.86661 0.64908 0.0
C3511 C 0.55077 0.85444 0.63053 0.0
C3512 C 0.53333 0.85771 0.66283 0.0
C3513 C 0.54358 0.87999 0.67871 0.0
N3514 N 0.5455 0.85589 0.64095 0.0
N3515 N 0.54878 0.87853 0.66826 0.0
H3516 H 0.42338 0.35209 0.98222 0.0
H3517 H 0.3724 0.35933 0.91969 0.0
H3518 H 0.37882 0.34466 0.9786 0.0
H3519 H 0.4161 0.36209 0.92186 0.0
H3520 H 0.37484 0.35541 0.94169 0.0
H3521 H 0.42121 0.35707 0.96053 0.0
C3522 C 0.41314 0.35154 0.97688 0.0
C3523 C 0.40126 0.34792 0.98226 0.0
C3524 C 0.38391 0.35687 0.93738 0.0
C3525 C 0.3987 0.3536 0.95738 0.0
C3526 C 0.38252 0.35912 0.92484 0.0
C3527 C 0.39404 0.36082 0.91896 0.0
C3528 C 0.39696 0.35643 0.94412 0.0
C3529 C 0.40696 0.36067 0.92606 0.0
C3530 C 0.4119 0.35434 0.96448 0.0
C3531 C 0.38825 0.34723 0.97482 0.0
N3532 N 0.40807 0.35845 0.93826 0.0
N3533 N 0.38732 0.35007 0.96279 0.0
H3534 H 0.90011 0.14296 0.17838 0.0
H3535 H 0.88915 0.14126 0.10435 0.0
H3536 H 0.93271 0.14097 0.1581 0.0
H3537 H 0.85627 0.13777 0.12538 0.0
H3538 H 0.90614 0.14442 0.12387 0.0
H3539 H 0.88488 0.14431 0.15902 0.0
C3540 C 0.90416 0.14299 0.16987 0.0
C3541 C 0.91776 0.14185 0.16992 0.0
C3542 C 0.89522 0.14309 0.12419 0.0
C3543 C 0.90015 0.14315 0.14754 0.0
C3544 C 0.88556 0.14138 0.11308 0.0
C3545 C 0.87131 0.13914 0.11329 0.0
C3546 C 0.89055 0.14265 0.13555 0.0
C3547 C 0.86716 0.1393 0.12482 0.0
C3548 C 0.89539 0.14367 0.15878 0.0
C3549 C 0.92226 0.14168 0.15851 0.0
N3550 N 0.87671 0.14095 0.13546 0.0
N3551 N 0.91346 0.14227 0.14777 0.0
H3552 H 0.98308 0.08599 0.28682 0.0
H3553 H 0.06313 0.08447 0.29402 0.0
H3554 H 0.01101 0.1086 0.26567 0.0
H3555 H 0.03711 0.07092 0.32047 0.0
H3556 H 0.04321 0.08986 0.28093 0.0
H3557 H 1.00185 0.07689 0.29656 0.0
C3558 C 0.99317 0.08904 0.2842 0.0
C3559 C 0.99553 0.09828 0.27557 0.0
C3560 C 0.04185 0.08558 0.28954 0.0
C3561 C 0.0171 0.08774 0.28665 0.0
C3562 C 0.05316 0.08243 0.29695 0.0
C3563 C 0.05174 0.07733 0.30836 0.0
C3564 C 0.02903 0.08345 0.29353 0.0
C3565 C 0.03865 0.07496 0.31179 0.0
C3566 C 0.00388 0.08379 0.28974 0.0
C3567 C 0.00873 0.10153 0.27229 0.0
N3568 N 0.02784 0.07807 0.30445 0.0
N3569 N 0.01907 0.09637 0.27792 0.0
H3570 H 0.11455 0.73942 0.62118 0.0
H3571 H 0.10654 0.81194 0.61832 0.0
H3572 H 0.10493 0.75679 0.58702 0.0
H3573 H 0.10929 0.79262 0.65201 0.0
H3574 H 0.10756 0.79227 0.60682 0.0
H3575 H 0.1141 0.75919 0.63275 0.0
C3576 C 0.11226 0.74734 0.61609 0.0
C3577 C 0.10973 0.74637 0.60306 0.0
C3578 C 0.10801 0.79233 0.61674 0.0
C3579 C 0.10943 0.76917 0.61632 0.0
C3580 C 0.10749 0.80357 0.6233 0.0
C3581 C 0.10805 0.80393 0.63615 0.0
C3582 C 0.10907 0.78135 0.62306 0.0
C3583 C 0.10903 0.79276 0.64213 0.0
C3584 C 0.11209 0.75867 0.62272 0.0
C3585 C 0.10712 0.75711 0.59703 0.0
N3586 N 0.10955 0.78193 0.63555 0.0
N3587 N 0.10704 0.76804 0.6037 0.0
H3588 H 0.42748 0.88317 0.76385 0.0
H3589 H 0.38999 0.9399 0.77418 0.0
H3590 H 0.43737 0.91986 0.74823 0.0
H3591 H 0.37895 0.90277 0.78863 0.0
H3592 H 0.4082 0.93311 0.76546 0.0
H3593 H 0.41042 0.89047 0.77375 0.0
C3594 C 0.42613 0.89279 0.76255 0.0
C3595 C 0.43391 0.90089 0.75516 0.0
C3596 C 0.40183 0.92644 0.77055 0.0
C3597 C 0.41424 0.9093 0.76643 0.0
C3598 C 0.39147 0.93032 0.77554 0.0
C3599 C 0.3829 0.92181 0.782 0.0
C3600 C 0.40369 0.91395 0.77207 0.0
C3601 C 0.3853 0.90956 0.78361 0.0
C3602 C 0.41632 0.89693 0.76816 0.0
C3603 C 0.43151 0.9132 0.75368 0.0
N3604 N 0.39542 0.90596 0.77863 0.0
N3605 N 0.42192 0.91702 0.75926 0.0
H3606 H 0.42183 0.24933 0.06482 0.0
H3607 H 0.38124 0.19649 0.10406 0.0
H3608 H 0.3831 0.25104 0.07566 0.0
H3609 H 0.42277 0.19847 0.09795 0.0
H3610 H 0.38132 0.21609 0.09319 0.0
H3611 H 0.42191 0.2302 0.07626 0.0
C3612 C 0.4133 0.24564 0.06955 0.0
C3613 C 0.40243 0.2518 0.06925 0.0
C3614 C 0.39047 0.21231 0.09433 0.0
C3615 C 0.40249 0.22991 0.08245 0.0
C3616 C 0.39044 0.20117 0.10057 0.0
C3617 C 0.40215 0.19605 0.10216 0.0
C3618 C 0.4022 0.21824 0.08944 0.0
C3619 C 0.41364 0.20225 0.09714 0.0
C3620 C 0.41339 0.23477 0.07615 0.0
C3621 C 0.39176 0.24669 0.07573 0.0
N3622 N 0.41338 0.21301 0.09101 0.0
N3623 N 0.39204 0.23603 0.08202 0.0
H3624 H 0.03909 0.90261 0.22707 0.0
H3625 H 0.1129 0.9523 0.22843 0.0
H3626 H 0.05311 0.93892 0.24947 0.0
H3627 H 0.10012 0.9149 0.20807 0.0
H3628 H 0.09053 0.94807 0.23538 0.0
H3629 H 0.06083 0.90741 0.21916 0.0
C3630 C 0.0467 0.91163 0.23027 0.0
C3631 C 0.04425 0.92037 0.23897 0.0
C3632 C 0.09258 0.94078 0.22937 0.0
C3633 C 0.06926 0.92588 0.23 0.0
C3634 C 0.10533 0.94321 0.2254 0.0
C3635 C 0.10832 0.93388 0.21774 0.0
C3636 C 0.08274 0.92896 0.22562 0.0
C3637 C 0.09817 0.9223 0.21402 0.0
C3638 C 0.05915 0.91433 0.2258 0.0
C3639 C 0.05461 0.93182 0.2429 0.0
N3640 N 0.08584 0.92014 0.21802 0.0
N3641 N 0.06663 0.93424 0.23839 0.0
H3642 H 0.34073 0.78216 0.40651 0.0
H3643 H 0.28139 0.81286 0.37082 0.0
H3644 H 0.2973 0.76192 0.39864 0.0
H3645 H 0.32526 0.82729 0.37134 0.0
H3646 H 0.28662 0.79607 0.3842 0.0
H3647 H 0.33476 0.80072 0.3969 0.0
C3648 C 0.32991 0.78162 0.40279 0.0
C3649 C 0.31953 0.77035 0.40321 0.0
C3650 C 0.29509 0.80299 0.38146 0.0
C3651 C 0.31259 0.7917 0.39224 0.0
C3652 C 0.29212 0.81259 0.3739 0.0
C3653 C 0.30291 0.82137 0.3699 0.0
C3654 C 0.30895 0.80232 0.38514 0.0
C3655 C 0.31663 0.8206 0.37409 0.0
C3656 C 0.32651 0.79225 0.39733 0.0
C3657 C 0.30565 0.77039 0.39853 0.0
N3658 N 0.31924 0.81123 0.38144 0.0
N3659 N 0.30259 0.78085 0.39314 0.0
H3660 H 0.48326 0.11187 0.70724 0.0
H3661 H 0.40279 0.10827 0.70607 0.0
H3662 H 0.46661 0.11819 0.73996 0.0
H3663 H 0.421 0.11063 0.67325 0.0
H3664 H 0.42573 0.10967 0.71865 0.0
H3665 H 0.46017 0.10929 0.69464 0.0
C3666 C 0.47479 0.11277 0.7118 0.0
C3667 C 0.47697 0.11532 0.72473 0.0
C3668 C 0.4247 0.10978 0.70869 0.0
C3669 C 0.45039 0.11215 0.71031 0.0
C3670 C 0.41161 0.10891 0.70152 0.0
C3671 C 0.40996 0.10903 0.6886 0.0
C3672 C 0.43627 0.11085 0.70291 0.0
C3673 C 0.42178 0.11022 0.68317 0.0
C3674 C 0.46158 0.11123 0.70458 0.0
C3675 C 0.46546 0.11608 0.73008 0.0
N3676 N 0.43443 0.11102 0.69035 0.0
N3677 N 0.4527 0.11451 0.72285 0.0
H3678 H 0.1412 0.20603 0.9637 0.0
H3679 H 0.1578 0.18393 0.8989 0.0
H3680 H 0.14558 0.2305 0.93358 0.0
H3681 H 0.1607 0.16164 0.93067 0.0
H3682 H 0.15361 0.20118 0.91172 0.0
H3683 H 0.14873 0.18982 0.95215 0.0
C3684 C 0.14387 0.20808 0.95473 0.0
C3685 C 0.14259 0.21965 0.94958 0.0
C3686 C 0.15526 0.19257 0.91595 0.0
C3687 C 0.15107 0.20101 0.93624 0.0
C3688 C 0.15761 0.1827 0.90862 0.0
C3689 C 0.15951 0.1713 0.91371 0.0
C3690 C 0.15464 0.19103 0.92849 0.0
C3691 C 0.15934 0.1703 0.92639 0.0
C3692 C 0.14811 0.19877 0.94811 0.0
C3693 C 0.14607 0.22164 0.93784 0.0
N3694 N 0.15679 0.17998 0.93332 0.0
N3695 N 0.15005 0.21241 0.93156 0.0
H3696 H 0.32297 0.0814 0.09581 0.0
H3697 H 0.36619 0.13943 0.14581 0.0
H3698 H 0.32167 0.08196 0.13487 0.0
H3699 H 0.36906 0.1389 0.10711 0.0
H3700 H 0.34789 0.11942 0.14143 0.0
H3701 H 0.33802 0.10331 0.09925 0.0
C3702 C 0.3258 0.08613 0.10511 0.0
C3703 C 0.3211 0.07975 0.11508 0.0
C3704 C 0.35242 0.1237 0.13386 0.0
C3705 C 0.33826 0.1049 0.11906 0.0
C3706 C 0.36289 0.13512 0.13636 0.0
C3707 C 0.36927 0.14075 0.12683 0.0
C3708 C 0.3483 0.11777 0.12173 0.0
C3709 C 0.36441 0.13488 0.11472 0.0
C3710 C 0.33434 0.09867 0.10705 0.0
C3711 C 0.32491 0.08648 0.12687 0.0
N3712 N 0.35431 0.12363 0.11253 0.0
N3713 N 0.33333 0.09863 0.12854 0.0
H3714 H 0.7532 0.42748 0.82897 0.0
H3715 H 0.75821 0.36729 0.86923 0.0
H3716 H 0.74402 0.42513 0.86586 0.0
H3717 H 0.76733 0.36974 0.83239 0.0
H3718 H 0.75237 0.38823 0.86801 0.0
H3719 H 0.75771 0.40608 0.82981 0.0
C3720 C 0.75213 0.42247 0.83726 0.0
C3721 C 0.74828 0.42818 0.84738 0.0
C3722 C 0.75557 0.38417 0.86016 0.0
C3723 C 0.75338 0.40357 0.84839 0.0
C3724 C 0.75887 0.37223 0.86085 0.0
C3725 C 0.76301 0.36674 0.85081 0.0
C3726 C 0.75654 0.39072 0.84937 0.0
C3727 C 0.76397 0.3736 0.84025 0.0
C3728 C 0.75466 0.41022 0.83771 0.0
C3729 C 0.74683 0.42109 0.85778 0.0
N3730 N 0.76074 0.38522 0.8398 0.0
N3731 N 0.74944 0.40921 0.85804 0.0
H3732 H 0.78237 0.54731 0.1645 0.0
H3733 H 0.84386 0.58124 0.13023 0.0
H3734 H 0.77845 0.54728 0.12478 0.0
H3735 H 0.84679 0.58495 0.16989 0.0
H3736 H 0.82074 0.56677 0.12824 0.0
H3737 H 0.80685 0.55895 0.16681 0.0
C3738 C 0.7867 0.54961 0.15626 0.0
C3739 C 0.77832 0.54639 0.14443 0.0
C3740 C 0.82645 0.57069 0.13739 0.0
C3741 C 0.80628 0.55981 0.14701 0.0
C3742 C 0.83964 0.579 0.13853 0.0
C3743 C 0.84723 0.58444 0.15024 0.0
C3744 C 0.82074 0.56777 0.14803 0.0
C3745 C 0.84135 0.58095 0.16069 0.0
C3746 C 0.80065 0.55632 0.15759 0.0
C3747 C 0.78446 0.54974 0.13409 0.0
N3748 N 0.82841 0.5729 0.15933 0.0
N3749 N 0.79803 0.5563 0.13562 0.0
H3750 H 0.71364 0.57103 0.37853 0.0
H3751 H 0.72422 0.64317 0.40805 0.0
H3752 H 0.75376 0.59613 0.3943 0.0
H3753 H 0.68495 0.62004 0.38793 0.0
H3754 H 0.73497 0.62549 0.40432 0.0
H3755 H 0.70269 0.58828 0.38311 0.0
C3756 C 0.72015 0.58015 0.38301 0.0
C3757 C 0.73466 0.58212 0.38603 0.0
C3758 C 0.72398 0.62423 0.40079 0.0
C3759 C 0.72217 0.60197 0.39125 0.0
C3760 C 0.71783 0.63429 0.40297 0.0
C3761 C 0.70362 0.63295 0.39849 0.0
C3762 C 0.71588 0.61275 0.394 0.0
C3763 C 0.69588 0.62135 0.39173 0.0
C3764 C 0.71389 0.59002 0.38557 0.0
C3765 C 0.74257 0.59421 0.39168 0.0
N3766 N 0.70209 0.61169 0.38972 0.0
N3767 N 0.73622 0.60365 0.39413 0.0
H3768 H 0.23114 0.98211 0.17147 0.0
H3769 H 0.15148 0.96699 0.17933 0.0
H3770 H 0.20309 0.00486 0.15654 0.0
H3771 H 0.17908 0.94262 0.19044 0.0
H3772 H 0.171 0.98288 0.17378 0.0
H3773 H 0.21294 0.96942 0.18117 0.0
C3774 C 0.22114 0.98446 0.17025 0.0
C3775 C 0.21858 0.99444 0.16302 0.0
C3776 C 0.1728 0.97412 0.17756 0.0
C3777 C 0.19763 0.97995 0.17418 0.0
C3778 C 0.1617 0.9651 0.18081 0.0
C3779 C 0.16366 0.95343 0.18522 0.0
C3780 C 0.18594 0.97143 0.17882 0.0
C3781 C 0.17708 0.95141 0.18689 0.0
C3782 C 0.21076 0.97724 0.17584 0.0
C3783 C 0.20552 0.99724 0.16203 0.0
N3784 N 0.18766 0.96026 0.18361 0.0
N3785 N 0.19548 0.98994 0.16744 0.0
H3786 H 0.1782 0.93164 0.67603 0.0
H3787 H 0.1341 0.86243 0.6446 0.0
H3788 H 0.17473 0.92027 0.63731 0.0
H3789 H 0.14679 0.87132 0.68417 0.0
H3790 H 0.14847 0.88354 0.6415 0.0
H3791 H 0.1659 0.90971 0.67899 0.0
C3792 C 0.17482 0.92451 0.66814 0.0
C3793 C 0.17743 0.92779 0.6564 0.0
C3794 C 0.14816 0.88082 0.65085 0.0
C3795 C 0.16335 0.90263 0.65971 0.0
C3796 C 0.14002 0.86873 0.65264 0.0
C3797 C 0.13911 0.8651 0.66467 0.0
C3798 C 0.15537 0.88938 0.66117 0.0
C3799 C 0.1469 0.87378 0.67472 0.0
C3800 C 0.16788 0.91197 0.66985 0.0
C3801 C 0.17299 0.91812 0.64654 0.0
N3802 N 0.1546 0.88552 0.67274 0.0
N3803 N 0.16607 0.90599 0.64839 0.0
H3804 H 0.82375 0.48693 0.36631 0.0
H3805 H 0.84332 0.45665 0.30599 0.0
H3806 H 0.80176 0.48828 0.32923 0.0
H3807 H 0.85773 0.4487 0.34344 0.0
H3808 H 0.83114 0.47159 0.31406 0.0
H3809 H 0.83946 0.47644 0.35775 0.0
C3810 C 0.82236 0.48524 0.35634 0.0
C3811 C 0.81134 0.48847 0.3485 0.0
C3812 C 0.83709 0.46667 0.3205 0.0
C3813 C 0.82924 0.47618 0.33861 0.0
C3814 C 0.8441 0.45823 0.31591 0.0
C3815 C 0.85142 0.45138 0.32407 0.0
C3816 C 0.83758 0.46835 0.33334 0.0
C3817 C 0.85206 0.45369 0.33683 0.0
C3818 C 0.83128 0.47913 0.35146 0.0
C3819 C 0.80998 0.4858 0.33565 0.0
N3820 N 0.84519 0.46193 0.34106 0.0
N3821 N 0.81876 0.47975 0.33111 0.0
H3822 H 0.64307 0.49879 0.81478 0.0
H3823 H 0.60416 0.54756 0.84217 0.0
H3824 H 0.65912 0.52192 0.8496 0.0
H3825 H 0.58923 0.52583 0.80661 0.0
H3826 H 0.62446 0.53835 0.84507 0.0
H3827 H 0.62324 0.50848 0.81168 0.0
C3828 C 0.64241 0.50586 0.82181 0.0
C3829 C 0.6528 0.50951 0.83249 0.0
C3830 C 0.61677 0.5356 0.83662 0.0
C3831 C 0.63012 0.52076 0.82893 0.0
C3832 C 0.60522 0.54085 0.83498 0.0
C3833 C 0.59503 0.53737 0.82419 0.0
C3834 C 0.61813 0.52678 0.82739 0.0
C3835 C 0.59684 0.5287 0.8151 0.0
C3836 C 0.63111 0.51146 0.81999 0.0
C3837 C 0.65146 0.5189 0.84116 0.0
N3838 N 0.60814 0.52367 0.81692 0.0
N3839 N 0.64033 0.52416 0.83921 0.0
H3840 H 0.87807 0.69339 0.96681 0.0
H3841 H 0.87064 0.62434 0.93206 0.0
H3842 H 0.87562 0.65828 0.98523 0.0
H3843 H 0.88452 0.65987 0.91555 0.0
H3844 H 0.87057 0.63675 0.95113 0.0
H3845 H 0.87852 0.68142 0.94739 0.0
C3846 C 0.87759 0.68317 0.96676 0.0
C3847 C 0.87691 0.67684 0.97767 0.0
C3848 C 0.87367 0.64186 0.94337 0.0
C3849 C 0.87736 0.66312 0.95556 0.0
C3850 C 0.87366 0.63477 0.93245 0.0
C3851 C 0.87755 0.64108 0.92219 0.0
C3852 C 0.87748 0.65541 0.94405 0.0
C3853 C 0.88153 0.65463 0.92328 0.0
C3854 C 0.87793 0.67637 0.95571 0.0
C3855 C 0.87636 0.66361 0.97709 0.0
N3856 N 0.8813 0.66136 0.93399 0.0
N3857 N 0.87655 0.6572 0.96624 0.0
H3858 H 0.04048 0.09254 0.69642 0.0
H3859 H 0.07798 0.12866 0.64433 0.0
H3860 H 0.05867 0.13358 0.69915 0.0
H3861 H 0.06208 0.08739 0.64309 0.0
H3862 H 0.06872 0.131 0.66325 0.0
H3863 H 0.04599 0.09085 0.67574 0.0
C3864 C 0.04545 0.10124 0.69261 0.0
C3865 C 0.04918 0.11321 0.69959 0.0
C3866 C 0.06719 0.12144 0.65879 0.0
C3867 C 0.05573 0.11131 0.67593 0.0
C3868 C 0.0724 0.1201 0.64795 0.0
C3869 C 0.07093 0.1078 0.64218 0.0
C3870 C 0.0604 0.11039 0.66388 0.0
C3871 C 0.06369 0.09705 0.64735 0.0
C3872 C 0.0487 0.10024 0.68082 0.0
C3873 C 0.0558 0.12411 0.69419 0.0
N3874 N 0.05877 0.09859 0.65792 0.0
N3875 N 0.05892 0.12289 0.68273 0.0
H3876 H 0.63507 0.31296 0.50676 0.0
H3877 H 0.65619 0.38058 0.47717 0.0
H3878 H 0.66572 0.34628 0.52589 0.0
H3879 H 0.6225 0.34883 0.45954 0.0
H3880 H 0.66115 0.36749 0.49438 0.0
H3881 H 0.63167 0.32523 0.48864 0.0
C3882 C 0.64118 0.32282 0.50711 0.0
C3883 C 0.65065 0.32861 0.5179 0.0
C3884 C 0.65267 0.36336 0.48676 0.0
C3885 C 0.64672 0.34276 0.4972 0.0
C3886 C 0.64985 0.37083 0.47695 0.0
C3887 C 0.63878 0.36581 0.46707 0.0
C3888 C 0.64443 0.35073 0.48663 0.0
C3889 C 0.63101 0.35307 0.4671 0.0
C3890 C 0.63917 0.32985 0.49679 0.0
C3891 C 0.65816 0.34147 0.51785 0.0
N3892 N 0.63393 0.34598 0.47676 0.0
N3893 N 0.65602 0.3481 0.50769 0.0
H3894 H 0.37877 0.84711 0.15556 0.0
H3895 H 0.31241 0.85649 0.1087 0.0
H3896 H 0.33782 0.84207 0.16439 0.0
H3897 H 0.35196 0.85863 0.09785 0.0
H3898 H 0.32153 0.85014 0.12889 0.0
H3899 H 0.36928 0.85055 0.13421 0.0
C3900 C 0.36779 0.84669 0.15301 0.0
C3901 C 0.35909 0.84428 0.16181 0.0
C3902 C 0.32823 0.8519 0.1221 0.0
C3903 C 0.34817 0.84816 0.13741 0.0
C3904 C 0.32302 0.85555 0.11058 0.0
C3905 C 0.33149 0.8582 0.10165 0.0
C3906 C 0.34208 0.85097 0.12482 0.0
C3907 C 0.3451 0.85665 0.10449 0.0
C3908 C 0.36237 0.84858 0.14081 0.0
C3909 C 0.34491 0.8437 0.15793 0.0
N3910 N 0.35004 0.85326 0.11589 0.0
N3911 N 0.33994 0.84569 0.14608 0.0
H3912 H 0.83387 0.32423 0.48022 0.0
H3913 H 0.81495 0.37266 0.52798 0.0
H3914 H 0.80398 0.34666 0.46983 0.0
H3915 H 0.84335 0.34896 0.53866 0.0
H3916 H 0.8098 0.36237 0.5068 0.0
H3917 H 0.83637 0.3321 0.50186 0.0
C3918 C 0.82769 0.33068 0.48249 0.0
C3919 C 0.81877 0.33485 0.47314 0.0
C3920 C 0.8171 0.35935 0.51377 0.0
C3921 C 0.82176 0.34409 0.49794 0.0
C3922 C 0.82002 0.36523 0.52583 0.0
C3923 C 0.82965 0.36171 0.53499 0.0
C3924 C 0.8239 0.3499 0.51085 0.0
C3925 C 0.83593 0.35199 0.53182 0.0
C3926 C 0.8292 0.33525 0.49486 0.0
C3927 C 0.81118 0.34336 0.47667 0.0
N3928 N 0.83301 0.34649 0.51999 0.0
N3929 N 0.81291 0.34774 0.48876 0.0
H3930 H 0.44683 0.10413 0.32885 0.0
H3931 H 0.42855 0.15888 0.37013 0.0
H3932 H 0.46507 0.14487 0.32857 0.0
H3933 H 0.4064 0.1188 0.36687 0.0
H3934 H 0.44324 0.1537 0.35608 0.0
H3935 H 0.43323 0.10904 0.34399 0.0
C3936 C 0.44806 0.1141 0.33203 0.0
C3937 C 0.4571 0.1241 0.32738 0.0
C3938 C 0.43523 0.146 0.35848 0.0
C3939 C 0.44146 0.12981 0.34468 0.0
C3940 C 0.42689 0.14896 0.36653 0.0
C3941 C 0.41639 0.13922 0.36977 0.0
C3942 C 0.43303 0.1332 0.35358 0.0
C3943 C 0.41452 0.12655 0.3647 0.0
C3944 C 0.44022 0.11691 0.34063 0.0
C3945 C 0.45811 0.13686 0.33176 0.0
N3946 N 0.42277 0.1239 0.35688 0.0
N3947 N 0.4504 0.13933 0.34015 0.0
H3948 H 0.59979 0.63901 0.02645 0.0
H3949 H 0.55903 0.63239 0.0833 0.0
H3950 H 0.56767 0.65853 0.03009 0.0
H3951 H 0.58953 0.61137 0.07854 0.0
H3952 H 0.56337 0.64343 0.06472 0.0
H3953 H 0.59762 0.6303 0.04641 0.0
C3954 C 0.5924 0.64162 0.03151 0.0
C3955 C 0.58388 0.64952 0.02653 0.0
C3956 C 0.56916 0.63645 0.06775 0.0
C3957 C 0.58118 0.63937 0.04938 0.0
C3958 C 0.56669 0.63016 0.07834 0.0
C3959 C 0.57384 0.62088 0.08233 0.0
C3960 C 0.5789 0.63346 0.06111 0.0
C3961 C 0.58374 0.6184 0.07567 0.0
C3962 C 0.59109 0.63655 0.04288 0.0
C3963 C 0.57433 0.65235 0.03346 0.0
N3964 N 0.58593 0.6246 0.06535 0.0
N3965 N 0.57321 0.64725 0.0445 0.0
H3966 H 0.07038 0.89628 0.85766 0.0
H3967 H 0.1113 0.8594 0.90746 0.0
H3968 H 0.07161 0.85654 0.85159 0.0
H3969 H 0.11574 0.90052 0.91005 0.0
H3970 H 0.09336 0.85727 0.88876 0.0
H3971 H 0.0838 0.8971 0.87854 0.0
C3972 C 0.07341 0.88771 0.86072 0.0
C3973 C 0.06997 0.87637 0.85277 0.0
C3974 C 0.09816 0.86674 0.8935 0.0
C3975 C 0.08527 0.87721 0.87676 0.0
C3976 C 0.10832 0.86794 0.9042 0.0
C3977 C 0.1151 0.88016 0.9102 0.0
C3978 C 0.09473 0.87785 0.88885 0.0
C3979 C 0.11091 0.89093 0.90558 0.0
C3980 C 0.08103 0.88816 0.87268 0.0
C3981 C 0.07393 0.86548 0.85739 0.0
N3982 N 0.10108 0.88953 0.89514 0.0
N3983 N 0.08147 0.8662 0.86903 0.0
H3984 H 0.97654 0.92827 0.75888 0.0
H3985 H 0.91191 0.90152 0.70319 0.0
H3986 H 0.9571 0.88798 0.74828 0.0
H3987 H 0.93117 0.94212 0.71181 0.0
H3988 H 0.92715 0.89678 0.72115 0.0
H3989 H 0.95886 0.93393 0.74324 0.0
C3990 C 0.96847 0.92063 0.75337 0.0
C3991 C 0.96838 0.90763 0.75478 0.0
C3992 C 0.92806 0.90675 0.7192 0.0
C3993 C 0.94822 0.91402 0.73689 0.0
C3994 C 0.91937 0.90945 0.70891 0.0
C3995 C 0.92043 0.92222 0.7059 0.0
C3996 C 0.93801 0.91686 0.72659 0.0
C3997 C 0.93007 0.93214 0.7138 0.0
C3998 C 0.95844 0.92386 0.74441 0.0
C3999 C 0.95773 0.89812 0.74735 0.0
N4000 N 0.93861 0.92925 0.72373 0.0
N4001 N 0.94816 0.9015 0.73872 0.0
H4002 H 0.78852 0.21766 0.39291 0.0
H4003 H 0.81652 0.18359 0.33978 0.0
H4004 H 0.81969 0.2378 0.37329 0.0
H4005 H 0.78671 0.16295 0.36031 0.0
H4006 H 0.8175 0.20367 0.35176 0.0
H4007 H 0.78745 0.19758 0.38098 0.0
C4008 C 0.79519 0.21787 0.38614 0.0
C4009 C 0.8042 0.22948 0.3841 0.0
C4010 C 0.81069 0.19478 0.35363 0.0
C4011 C 0.80292 0.20651 0.37031 0.0
C4012 C 0.81011 0.18336 0.34677 0.0
C4013 C 0.80134 0.17171 0.34894 0.0
C4014 C 0.80251 0.19453 0.36281 0.0
C4015 C 0.79344 0.1718 0.35825 0.0
C4016 C 0.79452 0.2064 0.37928 0.0
C4017 C 0.81244 0.22915 0.37506 0.0
N4018 N 0.79417 0.18305 0.36483 0.0
N4019 N 0.8116 0.21788 0.36852 0.0
H4020 H 0.52318 0.07114 0.22527 0.0
H4021 H 0.60074 0.06735 0.22103 0.0
H4022 H 0.5591 0.0913 0.25222 0.0
H4023 H 0.56582 0.05675 0.19067 0.0
H4024 H 0.58516 0.07218 0.23453 0.0
H4025 H 0.53821 0.0617 0.21463 0.0
C4026 C 0.5342 0.07341 0.22911 0.0
C4027 C 0.53986 0.0821 0.23966 0.0
C4028 C 0.5809 0.06862 0.22496 0.0
C4029 C 0.55723 0.07144 0.22731 0.0
C4030 C 0.58975 0.06578 0.21731 0.0
C4031 C 0.58451 0.06169 0.20475 0.0
C4032 C 0.56673 0.06721 0.22001 0.0
C4033 C 0.57024 0.05994 0.2003 0.0
C4034 C 0.5428 0.06809 0.22294 0.0
C4035 C 0.55429 0.0848 0.24403 0.0
N4036 N 0.56187 0.06274 0.2079 0.0
N4037 N 0.5625 0.07955 0.2378 0.0
H4038 H 0.6122 0.75968 0.94818 0.0
H4039 H 0.58308 0.78582 0.88409 0.0
H4040 H 0.57654 0.73816 0.9217 0.0
H4041 H 0.61992 0.8066 0.90952 0.0
H4042 H 0.5798 0.76873 0.89831 0.0
H4043 H 0.61445 0.7775 0.93478 0.0
C4044 C 0.60476 0.75874 0.9396 0.0
C4045 C 0.59419 0.74736 0.93605 0.0
C4046 C 0.58862 0.77701 0.90079 0.0
C4047 C 0.5968 0.7677 0.92059 0.0
C4048 C 0.59049 0.78672 0.89267 0.0
C4049 C 0.60194 0.79745 0.89556 0.0
C4050 C 0.59821 0.77808 0.91195 0.0
C4051 C 0.6111 0.79834 0.9069 0.0
C4052 C 0.60611 0.76889 0.93192 0.0
C4053 C 0.58498 0.74665 0.92474 0.0
N4054 N 0.60908 0.78875 0.91466 0.0
N4055 N 0.58651 0.75665 0.91743 0.0
H4056 H 0.93918 0.07678 0.7688 0.0
H4057 H 0.90777 0.09546 0.82722 0.0
H4058 H 0.95838 0.11038 0.79438 0.0
H4059 H 0.88972 0.06085 0.80286 0.0
H4060 H 0.92524 0.10213 0.81416 0.0
H4061 H 0.91985 0.07179 0.78001 0.0
C4062 C 0.93927 0.08318 0.77669 0.0
C4063 C 0.95049 0.09398 0.78069 0.0
C4064 C 0.91744 0.0931 0.81163 0.0
C4065 C 0.92842 0.08824 0.79365 0.0
C4066 C 0.90749 0.08932 0.81906 0.0
C4067 C 0.89751 0.07752 0.81619 0.0
C4068 C 0.91735 0.08501 0.80121 0.0
C4069 C 0.89739 0.06996 0.80545 0.0
C4070 C 0.92826 0.08028 0.78314 0.0
C4071 C 0.95009 0.10183 0.79108 0.0
N4072 N 0.90724 0.07378 0.7984 0.0
N4073 N 0.93928 0.09879 0.79722 0.0
H4074 H 0.66655 0.2352 0.59884 0.0
H4075 H 0.68474 0.19774 0.65849 0.0
H4076 H 0.67849 0.25296 0.6363 0.0
H4077 H 0.67818 0.18037 0.62121 0.0
H4078 H 0.6836 0.21835 0.65024 0.0
H4079 H 0.67195 0.2154 0.60644 0.0
C4080 C 0.67046 0.235 0.60863 0.0
C4081 C 0.67188 0.24572 0.61697 0.0
C4082 C 0.68252 0.21009 0.64383 0.0
C4083 C 0.67795 0.22307 0.62573 0.0
C4084 C 0.68314 0.19831 0.64854 0.0
C4085 C 0.68144 0.18732 0.64051 0.0
C4086 C 0.68002 0.21092 0.63094 0.0
C4087 C 0.67958 0.18863 0.62771 0.0
C4088 C 0.67348 0.22367 0.61297 0.0
C4089 C 0.67691 0.24486 0.62956 0.0
N4090 N 0.67875 0.20019 0.6233 0.0
N4091 N 0.67965 0.23374 0.63355 0.0
H4092 H 0.48715 0.87072 0.2526 0.0
H4093 H 0.52653 0.85203 0.31644 0.0
H4094 H 0.46937 0.83893 0.27255 0.0
H4095 H 0.54401 0.8843 0.29704 0.0
H4096 H 0.5062 0.84605 0.29959 0.0
H4097 H 0.50876 0.87482 0.26786 0.0
C4098 C 0.48783 0.86451 0.26011 0.0
C4099 C 0.47637 0.85451 0.26132 0.0
C4100 C 0.51448 0.85443 0.29898 0.0
C4101 C 0.50106 0.85926 0.27894 0.0
C4102 C 0.52605 0.85782 0.30859 0.0
C4103 C 0.53676 0.8688 0.30819 0.0
C4104 C 0.51366 0.86205 0.28888 0.0
C4105 C 0.53583 0.87588 0.29775 0.0
C4106 C 0.50015 0.86691 0.26887 0.0
C4107 C 0.47783 0.84688 0.27135 0.0
N4108 N 0.52442 0.87245 0.28854 0.0
N4109 N 0.48991 0.84945 0.27978 0.0
H4110 H 0.82852 0.78016 0.04027 0.0
H4111 H 0.84034 0.8252 0.10322 0.0
H4112 H 0.86115 0.78116 0.07166 0.0
H4113 H 0.80732 0.82376 0.07216 0.0
H4114 H 0.84895 0.80996 0.09135 0.0
H4115 H 0.82143 0.797 0.05129 0.0
C4116 C 0.83429 0.78399 0.04943 0.0
C4117 C 0.84543 0.77916 0.05504 0.0
C4118 C 0.83983 0.81298 0.0871 0.0
C4119 C 0.83724 0.7984 0.0678 0.0
C4120 C 0.83495 0.82167 0.09388 0.0
C4121 C 0.82301 0.82555 0.08871 0.0
C4122 C 0.83276 0.80818 0.07504 0.0
C4123 C 0.81647 0.82086 0.07651 0.0
C4124 C 0.83017 0.79357 0.05575 0.0
C4125 C 0.85236 0.78441 0.06702 0.0
N4126 N 0.82137 0.81237 0.07012 0.0
N4127 N 0.84814 0.7937 0.07299 0.0
H4128 H 0.69144 0.90651 0.89257 0.0
H4129 H 0.61003 0.87547 0.88775 0.0
H4130 H 0.66079 0.92839 0.89382 0.0
H4131 H 0.63963 0.85249 0.8866 0.0
H4132 H 0.62909 0.89487 0.89189 0.0
H4133 H 0.67322 0.88656 0.89193 0.0
C4134 C 0.68091 0.90713 0.89275 0.0
C4135 C 0.67767 0.91918 0.89324 0.0
C4136 C 0.63149 0.88561 0.89084 0.0
C4137 C 0.65681 0.89641 0.8926 0.0
C4138 C 0.6206 0.87453 0.88846 0.0
C4139 C 0.62327 0.86239 0.8867 0.0
C4140 C 0.64522 0.88461 0.89137 0.0
C4141 C 0.63715 0.86168 0.88791 0.0
C4142 C 0.67054 0.89575 0.89246 0.0
C4143 C 0.66387 0.91938 0.89362 0.0
N4144 N 0.64763 0.87267 0.89003 0.0
N4145 N 0.65399 0.9082 0.89323 0.0
H4146 H 0.21138 0.56388 0.16094 0.0
H4147 H 0.21011 0.62806 0.12608 0.0
H4148 H 0.23414 0.57527 0.13165 0.0
H4149 H 0.18553 0.61554 0.15382 0.0
H4150 H 0.22088 0.60995 0.12949 0.0
H4151 H 0.2038 0.5839 0.16005 0.0
C4152 C 0.21496 0.57067 0.15444 0.0
C4153 C 0.22337 0.56782 0.14631 0.0
C4154 C 0.21319 0.61118 0.13489 0.0
C4155 C 0.21452 0.59074 0.14512 0.0
C4156 C 0.20706 0.62151 0.13295 0.0
C4157 C 0.19681 0.62314 0.13958 0.0
C4158 C 0.20906 0.60243 0.14355 0.0
C4159 C 0.19331 0.6145 0.14845 0.0
C4160 C 0.21053 0.58207 0.15388 0.0
C4161 C 0.22749 0.57694 0.13796 0.0
N4162 N 0.19935 0.60445 0.15012 0.0
N4163 N 0.22297 0.58794 0.13754 0.0
H4164 H 0.17122 0.40382 0.82001 0.0
H4165 H 0.10479 0.38949 0.8522 0.0
H4166 H 0.16852 0.42546 0.85302 0.0
H4167 H 0.10365 0.37398 0.81516 0.0
H4168 H 0.12809 0.40299 0.85243 0.0
H4169 H 0.14652 0.39291 0.81778 0.0
C4170 C 0.16542 0.40631 0.82675 0.0
C4171 C 0.17196 0.41552 0.83675 0.0
C4172 C 0.12273 0.39674 0.84419 0.0
C4173 C 0.14373 0.40308 0.83427 0.0
C4174 C 0.10945 0.38902 0.84408 0.0
C4175 C 0.10236 0.38057 0.83368 0.0
C4176 C 0.12909 0.3959 0.83388 0.0
C4177 C 0.10878 0.3804 0.82334 0.0
C4178 C 0.15131 0.40014 0.82544 0.0
C4179 C 0.16389 0.4185 0.84512 0.0
N4180 N 0.12188 0.38784 0.82376 0.0
N4181 N 0.15025 0.41221 0.84376 0.0
H4182 H 0.27601 0.43366 0.61635 0.0
H4183 H 0.28409 0.36114 0.61098 0.0
H4184 H 0.24412 0.40097 0.62266 0.0
H4185 H 0.31837 0.39491 0.61523 0.0
H4186 H 0.26823 0.3752 0.61226 0.0
H4187 H 0.29061 0.41919 0.61306 0.0
C4188 C 0.27207 0.42345 0.61713 0.0
C4189 C 0.25883 0.41861 0.61999 0.0
C4190 C 0.27922 0.37951 0.61286 0.0
C4191 C 0.27553 0.40186 0.61594 0.0
C4192 C 0.28824 0.3715 0.61206 0.0
C4193 C 0.30257 0.37687 0.61309 0.0
C4194 C 0.28456 0.39297 0.61453 0.0
C4195 C 0.30743 0.39036 0.61455 0.0
C4196 C 0.28041 0.41517 0.61516 0.0
C4197 C 0.2542 0.40518 0.62044 0.0
N4198 N 0.29846 0.39792 0.61522 0.0
N4199 N 0.26255 0.39729 0.61848 0.0
H4200 H 0.77028 0.02511 0.8469 0.0
H4201 H 0.85073 0.06103 0.86599 0.0
H4202 H 0.7946 0.02721 0.88363 0.0
H4203 H 0.82784 0.05785 0.82861 0.0
H4204 H 0.83088 0.0462 0.87186 0.0
H4205 H 0.79162 0.03461 0.83928 0.0
C4206 C 0.78013 0.02737 0.85333 0.0
C4207 C 0.78063 0.02552 0.86597 0.0
C4208 C 0.8302 0.04858 0.86233 0.0
C4209 C 0.80505 0.03651 0.85734 0.0
C4210 C 0.84154 0.05704 0.85898 0.0
C4211 C 0.84083 0.06073 0.84684 0.0
C4212 C 0.81793 0.04389 0.85351 0.0
C4213 C 0.82876 0.05522 0.83807 0.0
C4214 C 0.7923 0.03285 0.84898 0.0
C4215 C 0.79368 0.02872 0.87387 0.0
N4216 N 0.81767 0.04721 0.84162 0.0
N4217 N 0.80532 0.03415 0.86945 0.0
H4218 H 0.80892 0.04322 0.35688 0.0
H4219 H 0.7877 0.10852 0.33878 0.0
H4220 H 0.76666 0.04427 0.3422 0.0
H4221 H 0.82987 0.10464 0.34677 0.0
H4222 H 0.77938 0.08567 0.34231 0.0
H4223 H 0.81636 0.06637 0.35542 0.0
C4224 C 0.80119 0.04831 0.35328 0.0
C4225 C 0.78715 0.04172 0.34948 0.0
C4226 C 0.79045 0.08986 0.34333 0.0
C4227 C 0.79563 0.06841 0.34797 0.0
C4228 C 0.79519 0.10289 0.34139 0.0
C4229 C 0.80948 0.10842 0.34238 0.0
C4230 C 0.8001 0.0824 0.34641 0.0
C4231 C 0.81876 0.1007 0.34573 0.0
C4232 C 0.80545 0.06157 0.35252 0.0
C4233 C 0.77758 0.04894 0.34525 0.0
N4234 N 0.81391 0.08811 0.3476 0.0
N4235 N 0.782 0.0619 0.34455 0.0
H4236 H 0.15484 0.50355 0.63595 0.0
H4237 H 0.14123 0.52386 0.70278 0.0
H4238 H 0.18279 0.50258 0.67021 0.0
H4239 H 0.11883 0.53272 0.66847 0.0
H4240 H 0.15463 0.51328 0.69101 0.0
H4241 H 0.13963 0.51146 0.64774 0.0
C4242 C 0.1578 0.50497 0.64595 0.0
C4243 C 0.17026 0.50249 0.65205 0.0
C4244 C 0.14668 0.5174 0.68604 0.0
C4245 C 0.1527 0.51143 0.66564 0.0
C4246 C 0.13898 0.52337 0.69275 0.0
C4247 C 0.12868 0.5289 0.68659 0.0
C4248 C 0.14415 0.51703 0.67304 0.0
C4249 C 0.12646 0.52833 0.67359 0.0
C4250 C 0.14906 0.50945 0.65268 0.0
C4251 C 0.17329 0.50423 0.66506 0.0
N4252 N 0.13409 0.52247 0.66725 0.0
N4253 N 0.16463 0.50864 0.6714 0.0
H4254 H 0.31393 0.47199 0.14833 0.0
H4255 H 0.37618 0.46093 0.19949 0.0
H4256 H 0.32917 0.49495 0.1833 0.0
H4257 H 0.36049 0.43777 0.16475 0.0
H4258 H 0.36002 0.4744 0.19323 0.0
H4259 H 0.33174 0.46013 0.1537 0.0
C4260 C 0.32101 0.47454 0.15715 0.0
C4261 C 0.31996 0.48444 0.16541 0.0
C4262 C 0.36011 0.46639 0.18695 0.0
C4263 C 0.34051 0.47093 0.1716 0.0
C4264 C 0.36931 0.45872 0.19054 0.0
C4265 C 0.36941 0.44811 0.18271 0.0
C4266 C 0.35101 0.46346 0.17542 0.0
C4267 C 0.36053 0.44576 0.17111 0.0
C4268 C 0.33124 0.4678 0.16019 0.0
C4269 C 0.32963 0.48747 0.1766 0.0
N4270 N 0.35161 0.45331 0.16785 0.0
N4271 N 0.33944 0.4807 0.1794 0.0
H4272 H 0.62202 0.83799 0.52547 0.0
H4273 H 0.59288 0.83203 0.5888 0.0
H4274 H 0.59454 0.80293 0.53337 0.0
H4275 H 0.61034 0.86815 0.57463 0.0
H4276 H 0.59485 0.82059 0.56966 0.0
H4277 H 0.61986 0.84848 0.54481 0.0
C4278 C 0.61548 0.83248 0.53125 0.0
C4279 C 0.60829 0.81957 0.52764 0.0
C4280 C 0.59823 0.83102 0.57078 0.0
C4281 C 0.60592 0.83158 0.55003 0.0
C4282 C 0.59703 0.83757 0.58167 0.0
C4283 C 0.60158 0.85111 0.58345 0.0
C4284 C 0.60408 0.83804 0.56163 0.0
C4285 C 0.607 0.85772 0.57388 0.0
C4286 C 0.61429 0.83849 0.54233 0.0
C4287 C 0.60032 0.81287 0.53576 0.0
N4288 N 0.60816 0.85114 0.56347 0.0
N4289 N 0.5993 0.81896 0.54656 0.0
H4290 H 0.40379 0.37699 0.79525 0.0
H4291 H 0.42127 0.3903 0.86926 0.0
H4292 H 0.44511 0.39491 0.81542 0.0
H4293 H 0.38001 0.37573 0.8476 0.0
H4294 H 0.43082 0.39016 0.85013 0.0
H4295 H 0.39552 0.37469 0.81476 0.0
C4296 C 0.41114 0.3805 0.8038 0.0
C4297 C 0.42514 0.38634 0.80365 0.0
C4298 C 0.41969 0.38694 0.8496 0.0
C4299 C 0.41571 0.3836 0.8262 0.0
C4300 C 0.41425 0.38694 0.8605 0.0
C4301 C 0.39982 0.38315 0.85999 0.0
C4302 C 0.41061 0.38301 0.83814 0.0
C4303 C 0.39118 0.37895 0.84841 0.0
C4304 C 0.40641 0.37911 0.81497 0.0
C4305 C 0.43423 0.39035 0.81508 0.0
N4306 N 0.3967 0.37904 0.83798 0.0
N4307 N 0.42934 0.389 0.8259 0.0
H4308 H 0.84846 0.17686 0.99517 0.0
H4309 H 0.8427 0.18092 0.06684 0.0
H4310 H 0.83465 0.20698 0.01271 0.0
H4311 H 0.84549 0.1463 0.0472 0.0
H4312 H 0.84245 0.19166 0.04757 0.0
H4313 H 0.84991 0.16647 0.01459 0.0
C4314 C 0.84565 0.18128 0.00305 0.0
C4315 C 0.84134 0.19283 0.00221 0.0
C4316 C 0.84325 0.18175 0.04748 0.0
C4317 C 0.84329 0.18105 0.0246 0.0
C4318 C 0.84348 0.17566 0.05849 0.0
C4319 C 0.84449 0.16283 0.05869 0.0
C4320 C 0.84394 0.17494 0.03653 0.0
C4321 C 0.84505 0.15631 0.04753 0.0
C4322 C 0.84657 0.17536 0.01417 0.0
C4323 C 0.83819 0.19821 0.0129 0.0
N4324 N 0.84484 0.16246 0.03691 0.0
N4325 N 0.83923 0.19228 0.02362 0.0
H4326 H 0.07233 0.62861 0.33131 0.0
H4327 H 0.13454 0.6193 0.38341 0.0
H4328 H 0.11363 0.6293 0.32512 0.0
H4329 H 0.09377 0.61877 0.39085 0.0
H4330 H 0.12709 0.62409 0.36221 0.0
H4331 H 0.07991 0.62589 0.35326 0.0
C4332 C 0.08298 0.62821 0.33455 0.0
C4333 C 0.09236 0.62922 0.32633 0.0
C4334 C 0.11974 0.62298 0.36845 0.0
C4335 C 0.1011 0.62619 0.35143 0.0
C4336 C 0.12399 0.6202 0.38056 0.0
C4337 C 0.11471 0.61849 0.38886 0.0
C4338 C 0.10607 0.62404 0.36453 0.0
C4339 C 0.10126 0.62003 0.38474 0.0
C4340 C 0.08731 0.62673 0.34709 0.0
C4341 C 0.10607 0.62878 0.3311 0.0
N4342 N 0.09729 0.62262 0.37281 0.0
N4343 N 0.10999 0.62726 0.34329 0.0
H4344 H 0.60846 0.16506 1.00184 0.0
H4345 H 0.6353 0.12131 0.95534 0.0
H4346 H 0.6266 0.13365 0.01292 0.0
H4347 H 0.61751 0.15277 0.94401 0.0
H4348 H 0.63181 0.12551 0.97649 0.0
H4349 H 0.61157 0.16076 0.98062 0.0
C4350 C 0.61315 0.1573 0.99984 0.0
C4351 C 0.61724 0.14969 0.00921 0.0
C4352 C 0.62869 0.13153 0.9694 0.0
C4353 C 0.62071 0.14463 0.98489 0.0
C4354 C 0.63069 0.12913 0.95737 0.0
C4355 C 0.62688 0.13684 0.94804 0.0
C4356 C 0.62275 0.14169 0.97211 0.0
C4357 C 0.62075 0.14672 0.95102 0.0
C4358 C 0.61485 0.1548 0.9877 0.0
C4359 C 0.6231 0.13965 0.006 0.0
N4360 N 0.61892 0.14891 0.96282 0.0
N4361 N 0.62466 0.13743 0.99414 0.0
H4362 H 0.01849 0.35049 0.17296 0.0
H4363 H 0.07958 0.3819 0.13693 0.0
H4364 H 0.05061 0.38495 0.18706 0.0
H4365 H 0.04755 0.34744 0.12303 0.0
H4366 H 0.0692 0.38321 0.15542 0.0
H4367 H 0.0289 0.3493 0.15459 0.0
C4368 C 0.02774 0.35781 0.17221 0.0
C4369 C 0.03367 0.36783 0.18163 0.0
C4370 C 0.06441 0.37536 0.14833 0.0
C4371 C 0.04566 0.36654 0.16051 0.0
C4372 C 0.07034 0.37463 0.1378 0.0
C4373 C 0.06428 0.36466 0.12841 0.0
C4374 C 0.05236 0.366 0.1495 0.0
C4375 C 0.05243 0.35536 0.13002 0.0
C4376 C 0.03367 0.35714 0.16169 0.0
C4377 C 0.04556 0.37713 0.18001 0.0
N4378 N 0.04683 0.35628 0.14033 0.0
N4379 N 0.05117 0.37624 0.1697 0.0
H4380 H 0.90759 0.83547 0.47713 0.0
H4381 H 0.88626 0.8817 0.42558 0.0
H4382 H 0.8908 0.86785 0.48463 0.0
H4383 H 0.90743 0.85228 0.41907 0.0
H4384 H 0.88758 0.87659 0.44724 0.0
H4385 H 0.90751 0.84132 0.45583 0.0
C4386 C 0.90397 0.84385 0.47435 0.0
C4387 C 0.89914 0.85112 0.48273 0.0
C4388 C 0.89203 0.8713 0.44111 0.0
C4389 C 0.89887 0.8578 0.45826 0.0
C4390 C 0.8913 0.87425 0.42878 0.0
C4391 C 0.89691 0.86752 0.42061 0.0
C4392 C 0.89827 0.86143 0.44528 0.0
C4393 C 0.90311 0.85778 0.42512 0.0
C4394 C 0.90386 0.84715 0.46215 0.0
C4395 C 0.89438 0.86179 0.47848 0.0
N4396 N 0.90361 0.85502 0.43714 0.0
N4397 N 0.89434 0.86477 0.46657 0.0
H4398 H 0.41979 0.61 0.65087 0.0
H4399 H 0.36296 0.64039 0.61069 0.0
H4400 H 0.40084 0.63746 0.66643 0.0
H4401 H 0.37238 0.60497 0.59947 0.0
H4402 H 0.3806 0.64261 0.62966 0.0
H4403 H 0.40601 0.6111 0.63055 0.0
C4404 C 0.41276 0.61628 0.65005 0.0
C4405 C 0.41138 0.62351 0.66048 0.0
C4406 C 0.37891 0.63444 0.62296 0.0
C4407 C 0.39574 0.62498 0.63712 0.0
C4408 C 0.36895 0.63323 0.61212 0.0
C4409 C 0.3662 0.62244 0.60359 0.0
C4410 C 0.38624 0.62486 0.62516 0.0
C4411 C 0.37414 0.61337 0.6059 0.0
C4412 C 0.40496 0.61695 0.63841 0.0
C4413 C 0.40236 0.63176 0.6587 0.0
N4414 N 0.38375 0.61476 0.61648 0.0
N4415 N 0.39483 0.63221 0.64727 0.0
H4416 H 0.50712 0.61695 0.77536 0.0
H4417 H 0.53958 0.55902 0.79958 0.0
H4418 H 0.48514 0.57686 0.7673 0.0
H4419 H 0.55845 0.59932 0.81054 0.0
H4420 H 0.52109 0.56512 0.78517 0.0
H4421 H 0.52745 0.61042 0.7858 0.0
C4422 C 0.50658 0.60676 0.77576 0.0
C4423 C 0.49432 0.59745 0.77058 0.0
C4424 C 0.52936 0.57262 0.79065 0.0
C4425 C 0.51767 0.58986 0.78254 0.0
C4426 C 0.53994 0.56914 0.79879 0.0
C4427 C 0.55044 0.57868 0.80634 0.0
C4428 C 0.52939 0.58572 0.79002 0.0
C4429 C 0.55041 0.59165 0.80503 0.0
C4430 C 0.51823 0.60302 0.78169 0.0
C4431 C 0.49437 0.58437 0.77114 0.0
N4432 N 0.54002 0.59478 0.79711 0.0
N4433 N 0.50581 0.58096 0.77713 0.0
H4434 H 0.60891 0.25815 0.08107 0.0
H4435 H 0.61486 0.29477 0.14739 0.0
H4436 H 0.61928 0.24168 0.11561 0.0
H4437 H 0.6117 0.31309 0.11314 0.0
H4438 H 0.61581 0.27496 0.13598 0.0
H4439 H 0.60926 0.27812 0.09268 0.0
C4440 C 0.61137 0.25874 0.09109 0.0
C4441 C 0.61409 0.24816 0.09733 0.0
C4442 C 0.61505 0.28335 0.13097 0.0
C4443 C 0.61428 0.27104 0.11074 0.0
C4444 C 0.61456 0.29465 0.13749 0.0
C4445 C 0.61353 0.30565 0.13122 0.0
C4446 C 0.61423 0.28298 0.11806 0.0
C4447 C 0.61276 0.30489 0.11834 0.0
C4448 C 0.61149 0.27015 0.09772 0.0
C4449 C 0.61692 0.24948 0.11037 0.0
N4450 N 0.61312 0.29376 0.11219 0.0
N4451 N 0.61692 0.26068 0.11662 0.0
H4452 H 0.92034 0.39494 0.24081 0.0
H4453 H 0.90662 0.44305 0.2923 0.0
H4454 H 0.95321 0.42024 0.26737 0.0
H4455 H 0.87404 0.41403 0.2691 0.0
H4456 H 0.92388 0.43544 0.28279 0.0
H4457 H 0.90323 0.40254 0.2504 0.0
C4458 C 0.92397 0.40215 0.24861 0.0
C4459 C 0.93826 0.40695 0.25328 0.0
C4460 C 0.91296 0.43067 0.27983 0.0
C4461 C 0.91868 0.41565 0.2644 0.0
C4462 C 0.90314 0.43499 0.28528 0.0
C4463 C 0.88892 0.42899 0.28164 0.0
C4464 C 0.90854 0.4204 0.27053 0.0
C4465 C 0.88492 0.41879 0.27231 0.0
C4466 C 0.91419 0.40643 0.25414 0.0
C4467 C 0.94231 0.41616 0.26354 0.0
N4468 N 0.89466 0.41482 0.26708 0.0
N4469 N 0.93259 0.42022 0.26872 0.0
H4470 H 0.88532 0.74092 0.55584 0.0
H4471 H 0.9182 0.71071 0.616 0.0
H4472 H 0.91774 0.76313 0.58486 0.0
H4473 H 0.88483 0.68892 0.58763 0.0
H4474 H 0.918 0.73014 0.60491 0.0
H4475 H 0.885 0.72181 0.56733 0.0
C4476 C 0.89244 0.74178 0.56459 0.0
C4477 C 0.9016 0.75368 0.56935 0.0
C4478 C 0.91071 0.72112 0.60109 0.0
C4479 C 0.90117 0.7318 0.58267 0.0
C4480 C 0.91084 0.71006 0.60742 0.0
C4481 C 0.90168 0.69821 0.60259 0.0
C4482 C 0.9013 0.72032 0.58987 0.0
C4483 C 0.89219 0.69786 0.59155 0.0
C4484 C 0.89218 0.73086 0.5712 0.0
C4485 C 0.9104 0.75421 0.58087 0.0
N4486 N 0.8923 0.70874 0.58553 0.0
N4487 N 0.90999 0.74344 0.58711 0.0
H4488 H 0.54783 0.40222 0.74606 0.0
H4489 H 0.59397 0.44757 0.7045 0.0
H4490 H 0.53361 0.43109 0.72474 0.0
H4491 H 0.60598 0.41591 0.72262 0.0
H4492 H 0.57192 0.44198 0.71205 0.0
H4493 H 0.56946 0.40752 0.738 0.0
C4494 C 0.54928 0.40973 0.73974 0.0
C4495 C 0.53887 0.41623 0.73609 0.0
C4496 C 0.57934 0.43621 0.71433 0.0
C4497 C 0.56362 0.42229 0.72673 0.0
C4498 C 0.59188 0.43938 0.71 0.0
C4499 C 0.60172 0.43213 0.71287 0.0
C4500 C 0.57668 0.42577 0.72168 0.0
C4501 C 0.59863 0.42171 0.72014 0.0
C4502 C 0.5616 0.41269 0.73507 0.0
C4503 C 0.54127 0.42573 0.72771 0.0
N4504 N 0.5864 0.41885 0.72431 0.0
N4505 N 0.55339 0.4285 0.72334 0.0
H4506 H 0.80055 0.26285 0.89864 0.0
H4507 H 0.82567 0.3284 0.8677 0.0
H4508 H 0.84358 0.28289 0.90091 0.0
H4509 H 0.78275 0.31257 0.87007 0.0
H4510 H 0.83229 0.31224 0.88086 0.0
H4511 H 0.79361 0.28131 0.88933 0.0
C4512 C 0.80854 0.27119 0.89735 0.0
C4513 C 0.82268 0.27123 0.90042 0.0
C4514 C 0.82143 0.31232 0.87863 0.0
C4515 C 0.8148 0.29231 0.88964 0.0
C4516 C 0.81765 0.32154 0.8711 0.0
C4517 C 0.80364 0.32173 0.86773 0.0
C4518 C 0.81111 0.30305 0.88274 0.0
C4519 C 0.79367 0.31273 0.87248 0.0
C4520 C 0.80457 0.2817 0.89198 0.0
C4521 C 0.83256 0.28228 0.89844 0.0
N4522 N 0.79757 0.30363 0.87963 0.0
N4523 N 0.82844 0.29228 0.89309 0.0
H4524 H 0.9662 0.61827 0.24405 0.0
H4525 H 0.92241 0.61248 0.17525 0.0
H4526 H 0.98312 0.61254 0.21135 0.0
H4527 H 0.90369 0.60929 0.20779 0.0
H4528 H 0.94503 0.61357 0.18832 0.0
H4529 H 0.94344 0.61589 0.23095 0.0
C4530 C 0.96514 0.6164 0.23413 0.0
C4531 C 0.97668 0.61562 0.22883 0.0
C4532 C 0.93595 0.6125 0.1926 0.0
C4533 C 0.95059 0.61312 0.21373 0.0
C4534 C 0.92306 0.61183 0.18514 0.0
C4535 C 0.91113 0.61044 0.19043 0.0
C4536 C 0.93699 0.61206 0.20548 0.0
C4537 C 0.9126 0.61008 0.20333 0.0
C4538 C 0.95213 0.61511 0.22665 0.0
C4539 C 0.97463 0.61343 0.21587 0.0
N4540 N 0.92529 0.61089 0.21041 0.0
N4541 N 0.96188 0.61231 0.20878 0.0
H4542 H 0.64688 0.73351 0.43335 0.0
H4543 H 0.66446 0.66438 0.43131 0.0
H4544 H 0.64491 0.70924 0.46377 0.0
H4545 H 0.65876 0.68621 0.3995 0.0
H4546 H 0.66039 0.68181 0.44425 0.0
H4547 H 0.65409 0.71731 0.42172 0.0
C4548 C 0.6479 0.72475 0.43759 0.0
C4549 C 0.64506 0.7227 0.44953 0.0
C4550 C 0.66011 0.6828 0.43445 0.0
C4551 C 0.65358 0.70407 0.43624 0.0
C4552 C 0.66253 0.67291 0.42709 0.0
C4553 C 0.66184 0.67381 0.41429 0.0
C4554 C 0.65712 0.69371 0.42899 0.0
C4555 C 0.6592 0.68503 0.40929 0.0
C4556 C 0.65212 0.71551 0.43095 0.0
C4557 C 0.64701 0.71128 0.45463 0.0
N4558 N 0.6569 0.6945 0.41662 0.0
N4559 N 0.65106 0.70236 0.44793 0.0
H4560 H 0.81437 0.58633 0.6334 0.0
H4561 H 0.86619 0.6421 0.60586 0.0
H4562 H 0.81938 0.58507 0.5952 0.0
H4563 H 0.86149 0.64229 0.64413 0.0
H4564 H 0.84702 0.62257 0.60107 0.0
H4565 H 0.82952 0.6081 0.6368 0.0
C4566 C 0.81848 0.59069 0.62567 0.0
C4567 C 0.81564 0.58378 0.61401 0.0
C4568 C 0.8501 0.62696 0.61049 0.0
C4569 C 0.83327 0.60872 0.6179 0.0
C4570 C 0.86097 0.63815 0.61321 0.0
C4571 C 0.86554 0.64372 0.62543 0.0
C4572 C 0.84375 0.62135 0.62008 0.0
C4573 C 0.85846 0.63817 0.63461 0.0
C4574 C 0.82723 0.60311 0.62764 0.0
C4575 C 0.82148 0.58992 0.6044 0.0
N4576 N 0.84802 0.62725 0.63177 0.0
N4577 N 0.83008 0.60199 0.60658 0.0
H4578 H 0.24583 0.92695 0.36641 0.0
H4579 H 0.27141 0.87118 0.33345 0.0
H4580 H 0.25958 0.92986 0.33133 0.0
H4581 H 0.25834 0.86838 0.36875 0.0
H4582 H 0.26636 0.89243 0.33216 0.0
H4583 H 0.24922 0.90511 0.36699 0.0
C4584 C 0.24942 0.92296 0.35876 0.0
C4585 C 0.25248 0.93031 0.34883 0.0
C4586 C 0.26451 0.88716 0.34016 0.0
C4587 C 0.25657 0.90532 0.34951 0.0
C4588 C 0.26737 0.87504 0.34087 0.0
C4589 C 0.26505 0.86799 0.35111 0.0
C4590 C 0.25941 0.89231 0.34983 0.0
C4591 C 0.26006 0.87347 0.36062 0.0
C4592 C 0.25146 0.91051 0.35914 0.0
C4593 C 0.25729 0.92465 0.33926 0.0
N4594 N 0.25738 0.8853 0.35975 0.0
N4595 N 0.25922 0.91254 0.33986 0.0
H4596 H 0.27716 0.03686 0.63086 0.0
H4597 H 0.34619 0.08253 0.67229 0.0
H4598 H 0.28021 0.05005 0.66906 0.0
H4599 H 0.34033 0.07485 0.63266 0.0
H4600 H 0.32346 0.06775 0.67204 0.0
H4601 H 0.30167 0.04781 0.63218 0.0
C4602 C 0.28304 0.04191 0.63958 0.0
C4603 C 0.27659 0.04263 0.64984 0.0
C4604 C 0.3272 0.06922 0.66341 0.0
C4605 C 0.30463 0.05529 0.65138 0.0
C4606 C 0.34021 0.07758 0.66357 0.0
C4607 C 0.3451 0.08 0.65246 0.0
C4608 C 0.31905 0.06318 0.65209 0.0
C4609 C 0.33686 0.07341 0.64141 0.0
C4610 C 0.29701 0.04823 0.6403 0.0
C4611 C 0.2847 0.04942 0.66087 0.0
N4612 N 0.32423 0.06536 0.64149 0.0
N4613 N 0.29827 0.05554 0.66133 0.0
H4614 H 0.23686 0.07861 0.9064 0.0
H4615 H 0.19287 0.12793 0.87907 0.0
H4616 H 0.2237 0.08115 0.86728 0.0
H4617 H 0.20927 0.12776 0.91792 0.0
H4618 H 0.2028 0.10984 0.87463 0.0
H4619 H 0.22566 0.0957 0.91087 0.0
C4620 C 0.23155 0.08271 0.89874 0.0
C4621 C 0.23125 0.07842 0.88643 0.0
C4622 C 0.20425 0.11375 0.88413 0.0
C4623 C 0.21844 0.09809 0.8915 0.0
C4624 C 0.19858 0.12405 0.88665 0.0
C4625 C 0.20052 0.12946 0.89884 0.0
C4626 C 0.2118 0.10873 0.89389 0.0
C4627 C 0.20775 0.12396 0.90838 0.0
C4628 C 0.22521 0.09252 0.9013 0.0
C4629 C 0.22437 0.08424 0.8769 0.0
N4630 N 0.2132 0.11394 0.9057 0.0
N4631 N 0.21823 0.09375 0.87964 0.0
H4632 H 0.72253 0.49212 0.67005 0.0
H4633 H 0.64147 0.46645 0.67179 0.0
H4634 H 0.69035 0.50429 0.64583 0.0
H4635 H 0.67274 0.44705 0.68684 0.0
H4636 H 0.65968 0.48341 0.6657 0.0
H4637 H 0.70475 0.47859 0.67971 0.0
C4638 C 0.71173 0.4921 0.66688 0.0
C4639 C 0.70791 0.4993 0.65706 0.0
C4640 C 0.66255 0.47551 0.67046 0.0
C4641 C 0.68749 0.48375 0.66804 0.0
C4642 C 0.6522 0.46591 0.67402 0.0
C4643 C 0.65564 0.45533 0.67975 0.0
C4644 C 0.67642 0.47456 0.6728 0.0
C4645 C 0.66967 0.45501 0.68233 0.0
C4646 C 0.70158 0.4843 0.67235 0.0
C4647 C 0.69373 0.49876 0.65326 0.0
N4648 N 0.67953 0.46444 0.6788 0.0
N4649 N 0.68402 0.49109 0.65873 0.0
H4650 H 0.68277 0.42109 0.13281 0.0
H4651 H 0.64966 0.37289 0.17973 0.0
H4652 H 0.6823 0.43243 0.17078 0.0
H4653 H 0.64131 0.36369 0.14014 0.0
H4654 H 0.66463 0.39372 0.17698 0.0
H4655 H 0.67048 0.39902 0.13573 0.0
C4656 C 0.68019 0.4189 0.14179 0.0
C4657 C 0.68347 0.42862 0.15155 0.0
C4658 C 0.65958 0.38713 0.16889 0.0
C4659 C 0.66946 0.40345 0.15495 0.0
C4660 C 0.65099 0.37524 0.17044 0.0
C4661 C 0.64404 0.36657 0.16013 0.0
C4662 C 0.66133 0.39043 0.15693 0.0
C4663 C 0.64647 0.37003 0.14836 0.0
C4664 C 0.67312 0.40634 0.14343 0.0
C4665 C 0.67979 0.42528 0.16296 0.0
N4666 N 0.65484 0.38174 0.14707 0.0
N4667 N 0.67299 0.413 0.16434 0.0
H4668 H 0.32129 0.99312 0.85167 0.0
H4669 H 0.31865 0.92729 0.8137 0.0
H4670 H 0.28327 0.96552 0.8346 0.0
H4671 H 0.35655 0.95709 0.82524 0.0
H4672 H 0.30552 0.94181 0.82048 0.0
H4673 H 0.33444 0.98077 0.84143 0.0
C4674 C 0.31569 0.98453 0.8457 0.0
C4675 C 0.30113 0.98035 0.84404 0.0
C4676 C 0.31669 0.94527 0.82144 0.0
C4677 C 0.31613 0.96616 0.83231 0.0
C4678 C 0.32418 0.93696 0.81758 0.0
C4679 C 0.33871 0.94097 0.81899 0.0
C4680 C 0.32376 0.95767 0.82692 0.0
C4681 C 0.34535 0.95364 0.82396 0.0
C4682 C 0.32321 0.97752 0.83981 0.0
C4683 C 0.29445 0.96923 0.83608 0.0
N4684 N 0.33784 0.9615 0.8279 0.0
N4685 N 0.302 0.96248 0.83063 0.0
H4686 H 0.16707 0.0252 0.31779 0.0
H4687 H 0.09725 0.03319 0.33929 0.0
H4688 H 0.15045 0.00544 0.34743 0.0
H4689 H 0.11032 0.04831 0.30631 0.0
H4690 H 0.11778 0.02447 0.34344 0.0
H4691 H 0.14746 0.03523 0.31444 0.0
C4692 C 0.15934 0.02303 0.32365 0.0
C4693 C 0.16041 0.01443 0.33289 0.0
C4694 C 0.11621 0.02973 0.33531 0.0
C4695 C 0.13788 0.02585 0.32907 0.0
C4696 C 0.10452 0.03474 0.33297 0.0
C4697 C 0.10213 0.04147 0.32244 0.0
C4698 C 0.12562 0.03149 0.32709 0.0
C4699 C 0.11185 0.04319 0.31454 0.0
C4700 C 0.14811 0.0287 0.32168 0.0
C4701 C 0.14998 0.01187 0.34009 0.0
N4702 N 0.12316 0.03821 0.31701 0.0
N4703 N 0.13918 0.01756 0.33804 0.0
H4704 H 0.38051 0.19355 0.46713 0.0
H4705 H 0.37797 0.12599 0.43199 0.0
H4706 H 0.38006 0.15847 0.48525 0.0
H4707 H 0.39008 0.16212 0.41592 0.0
H4708 H 0.37703 0.1378 0.45113 0.0
H4709 H 0.38228 0.18229 0.44777 0.0
C4710 C 0.38077 0.18349 0.46703 0.0
C4711 C 0.38023 0.17697 0.47784 0.0
C4712 C 0.37995 0.14318 0.44346 0.0
C4713 C 0.38218 0.16405 0.45578 0.0
C4714 C 0.38043 0.13643 0.43251 0.0
C4715 C 0.38407 0.14308 0.42234 0.0
C4716 C 0.38297 0.15672 0.44427 0.0
C4717 C 0.38731 0.15663 0.42358 0.0
C4718 C 0.38186 0.1771 0.45601 0.0
C4719 C 0.38065 0.16395 0.4772 0.0
N4720 N 0.38658 0.16302 0.43432 0.0
N4721 N 0.38154 0.15793 0.46638 0.0
H4722 H 0.54152 0.59188 0.19858 0.0
H4723 H 0.57756 0.62721 0.14535 0.0
H4724 H 0.55797 0.6331 0.19994 0.0
H4725 H 0.56389 0.58589 0.14577 0.0
H4726 H 0.56811 0.62978 0.16412 0.0
H4727 H 0.54721 0.58976 0.17802 0.0
C4728 C 0.54614 0.60052 0.19449 0.0
C4729 C 0.54933 0.61269 0.20106 0.0
C4730 C 0.56711 0.62015 0.16007 0.0
C4731 C 0.5561 0.61029 0.17753 0.0
C4732 C 0.57243 0.61869 0.14931 0.0
C4733 C 0.57163 0.60632 0.14404 0.0
C4734 C 0.56089 0.60917 0.16558 0.0
C4735 C 0.56496 0.59561 0.14963 0.0
C4736 C 0.5495 0.59928 0.18277 0.0
C4737 C 0.55552 0.6235 0.19532 0.0
N4738 N 0.55992 0.59728 0.1601 0.0
N4739 N 0.55876 0.62205 0.18392 0.0
H4740 H 0.12076 0.82531 0.02129 0.0
H4741 H 0.1571 0.86506 0.97048 0.0
H4742 H 0.16259 0.82625 0.01658 0.0
H4743 H 0.11405 0.86053 0.97302 0.0
H4744 H 0.1594 0.85072 0.98719 0.0
H4745 H 0.11815 0.83812 0.00354 0.0
C4746 C 0.12941 0.82823 0.01652 0.0
C4747 C 0.14194 0.82475 0.02048 0.0
C4748 C 0.14942 0.85278 0.98404 0.0
C4749 C 0.13901 0.83942 1.00006 0.0
C4750 C 0.14812 0.86093 0.9745 0.0
C4751 C 0.13535 0.86386 0.97033 0.0
C4752 C 0.1379 0.84764 0.98952 0.0
C4753 C 0.12405 0.85843 0.97592 0.0
C4754 C 0.12789 0.83549 0.00634 0.0
C4755 C 0.15272 0.82863 0.0138 0.0
N4756 N 0.1256 0.85062 0.98525 0.0
N4757 N 0.15104 0.83582 0.00397 0.0
H4758 H 0.87632 0.35178 0.65223 0.0
H4759 H 0.81364 0.36955 0.60686 0.0
H4760 H 0.83645 0.35141 0.66175 0.0
H4761 H 0.85082 0.36513 0.59469 0.0
H4762 H 0.82203 0.36269 0.62702 0.0
H4763 H 0.86752 0.35661 0.63115 0.0
C4764 C 0.86572 0.35269 0.64989 0.0
C4765 C 0.8571 0.35114 0.65878 0.0
C4766 C 0.82837 0.36314 0.61995 0.0
C4767 C 0.84698 0.35664 0.63471 0.0
C4768 C 0.82359 0.3671 0.60845 0.0
C4769 C 0.8316 0.36801 0.59914 0.0
C4770 C 0.84135 0.36013 0.62226 0.0
C4771 C 0.84432 0.36452 0.60163 0.0
C4772 C 0.86069 0.35537 0.63784 0.0
C4773 C 0.84342 0.35232 0.65519 0.0
N4774 N 0.84887 0.36084 0.613 0.0
N4775 N 0.83884 0.35505 0.64349 0.0
H4776 H 0.30406 0.83817 0.97249 0.0
H4777 H 0.347 0.8442 0.04193 0.0
H4778 H 0.33806 0.82041 0.98311 0.0
H4779 H 0.31608 0.86516 0.03035 0.0
H4780 H 0.34248 0.83383 0.02084 0.0
H4781 H 0.3069 0.84655 0.99401 0.0
C4782 C 0.31212 0.83601 0.97935 0.0
C4783 C 0.32091 0.82865 0.97593 0.0
C4784 C 0.33666 0.84068 0.0229 0.0
C4785 C 0.32416 0.83817 1.00067 0.0
C4786 C 0.33925 0.84659 0.03492 0.0
C4787 C 0.332 0.85564 0.03778 0.0
C4788 C 0.3267 0.84379 0.0137 0.0
C4789 C 0.32196 0.85831 0.02843 0.0
C4790 C 0.3137 0.84077 0.99165 0.0
C4791 C 0.33097 0.82595 0.9853 0.0
N4792 N 0.31963 0.85245 0.0168 0.0
N4793 N 0.33237 0.83077 0.99721 0.0
H4794 H 0.9658 0.62654 0.84073 0.0
H4795 H 0.89019 0.62417 0.85592 0.0
H4796 H 0.9275 0.61036 0.8149 0.0
H4797 H 0.92838 0.64388 0.88022 0.0
H4798 H 0.9037 0.61764 0.84139 0.0
H4799 H 0.95233 0.63156 0.85593 0.0
C4800 C 0.95456 0.62395 0.83828 0.0
C4801 C 0.94779 0.61805 0.82647 0.0
C4802 C 0.90915 0.62341 0.84988 0.0
C4803 C 0.93228 0.62388 0.84384 0.0
C4804 C 0.90144 0.62713 0.85815 0.0
C4805 C 0.90822 0.63479 0.86912 0.0
C4806 C 0.92376 0.62725 0.85267 0.0
C4807 C 0.9228 0.63815 0.87174 0.0
C4808 C 0.94687 0.62689 0.84695 0.0
C4809 C 0.93318 0.61507 0.8238 0.0
N4810 N 0.9301 0.63442 0.86355 0.0
N4811 N 0.92594 0.61802 0.83239 0.0
H4812 H 0.08707 0.12803 0.51831 0.0
H4813 H 0.0705 0.14155 0.58557 0.0
H4814 H 0.08054 0.16436 0.5309 0.0
H4815 H 0.07941 0.10633 0.57315 0.0
H4816 H 0.07519 0.1506 0.56609 0.0
H4817 H 0.08514 0.12034 0.53867 0.0
C4818 C 0.08519 0.13439 0.52536 0.0
C4819 C 0.08381 0.14682 0.52282 0.0
C4820 C 0.07617 0.14091 0.56763 0.0
C4821 C 0.08169 0.13807 0.54631 0.0
C4822 C 0.0735 0.13577 0.57873 0.0
C4823 C 0.07432 0.12311 0.5808 0.0
C4824 C 0.07973 0.13334 0.55859 0.0
C4825 C 0.07845 0.11605 0.57178 0.0
C4826 C 0.08417 0.13001 0.53703 0.0
C4827 C 0.0817 0.15472 0.53244 0.0
N4828 N 0.08088 0.12121 0.56103 0.0
N4829 N 0.0806 0.15018 0.54372 0.0
H4830 H 0.57482 0.39282 0.35029 0.0
H4831 H 0.61268 0.35897 0.40473 0.0
H4832 H 0.5695 0.3516 0.3501 0.0
H4833 H 0.61717 0.40004 0.40461 0.0
H4834 H 0.59462 0.35572 0.38602 0.0
H4835 H 0.58801 0.3953 0.3714 0.0
C4836 C 0.57621 0.38425 0.35474 0.0
C4837 C 0.57112 0.37198 0.34831 0.0
C4838 C 0.59946 0.36544 0.39017 0.0
C4839 C 0.58654 0.3748 0.3725 0.0
C4840 C 0.60971 0.36728 0.40088 0.0
C4841 C 0.61658 0.3798 0.40612 0.0
C4842 C 0.59606 0.37619 0.38468 0.0
C4843 C 0.61235 0.39023 0.40072 0.0
C4844 C 0.58386 0.38569 0.36679 0.0
C4845 C 0.57346 0.36128 0.35457 0.0
N4846 N 0.60248 0.3882 0.39026 0.0
N4847 N 0.5811 0.36294 0.36626 0.0
H4848 H 0.49433 0.42118 0.24101 0.0
H4849 H 0.41627 0.42647 0.21736 0.0
H4850 H 0.46146 0.40897 0.26171 0.0
H4851 H 0.44754 0.43058 0.19451 0.0
H4852 H 0.43355 0.4238 0.23514 0.0
H4853 H 0.47815 0.42839 0.22538 0.0
C4854 C 0.4837 0.42004 0.24229 0.0
C4855 C 0.4792 0.41424 0.2526 0.0
C4856 C 0.43664 0.42542 0.22625 0.0
C4857 C 0.46058 0.4226 0.23472 0.0
C4858 C 0.42683 0.42702 0.21615 0.0
C4859 C 0.43047 0.42864 0.20444 0.0
C4860 C 0.45021 0.42555 0.22464 0.0
C4861 C 0.44426 0.42919 0.20334 0.0
C4862 C 0.47448 0.42421 0.23337 0.0
C4863 C 0.46539 0.41337 0.25392 0.0
N4864 N 0.45358 0.42759 0.21327 0.0
N4865 N 0.45653 0.41738 0.24501 0.0
H4866 H 0.29199 0.71095 0.89624 0.0
H4867 H 0.31796 0.67622 0.84218 0.0
H4868 H 0.32474 0.73008 0.87776 0.0
H4869 H 0.28579 0.65678 0.86101 0.0
H4870 H 0.32115 0.6959 0.85565 0.0
H4871 H 0.29008 0.69084 0.884 0.0
C4872 C 0.29886 0.71091 0.88968 0.0
C4873 C 0.3085 0.72227 0.88801 0.0
C4874 C 0.31339 0.68734 0.85687 0.0
C4875 C 0.30628 0.69927 0.87385 0.0
C4876 C 0.31159 0.67614 0.84918 0.0
C4877 C 0.30146 0.66499 0.85039 0.0
C4878 C 0.30504 0.68736 0.86587 0.0
C4879 C 0.29358 0.66526 0.8597 0.0
C4880 C 0.29771 0.69943 0.88264 0.0
C4881 C 0.317 0.72164 0.87924 0.0
N4882 N 0.29548 0.67629 0.86704 0.0
N4883 N 0.31567 0.71036 0.87249 0.0
H4884 H 0.055 0.59565 0.75189 0.0
H4885 H 0.06455 0.54151 0.70405 0.0
H4886 H 0.02078 0.56555 0.73192 0.0
H4887 H 0.0944 0.57794 0.71535 0.0
H4888 H 0.05001 0.54735 0.71809 0.0
H4889 H 0.07105 0.5864 0.74235 0.0
C4890 C 0.05084 0.58705 0.74557 0.0
C4891 C 0.03644 0.58153 0.74257 0.0
C4892 C 0.05986 0.55396 0.71764 0.0
C4893 C 0.05487 0.57078 0.73172 0.0
C4894 C 0.06818 0.55059 0.70973 0.0
C4895 C 0.08064 0.55928 0.70859 0.0
C4896 C 0.06414 0.56605 0.72451 0.0
C4897 C 0.08483 0.571 0.71599 0.0
C4898 C 0.06004 0.58175 0.74016 0.0
C4899 C 0.03177 0.57015 0.73456 0.0
N4900 N 0.07658 0.57407 0.72358 0.0
N4901 N 0.04093 0.56523 0.72933 0.0
H4902 H 0.07617 0.23716 0.41971 0.0
H4903 H 0.1206 0.30683 0.4078 0.0
H4904 H 0.11083 0.25992 0.44642 0.0
H4905 H 0.08491 0.28449 0.382 0.0
H4906 H 0.11671 0.29023 0.4225 0.0
H4907 H 0.07873 0.25477 0.40616 0.0
C4908 C 0.08433 0.24587 0.42273 0.0
C4909 C 0.09337 0.24701 0.4342 0.0
C4910 C 0.10971 0.28896 0.41364 0.0
C4911 C 0.09633 0.26731 0.4187 0.0
C4912 C 0.11195 0.2984 0.40527 0.0
C4913 C 0.10321 0.29686 0.39363 0.0
C4914 C 0.09861 0.27792 0.41034 0.0
C4915 C 0.092 0.28592 0.39083 0.0
C4916 C 0.08575 0.25596 0.415 0.0
C4917 C 0.10358 0.25864 0.43771 0.0
N4918 N 0.09008 0.27682 0.39908 0.0
N4919 N 0.10484 0.2683 0.42996 0.0
H4920 H 0.45933 0.61329 0.29619 0.0
H4921 H 0.39055 0.56231 0.30636 0.0
H4922 H 0.44021 0.57831 0.27246 0.0
H4923 H 0.40966 0.59739 0.3298 0.0
H4924 H 0.40758 0.56875 0.29286 0.0
H4925 H 0.44037 0.60831 0.30776 0.0
C4926 C 0.45114 0.60455 0.29341 0.0
C4927 C 0.45145 0.59615 0.28339 0.0
C4928 C 0.40803 0.57508 0.30092 0.0
C4929 C 0.42958 0.59042 0.29659 0.0
C4930 C 0.39832 0.5714 0.3086 0.0
C4931 C 0.39893 0.57923 0.3193 0.0
C4932 C 0.41839 0.5867 0.30395 0.0
C4933 C 0.40902 0.59101 0.32172 0.0
C4934 C 0.44026 0.60175 0.29999 0.0
C4935 C 0.44038 0.5851 0.28007 0.0
N4936 N 0.41844 0.59433 0.31418 0.0
N4937 N 0.42996 0.58252 0.2867 0.0
H4938 H 0.13991 0.72687 0.10982 0.0
H4939 H 0.19533 0.68914 0.14059 0.0
H4940 H 0.18394 0.74455 0.11944 0.0
H4941 H 0.15082 0.67434 0.13507 0.0
H4942 H 0.19186 0.7085 0.13047 0.0
H4943 H 0.14421 0.70657 0.11663 0.0
C4944 C 0.1505 0.72648 0.11335 0.0
C4945 C 0.16156 0.7375 0.11421 0.0
C4946 C 0.18287 0.70097 0.13142 0.0
C4947 C 0.1666 0.71417 0.122 0.0
C4948 C 0.18484 0.68991 0.13713 0.0
C4949 C 0.17334 0.68021 0.1388 0.0
C4950 C 0.16929 0.70224 0.12726 0.0
C4951 C 0.15998 0.6817 0.13418 0.0
C4952 C 0.15297 0.71486 0.11721 0.0
C4953 C 0.17511 0.7363 0.11859 0.0
N4954 N 0.15833 0.6925 0.12868 0.0
N4955 N 0.17725 0.72488 0.12243 0.0
H4956 H 0.96048 0.3553 0.77641 0.0
H4957 H 0.0431 0.36548 0.79163 0.0
H4958 H 0.98464 0.35148 0.74828 0.0
H4959 H 0.01757 0.36406 0.81945 0.0
H4960 H 0.022 0.36041 0.77549 0.0
H4961 H 0.98141 0.35861 0.79219 0.0
C4962 C 0.97015 0.35502 0.77353 0.0
C4963 C 0.97072 0.35302 0.76094 0.0
C4964 C 0.02101 0.36111 0.78513 0.0
C4965 C 0.99493 0.35707 0.77908 0.0
C4966 C 0.03302 0.36396 0.79431 0.0
C4967 C 0.03203 0.36508 0.80685 0.0
C4968 C 0.00792 0.35951 0.78854 0.0
C4969 C 0.01878 0.3632 0.80988 0.0
C4970 C 0.98215 0.357 0.78258 0.0
C4971 C 0.9837 0.35311 0.75783 0.0
N4972 N 0.00726 0.36055 0.8008 0.0
N4973 N 0.99528 0.35512 0.76683 0.0
H4974 H 0.32504 0.27584 0.54017 0.0
H4975 H 0.33482 0.31988 0.60342 0.0
H4976 H 0.35735 0.2771 0.57189 0.0
H4977 H 0.30165 0.3177 0.57231 0.0
H4978 H 0.34395 0.30502 0.5916 0.0
H4979 H 0.31706 0.292 0.5513 0.0
C4980 C 0.33054 0.27959 0.54943 0.0
C4981 C 0.34187 0.27503 0.5551 0.0
C4982 C 0.33467 0.30777 0.58734 0.0
C4983 C 0.33267 0.29349 0.56798 0.0
C4984 C 0.32947 0.31622 0.59409 0.0
C4985 C 0.31734 0.31978 0.5889 0.0
C4986 C 0.32773 0.30291 0.57525 0.0
C4987 C 0.31091 0.31501 0.5767 0.0
C4988 C 0.32592 0.28877 0.55582 0.0
C4989 C 0.34845 0.28015 0.5672 0.0
N4990 N 0.31614 0.30676 0.57031 0.0
N4991 N 0.34375 0.28906 0.57322 0.0
H4992 H 0.17057 0.42026 0.41234 0.0
H4993 H 0.13115 0.36201 0.36154 0.0
H4994 H 0.17332 0.42046 0.37359 0.0
H4995 H 0.12805 0.36127 0.40015 0.0
H4996 H 0.14907 0.38226 0.36639 0.0
H4997 H 0.15733 0.3977 0.40866 0.0
C4998 C 0.16846 0.41554 0.40307 0.0
C4999 C 0.17294 0.42233 0.39323 0.0
C5000 C 0.14462 0.37763 0.37385 0.0
C5001 C 0.15785 0.39646 0.38897 0.0
C5002 C 0.13438 0.36607 0.37108 0.0
C5003 C 0.12801 0.36006 0.38044 0.0
C5004 C 0.14846 0.38331 0.38608 0.0
C5005 C 0.13271 0.36561 0.39266 0.0
C5006 C 0.16096 0.40264 0.40099 0.0
C5007 C 0.17015 0.41563 0.38147 0.0
N5008 N 0.14253 0.37703 0.39511 0.0
N5009 N 0.16267 0.40313 0.37966 0.0
H5010 H 0.72743 0.07305 0.62433 0.0
H5011 H 0.68806 0.12103 0.65217 0.0
H5012 H 0.71247 0.06845 0.65879 0.0
H5013 H 0.70553 0.12712 0.61912 0.0
H5014 H 0.69759 0.10209 0.65514 0.0
H5015 H 0.72016 0.09323 0.62258 0.0
C5016 C 0.72265 0.0763 0.63155 0.0
C5017 C 0.72052 0.069 0.6417 0.0
C5018 C 0.69943 0.10761 0.64728 0.0
C5019 C 0.71217 0.09213 0.63976 0.0
C5020 C 0.694 0.1184 0.6456 0.0
C5021 C 0.69606 0.12562 0.63542 0.0
C5022 C 0.70689 0.10395 0.63864 0.0
C5023 C 0.70374 0.12181 0.62711 0.0
C5024 C 0.71855 0.08785 0.63057 0.0
C5025 C 0.71445 0.0738 0.65086 0.0
N5026 N 0.70883 0.11121 0.62887 0.0
N5027 N 0.71041 0.08499 0.64963 0.0
H5028 H 0.66624 0.93316 0.32036 0.0
H5029 H 0.60991 0.89366 0.35703 0.0
H5030 H 0.67275 0.93242 0.36013 0.0
H5031 H 0.6066 0.88765 0.31745 0.0
H5032 H 0.63182 0.90973 0.35805 0.0
H5033 H 0.64324 0.91832 0.31885 0.0
C5034 C 0.6628 0.92993 0.32877 0.0
C5035 C 0.67145 0.93398 0.34039 0.0
C5036 C 0.62631 0.90492 0.34913 0.0
C5037 C 0.6452 0.91703 0.33874 0.0
C5038 C 0.6138 0.89569 0.34854 0.0
C5039 C 0.60645 0.88914 0.33715 0.0
C5040 C 0.63155 0.90774 0.33825 0.0
C5041 C 0.61186 0.89248 0.32642 0.0
C5042 C 0.64971 0.92142 0.3279 0.0
C5043 C 0.66651 0.92941 0.35098 0.0
N5044 N 0.62412 0.9015 0.32724 0.0
N5045 N 0.65373 0.92121 0.3499 0.0
H5046 H 0.76743 0.92678 0.10218 0.0
H5047 H 0.80804 0.87844 0.13668 0.0
H5048 H 0.76803 0.91911 0.1405 0.0
H5049 H 0.80657 0.88478 0.098 0.0
H5050 H 0.79277 0.89282 0.13798 0.0
H5051 H 0.7812 0.91109 0.10023 0.0
C5052 C 0.77046 0.92182 0.1102 0.0
C5053 C 0.76657 0.92433 0.12154 0.0
C5054 C 0.79572 0.89105 0.12918 0.0
C5055 C 0.78229 0.90624 0.11933 0.0
C5056 C 0.80451 0.88286 0.12844 0.0
C5057 C 0.80871 0.88046 0.11723 0.0
C5058 C 0.79109 0.89696 0.11864 0.0
C5059 C 0.80356 0.88629 0.10682 0.0
C5060 C 0.77827 0.9128 0.10905 0.0
C5061 C 0.77063 0.91742 0.13154 0.0
N5062 N 0.7951 0.89433 0.1078 0.0
N5063 N 0.7783 0.90877 0.13021 0.0
H5064 H 0.29625 0.52297 0.38537 0.0
H5065 H 0.33109 0.55419 0.32991 0.0
H5066 H 0.27774 0.512 0.34689 0.0
H5067 H 0.34966 0.56266 0.36865 0.0
H5068 H 0.31236 0.53741 0.33552 0.0
H5069 H 0.31665 0.53646 0.3791 0.0
C5070 C 0.2965 0.52341 0.37558 0.0
C5071 C 0.28522 0.51646 0.36664 0.0
C5072 C 0.32061 0.54287 0.34277 0.0
C5073 C 0.30863 0.53191 0.35933 0.0
C5074 C 0.33133 0.55238 0.33957 0.0
C5075 C 0.34182 0.55994 0.34885 0.0
C5076 C 0.32046 0.54092 0.35534 0.0
C5077 C 0.34162 0.55724 0.36122 0.0
C5078 C 0.30819 0.53106 0.37199 0.0
C5079 C 0.28623 0.51719 0.35408 0.0
N5080 N 0.33107 0.54805 0.36409 0.0
N5081 N 0.29767 0.52489 0.35079 0.0
H5082 H 0.27103 0.53963 0.86261 0.0
H5083 H 0.28681 0.59424 0.81577 0.0
H5084 H 0.2529 0.53464 0.82366 0.0
H5085 H 0.2998 0.60154 0.85542 0.0
H5086 H 0.27441 0.5723 0.81857 0.0
H5087 H 0.28186 0.56224 0.86029 0.0
C5088 C 0.26933 0.54329 0.85358 0.0
C5089 C 0.26106 0.53522 0.84331 0.0
C5090 C 0.27991 0.5787 0.82668 0.0
C5091 C 0.27338 0.56107 0.84059 0.0
C5092 C 0.28703 0.59121 0.82508 0.0
C5093 C 0.29442 0.59969 0.83538 0.0
C5094 C 0.28024 0.57456 0.83867 0.0
C5095 C 0.29418 0.59532 0.84724 0.0
C5096 C 0.27544 0.55621 0.85227 0.0
C5097 C 0.25907 0.54053 0.83185 0.0
N5098 N 0.2873 0.58302 0.84856 0.0
N5099 N 0.26524 0.55308 0.83079 0.0
H5100 H 0.66784 0.01134 0.13916 0.0
H5101 H 0.65499 0.03644 0.20475 0.0
H5102 H 0.69751 0.01492 0.17329 0.0
H5103 H 0.6299 0.03999 0.16972 0.0
H5104 H 0.66925 0.02615 0.19371 0.0
H5105 H 0.65236 0.01932 0.15054 0.0
C5106 C 0.67112 0.01378 0.14905 0.0
C5107 C 0.68412 0.01255 0.15522 0.0
C5108 C 0.66054 0.02906 0.18844 0.0
C5109 C 0.66627 0.0216 0.16837 0.0
C5110 C 0.65237 0.03487 0.19474 0.0
C5111 C 0.64105 0.0388 0.18816 0.0
C5112 C 0.65744 0.02722 0.17543 0.0
C5113 C 0.63834 0.03686 0.17517 0.0
C5114 C 0.66223 0.01831 0.15555 0.0
C5115 C 0.68758 0.01559 0.16812 0.0
N5116 N 0.64644 0.03117 0.16925 0.0
N5117 N 0.67876 0.02002 0.17424 0.0
H5118 H 0.81174 0.98227 0.68895 0.0
H5119 H 0.86951 0.95262 0.66554 0.0
H5120 H 0.82529 0.99068 0.65435 0.0
H5121 H 0.85947 0.949 0.70201 0.0
H5122 H 0.85396 0.96709 0.66132 0.0
H5123 H 0.82961 0.97043 0.69397 0.0
C5124 C 0.8185 0.98163 0.6824 0.0
C5125 C 0.81695 0.9874 0.67117 0.0
C5126 C 0.8553 0.96327 0.6703 0.0
C5127 C 0.83751 0.97385 0.67687 0.0
C5128 C 0.8642 0.95507 0.67272 0.0
C5129 C 0.86591 0.94979 0.6842 0.0
C5130 C 0.8479 0.96602 0.67938 0.0
C5131 C 0.85858 0.953 0.69309 0.0
C5132 C 0.82876 0.97492 0.6853 0.0
C5133 C 0.82616 0.98643 0.66314 0.0
N5134 N 0.84986 0.96085 0.69048 0.0
N5135 N 0.83597 0.97969 0.66609 0.0
loop_
_geom_bond_atom_site_label_1
_geom_bond_atom_site_label_2
_geom_bond_distance
_geom_bond_site_symmetry_2
_ccdc_geom_bond_type
C0 C1 1.264 . S
C0 C5 1.479 . S
C0 C10 1.465 . S
C1 C0 1.264 . S
C1 C3 1.339 . S
C1 H28 0.931 . S
C2 C3 1.395 . S
C2 C4 1.320 . S
C3 C1 1.339 . S
C3 C2 1.395 . S
C3 H29 0.929 . S
C4 C2 1.320 . S
C4 C5 1.405 . S
C4 H30 0.930 . S
C5 C0 1.479 . S
C5 C4 1.405 . S
C5 H31 0.931 . S
U6 O7 2.454 . S
U6 O8 2.458 . S
U6 C9 2.984 . S
U6 C10 2.847 1_455 S
U6 C23 2.882 . S
U6 O24 2.441 1_455 S
U6 O25 2.420 1_455 S
U6 O26 2.455 . S
U6 O27 2.449 . S
O7 U6 2.454 . S
O7 C9 1.353 . S
O8 U6 2.458 . S
O8 C9 1.286 . S
C9 U6 2.984 . S
C9 O7 1.353 . S
C9 O8 1.286 . S
C9 C11 1.363 . S
C10 C0 1.465 . S
C10 U6 2.847 1_655 S
C10 O24 1.249 . S
C10 O25 1.202 . S
C11 C9 1.363 . S
C11 C13 1.408 . S
C11 C16 1.342 . S
C12 C13 1.310 . S
C12 C15 1.461 . S
C12 H32 0.932 . S
C13 C11 1.408 . S
C13 C12 1.310 . S
C13 H33 0.930 . S
C14 C15 1.474 . S
C14 C16 1.285 . S
C14 H34 0.929 . S
C15 C12 1.461 . S
C15 C14 1.474 . S
C16 C11 1.342 . S
C16 C14 1.285 . S
C16 H35 0.930 . S
C17 C20 1.424 . S
C17 C22 1.245 . S
C17 C23 1.428 . S
C18 C21 1.260 . S
C18 C22 1.477 . S
C18 H36 0.932 . S
C19 C20 1.384 . S
C19 C21 1.479 . S
C19 H37 0.929 . S
C20 C17 1.424 . S
C20 C19 1.384 . S
C20 H38 0.928 . S
C21 C18 1.260 . S
C21 C19 1.479 . S
C22 C17 1.245 . S
C22 C18 1.477 . S
C22 H39 0.932 . S
C23 U6 2.882 . S
C23 C17 1.428 . S
C23 O26 1.301 . S
C23 O27 1.282 . S
O24 U6 2.441 1_655 S
O24 C10 1.249 . S
O25 U6 2.420 1_655 S
O25 C10 1.202 . S
O26 U6 2.455 . S
O26 C23 1.301 . S
O27 U6 2.449 . S
O27 C23 1.282 . S
H28 C1 0.931 . S
H29 C3 0.929 . S
H30 C4 0.930 . S
H31 C5 0.931 . S
H32 C12 0.932 . S
H33 C13 0.930 . S
H34 C14 0.929 . S
H35 C16 0.930 . S
H36 C18 0.932 . S
H37 C19 0.929 . S
H38 C20 0.928 . S
H39 C22 0.932 . S
C40 C41 1.264 . S
C40 C45 1.479 . S
C40 C50 1.465 . S
C41 C40 1.264 . S
C41 C43 1.339 . S
C41 H68 0.931 . S
C42 C43 1.395 . S
C42 C44 1.320 . S
C43 C41 1.339 . S
C43 C42 1.395 . S
C43 H69 0.929 . S
C44 C42 1.320 . S
C44 C45 1.405 . S
C44 H70 0.930 . S
C45 C40 1.479 . S
C45 C44 1.405 . S
C45 H71 0.931 . S
U46 O47 2.454 . S
U46 O48 2.458 . S
U46 C49 2.984 . S
U46 C50 2.847 . S
U46 C63 2.882 . S
U46 O64 2.441 . S
U46 O65 2.420 . S
U46 O66 2.455 . S
U46 O67 2.449 . S
O47 U46 2.454 . S
O47 C49 1.353 . S
O48 U46 2.458 . S
O48 C49 1.286 . S
C49 U46 2.984 . S
C49 O47 1.353 . S
C49 O48 1.286 . S
C49 C51 1.363 . S
C50 C40 1.465 . S
C50 U46 2.847 . S
C50 O64 1.249 . S
C50 O65 1.202 . S
C51 C49 1.363 . S
C51 C53 1.408 . S
C51 C56 1.342 . S
C52 C53 1.310 . S
C52 C55 1.461 . S
C52 H72 0.932 . S
C53 C51 1.408 . S
C53 C52 1.310 . S
C53 H73 0.930 . S
C54 C55 1.474 . S
C54 C56 1.285 . S
C54 H74 0.929 . S
C55 C52 1.461 . S
C55 C54 1.474 . S
C56 C51 1.342 . S
C56 C54 1.285 . S
C56 H75 0.930 . S
C57 C60 1.424 . S
C57 C62 1.245 . S
C57 C63 1.428 . S
C58 C61 1.260 . S
C58 C62 1.477 . S
C58 H76 0.932 . S
C59 C60 1.384 . S
C59 C61 1.479 . S
C59 H77 0.929 . S
C60 C57 1.424 . S
C60 C59 1.384 . S
C60 H78 0.928 . S
C61 C58 1.260 . S
C61 C59 1.479 . S
C62 C57 1.245 . S
C62 C58 1.477 . S
C62 H79 0.932 . S
C63 U46 2.882 . S
C63 C57 1.428 . S
C63 O66 1.301 . S
C63 O67 1.282 . S
O64 U46 2.441 . S
O64 C50 1.249 . S
O65 U46 2.420 . S
O65 C50 1.202 . S
O66 U46 2.455 . S
O66 C63 1.301 . S
O67 U46 2.449 . S
O67 C63 1.282 . S
H68 C41 0.931 . S
H69 C43 0.929 . S
H70 C44 0.930 . S
H71 C45 0.931 . S
H72 C52 0.932 . S
H73 C53 0.930 . S
H74 C54 0.929 . S
H75 C56 0.930 . S
H76 C58 0.932 . S
H77 C59 0.929 . S
H78 C60 0.928 . S
H79 C62 0.932 . S
C80 C81 1.264 . S
C80 C85 1.479 . S
C80 C90 1.465 . S
C81 C80 1.264 . S
C81 C83 1.339 . S
C81 H108 0.931 . S
C82 C83 1.395 . S
C82 C84 1.320 . S
C83 C81 1.339 . S
C83 C82 1.395 . S
C83 H109 0.929 . S
C84 C82 1.320 . S
C84 C85 1.405 . S
C84 H110 0.930 . S
C85 C80 1.479 . S
C85 C84 1.405 . S
C85 H111 0.931 . S
U86 O87 2.454 . S
U86 O88 2.458 . S
U86 C89 2.984 . S
U86 C90 2.847 . S
U86 C103 2.882 . S
U86 O104 2.441 . S
U86 O105 2.420 . S
U86 O106 2.455 . S
U86 O107 2.449 . S
O87 U86 2.454 . S
O87 C89 1.353 . S
O88 U86 2.458 . S
O88 C89 1.286 . S
C89 U86 2.984 . S
C89 O87 1.353 . S
C89 O88 1.286 . S
C89 C91 1.363 . S
C90 C80 1.465 . S
C90 U86 2.847 . S
C90 O104 1.249 . S
C90 O105 1.202 . S
C91 C89 1.363 . S
C91 C93 1.408 . S
C91 C96 1.342 . S
C92 C93 1.310 . S
C92 C95 1.461 . S
C92 H112 0.932 . S
C93 C91 1.408 . S
C93 C92 1.310 . S
C93 H113 0.930 . S
C94 C95 1.474 . S
C94 C96 1.285 . S
C94 H114 0.929 . S
C95 C92 1.461 . S
C95 C94 1.474 . S
C96 C91 1.342 . S
C96 C94 1.285 . S
C96 H115 0.930 . S
C97 C100 1.424 . S
C97 C102 1.245 . S
C97 C103 1.428 . S
C98 C101 1.260 . S
C98 C102 1.477 . S
C98 H116 0.932 . S
C99 C100 1.384 . S
C99 C101 1.479 . S
C99 H117 0.929 . S
C100 C97 1.424 . S
C100 C99 1.384 . S
C100 H118 0.928 . S
C101 C98 1.260 . S
C101 C99 1.479 . S
C102 C97 1.245 . S
C102 C98 1.477 . S
C102 H119 0.932 . S
C103 U86 2.882 . S
C103 C97 1.428 . S
C103 O106 1.301 . S
C103 O107 1.282 . S
O104 U86 2.441 . S
O104 C90 1.249 . S
O105 U86 2.420 . S
O105 C90 1.202 . S
O106 U86 2.455 . S
O106 C103 1.301 . S
O107 U86 2.449 . S
O107 C103 1.282 . S
H108 C81 0.931 . S
H109 C83 0.929 . S
H110 C84 0.930 . S
H111 C85 0.931 . S
H112 C92 0.932 . S
H113 C93 0.930 . S
H114 C94 0.929 . S
H115 C96 0.930 . S
H116 C98 0.932 . S
H117 C99 0.929 . S
H118 C100 0.928 . S
H119 C102 0.932 . S
C120 C121 1.264 . S
C120 C125 1.479 . S
C120 C130 1.465 . S
C121 C120 1.264 . S
C121 C123 1.339 . S
C121 H148 0.931 . S
C122 C123 1.395 . S
C122 C124 1.320 . S
C123 C121 1.339 . S
C123 C122 1.395 . S
C123 H149 0.929 . S
C124 C122 1.320 . S
C124 C125 1.405 . S
C124 H150 0.930 . S
C125 C120 1.479 . S
C125 C124 1.405 . S
C125 H151 0.931 . S
U126 O127 2.454 . S
U126 O128 2.458 . S
U126 C129 2.984 . S
U126 C130 2.847 . S
U126 C143 2.882 . S
U126 O144 2.441 . S
U126 O145 2.420 . S
U126 O146 2.455 . S
U126 O147 2.449 . S
O127 U126 2.454 . S
O127 C129 1.353 . S
O128 U126 2.458 . S
O128 C129 1.286 . S
C129 U126 2.984 . S
C129 O127 1.353 . S
C129 O128 1.286 . S
C129 C131 1.363 . S
C130 C120 1.465 . S
C130 U126 2.847 . S
C130 O144 1.249 . S
C130 O145 1.202 . S
C131 C129 1.363 . S
C131 C133 1.408 . S
C131 C136 1.342 . S
C132 C133 1.310 . S
C132 C135 1.461 . S
C132 H152 0.932 . S
C133 C131 1.408 . S
C133 C132 1.310 . S
C133 H153 0.930 . S
C134 C135 1.474 . S
C134 C136 1.285 . S
C134 H154 0.929 . S
C135 C132 1.461 . S
C135 C134 1.474 . S
C136 C131 1.342 . S
C136 C134 1.285 . S
C136 H155 0.930 . S
C137 C140 1.424 . S
C137 C142 1.245 . S
C137 C143 1.428 . S
C138 C141 1.260 . S
C138 C142 1.477 . S
C138 H156 0.932 . S
C139 C140 1.384 . S
C139 C141 1.479 . S
C139 H157 0.929 . S
C140 C137 1.424 . S
C140 C139 1.384 . S
C140 H158 0.928 . S
C141 C138 1.260 . S
C141 C139 1.479 . S
C142 C137 1.245 . S
C142 C138 1.477 . S
C142 H159 0.932 . S
C143 U126 2.882 . S
C143 C137 1.428 . S
C143 O146 1.301 . S
C143 O147 1.282 . S
O144 U126 2.441 . S
O144 C130 1.249 . S
O145 U126 2.420 . S
O145 C130 1.202 . S
O146 U126 2.455 . S
O146 C143 1.301 . S
O147 U126 2.449 . S
O147 C143 1.282 . S
H148 C121 0.931 . S
H149 C123 0.929 . S
H150 C124 0.930 . S
H151 C125 0.931 . S
H152 C132 0.932 . S
H153 C133 0.930 . S
H154 C134 0.929 . S
H155 C136 0.930 . S
H156 C138 0.932 . S
H157 C139 0.929 . S
H158 C140 0.928 . S
H159 C142 0.932 . S
C160 C161 1.264 . S
C160 C165 1.479 . S
C160 C170 1.465 . S
C161 C160 1.264 . S
C161 C163 1.339 . S
C161 H188 0.931 . S
C162 C163 1.395 . S
C162 C164 1.320 . S
C163 C161 1.339 . S
C163 C162 1.395 . S
C163 H189 0.929 . S
C164 C162 1.320 . S
C164 C165 1.405 . S
C164 H190 0.884 1_455 S
C165 C160 1.479 . S
C165 C164 1.405 . S
C165 H191 0.931 . S
U166 O167 2.454 . S
U166 O168 2.458 . S
U166 C169 2.984 . S
U166 C170 2.847 . S
U166 C183 2.882 . S
U166 O184 2.441 . S
U166 O185 2.420 . S
U166 O186 2.455 . S
U166 O187 2.449 . S
O167 U166 2.454 . S
O167 C169 1.353 . S
O168 U166 2.458 . S
O168 C169 1.286 . S
C169 U166 2.984 . S
C169 O167 1.353 . S
C169 O168 1.286 . S
C169 C171 1.363 . S
C170 C160 1.465 . S
C170 U166 2.847 . S
C170 O184 1.249 . S
C170 O185 1.202 . S
C171 C169 1.363 . S
C171 C173 1.408 . S
C171 C176 1.342 . S
C172 C173 1.310 . S
C172 C175 1.461 . S
C172 H192 0.932 . S
C173 C171 1.408 . S
C173 C172 1.310 . S
C173 H193 0.930 . S
C174 C175 1.474 . S
C174 C176 1.285 . S
C174 H194 0.929 . S
C175 C172 1.461 . S
C175 C174 1.474 . S
C176 C171 1.342 . S
C176 C174 1.285 . S
C176 H195 0.930 . S
C177 C180 1.424 . S
C177 C182 1.245 . S
C177 C183 1.428 . S
C178 C181 1.260 . S
C178 C182 1.477 . S
C178 H196 0.932 . S
C179 C180 1.384 . S
C179 C181 1.479 . S
C179 H197 0.929 . S
C180 C177 1.424 . S
C180 C179 1.384 . S
C180 H198 0.928 . S
C181 C178 1.260 . S
C181 C179 1.479 . S
C182 C177 1.245 . S
C182 C178 1.477 . S
C182 H199 0.932 . S
C183 U166 2.882 . S
C183 C177 1.428 . S
C183 O186 1.301 . S
C183 O187 1.282 . S
O184 U166 2.441 . S
O184 C170 1.249 . S
O185 U166 2.420 . S
O185 C170 1.202 . S
O186 U166 2.455 . S
O186 C183 1.301 . S
O187 U166 2.449 . S
O187 C183 1.282 . S
H188 C161 0.931 . S
H189 C163 0.929 . S
H190 C164 0.884 1_655 S
H191 C165 0.931 . S
H192 C172 0.932 . S
H193 C173 0.930 . S
H194 C174 0.929 . S
H195 C176 0.930 . S
H196 C178 0.932 . S
H197 C179 0.929 . S
H198 C180 0.928 . S
H199 C182 0.932 . S
C200 C201 1.264 . S
C200 C205 1.479 . S
C200 C210 1.465 . S
C201 C200 1.264 . S
C201 C203 1.339 . S
C201 H228 0.931 . S
C202 C203 1.395 . S
C202 C204 1.320 . S
C203 C201 1.339 . S
C203 C202 1.395 . S
C203 H229 0.929 . S
C204 C202 1.320 . S
C204 C205 1.405 . S
C204 H230 0.930 . S
C205 C200 1.479 . S
C205 C204 1.405 . S
C205 H231 0.931 . S
U206 O207 2.454 . S
U206 O208 2.458 . S
U206 C209 2.984 . S
U206 C210 2.847 . S
U206 C223 2.882 . S
U206 O224 2.441 . S
U206 O225 2.420 . S
U206 O226 2.455 . S
U206 O227 2.449 . S
O207 U206 2.454 . S
O207 C209 1.353 . S
O208 U206 2.458 . S
O208 C209 1.286 . S
C209 U206 2.984 . S
C209 O207 1.353 . S
C209 O208 1.286 . S
C209 C211 1.363 . S
C210 C200 1.465 . S
C210 U206 2.847 . S
C210 O224 1.249 . S
C210 O225 1.202 . S
C211 C209 1.363 . S
C211 C213 1.408 . S
C211 C216 1.342 . S
C212 C213 1.310 . S
C212 C215 1.461 . S
C212 H232 0.932 . S
C213 C211 1.408 . S
C213 C212 1.310 . S
C213 H233 0.930 . S
C214 C215 1.474 . S
C214 C216 1.285 . S
C214 H234 0.929 . S
C215 C212 1.461 . S
C215 C214 1.474 . S
C216 C211 1.342 . S
C216 C214 1.285 . S
C216 H235 0.930 . S
C217 C220 1.424 . S
C217 C222 1.245 . S
C217 C223 1.428 . S
C218 C221 1.260 . S
C218 C222 1.477 . S
C218 H236 0.932 . S
C219 C220 1.384 . S
C219 C221 1.479 . S
C219 H237 0.929 . S
C220 C217 1.424 . S
C220 C219 1.384 . S
C220 H238 0.928 . S
C221 C218 1.260 . S
C221 C219 1.479 . S
C222 C217 1.245 . S
C222 C218 1.477 . S
C222 H239 0.932 . S
C223 U206 2.882 . S
C223 C217 1.428 . S
C223 O226 1.301 . S
C223 O227 1.282 . S
O224 U206 2.441 . S
O224 C210 1.249 . S
O225 U206 2.420 . S
O225 C210 1.202 . S
O226 U206 2.455 . S
O226 C223 1.301 . S
O227 U206 2.449 . S
O227 C223 1.282 . S
H228 C201 0.931 . S
H229 C203 0.929 . S
H230 C204 0.930 . S
H231 C205 0.931 . S
H232 C212 0.932 . S
H233 C213 0.930 . S
H234 C214 0.929 . S
H235 C216 0.930 . S
H236 C218 0.932 . S
H237 C219 0.929 . S
H238 C220 0.928 . S
H239 C222 0.932 . S
C240 C241 1.264 . S
C240 C245 1.479 . S
C240 C250 1.465 . S
C241 C240 1.264 . S
C241 C243 1.339 . S
C241 H268 0.931 . S
C242 C243 1.395 . S
C242 C244 1.320 . S
C243 C241 1.339 . S
C243 C242 1.395 . S
C243 H269 0.929 . S
C244 C242 1.320 . S
C244 C245 1.405 . S
C244 H270 0.930 . S
C245 C240 1.479 . S
C245 C244 1.405 . S
C245 H271 0.931 . S
U246 O247 2.454 . S
U246 O248 2.458 . S
U246 C249 2.984 . S
U246 C250 2.847 . S
U246 C263 2.882 . S
U246 O264 2.441 . S
U246 O265 2.420 . S
U246 O266 2.455 . S
U246 O267 2.449 . S
O247 U246 2.454 . S
O247 C249 1.353 . S
O248 U246 2.458 . S
O248 C249 1.286 . S
C249 U246 2.984 . S
C249 O247 1.353 . S
C249 O248 1.286 . S
C249 C251 1.363 . S
C250 C240 1.465 . S
C250 U246 2.847 . S
C250 O264 1.249 . S
C250 O265 1.202 . S
C251 C249 1.363 . S
C251 C253 1.408 . S
C251 C256 1.342 . S
C252 C253 1.310 . S
C252 C255 1.461 . S
C252 H272 0.932 . S
C253 C251 1.408 . S
C253 C252 1.310 . S
C253 H273 0.930 . S
C254 C255 1.474 . S
C254 C256 1.285 . S
C254 H274 0.929 . S
C255 C252 1.461 . S
C255 C254 1.474 . S
C256 C251 1.342 . S
C256 C254 1.285 . S
C256 H275 0.930 . S
C257 C260 1.424 . S
C257 C262 1.245 . S
C257 C263 1.428 . S
C258 C261 1.260 . S
C258 C262 1.477 . S
C258 H276 0.932 . S
C259 C260 1.384 . S
C259 C261 1.479 . S
C259 H277 0.929 . S
C260 C257 1.424 . S
C260 C259 1.384 . S
C260 H278 0.928 . S
C261 C258 1.260 . S
C261 C259 1.479 . S
C262 C257 1.245 . S
C262 C258 1.477 . S
C262 H279 0.932 . S
C263 U246 2.882 . S
C263 C257 1.428 . S
C263 O266 1.301 . S
C263 O267 1.282 . S
O264 U246 2.441 . S
O264 C250 1.249 . S
O265 U246 2.420 . S
O265 C250 1.202 . S
O266 U246 2.455 . S
O266 C263 1.301 . S
O267 U246 2.449 . S
O267 C263 1.282 . S
H268 C241 0.931 . S
H269 C243 0.929 . S
H270 C244 0.930 . S
H271 C245 0.931 . S
H272 C252 0.932 . S
H273 C253 0.930 . S
H274 C254 0.929 . S
H275 C256 0.930 . S
H276 C258 0.932 . S
H277 C259 0.929 . S
H278 C260 0.928 . S
H279 C262 0.932 . S
C280 C281 1.264 . S
C280 C285 1.479 . S
C280 C290 1.465 . S
C281 C280 1.264 . S
C281 C283 1.339 . S
C281 H308 0.931 . S
C282 C283 1.395 . S
C282 C284 1.320 . S
C283 C281 1.339 . S
C283 C282 1.395 . S
C283 H309 0.929 . S
C284 C282 1.320 . S
C284 C285 1.405 . S
C284 H310 0.930 . S
C285 C280 1.479 . S
C285 C284 1.405 . S
C285 H311 0.931 . S
U286 O287 2.454 . S
U286 O288 2.458 . S
U286 C289 2.984 . S
U286 C290 2.847 . S
U286 C303 2.882 . S
U286 O304 2.441 . S
U286 O305 2.420 . S
U286 O306 2.455 . S
U286 O307 2.449 . S
O287 U286 2.454 . S
O287 C289 1.353 . S
O288 U286 2.458 . S
O288 C289 1.286 . S
C289 U286 2.984 . S
C289 O287 1.353 . S
C289 O288 1.286 . S
C289 C291 1.363 . S
C290 C280 1.465 . S
C290 U286 2.847 . S
C290 O304 1.249 . S
C290 O305 1.202 . S
C291 C289 1.363 . S
C291 C293 1.408 . S
C291 C296 1.342 . S
C292 C293 1.310 . S
C292 C295 1.461 . S
C292 H312 0.932 . S
C293 C291 1.408 . S
C293 C292 1.310 . S
C293 H313 0.930 . S
C294 C295 1.474 . S
C294 C296 1.285 . S
C294 H314 0.929 . S
C295 C292 1.461 . S
C295 C294 1.474 . S
C296 C291 1.342 . S
C296 C294 1.285 . S
C296 H315 0.930 . S
C297 C300 1.424 . S
C297 C302 1.245 . S
C297 C303 1.428 . S
C298 C301 1.260 . S
C298 C302 1.477 . S
C298 H316 0.932 . S
C299 C300 1.384 . S
C299 C301 1.479 . S
C299 H317 0.929 . S
C300 C297 1.424 . S
C300 C299 1.384 . S
C300 H318 0.928 . S
C301 C298 1.260 . S
C301 C299 1.479 . S
C302 C297 1.245 . S
C302 C298 1.477 . S
C302 H319 0.932 . S
C303 U286 2.882 . S
C303 C297 1.428 . S
C303 O306 1.301 . S
C303 O307 1.282 . S
O304 U286 2.441 . S
O304 C290 1.249 . S
O305 U286 2.420 . S
O305 C290 1.202 . S
O306 U286 2.455 . S
O306 C303 1.301 . S
O307 U286 2.449 . S
O307 C303 1.282 . S
H308 C281 0.931 . S
H309 C283 0.929 . S
H310 C284 0.930 . S
H311 C285 0.931 . S
H312 C292 0.932 . S
H313 C293 0.930 . S
H314 C294 0.929 . S
H315 C296 0.930 . S
H316 C298 0.932 . S
H317 C299 0.929 . S
H318 C300 0.928 . S
H319 C302 0.932 . S
C320 C321 1.264 . S
C320 C325 1.479 1_545 S
C320 C330 1.465 . S
C321 C320 1.264 . S
C321 C323 1.339 . S
C321 H348 0.931 . S
C322 C323 1.395 . S
C322 C324 1.320 . S
C323 C321 1.339 . S
C323 C322 1.395 . S
C323 H349 0.929 . S
C324 C322 1.320 . S
C324 C325 1.405 1_545 S
C324 H350 0.930 1_545 S
C325 C320 1.479 1_565 S
C325 C324 1.405 1_565 S
C325 H351 0.931 . S
U326 O327 2.454 . S
U326 O328 2.458 . S
U326 C329 2.984 . S
U326 C330 2.847 1_565 S
U326 C343 2.882 1_565 S
U326 O344 2.441 . S
U326 O345 2.420 1_565 S
U326 O346 2.455 1_565 S
U326 O347 2.449 1_565 S
O327 U326 2.454 . S
O327 C329 1.353 . S
O328 U326 2.458 . S
O328 C329 1.286 . S
C329 U326 2.984 . S
C329 O327 1.353 . S
C329 O328 1.286 . S
C329 C331 1.363 . S
C330 C320 1.465 . S
C330 U326 2.847 1_545 S
C330 O344 1.249 1_545 S
C330 O345 1.202 . S
C331 C329 1.363 . S
C331 C333 1.408 . S
C331 C336 1.342 . S
C332 C333 1.310 . S
C332 C335 1.461 . S
C332 H352 0.932 . S
C333 C331 1.408 . S
C333 C332 1.310 . S
C333 H353 0.930 . S
C334 C335 1.474 . S
C334 C336 1.285 . S
C334 H354 0.929 . S
C335 C332 1.461 . S
C335 C334 1.474 . S
C336 C331 1.342 . S
C336 C334 1.285 . S
C336 H355 0.930 . S
C337 C340 1.424 . S
C337 C342 1.245 . S
C337 C343 1.428 . S
C338 C341 1.260 . S
C338 C342 1.477 . S
C338 H356 0.932 . S
C339 C340 1.384 . S
C339 C341 1.479 . S
C339 H357 0.929 . S
C340 C337 1.424 . S
C340 C339 1.384 . S
C340 H358 0.928 . S
C341 C338 1.260 . S
C341 C339 1.479 . S
C342 C337 1.245 . S
C342 C338 1.477 . S
C342 H359 0.932 . S
C343 U326 2.882 1_545 S
C343 C337 1.428 . S
C343 O346 1.301 . S
C343 O347 1.282 . S
O344 U326 2.441 . S
O344 C330 1.249 1_565 S
O345 U326 2.420 1_545 S
O345 C330 1.202 . S
O346 U326 2.455 1_545 S
O346 C343 1.301 . S
O347 U326 2.449 1_545 S
O347 C343 1.282 . S
H348 C321 0.931 . S
H349 C323 0.929 . S
H350 C324 0.930 1_565 S
H351 C325 0.931 . S
H352 C332 0.932 . S
H353 C333 0.930 . S
H354 C334 0.929 . S
H355 C336 0.930 . S
H356 C338 0.932 . S
H357 C339 0.929 . S
H358 C340 0.928 . S
H359 C342 0.932 . S
C360 C361 1.264 . S
C360 C365 1.479 . S
C360 C370 1.465 . S
C361 C360 1.264 . S
C361 C363 1.339 . S
C361 H388 0.931 . S
C362 C363 1.395 . S
C362 C364 1.320 . S
C363 C361 1.339 . S
C363 C362 1.395 . S
C363 H389 0.929 . S
C364 C362 1.320 . S
C364 C365 1.405 . S
C364 H390 0.930 . S
C365 C360 1.479 . S
C365 C364 1.405 . S
C365 H391 0.931 . S
U366 O367 2.461 . S
U366 O368 2.458 . S
U366 C369 2.984 . S
U366 C370 2.847 1_545 S
U366 C383 2.882 . S
U366 O384 2.441 1_545 S
U366 O385 2.420 1_545 S
U366 O386 2.455 . S
U366 O387 2.449 . S
O367 U366 2.461 . S
O367 C369 1.374 . S
O368 U366 2.458 . S
O368 C369 1.286 . S
C369 U366 2.984 . S
C369 O367 1.374 . S
C369 O368 1.286 . S
C369 C371 1.363 . S
C370 C360 1.465 . S
C370 U366 2.847 1_565 S
C370 O384 1.249 . S
C370 O385 1.202 . S
C371 C369 1.363 . S
C371 C373 1.408 . S
C371 C376 1.342 . S
C372 C373 1.310 . S
C372 C375 1.461 . S
C372 H392 0.932 . S
C373 C371 1.408 . S
C373 C372 1.310 . S
C373 H393 0.930 . S
C374 C375 1.474 . S
C374 C376 1.285 . S
C374 H394 0.929 . S
C375 C372 1.461 . S
C375 C374 1.474 . S
C376 C371 1.342 . S
C376 C374 1.285 . S
C376 H395 0.930 . S
C377 C380 1.424 . S
C377 C382 1.245 . S
C377 C383 1.428 . S
C378 C381 1.260 . S
C378 C382 1.477 . S
C378 H396 0.932 . S
C379 C380 1.384 . S
C379 C381 1.479 . S
C379 H397 0.929 . S
C380 C377 1.424 . S
C380 C379 1.384 . S
C380 H398 0.928 . S
C381 C378 1.260 . S
C381 C379 1.479 . S
C382 C377 1.245 . S
C382 C378 1.477 . S
C382 H399 0.932 . S
C383 U366 2.882 . S
C383 C377 1.428 . S
C383 O386 1.301 . S
C383 O387 1.282 . S
O384 U366 2.441 1_565 S
O384 C370 1.249 . S
O385 U366 2.420 1_565 S
O385 C370 1.202 . S
O386 U366 2.455 . S
O386 C383 1.301 . S
O387 U366 2.449 . S
O387 C383 1.282 . S
H388 C361 0.931 . S
H389 C363 0.929 . S
H390 C364 0.930 . S
H391 C365 0.931 . S
H392 C372 0.932 . S
H393 C373 0.930 . S
H394 C374 0.929 . S
H395 C376 0.930 . S
H396 C378 0.932 . S
H397 C379 0.929 . S
H398 C380 0.928 . S
H399 C382 0.932 . S
C400 C401 1.264 . S
C400 C405 1.479 . S
C400 C410 1.465 . S
C401 C400 1.264 . S
C401 C403 1.339 . S
C401 H428 0.931 . S
C402 C403 1.395 . S
C402 C404 1.320 . S
C403 C401 1.339 . S
C403 C402 1.395 . S
C403 H429 0.929 . S
C404 C402 1.320 . S
C404 C405 1.405 . S
C404 H430 0.930 . S
C405 C400 1.479 . S
C405 C404 1.405 . S
C405 H431 0.931 . S
U406 O407 2.453 1_565 S
U406 O408 2.519 . S
U406 C409 3.019 . S
U406 C410 2.768 1_565 S
U406 C423 2.931 . S
U406 O424 2.366 1_565 S
U406 O425 2.352 1_565 S
U406 O426 2.527 . S
U406 O427 2.465 . S
O407 U406 2.453 1_545 S
O407 C409 1.353 1_545 S
O408 U406 2.519 . S
O408 C409 1.286 . S
C409 U406 3.019 . S
C409 O407 1.353 1_565 S
C409 O408 1.286 . S
C409 C411 1.363 . S
C410 C400 1.465 . S
C410 U406 2.768 1_545 S
C410 O424 1.249 . S
C410 O425 1.202 . S
C411 C409 1.363 . S
C411 C413 1.408 . S
C411 C416 1.342 . S
C412 C413 1.310 . S
C412 C415 1.461 . S
C412 H432 0.896 1_565 S
C413 C411 1.408 . S
C413 C412 1.310 . S
C413 H433 0.930 1_565 S
C414 C415 1.474 . S
C414 C416 1.285 . S
C414 H434 0.929 . S
C415 C412 1.461 . S
C415 C414 1.474 . S
C416 C411 1.342 . S
C416 C414 1.285 . S
C416 H435 0.930 . S
C417 C420 1.424 . S
C417 C422 1.245 . S
C417 C423 1.428 . S
C418 C421 1.260 . S
C418 C422 1.477 . S
C418 H436 0.932 . S
C419 C420 1.384 . S
C419 C421 1.479 . S
C419 H437 0.929 . S
C420 C417 1.424 . S
C420 C419 1.384 . S
C420 H438 0.928 . S
C421 C418 1.260 . S
C421 C419 1.479 . S
C422 C417 1.245 . S
C422 C418 1.477 . S
C422 H439 0.932 . S
C423 U406 2.931 . S
C423 C417 1.428 . S
C423 O426 1.301 . S
C423 O427 1.282 . S
O424 U406 2.366 1_545 S
O424 C410 1.249 . S
O425 U406 2.352 1_545 S
O425 C410 1.202 . S
O426 U406 2.527 . S
O426 C423 1.301 . S
O427 U406 2.465 . S
O427 C423 1.282 . S
H428 C401 0.931 . S
H429 C403 0.929 . S
H430 C404 0.930 . S
H431 C405 0.931 . S
H432 C412 0.896 1_545 S
H433 C413 0.930 1_545 S
H434 C414 0.929 . S
H435 C416 0.930 . S
H436 C418 0.932 . S
H437 C419 0.929 . S
H438 C420 0.928 . S
H439 C422 0.932 . S
C440 C441 1.264 . S
C440 C445 1.479 1_565 S
C440 C450 1.465 . S
C441 C440 1.264 . S
C441 C443 1.339 . S
C441 H468 0.931 . S
C442 C443 1.395 . S
C442 C444 1.320 . S
C443 C441 1.339 . S
C443 C442 1.395 . S
C443 H469 0.929 . S
C444 C442 1.320 . S
C444 C445 1.405 1_565 S
C444 H470 0.930 1_565 S
C445 C440 1.479 1_545 S
C445 C444 1.405 1_545 S
C445 H471 0.931 . S
U446 O447 2.454 . S
U446 O448 2.458 . S
U446 C449 2.984 . S
U446 C450 2.847 1_545 S
U446 C463 2.882 1_545 S
U446 O464 2.441 . S
U446 O465 2.420 1_545 S
U446 O466 2.455 1_545 S
U446 O467 2.449 1_545 S
O447 U446 2.454 . S
O447 C449 1.353 . S
O448 U446 2.458 . S
O448 C449 1.286 . S
C449 U446 2.984 . S
C449 O447 1.353 . S
C449 O448 1.286 . S
C449 C451 1.363 . S
C450 C440 1.465 . S
C450 U446 2.847 1_565 S
C450 O464 1.249 1_565 S
C450 O465 1.202 . S
C451 C449 1.363 . S
C451 C453 1.408 . S
C451 C456 1.342 . S
C452 C453 1.310 . S
C452 C455 1.461 . S
C452 H472 0.932 . S
C453 C451 1.408 . S
C453 C452 1.310 . S
C453 H473 0.930 . S
C454 C455 1.474 . S
C454 C456 1.285 . S
C454 H474 0.929 . S
C455 C452 1.461 . S
C455 C454 1.474 . S
C456 C451 1.342 . S
C456 C454 1.285 . S
C456 H475 0.930 . S
C457 C460 1.424 . S
C457 C462 1.245 . S
C457 C463 1.428 . S
C458 C461 1.260 . S
C458 C462 1.477 . S
C458 H476 0.932 . S
C459 C460 1.384 . S
C459 C461 1.479 . S
C459 H477 0.929 . S
C460 C457 1.424 . S
C460 C459 1.384 . S
C460 H478 0.928 . S
C461 C458 1.260 . S
C461 C459 1.479 . S
C462 C457 1.245 . S
C462 C458 1.477 . S
C462 H479 0.932 . S
C463 U446 2.882 1_565 S
C463 C457 1.428 . S
C463 O466 1.301 . S
C463 O467 1.282 . S
O464 U446 2.441 . S
O464 C450 1.249 1_545 S
O465 U446 2.420 1_565 S
O465 C450 1.202 . S
O466 U446 2.455 1_565 S
O466 C463 1.301 . S
O467 U446 2.449 1_565 S
O467 C463 1.282 . S
H468 C441 0.931 . S
H469 C443 0.929 . S
H470 C444 0.930 1_545 S
H471 C445 0.931 . S
H472 C452 0.932 . S
H473 C453 0.930 . S
H474 C454 0.929 . S
H475 C456 0.930 . S
H476 C458 0.932 . S
H477 C459 0.929 . S
H478 C460 0.928 . S
H479 C462 0.932 . S
C480 C481 1.264 . S
C480 C485 1.479 . S
C480 C490 1.465 . S
C481 C480 1.264 . S
C481 C483 1.339 . S
C481 H508 0.931 . S
C482 C483 1.395 . S
C482 C484 1.320 . S
C483 C481 1.339 . S
C483 C482 1.395 . S
C483 H509 0.929 . S
C484 C482 1.320 . S
C484 C485 1.405 . S
C484 H510 0.930 . S
C485 C480 1.479 . S
C485 C484 1.405 . S
C485 H511 0.931 . S
U486 O487 2.454 . S
U486 O488 2.458 . S
U486 C489 2.984 . S
U486 C490 2.847 . S
U486 C503 2.882 . S
U486 O504 2.441 . S
U486 O505 2.420 . S
U486 O506 2.455 . S
U486 O507 2.449 . S
O487 U486 2.454 . S
O487 C489 1.353 . S
O488 U486 2.458 . S
O488 C489 1.286 . S
C489 U486 2.984 . S
C489 O487 1.353 . S
C489 O488 1.286 . S
C489 C491 1.363 . S
C490 C480 1.465 . S
C490 U486 2.847 . S
C490 O504 1.249 . S
C490 O505 1.202 . S
C491 C489 1.363 . S
C491 C493 1.408 . S
C491 C496 1.342 . S
C492 C493 1.310 . S
C492 C495 1.461 . S
C492 H512 0.932 1_554 S
C493 C491 1.408 . S
C493 C492 1.310 . S
C493 H513 0.930 . S
C494 C495 1.474 . S
C494 C496 1.285 . S
C494 H514 0.929 . S
C495 C492 1.461 . S
C495 C494 1.474 . S
C496 C491 1.342 . S
C496 C494 1.285 . S
C496 H515 0.930 . S
C497 C500 1.424 . S
C497 C502 1.245 . S
C497 C503 1.428 . S
C498 C501 1.260 . S
C498 C502 1.477 . S
C498 H516 0.932 . S
C499 C500 1.384 . S
C499 C501 1.479 . S
C499 H517 0.929 . S
C500 C497 1.424 . S
C500 C499 1.384 . S
C500 H518 0.928 . S
C501 C498 1.260 . S
C501 C499 1.479 . S
C502 C497 1.245 . S
C502 C498 1.477 . S
C502 H519 0.932 . S
C503 U486 2.882 . S
C503 C497 1.428 . S
C503 O506 1.301 . S
C503 O507 1.282 . S
O504 U486 2.441 . S
O504 C490 1.249 . S
O505 U486 2.420 . S
O505 C490 1.202 . S
O506 U486 2.455 . S
O506 C503 1.301 . S
O507 U486 2.449 . S
O507 C503 1.282 . S
H508 C481 0.931 . S
H509 C483 0.929 . S
H510 C484 0.930 . S
H511 C485 0.931 . S
H512 C492 0.932 1_556 S
H513 C493 0.930 . S
H514 C494 0.929 . S
H515 C496 0.930 . S
H516 C498 0.932 . S
H517 C499 0.929 . S
H518 C500 0.928 . S
H519 C502 0.932 . S
C520 C521 1.264 . S
C520 C525 1.478 . S
C520 C530 1.465 1_455 S
C521 C520 1.264 . S
C521 C523 1.339 . S
C521 H548 0.931 1_455 S
C522 C523 1.395 . S
C522 C524 1.320 . S
C523 C521 1.339 . S
C523 C522 1.395 . S
C523 H549 0.929 . S
C524 C522 1.320 . S
C524 C525 1.405 . S
C524 H550 0.930 . S
C525 C520 1.478 . S
C525 C524 1.405 . S
C525 H551 0.931 . S
U526 O527 2.454 . S
U526 O528 2.458 . S
U526 C529 2.984 . S
U526 C530 2.847 . S
U526 C543 2.882 . S
U526 O544 2.441 . S
U526 O545 2.420 . S
U526 O546 2.455 . S
U526 O547 2.449 . S
O527 U526 2.454 . S
O527 C529 1.353 . S
O528 U526 2.458 . S
O528 C529 1.286 . S
C529 U526 2.984 . S
C529 O527 1.353 . S
C529 O528 1.286 . S
C529 C531 1.363 . S
C530 C520 1.465 1_655 S
C530 U526 2.847 . S
C530 O544 1.249 . S
C530 O545 1.202 . S
C531 C529 1.363 . S
C531 C533 1.408 . S
C531 C536 1.342 . S
C532 C533 1.310 . S
C532 C535 1.461 . S
C532 H552 0.932 . S
C533 C531 1.408 . S
C533 C532 1.310 . S
C533 H553 0.930 . S
C534 C535 1.474 . S
C534 C536 1.285 . S
C534 H554 0.929 . S
C535 C532 1.461 . S
C535 C534 1.474 . S
C536 C531 1.342 . S
C536 C534 1.285 . S
C536 H555 0.930 . S
C537 C540 1.424 . S
C537 C542 1.245 . S
C537 C543 1.428 . S
C538 C541 1.260 . S
C538 C542 1.477 . S
C538 H556 0.932 . S
C539 C540 1.384 . S
C539 C541 1.479 . S
C539 H557 0.929 . S
C540 C537 1.424 . S
C540 C539 1.384 . S
C540 H558 0.928 . S
C541 C538 1.260 . S
C541 C539 1.479 . S
C542 C537 1.245 . S
C542 C538 1.477 . S
C542 H559 0.932 . S
C543 U526 2.882 . S
C543 C537 1.428 . S
C543 O546 1.301 . S
C543 O547 1.282 . S
O544 U526 2.441 . S
O544 C530 1.249 . S
O545 U526 2.420 . S
O545 C530 1.202 . S
O546 U526 2.455 . S
O546 C543 1.301 . S
O547 U526 2.449 . S
O547 C543 1.282 . S
H548 C521 0.931 1_655 S
H549 C523 0.929 . S
H550 C524 0.930 . S
H551 C525 0.931 . S
H552 C532 0.932 . S
H553 C533 0.930 . S
H554 C534 0.929 . S
H555 C536 0.930 . S
H556 C538 0.932 . S
H557 C539 0.929 . S
H558 C540 0.928 . S
H559 C542 0.932 . S
C560 C561 1.264 . S
C560 C565 1.479 . S
C560 C570 1.465 . S
C561 C560 1.264 . S
C561 C563 1.339 . S
C561 H588 0.931 . S
C562 C563 1.395 . S
C562 C564 1.320 . S
C563 C561 1.339 . S
C563 C562 1.395 . S
C563 H589 0.929 . S
C564 C562 1.320 . S
C564 C565 1.405 . S
C564 H590 0.930 . S
C565 C560 1.479 . S
C565 C564 1.405 . S
C565 H591 0.931 . S
U566 O567 2.454 . S
U566 O568 2.458 . S
U566 C569 2.984 . S
U566 C570 2.847 . S
U566 C583 2.882 . S
U566 O584 2.441 . S
U566 O585 2.420 . S
U566 O586 2.455 . S
U566 O587 2.449 . S
O567 U566 2.454 . S
O567 C569 1.353 . S
O568 U566 2.458 . S
O568 C569 1.286 . S
C569 U566 2.984 . S
C569 O567 1.353 . S
C569 O568 1.286 . S
C569 C571 1.363 . S
C570 C560 1.465 . S
C570 U566 2.847 . S
C570 O584 1.249 . S
C570 O585 1.202 . S
C571 C569 1.363 . S
C571 C573 1.408 . S
C571 C576 1.342 . S
C572 C573 1.310 . S
C572 C575 1.461 . S
C572 H592 0.932 . S
C573 C571 1.408 . S
C573 C572 1.310 . S
C573 H593 0.930 . S
C574 C575 1.474 . S
C574 C576 1.285 . S
C574 H594 0.929 . S
C575 C572 1.461 . S
C575 C574 1.474 . S
C576 C571 1.342 . S
C576 C574 1.285 . S
C576 H595 0.930 . S
C577 C580 1.424 . S
C577 C582 1.245 . S
C577 C583 1.428 . S
C578 C581 1.260 . S
C578 C582 1.477 . S
C578 H596 0.932 . S
C579 C580 1.384 . S
C579 C581 1.479 . S
C579 H597 0.929 . S
C580 C577 1.424 . S
C580 C579 1.384 . S
C580 H598 0.928 . S
C581 C578 1.260 . S
C581 C579 1.479 . S
C582 C577 1.245 . S
C582 C578 1.477 . S
C582 H599 0.932 . S
C583 U566 2.882 . S
C583 C577 1.428 . S
C583 O586 1.301 . S
C583 O587 1.282 . S
O584 U566 2.441 . S
O584 C570 1.249 . S
O585 U566 2.420 . S
O585 C570 1.202 . S
O586 U566 2.455 . S
O586 C583 1.301 . S
O587 U566 2.449 . S
O587 C583 1.282 . S
H588 C561 0.931 . S
H589 C563 0.929 . S
H590 C564 0.930 . S
H591 C565 0.931 . S
H592 C572 0.932 . S
H593 C573 0.930 . S
H594 C574 0.929 . S
H595 C576 0.930 . S
H596 C578 0.932 . S
H597 C579 0.929 . S
H598 C580 0.928 . S
H599 C582 0.932 . S
C600 C601 1.264 . S
C600 C605 1.479 . S
C600 C610 1.465 . S
C601 C600 1.264 . S
C601 C603 1.339 . S
C601 H628 0.931 . S
C602 C603 1.395 . S
C602 C604 1.320 . S
C603 C601 1.339 . S
C603 C602 1.395 . S
C603 H629 0.929 . S
C604 C602 1.320 . S
C604 C605 1.405 . S
C604 H630 0.930 . S
C605 C600 1.479 . S
C605 C604 1.405 . S
C605 H631 0.931 1_655 S
U606 O607 2.454 . S
U606 O608 2.458 . S
U606 C609 2.984 . S
U606 C610 2.847 1_455 S
U606 C623 2.882 1_455 S
U606 O624 2.441 . S
U606 O625 2.420 1_455 S
U606 O626 2.455 . S
U606 O627 2.449 1_455 S
O607 U606 2.454 . S
O607 C609 1.353 . S
O608 U606 2.458 . S
O608 C609 1.286 . S
C609 U606 2.984 . S
C609 O607 1.353 . S
C609 O608 1.286 . S
C609 C611 1.363 . S
C610 C600 1.465 . S
C610 U606 2.847 1_655 S
C610 O624 1.249 1_655 S
C610 O625 1.202 . S
C611 C609 1.363 . S
C611 C613 1.408 . S
C611 C616 1.342 . S
C612 C613 1.310 . S
C612 C615 1.461 . S
C612 H632 0.932 . S
C613 C611 1.408 . S
C613 C612 1.310 . S
C613 H633 0.930 . S
C614 C615 1.474 . S
C614 C616 1.285 . S
C614 H634 0.929 . S
C615 C612 1.461 . S
C615 C614 1.474 . S
C616 C611 1.342 . S
C616 C614 1.285 . S
C616 H635 0.930 . S
C617 C620 1.424 . S
C617 C622 1.245 . S
C617 C623 1.428 . S
C618 C621 1.260 . S
C618 C622 1.477 . S
C618 H636 0.932 . S
C619 C620 1.384 . S
C619 C621 1.479 . S
C619 H637 0.929 . S
C620 C617 1.424 . S
C620 C619 1.384 . S
C620 H638 0.928 . S
C621 C618 1.260 . S
C621 C619 1.479 . S
C622 C617 1.245 . S
C622 C618 1.477 . S
C622 H639 0.932 . S
C623 U606 2.882 1_655 S
C623 C617 1.428 . S
C623 O626 1.301 1_655 S
C623 O627 1.282 . S
O624 U606 2.441 . S
O624 C610 1.249 1_455 S
O625 U606 2.420 1_655 S
O625 C610 1.202 . S
O626 U606 2.455 . S
O626 C623 1.301 1_455 S
O627 U606 2.449 1_655 S
O627 C623 1.282 . S
H628 C601 0.931 . S
H629 C603 0.929 . S
H630 C604 0.930 . S
H631 C605 0.931 1_455 S
H632 C612 0.932 . S
H633 C613 0.930 . S
H634 C614 0.929 . S
H635 C616 0.930 . S
H636 C618 0.932 . S
H637 C619 0.929 . S
H638 C620 0.928 . S
H639 C622 0.932 . S
C640 C641 1.264 . S
C640 C645 1.479 . S
C640 C650 1.465 . S
C641 C640 1.264 . S
C641 C643 1.339 . S
C641 H668 0.931 . S
C642 C643 1.395 . S
C642 C644 1.320 . S
C643 C641 1.339 . S
C643 C642 1.395 . S
C643 H669 0.929 . S
C644 C642 1.320 . S
C644 C645 1.405 . S
C644 H670 0.930 . S
C645 C640 1.479 . S
C645 C644 1.405 . S
C645 H671 0.931 . S
U646 O647 2.454 . S
U646 O648 2.458 . S
U646 C649 2.984 . S
U646 C650 2.847 . S
U646 C663 2.882 . S
U646 O664 2.441 . S
U646 O665 2.420 . S
U646 O666 2.455 . S
U646 O667 2.449 . S
O647 U646 2.454 . S
O647 C649 1.353 . S
O648 U646 2.458 . S
O648 C649 1.286 . S
C649 U646 2.984 . S
C649 O647 1.353 . S
C649 O648 1.286 . S
C649 C651 1.363 . S
C650 C640 1.465 . S
C650 U646 2.847 . S
C650 O664 1.249 . S
C650 O665 1.202 . S
C651 C649 1.363 . S
C651 C653 1.408 . S
C651 C656 1.342 . S
C652 C653 1.310 . S
C652 C655 1.461 . S
C652 H672 0.932 . S
C653 C651 1.408 . S
C653 C652 1.310 . S
C653 H673 0.930 . S
C654 C655 1.474 . S
C654 C656 1.285 . S
C654 H674 0.929 . S
C655 C652 1.461 . S
C655 C654 1.474 . S
C656 C651 1.342 . S
C656 C654 1.285 . S
C656 H675 0.930 . S
C657 C660 1.424 . S
C657 C662 1.245 . S
C657 C663 1.428 . S
C658 C661 1.260 . S
C658 C662 1.477 . S
C658 H676 0.932 . S
C659 C660 1.384 . S
C659 C661 1.479 . S
C659 H677 0.929 . S
C660 C657 1.424 . S
C660 C659 1.384 . S
C660 H678 0.928 . S
C661 C658 1.260 . S
C661 C659 1.479 . S
C662 C657 1.245 . S
C662 C658 1.477 . S
C662 H679 0.932 . S
C663 U646 2.882 . S
C663 C657 1.428 . S
C663 O666 1.301 . S
C663 O667 1.282 . S
O664 U646 2.441 . S
O664 C650 1.249 . S
O665 U646 2.420 . S
O665 C650 1.202 . S
O666 U646 2.455 . S
O666 C663 1.301 . S
O667 U646 2.449 . S
O667 C663 1.282 . S
H668 C641 0.931 . S
H669 C643 0.929 . S
H670 C644 0.930 . S
H671 C645 0.931 . S
H672 C652 0.932 . S
H673 C653 0.930 . S
H674 C654 0.929 . S
H675 C656 0.930 . S
H676 C658 0.932 . S
H677 C659 0.929 . S
H678 C660 0.928 . S
H679 C662 0.932 . S
C680 C681 1.264 . S
C680 C685 1.479 . S
C680 C690 1.465 . S
C681 C680 1.264 . S
C681 C683 1.339 . S
C681 H708 0.931 . S
C682 C683 1.395 . S
C682 C684 1.320 . S
C683 C681 1.339 . S
C683 C682 1.395 . S
C683 H709 0.929 . S
C684 C682 1.320 . S
C684 C685 1.405 . S
C684 H710 0.930 . S
C685 C680 1.479 . S
C685 C684 1.405 . S
C685 H711 0.931 . S
U686 O687 2.454 . S
U686 O688 2.458 . S
U686 C689 2.984 . S
U686 C690 2.847 . S
U686 C703 2.882 . S
U686 O704 2.441 . S
U686 O705 2.420 . S
U686 O706 2.455 . S
U686 O707 2.449 . S
O687 U686 2.454 . S
O687 C689 1.353 . S
O688 U686 2.458 . S
O688 C689 1.286 . S
C689 U686 2.984 . S
C689 O687 1.353 . S
C689 O688 1.286 . S
C689 C691 1.363 . S
C690 C680 1.465 . S
C690 U686 2.847 . S
C690 O704 1.249 . S
C690 O705 1.202 . S
C691 C689 1.363 . S
C691 C693 1.408 . S
C691 C696 1.342 . S
C692 C693 1.310 . S
C692 C695 1.461 . S
C692 H712 0.932 . S
C693 C691 1.408 . S
C693 C692 1.310 . S
C693 H713 0.930 . S
C694 C695 1.474 . S
C694 C696 1.285 . S
C694 H714 0.929 . S
C695 C692 1.461 . S
C695 C694 1.474 . S
C696 C691 1.342 . S
C696 C694 1.285 . S
C696 H715 0.930 . S
C697 C700 1.424 . S
C697 C702 1.245 . S
C697 C703 1.428 . S
C698 C701 1.260 . S
C698 C702 1.477 . S
C698 H716 0.932 . S
C699 C700 1.384 . S
C699 C701 1.479 . S
C699 H717 0.929 . S
C700 C697 1.424 . S
C700 C699 1.384 . S
C700 H718 0.928 . S
C701 C698 1.260 . S
C701 C699 1.479 . S
C702 C697 1.245 . S
C702 C698 1.477 . S
C702 H719 0.932 . S
C703 U686 2.882 . S
C703 C697 1.428 . S
C703 O706 1.301 . S
C703 O707 1.282 . S
O704 U686 2.441 . S
O704 C690 1.249 . S
O705 U686 2.420 . S
O705 C690 1.202 . S
O706 U686 2.455 . S
O706 C703 1.301 . S
O707 U686 2.449 . S
O707 C703 1.282 . S
H708 C681 0.931 . S
H709 C683 0.929 . S
H710 C684 0.930 . S
H711 C685 0.931 . S
H712 C692 0.932 . S
H713 C693 0.930 . S
H714 C694 0.929 . S
H715 C696 0.930 . S
H716 C698 0.932 . S
H717 C699 0.929 . S
H718 C700 0.928 . S
H719 C702 0.932 . S
C720 C721 1.264 . S
C720 C725 1.479 . S
C720 C730 1.465 . S
C721 C720 1.264 . S
C721 C723 1.339 . S
C721 H748 0.931 . S
C722 C723 1.395 . S
C722 C724 1.320 . S
C723 C721 1.339 . S
C723 C722 1.395 . S
C723 H749 0.929 . S
C724 C722 1.320 . S
C724 C725 1.405 . S
C724 H750 0.930 . S
C725 C720 1.479 . S
C725 C724 1.405 . S
C725 H751 0.931 . S
U726 O727 2.454 . S
U726 O728 2.458 . S
U726 C729 2.984 . S
U726 C730 2.847 . S
U726 C743 2.882 . S
U726 O744 2.441 . S
U726 O745 2.420 . S
U726 O746 2.455 . S
U726 O747 2.449 . S
O727 U726 2.454 . S
O727 C729 1.353 . S
O728 U726 2.458 . S
O728 C729 1.286 . S
C729 U726 2.984 . S
C729 O727 1.353 . S
C729 O728 1.286 . S
C729 C731 1.363 . S
C730 C720 1.465 . S
C730 U726 2.847 . S
C730 O744 1.249 . S
C730 O745 1.202 . S
C731 C729 1.363 . S
C731 C733 1.408 . S
C731 C736 1.342 . S
C732 C733 1.310 . S
C732 C735 1.461 . S
C732 H752 0.932 . S
C733 C731 1.408 . S
C733 C732 1.310 . S
C733 H753 0.930 . S
C734 C735 1.474 . S
C734 C736 1.285 . S
C734 H754 0.929 . S
C735 C732 1.461 . S
C735 C734 1.474 . S
C736 C731 1.342 . S
C736 C734 1.285 . S
C736 H755 0.930 . S
C737 C740 1.424 . S
C737 C742 1.245 . S
C737 C743 1.428 . S
C738 C741 1.260 . S
C738 C742 1.477 . S
C738 H756 0.932 . S
C739 C740 1.384 . S
C739 C741 1.479 . S
C739 H757 0.929 . S
C740 C737 1.424 . S
C740 C739 1.384 . S
C740 H758 0.928 . S
C741 C738 1.260 . S
C741 C739 1.479 . S
C742 C737 1.245 . S
C742 C738 1.477 . S
C742 H759 0.932 . S
C743 U726 2.882 . S
C743 C737 1.428 . S
C743 O746 1.301 . S
C743 O747 1.282 . S
O744 U726 2.441 . S
O744 C730 1.249 . S
O745 U726 2.420 . S
O745 C730 1.202 . S
O746 U726 2.455 . S
O746 C743 1.301 . S
O747 U726 2.449 . S
O747 C743 1.282 . S
H748 C721 0.931 . S
H749 C723 0.929 . S
H750 C724 0.930 . S
H751 C725 0.931 . S
H752 C732 0.932 . S
H753 C733 0.930 . S
H754 C734 0.929 . S
H755 C736 0.930 . S
H756 C738 0.932 . S
H757 C739 0.929 . S
H758 C740 0.928 . S
H759 C742 0.932 . S
C760 C761 1.264 . S
C760 C765 1.479 . S
C760 C770 1.465 . S
C761 C760 1.264 . S
C761 C763 1.339 . S
C761 H788 0.931 . S
C762 C763 1.395 . S
C762 C764 1.320 . S
C763 C761 1.339 . S
C763 C762 1.395 . S
C763 H789 0.929 . S
C764 C762 1.320 . S
C764 C765 1.405 . S
C764 H790 0.930 . S
C765 C760 1.479 . S
C765 C764 1.405 . S
C765 H791 0.931 . S
U766 O767 2.454 . S
U766 O768 2.458 . S
U766 C769 2.984 . S
U766 C770 2.847 . S
U766 C783 2.882 . S
U766 O784 2.441 . S
U766 O785 2.420 . S
U766 O786 2.455 . S
U766 O787 2.449 . S
O767 U766 2.454 . S
O767 C769 1.353 . S
O768 U766 2.458 . S
O768 C769 1.286 . S
C769 U766 2.984 . S
C769 O767 1.353 . S
C769 O768 1.286 . S
C769 C771 1.363 . S
C770 C760 1.465 . S
C770 U766 2.847 . S
C770 O784 1.249 . S
C770 O785 1.202 . S
C771 C769 1.363 . S
C771 C773 1.408 . S
C771 C776 1.342 . S
C772 C773 1.310 . S
C772 C775 1.461 . S
C772 H792 0.932 . S
C773 C771 1.408 . S
C773 C772 1.310 . S
C773 H793 0.930 . S
C774 C775 1.474 . S
C774 C776 1.285 . S
C774 H794 0.929 . S
C775 C772 1.461 . S
C775 C774 1.474 . S
C776 C771 1.342 . S
C776 C774 1.285 . S
C776 H795 0.930 . S
C777 C780 1.424 . S
C777 C782 1.245 . S
C777 C783 1.428 . S
C778 C781 1.260 . S
C778 C782 1.477 . S
C778 H796 0.932 . S
C779 C780 1.384 . S
C779 C781 1.479 . S
C779 H797 0.929 . S
C780 C777 1.424 . S
C780 C779 1.384 . S
C780 H798 0.928 . S
C781 C778 1.260 . S
C781 C779 1.479 . S
C782 C777 1.245 . S
C782 C778 1.477 . S
C782 H799 0.932 . S
C783 U766 2.882 . S
C783 C777 1.428 . S
C783 O786 1.301 . S
C783 O787 1.282 . S
O784 U766 2.441 . S
O784 C770 1.249 . S
O785 U766 2.420 . S
O785 C770 1.202 . S
O786 U766 2.455 . S
O786 C783 1.301 . S
O787 U766 2.449 . S
O787 C783 1.282 . S
H788 C761 0.931 . S
H789 C763 0.929 . S
H790 C764 0.930 . S
H791 C765 0.931 . S
H792 C772 0.932 . S
H793 C773 0.930 . S
H794 C774 0.929 . S
H795 C776 0.930 . S
H796 C778 0.932 . S
H797 C779 0.929 . S
H798 C780 0.928 . S
H799 C782 0.932 . S
C800 C801 1.264 . S
C800 C805 1.479 . S
C800 C810 1.465 . S
C801 C800 1.264 . S
C801 C803 1.339 . S
C801 H828 0.931 . S
C802 C803 1.395 . S
C802 C804 1.320 . S
C803 C801 1.339 . S
C803 C802 1.395 . S
C803 H829 0.929 . S
C804 C802 1.320 . S
C804 C805 1.405 . S
C804 H830 0.930 . S
C805 C800 1.479 . S
C805 C804 1.405 . S
C805 H831 0.931 . S
U806 O807 2.454 . S
U806 O808 2.458 . S
U806 C809 2.984 . S
U806 C810 2.847 . S
U806 C823 2.882 . S
U806 O824 2.441 . S
U806 O825 2.420 . S
U806 O826 2.455 . S
U806 O827 2.449 . S
O807 U806 2.454 . S
O807 C809 1.353 . S
O808 U806 2.458 . S
O808 C809 1.286 . S
C809 U806 2.984 . S
C809 O807 1.353 . S
C809 O808 1.286 . S
C809 C811 1.363 . S
C810 C800 1.465 . S
C810 U806 2.847 . S
C810 O824 1.249 . S
C810 O825 1.202 . S
C811 C809 1.363 . S
C811 C813 1.408 . S
C811 C816 1.342 . S
C812 C813 1.310 . S
C812 C815 1.461 . S
C812 H832 0.932 . S
C813 C811 1.408 . S
C813 C812 1.310 . S
C813 H833 0.930 . S
C814 C815 1.474 . S
C814 C816 1.285 . S
C814 H834 0.929 . S
C815 C812 1.461 . S
C815 C814 1.474 . S
C816 C811 1.342 . S
C816 C814 1.285 . S
C816 H835 0.930 . S
C817 C820 1.424 . S
C817 C822 1.245 . S
C817 C823 1.428 . S
C818 C821 1.260 . S
C818 C822 1.477 . S
C818 H836 0.932 . S
C819 C820 1.384 . S
C819 C821 1.479 . S
C819 H837 0.929 . S
C820 C817 1.424 . S
C820 C819 1.384 . S
C820 H838 0.928 . S
C821 C818 1.260 . S
C821 C819 1.479 . S
C822 C817 1.245 . S
C822 C818 1.477 . S
C822 H839 0.932 . S
C823 U806 2.882 . S
C823 C817 1.428 . S
C823 O826 1.301 . S
C823 O827 1.282 . S
O824 U806 2.441 . S
O824 C810 1.249 . S
O825 U806 2.420 . S
O825 C810 1.202 . S
O826 U806 2.455 . S
O826 C823 1.301 . S
O827 U806 2.449 . S
O827 C823 1.282 . S
H828 C801 0.931 . S
H829 C803 0.929 . S
H830 C804 0.930 . S
H831 C805 0.931 . S
H832 C812 0.932 . S
H833 C813 0.930 . S
H834 C814 0.929 . S
H835 C816 0.930 . S
H836 C818 0.932 . S
H837 C819 0.929 . S
H838 C820 0.928 . S
H839 C822 0.932 . S
C840 C841 1.264 . S
C840 C845 1.479 . S
C840 C850 1.465 . S
C841 C840 1.264 . S
C841 C843 1.339 . S
C841 H868 0.931 . S
C842 C843 1.395 . S
C842 C844 1.320 . S
C843 C841 1.339 . S
C843 C842 1.395 . S
C843 H869 0.929 . S
C844 C842 1.320 . S
C844 C845 1.405 . S
C844 H870 0.930 . S
C845 C840 1.479 . S
C845 C844 1.405 . S
C845 H871 0.931 . S
U846 O847 2.454 . S
U846 O848 2.458 . S
U846 C849 2.984 . S
U846 C850 2.847 . S
U846 C863 2.882 . S
U846 O864 2.441 . S
U846 O865 2.420 . S
U846 O866 2.455 . S
U846 O867 2.449 . S
O847 U846 2.454 . S
O847 C849 1.353 . S
O848 U846 2.458 . S
O848 C849 1.286 . S
C849 U846 2.984 . S
C849 O847 1.353 . S
C849 O848 1.286 . S
C849 C851 1.363 . S
C850 C840 1.465 . S
C850 U846 2.847 . S
C850 O864 1.249 . S
C850 O865 1.202 . S
C851 C849 1.363 . S
C851 C853 1.408 . S
C851 C856 1.342 . S
C852 C853 1.310 . S
C852 C855 1.461 . S
C852 H872 0.932 . S
C853 C851 1.408 . S
C853 C852 1.310 . S
C853 H873 0.930 . S
C854 C855 1.474 . S
C854 C856 1.285 . S
C854 H874 0.929 . S
C855 C852 1.461 . S
C855 C854 1.474 . S
C856 C851 1.342 . S
C856 C854 1.285 . S
C856 H875 0.930 . S
C857 C860 1.424 . S
C857 C862 1.245 . S
C857 C863 1.428 . S
C858 C861 1.260 . S
C858 C862 1.477 . S
C858 H876 0.932 . S
C859 C860 1.384 . S
C859 C861 1.479 . S
C859 H877 0.929 . S
C860 C857 1.424 . S
C860 C859 1.384 . S
C860 H878 0.928 . S
C861 C858 1.260 . S
C861 C859 1.479 . S
C862 C857 1.245 . S
C862 C858 1.477 . S
C862 H879 0.932 . S
C863 U846 2.882 . S
C863 C857 1.428 . S
C863 O866 1.301 . S
C863 O867 1.282 . S
O864 U846 2.441 . S
O864 C850 1.249 . S
O865 U846 2.420 . S
O865 C850 1.202 . S
O866 U846 2.455 . S
O866 C863 1.301 . S
O867 U846 2.449 . S
O867 C863 1.282 . S
H868 C841 0.931 . S
H869 C843 0.929 . S
H870 C844 0.930 . S
H871 C845 0.931 . S
H872 C852 0.932 . S
H873 C853 0.930 . S
H874 C854 0.929 . S
H875 C856 0.930 . S
H876 C858 0.932 . S
H877 C859 0.929 . S
H878 C860 0.928 . S
H879 C862 0.932 . S
C880 C881 1.264 . S
C880 C885 1.479 . S
C880 C890 1.465 . S
C881 C880 1.264 . S
C881 C883 1.339 . S
C881 H908 0.931 . S
C882 C883 1.395 . S
C882 C884 1.320 . S
C883 C881 1.339 . S
C883 C882 1.395 . S
C883 H909 0.929 . S
C884 C882 1.320 . S
C884 C885 1.405 . S
C884 H910 0.930 . S
C885 C880 1.479 . S
C885 C884 1.405 . S
C885 H911 0.931 . S
U886 O887 2.454 . S
U886 O888 2.458 . S
U886 C889 2.984 . S
U886 C890 2.847 . S
U886 C903 2.882 . S
U886 O904 2.441 . S
U886 O905 2.420 . S
U886 O906 2.455 . S
U886 O907 2.449 . S
O887 U886 2.454 . S
O887 C889 1.353 . S
O888 U886 2.458 . S
O888 C889 1.286 . S
C889 U886 2.984 . S
C889 O887 1.353 . S
C889 O888 1.286 . S
C889 C891 1.363 . S
C890 C880 1.465 . S
C890 U886 2.847 . S
C890 O904 1.249 . S
C890 O905 1.202 . S
C891 C889 1.363 . S
C891 C893 1.408 . S
C891 C896 1.342 . S
C892 C893 1.310 . S
C892 C895 1.461 . S
C892 H912 0.932 . S
C893 C891 1.408 . S
C893 C892 1.310 . S
C893 H913 0.930 . S
C894 C895 1.474 . S
C894 C896 1.285 . S
C894 H914 0.929 . S
C895 C892 1.461 . S
C895 C894 1.474 . S
C896 C891 1.342 . S
C896 C894 1.285 . S
C896 H915 0.930 . S
C897 C900 1.424 . S
C897 C902 1.245 . S
C897 C903 1.428 . S
C898 C901 1.260 . S
C898 C902 1.477 . S
C898 H916 0.932 . S
C899 C900 1.384 . S
C899 C901 1.479 . S
C899 H917 0.929 . S
C900 C897 1.424 . S
C900 C899 1.384 . S
C900 H918 0.928 . S
C901 C898 1.260 . S
C901 C899 1.479 . S
C902 C897 1.245 . S
C902 C898 1.477 . S
C902 H919 0.932 . S
C903 U886 2.882 . S
C903 C897 1.428 . S
C903 O906 1.301 . S
C903 O907 1.282 . S
O904 U886 2.441 . S
O904 C890 1.249 . S
O905 U886 2.420 . S
O905 C890 1.202 . S
O906 U886 2.455 . S
O906 C903 1.301 . S
O907 U886 2.449 . S
O907 C903 1.282 . S
H908 C881 0.931 . S
H909 C883 0.929 . S
H910 C884 0.930 . S
H911 C885 0.931 . S
H912 C892 0.932 . S
H913 C893 0.930 . S
H914 C894 0.929 . S
H915 C896 0.930 . S
H916 C898 0.932 . S
H917 C899 0.929 . S
H918 C900 0.928 . S
H919 C902 0.932 . S
C920 C921 1.264 . S
C920 C925 1.479 1_565 S
C920 C930 1.465 . S
C921 C920 1.264 . S
C921 C923 1.339 . S
C921 H948 0.931 . S
C922 C923 1.395 . S
C922 C924 1.320 1_565 S
C923 C921 1.339 . S
C923 C922 1.395 . S
C923 H949 0.929 . S
C924 C922 1.320 1_545 S
C924 C925 1.405 . S
C924 H950 0.930 . S
C925 C920 1.479 1_545 S
C925 C924 1.405 . S
C925 H951 0.931 . S
U926 O927 2.495 . S
U926 O928 2.495 . S
U926 C929 3.028 . S
U926 C930 2.830 1_545 S
U926 C943 2.857 1_545 S
U926 O944 2.443 . S
U926 O945 2.388 1_545 S
U926 O946 2.448 1_545 S
U926 O947 2.410 1_545 S
O927 U926 2.495 . S
O927 C929 1.353 . S
O928 U926 2.495 . S
O928 C929 1.286 . S
C929 U926 3.028 . S
C929 O927 1.353 . S
C929 O928 1.286 . S
C929 C931 1.363 . S
C930 C920 1.465 . S
C930 U926 2.830 1_565 S
C930 O944 1.249 1_565 S
C930 O945 1.202 . S
C931 C929 1.363 . S
C931 C933 1.408 . S
C931 C936 1.342 . S
C932 C933 1.310 . S
C932 C935 1.461 . S
C932 H952 0.932 . S
C933 C931 1.408 . S
C933 C932 1.310 . S
C933 H953 0.930 . S
C934 C935 1.474 . S
C934 C936 1.285 . S
C934 H954 0.929 . S
C935 C932 1.461 . S
C935 C934 1.474 . S
C936 C931 1.342 . S
C936 C934 1.285 . S
C936 H955 0.930 . S
C937 C940 1.424 . S
C937 C942 1.245 . S
C937 C943 1.428 . S
C938 C941 1.260 . S
C938 C942 1.477 . S
C938 H956 0.932 . S
C939 C940 1.384 . S
C939 C941 1.479 . S
C939 H957 0.929 . S
C940 C937 1.424 . S
C940 C939 1.384 . S
C940 H958 0.928 . S
C941 C938 1.260 . S
C941 C939 1.479 . S
C942 C937 1.245 . S
C942 C938 1.477 . S
C942 H959 0.932 . S
C943 U926 2.857 1_565 S
C943 C937 1.428 . S
C943 O946 1.301 . S
C943 O947 1.282 . S
O944 U926 2.443 . S
O944 C930 1.249 1_545 S
O945 U926 2.388 1_565 S
O945 C930 1.202 . S
O946 U926 2.448 1_565 S
O946 C943 1.301 . S
O947 U926 2.410 1_565 S
O947 C943 1.282 . S
H948 C921 0.931 . S
H949 C923 0.929 . S
H950 C924 0.930 . S
H951 C925 0.931 . S
H952 C932 0.932 . S
H953 C933 0.930 . S
H954 C934 0.929 . S
H955 C936 0.930 . S
H956 C938 0.932 . S
H957 C939 0.929 . S
H958 C940 0.928 . S
H959 C942 0.932 . S
C960 C961 1.264 . S
C960 C965 1.479 . S
C960 C970 1.465 . S
C961 C960 1.264 . S
C961 C963 1.339 . S
C961 H988 0.931 . S
C962 C963 1.395 . S
C962 C964 1.320 . S
C963 C961 1.339 . S
C963 C962 1.395 . S
C963 H989 0.929 . S
C964 C962 1.320 . S
C964 C965 1.405 . S
C964 H990 0.930 . S
C965 C960 1.479 . S
C965 C964 1.405 . S
C965 H991 0.931 . S
U966 O967 2.454 . S
U966 O968 2.458 . S
U966 C969 2.984 . S
U966 C970 2.847 . S
U966 C983 2.882 . S
U966 O984 2.441 . S
U966 O985 2.420 . S
U966 O986 2.455 . S
U966 O987 2.449 . S
O967 U966 2.454 . S
O967 C969 1.353 . S
O968 U966 2.458 . S
O968 C969 1.286 . S
C969 U966 2.984 . S
C969 O967 1.353 . S
C969 O968 1.286 . S
C969 C971 1.363 1_565 S
C970 C960 1.465 . S
C970 U966 2.847 . S
C970 O984 1.249 . S
C970 O985 1.202 . S
C971 C969 1.363 1_545 S
C971 C973 1.408 . S
C971 C976 1.342 . S
C972 C973 1.310 . S
C972 C975 1.461 . S
C972 H992 0.932 . S
C973 C971 1.408 . S
C973 C972 1.310 . S
C973 H993 0.930 . S
C974 C975 1.474 . S
C974 C976 1.285 . S
C974 H994 0.929 . S
C975 C972 1.461 . S
C975 C974 1.474 . S
C976 C971 1.342 . S
C976 C974 1.285 . S
C976 H995 0.930 . S
C977 C980 1.424 . S
C977 C982 1.245 . S
C977 C983 1.428 . S
C978 C981 1.260 . S
C978 C982 1.477 . S
C978 H996 0.932 . S
C979 C980 1.384 . S
C979 C981 1.479 . S
C979 H997 0.929 . S
C980 C977 1.424 . S
C980 C979 1.384 . S
C980 H998 0.928 . S
C981 C978 1.260 . S
C981 C979 1.479 . S
C982 C977 1.245 . S
C982 C978 1.477 . S
C982 H999 0.932 . S
C983 U966 2.882 . S
C983 C977 1.428 . S
C983 O986 1.301 . S
C983 O987 1.282 . S
O984 U966 2.441 . S
O984 C970 1.249 . S
O985 U966 2.420 . S
O985 C970 1.202 . S
O986 U966 2.455 . S
O986 C983 1.301 . S
O987 U966 2.449 . S
O987 C983 1.282 . S
H988 C961 0.931 . S
H989 C963 0.929 . S
H990 C964 0.930 . S
H991 C965 0.931 . S
H992 C972 0.932 . S
H993 C973 0.930 . S
H994 C974 0.929 . S
H995 C976 0.930 . S
H996 C978 0.932 . S
H997 C979 0.929 . S
H998 C980 0.928 . S
H999 C982 0.932 . S
C1000 C1001 1.264 . S
C1000 C1005 1.479 . S
C1000 C1010 1.465 . S
C1001 C1000 1.264 . S
C1001 C1003 1.339 . S
C1001 H1028 0.931 . S
C1002 C1003 1.395 . S
C1002 C1004 1.320 . S
C1003 C1001 1.339 . S
C1003 C1002 1.395 . S
C1003 H1029 0.929 . S
C1004 C1002 1.320 . S
C1004 C1005 1.405 . S
C1004 H1030 0.930 . S
C1005 C1000 1.479 . S
C1005 C1004 1.405 . S
C1005 H1031 0.931 . S
U1006 O1007 2.454 . S
U1006 O1008 2.458 1_565 S
U1006 C1009 2.986 1_565 S
U1006 C1010 2.847 . S
U1006 C1023 2.882 1_565 S
U1006 O1024 2.441 . S
U1006 O1025 2.420 . S
U1006 O1026 2.455 1_565 S
U1006 O1027 2.449 1_565 S
O1007 U1006 2.454 . S
O1007 C1009 1.358 1_565 S
O1008 U1006 2.458 1_545 S
O1008 C1009 1.283 . S
C1009 U1006 2.986 1_545 S
C1009 O1007 1.358 1_545 S
C1009 O1008 1.283 . S
C1009 C1011 1.362 . S
C1010 C1000 1.465 . S
C1010 U1006 2.847 . S
C1010 O1024 1.249 . S
C1010 O1025 1.202 . S
C1011 C1009 1.362 . S
C1011 C1013 1.408 1_545 S
C1011 C1016 1.342 . S
C1012 C1013 1.310 . S
C1012 C1015 1.461 1_565 S
C1012 H1032 0.932 . S
C1013 C1011 1.408 1_565 S
C1013 C1012 1.310 . S
C1013 H1033 0.930 . S
C1014 C1015 1.474 . S
C1014 C1016 1.285 . S
C1014 H1034 0.929 . S
C1015 C1012 1.461 1_545 S
C1015 C1014 1.474 . S
C1016 C1011 1.342 . S
C1016 C1014 1.285 . S
C1016 H1035 0.930 . S
C1017 C1020 1.424 . S
C1017 C1022 1.245 . S
C1017 C1023 1.428 . S
C1018 C1021 1.260 . S
C1018 C1022 1.477 . S
C1018 H1036 0.932 . S
C1019 C1020 1.384 . S
C1019 C1021 1.479 . S
C1019 H1037 0.929 . S
C1020 C1017 1.424 . S
C1020 C1019 1.384 . S
C1020 H1038 0.928 . S
C1021 C1018 1.260 . S
C1021 C1019 1.479 . S
C1022 C1017 1.245 . S
C1022 C1018 1.477 . S
C1022 H1039 0.932 . S
C1023 U1006 2.882 1_545 S
C1023 C1017 1.428 . S
C1023 O1026 1.301 . S
C1023 O1027 1.282 . S
O1024 U1006 2.441 . S
O1024 C1010 1.249 . S
O1025 U1006 2.420 . S
O1025 C1010 1.202 . S
O1026 U1006 2.455 1_545 S
O1026 C1023 1.301 . S
O1027 U1006 2.449 1_545 S
O1027 C1023 1.282 . S
H1028 C1001 0.931 . S
H1029 C1003 0.929 . S
H1030 C1004 0.930 . S
H1031 C1005 0.931 . S
H1032 C1012 0.932 . S
H1033 C1013 0.930 . S
H1034 C1014 0.929 . S
H1035 C1016 0.930 . S
H1036 C1018 0.932 . S
H1037 C1019 0.929 . S
H1038 C1020 0.928 . S
H1039 C1022 0.932 . S
C1040 C1041 1.264 . S
C1040 C1045 1.479 . S
C1040 C1050 1.465 . S
C1041 C1040 1.264 . S
C1041 C1043 1.339 . S
C1041 H1068 0.931 . S
C1042 C1043 1.395 . S
C1042 C1044 1.320 . S
C1043 C1041 1.339 . S
C1043 C1042 1.395 . S
C1043 H1069 0.929 . S
C1044 C1042 1.320 . S
C1044 C1045 1.405 . S
C1044 H1070 0.930 . S
C1045 C1040 1.479 . S
C1045 C1044 1.405 . S
C1045 H1071 0.931 . S
U1046 O1047 2.472 . S
U1046 O1048 2.421 1_565 S
U1046 C1049 2.973 1_565 S
U1046 C1050 2.907 . S
U1046 C1063 2.832 1_565 S
U1046 O1064 2.505 . S
U1046 O1065 2.466 . S
U1046 O1066 2.392 1_565 S
U1046 O1067 2.423 1_565 S
O1047 U1046 2.472 . S
O1047 C1049 1.353 1_565 S
O1048 U1046 2.421 1_545 S
O1048 C1049 1.286 . S
C1049 U1046 2.973 1_545 S
C1049 O1047 1.353 1_545 S
C1049 O1048 1.286 . S
C1049 C1051 1.363 . S
C1050 C1040 1.465 . S
C1050 U1046 2.907 . S
C1050 O1064 1.249 . S
C1050 O1065 1.202 . S
C1051 C1049 1.363 . S
C1051 C1053 1.408 . S
C1051 C1056 1.342 . S
C1052 C1053 1.310 . S
C1052 C1055 1.461 . S
C1052 H1072 0.932 . S
C1053 C1051 1.408 . S
C1053 C1052 1.310 . S
C1053 H1073 0.930 1_545 S
C1054 C1055 1.474 . S
C1054 C1056 1.285 . S
C1054 H1074 0.929 . S
C1055 C1052 1.461 . S
C1055 C1054 1.474 . S
C1056 C1051 1.342 . S
C1056 C1054 1.285 . S
C1056 H1075 0.930 . S
C1057 C1060 1.424 . S
C1057 C1062 1.245 . S
C1057 C1063 1.428 . S
C1058 C1061 1.260 . S
C1058 C1062 1.477 . S
C1058 H1076 0.932 . S
C1059 C1060 1.384 . S
C1059 C1061 1.479 . S
C1059 H1077 0.929 . S
C1060 C1057 1.424 . S
C1060 C1059 1.384 . S
C1060 H1078 0.928 . S
C1061 C1058 1.260 . S
C1061 C1059 1.479 . S
C1062 C1057 1.245 . S
C1062 C1058 1.477 . S
C1062 H1079 0.932 . S
C1063 U1046 2.832 1_545 S
C1063 C1057 1.428 . S
C1063 O1066 1.301 . S
C1063 O1067 1.282 . S
O1064 U1046 2.505 . S
O1064 C1050 1.249 . S
O1065 U1046 2.466 . S
O1065 C1050 1.202 . S
O1066 U1046 2.392 1_545 S
O1066 C1063 1.301 . S
O1067 U1046 2.423 1_545 S
O1067 C1063 1.282 . S
H1068 C1041 0.931 . S
H1069 C1043 0.929 . S
H1070 C1044 0.930 . S
H1071 C1045 0.931 . S
H1072 C1052 0.932 . S
H1073 C1053 0.930 1_565 S
H1074 C1054 0.929 . S
H1075 C1056 0.930 . S
H1076 C1058 0.932 . S
H1077 C1059 0.929 . S
H1078 C1060 0.928 . S
H1079 C1062 0.932 . S
C1080 C1081 1.264 . S
C1080 C1085 1.479 . S
C1080 C1090 1.465 . S
C1081 C1080 1.264 . S
C1081 C1083 1.339 . S
C1081 H1108 0.931 . S
C1082 C1083 1.395 . S
C1082 C1084 1.320 . S
C1083 C1081 1.339 . S
C1083 C1082 1.395 . S
C1083 H1109 0.929 . S
C1084 C1082 1.320 . S
C1084 C1085 1.405 . S
C1084 H1110 0.930 . S
C1085 C1080 1.479 . S
C1085 C1084 1.405 . S
C1085 H1111 0.931 . S
U1086 O1087 2.454 . S
U1086 O1088 2.458 . S
U1086 C1089 2.984 . S
U1086 C1090 2.847 . S
U1086 C1103 2.882 . S
U1086 O1104 2.441 . S
U1086 O1105 2.420 . S
U1086 O1106 2.455 . S
U1086 O1107 2.449 . S
O1087 U1086 2.454 . S
O1087 C1089 1.353 . S
O1088 U1086 2.458 . S
O1088 C1089 1.286 . S
C1089 U1086 2.984 . S
C1089 O1087 1.353 . S
C1089 O1088 1.286 . S
C1089 C1091 1.363 . S
C1090 C1080 1.465 . S
C1090 U1086 2.847 . S
C1090 O1104 1.249 . S
C1090 O1105 1.202 . S
C1091 C1089 1.363 . S
C1091 C1093 1.408 . S
C1091 C1096 1.342 . S
C1092 C1093 1.310 . S
C1092 C1095 1.461 1_556 S
C1092 H1112 0.932 1_556 S
C1093 C1091 1.408 . S
C1093 C1092 1.310 . S
C1093 H1113 0.930 . S
C1094 C1095 1.474 1_556 S
C1094 C1096 1.285 . S
C1094 H1114 0.929 . S
C1095 C1092 1.461 1_554 S
C1095 C1094 1.474 1_554 S
C1096 C1091 1.342 . S
C1096 C1094 1.285 . S
C1096 H1115 0.930 . S
C1097 C1100 1.424 . S
C1097 C1102 1.245 . S
C1097 C1103 1.428 . S
C1098 C1101 1.260 . S
C1098 C1102 1.477 . S
C1098 H1116 0.932 . S
C1099 C1100 1.384 . S
C1099 C1101 1.479 . S
C1099 H1117 0.929 . S
C1100 C1097 1.424 . S
C1100 C1099 1.384 . S
C1100 H1118 0.928 . S
C1101 C1098 1.260 . S
C1101 C1099 1.479 . S
C1102 C1097 1.245 . S
C1102 C1098 1.477 . S
C1102 H1119 0.932 . S
C1103 U1086 2.882 . S
C1103 C1097 1.428 . S
C1103 O1106 1.301 . S
C1103 O1107 1.282 . S
O1104 U1086 2.441 . S
O1104 C1090 1.249 . S
O1105 U1086 2.420 . S
O1105 C1090 1.202 . S
O1106 U1086 2.455 . S
O1106 C1103 1.301 . S
O1107 U1086 2.449 . S
O1107 C1103 1.282 . S
H1108 C1081 0.931 . S
H1109 C1083 0.929 . S
H1110 C1084 0.930 . S
H1111 C1085 0.931 . S
H1112 C1092 0.932 1_554 S
H1113 C1093 0.930 . S
H1114 C1094 0.929 . S
H1115 C1096 0.930 . S
H1116 C1098 0.932 . S
H1117 C1099 0.929 . S
H1118 C1100 0.928 . S
H1119 C1102 0.932 . S
C1120 C1121 1.264 . S
C1120 C1125 1.479 . S
C1120 C1130 1.465 1_655 S
C1121 C1120 1.264 . S
C1121 C1123 1.339 . S
C1121 H1148 0.889 1_655 S
C1122 C1123 1.395 . S
C1122 C1124 1.320 . S
C1123 C1121 1.339 . S
C1123 C1122 1.395 . S
C1123 H1149 0.929 . S
C1124 C1122 1.320 . S
C1124 C1125 1.405 . S
C1124 H1150 0.930 . S
C1125 C1120 1.479 . S
C1125 C1124 1.405 . S
C1125 H1151 0.931 . S
U1126 O1127 2.454 . S
U1126 O1128 2.458 . S
U1126 C1129 2.984 . S
U1126 C1130 2.847 . S
U1126 C1143 2.882 . S
U1126 O1144 2.441 . S
U1126 O1145 2.420 . S
U1126 O1146 2.455 . S
U1126 O1147 2.449 . S
O1127 U1126 2.454 . S
O1127 C1129 1.353 . S
O1128 U1126 2.458 . S
O1128 C1129 1.286 . S
C1129 U1126 2.984 . S
C1129 O1127 1.353 . S
C1129 O1128 1.286 . S
C1129 C1131 1.363 . S
C1130 C1120 1.465 1_455 S
C1130 U1126 2.847 . S
C1130 O1144 1.249 . S
C1130 O1145 1.202 . S
C1131 C1129 1.363 . S
C1131 C1133 1.408 . S
C1131 C1136 1.342 . S
C1132 C1133 1.310 . S
C1132 C1135 1.461 . S
C1132 H1152 0.932 . S
C1133 C1131 1.408 . S
C1133 C1132 1.310 . S
C1133 H1153 0.930 . S
C1134 C1135 1.474 . S
C1134 C1136 1.285 . S
C1134 H1154 0.929 . S
C1135 C1132 1.461 . S
C1135 C1134 1.474 . S
C1136 C1131 1.342 . S
C1136 C1134 1.285 . S
C1136 H1155 0.930 . S
C1137 C1140 1.424 . S
C1137 C1142 1.245 . S
C1137 C1143 1.428 . S
C1138 C1141 1.260 . S
C1138 C1142 1.477 . S
C1138 H1156 0.932 . S
C1139 C1140 1.384 . S
C1139 C1141 1.479 . S
C1139 H1157 0.929 . S
C1140 C1137 1.424 . S
C1140 C1139 1.384 . S
C1140 H1158 0.928 . S
C1141 C1138 1.260 . S
C1141 C1139 1.479 . S
C1142 C1137 1.245 . S
C1142 C1138 1.477 . S
C1142 H1159 0.932 . S
C1143 U1126 2.882 . S
C1143 C1137 1.428 . S
C1143 O1146 1.301 . S
C1143 O1147 1.282 . S
O1144 U1126 2.441 . S
O1144 C1130 1.249 . S
O1145 U1126 2.420 . S
O1145 C1130 1.202 . S
O1146 U1126 2.455 . S
O1146 C1143 1.301 . S
O1147 U1126 2.449 . S
O1147 C1143 1.282 . S
H1148 C1121 0.889 1_455 S
H1149 C1123 0.929 . S
H1150 C1124 0.930 . S
H1151 C1125 0.931 . S
H1152 C1132 0.932 . S
H1153 C1133 0.930 . S
H1154 C1134 0.929 . S
H1155 C1136 0.930 . S
H1156 C1138 0.932 . S
H1157 C1139 0.929 . S
H1158 C1140 0.928 . S
H1159 C1142 0.932 . S
C1160 C1161 1.264 . S
C1160 C1165 1.479 . S
C1160 C1170 1.465 . S
C1161 C1160 1.264 . S
C1161 C1163 1.339 . S
C1161 H1188 0.931 . S
C1162 C1163 1.395 . S
C1162 C1164 1.320 . S
C1163 C1161 1.339 . S
C1163 C1162 1.395 . S
C1163 H1189 0.929 . S
C1164 C1162 1.320 . S
C1164 C1165 1.405 . S
C1164 H1190 0.930 . S
C1165 C1160 1.479 . S
C1165 C1164 1.405 . S
C1165 H1191 0.931 . S
U1166 O1167 2.454 . S
U1166 O1168 2.458 . S
U1166 C1169 2.984 . S
U1166 C1170 2.847 . S
U1166 C1183 2.882 . S
U1166 O1184 2.441 . S
U1166 O1185 2.420 . S
U1166 O1186 2.455 . S
U1166 O1187 2.449 . S
O1167 U1166 2.454 . S
O1167 C1169 1.353 . S
O1168 U1166 2.458 . S
O1168 C1169 1.286 . S
C1169 U1166 2.984 . S
C1169 O1167 1.353 . S
C1169 O1168 1.286 . S
C1169 C1171 1.363 . S
C1170 C1160 1.465 . S
C1170 U1166 2.847 . S
C1170 O1184 1.249 . S
C1170 O1185 1.202 . S
C1171 C1169 1.363 . S
C1171 C1173 1.408 . S
C1171 C1176 1.342 . S
C1172 C1173 1.310 . S
C1172 C1175 1.461 . S
C1172 H1192 0.932 . S
C1173 C1171 1.408 . S
C1173 C1172 1.310 . S
C1173 H1193 0.930 . S
C1174 C1175 1.474 . S
C1174 C1176 1.285 . S
C1174 H1194 0.929 . S
C1175 C1172 1.461 . S
C1175 C1174 1.474 . S
C1176 C1171 1.342 . S
C1176 C1174 1.285 . S
C1176 H1195 0.930 . S
C1177 C1180 1.424 . S
C1177 C1182 1.245 . S
C1177 C1183 1.428 . S
C1178 C1181 1.260 . S
C1178 C1182 1.477 . S
C1178 H1196 0.932 . S
C1179 C1180 1.384 . S
C1179 C1181 1.479 . S
C1179 H1197 0.929 . S
C1180 C1177 1.424 . S
C1180 C1179 1.384 . S
C1180 H1198 0.928 . S
C1181 C1178 1.260 . S
C1181 C1179 1.479 . S
C1182 C1177 1.245 . S
C1182 C1178 1.477 . S
C1182 H1199 0.932 . S
C1183 U1166 2.882 . S
C1183 C1177 1.428 . S
C1183 O1186 1.301 . S
C1183 O1187 1.282 . S
O1184 U1166 2.441 . S
O1184 C1170 1.249 . S
O1185 U1166 2.420 . S
O1185 C1170 1.202 . S
O1186 U1166 2.455 . S
O1186 C1183 1.301 . S
O1187 U1166 2.449 . S
O1187 C1183 1.282 . S
H1188 C1161 0.931 . S
H1189 C1163 0.929 . S
H1190 C1164 0.930 . S
H1191 C1165 0.931 . S
H1192 C1172 0.932 . S
H1193 C1173 0.930 . S
H1194 C1174 0.929 . S
H1195 C1176 0.930 . S
H1196 C1178 0.932 . S
H1197 C1179 0.929 . S
H1198 C1180 0.928 . S
H1199 C1182 0.932 . S
C1200 C1201 1.264 . S
C1200 C1205 1.479 . S
C1200 C1210 1.465 . S
C1201 C1200 1.264 . S
C1201 C1203 1.339 . S
C1201 H1228 0.931 . S
C1202 C1203 1.395 . S
C1202 C1204 1.320 . S
C1203 C1201 1.339 . S
C1203 C1202 1.395 . S
C1203 H1229 0.929 . S
C1204 C1202 1.320 . S
C1204 C1205 1.405 . S
C1204 H1230 0.930 . S
C1205 C1200 1.479 . S
C1205 C1204 1.405 . S
C1205 H1231 0.931 . S
U1206 O1207 2.454 . S
U1206 O1208 2.458 . S
U1206 C1209 2.984 . S
U1206 C1210 2.847 . S
U1206 C1223 2.882 . S
U1206 O1224 2.441 . S
U1206 O1225 2.420 . S
U1206 O1226 2.455 . S
U1206 O1227 2.449 . S
O1207 U1206 2.454 . S
O1207 C1209 1.353 . S
O1208 U1206 2.458 . S
O1208 C1209 1.286 . S
C1209 U1206 2.984 . S
C1209 O1207 1.353 . S
C1209 O1208 1.286 . S
C1209 C1211 1.363 . S
C1210 C1200 1.465 . S
C1210 U1206 2.847 . S
C1210 O1224 1.249 . S
C1210 O1225 1.202 . S
C1211 C1209 1.363 . S
C1211 C1213 1.408 . S
C1211 C1216 1.342 . S
C1212 C1213 1.310 . S
C1212 C1215 1.461 . S
C1212 H1232 0.932 . S
C1213 C1211 1.408 . S
C1213 C1212 1.310 . S
C1213 H1233 0.930 . S
C1214 C1215 1.474 . S
C1214 C1216 1.285 . S
C1214 H1234 0.929 . S
C1215 C1212 1.461 . S
C1215 C1214 1.474 . S
C1216 C1211 1.342 . S
C1216 C1214 1.285 . S
C1216 H1235 0.930 . S
C1217 C1220 1.424 . S
C1217 C1222 1.245 . S
C1217 C1223 1.428 . S
C1218 C1221 1.260 . S
C1218 C1222 1.477 . S
C1218 H1236 0.932 . S
C1219 C1220 1.384 . S
C1219 C1221 1.479 . S
C1219 H1237 0.929 . S
C1220 C1217 1.424 . S
C1220 C1219 1.384 . S
C1220 H1238 0.928 . S
C1221 C1218 1.260 . S
C1221 C1219 1.479 . S
C1222 C1217 1.245 . S
C1222 C1218 1.477 . S
C1222 H1239 0.932 . S
C1223 U1206 2.882 . S
C1223 C1217 1.428 . S
C1223 O1226 1.301 . S
C1223 O1227 1.282 . S
O1224 U1206 2.441 . S
O1224 C1210 1.249 . S
O1225 U1206 2.420 . S
O1225 C1210 1.202 . S
O1226 U1206 2.455 . S
O1226 C1223 1.301 . S
O1227 U1206 2.449 . S
O1227 C1223 1.282 . S
H1228 C1201 0.931 . S
H1229 C1203 0.929 . S
H1230 C1204 0.930 . S
H1231 C1205 0.931 . S
H1232 C1212 0.932 . S
H1233 C1213 0.930 . S
H1234 C1214 0.929 . S
H1235 C1216 0.930 . S
H1236 C1218 0.932 . S
H1237 C1219 0.929 . S
H1238 C1220 0.928 . S
H1239 C1222 0.932 . S
C1240 C1241 1.264 . S
C1240 C1245 1.479 . S
C1240 C1250 1.465 . S
C1241 C1240 1.264 . S
C1241 C1243 1.339 . S
C1241 H1268 0.931 . S
C1242 C1243 1.395 . S
C1242 C1244 1.320 . S
C1243 C1241 1.339 . S
C1243 C1242 1.395 . S
C1243 H1269 0.929 . S
C1244 C1242 1.320 . S
C1244 C1245 1.405 . S
C1244 H1270 0.930 . S
C1245 C1240 1.479 . S
C1245 C1244 1.405 . S
C1245 H1271 0.931 . S
U1246 O1247 2.454 . S
U1246 O1248 2.458 . S
U1246 C1249 2.984 . S
U1246 C1250 2.847 . S
U1246 C1263 2.882 . S
U1246 O1264 2.441 . S
U1246 O1265 2.420 . S
U1246 O1266 2.455 . S
U1246 O1267 2.449 . S
O1247 U1246 2.454 . S
O1247 C1249 1.353 . S
O1248 U1246 2.458 . S
O1248 C1249 1.286 . S
C1249 U1246 2.984 . S
C1249 O1247 1.353 . S
C1249 O1248 1.286 . S
C1249 C1251 1.363 . S
C1250 C1240 1.465 . S
C1250 U1246 2.847 . S
C1250 O1264 1.249 . S
C1250 O1265 1.202 . S
C1251 C1249 1.363 . S
C1251 C1253 1.408 . S
C1251 C1256 1.342 . S
C1252 C1253 1.310 . S
C1252 C1255 1.461 . S
C1252 H1272 0.932 . S
C1253 C1251 1.408 . S
C1253 C1252 1.310 . S
C1253 H1273 0.930 . S
C1254 C1255 1.474 . S
C1254 C1256 1.285 . S
C1254 H1274 0.929 . S
C1255 C1252 1.461 . S
C1255 C1254 1.474 . S
C1256 C1251 1.342 . S
C1256 C1254 1.285 . S
C1256 H1275 0.930 . S
C1257 C1260 1.424 . S
C1257 C1262 1.245 . S
C1257 C1263 1.428 . S
C1258 C1261 1.260 . S
C1258 C1262 1.477 . S
C1258 H1276 0.932 . S
C1259 C1260 1.384 . S
C1259 C1261 1.479 . S
C1259 H1277 0.929 . S
C1260 C1257 1.424 . S
C1260 C1259 1.384 . S
C1260 H1278 0.928 . S
C1261 C1258 1.260 . S
C1261 C1259 1.479 . S
C1262 C1257 1.245 . S
C1262 C1258 1.477 . S
C1262 H1279 0.932 . S
C1263 U1246 2.882 . S
C1263 C1257 1.428 . S
C1263 O1266 1.301 . S
C1263 O1267 1.282 . S
O1264 U1246 2.441 . S
O1264 C1250 1.249 . S
O1265 U1246 2.420 . S
O1265 C1250 1.202 . S
O1266 U1246 2.455 . S
O1266 C1263 1.301 . S
O1267 U1246 2.449 . S
O1267 C1263 1.282 . S
H1268 C1241 0.931 . S
H1269 C1243 0.929 . S
H1270 C1244 0.930 . S
H1271 C1245 0.931 . S
H1272 C1252 0.932 . S
H1273 C1253 0.930 . S
H1274 C1254 0.929 . S
H1275 C1256 0.930 . S
H1276 C1258 0.932 . S
H1277 C1259 0.929 . S
H1278 C1260 0.928 . S
H1279 C1262 0.932 . S
C1280 C1281 1.264 . S
C1280 C1285 1.479 . S
C1280 C1290 1.465 . S
C1281 C1280 1.264 . S
C1281 C1283 1.339 . S
C1281 H1308 0.931 . S
C1282 C1283 1.395 . S
C1282 C1284 1.320 . S
C1283 C1281 1.339 . S
C1283 C1282 1.395 . S
C1283 H1309 0.929 . S
C1284 C1282 1.320 . S
C1284 C1285 1.405 . S
C1284 H1310 0.930 . S
C1285 C1280 1.479 . S
C1285 C1284 1.405 . S
C1285 H1311 0.931 . S
U1286 O1287 2.454 . S
U1286 O1288 2.458 . S
U1286 C1289 2.984 . S
U1286 C1290 2.847 . S
U1286 C1303 2.882 . S
U1286 O1304 2.441 . S
U1286 O1305 2.420 . S
U1286 O1306 2.455 . S
U1286 O1307 2.449 . S
O1287 U1286 2.454 . S
O1287 C1289 1.353 . S
O1288 U1286 2.458 . S
O1288 C1289 1.286 . S
C1289 U1286 2.984 . S
C1289 O1287 1.353 . S
C1289 O1288 1.286 . S
C1289 C1291 1.363 . S
C1290 C1280 1.465 . S
C1290 U1286 2.847 . S
C1290 O1304 1.249 . S
C1290 O1305 1.202 . S
C1291 C1289 1.363 . S
C1291 C1293 1.408 . S
C1291 C1296 1.342 . S
C1292 C1293 1.310 . S
C1292 C1295 1.461 . S
C1292 H1312 0.932 . S
C1293 C1291 1.408 . S
C1293 C1292 1.310 . S
C1293 H1313 0.930 . S
C1294 C1295 1.474 . S
C1294 C1296 1.285 . S
C1294 H1314 0.929 . S
C1295 C1292 1.461 . S
C1295 C1294 1.474 . S
C1296 C1291 1.342 . S
C1296 C1294 1.285 . S
C1296 H1315 0.930 . S
C1297 C1300 1.424 . S
C1297 C1302 1.245 . S
C1297 C1303 1.428 . S
C1298 C1301 1.260 . S
C1298 C1302 1.477 . S
C1298 H1316 0.932 . S
C1299 C1300 1.384 . S
C1299 C1301 1.479 . S
C1299 H1317 0.929 . S
C1300 C1297 1.424 . S
C1300 C1299 1.384 . S
C1300 H1318 0.928 . S
C1301 C1298 1.260 . S
C1301 C1299 1.479 . S
C1302 C1297 1.245 . S
C1302 C1298 1.477 . S
C1302 H1319 0.932 . S
C1303 U1286 2.882 . S
C1303 C1297 1.428 . S
C1303 O1306 1.301 . S
C1303 O1307 1.282 . S
O1304 U1286 2.441 . S
O1304 C1290 1.249 . S
O1305 U1286 2.420 . S
O1305 C1290 1.202 . S
O1306 U1286 2.455 . S
O1306 C1303 1.301 . S
O1307 U1286 2.449 . S
O1307 C1303 1.282 . S
H1308 C1281 0.931 . S
H1309 C1283 0.929 . S
H1310 C1284 0.930 . S
H1311 C1285 0.931 . S
H1312 C1292 0.932 . S
H1313 C1293 0.930 . S
H1314 C1294 0.929 . S
H1315 C1296 0.930 . S
H1316 C1298 0.932 . S
H1317 C1299 0.929 . S
H1318 C1300 0.928 . S
H1319 C1302 0.932 . S
C1320 C1321 1.264 . S
C1320 C1325 1.479 . S
C1320 C1330 1.465 . S
C1321 C1320 1.264 . S
C1321 C1323 1.339 . S
C1321 H1348 0.931 . S
C1322 C1323 1.395 . S
C1322 C1324 1.320 . S
C1323 C1321 1.339 . S
C1323 C1322 1.395 . S
C1323 H1349 0.929 . S
C1324 C1322 1.320 . S
C1324 C1325 1.405 . S
C1324 H1350 0.930 . S
C1325 C1320 1.479 . S
C1325 C1324 1.405 . S
C1325 H1351 0.931 . S
U1326 O1327 2.454 . S
U1326 O1328 2.458 . S
U1326 C1329 2.984 . S
U1326 C1330 2.847 . S
U1326 C1343 2.882 . S
U1326 O1344 2.441 . S
U1326 O1345 2.420 . S
U1326 O1346 2.455 . S
U1326 O1347 2.449 . S
O1327 U1326 2.454 . S
O1327 C1329 1.353 . S
O1328 U1326 2.458 . S
O1328 C1329 1.286 . S
C1329 U1326 2.984 . S
C1329 O1327 1.353 . S
C1329 O1328 1.286 . S
C1329 C1331 1.363 . S
C1330 C1320 1.465 . S
C1330 U1326 2.847 . S
C1330 O1344 1.249 . S
C1330 O1345 1.202 . S
C1331 C1329 1.363 . S
C1331 C1333 1.408 . S
C1331 C1336 1.342 . S
C1332 C1333 1.310 1_554 S
C1332 C1335 1.461 . S
C1332 H1352 0.932 . S
C1333 C1331 1.408 . S
C1333 C1332 1.310 1_556 S
C1333 H1353 0.930 . S
C1334 C1335 1.474 1_556 S
C1334 C1336 1.285 . S
C1334 H1354 0.929 . S
C1335 C1332 1.461 . S
C1335 C1334 1.474 1_554 S
C1336 C1331 1.342 . S
C1336 C1334 1.285 . S
C1336 H1355 0.930 . S
C1337 C1340 1.424 . S
C1337 C1342 1.245 . S
C1337 C1343 1.428 . S
C1338 C1341 1.260 . S
C1338 C1342 1.477 . S
C1338 H1356 0.932 . S
C1339 C1340 1.384 . S
C1339 C1341 1.479 . S
C1339 H1357 0.929 . S
C1340 C1337 1.424 . S
C1340 C1339 1.384 . S
C1340 H1358 0.928 . S
C1341 C1338 1.260 . S
C1341 C1339 1.479 . S
C1342 C1337 1.245 . S
C1342 C1338 1.477 . S
C1342 H1359 0.932 . S
C1343 U1326 2.882 . S
C1343 C1337 1.428 . S
C1343 O1346 1.301 . S
C1343 O1347 1.282 . S
O1344 U1326 2.441 . S
O1344 C1330 1.249 . S
O1345 U1326 2.420 . S
O1345 C1330 1.202 . S
O1346 U1326 2.455 . S
O1346 C1343 1.301 . S
O1347 U1326 2.449 . S
O1347 C1343 1.282 . S
H1348 C1321 0.931 . S
H1349 C1323 0.929 . S
H1350 C1324 0.930 . S
H1351 C1325 0.931 . S
H1352 C1332 0.932 . S
H1353 C1333 0.930 . S
H1354 C1334 0.929 . S
H1355 C1336 0.930 . S
H1356 C1338 0.932 . S
H1357 C1339 0.929 . S
H1358 C1340 0.928 . S
H1359 C1342 0.932 . S
C1360 C1361 1.264 . S
C1360 C1365 1.479 . S
C1360 C1370 1.465 . S
C1361 C1360 1.264 . S
C1361 C1363 1.339 . S
C1361 H1388 0.931 . S
C1362 C1363 1.395 . S
C1362 C1364 1.320 . S
C1363 C1361 1.339 . S
C1363 C1362 1.395 . S
C1363 H1389 0.929 . S
C1364 C1362 1.320 . S
C1364 C1365 1.405 . S
C1364 H1390 0.930 . S
C1365 C1360 1.479 . S
C1365 C1364 1.405 . S
C1365 H1391 0.931 . S
U1366 O1367 2.454 . S
U1366 O1368 2.458 . S
U1366 C1369 2.984 . S
U1366 C1370 2.847 . S
U1366 C1383 2.882 . S
U1366 O1384 2.441 . S
U1366 O1385 2.420 . S
U1366 O1386 2.455 . S
U1366 O1387 2.449 . S
O1367 U1366 2.454 . S
O1367 C1369 1.353 . S
O1368 U1366 2.458 . S
O1368 C1369 1.286 . S
C1369 U1366 2.984 . S
C1369 O1367 1.353 . S
C1369 O1368 1.286 . S
C1369 C1371 1.363 . S
C1370 C1360 1.465 . S
C1370 U1366 2.847 . S
C1370 O1384 1.249 . S
C1370 O1385 1.202 . S
C1371 C1369 1.363 . S
C1371 C1373 1.408 . S
C1371 C1376 1.342 . S
C1372 C1373 1.310 . S
C1372 C1375 1.461 . S
C1372 H1392 0.932 . S
C1373 C1371 1.408 . S
C1373 C1372 1.310 . S
C1373 H1393 0.930 . S
C1374 C1375 1.474 . S
C1374 C1376 1.285 . S
C1374 H1394 0.929 . S
C1375 C1372 1.461 . S
C1375 C1374 1.474 . S
C1376 C1371 1.342 . S
C1376 C1374 1.285 . S
C1376 H1395 0.930 . S
C1377 C1380 1.424 . S
C1377 C1382 1.245 . S
C1377 C1383 1.428 . S
C1378 C1381 1.260 . S
C1378 C1382 1.477 . S
C1378 H1396 0.932 . S
C1379 C1380 1.384 . S
C1379 C1381 1.479 . S
C1379 H1397 0.929 . S
C1380 C1377 1.424 . S
C1380 C1379 1.384 . S
C1380 H1398 0.928 . S
C1381 C1378 1.260 . S
C1381 C1379 1.479 . S
C1382 C1377 1.245 . S
C1382 C1378 1.477 . S
C1382 H1399 0.932 . S
C1383 U1366 2.882 . S
C1383 C1377 1.428 . S
C1383 O1386 1.301 . S
C1383 O1387 1.282 . S
O1384 U1366 2.441 . S
O1384 C1370 1.249 . S
O1385 U1366 2.420 . S
O1385 C1370 1.202 . S
O1386 U1366 2.455 . S
O1386 C1383 1.301 . S
O1387 U1366 2.449 . S
O1387 C1383 1.282 . S
H1388 C1361 0.931 . S
H1389 C1363 0.929 . S
H1390 C1364 0.930 . S
H1391 C1365 0.931 . S
H1392 C1372 0.932 . S
H1393 C1373 0.930 . S
H1394 C1374 0.929 . S
H1395 C1376 0.930 . S
H1396 C1378 0.932 . S
H1397 C1379 0.929 . S
H1398 C1380 0.928 . S
H1399 C1382 0.932 . S
C1400 C1401 1.264 . S
C1400 C1405 1.479 . S
C1400 C1410 1.465 . S
C1401 C1400 1.264 . S
C1401 C1403 1.339 . S
C1401 H1428 0.931 . S
C1402 C1403 1.395 . S
C1402 C1404 1.320 . S
C1403 C1401 1.339 . S
C1403 C1402 1.395 . S
C1403 H1429 0.929 . S
C1404 C1402 1.320 . S
C1404 C1405 1.405 . S
C1404 H1430 0.930 . S
C1405 C1400 1.479 . S
C1405 C1404 1.405 . S
C1405 H1431 0.931 . S
U1406 O1407 2.454 . S
U1406 O1408 2.458 . S
U1406 C1409 2.984 . S
U1406 C1410 2.847 . S
U1406 C1423 2.882 . S
U1406 O1424 2.441 . S
U1406 O1425 2.420 . S
U1406 O1426 2.455 . S
U1406 O1427 2.449 . S
O1407 U1406 2.454 . S
O1407 C1409 1.353 . S
O1408 U1406 2.458 . S
O1408 C1409 1.286 . S
C1409 U1406 2.984 . S
C1409 O1407 1.353 . S
C1409 O1408 1.286 . S
C1409 C1411 1.363 . S
C1410 C1400 1.465 . S
C1410 U1406 2.847 . S
C1410 O1424 1.249 . S
C1410 O1425 1.202 . S
C1411 C1409 1.363 . S
C1411 C1413 1.408 . S
C1411 C1416 1.342 . S
C1412 C1413 1.310 . S
C1412 C1415 1.461 . S
C1412 H1432 0.932 . S
C1413 C1411 1.408 . S
C1413 C1412 1.310 . S
C1413 H1433 0.930 . S
C1414 C1415 1.474 . S
C1414 C1416 1.285 . S
C1414 H1434 0.929 . S
C1415 C1412 1.461 . S
C1415 C1414 1.474 . S
C1416 C1411 1.342 . S
C1416 C1414 1.285 . S
C1416 H1435 0.930 . S
C1417 C1420 1.424 . S
C1417 C1422 1.245 . S
C1417 C1423 1.428 . S
C1418 C1421 1.260 . S
C1418 C1422 1.477 . S
C1418 H1436 0.932 . S
C1419 C1420 1.384 . S
C1419 C1421 1.479 . S
C1419 H1437 0.929 . S
C1420 C1417 1.424 . S
C1420 C1419 1.384 . S
C1420 H1438 0.928 . S
C1421 C1418 1.260 . S
C1421 C1419 1.479 . S
C1422 C1417 1.245 . S
C1422 C1418 1.477 . S
C1422 H1439 0.932 . S
C1423 U1406 2.882 . S
C1423 C1417 1.428 . S
C1423 O1426 1.301 . S
C1423 O1427 1.282 . S
O1424 U1406 2.441 . S
O1424 C1410 1.249 . S
O1425 U1406 2.420 . S
O1425 C1410 1.202 . S
O1426 U1406 2.455 . S
O1426 C1423 1.301 . S
O1427 U1406 2.449 . S
O1427 C1423 1.282 . S
H1428 C1401 0.931 . S
H1429 C1403 0.929 . S
H1430 C1404 0.930 . S
H1431 C1405 0.931 . S
H1432 C1412 0.932 . S
H1433 C1413 0.930 . S
H1434 C1414 0.929 . S
H1435 C1416 0.930 . S
H1436 C1418 0.932 . S
H1437 C1419 0.929 . S
H1438 C1420 0.928 . S
H1439 C1422 0.932 . S
C1440 C1441 1.264 . S
C1440 C1445 1.479 . S
C1440 C1450 1.465 . S
C1441 C1440 1.264 . S
C1441 C1443 1.339 . S
C1441 H1468 0.931 . S
C1442 C1443 1.395 . S
C1442 C1444 1.320 . S
C1443 C1441 1.339 . S
C1443 C1442 1.395 . S
C1443 H1469 0.929 . S
C1444 C1442 1.320 . S
C1444 C1445 1.405 . S
C1444 H1470 0.930 . S
C1445 C1440 1.479 . S
C1445 C1444 1.405 . S
C1445 H1471 0.931 . S
U1446 O1447 2.454 . S
U1446 O1448 2.458 . S
U1446 C1449 2.984 . S
U1446 C1450 2.847 . S
U1446 C1463 2.882 . S
U1446 O1464 2.441 . S
U1446 O1465 2.420 . S
U1446 O1466 2.455 . S
U1446 O1467 2.449 . S
O1447 U1446 2.454 . S
O1447 C1449 1.353 . S
O1448 U1446 2.458 . S
O1448 C1449 1.286 . S
C1449 U1446 2.984 . S
C1449 O1447 1.353 . S
C1449 O1448 1.286 . S
C1449 C1451 1.363 . S
C1450 C1440 1.465 . S
C1450 U1446 2.847 . S
C1450 O1464 1.249 . S
C1450 O1465 1.202 . S
C1451 C1449 1.363 . S
C1451 C1453 1.408 . S
C1451 C1456 1.342 . S
C1452 C1453 1.310 . S
C1452 C1455 1.461 . S
C1452 H1472 0.932 . S
C1453 C1451 1.408 . S
C1453 C1452 1.310 . S
C1453 H1473 0.930 . S
C1454 C1455 1.474 . S
C1454 C1456 1.285 . S
C1454 H1474 0.929 . S
C1455 C1452 1.461 . S
C1455 C1454 1.474 . S
C1456 C1451 1.342 . S
C1456 C1454 1.285 . S
C1456 H1475 0.930 . S
C1457 C1460 1.424 . S
C1457 C1462 1.245 . S
C1457 C1463 1.428 . S
C1458 C1461 1.260 . S
C1458 C1462 1.477 . S
C1458 H1476 0.932 . S
C1459 C1460 1.384 . S
C1459 C1461 1.479 . S
C1459 H1477 0.929 . S
C1460 C1457 1.424 . S
C1460 C1459 1.384 . S
C1460 H1478 0.928 . S
C1461 C1458 1.260 . S
C1461 C1459 1.479 . S
C1462 C1457 1.245 . S
C1462 C1458 1.477 . S
C1462 H1479 0.932 . S
C1463 U1446 2.882 . S
C1463 C1457 1.428 . S
C1463 O1466 1.301 . S
C1463 O1467 1.282 . S
O1464 U1446 2.441 . S
O1464 C1450 1.249 . S
O1465 U1446 2.420 . S
O1465 C1450 1.202 . S
O1466 U1446 2.455 . S
O1466 C1463 1.301 . S
O1467 U1446 2.449 . S
O1467 C1463 1.282 . S
H1468 C1441 0.931 . S
H1469 C1443 0.929 . S
H1470 C1444 0.930 . S
H1471 C1445 0.931 . S
H1472 C1452 0.932 . S
H1473 C1453 0.930 . S
H1474 C1454 0.929 . S
H1475 C1456 0.930 . S
H1476 C1458 0.932 . S
H1477 C1459 0.929 . S
H1478 C1460 0.928 . S
H1479 C1462 0.932 . S
C1480 C1481 1.264 . S
C1480 C1485 1.479 . S
C1480 C1490 1.465 . S
C1481 C1480 1.264 . S
C1481 C1483 1.339 . S
C1481 H1508 0.931 . S
C1482 C1483 1.395 . S
C1482 C1484 1.320 . S
C1483 C1481 1.339 . S
C1483 C1482 1.395 . S
C1483 H1509 0.929 . S
C1484 C1482 1.320 . S
C1484 C1485 1.405 . S
C1484 H1510 0.930 . S
C1485 C1480 1.479 . S
C1485 C1484 1.405 . S
C1485 H1511 0.931 . S
U1486 O1487 2.454 . S
U1486 O1488 2.458 . S
U1486 C1489 2.984 . S
U1486 C1490 2.847 . S
U1486 C1503 2.882 . S
U1486 O1504 2.441 . S
U1486 O1505 2.420 . S
U1486 O1506 2.455 . S
U1486 O1507 2.449 . S
O1487 U1486 2.454 . S
O1487 C1489 1.353 . S
O1488 U1486 2.458 . S
O1488 C1489 1.286 . S
C1489 U1486 2.984 . S
C1489 O1487 1.353 . S
C1489 O1488 1.286 . S
C1489 C1491 1.363 . S
C1490 C1480 1.465 . S
C1490 U1486 2.847 . S
C1490 O1504 1.249 . S
C1490 O1505 1.202 . S
C1491 C1489 1.363 . S
C1491 C1493 1.408 . S
C1491 C1496 1.342 . S
C1492 C1493 1.310 . S
C1492 C1495 1.461 . S
C1492 H1512 0.932 . S
C1493 C1491 1.408 . S
C1493 C1492 1.310 . S
C1493 H1513 0.930 . S
C1494 C1495 1.474 . S
C1494 C1496 1.285 . S
C1494 H1514 0.929 . S
C1495 C1492 1.461 . S
C1495 C1494 1.474 . S
C1496 C1491 1.342 . S
C1496 C1494 1.285 . S
C1496 H1515 0.930 . S
C1497 C1500 1.424 . S
C1497 C1502 1.245 . S
C1497 C1503 1.428 . S
C1498 C1501 1.260 . S
C1498 C1502 1.477 . S
C1498 H1516 0.932 . S
C1499 C1500 1.384 . S
C1499 C1501 1.479 . S
C1499 H1517 0.929 . S
C1500 C1497 1.424 . S
C1500 C1499 1.384 . S
C1500 H1518 0.928 . S
C1501 C1498 1.260 . S
C1501 C1499 1.479 . S
C1502 C1497 1.245 . S
C1502 C1498 1.477 . S
C1502 H1519 0.932 . S
C1503 U1486 2.882 . S
C1503 C1497 1.428 . S
C1503 O1506 1.301 . S
C1503 O1507 1.282 . S
O1504 U1486 2.441 . S
O1504 C1490 1.249 . S
O1505 U1486 2.420 . S
O1505 C1490 1.202 . S
O1506 U1486 2.455 . S
O1506 C1503 1.301 . S
O1507 U1486 2.449 . S
O1507 C1503 1.282 . S
H1508 C1481 0.931 . S
H1509 C1483 0.929 . S
H1510 C1484 0.930 . S
H1511 C1485 0.931 . S
H1512 C1492 0.932 . S
H1513 C1493 0.930 . S
H1514 C1494 0.929 . S
H1515 C1496 0.930 . S
H1516 C1498 0.932 . S
H1517 C1499 0.929 . S
H1518 C1500 0.928 . S
H1519 C1502 0.932 . S
C1520 C1521 1.264 . S
C1520 C1525 1.479 . S
C1520 C1530 1.465 . S
C1521 C1520 1.264 . S
C1521 C1523 1.339 . S
C1521 H1548 0.931 . S
C1522 C1523 1.395 . S
C1522 C1524 1.320 . S
C1523 C1521 1.339 . S
C1523 C1522 1.395 . S
C1523 H1549 0.929 . S
C1524 C1522 1.320 . S
C1524 C1525 1.405 . S
C1524 H1550 0.930 . S
C1525 C1520 1.479 . S
C1525 C1524 1.405 . S
C1525 H1551 0.931 . S
U1526 O1527 2.454 . S
U1526 O1528 2.458 . S
U1526 C1529 2.984 . S
U1526 C1530 2.847 . S
U1526 C1543 2.882 . S
U1526 O1544 2.441 . S
U1526 O1545 2.420 . S
U1526 O1546 2.455 . S
U1526 O1547 2.449 . S
O1527 U1526 2.454 . S
O1527 C1529 1.353 . S
O1528 U1526 2.458 . S
O1528 C1529 1.286 . S
C1529 U1526 2.984 . S
C1529 O1527 1.353 . S
C1529 O1528 1.286 . S
C1529 C1531 1.363 . S
C1530 C1520 1.465 . S
C1530 U1526 2.847 . S
C1530 O1544 1.249 . S
C1530 O1545 1.202 . S
C1531 C1529 1.363 . S
C1531 C1533 1.408 . S
C1531 C1536 1.342 . S
C1532 C1533 1.310 . S
C1532 C1535 1.461 . S
C1532 H1552 0.932 . S
C1533 C1531 1.408 . S
C1533 C1532 1.310 . S
C1533 H1553 0.930 . S
C1534 C1535 1.474 . S
C1534 C1536 1.285 . S
C1534 H1554 0.929 . S
C1535 C1532 1.461 . S
C1535 C1534 1.474 . S
C1536 C1531 1.342 . S
C1536 C1534 1.285 . S
C1536 H1555 0.930 . S
C1537 C1540 1.424 . S
C1537 C1542 1.245 . S
C1537 C1543 1.428 . S
C1538 C1541 1.260 . S
C1538 C1542 1.477 . S
C1538 H1556 0.932 . S
C1539 C1540 1.384 . S
C1539 C1541 1.479 . S
C1539 H1557 0.929 . S
C1540 C1537 1.424 . S
C1540 C1539 1.384 . S
C1540 H1558 0.928 . S
C1541 C1538 1.260 . S
C1541 C1539 1.479 . S
C1542 C1537 1.245 . S
C1542 C1538 1.477 . S
C1542 H1559 0.932 . S
C1543 U1526 2.882 . S
C1543 C1537 1.428 . S
C1543 O1546 1.301 . S
C1543 O1547 1.282 . S
O1544 U1526 2.441 . S
O1544 C1530 1.249 . S
O1545 U1526 2.420 . S
O1545 C1530 1.202 . S
O1546 U1526 2.455 . S
O1546 C1543 1.301 . S
O1547 U1526 2.449 . S
O1547 C1543 1.282 . S
H1548 C1521 0.931 . S
H1549 C1523 0.929 . S
H1550 C1524 0.930 . S
H1551 C1525 0.931 . S
H1552 C1532 0.932 . S
H1553 C1533 0.930 . S
H1554 C1534 0.929 . S
H1555 C1536 0.930 . S
H1556 C1538 0.932 . S
H1557 C1539 0.929 . S
H1558 C1540 0.928 . S
H1559 C1542 0.932 . S
C1560 C1561 1.264 . S
C1560 C1565 1.479 . S
C1560 C1570 1.465 . S
C1561 C1560 1.264 . S
C1561 C1563 1.339 . S
C1561 H1588 0.931 . S
C1562 C1563 1.395 . S
C1562 C1564 1.320 . S
C1563 C1561 1.339 . S
C1563 C1562 1.395 . S
C1563 H1589 0.929 . S
C1564 C1562 1.320 . S
C1564 C1565 1.405 . S
C1564 H1590 0.930 . S
C1565 C1560 1.479 . S
C1565 C1564 1.405 . S
C1565 H1591 0.931 . S
U1566 O1567 2.454 . S
U1566 O1568 2.458 . S
U1566 C1569 2.984 . S
U1566 C1570 2.847 . S
U1566 C1583 2.882 . S
U1566 O1584 2.441 . S
U1566 O1585 2.420 . S
U1566 O1586 2.455 . S
U1566 O1587 2.449 . S
O1567 U1566 2.454 . S
O1567 C1569 1.353 . S
O1568 U1566 2.458 . S
O1568 C1569 1.286 . S
C1569 U1566 2.984 . S
C1569 O1567 1.353 . S
C1569 O1568 1.286 . S
C1569 C1571 1.363 . S
C1570 C1560 1.465 . S
C1570 U1566 2.847 . S
C1570 O1584 1.249 . S
C1570 O1585 1.202 . S
C1571 C1569 1.363 . S
C1571 C1573 1.408 . S
C1571 C1576 1.342 . S
C1572 C1573 1.310 . S
C1572 C1575 1.461 . S
C1572 H1592 0.932 . S
C1573 C1571 1.408 . S
C1573 C1572 1.310 . S
C1573 H1593 0.930 . S
C1574 C1575 1.474 . S
C1574 C1576 1.285 . S
C1574 H1594 0.929 . S
C1575 C1572 1.461 . S
C1575 C1574 1.474 . S
C1576 C1571 1.342 . S
C1576 C1574 1.285 . S
C1576 H1595 0.930 . S
C1577 C1580 1.424 . S
C1577 C1582 1.245 . S
C1577 C1583 1.428 . S
C1578 C1581 1.260 . S
C1578 C1582 1.477 . S
C1578 H1596 0.932 . S
C1579 C1580 1.384 . S
C1579 C1581 1.479 . S
C1579 H1597 0.929 . S
C1580 C1577 1.424 . S
C1580 C1579 1.384 . S
C1580 H1598 0.928 . S
C1581 C1578 1.260 . S
C1581 C1579 1.479 . S
C1582 C1577 1.245 . S
C1582 C1578 1.477 . S
C1582 H1599 0.932 . S
C1583 U1566 2.882 . S
C1583 C1577 1.428 . S
C1583 O1586 1.301 . S
C1583 O1587 1.282 . S
O1584 U1566 2.441 . S
O1584 C1570 1.249 . S
O1585 U1566 2.420 . S
O1585 C1570 1.202 . S
O1586 U1566 2.455 . S
O1586 C1583 1.301 . S
O1587 U1566 2.449 . S
O1587 C1583 1.282 . S
H1588 C1561 0.931 . S
H1589 C1563 0.929 . S
H1590 C1564 0.930 . S
H1591 C1565 0.931 . S
H1592 C1572 0.932 . S
H1593 C1573 0.930 . S
H1594 C1574 0.929 . S
H1595 C1576 0.930 . S
H1596 C1578 0.932 . S
H1597 C1579 0.929 . S
H1598 C1580 0.928 . S
H1599 C1582 0.932 . S
C1600 C1601 1.264 1_455 S
C1600 C1605 1.479 1_455 S
C1600 C1610 1.465 . S
C1601 C1600 1.264 1_655 S
C1601 C1603 1.339 . S
C1601 H1628 0.931 1_655 S
C1602 C1603 1.395 . S
C1602 C1604 1.320 . S
C1603 C1601 1.339 . S
C1603 C1602 1.395 . S
C1603 H1629 0.929 . S
C1604 C1602 1.320 . S
C1604 C1605 1.405 . S
C1604 H1630 0.930 . S
C1605 C1600 1.479 1_655 S
C1605 C1604 1.405 . S
C1605 H1631 0.931 . S
U1606 O1607 2.454 . S
U1606 O1608 2.458 . S
U1606 C1609 2.984 . S
U1606 C1610 2.847 . S
U1606 C1623 2.882 . S
U1606 O1624 2.441 . S
U1606 O1625 2.420 . S
U1606 O1626 2.455 . S
U1606 O1627 2.449 . S
O1607 U1606 2.454 . S
O1607 C1609 1.353 . S
O1608 U1606 2.458 . S
O1608 C1609 1.286 . S
C1609 U1606 2.984 . S
C1609 O1607 1.353 . S
C1609 O1608 1.286 . S
C1609 C1611 1.363 . S
C1610 C1600 1.465 . S
C1610 U1606 2.847 . S
C1610 O1624 1.249 . S
C1610 O1625 1.202 . S
C1611 C1609 1.363 . S
C1611 C1613 1.408 . S
C1611 C1616 1.342 . S
C1612 C1613 1.310 . S
C1612 C1615 1.461 . S
C1612 H1632 0.932 . S
C1613 C1611 1.408 . S
C1613 C1612 1.310 . S
C1613 H1633 0.930 . S
C1614 C1615 1.474 . S
C1614 C1616 1.285 . S
C1614 H1634 0.929 . S
C1615 C1612 1.461 . S
C1615 C1614 1.474 . S
C1616 C1611 1.342 . S
C1616 C1614 1.285 . S
C1616 H1635 0.930 . S
C1617 C1620 1.424 . S
C1617 C1622 1.245 . S
C1617 C1623 1.428 . S
C1618 C1621 1.260 . S
C1618 C1622 1.477 . S
C1618 H1636 0.932 . S
C1619 C1620 1.384 . S
C1619 C1621 1.479 . S
C1619 H1637 0.929 . S
C1620 C1617 1.424 . S
C1620 C1619 1.384 . S
C1620 H1638 0.928 . S
C1621 C1618 1.260 . S
C1621 C1619 1.479 . S
C1622 C1617 1.245 . S
C1622 C1618 1.477 . S
C1622 H1639 0.932 . S
C1623 U1606 2.882 . S
C1623 C1617 1.428 . S
C1623 O1626 1.301 . S
C1623 O1627 1.282 . S
O1624 U1606 2.441 . S
O1624 C1610 1.249 . S
O1625 U1606 2.420 . S
O1625 C1610 1.202 . S
O1626 U1606 2.455 . S
O1626 C1623 1.301 . S
O1627 U1606 2.449 . S
O1627 C1623 1.282 . S
H1628 C1601 0.931 1_455 S
H1629 C1603 0.929 . S
H1630 C1604 0.930 . S
H1631 C1605 0.931 . S
H1632 C1612 0.932 . S
H1633 C1613 0.930 . S
H1634 C1614 0.929 . S
H1635 C1616 0.930 . S
H1636 C1618 0.932 . S
H1637 C1619 0.929 . S
H1638 C1620 0.928 . S
H1639 C1622 0.932 . S
C1640 C1641 1.264 . S
C1640 C1645 1.479 . S
C1640 C1650 1.465 . S
C1641 C1640 1.264 . S
C1641 C1643 1.339 . S
C1641 H1668 0.931 . S
C1642 C1643 1.395 . S
C1642 C1644 1.320 . S
C1643 C1641 1.339 . S
C1643 C1642 1.395 . S
C1643 H1669 0.929 . S
C1644 C1642 1.320 . S
C1644 C1645 1.405 . S
C1644 H1670 0.930 . S
C1645 C1640 1.479 . S
C1645 C1644 1.405 . S
C1645 H1671 0.931 . S
U1646 O1647 2.454 . S
U1646 O1648 2.458 . S
U1646 C1649 2.984 . S
U1646 C1650 2.847 . S
U1646 C1663 2.882 . S
U1646 O1664 2.441 . S
U1646 O1665 2.420 . S
U1646 O1666 2.455 . S
U1646 O1667 2.449 . S
O1647 U1646 2.454 . S
O1647 C1649 1.353 . S
O1648 U1646 2.458 . S
O1648 C1649 1.286 . S
C1649 U1646 2.984 . S
C1649 O1647 1.353 . S
C1649 O1648 1.286 . S
C1649 C1651 1.363 . S
C1650 C1640 1.465 . S
C1650 U1646 2.847 . S
C1650 O1664 1.249 . S
C1650 O1665 1.202 . S
C1651 C1649 1.363 . S
C1651 C1653 1.408 . S
C1651 C1656 1.342 . S
C1652 C1653 1.310 . S
C1652 C1655 1.461 . S
C1652 H1672 0.932 . S
C1653 C1651 1.408 . S
C1653 C1652 1.310 . S
C1653 H1673 0.930 . S
C1654 C1655 1.474 . S
C1654 C1656 1.285 . S
C1654 H1674 0.929 . S
C1655 C1652 1.461 . S
C1655 C1654 1.474 . S
C1656 C1651 1.342 . S
C1656 C1654 1.285 . S
C1656 H1675 0.930 . S
C1657 C1660 1.424 . S
C1657 C1662 1.245 . S
C1657 C1663 1.428 . S
C1658 C1661 1.260 . S
C1658 C1662 1.477 . S
C1658 H1676 0.932 . S
C1659 C1660 1.384 . S
C1659 C1661 1.479 . S
C1659 H1677 0.929 . S
C1660 C1657 1.424 . S
C1660 C1659 1.384 . S
C1660 H1678 0.928 . S
C1661 C1658 1.260 . S
C1661 C1659 1.479 . S
C1662 C1657 1.245 . S
C1662 C1658 1.477 . S
C1662 H1679 0.932 . S
C1663 U1646 2.882 . S
C1663 C1657 1.428 . S
C1663 O1666 1.301 . S
C1663 O1667 1.282 . S
O1664 U1646 2.441 . S
O1664 C1650 1.249 . S
O1665 U1646 2.420 . S
O1665 C1650 1.202 . S
O1666 U1646 2.455 . S
O1666 C1663 1.301 . S
O1667 U1646 2.449 . S
O1667 C1663 1.282 . S
H1668 C1641 0.931 . S
H1669 C1643 0.929 . S
H1670 C1644 0.930 . S
H1671 C1645 0.931 . S
H1672 C1652 0.932 . S
H1673 C1653 0.930 . S
H1674 C1654 0.929 . S
H1675 C1656 0.930 . S
H1676 C1658 0.932 . S
H1677 C1659 0.929 . S
H1678 C1660 0.928 . S
H1679 C1662 0.932 . S
C1680 C1681 1.264 . S
C1680 C1685 1.479 . S
C1680 C1690 1.465 . S
C1681 C1680 1.264 . S
C1681 C1683 1.339 . S
C1681 H1708 0.931 . S
C1682 C1683 1.395 . S
C1682 C1684 1.320 . S
C1683 C1681 1.339 . S
C1683 C1682 1.395 . S
C1683 H1709 0.929 . S
C1684 C1682 1.320 . S
C1684 C1685 1.405 . S
C1684 H1710 0.930 . S
C1685 C1680 1.479 . S
C1685 C1684 1.405 . S
C1685 H1711 0.931 . S
U1686 O1687 2.454 . S
U1686 O1688 2.458 . S
U1686 C1689 2.984 . S
U1686 C1690 2.847 . S
U1686 C1703 2.882 . S
U1686 O1704 2.441 . S
U1686 O1705 2.420 . S
U1686 O1706 2.455 . S
U1686 O1707 2.449 . S
O1687 U1686 2.454 . S
O1687 C1689 1.353 . S
O1688 U1686 2.458 . S
O1688 C1689 1.286 . S
C1689 U1686 2.984 . S
C1689 O1687 1.353 . S
C1689 O1688 1.286 . S
C1689 C1691 1.363 1_554 S
C1690 C1680 1.465 . S
C1690 U1686 2.847 . S
C1690 O1704 1.249 . S
C1690 O1705 1.202 . S
C1691 C1689 1.363 1_556 S
C1691 C1693 1.408 . S
C1691 C1696 1.342 . S
C1692 C1693 1.310 . S
C1692 C1695 1.461 . S
C1692 H1712 0.932 . S
C1693 C1691 1.408 . S
C1693 C1692 1.310 . S
C1693 H1713 0.930 . S
C1694 C1695 1.474 . S
C1694 C1696 1.285 . S
C1694 H1714 0.929 . S
C1695 C1692 1.461 . S
C1695 C1694 1.474 . S
C1696 C1691 1.342 . S
C1696 C1694 1.285 . S
C1696 H1715 0.930 1_556 S
C1697 C1700 1.424 . S
C1697 C1702 1.245 . S
C1697 C1703 1.428 . S
C1698 C1701 1.260 . S
C1698 C1702 1.477 . S
C1698 H1716 0.932 . S
C1699 C1700 1.384 . S
C1699 C1701 1.479 . S
C1699 H1717 0.929 . S
C1700 C1697 1.424 . S
C1700 C1699 1.384 . S
C1700 H1718 0.928 . S
C1701 C1698 1.260 . S
C1701 C1699 1.479 . S
C1702 C1697 1.245 . S
C1702 C1698 1.477 . S
C1702 H1719 0.932 . S
C1703 U1686 2.882 . S
C1703 C1697 1.428 . S
C1703 O1706 1.301 . S
C1703 O1707 1.282 . S
O1704 U1686 2.441 . S
O1704 C1690 1.249 . S
O1705 U1686 2.420 . S
O1705 C1690 1.202 . S
O1706 U1686 2.455 . S
O1706 C1703 1.301 . S
O1707 U1686 2.449 . S
O1707 C1703 1.282 . S
H1708 C1681 0.931 . S
H1709 C1683 0.929 . S
H1710 C1684 0.930 . S
H1711 C1685 0.931 . S
H1712 C1692 0.932 . S
H1713 C1693 0.930 . S
H1714 C1694 0.929 . S
H1715 C1696 0.930 1_554 S
H1716 C1698 0.932 . S
H1717 C1699 0.929 . S
H1718 C1700 0.928 . S
H1719 C1702 0.932 . S
C1720 C1721 1.264 . S
C1720 C1725 1.479 . S
C1720 C1730 1.465 . S
C1721 C1720 1.264 . S
C1721 C1723 1.339 . S
C1721 H1748 0.931 . S
C1722 C1723 1.395 . S
C1722 C1724 1.320 . S
C1723 C1721 1.339 . S
C1723 C1722 1.395 . S
C1723 H1749 0.929 . S
C1724 C1722 1.320 . S
C1724 C1725 1.405 . S
C1724 H1750 0.930 . S
C1725 C1720 1.479 . S
C1725 C1724 1.405 . S
C1725 H1751 0.931 . S
U1726 O1727 2.454 . S
U1726 O1728 2.458 . S
U1726 C1729 2.984 . S
U1726 C1730 2.847 . S
U1726 C1743 2.882 . S
U1726 O1744 2.441 . S
U1726 O1745 2.420 . S
U1726 O1746 2.455 . S
U1726 O1747 2.449 . S
O1727 U1726 2.454 . S
O1727 C1729 1.353 . S
O1728 U1726 2.458 . S
O1728 C1729 1.286 . S
C1729 U1726 2.984 . S
C1729 O1727 1.353 . S
C1729 O1728 1.286 . S
C1729 C1731 1.363 . S
C1730 C1720 1.465 . S
C1730 U1726 2.847 . S
C1730 O1744 1.249 . S
C1730 O1745 1.202 . S
C1731 C1729 1.363 . S
C1731 C1733 1.408 . S
C1731 C1736 1.342 . S
C1732 C1733 1.310 . S
C1732 C1735 1.461 . S
C1732 H1752 0.932 . S
C1733 C1731 1.408 . S
C1733 C1732 1.310 . S
C1733 H1753 0.930 . S
C1734 C1735 1.474 . S
C1734 C1736 1.285 . S
C1734 H1754 0.929 . S
C1735 C1732 1.461 . S
C1735 C1734 1.474 . S
C1736 C1731 1.342 . S
C1736 C1734 1.285 . S
C1736 H1755 0.930 . S
C1737 C1740 1.424 . S
C1737 C1742 1.245 . S
C1737 C1743 1.428 . S
C1738 C1741 1.260 . S
C1738 C1742 1.477 . S
C1738 H1756 0.932 . S
C1739 C1740 1.384 . S
C1739 C1741 1.479 . S
C1739 H1757 0.929 . S
C1740 C1737 1.424 . S
C1740 C1739 1.384 . S
C1740 H1758 0.928 . S
C1741 C1738 1.260 . S
C1741 C1739 1.479 . S
C1742 C1737 1.245 . S
C1742 C1738 1.477 . S
C1742 H1759 0.932 . S
C1743 U1726 2.882 . S
C1743 C1737 1.428 . S
C1743 O1746 1.301 . S
C1743 O1747 1.282 . S
O1744 U1726 2.441 . S
O1744 C1730 1.249 . S
O1745 U1726 2.420 . S
O1745 C1730 1.202 . S
O1746 U1726 2.455 . S
O1746 C1743 1.301 . S
O1747 U1726 2.449 . S
O1747 C1743 1.282 . S
H1748 C1721 0.931 . S
H1749 C1723 0.929 . S
H1750 C1724 0.930 . S
H1751 C1725 0.931 . S
H1752 C1732 0.932 . S
H1753 C1733 0.930 . S
H1754 C1734 0.929 . S
H1755 C1736 0.930 . S
H1756 C1738 0.932 . S
H1757 C1739 0.929 . S
H1758 C1740 0.928 . S
H1759 C1742 0.932 . S
C1760 C1761 1.264 . S
C1760 C1765 1.479 . S
C1760 C1770 1.465 . S
C1761 C1760 1.264 . S
C1761 C1763 1.339 . S
C1761 H1788 0.931 . S
C1762 C1763 1.395 . S
C1762 C1764 1.320 . S
C1763 C1761 1.339 . S
C1763 C1762 1.395 . S
C1763 H1789 0.929 . S
C1764 C1762 1.320 . S
C1764 C1765 1.405 . S
C1764 H1790 0.930 . S
C1765 C1760 1.479 . S
C1765 C1764 1.405 . S
C1765 H1791 0.931 . S
U1766 O1767 2.454 . S
U1766 O1768 2.458 . S
U1766 C1769 2.984 . S
U1766 C1770 2.847 . S
U1766 C1783 2.882 . S
U1766 O1784 2.441 . S
U1766 O1785 2.420 . S
U1766 O1786 2.455 . S
U1766 O1787 2.449 . S
O1767 U1766 2.454 . S
O1767 C1769 1.353 . S
O1768 U1766 2.458 . S
O1768 C1769 1.286 . S
C1769 U1766 2.984 . S
C1769 O1767 1.353 . S
C1769 O1768 1.286 . S
C1769 C1771 1.363 . S
C1770 C1760 1.465 . S
C1770 U1766 2.847 . S
C1770 O1784 1.249 . S
C1770 O1785 1.202 . S
C1771 C1769 1.363 . S
C1771 C1773 1.408 . S
C1771 C1776 1.342 . S
C1772 C1773 1.310 . S
C1772 C1775 1.461 . S
C1772 H1792 0.932 . S
C1773 C1771 1.408 . S
C1773 C1772 1.310 . S
C1773 H1793 0.930 . S
C1774 C1775 1.474 . S
C1774 C1776 1.285 . S
C1774 H1794 0.929 . S
C1775 C1772 1.461 . S
C1775 C1774 1.474 . S
C1776 C1771 1.342 . S
C1776 C1774 1.285 . S
C1776 H1795 0.930 . S
C1777 C1780 1.424 . S
C1777 C1782 1.245 . S
C1777 C1783 1.428 . S
C1778 C1781 1.260 . S
C1778 C1782 1.477 . S
C1778 H1796 0.932 . S
C1779 C1780 1.384 . S
C1779 C1781 1.479 . S
C1779 H1797 0.929 . S
C1780 C1777 1.424 . S
C1780 C1779 1.384 . S
C1780 H1798 0.928 . S
C1781 C1778 1.260 . S
C1781 C1779 1.479 . S
C1782 C1777 1.245 . S
C1782 C1778 1.477 . S
C1782 H1799 0.932 . S
C1783 U1766 2.882 . S
C1783 C1777 1.428 . S
C1783 O1786 1.301 . S
C1783 O1787 1.282 . S
O1784 U1766 2.441 . S
O1784 C1770 1.249 . S
O1785 U1766 2.420 . S
O1785 C1770 1.202 . S
O1786 U1766 2.455 . S
O1786 C1783 1.301 . S
O1787 U1766 2.449 . S
O1787 C1783 1.282 . S
H1788 C1761 0.931 . S
H1789 C1763 0.929 . S
H1790 C1764 0.930 . S
H1791 C1765 0.931 . S
H1792 C1772 0.932 . S
H1793 C1773 0.930 . S
H1794 C1774 0.929 . S
H1795 C1776 0.930 . S
H1796 C1778 0.932 . S
H1797 C1779 0.929 . S
H1798 C1780 0.928 . S
H1799 C1782 0.932 . S
C1800 C1801 1.264 . S
C1800 C1805 1.479 . S
C1800 C1810 1.465 . S
C1801 C1800 1.264 . S
C1801 C1803 1.339 . S
C1801 H1828 0.931 . S
C1802 C1803 1.395 . S
C1802 C1804 1.320 . S
C1803 C1801 1.339 . S
C1803 C1802 1.395 . S
C1803 H1829 0.929 . S
C1804 C1802 1.320 . S
C1804 C1805 1.405 . S
C1804 H1830 0.930 . S
C1805 C1800 1.479 . S
C1805 C1804 1.405 . S
C1805 H1831 0.931 . S
U1806 O1807 2.454 . S
U1806 O1808 2.458 . S
U1806 C1809 2.984 . S
U1806 C1810 2.847 . S
U1806 C1823 2.882 . S
U1806 O1824 2.441 . S
U1806 O1825 2.420 . S
U1806 O1826 2.455 . S
U1806 O1827 2.449 . S
O1807 U1806 2.454 . S
O1807 C1809 1.353 . S
O1808 U1806 2.458 . S
O1808 C1809 1.286 . S
C1809 U1806 2.984 . S
C1809 O1807 1.353 . S
C1809 O1808 1.286 . S
C1809 C1811 1.363 . S
C1810 C1800 1.465 . S
C1810 U1806 2.847 . S
C1810 O1824 1.249 . S
C1810 O1825 1.202 . S
C1811 C1809 1.363 . S
C1811 C1813 1.408 . S
C1811 C1816 1.342 . S
C1812 C1813 1.310 . S
C1812 C1815 1.461 . S
C1812 H1832 0.932 . S
C1813 C1811 1.408 . S
C1813 C1812 1.310 . S
C1813 H1833 0.930 . S
C1814 C1815 1.474 . S
C1814 C1816 1.285 . S
C1814 H1834 0.929 . S
C1815 C1812 1.461 . S
C1815 C1814 1.474 . S
C1816 C1811 1.342 . S
C1816 C1814 1.285 . S
C1816 H1835 0.930 . S
C1817 C1820 1.424 . S
C1817 C1822 1.245 . S
C1817 C1823 1.428 . S
C1818 C1821 1.260 . S
C1818 C1822 1.477 . S
C1818 H1836 0.932 . S
C1819 C1820 1.384 . S
C1819 C1821 1.479 . S
C1819 H1837 0.929 . S
C1820 C1817 1.424 . S
C1820 C1819 1.384 . S
C1820 H1838 0.928 . S
C1821 C1818 1.260 . S
C1821 C1819 1.479 . S
C1822 C1817 1.245 . S
C1822 C1818 1.477 . S
C1822 H1839 0.932 . S
C1823 U1806 2.882 . S
C1823 C1817 1.428 . S
C1823 O1826 1.301 . S
C1823 O1827 1.282 . S
O1824 U1806 2.441 . S
O1824 C1810 1.249 . S
O1825 U1806 2.420 . S
O1825 C1810 1.202 . S
O1826 U1806 2.455 . S
O1826 C1823 1.301 . S
O1827 U1806 2.449 . S
O1827 C1823 1.282 . S
H1828 C1801 0.931 . S
H1829 C1803 0.929 . S
H1830 C1804 0.930 . S
H1831 C1805 0.931 . S
H1832 C1812 0.932 . S
H1833 C1813 0.930 . S
H1834 C1814 0.929 . S
H1835 C1816 0.930 . S
H1836 C1818 0.932 . S
H1837 C1819 0.929 . S
H1838 C1820 0.928 . S
H1839 C1822 0.932 . S
C1840 C1841 1.264 . S
C1840 C1845 1.479 . S
C1840 C1850 1.465 . S
C1841 C1840 1.264 . S
C1841 C1843 1.339 . S
C1841 H1868 0.931 . S
C1842 C1843 1.395 . S
C1842 C1844 1.320 . S
C1843 C1841 1.339 . S
C1843 C1842 1.395 . S
C1843 H1869 0.929 . S
C1844 C1842 1.320 . S
C1844 C1845 1.405 . S
C1844 H1870 0.930 . S
C1845 C1840 1.479 . S
C1845 C1844 1.405 . S
C1845 H1871 0.931 . S
U1846 O1847 2.454 . S
U1846 O1848 2.458 . S
U1846 C1849 2.984 . S
U1846 C1850 2.847 . S
U1846 C1863 2.882 . S
U1846 O1864 2.441 . S
U1846 O1865 2.420 . S
U1846 O1866 2.455 . S
U1846 O1867 2.449 . S
O1847 U1846 2.454 . S
O1847 C1849 1.353 . S
O1848 U1846 2.458 . S
O1848 C1849 1.286 . S
C1849 U1846 2.984 . S
C1849 O1847 1.353 . S
C1849 O1848 1.286 . S
C1849 C1851 1.363 . S
C1850 C1840 1.465 . S
C1850 U1846 2.847 . S
C1850 O1864 1.249 . S
C1850 O1865 1.202 . S
C1851 C1849 1.363 . S
C1851 C1853 1.408 . S
C1851 C1856 1.342 . S
C1852 C1853 1.310 . S
C1852 C1855 1.461 . S
C1852 H1872 0.932 . S
C1853 C1851 1.408 . S
C1853 C1852 1.310 . S
C1853 H1873 0.930 . S
C1854 C1855 1.474 . S
C1854 C1856 1.285 . S
C1854 H1874 0.929 . S
C1855 C1852 1.461 . S
C1855 C1854 1.474 . S
C1856 C1851 1.342 . S
C1856 C1854 1.285 . S
C1856 H1875 0.930 . S
C1857 C1860 1.424 . S
C1857 C1862 1.245 . S
C1857 C1863 1.428 . S
C1858 C1861 1.260 . S
C1858 C1862 1.477 . S
C1858 H1876 0.932 . S
C1859 C1860 1.384 . S
C1859 C1861 1.479 . S
C1859 H1877 0.929 . S
C1860 C1857 1.424 . S
C1860 C1859 1.384 . S
C1860 H1878 0.928 . S
C1861 C1858 1.260 . S
C1861 C1859 1.479 . S
C1862 C1857 1.245 . S
C1862 C1858 1.477 . S
C1862 H1879 0.932 . S
C1863 U1846 2.882 . S
C1863 C1857 1.428 . S
C1863 O1866 1.301 . S
C1863 O1867 1.282 . S
O1864 U1846 2.441 . S
O1864 C1850 1.249 . S
O1865 U1846 2.420 . S
O1865 C1850 1.202 . S
O1866 U1846 2.455 . S
O1866 C1863 1.301 . S
O1867 U1846 2.449 . S
O1867 C1863 1.282 . S
H1868 C1841 0.931 . S
H1869 C1843 0.929 . S
H1870 C1844 0.930 . S
H1871 C1845 0.931 . S
H1872 C1852 0.932 . S
H1873 C1853 0.930 . S
H1874 C1854 0.929 . S
H1875 C1856 0.930 . S
H1876 C1858 0.932 . S
H1877 C1859 0.929 . S
H1878 C1860 0.928 . S
H1879 C1862 0.932 . S
C1880 C1881 1.264 . S
C1880 C1885 1.479 . S
C1880 C1890 1.465 . S
C1881 C1880 1.264 . S
C1881 C1883 1.339 . S
C1881 H1908 0.931 . S
C1882 C1883 1.395 . S
C1882 C1884 1.320 . S
C1883 C1881 1.339 . S
C1883 C1882 1.395 . S
C1883 H1909 0.929 . S
C1884 C1882 1.320 . S
C1884 C1885 1.405 . S
C1884 H1910 0.930 . S
C1885 C1880 1.479 . S
C1885 C1884 1.405 . S
C1885 H1911 0.931 . S
U1886 O1887 2.454 . S
U1886 O1888 2.458 . S
U1886 C1889 2.984 . S
U1886 C1890 2.847 . S
U1886 C1903 2.882 . S
U1886 O1904 2.441 . S
U1886 O1905 2.420 . S
U1886 O1906 2.455 . S
U1886 O1907 2.449 . S
O1887 U1886 2.454 . S
O1887 C1889 1.353 . S
O1888 U1886 2.458 . S
O1888 C1889 1.286 . S
C1889 U1886 2.984 . S
C1889 O1887 1.353 . S
C1889 O1888 1.286 . S
C1889 C1891 1.363 . S
C1890 C1880 1.465 . S
C1890 U1886 2.847 . S
C1890 O1904 1.249 . S
C1890 O1905 1.202 . S
C1891 C1889 1.363 . S
C1891 C1893 1.408 . S
C1891 C1896 1.342 . S
C1892 C1893 1.310 . S
C1892 C1895 1.461 . S
C1892 H1912 0.932 . S
C1893 C1891 1.408 . S
C1893 C1892 1.310 . S
C1893 H1913 0.930 . S
C1894 C1895 1.474 . S
C1894 C1896 1.285 . S
C1894 H1914 0.929 . S
C1895 C1892 1.461 . S
C1895 C1894 1.474 . S
C1896 C1891 1.342 . S
C1896 C1894 1.285 . S
C1896 H1915 0.930 . S
C1897 C1900 1.424 . S
C1897 C1902 1.245 . S
C1897 C1903 1.428 . S
C1898 C1901 1.260 . S
C1898 C1902 1.477 . S
C1898 H1916 0.932 . S
C1899 C1900 1.384 . S
C1899 C1901 1.479 . S
C1899 H1917 0.929 . S
C1900 C1897 1.424 . S
C1900 C1899 1.384 . S
C1900 H1918 0.928 . S
C1901 C1898 1.260 . S
C1901 C1899 1.479 . S
C1902 C1897 1.245 . S
C1902 C1898 1.477 . S
C1902 H1919 0.932 . S
C1903 U1886 2.882 . S
C1903 C1897 1.428 . S
C1903 O1906 1.301 . S
C1903 O1907 1.282 . S
O1904 U1886 2.441 . S
O1904 C1890 1.249 . S
O1905 U1886 2.420 . S
O1905 C1890 1.202 . S
O1906 U1886 2.455 . S
O1906 C1903 1.301 . S
O1907 U1886 2.449 . S
O1907 C1903 1.282 . S
H1908 C1881 0.931 . S
H1909 C1883 0.929 . S
H1910 C1884 0.930 . S
H1911 C1885 0.931 . S
H1912 C1892 0.932 . S
H1913 C1893 0.930 . S
H1914 C1894 0.929 . S
H1915 C1896 0.930 . S
H1916 C1898 0.932 . S
H1917 C1899 0.929 . S
H1918 C1900 0.928 . S
H1919 C1902 0.932 . S
H1920 C1927 0.929 . S
H1921 C1930 0.930 . S
H1922 C1932 0.929 . S
H1923 C1924 0.969 . S
C1924 H1923 0.969 . S
C1924 O1925 1.550 . S
C1924 H1926 0.973 . S
O1925 C1924 1.550 . S
O1925 C1931 1.412 . S
H1926 C1924 0.973 . S
C1927 H1920 0.929 . S
C1927 C1928 1.400 . S
C1927 C1929 1.364 . S
C1928 C1927 1.400 . S
C1928 C1932 1.377 . S
C1929 C1927 1.364 . S
C1929 C1930 1.374 . S
C1930 H1921 0.930 . S
C1930 C1929 1.374 . S
C1930 C1931 1.383 . S
C1931 O1925 1.412 . S
C1931 C1930 1.383 . S
C1931 C1932 1.394 . S
C1932 H1922 0.929 . S
C1932 C1928 1.377 . S
C1932 C1931 1.394 . S
H1933 C1940 0.929 . S
H1934 C1943 0.930 . S
H1935 C1945 0.929 . S
H1936 C1937 0.969 . S
C1937 H1936 0.969 . S
C1937 O1938 1.550 . S
C1937 H1939 0.973 . S
O1938 C1937 1.550 . S
O1938 C1944 1.412 . S
H1939 C1937 0.973 . S
C1940 H1933 0.929 . S
C1940 C1941 1.400 . S
C1940 C1942 1.364 . S
C1941 C1940 1.400 . S
C1941 C1945 1.377 . S
C1942 C1940 1.364 . S
C1942 C1943 1.374 . S
C1943 H1934 0.930 . S
C1943 C1942 1.374 . S
C1943 C1944 1.383 . S
C1944 O1938 1.412 . S
C1944 C1943 1.383 . S
C1944 C1945 1.394 . S
C1945 H1935 0.929 . S
C1945 C1941 1.377 . S
C1945 C1944 1.394 . S
H1946 C1953 0.929 . S
H1947 C1956 0.930 . S
H1948 C1958 0.929 . S
H1949 C1950 0.969 . S
C1950 H1949 0.969 . S
C1950 O1951 1.550 . S
C1950 H1952 0.973 . S
O1951 C1950 1.550 . S
O1951 C1957 1.412 . S
H1952 C1950 0.973 . S
C1953 H1946 0.929 . S
C1953 C1954 1.400 . S
C1953 C1955 1.364 . S
C1954 C1953 1.400 . S
C1954 C1958 1.377 . S
C1955 C1953 1.364 . S
C1955 C1956 1.374 . S
C1956 H1947 0.930 . S
C1956 C1955 1.374 . S
C1956 C1957 1.383 . S
C1957 O1951 1.412 . S
C1957 C1956 1.383 . S
C1957 C1958 1.394 . S
C1958 H1948 0.929 . S
C1958 C1954 1.377 . S
C1958 C1957 1.394 . S
H1959 C1966 0.929 . S
H1960 C1969 0.930 . S
H1961 C1971 0.929 . S
H1962 C1963 0.969 . S
C1963 H1962 0.969 . S
C1963 O1964 1.550 . S
C1963 H1965 0.973 . S
O1964 C1963 1.550 . S
O1964 C1970 1.412 . S
H1965 C1963 0.973 . S
C1966 H1959 0.929 . S
C1966 C1967 1.400 . S
C1966 C1968 1.364 . S
C1967 C1966 1.400 . S
C1967 C1971 1.377 . S
C1968 C1966 1.364 . S
C1968 C1969 1.374 . S
C1969 H1960 0.930 . S
C1969 C1968 1.374 . S
C1969 C1970 1.383 . S
C1970 O1964 1.412 . S
C1970 C1969 1.383 . S
C1970 C1971 1.394 . S
C1971 H1961 0.929 . S
C1971 C1967 1.377 . S
C1971 C1970 1.394 . S
H1972 C1979 0.929 . S
H1973 C1982 0.930 . S
H1974 C1984 0.929 . S
H1975 C1976 0.969 . S
C1976 H1975 0.969 . S
C1976 O1977 1.550 . S
C1976 H1978 0.973 . S
O1977 C1976 1.550 . S
O1977 C1983 1.412 . S
H1978 C1976 0.973 . S
C1979 H1972 0.929 . S
C1979 C1980 1.400 . S
C1979 C1981 1.364 . S
C1980 C1979 1.400 . S
C1980 C1984 1.377 . S
C1981 C1979 1.364 . S
C1981 C1982 1.374 . S
C1982 H1973 0.930 . S
C1982 C1981 1.374 . S
C1982 C1983 1.383 . S
C1983 O1977 1.412 . S
C1983 C1982 1.383 . S
C1983 C1984 1.394 . S
C1984 H1974 0.929 . S
C1984 C1980 1.377 . S
C1984 C1983 1.394 . S
H1985 C1992 0.929 . S
H1986 C1995 0.930 . S
H1987 C1997 0.929 . S
H1988 C1989 0.969 . S
C1989 H1988 0.969 . S
C1989 O1990 1.550 . S
C1989 H1991 0.973 . S
O1990 C1989 1.550 . S
O1990 C1996 1.412 . S
H1991 C1989 0.973 . S
C1992 H1985 0.929 . S
C1992 C1993 1.400 . S
C1992 C1994 1.364 . S
C1993 C1992 1.400 . S
C1993 C1997 1.377 . S
C1994 C1992 1.364 . S
C1994 C1995 1.374 . S
C1995 H1986 0.930 . S
C1995 C1994 1.374 . S
C1995 C1996 1.383 . S
C1996 O1990 1.412 . S
C1996 C1995 1.383 . S
C1996 C1997 1.394 . S
C1997 H1987 0.929 . S
C1997 C1993 1.377 . S
C1997 C1996 1.394 . S
H1998 C2005 0.929 . S
H1999 C2008 0.930 . S
H2000 C2010 0.929 . S
H2001 C2002 0.969 . S
C2002 H2001 0.969 . S
C2002 O2003 1.550 . S
C2002 H2004 0.973 . S
O2003 C2002 1.550 . S
O2003 C2009 1.412 . S
H2004 C2002 0.973 . S
C2005 H1998 0.929 . S
C2005 C2006 1.400 . S
C2005 C2007 1.364 . S
C2006 C2005 1.400 . S
C2006 C2010 1.377 . S
C2007 C2005 1.364 . S
C2007 C2008 1.374 . S
C2008 H1999 0.930 . S
C2008 C2007 1.374 . S
C2008 C2009 1.383 . S
C2009 O2003 1.412 . S
C2009 C2008 1.383 . S
C2009 C2010 1.394 . S
C2010 H2000 0.929 . S
C2010 C2006 1.377 . S
C2010 C2009 1.394 . S
H2011 C2018 0.929 . S
H2012 C2021 0.930 . S
H2013 C2023 0.929 . S
H2014 C2015 0.969 . S
C2015 H2014 0.969 . S
C2015 O2016 1.550 . S
C2015 H2017 0.973 . S
O2016 C2015 1.550 . S
O2016 C2022 1.412 . S
H2017 C2015 0.973 . S
C2018 H2011 0.929 . S
C2018 C2019 1.400 . S
C2018 C2020 1.364 . S
C2019 C2018 1.400 . S
C2019 C2023 1.377 . S
C2020 C2018 1.364 . S
C2020 C2021 1.374 . S
C2021 H2012 0.930 . S
C2021 C2020 1.374 . S
C2021 C2022 1.383 . S
C2022 O2016 1.412 . S
C2022 C2021 1.383 . S
C2022 C2023 1.394 . S
C2023 H2013 0.929 . S
C2023 C2019 1.377 . S
C2023 C2022 1.394 . S
H2024 C2031 0.929 . S
H2025 C2034 0.930 . S
H2026 C2036 0.929 . S
H2027 C2028 0.969 . S
C2028 H2027 0.969 . S
C2028 O2029 1.550 . S
C2028 H2030 0.973 . S
O2029 C2028 1.550 . S
O2029 C2035 1.412 . S
H2030 C2028 0.973 . S
C2031 H2024 0.929 . S
C2031 C2032 1.400 . S
C2031 C2033 1.364 . S
C2032 C2031 1.400 . S
C2032 C2036 1.377 . S
C2033 C2031 1.364 . S
C2033 C2034 1.374 . S
C2034 H2025 0.930 . S
C2034 C2033 1.374 . S
C2034 C2035 1.383 . S
C2035 O2029 1.412 . S
C2035 C2034 1.383 . S
C2035 C2036 1.394 . S
C2036 H2026 0.929 . S
C2036 C2032 1.377 . S
C2036 C2035 1.394 . S
H2037 C2044 0.929 . S
H2038 C2047 0.930 . S
H2039 C2049 0.929 . S
H2040 C2041 0.969 . S
C2041 H2040 0.969 . S
C2041 O2042 1.550 . S
C2041 H2043 0.973 . S
O2042 C2041 1.550 . S
O2042 C2048 1.412 . S
H2043 C2041 0.973 . S
C2044 H2037 0.929 . S
C2044 C2045 1.400 . S
C2044 C2046 1.364 . S
C2045 C2044 1.400 . S
C2045 C2049 1.377 . S
C2046 C2044 1.364 . S
C2046 C2047 1.374 . S
C2047 H2038 0.930 . S
C2047 C2046 1.374 . S
C2047 C2048 1.383 . S
C2048 O2042 1.412 . S
C2048 C2047 1.383 . S
C2048 C2049 1.394 . S
C2049 H2039 0.929 . S
C2049 C2045 1.377 . S
C2049 C2048 1.394 . S
H2050 C2057 0.929 . S
H2051 C2060 0.930 . S
H2052 C2062 0.929 . S
H2053 C2054 0.969 . S
C2054 H2053 0.969 . S
C2054 O2055 1.550 . S
C2054 H2056 0.973 . S
O2055 C2054 1.550 . S
O2055 C2061 1.412 . S
H2056 C2054 0.973 . S
C2057 H2050 0.929 . S
C2057 C2058 1.400 . S
C2057 C2059 1.364 . S
C2058 C2057 1.400 . S
C2058 C2062 1.377 . S
C2059 C2057 1.364 . S
C2059 C2060 1.374 . S
C2060 H2051 0.930 . S
C2060 C2059 1.374 . S
C2060 C2061 1.383 . S
C2061 O2055 1.412 . S
C2061 C2060 1.383 . S
C2061 C2062 1.394 . S
C2062 H2052 0.929 . S
C2062 C2058 1.377 . S
C2062 C2061 1.394 . S
H2063 C2070 0.929 . S
H2064 C2073 0.930 . S
H2065 C2075 0.929 . S
H2066 C2067 0.969 . S
C2067 H2066 0.969 . S
C2067 O2068 1.550 . S
C2067 H2069 0.973 . S
O2068 C2067 1.550 . S
O2068 C2074 1.412 . S
H2069 C2067 0.973 . S
C2070 H2063 0.929 . S
C2070 C2071 1.400 . S
C2070 C2072 1.364 . S
C2071 C2070 1.400 . S
C2071 C2075 1.377 . S
C2072 C2070 1.364 . S
C2072 C2073 1.374 . S
C2073 H2064 0.930 . S
C2073 C2072 1.374 . S
C2073 C2074 1.383 . S
C2074 O2068 1.412 . S
C2074 C2073 1.383 . S
C2074 C2075 1.394 . S
C2075 H2065 0.929 . S
C2075 C2071 1.377 . S
C2075 C2074 1.394 . S
H2076 C2083 0.929 . S
H2077 C2086 0.930 . S
H2078 C2088 0.929 . S
H2079 C2080 0.969 . S
C2080 H2079 0.969 . S
C2080 O2081 1.550 . S
C2080 H2082 0.973 . S
O2081 C2080 1.550 . S
O2081 C2087 1.412 . S
H2082 C2080 0.973 . S
C2083 H2076 0.929 . S
C2083 C2084 1.400 . S
C2083 C2085 1.364 . S
C2084 C2083 1.400 . S
C2084 C2088 1.377 . S
C2085 C2083 1.364 . S
C2085 C2086 1.374 . S
C2086 H2077 0.930 . S
C2086 C2085 1.374 . S
C2086 C2087 1.383 . S
C2087 O2081 1.412 . S
C2087 C2086 1.383 . S
C2087 C2088 1.394 . S
C2088 H2078 0.929 . S
C2088 C2084 1.377 . S
C2088 C2087 1.394 . S
H2089 C2096 0.929 . S
H2090 C2099 0.930 . S
H2091 C2101 0.929 . S
H2092 C2093 0.969 . S
C2093 H2092 0.969 . S
C2093 O2094 1.550 . S
C2093 H2095 0.973 . S
O2094 C2093 1.550 . S
O2094 C2100 1.412 . S
H2095 C2093 0.973 . S
C2096 H2089 0.929 . S
C2096 C2097 1.400 . S
C2096 C2098 1.364 . S
C2097 C2096 1.400 . S
C2097 C2101 1.377 . S
C2098 C2096 1.364 . S
C2098 C2099 1.374 . S
C2099 H2090 0.930 . S
C2099 C2098 1.374 . S
C2099 C2100 1.383 . S
C2100 O2094 1.412 . S
C2100 C2099 1.383 . S
C2100 C2101 1.394 . S
C2101 H2091 0.929 . S
C2101 C2097 1.377 . S
C2101 C2100 1.394 . S
H2102 C2109 0.929 . S
H2103 C2112 0.930 . S
H2104 C2114 0.929 . S
H2105 C2106 0.969 . S
C2106 H2105 0.969 . S
C2106 O2107 1.550 . S
C2106 H2108 0.973 . S
O2107 C2106 1.550 . S
O2107 C2113 1.412 . S
H2108 C2106 0.973 . S
C2109 H2102 0.929 . S
C2109 C2110 1.400 . S
C2109 C2111 1.364 . S
C2110 C2109 1.400 . S
C2110 C2114 1.377 . S
C2111 C2109 1.364 . S
C2111 C2112 1.374 . S
C2112 H2103 0.930 . S
C2112 C2111 1.374 . S
C2112 C2113 1.383 . S
C2113 O2107 1.412 . S
C2113 C2112 1.383 . S
C2113 C2114 1.394 . S
C2114 H2104 0.929 . S
C2114 C2110 1.377 . S
C2114 C2113 1.394 . S
H2115 C2122 0.929 . S
H2116 C2125 0.930 . S
H2117 C2127 0.929 . S
H2118 C2119 0.969 . S
C2119 H2118 0.969 . S
C2119 O2120 1.550 . S
C2119 H2121 0.973 . S
O2120 C2119 1.550 . S
O2120 C2126 1.412 . S
H2121 C2119 0.973 . S
C2122 H2115 0.929 . S
C2122 C2123 1.400 . S
C2122 C2124 1.364 . S
C2123 C2122 1.400 . S
C2123 C2127 1.377 . S
C2124 C2122 1.364 . S
C2124 C2125 1.374 . S
C2125 H2116 0.930 . S
C2125 C2124 1.374 . S
C2125 C2126 1.383 . S
C2126 O2120 1.412 . S
C2126 C2125 1.383 . S
C2126 C2127 1.394 . S
C2127 H2117 0.929 . S
C2127 C2123 1.377 . S
C2127 C2126 1.394 . S
H2128 C2135 0.929 . S
H2129 C2138 0.930 . S
H2130 C2140 0.929 . S
H2131 C2132 0.969 . S
C2132 H2131 0.969 . S
C2132 O2133 1.550 . S
C2132 H2134 0.973 . S
O2133 C2132 1.550 . S
O2133 C2139 1.412 . S
H2134 C2132 0.973 . S
C2135 H2128 0.929 . S
C2135 C2136 1.400 . S
C2135 C2137 1.364 . S
C2136 C2135 1.400 . S
C2136 C2140 1.377 . S
C2137 C2135 1.364 . S
C2137 C2138 1.374 . S
C2138 H2129 0.930 . S
C2138 C2137 1.374 . S
C2138 C2139 1.383 . S
C2139 O2133 1.412 . S
C2139 C2138 1.383 . S
C2139 C2140 1.394 . S
C2140 H2130 0.929 . S
C2140 C2136 1.377 . S
C2140 C2139 1.394 . S
H2141 C2148 0.929 . S
H2142 C2151 0.930 . S
H2143 C2153 0.929 . S
H2144 C2145 0.969 . S
C2145 H2144 0.969 . S
C2145 O2146 1.550 . S
C2145 H2147 0.973 . S
O2146 C2145 1.550 . S
O2146 C2152 1.412 . S
H2147 C2145 0.973 . S
C2148 H2141 0.929 . S
C2148 C2149 1.400 . S
C2148 C2150 1.364 . S
C2149 C2148 1.400 . S
C2149 C2153 1.377 . S
C2150 C2148 1.364 . S
C2150 C2151 1.374 . S
C2151 H2142 0.930 . S
C2151 C2150 1.374 . S
C2151 C2152 1.383 . S
C2152 O2146 1.412 . S
C2152 C2151 1.383 . S
C2152 C2153 1.394 . S
C2153 H2143 0.929 . S
C2153 C2149 1.377 . S
C2153 C2152 1.394 . S
H2154 C2161 0.929 . S
H2155 C2164 0.930 . S
H2156 C2166 0.929 . S
H2157 C2158 0.969 . S
C2158 H2157 0.969 . S
C2158 O2159 1.550 . S
C2158 H2160 0.973 . S
O2159 C2158 1.550 . S
O2159 C2165 1.412 . S
H2160 C2158 0.973 . S
C2161 H2154 0.929 . S
C2161 C2162 1.400 . S
C2161 C2163 1.364 . S
C2162 C2161 1.400 . S
C2162 C2166 1.377 . S
C2163 C2161 1.364 . S
C2163 C2164 1.374 . S
C2164 H2155 0.930 . S
C2164 C2163 1.374 . S
C2164 C2165 1.383 . S
C2165 O2159 1.412 . S
C2165 C2164 1.383 . S
C2165 C2166 1.394 . S
C2166 H2156 0.929 . S
C2166 C2162 1.377 . S
C2166 C2165 1.394 . S
H2167 C2174 0.929 . S
H2168 C2177 0.930 . S
H2169 C2179 0.929 . S
H2170 C2171 0.969 . S
C2171 H2170 0.969 . S
C2171 O2172 1.550 . S
C2171 H2173 0.973 . S
O2172 C2171 1.550 . S
O2172 C2178 1.412 . S
H2173 C2171 0.973 . S
C2174 H2167 0.929 . S
C2174 C2175 1.400 . S
C2174 C2176 1.364 . S
C2175 C2174 1.400 . S
C2175 C2179 1.377 . S
C2176 C2174 1.364 . S
C2176 C2177 1.374 . S
C2177 H2168 0.930 . S
C2177 C2176 1.374 . S
C2177 C2178 1.383 . S
C2178 O2172 1.412 . S
C2178 C2177 1.383 . S
C2178 C2179 1.394 . S
C2179 H2169 0.929 . S
C2179 C2175 1.377 . S
C2179 C2178 1.394 . S
H2180 C2187 0.929 . S
H2181 C2190 0.930 . S
H2182 C2192 0.929 . S
H2183 C2184 0.969 . S
C2184 H2183 0.969 . S
C2184 O2185 1.550 . S
C2184 H2186 0.973 . S
O2185 C2184 1.550 . S
O2185 C2191 1.412 . S
H2186 C2184 0.973 . S
C2187 H2180 0.929 . S
C2187 C2188 1.400 . S
C2187 C2189 1.364 . S
C2188 C2187 1.400 . S
C2188 C2192 1.377 . S
C2189 C2187 1.364 . S
C2189 C2190 1.374 . S
C2190 H2181 0.930 . S
C2190 C2189 1.374 . S
C2190 C2191 1.383 . S
C2191 O2185 1.412 . S
C2191 C2190 1.383 . S
C2191 C2192 1.394 . S
C2192 H2182 0.929 . S
C2192 C2188 1.377 . S
C2192 C2191 1.394 . S
H2193 C2200 0.929 . S
H2194 C2203 0.930 . S
H2195 C2205 0.929 . S
H2196 C2197 0.969 . S
C2197 H2196 0.969 . S
C2197 O2198 1.550 . S
C2197 H2199 0.973 . S
O2198 C2197 1.550 . S
O2198 C2204 1.412 . S
H2199 C2197 0.973 . S
C2200 H2193 0.929 . S
C2200 C2201 1.400 . S
C2200 C2202 1.364 . S
C2201 C2200 1.400 . S
C2201 C2205 1.377 . S
C2202 C2200 1.364 . S
C2202 C2203 1.374 . S
C2203 H2194 0.930 . S
C2203 C2202 1.374 . S
C2203 C2204 1.383 . S
C2204 O2198 1.412 . S
C2204 C2203 1.383 . S
C2204 C2205 1.394 . S
C2205 H2195 0.929 . S
C2205 C2201 1.377 . S
C2205 C2204 1.394 . S
H2206 C2213 0.929 . S
H2207 C2216 0.930 . S
H2208 C2218 0.929 . S
H2209 C2210 0.969 . S
C2210 H2209 0.969 . S
C2210 O2211 1.550 . S
C2210 H2212 0.973 . S
O2211 C2210 1.550 . S
O2211 C2217 1.412 . S
H2212 C2210 0.973 . S
C2213 H2206 0.929 . S
C2213 C2214 1.400 . S
C2213 C2215 1.364 . S
C2214 C2213 1.400 . S
C2214 C2218 1.377 . S
C2215 C2213 1.364 . S
C2215 C2216 1.374 . S
C2216 H2207 0.930 . S
C2216 C2215 1.374 . S
C2216 C2217 1.383 . S
C2217 O2211 1.412 . S
C2217 C2216 1.383 . S
C2217 C2218 1.394 . S
C2218 H2208 0.929 . S
C2218 C2214 1.377 . S
C2218 C2217 1.394 . S
H2219 C2226 0.929 . S
H2220 C2229 0.930 . S
H2221 C2231 0.929 . S
H2222 C2223 0.969 . S
C2223 H2222 0.969 . S
C2223 O2224 1.550 . S
C2223 H2225 0.973 . S
O2224 C2223 1.550 . S
O2224 C2230 1.412 . S
H2225 C2223 0.973 . S
C2226 H2219 0.929 . S
C2226 C2227 1.400 . S
C2226 C2228 1.364 . S
C2227 C2226 1.400 . S
C2227 C2231 1.377 . S
C2228 C2226 1.364 . S
C2228 C2229 1.374 . S
C2229 H2220 0.930 . S
C2229 C2228 1.374 . S
C2229 C2230 1.383 . S
C2230 O2224 1.412 . S
C2230 C2229 1.383 . S
C2230 C2231 1.394 . S
C2231 H2221 0.929 . S
C2231 C2227 1.377 . S
C2231 C2230 1.394 . S
H2232 C2239 0.929 . S
H2233 C2242 0.930 . S
H2234 C2244 0.929 . S
H2235 C2236 0.969 . S
C2236 H2235 0.969 . S
C2236 O2237 1.550 . S
C2236 H2238 0.973 . S
O2237 C2236 1.550 . S
O2237 C2243 1.412 . S
H2238 C2236 0.973 . S
C2239 H2232 0.929 . S
C2239 C2240 1.400 . S
C2239 C2241 1.364 . S
C2240 C2239 1.400 . S
C2240 C2244 1.377 . S
C2241 C2239 1.364 . S
C2241 C2242 1.374 . S
C2242 H2233 0.930 . S
C2242 C2241 1.374 . S
C2242 C2243 1.383 . S
C2243 O2237 1.412 . S
C2243 C2242 1.383 . S
C2243 C2244 1.394 . S
C2244 H2234 0.929 . S
C2244 C2240 1.377 . S
C2244 C2243 1.394 . S
H2245 C2252 0.929 . S
H2246 C2255 0.930 . S
H2247 C2257 0.929 . S
H2248 C2249 0.969 . S
C2249 H2248 0.969 . S
C2249 O2250 1.550 . S
C2249 H2251 0.973 . S
O2250 C2249 1.550 . S
O2250 C2256 1.412 . S
H2251 C2249 0.973 . S
C2252 H2245 0.929 . S
C2252 C2253 1.400 . S
C2252 C2254 1.364 . S
C2253 C2252 1.400 . S
C2253 C2257 1.377 . S
C2254 C2252 1.364 . S
C2254 C2255 1.374 . S
C2255 H2246 0.930 . S
C2255 C2254 1.374 . S
C2255 C2256 1.383 . S
C2256 O2250 1.412 . S
C2256 C2255 1.383 . S
C2256 C2257 1.394 . S
C2257 H2247 0.929 . S
C2257 C2253 1.377 . S
C2257 C2256 1.394 . S
H2258 C2265 0.929 . S
H2259 C2268 0.930 . S
H2260 C2270 0.929 . S
H2261 C2262 0.969 . S
C2262 H2261 0.969 . S
C2262 O2263 1.550 . S
C2262 H2264 0.973 . S
O2263 C2262 1.550 . S
O2263 C2269 1.412 . S
H2264 C2262 0.973 . S
C2265 H2258 0.929 . S
C2265 C2266 1.400 . S
C2265 C2267 1.364 . S
C2266 C2265 1.400 . S
C2266 C2270 1.377 . S
C2267 C2265 1.364 . S
C2267 C2268 1.374 . S
C2268 H2259 0.930 . S
C2268 C2267 1.374 . S
C2268 C2269 1.383 . S
C2269 O2263 1.412 . S
C2269 C2268 1.383 . S
C2269 C2270 1.394 . S
C2270 H2260 0.929 . S
C2270 C2266 1.377 . S
C2270 C2269 1.394 . S
H2271 C2278 0.929 . S
H2272 C2281 0.930 . S
H2273 C2283 0.929 . S
H2274 C2275 0.969 . S
C2275 H2274 0.969 . S
C2275 O2276 1.550 . S
C2275 H2277 0.973 . S
O2276 C2275 1.550 . S
O2276 C2282 1.412 . S
H2277 C2275 0.973 . S
C2278 H2271 0.929 . S
C2278 C2279 1.400 . S
C2278 C2280 1.364 . S
C2279 C2278 1.400 . S
C2279 C2283 1.377 . S
C2280 C2278 1.364 . S
C2280 C2281 1.374 . S
C2281 H2272 0.930 . S
C2281 C2280 1.374 . S
C2281 C2282 1.383 . S
C2282 O2276 1.412 . S
C2282 C2281 1.383 . S
C2282 C2283 1.394 . S
C2283 H2273 0.929 . S
C2283 C2279 1.377 . S
C2283 C2282 1.394 . S
H2284 C2291 0.929 . S
H2285 C2294 0.930 . S
H2286 C2296 0.929 . S
H2287 C2288 0.969 . S
C2288 H2287 0.969 . S
C2288 O2289 1.550 . S
C2288 H2290 0.973 . S
O2289 C2288 1.550 . S
O2289 C2295 1.412 . S
H2290 C2288 0.973 . S
C2291 H2284 0.929 . S
C2291 C2292 1.400 . S
C2291 C2293 1.364 . S
C2292 C2291 1.400 . S
C2292 C2296 1.377 . S
C2293 C2291 1.364 . S
C2293 C2294 1.374 . S
C2294 H2285 0.930 . S
C2294 C2293 1.374 . S
C2294 C2295 1.383 . S
C2295 O2289 1.412 . S
C2295 C2294 1.383 . S
C2295 C2296 1.394 . S
C2296 H2286 0.929 . S
C2296 C2292 1.377 . S
C2296 C2295 1.394 . S
H2297 C2304 0.929 . S
H2298 C2307 0.930 . S
H2299 C2309 0.929 . S
H2300 C2301 0.969 . S
C2301 H2300 0.969 . S
C2301 O2302 1.550 . S
C2301 H2303 0.973 . S
O2302 C2301 1.550 . S
O2302 C2308 1.412 . S
H2303 C2301 0.973 . S
C2304 H2297 0.929 . S
C2304 C2305 1.400 . S
C2304 C2306 1.364 . S
C2305 C2304 1.400 . S
C2305 C2309 1.377 . S
C2306 C2304 1.364 . S
C2306 C2307 1.374 . S
C2307 H2298 0.930 . S
C2307 C2306 1.374 . S
C2307 C2308 1.383 . S
C2308 O2302 1.412 . S
C2308 C2307 1.383 . S
C2308 C2309 1.394 . S
C2309 H2299 0.929 . S
C2309 C2305 1.377 . S
C2309 C2308 1.394 . S
H2310 C2317 0.929 . S
H2311 C2320 0.930 . S
H2312 C2322 0.929 . S
H2313 C2314 0.969 . S
C2314 H2313 0.969 . S
C2314 O2315 1.550 . S
C2314 H2316 0.973 . S
O2315 C2314 1.550 . S
O2315 C2321 1.412 . S
H2316 C2314 0.973 . S
C2317 H2310 0.929 . S
C2317 C2318 1.400 . S
C2317 C2319 1.364 . S
C2318 C2317 1.400 . S
C2318 C2322 1.377 . S
C2319 C2317 1.364 . S
C2319 C2320 1.374 . S
C2320 H2311 0.930 . S
C2320 C2319 1.374 . S
C2320 C2321 1.383 . S
C2321 O2315 1.412 . S
C2321 C2320 1.383 . S
C2321 C2322 1.394 . S
C2322 H2312 0.929 . S
C2322 C2318 1.377 . S
C2322 C2321 1.394 . S
H2323 C2330 0.929 . S
H2324 C2333 0.930 . S
H2325 C2335 0.929 . S
H2326 C2327 0.969 . S
C2327 H2326 0.969 . S
C2327 O2328 1.550 . S
C2327 H2329 0.973 . S
O2328 C2327 1.550 . S
O2328 C2334 1.412 . S
H2329 C2327 0.973 . S
C2330 H2323 0.929 . S
C2330 C2331 1.400 . S
C2330 C2332 1.364 . S
C2331 C2330 1.400 . S
C2331 C2335 1.377 . S
C2332 C2330 1.364 . S
C2332 C2333 1.374 . S
C2333 H2324 0.930 . S
C2333 C2332 1.374 . S
C2333 C2334 1.383 . S
C2334 O2328 1.412 . S
C2334 C2333 1.383 . S
C2334 C2335 1.394 . S
C2335 H2325 0.929 . S
C2335 C2331 1.377 . S
C2335 C2334 1.394 . S
H2336 C2343 0.929 . S
H2337 C2346 0.930 . S
H2338 C2348 0.929 . S
H2339 C2340 0.969 . S
C2340 H2339 0.969 . S
C2340 O2341 1.550 . S
C2340 H2342 0.973 . S
O2341 C2340 1.550 . S
O2341 C2347 1.412 . S
H2342 C2340 0.973 . S
C2343 H2336 0.929 . S
C2343 C2344 1.400 . S
C2343 C2345 1.364 . S
C2344 C2343 1.400 . S
C2344 C2348 1.377 . S
C2345 C2343 1.364 . S
C2345 C2346 1.374 . S
C2346 H2337 0.930 . S
C2346 C2345 1.374 . S
C2346 C2347 1.383 . S
C2347 O2341 1.412 . S
C2347 C2346 1.383 . S
C2347 C2348 1.394 . S
C2348 H2338 0.929 . S
C2348 C2344 1.377 . S
C2348 C2347 1.394 . S
H2349 C2356 0.929 . S
H2350 C2359 0.930 . S
H2351 C2361 0.929 . S
H2352 C2353 0.969 . S
C2353 H2352 0.969 . S
C2353 O2354 1.550 . S
C2353 H2355 0.973 . S
O2354 C2353 1.550 . S
O2354 C2360 1.412 . S
H2355 C2353 0.973 . S
C2356 H2349 0.929 . S
C2356 C2357 1.400 . S
C2356 C2358 1.364 . S
C2357 C2356 1.400 . S
C2357 C2361 1.377 . S
C2358 C2356 1.364 . S
C2358 C2359 1.374 . S
C2359 H2350 0.930 . S
C2359 C2358 1.374 . S
C2359 C2360 1.383 . S
C2360 O2354 1.412 . S
C2360 C2359 1.383 . S
C2360 C2361 1.394 . S
C2361 H2351 0.929 . S
C2361 C2357 1.377 . S
C2361 C2360 1.394 . S
H2362 C2369 0.929 . S
H2363 C2372 0.930 . S
H2364 C2374 0.929 . S
H2365 C2366 0.969 . S
C2366 H2365 0.969 . S
C2366 O2367 1.550 . S
C2366 H2368 0.973 . S
O2367 C2366 1.550 . S
O2367 C2373 1.412 . S
H2368 C2366 0.973 . S
C2369 H2362 0.929 . S
C2369 C2370 1.400 . S
C2369 C2371 1.364 . S
C2370 C2369 1.400 . S
C2370 C2374 1.377 . S
C2371 C2369 1.364 . S
C2371 C2372 1.374 . S
C2372 H2363 0.930 . S
C2372 C2371 1.374 . S
C2372 C2373 1.383 . S
C2373 O2367 1.412 . S
C2373 C2372 1.383 . S
C2373 C2374 1.394 . S
C2374 H2364 0.929 . S
C2374 C2370 1.377 . S
C2374 C2373 1.394 . S
H2375 C2382 0.929 . S
H2376 C2385 0.930 . S
H2377 C2387 0.929 . S
H2378 C2379 0.969 . S
C2379 H2378 0.969 . S
C2379 O2380 1.550 . S
C2379 H2381 0.973 . S
O2380 C2379 1.550 . S
O2380 C2386 1.412 . S
H2381 C2379 0.973 . S
C2382 H2375 0.929 . S
C2382 C2383 1.400 . S
C2382 C2384 1.364 . S
C2383 C2382 1.400 . S
C2383 C2387 1.377 . S
C2384 C2382 1.364 . S
C2384 C2385 1.374 . S
C2385 H2376 0.930 . S
C2385 C2384 1.374 . S
C2385 C2386 1.383 . S
C2386 O2380 1.412 . S
C2386 C2385 1.383 . S
C2386 C2387 1.394 . S
C2387 H2377 0.929 . S
C2387 C2383 1.377 . S
C2387 C2386 1.394 . S
H2388 C2395 0.929 . S
H2389 C2398 0.930 . S
H2390 C2400 0.929 . S
H2391 C2392 0.969 . S
C2392 H2391 0.969 . S
C2392 O2393 1.550 . S
C2392 H2394 0.973 . S
O2393 C2392 1.550 . S
O2393 C2399 1.412 . S
H2394 C2392 0.973 . S
C2395 H2388 0.929 . S
C2395 C2396 1.400 . S
C2395 C2397 1.364 . S
C2396 C2395 1.400 . S
C2396 C2400 1.377 . S
C2397 C2395 1.364 . S
C2397 C2398 1.374 . S
C2398 H2389 0.930 . S
C2398 C2397 1.374 . S
C2398 C2399 1.383 . S
C2399 O2393 1.412 . S
C2399 C2398 1.383 . S
C2399 C2400 1.394 . S
C2400 H2390 0.929 . S
C2400 C2396 1.377 . S
C2400 C2399 1.394 . S
H2401 C2408 0.929 . S
H2402 C2411 0.930 . S
H2403 C2413 0.929 . S
H2404 C2405 0.969 . S
C2405 H2404 0.969 . S
C2405 O2406 1.550 . S
C2405 H2407 0.973 . S
O2406 C2405 1.550 . S
O2406 C2412 1.412 . S
H2407 C2405 0.973 . S
C2408 H2401 0.929 . S
C2408 C2409 1.400 . S
C2408 C2410 1.364 . S
C2409 C2408 1.400 . S
C2409 C2413 1.377 . S
C2410 C2408 1.364 . S
C2410 C2411 1.374 . S
C2411 H2402 0.930 . S
C2411 C2410 1.374 . S
C2411 C2412 1.383 . S
C2412 O2406 1.412 . S
C2412 C2411 1.383 . S
C2412 C2413 1.394 . S
C2413 H2403 0.929 . S
C2413 C2409 1.377 . S
C2413 C2412 1.394 . S
H2414 C2421 0.929 . S
H2415 C2424 0.930 . S
H2416 C2426 0.929 . S
H2417 C2418 0.969 . S
C2418 H2417 0.969 . S
C2418 O2419 1.550 . S
C2418 H2420 0.973 . S
O2419 C2418 1.550 . S
O2419 C2425 1.412 . S
H2420 C2418 0.973 . S
C2421 H2414 0.929 . S
C2421 C2422 1.400 . S
C2421 C2423 1.364 . S
C2422 C2421 1.400 . S
C2422 C2426 1.377 . S
C2423 C2421 1.364 . S
C2423 C2424 1.374 . S
C2424 H2415 0.930 . S
C2424 C2423 1.374 . S
C2424 C2425 1.383 . S
C2425 O2419 1.412 . S
C2425 C2424 1.383 . S
C2425 C2426 1.394 . S
C2426 H2416 0.929 . S
C2426 C2422 1.377 . S
C2426 C2425 1.394 . S
H2427 C2434 0.929 . S
H2428 C2437 0.930 . S
H2429 C2439 0.929 . S
H2430 C2431 0.969 . S
C2431 H2430 0.969 . S
C2431 O2432 1.550 . S
C2431 H2433 0.973 . S
O2432 C2431 1.550 . S
O2432 C2438 1.412 . S
H2433 C2431 0.973 . S
C2434 H2427 0.929 . S
C2434 C2435 1.400 . S
C2434 C2436 1.364 . S
C2435 C2434 1.400 . S
C2435 C2439 1.377 . S
C2436 C2434 1.364 . S
C2436 C2437 1.374 . S
C2437 H2428 0.930 . S
C2437 C2436 1.374 . S
C2437 C2438 1.383 . S
C2438 O2432 1.412 . S
C2438 C2437 1.383 . S
C2438 C2439 1.394 . S
C2439 H2429 0.929 . S
C2439 C2435 1.377 . S
C2439 C2438 1.394 . S
H2440 C2447 0.929 . S
H2441 C2450 0.930 . S
H2442 C2452 0.929 . S
H2443 C2444 0.969 . S
C2444 H2443 0.969 . S
C2444 O2445 1.550 . S
C2444 H2446 0.973 . S
O2445 C2444 1.550 . S
O2445 C2451 1.412 . S
H2446 C2444 0.973 . S
C2447 H2440 0.929 . S
C2447 C2448 1.400 . S
C2447 C2449 1.364 . S
C2448 C2447 1.400 . S
C2448 C2452 1.377 . S
C2449 C2447 1.364 . S
C2449 C2450 1.374 . S
C2450 H2441 0.930 . S
C2450 C2449 1.374 . S
C2450 C2451 1.383 . S
C2451 O2445 1.412 . S
C2451 C2450 1.383 . S
C2451 C2452 1.394 . S
C2452 H2442 0.929 . S
C2452 C2448 1.377 . S
C2452 C2451 1.394 . S
H2453 C2460 0.929 . S
H2454 C2463 0.930 . S
H2455 C2465 0.929 . S
H2456 C2457 0.969 . S
C2457 H2456 0.969 . S
C2457 O2458 1.550 . S
C2457 H2459 0.973 . S
O2458 C2457 1.550 . S
O2458 C2464 1.412 . S
H2459 C2457 0.973 . S
C2460 H2453 0.929 . S
C2460 C2461 1.400 . S
C2460 C2462 1.364 . S
C2461 C2460 1.400 . S
C2461 C2465 1.377 . S
C2462 C2460 1.364 . S
C2462 C2463 1.374 . S
C2463 H2454 0.930 . S
C2463 C2462 1.374 . S
C2463 C2464 1.383 . S
C2464 O2458 1.412 . S
C2464 C2463 1.383 . S
C2464 C2465 1.394 . S
C2465 H2455 0.929 . S
C2465 C2461 1.377 . S
C2465 C2464 1.394 . S
H2466 C2473 0.929 . S
H2467 C2476 0.930 . S
H2468 C2478 0.929 . S
H2469 C2470 0.969 . S
C2470 H2469 0.969 . S
C2470 O2471 1.550 . S
C2470 H2472 0.973 . S
O2471 C2470 1.550 . S
O2471 C2477 1.412 . S
H2472 C2470 0.973 . S
C2473 H2466 0.929 . S
C2473 C2474 1.400 . S
C2473 C2475 1.364 . S
C2474 C2473 1.400 . S
C2474 C2478 1.377 . S
C2475 C2473 1.364 . S
C2475 C2476 1.374 . S
C2476 H2467 0.930 . S
C2476 C2475 1.374 . S
C2476 C2477 1.383 . S
C2477 O2471 1.412 . S
C2477 C2476 1.383 . S
C2477 C2478 1.394 . S
C2478 H2468 0.929 . S
C2478 C2474 1.377 . S
C2478 C2477 1.394 . S
H2479 C2486 0.929 . S
H2480 C2489 0.930 . S
H2481 C2491 0.929 . S
H2482 C2483 0.969 . S
C2483 H2482 0.969 . S
C2483 O2484 1.550 . S
C2483 H2485 0.973 . S
O2484 C2483 1.550 . S
O2484 C2490 1.412 . S
H2485 C2483 0.973 . S
C2486 H2479 0.929 . S
C2486 C2487 1.400 . S
C2486 C2488 1.364 . S
C2487 C2486 1.400 . S
C2487 C2491 1.377 . S
C2488 C2486 1.364 . S
C2488 C2489 1.374 . S
C2489 H2480 0.930 . S
C2489 C2488 1.374 . S
C2489 C2490 1.383 . S
C2490 O2484 1.412 . S
C2490 C2489 1.383 . S
C2490 C2491 1.394 . S
C2491 H2481 0.929 . S
C2491 C2487 1.377 . S
C2491 C2490 1.394 . S
H2492 C2499 0.929 . S
H2493 C2502 0.930 . S
H2494 C2504 0.929 . S
H2495 C2496 0.969 . S
C2496 H2495 0.969 . S
C2496 O2497 1.550 . S
C2496 H2498 0.973 . S
O2497 C2496 1.550 . S
O2497 C2503 1.412 . S
H2498 C2496 0.973 . S
C2499 H2492 0.929 . S
C2499 C2500 1.400 . S
C2499 C2501 1.364 . S
C2500 C2499 1.400 . S
C2500 C2504 1.377 . S
C2501 C2499 1.364 . S
C2501 C2502 1.374 . S
C2502 H2493 0.930 . S
C2502 C2501 1.374 . S
C2502 C2503 1.383 . S
C2503 O2497 1.412 . S
C2503 C2502 1.383 . S
C2503 C2504 1.394 . S
C2504 H2494 0.929 . S
C2504 C2500 1.377 . S
C2504 C2503 1.394 . S
H2505 C2512 0.929 . S
H2506 C2515 0.930 . S
H2507 C2517 0.929 . S
H2508 C2509 0.969 . S
C2509 H2508 0.969 . S
C2509 O2510 1.550 . S
C2509 H2511 0.973 . S
O2510 C2509 1.550 . S
O2510 C2516 1.412 . S
H2511 C2509 0.973 . S
C2512 H2505 0.929 . S
C2512 C2513 1.400 . S
C2512 C2514 1.364 . S
C2513 C2512 1.400 . S
C2513 C2517 1.377 . S
C2514 C2512 1.364 . S
C2514 C2515 1.374 . S
C2515 H2506 0.930 . S
C2515 C2514 1.374 . S
C2515 C2516 1.383 . S
C2516 O2510 1.412 . S
C2516 C2515 1.383 . S
C2516 C2517 1.394 . S
C2517 H2507 0.929 . S
C2517 C2513 1.377 . S
C2517 C2516 1.394 . S
H2518 C2525 0.929 . S
H2519 C2528 0.930 . S
H2520 C2530 0.929 . S
H2521 C2522 0.969 . S
C2522 H2521 0.969 . S
C2522 O2523 1.550 . S
C2522 H2524 0.973 . S
O2523 C2522 1.550 . S
O2523 C2529 1.412 . S
H2524 C2522 0.973 . S
C2525 H2518 0.929 . S
C2525 C2526 1.400 . S
C2525 C2527 1.364 . S
C2526 C2525 1.400 . S
C2526 C2530 1.377 . S
C2527 C2525 1.364 . S
C2527 C2528 1.374 . S
C2528 H2519 0.930 . S
C2528 C2527 1.374 . S
C2528 C2529 1.383 . S
C2529 O2523 1.412 . S
C2529 C2528 1.383 . S
C2529 C2530 1.394 . S
C2530 H2520 0.929 . S
C2530 C2526 1.377 . S
C2530 C2529 1.394 . S
H2531 C2538 0.929 . S
H2532 C2541 0.930 . S
H2533 C2543 0.929 . S
H2534 C2535 0.969 . S
C2535 H2534 0.969 . S
C2535 O2536 1.550 . S
C2535 H2537 0.973 . S
O2536 C2535 1.550 . S
O2536 C2542 1.412 . S
H2537 C2535 0.973 . S
C2538 H2531 0.929 . S
C2538 C2539 1.400 . S
C2538 C2540 1.364 . S
C2539 C2538 1.400 . S
C2539 C2543 1.377 . S
C2540 C2538 1.364 . S
C2540 C2541 1.374 . S
C2541 H2532 0.930 . S
C2541 C2540 1.374 . S
C2541 C2542 1.383 . S
C2542 O2536 1.412 . S
C2542 C2541 1.383 . S
C2542 C2543 1.394 . S
C2543 H2533 0.929 . S
C2543 C2539 1.377 . S
C2543 C2542 1.394 . S
H2544 C2550 0.930 . S
H2545 C2554 0.930 . S
H2546 C2559 0.929 . S
H2547 C2557 0.929 . S
H2548 C2552 0.929 . S
H2549 C2558 0.929 . S
C2550 H2544 0.930 . S
C2550 C2551 1.367 . S
C2550 C2558 1.378 . S
C2551 C2550 1.367 . S
C2551 C2559 1.433 . S
C2552 H2548 0.929 . S
C2552 C2554 1.378 . S
C2552 C2556 1.350 . S
C2553 C2556 1.463 . S
C2553 C2558 1.350 . S
C2553 N2561 1.427 . S
C2554 H2545 0.930 . S
C2554 C2552 1.378 . S
C2554 C2555 1.367 . S
C2555 C2554 1.367 . S
C2555 C2557 1.433 . S
C2556 C2552 1.350 . S
C2556 C2553 1.463 . S
C2556 N2560 1.427 . S
C2557 H2547 0.929 . S
C2557 C2555 1.433 . S
C2557 N2560 1.384 . S
C2558 H2549 0.929 . S
C2558 C2550 1.378 . S
C2558 C2553 1.350 . S
C2559 H2546 0.929 . S
C2559 C2551 1.433 . S
C2559 N2561 1.384 . S
N2560 C2556 1.427 . S
N2560 C2557 1.384 . S
N2561 C2553 1.427 . S
N2561 C2559 1.384 . S
H2562 C2568 0.930 . S
H2563 C2572 0.930 . S
H2564 C2577 0.929 . S
H2565 C2575 0.929 . S
H2566 C2570 0.929 . S
H2567 C2576 0.929 . S
C2568 H2562 0.930 . S
C2568 C2569 1.367 . S
C2568 C2576 1.378 . S
C2569 C2568 1.367 . S
C2569 C2577 1.433 . S
C2570 H2566 0.929 . S
C2570 C2572 1.378 . S
C2570 C2574 1.350 . S
C2571 C2574 1.463 . S
C2571 C2576 1.350 . S
C2571 N2579 1.427 . S
C2572 H2563 0.930 . S
C2572 C2570 1.378 . S
C2572 C2573 1.367 . S
C2573 C2572 1.367 . S
C2573 C2575 1.433 . S
C2574 C2570 1.350 . S
C2574 C2571 1.463 . S
C2574 N2578 1.427 . S
C2575 H2565 0.929 . S
C2575 C2573 1.433 . S
C2575 N2578 1.384 . S
C2576 H2567 0.929 . S
C2576 C2568 1.378 . S
C2576 C2571 1.350 . S
C2577 H2564 0.929 . S
C2577 C2569 1.433 . S
C2577 N2579 1.384 . S
N2578 C2574 1.427 . S
N2578 C2575 1.384 . S
N2579 C2571 1.427 . S
N2579 C2577 1.384 . S
H2580 C2586 0.930 . S
H2581 C2590 0.930 . S
H2582 C2595 0.929 . S
H2583 C2593 0.929 . S
H2584 C2588 0.929 . S
H2585 C2594 0.929 . S
C2586 H2580 0.930 . S
C2586 C2587 1.367 . S
C2586 C2594 1.378 . S
C2587 C2586 1.367 . S
C2587 C2595 1.433 . S
C2588 H2584 0.929 . S
C2588 C2590 1.378 . S
C2588 C2592 1.350 . S
C2589 C2592 1.463 . S
C2589 C2594 1.350 . S
C2589 N2597 1.427 . S
C2590 H2581 0.930 . S
C2590 C2588 1.378 . S
C2590 C2591 1.367 . S
C2591 C2590 1.367 . S
C2591 C2593 1.433 . S
C2592 C2588 1.350 . S
C2592 C2589 1.463 . S
C2592 N2596 1.427 . S
C2593 H2583 0.929 . S
C2593 C2591 1.433 . S
C2593 N2596 1.384 . S
C2594 H2585 0.929 . S
C2594 C2586 1.378 . S
C2594 C2589 1.350 . S
C2595 H2582 0.929 . S
C2595 C2587 1.433 . S
C2595 N2597 1.384 . S
N2596 C2592 1.427 . S
N2596 C2593 1.384 . S
N2597 C2589 1.427 . S
N2597 C2595 1.384 . S
H2598 C2604 0.930 . S
H2599 C2608 0.930 . S
H2600 C2613 0.929 . S
H2601 C2611 0.929 . S
H2602 C2606 0.929 . S
H2603 C2612 0.929 . S
C2604 H2598 0.930 . S
C2604 C2605 1.367 . S
C2604 C2612 1.378 . S
C2605 C2604 1.367 . S
C2605 C2613 1.433 . S
C2606 H2602 0.929 . S
C2606 C2608 1.378 . S
C2606 C2610 1.350 . S
C2607 C2610 1.463 . S
C2607 C2612 1.350 . S
C2607 N2615 1.427 . S
C2608 H2599 0.930 . S
C2608 C2606 1.378 . S
C2608 C2609 1.367 . S
C2609 C2608 1.367 . S
C2609 C2611 1.433 . S
C2610 C2606 1.350 . S
C2610 C2607 1.463 . S
C2610 N2614 1.427 . S
C2611 H2601 0.929 . S
C2611 C2609 1.433 . S
C2611 N2614 1.384 . S
C2612 H2603 0.929 . S
C2612 C2604 1.378 . S
C2612 C2607 1.350 . S
C2613 H2600 0.929 . S
C2613 C2605 1.433 . S
C2613 N2615 1.384 . S
N2614 C2610 1.427 . S
N2614 C2611 1.384 . S
N2615 C2607 1.427 . S
N2615 C2613 1.384 . S
H2616 C2622 0.930 . S
H2617 C2626 0.930 . S
H2618 C2631 0.929 . S
H2619 C2629 0.929 . S
H2620 C2624 0.929 . S
H2621 C2630 0.929 . S
C2622 H2616 0.930 . S
C2622 C2623 1.367 . S
C2622 C2630 1.378 . S
C2623 C2622 1.367 . S
C2623 C2631 1.433 . S
C2624 H2620 0.929 . S
C2624 C2626 1.378 . S
C2624 C2628 1.350 . S
C2625 C2628 1.463 . S
C2625 C2630 1.350 . S
C2625 N2633 1.427 . S
C2626 H2617 0.930 . S
C2626 C2624 1.378 . S
C2626 C2627 1.367 . S
C2627 C2626 1.367 . S
C2627 C2629 1.433 . S
C2628 C2624 1.350 . S
C2628 C2625 1.463 . S
C2628 N2632 1.427 . S
C2629 H2619 0.929 . S
C2629 C2627 1.433 . S
C2629 N2632 1.384 . S
C2630 H2621 0.929 . S
C2630 C2622 1.378 . S
C2630 C2625 1.350 . S
C2631 H2618 0.929 . S
C2631 C2623 1.433 . S
C2631 N2633 1.384 . S
N2632 C2628 1.427 . S
N2632 C2629 1.384 . S
N2633 C2625 1.427 . S
N2633 C2631 1.384 . S
H2634 C2640 0.930 . S
H2635 C2644 0.930 . S
H2636 C2649 0.929 . S
H2637 C2647 0.929 . S
H2638 C2642 0.929 . S
H2639 C2648 0.929 . S
C2640 H2634 0.930 . S
C2640 C2641 1.367 . S
C2640 C2648 1.378 . S
C2641 C2640 1.367 . S
C2641 C2649 1.433 . S
C2642 H2638 0.929 . S
C2642 C2644 1.378 . S
C2642 C2646 1.350 . S
C2643 C2646 1.463 . S
C2643 C2648 1.350 . S
C2643 N2651 1.427 . S
C2644 H2635 0.930 . S
C2644 C2642 1.378 . S
C2644 C2645 1.367 . S
C2645 C2644 1.367 . S
C2645 C2647 1.433 . S
C2646 C2642 1.350 . S
C2646 C2643 1.463 . S
C2646 N2650 1.427 . S
C2647 H2637 0.929 . S
C2647 C2645 1.433 . S
C2647 N2650 1.384 . S
C2648 H2639 0.929 . S
C2648 C2640 1.378 . S
C2648 C2643 1.350 . S
C2649 H2636 0.929 . S
C2649 C2641 1.433 . S
C2649 N2651 1.384 . S
N2650 C2646 1.427 . S
N2650 C2647 1.384 . S
N2651 C2643 1.427 . S
N2651 C2649 1.384 . S
H2652 C2658 0.930 . S
H2653 C2662 0.930 . S
H2654 C2667 0.929 . S
H2655 C2665 0.929 . S
H2656 C2660 0.929 . S
H2657 C2666 0.929 . S
C2658 H2652 0.930 . S
C2658 C2659 1.367 . S
C2658 C2666 1.378 . S
C2659 C2658 1.367 . S
C2659 C2667 1.433 . S
C2660 H2656 0.929 . S
C2660 C2662 1.378 . S
C2660 C2664 1.350 . S
C2661 C2664 1.463 . S
C2661 C2666 1.350 . S
C2661 N2669 1.427 . S
C2662 H2653 0.930 . S
C2662 C2660 1.378 . S
C2662 C2663 1.367 . S
C2663 C2662 1.367 . S
C2663 C2665 1.433 . S
C2664 C2660 1.350 . S
C2664 C2661 1.463 . S
C2664 N2668 1.427 . S
C2665 H2655 0.929 . S
C2665 C2663 1.433 . S
C2665 N2668 1.384 . S
C2666 H2657 0.929 . S
C2666 C2658 1.378 . S
C2666 C2661 1.350 . S
C2667 H2654 0.929 . S
C2667 C2659 1.433 . S
C2667 N2669 1.384 . S
N2668 C2664 1.427 . S
N2668 C2665 1.384 . S
N2669 C2661 1.427 . S
N2669 C2667 1.384 . S
H2670 C2676 0.930 . S
H2671 C2680 0.930 . S
H2672 C2685 0.929 . S
H2673 C2683 0.929 . S
H2674 C2678 0.929 . S
H2675 C2684 0.929 . S
C2676 H2670 0.930 . S
C2676 C2677 1.367 . S
C2676 C2684 1.378 . S
C2677 C2676 1.367 . S
C2677 C2685 1.433 . S
C2678 H2674 0.929 . S
C2678 C2680 1.378 . S
C2678 C2682 1.350 . S
C2679 C2682 1.463 . S
C2679 C2684 1.350 . S
C2679 N2687 1.427 . S
C2680 H2671 0.930 . S
C2680 C2678 1.378 . S
C2680 C2681 1.367 . S
C2681 C2680 1.367 . S
C2681 C2683 1.433 . S
C2682 C2678 1.350 . S
C2682 C2679 1.463 . S
C2682 N2686 1.427 . S
C2683 H2673 0.929 . S
C2683 C2681 1.433 . S
C2683 N2686 1.384 . S
C2684 H2675 0.929 . S
C2684 C2676 1.378 . S
C2684 C2679 1.350 . S
C2685 H2672 0.929 . S
C2685 C2677 1.433 . S
C2685 N2687 1.384 . S
N2686 C2682 1.427 . S
N2686 C2683 1.384 . S
N2687 C2679 1.427 . S
N2687 C2685 1.384 . S
H2688 C2694 0.930 . S
H2689 C2698 0.930 . S
H2690 C2703 0.929 . S
H2691 C2701 0.929 . S
H2692 C2696 0.929 . S
H2693 C2702 0.929 . S
C2694 H2688 0.930 . S
C2694 C2695 1.367 . S
C2694 C2702 1.378 . S
C2695 C2694 1.367 . S
C2695 C2703 1.433 . S
C2696 H2692 0.929 . S
C2696 C2698 1.378 . S
C2696 C2700 1.350 . S
C2697 C2700 1.463 . S
C2697 C2702 1.350 . S
C2697 N2705 1.427 . S
C2698 H2689 0.930 . S
C2698 C2696 1.378 . S
C2698 C2699 1.367 . S
C2699 C2698 1.367 . S
C2699 C2701 1.433 . S
C2700 C2696 1.350 . S
C2700 C2697 1.463 . S
C2700 N2704 1.427 . S
C2701 H2691 0.929 . S
C2701 C2699 1.433 . S
C2701 N2704 1.384 . S
C2702 H2693 0.929 . S
C2702 C2694 1.378 . S
C2702 C2697 1.350 . S
C2703 H2690 0.929 . S
C2703 C2695 1.433 . S
C2703 N2705 1.384 . S
N2704 C2700 1.427 . S
N2704 C2701 1.384 . S
N2705 C2697 1.427 . S
N2705 C2703 1.384 . S
H2706 C2712 0.930 . S
H2707 C2716 0.930 . S
H2708 C2721 0.929 . S
H2709 C2719 0.929 . S
H2710 C2714 0.929 . S
H2711 C2720 0.929 . S
C2712 H2706 0.930 . S
C2712 C2713 1.367 . S
C2712 C2720 1.378 . S
C2713 C2712 1.367 . S
C2713 C2721 1.433 . S
C2714 H2710 0.929 . S
C2714 C2716 1.378 . S
C2714 C2718 1.350 . S
C2715 C2718 1.463 . S
C2715 C2720 1.350 . S
C2715 N2723 1.427 . S
C2716 H2707 0.930 . S
C2716 C2714 1.378 . S
C2716 C2717 1.367 . S
C2717 C2716 1.367 . S
C2717 C2719 1.433 . S
C2718 C2714 1.350 . S
C2718 C2715 1.463 . S
C2718 N2722 1.427 . S
C2719 H2709 0.929 . S
C2719 C2717 1.433 . S
C2719 N2722 1.384 . S
C2720 H2711 0.929 . S
C2720 C2712 1.378 . S
C2720 C2715 1.350 . S
C2721 H2708 0.929 . S
C2721 C2713 1.433 . S
C2721 N2723 1.384 . S
N2722 C2718 1.427 . S
N2722 C2719 1.384 . S
N2723 C2715 1.427 . S
N2723 C2721 1.384 . S
H2724 C2730 0.930 . S
H2725 C2734 0.930 . S
H2726 C2739 0.929 . S
H2727 C2737 0.929 . S
H2728 C2732 0.929 . S
H2729 C2738 0.929 . S
C2730 H2724 0.930 . S
C2730 C2731 1.367 . S
C2730 C2738 1.378 . S
C2731 C2730 1.367 . S
C2731 C2739 1.433 . S
C2732 H2728 0.929 . S
C2732 C2734 1.378 . S
C2732 C2736 1.350 . S
C2733 C2736 1.463 . S
C2733 C2738 1.350 . S
C2733 N2741 1.427 . S
C2734 H2725 0.930 . S
C2734 C2732 1.378 . S
C2734 C2735 1.367 . S
C2735 C2734 1.367 . S
C2735 C2737 1.433 . S
C2736 C2732 1.350 . S
C2736 C2733 1.463 . S
C2736 N2740 1.427 . S
C2737 H2727 0.929 . S
C2737 C2735 1.433 . S
C2737 N2740 1.384 . S
C2738 H2729 0.929 . S
C2738 C2730 1.378 . S
C2738 C2733 1.350 . S
C2739 H2726 0.929 . S
C2739 C2731 1.433 . S
C2739 N2741 1.384 . S
N2740 C2736 1.427 . S
N2740 C2737 1.384 . S
N2741 C2733 1.427 . S
N2741 C2739 1.384 . S
H2742 C2748 0.930 . S
H2743 C2752 0.930 . S
H2744 C2757 0.929 . S
H2745 C2755 0.929 . S
H2746 C2750 0.929 . S
H2747 C2756 0.929 . S
C2748 H2742 0.930 . S
C2748 C2749 1.367 . S
C2748 C2756 1.378 . S
C2749 C2748 1.367 . S
C2749 C2757 1.433 . S
C2750 H2746 0.929 . S
C2750 C2752 1.378 . S
C2750 C2754 1.350 . S
C2751 C2754 1.463 . S
C2751 C2756 1.350 . S
C2751 N2759 1.427 . S
C2752 H2743 0.930 . S
C2752 C2750 1.378 . S
C2752 C2753 1.367 . S
C2753 C2752 1.367 . S
C2753 C2755 1.433 . S
C2754 C2750 1.350 . S
C2754 C2751 1.463 . S
C2754 N2758 1.427 . S
C2755 H2745 0.929 . S
C2755 C2753 1.433 . S
C2755 N2758 1.384 . S
C2756 H2747 0.929 . S
C2756 C2748 1.378 . S
C2756 C2751 1.350 . S
C2757 H2744 0.929 . S
C2757 C2749 1.433 . S
C2757 N2759 1.384 . S
N2758 C2754 1.427 . S
N2758 C2755 1.384 . S
N2759 C2751 1.427 . S
N2759 C2757 1.384 . S
H2760 C2766 0.930 . S
H2761 C2770 0.930 . S
H2762 C2775 0.929 . S
H2763 C2773 0.929 . S
H2764 C2768 0.929 . S
H2765 C2774 0.929 . S
C2766 H2760 0.930 . S
C2766 C2767 1.367 . S
C2766 C2774 1.378 . S
C2767 C2766 1.367 . S
C2767 C2775 1.433 . S
C2768 H2764 0.929 . S
C2768 C2770 1.378 . S
C2768 C2772 1.350 . S
C2769 C2772 1.463 . S
C2769 C2774 1.350 . S
C2769 N2777 1.427 . S
C2770 H2761 0.930 . S
C2770 C2768 1.378 . S
C2770 C2771 1.367 . S
C2771 C2770 1.367 . S
C2771 C2773 1.433 . S
C2772 C2768 1.350 . S
C2772 C2769 1.463 . S
C2772 N2776 1.427 . S
C2773 H2763 0.929 . S
C2773 C2771 1.433 . S
C2773 N2776 1.384 . S
C2774 H2765 0.929 . S
C2774 C2766 1.378 . S
C2774 C2769 1.350 . S
C2775 H2762 0.929 . S
C2775 C2767 1.433 . S
C2775 N2777 1.384 . S
N2776 C2772 1.427 . S
N2776 C2773 1.384 . S
N2777 C2769 1.427 . S
N2777 C2775 1.384 . S
H2778 C2784 0.930 . S
H2779 C2788 0.930 . S
H2780 C2793 0.929 . S
H2781 C2791 0.929 . S
H2782 C2786 0.929 . S
H2783 C2792 0.929 . S
C2784 H2778 0.930 . S
C2784 C2785 1.367 . S
C2784 C2792 1.378 . S
C2785 C2784 1.367 . S
C2785 C2793 1.433 . S
C2786 H2782 0.929 . S
C2786 C2788 1.378 . S
C2786 C2790 1.350 . S
C2787 C2790 1.463 . S
C2787 C2792 1.350 . S
C2787 N2795 1.427 . S
C2788 H2779 0.930 . S
C2788 C2786 1.378 . S
C2788 C2789 1.367 . S
C2789 C2788 1.367 . S
C2789 C2791 1.433 . S
C2790 C2786 1.350 . S
C2790 C2787 1.463 . S
C2790 N2794 1.427 . S
C2791 H2781 0.929 . S
C2791 C2789 1.433 . S
C2791 N2794 1.384 . S
C2792 H2783 0.929 . S
C2792 C2784 1.378 . S
C2792 C2787 1.350 . S
C2793 H2780 0.929 . S
C2793 C2785 1.433 . S
C2793 N2795 1.384 . S
N2794 C2790 1.427 . S
N2794 C2791 1.384 . S
N2795 C2787 1.427 . S
N2795 C2793 1.384 . S
H2796 C2802 0.930 . S
H2797 C2806 0.930 . S
H2798 C2811 0.929 . S
H2799 C2809 0.929 . S
H2800 C2804 0.929 . S
H2801 C2810 0.929 . S
C2802 H2796 0.930 . S
C2802 C2803 1.367 . S
C2802 C2810 1.378 . S
C2803 C2802 1.367 . S
C2803 C2811 1.433 . S
C2804 H2800 0.929 . S
C2804 C2806 1.378 . S
C2804 C2808 1.350 . S
C2805 C2808 1.463 . S
C2805 C2810 1.350 . S
C2805 N2813 1.427 . S
C2806 H2797 0.930 . S
C2806 C2804 1.378 . S
C2806 C2807 1.367 . S
C2807 C2806 1.367 . S
C2807 C2809 1.433 . S
C2808 C2804 1.350 . S
C2808 C2805 1.463 . S
C2808 N2812 1.427 . S
C2809 H2799 0.929 . S
C2809 C2807 1.433 . S
C2809 N2812 1.384 . S
C2810 H2801 0.929 . S
C2810 C2802 1.378 . S
C2810 C2805 1.350 . S
C2811 H2798 0.929 . S
C2811 C2803 1.433 . S
C2811 N2813 1.384 . S
N2812 C2808 1.427 . S
N2812 C2809 1.384 . S
N2813 C2805 1.427 . S
N2813 C2811 1.384 . S
H2814 C2820 0.930 . S
H2815 C2824 0.930 . S
H2816 C2829 0.929 . S
H2817 C2827 0.929 . S
H2818 C2822 0.929 . S
H2819 C2828 0.929 . S
C2820 H2814 0.930 . S
C2820 C2821 1.367 . S
C2820 C2828 1.378 . S
C2821 C2820 1.367 . S
C2821 C2829 1.433 . S
C2822 H2818 0.929 . S
C2822 C2824 1.378 . S
C2822 C2826 1.350 . S
C2823 C2826 1.463 . S
C2823 C2828 1.350 . S
C2823 N2831 1.427 . S
C2824 H2815 0.930 . S
C2824 C2822 1.378 . S
C2824 C2825 1.367 . S
C2825 C2824 1.367 . S
C2825 C2827 1.433 . S
C2826 C2822 1.350 . S
C2826 C2823 1.463 . S
C2826 N2830 1.427 . S
C2827 H2817 0.929 . S
C2827 C2825 1.433 . S
C2827 N2830 1.384 . S
C2828 H2819 0.929 . S
C2828 C2820 1.378 . S
C2828 C2823 1.350 . S
C2829 H2816 0.929 . S
C2829 C2821 1.433 . S
C2829 N2831 1.384 . S
N2830 C2826 1.427 . S
N2830 C2827 1.384 . S
N2831 C2823 1.427 . S
N2831 C2829 1.384 . S
H2832 C2838 0.930 . S
H2833 C2842 0.930 . S
H2834 C2847 0.929 . S
H2835 C2845 0.929 . S
H2836 C2840 0.929 . S
H2837 C2846 0.929 . S
C2838 H2832 0.930 . S
C2838 C2839 1.367 . S
C2838 C2846 1.378 . S
C2839 C2838 1.367 . S
C2839 C2847 1.433 . S
C2840 H2836 0.929 . S
C2840 C2842 1.378 . S
C2840 C2844 1.350 . S
C2841 C2844 1.463 . S
C2841 C2846 1.350 . S
C2841 N2849 1.427 . S
C2842 H2833 0.930 . S
C2842 C2840 1.378 . S
C2842 C2843 1.367 . S
C2843 C2842 1.367 . S
C2843 C2845 1.433 . S
C2844 C2840 1.350 . S
C2844 C2841 1.463 . S
C2844 N2848 1.427 . S
C2845 H2835 0.929 . S
C2845 C2843 1.433 . S
C2845 N2848 1.384 . S
C2846 H2837 0.929 . S
C2846 C2838 1.378 . S
C2846 C2841 1.350 . S
C2847 H2834 0.929 . S
C2847 C2839 1.433 . S
C2847 N2849 1.384 . S
N2848 C2844 1.427 . S
N2848 C2845 1.384 . S
N2849 C2841 1.427 . S
N2849 C2847 1.384 . S
H2850 C2856 0.930 . S
H2851 C2860 0.930 . S
H2852 C2865 0.929 . S
H2853 C2863 0.929 . S
H2854 C2858 0.929 . S
H2855 C2864 0.929 . S
C2856 H2850 0.930 . S
C2856 C2857 1.367 . S
C2856 C2864 1.378 . S
C2857 C2856 1.367 . S
C2857 C2865 1.433 . S
C2858 H2854 0.929 . S
C2858 C2860 1.378 . S
C2858 C2862 1.350 . S
C2859 C2862 1.463 . S
C2859 C2864 1.350 . S
C2859 N2867 1.427 . S
C2860 H2851 0.930 . S
C2860 C2858 1.378 . S
C2860 C2861 1.367 . S
C2861 C2860 1.367 . S
C2861 C2863 1.433 . S
C2862 C2858 1.350 . S
C2862 C2859 1.463 . S
C2862 N2866 1.427 . S
C2863 H2853 0.929 . S
C2863 C2861 1.433 . S
C2863 N2866 1.384 . S
C2864 H2855 0.929 . S
C2864 C2856 1.378 . S
C2864 C2859 1.350 . S
C2865 H2852 0.929 . S
C2865 C2857 1.433 . S
C2865 N2867 1.384 . S
N2866 C2862 1.427 . S
N2866 C2863 1.384 . S
N2867 C2859 1.427 . S
N2867 C2865 1.384 . S
H2868 C2874 0.930 . S
H2869 C2878 0.930 . S
H2870 C2883 0.929 . S
H2871 C2881 0.929 . S
H2872 C2876 0.929 . S
H2873 C2882 0.929 . S
C2874 H2868 0.930 . S
C2874 C2875 1.367 . S
C2874 C2882 1.378 . S
C2875 C2874 1.367 . S
C2875 C2883 1.433 . S
C2876 H2872 0.929 . S
C2876 C2878 1.378 . S
C2876 C2880 1.350 . S
C2877 C2880 1.463 . S
C2877 C2882 1.350 . S
C2877 N2885 1.427 . S
C2878 H2869 0.930 . S
C2878 C2876 1.378 . S
C2878 C2879 1.367 . S
C2879 C2878 1.367 . S
C2879 C2881 1.433 . S
C2880 C2876 1.350 . S
C2880 C2877 1.463 . S
C2880 N2884 1.427 . S
C2881 H2871 0.929 . S
C2881 C2879 1.433 . S
C2881 N2884 1.384 . S
C2882 H2873 0.929 . S
C2882 C2874 1.378 . S
C2882 C2877 1.350 . S
C2883 H2870 0.929 . S
C2883 C2875 1.433 . S
C2883 N2885 1.384 . S
N2884 C2880 1.427 . S
N2884 C2881 1.384 . S
N2885 C2877 1.427 . S
N2885 C2883 1.384 . S
H2886 C2892 0.930 . S
H2887 C2896 0.930 . S
H2888 C2901 0.929 . S
H2889 C2899 0.929 . S
H2890 C2894 0.929 . S
H2891 C2900 0.929 . S
C2892 H2886 0.930 . S
C2892 C2893 1.367 . S
C2892 C2900 1.378 . S
C2893 C2892 1.367 . S
C2893 C2901 1.433 . S
C2894 H2890 0.929 . S
C2894 C2896 1.378 . S
C2894 C2898 1.350 . S
C2895 C2898 1.463 . S
C2895 C2900 1.350 . S
C2895 N2903 1.427 . S
C2896 H2887 0.930 . S
C2896 C2894 1.378 . S
C2896 C2897 1.367 . S
C2897 C2896 1.367 . S
C2897 C2899 1.433 . S
C2898 C2894 1.350 . S
C2898 C2895 1.463 . S
C2898 N2902 1.427 . S
C2899 H2889 0.929 . S
C2899 C2897 1.433 . S
C2899 N2902 1.384 . S
C2900 H2891 0.929 . S
C2900 C2892 1.378 . S
C2900 C2895 1.350 . S
C2901 H2888 0.929 . S
C2901 C2893 1.433 . S
C2901 N2903 1.384 . S
N2902 C2898 1.427 . S
N2902 C2899 1.384 . S
N2903 C2895 1.427 . S
N2903 C2901 1.384 . S
H2904 C2910 0.930 . S
H2905 C2914 0.930 . S
H2906 C2919 0.929 . S
H2907 C2917 0.929 . S
H2908 C2912 0.929 . S
H2909 C2918 0.929 . S
C2910 H2904 0.930 . S
C2910 C2911 1.367 . S
C2910 C2918 1.378 . S
C2911 C2910 1.367 . S
C2911 C2919 1.433 . S
C2912 H2908 0.929 . S
C2912 C2914 1.378 . S
C2912 C2916 1.350 . S
C2913 C2916 1.463 . S
C2913 C2918 1.350 . S
C2913 N2921 1.427 . S
C2914 H2905 0.930 . S
C2914 C2912 1.378 . S
C2914 C2915 1.367 . S
C2915 C2914 1.367 . S
C2915 C2917 1.433 . S
C2916 C2912 1.350 . S
C2916 C2913 1.463 . S
C2916 N2920 1.427 . S
C2917 H2907 0.929 . S
C2917 C2915 1.433 . S
C2917 N2920 1.384 . S
C2918 H2909 0.929 . S
C2918 C2910 1.378 . S
C2918 C2913 1.350 . S
C2919 H2906 0.929 . S
C2919 C2911 1.433 . S
C2919 N2921 1.384 . S
N2920 C2916 1.427 . S
N2920 C2917 1.384 . S
N2921 C2913 1.427 . S
N2921 C2919 1.384 . S
H2922 C2928 0.930 . S
H2923 C2932 0.930 . S
H2924 C2937 0.929 . S
H2925 C2935 0.929 . S
H2926 C2930 0.929 . S
H2927 C2936 0.929 . S
C2928 H2922 0.930 . S
C2928 C2929 1.367 . S
C2928 C2936 1.378 . S
C2929 C2928 1.367 . S
C2929 C2937 1.433 . S
C2930 H2926 0.929 . S
C2930 C2932 1.378 . S
C2930 C2934 1.350 . S
C2931 C2934 1.463 . S
C2931 C2936 1.350 . S
C2931 N2939 1.427 . S
C2932 H2923 0.930 . S
C2932 C2930 1.378 . S
C2932 C2933 1.367 . S
C2933 C2932 1.367 . S
C2933 C2935 1.433 . S
C2934 C2930 1.350 . S
C2934 C2931 1.463 . S
C2934 N2938 1.427 . S
C2935 H2925 0.929 . S
C2935 C2933 1.433 . S
C2935 N2938 1.384 . S
C2936 H2927 0.929 . S
C2936 C2928 1.378 . S
C2936 C2931 1.350 . S
C2937 H2924 0.929 . S
C2937 C2929 1.433 . S
C2937 N2939 1.384 . S
N2938 C2934 1.427 . S
N2938 C2935 1.384 . S
N2939 C2931 1.427 . S
N2939 C2937 1.384 . S
H2940 C2946 0.930 . S
H2941 C2950 0.930 . S
H2942 C2955 0.929 . S
H2943 C2953 0.929 . S
H2944 C2948 0.929 . S
H2945 C2954 0.929 . S
C2946 H2940 0.930 . S
C2946 C2947 1.367 . S
C2946 C2954 1.378 . S
C2947 C2946 1.367 . S
C2947 C2955 1.433 . S
C2948 H2944 0.929 . S
C2948 C2950 1.378 . S
C2948 C2952 1.350 . S
C2949 C2952 1.463 . S
C2949 C2954 1.350 . S
C2949 N2957 1.427 . S
C2950 H2941 0.930 . S
C2950 C2948 1.378 . S
C2950 C2951 1.367 . S
C2951 C2950 1.367 . S
C2951 C2953 1.433 . S
C2952 C2948 1.350 . S
C2952 C2949 1.463 . S
C2952 N2956 1.427 . S
C2953 H2943 0.929 . S
C2953 C2951 1.433 . S
C2953 N2956 1.384 . S
C2954 H2945 0.929 . S
C2954 C2946 1.378 . S
C2954 C2949 1.350 . S
C2955 H2942 0.929 . S
C2955 C2947 1.433 . S
C2955 N2957 1.384 . S
N2956 C2952 1.427 . S
N2956 C2953 1.384 . S
N2957 C2949 1.427 . S
N2957 C2955 1.384 . S
H2958 C2964 0.930 . S
H2959 C2968 0.930 . S
H2960 C2973 0.929 . S
H2961 C2971 0.929 . S
H2962 C2966 0.929 . S
H2963 C2972 0.929 . S
C2964 H2958 0.930 . S
C2964 C2965 1.367 . S
C2964 C2972 1.378 . S
C2965 C2964 1.367 . S
C2965 C2973 1.433 . S
C2966 H2962 0.929 . S
C2966 C2968 1.378 . S
C2966 C2970 1.350 . S
C2967 C2970 1.463 . S
C2967 C2972 1.350 . S
C2967 N2975 1.427 . S
C2968 H2959 0.930 . S
C2968 C2966 1.378 . S
C2968 C2969 1.367 . S
C2969 C2968 1.367 . S
C2969 C2971 1.433 . S
C2970 C2966 1.350 . S
C2970 C2967 1.463 . S
C2970 N2974 1.427 . S
C2971 H2961 0.929 . S
C2971 C2969 1.433 . S
C2971 N2974 1.384 . S
C2972 H2963 0.929 . S
C2972 C2964 1.378 . S
C2972 C2967 1.350 . S
C2973 H2960 0.929 . S
C2973 C2965 1.433 . S
C2973 N2975 1.384 . S
N2974 C2970 1.427 . S
N2974 C2971 1.384 . S
N2975 C2967 1.427 . S
N2975 C2973 1.384 . S
H2976 C2982 0.930 . S
H2977 C2986 0.930 . S
H2978 C2991 0.929 . S
H2979 C2989 0.929 . S
H2980 C2984 0.929 . S
H2981 C2990 0.929 . S
C2982 H2976 0.930 . S
C2982 C2983 1.367 . S
C2982 C2990 1.378 . S
C2983 C2982 1.367 . S
C2983 C2991 1.433 . S
C2984 H2980 0.929 . S
C2984 C2986 1.378 . S
C2984 C2988 1.350 . S
C2985 C2988 1.463 . S
C2985 C2990 1.350 . S
C2985 N2993 1.427 . S
C2986 H2977 0.930 . S
C2986 C2984 1.378 . S
C2986 C2987 1.367 . S
C2987 C2986 1.367 . S
C2987 C2989 1.433 . S
C2988 C2984 1.350 . S
C2988 C2985 1.463 . S
C2988 N2992 1.427 . S
C2989 H2979 0.929 . S
C2989 C2987 1.433 . S
C2989 N2992 1.384 . S
C2990 H2981 0.929 . S
C2990 C2982 1.378 . S
C2990 C2985 1.350 . S
C2991 H2978 0.929 . S
C2991 C2983 1.433 . S
C2991 N2993 1.384 . S
N2992 C2988 1.427 . S
N2992 C2989 1.384 . S
N2993 C2985 1.427 . S
N2993 C2991 1.384 . S
H2994 C3000 0.930 . S
H2995 C3004 0.930 . S
H2996 C3009 0.929 . S
H2997 C3007 0.929 . S
H2998 C3002 0.929 . S
H2999 C3008 0.929 . S
C3000 H2994 0.930 . S
C3000 C3001 1.367 . S
C3000 C3008 1.378 . S
C3001 C3000 1.367 . S
C3001 C3009 1.433 . S
C3002 H2998 0.929 . S
C3002 C3004 1.378 . S
C3002 C3006 1.350 . S
C3003 C3006 1.463 . S
C3003 C3008 1.350 . S
C3003 N3011 1.427 . S
C3004 H2995 0.930 . S
C3004 C3002 1.378 . S
C3004 C3005 1.367 . S
C3005 C3004 1.367 . S
C3005 C3007 1.433 . S
C3006 C3002 1.350 . S
C3006 C3003 1.463 . S
C3006 N3010 1.427 . S
C3007 H2997 0.929 . S
C3007 C3005 1.433 . S
C3007 N3010 1.384 . S
C3008 H2999 0.929 . S
C3008 C3000 1.378 . S
C3008 C3003 1.350 . S
C3009 H2996 0.929 . S
C3009 C3001 1.433 . S
C3009 N3011 1.384 . S
N3010 C3006 1.427 . S
N3010 C3007 1.384 . S
N3011 C3003 1.427 . S
N3011 C3009 1.384 . S
H3012 C3018 0.930 . S
H3013 C3022 0.930 . S
H3014 C3027 0.929 . S
H3015 C3025 0.929 . S
H3016 C3020 0.929 . S
H3017 C3026 0.929 . S
C3018 H3012 0.930 . S
C3018 C3019 1.367 . S
C3018 C3026 1.378 . S
C3019 C3018 1.367 . S
C3019 C3027 1.433 . S
C3020 H3016 0.929 . S
C3020 C3022 1.378 . S
C3020 C3024 1.350 . S
C3021 C3024 1.463 . S
C3021 C3026 1.350 . S
C3021 N3029 1.427 . S
C3022 H3013 0.930 . S
C3022 C3020 1.378 . S
C3022 C3023 1.367 . S
C3023 C3022 1.367 . S
C3023 C3025 1.433 . S
C3024 C3020 1.350 . S
C3024 C3021 1.463 . S
C3024 N3028 1.427 . S
C3025 H3015 0.929 . S
C3025 C3023 1.433 . S
C3025 N3028 1.384 . S
C3026 H3017 0.929 . S
C3026 C3018 1.378 . S
C3026 C3021 1.350 . S
C3027 H3014 0.929 . S
C3027 C3019 1.433 . S
C3027 N3029 1.384 . S
N3028 C3024 1.427 . S
N3028 C3025 1.384 . S
N3029 C3021 1.427 . S
N3029 C3027 1.384 . S
H3030 C3036 0.930 . S
H3031 C3040 0.930 . S
H3032 C3045 0.929 . S
H3033 C3043 0.929 . S
H3034 C3038 0.929 . S
H3035 C3044 0.929 . S
C3036 H3030 0.930 . S
C3036 C3037 1.367 . S
C3036 C3044 1.378 . S
C3037 C3036 1.367 . S
C3037 C3045 1.433 . S
C3038 H3034 0.929 . S
C3038 C3040 1.378 . S
C3038 C3042 1.350 . S
C3039 C3042 1.463 . S
C3039 C3044 1.350 . S
C3039 N3047 1.427 . S
C3040 H3031 0.930 . S
C3040 C3038 1.378 . S
C3040 C3041 1.367 . S
C3041 C3040 1.367 . S
C3041 C3043 1.433 . S
C3042 C3038 1.350 . S
C3042 C3039 1.463 . S
C3042 N3046 1.427 . S
C3043 H3033 0.929 . S
C3043 C3041 1.433 . S
C3043 N3046 1.384 . S
C3044 H3035 0.929 . S
C3044 C3036 1.378 . S
C3044 C3039 1.350 . S
C3045 H3032 0.929 . S
C3045 C3037 1.433 . S
C3045 N3047 1.384 . S
N3046 C3042 1.427 . S
N3046 C3043 1.384 . S
N3047 C3039 1.427 . S
N3047 C3045 1.384 . S
H3048 C3054 0.930 . S
H3049 C3058 0.930 . S
H3050 C3063 0.929 . S
H3051 C3061 0.929 . S
H3052 C3056 0.929 . S
H3053 C3062 0.929 . S
C3054 H3048 0.930 . S
C3054 C3055 1.367 . S
C3054 C3062 1.378 . S
C3055 C3054 1.367 . S
C3055 C3063 1.433 . S
C3056 H3052 0.929 . S
C3056 C3058 1.378 . S
C3056 C3060 1.350 . S
C3057 C3060 1.463 . S
C3057 C3062 1.350 . S
C3057 N3065 1.427 . S
C3058 H3049 0.930 . S
C3058 C3056 1.378 . S
C3058 C3059 1.367 . S
C3059 C3058 1.367 . S
C3059 C3061 1.433 . S
C3060 C3056 1.350 . S
C3060 C3057 1.463 . S
C3060 N3064 1.427 . S
C3061 H3051 0.929 . S
C3061 C3059 1.433 . S
C3061 N3064 1.384 . S
C3062 H3053 0.929 . S
C3062 C3054 1.378 . S
C3062 C3057 1.350 . S
C3063 H3050 0.929 . S
C3063 C3055 1.433 . S
C3063 N3065 1.384 . S
N3064 C3060 1.427 . S
N3064 C3061 1.384 . S
N3065 C3057 1.427 . S
N3065 C3063 1.384 . S
H3066 C3072 0.930 . S
H3067 C3076 0.930 . S
H3068 C3081 0.929 . S
H3069 C3079 0.929 . S
H3070 C3074 0.929 . S
H3071 C3080 0.929 . S
C3072 H3066 0.930 . S
C3072 C3073 1.367 . S
C3072 C3080 1.378 . S
C3073 C3072 1.367 . S
C3073 C3081 1.433 . S
C3074 H3070 0.929 . S
C3074 C3076 1.378 . S
C3074 C3078 1.350 . S
C3075 C3078 1.463 . S
C3075 C3080 1.350 . S
C3075 N3083 1.427 . S
C3076 H3067 0.930 . S
C3076 C3074 1.378 . S
C3076 C3077 1.367 . S
C3077 C3076 1.367 . S
C3077 C3079 1.433 . S
C3078 C3074 1.350 . S
C3078 C3075 1.463 . S
C3078 N3082 1.427 . S
C3079 H3069 0.929 . S
C3079 C3077 1.433 . S
C3079 N3082 1.384 . S
C3080 H3071 0.929 . S
C3080 C3072 1.378 . S
C3080 C3075 1.350 . S
C3081 H3068 0.929 . S
C3081 C3073 1.433 . S
C3081 N3083 1.384 . S
N3082 C3078 1.427 . S
N3082 C3079 1.384 . S
N3083 C3075 1.427 . S
N3083 C3081 1.384 . S
H3084 C3090 0.930 . S
H3085 C3094 0.930 . S
H3086 C3099 0.929 . S
H3087 C3097 0.929 . S
H3088 C3092 0.929 . S
H3089 C3098 0.929 . S
C3090 H3084 0.930 . S
C3090 C3091 1.367 . S
C3090 C3098 1.378 . S
C3091 C3090 1.367 . S
C3091 C3099 1.433 . S
C3092 H3088 0.929 . S
C3092 C3094 1.378 . S
C3092 C3096 1.350 . S
C3093 C3096 1.463 . S
C3093 C3098 1.350 . S
C3093 N3101 1.427 . S
C3094 H3085 0.930 . S
C3094 C3092 1.378 . S
C3094 C3095 1.367 . S
C3095 C3094 1.367 . S
C3095 C3097 1.433 . S
C3096 C3092 1.350 . S
C3096 C3093 1.463 . S
C3096 N3100 1.427 . S
C3097 H3087 0.929 . S
C3097 C3095 1.433 . S
C3097 N3100 1.384 . S
C3098 H3089 0.929 . S
C3098 C3090 1.378 . S
C3098 C3093 1.350 . S
C3099 H3086 0.929 . S
C3099 C3091 1.433 . S
C3099 N3101 1.384 . S
N3100 C3096 1.427 . S
N3100 C3097 1.384 . S
N3101 C3093 1.427 . S
N3101 C3099 1.384 . S
H3102 C3108 0.930 . S
H3103 C3112 0.930 . S
H3104 C3117 0.929 . S
H3105 C3115 0.929 . S
H3106 C3110 0.929 . S
H3107 C3116 0.929 . S
C3108 H3102 0.930 . S
C3108 C3109 1.367 . S
C3108 C3116 1.378 . S
C3109 C3108 1.367 . S
C3109 C3117 1.433 . S
C3110 H3106 0.929 . S
C3110 C3112 1.378 . S
C3110 C3114 1.350 . S
C3111 C3114 1.463 . S
C3111 C3116 1.350 . S
C3111 N3119 1.427 . S
C3112 H3103 0.930 . S
C3112 C3110 1.378 . S
C3112 C3113 1.367 . S
C3113 C3112 1.367 . S
C3113 C3115 1.433 . S
C3114 C3110 1.350 . S
C3114 C3111 1.463 . S
C3114 N3118 1.427 . S
C3115 H3105 0.929 . S
C3115 C3113 1.433 . S
C3115 N3118 1.384 . S
C3116 H3107 0.929 . S
C3116 C3108 1.378 . S
C3116 C3111 1.350 . S
C3117 H3104 0.929 . S
C3117 C3109 1.433 . S
C3117 N3119 1.384 . S
N3118 C3114 1.427 . S
N3118 C3115 1.384 . S
N3119 C3111 1.427 . S
N3119 C3117 1.384 . S
H3120 C3126 0.930 . S
H3121 C3130 0.930 . S
H3122 C3135 0.929 . S
H3123 C3133 0.929 . S
H3124 C3128 0.929 . S
H3125 C3134 0.929 . S
C3126 H3120 0.930 . S
C3126 C3127 1.367 . S
C3126 C3134 1.378 . S
C3127 C3126 1.367 . S
C3127 C3135 1.433 . S
C3128 H3124 0.929 . S
C3128 C3130 1.378 . S
C3128 C3132 1.350 . S
C3129 C3132 1.463 . S
C3129 C3134 1.350 . S
C3129 N3137 1.427 . S
C3130 H3121 0.930 . S
C3130 C3128 1.378 . S
C3130 C3131 1.367 . S
C3131 C3130 1.367 . S
C3131 C3133 1.433 . S
C3132 C3128 1.350 . S
C3132 C3129 1.463 . S
C3132 N3136 1.427 . S
C3133 H3123 0.929 . S
C3133 C3131 1.433 . S
C3133 N3136 1.384 . S
C3134 H3125 0.929 . S
C3134 C3126 1.378 . S
C3134 C3129 1.350 . S
C3135 H3122 0.929 . S
C3135 C3127 1.433 . S
C3135 N3137 1.384 . S
N3136 C3132 1.427 . S
N3136 C3133 1.384 . S
N3137 C3129 1.427 . S
N3137 C3135 1.384 . S
H3138 C3144 0.930 . S
H3139 C3148 0.930 . S
H3140 C3153 0.929 . S
H3141 C3151 0.929 . S
H3142 C3146 0.929 . S
H3143 C3152 0.929 . S
C3144 H3138 0.930 . S
C3144 C3145 1.367 . S
C3144 C3152 1.378 . S
C3145 C3144 1.367 . S
C3145 C3153 1.433 . S
C3146 H3142 0.929 . S
C3146 C3148 1.378 . S
C3146 C3150 1.350 . S
C3147 C3150 1.463 . S
C3147 C3152 1.350 . S
C3147 N3155 1.427 . S
C3148 H3139 0.930 . S
C3148 C3146 1.378 . S
C3148 C3149 1.367 . S
C3149 C3148 1.367 . S
C3149 C3151 1.433 . S
C3150 C3146 1.350 . S
C3150 C3147 1.463 . S
C3150 N3154 1.427 . S
C3151 H3141 0.929 . S
C3151 C3149 1.433 . S
C3151 N3154 1.384 . S
C3152 H3143 0.929 . S
C3152 C3144 1.378 . S
C3152 C3147 1.350 . S
C3153 H3140 0.929 . S
C3153 C3145 1.433 . S
C3153 N3155 1.384 . S
N3154 C3150 1.427 . S
N3154 C3151 1.384 . S
N3155 C3147 1.427 . S
N3155 C3153 1.384 . S
H3156 C3162 0.930 . S
H3157 C3166 0.930 . S
H3158 C3171 0.929 . S
H3159 C3169 0.929 . S
H3160 C3164 0.929 . S
H3161 C3170 0.929 . S
C3162 H3156 0.930 . S
C3162 C3163 1.367 . S
C3162 C3170 1.378 . S
C3163 C3162 1.367 . S
C3163 C3171 1.433 . S
C3164 H3160 0.929 . S
C3164 C3166 1.378 . S
C3164 C3168 1.350 . S
C3165 C3168 1.463 . S
C3165 C3170 1.350 . S
C3165 N3173 1.427 . S
C3166 H3157 0.930 . S
C3166 C3164 1.378 . S
C3166 C3167 1.367 . S
C3167 C3166 1.367 . S
C3167 C3169 1.433 . S
C3168 C3164 1.350 . S
C3168 C3165 1.463 . S
C3168 N3172 1.427 . S
C3169 H3159 0.929 . S
C3169 C3167 1.433 . S
C3169 N3172 1.384 . S
C3170 H3161 0.929 . S
C3170 C3162 1.378 . S
C3170 C3165 1.350 . S
C3171 H3158 0.929 . S
C3171 C3163 1.433 . S
C3171 N3173 1.384 . S
N3172 C3168 1.427 . S
N3172 C3169 1.384 . S
N3173 C3165 1.427 . S
N3173 C3171 1.384 . S
H3174 C3180 0.930 . S
H3175 C3184 0.930 . S
H3176 C3189 0.929 . S
H3177 C3187 0.929 . S
H3178 C3182 0.929 . S
H3179 C3188 0.929 . S
C3180 H3174 0.930 . S
C3180 C3181 1.367 . S
C3180 C3188 1.378 . S
C3181 C3180 1.367 . S
C3181 C3189 1.433 . S
C3182 H3178 0.929 . S
C3182 C3184 1.378 . S
C3182 C3186 1.350 . S
C3183 C3186 1.463 . S
C3183 C3188 1.350 . S
C3183 N3191 1.427 . S
C3184 H3175 0.930 . S
C3184 C3182 1.378 . S
C3184 C3185 1.367 . S
C3185 C3184 1.367 . S
C3185 C3187 1.433 . S
C3186 C3182 1.350 . S
C3186 C3183 1.463 . S
C3186 N3190 1.427 . S
C3187 H3177 0.929 . S
C3187 C3185 1.433 . S
C3187 N3190 1.384 . S
C3188 H3179 0.929 . S
C3188 C3180 1.378 . S
C3188 C3183 1.350 . S
C3189 H3176 0.929 . S
C3189 C3181 1.433 . S
C3189 N3191 1.384 . S
N3190 C3186 1.427 . S
N3190 C3187 1.384 . S
N3191 C3183 1.427 . S
N3191 C3189 1.384 . S
H3192 C3198 0.930 . S
H3193 C3202 0.930 . S
H3194 C3207 0.929 . S
H3195 C3205 0.929 . S
H3196 C3200 0.929 . S
H3197 C3206 0.929 . S
C3198 H3192 0.930 . S
C3198 C3199 1.367 . S
C3198 C3206 1.378 . S
C3199 C3198 1.367 . S
C3199 C3207 1.433 . S
C3200 H3196 0.929 . S
C3200 C3202 1.378 . S
C3200 C3204 1.350 . S
C3201 C3204 1.463 . S
C3201 C3206 1.350 . S
C3201 N3209 1.427 . S
C3202 H3193 0.930 . S
C3202 C3200 1.378 . S
C3202 C3203 1.367 . S
C3203 C3202 1.367 . S
C3203 C3205 1.433 . S
C3204 C3200 1.350 . S
C3204 C3201 1.463 . S
C3204 N3208 1.427 . S
C3205 H3195 0.929 . S
C3205 C3203 1.433 . S
C3205 N3208 1.384 . S
C3206 H3197 0.929 . S
C3206 C3198 1.378 . S
C3206 C3201 1.350 . S
C3207 H3194 0.929 . S
C3207 C3199 1.433 . S
C3207 N3209 1.384 . S
N3208 C3204 1.427 . S
N3208 C3205 1.384 . S
N3209 C3201 1.427 . S
N3209 C3207 1.384 . S
H3210 C3216 0.930 . S
H3211 C3220 0.930 . S
H3212 C3225 0.929 . S
H3213 C3223 0.929 . S
H3214 C3218 0.929 . S
H3215 C3224 0.929 . S
C3216 H3210 0.930 . S
C3216 C3217 1.367 . S
C3216 C3224 1.378 . S
C3217 C3216 1.367 . S
C3217 C3225 1.433 . S
C3218 H3214 0.929 . S
C3218 C3220 1.378 . S
C3218 C3222 1.350 . S
C3219 C3222 1.463 . S
C3219 C3224 1.350 . S
C3219 N3227 1.427 . S
C3220 H3211 0.930 . S
C3220 C3218 1.378 . S
C3220 C3221 1.367 . S
C3221 C3220 1.367 . S
C3221 C3223 1.433 . S
C3222 C3218 1.350 . S
C3222 C3219 1.463 . S
C3222 N3226 1.427 . S
C3223 H3213 0.929 . S
C3223 C3221 1.433 . S
C3223 N3226 1.384 . S
C3224 H3215 0.929 . S
C3224 C3216 1.378 . S
C3224 C3219 1.350 . S
C3225 H3212 0.929 . S
C3225 C3217 1.433 . S
C3225 N3227 1.384 . S
N3226 C3222 1.427 . S
N3226 C3223 1.384 . S
N3227 C3219 1.427 . S
N3227 C3225 1.384 . S
H3228 C3234 0.930 . S
H3229 C3238 0.930 . S
H3230 C3243 0.929 . S
H3231 C3241 0.929 . S
H3232 C3236 0.929 . S
H3233 C3242 0.929 . S
C3234 H3228 0.930 . S
C3234 C3235 1.367 . S
C3234 C3242 1.378 . S
C3235 C3234 1.367 . S
C3235 C3243 1.433 . S
C3236 H3232 0.929 . S
C3236 C3238 1.378 . S
C3236 C3240 1.350 . S
C3237 C3240 1.463 . S
C3237 C3242 1.350 . S
C3237 N3245 1.427 . S
C3238 H3229 0.930 . S
C3238 C3236 1.378 . S
C3238 C3239 1.367 . S
C3239 C3238 1.367 . S
C3239 C3241 1.433 . S
C3240 C3236 1.350 . S
C3240 C3237 1.463 . S
C3240 N3244 1.427 . S
C3241 H3231 0.929 . S
C3241 C3239 1.433 . S
C3241 N3244 1.384 . S
C3242 H3233 0.929 . S
C3242 C3234 1.378 . S
C3242 C3237 1.350 . S
C3243 H3230 0.929 . S
C3243 C3235 1.433 . S
C3243 N3245 1.384 . S
N3244 C3240 1.427 . S
N3244 C3241 1.384 . S
N3245 C3237 1.427 . S
N3245 C3243 1.384 . S
H3246 C3252 0.930 . S
H3247 C3256 0.930 . S
H3248 C3261 0.929 . S
H3249 C3259 0.929 . S
H3250 C3254 0.929 . S
H3251 C3260 0.929 . S
C3252 H3246 0.930 . S
C3252 C3253 1.367 . S
C3252 C3260 1.378 . S
C3253 C3252 1.367 . S
C3253 C3261 1.433 . S
C3254 H3250 0.929 . S
C3254 C3256 1.378 . S
C3254 C3258 1.350 . S
C3255 C3258 1.463 . S
C3255 C3260 1.350 . S
C3255 N3263 1.427 . S
C3256 H3247 0.930 . S
C3256 C3254 1.378 . S
C3256 C3257 1.367 . S
C3257 C3256 1.367 . S
C3257 C3259 1.433 . S
C3258 C3254 1.350 . S
C3258 C3255 1.463 . S
C3258 N3262 1.427 . S
C3259 H3249 0.929 . S
C3259 C3257 1.433 . S
C3259 N3262 1.384 . S
C3260 H3251 0.929 . S
C3260 C3252 1.378 . S
C3260 C3255 1.350 . S
C3261 H3248 0.929 . S
C3261 C3253 1.433 . S
C3261 N3263 1.384 . S
N3262 C3258 1.427 . S
N3262 C3259 1.384 . S
N3263 C3255 1.427 . S
N3263 C3261 1.384 . S
H3264 C3270 0.930 . S
H3265 C3274 0.930 . S
H3266 C3279 0.929 . S
H3267 C3277 0.929 . S
H3268 C3272 0.929 . S
H3269 C3278 0.929 . S
C3270 H3264 0.930 . S
C3270 C3271 1.367 . S
C3270 C3278 1.378 . S
C3271 C3270 1.367 . S
C3271 C3279 1.433 . S
C3272 H3268 0.929 . S
C3272 C3274 1.378 . S
C3272 C3276 1.350 . S
C3273 C3276 1.463 . S
C3273 C3278 1.350 . S
C3273 N3281 1.427 . S
C3274 H3265 0.930 . S
C3274 C3272 1.378 . S
C3274 C3275 1.367 . S
C3275 C3274 1.367 . S
C3275 C3277 1.433 . S
C3276 C3272 1.350 . S
C3276 C3273 1.463 . S
C3276 N3280 1.427 . S
C3277 H3267 0.929 . S
C3277 C3275 1.433 . S
C3277 N3280 1.384 . S
C3278 H3269 0.929 . S
C3278 C3270 1.378 . S
C3278 C3273 1.350 . S
C3279 H3266 0.929 . S
C3279 C3271 1.433 . S
C3279 N3281 1.384 . S
N3280 C3276 1.427 . S
N3280 C3277 1.384 . S
N3281 C3273 1.427 . S
N3281 C3279 1.384 . S
H3282 C3288 0.930 . S
H3283 C3292 0.930 . S
H3284 C3297 0.929 . S
H3285 C3295 0.929 . S
H3286 C3290 0.929 . S
H3287 C3296 0.929 . S
C3288 H3282 0.930 . S
C3288 C3289 1.367 . S
C3288 C3296 1.378 . S
C3289 C3288 1.367 . S
C3289 C3297 1.433 . S
C3290 H3286 0.929 . S
C3290 C3292 1.378 . S
C3290 C3294 1.350 . S
C3291 C3294 1.463 . S
C3291 C3296 1.350 . S
C3291 N3299 1.427 . S
C3292 H3283 0.930 . S
C3292 C3290 1.378 . S
C3292 C3293 1.367 . S
C3293 C3292 1.367 . S
C3293 C3295 1.433 . S
C3294 C3290 1.350 . S
C3294 C3291 1.463 . S
C3294 N3298 1.427 . S
C3295 H3285 0.929 . S
C3295 C3293 1.433 . S
C3295 N3298 1.384 . S
C3296 H3287 0.929 . S
C3296 C3288 1.378 . S
C3296 C3291 1.350 . S
C3297 H3284 0.929 . S
C3297 C3289 1.433 . S
C3297 N3299 1.384 . S
N3298 C3294 1.427 . S
N3298 C3295 1.384 . S
N3299 C3291 1.427 . S
N3299 C3297 1.384 . S
H3300 C3306 0.930 . S
H3301 C3310 0.930 . S
H3302 C3315 0.929 . S
H3303 C3313 0.929 . S
H3304 C3308 0.929 . S
H3305 C3314 0.929 . S
C3306 H3300 0.930 . S
C3306 C3307 1.367 . S
C3306 C3314 1.378 . S
C3307 C3306 1.367 . S
C3307 C3315 1.433 . S
C3308 H3304 0.929 . S
C3308 C3310 1.378 . S
C3308 C3312 1.350 . S
C3309 C3312 1.463 . S
C3309 C3314 1.350 . S
C3309 N3317 1.427 . S
C3310 H3301 0.930 . S
C3310 C3308 1.378 . S
C3310 C3311 1.367 . S
C3311 C3310 1.367 . S
C3311 C3313 1.433 . S
C3312 C3308 1.350 . S
C3312 C3309 1.463 . S
C3312 N3316 1.427 . S
C3313 H3303 0.929 . S
C3313 C3311 1.433 . S
C3313 N3316 1.384 . S
C3314 H3305 0.929 . S
C3314 C3306 1.378 . S
C3314 C3309 1.350 . S
C3315 H3302 0.929 . S
C3315 C3307 1.433 . S
C3315 N3317 1.384 . S
N3316 C3312 1.427 . S
N3316 C3313 1.384 . S
N3317 C3309 1.427 . S
N3317 C3315 1.384 . S
H3318 C3324 0.930 . S
H3319 C3328 0.930 . S
H3320 C3333 0.929 . S
H3321 C3331 0.929 . S
H3322 C3326 0.929 . S
H3323 C3332 0.929 . S
C3324 H3318 0.930 . S
C3324 C3325 1.367 . S
C3324 C3332 1.378 . S
C3325 C3324 1.367 . S
C3325 C3333 1.433 . S
C3326 H3322 0.929 . S
C3326 C3328 1.378 . S
C3326 C3330 1.350 . S
C3327 C3330 1.463 . S
C3327 C3332 1.350 . S
C3327 N3335 1.427 . S
C3328 H3319 0.930 . S
C3328 C3326 1.378 . S
C3328 C3329 1.367 . S
C3329 C3328 1.367 . S
C3329 C3331 1.433 . S
C3330 C3326 1.350 . S
C3330 C3327 1.463 . S
C3330 N3334 1.427 . S
C3331 H3321 0.929 . S
C3331 C3329 1.433 . S
C3331 N3334 1.384 . S
C3332 H3323 0.929 . S
C3332 C3324 1.378 . S
C3332 C3327 1.350 . S
C3333 H3320 0.929 . S
C3333 C3325 1.433 . S
C3333 N3335 1.384 . S
N3334 C3330 1.427 . S
N3334 C3331 1.384 . S
N3335 C3327 1.427 . S
N3335 C3333 1.384 . S
H3336 C3342 0.930 . S
H3337 C3346 0.930 . S
H3338 C3351 0.929 . S
H3339 C3349 0.929 . S
H3340 C3344 0.929 . S
H3341 C3350 0.929 . S
C3342 H3336 0.930 . S
C3342 C3343 1.367 . S
C3342 C3350 1.378 . S
C3343 C3342 1.367 . S
C3343 C3351 1.433 . S
C3344 H3340 0.929 . S
C3344 C3346 1.378 . S
C3344 C3348 1.350 . S
C3345 C3348 1.463 . S
C3345 C3350 1.350 . S
C3345 N3353 1.427 . S
C3346 H3337 0.930 . S
C3346 C3344 1.378 . S
C3346 C3347 1.367 . S
C3347 C3346 1.367 . S
C3347 C3349 1.433 . S
C3348 C3344 1.350 . S
C3348 C3345 1.463 . S
C3348 N3352 1.427 . S
C3349 H3339 0.929 . S
C3349 C3347 1.433 . S
C3349 N3352 1.384 . S
C3350 H3341 0.929 . S
C3350 C3342 1.378 . S
C3350 C3345 1.350 . S
C3351 H3338 0.929 . S
C3351 C3343 1.433 . S
C3351 N3353 1.384 . S
N3352 C3348 1.427 . S
N3352 C3349 1.384 . S
N3353 C3345 1.427 . S
N3353 C3351 1.384 . S
H3354 C3360 0.930 . S
H3355 C3364 0.930 . S
H3356 C3369 0.929 . S
H3357 C3367 0.929 . S
H3358 C3362 0.929 . S
H3359 C3368 0.929 . S
C3360 H3354 0.930 . S
C3360 C3361 1.367 . S
C3360 C3368 1.378 . S
C3361 C3360 1.367 . S
C3361 C3369 1.433 . S
C3362 H3358 0.929 . S
C3362 C3364 1.378 . S
C3362 C3366 1.350 . S
C3363 C3366 1.463 . S
C3363 C3368 1.350 . S
C3363 N3371 1.427 . S
C3364 H3355 0.930 . S
C3364 C3362 1.378 . S
C3364 C3365 1.367 . S
C3365 C3364 1.367 . S
C3365 C3367 1.433 . S
C3366 C3362 1.350 . S
C3366 C3363 1.463 . S
C3366 N3370 1.427 . S
C3367 H3357 0.929 . S
C3367 C3365 1.433 . S
C3367 N3370 1.384 . S
C3368 H3359 0.929 . S
C3368 C3360 1.378 . S
C3368 C3363 1.350 . S
C3369 H3356 0.929 . S
C3369 C3361 1.433 . S
C3369 N3371 1.384 . S
N3370 C3366 1.427 . S
N3370 C3367 1.384 . S
N3371 C3363 1.427 . S
N3371 C3369 1.384 . S
H3372 C3378 0.930 . S
H3373 C3382 0.930 . S
H3374 C3387 0.929 . S
H3375 C3385 0.929 . S
H3376 C3380 0.929 . S
H3377 C3386 0.929 . S
C3378 H3372 0.930 . S
C3378 C3379 1.367 . S
C3378 C3386 1.378 . S
C3379 C3378 1.367 . S
C3379 C3387 1.433 . S
C3380 H3376 0.929 . S
C3380 C3382 1.378 . S
C3380 C3384 1.350 . S
C3381 C3384 1.463 . S
C3381 C3386 1.350 . S
C3381 N3389 1.427 . S
C3382 H3373 0.930 . S
C3382 C3380 1.378 . S
C3382 C3383 1.367 . S
C3383 C3382 1.367 . S
C3383 C3385 1.433 . S
C3384 C3380 1.350 . S
C3384 C3381 1.463 . S
C3384 N3388 1.427 . S
C3385 H3375 0.929 . S
C3385 C3383 1.433 . S
C3385 N3388 1.384 . S
C3386 H3377 0.929 . S
C3386 C3378 1.378 . S
C3386 C3381 1.350 . S
C3387 H3374 0.929 . S
C3387 C3379 1.433 . S
C3387 N3389 1.384 . S
N3388 C3384 1.427 . S
N3388 C3385 1.384 . S
N3389 C3381 1.427 . S
N3389 C3387 1.384 . S
H3390 C3396 0.930 . S
H3391 C3400 0.930 . S
H3392 C3405 0.929 . S
H3393 C3403 0.929 . S
H3394 C3398 0.929 . S
H3395 C3404 0.929 . S
C3396 H3390 0.930 . S
C3396 C3397 1.367 . S
C3396 C3404 1.378 . S
C3397 C3396 1.367 . S
C3397 C3405 1.433 . S
C3398 H3394 0.929 . S
C3398 C3400 1.378 . S
C3398 C3402 1.350 . S
C3399 C3402 1.463 . S
C3399 C3404 1.350 . S
C3399 N3407 1.427 . S
C3400 H3391 0.930 . S
C3400 C3398 1.378 . S
C3400 C3401 1.367 . S
C3401 C3400 1.367 . S
C3401 C3403 1.433 . S
C3402 C3398 1.350 . S
C3402 C3399 1.463 . S
C3402 N3406 1.427 . S
C3403 H3393 0.929 . S
C3403 C3401 1.433 . S
C3403 N3406 1.384 . S
C3404 H3395 0.929 . S
C3404 C3396 1.378 . S
C3404 C3399 1.350 . S
C3405 H3392 0.929 . S
C3405 C3397 1.433 . S
C3405 N3407 1.384 . S
N3406 C3402 1.427 . S
N3406 C3403 1.384 . S
N3407 C3399 1.427 . S
N3407 C3405 1.384 . S
H3408 C3414 0.930 . S
H3409 C3418 0.930 . S
H3410 C3423 0.929 . S
H3411 C3421 0.929 . S
H3412 C3416 0.929 . S
H3413 C3422 0.929 . S
C3414 H3408 0.930 . S
C3414 C3415 1.367 . S
C3414 C3422 1.378 . S
C3415 C3414 1.367 . S
C3415 C3423 1.433 . S
C3416 H3412 0.929 . S
C3416 C3418 1.378 . S
C3416 C3420 1.350 . S
C3417 C3420 1.463 . S
C3417 C3422 1.350 . S
C3417 N3425 1.427 . S
C3418 H3409 0.930 . S
C3418 C3416 1.378 . S
C3418 C3419 1.367 . S
C3419 C3418 1.367 . S
C3419 C3421 1.433 . S
C3420 C3416 1.350 . S
C3420 C3417 1.463 . S
C3420 N3424 1.427 . S
C3421 H3411 0.929 . S
C3421 C3419 1.433 . S
C3421 N3424 1.384 . S
C3422 H3413 0.929 . S
C3422 C3414 1.378 . S
C3422 C3417 1.350 . S
C3423 H3410 0.929 . S
C3423 C3415 1.433 . S
C3423 N3425 1.384 . S
N3424 C3420 1.427 . S
N3424 C3421 1.384 . S
N3425 C3417 1.427 . S
N3425 C3423 1.384 . S
H3426 C3432 0.930 . S
H3427 C3436 0.930 . S
H3428 C3441 0.929 . S
H3429 C3439 0.929 . S
H3430 C3434 0.929 . S
H3431 C3440 0.929 . S
C3432 H3426 0.930 . S
C3432 C3433 1.367 . S
C3432 C3440 1.378 . S
C3433 C3432 1.367 . S
C3433 C3441 1.433 . S
C3434 H3430 0.929 . S
C3434 C3436 1.378 . S
C3434 C3438 1.350 . S
C3435 C3438 1.463 . S
C3435 C3440 1.350 . S
C3435 N3443 1.427 . S
C3436 H3427 0.930 . S
C3436 C3434 1.378 . S
C3436 C3437 1.367 . S
C3437 C3436 1.367 . S
C3437 C3439 1.433 . S
C3438 C3434 1.350 . S
C3438 C3435 1.463 . S
C3438 N3442 1.427 . S
C3439 H3429 0.929 . S
C3439 C3437 1.433 . S
C3439 N3442 1.384 . S
C3440 H3431 0.929 . S
C3440 C3432 1.378 . S
C3440 C3435 1.350 . S
C3441 H3428 0.929 . S
C3441 C3433 1.433 . S
C3441 N3443 1.384 . S
N3442 C3438 1.427 . S
N3442 C3439 1.384 . S
N3443 C3435 1.427 . S
N3443 C3441 1.384 . S
H3444 C3450 0.930 . S
H3445 C3454 0.930 . S
H3446 C3459 0.929 . S
H3447 C3457 0.929 . S
H3448 C3452 0.929 . S
H3449 C3458 0.929 . S
C3450 H3444 0.930 . S
C3450 C3451 1.367 . S
C3450 C3458 1.378 . S
C3451 C3450 1.367 . S
C3451 C3459 1.433 . S
C3452 H3448 0.929 . S
C3452 C3454 1.378 . S
C3452 C3456 1.350 . S
C3453 C3456 1.463 . S
C3453 C3458 1.350 . S
C3453 N3461 1.427 . S
C3454 H3445 0.930 . S
C3454 C3452 1.378 . S
C3454 C3455 1.367 . S
C3455 C3454 1.367 . S
C3455 C3457 1.433 . S
C3456 C3452 1.350 . S
C3456 C3453 1.463 . S
C3456 N3460 1.427 . S
C3457 H3447 0.929 . S
C3457 C3455 1.433 . S
C3457 N3460 1.384 . S
C3458 H3449 0.929 . S
C3458 C3450 1.378 . S
C3458 C3453 1.350 . S
C3459 H3446 0.929 . S
C3459 C3451 1.433 . S
C3459 N3461 1.384 . S
N3460 C3456 1.427 . S
N3460 C3457 1.384 . S
N3461 C3453 1.427 . S
N3461 C3459 1.384 . S
H3462 C3468 0.930 . S
H3463 C3472 0.930 . S
H3464 C3477 0.929 . S
H3465 C3475 0.929 . S
H3466 C3470 0.929 . S
H3467 C3476 0.929 . S
C3468 H3462 0.930 . S
C3468 C3469 1.367 . S
C3468 C3476 1.378 . S
C3469 C3468 1.367 . S
C3469 C3477 1.433 . S
C3470 H3466 0.929 . S
C3470 C3472 1.378 . S
C3470 C3474 1.350 . S
C3471 C3474 1.463 . S
C3471 C3476 1.350 . S
C3471 N3479 1.427 . S
C3472 H3463 0.930 . S
C3472 C3470 1.378 . S
C3472 C3473 1.367 . S
C3473 C3472 1.367 . S
C3473 C3475 1.433 . S
C3474 C3470 1.350 . S
C3474 C3471 1.463 . S
C3474 N3478 1.427 . S
C3475 H3465 0.929 . S
C3475 C3473 1.433 . S
C3475 N3478 1.384 . S
C3476 H3467 0.929 . S
C3476 C3468 1.378 . S
C3476 C3471 1.350 . S
C3477 H3464 0.929 . S
C3477 C3469 1.433 . S
C3477 N3479 1.384 . S
N3478 C3474 1.427 . S
N3478 C3475 1.384 . S
N3479 C3471 1.427 . S
N3479 C3477 1.384 . S
H3480 C3486 0.930 . S
H3481 C3490 0.930 . S
H3482 C3495 0.929 . S
H3483 C3493 0.929 . S
H3484 C3488 0.929 . S
H3485 C3494 0.929 . S
C3486 H3480 0.930 . S
C3486 C3487 1.367 . S
C3486 C3494 1.378 . S
C3487 C3486 1.367 . S
C3487 C3495 1.433 . S
C3488 H3484 0.929 . S
C3488 C3490 1.378 . S
C3488 C3492 1.350 . S
C3489 C3492 1.463 . S
C3489 C3494 1.350 . S
C3489 N3497 1.427 . S
C3490 H3481 0.930 . S
C3490 C3488 1.378 . S
C3490 C3491 1.367 . S
C3491 C3490 1.367 . S
C3491 C3493 1.433 . S
C3492 C3488 1.350 . S
C3492 C3489 1.463 . S
C3492 N3496 1.427 . S
C3493 H3483 0.929 . S
C3493 C3491 1.433 . S
C3493 N3496 1.384 . S
C3494 H3485 0.929 . S
C3494 C3486 1.378 . S
C3494 C3489 1.350 . S
C3495 H3482 0.929 . S
C3495 C3487 1.433 . S
C3495 N3497 1.384 . S
N3496 C3492 1.427 . S
N3496 C3493 1.384 . S
N3497 C3489 1.427 . S
N3497 C3495 1.384 . S
H3498 C3504 0.930 . S
H3499 C3508 0.930 . S
H3500 C3513 0.929 . S
H3501 C3511 0.929 . S
H3502 C3506 0.929 . S
H3503 C3512 0.929 . S
C3504 H3498 0.930 . S
C3504 C3505 1.367 . S
C3504 C3512 1.378 . S
C3505 C3504 1.367 . S
C3505 C3513 1.433 . S
C3506 H3502 0.929 . S
C3506 C3508 1.378 . S
C3506 C3510 1.350 . S
C3507 C3510 1.463 . S
C3507 C3512 1.350 . S
C3507 N3515 1.427 . S
C3508 H3499 0.930 . S
C3508 C3506 1.378 . S
C3508 C3509 1.367 . S
C3509 C3508 1.367 . S
C3509 C3511 1.433 . S
C3510 C3506 1.350 . S
C3510 C3507 1.463 . S
C3510 N3514 1.427 . S
C3511 H3501 0.929 . S
C3511 C3509 1.433 . S
C3511 N3514 1.384 . S
C3512 H3503 0.929 . S
C3512 C3504 1.378 . S
C3512 C3507 1.350 . S
C3513 H3500 0.929 . S
C3513 C3505 1.433 . S
C3513 N3515 1.384 . S
N3514 C3510 1.427 . S
N3514 C3511 1.384 . S
N3515 C3507 1.427 . S
N3515 C3513 1.384 . S
H3516 C3522 0.930 . S
H3517 C3526 0.930 . S
H3518 C3531 0.929 . S
H3519 C3529 0.929 . S
H3520 C3524 0.929 . S
H3521 C3530 0.929 . S
C3522 H3516 0.930 . S
C3522 C3523 1.367 . S
C3522 C3530 1.378 . S
C3523 C3522 1.367 . S
C3523 C3531 1.433 . S
C3524 H3520 0.929 . S
C3524 C3526 1.378 . S
C3524 C3528 1.350 . S
C3525 C3528 1.463 . S
C3525 C3530 1.350 . S
C3525 N3533 1.427 . S
C3526 H3517 0.930 . S
C3526 C3524 1.378 . S
C3526 C3527 1.367 . S
C3527 C3526 1.367 . S
C3527 C3529 1.433 . S
C3528 C3524 1.350 . S
C3528 C3525 1.463 . S
C3528 N3532 1.427 . S
C3529 H3519 0.929 . S
C3529 C3527 1.433 . S
C3529 N3532 1.384 . S
C3530 H3521 0.929 . S
C3530 C3522 1.378 . S
C3530 C3525 1.350 . S
C3531 H3518 0.929 . S
C3531 C3523 1.433 . S
C3531 N3533 1.384 . S
N3532 C3528 1.427 . S
N3532 C3529 1.384 . S
N3533 C3525 1.427 . S
N3533 C3531 1.384 . S
H3534 C3540 0.930 . S
H3535 C3544 0.930 . S
H3536 C3549 0.929 . S
H3537 C3547 0.929 . S
H3538 C3542 0.929 . S
H3539 C3548 0.929 . S
C3540 H3534 0.930 . S
C3540 C3541 1.367 . S
C3540 C3548 1.378 . S
C3541 C3540 1.367 . S
C3541 C3549 1.433 . S
C3542 H3538 0.929 . S
C3542 C3544 1.378 . S
C3542 C3546 1.350 . S
C3543 C3546 1.463 . S
C3543 C3548 1.350 . S
C3543 N3551 1.427 . S
C3544 H3535 0.930 . S
C3544 C3542 1.378 . S
C3544 C3545 1.367 . S
C3545 C3544 1.367 . S
C3545 C3547 1.433 . S
C3546 C3542 1.350 . S
C3546 C3543 1.463 . S
C3546 N3550 1.427 . S
C3547 H3537 0.929 . S
C3547 C3545 1.433 . S
C3547 N3550 1.384 . S
C3548 H3539 0.929 . S
C3548 C3540 1.378 . S
C3548 C3543 1.350 . S
C3549 H3536 0.929 . S
C3549 C3541 1.433 . S
C3549 N3551 1.384 . S
N3550 C3546 1.427 . S
N3550 C3547 1.384 . S
N3551 C3543 1.427 . S
N3551 C3549 1.384 . S
H3552 C3558 0.930 . S
H3553 C3562 0.930 . S
H3554 C3567 0.929 . S
H3555 C3565 0.929 . S
H3556 C3560 0.929 . S
H3557 C3566 0.929 1_655 S
C3558 H3552 0.930 . S
C3558 C3559 1.367 1_655 S
C3558 C3566 1.378 1_655 S
C3559 C3558 1.367 1_455 S
C3559 C3567 1.433 . S
C3560 H3556 0.929 . S
C3560 C3562 1.378 . S
C3560 C3564 1.350 . S
C3561 C3564 1.463 . S
C3561 C3566 1.350 . S
C3561 N3569 1.427 . S
C3562 H3553 0.930 . S
C3562 C3560 1.378 . S
C3562 C3563 1.367 . S
C3563 C3562 1.367 . S
C3563 C3565 1.433 . S
C3564 C3560 1.350 . S
C3564 C3561 1.463 . S
C3564 N3568 1.427 . S
C3565 H3555 0.929 . S
C3565 C3563 1.433 . S
C3565 N3568 1.384 . S
C3566 H3557 0.929 1_455 S
C3566 C3558 1.378 1_455 S
C3566 C3561 1.350 . S
C3567 H3554 0.929 . S
C3567 C3559 1.433 . S
C3567 N3569 1.384 . S
N3568 C3564 1.427 . S
N3568 C3565 1.384 . S
N3569 C3561 1.427 . S
N3569 C3567 1.384 . S
H3570 C3576 0.930 . S
H3571 C3580 0.930 . S
H3572 C3585 0.929 . S
H3573 C3583 0.929 . S
H3574 C3578 0.929 . S
H3575 C3584 0.929 . S
C3576 H3570 0.930 . S
C3576 C3577 1.367 . S
C3576 C3584 1.378 . S
C3577 C3576 1.367 . S
C3577 C3585 1.433 . S
C3578 H3574 0.929 . S
C3578 C3580 1.378 . S
C3578 C3582 1.350 . S
C3579 C3582 1.463 . S
C3579 C3584 1.350 . S
C3579 N3587 1.427 . S
C3580 H3571 0.930 . S
C3580 C3578 1.378 . S
C3580 C3581 1.367 . S
C3581 C3580 1.367 . S
C3581 C3583 1.433 . S
C3582 C3578 1.350 . S
C3582 C3579 1.463 . S
C3582 N3586 1.427 . S
C3583 H3573 0.929 . S
C3583 C3581 1.433 . S
C3583 N3586 1.384 . S
C3584 H3575 0.929 . S
C3584 C3576 1.378 . S
C3584 C3579 1.350 . S
C3585 H3572 0.929 . S
C3585 C3577 1.433 . S
C3585 N3587 1.384 . S
N3586 C3582 1.427 . S
N3586 C3583 1.384 . S
N3587 C3579 1.427 . S
N3587 C3585 1.384 . S
H3588 C3594 0.930 . S
H3589 C3598 0.930 . S
H3590 C3603 0.929 . S
H3591 C3601 0.929 . S
H3592 C3596 0.929 . S
H3593 C3602 0.929 . S
C3594 H3588 0.930 . S
C3594 C3595 1.367 . S
C3594 C3602 1.378 . S
C3595 C3594 1.367 . S
C3595 C3603 1.433 . S
C3596 H3592 0.929 . S
C3596 C3598 1.378 . S
C3596 C3600 1.350 . S
C3597 C3600 1.463 . S
C3597 C3602 1.350 . S
C3597 N3605 1.427 . S
C3598 H3589 0.930 . S
C3598 C3596 1.378 . S
C3598 C3599 1.367 . S
C3599 C3598 1.367 . S
C3599 C3601 1.433 . S
C3600 C3596 1.350 . S
C3600 C3597 1.463 . S
C3600 N3604 1.427 . S
C3601 H3591 0.929 . S
C3601 C3599 1.433 . S
C3601 N3604 1.384 . S
C3602 H3593 0.929 . S
C3602 C3594 1.378 . S
C3602 C3597 1.350 . S
C3603 H3590 0.929 . S
C3603 C3595 1.433 . S
C3603 N3605 1.384 . S
N3604 C3600 1.427 . S
N3604 C3601 1.384 . S
N3605 C3597 1.427 . S
N3605 C3603 1.384 . S
H3606 C3612 0.930 . S
H3607 C3616 0.930 . S
H3608 C3621 0.929 . S
H3609 C3619 0.929 . S
H3610 C3614 0.929 . S
H3611 C3620 0.929 . S
C3612 H3606 0.930 . S
C3612 C3613 1.367 . S
C3612 C3620 1.378 . S
C3613 C3612 1.367 . S
C3613 C3621 1.433 . S
C3614 H3610 0.929 . S
C3614 C3616 1.378 . S
C3614 C3618 1.350 . S
C3615 C3618 1.463 . S
C3615 C3620 1.350 . S
C3615 N3623 1.427 . S
C3616 H3607 0.930 . S
C3616 C3614 1.378 . S
C3616 C3617 1.367 . S
C3617 C3616 1.367 . S
C3617 C3619 1.433 . S
C3618 C3614 1.350 . S
C3618 C3615 1.463 . S
C3618 N3622 1.427 . S
C3619 H3609 0.929 . S
C3619 C3617 1.433 . S
C3619 N3622 1.384 . S
C3620 H3611 0.929 . S
C3620 C3612 1.378 . S
C3620 C3615 1.350 . S
C3621 H3608 0.929 . S
C3621 C3613 1.433 . S
C3621 N3623 1.384 . S
N3622 C3618 1.427 . S
N3622 C3619 1.384 . S
N3623 C3615 1.427 . S
N3623 C3621 1.384 . S
H3624 C3630 0.930 . S
H3625 C3634 0.930 . S
H3626 C3639 0.929 . S
H3627 C3637 0.929 . S
H3628 C3632 0.929 . S
H3629 C3638 0.929 . S
C3630 H3624 0.930 . S
C3630 C3631 1.367 . S
C3630 C3638 1.378 . S
C3631 C3630 1.367 . S
C3631 C3639 1.433 . S
C3632 H3628 0.929 . S
C3632 C3634 1.378 . S
C3632 C3636 1.350 . S
C3633 C3636 1.463 . S
C3633 C3638 1.350 . S
C3633 N3641 1.427 . S
C3634 H3625 0.930 . S
C3634 C3632 1.378 . S
C3634 C3635 1.367 . S
C3635 C3634 1.367 . S
C3635 C3637 1.433 . S
C3636 C3632 1.350 . S
C3636 C3633 1.463 . S
C3636 N3640 1.427 . S
C3637 H3627 0.929 . S
C3637 C3635 1.433 . S
C3637 N3640 1.384 . S
C3638 H3629 0.929 . S
C3638 C3630 1.378 . S
C3638 C3633 1.350 . S
C3639 H3626 0.929 . S
C3639 C3631 1.433 . S
C3639 N3641 1.384 . S
N3640 C3636 1.427 . S
N3640 C3637 1.384 . S
N3641 C3633 1.427 . S
N3641 C3639 1.384 . S
H3642 C3648 0.930 . S
H3643 C3652 0.930 . S
H3644 C3657 0.929 . S
H3645 C3655 0.929 . S
H3646 C3650 0.929 . S
H3647 C3656 0.929 . S
C3648 H3642 0.930 . S
C3648 C3649 1.367 . S
C3648 C3656 1.378 . S
C3649 C3648 1.367 . S
C3649 C3657 1.433 . S
C3650 H3646 0.929 . S
C3650 C3652 1.378 . S
C3650 C3654 1.350 . S
C3651 C3654 1.463 . S
C3651 C3656 1.350 . S
C3651 N3659 1.427 . S
C3652 H3643 0.930 . S
C3652 C3650 1.378 . S
C3652 C3653 1.367 . S
C3653 C3652 1.367 . S
C3653 C3655 1.433 . S
C3654 C3650 1.350 . S
C3654 C3651 1.463 . S
C3654 N3658 1.427 . S
C3655 H3645 0.929 . S
C3655 C3653 1.433 . S
C3655 N3658 1.384 . S
C3656 H3647 0.929 . S
C3656 C3648 1.378 . S
C3656 C3651 1.350 . S
C3657 H3644 0.929 . S
C3657 C3649 1.433 . S
C3657 N3659 1.384 . S
N3658 C3654 1.427 . S
N3658 C3655 1.384 . S
N3659 C3651 1.427 . S
N3659 C3657 1.384 . S
H3660 C3666 0.930 . S
H3661 C3670 0.930 . S
H3662 C3675 0.929 . S
H3663 C3673 0.929 . S
H3664 C3668 0.929 . S
H3665 C3674 0.929 . S
C3666 H3660 0.930 . S
C3666 C3667 1.367 . S
C3666 C3674 1.378 . S
C3667 C3666 1.367 . S
C3667 C3675 1.433 . S
C3668 H3664 0.929 . S
C3668 C3670 1.378 . S
C3668 C3672 1.350 . S
C3669 C3672 1.463 . S
C3669 C3674 1.350 . S
C3669 N3677 1.427 . S
C3670 H3661 0.930 . S
C3670 C3668 1.378 . S
C3670 C3671 1.367 . S
C3671 C3670 1.367 . S
C3671 C3673 1.433 . S
C3672 C3668 1.350 . S
C3672 C3669 1.463 . S
C3672 N3676 1.427 . S
C3673 H3663 0.929 . S
C3673 C3671 1.433 . S
C3673 N3676 1.384 . S
C3674 H3665 0.929 . S
C3674 C3666 1.378 . S
C3674 C3669 1.350 . S
C3675 H3662 0.929 . S
C3675 C3667 1.433 . S
C3675 N3677 1.384 . S
N3676 C3672 1.427 . S
N3676 C3673 1.384 . S
N3677 C3669 1.427 . S
N3677 C3675 1.384 . S
H3678 C3684 0.930 . S
H3679 C3688 0.930 . S
H3680 C3693 0.929 . S
H3681 C3691 0.929 . S
H3682 C3686 0.929 . S
H3683 C3692 0.929 . S
C3684 H3678 0.930 . S
C3684 C3685 1.367 . S
C3684 C3692 1.378 . S
C3685 C3684 1.367 . S
C3685 C3693 1.433 . S
C3686 H3682 0.929 . S
C3686 C3688 1.378 . S
C3686 C3690 1.350 . S
C3687 C3690 1.463 . S
C3687 C3692 1.350 . S
C3687 N3695 1.427 . S
C3688 H3679 0.930 . S
C3688 C3686 1.378 . S
C3688 C3689 1.367 . S
C3689 C3688 1.367 . S
C3689 C3691 1.433 . S
C3690 C3686 1.350 . S
C3690 C3687 1.463 . S
C3690 N3694 1.427 . S
C3691 H3681 0.929 . S
C3691 C3689 1.433 . S
C3691 N3694 1.384 . S
C3692 H3683 0.929 . S
C3692 C3684 1.378 . S
C3692 C3687 1.350 . S
C3693 H3680 0.929 . S
C3693 C3685 1.433 . S
C3693 N3695 1.384 . S
N3694 C3690 1.427 . S
N3694 C3691 1.384 . S
N3695 C3687 1.427 . S
N3695 C3693 1.384 . S
H3696 C3702 0.930 . S
H3697 C3706 0.930 . S
H3698 C3711 0.929 . S
H3699 C3709 0.929 . S
H3700 C3704 0.929 . S
H3701 C3710 0.929 . S
C3702 H3696 0.930 . S
C3702 C3703 1.367 . S
C3702 C3710 1.378 . S
C3703 C3702 1.367 . S
C3703 C3711 1.433 . S
C3704 H3700 0.929 . S
C3704 C3706 1.378 . S
C3704 C3708 1.350 . S
C3705 C3708 1.463 . S
C3705 C3710 1.350 . S
C3705 N3713 1.427 . S
C3706 H3697 0.930 . S
C3706 C3704 1.378 . S
C3706 C3707 1.367 . S
C3707 C3706 1.367 . S
C3707 C3709 1.433 . S
C3708 C3704 1.350 . S
C3708 C3705 1.463 . S
C3708 N3712 1.427 . S
C3709 H3699 0.929 . S
C3709 C3707 1.433 . S
C3709 N3712 1.384 . S
C3710 H3701 0.929 . S
C3710 C3702 1.378 . S
C3710 C3705 1.350 . S
C3711 H3698 0.929 . S
C3711 C3703 1.433 . S
C3711 N3713 1.384 . S
N3712 C3708 1.427 . S
N3712 C3709 1.384 . S
N3713 C3705 1.427 . S
N3713 C3711 1.384 . S
H3714 C3720 0.930 . S
H3715 C3724 0.930 . S
H3716 C3729 0.929 . S
H3717 C3727 0.929 . S
H3718 C3722 0.929 . S
H3719 C3728 0.929 . S
C3720 H3714 0.930 . S
C3720 C3721 1.367 . S
C3720 C3728 1.378 . S
C3721 C3720 1.367 . S
C3721 C3729 1.433 . S
C3722 H3718 0.929 . S
C3722 C3724 1.378 . S
C3722 C3726 1.350 . S
C3723 C3726 1.463 . S
C3723 C3728 1.350 . S
C3723 N3731 1.427 . S
C3724 H3715 0.930 . S
C3724 C3722 1.378 . S
C3724 C3725 1.367 . S
C3725 C3724 1.367 . S
C3725 C3727 1.433 . S
C3726 C3722 1.350 . S
C3726 C3723 1.463 . S
C3726 N3730 1.427 . S
C3727 H3717 0.929 . S
C3727 C3725 1.433 . S
C3727 N3730 1.384 . S
C3728 H3719 0.929 . S
C3728 C3720 1.378 . S
C3728 C3723 1.350 . S
C3729 H3716 0.929 . S
C3729 C3721 1.433 . S
C3729 N3731 1.384 . S
N3730 C3726 1.427 . S
N3730 C3727 1.384 . S
N3731 C3723 1.427 . S
N3731 C3729 1.384 . S
H3732 C3738 0.930 . S
H3733 C3742 0.930 . S
H3734 C3747 0.929 . S
H3735 C3745 0.929 . S
H3736 C3740 0.929 . S
H3737 C3746 0.929 . S
C3738 H3732 0.930 . S
C3738 C3739 1.367 . S
C3738 C3746 1.378 . S
C3739 C3738 1.367 . S
C3739 C3747 1.433 . S
C3740 H3736 0.929 . S
C3740 C3742 1.378 . S
C3740 C3744 1.350 . S
C3741 C3744 1.463 . S
C3741 C3746 1.350 . S
C3741 N3749 1.427 . S
C3742 H3733 0.930 . S
C3742 C3740 1.378 . S
C3742 C3743 1.367 . S
C3743 C3742 1.367 . S
C3743 C3745 1.433 . S
C3744 C3740 1.350 . S
C3744 C3741 1.463 . S
C3744 N3748 1.427 . S
C3745 H3735 0.929 . S
C3745 C3743 1.433 . S
C3745 N3748 1.384 . S
C3746 H3737 0.929 . S
C3746 C3738 1.378 . S
C3746 C3741 1.350 . S
C3747 H3734 0.929 . S
C3747 C3739 1.433 . S
C3747 N3749 1.384 . S
N3748 C3744 1.427 . S
N3748 C3745 1.384 . S
N3749 C3741 1.427 . S
N3749 C3747 1.384 . S
H3750 C3756 0.930 . S
H3751 C3760 0.930 . S
H3752 C3765 0.929 . S
H3753 C3763 0.929 . S
H3754 C3758 0.929 . S
H3755 C3764 0.929 . S
C3756 H3750 0.930 . S
C3756 C3757 1.367 . S
C3756 C3764 1.378 . S
C3757 C3756 1.367 . S
C3757 C3765 1.433 . S
C3758 H3754 0.929 . S
C3758 C3760 1.378 . S
C3758 C3762 1.350 . S
C3759 C3762 1.463 . S
C3759 C3764 1.350 . S
C3759 N3767 1.427 . S
C3760 H3751 0.930 . S
C3760 C3758 1.378 . S
C3760 C3761 1.367 . S
C3761 C3760 1.367 . S
C3761 C3763 1.433 . S
C3762 C3758 1.350 . S
C3762 C3759 1.463 . S
C3762 N3766 1.427 . S
C3763 H3753 0.929 . S
C3763 C3761 1.433 . S
C3763 N3766 1.384 . S
C3764 H3755 0.929 . S
C3764 C3756 1.378 . S
C3764 C3759 1.350 . S
C3765 H3752 0.929 . S
C3765 C3757 1.433 . S
C3765 N3767 1.384 . S
N3766 C3762 1.427 . S
N3766 C3763 1.384 . S
N3767 C3759 1.427 . S
N3767 C3765 1.384 . S
H3768 C3774 0.930 . S
H3769 C3778 0.930 . S
H3770 C3783 0.929 . S
H3771 C3781 0.929 . S
H3772 C3776 0.929 . S
H3773 C3782 0.929 . S
C3774 H3768 0.930 . S
C3774 C3775 1.367 . S
C3774 C3782 1.378 . S
C3775 C3774 1.367 . S
C3775 C3783 1.433 . S
C3776 H3772 0.929 . S
C3776 C3778 1.378 . S
C3776 C3780 1.350 . S
C3777 C3780 1.463 . S
C3777 C3782 1.350 . S
C3777 N3785 1.427 . S
C3778 H3769 0.930 . S
C3778 C3776 1.378 . S
C3778 C3779 1.367 . S
C3779 C3778 1.367 . S
C3779 C3781 1.433 . S
C3780 C3776 1.350 . S
C3780 C3777 1.463 . S
C3780 N3784 1.427 . S
C3781 H3771 0.929 . S
C3781 C3779 1.433 . S
C3781 N3784 1.384 . S
C3782 H3773 0.929 . S
C3782 C3774 1.378 . S
C3782 C3777 1.350 . S
C3783 H3770 0.929 . S
C3783 C3775 1.433 . S
C3783 N3785 1.384 . S
N3784 C3780 1.427 . S
N3784 C3781 1.384 . S
N3785 C3777 1.427 . S
N3785 C3783 1.384 . S
H3786 C3792 0.930 . S
H3787 C3796 0.930 . S
H3788 C3801 0.929 . S
H3789 C3799 0.929 . S
H3790 C3794 0.929 . S
H3791 C3800 0.929 . S
C3792 H3786 0.930 . S
C3792 C3793 1.367 . S
C3792 C3800 1.378 . S
C3793 C3792 1.367 . S
C3793 C3801 1.433 . S
C3794 H3790 0.929 . S
C3794 C3796 1.378 . S
C3794 C3798 1.350 . S
C3795 C3798 1.463 . S
C3795 C3800 1.350 . S
C3795 N3803 1.427 . S
C3796 H3787 0.930 . S
C3796 C3794 1.378 . S
C3796 C3797 1.367 . S
C3797 C3796 1.367 . S
C3797 C3799 1.433 . S
C3798 C3794 1.350 . S
C3798 C3795 1.463 . S
C3798 N3802 1.427 . S
C3799 H3789 0.929 . S
C3799 C3797 1.433 . S
C3799 N3802 1.384 . S
C3800 H3791 0.929 . S
C3800 C3792 1.378 . S
C3800 C3795 1.350 . S
C3801 H3788 0.929 . S
C3801 C3793 1.433 . S
C3801 N3803 1.384 . S
N3802 C3798 1.427 . S
N3802 C3799 1.384 . S
N3803 C3795 1.427 . S
N3803 C3801 1.384 . S
H3804 C3810 0.930 . S
H3805 C3814 0.930 . S
H3806 C3819 0.929 . S
H3807 C3817 0.929 . S
H3808 C3812 0.929 . S
H3809 C3818 0.929 . S
C3810 H3804 0.930 . S
C3810 C3811 1.367 . S
C3810 C3818 1.378 . S
C3811 C3810 1.367 . S
C3811 C3819 1.433 . S
C3812 H3808 0.929 . S
C3812 C3814 1.378 . S
C3812 C3816 1.350 . S
C3813 C3816 1.463 . S
C3813 C3818 1.350 . S
C3813 N3821 1.427 . S
C3814 H3805 0.930 . S
C3814 C3812 1.378 . S
C3814 C3815 1.367 . S
C3815 C3814 1.367 . S
C3815 C3817 1.433 . S
C3816 C3812 1.350 . S
C3816 C3813 1.463 . S
C3816 N3820 1.427 . S
C3817 H3807 0.929 . S
C3817 C3815 1.433 . S
C3817 N3820 1.384 . S
C3818 H3809 0.929 . S
C3818 C3810 1.378 . S
C3818 C3813 1.350 . S
C3819 H3806 0.929 . S
C3819 C3811 1.433 . S
C3819 N3821 1.384 . S
N3820 C3816 1.427 . S
N3820 C3817 1.384 . S
N3821 C3813 1.427 . S
N3821 C3819 1.384 . S
H3822 C3828 0.930 . S
H3823 C3832 0.930 . S
H3824 C3837 0.929 . S
H3825 C3835 0.929 . S
H3826 C3830 0.929 . S
H3827 C3836 0.929 . S
C3828 H3822 0.930 . S
C3828 C3829 1.367 . S
C3828 C3836 1.378 . S
C3829 C3828 1.367 . S
C3829 C3837 1.433 . S
C3830 H3826 0.929 . S
C3830 C3832 1.378 . S
C3830 C3834 1.350 . S
C3831 C3834 1.463 . S
C3831 C3836 1.350 . S
C3831 N3839 1.427 . S
C3832 H3823 0.930 . S
C3832 C3830 1.378 . S
C3832 C3833 1.367 . S
C3833 C3832 1.367 . S
C3833 C3835 1.433 . S
C3834 C3830 1.350 . S
C3834 C3831 1.463 . S
C3834 N3838 1.427 . S
C3835 H3825 0.929 . S
C3835 C3833 1.433 . S
C3835 N3838 1.384 . S
C3836 H3827 0.929 . S
C3836 C3828 1.378 . S
C3836 C3831 1.350 . S
C3837 H3824 0.929 . S
C3837 C3829 1.433 . S
C3837 N3839 1.384 . S
N3838 C3834 1.427 . S
N3838 C3835 1.384 . S
N3839 C3831 1.427 . S
N3839 C3837 1.384 . S
H3840 C3846 0.930 . S
H3841 C3850 0.930 . S
H3842 C3855 0.929 . S
H3843 C3853 0.929 . S
H3844 C3848 0.929 . S
H3845 C3854 0.929 . S
C3846 H3840 0.930 . S
C3846 C3847 1.367 . S
C3846 C3854 1.378 . S
C3847 C3846 1.367 . S
C3847 C3855 1.433 . S
C3848 H3844 0.929 . S
C3848 C3850 1.378 . S
C3848 C3852 1.350 . S
C3849 C3852 1.463 . S
C3849 C3854 1.350 . S
C3849 N3857 1.427 . S
C3850 H3841 0.930 . S
C3850 C3848 1.378 . S
C3850 C3851 1.367 . S
C3851 C3850 1.367 . S
C3851 C3853 1.433 . S
C3852 C3848 1.350 . S
C3852 C3849 1.463 . S
C3852 N3856 1.427 . S
C3853 H3843 0.929 . S
C3853 C3851 1.433 . S
C3853 N3856 1.384 . S
C3854 H3845 0.929 . S
C3854 C3846 1.378 . S
C3854 C3849 1.350 . S
C3855 H3842 0.929 . S
C3855 C3847 1.433 . S
C3855 N3857 1.384 . S
N3856 C3852 1.427 . S
N3856 C3853 1.384 . S
N3857 C3849 1.427 . S
N3857 C3855 1.384 . S
H3858 C3864 0.930 . S
H3859 C3868 0.930 . S
H3860 C3873 0.929 . S
H3861 C3871 0.929 . S
H3862 C3866 0.929 . S
H3863 C3872 0.929 . S
C3864 H3858 0.930 . S
C3864 C3865 1.367 . S
C3864 C3872 1.378 . S
C3865 C3864 1.367 . S
C3865 C3873 1.433 . S
C3866 H3862 0.929 . S
C3866 C3868 1.378 . S
C3866 C3870 1.350 . S
C3867 C3870 1.463 . S
C3867 C3872 1.350 . S
C3867 N3875 1.427 . S
C3868 H3859 0.930 . S
C3868 C3866 1.378 . S
C3868 C3869 1.367 . S
C3869 C3868 1.367 . S
C3869 C3871 1.433 . S
C3870 C3866 1.350 . S
C3870 C3867 1.463 . S
C3870 N3874 1.427 . S
C3871 H3861 0.929 . S
C3871 C3869 1.433 . S
C3871 N3874 1.384 . S
C3872 H3863 0.929 . S
C3872 C3864 1.378 . S
C3872 C3867 1.350 . S
C3873 H3860 0.929 . S
C3873 C3865 1.433 . S
C3873 N3875 1.384 . S
N3874 C3870 1.427 . S
N3874 C3871 1.384 . S
N3875 C3867 1.427 . S
N3875 C3873 1.384 . S
H3876 C3882 0.930 . S
H3877 C3886 0.930 . S
H3878 C3891 0.929 . S
H3879 C3889 0.929 . S
H3880 C3884 0.929 . S
H3881 C3890 0.929 . S
C3882 H3876 0.930 . S
C3882 C3883 1.367 . S
C3882 C3890 1.378 . S
C3883 C3882 1.367 . S
C3883 C3891 1.433 . S
C3884 H3880 0.929 . S
C3884 C3886 1.378 . S
C3884 C3888 1.350 . S
C3885 C3888 1.463 . S
C3885 C3890 1.350 . S
C3885 N3893 1.427 . S
C3886 H3877 0.930 . S
C3886 C3884 1.378 . S
C3886 C3887 1.367 . S
C3887 C3886 1.367 . S
C3887 C3889 1.433 . S
C3888 C3884 1.350 . S
C3888 C3885 1.463 . S
C3888 N3892 1.427 . S
C3889 H3879 0.929 . S
C3889 C3887 1.433 . S
C3889 N3892 1.384 . S
C3890 H3881 0.929 . S
C3890 C3882 1.378 . S
C3890 C3885 1.350 . S
C3891 H3878 0.929 . S
C3891 C3883 1.433 . S
C3891 N3893 1.384 . S
N3892 C3888 1.427 . S
N3892 C3889 1.384 . S
N3893 C3885 1.427 . S
N3893 C3891 1.384 . S
H3894 C3900 0.930 . S
H3895 C3904 0.930 . S
H3896 C3909 0.929 . S
H3897 C3907 0.929 . S
H3898 C3902 0.929 . S
H3899 C3908 0.929 . S
C3900 H3894 0.930 . S
C3900 C3901 1.367 . S
C3900 C3908 1.378 . S
C3901 C3900 1.367 . S
C3901 C3909 1.433 . S
C3902 H3898 0.929 . S
C3902 C3904 1.378 . S
C3902 C3906 1.350 . S
C3903 C3906 1.463 . S
C3903 C3908 1.350 . S
C3903 N3911 1.427 . S
C3904 H3895 0.930 . S
C3904 C3902 1.378 . S
C3904 C3905 1.367 . S
C3905 C3904 1.367 . S
C3905 C3907 1.433 . S
C3906 C3902 1.350 . S
C3906 C3903 1.463 . S
C3906 N3910 1.427 . S
C3907 H3897 0.929 . S
C3907 C3905 1.433 . S
C3907 N3910 1.384 . S
C3908 H3899 0.929 . S
C3908 C3900 1.378 . S
C3908 C3903 1.350 . S
C3909 H3896 0.929 . S
C3909 C3901 1.433 . S
C3909 N3911 1.384 . S
N3910 C3906 1.427 . S
N3910 C3907 1.384 . S
N3911 C3903 1.427 . S
N3911 C3909 1.384 . S
H3912 C3918 0.930 . S
H3913 C3922 0.930 . S
H3914 C3927 0.929 . S
H3915 C3925 0.929 . S
H3916 C3920 0.929 . S
H3917 C3926 0.929 . S
C3918 H3912 0.930 . S
C3918 C3919 1.367 . S
C3918 C3926 1.378 . S
C3919 C3918 1.367 . S
C3919 C3927 1.433 . S
C3920 H3916 0.929 . S
C3920 C3922 1.378 . S
C3920 C3924 1.350 . S
C3921 C3924 1.463 . S
C3921 C3926 1.350 . S
C3921 N3929 1.427 . S
C3922 H3913 0.930 . S
C3922 C3920 1.378 . S
C3922 C3923 1.367 . S
C3923 C3922 1.367 . S
C3923 C3925 1.433 . S
C3924 C3920 1.350 . S
C3924 C3921 1.463 . S
C3924 N3928 1.427 . S
C3925 H3915 0.929 . S
C3925 C3923 1.433 . S
C3925 N3928 1.384 . S
C3926 H3917 0.929 . S
C3926 C3918 1.378 . S
C3926 C3921 1.350 . S
C3927 H3914 0.929 . S
C3927 C3919 1.433 . S
C3927 N3929 1.384 . S
N3928 C3924 1.427 . S
N3928 C3925 1.384 . S
N3929 C3921 1.427 . S
N3929 C3927 1.384 . S
H3930 C3936 0.930 . S
H3931 C3940 0.930 . S
H3932 C3945 0.929 . S
H3933 C3943 0.929 . S
H3934 C3938 0.929 . S
H3935 C3944 0.929 . S
C3936 H3930 0.930 . S
C3936 C3937 1.367 . S
C3936 C3944 1.378 . S
C3937 C3936 1.367 . S
C3937 C3945 1.433 . S
C3938 H3934 0.929 . S
C3938 C3940 1.378 . S
C3938 C3942 1.350 . S
C3939 C3942 1.463 . S
C3939 C3944 1.350 . S
C3939 N3947 1.427 . S
C3940 H3931 0.930 . S
C3940 C3938 1.378 . S
C3940 C3941 1.367 . S
C3941 C3940 1.367 . S
C3941 C3943 1.433 . S
C3942 C3938 1.350 . S
C3942 C3939 1.463 . S
C3942 N3946 1.427 . S
C3943 H3933 0.929 . S
C3943 C3941 1.433 . S
C3943 N3946 1.384 . S
C3944 H3935 0.929 . S
C3944 C3936 1.378 . S
C3944 C3939 1.350 . S
C3945 H3932 0.929 . S
C3945 C3937 1.433 . S
C3945 N3947 1.384 . S
N3946 C3942 1.427 . S
N3946 C3943 1.384 . S
N3947 C3939 1.427 . S
N3947 C3945 1.384 . S
H3948 C3954 0.930 . S
H3949 C3958 0.930 . S
H3950 C3963 0.929 . S
H3951 C3961 0.929 . S
H3952 C3956 0.929 . S
H3953 C3962 0.929 . S
C3954 H3948 0.930 . S
C3954 C3955 1.367 . S
C3954 C3962 1.378 . S
C3955 C3954 1.367 . S
C3955 C3963 1.433 . S
C3956 H3952 0.929 . S
C3956 C3958 1.378 . S
C3956 C3960 1.350 . S
C3957 C3960 1.463 . S
C3957 C3962 1.350 . S
C3957 N3965 1.427 . S
C3958 H3949 0.930 . S
C3958 C3956 1.378 . S
C3958 C3959 1.367 . S
C3959 C3958 1.367 . S
C3959 C3961 1.433 . S
C3960 C3956 1.350 . S
C3960 C3957 1.463 . S
C3960 N3964 1.427 . S
C3961 H3951 0.929 . S
C3961 C3959 1.433 . S
C3961 N3964 1.384 . S
C3962 H3953 0.929 . S
C3962 C3954 1.378 . S
C3962 C3957 1.350 . S
C3963 H3950 0.929 . S
C3963 C3955 1.433 . S
C3963 N3965 1.384 . S
N3964 C3960 1.427 . S
N3964 C3961 1.384 . S
N3965 C3957 1.427 . S
N3965 C3963 1.384 . S
H3966 C3972 0.930 . S
H3967 C3976 0.930 . S
H3968 C3981 0.929 . S
H3969 C3979 0.929 . S
H3970 C3974 0.929 . S
H3971 C3980 0.929 . S
C3972 H3966 0.930 . S
C3972 C3973 1.367 . S
C3972 C3980 1.378 . S
C3973 C3972 1.367 . S
C3973 C3981 1.433 . S
C3974 H3970 0.929 . S
C3974 C3976 1.378 . S
C3974 C3978 1.350 . S
C3975 C3978 1.463 . S
C3975 C3980 1.350 . S
C3975 N3983 1.427 . S
C3976 H3967 0.930 . S
C3976 C3974 1.378 . S
C3976 C3977 1.367 . S
C3977 C3976 1.367 . S
C3977 C3979 1.433 . S
C3978 C3974 1.350 . S
C3978 C3975 1.463 . S
C3978 N3982 1.427 . S
C3979 H3969 0.929 . S
C3979 C3977 1.433 . S
C3979 N3982 1.384 . S
C3980 H3971 0.929 . S
C3980 C3972 1.378 . S
C3980 C3975 1.350 . S
C3981 H3968 0.929 . S
C3981 C3973 1.433 . S
C3981 N3983 1.384 . S
N3982 C3978 1.427 . S
N3982 C3979 1.384 . S
N3983 C3975 1.427 . S
N3983 C3981 1.384 . S
H3984 C3990 0.930 . S
H3985 C3994 0.930 . S
H3986 C3999 0.929 . S
H3987 C3997 0.929 . S
H3988 C3992 0.929 . S
H3989 C3998 0.929 . S
C3990 H3984 0.930 . S
C3990 C3991 1.367 . S
C3990 C3998 1.378 . S
C3991 C3990 1.367 . S
C3991 C3999 1.433 . S
C3992 H3988 0.929 . S
C3992 C3994 1.378 . S
C3992 C3996 1.350 . S
C3993 C3996 1.463 . S
C3993 C3998 1.350 . S
C3993 N4001 1.427 . S
C3994 H3985 0.930 . S
C3994 C3992 1.378 . S
C3994 C3995 1.367 . S
C3995 C3994 1.367 . S
C3995 C3997 1.433 . S
C3996 C3992 1.350 . S
C3996 C3993 1.463 . S
C3996 N4000 1.427 . S
C3997 H3987 0.929 . S
C3997 C3995 1.433 . S
C3997 N4000 1.384 . S
C3998 H3989 0.929 . S
C3998 C3990 1.378 . S
C3998 C3993 1.350 . S
C3999 H3986 0.929 . S
C3999 C3991 1.433 . S
C3999 N4001 1.384 . S
N4000 C3996 1.427 . S
N4000 C3997 1.384 . S
N4001 C3993 1.427 . S
N4001 C3999 1.384 . S
H4002 C4008 0.930 . S
H4003 C4012 0.930 . S
H4004 C4017 0.929 . S
H4005 C4015 0.929 . S
H4006 C4010 0.929 . S
H4007 C4016 0.929 . S
C4008 H4002 0.930 . S
C4008 C4009 1.367 . S
C4008 C4016 1.378 . S
C4009 C4008 1.367 . S
C4009 C4017 1.433 . S
C4010 H4006 0.929 . S
C4010 C4012 1.378 . S
C4010 C4014 1.350 . S
C4011 C4014 1.463 . S
C4011 C4016 1.350 . S
C4011 N4019 1.427 . S
C4012 H4003 0.930 . S
C4012 C4010 1.378 . S
C4012 C4013 1.367 . S
C4013 C4012 1.367 . S
C4013 C4015 1.433 . S
C4014 C4010 1.350 . S
C4014 C4011 1.463 . S
C4014 N4018 1.427 . S
C4015 H4005 0.929 . S
C4015 C4013 1.433 . S
C4015 N4018 1.384 . S
C4016 H4007 0.929 . S
C4016 C4008 1.378 . S
C4016 C4011 1.350 . S
C4017 H4004 0.929 . S
C4017 C4009 1.433 . S
C4017 N4019 1.384 . S
N4018 C4014 1.427 . S
N4018 C4015 1.384 . S
N4019 C4011 1.427 . S
N4019 C4017 1.384 . S
H4020 C4026 0.930 . S
H4021 C4030 0.930 . S
H4022 C4035 0.929 . S
H4023 C4033 0.929 . S
H4024 C4028 0.929 . S
H4025 C4034 0.929 . S
C4026 H4020 0.930 . S
C4026 C4027 1.367 . S
C4026 C4034 1.378 . S
C4027 C4026 1.367 . S
C4027 C4035 1.433 . S
C4028 H4024 0.929 . S
C4028 C4030 1.378 . S
C4028 C4032 1.350 . S
C4029 C4032 1.463 . S
C4029 C4034 1.350 . S
C4029 N4037 1.427 . S
C4030 H4021 0.930 . S
C4030 C4028 1.378 . S
C4030 C4031 1.367 . S
C4031 C4030 1.367 . S
C4031 C4033 1.433 . S
C4032 C4028 1.350 . S
C4032 C4029 1.463 . S
C4032 N4036 1.427 . S
C4033 H4023 0.929 . S
C4033 C4031 1.433 . S
C4033 N4036 1.384 . S
C4034 H4025 0.929 . S
C4034 C4026 1.378 . S
C4034 C4029 1.350 . S
C4035 H4022 0.929 . S
C4035 C4027 1.433 . S
C4035 N4037 1.384 . S
N4036 C4032 1.427 . S
N4036 C4033 1.384 . S
N4037 C4029 1.427 . S
N4037 C4035 1.384 . S
H4038 C4044 0.930 . S
H4039 C4048 0.930 . S
H4040 C4053 0.929 . S
H4041 C4051 0.929 . S
H4042 C4046 0.929 . S
H4043 C4052 0.929 . S
C4044 H4038 0.930 . S
C4044 C4045 1.367 . S
C4044 C4052 1.378 . S
C4045 C4044 1.367 . S
C4045 C4053 1.433 . S
C4046 H4042 0.929 . S
C4046 C4048 1.378 . S
C4046 C4050 1.350 . S
C4047 C4050 1.463 . S
C4047 C4052 1.350 . S
C4047 N4055 1.427 . S
C4048 H4039 0.930 . S
C4048 C4046 1.378 . S
C4048 C4049 1.367 . S
C4049 C4048 1.367 . S
C4049 C4051 1.433 . S
C4050 C4046 1.350 . S
C4050 C4047 1.463 . S
C4050 N4054 1.427 . S
C4051 H4041 0.929 . S
C4051 C4049 1.433 . S
C4051 N4054 1.384 . S
C4052 H4043 0.929 . S
C4052 C4044 1.378 . S
C4052 C4047 1.350 . S
C4053 H4040 0.929 . S
C4053 C4045 1.433 . S
C4053 N4055 1.384 . S
N4054 C4050 1.427 . S
N4054 C4051 1.384 . S
N4055 C4047 1.427 . S
N4055 C4053 1.384 . S
H4056 C4062 0.930 . S
H4057 C4066 0.930 . S
H4058 C4071 0.929 . S
H4059 C4069 0.929 . S
H4060 C4064 0.929 . S
H4061 C4070 0.929 . S
C4062 H4056 0.930 . S
C4062 C4063 1.367 . S
C4062 C4070 1.378 . S
C4063 C4062 1.367 . S
C4063 C4071 1.433 . S
C4064 H4060 0.929 . S
C4064 C4066 1.378 . S
C4064 C4068 1.350 . S
C4065 C4068 1.463 . S
C4065 C4070 1.350 . S
C4065 N4073 1.427 . S
C4066 H4057 0.930 . S
C4066 C4064 1.378 . S
C4066 C4067 1.367 . S
C4067 C4066 1.367 . S
C4067 C4069 1.433 . S
C4068 C4064 1.350 . S
C4068 C4065 1.463 . S
C4068 N4072 1.427 . S
C4069 H4059 0.929 . S
C4069 C4067 1.433 . S
C4069 N4072 1.384 . S
C4070 H4061 0.929 . S
C4070 C4062 1.378 . S
C4070 C4065 1.350 . S
C4071 H4058 0.929 . S
C4071 C4063 1.433 . S
C4071 N4073 1.384 . S
N4072 C4068 1.427 . S
N4072 C4069 1.384 . S
N4073 C4065 1.427 . S
N4073 C4071 1.384 . S
H4074 C4080 0.930 . S
H4075 C4084 0.930 . S
H4076 C4089 0.929 . S
H4077 C4087 0.929 . S
H4078 C4082 0.929 . S
H4079 C4088 0.929 . S
C4080 H4074 0.930 . S
C4080 C4081 1.367 . S
C4080 C4088 1.378 . S
C4081 C4080 1.367 . S
C4081 C4089 1.433 . S
C4082 H4078 0.929 . S
C4082 C4084 1.378 . S
C4082 C4086 1.350 . S
C4083 C4086 1.463 . S
C4083 C4088 1.350 . S
C4083 N4091 1.427 . S
C4084 H4075 0.930 . S
C4084 C4082 1.378 . S
C4084 C4085 1.367 . S
C4085 C4084 1.367 . S
C4085 C4087 1.433 . S
C4086 C4082 1.350 . S
C4086 C4083 1.463 . S
C4086 N4090 1.427 . S
C4087 H4077 0.929 . S
C4087 C4085 1.433 . S
C4087 N4090 1.384 . S
C4088 H4079 0.929 . S
C4088 C4080 1.378 . S
C4088 C4083 1.350 . S
C4089 H4076 0.929 . S
C4089 C4081 1.433 . S
C4089 N4091 1.384 . S
N4090 C4086 1.427 . S
N4090 C4087 1.384 . S
N4091 C4083 1.427 . S
N4091 C4089 1.384 . S
H4092 C4098 0.930 . S
H4093 C4102 0.930 . S
H4094 C4107 0.929 . S
H4095 C4105 0.929 . S
H4096 C4100 0.929 . S
H4097 C4106 0.929 . S
C4098 H4092 0.930 . S
C4098 C4099 1.367 . S
C4098 C4106 1.378 . S
C4099 C4098 1.367 . S
C4099 C4107 1.433 . S
C4100 H4096 0.929 . S
C4100 C4102 1.378 . S
C4100 C4104 1.350 . S
C4101 C4104 1.463 . S
C4101 C4106 1.350 . S
C4101 N4109 1.427 . S
C4102 H4093 0.930 . S
C4102 C4100 1.378 . S
C4102 C4103 1.367 . S
C4103 C4102 1.367 . S
C4103 C4105 1.433 . S
C4104 C4100 1.350 . S
C4104 C4101 1.463 . S
C4104 N4108 1.427 . S
C4105 H4095 0.929 . S
C4105 C4103 1.433 . S
C4105 N4108 1.384 . S
C4106 H4097 0.929 . S
C4106 C4098 1.378 . S
C4106 C4101 1.350 . S
C4107 H4094 0.929 . S
C4107 C4099 1.433 . S
C4107 N4109 1.384 . S
N4108 C4104 1.427 . S
N4108 C4105 1.384 . S
N4109 C4101 1.427 . S
N4109 C4107 1.384 . S
H4110 C4116 0.930 . S
H4111 C4120 0.930 . S
H4112 C4125 0.929 . S
H4113 C4123 0.929 . S
H4114 C4118 0.929 . S
H4115 C4124 0.929 . S
C4116 H4110 0.930 . S
C4116 C4117 1.367 . S
C4116 C4124 1.378 . S
C4117 C4116 1.367 . S
C4117 C4125 1.433 . S
C4118 H4114 0.929 . S
C4118 C4120 1.378 . S
C4118 C4122 1.350 . S
C4119 C4122 1.463 . S
C4119 C4124 1.350 . S
C4119 N4127 1.427 . S
C4120 H4111 0.930 . S
C4120 C4118 1.378 . S
C4120 C4121 1.367 . S
C4121 C4120 1.367 . S
C4121 C4123 1.433 . S
C4122 C4118 1.350 . S
C4122 C4119 1.463 . S
C4122 N4126 1.427 . S
C4123 H4113 0.929 . S
C4123 C4121 1.433 . S
C4123 N4126 1.384 . S
C4124 H4115 0.929 . S
C4124 C4116 1.378 . S
C4124 C4119 1.350 . S
C4125 H4112 0.929 . S
C4125 C4117 1.433 . S
C4125 N4127 1.384 . S
N4126 C4122 1.427 . S
N4126 C4123 1.384 . S
N4127 C4119 1.427 . S
N4127 C4125 1.384 . S
H4128 C4134 0.930 . S
H4129 C4138 0.930 . S
H4130 C4143 0.929 . S
H4131 C4141 0.929 . S
H4132 C4136 0.929 . S
H4133 C4142 0.929 . S
C4134 H4128 0.930 . S
C4134 C4135 1.367 . S
C4134 C4142 1.378 . S
C4135 C4134 1.367 . S
C4135 C4143 1.433 . S
C4136 H4132 0.929 . S
C4136 C4138 1.378 . S
C4136 C4140 1.350 . S
C4137 C4140 1.463 . S
C4137 C4142 1.350 . S
C4137 N4145 1.427 . S
C4138 H4129 0.930 . S
C4138 C4136 1.378 . S
C4138 C4139 1.367 . S
C4139 C4138 1.367 . S
C4139 C4141 1.433 . S
C4140 C4136 1.350 . S
C4140 C4137 1.463 . S
C4140 N4144 1.427 . S
C4141 H4131 0.929 . S
C4141 C4139 1.433 . S
C4141 N4144 1.384 . S
C4142 H4133 0.929 . S
C4142 C4134 1.378 . S
C4142 C4137 1.350 . S
C4143 H4130 0.929 . S
C4143 C4135 1.433 . S
C4143 N4145 1.384 . S
N4144 C4140 1.427 . S
N4144 C4141 1.384 . S
N4145 C4137 1.427 . S
N4145 C4143 1.384 . S
H4146 C4152 0.930 . S
H4147 C4156 0.930 . S
H4148 C4161 0.929 . S
H4149 C4159 0.929 . S
H4150 C4154 0.929 . S
H4151 C4160 0.929 . S
C4152 H4146 0.930 . S
C4152 C4153 1.367 . S
C4152 C4160 1.378 . S
C4153 C4152 1.367 . S
C4153 C4161 1.433 . S
C4154 H4150 0.929 . S
C4154 C4156 1.378 . S
C4154 C4158 1.350 . S
C4155 C4158 1.463 . S
C4155 C4160 1.350 . S
C4155 N4163 1.427 . S
C4156 H4147 0.930 . S
C4156 C4154 1.378 . S
C4156 C4157 1.367 . S
C4157 C4156 1.367 . S
C4157 C4159 1.433 . S
C4158 C4154 1.350 . S
C4158 C4155 1.463 . S
C4158 N4162 1.427 . S
C4159 H4149 0.929 . S
C4159 C4157 1.433 . S
C4159 N4162 1.384 . S
C4160 H4151 0.929 . S
C4160 C4152 1.378 . S
C4160 C4155 1.350 . S
C4161 H4148 0.929 . S
C4161 C4153 1.433 . S
C4161 N4163 1.384 . S
N4162 C4158 1.427 . S
N4162 C4159 1.384 . S
N4163 C4155 1.427 . S
N4163 C4161 1.384 . S
H4164 C4170 0.930 . S
H4165 C4174 0.930 . S
H4166 C4179 0.929 . S
H4167 C4177 0.929 . S
H4168 C4172 0.929 . S
H4169 C4178 0.929 . S
C4170 H4164 0.930 . S
C4170 C4171 1.367 . S
C4170 C4178 1.378 . S
C4171 C4170 1.367 . S
C4171 C4179 1.433 . S
C4172 H4168 0.929 . S
C4172 C4174 1.378 . S
C4172 C4176 1.350 . S
C4173 C4176 1.463 . S
C4173 C4178 1.350 . S
C4173 N4181 1.427 . S
C4174 H4165 0.930 . S
C4174 C4172 1.378 . S
C4174 C4175 1.367 . S
C4175 C4174 1.367 . S
C4175 C4177 1.433 . S
C4176 C4172 1.350 . S
C4176 C4173 1.463 . S
C4176 N4180 1.427 . S
C4177 H4167 0.929 . S
C4177 C4175 1.433 . S
C4177 N4180 1.384 . S
C4178 H4169 0.929 . S
C4178 C4170 1.378 . S
C4178 C4173 1.350 . S
C4179 H4166 0.929 . S
C4179 C4171 1.433 . S
C4179 N4181 1.384 . S
N4180 C4176 1.427 . S
N4180 C4177 1.384 . S
N4181 C4173 1.427 . S
N4181 C4179 1.384 . S
H4182 C4188 0.930 . S
H4183 C4192 0.930 . S
H4184 C4197 0.929 . S
H4185 C4195 0.929 . S
H4186 C4190 0.929 . S
H4187 C4196 0.929 . S
C4188 H4182 0.930 . S
C4188 C4189 1.367 . S
C4188 C4196 1.378 . S
C4189 C4188 1.367 . S
C4189 C4197 1.433 . S
C4190 H4186 0.929 . S
C4190 C4192 1.378 . S
C4190 C4194 1.350 . S
C4191 C4194 1.463 . S
C4191 C4196 1.350 . S
C4191 N4199 1.427 . S
C4192 H4183 0.930 . S
C4192 C4190 1.378 . S
C4192 C4193 1.367 . S
C4193 C4192 1.367 . S
C4193 C4195 1.433 . S
C4194 C4190 1.350 . S
C4194 C4191 1.463 . S
C4194 N4198 1.427 . S
C4195 H4185 0.929 . S
C4195 C4193 1.433 . S
C4195 N4198 1.384 . S
C4196 H4187 0.929 . S
C4196 C4188 1.378 . S
C4196 C4191 1.350 . S
C4197 H4184 0.929 . S
C4197 C4189 1.433 . S
C4197 N4199 1.384 . S
N4198 C4194 1.427 . S
N4198 C4195 1.384 . S
N4199 C4191 1.427 . S
N4199 C4197 1.384 . S
H4200 C4206 0.930 . S
H4201 C4210 0.930 . S
H4202 C4215 0.929 . S
H4203 C4213 0.929 . S
H4204 C4208 0.929 . S
H4205 C4214 0.929 . S
C4206 H4200 0.930 . S
C4206 C4207 1.367 . S
C4206 C4214 1.378 . S
C4207 C4206 1.367 . S
C4207 C4215 1.433 . S
C4208 H4204 0.929 . S
C4208 C4210 1.378 . S
C4208 C4212 1.350 . S
C4209 C4212 1.463 . S
C4209 C4214 1.350 . S
C4209 N4217 1.427 . S
C4210 H4201 0.930 . S
C4210 C4208 1.378 . S
C4210 C4211 1.367 . S
C4211 C4210 1.367 . S
C4211 C4213 1.433 . S
C4212 C4208 1.350 . S
C4212 C4209 1.463 . S
C4212 N4216 1.427 . S
C4213 H4203 0.929 . S
C4213 C4211 1.433 . S
C4213 N4216 1.384 . S
C4214 H4205 0.929 . S
C4214 C4206 1.378 . S
C4214 C4209 1.350 . S
C4215 H4202 0.929 . S
C4215 C4207 1.433 . S
C4215 N4217 1.384 . S
N4216 C4212 1.427 . S
N4216 C4213 1.384 . S
N4217 C4209 1.427 . S
N4217 C4215 1.384 . S
H4218 C4224 0.930 . S
H4219 C4228 0.930 . S
H4220 C4233 0.929 . S
H4221 C4231 0.929 . S
H4222 C4226 0.929 . S
H4223 C4232 0.929 . S
C4224 H4218 0.930 . S
C4224 C4225 1.367 . S
C4224 C4232 1.378 . S
C4225 C4224 1.367 . S
C4225 C4233 1.433 . S
C4226 H4222 0.929 . S
C4226 C4228 1.378 . S
C4226 C4230 1.350 . S
C4227 C4230 1.463 . S
C4227 C4232 1.350 . S
C4227 N4235 1.427 . S
C4228 H4219 0.930 . S
C4228 C4226 1.378 . S
C4228 C4229 1.367 . S
C4229 C4228 1.367 . S
C4229 C4231 1.433 . S
C4230 C4226 1.350 . S
C4230 C4227 1.463 . S
C4230 N4234 1.427 . S
C4231 H4221 0.929 . S
C4231 C4229 1.433 . S
C4231 N4234 1.384 . S
C4232 H4223 0.929 . S
C4232 C4224 1.378 . S
C4232 C4227 1.350 . S
C4233 H4220 0.929 . S
C4233 C4225 1.433 . S
C4233 N4235 1.384 . S
N4234 C4230 1.427 . S
N4234 C4231 1.384 . S
N4235 C4227 1.427 . S
N4235 C4233 1.384 . S
H4236 C4242 0.930 . S
H4237 C4246 0.930 . S
H4238 C4251 0.929 . S
H4239 C4249 0.929 . S
H4240 C4244 0.929 . S
H4241 C4250 0.929 . S
C4242 H4236 0.930 . S
C4242 C4243 1.367 . S
C4242 C4250 1.378 . S
C4243 C4242 1.367 . S
C4243 C4251 1.433 . S
C4244 H4240 0.929 . S
C4244 C4246 1.378 . S
C4244 C4248 1.350 . S
C4245 C4248 1.463 . S
C4245 C4250 1.350 . S
C4245 N4253 1.427 . S
C4246 H4237 0.930 . S
C4246 C4244 1.378 . S
C4246 C4247 1.367 . S
C4247 C4246 1.367 . S
C4247 C4249 1.433 . S
C4248 C4244 1.350 . S
C4248 C4245 1.463 . S
C4248 N4252 1.427 . S
C4249 H4239 0.929 . S
C4249 C4247 1.433 . S
C4249 N4252 1.384 . S
C4250 H4241 0.929 . S
C4250 C4242 1.378 . S
C4250 C4245 1.350 . S
C4251 H4238 0.929 . S
C4251 C4243 1.433 . S
C4251 N4253 1.384 . S
N4252 C4248 1.427 . S
N4252 C4249 1.384 . S
N4253 C4245 1.427 . S
N4253 C4251 1.384 . S
H4254 C4260 0.930 . S
H4255 C4264 0.930 . S
H4256 C4269 0.929 . S
H4257 C4267 0.929 . S
H4258 C4262 0.929 . S
H4259 C4268 0.929 . S
C4260 H4254 0.930 . S
C4260 C4261 1.367 . S
C4260 C4268 1.378 . S
C4261 C4260 1.367 . S
C4261 C4269 1.433 . S
C4262 H4258 0.929 . S
C4262 C4264 1.378 . S
C4262 C4266 1.350 . S
C4263 C4266 1.463 . S
C4263 C4268 1.350 . S
C4263 N4271 1.427 . S
C4264 H4255 0.930 . S
C4264 C4262 1.378 . S
C4264 C4265 1.367 . S
C4265 C4264 1.367 . S
C4265 C4267 1.433 . S
C4266 C4262 1.350 . S
C4266 C4263 1.463 . S
C4266 N4270 1.427 . S
C4267 H4257 0.929 . S
C4267 C4265 1.433 . S
C4267 N4270 1.384 . S
C4268 H4259 0.929 . S
C4268 C4260 1.378 . S
C4268 C4263 1.350 . S
C4269 H4256 0.929 . S
C4269 C4261 1.433 . S
C4269 N4271 1.384 . S
N4270 C4266 1.427 . S
N4270 C4267 1.384 . S
N4271 C4263 1.427 . S
N4271 C4269 1.384 . S
H4272 C4278 0.930 . S
H4273 C4282 0.930 . S
H4274 C4287 0.929 . S
H4275 C4285 0.929 . S
H4276 C4280 0.929 . S
H4277 C4286 0.929 . S
C4278 H4272 0.930 . S
C4278 C4279 1.367 . S
C4278 C4286 1.378 . S
C4279 C4278 1.367 . S
C4279 C4287 1.433 . S
C4280 H4276 0.929 . S
C4280 C4282 1.378 . S
C4280 C4284 1.350 . S
C4281 C4284 1.463 . S
C4281 C4286 1.350 . S
C4281 N4289 1.427 . S
C4282 H4273 0.930 . S
C4282 C4280 1.378 . S
C4282 C4283 1.367 . S
C4283 C4282 1.367 . S
C4283 C4285 1.433 . S
C4284 C4280 1.350 . S
C4284 C4281 1.463 . S
C4284 N4288 1.427 . S
C4285 H4275 0.929 . S
C4285 C4283 1.433 . S
C4285 N4288 1.384 . S
C4286 H4277 0.929 . S
C4286 C4278 1.378 . S
C4286 C4281 1.350 . S
C4287 H4274 0.929 . S
C4287 C4279 1.433 . S
C4287 N4289 1.384 . S
N4288 C4284 1.427 . S
N4288 C4285 1.384 . S
N4289 C4281 1.427 . S
N4289 C4287 1.384 . S
H4290 C4296 0.930 . S
H4291 C4300 0.930 . S
H4292 C4305 0.929 . S
H4293 C4303 0.929 . S
H4294 C4298 0.929 . S
H4295 C4304 0.929 . S
C4296 H4290 0.930 . S
C4296 C4297 1.367 . S
C4296 C4304 1.378 . S
C4297 C4296 1.367 . S
C4297 C4305 1.433 . S
C4298 H4294 0.929 . S
C4298 C4300 1.378 . S
C4298 C4302 1.350 . S
C4299 C4302 1.463 . S
C4299 C4304 1.350 . S
C4299 N4307 1.427 . S
C4300 H4291 0.930 . S
C4300 C4298 1.378 . S
C4300 C4301 1.367 . S
C4301 C4300 1.367 . S
C4301 C4303 1.433 . S
C4302 C4298 1.350 . S
C4302 C4299 1.463 . S
C4302 N4306 1.427 . S
C4303 H4293 0.929 . S
C4303 C4301 1.433 . S
C4303 N4306 1.384 . S
C4304 H4295 0.929 . S
C4304 C4296 1.378 . S
C4304 C4299 1.350 . S
C4305 H4292 0.929 . S
C4305 C4297 1.433 . S
C4305 N4307 1.384 . S
N4306 C4302 1.427 . S
N4306 C4303 1.384 . S
N4307 C4299 1.427 . S
N4307 C4305 1.384 . S
H4308 C4314 0.930 . S
H4309 C4318 0.930 . S
H4310 C4323 0.929 . S
H4311 C4321 0.929 . S
H4312 C4316 0.929 . S
H4313 C4322 0.929 . S
C4314 H4308 0.930 . S
C4314 C4315 1.367 . S
C4314 C4322 1.378 . S
C4315 C4314 1.367 . S
C4315 C4323 1.433 . S
C4316 H4312 0.929 . S
C4316 C4318 1.378 . S
C4316 C4320 1.350 . S
C4317 C4320 1.463 . S
C4317 C4322 1.350 1_554 S
C4317 N4325 1.427 . S
C4318 H4309 0.930 . S
C4318 C4316 1.378 . S
C4318 C4319 1.367 . S
C4319 C4318 1.367 . S
C4319 C4321 1.433 . S
C4320 C4316 1.350 . S
C4320 C4317 1.463 . S
C4320 N4324 1.427 . S
C4321 H4311 0.929 . S
C4321 C4319 1.433 . S
C4321 N4324 1.384 . S
C4322 H4313 0.929 . S
C4322 C4314 1.378 . S
C4322 C4317 1.350 1_556 S
C4323 H4310 0.929 . S
C4323 C4315 1.433 . S
C4323 N4325 1.384 1_556 S
N4324 C4320 1.427 . S
N4324 C4321 1.384 . S
N4325 C4317 1.427 . S
N4325 C4323 1.384 1_554 S
H4326 C4332 0.930 . S
H4327 C4336 0.930 . S
H4328 C4341 0.929 . S
H4329 C4339 0.929 . S
H4330 C4334 0.929 . S
H4331 C4340 0.929 . S
C4332 H4326 0.930 . S
C4332 C4333 1.367 . S
C4332 C4340 1.378 . S
C4333 C4332 1.367 . S
C4333 C4341 1.433 . S
C4334 H4330 0.929 . S
C4334 C4336 1.378 . S
C4334 C4338 1.350 . S
C4335 C4338 1.463 . S
C4335 C4340 1.350 . S
C4335 N4343 1.427 . S
C4336 H4327 0.930 . S
C4336 C4334 1.378 . S
C4336 C4337 1.367 . S
C4337 C4336 1.367 . S
C4337 C4339 1.433 . S
C4338 C4334 1.350 . S
C4338 C4335 1.463 . S
C4338 N4342 1.427 . S
C4339 H4329 0.929 . S
C4339 C4337 1.433 . S
C4339 N4342 1.384 . S
C4340 H4331 0.929 . S
C4340 C4332 1.378 . S
C4340 C4335 1.350 . S
C4341 H4328 0.929 . S
C4341 C4333 1.433 . S
C4341 N4343 1.384 . S
N4342 C4338 1.427 . S
N4342 C4339 1.384 . S
N4343 C4335 1.427 . S
N4343 C4341 1.384 . S
H4344 C4350 0.930 1_556 S
H4345 C4354 0.930 . S
H4346 C4359 0.929 . S
H4347 C4357 0.929 . S
H4348 C4352 0.929 . S
H4349 C4358 0.929 . S
C4350 H4344 0.930 1_554 S
C4350 C4351 1.375 . S
C4350 C4358 1.370 1_554 S
C4351 C4350 1.375 . S
C4351 C4359 1.433 . S
C4352 H4348 0.929 . S
C4352 C4354 1.378 . S
C4352 C4356 1.350 . S
C4353 C4356 1.463 . S
C4353 C4358 1.350 . S
C4353 N4361 1.427 1_556 S
C4354 H4345 0.930 . S
C4354 C4352 1.378 . S
C4354 C4355 1.367 . S
C4355 C4354 1.367 . S
C4355 C4357 1.433 . S
C4356 C4352 1.350 . S
C4356 C4353 1.463 . S
C4356 N4360 1.427 . S
C4357 H4347 0.929 . S
C4357 C4355 1.433 . S
C4357 N4360 1.384 . S
C4358 H4349 0.929 . S
C4358 C4350 1.370 1_556 S
C4358 C4353 1.350 . S
C4359 H4346 0.929 . S
C4359 C4351 1.433 . S
C4359 N4361 1.384 . S
N4360 C4356 1.427 . S
N4360 C4357 1.384 . S
N4361 C4353 1.427 1_554 S
N4361 C4359 1.384 . S
H4362 C4368 0.930 . S
H4363 C4372 0.930 . S
H4364 C4377 0.929 . S
H4365 C4375 0.929 . S
H4366 C4370 0.929 . S
H4367 C4376 0.929 . S
C4368 H4362 0.930 . S
C4368 C4369 1.367 . S
C4368 C4376 1.378 . S
C4369 C4368 1.367 . S
C4369 C4377 1.433 . S
C4370 H4366 0.929 . S
C4370 C4372 1.378 . S
C4370 C4374 1.350 . S
C4371 C4374 1.463 . S
C4371 C4376 1.350 . S
C4371 N4379 1.427 . S
C4372 H4363 0.930 . S
C4372 C4370 1.378 . S
C4372 C4373 1.367 . S
C4373 C4372 1.367 . S
C4373 C4375 1.433 . S
C4374 C4370 1.350 . S
C4374 C4371 1.463 . S
C4374 N4378 1.427 . S
C4375 H4365 0.929 . S
C4375 C4373 1.433 . S
C4375 N4378 1.384 . S
C4376 H4367 0.929 . S
C4376 C4368 1.378 . S
C4376 C4371 1.350 . S
C4377 H4364 0.929 . S
C4377 C4369 1.433 . S
C4377 N4379 1.384 . S
N4378 C4374 1.427 . S
N4378 C4375 1.384 . S
N4379 C4371 1.427 . S
N4379 C4377 1.384 . S
H4380 C4386 0.930 . S
H4381 C4390 0.930 . S
H4382 C4395 0.929 . S
H4383 C4393 0.929 . S
H4384 C4388 0.929 . S
H4385 C4394 0.929 . S
C4386 H4380 0.930 . S
C4386 C4387 1.367 . S
C4386 C4394 1.378 . S
C4387 C4386 1.367 . S
C4387 C4395 1.433 . S
C4388 H4384 0.929 . S
C4388 C4390 1.378 . S
C4388 C4392 1.350 . S
C4389 C4392 1.463 . S
C4389 C4394 1.350 . S
C4389 N4397 1.427 . S
C4390 H4381 0.930 . S
C4390 C4388 1.378 . S
C4390 C4391 1.367 . S
C4391 C4390 1.367 . S
C4391 C4393 1.433 . S
C4392 C4388 1.350 . S
C4392 C4389 1.463 . S
C4392 N4396 1.427 . S
C4393 H4383 0.929 . S
C4393 C4391 1.433 . S
C4393 N4396 1.384 . S
C4394 H4385 0.929 . S
C4394 C4386 1.378 . S
C4394 C4389 1.350 . S
C4395 H4382 0.929 . S
C4395 C4387 1.433 . S
C4395 N4397 1.384 . S
N4396 C4392 1.427 . S
N4396 C4393 1.384 . S
N4397 C4389 1.427 . S
N4397 C4395 1.384 . S
H4398 C4404 0.930 . S
H4399 C4408 0.930 . S
H4400 C4413 0.929 . S
H4401 C4411 0.929 . S
H4402 C4406 0.929 . S
H4403 C4412 0.929 . S
C4404 H4398 0.930 . S
C4404 C4405 1.367 . S
C4404 C4412 1.378 . S
C4405 C4404 1.367 . S
C4405 C4413 1.433 . S
C4406 H4402 0.929 . S
C4406 C4408 1.378 . S
C4406 C4410 1.350 . S
C4407 C4410 1.463 . S
C4407 C4412 1.350 . S
C4407 N4415 1.427 . S
C4408 H4399 0.930 . S
C4408 C4406 1.378 . S
C4408 C4409 1.367 . S
C4409 C4408 1.367 . S
C4409 C4411 1.433 . S
C4410 C4406 1.350 . S
C4410 C4407 1.463 . S
C4410 N4414 1.427 . S
C4411 H4401 0.929 . S
C4411 C4409 1.433 . S
C4411 N4414 1.384 . S
C4412 H4403 0.929 . S
C4412 C4404 1.378 . S
C4412 C4407 1.350 . S
C4413 H4400 0.929 . S
C4413 C4405 1.433 . S
C4413 N4415 1.384 . S
N4414 C4410 1.427 . S
N4414 C4411 1.384 . S
N4415 C4407 1.427 . S
N4415 C4413 1.384 . S
H4416 C4422 0.930 . S
H4417 C4426 0.930 . S
H4418 C4431 0.929 . S
H4419 C4429 0.929 . S
H4420 C4424 0.929 . S
H4421 C4430 0.929 . S
C4422 H4416 0.930 . S
C4422 C4423 1.367 . S
C4422 C4430 1.378 . S
C4423 C4422 1.367 . S
C4423 C4431 1.433 . S
C4424 H4420 0.929 . S
C4424 C4426 1.378 . S
C4424 C4428 1.350 . S
C4425 C4428 1.463 . S
C4425 C4430 1.350 . S
C4425 N4433 1.427 . S
C4426 H4417 0.930 . S
C4426 C4424 1.378 . S
C4426 C4427 1.367 . S
C4427 C4426 1.367 . S
C4427 C4429 1.433 . S
C4428 C4424 1.350 . S
C4428 C4425 1.463 . S
C4428 N4432 1.427 . S
C4429 H4419 0.929 . S
C4429 C4427 1.433 . S
C4429 N4432 1.384 . S
C4430 H4421 0.929 . S
C4430 C4422 1.378 . S
C4430 C4425 1.350 . S
C4431 H4418 0.929 . S
C4431 C4423 1.433 . S
C4431 N4433 1.384 . S
N4432 C4428 1.427 . S
N4432 C4429 1.384 . S
N4433 C4425 1.427 . S
N4433 C4431 1.384 . S
H4434 C4440 0.930 . S
H4435 C4444 0.930 . S
H4436 C4449 0.929 . S
H4437 C4447 0.929 . S
H4438 C4442 0.929 . S
H4439 C4448 0.929 . S
C4440 H4434 0.930 . S
C4440 C4441 1.367 . S
C4440 C4448 1.378 . S
C4441 C4440 1.367 . S
C4441 C4449 1.433 . S
C4442 H4438 0.929 . S
C4442 C4444 1.378 . S
C4442 C4446 1.350 . S
C4443 C4446 1.463 . S
C4443 C4448 1.350 . S
C4443 N4451 1.427 . S
C4444 H4435 0.930 . S
C4444 C4442 1.378 . S
C4444 C4445 1.367 . S
C4445 C4444 1.367 . S
C4445 C4447 1.433 . S
C4446 C4442 1.350 . S
C4446 C4443 1.463 . S
C4446 N4450 1.427 . S
C4447 H4437 0.929 . S
C4447 C4445 1.433 . S
C4447 N4450 1.384 . S
C4448 H4439 0.929 . S
C4448 C4440 1.378 . S
C4448 C4443 1.350 . S
C4449 H4436 0.929 . S
C4449 C4441 1.433 . S
C4449 N4451 1.384 . S
N4450 C4446 1.427 . S
N4450 C4447 1.384 . S
N4451 C4443 1.427 . S
N4451 C4449 1.384 . S
H4452 C4458 0.930 . S
H4453 C4462 0.930 . S
H4454 C4467 0.929 . S
H4455 C4465 0.929 . S
H4456 C4460 0.929 . S
H4457 C4466 0.929 . S
C4458 H4452 0.930 . S
C4458 C4459 1.367 . S
C4458 C4466 1.378 . S
C4459 C4458 1.367 . S
C4459 C4467 1.433 . S
C4460 H4456 0.929 . S
C4460 C4462 1.378 . S
C4460 C4464 1.350 . S
C4461 C4464 1.463 . S
C4461 C4466 1.350 . S
C4461 N4469 1.427 . S
C4462 H4453 0.930 . S
C4462 C4460 1.378 . S
C4462 C4463 1.367 . S
C4463 C4462 1.367 . S
C4463 C4465 1.433 . S
C4464 C4460 1.350 . S
C4464 C4461 1.463 . S
C4464 N4468 1.427 . S
C4465 H4455 0.929 . S
C4465 C4463 1.433 . S
C4465 N4468 1.384 . S
C4466 H4457 0.929 . S
C4466 C4458 1.378 . S
C4466 C4461 1.350 . S
C4467 H4454 0.929 . S
C4467 C4459 1.433 . S
C4467 N4469 1.384 . S
N4468 C4464 1.427 . S
N4468 C4465 1.384 . S
N4469 C4461 1.427 . S
N4469 C4467 1.384 . S
H4470 C4476 0.930 . S
H4471 C4480 0.930 . S
H4472 C4485 0.929 . S
H4473 C4483 0.929 . S
H4474 C4478 0.929 . S
H4475 C4484 0.929 . S
C4476 H4470 0.930 . S
C4476 C4477 1.367 . S
C4476 C4484 1.378 . S
C4477 C4476 1.367 . S
C4477 C4485 1.433 . S
C4478 H4474 0.929 . S
C4478 C4480 1.378 . S
C4478 C4482 1.350 . S
C4479 C4482 1.463 . S
C4479 C4484 1.350 . S
C4479 N4487 1.427 . S
C4480 H4471 0.930 . S
C4480 C4478 1.378 . S
C4480 C4481 1.367 . S
C4481 C4480 1.367 . S
C4481 C4483 1.433 . S
C4482 C4478 1.350 . S
C4482 C4479 1.463 . S
C4482 N4486 1.427 . S
C4483 H4473 0.929 . S
C4483 C4481 1.433 . S
C4483 N4486 1.384 . S
C4484 H4475 0.929 . S
C4484 C4476 1.378 . S
C4484 C4479 1.350 . S
C4485 H4472 0.929 . S
C4485 C4477 1.433 . S
C4485 N4487 1.384 . S
N4486 C4482 1.427 . S
N4486 C4483 1.384 . S
N4487 C4479 1.427 . S
N4487 C4485 1.384 . S
H4488 C4494 0.930 . S
H4489 C4498 0.930 . S
H4490 C4503 0.929 . S
H4491 C4501 0.929 . S
H4492 C4496 0.929 . S
H4493 C4502 0.929 . S
C4494 H4488 0.930 . S
C4494 C4495 1.367 . S
C4494 C4502 1.378 . S
C4495 C4494 1.367 . S
C4495 C4503 1.433 . S
C4496 H4492 0.929 . S
C4496 C4498 1.378 . S
C4496 C4500 1.350 . S
C4497 C4500 1.463 . S
C4497 C4502 1.350 . S
C4497 N4505 1.427 . S
C4498 H4489 0.930 . S
C4498 C4496 1.378 . S
C4498 C4499 1.367 . S
C4499 C4498 1.367 . S
C4499 C4501 1.433 . S
C4500 C4496 1.350 . S
C4500 C4497 1.463 . S
C4500 N4504 1.427 . S
C4501 H4491 0.929 . S
C4501 C4499 1.433 . S
C4501 N4504 1.384 . S
C4502 H4493 0.929 . S
C4502 C4494 1.378 . S
C4502 C4497 1.350 . S
C4503 H4490 0.929 . S
C4503 C4495 1.433 . S
C4503 N4505 1.384 . S
N4504 C4500 1.427 . S
N4504 C4501 1.384 . S
N4505 C4497 1.427 . S
N4505 C4503 1.384 . S
H4506 C4512 0.930 . S
H4507 C4516 0.930 . S
H4508 C4521 0.929 . S
H4509 C4519 0.929 . S
H4510 C4514 0.929 . S
H4511 C4520 0.929 . S
C4512 H4506 0.930 . S
C4512 C4513 1.367 . S
C4512 C4520 1.378 . S
C4513 C4512 1.367 . S
C4513 C4521 1.433 . S
C4514 H4510 0.929 . S
C4514 C4516 1.378 . S
C4514 C4518 1.350 . S
C4515 C4518 1.463 . S
C4515 C4520 1.350 . S
C4515 N4523 1.427 . S
C4516 H4507 0.930 . S
C4516 C4514 1.378 . S
C4516 C4517 1.367 . S
C4517 C4516 1.367 . S
C4517 C4519 1.433 . S
C4518 C4514 1.350 . S
C4518 C4515 1.463 . S
C4518 N4522 1.427 . S
C4519 H4509 0.929 . S
C4519 C4517 1.433 . S
C4519 N4522 1.384 . S
C4520 H4511 0.929 . S
C4520 C4512 1.378 . S
C4520 C4515 1.350 . S
C4521 H4508 0.929 . S
C4521 C4513 1.433 . S
C4521 N4523 1.384 . S
N4522 C4518 1.427 . S
N4522 C4519 1.384 . S
N4523 C4515 1.427 . S
N4523 C4521 1.384 . S
H4524 C4530 0.930 . S
H4525 C4534 0.930 . S
H4526 C4539 0.929 . S
H4527 C4537 0.929 . S
H4528 C4532 0.929 . S
H4529 C4538 0.929 . S
C4530 H4524 0.930 . S
C4530 C4531 1.367 . S
C4530 C4538 1.378 . S
C4531 C4530 1.367 . S
C4531 C4539 1.433 . S
C4532 H4528 0.929 . S
C4532 C4534 1.378 . S
C4532 C4536 1.350 . S
C4533 C4536 1.463 . S
C4533 C4538 1.350 . S
C4533 N4541 1.427 . S
C4534 H4525 0.930 . S
C4534 C4532 1.378 . S
C4534 C4535 1.367 . S
C4535 C4534 1.367 . S
C4535 C4537 1.433 . S
C4536 C4532 1.350 . S
C4536 C4533 1.463 . S
C4536 N4540 1.427 . S
C4537 H4527 0.929 . S
C4537 C4535 1.433 . S
C4537 N4540 1.384 . S
C4538 H4529 0.929 . S
C4538 C4530 1.378 . S
C4538 C4533 1.350 . S
C4539 H4526 0.929 . S
C4539 C4531 1.433 . S
C4539 N4541 1.384 . S
N4540 C4536 1.427 . S
N4540 C4537 1.384 . S
N4541 C4533 1.427 . S
N4541 C4539 1.384 . S
H4542 C4548 0.930 . S
H4543 C4552 0.930 . S
H4544 C4557 0.929 . S
H4545 C4555 0.929 . S
H4546 C4550 0.929 . S
H4547 C4556 0.929 . S
C4548 H4542 0.930 . S
C4548 C4549 1.367 . S
C4548 C4556 1.378 . S
C4549 C4548 1.367 . S
C4549 C4557 1.433 . S
C4550 H4546 0.929 . S
C4550 C4552 1.378 . S
C4550 C4554 1.350 . S
C4551 C4554 1.463 . S
C4551 C4556 1.350 . S
C4551 N4559 1.427 . S
C4552 H4543 0.930 . S
C4552 C4550 1.378 . S
C4552 C4553 1.367 . S
C4553 C4552 1.367 . S
C4553 C4555 1.433 . S
C4554 C4550 1.350 . S
C4554 C4551 1.463 . S
C4554 N4558 1.427 . S
C4555 H4545 0.929 . S
C4555 C4553 1.433 . S
C4555 N4558 1.384 . S
C4556 H4547 0.929 . S
C4556 C4548 1.378 . S
C4556 C4551 1.350 . S
C4557 H4544 0.929 . S
C4557 C4549 1.433 . S
C4557 N4559 1.384 . S
N4558 C4554 1.427 . S
N4558 C4555 1.384 . S
N4559 C4551 1.427 . S
N4559 C4557 1.384 . S
H4560 C4566 0.930 . S
H4561 C4570 0.930 . S
H4562 C4575 0.929 . S
H4563 C4573 0.929 . S
H4564 C4568 0.929 . S
H4565 C4574 0.929 . S
C4566 H4560 0.930 . S
C4566 C4567 1.367 . S
C4566 C4574 1.378 . S
C4567 C4566 1.367 . S
C4567 C4575 1.433 . S
C4568 H4564 0.929 . S
C4568 C4570 1.378 . S
C4568 C4572 1.350 . S
C4569 C4572 1.463 . S
C4569 C4574 1.350 . S
C4569 N4577 1.427 . S
C4570 H4561 0.930 . S
C4570 C4568 1.378 . S
C4570 C4571 1.367 . S
C4571 C4570 1.367 . S
C4571 C4573 1.433 . S
C4572 C4568 1.350 . S
C4572 C4569 1.463 . S
C4572 N4576 1.427 . S
C4573 H4563 0.929 . S
C4573 C4571 1.433 . S
C4573 N4576 1.384 . S
C4574 H4565 0.929 . S
C4574 C4566 1.378 . S
C4574 C4569 1.350 . S
C4575 H4562 0.929 . S
C4575 C4567 1.433 . S
C4575 N4577 1.384 . S
N4576 C4572 1.427 . S
N4576 C4573 1.384 . S
N4577 C4569 1.427 . S
N4577 C4575 1.384 . S
H4578 C4584 0.930 . S
H4579 C4588 0.930 . S
H4580 C4593 0.929 . S
H4581 C4591 0.929 . S
H4582 C4586 0.929 . S
H4583 C4592 0.929 . S
C4584 H4578 0.930 . S
C4584 C4585 1.367 . S
C4584 C4592 1.378 . S
C4585 C4584 1.367 . S
C4585 C4593 1.433 . S
C4586 H4582 0.929 . S
C4586 C4588 1.378 . S
C4586 C4590 1.350 . S
C4587 C4590 1.463 . S
C4587 C4592 1.350 . S
C4587 N4595 1.427 . S
C4588 H4579 0.930 . S
C4588 C4586 1.378 . S
C4588 C4589 1.367 . S
C4589 C4588 1.367 . S
C4589 C4591 1.433 . S
C4590 C4586 1.350 . S
C4590 C4587 1.463 . S
C4590 N4594 1.427 . S
C4591 H4581 0.929 . S
C4591 C4589 1.433 . S
C4591 N4594 1.384 . S
C4592 H4583 0.929 . S
C4592 C4584 1.378 . S
C4592 C4587 1.350 . S
C4593 H4580 0.929 . S
C4593 C4585 1.433 . S
C4593 N4595 1.384 . S
N4594 C4590 1.427 . S
N4594 C4591 1.384 . S
N4595 C4587 1.427 . S
N4595 C4593 1.384 . S
H4596 C4602 0.930 . S
H4597 C4606 0.930 . S
H4598 C4611 0.929 . S
H4599 C4609 0.929 . S
H4600 C4604 0.929 . S
H4601 C4610 0.929 . S
C4602 H4596 0.930 . S
C4602 C4603 1.367 . S
C4602 C4610 1.378 . S
C4603 C4602 1.367 . S
C4603 C4611 1.433 . S
C4604 H4600 0.929 . S
C4604 C4606 1.378 . S
C4604 C4608 1.350 . S
C4605 C4608 1.463 . S
C4605 C4610 1.350 . S
C4605 N4613 1.427 . S
C4606 H4597 0.930 . S
C4606 C4604 1.378 . S
C4606 C4607 1.367 . S
C4607 C4606 1.367 . S
C4607 C4609 1.433 . S
C4608 C4604 1.350 . S
C4608 C4605 1.463 . S
C4608 N4612 1.427 . S
C4609 H4599 0.929 . S
C4609 C4607 1.433 . S
C4609 N4612 1.384 . S
C4610 H4601 0.929 . S
C4610 C4602 1.378 . S
C4610 C4605 1.350 . S
C4611 H4598 0.929 . S
C4611 C4603 1.433 . S
C4611 N4613 1.384 . S
N4612 C4608 1.427 . S
N4612 C4609 1.384 . S
N4613 C4605 1.427 . S
N4613 C4611 1.384 . S
H4614 C4620 0.930 . S
H4615 C4624 0.930 . S
H4616 C4629 0.929 . S
H4617 C4627 0.929 . S
H4618 C4622 0.929 . S
H4619 C4628 0.929 . S
C4620 H4614 0.930 . S
C4620 C4621 1.367 . S
C4620 C4628 1.378 . S
C4621 C4620 1.367 . S
C4621 C4629 1.433 . S
C4622 H4618 0.929 . S
C4622 C4624 1.378 . S
C4622 C4626 1.350 . S
C4623 C4626 1.463 . S
C4623 C4628 1.350 . S
C4623 N4631 1.427 . S
C4624 H4615 0.930 . S
C4624 C4622 1.378 . S
C4624 C4625 1.367 . S
C4625 C4624 1.367 . S
C4625 C4627 1.433 . S
C4626 C4622 1.350 . S
C4626 C4623 1.463 . S
C4626 N4630 1.427 . S
C4627 H4617 0.929 . S
C4627 C4625 1.433 . S
C4627 N4630 1.384 . S
C4628 H4619 0.929 . S
C4628 C4620 1.378 . S
C4628 C4623 1.350 . S
C4629 H4616 0.929 . S
C4629 C4621 1.433 . S
C4629 N4631 1.384 . S
N4630 C4626 1.427 . S
N4630 C4627 1.384 . S
N4631 C4623 1.427 . S
N4631 C4629 1.384 . S
H4632 C4638 0.930 . S
H4633 C4642 0.930 . S
H4634 C4647 0.929 . S
H4635 C4645 0.929 . S
H4636 C4640 0.929 . S
H4637 C4646 0.929 . S
C4638 H4632 0.930 . S
C4638 C4639 1.367 . S
C4638 C4646 1.378 . S
C4639 C4638 1.367 . S
C4639 C4647 1.433 . S
C4640 H4636 0.929 . S
C4640 C4642 1.378 . S
C4640 C4644 1.350 . S
C4641 C4644 1.463 . S
C4641 C4646 1.350 . S
C4641 N4649 1.427 . S
C4642 H4633 0.930 . S
C4642 C4640 1.378 . S
C4642 C4643 1.367 . S
C4643 C4642 1.367 . S
C4643 C4645 1.433 . S
C4644 C4640 1.350 . S
C4644 C4641 1.463 . S
C4644 N4648 1.427 . S
C4645 H4635 0.929 . S
C4645 C4643 1.433 . S
C4645 N4648 1.384 . S
C4646 H4637 0.929 . S
C4646 C4638 1.378 . S
C4646 C4641 1.350 . S
C4647 H4634 0.929 . S
C4647 C4639 1.433 . S
C4647 N4649 1.384 . S
N4648 C4644 1.427 . S
N4648 C4645 1.384 . S
N4649 C4641 1.427 . S
N4649 C4647 1.384 . S
H4650 C4656 0.930 . S
H4651 C4660 0.930 . S
H4652 C4665 0.929 . S
H4653 C4663 0.929 . S
H4654 C4658 0.929 . S
H4655 C4664 0.929 . S
C4656 H4650 0.930 . S
C4656 C4657 1.367 . S
C4656 C4664 1.378 . S
C4657 C4656 1.367 . S
C4657 C4665 1.433 . S
C4658 H4654 0.929 . S
C4658 C4660 1.378 . S
C4658 C4662 1.350 . S
C4659 C4662 1.463 . S
C4659 C4664 1.350 . S
C4659 N4667 1.427 . S
C4660 H4651 0.930 . S
C4660 C4658 1.378 . S
C4660 C4661 1.367 . S
C4661 C4660 1.367 . S
C4661 C4663 1.433 . S
C4662 C4658 1.350 . S
C4662 C4659 1.463 . S
C4662 N4666 1.427 . S
C4663 H4653 0.929 . S
C4663 C4661 1.433 . S
C4663 N4666 1.384 . S
C4664 H4655 0.929 . S
C4664 C4656 1.378 . S
C4664 C4659 1.350 . S
C4665 H4652 0.929 . S
C4665 C4657 1.433 . S
C4665 N4667 1.384 . S
N4666 C4662 1.427 . S
N4666 C4663 1.384 . S
N4667 C4659 1.427 . S
N4667 C4665 1.384 . S
H4668 C4674 0.930 . S
H4669 C4678 0.930 . S
H4670 C4683 0.929 . S
H4671 C4681 0.929 . S
H4672 C4676 0.929 . S
H4673 C4682 0.929 . S
C4674 H4668 0.930 . S
C4674 C4675 1.367 . S
C4674 C4682 1.378 . S
C4675 C4674 1.367 . S
C4675 C4683 1.433 . S
C4676 H4672 0.929 . S
C4676 C4678 1.378 . S
C4676 C4680 1.350 . S
C4677 C4680 1.463 . S
C4677 C4682 1.350 . S
C4677 N4685 1.427 . S
C4678 H4669 0.930 . S
C4678 C4676 1.378 . S
C4678 C4679 1.367 . S
C4679 C4678 1.367 . S
C4679 C4681 1.433 . S
C4680 C4676 1.350 . S
C4680 C4677 1.463 . S
C4680 N4684 1.427 . S
C4681 H4671 0.929 . S
C4681 C4679 1.433 . S
C4681 N4684 1.384 . S
C4682 H4673 0.929 . S
C4682 C4674 1.378 . S
C4682 C4677 1.350 . S
C4683 H4670 0.929 . S
C4683 C4675 1.433 . S
C4683 N4685 1.384 . S
N4684 C4680 1.427 . S
N4684 C4681 1.384 . S
N4685 C4677 1.427 . S
N4685 C4683 1.384 . S
H4686 C4692 0.930 . S
H4687 C4696 0.930 . S
H4688 C4701 0.929 . S
H4689 C4699 0.929 . S
H4690 C4694 0.929 . S
H4691 C4700 0.929 . S
C4692 H4686 0.930 . S
C4692 C4693 1.367 . S
C4692 C4700 1.378 . S
C4693 C4692 1.367 . S
C4693 C4701 1.433 . S
C4694 H4690 0.929 . S
C4694 C4696 1.378 . S
C4694 C4698 1.350 . S
C4695 C4698 1.463 . S
C4695 C4700 1.350 . S
C4695 N4703 1.427 . S
C4696 H4687 0.930 . S
C4696 C4694 1.378 . S
C4696 C4697 1.367 . S
C4697 C4696 1.367 . S
C4697 C4699 1.433 . S
C4698 C4694 1.350 . S
C4698 C4695 1.463 . S
C4698 N4702 1.427 . S
C4699 H4689 0.929 . S
C4699 C4697 1.433 . S
C4699 N4702 1.384 . S
C4700 H4691 0.929 . S
C4700 C4692 1.378 . S
C4700 C4695 1.350 . S
C4701 H4688 0.929 . S
C4701 C4693 1.433 . S
C4701 N4703 1.384 . S
N4702 C4698 1.427 . S
N4702 C4699 1.384 . S
N4703 C4695 1.427 . S
N4703 C4701 1.384 . S
H4704 C4710 0.930 . S
H4705 C4714 0.930 . S
H4706 C4719 0.929 . S
H4707 C4717 0.929 . S
H4708 C4712 0.929 . S
H4709 C4718 0.929 . S
C4710 H4704 0.930 . S
C4710 C4711 1.367 . S
C4710 C4718 1.378 . S
C4711 C4710 1.367 . S
C4711 C4719 1.433 . S
C4712 H4708 0.929 . S
C4712 C4714 1.378 . S
C4712 C4716 1.350 . S
C4713 C4716 1.463 . S
C4713 C4718 1.350 . S
C4713 N4721 1.427 . S
C4714 H4705 0.930 . S
C4714 C4712 1.378 . S
C4714 C4715 1.367 . S
C4715 C4714 1.367 . S
C4715 C4717 1.433 . S
C4716 C4712 1.350 . S
C4716 C4713 1.463 . S
C4716 N4720 1.427 . S
C4717 H4707 0.929 . S
C4717 C4715 1.433 . S
C4717 N4720 1.384 . S
C4718 H4709 0.929 . S
C4718 C4710 1.378 . S
C4718 C4713 1.350 . S
C4719 H4706 0.929 . S
C4719 C4711 1.433 . S
C4719 N4721 1.384 . S
N4720 C4716 1.427 . S
N4720 C4717 1.384 . S
N4721 C4713 1.427 . S
N4721 C4719 1.384 . S
H4722 C4728 0.930 . S
H4723 C4732 0.930 . S
H4724 C4737 0.929 . S
H4725 C4735 0.929 . S
H4726 C4730 0.929 . S
H4727 C4736 0.929 . S
C4728 H4722 0.930 . S
C4728 C4729 1.367 . S
C4728 C4736 1.378 . S
C4729 C4728 1.367 . S
C4729 C4737 1.433 . S
C4730 H4726 0.929 . S
C4730 C4732 1.378 . S
C4730 C4734 1.350 . S
C4731 C4734 1.463 . S
C4731 C4736 1.350 . S
C4731 N4739 1.427 . S
C4732 H4723 0.930 . S
C4732 C4730 1.378 . S
C4732 C4733 1.367 . S
C4733 C4732 1.367 . S
C4733 C4735 1.433 . S
C4734 C4730 1.350 . S
C4734 C4731 1.463 . S
C4734 N4738 1.427 . S
C4735 H4725 0.929 . S
C4735 C4733 1.433 . S
C4735 N4738 1.384 . S
C4736 H4727 0.929 . S
C4736 C4728 1.378 . S
C4736 C4731 1.350 . S
C4737 H4724 0.929 . S
C4737 C4729 1.433 . S
C4737 N4739 1.384 . S
N4738 C4734 1.427 . S
N4738 C4735 1.384 . S
N4739 C4731 1.427 . S
N4739 C4737 1.384 . S
H4740 C4746 0.930 . S
H4741 C4750 0.930 . S
H4742 C4755 0.929 . S
H4743 C4753 0.929 . S
H4744 C4748 0.929 . S
H4745 C4754 0.929 . S
C4746 H4740 0.930 . S
C4746 C4747 1.367 . S
C4746 C4754 1.378 . S
C4747 C4746 1.367 . S
C4747 C4755 1.433 . S
C4748 H4744 0.929 . S
C4748 C4750 1.378 1_554 S
C4748 C4752 1.350 . S
C4749 C4752 1.463 . S
C4749 C4754 1.350 . S
C4749 N4757 1.427 . S
C4750 H4741 0.930 . S
C4750 C4748 1.378 1_556 S
C4750 C4751 1.367 . S
C4751 C4750 1.367 . S
C4751 C4753 1.433 . S
C4752 C4748 1.350 . S
C4752 C4749 1.463 . S
C4752 N4756 1.427 1_554 S
C4753 H4743 0.929 . S
C4753 C4751 1.433 . S
C4753 N4756 1.384 . S
C4754 H4745 0.929 . S
C4754 C4746 1.378 . S
C4754 C4749 1.350 . S
C4755 H4742 0.929 . S
C4755 C4747 1.433 . S
C4755 N4757 1.384 . S
N4756 C4752 1.427 1_556 S
N4756 C4753 1.384 . S
N4757 C4749 1.427 . S
N4757 C4755 1.384 . S
H4758 C4764 0.930 . S
H4759 C4768 0.930 . S
H4760 C4773 0.929 . S
H4761 C4771 0.929 . S
H4762 C4766 0.929 . S
H4763 C4772 0.929 . S
C4764 H4758 0.930 . S
C4764 C4765 1.367 . S
C4764 C4772 1.378 . S
C4765 C4764 1.367 . S
C4765 C4773 1.433 . S
C4766 H4762 0.929 . S
C4766 C4768 1.378 . S
C4766 C4770 1.350 . S
C4767 C4770 1.463 . S
C4767 C4772 1.350 . S
C4767 N4775 1.427 . S
C4768 H4759 0.930 . S
C4768 C4766 1.378 . S
C4768 C4769 1.367 . S
C4769 C4768 1.367 . S
C4769 C4771 1.433 . S
C4770 C4766 1.350 . S
C4770 C4767 1.463 . S
C4770 N4774 1.427 . S
C4771 H4761 0.929 . S
C4771 C4769 1.433 . S
C4771 N4774 1.384 . S
C4772 H4763 0.929 . S
C4772 C4764 1.378 . S
C4772 C4767 1.350 . S
C4773 H4760 0.929 . S
C4773 C4765 1.433 . S
C4773 N4775 1.384 . S
N4774 C4770 1.427 . S
N4774 C4771 1.384 . S
N4775 C4767 1.427 . S
N4775 C4773 1.384 . S
H4776 C4782 0.930 . S
H4777 C4786 0.930 . S
H4778 C4791 0.929 . S
H4779 C4789 0.929 . S
H4780 C4784 0.934 . S
H4781 C4790 0.929 . S
C4782 H4776 0.930 . S
C4782 C4783 1.367 . S
C4782 C4790 1.378 . S
C4783 C4782 1.367 . S
C4783 C4791 1.433 . S
C4784 H4780 0.934 . S
C4784 C4786 1.365 1_556 S
C4784 C4788 1.358 . S
C4785 C4788 1.463 . S
C4785 C4790 1.350 . S
C4785 N4793 1.427 . S
C4786 H4777 0.930 . S
C4786 C4784 1.365 1_554 S
C4786 C4787 1.367 . S
C4787 C4786 1.367 . S
C4787 C4789 1.433 . S
C4788 C4784 1.358 . S
C4788 C4785 1.463 . S
C4788 N4792 1.427 . S
C4789 H4779 0.929 . S
C4789 C4787 1.433 . S
C4789 N4792 1.384 1_554 S
C4790 H4781 0.929 . S
C4790 C4782 1.378 . S
C4790 C4785 1.350 . S
C4791 H4778 0.929 . S
C4791 C4783 1.433 . S
C4791 N4793 1.384 . S
N4792 C4788 1.427 . S
N4792 C4789 1.384 1_556 S
N4793 C4785 1.427 . S
N4793 C4791 1.384 . S
H4794 C4800 0.930 . S
H4795 C4804 0.930 . S
H4796 C4809 0.929 . S
H4797 C4807 0.929 . S
H4798 C4802 0.929 . S
H4799 C4808 0.929 . S
C4800 H4794 0.930 . S
C4800 C4801 1.367 . S
C4800 C4808 1.378 . S
C4801 C4800 1.367 . S
C4801 C4809 1.433 . S
C4802 H4798 0.929 . S
C4802 C4804 1.378 . S
C4802 C4806 1.350 . S
C4803 C4806 1.463 . S
C4803 C4808 1.350 . S
C4803 N4811 1.427 . S
C4804 H4795 0.930 . S
C4804 C4802 1.378 . S
C4804 C4805 1.367 . S
C4805 C4804 1.367 . S
C4805 C4807 1.433 . S
C4806 C4802 1.350 . S
C4806 C4803 1.463 . S
C4806 N4810 1.427 . S
C4807 H4797 0.929 . S
C4807 C4805 1.433 . S
C4807 N4810 1.384 . S
C4808 H4799 0.929 . S
C4808 C4800 1.378 . S
C4808 C4803 1.350 . S
C4809 H4796 0.929 . S
C4809 C4801 1.433 . S
C4809 N4811 1.384 . S
N4810 C4806 1.427 . S
N4810 C4807 1.384 . S
N4811 C4803 1.427 . S
N4811 C4809 1.384 . S
H4812 C4818 0.930 . S
H4813 C4822 0.930 . S
H4814 C4827 0.929 . S
H4815 C4825 0.929 . S
H4816 C4820 0.929 . S
H4817 C4826 0.929 . S
C4818 H4812 0.930 . S
C4818 C4819 1.367 . S
C4818 C4826 1.378 . S
C4819 C4818 1.367 . S
C4819 C4827 1.433 . S
C4820 H4816 0.929 . S
C4820 C4822 1.378 . S
C4820 C4824 1.350 . S
C4821 C4824 1.463 . S
C4821 C4826 1.350 . S
C4821 N4829 1.427 . S
C4822 H4813 0.930 . S
C4822 C4820 1.378 . S
C4822 C4823 1.367 . S
C4823 C4822 1.367 . S
C4823 C4825 1.433 . S
C4824 C4820 1.350 . S
C4824 C4821 1.463 . S
C4824 N4828 1.427 . S
C4825 H4815 0.929 . S
C4825 C4823 1.433 . S
C4825 N4828 1.384 . S
C4826 H4817 0.929 . S
C4826 C4818 1.378 . S
C4826 C4821 1.350 . S
C4827 H4814 0.929 . S
C4827 C4819 1.433 . S
C4827 N4829 1.384 . S
N4828 C4824 1.427 . S
N4828 C4825 1.384 . S
N4829 C4821 1.427 . S
N4829 C4827 1.384 . S
H4830 C4836 0.930 . S
H4831 C4840 0.930 . S
H4832 C4845 0.929 . S
H4833 C4843 0.929 . S
H4834 C4838 0.929 . S
H4835 C4844 0.929 . S
C4836 H4830 0.930 . S
C4836 C4837 1.367 . S
C4836 C4844 1.378 . S
C4837 C4836 1.367 . S
C4837 C4845 1.433 . S
C4838 H4834 0.929 . S
C4838 C4840 1.378 . S
C4838 C4842 1.350 . S
C4839 C4842 1.463 . S
C4839 C4844 1.350 . S
C4839 N4847 1.427 . S
C4840 H4831 0.930 . S
C4840 C4838 1.378 . S
C4840 C4841 1.367 . S
C4841 C4840 1.367 . S
C4841 C4843 1.433 . S
C4842 C4838 1.350 . S
C4842 C4839 1.463 . S
C4842 N4846 1.427 . S
C4843 H4833 0.929 . S
C4843 C4841 1.433 . S
C4843 N4846 1.384 . S
C4844 H4835 0.929 . S
C4844 C4836 1.378 . S
C4844 C4839 1.350 . S
C4845 H4832 0.929 . S
C4845 C4837 1.433 . S
C4845 N4847 1.384 . S
N4846 C4842 1.427 . S
N4846 C4843 1.384 . S
N4847 C4839 1.427 . S
N4847 C4845 1.384 . S
H4848 C4854 0.930 . S
H4849 C4858 0.930 . S
H4850 C4863 0.929 . S
H4851 C4861 0.929 . S
H4852 C4856 0.929 . S
H4853 C4862 0.929 . S
C4854 H4848 0.930 . S
C4854 C4855 1.367 . S
C4854 C4862 1.378 . S
C4855 C4854 1.367 . S
C4855 C4863 1.433 . S
C4856 H4852 0.929 . S
C4856 C4858 1.378 . S
C4856 C4860 1.350 . S
C4857 C4860 1.463 . S
C4857 C4862 1.350 . S
C4857 N4865 1.427 . S
C4858 H4849 0.930 . S
C4858 C4856 1.378 . S
C4858 C4859 1.367 . S
C4859 C4858 1.367 . S
C4859 C4861 1.433 . S
C4860 C4856 1.350 . S
C4860 C4857 1.463 . S
C4860 N4864 1.427 . S
C4861 H4851 0.929 . S
C4861 C4859 1.433 . S
C4861 N4864 1.384 . S
C4862 H4853 0.929 . S
C4862 C4854 1.378 . S
C4862 C4857 1.350 . S
C4863 H4850 0.929 . S
C4863 C4855 1.433 . S
C4863 N4865 1.384 . S
N4864 C4860 1.427 . S
N4864 C4861 1.384 . S
N4865 C4857 1.427 . S
N4865 C4863 1.384 . S
H4866 C4872 0.930 . S
H4867 C4876 0.930 . S
H4868 C4881 0.929 . S
H4869 C4879 0.929 . S
H4870 C4874 0.929 . S
H4871 C4880 0.929 . S
C4872 H4866 0.930 . S
C4872 C4873 1.367 . S
C4872 C4880 1.378 . S
C4873 C4872 1.367 . S
C4873 C4881 1.433 . S
C4874 H4870 0.929 . S
C4874 C4876 1.378 . S
C4874 C4878 1.350 . S
C4875 C4878 1.463 . S
C4875 C4880 1.350 . S
C4875 N4883 1.427 . S
C4876 H4867 0.930 . S
C4876 C4874 1.378 . S
C4876 C4877 1.367 . S
C4877 C4876 1.367 . S
C4877 C4879 1.433 . S
C4878 C4874 1.350 . S
C4878 C4875 1.463 . S
C4878 N4882 1.427 . S
C4879 H4869 0.929 . S
C4879 C4877 1.433 . S
C4879 N4882 1.384 . S
C4880 H4871 0.929 . S
C4880 C4872 1.378 . S
C4880 C4875 1.350 . S
C4881 H4868 0.929 . S
C4881 C4873 1.433 . S
C4881 N4883 1.384 . S
N4882 C4878 1.427 . S
N4882 C4879 1.384 . S
N4883 C4875 1.427 . S
N4883 C4881 1.384 . S
H4884 C4890 0.930 . S
H4885 C4894 0.930 . S
H4886 C4899 0.929 . S
H4887 C4897 0.929 . S
H4888 C4892 0.929 . S
H4889 C4898 0.929 . S
C4890 H4884 0.930 . S
C4890 C4891 1.367 . S
C4890 C4898 1.378 . S
C4891 C4890 1.367 . S
C4891 C4899 1.433 . S
C4892 H4888 0.929 . S
C4892 C4894 1.378 . S
C4892 C4896 1.350 . S
C4893 C4896 1.463 . S
C4893 C4898 1.350 . S
C4893 N4901 1.427 . S
C4894 H4885 0.930 . S
C4894 C4892 1.378 . S
C4894 C4895 1.367 . S
C4895 C4894 1.367 . S
C4895 C4897 1.433 . S
C4896 C4892 1.350 . S
C4896 C4893 1.463 . S
C4896 N4900 1.427 . S
C4897 H4887 0.929 . S
C4897 C4895 1.433 . S
C4897 N4900 1.384 . S
C4898 H4889 0.929 . S
C4898 C4890 1.378 . S
C4898 C4893 1.350 . S
C4899 H4886 0.929 . S
C4899 C4891 1.433 . S
C4899 N4901 1.384 . S
N4900 C4896 1.427 . S
N4900 C4897 1.384 . S
N4901 C4893 1.427 . S
N4901 C4899 1.384 . S
H4902 C4908 0.930 . S
H4903 C4912 0.930 . S
H4904 C4917 0.929 . S
H4905 C4915 0.929 . S
H4906 C4910 0.929 . S
H4907 C4916 0.929 . S
C4908 H4902 0.930 . S
C4908 C4909 1.367 . S
C4908 C4916 1.378 . S
C4909 C4908 1.367 . S
C4909 C4917 1.433 . S
C4910 H4906 0.929 . S
C4910 C4912 1.378 . S
C4910 C4914 1.350 . S
C4911 C4914 1.463 . S
C4911 C4916 1.350 . S
C4911 N4919 1.427 . S
C4912 H4903 0.930 . S
C4912 C4910 1.378 . S
C4912 C4913 1.367 . S
C4913 C4912 1.367 . S
C4913 C4915 1.433 . S
C4914 C4910 1.350 . S
C4914 C4911 1.463 . S
C4914 N4918 1.427 . S
C4915 H4905 0.929 . S
C4915 C4913 1.433 . S
C4915 N4918 1.384 . S
C4916 H4907 0.929 . S
C4916 C4908 1.378 . S
C4916 C4911 1.350 . S
C4917 H4904 0.929 . S
C4917 C4909 1.433 . S
C4917 N4919 1.384 . S
N4918 C4914 1.427 . S
N4918 C4915 1.384 . S
N4919 C4911 1.427 . S
N4919 C4917 1.384 . S
H4920 C4926 0.930 . S
H4921 C4930 0.930 . S
H4922 C4935 0.929 . S
H4923 C4933 0.929 . S
H4924 C4928 0.929 . S
H4925 C4934 0.929 . S
C4926 H4920 0.930 . S
C4926 C4927 1.367 . S
C4926 C4934 1.378 . S
C4927 C4926 1.367 . S
C4927 C4935 1.433 . S
C4928 H4924 0.929 . S
C4928 C4930 1.378 . S
C4928 C4932 1.350 . S
C4929 C4932 1.463 . S
C4929 C4934 1.350 . S
C4929 N4937 1.427 . S
C4930 H4921 0.930 . S
C4930 C4928 1.378 . S
C4930 C4931 1.367 . S
C4931 C4930 1.367 . S
C4931 C4933 1.433 . S
C4932 C4928 1.350 . S
C4932 C4929 1.463 . S
C4932 N4936 1.427 . S
C4933 H4923 0.929 . S
C4933 C4931 1.433 . S
C4933 N4936 1.384 . S
C4934 H4925 0.929 . S
C4934 C4926 1.378 . S
C4934 C4929 1.350 . S
C4935 H4922 0.929 . S
C4935 C4927 1.433 . S
C4935 N4937 1.384 . S
N4936 C4932 1.427 . S
N4936 C4933 1.384 . S
N4937 C4929 1.427 . S
N4937 C4935 1.384 . S
H4938 C4944 0.930 . S
H4939 C4948 0.930 . S
H4940 C4953 0.929 . S
H4941 C4951 0.929 . S
H4942 C4946 0.929 . S
H4943 C4952 0.929 . S
C4944 H4938 0.930 . S
C4944 C4945 1.367 . S
C4944 C4952 1.378 . S
C4945 C4944 1.367 . S
C4945 C4953 1.433 . S
C4946 H4942 0.929 . S
C4946 C4948 1.378 . S
C4946 C4950 1.350 . S
C4947 C4950 1.463 . S
C4947 C4952 1.350 . S
C4947 N4955 1.427 . S
C4948 H4939 0.930 . S
C4948 C4946 1.378 . S
C4948 C4949 1.367 . S
C4949 C4948 1.367 . S
C4949 C4951 1.433 . S
C4950 C4946 1.350 . S
C4950 C4947 1.463 . S
C4950 N4954 1.427 . S
C4951 H4941 0.929 . S
C4951 C4949 1.433 . S
C4951 N4954 1.384 . S
C4952 H4943 0.929 . S
C4952 C4944 1.378 . S
C4952 C4947 1.350 . S
C4953 H4940 0.929 . S
C4953 C4945 1.433 . S
C4953 N4955 1.384 . S
N4954 C4950 1.427 . S
N4954 C4951 1.384 . S
N4955 C4947 1.427 . S
N4955 C4953 1.384 . S
H4956 C4962 0.930 . S
H4957 C4966 0.930 . S
H4958 C4971 0.929 . S
H4959 C4969 0.929 . S
H4960 C4964 0.929 . S
H4961 C4970 0.929 . S
C4962 H4956 0.930 . S
C4962 C4963 1.367 . S
C4962 C4970 1.378 . S
C4963 C4962 1.367 . S
C4963 C4971 1.433 . S
C4964 H4960 0.929 . S
C4964 C4966 1.378 . S
C4964 C4968 1.350 1_455 S
C4965 C4968 1.463 . S
C4965 C4970 1.350 . S
C4965 N4973 1.427 . S
C4966 H4957 0.930 . S
C4966 C4964 1.378 . S
C4966 C4967 1.367 . S
C4967 C4966 1.367 . S
C4967 C4969 1.433 . S
C4968 C4964 1.350 1_655 S
C4968 C4965 1.463 . S
C4968 N4972 1.427 . S
C4969 H4959 0.929 . S
C4969 C4967 1.433 . S
C4969 N4972 1.384 1_455 S
C4970 H4961 0.929 . S
C4970 C4962 1.378 . S
C4970 C4965 1.350 . S
C4971 H4958 0.929 . S
C4971 C4963 1.433 . S
C4971 N4973 1.384 . S
N4972 C4968 1.427 . S
N4972 C4969 1.384 1_655 S
N4973 C4965 1.427 . S
N4973 C4971 1.384 . S
H4974 C4980 0.930 . S
H4975 C4984 0.930 . S
H4976 C4989 0.929 . S
H4977 C4987 0.929 . S
H4978 C4982 0.929 . S
H4979 C4988 0.929 . S
C4980 H4974 0.930 . S
C4980 C4981 1.367 . S
C4980 C4988 1.378 . S
C4981 C4980 1.367 . S
C4981 C4989 1.433 . S
C4982 H4978 0.929 . S
C4982 C4984 1.378 . S
C4982 C4986 1.350 . S
C4983 C4986 1.463 . S
C4983 C4988 1.350 . S
C4983 N4991 1.427 . S
C4984 H4975 0.930 . S
C4984 C4982 1.378 . S
C4984 C4985 1.367 . S
C4985 C4984 1.367 . S
C4985 C4987 1.433 . S
C4986 C4982 1.350 . S
C4986 C4983 1.463 . S
C4986 N4990 1.427 . S
C4987 H4977 0.929 . S
C4987 C4985 1.433 . S
C4987 N4990 1.384 . S
C4988 H4979 0.929 . S
C4988 C4980 1.378 . S
C4988 C4983 1.350 . S
C4989 H4976 0.929 . S
C4989 C4981 1.433 . S
C4989 N4991 1.384 . S
N4990 C4986 1.427 . S
N4990 C4987 1.384 . S
N4991 C4983 1.427 . S
N4991 C4989 1.384 . S
H4992 C4998 0.930 . S
H4993 C5002 0.930 . S
H4994 C5007 0.929 . S
H4995 C5005 0.929 . S
H4996 C5000 0.929 . S
H4997 C5006 0.929 . S
C4998 H4992 0.930 . S
C4998 C4999 1.367 . S
C4998 C5006 1.378 . S
C4999 C4998 1.367 . S
C4999 C5007 1.433 . S
C5000 H4996 0.929 . S
C5000 C5002 1.378 . S
C5000 C5004 1.350 . S
C5001 C5004 1.463 . S
C5001 C5006 1.350 . S
C5001 N5009 1.427 . S
C5002 H4993 0.930 . S
C5002 C5000 1.378 . S
C5002 C5003 1.367 . S
C5003 C5002 1.367 . S
C5003 C5005 1.433 . S
C5004 C5000 1.350 . S
C5004 C5001 1.463 . S
C5004 N5008 1.427 . S
C5005 H4995 0.929 . S
C5005 C5003 1.433 . S
C5005 N5008 1.384 . S
C5006 H4997 0.929 . S
C5006 C4998 1.378 . S
C5006 C5001 1.350 . S
C5007 H4994 0.929 . S
C5007 C4999 1.433 . S
C5007 N5009 1.384 . S
N5008 C5004 1.427 . S
N5008 C5005 1.384 . S
N5009 C5001 1.427 . S
N5009 C5007 1.384 . S
H5010 C5016 0.930 . S
H5011 C5020 0.930 . S
H5012 C5025 0.929 . S
H5013 C5023 0.929 . S
H5014 C5018 0.929 . S
H5015 C5024 0.929 . S
C5016 H5010 0.930 . S
C5016 C5017 1.367 . S
C5016 C5024 1.378 . S
C5017 C5016 1.367 . S
C5017 C5025 1.433 . S
C5018 H5014 0.929 . S
C5018 C5020 1.378 . S
C5018 C5022 1.350 . S
C5019 C5022 1.463 . S
C5019 C5024 1.350 . S
C5019 N5027 1.427 . S
C5020 H5011 0.930 . S
C5020 C5018 1.378 . S
C5020 C5021 1.367 . S
C5021 C5020 1.367 . S
C5021 C5023 1.433 . S
C5022 C5018 1.350 . S
C5022 C5019 1.463 . S
C5022 N5026 1.427 . S
C5023 H5013 0.929 . S
C5023 C5021 1.433 . S
C5023 N5026 1.384 . S
C5024 H5015 0.929 . S
C5024 C5016 1.378 . S
C5024 C5019 1.350 . S
C5025 H5012 0.929 . S
C5025 C5017 1.433 . S
C5025 N5027 1.384 . S
N5026 C5022 1.427 . S
N5026 C5023 1.384 . S
N5027 C5019 1.427 . S
N5027 C5025 1.384 . S
H5028 C5034 0.930 . S
H5029 C5038 0.930 . S
H5030 C5043 0.929 . S
H5031 C5041 0.929 . S
H5032 C5036 0.929 . S
H5033 C5042 0.929 . S
C5034 H5028 0.930 . S
C5034 C5035 1.367 . S
C5034 C5042 1.378 . S
C5035 C5034 1.367 . S
C5035 C5043 1.433 . S
C5036 H5032 0.929 . S
C5036 C5038 1.378 . S
C5036 C5040 1.350 . S
C5037 C5040 1.463 . S
C5037 C5042 1.350 . S
C5037 N5045 1.427 . S
C5038 H5029 0.930 . S
C5038 C5036 1.378 . S
C5038 C5039 1.367 . S
C5039 C5038 1.367 . S
C5039 C5041 1.433 . S
C5040 C5036 1.350 . S
C5040 C5037 1.463 . S
C5040 N5044 1.427 . S
C5041 H5031 0.929 . S
C5041 C5039 1.433 . S
C5041 N5044 1.384 . S
C5042 H5033 0.929 . S
C5042 C5034 1.378 . S
C5042 C5037 1.350 . S
C5043 H5030 0.929 . S
C5043 C5035 1.433 . S
C5043 N5045 1.384 . S
N5044 C5040 1.427 . S
N5044 C5041 1.384 . S
N5045 C5037 1.427 . S
N5045 C5043 1.384 . S
H5046 C5052 0.930 . S
H5047 C5056 0.930 . S
H5048 C5061 0.929 . S
H5049 C5059 0.929 . S
H5050 C5054 0.929 . S
H5051 C5060 0.929 . S
C5052 H5046 0.930 . S
C5052 C5053 1.367 . S
C5052 C5060 1.378 . S
C5053 C5052 1.367 . S
C5053 C5061 1.433 . S
C5054 H5050 0.929 . S
C5054 C5056 1.378 . S
C5054 C5058 1.350 . S
C5055 C5058 1.463 . S
C5055 C5060 1.350 . S
C5055 N5063 1.427 . S
C5056 H5047 0.930 . S
C5056 C5054 1.378 . S
C5056 C5057 1.367 . S
C5057 C5056 1.367 . S
C5057 C5059 1.433 . S
C5058 C5054 1.350 . S
C5058 C5055 1.463 . S
C5058 N5062 1.427 . S
C5059 H5049 0.929 . S
C5059 C5057 1.433 . S
C5059 N5062 1.384 . S
C5060 H5051 0.929 . S
C5060 C5052 1.378 . S
C5060 C5055 1.350 . S
C5061 H5048 0.929 . S
C5061 C5053 1.433 . S
C5061 N5063 1.384 . S
N5062 C5058 1.427 . S
N5062 C5059 1.384 . S
N5063 C5055 1.427 . S
N5063 C5061 1.384 . S
H5064 C5070 0.930 . S
H5065 C5074 0.930 . S
H5066 C5079 0.929 . S
H5067 C5077 0.929 . S
H5068 C5072 0.929 . S
H5069 C5078 0.929 . S
C5070 H5064 0.930 . S
C5070 C5071 1.367 . S
C5070 C5078 1.378 . S
C5071 C5070 1.367 . S
C5071 C5079 1.433 . S
C5072 H5068 0.929 . S
C5072 C5074 1.378 . S
C5072 C5076 1.350 . S
C5073 C5076 1.463 . S
C5073 C5078 1.350 . S
C5073 N5081 1.427 . S
C5074 H5065 0.930 . S
C5074 C5072 1.378 . S
C5074 C5075 1.367 . S
C5075 C5074 1.367 . S
C5075 C5077 1.433 . S
C5076 C5072 1.350 . S
C5076 C5073 1.463 . S
C5076 N5080 1.427 . S
C5077 H5067 0.929 . S
C5077 C5075 1.433 . S
C5077 N5080 1.384 . S
C5078 H5069 0.929 . S
C5078 C5070 1.378 . S
C5078 C5073 1.350 . S
C5079 H5066 0.929 . S
C5079 C5071 1.433 . S
C5079 N5081 1.384 . S
N5080 C5076 1.427 . S
N5080 C5077 1.384 . S
N5081 C5073 1.427 . S
N5081 C5079 1.384 . S
H5082 C5088 0.930 . S
H5083 C5092 0.930 . S
H5084 C5097 0.929 . S
H5085 C5095 0.929 . S
H5086 C5090 0.929 . S
H5087 C5096 0.929 . S
C5088 H5082 0.930 . S
C5088 C5089 1.367 . S
C5088 C5096 1.378 . S
C5089 C5088 1.367 . S
C5089 C5097 1.433 . S
C5090 H5086 0.929 . S
C5090 C5092 1.378 . S
C5090 C5094 1.350 . S
C5091 C5094 1.463 . S
C5091 C5096 1.350 . S
C5091 N5099 1.427 . S
C5092 H5083 0.930 . S
C5092 C5090 1.378 . S
C5092 C5093 1.367 . S
C5093 C5092 1.367 . S
C5093 C5095 1.433 . S
C5094 C5090 1.350 . S
C5094 C5091 1.463 . S
C5094 N5098 1.427 . S
C5095 H5085 0.929 . S
C5095 C5093 1.433 . S
C5095 N5098 1.384 . S
C5096 H5087 0.929 . S
C5096 C5088 1.378 . S
C5096 C5091 1.350 . S
C5097 H5084 0.929 . S
C5097 C5089 1.433 . S
C5097 N5099 1.384 . S
N5098 C5094 1.427 . S
N5098 C5095 1.384 . S
N5099 C5091 1.427 . S
N5099 C5097 1.384 . S
H5100 C5106 0.930 . S
H5101 C5110 0.930 . S
H5102 C5115 0.929 . S
H5103 C5113 0.929 . S
H5104 C5108 0.929 1_565 S
H5105 C5114 0.929 . S
C5106 H5100 0.930 . S
C5106 C5107 1.367 . S
C5106 C5114 1.378 . S
C5107 C5106 1.367 . S
C5107 C5115 1.433 1_545 S
C5108 H5104 0.929 1_545 S
C5108 C5110 1.378 . S
C5108 C5112 1.350 . S
C5109 C5112 1.463 . S
C5109 C5114 1.350 . S
C5109 N5117 1.465 . S
C5110 H5101 0.930 . S
C5110 C5108 1.378 . S
C5110 C5111 1.367 . S
C5111 C5110 1.367 . S
C5111 C5113 1.433 . S
C5112 C5108 1.350 . S
C5112 C5109 1.463 . S
C5112 N5116 1.427 . S
C5113 H5103 0.929 . S
C5113 C5111 1.433 . S
C5113 N5116 1.384 . S
C5114 H5105 0.929 . S
C5114 C5106 1.378 . S
C5114 C5109 1.350 . S
C5115 H5102 0.929 . S
C5115 C5107 1.433 1_565 S
C5115 N5117 1.370 1_565 S
N5116 C5112 1.427 . S
N5116 C5113 1.384 . S
N5117 C5109 1.465 . S
N5117 C5115 1.370 1_545 S
H5118 C5124 0.930 . S
H5119 C5128 0.930 . S
H5120 C5133 0.929 1_545 S
H5121 C5131 0.929 . S
H5122 C5126 0.929 . S
H5123 C5132 0.929 . S
C5124 H5118 0.930 . S
C5124 C5125 1.367 . S
C5124 C5132 1.378 . S
C5125 C5124 1.367 . S
C5125 C5133 1.433 . S
C5126 H5122 0.929 . S
C5126 C5128 1.378 . S
C5126 C5130 1.350 . S
C5127 C5130 1.463 . S
C5127 C5132 1.350 . S
C5127 N5135 1.427 . S
C5128 H5119 0.930 . S
C5128 C5126 1.378 . S
C5128 C5129 1.367 . S
C5129 C5128 1.367 . S
C5129 C5131 1.433 . S
C5130 C5126 1.350 . S
C5130 C5127 1.463 . S
C5130 N5134 1.427 . S
C5131 H5121 0.929 . S
C5131 C5129 1.433 . S
C5131 N5134 1.384 . S
C5132 H5123 0.929 . S
C5132 C5124 1.378 . S
C5132 C5127 1.350 . S
C5133 H5120 0.929 1_565 S
C5133 C5125 1.433 . S
C5133 N5135 1.384 . S
N5134 C5130 1.427 . S
N5134 C5131 1.384 . S
N5135 C5127 1.427 . S
N5135 C5133 1.384 . S
C2551 C1781 1.764 . S
C2555 C1929 1.835 . S
C2569 C981 1.616 . S
C2573 C1942 1.585 . S
C2591 C1955 1.567 . S
C2587 C1861 1.579 . S
C2605 C1061 1.728 . S
C2609 C1968 1.713 . S
C2623 C1901 1.685 . S
C2627 C1981 1.756 . S
C2641 C941 1.620 . S
C2645 C1994 1.671 . S
C2659 C1821 1.571 . S
C2663 C2007 1.564 . S
C2677 C1021 1.354 . S
C2681 C2020 1.330 . S
C2695 C661 1.346 . S
C2699 C2033 1.385 . S
C2713 C1621 1.453 . S
C2717 C2046 1.495 . S
C2731 C741 1.703 . S
C2735 C2059 1.665 . S
C2749 C1581 1.655 . S
C2753 C2072 1.664 . S
C2767 C901 1.496 . S
C2771 C2085 1.461 . S
C2789 C2098 1.789 . S
C2785 C1661 1.752 . S
C2807 C2111 1.578 . S
C2803 C821 1.618 . S
C2821 C1141 1.543 . S
C2825 C2124 1.544 . S
C2843 C2137 1.733 . S
C2839 C781 1.699 . S
C2861 C2150 1.631 . S
C2857 C1701 1.665 . S
C2875 C861 1.555 . S
C2879 C2163 1.558 . S
C2893 C1181 1.708 . S
C2897 C2176 1.675 . S
C2915 C2189 1.447 . S
C2911 C1101 1.420 . S
C2929 C1421 1.622 . S
C2933 C2202 1.594 . S
C2951 C2215 1.573 . S
C2947 C381 1.585 . S
C2969 C2228 1.941 . S
C2965 C1501 1.798 . S
C2987 C2241 1.496 . S
C2983 C461 1.498 . S
C3005 C2254 1.677 . S
C3001 C1541 1.684 . S
C3019 C341 1.419 . S
C3023 C2267 1.399 . S
C3041 C2280 1.609 . S
C3037 C1461 1.614 . S
C3055 C421 1.719 . S
C3059 C2293 1.860 . S
C3077 C2306 1.627 . S
C3073 C61 1.649 . S
C3095 C2319 1.748 . S
C3091 C1261 1.681 . S
C3109 C141 1.541 . S
C3113 C2332 1.522 . S
C3131 C2345 1.482 . S
C3127 C1221 1.486 . S
C3149 C2358 1.307 . S
C3145 C301 1.272 . S
C3163 C1301 1.628 . S
C3167 C2371 1.591 . S
C3185 C2384 1.446 . S
C3181 C221 1.446 . S
C3203 C2397 1.765 . S
C3199 C541 1.718 . S
C3217 C181 1.607 . S
C3221 C2410 1.567 . S
C3239 C2423 1.463 . S
C3235 C1341 1.472 . S
C3253 C261 1.725 . S
C3257 C2436 1.776 . S
C3275 C2449 1.561 . S
C3271 C581 1.575 . S
C3289 C501 1.685 . S
C3293 C2462 1.662 . S
C3307 C701 1.408 . S
C3311 C2475 1.465 . S
C3329 C2488 1.664 . S
C3325 C621 1.649 . S
C3343 C1741 1.548 . S
C3347 C2501 1.520 . S
C3361 C101 1.592 . S
C3365 C2514 1.663 . S
C3383 C2527 1.513 . S
C3379 C21 1.519 . S
C3401 C2540 1.293 . S
C3397 C1381 1.263 . S
C3415 C1335 1.749 . S
C3419 C1928 1.751 . S
C3433 C535 1.671 . S
C3437 C1941 1.682 . S
C3451 C1362 1.541 . S
C3455 C1950 1.521 . S
C3473 C1967 1.426 . S
C3469 C1295 1.419 . S
C3487 C575 1.655 . S
C3491 C1976 1.681 . S
C3505 C1215 1.498 . S
C3509 C1989 1.382 . S
C3527 C2002 1.715 . S
C3523 C495 1.720 1_556 S
C3541 C1242 1.310 . S
C3545 C2019 1.350 . S
C3559 C1255 1.628 1_455 S
C3563 C2032 1.600 . S
C3581 C2041 1.644 . S
C3577 C562 1.835 . S
C3595 C1202 1.753 . S
C3599 C2054 1.638 . S
C3617 C2067 1.567 . S
C3613 C482 1.716 . S
C3631 C522 1.659 . S
C3635 C2080 1.692 . S
C3649 C1375 1.692 . S
C3653 C2097 1.686 . S
C3671 C2106 1.422 . S
C3667 C1282 1.587 . S
C3689 C2123 1.672 . S
C3685 C1322 1.687 . S
C3703 C455 1.669 . S
C3707 C2071 1.670 . S
C3721 C1415 1.531 . S
C3725 C2132 1.502 . S
C3739 C1455 1.419 . S
C3743 C2149 1.404 . S
C3761 C2158 1.701 . S
C3757 C1482 1.663 . S
C3779 C2084 1.543 . S
C3775 C442 1.608 . S
C3793 C362 1.637 . S
C3797 C2045 1.632 . S
C3811 C1495 2.014 . S
C3815 C2175 2.016 . S
C3833 C2184 1.356 . S
C3829 C1402 1.520 . S
C3851 C2201 1.744 . S
C3847 C1695 1.756 . S
C3865 C1135 1.324 . S
C3869 C2214 1.322 . S
C3887 C2223 1.501 . S
C3883 C1722 1.555 . S
C3905 C2240 1.697 . S
C3901 C1655 1.671 . S
C3919 C1175 1.882 . S
C3923 C2249 1.869 . S
C3937 C1562 1.697 . S
C3941 C2262 1.653 . S
C3955 C1095 1.505 . S
C3959 C2275 1.503 . S
C3977 C2292 1.699 . S
C3973 C1615 1.666 . S
C3995 C2305 1.710 . S
C3991 C1602 1.688 . S
C4009 C1162 1.676 . S
C4013 C2314 1.622 . S
C4031 C2331 1.716 . S
C4027 C1575 1.768 . S
C4045 C1082 1.541 . S
C4049 C2340 1.512 . S
C4067 C2353 1.296 . S
C4063 C1122 1.449 . S
C4081 C1735 1.633 . S
C4085 C2370 1.596 . S
C4103 C2379 1.592 . S
C4099 C1642 1.610 . S
C4117 C1682 1.794 . S
C4121 C2392 1.711 . S
C4135 C1042 1.529 . S
C4139 C2344 1.530 . S
C4153 C1775 1.730 . S
C4157 C2405 1.662 . S
C4171 C1815 1.334 . S
C4175 C2422 1.318 . S
C4193 C2435 1.465 . S
C4189 C1842 1.473 . S
C4207 C1055 1.644 . S
C4211 C2357 1.579 . S
C4225 C975 1.460 . S
C4229 C2318 1.451 . S
C4247 C2444 1.557 . S
C4243 C1855 1.781 . S
C4261 C1762 1.733 . S
C4265 C2457 1.602 . S
C4283 C1993 1.667 . S
C4279 C215 1.667 . S
C4301 C2006 1.649 . S
C4297 C255 1.637 . S
C4319 C2015 1.439 . S
C4315 C282 1.486 . S
C4337 C1980 1.391 . S
C4333 C175 1.390 . S
C4355 C1963 1.685 . S
C4351 C135 1.660 . S
C4369 C15 1.541 . S
C4373 C1924 1.436 . S
C4387 C55 1.792 . S
C4391 C1937 1.812 . S
C4405 C82 1.372 . S
C4409 C1954 1.423 . S
C4423 C95 1.581 . S
C4427 C2188 1.555 . S
C4441 C122 1.855 . S
C4445 C2470 1.662 . S
C4459 C2 1.785 . S
C4463 C2171 1.651 . S
C4477 C42 1.736 . S
C4481 C2483 1.588 . S
C4495 C242 1.726 . S
C4499 C2496 1.762 . S
C4517 C2136 1.673 . S
C4513 C295 1.691 . S
C4531 C162 1.530 1_655 S
C4535 C2145 1.410 . S
C4549 C202 1.627 . S
C4553 C2162 1.623 . S
C4571 C2487 1.595 . S
C4567 C1535 1.580 . S
C4585 C335 1.628 . S
C4589 C2093 1.569 . S
C4603 C375 1.429 . S
C4607 C2110 1.408 . S
C4621 C402 1.709 . S
C4625 C2119 1.716 . S
C4643 C2500 1.648 . S
C4639 C1522 1.714 . S
C4661 C2474 1.524 . S
C4657 C1442 1.546 . S
C4679 C2058 1.998 . S
C4675 C415 2.008 . S
C4693 C322 1.499 . S
C4697 C2028 1.359 . S
C4711 C815 1.648 . S
C4715 C2266 1.622 . S
C4729 C855 1.362 . S
C4733 C2279 1.361 . S
C4747 C882 1.542 . S
C4751 C2288 1.490 . S
C4765 C775 1.743 . S
C4769 C2253 1.770 . S
C4787 C2236 1.833 . S
C4783 C735 1.845 . S
C4805 C2197 1.739 . S
C4801 C602 1.782 . S
C4823 C2210 1.508 . S
C4819 C655 1.505 . S
C4837 C695 1.710 . S
C4841 C2227 1.749 . S
C4859 C2461 1.707 . S
C4855 C682 1.675 . S
C4873 C722 1.614 . S
C4877 C2509 1.561 . S
C4891 C615 1.828 . S
C4895 C2448 1.786 . S
C4913 C2522 1.536 . S
C4909 C642 1.546 . S
C4927 C842 1.501 . S
C4931 C2535 1.358 . S
C4949 C2409 1.568 . S
C4945 C895 1.605 . S
C4963 C762 1.580 . S
C4967 C2418 1.579 . S
C4981 C802 1.717 . S
C4985 C2431 1.652 . S
C4999 C1895 1.475 . S
C5003 C2526 1.495 . S
C5021 C2366 1.706 . S
C5017 C935 1.807 . S
C5035 C962 1.389 . S
C5039 C2383 1.381 . S
C5053 C1002 1.493 . S
C5057 C2396 1.484 . S
C5071 C1882 1.623 . S
C5075 C2539 1.619 . S
C5089 C1802 1.368 . S
C5093 C2513 1.378 . S
C5111 C2327 1.465 . S
C5107 C1015 1.700 . S
C5129 C2301 1.546 . S
C5125 C922 1.694 . S
