# Generated by pormake.
# Topology dag, (6,3)-cn, num edge types: 1
# Building blocks:
#     Node 0, Type 0, BuildingBlock: OJICUG_clean_sbu_0, # of connection points: 6
#     Node 1, Type 0, BuildingBlock: OJICUG_clean_sbu_0, # of connection points: 6
#     Node 2, Type 0, BuildingBlock: OJICUG_clean_sbu_0, # of connection points: 6
#     Node 3, Type 0, BuildingBlock: OJICUG_clean_sbu_0, # of connection points: 6
#     Node 4, Type 1, BuildingBlock: QEWDON_clean_linker_0, # of connection points: 3
#     Node 5, Type 1, BuildingBlock: QEWDON_clean_linker_0, # of connection points: 3
#     Node 6, Type 1, BuildingBlock: QEWDON_clean_linker_0, # of connection points: 3
#     Node 7, Type 1, BuildingBlock: QEWDON_clean_linker_0, # of connection points: 3
#     Node 8, Type 1, BuildingBlock: QEWDON_clean_linker_0, # of connection points: 3
#     Node 9, Type 1, BuildingBlock: QEWDON_clean_linker_0, # of connection points: 3
#     Node 10, Type 1, BuildingBlock: QEWDON_clean_linker_0, # of connection points: 3
#     Node 11, Type 1, BuildingBlock: QEWDON_clean_linker_0, # of connection points: 3
#     Edge 12, Type (0, 1), BuildingBlock: ZUJKAS_clean_linker_0, # of connection points: 2
#     Edge 13, Type (0, 1), BuildingBlock: ZUJKAS_clean_linker_0, # of connection points: 2
#     Edge 14, Type (0, 1), BuildingBlock: ZUJKAS_clean_linker_0, # of connection points: 2
#     Edge 15, Type (0, 1), BuildingBlock: ZUJKAS_clean_linker_0, # of connection points: 2
#     Edge 16, Type (0, 1), BuildingBlock: ZUJKAS_clean_linker_0, # of connection points: 2
#     Edge 17, Type (0, 1), BuildingBlock: ZUJKAS_clean_linker_0, # of connection points: 2
#     Edge 18, Type (0, 1), BuildingBlock: ZUJKAS_clean_linker_0, # of connection points: 2
#     Edge 19, Type (0, 1), BuildingBlock: ZUJKAS_clean_linker_0, # of connection points: 2
#     Edge 20, Type (0, 1), BuildingBlock: ZUJKAS_clean_linker_0, # of connection points: 2
#     Edge 21, Type (0, 1), BuildingBlock: ZUJKAS_clean_linker_0, # of connection points: 2
#     Edge 22, Type (0, 1), BuildingBlock: ZUJKAS_clean_linker_0, # of connection points: 2
#     Edge 23, Type (0, 1), BuildingBlock: ZUJKAS_clean_linker_0, # of connection points: 2
#     Edge 24, Type (0, 1), BuildingBlock: ZUJKAS_clean_linker_0, # of connection points: 2
#     Edge 25, Type (0, 1), BuildingBlock: ZUJKAS_clean_linker_0, # of connection points: 2
#     Edge 26, Type (0, 1), BuildingBlock: ZUJKAS_clean_linker_0, # of connection points: 2
#     Edge 27, Type (0, 1), BuildingBlock: ZUJKAS_clean_linker_0, # of connection points: 2
#     Edge 28, Type (0, 1), BuildingBlock: ZUJKAS_clean_linker_0, # of connection points: 2
#     Edge 29, Type (0, 1), BuildingBlock: ZUJKAS_clean_linker_0, # of connection points: 2
#     Edge 30, Type (0, 1), BuildingBlock: ZUJKAS_clean_linker_0, # of connection points: 2
#     Edge 31, Type (0, 1), BuildingBlock: ZUJKAS_clean_linker_0, # of connection points: 2
#     Edge 32, Type (0, 1), BuildingBlock: ZUJKAS_clean_linker_0, # of connection points: 2
#     Edge 33, Type (0, 1), BuildingBlock: ZUJKAS_clean_linker_0, # of connection points: 2
#     Edge 34, Type (0, 1), BuildingBlock: ZUJKAS_clean_linker_0, # of connection points: 2
#     Edge 35, Type (0, 1), BuildingBlock: ZUJKAS_clean_linker_0, # of connection points: 2
# Relax obj value: 0.045
# Max RMSD: 0.066
# Mean RMSD: 0.060
data_MOF--net-dag--node1-OJICUG_clean_sbu_0--node2-QEWDON_clean_linker_0--edge1-ZUJKAS_clean_linker_0
_symmetry_space_group_name_H-M    P1
_symmetry_Int_Tables_number       1
_symmetry_cell_setting            triclinic
loop_
_symmetry_equiv_pos_as_xyz
'x, y, z'
_cell_length_a     51.047265
_cell_length_b     51.075529
_cell_length_c     53.559549
_cell_angle_alpha  89.945176
_cell_angle_beta   89.997435
_cell_angle_gamma 89.999858
loop_
_atom_site_label
_atom_site_type_symbol
_atom_site_fract_x
_atom_site_fract_y
_atom_site_fract_z
_atom_type_partial_charge
Sc0 Sc 0.12072 0.87515 0.00048 0.0
Sc1 Sc 0.13854 0.80864 0.00167 0.0
Sc2 Sc 0.18738 0.85791 0.00037 0.0
O3 O 0.1489 0.84719 0.00079 0.0
C4 C 0.16297 0.89908 0.9625 0.0
C5 C 0.09685 0.83256 0.96333 0.0
C6 C 0.18785 0.80741 0.96504 0.0
C7 C 0.09561 0.83327 0.03795 0.0
C8 C 0.16249 0.90079 0.03698 0.0
C9 C 0.1868 0.81106 0.03987 0.0
O10 O 0.14038 0.89797 0.97241 0.0
O11 O 0.10927 0.81327 0.97269 0.0
O12 O 0.19784 0.82846 0.97338 0.0
O13 O 0.0975 0.85607 0.02862 0.0
O14 O 0.18195 0.88882 0.0275 0.0
O15 O 0.16644 0.80017 0.03088 0.0
O16 O 0.13908 0.89706 0.02976 0.0
O17 O 0.10947 0.81415 0.03046 0.0
O18 O 0.19645 0.83207 0.03099 0.0
O19 O 0.09951 0.85591 0.97115 0.0
O20 O 0.18204 0.88492 0.96971 0.0
O21 O 0.16632 0.79819 0.9731 0.0
Sc22 Sc 0.68542 0.63511 0.50261 0.0
Sc23 Sc 0.63815 0.68585 0.50342 0.0
Sc24 Sc 0.6183 0.61997 0.50698 0.0
O25 O 0.64732 0.647 0.50439 0.0
C26 C 0.65695 0.59289 0.46788 0.0
C27 C 0.68491 0.6825 0.46371 0.0
C28 C 0.59339 0.66163 0.46909 0.0
C29 C 0.68877 0.6852 0.53845 0.0
C30 C 0.66204 0.59483 0.54242 0.0
C31 C 0.59708 0.66423 0.54366 0.0
O32 O 0.67724 0.60529 0.47499 0.0
O33 O 0.66511 0.69371 0.47335 0.0
O34 O 0.59447 0.63915 0.47925 0.0
O35 O 0.69775 0.66381 0.52975 0.0
O36 O 0.63857 0.59755 0.53494 0.0
O37 O 0.60959 0.68283 0.53324 0.0
O38 O 0.68111 0.60727 0.53278 0.0
O39 O 0.66733 0.69529 0.53105 0.0
O40 O 0.59896 0.64058 0.53656 0.0
O41 O 0.69427 0.6612 0.47215 0.0
O42 O 0.63451 0.59637 0.47761 0.0
O43 O 0.6083 0.68045 0.47537 0.0
Sc44 Sc 0.86417 0.18782 0.00028 0.0
Sc45 Sc 0.81451 0.13937 0.99905 0.0
Sc46 Sc 0.8808 0.12095 0.00094 0.0
O47 O 0.85314 0.14941 0.00012 0.0
C48 C 0.90696 0.16276 0.96405 0.0
C49 C 0.81686 0.18742 0.96104 0.0
C50 C 0.83961 0.09624 0.963 0.0
C51 C 0.81411 0.18891 0.03582 0.0
C52 C 0.90495 0.1627 0.03875 0.0
C53 C 0.83701 0.09745 0.03751 0.0
O54 O 0.89349 0.18211 0.9717 0.0
O55 O 0.80696 0.166 0.96869 0.0
O56 O 0.86272 0.09914 0.97134 0.0
O57 O 0.83613 0.19789 0.02873 0.0
O58 O 0.90202 0.13953 0.0306 0.0
O59 O 0.8183 0.1114 0.02914 0.0
O60 O 0.89293 0.18227 0.02951 0.0
O61 O 0.80386 0.16846 0.02643 0.0
O62 O 0.86016 0.09871 0.02883 0.0
O63 O 0.83685 0.19793 0.97107 0.0
O64 O 0.90456 0.13987 0.97311 0.0
O65 O 0.82015 0.10894 0.97153 0.0
Sc66 Sc 0.37168 0.37399 0.49244 0.0
Sc67 Sc 0.30479 0.35816 0.49645 0.0
Sc68 Sc 0.3527 0.30789 0.49555 0.0
O69 O 0.34302 0.34664 0.49477 0.0
C70 C 0.39288 0.33 0.45508 0.0
C71 C 0.328 0.3973 0.45572 0.0
C72 C 0.30092 0.3071 0.46212 0.0
C73 C 0.33233 0.40161 0.53035 0.0
C74 C 0.39776 0.33275 0.52955 0.0
C75 C 0.30718 0.31186 0.53655 0.0
O76 O 0.39184 0.3532 0.46354 0.0
O77 O 0.30889 0.38495 0.46543 0.0
O78 O 0.32255 0.29736 0.46931 0.0
O79 O 0.35498 0.39784 0.52125 0.0
O80 O 0.38406 0.31349 0.5221 0.0
O81 O 0.29711 0.33266 0.52764 0.0
O82 O 0.39515 0.3557 0.52075 0.0
O83 O 0.31223 0.38913 0.52301 0.0
O84 O 0.32699 0.30063 0.52684 0.0
O85 O 0.35137 0.39532 0.46374 0.0
O86 O 0.37957 0.31125 0.46432 0.0
O87 O 0.29216 0.32875 0.47031 0.0
H88 H 0.15126 0.08663 0.24886 0.0
C89 C 0.13898 0.10045 0.23889 0.0
C90 C 0.13908 0.10087 0.2127 0.0
C91 C 0.12288 0.1177 0.25226 0.0
H92 H 0.12192 0.11815 0.17983 0.0
C93 C 0.12284 0.11867 0.20006 0.0
C94 C 0.10604 0.13545 0.21326 0.0
C95 C 0.10636 0.13507 0.23946 0.0
C96 C 0.12275 0.117 0.27969 0.0
H97 H 0.09337 0.14783 0.24988 0.0
C98 C 0.13695 0.13568 0.29321 0.0
C99 C 0.13732 0.135 0.31948 0.0
C100 C 0.10873 0.09751 0.29235 0.0
H101 H 0.09772 0.08293 0.28207 0.0
C102 C 0.10876 0.09683 0.31841 0.0
H103 H 0.1482 0.1503 0.28318 0.0
C104 C 0.12294 0.11543 0.33194 0.0
H105 H 0.12249 0.11458 0.35214 0.0
H106 H 0.09778 0.08185 0.32815 0.0
H107 H 0.3958 0.65869 0.74438 0.0
C108 C 0.38431 0.64542 0.733 0.0
C109 C 0.38713 0.64563 0.70692 0.0
C110 C 0.36749 0.62732 0.74448 0.0
H111 H 0.37542 0.62733 0.67242 0.0
C112 C 0.37246 0.62799 0.69247 0.0
C113 C 0.35599 0.60947 0.70381 0.0
C114 C 0.3536 0.60925 0.7299 0.0
C115 C 0.36562 0.62606 0.77186 0.0
H116 H 0.3412 0.59481 0.7389 0.0
C117 C 0.35117 0.6449 0.785 0.0
C118 C 0.34842 0.64309 0.8111 0.0
C119 C 0.37767 0.60547 0.78483 0.0
H120 H 0.38879 0.59073 0.77487 0.0
C121 C 0.37544 0.60382 0.81074 0.0
H122 H 0.3419 0.66076 0.77483 0.0
C123 C 0.36088 0.62243 0.82384 0.0
H124 H 0.35888 0.62031 0.84387 0.0
H125 H 0.38477 0.58788 0.82068 0.0
H126 H 0.85229 0.79437 0.19223 0.0
C127 C 0.84705 0.81471 0.18927 0.0
C128 C 0.86616 0.83279 0.18155 0.0
C129 C 0.82088 0.82254 0.19208 0.0
H130 H 0.8731 0.87263 0.17004 0.0
C131 C 0.85876 0.85892 0.17726 0.0
C132 C 0.8326 0.86702 0.17997 0.0
C133 C 0.81374 0.84861 0.18745 0.0
C134 C 0.80044 0.80296 0.19724 0.0
H135 H 0.79338 0.85437 0.18921 0.0
C136 C 0.79621 0.79368 0.22158 0.0
C137 C 0.77616 0.77539 0.22638 0.0
C138 C 0.78478 0.79383 0.17759 0.0
H139 H 0.78782 0.80089 0.15873 0.0
C140 C 0.76512 0.77549 0.18216 0.0
H141 H 0.80843 0.80078 0.23668 0.0
C142 C 0.76075 0.76634 0.20636 0.0
H143 H 0.74493 0.75259 0.20947 0.0
H144 H 0.75305 0.76853 0.16693 0.0
H145 H 0.7009 0.34647 0.69082 0.0
C146 C 0.68065 0.34177 0.68669 0.0
C147 C 0.66341 0.36153 0.67868 0.0
C148 C 0.67202 0.3157 0.68838 0.0
H149 H 0.62439 0.36987 0.66551 0.0
C150 C 0.63737 0.35496 0.67288 0.0
C151 C 0.62852 0.329 0.67445 0.0
C152 C 0.646 0.30949 0.68231 0.0
C153 C 0.69031 0.29444 0.6951 0.0
H154 H 0.63945 0.28933 0.68353 0.0
C155 C 0.70293 0.29422 0.7184 0.0
C156 C 0.71842 0.27265 0.72566 0.0
C157 C 0.69396 0.27343 0.67859 0.0
H158 H 0.68438 0.27328 0.66054 0.0
C159 C 0.7098 0.25237 0.68533 0.0
H160 H 0.70008 0.31055 0.73102 0.0
C161 C 0.72176 0.2518 0.70873 0.0
H162 H 0.73301 0.23462 0.71376 0.0
H163 H 0.71239 0.23616 0.67256 0.0
H164 H 0.6508 0.39807 0.25674 0.0
C165 C 0.63643 0.38571 0.26586 0.0
C166 C 0.63068 0.38923 0.29129 0.0
C167 C 0.62301 0.36685 0.25182 0.0
H168 H 0.60575 0.37707 0.32157 0.0
C169 C 0.61145 0.37332 0.30242 0.0
C170 C 0.59807 0.35403 0.28866 0.0
C171 C 0.60415 0.35089 0.26324 0.0
C172 C 0.62635 0.36604 0.22455 0.0
H173 H 0.59382 0.33652 0.25209 0.0
C174 C 0.646 0.35065 0.21358 0.0
C175 C 0.64899 0.35022 0.18743 0.0
C176 C 0.60964 0.38099 0.20945 0.0
H177 H 0.5944 0.39293 0.21773 0.0
C178 C 0.6125 0.38065 0.18357 0.0
H179 H 0.65899 0.33929 0.22538 0.0
C180 C 0.63201 0.36539 0.17258 0.0
H181 H 0.63352 0.36514 0.15241 0.0
H182 H 0.5995 0.39217 0.17198 0.0
H183 H 0.21001 0.14121 0.81443 0.0
C184 C 0.18954 0.14682 0.81532 0.0
C185 C 0.17048 0.12805 0.82107 0.0
C186 C 0.18228 0.17296 0.81134 0.0
H187 H 0.12989 0.12115 0.82914 0.0
C188 C 0.14419 0.13559 0.82324 0.0
C189 C 0.13672 0.1619 0.82013 0.0
C190 C 0.15594 0.18044 0.81366 0.0
C191 C 0.20254 0.19289 0.80691 0.0
H192 H 0.15064 0.20084 0.81126 0.0
C193 C 0.20811 0.20142 0.78259 0.0
C194 C 0.2277 0.22034 0.77836 0.0
C195 C 0.21646 0.20329 0.82715 0.0
H196 H 0.21232 0.19683 0.84602 0.0
C197 C 0.23571 0.22221 0.82314 0.0
H198 H 0.19754 0.19291 0.76703 0.0
C199 C 0.24133 0.23073 0.79895 0.0
H200 H 0.25618 0.24563 0.7964 0.0
H201 H 0.24631 0.23032 0.83884 0.0
H202 H 0.35391 0.70483 0.31203 0.0
C203 C 0.34957 0.68419 0.3144 0.0
C204 C 0.36963 0.6667 0.32084 0.0
C205 C 0.3237 0.6752 0.31213 0.0
H206 H 0.37921 0.62695 0.33049 0.0
C207 C 0.36371 0.64024 0.32488 0.0
C208 C 0.33778 0.6312 0.32346 0.0
C209 C 0.31787 0.64877 0.3167 0.0
C210 C 0.30229 0.69381 0.30732 0.0
H211 H 0.29767 0.64223 0.31609 0.0
C212 C 0.29783 0.70342 0.28314 0.0
C213 C 0.27674 0.72049 0.27843 0.0
C214 C 0.28583 0.70148 0.32694 0.0
H215 H 0.28903 0.69412 0.34568 0.0
C216 C 0.26516 0.71872 0.3225 0.0
H217 H 0.31065 0.69741 0.26806 0.0
C218 C 0.26055 0.72815 0.29842 0.0
H219 H 0.24395 0.74096 0.29537 0.0
H220 H 0.25248 0.72456 0.3377 0.0
H221 H 0.90097 0.83861 0.75714 0.0
C222 C 0.88828 0.85185 0.76735 0.0
C223 C 0.88975 0.85306 0.79348 0.0
C224 C 0.87102 0.86825 0.75429 0.0
H225 H 0.87544 0.87247 0.82649 0.0
C226 C 0.87352 0.87063 0.8064 0.0
C227 C 0.85668 0.88763 0.79346 0.0
C228 C 0.85545 0.88627 0.76732 0.0
C229 C 0.87057 0.8678 0.72685 0.0
H230 H 0.8428 0.89955 0.75708 0.0
C231 C 0.85373 0.85067 0.71416 0.0
C232 C 0.85336 0.8501 0.68787 0.0
C233 C 0.88711 0.88448 0.71333 0.0
H234 H 0.9002 0.89778 0.72295 0.0
C235 C 0.88688 0.88403 0.68728 0.0
H236 H 0.84077 0.8381 0.7248 0.0
C237 C 0.87017 0.86696 0.67459 0.0
H238 H 0.87069 0.86673 0.65438 0.0
H239 H 0.89978 0.89686 0.67689 0.0
H240 H 0.12578 0.92638 0.06482 0.0
H241 H 0.13277 0.96105 0.09522 0.0
H242 H 0.21627 0.95524 0.08458 0.0
H243 H 0.20956 0.92008 0.05404 0.0
H244 H 0.19992 0.96045 0.13584 0.0
H245 H 0.15544 0.03558 0.07458 0.0
H246 H 0.1348 0.00741 0.07837 0.0
H247 H 0.16603 0.00407 0.0631 0.0
C248 C 0.14569 0.93232 0.06889 0.0
C249 C 0.1671 0.9206 0.05671 0.0
C250 C 0.14962 0.95222 0.08626 0.0
C251 C 0.17498 0.96102 0.09173 0.0
C252 C 0.19653 0.94881 0.08041 0.0
H253 H 0.17119 0.10879 0.17264 0.0
H254 H 0.18834 0.0754 0.14419 0.0
C255 C 0.19263 0.92875 0.06298 0.0
C256 C 0.1785 0.98336 0.10894 0.0
H257 H 0.15753 0.04588 0.11823 0.0
C258 C 0.1911 0.97933 0.1319 0.0
C259 C 0.16758 0.00814 0.10348 0.0
C260 C 0.15545 0.0142 0.07843 0.0
C261 C 0.19142 0.99896 0.15028 0.0
C262 C 0.17833 0.02292 0.14564 0.0
C263 C 0.16736 0.02747 0.12198 0.0
C264 C 0.17333 0.04259 0.16546 0.0
C265 C 0.20541 0.99364 0.17455 0.0
C266 C 0.15991 0.03525 0.18728 0.0
C267 C 0.15041 0.05428 0.20366 0.0
C268 C 0.15372 0.08098 0.19825 0.0
C269 C 0.16832 0.0883 0.17714 0.0
C270 C 0.17813 0.06926 0.16093 0.0
H271 H 0.22216 0.98008 0.1717 0.0
H272 H 0.2128 0.01197 0.18318 0.0
H273 H 0.19165 0.98409 0.18776 0.0
H274 H 0.15525 0.01492 0.19086 0.0
H275 H 0.13889 0.04813 0.21961 0.0
H276 H 0.57392 0.62966 0.57557 0.0
H277 H 0.53856 0.63814 0.60498 0.0
H278 H 0.54135 0.7204 0.58715 0.0
H279 H 0.57713 0.71218 0.5575 0.0
H280 H 0.53383 0.70651 0.641 0.0
H281 H 0.46458 0.65764 0.57639 0.0
H282 H 0.49335 0.63857 0.5829 0.0
H283 H 0.49639 0.66921 0.56659 0.0
C284 C 0.56729 0.64964 0.578 0.0
C285 C 0.57814 0.67019 0.56387 0.0
C286 C 0.54706 0.65443 0.59485 0.0
C287 C 0.5371 0.67979 0.59787 0.0
C288 C 0.54874 0.70066 0.58493 0.0
H289 H 0.38259 0.67735 0.66606 0.0
H290 H 0.41847 0.69447 0.64045 0.0
C291 C 0.56917 0.6959 0.56803 0.0
C292 C 0.51342 0.68375 0.61333 0.0
H293 H 0.45038 0.66266 0.61857 0.0
C294 C 0.51539 0.69736 0.636 0.0
C295 C 0.48928 0.67233 0.60646 0.0
C296 C 0.4856 0.65883 0.58164 0.0
C297 C 0.49418 0.69834 0.65275 0.0
C298 C 0.4707 0.68495 0.64676 0.0
C299 C 0.46835 0.67283 0.62334 0.0
C300 C 0.44922 0.68078 0.66508 0.0
C301 C 0.49729 0.71338 0.67677 0.0
C302 C 0.45447 0.66833 0.68794 0.0
C303 C 0.43398 0.65889 0.70273 0.0
C304 C 0.4079 0.66131 0.69468 0.0
C305 C 0.40255 0.67523 0.67264 0.0
C306 C 0.42303 0.68499 0.65802 0.0
H307 H 0.51105 0.73005 0.67434 0.0
H308 H 0.47824 0.72104 0.68359 0.0
H309 H 0.50565 0.70026 0.69124 0.0
H310 H 0.47442 0.66414 0.69352 0.0
H311 H 0.43865 0.64788 0.71944 0.0
H312 H 0.87228 0.06617 0.0617 0.0
H313 H 0.86312 0.03055 0.09075 0.0
H314 H 0.78063 0.04799 0.08733 0.0
H315 H 0.78945 0.0839 0.05802 0.0
H316 H 0.81366 0.03472 0.14056 0.0
H317 H 0.81369 0.96454 0.06098 0.0
H318 H 0.83797 0.99017 0.061 0.0
H319 H 0.80404 0.99838 0.05735 0.0
C320 C 0.85217 0.06275 0.06726 0.0
C321 C 0.83156 0.0778 0.05727 0.0
C322 C 0.84703 0.04242 0.08395 0.0
C323 C 0.82125 0.03673 0.09104 0.0
C324 C 0.80067 0.05226 0.08205 0.0
H325 H 0.79006 0.8818 0.15221 0.0
H326 H 0.78147 0.92483 0.134 0.0
C327 C 0.80577 0.07269 0.06528 0.0
C328 C 0.81602 0.01314 0.10614 0.0
H329 H 0.81495 0.94664 0.10156 0.0
C330 C 0.81351 0.01543 0.13211 0.0
C331 C 0.81561 0.98815 0.09493 0.0
C332 C 0.81783 0.98494 0.06701 0.0
C333 C 0.81167 0.99306 0.14735 0.0
C334 C 0.81281 0.96795 0.13622 0.0
C335 C 0.81408 0.96586 0.11011 0.0
C336 C 0.815 0.94353 0.15108 0.0
C337 C 0.80884 0.99654 0.17517 0.0
C338 C 0.83635 0.9399 0.16724 0.0
C339 C 0.84117 0.91538 0.17786 0.0
C340 C 0.82492 0.89393 0.17231 0.0
C341 C 0.80279 0.89795 0.15713 0.0
C342 C 0.79793 0.92251 0.14658 0.0
H343 H 0.79939 0.01555 0.17972 0.0
H344 H 0.79713 0.98047 0.18358 0.0
H345 H 0.82857 0.99648 0.18388 0.0
H346 H 0.85012 0.95563 0.17059 0.0
H347 H 0.85824 0.91297 0.18966 0.0
H348 H 0.43194 0.36863 0.54883 0.0
H349 H 0.46824 0.36076 0.57742 0.0
H350 H 0.44719 0.27921 0.58217 0.0
H351 H 0.41059 0.28673 0.55335 0.0
H352 H 0.46176 0.31069 0.63101 0.0
H353 H 0.53314 0.31291 0.55256 0.0
H354 H 0.509 0.33859 0.55286 0.0
H355 H 0.49888 0.30532 0.54812 0.0
C356 C 0.43477 0.34901 0.55603 0.0
C357 C 0.41844 0.32825 0.54853 0.0
C358 C 0.45554 0.3446 0.5724 0.0
C359 C 0.46038 0.31942 0.58168 0.0
C360 C 0.44366 0.29879 0.57511 0.0
H361 H 0.61412 0.28764 0.64511 0.0
H362 H 0.5715 0.28002 0.62566 0.0
C363 C 0.42285 0.30314 0.5586 0.0
C364 C 0.48391 0.3147 0.59702 0.0
H365 H 0.55054 0.31521 0.59349 0.0
C366 C 0.48121 0.3113 0.62288 0.0
C367 C 0.50912 0.31521 0.5862 0.0
C368 C 0.51288 0.318 0.55838 0.0
C369 C 0.50334 0.30956 0.63841 0.0
C370 C 0.52861 0.31156 0.62771 0.0
C371 C 0.53116 0.31374 0.60169 0.0
C372 C 0.55273 0.31335 0.64298 0.0
C373 C 0.49948 0.30586 0.6661 0.0
C374 C 0.55615 0.33432 0.65957 0.0
C375 C 0.58043 0.33863 0.67086 0.0
C376 C 0.60182 0.32218 0.66558 0.0
C377 C 0.59799 0.30049 0.64983 0.0
C378 C 0.57368 0.29618 0.63858 0.0
H379 H 0.48033 0.29645 0.67022 0.0
H380 H 0.51537 0.29374 0.6743 0.0
H381 H 0.49968 0.32528 0.67537 0.0
H382 H 0.54043 0.34813 0.66285 0.0
H383 H 0.58272 0.35537 0.68307 0.0
H384 H 0.69878 0.58441 0.43647 0.0
H385 H 0.70149 0.55294 0.402 0.0
H386 H 0.62353 0.52575 0.419 0.0
H387 H 0.62038 0.55723 0.45291 0.0
H388 H 0.6982 0.4995 0.40136 0.0
H389 H 0.61777 0.54159 0.34528 0.0
H390 H 0.63237 0.55884 0.37118 0.0
H391 H 0.6072 0.53474 0.37653 0.0
C392 C 0.68219 0.57177 0.43282 0.0
C393 C 0.65926 0.57356 0.44734 0.0
C394 C 0.68378 0.55382 0.41311 0.0
C395 C 0.66248 0.53742 0.40758 0.0
C396 C 0.63991 0.53873 0.42245 0.0
H397 H 0.6463 0.38868 0.34025 0.0
H398 H 0.65884 0.426 0.36586 0.0
C399 C 0.63822 0.55669 0.44196 0.0
C400 C 0.66374 0.5184 0.38671 0.0
H401 H 0.62871 0.49658 0.33671 0.0
C402 C 0.68329 0.49907 0.38694 0.0
C403 C 0.64471 0.51823 0.36751 0.0
C404 C 0.62452 0.53966 0.36492 0.0
C405 C 0.68327 0.4786 0.36943 0.0
C406 C 0.66278 0.47712 0.35165 0.0
C407 C 0.64425 0.49741 0.3505 0.0
C408 C 0.65878 0.45391 0.33538 0.0
C409 C 0.7051 0.45872 0.37033 0.0
C410 C 0.65432 0.45704 0.30967 0.0
C411 C 0.64636 0.4358 0.29506 0.0
C412 C 0.64275 0.41093 0.30587 0.0
C413 C 0.64854 0.40761 0.33137 0.0
C414 C 0.65617 0.4289 0.34599 0.0
H415 H 0.72345 0.46762 0.37758 0.0
H416 H 0.69954 0.44264 0.38323 0.0
H417 H 0.70908 0.45026 0.35162 0.0
H418 H 0.65603 0.47617 0.30107 0.0
H419 H 0.64177 0.43923 0.2756 0.0
H420 H 0.93977 0.12641 0.94342 0.0
H421 H 0.97536 0.13386 0.91391 0.0
H422 H 0.95583 0.21586 0.91051 0.0
H423 H 0.91996 0.20876 0.94025 0.0
H424 H 0.96914 0.18272 0.86058 0.0
H425 H 0.04116 0.18249 0.9386 0.0
H426 H 0.01644 0.15735 0.9391 0.0
H427 H 0.00711 0.19095 0.94303 0.0
C428 C 0.94276 0.14604 0.9363 0.0
C429 C 0.92709 0.16704 0.94447 0.0
C430 C 0.9631 0.15021 0.91937 0.0
C431 C 0.96817 0.17538 0.91019 0.0
C432 C 0.95209 0.19627 0.91743 0.0
H433 H 0.12203 0.20497 0.84699 0.0
H434 H 0.07909 0.21389 0.86508 0.0
C435 C 0.93169 0.19216 0.93448 0.0
C436 C 0.99153 0.17985 0.89452 0.0
H437 H 0.05817 0.17989 0.89765 0.0
C438 C 0.98865 0.18249 0.8686 0.0
C439 C 0.01682 0.1798 0.90517 0.0
C440 C 0.02076 0.17768 0.93303 0.0
C441 C 0.01067 0.184 0.85288 0.0
C442 C 0.03604 0.18251 0.86346 0.0
C443 C 0.03875 0.18103 0.88951 0.0
C444 C 0.06015 0.18044 0.84813 0.0
C445 C 0.00658 0.18693 0.82514 0.0
C446 C 0.06358 0.15915 0.8319 0.0
C447 C 0.08808 0.15415 0.82128 0.0
C448 C 0.10971 0.17016 0.82694 0.0
C449 C 0.10578 0.1924 0.84197 0.0
C450 C 0.08126 0.19745 0.85248 0.0
H451 H 0.98745 0.19635 0.82095 0.0
H452 H 0.02246 0.1987 0.81648 0.0
H453 H 0.00654 0.16725 0.81638 0.0
H454 H 0.04775 0.14547 0.82861 0.0
H455 H 0.09039 0.13702 0.80957 0.0
H456 H 0.28052 0.41426 0.43762 0.0
H457 H 0.27292 0.44863 0.40651 0.0
H458 H 0.35631 0.45697 0.39633 0.0
H459 H 0.3641 0.42263 0.42687 0.0
H460 H 0.28915 0.4986 0.41254 0.0
H461 H 0.33101 0.46036 0.32492 0.0
H462 H 0.32287 0.43933 0.35095 0.0
H463 H 0.35373 0.45646 0.35017 0.0
C464 C 0.29722 0.42302 0.42836 0.0
C465 C 0.32293 0.4158 0.43492 0.0
C466 C 0.29283 0.44263 0.41057 0.0
C467 C 0.31403 0.4551 0.39882 0.0
C468 C 0.33962 0.4472 0.40465 0.0
H469 H 0.35543 0.60663 0.36515 0.0
H470 H 0.34436 0.56295 0.38017 0.0
C471 C 0.34404 0.42772 0.4224 0.0
C472 C 0.30996 0.47867 0.38314 0.0
H473 H 0.3316 0.50801 0.32967 0.0
C474 C 0.29778 0.50044 0.39411 0.0
C475 C 0.32092 0.48104 0.35896 0.0
C476 C 0.33261 0.45792 0.34548 0.0
C477 C 0.29832 0.52503 0.38251 0.0
C478 C 0.31157 0.52791 0.35952 0.0
C479 C 0.32175 0.50576 0.34749 0.0
C480 C 0.31811 0.55411 0.34962 0.0
C481 C 0.28586 0.54806 0.39552 0.0
C482 C 0.30737 0.56333 0.32716 0.0
C483 C 0.31375 0.58841 0.31843 0.0
C484 C 0.33129 0.60431 0.33188 0.0
C485 C 0.3422 0.59472 0.35417 0.0
C486 C 0.33569 0.56988 0.36292 0.0
H487 H 0.27047 0.54166 0.40887 0.0
H488 H 0.30109 0.55879 0.40618 0.0
H489 H 0.27705 0.56182 0.38181 0.0
H490 H 0.29388 0.55128 0.31661 0.0
H491 H 0.30514 0.59532 0.30116 0.0
H492 H 0.0734 0.86891 0.93347 0.0
H493 H 0.03815 0.86212 0.90355 0.0
H494 H 0.04046 0.77903 0.91761 0.0
H495 H 0.07619 0.78556 0.94766 0.0
H496 H 0.034 0.79358 0.86561 0.0
H497 H 0.96351 0.84366 0.92797 0.0
H498 H 0.9924 0.86275 0.92217 0.0
H499 H 0.99502 0.83214 0.93864 0.0
C500 C 0.06661 0.84912 0.93017 0.0
C501 C 0.07741 0.82781 0.94327 0.0
C502 C 0.04641 0.8453 0.91306 0.0
C503 C 0.03637 0.82016 0.9088 0.0
C504 C 0.04786 0.79862 0.92083 0.0
H505 H 0.88412 0.82334 0.83555 0.0
H506 H 0.91917 0.80741 0.86286 0.0
C507 C 0.06825 0.8024 0.93797 0.0
C508 C 0.01317 0.81694 0.89252 0.0
H509 H 0.95079 0.83933 0.8852 0.0
C510 C 0.01562 0.80319 0.86998 0.0
C511 C 0.98905 0.82894 0.89858 0.0
C512 C 0.98468 0.84247 0.92328 0.0
C513 C 0.99498 0.80255 0.85259 0.0
C514 C 0.9716 0.81645 0.85778 0.0
C515 C 0.96872 0.82881 0.88103 0.0
C516 C 0.9507 0.82058 0.83888 0.0
C517 C 0.99859 0.78723 0.82878 0.0
C518 C 0.9567 0.8325 0.81593 0.0
C519 C 0.9367 0.84127 0.80019 0.0
C520 C 0.91036 0.83872 0.80735 0.0
C521 C 0.90431 0.82556 0.82966 0.0
C522 C 0.9243 0.81647 0.84523 0.0
H523 H 0.01209 0.77044 0.83168 0.0
H524 H 0.97963 0.7797 0.82158 0.0
H525 H 0.00745 0.80013 0.8144 0.0
H526 H 0.97682 0.83661 0.81088 0.0
H527 H 0.94191 0.85172 0.78329 0.0
H528 H 0.79277 0.07666 0.94578 0.0
H529 H 0.78639 0.04081 0.91595 0.0
H530 H 0.86997 0.03534 0.90562 0.0
H531 H 0.87662 0.07069 0.93545 0.0
H532 H 0.80185 0.03367 0.86542 0.0
H533 H 0.84881 0.96148 0.92822 0.0
H534 H 0.8384 0.99338 0.93879 0.0
H535 H 0.86914 0.98956 0.92273 0.0
C536 C 0.80979 0.06795 0.93702 0.0
C537 C 0.83524 0.07633 0.9433 0.0
C538 C 0.80608 0.04749 0.91999 0.0
C539 C 0.82774 0.0351 0.90903 0.0
C540 C 0.85303 0.04425 0.91434 0.0
H541 H 0.85746 0.93981 0.78336 0.0
H542 H 0.84359 0.97521 0.81093 0.0
C543 C 0.85677 0.06454 0.93137 0.0
C544 C 0.82433 0.0121 0.89254 0.0
H545 H 0.84491 0.94912 0.88529 0.0
C546 C 0.8109 0.01502 0.86985 0.0
C547 C 0.83555 0.98761 0.89866 0.0
C548 C 0.84854 0.98268 0.92355 0.0
C549 C 0.80981 0.99448 0.85241 0.0
C550 C 0.82294 0.97069 0.85769 0.0
C551 C 0.83501 0.96738 0.88105 0.0
C552 C 0.82648 0.94968 0.83883 0.0
C553 C 0.79478 0.99859 0.82849 0.0
C554 C 0.82135 0.92346 0.84515 0.0
C555 C 0.82971 0.90317 0.82958 0.0
C556 C 0.84317 0.90875 0.80733 0.0
C557 C 0.84676 0.93498 0.80021 0.0
C558 C 0.83871 0.95526 0.81594 0.0
H559 H 0.77842 0.01265 0.83124 0.0
H560 H 0.80808 0.007 0.81419 0.0
H561 H 0.78666 0.97991 0.82124 0.0
H562 H 0.81201 0.91865 0.86273 0.0
H563 H 0.82667 0.88309 0.83544 0.0
H564 H 0.42803 0.36397 0.4348 0.0
H565 H 0.45798 0.35665 0.40044 0.0
H566 H 0.42916 0.27777 0.39219 0.0
H567 H 0.39899 0.28476 0.42737 0.0
H568 H 0.4832 0.28054 0.38991 0.0
H569 H 0.44046 0.35429 0.32688 0.0
H570 H 0.44674 0.36859 0.35682 0.0
H571 H 0.4233 0.34233 0.35409 0.0
C572 C 0.42776 0.34505 0.4257 0.0
C573 C 0.41084 0.32502 0.4338 0.0
C574 C 0.44488 0.34097 0.40588 0.0
C575 C 0.44534 0.31691 0.39332 0.0
C576 C 0.42885 0.29661 0.40146 0.0
H577 H 0.55103 0.33949 0.26775 0.0
H578 H 0.51293 0.32134 0.28903 0.0
C579 C 0.41165 0.30064 0.42154 0.0
C580 C 0.46398 0.31331 0.37238 0.0
H581 H 0.48702 0.34577 0.32137 0.0
C582 C 0.48376 0.29435 0.37452 0.0
C583 C 0.46429 0.33073 0.35185 0.0
C584 C 0.44234 0.3499 0.34713 0.0
C585 C 0.50512 0.294 0.35795 0.0
C586 C 0.50705 0.31362 0.33932 0.0
C587 C 0.48599 0.33096 0.33586 0.0
C588 C 0.53165 0.31877 0.32523 0.0
C589 C 0.52557 0.27293 0.36101 0.0
C590 C 0.55528 0.32254 0.33818 0.0
C591 C 0.57736 0.33224 0.32589 0.0
C592 C 0.57616 0.3392 0.30049 0.0
C593 C 0.55288 0.33417 0.28724 0.0
C594 C 0.53092 0.32395 0.29947 0.0
H595 H 0.51646 0.25435 0.36741 0.0
H596 H 0.53627 0.26918 0.34332 0.0
H597 H 0.53982 0.27902 0.37554 0.0
H598 H 0.55634 0.31942 0.35815 0.0
H599 H 0.59507 0.33535 0.33661 0.0
H600 H 0.13384 0.94244 0.95281 0.0
H601 H 0.14091 0.97536 0.92078 0.0
H602 H 0.20828 0.93282 0.89395 0.0
H603 H 0.20189 0.90001 0.92695 0.0
H604 H 0.21915 0.98272 0.89571 0.0
H605 H 0.12398 0.97345 0.84858 0.0
H606 H 0.11835 0.97916 0.8811 0.0
H607 H 0.13503 0.94975 0.87126 0.0
C608 C 0.15003 0.93985 0.93998 0.0
C609 C 0.16718 0.91845 0.94231 0.0
C610 C 0.15393 0.95864 0.92148 0.0
C611 C 0.17464 0.9562 0.90441 0.0
C612 C 0.19197 0.93495 0.90673 0.0
H613 H 0.16126 0.08308 0.79529 0.0
H614 H 0.16809 0.0381 0.81016 0.0
C615 C 0.18831 0.91625 0.92558 0.0
C616 C 0.17877 0.97689 0.8853 0.0
H617 H 0.14477 0.01639 0.84555 0.0
C618 C 0.20306 0.98974 0.8843 0.0
C619 C 0.15818 0.98559 0.86967 0.0
C620 C 0.13257 0.971 0.86751 0.0
C621 C 0.20657 0.01235 0.86971 0.0
C622 C 0.18491 0.02293 0.85659 0.0
C623 C 0.16132 0.00878 0.85598 0.0
C624 C 0.18525 0.04966 0.8455 0.0
C625 C 0.23339 0.02471 0.86884 0.0
C626 C 0.19311 0.07117 0.86007 0.0
C627 C 0.18986 0.0967 0.85127 0.0
C628 C 0.17806 0.10121 0.82805 0.0
C629 C 0.17067 0.07989 0.81316 0.0
C630 C 0.17449 0.05428 0.82171 0.0
H631 H 0.24892 0.00952 0.87007 0.0
H632 H 0.2364 0.03619 0.85146 0.0
H633 H 0.23581 0.03787 0.88515 0.0
H634 H 0.20049 0.06837 0.87883 0.0
H635 H 0.19517 0.11297 0.8632 0.0
H636 H 0.54823 0.63449 0.46133 0.0
H637 H 0.5157 0.64132 0.42873 0.0
H638 H 0.5617 0.7048 0.39859 0.0
H639 H 0.59398 0.69875 0.43202 0.0
H640 H 0.51227 0.71792 0.39852 0.0
H641 H 0.51906 0.61934 0.35772 0.0
H642 H 0.51196 0.61651 0.39034 0.0
H643 H 0.54245 0.63103 0.38036 0.0
C644 C 0.55155 0.64983 0.4477 0.0
C645 C 0.57379 0.66595 0.44915 0.0
C646 C 0.53301 0.65358 0.42891 0.0
C647 C 0.5366 0.67306 0.41071 0.0
C648 C 0.55863 0.68946 0.41226 0.0
H649 H 0.41552 0.6563 0.29685 0.0
H650 H 0.45982 0.66384 0.31309 0.0
C651 C 0.57704 0.686 0.43138 0.0
C652 C 0.51667 0.67673 0.3908 0.0
H653 H 0.47787 0.6421 0.351 0.0
C654 C 0.50506 0.70146 0.38773 0.0
C655 C 0.50782 0.65558 0.37598 0.0
C656 C 0.52124 0.62924 0.37607 0.0
C657 C 0.48356 0.70508 0.37172 0.0
C658 C 0.47276 0.68317 0.3592 0.0
C659 C 0.48567 0.65892 0.36085 0.0
C660 C 0.44684 0.68401 0.34647 0.0
C661 C 0.47264 0.73233 0.36862 0.0
C662 C 0.42479 0.69366 0.35924 0.0
C663 C 0.39966 0.69007 0.34955 0.0
C664 C 0.39605 0.67615 0.32728 0.0
C665 C 0.41799 0.6674 0.31391 0.0
C666 C 0.44322 0.67157 0.32329 0.0
H667 H 0.48851 0.74717 0.36981 0.0
H668 H 0.46236 0.73474 0.3505 0.0
H669 H 0.45867 0.73641 0.38401 0.0
H670 H 0.42675 0.70244 0.37752 0.0
H671 H 0.38291 0.69641 0.36041 0.0
H672 H 0.3711 0.42385 0.55813 0.0
H673 H 0.36718 0.45894 0.58863 0.0
H674 H 0.28357 0.46108 0.57718 0.0
H675 H 0.28721 0.42534 0.54686 0.0
H676 H 0.34934 0.50797 0.5792 0.0
H677 H 0.28916 0.46077 0.65314 0.0
H678 H 0.30496 0.4423 0.62868 0.0
H679 H 0.27536 0.46011 0.62229 0.0
C680 C 0.3518 0.43157 0.56219 0.0
C681 C 0.32946 0.42183 0.54997 0.0
C682 C 0.3496 0.45164 0.57967 0.0
C683 C 0.32508 0.46252 0.5853 0.0
C684 C 0.30263 0.45265 0.57346 0.0
H685 H 0.328 0.61494 0.66061 0.0
H686 H 0.31484 0.58005 0.63181 0.0
C687 C 0.30477 0.43231 0.55605 0.0
C688 C 0.32366 0.48518 0.60252 0.0
H689 H 0.30044 0.5052 0.65919 0.0
C690 C 0.3385 0.50745 0.59663 0.0
C691 C 0.30957 0.48435 0.62525 0.0
C692 C 0.29401 0.46055 0.63292 0.0
C693 C 0.34041 0.5286 0.61315 0.0
C694 C 0.32637 0.52783 0.63594 0.0
C695 C 0.31094 0.50583 0.64159 0.0
C696 C 0.32957 0.54859 0.65501 0.0
C697 C 0.35851 0.55096 0.60654 0.0
C698 C 0.34063 0.54234 0.67825 0.0
C699 C 0.34773 0.56217 0.69486 0.0
C700 C 0.34401 0.58859 0.68842 0.0
C701 C 0.33136 0.59473 0.66586 0.0
C702 C 0.32395 0.57485 0.64939 0.0
H703 H 0.3723 0.54565 0.59131 0.0
H704 H 0.34671 0.56791 0.60009 0.0
H705 H 0.37013 0.5572 0.62302 0.0
H706 H 0.34508 0.5222 0.68299 0.0
H707 H 0.3576 0.5569 0.71206 0.0
H708 H 0.0842 0.78742 0.06272 0.0
H709 H 0.04827 0.77963 0.09224 0.0
H710 H 0.02559 0.86069 0.08679 0.0
H711 H 0.06124 0.86882 0.0575 0.0
H712 H 0.03346 0.81187 0.14103 0.0
H713 H 0.96148 0.81068 0.06308 0.0
H714 H 0.99585 0.80366 0.05856 0.0
H715 H 0.98511 0.83683 0.06265 0.0
C716 C 0.07176 0.80367 0.06799 0.0
C717 C 0.07551 0.82871 0.0575 0.0
C718 C 0.05131 0.79917 0.0849 0.0
C719 C 0.03431 0.81957 0.09147 0.0
C720 C 0.03853 0.8447 0.0818 0.0
H721 H 0.9125 0.85755 0.19169 0.0
H722 H 0.95507 0.8487 0.17269 0.0
C723 C 0.05892 0.84927 0.06502 0.0
C724 C 0.011 0.81458 0.10712 0.0
H725 H 0.94435 0.81365 0.10407 0.0
C726 C 0.01395 0.81186 0.13303 0.0
C727 C 0.9857 0.81425 0.09649 0.0
C728 C 0.98167 0.81631 0.06864 0.0
C729 C 0.99196 0.81005 0.14877 0.0
C730 C 0.96656 0.8113 0.13823 0.0
C731 C 0.9638 0.81272 0.11218 0.0
C732 C 0.94251 0.81351 0.15362 0.0
C733 C 0.99613 0.80715 0.1765 0.0
C734 C 0.92133 0.79651 0.14952 0.0
C735 C 0.89684 0.80175 0.16009 0.0
C736 C 0.89307 0.8242 0.17484 0.0
C737 C 0.91476 0.84022 0.18024 0.0
C738 C 0.9392 0.835 0.16962 0.0
H739 H 0.01528 0.79776 0.18063 0.0
H740 H 0.99619 0.82684 0.18524 0.0
H741 H 0.98029 0.79537 0.18522 0.0
H742 H 0.9234 0.77991 0.13709 0.0
H743 H 0.88051 0.78917 0.15533 0.0
H744 H 0.62637 0.56498 0.56774 0.0
H745 H 0.63505 0.52888 0.59634 0.0
H746 H 0.71803 0.54305 0.5905 0.0
H747 H 0.70968 0.5794 0.5616 0.0
H748 H 0.67269 0.48499 0.57865 0.0
H749 H 0.69652 0.53286 0.66934 0.0
H750 H 0.675 0.54827 0.64692 0.0
H751 H 0.70937 0.54608 0.64056 0.0
C752 C 0.6465 0.56078 0.57271 0.0
C753 C 0.66734 0.57503 0.56212 0.0
C754 C 0.65138 0.54014 0.58913 0.0
C755 C 0.67713 0.53343 0.59552 0.0
C756 C 0.698 0.54815 0.5859 0.0
H757 H 0.70757 0.37605 0.65333 0.0
H758 H 0.71696 0.41934 0.63574 0.0
C759 C 0.69316 0.56885 0.56934 0.0
C760 C 0.68187 0.50936 0.61016 0.0
H761 H 0.69387 0.48669 0.66906 0.0
C762 C 0.67773 0.48527 0.59833 0.0
C763 C 0.68826 0.51001 0.63579 0.0
C764 C 0.69254 0.53562 0.64912 0.0
C765 C 0.67901 0.46168 0.61165 0.0
C766 C 0.68494 0.46224 0.63747 0.0
C767 C 0.68967 0.48636 0.64922 0.0
C768 C 0.68341 0.4381 0.65272 0.0
C769 C 0.67272 0.43644 0.59825 0.0
C770 C 0.66239 0.43478 0.66927 0.0
C771 C 0.65709 0.41017 0.67945 0.0
C772 C 0.67276 0.38847 0.67326 0.0
C773 C 0.69521 0.3924 0.65851 0.0
C774 C 0.7005 0.41707 0.64831 0.0
H775 H 0.66427 0.43993 0.57942 0.0
H776 H 0.69092 0.42482 0.59598 0.0
H777 H 0.65863 0.42455 0.60927 0.0
H778 H 0.64903 0.4508 0.67296 0.0
H779 H 0.63984 0.40776 0.69101 0.0
H780 H 0.92485 0.20932 0.05626 0.0
H781 H 0.95985 0.21515 0.0872 0.0
H782 H 0.96312 0.13162 0.09832 0.0
H783 H 0.92859 0.1255 0.06754 0.0
H784 H 0.96493 0.19863 0.13877 0.0
H785 H 0.03819 0.15218 0.07679 0.0
H786 H 0.00687 0.16369 0.0656 0.0
H787 H 0.00944 0.13242 0.08093 0.0
C788 C 0.93287 0.19221 0.06546 0.0
C789 C 0.92415 0.1669 0.05914 0.0
C790 C 0.95284 0.19561 0.08311 0.0
C791 C 0.96437 0.17377 0.09461 0.0
C792 C 0.95483 0.14867 0.08923 0.0
H793 H 0.05353 0.13659 0.22153 0.0
H794 H 0.01989 0.15337 0.19341 0.0
C795 C 0.93503 0.14524 0.07164 0.0
C796 C 0.98699 0.17668 0.11165 0.0
H797 H 0.04927 0.15451 0.12018 0.0
C798 C 0.98357 0.18941 0.13462 0.0
C799 C 0.01145 0.16521 0.10592 0.0
C800 C 0.01686 0.15285 0.08085 0.0
C801 C 0.00352 0.18942 0.15273 0.0
C802 C 0.0272 0.17591 0.14779 0.0
C803 C 0.0311 0.16471 0.12415 0.0
C804 C 0.04724 0.17081 0.1673 0.0
C805 C 0.99888 0.2036 0.177 0.0
C806 C 0.0739 0.17516 0.16221 0.0
C807 C 0.09318 0.16512 0.17807 0.0
C808 C 0.08613 0.15074 0.19941 0.0
C809 C 0.05949 0.14796 0.20541 0.0
C810 C 0.04022 0.15768 0.18937 0.0
H811 H 0.98549 0.22051 0.17429 0.0
H812 H 0.9894 0.19004 0.19045 0.0
H813 H 0.01749 0.21076 0.18528 0.0
H814 H 0.07981 0.18514 0.14527 0.0
H815 H 0.1136 0.16756 0.17309 0.0
H816 H 0.22887 0.82953 0.06639 0.0
H817 H 0.24683 0.8121 0.10524 0.0
H818 H 0.1908 0.74897 0.10339 0.0
H819 H 0.1724 0.76635 0.06469 0.0
H820 H 0.19208 0.77505 0.14853 0.0
H821 H 0.29248 0.74771 0.1186 0.0
H822 H 0.28348 0.78076 0.11099 0.0
H823 H 0.26633 0.75395 0.09667 0.0
C824 C 0.22052 0.81174 0.07403 0.0
C825 C 0.19912 0.79938 0.06236 0.0
C826 C 0.23095 0.80173 0.09619 0.0
C827 C 0.22036 0.77908 0.10702 0.0
C828 C 0.19933 0.76642 0.09525 0.0
H829 H 0.27804 0.69189 0.23523 0.0
H830 H 0.26536 0.70615 0.19329 0.0
C831 C 0.18886 0.77641 0.07311 0.0
C832 C 0.22992 0.76964 0.13152 0.0
H833 H 0.2843 0.748 0.16244 0.0
C834 C 0.21221 0.769 0.15155 0.0
C835 C 0.25613 0.76157 0.13533 0.0
C836 C 0.27568 0.76076 0.11422 0.0
C837 C 0.2201 0.76095 0.17542 0.0
C838 C 0.24651 0.75374 0.17943 0.0
C839 C 0.26413 0.75385 0.15932 0.0
C840 C 0.256 0.74577 0.2044 0.0
C841 C 0.20003 0.75996 0.1961 0.0
C842 C 0.25557 0.76354 0.22433 0.0
C843 C 0.2629 0.75552 0.24827 0.0
C844 C 0.2709 0.72957 0.25267 0.0
C845 C 0.27219 0.71206 0.23244 0.0
C846 C 0.26485 0.72013 0.20849 0.0
H847 H 0.1797 0.75997 0.18869 0.0
H848 H 0.20278 0.74226 0.20786 0.0
H849 H 0.20237 0.77744 0.20819 0.0
H850 H 0.24927 0.78357 0.22142 0.0
H851 H 0.26216 0.7696 0.26336 0.0
H852 H 0.73702 0.67211 0.55721 0.0
H853 H 0.76422 0.69758 0.58581 0.0
H854 H 0.70397 0.75652 0.59046 0.0
H855 H 0.67646 0.73118 0.56209 0.0
H856 H 0.78203 0.74842 0.57663 0.0
H857 H 0.72364 0.74392 0.66394 0.0
H858 H 0.71857 0.7216 0.63824 0.0
H859 H 0.70536 0.7542 0.637 0.0
C860 C 0.72935 0.69032 0.56453 0.0
C861 C 0.70452 0.69959 0.55725 0.0
C862 C 0.74496 0.70485 0.58087 0.0
C863 C 0.73599 0.72877 0.59043 0.0
C864 C 0.71106 0.73786 0.58365 0.0
H865 H 0.82479 0.86002 0.64565 0.0
H866 H 0.79678 0.82971 0.62256 0.0
C867 C 0.69543 0.72339 0.56728 0.0
C868 C 0.75343 0.74514 0.60604 0.0
H869 H 0.75841 0.77514 0.6628 0.0
C870 C 0.77697 0.75412 0.59554 0.0
C871 C 0.74685 0.75234 0.63074 0.0
C872 C 0.72235 0.74234 0.64329 0.0
C873 C 0.79381 0.77067 0.60887 0.0
C874 C 0.78676 0.77866 0.63322 0.0
C875 C 0.76359 0.76914 0.64401 0.0
C876 C 0.80317 0.79711 0.64764 0.0
C877 C 0.81908 0.77943 0.59685 0.0
C878 C 0.81556 0.78893 0.66966 0.0
C879 C 0.83173 0.80616 0.68285 0.0
C880 C 0.83562 0.83194 0.6743 0.0
C881 C 0.82266 0.84017 0.65248 0.0
C882 C 0.80658 0.82292 0.63929 0.0
H883 H 0.8245 0.7668 0.58078 0.0
H884 H 0.81675 0.79976 0.58989 0.0
H885 H 0.83539 0.77926 0.61057 0.0
H886 H 0.81311 0.76907 0.67639 0.0
H887 H 0.84161 0.7991 0.69943 0.0
H888 H 0.76556 0.17749 0.05483 0.0
H889 H 0.73966 0.20364 0.08395 0.0
H890 H 0.80256 0.25963 0.0895 0.0
H891 H 0.82881 0.2336 0.06052 0.0
H892 H 0.77724 0.24619 0.13644 0.0
H893 H 0.70741 0.27469 0.06151 0.0
H894 H 0.71255 0.24008 0.06514 0.0
H895 H 0.73908 0.26057 0.05493 0.0
C896 C 0.77404 0.19525 0.06235 0.0
C897 C 0.79921 0.20357 0.05506 0.0
C898 C 0.75916 0.21018 0.07896 0.0
C899 C 0.76909 0.2337 0.08855 0.0
C900 C 0.79455 0.24155 0.08219 0.0
H901 H 0.68108 0.36333 0.14856 0.0
H902 H 0.71173 0.33499 0.12626 0.0
C903 C 0.80947 0.22666 0.06556 0.0
C904 C 0.75246 0.25079 0.10422 0.0
H905 H 0.69728 0.28842 0.10246 0.0
C906 C 0.75974 0.25544 0.12909 0.0
C907 C 0.72986 0.26304 0.09439 0.0
C908 C 0.72178 0.25959 0.06748 0.0
C909 C 0.74474 0.27187 0.14454 0.0
C910 C 0.72187 0.28371 0.13481 0.0
C911 C 0.71477 0.27919 0.10988 0.0
C912 C 0.70509 0.30126 0.14989 0.0
C913 C 0.75371 0.27684 0.17094 0.0
C914 C 0.69137 0.29172 0.1707 0.0
C915 C 0.67371 0.30785 0.18343 0.0
C916 C 0.66936 0.33373 0.17542 0.0
C917 C 0.6837 0.34337 0.15496 0.0
C918 C 0.70131 0.32727 0.14229 0.0
H919 H 0.77454 0.27123 0.17371 0.0
H920 H 0.7513 0.29781 0.17592 0.0
H921 H 0.74157 0.26508 0.18397 0.0
H922 H 0.69366 0.27155 0.17658 0.0
H923 H 0.66274 0.29976 0.19893 0.0
H924 H 0.32187 0.26716 0.56135 0.0
H925 H 0.30501 0.25075 0.60109 0.0
H926 H 0.25037 0.31501 0.60443 0.0
H927 H 0.26712 0.33175 0.56482 0.0
H928 H 0.28037 0.3081 0.64803 0.0
H929 H 0.23442 0.215 0.61732 0.0
H930 H 0.26763 0.21946 0.60702 0.0
H931 H 0.24247 0.24112 0.59588 0.0
C932 C 0.30608 0.2777 0.57036 0.0
C933 C 0.29589 0.30082 0.55982 0.0
C934 C 0.29637 0.26818 0.59302 0.0
C935 C 0.27626 0.28152 0.60552 0.0
C936 C 0.26581 0.30437 0.59497 0.0
H937 H 0.19378 0.23038 0.73975 0.0
H938 H 0.20465 0.24532 0.69752 0.0
C939 C 0.27543 0.31388 0.5723 0.0
C940 C 0.26726 0.27257 0.63037 0.0
H941 H 0.23945 0.22104 0.66118 0.0
C942 C 0.27127 0.28913 0.6509 0.0
C943 C 0.25518 0.24795 0.63396 0.0
C944 C 0.24941 0.2299 0.61237 0.0
C945 C 0.26413 0.28143 0.6751 0.0
C946 C 0.25294 0.25641 0.67882 0.0
C947 C 0.24826 0.24012 0.65823 0.0
C948 C 0.24642 0.24671 0.70409 0.0
C949 C 0.26853 0.30012 0.69649 0.0
C950 C 0.26638 0.24217 0.72153 0.0
C951 C 0.2603 0.23346 0.74555 0.0
C952 C 0.2341 0.22911 0.75259 0.0
C953 C 0.21416 0.23331 0.73488 0.0
C954 C 0.2203 0.24195 0.7108 0.0
H955 H 0.27142 0.32054 0.68987 0.0
H956 H 0.25173 0.29971 0.70966 0.0
H957 H 0.28635 0.29411 0.7069 0.0
H958 H 0.2867 0.2453 0.71652 0.0
H959 H 0.27616 0.2299 0.75854 0.0
H960 H 0.72762 0.66497 0.43752 0.0
H961 H 0.74576 0.68299 0.39896 0.0
H962 H 0.68801 0.74457 0.40009 0.0
H963 H 0.66949 0.72663 0.43852 0.0
H964 H 0.69119 0.71821 0.35465 0.0
H965 H 0.78961 0.74942 0.3871 0.0
H966 H 0.78137 0.71616 0.39471 0.0
H967 H 0.76299 0.74253 0.40834 0.0
C968 C 0.7189 0.68251 0.42976 0.0
C969 C 0.69705 0.69432 0.44118 0.0
C970 C 0.72943 0.69287 0.40778 0.0
C971 C 0.71843 0.71529 0.39687 0.0
C972 C 0.69686 0.72732 0.40832 0.0
H973 H 0.77503 0.80462 0.26925 0.0
H974 H 0.76215 0.79021 0.31113 0.0
C975 C 0.68632 0.71702 0.43031 0.0
C976 C 0.72827 0.72517 0.37261 0.0
H977 H 0.78255 0.74913 0.34311 0.0
C978 C 0.71112 0.72509 0.35214 0.0
C979 C 0.75421 0.73434 0.36949 0.0
C980 C 0.77309 0.73589 0.3911 0.0
C981 C 0.71936 0.73346 0.32848 0.0
C982 C 0.74555 0.74179 0.32515 0.0
C983 C 0.76257 0.74244 0.34571 0.0
C984 C 0.75544 0.74996 0.30038 0.0
C985 C 0.69991 0.73353 0.30725 0.0
C986 C 0.75662 0.7319 0.28071 0.0
C987 C 0.76408 0.74001 0.25684 0.0
C988 C 0.77056 0.76634 0.25221 0.0
C989 C 0.77035 0.78417 0.27223 0.0
C990 C 0.76289 0.77601 0.29613 0.0
H991 H 0.67939 0.73253 0.31408 0.0
H992 H 0.70218 0.75138 0.29559 0.0
H993 H 0.70348 0.71622 0.2952 0.0
H994 H 0.7514 0.71159 0.28376 0.0
H995 H 0.76454 0.72569 0.24194 0.0
H996 H 0.81983 0.23906 0.94772 0.0
H997 H 0.80114 0.25993 0.91063 0.0
H998 H 0.77015 0.18543 0.8868 0.0
H999 H 0.78769 0.16476 0.92429 0.0
H1000 H 0.81125 0.25333 0.86375 0.0
H1001 H 0.7069 0.22941 0.87751 0.0
H1002 H 0.73093 0.22459 0.90177 0.0
H1003 H 0.72615 0.2001 0.87795 0.0
C1004 C 0.80875 0.22721 0.9347 0.0
C1005 C 0.80504 0.20031 0.93902 0.0
C1006 C 0.79809 0.23916 0.91351 0.0
C1007 C 0.78374 0.22439 0.89613 0.0
C1008 C 0.78032 0.19746 0.90031 0.0
H1009 H 0.76553 0.25126 0.73975 0.0
H1010 H 0.78118 0.24311 0.78193 0.0
C1011 C 0.79054 0.1856 0.9217 0.0
C1012 C 0.77362 0.23673 0.87293 0.0
H1013 H 0.71982 0.2399 0.8353 0.0
C1014 C 0.79114 0.25074 0.85772 0.0
C1015 C 0.74723 0.23399 0.86525 0.0
C1016 C 0.7267 0.22147 0.88166 0.0
C1017 C 0.78332 0.26094 0.83455 0.0
C1018 C 0.75756 0.25614 0.8259 0.0
C1019 C 0.73971 0.24326 0.84166 0.0
C1020 C 0.74898 0.26299 0.8002 0.0
C1021 C 0.8028 0.27681 0.81971 0.0
C1022 C 0.72531 0.27638 0.79625 0.0
C1023 C 0.71576 0.28024 0.77207 0.0
C1024 C 0.72979 0.27094 0.75124 0.0
C1025 C 0.75396 0.25836 0.75527 0.0
C1026 C 0.76323 0.25411 0.77946 0.0
H1027 H 0.8169 0.28693 0.83222 0.0
H1028 H 0.81426 0.26353 0.80749 0.0
H1029 H 0.79295 0.29171 0.80788 0.0
H1030 H 0.71385 0.28328 0.81195 0.0
H1031 H 0.69689 0.28961 0.76983 0.0
H1032 H 0.31325 0.26109 0.43857 0.0
H1033 H 0.28489 0.23447 0.41205 0.0
H1034 H 0.22331 0.29177 0.41901 0.0
H1035 H 0.25139 0.31855 0.44568 0.0
H1036 H 0.20816 0.23952 0.43015 0.0
H1037 H 0.2602 0.24673 0.33933 0.0
H1038 H 0.28055 0.2378 0.36536 0.0
H1039 H 0.26555 0.26961 0.36453 0.0
C1040 C 0.29379 0.26823 0.43428 0.0
C1041 C 0.28461 0.29197 0.44435 0.0
C1042 C 0.27767 0.25303 0.41899 0.0
C1043 C 0.25213 0.2613 0.41343 0.0
C1044 C 0.24303 0.28514 0.42304 0.0
H1045 H 0.14325 0.18744 0.31005 0.0
H1046 H 0.1705 0.21882 0.33279 0.0
C1047 C 0.25915 0.30042 0.43825 0.0
C1048 C 0.23435 0.24425 0.39895 0.0
H1049 H 0.22654 0.21461 0.34235 0.0
C1050 C 0.21206 0.23419 0.41091 0.0
C1051 C 0.23945 0.23755 0.37382 0.0
C1052 C 0.26261 0.24863 0.35986 0.0
C1053 C 0.195 0.21703 0.39854 0.0
C1054 C 0.20057 0.20965 0.37368 0.0
C1055 C 0.22249 0.22021 0.3615 0.0
C1056 C 0.18399 0.1907 0.36012 0.0
C1057 C 0.17112 0.20697 0.41209 0.0
C1058 C 0.1828 0.16452 0.36791 0.0
C1059 C 0.16747 0.14649 0.35486 0.0
C1060 C 0.15307 0.15434 0.33374 0.0
C1061 C 0.15433 0.18067 0.32604 0.0
C1062 C 0.16977 0.19865 0.33906 0.0
H1063 H 0.1665 0.21894 0.42884 0.0
H1064 H 0.1538 0.20684 0.39956 0.0
H1065 H 0.17476 0.18655 0.41831 0.0
H1066 H 0.194 0.15796 0.38392 0.0
H1067 H 0.16734 0.12629 0.36102 0.0
H1068 H 0.23556 0.81917 0.94436 0.0
H1069 H 0.2611 0.79264 0.91532 0.0
H1070 H 0.19922 0.73523 0.91321 0.0
H1071 H 0.17358 0.76139 0.94251 0.0
H1072 H 0.24785 0.7139 0.92285 0.0
H1073 H 0.25215 0.77966 0.84047 0.0
H1074 H 0.26227 0.79495 0.86907 0.0
H1075 H 0.22893 0.78421 0.86555 0.0
C1076 C 0.22718 0.80105 0.93753 0.0
C1077 C 0.20249 0.79241 0.94588 0.0
C1078 C 0.24178 0.786 0.92079 0.0
C1079 C 0.23191 0.76214 0.9119 0.0
C1080 C 0.20712 0.75366 0.91979 0.0
H1081 H 0.30057 0.66261 0.79749 0.0
H1082 H 0.27222 0.69195 0.82146 0.0
C1083 C 0.1925 0.76867 0.93654 0.0
C1084 C 0.24822 0.74513 0.89581 0.0
H1085 H 0.28125 0.74309 0.84039 0.0
C1086 C 0.25503 0.72021 0.90475 0.0
C1087 C 0.25734 0.75334 0.87212 0.0
C1088 C 0.24962 0.7794 0.86108 0.0
C1089 C 0.27117 0.70345 0.89088 0.0
C1090 C 0.28111 0.71205 0.86763 0.0
C1091 C 0.27383 0.73672 0.85838 0.0
C1092 C 0.29894 0.69553 0.85261 0.0
C1093 C 0.27725 0.67659 0.90111 0.0
C1094 C 0.32358 0.68836 0.86197 0.0
C1095 C 0.33986 0.67171 0.84831 0.0
C1096 C 0.33184 0.66204 0.82495 0.0
C1097 C 0.30743 0.66991 0.81531 0.0
C1098 C 0.29116 0.68656 0.82901 0.0
H1099 H 0.26306 0.67063 0.91578 0.0
H1100 H 0.27704 0.66168 0.88603 0.0
H1101 H 0.29709 0.67674 0.90957 0.0
H1102 H 0.33014 0.69552 0.87995 0.0
H1103 H 0.35873 0.66638 0.85604 0.0
loop_
_geom_bond_atom_site_label_1
_geom_bond_atom_site_label_2
_geom_bond_distance
_geom_bond_site_symmetry_2
_ccdc_geom_bond_type
Sc0 O3 2.025 . S
Sc0 O10 2.104 1_554 S
Sc0 O13 2.106 . S
Sc0 O16 2.106 . S
Sc0 O19 2.104 1_554 S
Sc1 O3 2.025 . S
Sc1 O11 2.104 1_554 S
Sc1 O15 2.106 . S
Sc1 O17 2.106 . S
Sc1 O21 2.104 1_554 S
Sc2 O3 2.025 . S
Sc2 O12 2.104 1_554 S
Sc2 O14 2.106 . S
Sc2 O18 2.106 . S
Sc2 O20 2.104 1_554 S
O3 Sc0 2.025 . S
O3 Sc1 2.025 . S
O3 Sc2 2.025 . S
C4 O10 1.268 . S
C4 O20 1.268 . S
C5 O11 1.268 . S
C5 O19 1.268 . S
C6 O12 1.268 . S
C6 O21 1.268 . S
C7 O13 1.268 . S
C7 O17 1.268 . S
C8 O14 1.268 . S
C8 O16 1.268 . S
C9 O15 1.268 . S
C9 O18 1.268 . S
O10 Sc0 2.104 1_556 S
O10 C4 1.268 . S
O11 Sc1 2.104 1_556 S
O11 C5 1.268 . S
O12 Sc2 2.104 1_556 S
O12 C6 1.268 . S
O13 Sc0 2.106 . S
O13 C7 1.268 . S
O14 Sc2 2.106 . S
O14 C8 1.268 . S
O15 Sc1 2.106 . S
O15 C9 1.268 . S
O16 Sc0 2.106 . S
O16 C8 1.268 . S
O17 Sc1 2.106 . S
O17 C7 1.268 . S
O18 Sc2 2.106 . S
O18 C9 1.268 . S
O19 Sc0 2.104 1_556 S
O19 C5 1.268 . S
O20 Sc2 2.104 1_556 S
O20 C4 1.268 . S
O21 Sc1 2.104 1_556 S
O21 C6 1.268 . S
Sc22 O25 2.025 . S
Sc22 O32 2.105 . S
Sc22 O35 2.105 . S
Sc22 O38 2.105 . S
Sc22 O41 2.105 . S
Sc23 O25 2.025 . S
Sc23 O33 2.105 . S
Sc23 O37 2.105 . S
Sc23 O39 2.105 . S
Sc23 O43 2.105 . S
Sc24 O25 2.025 . S
Sc24 O34 2.105 . S
Sc24 O36 2.105 . S
Sc24 O40 2.105 . S
Sc24 O42 2.105 . S
O25 Sc22 2.025 . S
O25 Sc23 2.025 . S
O25 Sc24 2.025 . S
C26 O32 1.268 . S
C26 O42 1.268 . S
C27 O33 1.268 . S
C27 O41 1.268 . S
C28 O34 1.268 . S
C28 O43 1.268 . S
C29 O35 1.268 . S
C29 O39 1.268 . S
C30 O36 1.268 . S
C30 O38 1.268 . S
C31 O37 1.268 . S
C31 O40 1.268 . S
O32 Sc22 2.105 . S
O32 C26 1.268 . S
O33 Sc23 2.105 . S
O33 C27 1.268 . S
O34 Sc24 2.105 . S
O34 C28 1.268 . S
O35 Sc22 2.105 . S
O35 C29 1.268 . S
O36 Sc24 2.105 . S
O36 C30 1.268 . S
O37 Sc23 2.105 . S
O37 C31 1.268 . S
O38 Sc22 2.105 . S
O38 C30 1.268 . S
O39 Sc23 2.105 . S
O39 C29 1.268 . S
O40 Sc24 2.105 . S
O40 C31 1.268 . S
O41 Sc22 2.105 . S
O41 C27 1.268 . S
O42 Sc24 2.105 . S
O42 C26 1.268 . S
O43 Sc23 2.105 . S
O43 C28 1.268 . S
Sc44 O47 2.025 . S
Sc44 O54 2.104 1_554 S
Sc44 O57 2.106 . S
Sc44 O60 2.106 . S
Sc44 O63 2.104 1_554 S
Sc45 O47 2.025 . S
Sc45 O55 2.104 1_554 S
Sc45 O59 2.106 . S
Sc45 O61 2.106 . S
Sc45 O65 2.104 1_554 S
Sc46 O47 2.025 . S
Sc46 O56 2.104 1_554 S
Sc46 O58 2.106 . S
Sc46 O62 2.106 . S
Sc46 O64 2.104 1_554 S
O47 Sc44 2.025 . S
O47 Sc45 2.025 . S
O47 Sc46 2.025 . S
C48 O54 1.268 . S
C48 O64 1.268 . S
C49 O55 1.268 . S
C49 O63 1.268 . S
C50 O56 1.268 . S
C50 O65 1.268 . S
C51 O57 1.268 . S
C51 O61 1.268 . S
C52 O58 1.268 . S
C52 O60 1.268 . S
C53 O59 1.268 . S
C53 O62 1.268 . S
O54 Sc44 2.104 1_556 S
O54 C48 1.268 . S
O55 Sc45 2.104 1_556 S
O55 C49 1.268 . S
O56 Sc46 2.104 1_556 S
O56 C50 1.268 . S
O57 Sc44 2.106 . S
O57 C51 1.268 . S
O58 Sc46 2.106 . S
O58 C52 1.268 . S
O59 Sc45 2.106 . S
O59 C53 1.268 . S
O60 Sc44 2.106 . S
O60 C52 1.268 . S
O61 Sc45 2.106 . S
O61 C51 1.268 . S
O62 Sc46 2.106 . S
O62 C53 1.268 . S
O63 Sc44 2.104 1_556 S
O63 C49 1.268 . S
O64 Sc46 2.104 1_556 S
O64 C48 1.268 . S
O65 Sc45 2.104 1_556 S
O65 C50 1.268 . S
Sc66 O69 2.025 . S
Sc66 O76 2.105 . S
Sc66 O79 2.105 . S
Sc66 O82 2.105 . S
Sc66 O85 2.105 . S
Sc67 O69 2.025 . S
Sc67 O77 2.105 . S
Sc67 O81 2.105 . S
Sc67 O83 2.105 . S
Sc67 O87 2.105 . S
Sc68 O69 2.025 . S
Sc68 O78 2.105 . S
Sc68 O80 2.105 . S
Sc68 O84 2.105 . S
Sc68 O86 2.105 . S
O69 Sc66 2.025 . S
O69 Sc67 2.025 . S
O69 Sc68 2.025 . S
C70 O76 1.268 . S
C70 O86 1.268 . S
C71 O77 1.268 . S
C71 O85 1.268 . S
C72 O78 1.268 . S
C72 O87 1.268 . S
C73 O79 1.268 . S
C73 O83 1.268 . S
C74 O80 1.268 . S
C74 O82 1.268 . S
C75 O81 1.268 . S
C75 O84 1.268 . S
O76 Sc66 2.105 . S
O76 C70 1.268 . S
O77 Sc67 2.105 . S
O77 C71 1.268 . S
O78 Sc68 2.105 . S
O78 C72 1.268 . S
O79 Sc66 2.105 . S
O79 C73 1.268 . S
O80 Sc68 2.105 . S
O80 C74 1.268 . S
O81 Sc67 2.105 . S
O81 C75 1.268 . S
O82 Sc66 2.105 . S
O82 C74 1.268 . S
O83 Sc67 2.105 . S
O83 C73 1.268 . S
O84 Sc68 2.105 . S
O84 C75 1.268 . S
O85 Sc66 2.105 . S
O85 C71 1.268 . S
O86 Sc68 2.105 . S
O86 C70 1.268 . S
O87 Sc67 2.105 . S
O87 C72 1.268 . S
H88 C89 0.949 . S
C89 H88 0.949 . S
C89 C90 1.395 . S
C89 C91 1.391 . S
C90 C89 1.395 . S
C90 C93 1.390 . S
C91 C89 1.391 . S
C91 C95 1.387 . S
C91 C96 1.491 . S
H92 C93 0.950 . S
C93 C90 1.390 . S
C93 H92 0.950 . S
C93 C94 1.378 . S
C94 C93 1.378 . S
C94 C95 1.409 . S
C95 C91 1.387 . S
C95 C94 1.409 . S
C95 H97 0.951 . S
C96 C91 1.491 . S
C96 C98 1.382 . S
C96 C100 1.404 . S
H97 C95 0.951 . S
C98 C96 1.382 . S
C98 C99 1.390 . S
C98 H103 0.949 . S
C99 C98 1.390 . S
C99 C104 1.399 . S
C100 C96 1.404 . S
C100 H101 0.950 . S
C100 C102 1.375 . S
H101 C100 0.950 . S
C102 C100 1.375 . S
C102 C104 1.382 . S
C102 H106 0.950 . S
H103 C98 0.949 . S
C104 C99 1.399 . S
C104 C102 1.382 . S
C104 H105 0.952 . S
H105 C104 0.952 . S
H106 C102 0.950 . S
H107 C108 0.949 . S
C108 H107 0.949 . S
C108 C109 1.395 . S
C108 C110 1.391 . S
C109 C108 1.395 . S
C109 C112 1.390 . S
C110 C108 1.391 . S
C110 C114 1.387 . S
C110 C115 1.491 . S
H111 C112 0.950 . S
C112 C109 1.390 . S
C112 H111 0.950 . S
C112 C113 1.378 . S
C113 C112 1.378 . S
C113 C114 1.409 . S
C114 C110 1.387 . S
C114 C113 1.409 . S
C114 H116 0.951 . S
C115 C110 1.491 . S
C115 C117 1.382 . S
C115 C119 1.404 . S
H116 C114 0.951 . S
C117 C115 1.382 . S
C117 C118 1.390 . S
C117 H122 0.949 . S
C118 C117 1.390 . S
C118 C123 1.399 . S
C119 C115 1.404 . S
C119 H120 0.950 . S
C119 C121 1.375 . S
H120 C119 0.950 . S
C121 C119 1.375 . S
C121 C123 1.382 . S
C121 H125 0.950 . S
H122 C117 0.949 . S
C123 C118 1.399 . S
C123 C121 1.382 . S
C123 H124 0.952 . S
H124 C123 0.952 . S
H125 C121 0.950 . S
H126 C127 0.949 . S
C127 H126 0.949 . S
C127 C128 1.395 . S
C127 C129 1.391 . S
C128 C127 1.395 . S
C128 C131 1.390 . S
C129 C127 1.391 . S
C129 C133 1.387 . S
C129 C134 1.491 . S
H130 C131 0.950 . S
C131 C128 1.390 . S
C131 H130 0.950 . S
C131 C132 1.378 . S
C132 C131 1.378 . S
C132 C133 1.409 . S
C133 C129 1.387 . S
C133 C132 1.409 . S
C133 H135 0.951 . S
C134 C129 1.491 . S
C134 C136 1.382 . S
C134 C138 1.404 . S
H135 C133 0.951 . S
C136 C134 1.382 . S
C136 C137 1.390 . S
C136 H141 0.949 . S
C137 C136 1.390 . S
C137 C142 1.399 . S
C138 C134 1.404 . S
C138 H139 0.950 . S
C138 C140 1.375 . S
H139 C138 0.950 . S
C140 C138 1.375 . S
C140 C142 1.382 . S
C140 H144 0.950 . S
H141 C136 0.949 . S
C142 C137 1.399 . S
C142 C140 1.382 . S
C142 H143 0.952 . S
H143 C142 0.952 . S
H144 C140 0.950 . S
H145 C146 0.949 . S
C146 H145 0.949 . S
C146 C147 1.395 . S
C146 C148 1.391 . S
C147 C146 1.395 . S
C147 C150 1.390 . S
C148 C146 1.391 . S
C148 C152 1.387 . S
C148 C153 1.491 . S
H149 C150 0.950 . S
C150 C147 1.390 . S
C150 H149 0.950 . S
C150 C151 1.378 . S
C151 C150 1.378 . S
C151 C152 1.409 . S
C152 C148 1.387 . S
C152 C151 1.409 . S
C152 H154 0.951 . S
C153 C148 1.491 . S
C153 C155 1.382 . S
C153 C157 1.404 . S
H154 C152 0.951 . S
C155 C153 1.382 . S
C155 C156 1.390 . S
C155 H160 0.949 . S
C156 C155 1.390 . S
C156 C161 1.399 . S
C157 C153 1.404 . S
C157 H158 0.950 . S
C157 C159 1.375 . S
H158 C157 0.950 . S
C159 C157 1.375 . S
C159 C161 1.382 . S
C159 H163 0.950 . S
H160 C155 0.949 . S
C161 C156 1.399 . S
C161 C159 1.382 . S
C161 H162 0.952 . S
H162 C161 0.952 . S
H163 C159 0.950 . S
H164 C165 0.949 . S
C165 H164 0.949 . S
C165 C166 1.395 . S
C165 C167 1.391 . S
C166 C165 1.395 . S
C166 C169 1.390 . S
C167 C165 1.391 . S
C167 C171 1.387 . S
C167 C172 1.491 . S
H168 C169 0.950 . S
C169 C166 1.390 . S
C169 H168 0.950 . S
C169 C170 1.378 . S
C170 C169 1.378 . S
C170 C171 1.409 . S
C171 C167 1.387 . S
C171 C170 1.409 . S
C171 H173 0.951 . S
C172 C167 1.491 . S
C172 C174 1.382 . S
C172 C176 1.404 . S
H173 C171 0.951 . S
C174 C172 1.382 . S
C174 C175 1.390 . S
C174 H179 0.949 . S
C175 C174 1.390 . S
C175 C180 1.399 . S
C176 C172 1.404 . S
C176 H177 0.950 . S
C176 C178 1.375 . S
H177 C176 0.950 . S
C178 C176 1.375 . S
C178 C180 1.382 . S
C178 H182 0.950 . S
H179 C174 0.949 . S
C180 C175 1.399 . S
C180 C178 1.382 . S
C180 H181 0.952 . S
H181 C180 0.952 . S
H182 C178 0.950 . S
H183 C184 0.949 . S
C184 H183 0.949 . S
C184 C185 1.395 . S
C184 C186 1.391 . S
C185 C184 1.395 . S
C185 C188 1.390 . S
C186 C184 1.391 . S
C186 C190 1.387 . S
C186 C191 1.491 . S
H187 C188 0.950 . S
C188 C185 1.390 . S
C188 H187 0.950 . S
C188 C189 1.378 . S
C189 C188 1.378 . S
C189 C190 1.409 . S
C190 C186 1.387 . S
C190 C189 1.409 . S
C190 H192 0.951 . S
C191 C186 1.491 . S
C191 C193 1.382 . S
C191 C195 1.404 . S
H192 C190 0.951 . S
C193 C191 1.382 . S
C193 C194 1.390 . S
C193 H198 0.949 . S
C194 C193 1.390 . S
C194 C199 1.399 . S
C195 C191 1.404 . S
C195 H196 0.950 . S
C195 C197 1.375 . S
H196 C195 0.950 . S
C197 C195 1.375 . S
C197 C199 1.382 . S
C197 H201 0.950 . S
H198 C193 0.949 . S
C199 C194 1.399 . S
C199 C197 1.382 . S
C199 H200 0.952 . S
H200 C199 0.952 . S
H201 C197 0.950 . S
H202 C203 0.949 . S
C203 H202 0.949 . S
C203 C204 1.395 . S
C203 C205 1.391 . S
C204 C203 1.395 . S
C204 C207 1.390 . S
C205 C203 1.391 . S
C205 C209 1.387 . S
C205 C210 1.491 . S
H206 C207 0.950 . S
C207 C204 1.390 . S
C207 H206 0.950 . S
C207 C208 1.378 . S
C208 C207 1.378 . S
C208 C209 1.409 . S
C209 C205 1.387 . S
C209 C208 1.409 . S
C209 H211 0.951 . S
C210 C205 1.491 . S
C210 C212 1.382 . S
C210 C214 1.404 . S
H211 C209 0.951 . S
C212 C210 1.382 . S
C212 C213 1.390 . S
C212 H217 0.949 . S
C213 C212 1.390 . S
C213 C218 1.399 . S
C214 C210 1.404 . S
C214 H215 0.950 . S
C214 C216 1.375 . S
H215 C214 0.950 . S
C216 C214 1.375 . S
C216 C218 1.382 . S
C216 H220 0.950 . S
H217 C212 0.949 . S
C218 C213 1.399 . S
C218 C216 1.382 . S
C218 H219 0.952 . S
H219 C218 0.952 . S
H220 C216 0.950 . S
H221 C222 0.949 . S
C222 H221 0.949 . S
C222 C223 1.395 . S
C222 C224 1.391 . S
C223 C222 1.395 . S
C223 C226 1.390 . S
C224 C222 1.391 . S
C224 C228 1.387 . S
C224 C229 1.491 . S
H225 C226 0.950 . S
C226 C223 1.390 . S
C226 H225 0.950 . S
C226 C227 1.378 . S
C227 C226 1.378 . S
C227 C228 1.409 . S
C228 C224 1.387 . S
C228 C227 1.409 . S
C228 H230 0.951 . S
C229 C224 1.491 . S
C229 C231 1.382 . S
C229 C233 1.404 . S
H230 C228 0.951 . S
C231 C229 1.382 . S
C231 C232 1.390 . S
C231 H236 0.949 . S
C232 C231 1.390 . S
C232 C237 1.399 . S
C233 C229 1.404 . S
C233 H234 0.950 . S
C233 C235 1.375 . S
H234 C233 0.950 . S
C235 C233 1.375 . S
C235 C237 1.382 . S
C235 H239 0.950 . S
H236 C231 0.949 . S
C237 C232 1.399 . S
C237 C235 1.382 . S
C237 H238 0.952 . S
H238 C237 0.952 . S
H239 C235 0.950 . S
H240 C248 0.929 . S
H241 C250 0.930 . S
H242 C252 0.930 1_545 S
H243 C255 0.929 . S
H244 C258 0.926 1_565 S
H245 C260 0.960 . S
H246 C260 0.960 . S
H247 C260 0.960 . S
C248 H240 0.929 . S
C248 C249 1.377 . S
C248 C250 1.384 . S
C249 C248 1.377 . S
C249 C255 1.390 . S
C250 H241 0.930 . S
C250 C248 1.384 . S
C250 C251 1.372 . S
C251 C250 1.372 . S
C251 C252 1.400 . S
C251 C256 1.490 1_565 S
C252 H242 0.930 1_565 S
C252 C251 1.400 . S
C252 C255 1.386 . S
H253 C269 0.930 . S
H254 C270 0.931 . S
C255 H243 0.929 . S
C255 C249 1.390 . S
C255 C252 1.386 . S
C256 C251 1.490 1_545 S
C256 C258 1.395 . S
C256 C259 1.403 . S
H257 C263 0.930 . S
C258 H244 0.926 1_545 S
C258 C256 1.395 . S
C258 C261 1.407 . S
C259 C256 1.403 . S
C259 C260 1.524 . S
C259 C263 1.400 . S
C260 H245 0.960 . S
C260 H246 0.960 . S
C260 H247 0.960 . S
C260 C259 1.524 . S
C261 C258 1.407 . S
C261 C262 1.392 . S
C261 C265 1.495 . S
C262 C261 1.392 . S
C262 C263 1.385 . S
C262 C264 1.478 . S
C263 H257 0.930 . S
C263 C259 1.400 . S
C263 C262 1.385 . S
C264 C262 1.478 . S
C264 C266 1.381 . S
C264 C270 1.383 . S
C265 C261 1.495 . S
C265 H271 0.926 1_545 S
C265 H272 0.961 . S
C265 H273 0.960 . S
C266 C264 1.381 . S
C266 C267 1.394 . S
C266 H274 0.930 . S
C267 C266 1.394 . S
C267 C268 1.383 . S
C267 H275 0.929 . S
C268 C267 1.383 . S
C268 C269 1.377 . S
C269 H253 0.930 . S
C269 C268 1.377 . S
C269 C270 1.379 . S
C270 H254 0.931 . S
C270 C264 1.383 . S
C270 C269 1.379 . S
H271 C265 0.926 1_565 S
H272 C265 0.961 . S
H273 C265 0.960 . S
H274 C266 0.930 . S
H275 C267 0.929 . S
H276 C284 0.929 . S
H277 C286 0.930 . S
H278 C288 0.930 . S
H279 C291 0.929 . S
H280 C294 0.930 . S
H281 C296 0.960 . S
H282 C296 0.960 . S
H283 C296 0.960 . S
C284 H276 0.929 . S
C284 C285 1.377 . S
C284 C286 1.384 . S
C285 C284 1.377 . S
C285 C291 1.390 . S
C286 H277 0.930 . S
C286 C284 1.384 . S
C286 C287 1.372 . S
C287 C286 1.372 . S
C287 C288 1.400 . S
C287 C292 1.490 . S
C288 H278 0.930 . S
C288 C287 1.400 . S
C288 C291 1.386 . S
H289 C305 0.930 . S
H290 C306 0.931 . S
C291 H279 0.929 . S
C291 C285 1.390 . S
C291 C288 1.386 . S
C292 C287 1.490 . S
C292 C294 1.395 . S
C292 C295 1.403 . S
H293 C299 0.930 . S
C294 H280 0.930 . S
C294 C292 1.395 . S
C294 C297 1.403 . S
C295 C292 1.403 . S
C295 C296 1.524 . S
C295 C299 1.400 . S
C296 H281 0.960 . S
C296 H282 0.960 . S
C296 H283 0.960 . S
C296 C295 1.524 . S
C297 C294 1.403 . S
C297 C298 1.392 . S
C297 C301 1.495 . S
C298 C297 1.392 . S
C298 C299 1.385 . S
C298 C300 1.478 . S
C299 H293 0.930 . S
C299 C295 1.400 . S
C299 C298 1.385 . S
C300 C298 1.478 . S
C300 C302 1.381 . S
C300 C306 1.383 . S
C301 C297 1.495 . S
C301 H307 0.959 . S
C301 H308 0.961 . S
C301 H309 0.960 . S
C302 C300 1.381 . S
C302 C303 1.394 . S
C302 H310 0.930 . S
C303 C302 1.394 . S
C303 C304 1.383 . S
C303 H311 0.929 . S
C304 C303 1.383 . S
C304 C305 1.377 . S
C305 H289 0.930 . S
C305 C304 1.377 . S
C305 C306 1.379 . S
C306 H290 0.931 . S
C306 C300 1.383 . S
C306 C305 1.379 . S
H307 C301 0.959 . S
H308 C301 0.961 . S
H309 C301 0.960 . S
H310 C302 0.930 . S
H311 C303 0.929 . S
H312 C320 0.929 . S
H313 C322 0.930 . S
H314 C324 0.930 . S
H315 C327 0.929 . S
H316 C330 0.930 . S
H317 C332 0.960 . S
H318 C332 0.960 . S
H319 C332 0.960 . S
C320 H312 0.929 . S
C320 C321 1.377 . S
C320 C322 1.384 . S
C321 C320 1.377 . S
C321 C327 1.390 . S
C322 H313 0.930 . S
C322 C320 1.384 . S
C322 C323 1.372 . S
C323 C322 1.372 . S
C323 C324 1.400 . S
C323 C328 1.524 . S
C324 H314 0.930 . S
C324 C323 1.400 . S
C324 C327 1.386 . S
H325 C341 0.930 . S
H326 C342 0.931 . S
C327 H315 0.929 . S
C327 C321 1.390 . S
C327 C324 1.386 . S
C328 C323 1.524 . S
C328 C330 1.400 . S
C328 C331 1.365 1_545 S
H329 C335 0.930 . S
C330 H316 0.930 . S
C330 C328 1.400 . S
C330 C333 1.403 1_545 S
C331 C328 1.365 1_565 S
C331 C332 1.524 . S
C331 C335 1.400 . S
C332 H317 0.960 . S
C332 H318 0.960 . S
C332 H319 0.960 . S
C332 C331 1.524 . S
C333 C330 1.403 1_565 S
C333 C334 1.392 . S
C333 C337 1.495 . S
C334 C333 1.392 . S
C334 C335 1.385 . S
C334 C336 1.478 . S
C335 H329 0.930 . S
C335 C331 1.400 . S
C335 C334 1.385 . S
C336 C334 1.478 . S
C336 C338 1.381 . S
C336 C342 1.383 . S
C337 C333 1.495 . S
C337 H343 0.959 1_565 S
C337 H344 0.961 . S
C337 H345 0.960 . S
C338 C336 1.381 . S
C338 C339 1.394 . S
C338 H346 0.930 . S
C339 C338 1.394 . S
C339 C340 1.383 . S
C339 H347 0.929 . S
C340 C339 1.383 . S
C340 C341 1.377 . S
C341 H325 0.930 . S
C341 C340 1.377 . S
C341 C342 1.379 . S
C342 H326 0.931 . S
C342 C336 1.383 . S
C342 C341 1.379 . S
H343 C337 0.959 1_545 S
H344 C337 0.961 . S
H345 C337 0.960 . S
H346 C338 0.930 . S
H347 C339 0.929 . S
H348 C356 0.929 . S
H349 C358 0.930 . S
H350 C360 0.930 . S
H351 C363 0.929 . S
H352 C366 0.930 . S
H353 C368 0.960 . S
H354 C368 0.960 . S
H355 C368 0.960 . S
C356 H348 0.929 . S
C356 C357 1.377 . S
C356 C358 1.384 . S
C357 C356 1.377 . S
C357 C363 1.390 . S
C358 H349 0.930 . S
C358 C356 1.384 . S
C358 C359 1.372 . S
C359 C358 1.372 . S
C359 C360 1.400 . S
C359 C364 1.490 . S
C360 H350 0.930 . S
C360 C359 1.400 . S
C360 C363 1.386 . S
H361 C377 0.930 . S
H362 C378 0.931 . S
C363 H351 0.929 . S
C363 C357 1.390 . S
C363 C360 1.386 . S
C364 C359 1.490 . S
C364 C366 1.395 . S
C364 C367 1.403 . S
H365 C371 0.930 . S
C366 H352 0.930 . S
C366 C364 1.395 . S
C366 C369 1.403 . S
C367 C364 1.403 . S
C367 C368 1.524 . S
C367 C371 1.400 . S
C368 H353 0.960 . S
C368 H354 0.960 . S
C368 H355 0.960 . S
C368 C367 1.524 . S
C369 C366 1.403 . S
C369 C370 1.392 . S
C369 C373 1.495 . S
C370 C369 1.392 . S
C370 C371 1.385 . S
C370 C372 1.478 . S
C371 H365 0.930 . S
C371 C367 1.400 . S
C371 C370 1.385 . S
C372 C370 1.478 . S
C372 C374 1.381 . S
C372 C378 1.383 . S
C373 C369 1.495 . S
C373 H379 0.959 . S
C373 H380 0.961 . S
C373 H381 0.960 . S
C374 C372 1.381 . S
C374 C375 1.394 . S
C374 H382 0.930 . S
C375 C374 1.394 . S
C375 C376 1.383 . S
C375 H383 0.929 . S
C376 C375 1.383 . S
C376 C377 1.377 . S
C377 H361 0.930 . S
C377 C376 1.377 . S
C377 C378 1.379 . S
C378 H362 0.931 . S
C378 C372 1.383 . S
C378 C377 1.379 . S
H379 C373 0.959 . S
H380 C373 0.961 . S
H381 C373 0.960 . S
H382 C374 0.930 . S
H383 C375 0.929 . S
H384 C392 0.929 . S
H385 C394 0.930 . S
H386 C396 0.930 . S
H387 C399 0.929 . S
H388 C402 0.930 . S
H389 C404 0.960 . S
H390 C404 0.960 . S
H391 C404 0.960 . S
C392 H384 0.929 . S
C392 C393 1.377 . S
C392 C394 1.384 . S
C393 C392 1.377 . S
C393 C399 1.390 . S
C394 H385 0.930 . S
C394 C392 1.384 . S
C394 C395 1.372 . S
C395 C394 1.372 . S
C395 C396 1.400 . S
C395 C400 1.490 . S
C396 H386 0.930 . S
C396 C395 1.400 . S
C396 C399 1.386 . S
H397 C413 0.930 . S
H398 C414 0.931 . S
C399 H387 0.929 . S
C399 C393 1.390 . S
C399 C396 1.386 . S
C400 C395 1.490 . S
C400 C402 1.395 . S
C400 C403 1.403 . S
H401 C407 0.930 . S
C402 H388 0.930 . S
C402 C400 1.395 . S
C402 C405 1.403 . S
C403 C400 1.403 . S
C403 C404 1.524 . S
C403 C407 1.400 . S
C404 H389 0.960 . S
C404 H390 0.960 . S
C404 H391 0.960 . S
C404 C403 1.524 . S
C405 C402 1.403 . S
C405 C406 1.392 . S
C405 C409 1.495 . S
C406 C405 1.392 . S
C406 C407 1.385 . S
C406 C408 1.478 . S
C407 H401 0.930 . S
C407 C403 1.400 . S
C407 C406 1.385 . S
C408 C406 1.478 . S
C408 C410 1.381 . S
C408 C414 1.383 . S
C409 C405 1.495 . S
C409 H415 0.959 . S
C409 H416 0.961 . S
C409 H417 0.960 . S
C410 C408 1.381 . S
C410 C411 1.394 . S
C410 H418 0.930 . S
C411 C410 1.394 . S
C411 C412 1.383 . S
C411 H419 0.929 . S
C412 C411 1.383 . S
C412 C413 1.377 . S
C413 H397 0.930 . S
C413 C412 1.377 . S
C413 C414 1.379 . S
C414 H398 0.931 . S
C414 C408 1.383 . S
C414 C413 1.379 . S
H415 C409 0.959 . S
H416 C409 0.961 . S
H417 C409 0.960 . S
H418 C410 0.930 . S
H419 C411 0.929 . S
H420 C428 0.929 . S
H421 C430 0.930 . S
H422 C432 0.930 . S
H423 C435 0.929 . S
H424 C438 0.930 . S
H425 C440 0.960 . S
H426 C440 0.960 . S
H427 C440 0.960 . S
C428 H420 0.929 . S
C428 C429 1.377 . S
C428 C430 1.384 . S
C429 C428 1.377 . S
C429 C435 1.390 . S
C430 H421 0.930 . S
C430 C428 1.384 . S
C430 C431 1.372 . S
C431 C430 1.372 . S
C431 C432 1.400 . S
C431 C436 1.516 . S
C432 H422 0.930 . S
C432 C431 1.400 . S
C432 C435 1.386 . S
H433 C449 0.930 . S
H434 C450 0.931 . S
C435 H423 0.929 . S
C435 C429 1.390 . S
C435 C432 1.386 . S
C436 C431 1.516 . S
C436 C438 1.401 . S
C436 C439 1.371 1_655 S
H437 C443 0.930 . S
C438 H424 0.930 . S
C438 C436 1.401 . S
C438 C441 1.403 1_655 S
C439 C436 1.371 1_455 S
C439 C440 1.524 . S
C439 C443 1.400 . S
C440 H425 0.960 . S
C440 H426 0.960 . S
C440 H427 0.960 . S
C440 C439 1.524 . S
C441 C438 1.403 1_455 S
C441 C442 1.392 . S
C441 C445 1.495 . S
C442 C441 1.392 . S
C442 C443 1.385 . S
C442 C444 1.478 . S
C443 H437 0.930 . S
C443 C439 1.400 . S
C443 C442 1.385 . S
C444 C442 1.478 . S
C444 C446 1.381 . S
C444 C450 1.383 . S
C445 C441 1.495 . S
C445 H451 0.959 1_455 S
C445 H452 0.961 . S
C445 H453 0.960 . S
C446 C444 1.381 . S
C446 C447 1.394 . S
C446 H454 0.930 . S
C447 C446 1.394 . S
C447 C448 1.383 . S
C447 H455 0.929 . S
C448 C447 1.383 . S
C448 C449 1.377 . S
C449 H433 0.930 . S
C449 C448 1.377 . S
C449 C450 1.379 . S
C450 H434 0.931 . S
C450 C444 1.383 . S
C450 C449 1.379 . S
H451 C445 0.959 1_655 S
H452 C445 0.961 . S
H453 C445 0.960 . S
H454 C446 0.930 . S
H455 C447 0.929 . S
H456 C464 0.929 . S
H457 C466 0.930 . S
H458 C468 0.930 . S
H459 C471 0.929 . S
H460 C474 0.930 . S
H461 C476 0.960 . S
H462 C476 0.960 . S
H463 C476 0.960 . S
C464 H456 0.929 . S
C464 C465 1.377 . S
C464 C466 1.384 . S
C465 C464 1.377 . S
C465 C471 1.390 . S
C466 H457 0.930 . S
C466 C464 1.384 . S
C466 C467 1.372 . S
C467 C466 1.372 . S
C467 C468 1.400 . S
C467 C472 1.490 . S
C468 H458 0.930 . S
C468 C467 1.400 . S
C468 C471 1.386 . S
H469 C485 0.930 . S
H470 C486 0.931 . S
C471 H459 0.929 . S
C471 C465 1.390 . S
C471 C468 1.386 . S
C472 C467 1.490 . S
C472 C474 1.395 . S
C472 C475 1.403 . S
H473 C479 0.930 . S
C474 H460 0.930 . S
C474 C472 1.395 . S
C474 C477 1.403 . S
C475 C472 1.403 . S
C475 C476 1.524 . S
C475 C479 1.400 . S
C476 H461 0.960 . S
C476 H462 0.960 . S
C476 H463 0.960 . S
C476 C475 1.524 . S
C477 C474 1.403 . S
C477 C478 1.392 . S
C477 C481 1.495 . S
C478 C477 1.392 . S
C478 C479 1.385 . S
C478 C480 1.478 . S
C479 H473 0.930 . S
C479 C475 1.400 . S
C479 C478 1.385 . S
C480 C478 1.478 . S
C480 C482 1.381 . S
C480 C486 1.383 . S
C481 C477 1.495 . S
C481 H487 0.959 . S
C481 H488 0.961 . S
C481 H489 0.960 . S
C482 C480 1.381 . S
C482 C483 1.394 . S
C482 H490 0.930 . S
C483 C482 1.394 . S
C483 C484 1.383 . S
C483 H491 0.929 . S
C484 C483 1.383 . S
C484 C485 1.377 . S
C485 H469 0.930 . S
C485 C484 1.377 . S
C485 C486 1.379 . S
C486 H470 0.931 . S
C486 C480 1.383 . S
C486 C485 1.379 . S
H487 C481 0.959 . S
H488 C481 0.961 . S
H489 C481 0.960 . S
H490 C482 0.930 . S
H491 C483 0.929 . S
H492 C500 0.929 . S
H493 C502 0.930 . S
H494 C504 0.930 . S
H495 C507 0.929 . S
H496 C510 0.930 . S
H497 C512 0.960 . S
H498 C512 0.960 . S
H499 C512 0.960 . S
C500 H492 0.929 . S
C500 C501 1.377 . S
C500 C502 1.384 . S
C501 C500 1.377 . S
C501 C507 1.390 . S
C502 H493 0.930 . S
C502 C500 1.384 . S
C502 C503 1.372 . S
C503 C502 1.372 . S
C503 C504 1.400 . S
C503 C508 1.490 1_455 S
C504 H494 0.930 . S
C504 C503 1.400 . S
C504 C507 1.386 . S
H505 C521 0.930 . S
H506 C522 0.931 . S
C507 H495 0.929 . S
C507 C501 1.390 . S
C507 C504 1.386 . S
C508 C503 1.490 1_655 S
C508 C510 1.395 1_655 S
C508 C511 1.403 . S
H509 C515 0.930 . S
C510 H496 0.930 . S
C510 C508 1.395 1_455 S
C510 C513 1.403 1_455 S
C511 C508 1.403 . S
C511 C512 1.524 . S
C511 C515 1.400 . S
C512 H497 0.960 . S
C512 H498 0.960 . S
C512 H499 0.960 . S
C512 C511 1.524 . S
C513 C510 1.403 1_655 S
C513 C514 1.392 . S
C513 C517 1.495 . S
C514 C513 1.392 . S
C514 C515 1.385 . S
C514 C516 1.478 . S
C515 H509 0.930 . S
C515 C511 1.400 . S
C515 C514 1.385 . S
C516 C514 1.478 . S
C516 C518 1.381 . S
C516 C522 1.383 . S
C517 C513 1.495 . S
C517 H523 0.959 1_655 S
C517 H524 0.961 . S
C517 H525 0.960 . S
C518 C516 1.381 . S
C518 C519 1.394 . S
C518 H526 0.930 . S
C519 C518 1.394 . S
C519 C520 1.383 . S
C519 H527 0.929 . S
C520 C519 1.383 . S
C520 C521 1.377 . S
C521 H505 0.930 . S
C521 C520 1.377 . S
C521 C522 1.379 . S
C522 H506 0.931 . S
C522 C516 1.383 . S
C522 C521 1.379 . S
H523 C517 0.959 1_455 S
H524 C517 0.961 . S
H525 C517 0.960 . S
H526 C518 0.930 . S
H527 C519 0.929 . S
H528 C536 0.929 . S
H529 C538 0.930 . S
H530 C540 0.930 . S
H531 C543 0.929 . S
H532 C546 0.930 . S
H533 C548 0.960 . S
H534 C548 0.960 . S
H535 C548 0.960 . S
C536 H528 0.929 . S
C536 C537 1.377 . S
C536 C538 1.384 . S
C537 C536 1.377 . S
C537 C543 1.390 . S
C538 H529 0.930 . S
C538 C536 1.384 . S
C538 C539 1.372 . S
C539 C538 1.372 . S
C539 C540 1.400 . S
C539 C544 1.490 . S
C540 H530 0.930 . S
C540 C539 1.400 . S
C540 C543 1.386 . S
H541 C557 0.930 . S
H542 C558 0.931 . S
C543 H531 0.929 . S
C543 C537 1.390 . S
C543 C540 1.386 . S
C544 C539 1.490 . S
C544 C546 1.395 . S
C544 C547 1.403 1_545 S
H545 C551 0.930 . S
C546 H532 0.930 . S
C546 C544 1.395 . S
C546 C549 1.403 1_545 S
C547 C544 1.403 1_565 S
C547 C548 1.524 . S
C547 C551 1.400 . S
C548 H533 0.960 . S
C548 H534 0.960 . S
C548 H535 0.960 . S
C548 C547 1.524 . S
C549 C546 1.403 1_565 S
C549 C550 1.392 . S
C549 C553 1.495 . S
C550 C549 1.392 . S
C550 C551 1.385 . S
C550 C552 1.478 . S
C551 H545 0.930 . S
C551 C547 1.400 . S
C551 C550 1.385 . S
C552 C550 1.478 . S
C552 C554 1.381 . S
C552 C558 1.383 . S
C553 C549 1.495 . S
C553 H559 0.959 1_565 S
C553 H560 0.961 . S
C553 H561 0.960 . S
C554 C552 1.381 . S
C554 C555 1.394 . S
C554 H562 0.930 . S
C555 C554 1.394 . S
C555 C556 1.383 . S
C555 H563 0.929 . S
C556 C555 1.383 . S
C556 C557 1.377 . S
C557 H541 0.930 . S
C557 C556 1.377 . S
C557 C558 1.379 . S
C558 H542 0.931 . S
C558 C552 1.383 . S
C558 C557 1.379 . S
H559 C553 0.959 1_545 S
H560 C553 0.961 . S
H561 C553 0.960 . S
H562 C554 0.930 . S
H563 C555 0.929 . S
H564 C572 0.929 . S
H565 C574 0.930 . S
H566 C576 0.930 . S
H567 C579 0.929 . S
H568 C582 0.930 . S
H569 C584 0.960 . S
H570 C584 0.960 . S
H571 C584 0.960 . S
C572 H564 0.929 . S
C572 C573 1.377 . S
C572 C574 1.384 . S
C573 C572 1.377 . S
C573 C579 1.390 . S
C574 H565 0.930 . S
C574 C572 1.384 . S
C574 C575 1.372 . S
C575 C574 1.372 . S
C575 C576 1.400 . S
C575 C580 1.490 . S
C576 H566 0.930 . S
C576 C575 1.400 . S
C576 C579 1.386 . S
H577 C593 0.930 . S
H578 C594 0.931 . S
C579 H567 0.929 . S
C579 C573 1.390 . S
C579 C576 1.386 . S
C580 C575 1.490 . S
C580 C582 1.395 . S
C580 C583 1.403 . S
H581 C587 0.930 . S
C582 H568 0.930 . S
C582 C580 1.395 . S
C582 C585 1.403 . S
C583 C580 1.403 . S
C583 C584 1.524 . S
C583 C587 1.400 . S
C584 H569 0.960 . S
C584 H570 0.960 . S
C584 H571 0.960 . S
C584 C583 1.524 . S
C585 C582 1.403 . S
C585 C586 1.392 . S
C585 C589 1.495 . S
C586 C585 1.392 . S
C586 C587 1.385 . S
C586 C588 1.478 . S
C587 H581 0.930 . S
C587 C583 1.400 . S
C587 C586 1.385 . S
C588 C586 1.478 . S
C588 C590 1.381 . S
C588 C594 1.383 . S
C589 C585 1.495 . S
C589 H595 0.959 . S
C589 H596 0.961 . S
C589 H597 0.960 . S
C590 C588 1.381 . S
C590 C591 1.394 . S
C590 H598 0.930 . S
C591 C590 1.394 . S
C591 C592 1.383 . S
C591 H599 0.929 . S
C592 C591 1.383 . S
C592 C593 1.377 . S
C593 H577 0.930 . S
C593 C592 1.377 . S
C593 C594 1.379 . S
C594 H578 0.931 . S
C594 C588 1.383 . S
C594 C593 1.379 . S
H595 C589 0.959 . S
H596 C589 0.961 . S
H597 C589 0.960 . S
H598 C590 0.930 . S
H599 C591 0.929 . S
H600 C608 0.929 . S
H601 C610 0.930 1_545 S
H602 C612 0.930 . S
H603 C615 0.929 . S
H604 C618 0.930 . S
H605 C620 0.979 . S
H606 C620 0.966 . S
H607 C620 0.920 1_565 S
C608 H600 0.929 . S
C608 C609 1.377 . S
C608 C610 1.384 . S
C609 C608 1.377 . S
C609 C615 1.390 . S
C610 H601 0.930 1_565 S
C610 C608 1.384 . S
C610 C611 1.372 . S
C611 C610 1.372 . S
C611 C612 1.400 . S
C611 C616 1.490 1_565 S
C612 H602 0.930 . S
C612 C611 1.400 . S
C612 C615 1.386 . S
H613 C629 0.930 . S
H614 C630 0.931 . S
C615 H603 0.929 . S
C615 C609 1.390 . S
C615 C612 1.386 . S
C616 C611 1.490 1_545 S
C616 C618 1.395 . S
C616 C619 1.403 . S
H617 C623 0.930 . S
C618 H604 0.930 . S
C618 C616 1.395 . S
C618 C621 1.403 . S
C619 C616 1.403 . S
C619 C620 1.541 . S
C619 C623 1.400 . S
C620 H605 0.979 . S
C620 H606 0.966 . S
C620 H607 0.920 1_545 S
C620 C619 1.541 . S
C621 C618 1.403 . S
C621 C622 1.392 . S
C621 C625 1.495 . S
C622 C621 1.392 . S
C622 C623 1.385 . S
C622 C624 1.478 . S
C623 H617 0.930 . S
C623 C619 1.400 . S
C623 C622 1.385 . S
C624 C622 1.478 . S
C624 C626 1.381 . S
C624 C630 1.383 . S
C625 C621 1.495 . S
C625 H631 0.959 . S
C625 H632 0.961 . S
C625 H633 0.960 . S
C626 C624 1.381 . S
C626 C627 1.394 . S
C626 H634 0.930 . S
C627 C626 1.394 . S
C627 C628 1.383 . S
C627 H635 0.929 . S
C628 C627 1.383 . S
C628 C629 1.377 . S
C629 H613 0.930 . S
C629 C628 1.377 . S
C629 C630 1.379 . S
C630 H614 0.931 . S
C630 C624 1.383 . S
C630 C629 1.379 . S
H631 C625 0.959 . S
H632 C625 0.961 . S
H633 C625 0.960 . S
H634 C626 0.930 . S
H635 C627 0.929 . S
H636 C644 0.929 . S
H637 C646 0.930 . S
H638 C648 0.930 . S
H639 C651 0.929 . S
H640 C654 0.930 . S
H641 C656 0.960 . S
H642 C656 0.960 . S
H643 C656 0.960 . S
C644 H636 0.929 . S
C644 C645 1.377 . S
C644 C646 1.384 . S
C645 C644 1.377 . S
C645 C651 1.390 . S
C646 H637 0.930 . S
C646 C644 1.384 . S
C646 C647 1.372 . S
C647 C646 1.372 . S
C647 C648 1.400 . S
C647 C652 1.490 . S
C648 H638 0.930 . S
C648 C647 1.400 . S
C648 C651 1.386 . S
H649 C665 0.930 . S
H650 C666 0.931 . S
C651 H639 0.929 . S
C651 C645 1.390 . S
C651 C648 1.386 . S
C652 C647 1.490 . S
C652 C654 1.395 . S
C652 C655 1.403 . S
H653 C659 0.930 . S
C654 H640 0.930 . S
C654 C652 1.395 . S
C654 C657 1.403 . S
C655 C652 1.403 . S
C655 C656 1.524 . S
C655 C659 1.400 . S
C656 H641 0.960 . S
C656 H642 0.960 . S
C656 H643 0.960 . S
C656 C655 1.524 . S
C657 C654 1.403 . S
C657 C658 1.392 . S
C657 C661 1.495 . S
C658 C657 1.392 . S
C658 C659 1.385 . S
C658 C660 1.478 . S
C659 H653 0.930 . S
C659 C655 1.400 . S
C659 C658 1.385 . S
C660 C658 1.478 . S
C660 C662 1.381 . S
C660 C666 1.383 . S
C661 C657 1.495 . S
C661 H667 0.959 . S
C661 H668 0.961 . S
C661 H669 0.960 . S
C662 C660 1.381 . S
C662 C663 1.394 . S
C662 H670 0.930 . S
C663 C662 1.394 . S
C663 C664 1.383 . S
C663 H671 0.929 . S
C664 C663 1.383 . S
C664 C665 1.377 . S
C665 H649 0.930 . S
C665 C664 1.377 . S
C665 C666 1.379 . S
C666 H650 0.931 . S
C666 C660 1.383 . S
C666 C665 1.379 . S
H667 C661 0.959 . S
H668 C661 0.961 . S
H669 C661 0.960 . S
H670 C662 0.930 . S
H671 C663 0.929 . S
H672 C680 0.929 . S
H673 C682 0.930 . S
H674 C684 0.930 . S
H675 C687 0.929 . S
H676 C690 0.930 . S
H677 C692 0.960 . S
H678 C692 0.960 . S
H679 C692 0.960 . S
C680 H672 0.929 . S
C680 C681 1.377 . S
C680 C682 1.384 . S
C681 C680 1.377 . S
C681 C687 1.390 . S
C682 H673 0.930 . S
C682 C680 1.384 . S
C682 C683 1.372 . S
C683 C682 1.372 . S
C683 C684 1.400 . S
C683 C688 1.490 . S
C684 H674 0.930 . S
C684 C683 1.400 . S
C684 C687 1.386 . S
H685 C701 0.930 . S
H686 C702 0.931 . S
C687 H675 0.929 . S
C687 C681 1.390 . S
C687 C684 1.386 . S
C688 C683 1.490 . S
C688 C690 1.395 . S
C688 C691 1.403 . S
H689 C695 0.930 . S
C690 H676 0.930 . S
C690 C688 1.395 . S
C690 C693 1.403 . S
C691 C688 1.403 . S
C691 C692 1.524 . S
C691 C695 1.400 . S
C692 H677 0.960 . S
C692 H678 0.960 . S
C692 H679 0.960 . S
C692 C691 1.524 . S
C693 C690 1.403 . S
C693 C694 1.392 . S
C693 C697 1.495 . S
C694 C693 1.392 . S
C694 C695 1.385 . S
C694 C696 1.478 . S
C695 H689 0.930 . S
C695 C691 1.400 . S
C695 C694 1.385 . S
C696 C694 1.478 . S
C696 C698 1.381 . S
C696 C702 1.383 . S
C697 C693 1.495 . S
C697 H703 0.959 . S
C697 H704 0.961 . S
C697 H705 0.960 . S
C698 C696 1.381 . S
C698 C699 1.394 . S
C698 H706 0.930 . S
C699 C698 1.394 . S
C699 C700 1.383 . S
C699 H707 0.929 . S
C700 C699 1.383 . S
C700 C701 1.377 . S
C701 H685 0.930 . S
C701 C700 1.377 . S
C701 C702 1.379 . S
C702 H686 0.931 . S
C702 C696 1.383 . S
C702 C701 1.379 . S
H703 C697 0.959 . S
H704 C697 0.961 . S
H705 C697 0.960 . S
H706 C698 0.930 . S
H707 C699 0.929 . S
H708 C716 0.929 . S
H709 C718 0.930 . S
H710 C720 0.930 . S
H711 C723 0.929 . S
H712 C726 0.930 . S
H713 C728 0.960 . S
H714 C728 0.960 . S
H715 C728 0.960 . S
C716 H708 0.929 . S
C716 C717 1.377 . S
C716 C718 1.384 . S
C717 C716 1.377 . S
C717 C723 1.390 . S
C718 H709 0.930 . S
C718 C716 1.384 . S
C718 C719 1.372 . S
C719 C718 1.372 . S
C719 C720 1.400 . S
C719 C724 1.490 1_455 S
C720 H710 0.930 . S
C720 C719 1.400 . S
C720 C723 1.386 . S
H721 C737 0.930 . S
H722 C738 0.931 . S
C723 H711 0.929 . S
C723 C717 1.390 . S
C723 C720 1.386 . S
C724 C719 1.490 1_655 S
C724 C726 1.395 1_655 S
C724 C727 1.403 . S
H725 C731 0.930 . S
C726 H712 0.930 . S
C726 C724 1.395 1_455 S
C726 C729 1.403 1_455 S
C727 C724 1.403 . S
C727 C728 1.524 . S
C727 C731 1.400 . S
C728 H713 0.960 . S
C728 H714 0.960 . S
C728 H715 0.960 . S
C728 C727 1.524 . S
C729 C726 1.403 1_655 S
C729 C730 1.392 . S
C729 C733 1.495 . S
C730 C729 1.392 . S
C730 C731 1.385 . S
C730 C732 1.478 . S
C731 H725 0.930 . S
C731 C727 1.400 . S
C731 C730 1.385 . S
C732 C730 1.478 . S
C732 C734 1.381 . S
C732 C738 1.383 . S
C733 C729 1.495 . S
C733 H739 0.959 1_655 S
C733 H740 0.961 . S
C733 H741 0.960 . S
C734 C732 1.381 . S
C734 C735 1.394 . S
C734 H742 0.930 . S
C735 C734 1.394 . S
C735 C736 1.383 . S
C735 H743 0.929 . S
C736 C735 1.383 . S
C736 C737 1.377 . S
C737 H721 0.930 . S
C737 C736 1.377 . S
C737 C738 1.379 . S
C738 H722 0.931 . S
C738 C732 1.383 . S
C738 C737 1.379 . S
H739 C733 0.959 1_455 S
H740 C733 0.961 . S
H741 C733 0.960 . S
H742 C734 0.930 . S
H743 C735 0.929 . S
H744 C752 0.929 . S
H745 C754 0.930 . S
H746 C756 0.930 . S
H747 C759 0.929 . S
H748 C762 0.930 . S
H749 C764 0.960 . S
H750 C764 0.960 . S
H751 C764 0.960 . S
C752 H744 0.929 . S
C752 C753 1.377 . S
C752 C754 1.384 . S
C753 C752 1.377 . S
C753 C759 1.390 . S
C754 H745 0.930 . S
C754 C752 1.384 . S
C754 C755 1.372 . S
C755 C754 1.372 . S
C755 C756 1.400 . S
C755 C760 1.490 . S
C756 H746 0.930 . S
C756 C755 1.400 . S
C756 C759 1.386 . S
H757 C773 0.930 . S
H758 C774 0.931 . S
C759 H747 0.929 . S
C759 C753 1.390 . S
C759 C756 1.386 . S
C760 C755 1.490 . S
C760 C762 1.395 . S
C760 C763 1.403 . S
H761 C767 0.930 . S
C762 H748 0.930 . S
C762 C760 1.395 . S
C762 C765 1.403 . S
C763 C760 1.403 . S
C763 C764 1.524 . S
C763 C767 1.400 . S
C764 H749 0.960 . S
C764 H750 0.960 . S
C764 H751 0.960 . S
C764 C763 1.524 . S
C765 C762 1.403 . S
C765 C766 1.392 . S
C765 C769 1.495 . S
C766 C765 1.392 . S
C766 C767 1.385 . S
C766 C768 1.478 . S
C767 H761 0.930 . S
C767 C763 1.400 . S
C767 C766 1.385 . S
C768 C766 1.478 . S
C768 C770 1.381 . S
C768 C774 1.383 . S
C769 C765 1.495 . S
C769 H775 0.959 . S
C769 H776 0.961 . S
C769 H777 0.960 . S
C770 C768 1.381 . S
C770 C771 1.394 . S
C770 H778 0.930 . S
C771 C770 1.394 . S
C771 C772 1.383 . S
C771 H779 0.929 . S
C772 C771 1.383 . S
C772 C773 1.377 . S
C773 H757 0.930 . S
C773 C772 1.377 . S
C773 C774 1.379 . S
C774 H758 0.931 . S
C774 C768 1.383 . S
C774 C773 1.379 . S
H775 C769 0.959 . S
H776 C769 0.961 . S
H777 C769 0.960 . S
H778 C770 0.930 . S
H779 C771 0.929 . S
H780 C788 0.929 . S
H781 C790 0.930 . S
H782 C792 0.930 . S
H783 C795 0.929 . S
H784 C798 0.930 . S
H785 C800 0.960 . S
H786 C800 0.960 . S
H787 C800 0.960 . S
C788 H780 0.929 . S
C788 C789 1.377 . S
C788 C790 1.384 . S
C789 C788 1.377 . S
C789 C795 1.390 . S
C790 H781 0.930 . S
C790 C788 1.384 . S
C790 C791 1.372 . S
C791 C790 1.372 . S
C791 C792 1.400 . S
C791 C796 1.502 . S
C792 H782 0.930 . S
C792 C791 1.400 . S
C792 C795 1.386 . S
H793 C809 0.930 . S
H794 C810 0.931 . S
C795 H783 0.929 . S
C795 C789 1.390 . S
C795 C792 1.386 . S
C796 C791 1.502 . S
C796 C798 1.396 . S
C796 C799 1.389 1_655 S
H797 C803 0.930 . S
C798 H784 0.930 . S
C798 C796 1.396 . S
C798 C801 1.403 1_655 S
C799 C796 1.389 1_455 S
C799 C800 1.524 . S
C799 C803 1.400 . S
C800 H785 0.960 . S
C800 H786 0.960 . S
C800 H787 0.960 . S
C800 C799 1.524 . S
C801 C798 1.403 1_455 S
C801 C802 1.392 . S
C801 C805 1.495 . S
C802 C801 1.392 . S
C802 C803 1.385 . S
C802 C804 1.478 . S
C803 H797 0.930 . S
C803 C799 1.400 . S
C803 C802 1.385 . S
C804 C802 1.478 . S
C804 C806 1.381 . S
C804 C810 1.383 . S
C805 C801 1.495 . S
C805 H811 0.959 1_455 S
C805 H812 0.961 . S
C805 H813 0.960 . S
C806 C804 1.381 . S
C806 C807 1.394 . S
C806 H814 0.930 . S
C807 C806 1.394 . S
C807 C808 1.383 . S
C807 H815 0.929 . S
C808 C807 1.383 . S
C808 C809 1.377 . S
C809 H793 0.930 . S
C809 C808 1.377 . S
C809 C810 1.379 . S
C810 H794 0.931 . S
C810 C804 1.383 . S
C810 C809 1.379 . S
H811 C805 0.959 1_655 S
H812 C805 0.961 . S
H813 C805 0.960 . S
H814 C806 0.930 . S
H815 C807 0.929 . S
H816 C824 0.929 . S
H817 C826 0.930 . S
H818 C828 0.930 . S
H819 C831 0.929 . S
H820 C834 0.930 . S
H821 C836 0.960 . S
H822 C836 0.960 . S
H823 C836 0.960 . S
C824 H816 0.929 . S
C824 C825 1.377 . S
C824 C826 1.384 . S
C825 C824 1.377 . S
C825 C831 1.390 . S
C826 H817 0.930 . S
C826 C824 1.384 . S
C826 C827 1.372 . S
C827 C826 1.372 . S
C827 C828 1.400 . S
C827 C832 1.490 . S
C828 H818 0.930 . S
C828 C827 1.400 . S
C828 C831 1.386 . S
H829 C845 0.930 . S
H830 C846 0.931 . S
C831 H819 0.929 . S
C831 C825 1.390 . S
C831 C828 1.386 . S
C832 C827 1.490 . S
C832 C834 1.395 . S
C832 C835 1.403 . S
H833 C839 0.930 . S
C834 H820 0.930 . S
C834 C832 1.395 . S
C834 C837 1.403 . S
C835 C832 1.403 . S
C835 C836 1.524 . S
C835 C839 1.400 . S
C836 H821 0.960 . S
C836 H822 0.960 . S
C836 H823 0.960 . S
C836 C835 1.524 . S
C837 C834 1.403 . S
C837 C838 1.392 . S
C837 C841 1.495 . S
C838 C837 1.392 . S
C838 C839 1.385 . S
C838 C840 1.478 . S
C839 H833 0.930 . S
C839 C835 1.400 . S
C839 C838 1.385 . S
C840 C838 1.478 . S
C840 C842 1.381 . S
C840 C846 1.383 . S
C841 C837 1.495 . S
C841 H847 0.959 . S
C841 H848 0.961 . S
C841 H849 0.960 . S
C842 C840 1.381 . S
C842 C843 1.394 . S
C842 H850 0.930 . S
C843 C842 1.394 . S
C843 C844 1.383 . S
C843 H851 0.929 . S
C844 C843 1.383 . S
C844 C845 1.377 . S
C845 H829 0.930 . S
C845 C844 1.377 . S
C845 C846 1.379 . S
C846 H830 0.931 . S
C846 C840 1.383 . S
C846 C845 1.379 . S
H847 C841 0.959 . S
H848 C841 0.961 . S
H849 C841 0.960 . S
H850 C842 0.930 . S
H851 C843 0.929 . S
H852 C860 0.929 . S
H853 C862 0.930 . S
H854 C864 0.930 . S
H855 C867 0.929 . S
H856 C870 0.930 . S
H857 C872 0.960 . S
H858 C872 0.960 . S
H859 C872 0.960 . S
C860 H852 0.929 . S
C860 C861 1.377 . S
C860 C862 1.384 . S
C861 C860 1.377 . S
C861 C867 1.390 . S
C862 H853 0.930 . S
C862 C860 1.384 . S
C862 C863 1.372 . S
C863 C862 1.372 . S
C863 C864 1.400 . S
C863 C868 1.490 . S
C864 H854 0.930 . S
C864 C863 1.400 . S
C864 C867 1.386 . S
H865 C881 0.930 . S
H866 C882 0.931 . S
C867 H855 0.929 . S
C867 C861 1.390 . S
C867 C864 1.386 . S
C868 C863 1.490 . S
C868 C870 1.395 . S
C868 C871 1.403 . S
H869 C875 0.930 . S
C870 H856 0.930 . S
C870 C868 1.395 . S
C870 C873 1.403 . S
C871 C868 1.403 . S
C871 C872 1.524 . S
C871 C875 1.400 . S
C872 H857 0.960 . S
C872 H858 0.960 . S
C872 H859 0.960 . S
C872 C871 1.524 . S
C873 C870 1.403 . S
C873 C874 1.392 . S
C873 C877 1.495 . S
C874 C873 1.392 . S
C874 C875 1.385 . S
C874 C876 1.478 . S
C875 H869 0.930 . S
C875 C871 1.400 . S
C875 C874 1.385 . S
C876 C874 1.478 . S
C876 C878 1.381 . S
C876 C882 1.383 . S
C877 C873 1.495 . S
C877 H883 0.959 . S
C877 H884 0.961 . S
C877 H885 0.960 . S
C878 C876 1.381 . S
C878 C879 1.394 . S
C878 H886 0.930 . S
C879 C878 1.394 . S
C879 C880 1.383 . S
C879 H887 0.929 . S
C880 C879 1.383 . S
C880 C881 1.377 . S
C881 H865 0.930 . S
C881 C880 1.377 . S
C881 C882 1.379 . S
C882 H866 0.931 . S
C882 C876 1.383 . S
C882 C881 1.379 . S
H883 C877 0.959 . S
H884 C877 0.961 . S
H885 C877 0.960 . S
H886 C878 0.930 . S
H887 C879 0.929 . S
H888 C896 0.929 . S
H889 C898 0.930 . S
H890 C900 0.930 . S
H891 C903 0.929 . S
H892 C906 0.930 . S
H893 C908 0.960 . S
H894 C908 0.960 . S
H895 C908 0.960 . S
C896 H888 0.929 . S
C896 C897 1.377 . S
C896 C898 1.384 . S
C897 C896 1.377 . S
C897 C903 1.390 . S
C898 H889 0.930 . S
C898 C896 1.384 . S
C898 C899 1.372 . S
C899 C898 1.372 . S
C899 C900 1.400 . S
C899 C904 1.490 . S
C900 H890 0.930 . S
C900 C899 1.400 . S
C900 C903 1.386 . S
H901 C917 0.930 . S
H902 C918 0.931 . S
C903 H891 0.929 . S
C903 C897 1.390 . S
C903 C900 1.386 . S
C904 C899 1.490 . S
C904 C906 1.395 . S
C904 C907 1.403 . S
H905 C911 0.930 . S
C906 H892 0.930 . S
C906 C904 1.395 . S
C906 C909 1.403 . S
C907 C904 1.403 . S
C907 C908 1.524 . S
C907 C911 1.400 . S
C908 H893 0.960 . S
C908 H894 0.960 . S
C908 H895 0.960 . S
C908 C907 1.524 . S
C909 C906 1.403 . S
C909 C910 1.392 . S
C909 C913 1.495 . S
C910 C909 1.392 . S
C910 C911 1.385 . S
C910 C912 1.478 . S
C911 H905 0.930 . S
C911 C907 1.400 . S
C911 C910 1.385 . S
C912 C910 1.478 . S
C912 C914 1.381 . S
C912 C918 1.383 . S
C913 C909 1.495 . S
C913 H919 0.959 . S
C913 H920 0.961 . S
C913 H921 0.960 . S
C914 C912 1.381 . S
C914 C915 1.394 . S
C914 H922 0.930 . S
C915 C914 1.394 . S
C915 C916 1.383 . S
C915 H923 0.929 . S
C916 C915 1.383 . S
C916 C917 1.377 . S
C917 H901 0.930 . S
C917 C916 1.377 . S
C917 C918 1.379 . S
C918 H902 0.931 . S
C918 C912 1.383 . S
C918 C917 1.379 . S
H919 C913 0.959 . S
H920 C913 0.961 . S
H921 C913 0.960 . S
H922 C914 0.930 . S
H923 C915 0.929 . S
H924 C932 0.929 . S
H925 C934 0.930 . S
H926 C936 0.930 . S
H927 C939 0.929 . S
H928 C942 0.930 . S
H929 C944 0.960 . S
H930 C944 0.960 . S
H931 C944 0.960 . S
C932 H924 0.929 . S
C932 C933 1.377 . S
C932 C934 1.384 . S
C933 C932 1.377 . S
C933 C939 1.390 . S
C934 H925 0.930 . S
C934 C932 1.384 . S
C934 C935 1.372 . S
C935 C934 1.372 . S
C935 C936 1.400 . S
C935 C940 1.490 . S
C936 H926 0.930 . S
C936 C935 1.400 . S
C936 C939 1.386 . S
H937 C953 0.930 . S
H938 C954 0.931 . S
C939 H927 0.929 . S
C939 C933 1.390 . S
C939 C936 1.386 . S
C940 C935 1.490 . S
C940 C942 1.395 . S
C940 C943 1.403 . S
H941 C947 0.930 . S
C942 H928 0.930 . S
C942 C940 1.395 . S
C942 C945 1.403 . S
C943 C940 1.403 . S
C943 C944 1.524 . S
C943 C947 1.400 . S
C944 H929 0.960 . S
C944 H930 0.960 . S
C944 H931 0.960 . S
C944 C943 1.524 . S
C945 C942 1.403 . S
C945 C946 1.392 . S
C945 C949 1.495 . S
C946 C945 1.392 . S
C946 C947 1.385 . S
C946 C948 1.478 . S
C947 H941 0.930 . S
C947 C943 1.400 . S
C947 C946 1.385 . S
C948 C946 1.478 . S
C948 C950 1.381 . S
C948 C954 1.383 . S
C949 C945 1.495 . S
C949 H955 0.959 . S
C949 H956 0.961 . S
C949 H957 0.960 . S
C950 C948 1.381 . S
C950 C951 1.394 . S
C950 H958 0.930 . S
C951 C950 1.394 . S
C951 C952 1.383 . S
C951 H959 0.929 . S
C952 C951 1.383 . S
C952 C953 1.377 . S
C953 H937 0.930 . S
C953 C952 1.377 . S
C953 C954 1.379 . S
C954 H938 0.931 . S
C954 C948 1.383 . S
C954 C953 1.379 . S
H955 C949 0.959 . S
H956 C949 0.961 . S
H957 C949 0.960 . S
H958 C950 0.930 . S
H959 C951 0.929 . S
H960 C968 0.929 . S
H961 C970 0.930 . S
H962 C972 0.930 . S
H963 C975 0.929 . S
H964 C978 0.930 . S
H965 C980 0.960 . S
H966 C980 0.960 . S
H967 C980 0.960 . S
C968 H960 0.929 . S
C968 C969 1.377 . S
C968 C970 1.384 . S
C969 C968 1.377 . S
C969 C975 1.390 . S
C970 H961 0.930 . S
C970 C968 1.384 . S
C970 C971 1.372 . S
C971 C970 1.372 . S
C971 C972 1.400 . S
C971 C976 1.490 . S
C972 H962 0.930 . S
C972 C971 1.400 . S
C972 C975 1.386 . S
H973 C989 0.930 . S
H974 C990 0.931 . S
C975 H963 0.929 . S
C975 C969 1.390 . S
C975 C972 1.386 . S
C976 C971 1.490 . S
C976 C978 1.395 . S
C976 C979 1.403 . S
H977 C983 0.930 . S
C978 H964 0.930 . S
C978 C976 1.395 . S
C978 C981 1.403 . S
C979 C976 1.403 . S
C979 C980 1.524 . S
C979 C983 1.400 . S
C980 H965 0.960 . S
C980 H966 0.960 . S
C980 H967 0.960 . S
C980 C979 1.524 . S
C981 C978 1.403 . S
C981 C982 1.392 . S
C981 C985 1.495 . S
C982 C981 1.392 . S
C982 C983 1.385 . S
C982 C984 1.478 . S
C983 H977 0.930 . S
C983 C979 1.400 . S
C983 C982 1.385 . S
C984 C982 1.478 . S
C984 C986 1.381 . S
C984 C990 1.383 . S
C985 C981 1.495 . S
C985 H991 0.959 . S
C985 H992 0.961 . S
C985 H993 0.960 . S
C986 C984 1.381 . S
C986 C987 1.394 . S
C986 H994 0.930 . S
C987 C986 1.394 . S
C987 C988 1.383 . S
C987 H995 0.929 . S
C988 C987 1.383 . S
C988 C989 1.377 . S
C989 H973 0.930 . S
C989 C988 1.377 . S
C989 C990 1.379 . S
C990 H974 0.931 . S
C990 C984 1.383 . S
C990 C989 1.379 . S
H991 C985 0.959 . S
H992 C985 0.961 . S
H993 C985 0.960 . S
H994 C986 0.930 . S
H995 C987 0.929 . S
H996 C1004 0.929 . S
H997 C1006 0.930 . S
H998 C1008 0.930 . S
H999 C1011 0.929 . S
H1000 C1014 0.930 . S
H1001 C1016 0.960 . S
H1002 C1016 0.960 . S
H1003 C1016 0.960 . S
C1004 H996 0.929 . S
C1004 C1005 1.377 . S
C1004 C1006 1.384 . S
C1005 C1004 1.377 . S
C1005 C1011 1.390 . S
C1006 H997 0.930 . S
C1006 C1004 1.384 . S
C1006 C1007 1.372 . S
C1007 C1006 1.372 . S
C1007 C1008 1.400 . S
C1007 C1012 1.490 . S
C1008 H998 0.930 . S
C1008 C1007 1.400 . S
C1008 C1011 1.386 . S
H1009 C1025 0.930 . S
H1010 C1026 0.931 . S
C1011 H999 0.929 . S
C1011 C1005 1.390 . S
C1011 C1008 1.386 . S
C1012 C1007 1.490 . S
C1012 C1014 1.395 . S
C1012 C1015 1.403 . S
H1013 C1019 0.930 . S
C1014 H1000 0.930 . S
C1014 C1012 1.395 . S
C1014 C1017 1.403 . S
C1015 C1012 1.403 . S
C1015 C1016 1.524 . S
C1015 C1019 1.400 . S
C1016 H1001 0.960 . S
C1016 H1002 0.960 . S
C1016 H1003 0.960 . S
C1016 C1015 1.524 . S
C1017 C1014 1.403 . S
C1017 C1018 1.392 . S
C1017 C1021 1.495 . S
C1018 C1017 1.392 . S
C1018 C1019 1.385 . S
C1018 C1020 1.478 . S
C1019 H1013 0.930 . S
C1019 C1015 1.400 . S
C1019 C1018 1.385 . S
C1020 C1018 1.478 . S
C1020 C1022 1.381 . S
C1020 C1026 1.383 . S
C1021 C1017 1.495 . S
C1021 H1027 0.959 . S
C1021 H1028 0.961 . S
C1021 H1029 0.960 . S
C1022 C1020 1.381 . S
C1022 C1023 1.394 . S
C1022 H1030 0.930 . S
C1023 C1022 1.394 . S
C1023 C1024 1.383 . S
C1023 H1031 0.929 . S
C1024 C1023 1.383 . S
C1024 C1025 1.377 . S
C1025 H1009 0.930 . S
C1025 C1024 1.377 . S
C1025 C1026 1.379 . S
C1026 H1010 0.931 . S
C1026 C1020 1.383 . S
C1026 C1025 1.379 . S
H1027 C1021 0.959 . S
H1028 C1021 0.961 . S
H1029 C1021 0.960 . S
H1030 C1022 0.930 . S
H1031 C1023 0.929 . S
H1032 C1040 0.929 . S
H1033 C1042 0.930 . S
H1034 C1044 0.930 . S
H1035 C1047 0.929 . S
H1036 C1050 0.930 . S
H1037 C1052 0.960 . S
H1038 C1052 0.960 . S
H1039 C1052 0.960 . S
C1040 H1032 0.929 . S
C1040 C1041 1.377 . S
C1040 C1042 1.384 . S
C1041 C1040 1.377 . S
C1041 C1047 1.390 . S
C1042 H1033 0.930 . S
C1042 C1040 1.384 . S
C1042 C1043 1.372 . S
C1043 C1042 1.372 . S
C1043 C1044 1.400 . S
C1043 C1048 1.490 . S
C1044 H1034 0.930 . S
C1044 C1043 1.400 . S
C1044 C1047 1.386 . S
H1045 C1061 0.930 . S
H1046 C1062 0.931 . S
C1047 H1035 0.929 . S
C1047 C1041 1.390 . S
C1047 C1044 1.386 . S
C1048 C1043 1.490 . S
C1048 C1050 1.395 . S
C1048 C1051 1.403 . S
H1049 C1055 0.930 . S
C1050 H1036 0.930 . S
C1050 C1048 1.395 . S
C1050 C1053 1.403 . S
C1051 C1048 1.403 . S
C1051 C1052 1.524 . S
C1051 C1055 1.400 . S
C1052 H1037 0.960 . S
C1052 H1038 0.960 . S
C1052 H1039 0.960 . S
C1052 C1051 1.524 . S
C1053 C1050 1.403 . S
C1053 C1054 1.392 . S
C1053 C1057 1.495 . S
C1054 C1053 1.392 . S
C1054 C1055 1.385 . S
C1054 C1056 1.478 . S
C1055 H1049 0.930 . S
C1055 C1051 1.400 . S
C1055 C1054 1.385 . S
C1056 C1054 1.478 . S
C1056 C1058 1.381 . S
C1056 C1062 1.383 . S
C1057 C1053 1.495 . S
C1057 H1063 0.959 . S
C1057 H1064 0.961 . S
C1057 H1065 0.960 . S
C1058 C1056 1.381 . S
C1058 C1059 1.394 . S
C1058 H1066 0.930 . S
C1059 C1058 1.394 . S
C1059 C1060 1.383 . S
C1059 H1067 0.929 . S
C1060 C1059 1.383 . S
C1060 C1061 1.377 . S
C1061 H1045 0.930 . S
C1061 C1060 1.377 . S
C1061 C1062 1.379 . S
C1062 H1046 0.931 . S
C1062 C1056 1.383 . S
C1062 C1061 1.379 . S
H1063 C1057 0.959 . S
H1064 C1057 0.961 . S
H1065 C1057 0.960 . S
H1066 C1058 0.930 . S
H1067 C1059 0.929 . S
H1068 C1076 0.929 . S
H1069 C1078 0.930 . S
H1070 C1080 0.930 . S
H1071 C1083 0.929 . S
H1072 C1086 0.930 . S
H1073 C1088 0.960 . S
H1074 C1088 0.960 . S
H1075 C1088 0.960 . S
C1076 H1068 0.929 . S
C1076 C1077 1.377 . S
C1076 C1078 1.384 . S
C1077 C1076 1.377 . S
C1077 C1083 1.390 . S
C1078 H1069 0.930 . S
C1078 C1076 1.384 . S
C1078 C1079 1.372 . S
C1079 C1078 1.372 . S
C1079 C1080 1.400 . S
C1079 C1084 1.490 . S
C1080 H1070 0.930 . S
C1080 C1079 1.400 . S
C1080 C1083 1.386 . S
H1081 C1097 0.930 . S
H1082 C1098 0.931 . S
C1083 H1071 0.929 . S
C1083 C1077 1.390 . S
C1083 C1080 1.386 . S
C1084 C1079 1.490 . S
C1084 C1086 1.395 . S
C1084 C1087 1.403 . S
H1085 C1091 0.930 . S
C1086 H1072 0.930 . S
C1086 C1084 1.395 . S
C1086 C1089 1.403 . S
C1087 C1084 1.403 . S
C1087 C1088 1.524 . S
C1087 C1091 1.400 . S
C1088 H1073 0.960 . S
C1088 H1074 0.960 . S
C1088 H1075 0.960 . S
C1088 C1087 1.524 . S
C1089 C1086 1.403 . S
C1089 C1090 1.392 . S
C1089 C1093 1.495 . S
C1090 C1089 1.392 . S
C1090 C1091 1.385 . S
C1090 C1092 1.478 . S
C1091 H1085 0.930 . S
C1091 C1087 1.400 . S
C1091 C1090 1.385 . S
C1092 C1090 1.478 . S
C1092 C1094 1.381 . S
C1092 C1098 1.383 . S
C1093 C1089 1.495 . S
C1093 H1099 0.959 . S
C1093 H1100 0.961 . S
C1093 H1101 0.960 . S
C1094 C1092 1.381 . S
C1094 C1095 1.394 . S
C1094 H1102 0.930 . S
C1095 C1094 1.394 . S
C1095 C1096 1.383 . S
C1095 H1103 0.929 . S
C1096 C1095 1.383 . S
C1096 C1097 1.377 . S
C1097 H1081 0.930 . S
C1097 C1096 1.377 . S
C1097 C1098 1.379 . S
C1098 H1082 0.931 . S
C1098 C1092 1.383 . S
C1098 C1097 1.379 . S
H1099 C1093 0.959 . S
H1100 C1093 0.961 . S
H1101 C1093 0.960 . S
H1102 C1094 0.930 . S
H1103 C1095 0.929 . S
C249 C8 1.366 . S
C268 C90 1.334 . S
C285 C31 1.432 . S
C304 C109 1.394 . S
C321 C53 1.177 . S
C340 C132 1.180 . S
C376 C151 1.135 . S
C357 C74 1.114 . S
C412 C166 1.334 . S
C393 C26 1.367 . S
C429 C48 1.110 . S
C448 C189 1.119 . S
C465 C71 1.185 . S
C484 C208 1.179 . S
C501 C5 1.428 . S
C520 C223 1.374 . S
C537 C50 1.177 . S
C556 C227 1.197 . S
C592 C170 1.113 . S
C573 C70 1.113 . S
C628 C185 1.322 . S
C609 C4 1.362 . S
C645 C28 1.428 . S
C664 C204 1.370 . S
C700 C113 1.150 . S
C681 C73 1.185 . S
C717 C7 1.429 . S
C736 C128 1.374 . S
C772 C147 1.259 . S
C753 C30 1.369 . S
C808 C94 1.135 . S
C789 C52 1.110 . S
C844 C213 1.219 . S
C825 C9 1.369 . S
C880 C232 1.266 . S
C861 C29 1.371 . S
C897 C51 1.262 . S
C916 C175 1.214 . S
C952 C194 1.117 . S
C933 C75 1.262 . S
C988 C137 1.219 . S
C969 C27 1.368 . S
C1005 C49 1.258 . S
C1024 C156 1.206 . S
C1060 C99 1.121 . S
C1041 C72 1.260 . S
C1096 C118 1.227 . S
C1077 C6 1.366 . S
