# Generated by pormake.
# Topology zzz, (3,6)-cn, num edge types: 1
# Building blocks:
#     Node 0, Type 0, BuildingBlock: BELTOD_clean_linker_0, # of connection points: 3
#     Node 1, Type 0, BuildingBlock: BELTOD_clean_linker_0, # of connection points: 3
#     Node 2, Type 0, BuildingBlock: BELTOD_clean_linker_0, # of connection points: 3
#     Node 3, Type 0, BuildingBlock: BELTOD_clean_linker_0, # of connection points: 3
#     Node 4, Type 0, BuildingBlock: BELTOD_clean_linker_0, # of connection points: 3
#     Node 5, Type 0, BuildingBlock: BELTOD_clean_linker_0, # of connection points: 3
#     Node 6, Type 0, BuildingBlock: BELTOD_clean_linker_0, # of connection points: 3
#     Node 7, Type 0, BuildingBlock: BELTOD_clean_linker_0, # of connection points: 3
#     Node 8, Type 1, BuildingBlock: VOLQOD_clean_sbu_1, # of connection points: 6
#     Node 9, Type 1, BuildingBlock: VOLQOD_clean_sbu_1, # of connection points: 6
#     Node 10, Type 1, BuildingBlock: VOLQOD_clean_sbu_1, # of connection points: 6
#     Node 11, Type 1, BuildingBlock: VOLQOD_clean_sbu_1, # of connection points: 6
#     Edge 12, Type (0, 1), BuildingBlock: UVAHIK_clean_linker_0, # of connection points: 2
#     Edge 13, Type (0, 1), BuildingBlock: UVAHIK_clean_linker_0, # of connection points: 2
#     Edge 14, Type (0, 1), BuildingBlock: UVAHIK_clean_linker_0, # of connection points: 2
#     Edge 15, Type (0, 1), BuildingBlock: UVAHIK_clean_linker_0, # of connection points: 2
#     Edge 16, Type (0, 1), BuildingBlock: UVAHIK_clean_linker_0, # of connection points: 2
#     Edge 17, Type (0, 1), BuildingBlock: UVAHIK_clean_linker_0, # of connection points: 2
#     Edge 18, Type (0, 1), BuildingBlock: UVAHIK_clean_linker_0, # of connection points: 2
#     Edge 19, Type (0, 1), BuildingBlock: UVAHIK_clean_linker_0, # of connection points: 2
#     Edge 20, Type (0, 1), BuildingBlock: UVAHIK_clean_linker_0, # of connection points: 2
#     Edge 21, Type (0, 1), BuildingBlock: UVAHIK_clean_linker_0, # of connection points: 2
#     Edge 22, Type (0, 1), BuildingBlock: UVAHIK_clean_linker_0, # of connection points: 2
#     Edge 23, Type (0, 1), BuildingBlock: UVAHIK_clean_linker_0, # of connection points: 2
#     Edge 24, Type (0, 1), BuildingBlock: UVAHIK_clean_linker_0, # of connection points: 2
#     Edge 25, Type (0, 1), BuildingBlock: UVAHIK_clean_linker_0, # of connection points: 2
#     Edge 26, Type (0, 1), BuildingBlock: UVAHIK_clean_linker_0, # of connection points: 2
#     Edge 27, Type (0, 1), BuildingBlock: UVAHIK_clean_linker_0, # of connection points: 2
#     Edge 28, Type (0, 1), BuildingBlock: UVAHIK_clean_linker_0, # of connection points: 2
#     Edge 29, Type (0, 1), BuildingBlock: UVAHIK_clean_linker_0, # of connection points: 2
#     Edge 30, Type (0, 1), BuildingBlock: UVAHIK_clean_linker_0, # of connection points: 2
#     Edge 31, Type (0, 1), BuildingBlock: UVAHIK_clean_linker_0, # of connection points: 2
#     Edge 32, Type (0, 1), BuildingBlock: UVAHIK_clean_linker_0, # of connection points: 2
#     Edge 33, Type (0, 1), BuildingBlock: UVAHIK_clean_linker_0, # of connection points: 2
#     Edge 34, Type (0, 1), BuildingBlock: UVAHIK_clean_linker_0, # of connection points: 2
#     Edge 35, Type (0, 1), BuildingBlock: UVAHIK_clean_linker_0, # of connection points: 2
# Relax obj value: 0.337
# Max RMSD: 0.254
# Mean RMSD: 0.197
data_MOF--net-zzz--node1-VOLQOD_clean_sbu_1--node2-BELTOD_clean_linker_0--edge1-UVAHIK_clean_linker_0
_symmetry_space_group_name_H-M    P1
_symmetry_Int_Tables_number       1
_symmetry_cell_setting            triclinic
loop_
_symmetry_equiv_pos_as_xyz
'x, y, z'
_cell_length_a     67.628194
_cell_length_b     66.492689
_cell_length_c     26.340375
_cell_angle_alpha  90.159507
_cell_angle_beta   90.183645
_cell_angle_gamma 92.08383
loop_
_atom_site_label
_atom_site_type_symbol
_atom_site_fract_x
_atom_site_fract_y
_atom_site_fract_z
_atom_type_partial_charge
P0 P 0.76832 0.39527 0.17238 0.0
H1 H 0.77806 0.39219 0.28025 0.0
H2 H 0.79648 0.41505 0.33738 0.0
H3 H 0.79691 0.46117 0.22225 0.0
H4 H 0.77836 0.43821 0.1652 0.0
H5 H 0.74897 0.37831 0.0831 0.0
H6 H 0.72165 0.38912 0.03034 0.0
H7 H 0.71216 0.43822 0.13437 0.0
H8 H 0.73979 0.42747 0.18651 0.0
H9 H 0.80465 0.37294 0.17741 0.0
H10 H 0.77768 0.41445 0.07496 0.0
O11 O 0.76353 0.37308 0.20001 0.0
H12 H 0.8343 0.37319 0.12388 0.0
H13 H 0.80695 0.41454 0.02133 0.0
C14 C 0.77673 0.41357 0.21867 0.0
C15 C 0.78154 0.40741 0.26782 0.0
C16 C 0.79215 0.42045 0.30036 0.0
C17 C 0.79822 0.43983 0.28408 0.0
C18 C 0.79224 0.44642 0.23599 0.0
C19 C 0.78168 0.43331 0.20337 0.0
C20 C 0.74667 0.40234 0.13796 0.0
C21 C 0.7409 0.39132 0.0947 0.0
C22 C 0.7252 0.39746 0.06475 0.0
C23 C 0.71482 0.41465 0.07792 0.0
C24 C 0.72012 0.42516 0.12267 0.0
C25 C 0.7359 0.419 0.15259 0.0
C26 C 0.78872 0.39314 0.12931 0.0
C27 C 0.80492 0.3817 0.1428 0.0
C28 C 0.82187 0.38197 0.11246 0.0
C29 C 0.82283 0.39372 0.06817 0.0
C30 C 0.80646 0.405 0.0546 0.0
C31 C 0.78967 0.4049 0.08523 0.0
P32 P 0.04424 0.74502 0.21362 0.0
H33 H 0.04445 0.75161 0.32356 0.0
H34 H 0.02492 0.77309 0.37769 0.0
H35 H 0.98704 0.7859 0.25033 0.0
H36 H 0.00667 0.76431 0.19629 0.0
H37 H 0.05956 0.72436 0.1266 0.0
H38 H 0.04473 0.70049 0.06568 0.0
H39 H 0.991 0.69751 0.15378 0.0
H40 H 0.00585 0.72184 0.21468 0.0
H41 H 0.07833 0.77389 0.21716 0.0
H42 H 0.02844 0.76019 0.119 0.0
O43 O 0.06326 0.73616 0.24609 0.0
H44 H 0.08921 0.80121 0.15969 0.0
H45 H 0.03901 0.78717 0.06231 0.0
C46 C 0.02702 0.75638 0.2559 0.0
C47 C 0.03162 0.75856 0.30756 0.0
C48 C 0.02039 0.77082 0.33855 0.0
C49 C 0.00452 0.7813 0.31816 0.0
C50 C -0.0007 0.77817 0.26696 0.0
C51 C 0.01045 0.76578 0.23612 0.0
C52 C 0.0337 0.72511 0.17458 0.0
C53 C 0.04463 0.71849 0.1331 0.0
C54 C 0.03613 0.70496 0.09819 0.0
C55 C 0.01664 0.69747 0.10472 0.0
C56 C 0.00602 0.70321 0.14788 0.0
C57 C 0.01448 0.71709 0.18256 0.0
C58 C 0.0529 0.76468 0.17156 0.0
C59 C 0.06986 0.77662 0.18306 0.0
C60 C 0.076 0.79224 0.15042 0.0
C61 C 0.06518 0.79606 0.10598 0.0
C62 C 0.048 0.78424 0.09541 0.0
C63 C 0.04188 0.76883 0.12798 0.0
P64 P 0.76546 0.07643 0.17451 0.0
H65 H 0.76928 0.0717 0.28454 0.0
H66 H 0.75145 0.05019 0.34585 0.0
H67 H 0.71693 0.02323 0.22341 0.0
H68 H 0.73489 0.04443 0.16271 0.0
H69 H 0.80326 0.09228 0.13608 0.0
H70 H 0.83045 0.07657 0.09169 0.0
H71 H 0.80017 0.01853 0.10575 0.0
H72 H 0.77308 0.03429 0.15012 0.0
H73 H 0.73638 0.10774 0.16746 0.0
H74 H 0.75536 0.05823 0.07589 0.0
O75 O 0.77332 0.09746 0.20422 0.0
H76 H 0.71004 0.11396 0.10619 0.0
H77 H 0.72879 0.06368 0.016 0.0
C78 C 0.75309 0.05999 0.21928 0.0
C79 C 0.75791 0.06111 0.271 0.0
C80 C 0.74772 0.04882 0.30593 0.0
C81 C 0.73272 0.03507 0.28948 0.0
C82 C 0.72852 0.0335 0.2373 0.0
C83 C 0.73864 0.04583 0.20255 0.0
C84 C 0.78631 0.06443 0.14709 0.0
C85 C 0.80265 0.07613 0.13042 0.0
C86 C 0.81818 0.06714 0.10516 0.0
C87 C 0.81743 0.04632 0.09544 0.0
C88 C 0.80109 0.03461 0.11259 0.0
C89 C 0.78567 0.0436 0.13828 0.0
C90 C 0.74806 0.08277 0.1258 0.0
C91 C 0.73507 0.09841 0.13376 0.0
C92 C 0.71988 0.10179 0.09897 0.0
C93 C 0.71724 0.08935 0.05597 0.0
C94 C 0.73058 0.07389 0.0479 0.0
C95 C 0.74582 0.07068 0.0824 0.0
P96 P 0.51198 0.74775 0.22195 0.0
H97 H 0.51729 0.75268 0.33195 0.0
H98 H 0.53713 0.73449 0.39283 0.0
H99 H 0.56588 0.70456 0.26867 0.0
H100 H 0.54683 0.72373 0.20841 0.0
H101 H 0.51107 0.79168 0.22263 0.0
H102 H 0.52167 0.81712 0.16043 0.0
H103 H 0.54704 0.77092 0.06829 0.0
H104 H 0.53678 0.74556 0.13118 0.0
H105 H 0.50743 0.7047 0.24518 0.0
H106 H 0.49446 0.74373 0.11971 0.0
O107 O 0.49313 0.7572 0.25377 0.0
H108 H 0.50015 0.67532 0.19174 0.0
H109 H 0.48707 0.71427 0.06605 0.0
C110 C 0.53031 0.73918 0.26577 0.0
C111 C 0.52831 0.74266 0.3179 0.0
C112 C 0.53956 0.73207 0.35269 0.0
C113 C 0.55272 0.71754 0.33587 0.0
C114 C 0.55598 0.71559 0.28333 0.0
C115 C 0.545 0.7265 0.24862 0.0
C116 C 0.52266 0.76671 0.18071 0.0
C117 C 0.51919 0.78707 0.18947 0.0
C118 C 0.52534 0.8016 0.15409 0.0
C119 C 0.53495 0.79591 0.10934 0.0
C120 C 0.53944 0.77563 0.10222 0.0
C121 C 0.53359 0.76117 0.13807 0.0
C122 C 0.5026 0.7264 0.18557 0.0
C123 C 0.50299 0.70699 0.20618 0.0
C124 C 0.49873 0.69019 0.17571 0.0
C125 C 0.49351 0.69253 0.12447 0.0
C126 C 0.4912 0.71202 0.10534 0.0
C127 C 0.49562 0.72886 0.13584 0.0
P128 P 0.24367 0.4846 0.20417 0.0
H129 H 0.2411 0.46221 0.10837 0.0
H130 H 0.22634 0.47171 0.02804 0.0
H131 H 0.22827 0.53396 0.07585 0.0
H132 H 0.24236 0.52422 0.15701 0.0
H133 H 0.26326 0.46593 0.28861 0.0
H134 H 0.29299 0.47482 0.33735 0.0
H135 H 0.30369 0.52671 0.2415 0.0
H136 H 0.2741 0.51738 0.19197 0.0
H137 H 0.20287 0.48889 0.17315 0.0
H138 H 0.23924 0.50584 0.30235 0.0
O139 O 0.23961 0.45972 0.20694 0.0
H140 H 0.17531 0.50632 0.20956 0.0
H141 H 0.21129 0.52234 0.3407 0.0
C142 C 0.24268 0.49247 0.13892 0.0
C143 C 0.23918 0.47801 0.10082 0.0
C144 C 0.23075 0.48351 0.05464 0.0
C145 C 0.2257 0.50355 0.04607 0.0
C146 C 0.23167 0.51835 0.08175 0.0
C147 C 0.24002 0.51282 0.12797 0.0
C148 C 0.26662 0.49079 0.23617 0.0
C149 C 0.27214 0.47907 0.2776 0.0
C150 C 0.28901 0.48432 0.30586 0.0
C151 C 0.30064 0.50156 0.29352 0.0
C152 C 0.29513 0.51325 0.25168 0.0
C153 C 0.27818 0.50795 0.22336 0.0
C154 C 0.2232 0.49626 0.23463 0.0
C155 C 0.20488 0.49623 0.20967 0.0
C156 C 0.18903 0.50611 0.23081 0.0
C157 C 0.191 0.51582 0.27818 0.0
C158 C 0.20932 0.5154 0.30371 0.0
C159 C 0.22531 0.50575 0.28202 0.0
P160 P 0.1251 0.24108 0.22244 0.0
H161 H 0.15064 0.22802 0.13964 0.0
H162 H 0.14363 0.20685 0.06534 0.0
H163 H 0.08104 0.2088 0.09706 0.0
H164 H 0.08816 0.23027 0.17002 0.0
H165 H 0.14097 0.28263 0.22809 0.0
H166 H 0.12658 0.3137 0.25744 0.0
H167 H 0.06964 0.28241 0.27112 0.0
H168 H 0.08396 0.25184 0.23962 0.0
H169 H 0.12278 0.19708 0.22082 0.0
H170 H 0.10758 0.24439 0.32472 0.0
O171 O 0.1495 0.24395 0.23109 0.0
H172 H 0.10544 0.17239 0.27448 0.0
H173 H 0.08977 0.2197 0.37782 0.0
C174 C 0.1199 0.23093 0.16016 0.0
C175 C 0.13538 0.22446 0.12957 0.0
C176 C 0.13135 0.21212 0.08739 0.0
C177 C 0.11177 0.2059 0.07542 0.0
C178 C 0.09628 0.21347 0.10453 0.0
C179 C 0.10032 0.22586 0.14643 0.0
C180 C 0.11363 0.26482 0.23252 0.0
C181 C 0.12529 0.2826 0.23628 0.0
C182 C 0.11705 0.30034 0.25356 0.0
C183 C 0.097 0.30053 0.2679 0.0
C184 C 0.08507 0.28299 0.26025 0.0
C185 C 0.09328 0.26537 0.24224 0.0
C186 C 0.11564 0.22273 0.26735 0.0
C187 C 0.11579 0.20219 0.25521 0.0
C188 C 0.10597 0.18805 0.28605 0.0
C189 C 0.09592 0.19424 0.32963 0.0
C190 C 0.09703 0.21464 0.34373 0.0
C191 C 0.10713 0.22874 0.31324 0.0
P192 P 0.28314 0.06167 0.19969 0.0
H193 H 0.28685 0.08483 0.10566 0.0
H194 H 0.30518 0.07879 0.02763 0.0
H195 H 0.3169 0.0187 0.07932 0.0
H196 H 0.29797 0.02461 0.15595 0.0
H197 H 0.25173 0.08155 0.2531 0.0
H198 H 0.21995 0.06912 0.28631 0.0
H199 H 0.22765 0.01202 0.21215 0.0
H200 H 0.25922 0.02488 0.17664 0.0
H201 H 0.32274 0.07275 0.23599 0.0
H202 H 0.27995 0.02387 0.25862 0.0
O203 O 0.28582 0.08656 0.20728 0.0
H204 H 0.34678 0.05495 0.28719 0.0
H205 H 0.30381 0.00615 0.30915 0.0
C206 C 0.29144 0.05533 0.13704 0.0
C207 C 0.29292 0.07018 0.09951 0.0
C208 C 0.30356 0.06675 0.05508 0.0
C209 C 0.31294 0.04842 0.04765 0.0
C210 C 0.30988 0.03298 0.08353 0.0
C211 C 0.29912 0.03639 0.12771 0.0
C212 C 0.25781 0.05415 0.21227 0.0
C213 C 0.24632 0.06662 0.2423 0.0
C214 C 0.22817 0.05951 0.26139 0.0
C215 C 0.2215 0.03964 0.2518 0.0
C216 C 0.23255 0.02742 0.21985 0.0
C217 C 0.25048 0.03478 0.19947 0.0
C218 C 0.2994 0.04988 0.24403 0.0
C219 C 0.31836 0.05843 0.25276 0.0
C220 C 0.33208 0.04823 0.28187 0.0
C221 C 0.32714 0.02914 0.30196 0.0
C222 C 0.30805 0.02076 0.29373 0.0
C223 C 0.29431 0.03103 0.26506 0.0
P224 P 0.41594 0.24894 0.17197 0.0
H225 H 0.39922 0.25535 0.07039 0.0
H226 H 0.41018 0.27824 0.00242 0.0
H227 H 0.46592 0.28873 0.07982 0.0
H228 H 0.45522 0.26552 0.14688 0.0
H229 H 0.3995 0.21916 0.24103 0.0
H230 H 0.41381 0.19079 0.28449 0.0
H231 H 0.46699 0.1988 0.19523 0.0
H232 H 0.45233 0.22701 0.15099 0.0
H233 H 0.4017 0.28896 0.19238 0.0
H234 H 0.4465 0.25079 0.25171 0.0
O235 O 0.39132 0.24733 0.16718 0.0
H236 H 0.4156 0.31715 0.24252 0.0
H237 H 0.46067 0.27874 0.30031 0.0
C238 C 0.42634 0.25883 0.11392 0.0
C239 C 0.4141 0.26189 0.07173 0.0
C240 C 0.42034 0.275 0.03297 0.0
C241 C 0.43876 0.28536 0.03649 0.0
C242 C 0.45161 0.28096 0.07654 0.0
C243 C 0.44552 0.26761 0.11469 0.0
C244 C 0.42473 0.22504 0.19237 0.0
C245 C 0.41399 0.21442 0.22963 0.0
C246 C 0.4223 0.19837 0.25494 0.0
C247 C 0.44165 0.19274 0.24382 0.0
C248 C 0.45201 0.20271 0.20445 0.0
C249 C 0.44363 0.21883 0.17905 0.0
C250 C 0.42279 0.26766 0.2189 0.0
C251 C 0.41415 0.28649 0.21727 0.0
C252 C 0.42229 0.30265 0.24537 0.0
C253 C 0.43934 0.30025 0.2752 0.0
C254 C 0.44738 0.28109 0.27843 0.0
C255 C 0.43921 0.26499 0.25047 0.0
O256 O 0.0682 0.99778 0.65117 0.0
Zn257 Zn 0.04949 0.99807 0.71175 0.0
O258 O 0.02163 0.99715 0.68809 0.0
Zn259 Zn 0.00887 0.02146 0.70919 0.0
Zn260 Zn 0.02002 0.99541 0.61421 0.0
Zn261 Zn 0.00716 0.97399 0.71647 0.0
O262 O 0.98389 0.01528 0.74769 0.0
O263 O 0.98424 0.98226 0.76004 0.0
O264 O 0.05577 0.02344 0.75336 0.0
O265 O 0.02682 0.03812 0.75398 0.0
O266 O 0.00325 0.03925 0.65012 0.0
O267 O 0.00874 0.02012 0.58304 0.0
O268 O 0.00514 0.97037 0.58982 0.0
O269 O 0.05485 0.97399 0.75646 0.0
O270 O 0.99654 0.95529 0.66182 0.0
O271 O 0.02546 0.95777 0.75794 0.0
C272 C 0.06484 0.99639 0.60355 0.0
C273 C 0.97643 0.9992 0.76695 0.0
C274 C 0.00366 0.03672 0.60228 0.0
C275 C 0.0449 0.03772 0.76729 0.0
C276 C 0.99685 0.95569 0.61352 0.0
C277 C 0.04363 0.95925 0.77063 0.0
O278 O 0.0473 0.99499 0.58598 0.0
O279 O 0.51557 0.04478 0.62432 0.0
Zn280 Zn 0.51951 0.0258 0.68346 0.0
O281 O 0.52519 0.99861 0.65886 0.0
Zn282 Zn 0.50435 0.97941 0.68016 0.0
Zn283 Zn 0.52672 0.99853 0.58485 0.0
Zn284 Zn 0.55029 0.99015 0.68651 0.0
O285 O 0.51519 0.95652 0.72035 0.0
O286 O 0.54668 0.9661 0.73255 0.0
O287 O 0.49446 0.02533 0.72529 0.0
O288 O 0.48463 0.99311 0.72405 0.0
O289 O 0.48868 0.96865 0.62049 0.0
O290 O 0.5046 0.98154 0.55403 0.0
O291 O 0.55296 0.98925 0.55994 0.0
O292 O 0.54212 0.03732 0.72676 0.0
O293 O 0.56923 0.98303 0.63111 0.0
O294 O 0.56351 0.0127 0.72569 0.0
C295 C 0.51792 0.04285 0.57656 0.0
C296 C 0.53208 0.95385 0.74027 0.0
C297 C 0.4904 0.97091 0.57272 0.0
C298 C 0.48226 0.0112 0.7381 0.0
C299 C 0.56841 0.98362 0.58285 0.0
C300 C 0.55875 0.03028 0.73902 0.0
O301 O 0.52289 0.02622 0.55726 0.0
O302 O 0.47553 0.50539 0.64132 0.0
Zn303 Zn 0.49649 0.49893 0.69336 0.0
O304 O 0.52244 0.49639 0.6604 0.0
Zn305 Zn 0.53106 0.46891 0.66718 0.0
Zn306 Zn 0.52059 0.50274 0.58827 0.0
Zn307 Zn 0.54206 0.51471 0.69204 0.0
O308 O 0.55691 0.46777 0.70471 0.0
O309 O 0.5641 0.49968 0.72441 0.0
O310 O 0.48789 0.47305 0.72955 0.0
O311 O 0.51137 0.45233 0.70687 0.0
O312 O 0.53289 0.45509 0.59987 0.0
O313 O 0.52548 0.4786 0.54419 0.0
O314 O 0.53901 0.52589 0.56887 0.0
O315 O 0.49753 0.52149 0.74513 0.0
O316 O 0.55371 0.53458 0.64151 0.0
O317 O 0.5294 0.53089 0.74662 0.0
C318 C 0.47663 0.5102 0.59455 0.0
C319 C 0.56808 0.48111 0.72609 0.0
C320 C 0.52995 0.46061 0.55435 0.0
C321 C 0.4953 0.45569 0.72981 0.0
C322 C 0.55108 0.53721 0.5941 0.0
C323 C 0.51181 0.53243 0.76286 0.0
O324 O 0.49305 0.51044 0.57102 0.0
O325 O 0.96913 0.52 0.59327 0.0
Zn326 Zn 0.99454 0.52575 0.63339 0.0
O327 O 0.0051 0.50053 0.66079 0.0
Zn328 Zn 0.00626 0.5017 0.7348 0.0
Zn329 Zn 0.98845 0.4774 0.63988 0.0
Zn330 Zn 0.03162 0.49659 0.63535 0.0
O331 O 0.03433 0.50051 0.76103 0.0
O332 O 0.05194 0.49759 0.69069 0.0
O333 O 0.98913 0.54546 0.69036 0.0
O334 O 0.99606 0.52787 0.75939 0.0
O335 O 0.98935 0.47958 0.76651 0.0
O336 O 0.97569 0.46368 0.70019 0.0
O337 O 0.00339 0.45689 0.59976 0.0
O338 O 0.01413 0.53921 0.58453 0.0
O339 O 0.03387 0.4703 0.59886 0.0
O340 O 0.03895 0.51809 0.58591 0.0
C341 C 0.96057 0.50337 0.58012 0.0
C342 C 0.05091 0.4991 0.73872 0.0
C343 C 0.97769 0.46596 0.74799 0.0
C344 C 0.99016 0.54383 0.73854 0.0
C345 C 0.02148 0.45623 0.58687 0.0
C346 C 0.03109 0.53392 0.56974 0.0
O347 O 0.96688 0.48657 0.59491 0.0
C348 C 0.18598 0.04037 0.27691 0.0
C349 C 0.20431 0.0313 0.28011 0.0
C350 C 0.1706 0.03447 0.30952 0.0
C351 C 0.15514 0.99587 0.40666 0.0
H352 H 0.12211 0.03881 0.45215 0.0
C353 C 0.10094 0.99429 0.58133 0.0
C354 C 0.08137 0.99797 0.5669 0.0
C355 C 0.11638 0.99671 0.54618 0.0
C356 C 0.13127 0.02671 0.43974 0.0
H357 H 0.22104 0.00881 0.31879 0.0
H358 H 0.19457 0.99899 0.37726 0.0
H359 H 0.14782 0.04596 0.38976 0.0
H360 H 0.06266 0.00704 0.50437 0.0
H361 H 0.08961 0.01176 0.44408 0.0
H362 H 0.13875 0.97691 0.45884 0.0
C363 C 0.19166 0.01018 0.34869 0.0
C364 C 0.14586 0.03069 0.40348 0.0
C365 C 0.20688 0.0158 0.31527 0.0
C366 C 0.07754 0.00396 0.51673 0.0
C367 C 0.09294 0.00675 0.48218 0.0
C368 C 0.14075 0.992 0.44382 0.0
C369 C 0.17343 0.01976 0.34704 0.0
C370 C 0.15787 0.01529 0.38587 0.0
C371 C 0.11245 0.00325 0.49663 0.0
C372 C 0.1286 0.00737 0.46015 0.0
H373 H 0.18372 0.05235 0.24994 0.0
H374 H 0.15663 0.04179 0.30592 0.0
H375 H 0.16389 0.98354 0.39376 0.0
H376 H 0.10432 0.98963 0.61966 0.0
H377 H 0.1314 0.99401 0.55802 0.0
C378 C 0.44929 0.17835 0.32906 0.0
C379 C 0.45139 0.17765 0.276 0.0
C380 C 0.45848 0.16444 0.35997 0.0
C381 C 0.47858 0.11392 0.35894 0.0
H382 H 0.50299 0.13133 0.48589 0.0
C383 C 0.51741 0.05823 0.48978 0.0
C384 C 0.51359 0.05977 0.5421 0.0
C385 C 0.51182 0.07331 0.4564 0.0
C386 C 0.49609 0.12619 0.45079 0.0
H387 H 0.46491 0.16184 0.21379 0.0
H388 H 0.48108 0.13743 0.26802 0.0
H389 H 0.48945 0.15617 0.42871 0.0
H390 H 0.50136 0.07872 0.60042 0.0
H391 H 0.49136 0.1049 0.5421 0.0
H392 H 0.48483 0.08392 0.38135 0.0
C393 C 0.47218 0.14873 0.28555 0.0
C394 C 0.48836 0.14043 0.41799 0.0
C395 C 0.46304 0.16277 0.25454 0.0
C396 C 0.50458 0.07706 0.56041 0.0
C397 C 0.49892 0.09213 0.52693 0.0
C398 C 0.48625 0.09967 0.39182 0.0
C399 C 0.47 0.14945 0.33864 0.0
C400 C 0.47933 0.13444 0.37193 0.0
C401 C 0.5022 0.09029 0.47441 0.0
C402 C 0.49495 0.1056 0.43838 0.0
H403 H 0.44068 0.18982 0.34688 0.0
H404 H 0.45633 0.16528 0.40064 0.0
H405 H 0.47149 0.10879 0.32407 0.0
H406 H 0.52447 0.0452 0.47434 0.0
H407 H 0.51492 0.07157 0.41635 0.0
C408 C 0.33615 0.51368 0.30106 0.0
C409 C 0.31841 0.50715 0.3244 0.0
C410 C 0.35321 0.51756 0.33011 0.0
C411 C 0.3712 0.52625 0.46214 0.0
H412 H 0.41936 0.50389 0.41063 0.0
C413 C 0.43961 0.51125 0.58741 0.0
C414 C 0.45842 0.51444 0.56568 0.0
C415 C 0.42251 0.51339 0.55818 0.0
C416 C 0.40614 0.51052 0.42526 0.0
H417 H 0.3044 0.50059 0.39676 0.0
H418 H 0.33421 0.50687 0.4472 0.0
H419 H 0.38959 0.50239 0.35862 0.0
H420 H 0.47395 0.52344 0.49686 0.0
H421 H 0.4442 0.52733 0.44634 0.0
H422 H 0.38776 0.53394 0.52939 0.0
C423 C 0.33496 0.50914 0.40654 0.0
C424 C 0.38906 0.50968 0.39538 0.0
C425 C 0.31793 0.50528 0.37754 0.0
C426 C 0.45972 0.52064 0.51474 0.0
C427 C 0.44266 0.52279 0.48564 0.0
C428 C 0.38832 0.52706 0.49213 0.0
C429 C 0.35288 0.51502 0.38312 0.0
C430 C 0.37133 0.51735 0.41362 0.0
C431 C 0.42388 0.51878 0.50668 0.0
C432 C 0.40593 0.51904 0.47416 0.0
H433 H 0.33703 0.5152 0.2602 0.0
H434 H 0.36673 0.52232 0.31098 0.0
H435 H 0.35785 0.53253 0.47703 0.0
H436 H 0.43808 0.50647 0.62652 0.0
H437 H 0.40825 0.51005 0.5754 0.0
C438 C 0.06921 0.32337 0.28972 0.0
C439 C 0.08907 0.31812 0.2954 0.0
C440 C 0.06129 0.33836 0.32014 0.0
C441 C 0.07075 0.36489 0.44258 0.0
H442 H 0.0315 0.4012 0.39314 0.0
C443 C 0.04857 0.4357 0.55187 0.0
C444 C 0.02826 0.43924 0.55578 0.0
C445 C 0.05519 0.42034 0.52071 0.0
C446 C 0.04231 0.391 0.40752 0.0
H447 H 0.11626 0.32513 0.33698 0.0
H448 H 0.10283 0.35179 0.38767 0.0
H449 H 0.04504 0.37638 0.3355 0.0
H450 H -0.00103 0.42937 0.53011 0.0
H451 H 0.01066 0.40261 0.47494 0.0
H452 H 0.06837 0.37991 0.51419 0.0
C453 C 0.09315 0.34394 0.36078 0.0
C454 C 0.05006 0.37677 0.37457 0.0
C455 C 0.10099 0.32884 0.33084 0.0
C456 C 0.0147 0.42696 0.52808 0.0
C457 C 0.02137 0.41175 0.49626 0.0
C458 C 0.06318 0.37925 0.47525 0.0
C459 C 0.07309 0.34859 0.35671 0.0
C460 C 0.0645 0.36361 0.3916 0.0
C461 C 0.04169 0.40834 0.49224 0.0
C462 C 0.04897 0.39252 0.458 0.0
H463 H 0.05963 0.31566 0.26235 0.0
H464 H 0.04577 0.34146 0.316 0.0
H465 H 0.08145 0.3547 0.45751 0.0
H466 H 0.0594 0.44486 0.57274 0.0
H467 H 0.07095 0.41814 0.51802 0.0
C468 C 0.82817 0.02404 0.02469 0.0
C469 C 0.83316 0.03709 0.06516 0.0
C470 C 0.84288 0.0166 0.99347 0.0
C471 C 0.87563 0.01776 0.91417 0.0
H472 H 0.92534 0.99877 0.96599 0.0
C473 C 0.94704 0.0176 0.7967 0.0
C474 C 0.95859 0.00047 0.79897 0.0
C475 C 0.93069 0.01936 0.82831 0.0
C476 C 0.91144 0.00383 0.95101 0.0
H477 H 0.85745 0.05192 0.10604 0.0
H478 H 0.88323 0.03886 0.05145 0.0
H479 H 0.89874 0.00632 0.02514 0.0
H480 H 0.96193 0.97166 0.83592 0.0
H481 H 0.9334 0.97496 0.89197 0.0
H482 H 0.88849 0.01581 0.84022 0.0
C483 C 0.86793 0.0344 0.04394 0.0
C484 C 0.89631 0.00829 0.98482 0.0
C485 C 0.8532 0.04201 0.07486 0.0
C486 C 0.95329 0.98502 0.8332 0.0
C487 C 0.93705 0.98693 0.86542 0.0
C488 C 0.89082 0.01352 0.88048 0.0
C489 C 0.86288 0.0219 0.00242 0.0
C490 C 0.87835 0.01553 0.96672 0.0
C491 C 0.92565 0.00416 0.86332 0.0
C492 C 0.90896 0.00679 0.89862 0.0
H493 H 0.81283 0.02013 0.01611 0.0
H494 H 0.8386 0.0069 0.96189 0.0
H495 H 0.862 0.02347 0.89919 0.0
H496 H 0.9507 0.02975 0.77065 0.0
H497 H 0.92227 0.03289 0.82628 0.0
C498 C 0.5474 0.82973 0.07852 0.0
C499 C 0.53845 0.81074 0.06827 0.0
C500 C 0.54887 0.84432 0.04041 0.0
C501 C 0.52252 0.86108 0.93062 0.0
H502 H 0.57088 0.89005 0.89185 0.0
C503 C 0.52211 0.91924 0.7697 0.0
C504 C 0.53459 0.93648 0.77428 0.0
C505 C 0.52395 0.90312 0.80306 0.0
C506 C 0.55717 0.88235 0.90269 0.0
H507 H 0.52424 0.79201 0.01033 0.0
H508 H 0.52643 0.81769 0.94408 0.0
H509 H 0.57198 0.86358 0.95588 0.0
H510 H 0.55883 0.95038 0.81726 0.0
H511 H 0.56145 0.92276 0.87703 0.0
H512 H 0.5074 0.88021 0.87991 0.0
C513 C 0.53251 0.82115 0.98133 0.0
C514 C 0.55787 0.86711 0.93912 0.0
C515 C 0.53139 0.80646 0.01906 0.0
C516 C 0.54909 0.93721 0.8126 0.0
C517 C 0.55066 0.92126 0.8467 0.0
C518 C 0.52172 0.87654 0.89505 0.0
C519 C 0.54104 0.84027 0.99185 0.0
C520 C 0.54056 0.8563 0.95314 0.0
C521 C 0.53801 0.90403 0.84265 0.0
C522 C 0.53904 0.88737 0.88033 0.0
H523 H 0.55296 0.83336 0.11618 0.0
H524 H 0.55542 0.85902 0.04939 0.0
H525 H 0.50892 0.85312 0.94142 0.0
H526 H 0.51095 0.91815 0.74012 0.0
H527 H 0.51429 0.88994 0.79769 0.0
C528 C 0.68597 0.40834 0.01906 0.0
C529 C 0.69915 0.42199 0.04377 0.0
C530 C 0.67221 0.41514 0.98401 0.0
C531 C 0.64619 0.46001 0.94332 0.0
H532 H 0.63992 0.43086 0.81617 0.0
C533 C 0.59768 0.48912 0.78111 0.0
C534 C 0.58514 0.47477 0.75674 0.0
C535 C 0.6126 0.48307 0.81392 0.0
C536 C 0.64136 0.43907 0.85165 0.0
H537 H 0.70803 0.45354 0.0514 0.0
H538 H 0.68383 0.46542 0.99065 0.0
H539 H 0.66325 0.41943 0.8797 0.0
H540 H 0.57887 0.44275 0.74666 0.0
H541 H 0.60465 0.43225 0.80426 0.0
H542 H 0.62413 0.47948 0.91567 0.0
C543 C 0.68408 0.44946 -0.00131 0.0
C544 C 0.65471 0.4325 0.88804 0.0
C545 C 0.6979 0.44266 0.0336 0.0
C546 C 0.58827 0.45422 0.76468 0.0
C547 C 0.60314 0.44818 0.79759 0.0
C548 C 0.63278 0.46653 0.90701 0.0
C549 C 0.67127 0.43574 0.97306 0.0
C550 C 0.6572 0.44285 0.93435 0.0
C551 C 0.61528 0.46254 0.82319 0.0
C552 C 0.63015 0.45608 0.86083 0.0
H553 H 0.68632 0.39235 0.02668 0.0
H554 H 0.66228 0.40425 0.96553 0.0
H555 H 0.64764 0.46816 0.97888 0.0
H556 H 0.59576 0.50508 0.77564 0.0
H557 H 0.62193 0.4945 0.83236 0.0
C558 C 0.00822 0.68992 0.0143 0.0
C559 C 0.00755 0.68412 0.06547 0.0
C560 C 0.00159 0.67667 0.97624 0.0
C561 C 0.97443 0.6276 0.95254 0.0
H562 H 0.00884 0.62633 0.83513 0.0
C563 C 0.98293 0.55827 0.82392 0.0
C564 C 0.98575 0.56116 0.77153 0.0
C565 C 0.98128 0.5747 0.85651 0.0
C566 C -0.00117 0.62671 0.86713 0.0
H567 H -0.00124 0.66031 0.11741 0.0
H568 H 0.98771 0.63675 0.05081 0.0
H569 H 0.01417 0.65237 0.89895 0.0
H570 H 0.98802 0.58356 0.71193 0.0
H571 H 0.98531 0.61236 0.76918 0.0
H572 H 0.95976 0.6012 0.92137 0.0
C573 C 0.99296 0.6517 0.03995 0.0
C574 C 0.00186 0.64169 0.90385 0.0
C575 C -0.00064 0.66512 0.07816 0.0
C576 C 0.9859 0.58083 0.75211 0.0
C577 C 0.98445 0.59732 0.78487 0.0
C578 C 0.97151 0.61248 0.91593 0.0
C579 C 0.99441 0.65717 0.9884 0.0
C580 C 0.9899 0.64218 0.94743 0.0
C581 C 0.98256 0.59442 0.83754 0.0
C582 C 0.98388 0.61172 0.87323 0.0
H583 H 0.01421 0.70465 0.00369 0.0
H584 H 0.00246 0.68162 0.93715 0.0
H585 H 0.96472 0.6277 0.98514 0.0
H586 H 0.98261 0.5433 0.84009 0.0
H587 H 0.98 0.57197 0.89691 0.0
C588 C 0.06358 0.18387 0.36905 0.0
C589 C 0.08331 0.17961 0.35815 0.0
C590 C 0.05104 0.16936 0.39169 0.0
C591 C 0.04663 0.11425 0.41401 0.0
H592 H 0.0078 0.12887 0.51419 0.0
C593 C 0.00257 0.05225 0.51585 0.0
C594 C 0.00234 0.05449 0.56889 0.0
C595 C 0.007 0.06879 0.48474 0.0
C596 C 0.01857 0.12451 0.4863 0.0
H597 H 0.10567 0.15726 0.36402 0.0
H598 H 0.0841 0.13215 0.4053 0.0
H599 H 0.02823 0.15507 0.47372 0.0
H600 H 0.00443 0.07624 0.63048 0.0
H601 H 0.01277 0.10473 0.57685 0.0
H602 H 0.03807 0.0837 0.42886 0.0
C603 C 0.07802 0.14641 0.39485 0.0
C604 C 0.03017 0.13958 0.46267 0.0
C605 C 0.09046 0.16082 0.37162 0.0
C606 C 0.0046 0.07393 0.58976 0.0
C607 C 0.00933 0.09038 0.55878 0.0
C608 C 0.03525 0.09921 0.43803 0.0
C609 C 0.05805 0.15035 0.40436 0.0
C610 C 0.04465 0.13458 0.42702 0.0
C611 C 0.01159 0.08783 0.50611 0.0
C612 C 0.02132 0.10408 0.47526 0.0
H613 H 0.05764 0.19818 0.35839 0.0
H614 H 0.03572 0.17287 0.39793 0.0
H615 H 0.05727 0.10984 0.38581 0.0
H616 H 0.00058 0.03752 0.49851 0.0
H617 H 0.00793 0.0664 0.44415 0.0
C618 C 0.35374 0.02721 0.36781 0.0
C619 C 0.34202 0.01774 0.33009 0.0
C620 C 0.36798 0.01653 0.39375 0.0
C621 C 0.38892 0.98712 0.46131 0.0
H622 H 0.42718 0.95816 0.3828 0.0
C623 C 0.45594 0.95667 0.56058 0.0
C624 C 0.47363 0.96454 0.53936 0.0
C625 C 0.43839 0.95629 0.53242 0.0
C626 C 0.41647 0.96599 0.40524 0.0
H627 H 0.33605 0.98974 0.2895 0.0
H628 H 0.36114 0.97105 0.33478 0.0
H629 H 0.39875 0.97248 0.34009 0.0
H630 H 0.48726 0.97564 0.46986 0.0
H631 H 0.45671 0.9751 0.42108 0.0
H632 H 0.40696 0.98157 0.52601 0.0
C633 C 0.3592 0.98671 0.34437 0.0
C634 C 0.40018 0.9741 0.38089 0.0
C635 C 0.34479 0.99735 0.31879 0.0
C636 C 0.47385 0.96972 0.48762 0.0
C637 C 0.45631 0.96932 0.45948 0.0
C638 C 0.40508 0.97892 0.48566 0.0
C639 C 0.37091 0.9962 0.38214 0.0
C640 C 0.3866 0.98527 0.40853 0.0
C641 C 0.43824 0.96368 0.48251 0.0
C642 C 0.41934 0.96876 0.45772 0.0
H643 H 0.35184 0.04288 0.37741 0.0
H644 H 0.37699 0.02429 0.42227 0.0
H645 H 0.37853 0.99546 0.48359 0.0
H646 H 0.45527 0.95226 0.60011 0.0
H647 H 0.42472 0.95145 0.55078 0.0
C648 C 0.45879 0.31595 0.34741 0.0
C649 C 0.44971 0.31784 0.29965 0.0
C650 C 0.47005 0.33194 0.36828 0.0
C651 C 0.4774 0.38665 0.36489 0.0
H652 H 0.52795 0.37594 0.42736 0.0
C653 C 0.52201 0.45 0.46491 0.0
C654 C 0.52838 0.44505 0.51404 0.0
C655 C 0.51604 0.43486 0.43061 0.0
C656 C 0.51385 0.37918 0.41019 0.0
H657 H 0.44528 0.33817 0.2366 0.0
H658 H 0.46454 0.36626 0.2738 0.0
H659 H 0.50901 0.34869 0.38537 0.0
H660 H 0.53524 0.42027 0.56385 0.0
H661 H 0.52459 0.39407 0.50473 0.0
H662 H 0.48173 0.41688 0.39132 0.0
C663 C 0.46291 0.35235 0.29495 0.0
C664 C 0.50301 0.36357 0.38623 0.0
C665 C 0.45176 0.3363 0.27386 0.0
C666 C 0.53029 0.42466 0.52647 0.0
C667 C 0.52425 0.40956 0.49233 0.0
C668 C 0.48816 0.40222 0.38919 0.0
C669 C 0.47237 0.35024 0.34206 0.0
C670 C 0.48451 0.36708 0.36417 0.0
C671 C 0.5163 0.41449 0.44477 0.0
C672 C 0.50635 0.3986 0.41297 0.0
H673 H 0.45727 0.30205 0.36864 0.0
H674 H 0.47687 0.33004 0.40515 0.0
H675 H 0.46312 0.38975 0.3485 0.0
H676 H 0.52054 0.46555 0.45386 0.0
H677 H 0.51044 0.43915 0.39379 0.0
C678 C 0.1766 0.54376 0.32969 0.0
C679 C 0.17387 0.52596 0.30101 0.0
C680 C 0.16046 0.55282 0.35228 0.0
C681 C 0.10595 0.55454 0.34898 0.0
H682 H 0.1098 0.56002 0.49518 0.0
C683 C 0.04175 0.5374 0.48096 0.0
C684 C 0.04179 0.54525 0.53031 0.0
C685 C 0.05642 0.5435 0.44666 0.0
C686 C 0.10848 0.55926 0.45425 0.0
H687 H 0.15186 0.50384 0.27381 0.0
H688 H 0.12386 0.51988 0.31201 0.0
H689 H 0.13942 0.55442 0.446 0.0
H690 H 0.05606 0.56649 0.58212 0.0
H691 H 0.08158 0.57773 0.52162 0.0
H692 H 0.07489 0.55862 0.3573 0.0
C693 C 0.13846 0.52694 0.31651 0.0
C694 C 0.12552 0.55594 0.42608 0.0
C695 C 0.15456 0.51774 0.29461 0.0
C696 C 0.05567 0.5605 0.54382 0.0
C697 C 0.07037 0.56671 0.50939 0.0
C698 C 0.08893 0.5581 0.37706 0.0
C699 C 0.14125 0.54444 0.34597 0.0
C700 C 0.12424 0.5526 0.37353 0.0
C701 C 0.07151 0.55749 0.46132 0.0
C702 C 0.08984 0.55947 0.43033 0.0
H703 H 0.1912 0.55073 0.33473 0.0
H704 H 0.16298 0.56632 0.37485 0.0
H705 H 0.10466 0.55235 0.30831 0.0
H706 H 0.03134 0.52533 0.4703 0.0
H707 H 0.05688 0.53584 0.41039 0.0
C708 C 0.0695 0.80967 0.01832 0.0
C709 C 0.07103 0.81267 0.07104 0.0
C710 C 0.07118 0.82594 0.98523 0.0
C711 C 0.08683 0.87788 0.96361 0.0
H712 H 0.03681 0.88075 0.8921 0.0
C713 C 0.06424 0.94696 0.84276 0.0
C714 C 0.05164 0.94294 0.80123 0.0
C715 C 0.06954 0.93131 0.87513 0.0
C716 C 0.05105 0.88006 0.91078 0.0
H717 H 0.07724 0.8348 0.13013 0.0
H718 H 0.08044 0.8634 0.0716 0.0
H719 H 0.04226 0.85289 0.94887 0.0
H720 H 0.03603 0.91954 0.75819 0.0
H721 H 0.04609 0.89225 0.81232 0.0
H722 H 0.09581 0.90492 0.92435 0.0
C723 C 0.07785 0.84839 0.05631 0.0
C724 C 0.05408 0.86413 0.94363 0.0
C725 C 0.07602 0.83205 0.08968 0.0
C726 C 0.04548 0.92303 0.79059 0.0
C727 C 0.05113 0.90743 0.82195 0.0
C728 C 0.08393 0.89378 0.92979 0.0
C729 C 0.07464 0.8455 0.00408 0.0
C730 C 0.072 0.86279 0.97002 0.0
C731 C 0.06258 0.91141 0.86576 0.0
C732 C 0.06604 0.89492 0.90255 0.0
H733 H 0.0661 0.79484 0.00278 0.0
H734 H 0.06885 0.82337 0.94497 0.0
H735 H 0.10075 0.87712 0.98388 0.0
H736 H 0.06916 0.96226 0.8516 0.0
H737 H 0.07834 0.93496 0.90853 0.0
C738 C 0.70175 0.08747 0.96913 0.0
C739 C 0.69999 0.09144 0.02133 0.0
C740 C 0.68508 0.08673 0.93769 0.0
C741 C 0.63089 0.07771 0.94576 0.0
H742 H 0.6343 0.08672 0.80062 0.0
C743 C 0.56709 0.05696 0.80414 0.0
C744 C 0.57323 0.04274 0.76847 0.0
C745 C 0.58108 0.06761 0.83414 0.0
C746 C 0.63309 0.08437 0.84119 0.0
H747 H 0.67927 0.09894 0.08068 0.0
H748 H 0.6504 0.09864 0.02542 0.0
H749 H 0.66162 0.09811 0.85556 0.0
H750 H 0.5987 0.02917 0.73446 0.0
H751 H 0.62303 0.04813 0.78571 0.0
H752 H 0.60233 0.06385 0.93085 0.0
C753 C 0.66461 0.09544 0.00902 0.0
C754 C 0.64879 0.09071 0.87268 0.0
C755 C 0.68127 0.09591 0.04065 0.0
C756 C 0.59355 0.03993 0.76193 0.0
C757 C 0.60747 0.05088 0.79091 0.0
C758 C 0.61506 0.07171 0.91431 0.0
C759 C 0.66619 0.09026 0.9574 0.0
C760 C 0.64822 0.08679 0.92517 0.0
C761 C 0.60137 0.06458 0.82778 0.0
C762 C 0.61632 0.07438 0.86163 0.0
H763 H 0.71597 0.08437 0.95264 0.0
H764 H 0.68698 0.08247 0.89836 0.0
H765 H 0.62992 0.07417 0.98577 0.0
H766 H 0.5515 0.05936 0.80996 0.0
H767 H 0.57607 0.07807 0.86252 0.0
C768 C 0.47719 0.67201 0.05453 0.0
C769 C 0.49261 0.67489 0.09001 0.0
C770 C 0.47744 0.65603 0.01978 0.0
C771 C 0.51208 0.62588 0.95169 0.0
H772 H 0.46941 0.58594 0.9336 0.0
C773 C 0.52363 0.55524 0.83284 0.0
C774 C 0.50801 0.54766 0.80232 0.0
C775 C 0.5205 0.57038 0.86834 0.0
C776 C 0.48134 0.59714 0.93758 0.0
H777 H 0.52033 0.66339 0.11702 0.0
H778 H 0.52087 0.63576 0.05606 0.0
H779 H 0.46572 0.61349 0.99436 0.0
H780 H 0.47675 0.54977 0.78556 0.0
H781 H 0.47138 0.57677 0.84652 0.0
H782 H 0.5276 0.61017 0.89448 0.0
C783 C 0.50853 0.6457 0.05544 0.0
C784 C 0.47922 0.61284 0.97247 0.0
C785 C 0.50812 0.6614 0.09053 0.0
C786 C 0.48906 0.55528 0.80872 0.0
C787 C 0.48598 0.5707 0.84382 0.0
C788 C 0.51409 0.61044 0.9164 0.0
C789 C 0.49333 0.643 0.01943 0.0
C790 C 0.49473 0.62711 0.98037 0.0
C791 C 0.50174 0.57861 0.87366 0.0
C792 C 0.49892 0.59562 0.9095 0.0
H793 H 0.46506 0.6822 0.05343 0.0
H794 H 0.46559 0.65424 0.99219 0.0
H795 H 0.52412 0.63692 0.95656 0.0
H796 H 0.53834 0.54948 0.82932 0.0
H797 H 0.53288 0.57563 0.89161 0.0
C798 C 0.85957 0.39916 0.06162 0.0
C799 C 0.8412 0.39537 0.03773 0.0
C800 C 0.87657 0.40309 0.03273 0.0
C801 C 0.89786 0.39906 0.90433 0.0
H802 H 0.927 0.44827 0.94102 0.0
C803 C 0.94869 0.44234 0.76393 0.0
C804 C 0.9652 0.4535 0.78268 0.0
C805 C 0.93565 0.43232 0.79714 0.0
C806 C 0.91937 0.43425 0.9307 0.0
H807 H 0.82636 0.39166 0.9651 0.0
H808 H 0.85608 0.39847 0.91458 0.0
H809 H 0.90055 0.43549 0.99567 0.0
H810 H 0.98159 0.46191 0.85088 0.0
H811 H 0.95918 0.44397 0.9087 0.0
H812 H 0.91657 0.39788 0.8391 0.0
C813 C 0.85734 0.39841 0.95559 0.0
C814 C 0.90415 0.42696 0.96205 0.0
C815 C 0.84032 0.39468 0.98445 0.0
C816 C 0.96889 0.45363 0.83522 0.0
C817 C 0.95596 0.44344 0.86841 0.0
C818 C 0.91323 0.40625 0.87315 0.0
C819 C 0.87555 0.4031 0.97943 0.0
C820 C 0.893 0.40949 0.94874 0.0
C821 C 0.93892 0.43304 0.8499 0.0
C822 C 0.92394 0.42416 0.88544 0.0
H823 H 0.86066 0.39993 0.10262 0.0
H824 H 0.89045 0.40653 0.05208 0.0
H825 H 0.88963 0.38543 0.89345 0.0
H826 H 0.94536 0.44196 0.72367 0.0
H827 H 0.92258 0.42472 0.78146 0.0
C828 C 0.11966 0.17339 0.03222 0.0
C829 C 0.10752 0.19008 0.03636 0.0
C830 C 0.11433 0.15723 0.00032 0.0
C831 C 0.07011 0.13209 0.94703 0.0
H832 H 0.10626 0.10471 0.85869 0.0
C833 C 0.04198 0.07173 0.80646 0.0
C834 C 0.05327 0.05469 0.79818 0.0
C835 C 0.04954 0.08797 0.83487 0.0
C836 C 0.09605 0.11201 0.88373 0.0
H837 H 0.08085 0.2033 0.00765 0.0
H838 H 0.07143 0.17495 0.95264 0.0
H839 H 0.11806 0.13419 0.90741 0.0
H840 H 0.08152 0.04146 0.81336 0.0
H841 H 0.09465 0.06981 0.86422 0.0
H842 H 0.04819 0.10989 0.92456 0.0
C843 C 0.08496 0.17433 0.97462 0.0
C844 C 0.1028 0.12895 0.91139 0.0
C845 C 0.09036 0.19055 0.00616 0.0
C846 C 0.07243 0.05435 0.81903 0.0
C847 C 0.07999 0.07065 0.84791 0.0
C848 C 0.06343 0.11513 0.91984 0.0
C849 C 0.09666 0.15731 0.97221 0.0
C850 C 0.08981 0.13928 0.94285 0.0
C851 C 0.06857 0.08763 0.85632 0.0
C852 C 0.07622 0.10501 0.88731 0.0
H853 H 0.13283 0.17233 0.05543 0.0
H854 H 0.12357 0.14426 -0.00051 0.0
H855 H 0.05987 0.13946 0.97189 0.0
H856 H 0.02725 0.07268 0.79057 0.0
H857 H 0.04048 0.10094 0.83949 0.0
C858 C 0.32989 0.02758 0.98185 0.0
C859 C 0.32766 0.04619 0.00631 0.0
C860 C 0.34559 0.02486 0.94836 0.0
C861 C 0.39576 0.04574 0.92192 0.0
H862 H 0.39176 0.01182 0.80213 0.0
C863 C 0.46145 0.03561 0.78518 0.0
C864 C 0.4645 0.01589 0.76817 0.0
C865 C 0.44433 0.04003 0.81204 0.0
C866 C 0.39312 0.02122 0.83569 0.0
H867 H 0.33988 0.07675 0.01303 0.0
H868 H 0.3667 0.07219 0.95347 0.0
H869 H 0.36204 0.01857 0.85074 0.0
H870 H 0.45192 0.98537 0.76641 0.0
H871 H 0.42223 0.99312 0.81346 0.0
H872 H 0.42684 0.04831 0.90705 0.0
C873 C 0.35656 0.05957 0.96095 0.0
C874 C 0.3761 0.02509 0.86354 0.0
C875 C 0.34095 0.06226 0.99455 0.0
C876 C 0.45008 0.00073 0.77888 0.0
C877 C 0.43296 0.00518 0.80552 0.0
C878 C 0.41275 0.04194 0.894 0.0
C879 C 0.35938 0.0407 0.93845 0.0
C880 C 0.37723 0.0373 0.90718 0.0
C881 C 0.42985 0.02489 0.82228 0.0
C882 C 0.41165 0.02951 0.85081 0.0
H883 H 0.3198 0.01495 0.98956 0.0
H884 H 0.34735 0.0101 0.93186 0.0
H885 H 0.39725 0.0549 0.95587 0.0
H886 H 0.4722 0.04766 0.7775 0.0
H887 H 0.44228 0.05541 0.82413 0.0
C888 C 0.44624 0.3219 0.02504 0.0
C889 C 0.44335 0.30276 0.00325 0.0
C890 C 0.44991 0.33874 0.99457 0.0
C891 C 0.44785 0.3564 0.85991 0.0
H892 H 0.48205 0.39964 0.91303 0.0
C893 C 0.48756 0.41903 0.74105 0.0
C894 C 0.48554 0.43893 0.75794 0.0
C895 C 0.47996 0.40288 0.76954 0.0
C896 C 0.47229 0.38777 0.89801 0.0
H897 H 0.44194 0.286 0.93283 0.0
H898 H 0.4495 0.31526 0.87916 0.0
H899 H 0.47486 0.37011 0.96494 0.0
H900 H 0.47366 0.45757 0.81726 0.0
H901 H 0.46092 0.42909 0.86828 0.0
H902 H 0.44641 0.37388 0.79165 0.0
C903 C 0.44832 0.31749 0.91973 0.0
C904 C 0.46806 0.37082 0.92777 0.0
C905 C 0.44419 0.30066 0.95035 0.0
C906 C 0.47534 0.44239 0.80332 0.0
C907 C 0.46815 0.42615 0.8325 0.0
C908 C 0.45246 0.3732 0.82972 0.0
C909 C 0.45122 0.33681 0.94145 0.0
C910 C 0.45573 0.35487 0.90928 0.0
C911 C 0.47058 0.40627 0.81601 0.0
C912 C 0.46467 0.38903 0.84862 0.0
H913 H 0.44527 0.3239 0.0658 0.0
H914 H 0.45145 0.35331 0.01287 0.0
H915 H 0.43801 0.3447 0.84451 0.0
H916 H 0.49529 0.41595 0.70607 0.0
H917 H 0.48212 0.38768 0.75624 0.0
C918 C 0.21121 0.49876 0.9584 0.0
C919 C 0.21088 0.50807 0.0064 0.0
C920 C 0.19497 0.49982 0.92552 0.0
C921 C 0.14171 0.50296 0.93402 0.0
H922 H 0.14254 0.51375 0.78954 0.0
C923 C 0.06965 0.50741 0.81867 0.0
C924 C 0.06944 0.49998 0.76872 0.0
C925 C 0.08736 0.50914 0.84603 0.0
C926 C 0.14208 0.51042 0.82973 0.0
H927 H 0.19356 0.52653 0.05642 0.0
H928 H 0.16553 0.5285 -0.00098 0.0
H929 H 0.17335 0.5163 0.83841 0.0
H930 H 0.0876 0.48816 0.7086 0.0
H931 H 0.11834 0.49049 0.7569 0.0
H932 H 0.11075 0.49643 0.92573 0.0
C933 C 0.17828 0.52035 0.98693 0.0
C934 C 0.15972 0.512 0.85765 0.0
C935 C 0.19449 0.51942 0.0195 0.0
C936 C 0.08728 0.49405 0.74696 0.0
C937 C 0.10495 0.49555 0.77453 0.0
C938 C 0.12418 0.50113 0.90614 0.0
C939 C 0.17809 0.51002 0.94042 0.0
C940 C 0.15963 0.50844 0.91012 0.0
C941 C 0.10525 0.50322 0.82433 0.0
C942 C 0.12408 0.50496 0.85369 0.0
H943 H 0.22365 0.48997 0.9472 0.0
H944 H 0.19516 0.49174 0.88978 0.0
H945 H 0.14131 0.49974 0.97432 0.0
H946 H 0.0562 0.5123 0.83633 0.0
H947 H 0.08705 0.51545 0.88394 0.0
C948 C 0.99268 0.81629 0.32763 0.0
C949 C 0.99513 0.79713 0.34861 0.0
C950 C 0.98677 0.83223 0.35798 0.0
C951 C 0.98882 0.84822 0.49172 0.0
H952 H 0.96079 0.89381 0.44029 0.0
C953 C 0.9829 0.92024 0.61029 0.0
C954 C 0.98919 0.93786 0.58465 0.0
C955 C 0.97845 0.9025 0.58338 0.0
C956 C 0.9686 0.88115 0.45519 0.0
H957 H 0.99199 0.7793 0.41699 0.0
H958 H 0.98123 0.80704 0.46996 0.0
H959 H 0.96176 0.86297 0.38981 0.0
H960 H 0.99443 0.95094 0.51027 0.0
H961 H 0.98669 0.91998 0.46345 0.0
H962 H 0.99601 0.8665 0.55653 0.0
C963 C 0.98437 0.80989 0.43028 0.0
C964 C 0.9692 0.86351 0.42627 0.0
C965 C 0.99046 0.79397 0.39997 0.0
C966 C 0.98974 0.93763 0.53128 0.0
C967 C 0.98518 0.9199 0.50437 0.0
C968 C 0.98808 0.86577 0.52073 0.0
C969 C 0.98305 0.82937 0.41002 0.0
C970 C 0.97978 0.847 0.44359 0.0
C971 C 0.98005 0.90201 0.53024 0.0
C972 C 0.97838 0.8826 0.50227 0.0
H973 H 0.99643 0.81928 0.28836 0.0
H974 H 0.98623 0.84703 0.3411 0.0
H975 H 0.99739 0.836 0.50604 0.0
H976 H 0.98218 0.91988 0.65135 0.0
H977 H 0.97429 0.889 0.60429 0.0
C978 C 0.71452 0.00332 0.31669 0.0
C979 C 0.72046 0.02344 0.32651 0.0
C980 C 0.7009 0.99326 0.34836 0.0
C981 C 0.67508 0.99691 0.47267 0.0
H982 H 0.63171 0.96961 0.40086 0.0
C983 C 0.58707 0.98392 0.50092 0.0
C984 C 0.58644 0.97973 0.55317 0.0
C985 C 0.6049 0.98345 0.47447 0.0
C986 C 0.64373 0.97711 0.42153 0.0
H987 H 0.7173 0.04855 0.37817 0.0
H988 H 0.69353 0.03116 0.43303 0.0
H989 H 0.66127 0.98048 0.35455 0.0
H990 H 0.60378 0.97016 0.61766 0.0
H991 H 0.63482 0.96901 0.57119 0.0
H992 H 0.65702 0.99482 0.53891 0.0
C993 C 0.6996 0.02296 0.40147 0.0
C994 C 0.66081 0.98313 0.3951 0.0
C995 C 0.71323 0.03297 0.36994 0.0
C996 C 0.60378 0.97371 0.57755 0.0
C997 C 0.6216 0.97314 0.55099 0.0
C998 C 0.65798 0.99099 0.49903 0.0
C999 C 0.69292 0.00314 0.39043 0.0
C1000 C 0.67641 0.9937 0.42006 0.0
C1001 C 0.6225 0.97866 0.49954 0.0
C1002 C 0.64184 0.9816 0.47344 0.0
H1003 H 0.72008 0.99548 0.28389 0.0
H1004 H 0.6963 0.97789 0.33928 0.0
H1005 H 0.68698 0.0047 0.49319 0.0
H1006 H 0.574 0.98857 0.48087 0.0
H1007 H 0.60503 0.988 0.43502 0.0
C1008 C 0.5488 0.69519 0.41193 0.0
C1009 C 0.56073 0.70261 0.372 0.0
C1010 C 0.55465 0.67902 0.44124 0.0
C1011 C 0.58271 0.6338 0.42933 0.0
H1012 H 0.56846 0.6277 0.57105 0.0
C1013 C 0.57186 0.56928 0.59714 0.0
C1014 C 0.56067 0.55492 0.56888 0.0
C1015 C 0.57829 0.58745 0.57499 0.0
C1016 C 0.57295 0.62917 0.53177 0.0
H1017 H 0.58891 0.69946 0.33404 0.0
H1018 H 0.5989 0.67079 0.38482 0.0
H1019 H 0.56839 0.66085 0.53213 0.0
H1020 H 0.54871 0.54784 0.4941 0.0
H1021 H 0.55967 0.57949 0.45585 0.0
H1022 H 0.58665 0.60197 0.42858 0.0
C1023 C 0.58495 0.67758 0.39301 0.0
C1024 C 0.57271 0.64816 0.50935 0.0
C1025 C 0.57917 0.69396 0.36386 0.0
C1026 C 0.55719 0.55859 0.51713 0.0
C1027 C 0.56363 0.57672 0.49502 0.0
C1028 C 0.58292 0.61476 0.45175 0.0
C1029 C 0.57252 0.66967 0.43129 0.0
C1030 C 0.57687 0.65056 0.45744 0.0
C1031 C 0.57372 0.59163 0.52407 0.0
C1032 C 0.57734 0.61212 0.50276 0.0
H1033 H 0.53431 0.70103 0.41885 0.0
H1034 H 0.54455 0.67309 0.46981 0.0
H1035 H 0.58591 0.63512 0.38919 0.0
H1036 H 0.57497 0.5669 0.637 0.0
H1037 H 0.58629 0.59851 0.59819 0.0
C1038 C 0.81134 0.47261 0.32175 0.0
C1039 C 0.81309 0.45181 0.31382 0.0
C1040 C 0.82646 0.48384 0.34665 0.0
C1041 C 0.87947 0.48383 0.36715 0.0
H1042 H 0.87235 0.50964 0.49775 0.0
C1043 C 0.9387 0.48539 0.51767 0.0
C1044 C 0.94345 0.50308 0.545 0.0
C1045 C 0.92272 0.48449 0.48436 0.0
C1046 C 0.87448 0.50299 0.46067 0.0
H1047 H 0.83199 0.42654 0.32518 0.0
H1048 H 0.85822 0.44604 0.36796 0.0
H1049 H 0.84325 0.49799 0.44812 0.0
H1050 H 0.93506 0.53378 0.5589 0.0
H1051 H 0.90643 0.53198 0.50073 0.0
H1052 H 0.91056 0.48772 0.38051 0.0
C1053 C 0.84518 0.45365 0.35539 0.0
C1054 C 0.85789 0.49632 0.43243 0.0
C1055 C 0.83007 0.44246 0.33142 0.0
C1056 C 0.93176 0.51996 0.53821 0.0
C1057 C 0.91542 0.51894 0.50515 0.0
C1058 C 0.89594 0.49052 0.3951 0.0
C1059 C 0.84364 0.47444 0.36272 0.0
C1060 C 0.86036 0.48585 0.38662 0.0
C1061 C 0.9109 0.5012 0.4777 0.0
C1062 C 0.89363 0.49925 0.4432 0.0
H1063 H 0.79839 0.48016 0.30844 0.0
H1064 H 0.82498 0.49986 0.35213 0.0
H1065 H 0.88168 0.47601 0.33158 0.0
H1066 H 0.94741 0.47213 0.52174 0.0
H1067 H 0.91938 0.47051 0.46433 0.0
loop_
_geom_bond_atom_site_label_1
_geom_bond_atom_site_label_2
_geom_bond_distance
_geom_bond_site_symmetry_2
_ccdc_geom_bond_type
P0 O11 1.490 . S
P0 C14 1.812 . S
P0 C20 1.803 . S
P0 C26 1.819 1_554 S
H1 C15 0.941 . S
H2 C16 0.939 . S
H3 C18 0.940 . S
H4 C19 0.940 . S
H5 C21 0.939 . S
H6 C22 0.942 . S
H7 C24 0.940 . S
H8 C25 0.939 . S
H9 C27 0.941 1_554 S
H10 C31 0.939 . S
O11 P0 1.490 . S
H12 C28 0.939 . S
H13 C30 0.940 . S
C14 P0 1.812 . S
C14 C15 1.389 . S
C14 C19 1.391 . S
C15 H1 0.941 . S
C15 C14 1.389 . S
C15 C16 1.397 . S
C16 H2 0.939 . S
C16 C15 1.397 . S
C16 C17 1.378 . S
C17 C16 1.378 . S
C17 C18 1.378 . S
C18 H3 0.940 . S
C18 C17 1.378 . S
C18 C19 1.396 . S
C19 H4 0.940 . S
C19 C14 1.391 . S
C19 C18 1.396 . S
C20 P0 1.803 . S
C20 C21 1.378 1_554 S
C20 C25 1.400 . S
C21 H5 0.939 . S
C21 C20 1.378 1_556 S
C21 C22 1.361 . S
C22 H6 0.942 . S
C22 C21 1.361 . S
C22 C23 1.369 . S
C23 C22 1.369 . S
C23 C24 1.404 1_556 S
C24 H7 0.940 . S
C24 C23 1.404 1_554 S
C24 C25 1.389 . S
C25 H8 0.939 . S
C25 C20 1.400 . S
C25 C24 1.389 . S
C26 P0 1.819 1_556 S
C26 C27 1.391 . S
C26 C31 1.391 . S
C27 H9 0.941 1_556 S
C27 C26 1.391 . S
C27 C28 1.396 . S
C28 H12 0.939 . S
C28 C27 1.396 . S
C28 C29 1.397 . S
C29 C28 1.397 . S
C29 C30 1.385 . S
C30 H13 0.940 . S
C30 C29 1.385 . S
C30 C31 1.388 . S
C31 H10 0.939 . S
C31 C26 1.391 . S
C31 C30 1.388 . S
P32 O43 1.490 . S
P32 C46 1.812 . S
P32 C52 1.803 . S
P32 C58 1.819 . S
H33 C47 0.941 . S
H34 C48 0.939 . S
H35 C50 0.940 . S
H36 C51 0.940 . S
H37 C53 0.939 . S
H38 C54 0.942 . S
H39 C56 0.940 . S
H40 C57 0.939 . S
H41 C59 0.941 . S
H42 C63 0.933 1_655 S
O43 P32 1.490 . S
H44 C60 0.939 . S
H45 C62 0.940 . S
C46 P32 1.812 . S
C46 C47 1.389 . S
C46 C51 1.391 1_455 S
C47 H33 0.941 . S
C47 C46 1.389 . S
C47 C48 1.397 . S
C48 H34 0.939 . S
C48 C47 1.397 . S
C48 C49 1.376 . S
C49 C48 1.376 . S
C49 C50 1.379 1_455 S
C50 H35 0.940 . S
C50 C49 1.379 1_655 S
C50 C51 1.396 . S
C51 H36 0.940 . S
C51 C46 1.391 1_655 S
C51 C50 1.396 . S
C52 P32 1.803 . S
C52 C53 1.378 . S
C52 C57 1.400 1_455 S
C53 H37 0.939 . S
C53 C52 1.378 . S
C53 C54 1.361 . S
C54 H38 0.942 . S
C54 C53 1.361 . S
C54 C55 1.369 1_455 S
C55 C54 1.369 1_655 S
C55 C56 1.404 . S
C56 H39 0.940 . S
C56 C55 1.404 . S
C56 C57 1.389 . S
C57 H40 0.939 . S
C57 C52 1.400 1_655 S
C57 C56 1.389 . S
C58 P32 1.819 . S
C58 C59 1.391 . S
C58 C63 1.404 . S
C59 H41 0.941 . S
C59 C58 1.391 . S
C59 C60 1.396 . S
C60 H44 0.939 . S
C60 C59 1.396 . S
C60 C61 1.397 1_554 S
C61 C60 1.397 1_556 S
C61 C62 1.385 1_455 S
C62 H45 0.940 . S
C62 C61 1.385 1_655 S
C62 C63 1.382 1_656 S
C63 H42 0.933 1_455 S
C63 C58 1.404 . S
C63 C62 1.382 1_454 S
P64 O75 1.490 . S
P64 C78 1.812 . S
P64 C84 1.803 . S
P64 C90 1.819 . S
H65 C79 0.941 . S
H66 C80 0.939 . S
H67 C82 0.940 . S
H68 C83 0.948 . S
H69 C85 0.939 . S
H70 C86 0.933 1_556 S
H71 C88 0.940 . S
H72 C89 0.962 . S
H73 C91 0.941 . S
H74 C95 0.928 1_565 S
O75 P64 1.490 . S
H76 C92 0.939 . S
H77 C94 0.940 . S
C78 P64 1.812 . S
C78 C79 1.389 . S
C78 C83 1.378 1_545 S
C79 H65 0.941 . S
C79 C78 1.389 . S
C79 C80 1.397 . S
C80 H66 0.939 . S
C80 C79 1.397 . S
C80 C81 1.378 . S
C81 C80 1.378 . S
C81 C82 1.378 1_545 S
C82 H67 0.940 . S
C82 C81 1.378 1_565 S
C82 C83 1.401 . S
C83 H68 0.948 . S
C83 C78 1.378 1_565 S
C83 C82 1.401 . S
C84 P64 1.803 . S
C84 C85 1.378 . S
C84 C89 1.362 1_545 S
C85 H69 0.939 . S
C85 C84 1.378 . S
C85 C86 1.361 . S
C86 H70 0.933 1_554 S
C86 C85 1.361 . S
C86 C87 1.369 . S
C87 C86 1.369 . S
C87 C88 1.404 1_545 S
C88 H71 0.940 . S
C88 C87 1.404 1_565 S
C88 C89 1.406 . S
C89 H72 0.962 . S
C89 C84 1.362 1_565 S
C89 C88 1.406 . S
C90 P64 1.819 . S
C90 C91 1.391 . S
C90 C95 1.391 1_554 S
C91 H73 0.941 . S
C91 C90 1.391 . S
C91 C92 1.396 1_554 S
C92 H76 0.939 . S
C92 C91 1.396 1_556 S
C92 C93 1.397 . S
C93 C92 1.397 . S
C93 C94 1.385 1_545 S
C94 H77 0.940 . S
C94 C93 1.385 1_565 S
C94 C95 1.388 1_565 S
C95 H74 0.928 1_545 S
C95 C90 1.391 1_556 S
C95 C94 1.388 1_545 S
P96 O107 1.490 . S
P96 C110 1.812 . S
P96 C116 1.803 . S
P96 C122 1.819 . S
H97 C111 0.941 . S
H98 C112 0.939 . S
H99 C114 0.940 . S
H100 C115 0.940 . S
H101 C117 0.939 . S
H102 C118 0.940 1_556 S
H103 C120 0.940 . S
H104 C121 0.939 . S
H105 C123 0.941 . S
H106 C127 0.939 . S
O107 P96 1.490 . S
H108 C124 0.939 . S
H109 C126 0.940 . S
C110 P96 1.812 . S
C110 C111 1.389 . S
C110 C115 1.391 . S
C111 H97 0.941 . S
C111 C110 1.389 . S
C111 C112 1.397 . S
C112 H98 0.939 . S
C112 C111 1.397 . S
C112 C113 1.378 . S
C113 C112 1.378 . S
C113 C114 1.378 . S
C114 H99 0.940 . S
C114 C113 1.378 . S
C114 C115 1.396 . S
C115 H100 0.940 . S
C115 C110 1.391 . S
C115 C114 1.396 . S
C116 P96 1.803 . S
C116 C117 1.378 . S
C116 C121 1.400 . S
C117 H101 0.939 . S
C117 C116 1.378 . S
C117 C118 1.361 . S
C118 H102 0.940 1_554 S
C118 C117 1.361 . S
C118 C119 1.370 . S
C119 C118 1.370 . S
C119 C120 1.404 . S
C120 H103 0.940 . S
C120 C119 1.404 . S
C120 C121 1.389 . S
C121 H104 0.939 . S
C121 C116 1.400 . S
C121 C120 1.389 . S
C122 P96 1.819 . S
C122 C123 1.391 . S
C122 C127 1.391 1_554 S
C123 H105 0.941 . S
C123 C122 1.391 . S
C123 C124 1.396 1_554 S
C124 H108 0.939 . S
C124 C123 1.396 1_556 S
C124 C125 1.397 . S
C125 C124 1.397 . S
C125 C126 1.385 . S
C126 H109 0.940 . S
C126 C125 1.385 . S
C126 C127 1.388 . S
C127 H106 0.939 . S
C127 C122 1.391 1_556 S
C127 C126 1.388 . S
P128 O139 1.490 . S
P128 C142 1.812 . S
P128 C148 1.803 . S
P128 C154 1.819 . S
H129 C143 0.941 . S
H130 C144 0.939 . S
H131 C146 0.940 . S
H132 C147 0.940 . S
H133 C149 0.939 . S
H134 C150 0.942 . S
H135 C152 0.940 . S
H136 C153 0.939 . S
H137 C155 0.941 . S
H138 C159 0.939 . S
O139 P128 1.490 . S
H140 C156 0.939 . S
H141 C158 0.940 . S
C142 P128 1.812 . S
C142 C143 1.389 . S
C142 C147 1.391 . S
C143 H129 0.941 . S
C143 C142 1.389 . S
C143 C144 1.397 . S
C144 H130 0.939 . S
C144 C143 1.397 . S
C144 C145 1.378 . S
C145 C144 1.378 . S
C145 C146 1.378 . S
C146 H131 0.940 . S
C146 C145 1.378 . S
C146 C147 1.396 . S
C147 H132 0.940 . S
C147 C142 1.391 . S
C147 C146 1.396 . S
C148 P128 1.803 . S
C148 C149 1.378 . S
C148 C153 1.400 . S
C149 H133 0.939 . S
C149 C148 1.378 . S
C149 C150 1.361 . S
C150 H134 0.942 . S
C150 C149 1.361 . S
C150 C151 1.369 . S
C151 C150 1.369 . S
C151 C152 1.404 . S
C152 H135 0.940 . S
C152 C151 1.404 . S
C152 C153 1.389 . S
C153 H136 0.939 . S
C153 C148 1.400 . S
C153 C152 1.389 . S
C154 P128 1.819 . S
C154 C155 1.391 . S
C154 C159 1.391 . S
C155 H137 0.941 . S
C155 C154 1.391 . S
C155 C156 1.396 . S
C156 H140 0.939 . S
C156 C155 1.396 . S
C156 C157 1.397 . S
C157 C156 1.397 . S
C157 C158 1.385 . S
C158 H141 0.940 . S
C158 C157 1.385 . S
C158 C159 1.388 . S
C159 H138 0.939 . S
C159 C154 1.391 . S
C159 C158 1.388 . S
P160 O171 1.490 . S
P160 C174 1.812 . S
P160 C180 1.803 . S
P160 C186 1.819 . S
H161 C175 0.941 . S
H162 C176 0.939 . S
H163 C178 0.940 . S
H164 C179 0.940 . S
H165 C181 0.939 . S
H166 C182 0.942 . S
H167 C184 0.940 . S
H168 C185 0.939 . S
H169 C187 0.941 . S
H170 C191 0.939 . S
O171 P160 1.490 . S
H172 C188 0.939 . S
H173 C190 0.940 . S
C174 P160 1.812 . S
C174 C175 1.389 . S
C174 C179 1.391 . S
C175 H161 0.941 . S
C175 C174 1.389 . S
C175 C176 1.397 . S
C176 H162 0.939 . S
C176 C175 1.397 . S
C176 C177 1.378 . S
C177 C176 1.378 . S
C177 C178 1.378 . S
C178 H163 0.940 . S
C178 C177 1.378 . S
C178 C179 1.396 . S
C179 H164 0.940 . S
C179 C174 1.391 . S
C179 C178 1.396 . S
C180 P160 1.803 . S
C180 C181 1.378 . S
C180 C185 1.400 . S
C181 H165 0.939 . S
C181 C180 1.378 . S
C181 C182 1.361 . S
C182 H166 0.942 . S
C182 C181 1.361 . S
C182 C183 1.369 . S
C183 C182 1.369 . S
C183 C184 1.404 . S
C184 H167 0.940 . S
C184 C183 1.404 . S
C184 C185 1.389 . S
C185 H168 0.939 . S
C185 C180 1.400 . S
C185 C184 1.389 . S
C186 P160 1.819 . S
C186 C187 1.391 . S
C186 C191 1.391 . S
C187 H169 0.941 . S
C187 C186 1.391 . S
C187 C188 1.396 . S
C188 H172 0.939 . S
C188 C187 1.396 . S
C188 C189 1.397 . S
C189 C188 1.397 . S
C189 C190 1.385 . S
C190 H173 0.940 . S
C190 C189 1.385 . S
C190 C191 1.388 . S
C191 H170 0.939 . S
C191 C186 1.391 . S
C191 C190 1.388 . S
P192 O203 1.490 . S
P192 C206 1.812 . S
P192 C212 1.803 . S
P192 C218 1.819 . S
H193 C207 0.941 . S
H194 C208 0.939 . S
H195 C210 0.940 . S
H196 C211 0.941 . S
H197 C213 0.939 . S
H198 C214 0.942 . S
H199 C216 0.940 . S
H200 C217 0.956 . S
H201 C219 0.941 . S
H202 C223 0.934 1_565 S
O203 P192 1.490 . S
H204 C220 0.939 . S
H205 C222 0.940 . S
C206 P192 1.812 . S
C206 C207 1.389 . S
C206 C211 1.390 1_545 S
C207 H193 0.941 . S
C207 C206 1.389 . S
C207 C208 1.397 . S
C208 H194 0.939 . S
C208 C207 1.397 . S
C208 C209 1.378 . S
C209 C208 1.378 . S
C209 C210 1.378 1_545 S
C210 H195 0.940 . S
C210 C209 1.378 1_565 S
C210 C211 1.397 . S
C211 H196 0.941 . S
C211 C206 1.390 1_565 S
C211 C210 1.397 . S
C212 P192 1.803 . S
C212 C213 1.378 . S
C212 C217 1.374 1_545 S
C213 H197 0.939 . S
C213 C212 1.378 . S
C213 C214 1.361 . S
C214 H198 0.942 . S
C214 C213 1.361 . S
C214 C215 1.369 . S
C215 C214 1.369 . S
C215 C216 1.404 1_545 S
C216 H199 0.940 . S
C216 C215 1.404 1_565 S
C216 C217 1.399 . S
C217 H200 0.956 . S
C217 C212 1.374 1_565 S
C217 C216 1.399 . S
C218 P192 1.819 . S
C218 C219 1.391 . S
C218 C223 1.391 . S
C219 H201 0.941 . S
C219 C218 1.391 . S
C219 C220 1.396 . S
C220 H204 0.939 . S
C220 C219 1.396 . S
C220 C221 1.397 . S
C221 C220 1.397 . S
C221 C222 1.385 1_545 S
C222 H205 0.940 . S
C222 C221 1.385 1_565 S
C222 C223 1.388 1_565 S
C223 H202 0.934 1_545 S
C223 C218 1.391 . S
C223 C222 1.388 1_545 S
P224 O235 1.490 . S
P224 C238 1.812 . S
P224 C244 1.803 . S
P224 C250 1.819 . S
H225 C239 0.941 . S
H226 C240 0.939 . S
H227 C242 0.940 . S
H228 C243 0.940 . S
H229 C245 0.939 . S
H230 C246 0.942 . S
H231 C248 0.940 . S
H232 C249 0.939 . S
H233 C251 0.941 . S
H234 C255 0.939 . S
O235 P224 1.490 . S
H236 C252 0.939 . S
H237 C254 0.940 . S
C238 P224 1.812 . S
C238 C239 1.389 . S
C238 C243 1.391 . S
C239 H225 0.941 . S
C239 C238 1.389 . S
C239 C240 1.397 . S
C240 H226 0.939 . S
C240 C239 1.397 . S
C240 C241 1.378 . S
C241 C240 1.378 . S
C241 C242 1.378 . S
C242 H227 0.940 . S
C242 C241 1.378 . S
C242 C243 1.396 . S
C243 H228 0.940 . S
C243 C238 1.391 . S
C243 C242 1.396 . S
C244 P224 1.803 . S
C244 C245 1.378 . S
C244 C249 1.400 . S
C245 H229 0.939 . S
C245 C244 1.378 . S
C245 C246 1.361 . S
C246 H230 0.942 . S
C246 C245 1.361 . S
C246 C247 1.369 . S
C247 C246 1.369 . S
C247 C248 1.404 . S
C248 H231 0.940 . S
C248 C247 1.404 . S
C248 C249 1.389 . S
C249 H232 0.939 . S
C249 C244 1.400 . S
C249 C248 1.389 . S
C250 P224 1.819 . S
C250 C251 1.391 . S
C250 C255 1.391 . S
C251 H233 0.941 . S
C251 C250 1.391 . S
C251 C252 1.396 . S
C252 H236 0.939 . S
C252 C251 1.396 . S
C252 C253 1.397 . S
C253 C252 1.397 . S
C253 C254 1.385 . S
C254 H237 0.940 . S
C254 C253 1.385 . S
C254 C255 1.388 . S
C255 H234 0.939 . S
C255 C250 1.391 . S
C255 C254 1.388 . S
O256 Zn257 1.954 . S
O256 C272 1.227 . S
Zn257 O256 1.954 . S
Zn257 O258 1.948 . S
Zn257 O264 1.893 1_565 S
Zn257 O269 1.956 . S
O258 Zn257 1.948 . S
O258 Zn259 1.904 1_565 S
O258 Zn260 1.953 . S
O258 Zn261 1.961 . S
Zn259 O258 1.904 1_545 S
Zn259 O262 1.933 1_455 S
Zn259 O265 1.941 . S
Zn259 O266 1.965 . S
Zn260 O258 1.953 . S
Zn260 O267 1.938 1_565 S
Zn260 O268 1.906 . S
Zn260 O278 1.953 . S
Zn261 O258 1.961 . S
Zn261 O263 1.932 1_455 S
Zn261 O270 1.977 . S
Zn261 O271 1.910 . S
O262 Zn259 1.933 1_655 S
O262 C273 1.226 . S
O263 Zn261 1.932 1_655 S
O263 C273 1.307 1_565 S
O264 Zn257 1.893 1_545 S
O264 C275 1.253 . S
O265 Zn259 1.941 . S
O265 C275 1.283 . S
O266 Zn259 1.965 . S
O266 C274 1.303 . S
O267 Zn260 1.938 1_545 S
O267 C274 1.247 . S
O268 Zn260 1.906 . S
O268 C276 1.304 . S
O269 Zn257 1.956 . S
O269 C277 1.311 . S
O270 Zn261 1.977 . S
O270 C276 1.272 . S
O271 Zn261 1.910 . S
O271 C277 1.231 . S
C272 O256 1.227 . S
C272 O278 1.298 . S
C273 O262 1.226 . S
C273 O263 1.307 1_545 S
C274 O266 1.303 . S
C274 O267 1.247 . S
C275 O264 1.253 . S
C275 O265 1.283 . S
C276 O268 1.304 . S
C276 O270 1.272 . S
C277 O269 1.311 . S
C277 O271 1.231 . S
O278 Zn260 1.953 . S
O278 C272 1.298 . S
O279 Zn280 1.953 . S
O279 C295 1.225 . S
Zn280 O279 1.953 . S
Zn280 O281 1.949 . S
Zn280 O287 1.919 . S
Zn280 O292 1.924 . S
O281 Zn280 1.949 . S
O281 Zn282 1.923 1_545 S
O281 Zn283 1.950 . S
O281 Zn284 1.945 1_545 S
Zn282 O281 1.923 1_565 S
Zn282 O285 1.933 . S
Zn282 O288 1.941 . S
Zn282 O289 1.965 . S
Zn283 O281 1.950 . S
Zn283 O290 1.938 . S
Zn283 O291 1.897 1_545 S
Zn283 O301 1.953 . S
Zn284 O281 1.945 1_565 S
Zn284 O286 1.932 . S
Zn284 O293 1.977 . S
Zn284 O294 1.910 1_565 S
O285 Zn282 1.933 . S
O285 C296 1.226 . S
O286 Zn284 1.932 . S
O286 C296 1.307 . S
O287 Zn280 1.919 . S
O287 C298 1.253 . S
O288 Zn282 1.941 . S
O288 C298 1.283 1_565 S
O289 Zn282 1.965 . S
O289 C297 1.303 . S
O290 Zn283 1.938 . S
O290 C297 1.247 1_545 S
O291 Zn283 1.897 1_565 S
O291 C299 1.317 . S
O292 Zn280 1.924 . S
O292 C300 1.311 . S
O293 Zn284 1.977 . S
O293 C299 1.272 . S
O294 Zn284 1.910 1_545 S
O294 C300 1.231 . S
C295 O279 1.225 . S
C295 O301 1.298 . S
C296 O285 1.226 . S
C296 O286 1.307 . S
C297 O289 1.303 . S
C297 O290 1.247 1_565 S
C298 O287 1.253 . S
C298 O288 1.283 1_545 S
C299 O291 1.317 . S
C299 O293 1.272 . S
C300 O292 1.311 . S
C300 O294 1.231 . S
O301 Zn283 1.953 . S
O301 C295 1.298 . S
O302 Zn303 1.953 . S
O302 C318 1.225 . S
Zn303 O302 1.953 . S
Zn303 O304 1.949 . S
Zn303 O310 1.919 . S
Zn303 O315 1.924 . S
O304 Zn303 1.949 . S
O304 Zn305 1.923 . S
O304 Zn306 1.950 . S
O304 Zn307 1.945 . S
Zn305 O304 1.923 . S
Zn305 O308 1.933 . S
Zn305 O311 1.941 . S
Zn305 O312 1.965 . S
Zn306 O304 1.950 . S
Zn306 O313 1.938 . S
Zn306 O314 1.906 . S
Zn306 O324 1.953 . S
Zn307 O304 1.945 . S
Zn307 O309 1.932 . S
Zn307 O316 1.977 . S
Zn307 O317 1.910 . S
O308 Zn305 1.933 . S
O308 C319 1.226 . S
O309 Zn307 1.932 . S
O309 C319 1.307 . S
O310 Zn303 1.919 . S
O310 C321 1.253 . S
O311 Zn305 1.941 . S
O311 C321 1.283 . S
O312 Zn305 1.965 . S
O312 C320 1.303 . S
O313 Zn306 1.938 . S
O313 C320 1.247 . S
O314 Zn306 1.906 . S
O314 C322 1.304 . S
O315 Zn303 1.924 . S
O315 C323 1.311 . S
O316 Zn307 1.977 . S
O316 C322 1.272 . S
O317 Zn307 1.910 . S
O317 C323 1.231 . S
C318 O302 1.225 . S
C318 O324 1.298 . S
C319 O308 1.226 . S
C319 O309 1.307 . S
C320 O312 1.303 . S
C320 O313 1.247 . S
C321 O310 1.253 . S
C321 O311 1.283 . S
C322 O314 1.304 . S
C322 O316 1.272 . S
C323 O315 1.311 . S
C323 O317 1.231 . S
O324 Zn306 1.953 . S
O324 C318 1.298 . S
O325 Zn326 1.953 1_655 S
O325 C341 1.225 . S
Zn326 O325 1.953 1_455 S
Zn326 O327 1.949 . S
Zn326 O333 1.919 . S
Zn326 O338 1.924 . S
O327 Zn326 1.949 . S
O327 Zn328 1.923 . S
O327 Zn329 1.950 1_455 S
O327 Zn330 1.945 . S
Zn328 O327 1.923 . S
Zn328 O331 1.933 . S
Zn328 O334 1.941 . S
Zn328 O335 1.965 1_455 S
Zn329 O327 1.950 1_655 S
Zn329 O336 1.938 . S
Zn329 O337 1.906 1_655 S
Zn329 O347 1.953 . S
Zn330 O327 1.945 . S
Zn330 O332 1.932 . S
Zn330 O339 1.977 . S
Zn330 O340 1.910 . S
O331 Zn328 1.933 . S
O331 C342 1.226 . S
O332 Zn330 1.932 . S
O332 C342 1.307 . S
O333 Zn326 1.919 . S
O333 C344 1.253 . S
O334 Zn328 1.941 . S
O334 C344 1.283 . S
O335 Zn328 1.965 1_655 S
O335 C343 1.303 . S
O336 Zn329 1.938 . S
O336 C343 1.247 . S
O337 Zn329 1.906 1_455 S
O337 C345 1.304 . S
O338 Zn326 1.924 . S
O338 C346 1.311 . S
O339 Zn330 1.977 . S
O339 C345 1.272 . S
O340 Zn330 1.910 . S
O340 C346 1.231 . S
C341 O325 1.225 . S
C341 O347 1.298 . S
C342 O331 1.226 . S
C342 O332 1.307 . S
C343 O335 1.303 . S
C343 O336 1.247 . S
C344 O333 1.253 . S
C344 O334 1.283 . S
C345 O337 1.304 . S
C345 O339 1.272 . S
C346 O338 1.311 . S
C346 O340 1.231 . S
O347 Zn329 1.953 . S
O347 C341 1.298 . S
C348 C349 1.331 1_545 S
C348 C350 1.327 . S
C348 H373 0.950 . S
C349 C348 1.331 1_565 S
C349 C365 1.367 . S
C350 C348 1.327 . S
C350 C369 1.429 1_545 S
C350 H374 0.950 . S
C351 C368 1.574 . S
C351 C370 1.368 . S
C351 H375 0.949 . S
H352 C356 0.949 . S
C353 C354 1.349 . S
C353 C355 1.327 . S
C353 H376 0.950 . S
C354 C353 1.349 . S
C354 C366 1.349 1_565 S
C355 C353 1.327 . S
C355 C371 1.429 . S
C355 H377 0.950 . S
C356 H352 0.949 . S
C356 C364 1.574 . S
C356 C372 1.368 1_545 S
H357 C365 0.950 . S
H358 C363 0.950 . S
H359 C364 0.949 . S
H360 C366 0.950 . S
H361 C367 0.950 . S
H362 C368 0.949 . S
C363 H358 0.950 . S
C363 C365 1.327 . S
C363 C369 1.429 . S
C364 C356 1.574 . S
C364 H359 0.949 . S
C364 C370 1.368 1_545 S
C365 C349 1.367 . S
C365 H357 0.950 . S
C365 C363 1.327 . S
C366 C354 1.349 1_545 S
C366 H360 0.950 . S
C366 C367 1.327 . S
C367 H361 0.950 . S
C367 C366 1.327 . S
C367 C371 1.429 1_545 S
C368 C351 1.574 . S
C368 H362 0.949 . S
C368 C372 1.368 . S
C369 C350 1.429 1_565 S
C369 C363 1.429 . S
C369 C370 1.523 . S
C370 C351 1.368 . S
C370 C364 1.368 1_565 S
C370 C369 1.523 . S
C371 C355 1.429 . S
C371 C367 1.429 1_565 S
C371 C372 1.523 . S
C372 C356 1.368 1_565 S
C372 C368 1.368 . S
C372 C371 1.523 . S
H373 C348 0.950 . S
H374 C350 0.950 . S
H375 C351 0.949 . S
H376 C353 0.950 . S
H377 C355 0.950 . S
C378 C379 1.349 . S
C378 C380 1.327 . S
C378 H403 0.950 . S
C379 C378 1.349 . S
C379 C395 1.349 . S
C380 C378 1.327 . S
C380 C399 1.429 . S
C380 H404 0.950 . S
C381 C398 1.574 . S
C381 C400 1.368 . S
C381 H405 0.949 . S
H382 C386 0.949 . S
C383 C384 1.349 . S
C383 C385 1.327 . S
C383 H406 0.950 . S
C384 C383 1.349 . S
C384 C396 1.349 . S
C385 C383 1.327 . S
C385 C401 1.429 . S
C385 H407 0.950 . S
C386 H382 0.949 . S
C386 C394 1.574 . S
C386 C402 1.368 . S
H387 C395 0.950 . S
H388 C393 0.950 . S
H389 C394 0.949 . S
H390 C396 0.950 . S
H391 C397 0.950 . S
H392 C398 0.949 . S
C393 H388 0.950 . S
C393 C395 1.327 . S
C393 C399 1.429 . S
C394 C386 1.574 . S
C394 H389 0.949 . S
C394 C400 1.368 . S
C395 C379 1.349 . S
C395 H387 0.950 . S
C395 C393 1.327 . S
C396 C384 1.349 . S
C396 H390 0.950 . S
C396 C397 1.327 . S
C397 H391 0.950 . S
C397 C396 1.327 . S
C397 C401 1.429 . S
C398 C381 1.574 . S
C398 H392 0.949 . S
C398 C402 1.368 . S
C399 C380 1.429 . S
C399 C393 1.429 . S
C399 C400 1.523 . S
C400 C381 1.368 . S
C400 C394 1.368 . S
C400 C399 1.523 . S
C401 C385 1.429 . S
C401 C397 1.429 . S
C401 C402 1.523 . S
C402 C386 1.368 . S
C402 C398 1.368 . S
C402 C401 1.523 . S
H403 C378 0.950 . S
H404 C380 0.950 . S
H405 C381 0.949 . S
H406 C383 0.950 . S
H407 C385 0.950 . S
C408 C409 1.349 . S
C408 C410 1.327 . S
C408 H433 0.950 . S
C409 C408 1.349 . S
C409 C425 1.349 . S
C410 C408 1.327 . S
C410 C429 1.429 . S
C410 H434 0.950 . S
C411 C428 1.574 . S
C411 C430 1.368 . S
C411 H435 0.949 . S
H412 C416 0.949 . S
C413 C414 1.349 . S
C413 C415 1.327 . S
C413 H436 0.950 . S
C414 C413 1.349 . S
C414 C426 1.349 . S
C415 C413 1.327 . S
C415 C431 1.429 . S
C415 H437 0.950 . S
C416 H412 0.949 . S
C416 C424 1.574 . S
C416 C432 1.368 . S
H417 C425 0.950 . S
H418 C423 0.950 . S
H419 C424 0.949 . S
H420 C426 0.950 . S
H421 C427 0.950 . S
H422 C428 0.949 . S
C423 H418 0.950 . S
C423 C425 1.327 . S
C423 C429 1.429 . S
C424 C416 1.574 . S
C424 H419 0.949 . S
C424 C430 1.368 . S
C425 C409 1.349 . S
C425 H417 0.950 . S
C425 C423 1.327 . S
C426 C414 1.349 . S
C426 H420 0.950 . S
C426 C427 1.327 . S
C427 H421 0.950 . S
C427 C426 1.327 . S
C427 C431 1.429 . S
C428 C411 1.574 . S
C428 H422 0.949 . S
C428 C432 1.368 . S
C429 C410 1.429 . S
C429 C423 1.429 . S
C429 C430 1.523 . S
C430 C411 1.368 . S
C430 C424 1.368 . S
C430 C429 1.523 . S
C431 C415 1.429 . S
C431 C427 1.429 . S
C431 C432 1.523 . S
C432 C416 1.368 . S
C432 C428 1.368 . S
C432 C431 1.523 . S
H433 C408 0.950 . S
H434 C410 0.950 . S
H435 C411 0.949 . S
H436 C413 0.950 . S
H437 C415 0.950 . S
C438 C439 1.349 . S
C438 C440 1.327 . S
C438 H463 0.950 . S
C439 C438 1.349 . S
C439 C455 1.349 . S
C440 C438 1.327 . S
C440 C459 1.429 . S
C440 H464 0.950 . S
C441 C458 1.574 . S
C441 C460 1.368 . S
C441 H465 0.949 . S
H442 C446 0.949 . S
C443 C444 1.349 . S
C443 C445 1.327 . S
C443 H466 0.950 . S
C444 C443 1.349 . S
C444 C456 1.349 . S
C445 C443 1.327 . S
C445 C461 1.429 . S
C445 H467 0.950 . S
C446 H442 0.949 . S
C446 C454 1.574 . S
C446 C462 1.368 . S
H447 C455 0.950 . S
H448 C453 0.950 . S
H449 C454 0.949 . S
H450 C456 0.950 . S
H451 C457 0.950 . S
H452 C458 0.949 . S
C453 H448 0.950 . S
C453 C455 1.327 . S
C453 C459 1.429 . S
C454 C446 1.574 . S
C454 H449 0.949 . S
C454 C460 1.368 . S
C455 C439 1.349 . S
C455 H447 0.950 . S
C455 C453 1.327 . S
C456 C444 1.349 . S
C456 H450 0.950 . S
C456 C457 1.327 . S
C457 H451 0.950 . S
C457 C456 1.327 . S
C457 C461 1.429 . S
C458 C441 1.574 . S
C458 H452 0.949 . S
C458 C462 1.368 . S
C459 C440 1.429 . S
C459 C453 1.429 . S
C459 C460 1.523 . S
C460 C441 1.368 . S
C460 C454 1.368 . S
C460 C459 1.523 . S
C461 C445 1.429 . S
C461 C457 1.429 . S
C461 C462 1.523 . S
C462 C446 1.368 . S
C462 C458 1.368 . S
C462 C461 1.523 . S
H463 C438 0.950 . S
H464 C440 0.950 . S
H465 C441 0.949 . S
H466 C443 0.950 . S
H467 C445 0.950 . S
C468 C469 1.344 1_566 S
C468 C470 1.327 . S
C468 H493 0.950 . S
C469 C468 1.344 1_544 S
C469 C485 1.354 . S
C470 C468 1.327 . S
C470 C489 1.429 1_565 S
C470 H494 0.950 . S
C471 C488 1.574 . S
C471 C490 1.368 . S
C471 H495 0.949 . S
H472 C476 0.949 . S
C473 C474 1.349 . S
C473 C475 1.327 . S
C473 H496 0.950 . S
C474 C473 1.349 . S
C474 C486 1.349 1_545 S
C475 C473 1.327 . S
C475 C491 1.429 . S
C475 H497 0.950 . S
C476 H472 0.949 . S
C476 C484 1.574 . S
C476 C492 1.368 1_565 S
H477 C485 0.950 . S
H478 C483 0.950 . S
H479 C484 0.949 . S
H480 C486 0.950 . S
H481 C487 0.950 . S
H482 C488 0.949 . S
C483 H478 0.950 . S
C483 C485 1.327 1_556 S
C483 C489 1.429 . S
C484 C476 1.574 . S
C484 H479 0.949 . S
C484 C490 1.368 1_565 S
C485 C469 1.354 . S
C485 H477 0.950 . S
C485 C483 1.327 1_554 S
C486 C474 1.349 1_565 S
C486 H480 0.950 . S
C486 C487 1.327 . S
C487 H481 0.950 . S
C487 C486 1.327 . S
C487 C491 1.429 1_565 S
C488 C471 1.574 . S
C488 H482 0.949 . S
C488 C492 1.368 . S
C489 C470 1.429 1_545 S
C489 C483 1.429 . S
C489 C490 1.523 . S
C490 C471 1.368 . S
C490 C484 1.368 1_545 S
C490 C489 1.523 . S
C491 C475 1.429 . S
C491 C487 1.429 1_545 S
C491 C492 1.523 . S
C492 C476 1.368 1_545 S
C492 C488 1.368 . S
C492 C491 1.523 . S
H493 C468 0.950 . S
H494 C470 0.950 . S
H495 C471 0.949 . S
H496 C473 0.950 . S
H497 C475 0.950 . S
C498 C499 1.349 . S
C498 C500 1.327 . S
C498 H523 0.950 1_556 S
C499 C498 1.349 . S
C499 C515 1.349 . S
C500 C498 1.327 . S
C500 C519 1.429 . S
C500 H524 0.950 . S
C501 C518 1.574 . S
C501 C520 1.368 . S
C501 H525 0.949 . S
H502 C506 0.949 . S
C503 C504 1.349 . S
C503 C505 1.327 . S
C503 H526 0.950 . S
C504 C503 1.349 . S
C504 C516 1.349 . S
C505 C503 1.327 . S
C505 C521 1.429 . S
C505 H527 0.950 . S
C506 H502 0.949 . S
C506 C514 1.574 . S
C506 C522 1.368 . S
H507 C515 0.950 . S
H508 C513 0.950 . S
H509 C514 0.949 . S
H510 C516 0.950 . S
H511 C517 0.950 . S
H512 C518 0.949 . S
C513 H508 0.950 . S
C513 C515 1.327 . S
C513 C519 1.429 . S
C514 C506 1.574 . S
C514 H509 0.949 . S
C514 C520 1.368 . S
C515 C499 1.349 . S
C515 H507 0.950 . S
C515 C513 1.327 . S
C516 C504 1.349 . S
C516 H510 0.950 . S
C516 C517 1.327 . S
C517 H511 0.950 . S
C517 C516 1.327 . S
C517 C521 1.429 . S
C518 C501 1.574 . S
C518 H512 0.949 . S
C518 C522 1.368 . S
C519 C500 1.429 . S
C519 C513 1.429 . S
C519 C520 1.523 . S
C520 C501 1.368 . S
C520 C514 1.368 . S
C520 C519 1.523 . S
C521 C505 1.429 . S
C521 C517 1.429 . S
C521 C522 1.523 . S
C522 C506 1.368 . S
C522 C518 1.368 . S
C522 C521 1.523 . S
H523 C498 0.950 1_554 S
H524 C500 0.950 . S
H525 C501 0.949 . S
H526 C503 0.950 . S
H527 C505 0.950 . S
C528 C529 1.349 . S
C528 C530 1.327 . S
C528 H553 0.950 1_556 S
C529 C528 1.349 . S
C529 C545 1.349 . S
C530 C528 1.327 . S
C530 C549 1.429 . S
C530 H554 0.950 . S
C531 C548 1.574 . S
C531 C550 1.368 . S
C531 H555 0.949 . S
H532 C536 0.949 . S
C533 C534 1.349 . S
C533 C535 1.327 . S
C533 H556 0.950 . S
C534 C533 1.349 . S
C534 C546 1.349 . S
C535 C533 1.327 . S
C535 C551 1.429 . S
C535 H557 0.950 . S
C536 H532 0.949 . S
C536 C544 1.574 . S
C536 C552 1.368 . S
H537 C545 0.950 . S
H538 C543 0.950 . S
H539 C544 0.949 . S
H540 C546 0.950 . S
H541 C547 0.950 . S
H542 C548 0.949 . S
C543 H538 0.950 . S
C543 C545 1.327 . S
C543 C549 1.429 . S
C544 C536 1.574 . S
C544 H539 0.949 . S
C544 C550 1.368 . S
C545 C529 1.349 . S
C545 H537 0.950 . S
C545 C543 1.327 . S
C546 C534 1.349 . S
C546 H540 0.950 . S
C546 C547 1.327 . S
C547 H541 0.950 . S
C547 C546 1.327 . S
C547 C551 1.429 . S
C548 C531 1.574 . S
C548 H542 0.949 . S
C548 C552 1.368 . S
C549 C530 1.429 . S
C549 C543 1.429 . S
C549 C550 1.523 . S
C550 C531 1.368 . S
C550 C544 1.368 . S
C550 C549 1.523 . S
C551 C535 1.429 . S
C551 C547 1.429 . S
C551 C552 1.523 . S
C552 C536 1.368 . S
C552 C548 1.368 . S
C552 C551 1.523 . S
H553 C528 0.950 1_554 S
H554 C530 0.950 . S
H555 C531 0.949 . S
H556 C533 0.950 . S
H557 C535 0.950 . S
C558 C559 1.349 1_456 S
C558 C560 1.327 . S
C558 H583 0.950 . S
C559 C558 1.349 1_654 S
C559 C575 1.349 . S
C560 C558 1.327 . S
C560 C579 1.429 1_455 S
C560 H584 0.950 . S
C561 C578 1.574 . S
C561 C580 1.365 1_655 S
C561 H585 0.949 . S
H562 C566 0.949 . S
C563 C564 1.349 . S
C563 C565 1.327 . S
C563 H586 0.948 1_455 S
C564 C563 1.349 . S
C564 C576 1.349 . S
C565 C563 1.327 . S
C565 C581 1.429 . S
C565 H587 0.950 1_455 S
C566 H562 0.949 . S
C566 C574 1.574 . S
C566 C582 1.368 . S
H567 C575 0.950 . S
H568 C573 0.950 . S
H569 C574 0.949 . S
H570 C576 0.950 . S
H571 C577 0.950 . S
H572 C578 0.949 . S
C573 H568 0.950 . S
C573 C575 1.327 . S
C573 C579 1.429 1_554 S
C574 C566 1.574 . S
C574 H569 0.949 . S
C574 C580 1.373 . S
C575 C559 1.349 . S
C575 H567 0.950 . S
C575 C573 1.327 . S
C576 C564 1.349 . S
C576 H570 0.950 . S
C576 C577 1.327 . S
C577 H571 0.950 . S
C577 C576 1.327 . S
C577 C581 1.429 . S
C578 C561 1.574 . S
C578 H572 0.949 . S
C578 C582 1.368 1_655 S
C579 C560 1.429 1_655 S
C579 C573 1.429 1_556 S
C579 C580 1.521 1_655 S
C580 C561 1.365 1_455 S
C580 C574 1.373 . S
C580 C579 1.521 1_455 S
C581 C565 1.429 . S
C581 C577 1.429 . S
C581 C582 1.523 . S
C582 C566 1.368 . S
C582 C578 1.368 1_455 S
C582 C581 1.523 . S
H583 C558 0.950 . S
H584 C560 0.950 . S
H585 C561 0.949 . S
H586 C563 0.948 1_655 S
H587 C565 0.950 1_655 S
C588 C589 1.349 . S
C588 C590 1.327 . S
C588 H613 0.950 . S
C589 C588 1.349 . S
C589 C605 1.349 . S
C590 C588 1.327 . S
C590 C609 1.429 . S
C590 H614 0.950 . S
C591 C608 1.574 . S
C591 C610 1.368 . S
C591 H615 0.949 . S
H592 C596 0.949 . S
C593 C594 1.349 . S
C593 C595 1.327 . S
C593 H616 0.950 . S
C594 C593 1.349 . S
C594 C606 1.349 . S
C595 C593 1.327 . S
C595 C611 1.429 . S
C595 H617 0.950 . S
C596 H592 0.949 . S
C596 C604 1.574 . S
C596 C612 1.368 . S
H597 C605 0.950 . S
H598 C603 0.950 . S
H599 C604 0.949 . S
H600 C606 0.950 . S
H601 C607 0.950 . S
H602 C608 0.949 . S
C603 H598 0.950 . S
C603 C605 1.327 . S
C603 C609 1.429 . S
C604 C596 1.574 . S
C604 H599 0.949 . S
C604 C610 1.368 . S
C605 C589 1.349 . S
C605 H597 0.950 . S
C605 C603 1.327 . S
C606 C594 1.349 . S
C606 H600 0.950 . S
C606 C607 1.327 . S
C607 H601 0.950 . S
C607 C606 1.327 . S
C607 C611 1.429 . S
C608 C591 1.574 . S
C608 H602 0.949 . S
C608 C612 1.368 . S
C609 C590 1.429 . S
C609 C603 1.429 . S
C609 C610 1.523 . S
C610 C591 1.368 . S
C610 C604 1.368 . S
C610 C609 1.523 . S
C611 C595 1.429 . S
C611 C607 1.429 . S
C611 C612 1.523 . S
C612 C596 1.368 . S
C612 C608 1.368 . S
C612 C611 1.523 . S
H613 C588 0.950 . S
H614 C590 0.950 . S
H615 C591 0.949 . S
H616 C593 0.950 . S
H617 C595 0.950 . S
C618 C619 1.362 . S
C618 C620 1.327 . S
C618 H643 0.950 . S
C619 C618 1.362 . S
C619 C635 1.335 1_545 S
C620 C618 1.327 . S
C620 C639 1.429 1_545 S
C620 H644 0.950 . S
C621 C638 1.574 . S
C621 C640 1.382 . S
C621 H645 0.949 . S
H622 C626 0.949 . S
C623 C624 1.349 . S
C623 C625 1.327 . S
C623 H646 0.950 . S
C624 C623 1.349 . S
C624 C636 1.349 1_565 S
C625 C623 1.327 . S
C625 C641 1.429 . S
C625 H647 0.950 . S
C626 H622 0.949 . S
C626 C634 1.574 . S
C626 C642 1.332 1_545 S
H627 C635 0.950 . S
H628 C633 0.950 . S
H629 C634 0.949 . S
H630 C636 0.950 . S
H631 C637 0.950 . S
H632 C638 0.949 . S
C633 H628 0.950 . S
C633 C635 1.327 . S
C633 C639 1.429 . S
C634 C626 1.574 . S
C634 H629 0.949 . S
C634 C640 1.355 1_545 S
C635 C619 1.335 1_565 S
C635 H627 0.950 . S
C635 C633 1.327 . S
C636 C624 1.349 1_545 S
C636 H630 0.950 . S
C636 C637 1.327 . S
C637 H631 0.950 . S
C637 C636 1.327 . S
C637 C641 1.429 1_545 S
C638 C621 1.574 . S
C638 H632 0.949 . S
C638 C642 1.404 . S
C639 C620 1.429 1_565 S
C639 C633 1.429 . S
C639 C640 1.522 . S
C640 C621 1.382 . S
C640 C634 1.355 1_565 S
C640 C639 1.522 . S
C641 C625 1.429 . S
C641 C637 1.429 1_565 S
C641 C642 1.526 . S
C642 C626 1.332 1_565 S
C642 C638 1.404 . S
C642 C641 1.526 . S
H643 C618 0.950 . S
H644 C620 0.950 . S
H645 C621 0.949 . S
H646 C623 0.950 . S
H647 C625 0.950 . S
C648 C649 1.349 . S
C648 C650 1.327 . S
C648 H673 0.950 . S
C649 C648 1.349 . S
C649 C665 1.349 . S
C650 C648 1.327 . S
C650 C669 1.429 . S
C650 H674 0.950 . S
C651 C668 1.574 . S
C651 C670 1.368 . S
C651 H675 0.949 . S
H652 C656 0.949 . S
C653 C654 1.349 . S
C653 C655 1.327 . S
C653 H676 0.950 . S
C654 C653 1.349 . S
C654 C666 1.349 . S
C655 C653 1.327 . S
C655 C671 1.429 . S
C655 H677 0.950 . S
C656 H652 0.949 . S
C656 C664 1.574 . S
C656 C672 1.368 . S
H657 C665 0.950 . S
H658 C663 0.950 . S
H659 C664 0.949 . S
H660 C666 0.950 . S
H661 C667 0.950 . S
H662 C668 0.949 . S
C663 H658 0.950 . S
C663 C665 1.327 . S
C663 C669 1.429 . S
C664 C656 1.574 . S
C664 H659 0.949 . S
C664 C670 1.368 . S
C665 C649 1.349 . S
C665 H657 0.950 . S
C665 C663 1.327 . S
C666 C654 1.349 . S
C666 H660 0.950 . S
C666 C667 1.327 . S
C667 H661 0.950 . S
C667 C666 1.327 . S
C667 C671 1.429 . S
C668 C651 1.574 . S
C668 H662 0.949 . S
C668 C672 1.368 . S
C669 C650 1.429 . S
C669 C663 1.429 . S
C669 C670 1.523 . S
C670 C651 1.368 . S
C670 C664 1.368 . S
C670 C669 1.523 . S
C671 C655 1.429 . S
C671 C667 1.429 . S
C671 C672 1.523 . S
C672 C656 1.368 . S
C672 C668 1.368 . S
C672 C671 1.523 . S
H673 C648 0.950 . S
H674 C650 0.950 . S
H675 C651 0.949 . S
H676 C653 0.950 . S
H677 C655 0.950 . S
C678 C679 1.349 . S
C678 C680 1.327 . S
C678 H703 0.950 . S
C679 C678 1.349 . S
C679 C695 1.349 . S
C680 C678 1.327 . S
C680 C699 1.429 . S
C680 H704 0.950 . S
C681 C698 1.574 . S
C681 C700 1.368 . S
C681 H705 0.949 . S
H682 C686 0.949 . S
C683 C684 1.349 . S
C683 C685 1.327 . S
C683 H706 0.950 . S
C684 C683 1.349 . S
C684 C696 1.349 . S
C685 C683 1.327 . S
C685 C701 1.429 . S
C685 H707 0.950 . S
C686 H682 0.949 . S
C686 C694 1.574 . S
C686 C702 1.368 . S
H687 C695 0.950 . S
H688 C693 0.950 . S
H689 C694 0.949 . S
H690 C696 0.950 . S
H691 C697 0.950 . S
H692 C698 0.949 . S
C693 H688 0.950 . S
C693 C695 1.327 . S
C693 C699 1.429 . S
C694 C686 1.574 . S
C694 H689 0.949 . S
C694 C700 1.368 . S
C695 C679 1.349 . S
C695 H687 0.950 . S
C695 C693 1.327 . S
C696 C684 1.349 . S
C696 H690 0.950 . S
C696 C697 1.327 . S
C697 H691 0.950 . S
C697 C696 1.327 . S
C697 C701 1.429 . S
C698 C681 1.574 . S
C698 H692 0.949 . S
C698 C702 1.368 . S
C699 C680 1.429 . S
C699 C693 1.429 . S
C699 C700 1.523 . S
C700 C681 1.368 . S
C700 C694 1.368 . S
C700 C699 1.523 . S
C701 C685 1.429 . S
C701 C697 1.429 . S
C701 C702 1.523 . S
C702 C686 1.368 . S
C702 C698 1.368 . S
C702 C701 1.523 . S
H703 C678 0.950 . S
H704 C680 0.950 . S
H705 C681 0.949 . S
H706 C683 0.950 . S
H707 C685 0.950 . S
C708 C709 1.349 . S
C708 C710 1.327 . S
C708 H733 0.950 . S
C709 C708 1.349 . S
C709 C725 1.349 1_656 S
C710 C708 1.327 . S
C710 C729 1.429 1_655 S
C710 H734 0.950 . S
C711 C728 1.574 . S
C711 C730 1.368 . S
C711 H735 0.949 . S
H712 C716 0.949 . S
C713 C714 1.349 . S
C713 C715 1.327 . S
C713 H736 0.950 . S
C714 C713 1.349 . S
C714 C726 1.349 . S
C715 C713 1.327 . S
C715 C731 1.429 . S
C715 H737 0.950 . S
C716 H712 0.949 . S
C716 C724 1.574 . S
C716 C732 1.368 . S
H717 C725 0.950 . S
H718 C723 0.950 1_554 S
H719 C724 0.949 1_655 S
H720 C726 0.950 . S
H721 C727 0.950 . S
H722 C728 0.949 . S
C723 H718 0.950 1_556 S
C723 C725 1.327 1_556 S
C723 C729 1.429 . S
C724 C716 1.574 . S
C724 H719 0.949 1_455 S
C724 C730 1.368 . S
C725 C709 1.349 1_454 S
C725 H717 0.950 . S
C725 C723 1.327 1_554 S
C726 C714 1.349 . S
C726 H720 0.950 . S
C726 C727 1.327 . S
C727 H721 0.950 . S
C727 C726 1.327 . S
C727 C731 1.429 . S
C728 C711 1.574 . S
C728 H722 0.949 . S
C728 C732 1.368 . S
C729 C710 1.429 1_455 S
C729 C723 1.429 . S
C729 C730 1.523 . S
C730 C711 1.368 . S
C730 C724 1.368 . S
C730 C729 1.523 . S
C731 C715 1.429 . S
C731 C727 1.429 . S
C731 C732 1.523 . S
C732 C716 1.368 . S
C732 C728 1.368 . S
C732 C731 1.523 . S
H733 C708 0.950 . S
H734 C710 0.950 . S
H735 C711 0.949 . S
H736 C713 0.950 . S
H737 C715 0.950 . S
C738 C739 1.349 1_545 S
C738 C740 1.327 . S
C738 H763 0.950 . S
C739 C738 1.349 1_565 S
C739 C755 1.349 . S
C740 C738 1.327 . S
C740 C759 1.429 . S
C740 H764 0.950 . S
C741 C758 1.574 . S
C741 C760 1.368 1_565 S
C741 H765 0.949 . S
H742 C746 0.949 . S
C743 C744 1.349 . S
C743 C745 1.327 . S
C743 H766 0.953 1_545 S
C744 C743 1.349 . S
C744 C756 1.349 . S
C745 C743 1.327 . S
C745 C761 1.429 . S
C745 H767 0.950 1_545 S
C746 H742 0.949 . S
C746 C754 1.574 . S
C746 C762 1.368 . S
H747 C755 0.950 . S
H748 C753 0.950 . S
H749 C754 0.949 . S
H750 C756 0.950 . S
H751 C757 0.950 . S
H752 C758 0.949 . S
C753 H748 0.950 . S
C753 C755 1.327 . S
C753 C759 1.429 1_565 S
C754 C746 1.574 . S
C754 H749 0.949 . S
C754 C760 1.368 . S
C755 C739 1.349 . S
C755 H747 0.950 . S
C755 C753 1.327 . S
C756 C744 1.349 . S
C756 H750 0.950 . S
C756 C757 1.327 . S
C757 H751 0.950 . S
C757 C756 1.327 . S
C757 C761 1.429 . S
C758 C741 1.574 . S
C758 H752 0.949 . S
C758 C762 1.368 1_565 S
C759 C740 1.429 . S
C759 C753 1.429 1_545 S
C759 C760 1.523 . S
C760 C741 1.368 1_545 S
C760 C754 1.368 . S
C760 C759 1.523 . S
C761 C745 1.429 . S
C761 C757 1.429 . S
C761 C762 1.523 . S
C762 C746 1.368 . S
C762 C758 1.368 1_545 S
C762 C761 1.523 . S
H763 C738 0.950 . S
H764 C740 0.950 . S
H765 C741 0.949 . S
H766 C743 0.953 1_565 S
H767 C745 0.950 1_565 S
C768 C769 1.349 . S
C768 C770 1.327 . S
C768 H793 0.950 . S
C769 C768 1.349 . S
C769 C785 1.349 . S
C770 C768 1.327 . S
C770 C789 1.429 . S
C770 H794 0.950 . S
C771 C788 1.574 . S
C771 C790 1.368 . S
C771 H795 0.949 . S
H772 C776 0.949 . S
C773 C774 1.349 . S
C773 C775 1.327 . S
C773 H796 0.950 . S
C774 C773 1.349 . S
C774 C786 1.349 . S
C775 C773 1.327 . S
C775 C791 1.429 . S
C775 H797 0.950 . S
C776 H772 0.949 . S
C776 C784 1.574 . S
C776 C792 1.368 . S
H777 C785 0.950 . S
H778 C783 0.950 . S
H779 C784 0.949 . S
H780 C786 0.950 . S
H781 C787 0.950 . S
H782 C788 0.949 . S
C783 H778 0.950 . S
C783 C785 1.327 . S
C783 C789 1.429 . S
C784 C776 1.574 . S
C784 H779 0.949 . S
C784 C790 1.368 . S
C785 C769 1.349 . S
C785 H777 0.950 . S
C785 C783 1.327 . S
C786 C774 1.349 . S
C786 H780 0.950 . S
C786 C787 1.327 . S
C787 H781 0.950 . S
C787 C786 1.327 . S
C787 C791 1.429 . S
C788 C771 1.574 . S
C788 H782 0.949 . S
C788 C792 1.368 . S
C789 C770 1.429 . S
C789 C783 1.429 . S
C789 C790 1.523 . S
C790 C771 1.368 . S
C790 C784 1.368 . S
C790 C789 1.523 . S
C791 C775 1.429 . S
C791 C787 1.429 . S
C791 C792 1.523 . S
C792 C776 1.368 . S
C792 C788 1.368 . S
C792 C791 1.523 . S
H793 C768 0.950 . S
H794 C770 0.950 . S
H795 C771 0.949 . S
H796 C773 0.950 . S
H797 C775 0.950 . S
C798 C799 1.349 . S
C798 C800 1.327 . S
C798 H823 0.950 . S
C799 C798 1.349 . S
C799 C815 1.349 . S
C800 C798 1.327 . S
C800 C819 1.429 . S
C800 H824 0.950 . S
C801 C818 1.574 . S
C801 C820 1.368 . S
C801 H825 0.949 . S
H802 C806 0.949 . S
C803 C804 1.349 . S
C803 C805 1.327 . S
C803 H826 0.950 . S
C804 C803 1.349 . S
C804 C816 1.349 . S
C805 C803 1.327 . S
C805 C821 1.429 . S
C805 H827 0.950 . S
C806 H802 0.949 . S
C806 C814 1.574 . S
C806 C822 1.368 . S
H807 C815 0.950 . S
H808 C813 0.950 . S
H809 C814 0.949 . S
H810 C816 0.950 . S
H811 C817 0.950 . S
H812 C818 0.949 . S
C813 H808 0.950 . S
C813 C815 1.327 . S
C813 C819 1.429 . S
C814 C806 1.574 . S
C814 H809 0.949 . S
C814 C820 1.368 . S
C815 C799 1.349 . S
C815 H807 0.950 . S
C815 C813 1.327 . S
C816 C804 1.349 . S
C816 H810 0.950 . S
C816 C817 1.327 . S
C817 H811 0.950 . S
C817 C816 1.327 . S
C817 C821 1.429 . S
C818 C801 1.574 . S
C818 H812 0.949 . S
C818 C822 1.368 . S
C819 C800 1.429 . S
C819 C813 1.429 . S
C819 C820 1.523 . S
C820 C801 1.368 . S
C820 C814 1.368 . S
C820 C819 1.523 . S
C821 C805 1.429 . S
C821 C817 1.429 . S
C821 C822 1.523 . S
C822 C806 1.368 . S
C822 C818 1.368 . S
C822 C821 1.523 . S
H823 C798 0.950 . S
H824 C800 0.950 . S
H825 C801 0.949 . S
H826 C803 0.950 . S
H827 C805 0.950 . S
C828 C829 1.349 . S
C828 C830 1.327 . S
C828 H853 0.950 . S
C829 C828 1.349 . S
C829 C845 1.349 . S
C830 C828 1.327 . S
C830 C849 1.429 . S
C830 H854 0.950 . S
C831 C848 1.574 1_554 S
C831 C850 1.368 . S
C831 H855 0.949 . S
H832 C836 0.949 . S
C833 C834 1.349 . S
C833 C835 1.327 . S
C833 H856 0.950 . S
C834 C833 1.349 . S
C834 C846 1.349 . S
C835 C833 1.327 . S
C835 C851 1.429 . S
C835 H857 0.950 . S
C836 H832 0.949 . S
C836 C844 1.574 . S
C836 C852 1.368 . S
H837 C845 0.950 . S
H838 C843 0.950 . S
H839 C844 0.948 1_554 S
H840 C846 0.950 . S
H841 C847 0.950 . S
H842 C848 0.949 . S
C843 H838 0.950 . S
C843 C845 1.327 . S
C843 C849 1.429 . S
C844 C836 1.574 . S
C844 H839 0.948 1_556 S
C844 C850 1.368 1_556 S
C845 C829 1.349 . S
C845 H837 0.950 . S
C845 C843 1.327 . S
C846 C834 1.349 . S
C846 H840 0.950 . S
C846 C847 1.327 . S
C847 H841 0.950 . S
C847 C846 1.327 . S
C847 C851 1.429 . S
C848 C831 1.574 1_556 S
C848 H842 0.949 . S
C848 C852 1.368 . S
C849 C830 1.429 . S
C849 C843 1.429 . S
C849 C850 1.523 . S
C850 C831 1.368 . S
C850 C844 1.368 1_554 S
C850 C849 1.523 . S
C851 C835 1.429 . S
C851 C847 1.429 . S
C851 C852 1.523 . S
C852 C836 1.368 . S
C852 C848 1.368 . S
C852 C851 1.523 . S
H853 C828 0.950 . S
H854 C830 0.950 . S
H855 C831 0.949 . S
H856 C833 0.950 . S
H857 C835 0.950 . S
C858 C859 1.346 1_565 S
C858 C860 1.327 . S
C858 H883 0.950 . S
C859 C858 1.346 1_545 S
C859 C875 1.352 . S
C860 C858 1.327 . S
C860 C879 1.426 1_565 S
C860 H884 0.950 1_554 S
C861 C878 1.574 . S
C861 C880 1.371 . S
C861 H885 0.949 1_556 S
H862 C866 0.949 . S
C863 C864 1.351 . S
C863 C865 1.327 . S
C863 H886 0.950 . S
C864 C863 1.351 . S
C864 C876 1.347 1_545 S
C865 C863 1.327 . S
C865 C881 1.430 . S
C865 H887 0.950 . S
C866 H862 0.949 . S
C866 C874 1.574 . S
C866 C882 1.366 1_565 S
H867 C875 0.950 . S
H868 C873 0.950 . S
H869 C874 0.949 . S
H870 C876 0.950 . S
H871 C877 0.950 . S
H872 C878 0.949 . S
C873 H868 0.950 . S
C873 C875 1.327 . S
C873 C879 1.431 . S
C874 C866 1.574 . S
C874 H869 0.949 . S
C874 C880 1.366 1_565 S
C875 C859 1.352 . S
C875 H867 0.950 . S
C875 C873 1.327 . S
C876 C864 1.347 1_565 S
C876 H870 0.950 . S
C876 C877 1.327 . S
C877 H871 0.950 . S
C877 C876 1.327 . S
C877 C881 1.427 1_565 S
C878 C861 1.574 . S
C878 H872 0.949 . S
C878 C882 1.371 . S
C879 C860 1.426 1_545 S
C879 C873 1.431 . S
C879 C880 1.523 1_554 S
C880 C861 1.371 . S
C880 C874 1.366 1_545 S
C880 C879 1.523 1_556 S
C881 C865 1.430 . S
C881 C877 1.427 1_545 S
C881 C882 1.523 . S
C882 C866 1.366 1_545 S
C882 C878 1.371 . S
C882 C881 1.523 . S
H883 C858 0.950 . S
H884 C860 0.950 1_556 S
H885 C861 0.949 1_554 S
H886 C863 0.950 . S
H887 C865 0.950 . S
C888 C889 1.349 . S
C888 C890 1.327 . S
C888 H913 0.950 . S
C889 C888 1.349 . S
C889 C905 1.349 . S
C890 C888 1.327 . S
C890 C909 1.429 1_554 S
C890 H914 0.950 . S
C891 C908 1.574 . S
C891 C910 1.368 . S
C891 H915 0.949 . S
H892 C896 0.949 . S
C893 C894 1.349 . S
C893 C895 1.327 . S
C893 H916 0.950 . S
C894 C893 1.349 . S
C894 C906 1.349 . S
C895 C893 1.327 . S
C895 C911 1.429 . S
C895 H917 0.950 . S
C896 H892 0.949 . S
C896 C904 1.574 . S
C896 C912 1.368 . S
H897 C905 0.950 1_556 S
H898 C903 0.950 . S
H899 C904 0.949 1_554 S
H900 C906 0.950 . S
H901 C907 0.950 . S
H902 C908 0.949 . S
C903 H898 0.950 . S
C903 C905 1.327 1_556 S
C903 C909 1.429 . S
C904 C896 1.574 . S
C904 H899 0.949 1_556 S
C904 C910 1.368 . S
C905 C889 1.349 . S
C905 H897 0.950 1_554 S
C905 C903 1.327 1_554 S
C906 C894 1.349 . S
C906 H900 0.950 . S
C906 C907 1.327 . S
C907 H901 0.950 . S
C907 C906 1.327 . S
C907 C911 1.429 . S
C908 C891 1.574 . S
C908 H902 0.949 . S
C908 C912 1.368 . S
C909 C890 1.429 1_556 S
C909 C903 1.429 . S
C909 C910 1.523 . S
C910 C891 1.368 . S
C910 C904 1.368 . S
C910 C909 1.523 . S
C911 C895 1.429 . S
C911 C907 1.429 . S
C911 C912 1.523 . S
C912 C896 1.368 . S
C912 C908 1.368 . S
C912 C911 1.523 . S
H913 C888 0.950 . S
H914 C890 0.950 . S
H915 C891 0.949 . S
H916 C893 0.950 . S
H917 C895 0.950 . S
C918 C919 1.349 . S
C918 C920 1.327 1_554 S
C918 H943 0.950 . S
C919 C918 1.349 . S
C919 C935 1.349 . S
C920 C918 1.327 1_556 S
C920 C939 1.429 . S
C920 H944 0.950 . S
C921 C938 1.574 . S
C921 C940 1.368 . S
C921 H945 0.949 1_556 S
H922 C926 0.949 . S
C923 C924 1.349 . S
C923 C925 1.327 . S
C923 H946 0.950 . S
C924 C923 1.349 . S
C924 C936 1.349 . S
C925 C923 1.327 . S
C925 C941 1.429 . S
C925 H947 0.950 . S
C926 H922 0.949 . S
C926 C934 1.574 . S
C926 C942 1.368 . S
H927 C935 0.950 . S
H928 C933 0.950 . S
H929 C934 0.949 . S
H930 C936 0.950 . S
H931 C937 0.950 . S
H932 C938 0.949 . S
C933 H928 0.950 . S
C933 C935 1.327 . S
C933 C939 1.429 1_554 S
C934 C926 1.574 . S
C934 H929 0.949 . S
C934 C940 1.368 . S
C935 C919 1.349 . S
C935 H927 0.950 . S
C935 C933 1.327 . S
C936 C924 1.349 . S
C936 H930 0.950 . S
C936 C937 1.327 . S
C937 H931 0.950 . S
C937 C936 1.327 . S
C937 C941 1.429 . S
C938 C921 1.574 . S
C938 H932 0.949 . S
C938 C942 1.368 . S
C939 C920 1.429 . S
C939 C933 1.429 1_556 S
C939 C940 1.523 . S
C940 C921 1.368 . S
C940 C934 1.368 . S
C940 C939 1.523 . S
C941 C925 1.429 . S
C941 C937 1.429 . S
C941 C942 1.523 . S
C942 C926 1.368 . S
C942 C938 1.368 . S
C942 C941 1.523 . S
H943 C918 0.950 . S
H944 C920 0.950 . S
H945 C921 0.949 1_554 S
H946 C923 0.950 . S
H947 C925 0.950 . S
C948 C949 1.349 . S
C948 C950 1.327 . S
C948 H973 0.950 . S
C949 C948 1.349 . S
C949 C965 1.349 1_655 S
C950 C948 1.327 . S
C950 C969 1.429 . S
C950 H974 0.950 . S
C951 C968 1.574 . S
C951 C970 1.342 1_455 S
C951 H975 0.949 . S
H952 C956 0.949 . S
C953 C954 1.349 . S
C953 C955 1.327 . S
C953 H976 0.950 . S
C954 C953 1.349 . S
C954 C966 1.349 1_455 S
C955 C953 1.327 . S
C955 C971 1.429 . S
C955 H977 0.950 . S
C956 H952 0.949 . S
C956 C964 1.574 . S
C956 C972 1.338 1_655 S
H957 C965 0.950 . S
H958 C963 0.950 . S
H959 C964 0.949 . S
H960 C966 0.950 . S
H961 C967 0.950 . S
H962 C968 0.949 . S
C963 H958 0.950 . S
C963 C965 1.327 . S
C963 C969 1.429 1_455 S
C964 C956 1.574 . S
C964 H959 0.949 . S
C964 C970 1.395 . S
C965 C949 1.349 1_455 S
C965 H957 0.950 . S
C965 C963 1.327 . S
C966 C954 1.349 1_655 S
C966 H960 0.950 . S
C966 C967 1.327 . S
C967 H961 0.950 . S
C967 C966 1.327 . S
C967 C971 1.429 1_655 S
C968 C951 1.574 . S
C968 H962 0.949 . S
C968 C972 1.399 . S
C969 C950 1.429 . S
C969 C963 1.429 1_655 S
C969 C970 1.524 . S
C970 C951 1.342 1_655 S
C970 C964 1.395 . S
C970 C969 1.524 . S
C971 C955 1.429 . S
C971 C967 1.429 1_455 S
C971 C972 1.524 . S
C972 C956 1.338 1_455 S
C972 C968 1.399 . S
C972 C971 1.524 . S
H973 C948 0.950 . S
H974 C950 0.950 . S
H975 C951 0.949 . S
H976 C953 0.950 . S
H977 C955 0.950 . S
C978 C979 1.349 . S
C978 C980 1.327 . S
C978 H1003 0.950 . S
C979 C978 1.349 . S
C979 C995 1.349 1_565 S
C980 C978 1.327 . S
C980 C999 1.429 . S
C980 H1004 0.950 . S
C981 C998 1.574 . S
C981 C1000 1.368 1_545 S
C981 H1005 0.949 . S
H982 C986 0.949 . S
C983 C984 1.349 . S
C983 C985 1.327 1_565 S
C983 H1006 0.950 1_565 S
C984 C983 1.349 . S
C984 C996 1.349 . S
C985 C983 1.327 1_545 S
C985 C1001 1.429 1_545 S
C985 H1007 0.950 . S
C986 H982 0.949 . S
C986 C994 1.574 . S
C986 C1002 1.368 . S
H987 C995 0.950 . S
H988 C993 0.950 . S
H989 C994 0.949 . S
H990 C996 0.950 . S
H991 C997 0.950 . S
H992 C998 0.949 . S
C993 H988 0.950 . S
C993 C995 1.327 . S
C993 C999 1.429 1_545 S
C994 C986 1.574 . S
C994 H989 0.949 . S
C994 C1000 1.368 . S
C995 C979 1.349 1_545 S
C995 H987 0.950 . S
C995 C993 1.327 . S
C996 C984 1.349 . S
C996 H990 0.950 . S
C996 C997 1.327 . S
C997 H991 0.950 . S
C997 C996 1.327 . S
C997 C1001 1.429 . S
C998 C981 1.574 . S
C998 H992 0.949 . S
C998 C1002 1.368 1_545 S
C999 C980 1.429 . S
C999 C993 1.429 1_565 S
C999 C1000 1.523 . S
C1000 C981 1.368 1_565 S
C1000 C994 1.368 . S
C1000 C999 1.523 . S
C1001 C985 1.429 1_565 S
C1001 C997 1.429 . S
C1001 C1002 1.523 . S
C1002 C986 1.368 . S
C1002 C998 1.368 1_565 S
C1002 C1001 1.523 . S
H1003 C978 0.950 . S
H1004 C980 0.950 . S
H1005 C981 0.949 . S
H1006 C983 0.950 1_545 S
H1007 C985 0.950 . S
C1008 C1009 1.349 . S
C1008 C1010 1.327 . S
C1008 H1033 0.950 . S
C1009 C1008 1.349 . S
C1009 C1025 1.349 . S
C1010 C1008 1.327 . S
C1010 C1029 1.429 . S
C1010 H1034 0.950 . S
C1011 C1028 1.574 . S
C1011 C1030 1.368 . S
C1011 H1035 0.949 . S
H1012 C1016 0.949 . S
C1013 C1014 1.349 . S
C1013 C1015 1.327 . S
C1013 H1036 0.950 . S
C1014 C1013 1.349 . S
C1014 C1026 1.349 . S
C1015 C1013 1.327 . S
C1015 C1031 1.429 . S
C1015 H1037 0.950 . S
C1016 H1012 0.949 . S
C1016 C1024 1.574 . S
C1016 C1032 1.368 . S
H1017 C1025 0.950 . S
H1018 C1023 0.950 . S
H1019 C1024 0.949 . S
H1020 C1026 0.950 . S
H1021 C1027 0.950 . S
H1022 C1028 0.949 . S
C1023 H1018 0.950 . S
C1023 C1025 1.327 . S
C1023 C1029 1.429 . S
C1024 C1016 1.574 . S
C1024 H1019 0.949 . S
C1024 C1030 1.368 . S
C1025 C1009 1.349 . S
C1025 H1017 0.950 . S
C1025 C1023 1.327 . S
C1026 C1014 1.349 . S
C1026 H1020 0.950 . S
C1026 C1027 1.327 . S
C1027 H1021 0.950 . S
C1027 C1026 1.327 . S
C1027 C1031 1.429 . S
C1028 C1011 1.574 . S
C1028 H1022 0.949 . S
C1028 C1032 1.368 . S
C1029 C1010 1.429 . S
C1029 C1023 1.429 . S
C1029 C1030 1.523 . S
C1030 C1011 1.368 . S
C1030 C1024 1.368 . S
C1030 C1029 1.523 . S
C1031 C1015 1.429 . S
C1031 C1027 1.429 . S
C1031 C1032 1.523 . S
C1032 C1016 1.368 . S
C1032 C1028 1.368 . S
C1032 C1031 1.523 . S
H1033 C1008 0.950 . S
H1034 C1010 0.950 . S
H1035 C1011 0.949 . S
H1036 C1013 0.950 . S
H1037 C1015 0.950 . S
C1038 C1039 1.349 . S
C1038 C1040 1.327 . S
C1038 H1063 0.950 . S
C1039 C1038 1.349 . S
C1039 C1055 1.349 . S
C1040 C1038 1.327 . S
C1040 C1059 1.429 . S
C1040 H1064 0.950 . S
C1041 C1058 1.574 . S
C1041 C1060 1.368 . S
C1041 H1065 0.949 . S
H1042 C1046 0.949 . S
C1043 C1044 1.349 . S
C1043 C1045 1.327 . S
C1043 H1066 0.950 . S
C1044 C1043 1.349 . S
C1044 C1056 1.349 . S
C1045 C1043 1.327 . S
C1045 C1061 1.429 . S
C1045 H1067 0.950 . S
C1046 H1042 0.949 . S
C1046 C1054 1.574 . S
C1046 C1062 1.368 . S
H1047 C1055 0.950 . S
H1048 C1053 0.950 . S
H1049 C1054 0.949 . S
H1050 C1056 0.950 . S
H1051 C1057 0.950 . S
H1052 C1058 0.949 . S
C1053 H1048 0.950 . S
C1053 C1055 1.327 . S
C1053 C1059 1.429 . S
C1054 C1046 1.574 . S
C1054 H1049 0.949 . S
C1054 C1060 1.368 . S
C1055 C1039 1.349 . S
C1055 H1047 0.950 . S
C1055 C1053 1.327 . S
C1056 C1044 1.349 . S
C1056 H1050 0.950 . S
C1056 C1057 1.327 . S
C1057 H1051 0.950 . S
C1057 C1056 1.327 . S
C1057 C1061 1.429 . S
C1058 C1041 1.574 . S
C1058 H1052 0.949 . S
C1058 C1062 1.368 . S
C1059 C1040 1.429 . S
C1059 C1053 1.429 . S
C1059 C1060 1.523 . S
C1060 C1041 1.368 . S
C1060 C1054 1.368 . S
C1060 C1059 1.523 . S
C1061 C1045 1.429 . S
C1061 C1057 1.429 . S
C1061 C1062 1.523 . S
C1062 C1046 1.368 . S
C1062 C1058 1.368 . S
C1062 C1061 1.523 . S
H1063 C1038 0.950 . S
H1064 C1040 0.950 . S
H1065 C1041 0.949 . S
H1066 C1043 0.950 . S
H1067 C1045 0.950 . S
C349 C215 1.514 1_565 S
C354 C272 1.532 . S
C384 C295 1.698 . S
C379 C247 1.709 . S
C414 C318 1.631 . S
C409 C151 1.592 . S
C444 C345 1.514 . S
C439 C183 1.603 . S
C474 C273 1.518 . S
C469 C87 1.485 . S
C499 C119 1.440 1_556 S
C504 C296 1.502 . S
C529 C23 1.347 . S
C534 C319 1.365 . S
C559 C55 1.547 . S
C564 C344 1.586 . S
C594 C274 0.352 . S
C589 C189 0.419 . S
C624 C297 0.540 . S
C619 C221 0.666 . S
C654 C320 0.329 . S
C649 C253 0.347 . S
C679 C157 0.512 . S
C684 C346 0.625 . S
C709 C61 0.561 1_655 S
C714 C277 0.602 . S
C744 C300 0.681 . S
C739 C93 0.535 1_565 S
C774 C323 0.653 . S
C769 C125 0.647 . S
C799 C29 0.533 . S
C804 C343 0.428 . S
C829 C177 1.803 . S
C834 C275 1.768 . S
C859 C209 1.660 . S
C864 C298 1.680 . S
C894 C321 1.703 . S
C889 C241 1.704 . S
C924 C342 1.389 . S
C919 C145 1.316 . S
C949 C49 1.714 1_655 S
C954 C276 1.683 . S
C984 C299 1.593 . S
C979 C81 1.638 1_565 S
C1014 C322 1.578 . S
C1009 C113 1.595 . S
C1039 C17 1.813 . S
C1044 C341 1.859 . S
