# Generated by pormake.
# Topology pto, (3,4)-cn, num edge types: 1
# Building blocks:
#     Node 0, Type 0, BuildingBlock: BETDIP_clean_linker_0, # of connection points: 3
#     Node 1, Type 0, BuildingBlock: BETDIP_clean_linker_0, # of connection points: 3
#     Node 2, Type 0, BuildingBlock: BETDIP_clean_linker_0, # of connection points: 3
#     Node 3, Type 0, BuildingBlock: BETDIP_clean_linker_0, # of connection points: 3
#     Node 4, Type 0, BuildingBlock: BETDIP_clean_linker_0, # of connection points: 3
#     Node 5, Type 0, BuildingBlock: BETDIP_clean_linker_0, # of connection points: 3
#     Node 6, Type 0, BuildingBlock: BETDIP_clean_linker_0, # of connection points: 3
#     Node 7, Type 0, BuildingBlock: BETDIP_clean_linker_0, # of connection points: 3
#     Node 8, Type 1, BuildingBlock: NAWXER_clean_sbu_0, # of connection points: 4
#     Node 9, Type 1, BuildingBlock: NAWXER_clean_sbu_0, # of connection points: 4
#     Node 10, Type 1, BuildingBlock: NAWXER_clean_sbu_0, # of connection points: 4
#     Node 11, Type 1, BuildingBlock: NAWXER_clean_sbu_0, # of connection points: 4
#     Node 12, Type 1, BuildingBlock: NAWXER_clean_sbu_0, # of connection points: 4
#     Node 13, Type 1, BuildingBlock: NAWXER_clean_sbu_0, # of connection points: 4
#     Edge 14, Type (0, 1), BuildingBlock: OJICUG_clean_linker_0, # of connection points: 2
#     Edge 15, Type (0, 1), BuildingBlock: OJICUG_clean_linker_0, # of connection points: 2
#     Edge 16, Type (0, 1), BuildingBlock: OJICUG_clean_linker_0, # of connection points: 2
#     Edge 17, Type (0, 1), BuildingBlock: OJICUG_clean_linker_0, # of connection points: 2
#     Edge 18, Type (0, 1), BuildingBlock: OJICUG_clean_linker_0, # of connection points: 2
#     Edge 19, Type (0, 1), BuildingBlock: OJICUG_clean_linker_0, # of connection points: 2
#     Edge 20, Type (0, 1), BuildingBlock: OJICUG_clean_linker_0, # of connection points: 2
#     Edge 21, Type (0, 1), BuildingBlock: OJICUG_clean_linker_0, # of connection points: 2
#     Edge 22, Type (0, 1), BuildingBlock: OJICUG_clean_linker_0, # of connection points: 2
#     Edge 23, Type (0, 1), BuildingBlock: OJICUG_clean_linker_0, # of connection points: 2
#     Edge 24, Type (0, 1), BuildingBlock: OJICUG_clean_linker_0, # of connection points: 2
#     Edge 25, Type (0, 1), BuildingBlock: OJICUG_clean_linker_0, # of connection points: 2
#     Edge 26, Type (0, 1), BuildingBlock: OJICUG_clean_linker_0, # of connection points: 2
#     Edge 27, Type (0, 1), BuildingBlock: OJICUG_clean_linker_0, # of connection points: 2
#     Edge 28, Type (0, 1), BuildingBlock: OJICUG_clean_linker_0, # of connection points: 2
#     Edge 29, Type (0, 1), BuildingBlock: OJICUG_clean_linker_0, # of connection points: 2
#     Edge 30, Type (0, 1), BuildingBlock: OJICUG_clean_linker_0, # of connection points: 2
#     Edge 31, Type (0, 1), BuildingBlock: OJICUG_clean_linker_0, # of connection points: 2
#     Edge 32, Type (0, 1), BuildingBlock: OJICUG_clean_linker_0, # of connection points: 2
#     Edge 33, Type (0, 1), BuildingBlock: OJICUG_clean_linker_0, # of connection points: 2
#     Edge 34, Type (0, 1), BuildingBlock: OJICUG_clean_linker_0, # of connection points: 2
#     Edge 35, Type (0, 1), BuildingBlock: OJICUG_clean_linker_0, # of connection points: 2
#     Edge 36, Type (0, 1), BuildingBlock: OJICUG_clean_linker_0, # of connection points: 2
#     Edge 37, Type (0, 1), BuildingBlock: OJICUG_clean_linker_0, # of connection points: 2
# Relax obj value: 0.017
# Max RMSD: 0.141
# Mean RMSD: 0.061
data_MOF--net-pto--node1-NAWXER_clean_sbu_0--node2-BETDIP_clean_linker_0--edge1-OJICUG_clean_linker_0
_symmetry_space_group_name_H-M    P1
_symmetry_Int_Tables_number       1
_symmetry_cell_setting            triclinic
loop_
_symmetry_equiv_pos_as_xyz
'x, y, z'
_cell_length_a     29.806814
_cell_length_b     28.835764
_cell_length_c     27.535393
_cell_angle_alpha  101.023
_cell_angle_beta   101.4263
_cell_angle_gamma 102.47972
loop_
_atom_site_label
_atom_site_type_symbol
_atom_site_fract_x
_atom_site_fract_y
_atom_site_fract_z
_atom_type_partial_charge
H0 H 0.26196 0.40857 0.39691 0.0
H1 H 0.37778 0.37268 0.34128 0.0
H2 H 0.30339 0.46569 0.27376 0.0
H3 H 0.39715 0.35318 0.41868 0.0
C4 C 0.36129 0.33372 0.41766 0.0
C5 C 0.28582 0.41339 0.37216 0.0
C6 C 0.27892 0.4416 0.33622 0.0
C7 C 0.32157 0.38887 0.37467 0.0
C8 C 0.35107 0.39284 0.34104 0.0
C9 C 0.34472 0.42029 0.30454 0.0
C10 C 0.30892 0.44517 0.30253 0.0
N11 N 0.32346 0.35595 0.40695 0.0
H12 H 0.21989 0.76178 0.66959 0.0
H13 H 0.36205 0.85417 0.73165 0.0
H14 H 0.30033 0.76094 0.81805 0.0
H15 H 0.36089 0.84273 0.64673 0.0
C16 C 0.32632 0.84853 0.63265 0.0
C17 C 0.25213 0.77436 0.70009 0.0
C18 C 0.25472 0.7568 0.74467 0.0
C19 C 0.29094 0.80854 0.69452 0.0
C20 C 0.33239 0.82652 0.73456 0.0
C21 C 0.33555 0.81 0.77939 0.0
C22 C 0.29685 0.77502 0.7841 0.0
N23 N 0.28672 0.82605 0.64937 0.0
H24 H 0.77826 0.75465 0.22618 0.0
H25 H 0.81239 0.78866 0.39058 0.0
H26 H 0.7132 0.85196 0.30895 0.0
H27 H 0.87547 0.76213 0.38407 0.0
C28 C 0.86782 0.73643 0.34726 0.0
C29 C 0.77358 0.77365 0.26202 0.0
C30 C 0.74232 0.80391 0.26201 0.0
C31 C 0.79986 0.76849 0.30804 0.0
C32 C 0.79367 0.79314 0.35467 0.0
C33 C 0.76238 0.82339 0.35517 0.0
C34 C 0.73706 0.82845 0.30874 0.0
N35 N 0.83158 0.73795 0.30563 0.0
H36 H 0.67728 0.26813 0.80648 0.0
H37 H 0.75363 0.42092 0.84742 0.0
H38 H 0.7963 0.31597 0.74572 0.0
H39 H 0.70623 0.43153 0.89898 0.0
C40 C 0.68182 0.39716 0.89756 0.0
C41 C 0.7049 0.29751 0.80258 0.0
C42 C 0.73585 0.28662 0.7726 0.0
C43 C 0.71097 0.34563 0.83019 0.0
C44 C 0.74805 0.38362 0.82635 0.0
C45 C 0.77854 0.37324 0.79493 0.0
C46 C 0.77198 0.32466 0.76841 0.0
N47 N 0.6802 0.35301 0.86281 0.0
H48 H 0.80832 0.77589 0.89761 0.0
H49 H 0.8918 0.85691 0.8151 0.0
H50 H 0.74797 0.86312 0.80647 0.0
H51 H 0.94949 0.8287 0.84964 0.0
C52 C 0.9371 0.80062 0.86864 0.0
C53 C 0.8114 0.80011 0.8721 0.0
C54 C 0.77272 0.81757 0.85336 0.0
C55 C 0.85461 0.81409 0.85915 0.0
C56 C 0.85921 0.84627 0.82652 0.0
C57 C 0.82062 0.86392 0.80702 0.0
C58 C 0.77774 0.8494 0.82093 0.0
N59 N 0.89141 0.79319 0.8785 0.0
H60 H 0.6981 0.24061 0.32177 0.0
H61 H 0.85079 0.28711 0.35158 0.0
H62 H 0.76457 0.34367 0.24644 0.0
H63 H 0.8517 0.26069 0.42048 0.0
C64 C 0.81904 0.2328 0.41506 0.0
C65 C 0.72986 0.26198 0.31492 0.0
C66 C 0.72594 0.2923 0.28066 0.0
C67 C 0.77479 0.2606 0.34199 0.0
C68 C 0.81589 0.28863 0.33281 0.0
C69 C 0.81233 0.31843 0.29822 0.0
C70 C 0.76738 0.32002 0.27253 0.0
N71 N 0.7773 0.23086 0.3779 0.0
H72 H 0.15364 0.30955 0.75274 0.0
H73 H 0.26585 0.25259 0.8193 0.0
H74 H 0.23567 0.37598 0.90832 0.0
H75 H 0.27978 0.25566 0.74036 0.0
C76 C 0.24457 0.23537 0.71687 0.0
C77 C 0.18137 0.31105 0.78549 0.0
C78 C 0.19042 0.34705 0.83158 0.0
C79 C 0.20941 0.27806 0.78037 0.0
C80 C 0.24459 0.27853 0.82288 0.0
C81 C 0.25435 0.31361 0.86912 0.0
C82 C 0.22723 0.34791 0.87314 0.0
N83 N 0.20431 0.24682 0.73162 0.0
H84 H 0.29637 0.8562 0.1805 0.0
H85 H 0.23076 0.70137 0.12668 0.0
H86 H 0.16936 0.7912 0.22175 0.0
H87 H 0.27821 0.702 0.07423 0.0
C88 C 0.30925 0.73243 0.09268 0.0
C89 C 0.26758 0.8248 0.17771 0.0
C90 C 0.23236 0.83013 0.20428 0.0
C91 C 0.26707 0.77879 0.14879 0.0
C92 C 0.23074 0.73759 0.14635 0.0
C93 C 0.19497 0.74246 0.17163 0.0
C94 C 0.19557 0.78861 0.19983 0.0
N95 N 0.30575 0.77488 0.12651 0.0
C96 C 0.96732 0.46019 0.26907 0.0
C97 C 0.06827 0.58941 0.21949 0.0
O98 O 0.99519 0.4926 0.3081 0.0
Zn99 Zn 0.04967 0.55933 0.322 0.0
O100 O 0.96933 0.46478 0.22457 0.0
Zn101 Zn 0.01792 0.52553 0.24391 0.0
O102 O 0.08225 0.5066 0.27556 0.0
O103 O 0.10594 0.54495 0.35727 0.0
O104 O 0.03531 0.55364 0.19004 0.0
O105 O 0.07692 0.59531 0.26809 0.0
O106 O 0.02444 0.60805 0.35846 0.0
O107 O 0.98439 0.57796 0.27806 0.0
C108 C 0.11237 0.51699 0.31904 0.0
C109 C 0.99048 0.60701 0.32178 0.0
C110 C 0.95331 0.50442 0.78883 0.0
C111 C 0.09973 0.61074 0.77188 0.0
O112 O 0.98451 0.5241 0.83123 0.0
Zn113 Zn 0.05498 0.57008 0.85839 0.0
O114 O 0.96347 0.51106 0.74748 0.0
Zn115 Zn 0.02774 0.55391 0.77694 0.0
O116 O 0.06832 0.50662 0.80182 0.0
O117 O 0.09148 0.5279 0.88589 0.0
O118 O 0.06506 0.5843 0.7351 0.0
O119 O 0.09976 0.60769 0.81778 0.0
O120 O 0.04421 0.62599 0.90267 0.0
O121 O 0.0153 0.61782 0.82003 0.0
C122 C 0.09065 0.50008 0.84369 0.0
C123 C 0.02313 0.64143 0.86657 0.0
C124 C 0.3143 0.9931 0.51508 0.0
C125 C 0.32552 0.1361 0.44383 0.0
O126 O 0.27353 0.99794 0.49456 0.0
Zn127 Zn 0.24534 0.04582 0.4531 0.0
O128 O 0.35175 0.02273 0.51273 0.0
Zn129 Zn 0.32104 0.06226 0.47569 0.0
O130 O 0.28772 0.09518 0.53008 0.0
O131 O 0.20999 0.07346 0.4991 0.0
O132 O 0.35937 0.11941 0.46264 0.0
O133 O 0.28251 0.11174 0.43771 0.0
O134 O 0.21298 1.00242 0.38563 0.0
O135 O 0.29041 0.01354 0.40241 0.0
C136 C 0.24635 0.0974 0.53515 0.0
C137 C 0.24923 0.9932 0.37225 0.0
C138 C 0.6158 0.81978 0.08106 0.0
C139 C 0.50074 0.83964 0.93773 0.0
O140 O 0.59408 0.78025 0.04673 0.0
Zn141 Zn 0.54266 0.75556 0.97562 0.0
O142 O 0.60642 0.85995 0.07606 0.0
Zn143 Zn 0.55915 0.83391 0.01098 0.0
O144 O 0.50352 0.7896 0.03113 0.0
O145 O 0.48943 0.71194 0.9912 0.0
O146 O 0.52466 0.87385 0.97674 0.0
O147 O 0.50544 0.79615 0.93395 0.0
O148 O 0.58089 0.7337 0.92991 0.0
O149 O 0.60086 0.81391 0.961 0.0
C150 C 0.47949 0.74507 0.02188 0.0
C151 C 0.60683 0.77608 0.93286 0.0
C152 C 0.81911 0.99914 0.67591 0.0
C153 C 0.81599 0.10522 0.55457 0.0
O154 O 0.77779 0.99767 0.65013 0.0
Zn155 Zn 0.74448 0.02976 0.59452 0.0
O156 O 0.85543 0.02905 0.67131 0.0
Zn157 Zn 0.8215 0.05541 0.61865 0.0
O158 O 0.78501 0.09784 0.65934 0.0
O159 O 0.70762 0.06688 0.62993 0.0
O160 O 0.85315 0.10259 0.58498 0.0
O161 O 0.77534 0.08003 0.55557 0.0
O162 O 0.71497 0.97201 0.53814 0.0
O163 O 0.79337 0.99188 0.55725 0.0
C164 C 0.74273 0.09966 0.66068 0.0
C165 C 0.75343 0.96344 0.53013 0.0
C166 C 0.55857 0.31793 0.15295 0.0
C167 C 0.4239 0.32499 0.02171 0.0
O168 O 0.52616 0.28211 0.12265 0.0
Zn169 Zn 0.49158 0.3199 0.08544 0.0
O170 O 0.5582 0.36174 0.1499 0.0
Zn171 Zn 0.516 0.39806 0.1053 0.0
O172 O 0.49273 0.43696 0.15627 0.0
O173 O 0.46258 0.35719 0.14138 0.0
O174 O 0.45166 0.36729 0.04552 0.0
O175 O 0.4341 0.28678 0.03217 0.0
O176 O 0.53924 0.34937 0.0434 0.0
O177 O 0.55996 0.42984 0.07023 0.0
C178 C 0.46477 0.40092 0.16464 0.0
C179 C 0.56279 0.39131 0.04089 0.0
C180 C 0.20751 0.45793 0.28364 0.0
C181 C 0.23786 0.46356 0.33167 0.0
H182 H 0.14394 0.46966 0.24204 0.0
C183 C 0.22683 0.48739 0.3756 0.0
H184 H 0.21462 0.43916 0.24913 0.0
C185 C 0.1862 0.50478 0.37162 0.0
C186 C 0.15537 0.49834 0.32363 0.0
H187 H 0.24964 0.4925 0.41316 0.0
H188 H 0.17878 0.52292 0.40622 0.0
C189 C 0.16667 0.47493 0.27968 0.0
C190 C 0.20406 0.72149 0.79855 0.0
C191 C 0.2139 0.71957 0.75045 0.0
H192 H 0.16107 0.68885 0.84281 0.0
C193 C 0.18499 0.68144 0.70863 0.0
H194 H 0.22451 0.75082 0.83143 0.0
C195 C 0.1476 0.646 0.71505 0.0
C196 C 0.13877 0.6476 0.76353 0.0
H197 H 0.19171 0.67837 0.67108 0.0
H198 H 0.12613 0.61701 0.68231 0.0
C199 C 0.16737 0.68588 0.80505 0.0
C200 C 0.8916 0.66944 0.29336 0.0
C201 C 0.89843 0.70255 0.34047 0.0
H202 H 0.91514 0.61339 0.2506 0.0
C203 C 0.93531 0.70358 0.38166 0.0
H204 H 0.86348 0.66763 0.26085 0.0
C205 C 0.96502 0.67241 0.37586 0.0
C206 C 0.95848 0.63947 0.32865 0.0
H207 H 0.94132 0.72874 0.41842 0.0
H208 H 0.99326 0.67436 0.40833 0.0
C209 C 0.92129 0.63828 0.28753 0.0
C210 C 0.83157 0.41324 0.74551 0.0
C211 C 0.81993 0.41153 0.79242 0.0
H212 H 0.88256 0.44394 0.70731 0.0
C213 C 0.85096 0.44304 0.83743 0.0
H214 H 0.80817 0.38959 0.71008 0.0
C215 C 0.89365 0.47382 0.83586 0.0
C216 C 0.90625 0.47416 0.7892 0.0
H217 H 0.84331 0.44229 0.87417 0.0
H218 H 0.91729 0.49666 0.87155 0.0
C219 C 0.87417 0.44436 0.74388 0.0
C220 C 0.30545 0.25446 0.41581 0.0
C221 C 0.35203 0.28297 0.42376 0.0
H222 H 0.26063 0.18557 0.41498 0.0
C223 C 0.38998 0.26219 0.436 0.0
H224 H 0.27539 0.26924 0.40582 0.0
C225 C 0.38157 0.21395 0.44127 0.0
C226 C 0.33494 0.18556 0.43396 0.0
H227 H 0.42621 0.2834 0.44188 0.0
H228 H 0.41157 0.19917 0.45168 0.0
C229 C 0.29701 0.20626 0.42069 0.0
C230 C 0.37999 0.84359 0.87157 0.0
C231 C 0.38031 0.82716 0.82019 0.0
H232 H 0.41971 0.86294 0.94995 0.0
C233 C 0.4233 0.82369 0.80817 0.0
H234 H 0.34727 0.84677 0.8817 0.0
C235 C 0.46438 0.83268 0.84703 0.0
C236 C 0.46346 0.84657 0.89843 0.0
H237 H 0.42442 0.81085 0.7689 0.0
H238 H 0.49617 0.82583 0.8371 0.0
C239 C 0.42145 0.85362 0.91046 0.0
C240 C 0.7144 0.86048 0.40976 0.0
C241 C 0.7584 0.85302 0.40378 0.0
H242 H 0.67802 0.90132 0.45451 0.0
C243 C 0.79952 0.87843 0.44232 0.0
H244 H 0.68193 0.84076 0.38102 0.0
C245 C 0.7972 0.91266 0.4843 0.0
C246 C 0.75371 0.92247 0.48876 0.0
H247 H 0.83396 0.87388 0.43879 0.0
H248 H 0.83 0.93276 0.51236 0.0
C249 C 0.71207 0.89497 0.45188 0.0
C250 C 0.62054 0.35176 0.93464 0.0
C251 C 0.65067 0.39614 0.93356 0.0
H252 H 0.56956 0.31558 0.96903 0.0
C253 C 0.65137 0.43945 0.96773 0.0
H254 H 0.619 0.31763 0.90895 0.0
C255 C 0.62266 0.43834 0.00247 0.0
C256 C 0.59284 0.39376 0.00381 0.0
H257 H 0.67429 0.47417 0.96773 0.0
H258 H 0.62412 0.47225 0.02848 0.0
C259 C 0.59212 0.3506 0.96931 0.0
C260 C 0.27841 0.89073 0.57917 0.0
C261 C 0.32243 0.88315 0.59983 0.0
H262 H 0.24135 0.9312 0.53592 0.0
C263 C 0.36364 0.91053 0.59081 0.0
H264 H 0.246 0.87007 0.58537 0.0
C265 C 0.36111 0.94587 0.56269 0.0
C266 C 0.31718 0.95419 0.54276 0.0
H267 H 0.39801 0.9053 0.60642 0.0
H268 H 0.3936 0.96697 0.55706 0.0
C269 C 0.2758 0.92578 0.55077 0.0
C270 C 0.70645 0.855 0.20889 0.0
C271 C 0.71376 0.80922 0.21363 0.0
H272 H 0.66971 0.89448 0.16343 0.0
C273 C 0.6907 0.76787 0.17329 0.0
H274 H 0.72436 0.88776 0.23905 0.0
C275 C 0.65969 0.7718 0.13005 0.0
C276 C 0.65093 0.81719 0.12605 0.0
H277 H 0.69518 0.73206 0.17591 0.0
H278 H 0.64179 0.73882 0.10018 0.0
C279 C 0.67527 0.85895 0.16556 0.0
C280 C 0.69295 0.20371 0.71361 0.0
C281 C 0.73386 0.23535 0.74899 0.0
H282 H 0.66332 0.13502 0.65739 0.0
C283 C 0.77492 0.21907 0.75962 0.0
H284 H 0.6608 0.21556 0.70503 0.0
C285 C 0.77628 0.17342 0.73312 0.0
C286 C 0.73668 0.14292 0.69496 0.0
H287 H 0.80663 0.24247 0.78743 0.0
H288 H 0.80926 0.16295 0.74115 0.0
C289 C 0.69437 0.15771 0.68657 0.0
C290 C 0.37262 0.37106 0.23835 0.0
C291 C 0.37258 0.41741 0.26556 0.0
H292 H 0.40155 0.32973 0.18605 0.0
C293 C 0.40195 0.45933 0.25819 0.0
H294 H 0.35001 0.33818 0.24303 0.0
C295 C 0.4322 0.45459 0.22532 0.0
C296 C 0.43315 0.40786 0.1993 0.0
H297 H 0.40262 0.49547 0.27901 0.0
H298 H 0.45511 0.48731 0.22077 0.0
C299 C 0.40241 0.36633 0.20578 0.0
C300 C 0.95475 0.73161 0.9064 0.0
C301 C 0.96459 0.76434 0.87554 0.0
H302 H 0.96714 0.66713 0.92905 0.0
C303 C 0.99858 0.75982 0.84759 0.0
H304 H 0.92889 0.73454 0.92867 0.0
C305 C 0.01972 0.72109 0.84733 0.0
C306 C 1.00825 0.68701 0.87613 0.0
H307 H 1.00683 0.78459 0.82365 0.0
H308 H 0.04376 0.71663 0.82302 0.0
C309 C 0.97685 0.69338 0.90706 0.0
C310 C 0.85829 0.35404 0.24094 0.0
C311 C 0.85528 0.35016 0.29037 0.0
H312 H 0.89628 0.39143 0.19534 0.0
C313 C 0.89166 0.3798 0.33246 0.0
H314 H 0.831 0.33121 0.20777 0.0
C315 C 0.92905 0.4144 0.3254 0.0
C316 C 0.93092 0.41984 0.27609 0.0
H317 H 0.8901 0.37782 0.371 0.0
H318 H 0.95568 0.43788 0.35876 0.0
C319 C 0.89578 0.38842 0.23385 0.0
C320 C 0.15351 0.40558 0.88127 0.0
C321 C 0.16387 0.38567 0.83514 0.0
H322 H 0.12269 0.45751 0.92052 0.0
C323 C 0.14988 0.40416 0.79246 0.0
H324 H 0.1631 0.39203 0.91487 0.0
C325 C 0.12597 0.44085 0.79554 0.0
C326 C 0.11594 0.46092 0.8416 0.0
H327 H 0.15819 0.39107 0.75664 0.0
H328 H 0.11602 0.4541 0.76178 0.0
C329 C 0.13014 0.44303 0.88456 0.0
C330 C 0.11205 0.69383 0.16274 0.0
C331 C 0.16114 0.69863 0.17557 0.0
H332 H 0.04327 0.65359 0.16551 0.0
C333 C 0.17852 0.66416 0.19798 0.0
H334 H 0.09811 0.72035 0.14574 0.0
C335 C 0.14757 0.62706 0.21013 0.0
C336 C 0.09878 0.62321 0.19886 0.0
H337 H 0.21631 0.66762 0.20877 0.0
H338 H 0.16188 0.60231 0.2299 0.0
C339 C 0.08086 0.65583 0.17381 0.0
C340 C 0.86303 0.93731 0.78004 0.0
C341 C 0.82368 0.89677 0.77132 0.0
H342 H 0.89278 1.00202 0.75676 0.0
C343 C 0.78516 0.889 0.72929 0.0
H344 H 0.89327 0.94432 0.81216 0.0
C345 C 0.78462 0.92202 0.69847 0.0
C346 C 0.82284 0.96366 0.70816 0.0
H347 H 0.75485 0.85753 0.72052 0.0
H348 H 0.75376 0.91487 0.66698 0.0
C349 C 0.86268 0.97045 0.74856 0.0
C350 C 0.64346 0.25636 0.22274 0.0
C351 C 0.67938 0.29728 0.25381 0.0
H352 H 0.5769 0.23057 0.166 0.0
C353 C 0.67296 0.34427 0.25478 0.0
H354 H 0.64764 0.21974 0.22111 0.0
C355 C 0.63292 0.35054 0.22344 0.0
C356 C 0.59809 0.30996 0.19007 0.0
H357 H 0.69985 0.37646 0.27875 0.0
H358 H 0.63008 0.3875 0.22433 0.0
C359 C 0.60317 0.26264 0.19101 0.0
C360 C 0.28418 0.18693 0.66431 0.0
C361 C 0.24185 0.19782 0.67074 0.0
H362 H 0.31852 0.1467 0.61765 0.0
C363 C 0.19946 0.17358 0.63316 0.0
H364 H 0.31731 0.20482 0.69281 0.0
C365 C 0.20003 0.1398 0.58909 0.0
C366 C 0.24296 0.12985 0.5824 0.0
H367 H 0.16626 0.18132 0.63732 0.0
H368 H 0.16725 0.12228 0.56004 0.0
C369 C 0.28476 0.15343 0.62102 0.0
C370 C 0.39597 0.76816 0.10411 0.0
C371 C 0.35432 0.73152 0.078 0.0
H372 H 0.46844 0.79991 0.10763 0.0
C373 C 0.35577 0.69488 0.03687 0.0
H374 H 0.3964 0.79637 0.13656 0.0
C375 C 0.39755 0.69677 0.02013 0.0
C376 C 0.43835 0.73534 0.04448 0.0
H377 H 0.32413 0.6659 0.01646 0.0
H378 H 0.39714 0.66976 0.98666 0.0
C379 C 0.43742 0.76998 0.08762 0.0
C380 C 0.8603 0.20193 0.48579 0.0
C381 C 0.81848 0.1992 0.44976 0.0
H382 H 0.89277 0.17434 0.54714 0.0
C383 C 0.77659 0.16474 0.44776 0.0
H384 H 0.89316 0.2282 0.48806 0.0
C385 C 0.77634 0.13417 0.48149 0.0
C386 C 0.81799 0.13706 0.51802 0.0
H387 H 0.74379 0.16155 0.42046 0.0
H388 H 0.74316 0.10829 0.47894 0.0
C389 C 0.86014 0.17108 0.51954 0.0
C390 C 0.30553 0.27377 0.92286 0.0
C391 C 0.29577 0.31658 0.9111 0.0
H392 H 0.3536 0.24263 0.96664 0.0
C393 C 0.328 0.362 0.93686 0.0
H394 H 0.2812 0.23821 0.90401 0.0
C395 C 0.3694 0.36451 0.97268 0.0
C396 C 0.3797 0.32166 0.98367 0.0
H397 H 0.32204 0.39559 0.92818 0.0
H398 H 0.39364 0.40017 0.99131 0.0
C399 C 0.34704 0.27627 0.95871 0.0
C400 C 0.28149 0.90423 0.27336 0.0
C401 C 0.23684 0.87683 0.24182 0.0
H402 H 0.32035 0.96234 0.33848 0.0
C403 C 0.19634 0.8915 0.25053 0.0
H404 H 0.31346 0.89389 0.26856 0.0
C405 C 0.20022 0.9306 0.29159 0.0
C406 C 0.24472 0.95618 0.32463 0.0
H407 H 0.1614 0.87182 0.2265 0.0
H408 H 0.16823 0.9397 0.29836 0.0
C409 C 0.28538 0.94342 0.31401 0.0
C410 C 0.70811 0.75688 0.87331 0.0
C411 C 0.72782 0.80474 0.86958 0.0
H412 H 0.65351 0.70963 0.89549 0.0
C413 C 0.70508 0.84131 0.88307 0.0
H414 H 0.72457 0.72777 0.86262 0.0
C415 C 0.66462 0.83088 0.90126 0.0
C416 C 0.64569 0.78361 0.9067 0.0
H417 H 0.71948 0.87862 0.8813 0.0
H418 H 0.64885 0.86049 0.91238 0.0
C419 C 0.66719 0.74633 0.89154 0.0
loop_
_geom_bond_atom_site_label_1
_geom_bond_atom_site_label_2
_geom_bond_distance
_geom_bond_site_symmetry_2
_ccdc_geom_bond_type
H0 C5 0.930 . S
H1 C8 0.930 . S
H2 C10 0.930 . S
H3 C4 1.016 . S
C4 H3 1.016 . S
C4 N11 1.286 . S
C5 H0 0.930 . S
C5 C6 1.397 . S
C5 C7 1.361 . S
C6 C5 1.397 . S
C6 C10 1.390 . S
C7 C5 1.361 . S
C7 C8 1.393 . S
C7 N11 1.413 . S
C8 H1 0.930 . S
C8 C7 1.393 . S
C8 C9 1.399 . S
C9 C8 1.399 . S
C9 C10 1.381 . S
C10 H2 0.930 . S
C10 C6 1.390 . S
C10 C9 1.381 . S
N11 C4 1.286 . S
N11 C7 1.413 . S
H12 C17 0.930 . S
H13 C20 0.930 . S
H14 C22 0.930 . S
H15 C16 1.016 . S
C16 H15 1.016 . S
C16 N23 1.286 . S
C17 H12 0.930 . S
C17 C18 1.397 . S
C17 C19 1.361 . S
C18 C17 1.397 . S
C18 C22 1.390 . S
C19 C17 1.361 . S
C19 C20 1.393 . S
C19 N23 1.413 . S
C20 H13 0.930 . S
C20 C19 1.393 . S
C20 C21 1.399 . S
C21 C20 1.399 . S
C21 C22 1.381 . S
C22 H14 0.930 . S
C22 C18 1.390 . S
C22 C21 1.381 . S
N23 C16 1.286 . S
N23 C19 1.413 . S
H24 C29 0.930 . S
H25 C32 0.930 . S
H26 C34 0.930 . S
H27 C28 1.016 . S
C28 H27 1.016 . S
C28 N35 1.286 . S
C29 H24 0.930 . S
C29 C30 1.397 . S
C29 C31 1.361 . S
C30 C29 1.397 . S
C30 C34 1.390 . S
C31 C29 1.361 . S
C31 C32 1.393 . S
C31 N35 1.413 . S
C32 H25 0.930 . S
C32 C31 1.393 . S
C32 C33 1.399 . S
C33 C32 1.399 . S
C33 C34 1.381 . S
C34 H26 0.930 . S
C34 C30 1.390 . S
C34 C33 1.381 . S
N35 C28 1.286 . S
N35 C31 1.413 . S
H36 C41 0.930 . S
H37 C44 0.930 . S
H38 C46 0.930 . S
H39 C40 1.016 . S
C40 H39 1.016 . S
C40 N47 1.286 . S
C41 H36 0.930 . S
C41 C42 1.397 . S
C41 C43 1.361 . S
C42 C41 1.397 . S
C42 C46 1.390 . S
C43 C41 1.361 . S
C43 C44 1.393 . S
C43 N47 1.413 . S
C44 H37 0.930 . S
C44 C43 1.393 . S
C44 C45 1.399 . S
C45 C44 1.399 . S
C45 C46 1.381 . S
C46 H38 0.930 . S
C46 C42 1.390 . S
C46 C45 1.381 . S
N47 C40 1.286 . S
N47 C43 1.413 . S
H48 C53 0.930 . S
H49 C56 0.930 . S
H50 C58 0.930 . S
H51 C52 1.016 . S
C52 H51 1.016 . S
C52 N59 1.286 . S
C53 H48 0.930 . S
C53 C54 1.397 . S
C53 C55 1.361 . S
C54 C53 1.397 . S
C54 C58 1.390 . S
C55 C53 1.361 . S
C55 C56 1.393 . S
C55 N59 1.413 . S
C56 H49 0.930 . S
C56 C55 1.393 . S
C56 C57 1.399 . S
C57 C56 1.399 . S
C57 C58 1.381 . S
C58 H50 0.930 . S
C58 C54 1.390 . S
C58 C57 1.381 . S
N59 C52 1.286 . S
N59 C55 1.413 . S
H60 C65 0.930 . S
H61 C68 0.930 . S
H62 C70 0.930 . S
H63 C64 1.016 . S
C64 H63 1.016 . S
C64 N71 1.286 . S
C65 H60 0.930 . S
C65 C66 1.397 . S
C65 C67 1.361 . S
C66 C65 1.397 . S
C66 C70 1.390 . S
C67 C65 1.361 . S
C67 C68 1.393 . S
C67 N71 1.413 . S
C68 H61 0.930 . S
C68 C67 1.393 . S
C68 C69 1.399 . S
C69 C68 1.399 . S
C69 C70 1.381 . S
C70 H62 0.930 . S
C70 C66 1.390 . S
C70 C69 1.381 . S
N71 C64 1.286 . S
N71 C67 1.413 . S
H72 C77 0.930 . S
H73 C80 0.930 . S
H74 C82 0.930 . S
H75 C76 1.016 . S
C76 H75 1.016 . S
C76 N83 1.286 . S
C77 H72 0.930 . S
C77 C78 1.397 . S
C77 C79 1.361 . S
C78 C77 1.397 . S
C78 C82 1.390 . S
C79 C77 1.361 . S
C79 C80 1.393 . S
C79 N83 1.413 . S
C80 H73 0.930 . S
C80 C79 1.393 . S
C80 C81 1.399 . S
C81 C80 1.399 . S
C81 C82 1.381 . S
C82 H74 0.930 . S
C82 C78 1.390 . S
C82 C81 1.381 . S
N83 C76 1.286 . S
N83 C79 1.413 . S
H84 C89 0.930 . S
H85 C92 0.930 . S
H86 C94 0.930 . S
H87 C88 1.016 . S
C88 H87 1.016 . S
C88 N95 1.286 . S
C89 H84 0.930 . S
C89 C90 1.397 . S
C89 C91 1.361 . S
C90 C89 1.397 . S
C90 C94 1.390 . S
C91 C89 1.361 . S
C91 C92 1.393 . S
C91 N95 1.413 . S
C92 H85 0.930 . S
C92 C91 1.393 . S
C92 C93 1.399 . S
C93 C92 1.399 . S
C93 C94 1.381 . S
C94 H86 0.930 . S
C94 C90 1.390 . S
C94 C93 1.381 . S
N95 C88 1.286 . S
N95 C91 1.413 . S
C96 O98 1.247 . S
C96 O100 1.258 . S
C97 O104 1.247 . S
C97 O105 1.258 . S
O98 C96 1.247 . S
O98 Zn99 2.028 1_655 S
Zn99 O98 2.028 1_455 S
Zn99 O103 2.035 . S
Zn99 O105 2.035 . S
Zn99 O106 2.028 . S
O100 C96 1.258 . S
O100 Zn101 2.035 1_655 S
Zn101 O100 2.035 1_455 S
Zn101 O102 2.028 . S
Zn101 O104 2.028 . S
Zn101 O107 2.035 1_455 S
O102 Zn101 2.028 . S
O102 C108 1.247 . S
O103 Zn99 2.035 . S
O103 C108 1.258 . S
O104 C97 1.247 . S
O104 Zn101 2.028 . S
O105 C97 1.258 . S
O105 Zn99 2.035 . S
O106 Zn99 2.028 . S
O106 C109 1.247 1_455 S
O107 Zn101 2.035 1_655 S
O107 C109 1.258 . S
C108 O102 1.247 . S
C108 O103 1.258 . S
C109 O106 1.247 1_655 S
C109 O107 1.258 . S
C110 O112 1.247 1_655 S
C110 O114 1.258 . S
C111 O118 1.247 . S
C111 O119 1.258 . S
O112 C110 1.247 1_455 S
O112 Zn113 2.028 . S
Zn113 O112 2.028 . S
Zn113 O117 2.035 . S
Zn113 O119 2.035 . S
Zn113 O120 2.028 . S
O114 C110 1.258 . S
O114 Zn115 2.035 1_655 S
Zn115 O114 2.035 1_455 S
Zn115 O116 2.028 . S
Zn115 O118 2.028 . S
Zn115 O121 2.035 . S
O116 Zn115 2.028 . S
O116 C122 1.247 . S
O117 Zn113 2.035 . S
O117 C122 1.258 . S
O118 C111 1.247 . S
O118 Zn115 2.028 . S
O119 C111 1.258 . S
O119 Zn113 2.035 . S
O120 Zn113 2.028 . S
O120 C123 1.247 . S
O121 Zn115 2.035 . S
O121 C123 1.258 . S
C122 O116 1.247 . S
C122 O117 1.258 . S
C123 O120 1.247 . S
C123 O121 1.258 . S
C124 O126 1.247 . S
C124 O128 1.258 . S
C125 O132 1.247 . S
C125 O133 1.258 . S
O126 C124 1.247 . S
O126 Zn127 2.028 . S
Zn127 O126 2.028 . S
Zn127 O131 2.035 1_565 S
Zn127 O133 2.035 1_565 S
Zn127 O134 2.028 . S
O128 C124 1.258 . S
O128 Zn129 2.035 1_565 S
Zn129 O128 2.035 1_545 S
Zn129 O130 2.028 . S
Zn129 O132 2.028 . S
Zn129 O135 2.035 1_545 S
O130 Zn129 2.028 . S
O130 C136 1.247 . S
O131 Zn127 2.035 1_545 S
O131 C136 1.258 . S
O132 C125 1.247 . S
O132 Zn129 2.028 . S
O133 C125 1.258 . S
O133 Zn127 2.035 1_545 S
O134 Zn127 2.028 . S
O134 C137 1.247 . S
O135 Zn129 2.035 1_565 S
O135 C137 1.258 . S
C136 O130 1.247 . S
C136 O131 1.258 . S
C137 O134 1.247 . S
C137 O135 1.258 . S
C138 O140 1.247 . S
C138 O142 1.258 . S
C139 O146 1.247 . S
C139 O147 1.258 . S
O140 C138 1.247 . S
O140 Zn141 2.028 1_554 S
Zn141 O140 2.028 1_556 S
Zn141 O145 2.035 1_556 S
Zn141 O147 2.035 . S
Zn141 O148 2.028 . S
O142 C138 1.258 . S
O142 Zn143 2.035 . S
Zn143 O142 2.035 . S
Zn143 O144 2.028 . S
Zn143 O146 2.028 1_554 S
Zn143 O149 2.035 1_554 S
O144 Zn143 2.028 . S
O144 C150 1.247 . S
O145 Zn141 2.035 1_554 S
O145 C150 1.258 . S
O146 C139 1.247 . S
O146 Zn143 2.028 1_556 S
O147 C139 1.258 . S
O147 Zn141 2.035 . S
O148 Zn141 2.028 . S
O148 C151 1.247 . S
O149 Zn143 2.035 1_556 S
O149 C151 1.258 . S
C150 O144 1.247 . S
C150 O145 1.258 . S
C151 O148 1.247 . S
C151 O149 1.258 . S
C152 O154 1.247 . S
C152 O156 1.258 1_565 S
C153 O160 1.247 . S
C153 O161 1.258 . S
O154 C152 1.247 . S
O154 Zn155 2.028 1_565 S
Zn155 O154 2.028 1_545 S
Zn155 O159 2.035 . S
Zn155 O161 2.035 . S
Zn155 O162 2.028 1_545 S
O156 C152 1.258 1_545 S
O156 Zn157 2.035 . S
Zn157 O156 2.035 . S
Zn157 O158 2.028 . S
Zn157 O160 2.028 . S
Zn157 O163 2.035 . S
O158 Zn157 2.028 . S
O158 C164 1.247 . S
O159 Zn155 2.035 . S
O159 C164 1.258 . S
O160 C153 1.247 . S
O160 Zn157 2.028 . S
O161 C153 1.258 . S
O161 Zn155 2.035 . S
O162 Zn155 2.028 1_565 S
O162 C165 1.247 . S
O163 Zn157 2.035 . S
O163 C165 1.258 1_545 S
C164 O158 1.247 . S
C164 O159 1.258 . S
C165 O162 1.247 . S
C165 O163 1.258 1_565 S
C166 O168 1.247 . S
C166 O170 1.258 . S
C167 O174 1.247 . S
C167 O175 1.258 . S
O168 C166 1.247 . S
O168 Zn169 2.028 . S
Zn169 O168 2.028 . S
Zn169 O173 2.035 . S
Zn169 O175 2.035 . S
Zn169 O176 2.028 . S
O170 C166 1.258 . S
O170 Zn171 2.035 . S
Zn171 O170 2.035 . S
Zn171 O172 2.028 . S
Zn171 O174 2.028 . S
Zn171 O177 2.035 . S
O172 Zn171 2.028 . S
O172 C178 1.247 . S
O173 Zn169 2.035 . S
O173 C178 1.258 . S
O174 C167 1.247 . S
O174 Zn171 2.028 . S
O175 C167 1.258 . S
O175 Zn169 2.035 . S
O176 Zn169 2.028 . S
O176 C179 1.247 . S
O177 Zn171 2.035 . S
O177 C179 1.258 . S
C178 O172 1.247 . S
C178 O173 1.258 . S
C179 O176 1.247 . S
C179 O177 1.258 . S
C180 C181 1.387 . S
C180 H184 0.950 . S
C180 C189 1.390 . S
C181 C180 1.387 . S
C181 C183 1.387 . S
H182 C189 0.950 . S
C183 C181 1.387 . S
C183 C185 1.390 . S
C183 H187 0.950 . S
H184 C180 0.950 . S
C185 C183 1.390 . S
C185 C186 1.387 . S
C185 H188 0.950 . S
C186 C185 1.387 . S
C186 C189 1.387 . S
H187 C183 0.950 . S
H188 C185 0.950 . S
C189 C180 1.390 . S
C189 H182 0.950 . S
C189 C186 1.387 . S
C190 C191 1.387 . S
C190 H194 0.950 . S
C190 C199 1.390 . S
C191 C190 1.387 . S
C191 C193 1.387 . S
H192 C199 0.950 . S
C193 C191 1.387 . S
C193 C195 1.390 . S
C193 H197 0.950 . S
H194 C190 0.950 . S
C195 C193 1.390 . S
C195 C196 1.387 . S
C195 H198 0.950 . S
C196 C195 1.387 . S
C196 C199 1.387 . S
H197 C193 0.950 . S
H198 C195 0.950 . S
C199 C190 1.390 . S
C199 H192 0.950 . S
C199 C196 1.387 . S
C200 C201 1.387 . S
C200 H204 0.950 . S
C200 C209 1.390 . S
C201 C200 1.387 . S
C201 C203 1.387 . S
H202 C209 0.950 . S
C203 C201 1.387 . S
C203 C205 1.390 . S
C203 H207 0.950 . S
H204 C200 0.950 . S
C205 C203 1.390 . S
C205 C206 1.387 . S
C205 H208 0.950 . S
C206 C205 1.387 . S
C206 C209 1.387 . S
H207 C203 0.950 . S
H208 C205 0.950 . S
C209 C200 1.390 . S
C209 H202 0.950 . S
C209 C206 1.387 . S
C210 C211 1.387 . S
C210 H214 0.950 . S
C210 C219 1.390 . S
C211 C210 1.387 . S
C211 C213 1.387 . S
H212 C219 0.950 . S
C213 C211 1.387 . S
C213 C215 1.390 . S
C213 H217 0.950 . S
H214 C210 0.950 . S
C215 C213 1.390 . S
C215 C216 1.387 . S
C215 H218 0.950 . S
C216 C215 1.387 . S
C216 C219 1.387 . S
H217 C213 0.950 . S
H218 C215 0.950 . S
C219 C210 1.390 . S
C219 H212 0.950 . S
C219 C216 1.387 . S
C220 C221 1.387 . S
C220 H224 0.950 . S
C220 C229 1.390 . S
C221 C220 1.387 . S
C221 C223 1.387 . S
H222 C229 0.950 . S
C223 C221 1.387 . S
C223 C225 1.390 . S
C223 H227 0.950 . S
H224 C220 0.950 . S
C225 C223 1.390 . S
C225 C226 1.387 . S
C225 H228 0.950 . S
C226 C225 1.387 . S
C226 C229 1.387 . S
H227 C223 0.950 . S
H228 C225 0.950 . S
C229 C220 1.390 . S
C229 H222 0.950 . S
C229 C226 1.387 . S
C230 C231 1.387 . S
C230 H234 0.950 . S
C230 C239 1.390 . S
C231 C230 1.387 . S
C231 C233 1.387 . S
H232 C239 0.950 . S
C233 C231 1.387 . S
C233 C235 1.390 . S
C233 H237 0.950 . S
H234 C230 0.950 . S
C235 C233 1.390 . S
C235 C236 1.387 . S
C235 H238 0.950 . S
C236 C235 1.387 . S
C236 C239 1.387 . S
H237 C233 0.950 . S
H238 C235 0.950 . S
C239 C230 1.390 . S
C239 H232 0.950 . S
C239 C236 1.387 . S
C240 C241 1.387 . S
C240 H244 0.950 . S
C240 C249 1.390 . S
C241 C240 1.387 . S
C241 C243 1.387 . S
H242 C249 0.950 . S
C243 C241 1.387 . S
C243 C245 1.390 . S
C243 H247 0.950 . S
H244 C240 0.950 . S
C245 C243 1.390 . S
C245 C246 1.387 . S
C245 H248 0.950 . S
C246 C245 1.387 . S
C246 C249 1.387 . S
H247 C243 0.950 . S
H248 C245 0.950 . S
C249 C240 1.390 . S
C249 H242 0.950 . S
C249 C246 1.387 . S
C250 C251 1.387 1_554 S
C250 H254 0.950 . S
C250 C259 1.390 . S
C251 C250 1.387 1_556 S
C251 C253 1.387 . S
H252 C259 0.950 . S
C253 C251 1.387 . S
C253 C255 1.390 . S
C253 H257 0.950 . S
H254 C250 0.950 . S
C255 C253 1.390 . S
C255 C256 1.387 1_556 S
C255 H258 0.950 . S
C256 C255 1.387 1_554 S
C256 C259 1.387 . S
H257 C253 0.950 . S
H258 C255 0.950 . S
C259 C250 1.390 . S
C259 H252 0.950 . S
C259 C256 1.387 . S
C260 C261 1.387 . S
C260 H264 0.950 . S
C260 C269 1.390 . S
C261 C260 1.387 . S
C261 C263 1.387 . S
H262 C269 0.950 . S
C263 C261 1.387 . S
C263 C265 1.390 . S
C263 H267 0.950 . S
H264 C260 0.950 . S
C265 C263 1.390 . S
C265 C266 1.387 . S
C265 H268 0.950 . S
C266 C265 1.387 . S
C266 C269 1.387 . S
H267 C263 0.950 . S
H268 C265 0.950 . S
C269 C260 1.390 . S
C269 H262 0.950 . S
C269 C266 1.387 . S
C270 C271 1.387 . S
C270 H274 0.950 . S
C270 C279 1.390 . S
C271 C270 1.387 . S
C271 C273 1.387 . S
H272 C279 0.950 . S
C273 C271 1.387 . S
C273 C275 1.390 . S
C273 H277 0.950 . S
H274 C270 0.950 . S
C275 C273 1.390 . S
C275 C276 1.387 . S
C275 H278 0.950 . S
C276 C275 1.387 . S
C276 C279 1.387 . S
H277 C273 0.950 . S
H278 C275 0.950 . S
C279 C270 1.390 . S
C279 H272 0.950 . S
C279 C276 1.387 . S
C280 C281 1.387 . S
C280 H284 0.950 . S
C280 C289 1.390 . S
C281 C280 1.387 . S
C281 C283 1.387 . S
H282 C289 0.950 . S
C283 C281 1.387 . S
C283 C285 1.390 . S
C283 H287 0.950 . S
H284 C280 0.950 . S
C285 C283 1.390 . S
C285 C286 1.387 . S
C285 H288 0.950 . S
C286 C285 1.387 . S
C286 C289 1.387 . S
H287 C283 0.950 . S
H288 C285 0.950 . S
C289 C280 1.390 . S
C289 H282 0.950 . S
C289 C286 1.387 . S
C290 C291 1.387 . S
C290 H294 0.950 . S
C290 C299 1.390 . S
C291 C290 1.387 . S
C291 C293 1.387 . S
H292 C299 0.950 . S
C293 C291 1.387 . S
C293 C295 1.390 . S
C293 H297 0.950 . S
H294 C290 0.950 . S
C295 C293 1.390 . S
C295 C296 1.387 . S
C295 H298 0.950 . S
C296 C295 1.387 . S
C296 C299 1.387 . S
H297 C293 0.950 . S
H298 C295 0.950 . S
C299 C290 1.390 . S
C299 H292 0.950 . S
C299 C296 1.387 . S
C300 C301 1.387 . S
C300 H304 0.950 . S
C300 C309 1.390 . S
C301 C300 1.387 . S
C301 C303 1.387 . S
H302 C309 0.950 . S
C303 C301 1.387 . S
C303 C305 1.390 . S
C303 H307 0.950 . S
H304 C300 0.950 . S
C305 C303 1.390 . S
C305 C306 1.387 . S
C305 H308 0.950 1_655 S
C306 C305 1.387 . S
C306 C309 1.387 . S
H307 C303 0.950 . S
H308 C305 0.950 1_455 S
C309 C300 1.390 . S
C309 H302 0.950 . S
C309 C306 1.387 . S
C310 C311 1.387 . S
C310 H314 0.950 . S
C310 C319 1.390 . S
C311 C310 1.387 . S
C311 C313 1.387 . S
H312 C319 0.950 . S
C313 C311 1.387 . S
C313 C315 1.390 . S
C313 H317 0.950 . S
H314 C310 0.950 . S
C315 C313 1.390 . S
C315 C316 1.387 . S
C315 H318 0.950 . S
C316 C315 1.387 . S
C316 C319 1.387 . S
H317 C313 0.950 . S
H318 C315 0.950 . S
C319 C310 1.390 . S
C319 H312 0.950 . S
C319 C316 1.387 . S
C320 C321 1.387 . S
C320 H324 0.950 . S
C320 C329 1.390 . S
C321 C320 1.387 . S
C321 C323 1.387 . S
H322 C329 0.950 . S
C323 C321 1.387 . S
C323 C325 1.390 . S
C323 H327 0.950 . S
H324 C320 0.950 . S
C325 C323 1.390 . S
C325 C326 1.387 . S
C325 H328 0.950 . S
C326 C325 1.387 . S
C326 C329 1.387 . S
H327 C323 0.950 . S
H328 C325 0.950 . S
C329 C320 1.390 . S
C329 H322 0.950 . S
C329 C326 1.387 . S
C330 C331 1.387 . S
C330 H334 0.950 . S
C330 C339 1.390 . S
C331 C330 1.387 . S
C331 C333 1.387 . S
H332 C339 0.950 . S
C333 C331 1.387 . S
C333 C335 1.390 . S
C333 H337 0.950 . S
H334 C330 0.950 . S
C335 C333 1.390 . S
C335 C336 1.387 . S
C335 H338 0.950 . S
C336 C335 1.387 . S
C336 C339 1.387 . S
H337 C333 0.950 . S
H338 C335 0.950 . S
C339 C330 1.390 . S
C339 H332 0.950 . S
C339 C336 1.387 . S
C340 C341 1.387 . S
C340 H344 0.950 . S
C340 C349 1.390 . S
C341 C340 1.387 . S
C341 C343 1.387 . S
H342 C349 0.950 . S
C343 C341 1.387 . S
C343 C345 1.390 . S
C343 H347 0.950 . S
H344 C340 0.950 . S
C345 C343 1.390 . S
C345 C346 1.387 . S
C345 H348 0.950 . S
C346 C345 1.387 . S
C346 C349 1.387 . S
H347 C343 0.950 . S
H348 C345 0.950 . S
C349 C340 1.390 . S
C349 H342 0.950 . S
C349 C346 1.387 . S
C350 C351 1.387 . S
C350 H354 0.950 . S
C350 C359 1.390 . S
C351 C350 1.387 . S
C351 C353 1.387 . S
H352 C359 0.950 . S
C353 C351 1.387 . S
C353 C355 1.390 . S
C353 H357 0.950 . S
H354 C350 0.950 . S
C355 C353 1.390 . S
C355 C356 1.387 . S
C355 H358 0.950 . S
C356 C355 1.387 . S
C356 C359 1.387 . S
H357 C353 0.950 . S
H358 C355 0.950 . S
C359 C350 1.390 . S
C359 H352 0.950 . S
C359 C356 1.387 . S
C360 C361 1.387 . S
C360 H364 0.950 . S
C360 C369 1.390 . S
C361 C360 1.387 . S
C361 C363 1.387 . S
H362 C369 0.950 . S
C363 C361 1.387 . S
C363 C365 1.390 . S
C363 H367 0.950 . S
H364 C360 0.950 . S
C365 C363 1.390 . S
C365 C366 1.387 . S
C365 H368 0.950 . S
C366 C365 1.387 . S
C366 C369 1.387 . S
H367 C363 0.950 . S
H368 C365 0.950 . S
C369 C360 1.390 . S
C369 H362 0.950 . S
C369 C366 1.387 . S
C370 C371 1.387 . S
C370 H374 0.950 . S
C370 C379 1.390 . S
C371 C370 1.387 . S
C371 C373 1.387 . S
H372 C379 0.950 . S
C373 C371 1.387 . S
C373 C375 1.390 . S
C373 H377 0.950 . S
H374 C370 0.950 . S
C375 C373 1.390 . S
C375 C376 1.387 . S
C375 H378 0.950 . S
C376 C375 1.387 . S
C376 C379 1.387 . S
H377 C373 0.950 . S
H378 C375 0.950 . S
C379 C370 1.390 . S
C379 H372 0.950 . S
C379 C376 1.387 . S
C380 C381 1.387 . S
C380 H384 0.950 . S
C380 C389 1.390 . S
C381 C380 1.387 . S
C381 C383 1.387 . S
H382 C389 0.950 . S
C383 C381 1.387 . S
C383 C385 1.390 . S
C383 H387 0.950 . S
H384 C380 0.950 . S
C385 C383 1.390 . S
C385 C386 1.387 . S
C385 H388 0.950 . S
C386 C385 1.387 . S
C386 C389 1.387 . S
H387 C383 0.950 . S
H388 C385 0.950 . S
C389 C380 1.390 . S
C389 H382 0.950 . S
C389 C386 1.387 . S
C390 C391 1.387 . S
C390 H394 0.950 . S
C390 C399 1.390 . S
C391 C390 1.387 . S
C391 C393 1.387 . S
H392 C399 0.950 1_554 S
C393 C391 1.387 . S
C393 C395 1.390 . S
C393 H397 0.950 . S
H394 C390 0.950 . S
C395 C393 1.390 . S
C395 C396 1.387 . S
C395 H398 0.950 . S
C396 C395 1.387 . S
C396 C399 1.387 . S
H397 C393 0.950 . S
H398 C395 0.950 . S
C399 C390 1.390 . S
C399 H392 0.950 1_556 S
C399 C396 1.387 . S
C400 C401 1.387 . S
C400 H404 0.950 . S
C400 C409 1.390 . S
C401 C400 1.387 . S
C401 C403 1.387 . S
H402 C409 0.950 . S
C403 C401 1.387 . S
C403 C405 1.390 . S
C403 H407 0.950 . S
H404 C400 0.950 . S
C405 C403 1.390 . S
C405 C406 1.387 . S
C405 H408 0.950 . S
C406 C405 1.387 . S
C406 C409 1.387 . S
H407 C403 0.950 . S
H408 C405 0.950 . S
C409 C400 1.390 . S
C409 H402 0.950 . S
C409 C406 1.387 . S
C410 C411 1.387 . S
C410 H414 0.950 . S
C410 C419 1.390 . S
C411 C410 1.387 . S
C411 C413 1.387 . S
H412 C419 0.950 . S
C413 C411 1.387 . S
C413 C415 1.390 . S
C413 H417 0.950 . S
H414 C410 0.950 . S
C415 C413 1.390 . S
C415 C416 1.387 . S
C415 H418 0.950 . S
C416 C415 1.387 . S
C416 C419 1.387 . S
H417 C413 0.950 . S
H418 C415 0.950 . S
C419 C410 1.390 . S
C419 H412 0.950 . S
C419 C416 1.387 . S
C186 C108 1.565 . S
C181 C6 1.572 . S
C196 C111 1.615 . S
C191 C18 1.613 . S
C206 C109 1.528 . S
C201 C28 1.542 . S
C216 C110 1.630 . S
C211 C45 1.654 . S
C226 C125 1.456 . S
C221 C4 1.470 . S
C236 C139 1.636 . S
C231 C21 1.638 . S
C241 C33 1.636 . S
C246 C165 1.650 . S
C256 C179 1.649 . S
C251 C40 1.653 . S
C266 C124 1.582 . S
C261 C16 1.559 . S
C271 C30 1.607 . S
C276 C138 1.586 . S
C286 C164 1.620 . S
C281 C42 1.614 . S
C296 C178 1.670 . S
C291 C9 1.683 . S
C301 C52 1.648 . S
C306 C123 1.621 1_655 S
C316 C96 1.676 . S
C311 C69 1.655 . S
C321 C78 1.542 . S
C326 C122 1.532 . S
C331 C93 1.358 . S
C336 C97 1.384 . S
C346 C152 1.693 . S
C341 C57 1.675 . S
C356 C166 1.689 . S
C351 C66 1.706 . S
C366 C136 1.453 . S
C361 C76 1.459 . S
C371 C88 1.464 . S
C376 C150 1.439 . S
C386 C153 1.620 . S
C381 C64 1.600 . S
C396 C167 1.619 1_556 S
C391 C81 1.633 . S
C406 C137 1.388 . S
C401 C90 1.387 . S
C411 C54 1.589 . S
C416 C151 1.585 . S
