# Generated by pormake.
# Topology pto, (3,4)-cn, num edge types: 1
# Building blocks:
#     Node 0, Type 0, BuildingBlock: OLANEW_clean_sbu_2, # of connection points: 3
#     Node 1, Type 0, BuildingBlock: OLANEW_clean_sbu_2, # of connection points: 3
#     Node 2, Type 0, BuildingBlock: OLANEW_clean_sbu_2, # of connection points: 3
#     Node 3, Type 0, BuildingBlock: OLANEW_clean_sbu_2, # of connection points: 3
#     Node 4, Type 0, BuildingBlock: OLANEW_clean_sbu_2, # of connection points: 3
#     Node 5, Type 0, BuildingBlock: OLANEW_clean_sbu_2, # of connection points: 3
#     Node 6, Type 0, BuildingBlock: OLANEW_clean_sbu_2, # of connection points: 3
#     Node 7, Type 0, BuildingBlock: OLANEW_clean_sbu_2, # of connection points: 3
#     Node 8, Type 1, BuildingBlock: MUDLON_clean_linker_0, # of connection points: 4
#     Node 9, Type 1, BuildingBlock: MUDLON_clean_linker_0, # of connection points: 4
#     Node 10, Type 1, BuildingBlock: MUDLON_clean_linker_0, # of connection points: 4
#     Node 11, Type 1, BuildingBlock: MUDLON_clean_linker_0, # of connection points: 4
#     Node 12, Type 1, BuildingBlock: MUDLON_clean_linker_0, # of connection points: 4
#     Node 13, Type 1, BuildingBlock: MUDLON_clean_linker_0, # of connection points: 4
#     Edge 14, Type (0, 1), BuildingBlock: TEMPAE_clean_linker_10, # of connection points: 2
#     Edge 15, Type (0, 1), BuildingBlock: TEMPAE_clean_linker_10, # of connection points: 2
#     Edge 16, Type (0, 1), BuildingBlock: TEMPAE_clean_linker_10, # of connection points: 2
#     Edge 17, Type (0, 1), BuildingBlock: TEMPAE_clean_linker_10, # of connection points: 2
#     Edge 18, Type (0, 1), BuildingBlock: TEMPAE_clean_linker_10, # of connection points: 2
#     Edge 19, Type (0, 1), BuildingBlock: TEMPAE_clean_linker_10, # of connection points: 2
#     Edge 20, Type (0, 1), BuildingBlock: TEMPAE_clean_linker_10, # of connection points: 2
#     Edge 21, Type (0, 1), BuildingBlock: TEMPAE_clean_linker_10, # of connection points: 2
#     Edge 22, Type (0, 1), BuildingBlock: TEMPAE_clean_linker_10, # of connection points: 2
#     Edge 23, Type (0, 1), BuildingBlock: TEMPAE_clean_linker_10, # of connection points: 2
#     Edge 24, Type (0, 1), BuildingBlock: TEMPAE_clean_linker_10, # of connection points: 2
#     Edge 25, Type (0, 1), BuildingBlock: TEMPAE_clean_linker_10, # of connection points: 2
#     Edge 26, Type (0, 1), BuildingBlock: TEMPAE_clean_linker_10, # of connection points: 2
#     Edge 27, Type (0, 1), BuildingBlock: TEMPAE_clean_linker_10, # of connection points: 2
#     Edge 28, Type (0, 1), BuildingBlock: TEMPAE_clean_linker_10, # of connection points: 2
#     Edge 29, Type (0, 1), BuildingBlock: TEMPAE_clean_linker_10, # of connection points: 2
#     Edge 30, Type (0, 1), BuildingBlock: TEMPAE_clean_linker_10, # of connection points: 2
#     Edge 31, Type (0, 1), BuildingBlock: TEMPAE_clean_linker_10, # of connection points: 2
#     Edge 32, Type (0, 1), BuildingBlock: TEMPAE_clean_linker_10, # of connection points: 2
#     Edge 33, Type (0, 1), BuildingBlock: TEMPAE_clean_linker_10, # of connection points: 2
#     Edge 34, Type (0, 1), BuildingBlock: TEMPAE_clean_linker_10, # of connection points: 2
#     Edge 35, Type (0, 1), BuildingBlock: TEMPAE_clean_linker_10, # of connection points: 2
#     Edge 36, Type (0, 1), BuildingBlock: TEMPAE_clean_linker_10, # of connection points: 2
#     Edge 37, Type (0, 1), BuildingBlock: TEMPAE_clean_linker_10, # of connection points: 2
# Relax obj value: 0.010
# Max RMSD: 0.127
# Mean RMSD: 0.066
data_MOF--net-pto--node1-OLANEW_clean_sbu_2--node2-MUDLON_clean_linker_0--edge1-TEMPAE_clean_linker_10
_symmetry_space_group_name_H-M    P1
_symmetry_Int_Tables_number       1
_symmetry_cell_setting            triclinic
loop_
_symmetry_equiv_pos_as_xyz
'x, y, z'
_cell_length_a     40.11907
_cell_length_b     71.858475
_cell_length_c     56.135476
_cell_angle_alpha  92.746599
_cell_angle_beta   88.852568
_cell_angle_gamma 106.5792
loop_
_atom_site_label
_atom_site_type_symbol
_atom_site_fract_x
_atom_site_fract_y
_atom_site_fract_z
_atom_type_partial_charge
O0 O 0.32946 0.32779 0.30327 0.0
Cd1 Cd 0.29835 0.32723 0.34118 0.0
O2 O 0.33637 0.35864 0.29679 0.0
Cd3 Cd 0.30651 0.36424 0.32783 0.0
O4 O 0.27046 0.37789 0.34611 0.0
C5 C 0.28142 0.39422 0.35738 0.0
O6 O 0.31511 0.40228 0.3593 0.0
C7 C 0.34118 0.34238 0.29043 0.0
C8 C 0.31537 0.30118 0.37077 0.0
O9 O 0.29072 0.29537 0.35559 0.0
O10 O 0.33164 0.31935 0.37219 0.0
O11 O 0.24395 0.85514 0.74834 0.0
Cd12 Cd 0.20575 0.85873 0.71651 0.0
O13 O 0.26623 0.83523 0.72669 0.0
Cd14 Cd 0.23126 0.83119 0.69643 0.0
O15 O 0.19862 0.80858 0.67275 0.0
C16 C 0.20935 0.79366 0.66905 0.0
O17 O 0.23904 0.7936 0.67848 0.0
C18 C 0.2652 0.84499 0.74606 0.0
C19 C 0.23397 0.89303 0.69278 0.0
O20 O 0.21549 0.89286 0.7117 0.0
O21 O 0.23897 0.87695 0.68505 0.0
O22 O 0.84368 0.80467 0.30847 0.0
Cd23 Cd 0.83036 0.77856 0.27734 0.0
O24 O 0.79345 0.79316 0.32667 0.0
Cd25 Cd 0.7728 0.77277 0.29693 0.0
O26 O 0.74814 0.76874 0.26207 0.0
C27 C 0.7532 0.78439 0.25113 0.0
O28 O 0.77338 0.80053 0.26101 0.0
C29 C 0.82327 0.80553 0.32588 0.0
C30 C 0.85159 0.74689 0.29104 0.0
O31 O 0.87139 0.76004 0.27838 0.0
O32 O 0.82159 0.74861 0.29704 0.0
O33 O 0.74148 0.28637 0.64355 0.0
Cd34 Cd 0.70968 0.25621 0.66221 0.0
O35 O 0.78498 0.29268 0.66874 0.0
Cd36 Cd 0.7578 0.27071 0.69335 0.0
O37 O 0.73122 0.26798 0.72785 0.0
C38 C 0.69825 0.26361 0.72905 0.0
O39 O 0.68025 0.25889 0.70927 0.0
C40 C 0.77123 0.29693 0.65031 0.0
C41 C 0.7304 0.22421 0.64443 0.0
O42 O 0.70632 0.22941 0.63431 0.0
O43 O 0.74468 0.23416 0.66299 0.0
O44 O 0.74042 0.79068 0.68177 0.0
Cd45 Cd 0.7203 0.76232 0.7062 0.0
O46 O 0.79268 0.79977 0.6976 0.0
Cd47 Cd 0.77484 0.78152 0.72802 0.0
O48 O 0.74467 0.77603 0.76109 0.0
C49 C 0.72187 0.76016 0.76531 0.0
O50 O 0.7172 0.74539 0.74978 0.0
C51 C 0.77147 0.80176 0.68204 0.0
C52 C 0.74827 0.73272 0.68919 0.0
O53 O 0.71841 0.73337 0.68221 0.0
O54 O 0.7646 0.74589 0.70435 0.0
O55 O 0.88787 0.27594 0.31863 0.0
Cd56 Cd 0.876 0.24307 0.30055 0.0
O57 O 0.85707 0.28101 0.28935 0.0
Cd58 Cd 0.83259 0.29637 0.26557 0.0
O59 O 0.79765 0.30314 0.24032 0.0
C60 C 0.80762 0.30862 0.21952 0.0
O61 O 0.8403 0.31104 0.21335 0.0
C62 C 0.87461 0.28739 0.30815 0.0
C63 C 0.87766 0.21531 0.33315 0.0
O64 O 0.90474 0.22353 0.32092 0.0
O65 O 0.8499 0.22032 0.33004 0.0
O66 O 0.20771 0.36036 0.77147 0.0
Cd67 Cd 0.17014 0.35295 0.7365 0.0
O68 O 0.23956 0.34928 0.74565 0.0
Cd69 Cd 0.28249 0.33778 0.73419 0.0
O70 O 0.31534 0.32147 0.71712 0.0
C71 C 0.30721 0.30324 0.71963 0.0
O72 O 0.2804 0.29518 0.7332 0.0
C73 C 0.23566 0.35599 0.76657 0.0
C74 C 0.14881 0.38331 0.71924 0.0
O75 O 0.12821 0.37035 0.73174 0.0
O76 O 0.17986 0.38229 0.71547 0.0
O77 O 0.46129 0.86523 0.33695 0.0
Cd78 Cd 0.48249 0.86943 0.37788 0.0
O79 O 0.42415 0.83714 0.34425 0.0
Cd80 Cd 0.38297 0.81023 0.33627 0.0
O81 O 0.33913 0.78395 0.33754 0.0
C82 C 0.34053 0.77078 0.3515 0.0
O83 O 0.36874 0.77317 0.36418 0.0
C84 C 0.43819 0.85007 0.32955 0.0
C85 C 0.47396 0.90242 0.4023 0.0
O86 O 0.49945 0.9036 0.38778 0.0
O87 O 0.45224 0.88569 0.40505 0.0
H88 H 0.97998 0.4483 0.42244 0.0
N89 N 0.00706 0.47961 0.39786 0.0
H90 H 0.94499 0.41661 0.40706 0.0
H91 H 0.97258 0.47265 0.3547 0.0
H92 H 0.9366 0.44131 0.3395 0.0
H93 H 0.03715 0.47032 0.35653 0.0
H94 H 0.09072 0.46096 0.35318 0.0
H95 H 0.05345 0.48239 0.43202 0.0
H96 H 0.10811 0.47355 0.42876 0.0
H97 H 0.98885 0.50325 0.42977 0.0
H98 H 0.02105 0.49954 0.35646 0.0
H99 H 0.98997 0.53702 0.42548 0.0
H100 H 0.01965 0.53268 0.35131 0.0
H101 H 0.99156 0.64254 0.41149 0.0
H102 H 0.95341 0.66001 0.39564 0.0
H103 H 0.96132 0.63362 0.32566 0.0
H104 H 0.99765 0.61527 0.34219 0.0
H105 H 0.05794 0.63088 0.34494 0.0
H106 H 0.11456 0.65436 0.33985 0.0
H107 H 0.1267 0.66102 0.41636 0.0
H108 H 0.06923 0.63765 0.42132 0.0
H109 H 0.97524 0.5944 0.41037 0.0
H110 H 0.96547 0.5593 0.41036 0.0
H111 H 0.05093 0.56431 0.36053 0.0
N112 N 0.02421 0.62034 0.38732 0.0
H113 H 0.05862 0.59881 0.35924 0.0
C114 C 0.97927 0.46292 0.38989 0.0
C115 C 0.9697 0.44698 0.40455 0.0
C116 C 0.94962 0.42885 0.39568 0.0
C117 C 0.93834 0.42629 0.37187 0.0
C118 C 0.94552 0.44266 0.35775 0.0
C119 C 0.96594 0.46076 0.36659 0.0
C120 C 0.04121 0.47701 0.39464 0.0
C121 C 0.05275 0.47148 0.37231 0.0
C122 C 0.08358 0.46617 0.37042 0.0
C123 C 0.10368 0.46638 0.39074 0.0
C124 C 0.09298 0.47292 0.41282 0.0
C125 C 0.06199 0.47815 0.41471 0.0
C126 C 0.00438 0.49874 0.3935 0.0
C127 C 0.99522 0.5096 0.41255 0.0
C128 C 0.99566 0.5289 0.40995 0.0
C129 C 0.00483 0.53777 0.38797 0.0
C130 C 0.01301 0.52658 0.36863 0.0
C131 C 0.01328 0.50739 0.37144 0.0
C132 C 0.99781 0.62793 0.37799 0.0
C133 C 0.98434 0.64024 0.39286 0.0
C134 C 0.96291 0.65037 0.38367 0.0
C135 C 0.95494 0.64863 0.35922 0.0
C136 C 0.96685 0.63534 0.34457 0.0
C137 C 0.9879 0.62496 0.35392 0.0
C138 C 0.05923 0.63252 0.38363 0.0
C139 C 0.07273 0.63725 0.36066 0.0
C140 C 0.10534 0.6506 0.35775 0.0
C141 C 0.1251 0.6596 0.3777 0.0
C142 C 0.11193 0.65449 0.40064 0.0
C143 C 0.0793 0.64106 0.40352 0.0
C144 C 0.01783 0.59948 0.38514 0.0
C145 C 0.99144 0.58781 0.39915 0.0
C146 C 0.98618 0.56774 0.39931 0.0
C147 C 0.00776 0.55882 0.38576 0.0
C148 C 0.03345 0.57046 0.37104 0.0
C149 C 0.03818 0.59048 0.3705 0.0
H150 H 0.93977 0.46948 0.62753 0.0
N151 N 0.96991 0.48266 0.58508 0.0
H152 H 0.89628 0.43858 0.6332 0.0
H153 H 0.93186 0.45935 0.55128 0.0
H154 H 0.8877 0.42821 0.55681 0.0
H155 H 0.0061 0.45845 0.57125 0.0
H156 H 0.04704 0.44797 0.59462 0.0
H157 H -0.00021 0.50064 0.62709 0.0
H158 H 0.04337 0.49163 0.64976 0.0
H159 H 0.92918 0.49857 0.61551 0.0
H160 H 0.00259 0.51096 0.55713 0.0
H161 H 0.92487 0.53155 0.61598 0.0
H162 H -0.00021 0.54451 0.55827 0.0
H163 H 0.94535 0.62743 0.63639 0.0
H164 H 0.9 0.64084 0.65265 0.0
H165 H 0.85726 0.63821 0.58215 0.0
H166 H 0.90299 0.62462 0.5659 0.0
H167 H 0.98255 0.65115 0.5632 0.0
H168 H 0.03097 0.6798 0.5733 0.0
H169 H 0.053 0.65154 0.63488 0.0
H170 H 0.0042 0.62335 0.62508 0.0
H171 H 0.95254 0.59722 0.62751 0.0
H172 H 0.95562 0.56393 0.62643 0.0
H173 H 0.964 0.56419 0.54951 0.0
N174 N 0.95716 0.62024 0.589 0.0
H175 H 0.96267 0.59803 0.55097 0.0
C176 C 0.93896 0.46682 0.58887 0.0
C177 C 0.92773 0.46093 0.61196 0.0
C178 C 0.90281 0.44318 0.61518 0.0
C179 C 0.88868 0.43086 0.59545 0.0
C180 C 0.89839 0.43729 0.57237 0.0
C181 C 0.92329 0.45513 0.56916 0.0
C182 C 0.99976 0.48027 0.59723 0.0
C183 C 0.01471 0.466 0.58818 0.0
C184 C 0.03843 0.46012 0.60164 0.0
C185 C 0.04866 0.46879 0.62439 0.0
C186 C 0.03556 0.48418 0.63268 0.0
C187 C 0.01093 0.48964 0.61947 0.0
C188 C 0.96598 0.50207 0.58593 0.0
C189 C 0.94441 0.50829 0.60271 0.0
C190 C 0.94224 0.52738 0.60316 0.0
C191 C 0.96194 0.5408 0.58716 0.0
C192 C 0.98367 0.53455 0.57057 0.0
C193 C 0.98551 0.5154 0.56996 0.0
C194 C 0.92743 0.62486 0.59981 0.0
C195 C 0.92565 0.62907 0.62447 0.0
C196 C 0.89966 0.63681 0.6338 0.0
C197 C 0.87518 0.64067 0.61866 0.0
C198 C 0.87597 0.63554 0.59421 0.0
C199 C 0.90184 0.62766 0.58493 0.0
C200 C 0.9896 0.63507 0.59323 0.0
C201 C 0.99838 0.65101 0.57856 0.0
C202 C 0.02607 0.66735 0.58436 0.0
C203 C 0.04566 0.66804 0.60505 0.0
C204 C 0.03803 0.6516 0.61905 0.0
C205 C 0.01021 0.63532 0.61329 0.0
C206 C 0.95768 0.60026 0.58922 0.0
C207 C 0.95522 0.59026 0.61041 0.0
C208 C 0.95666 0.57102 0.60974 0.0
C209 C 0.9601 0.56126 0.58788 0.0
C210 C 0.96201 0.57128 0.56672 0.0
C211 C 0.96098 0.59057 0.56746 0.0
H212 H 0.35674 0.1882 0.55403 0.0
N213 N 0.42278 0.18915 0.5391 0.0
H214 H 0.34115 0.20616 0.58801 0.0
H215 H 0.46534 0.21148 0.57148 0.0
H216 H 0.4499 0.23036 0.60533 0.0
H217 H 0.46051 0.21797 0.51375 0.0
H218 H 0.44117 0.23287 0.48031 0.0
H219 H 0.36121 0.17438 0.51509 0.0
H220 H 0.34147 0.18941 0.48196 0.0
H221 H 0.36754 0.1585 0.55221 0.0
H222 H 0.4745 0.17401 0.52869 0.0
H223 H 0.36874 0.12532 0.55715 0.0
H224 H 0.47553 0.14042 0.53254 0.0
H225 H 0.36718 0.0276 0.54935 0.0
H226 H 0.32859 0.00368 0.57428 0.0
H227 H 0.39176 0.02871 0.63571 0.0
H228 H 0.43126 0.05202 0.6102 0.0
H229 H 0.46937 0.02976 0.56635 0.0
H230 H 0.48088 0.00708 0.5359 0.0
H231 H 0.42526 0.02967 0.48447 0.0
H232 H 0.41174 0.05117 0.51543 0.0
H233 H 0.37357 0.06294 0.54543 0.0
H234 H 0.37124 0.09567 0.53749 0.0
H235 H 0.47648 0.11907 0.56328 0.0
N236 N 0.42929 0.05309 0.56302 0.0
H237 H 0.47884 0.08617 0.57025 0.0
C238 C 0.41241 0.19838 0.56022 0.0
C239 C 0.37733 0.197 0.56528 0.0
C240 C 0.36841 0.20752 0.58466 0.0
C241 C 0.39429 0.2199 0.59925 0.0
C242 C 0.4293 0.22085 0.59457 0.0
C243 C 0.43819 0.21015 0.57524 0.0
C244 C 0.41237 0.19522 0.51703 0.0
C245 C 0.43482 0.21139 0.50646 0.0
C246 C 0.42373 0.21986 0.48739 0.0
C247 C 0.38971 0.21237 0.47869 0.0
C248 C 0.36771 0.19557 0.48852 0.0
C249 C 0.37902 0.18696 0.50742 0.0
C250 C 0.42128 0.16894 0.54038 0.0
C251 C 0.39126 0.15481 0.54787 0.0
C252 C 0.39188 0.13566 0.5505 0.0
C253 C 0.42233 0.13016 0.54547 0.0
C254 C 0.45185 0.14419 0.53711 0.0
C255 C 0.45127 0.16335 0.53469 0.0
C256 C 0.40245 0.04142 0.57794 0.0
C257 C 0.3724 0.02815 0.56824 0.0
C258 C 0.35021 0.0145 0.58261 0.0
C259 C 0.35732 0.01402 0.607 0.0
C260 C 0.38596 0.02832 0.61691 0.0
C261 C 0.40835 0.04179 0.60246 0.0
C262 C 0.43991 0.04228 0.54338 0.0
C263 C 0.46013 0.02998 0.54839 0.0
C264 C 0.46682 0.01707 0.53084 0.0
C265 C 0.45396 0.01641 0.50757 0.0
C266 C 0.43502 0.02943 0.50226 0.0
C267 C 0.42764 0.04203 0.52001 0.0
C268 C 0.42654 0.07216 0.55842 0.0
C269 C 0.39612 0.07511 0.54933 0.0
C270 C 0.3948 0.09388 0.54489 0.0
C271 C 0.42372 0.11007 0.54966 0.0
C272 C 0.45395 0.10698 0.55892 0.0
C273 C 0.45531 0.08822 0.56313 0.0
H274 H 0.50756 0.79236 0.11446 0.0
N275 N 0.52421 0.82703 0.09217 0.0
H276 H 0.54792 0.77895 0.13476 0.0
H277 H 0.59327 0.83874 0.08957 0.0
H278 H 0.63406 0.82533 0.11012 0.0
H279 H 0.54099 0.8596 0.11891 0.0
H280 H 0.51382 0.86588 0.15665 0.0
H281 H 0.4596 0.80602 0.10757 0.0
H282 H 0.4327 0.81194 0.14565 0.0
H283 H 0.48842 0.79037 0.07516 0.0
H284 H 0.52573 0.85039 0.05689 0.0
H285 H 0.46941 0.78112 0.03431 0.0
H286 H 0.50533 0.8414 0.01602 0.0
H287 H 0.47202 0.75229 0.91977 0.0
H288 H 0.51892 0.74543 0.89526 0.0
H289 H 0.54874 0.80458 0.87267 0.0
H290 H 0.50215 0.81125 0.89688 0.0
H291 H 0.45855 0.82415 0.92171 0.0
H292 H 0.42399 0.83808 0.89641 0.0
H293 H 0.3675 0.78034 0.87029 0.0
H294 H 0.40158 0.76651 0.89621 0.0
H295 H 0.41706 0.77162 0.96204 0.0
H296 H 0.42943 0.78226 0.00387 0.0
H297 H 0.52258 0.82552 0.98193 0.0
N298 N 0.45441 0.78534 0.92381 0.0
H299 H 0.50926 0.8154 0.94049 0.0
C300 C 0.54743 0.81672 0.10052 0.0
C301 C 0.53509 0.79944 0.11281 0.0
C302 C 0.5582 0.79179 0.12456 0.0
C303 C 0.59406 0.8012 0.12421 0.0
C304 C 0.60657 0.81769 0.11055 0.0
C305 C 0.58336 0.82539 0.09887 0.0
C306 C 0.50267 0.83231 0.1106 0.0
C307 C 0.51669 0.84949 0.12426 0.0
C308 C 0.50131 0.85294 0.14587 0.0
C309 C 0.47158 0.83918 0.15431 0.0
C310 C 0.45563 0.82279 0.13959 0.0
C311 C 0.47106 0.81937 0.11784 0.0
C312 C 0.50907 0.82113 0.069 0.0
C313 C 0.49215 0.80163 0.06248 0.0
C314 C 0.48097 0.79636 0.03904 0.0
C315 C 0.48615 0.81048 0.02173 0.0
C316 C 0.50161 0.83008 0.0287 0.0
C317 C 0.51301 0.83529 0.05206 0.0
C318 C 0.48322 0.78214 0.91003 0.0
C319 C 0.48883 0.76375 0.90958 0.0
C320 C 0.51565 0.7599 0.89568 0.0
C321 C 0.53728 0.77443 0.8819 0.0
C322 C 0.53212 0.79299 0.88278 0.0
C323 C 0.50546 0.79684 0.89672 0.0
C324 C 0.43245 0.79415 0.91098 0.0
C325 C 0.43831 0.81444 0.91094 0.0
C326 C 0.41871 0.82243 0.89626 0.0
C327 C 0.39299 0.81035 0.88128 0.0
C328 C 0.38667 0.79008 0.88186 0.0
C329 C 0.40618 0.78213 0.89657 0.0
C330 C 0.46226 0.79247 0.94813 0.0
C331 C 0.43999 0.78348 0.96636 0.0
C332 C 0.44723 0.78951 0.99022 0.0
C333 C 0.47711 0.8047 0.99633 0.0
C334 C 0.4991 0.81395 0.97793 0.0
C335 C 0.49169 0.808 0.95411 0.0
H336 H 0.80407 0.0804 0.53003 0.0
N337 N 0.87358 0.08792 0.52035 0.0
H338 H 0.77738 0.10081 0.55578 0.0
H339 H 0.90584 0.1155 0.55171 0.0
H340 H 0.87954 0.13569 0.57789 0.0
H341 H 0.93104 0.11043 0.50113 0.0
H342 H 0.93542 0.12971 0.46567 0.0
H343 H 0.82128 0.0856 0.48887 0.0
H344 H 0.82545 0.1046 0.45348 0.0
H345 H 0.82219 0.0563 0.50328 0.0
H346 H 0.92084 0.07398 0.53918 0.0
H347 H 0.82402 0.02257 0.50152 0.0
H348 H 0.92227 0.04021 0.5386 0.0
H349 H 0.8211 0.92593 0.51731 0.0
H350 H 0.79955 0.90187 0.54739 0.0
H351 H 0.89535 0.92433 0.58634 0.0
H352 H 0.91747 0.94816 0.55563 0.0
H353 H 0.93419 0.93434 0.49777 0.0
H354 H 0.92943 0.91246 0.46244 0.0
H355 H 0.83087 0.92184 0.44586 0.0
H356 H 0.83658 0.94421 0.48069 0.0
H357 H 0.8264 0.9613 0.52107 0.0
H358 H 0.82117 0.99441 0.52365 0.0
H359 H 0.93165 0.01673 0.51032 0.0
N360 N 0.88703 0.95093 0.51482 0.0
H361 H 0.93671 0.98364 0.50884 0.0
C362 C 0.85699 0.0966 0.53891 0.0
C363 C 0.82062 0.09217 0.54081 0.0
C364 C 0.80542 0.10382 0.55557 0.0
C365 C 0.82642 0.12004 0.56855 0.0
C366 C 0.86271 0.12352 0.56779 0.0
C367 C 0.87777 0.11191 0.55307 0.0
C368 C 0.87605 0.09649 0.49752 0.0
C369 C 0.90812 0.1088 0.49044 0.0
C370 C 0.91049 0.11986 0.47035 0.0
C371 C 0.88073 0.11869 0.45692 0.0
C372 C 0.84887 0.10563 0.46337 0.0
C373 C 0.84648 0.0947 0.4836 0.0
C374 C 0.87176 0.06769 0.52108 0.0
C375 C 0.84409 0.05292 0.511 0.0
C376 C 0.84507 0.03356 0.51017 0.0
C377 C 0.87356 0.02864 0.5196 0.0
C378 C 0.90037 0.04346 0.53058 0.0
C379 C 0.89948 0.06275 0.53118 0.0
C380 C 0.8713 0.93871 0.53405 0.0
C381 C 0.83749 0.92587 0.53233 0.0
C382 C 0.82513 0.9121 0.54952 0.0
C383 C 0.84597 0.91119 0.56897 0.0
C384 C 0.87882 0.9248 0.57149 0.0
C385 C 0.89143 0.93836 0.55405 0.0
C386 C 0.88581 0.94081 0.49192 0.0
C387 C 0.91202 0.932 0.48613 0.0
C388 C 0.90903 0.91935 0.46612 0.0
C389 C 0.87949 0.91514 0.45152 0.0
C390 C 0.85406 0.92483 0.45661 0.0
C391 C 0.85723 0.93761 0.4766 0.0
C392 C 0.88221 0.97005 0.51511 0.0
C393 C 0.84949 0.97331 0.51881 0.0
C394 C 0.8465 0.99229 0.52011 0.0
C395 C 0.87606 0.00832 0.51752 0.0
C396 C 0.90846 0.00484 0.51305 0.0
C397 C 0.91142 0.98594 0.51197 0.0
H398 H 0.53511 0.27985 0.09913 0.0
N399 N 0.51919 0.30803 0.07731 0.0
H400 H 0.59022 0.28105 0.11782 0.0
H401 H 0.58034 0.33737 0.07373 0.0
H402 H 0.63569 0.33849 0.09174 0.0
H403 H 0.53566 0.34268 0.10343 0.0
H404 H 0.50319 0.351 0.13744 0.0
H405 H 0.45689 0.28791 0.09265 0.0
H406 H 0.42433 0.29605 0.12707 0.0
H407 H 0.50701 0.28475 0.03849 0.0
H408 H 0.52605 0.34482 0.06217 0.0
H409 H 0.50495 0.29373 0.99712 0.0
H410 H 0.52359 0.35384 0.02108 0.0
H411 H 0.50668 0.30573 0.89782 0.0
H412 H 0.54076 0.28998 0.8718 0.0
H413 H 0.61625 0.34567 0.86212 0.0
H414 H 0.58104 0.36139 0.88762 0.0
H415 H 0.4946 0.33038 0.86262 0.0
H416 H 0.44228 0.33268 0.8446 0.0
H417 H 0.4195 0.36423 0.9072 0.0
H418 H 0.47281 0.36214 0.92575 0.0
H419 H 0.47172 0.31472 0.92827 0.0
H420 H 0.46961 0.3062 0.97006 0.0
H421 H 0.55929 0.35532 0.98476 0.0
N422 N 0.51989 0.34487 0.90779 0.0
H423 H 0.56104 0.36378 0.94291 0.0
C424 C 0.55346 0.30839 0.085 0.0
C425 C 0.55721 0.29253 0.0971 0.0
C426 C 0.58876 0.29324 0.10768 0.0
C427 C 0.61737 0.3099 0.10631 0.0
C428 C 0.61402 0.32554 0.09335 0.0
C429 C 0.58237 0.32483 0.08284 0.0
C430 C 0.49864 0.31456 0.09546 0.0
C431 C 0.51111 0.33254 0.10811 0.0
C432 C 0.49264 0.33724 0.12772 0.0
C433 C 0.46138 0.3241 0.13507 0.0
C434 C 0.44819 0.30654 0.12174 0.0
C435 C 0.46673 0.30185 0.10213 0.0
C436 C 0.51663 0.31399 0.05343 0.0
C437 C 0.51041 0.29983 0.03475 0.0
C438 C 0.50907 0.30498 0.01119 0.0
C439 C 0.51411 0.32451 0.00584 0.0
C440 C 0.51997 0.33871 0.02462 0.0
C441 C 0.52118 0.33352 0.0482 0.0
C442 C 0.54127 0.33484 0.8945 0.0
C443 C 0.53085 0.31451 0.89048 0.0
C444 C 0.55047 0.3055 0.87556 0.0
C445 C 0.58114 0.31656 0.86465 0.0
C446 C 0.59237 0.33675 0.86978 0.0
C447 C 0.5725 0.34576 0.88446 0.0
C448 C 0.4876 0.34521 0.89654 0.0
C449 C 0.47843 0.33736 0.8732 0.0
C450 C 0.44815 0.33872 0.8626 0.0
C451 C 0.42632 0.34826 0.87463 0.0
C452 C 0.43568 0.35664 0.89753 0.0
C453 C 0.46605 0.35527 0.90823 0.0
C454 C 0.51672 0.33991 0.93252 0.0
C455 C 0.49091 0.32364 0.94049 0.0
C456 C 0.48977 0.31877 0.96436 0.0
C457 C 0.51432 0.33007 0.9807 0.0
C458 C 0.53975 0.34647 0.9727 0.0
C459 C 0.54092 0.35128 0.94883 0.0
C460 C 0.26832 0.42281 0.37874 0.0
C461 C 0.2566 0.40494 0.3659 0.0
C462 C 0.24544 0.43385 0.3851 0.0
C463 C 0.21013 0.42691 0.37826 0.0
C464 C 0.19796 0.40865 0.36589 0.0
C465 C 0.22129 0.39785 0.35996 0.0
C466 C 0.25921 0.45313 0.39861 0.0
C467 C 0.16049 0.40077 0.35822 0.0
C468 C 0.13911 0.44609 0.40658 0.0
C469 C 0.13396 0.45831 0.38908 0.0
C470 C 0.165 0.43649 0.40387 0.0
C471 C 0.18599 0.439 0.38306 0.0
C472 C 0.18197 0.45194 0.36583 0.0
C473 C 0.15613 0.46151 0.36911 0.0
C474 C 0.16874 0.42296 0.42276 0.0
C475 C 0.20388 0.45502 0.34338 0.0
H476 H 0.29552 0.42835 0.3835 0.0
H477 H 0.21196 0.38406 0.35006 0.0
H478 H 0.2575 0.46507 0.38732 0.0
H479 H 0.24313 0.45373 0.41479 0.0
H480 H 0.28671 0.45581 0.40407 0.0
H481 H 0.15494 0.38605 0.34937 0.0
H482 H 0.14291 0.40003 0.37387 0.0
H483 H 0.15417 0.4107 0.34563 0.0
H484 H 0.12189 0.44332 0.42194 0.0
H485 H 0.15276 0.4712 0.35573 0.0
H486 H 0.19643 0.42591 0.42778 0.0
H487 H 0.15979 0.40771 0.41558 0.0
H488 H 0.15332 0.42434 0.43906 0.0
H489 H 0.2319 0.45908 0.34788 0.0
H490 H 0.19907 0.4665 0.33252 0.0
H491 H 0.19804 0.44125 0.33234 0.0
C492 C 0.19881 0.75914 0.65413 0.0
C493 C 0.18754 0.77593 0.65636 0.0
C494 C 0.1773 0.74166 0.64418 0.0
C495 C 0.14373 0.74096 0.63618 0.0
C496 C 0.1327 0.75803 0.63749 0.0
C497 C 0.15473 0.77532 0.6476 0.0
C498 C 0.18999 0.72377 0.64311 0.0
C499 C 0.09713 0.75786 0.629 0.0
C500 C 0.09434 0.69794 0.59645 0.0
C501 C 0.07204 0.68632 0.61295 0.0
C502 C 0.11793 0.71575 0.60371 0.0
C503 C 0.11927 0.72206 0.62805 0.0
C504 C 0.09712 0.7103 0.64481 0.0
C505 C 0.07375 0.69263 0.63706 0.0
C506 C 0.14121 0.72789 0.58534 0.0
C507 C 0.09779 0.7165 0.67094 0.0
H508 H 0.22417 0.75947 0.66075 0.0
H509 H 0.14587 0.78824 0.64915 0.0
H510 H 0.17394 0.71288 0.65518 0.0
H511 H 0.18708 0.71698 0.62482 0.0
H512 H 0.21766 0.72706 0.64844 0.0
H513 H 0.0935 0.77263 0.62959 0.0
H514 H 0.09292 0.75163 0.61046 0.0
H515 H 0.07684 0.74847 0.64036 0.0
H516 H 0.09338 0.69308 0.57783 0.0
H517 H 0.05616 0.68396 0.64987 0.0
H518 H 0.16888 0.7305 0.59021 0.0
H519 H 0.13627 0.7423 0.58497 0.0
H520 H 0.13713 0.72087 0.56715 0.0
H521 H 0.12435 0.71901 0.67812 0.0
H522 H 0.07932 0.70551 0.68174 0.0
H523 H 0.09107 0.73043 0.67319 0.0
C524 C 0.84514 0.71868 0.31701 0.0
C525 C 0.86353 0.73056 0.29917 0.0
C526 C 0.85761 0.70409 0.32614 0.0
C527 C 0.88899 0.70119 0.31703 0.0
C528 C 0.90691 0.71262 0.29836 0.0
C529 C 0.89408 0.72725 0.28976 0.0
C530 C 0.83795 0.69234 0.34621 0.0
C531 C 0.94025 0.70981 0.28798 0.0
C532 C 0.94427 0.6812 0.3571 0.0
C533 C 0.9366 0.66168 0.34888 0.0
C534 C 0.9284 0.69402 0.3472 0.0
C535 C 0.90461 0.68733 0.32827 0.0
C536 C 0.89657 0.66767 0.31986 0.0
C537 C 0.91254 0.65504 0.33034 0.0
C538 C 0.93757 0.71486 0.35677 0.0
C539 C 0.87147 0.66005 0.2996 0.0
H540 H 0.82151 0.72115 0.32438 0.0
H541 H 0.90828 0.73627 0.27584 0.0
H542 H 0.83291 0.67657 0.34177 0.0
H543 H 0.85394 0.69569 0.36261 0.0
H544 H 0.81273 0.6954 0.35013 0.0
H545 H 0.94943 0.71875 0.27224 0.0
H546 H 0.9609 0.71386 0.3017 0.0
H547 H 0.93656 0.69431 0.28258 0.0
H548 H 0.96339 0.68664 0.371 0.0
H549 H 0.90617 0.63996 0.324 0.0
H550 H 0.91362 0.71875 0.36232 0.0
H551 H 0.95026 0.72474 0.34257 0.0
H552 H 0.95537 0.71753 0.37227 0.0
H553 H 0.84589 0.6624 0.30412 0.0
H554 H 0.8676 0.64432 0.29537 0.0
H555 H 0.88129 0.66818 0.28337 0.0
C556 C 0.82105 0.32688 0.64605 0.0
C557 C 0.78854 0.31512 0.63817 0.0
C558 C 0.83609 0.34518 0.63675 0.0
C559 C 0.81825 0.35194 0.61908 0.0
C560 C 0.7861 0.33986 0.61033 0.0
C561 C 0.77161 0.32158 0.61998 0.0
C562 C 0.87055 0.35758 0.64646 0.0
C563 C 0.76645 0.34652 0.5914 0.0
C564 C 0.84177 0.40688 0.61744 0.0
C565 C 0.86686 0.41067 0.59919 0.0
C566 C 0.82458 0.38776 0.62339 0.0
C567 C 0.83265 0.37204 0.61076 0.0
C568 C 0.85663 0.37573 0.59152 0.0
C569 C 0.87349 0.395 0.58599 0.0
C570 C 0.799 0.38443 0.64394 0.0
C571 C 0.86589 0.35937 0.5776 0.0
H572 H 0.83445 0.32202 0.66001 0.0
H573 H 0.74651 0.31261 0.61374 0.0
H574 H 0.88941 0.36223 0.63167 0.0
H575 H 0.86706 0.37093 0.65563 0.0
H576 H 0.8819 0.34982 0.6593 0.0
H577 H 0.74318 0.33486 0.58519 0.0
H578 H 0.7579 0.35908 0.59857 0.0
H579 H 0.78361 0.3515 0.57583 0.0
H580 H 0.83621 0.41892 0.6275 0.0
H581 H 0.89316 0.39779 0.57205 0.0
H582 H 0.80952 0.37821 0.6588 0.0
H583 H 0.77412 0.37378 0.63845 0.0
H584 H 0.79357 0.39806 0.65069 0.0
H585 H 0.88071 0.35251 0.58915 0.0
H586 H 0.88192 0.3645 0.56156 0.0
H587 H 0.84201 0.34796 0.57192 0.0
C588 C 0.31247 0.2672 0.38097 0.0
C589 C 0.32505 0.28729 0.386 0.0
C590 C 0.32207 0.2539 0.39496 0.0
C591 C 0.34438 0.26084 0.41464 0.0
C592 C 0.35692 0.2811 0.41993 0.0
C593 C 0.3473 0.29407 0.40545 0.0
C594 C 0.30853 0.23242 0.3886 0.0
C595 C 0.38042 0.28906 0.44096 0.0
C596 C 0.34511 0.22765 0.46517 0.0
C597 C 0.37651 0.22311 0.46092 0.0
C598 C 0.33396 0.2396 0.44997 0.0
C599 C 0.35454 0.24699 0.42988 0.0
C600 C 0.38564 0.24186 0.42501 0.0
C601 C 0.39639 0.23009 0.44071 0.0
C602 C 0.30086 0.24491 0.45593 0.0
C603 C 0.408 0.2492 0.40357 0.0
H604 H 0.29542 0.26185 0.36588 0.0
H605 H 0.35704 0.30957 0.40949 0.0
H606 H 0.33062 0.22621 0.38527 0.0
H607 H 0.29326 0.22477 0.40372 0.0
H608 H 0.29179 0.2294 0.37253 0.0
H609 H 0.38749 0.30518 0.44285 0.0
H610 H 0.36741 0.28296 0.45765 0.0
H611 H 0.40465 0.28461 0.43898 0.0
H612 H 0.32992 0.2225 0.48096 0.0
H613 H 0.42058 0.22649 0.43732 0.0
H614 H 0.28307 0.24138 0.44044 0.0
H615 H 0.307 0.26081 0.45988 0.0
H616 H 0.28703 0.23724 0.47156 0.0
H617 H 0.39213 0.24579 0.38712 0.0
H618 H 0.43005 0.24278 0.40139 0.0
H619 H 0.41863 0.26524 0.40538 0.0
C620 C 0.30761 0.83041 0.76441 0.0
C621 C 0.28703 0.84327 0.7664 0.0
C622 C 0.32574 0.827 0.78404 0.0
C623 C 0.32352 0.83679 0.80624 0.0
C624 C 0.30399 0.85039 0.80819 0.0
C625 C 0.28584 0.85343 0.78825 0.0
C626 C 0.34627 0.81236 0.78122 0.0
C627 C 0.30142 0.86129 0.8315 0.0
C628 C 0.33871 0.80993 0.8596 0.0
C629 C 0.37413 0.81872 0.86406 0.0
C630 C 0.32153 0.81624 0.84147 0.0
C631 C 0.34013 0.83184 0.82757 0.0
C632 C 0.37539 0.84144 0.83279 0.0
C633 C 0.39202 0.83472 0.85091 0.0
C634 C 0.28388 0.80562 0.83648 0.0
C635 C 0.39601 0.85822 0.81849 0.0
H636 H 0.30883 0.82252 0.74762 0.0
H637 H 0.27015 0.86345 0.78995 0.0
H638 H 0.37349 0.81905 0.78704 0.0
H639 H 0.33483 0.79998 0.79275 0.0
H640 H 0.34659 0.80662 0.76251 0.0
H641 H 0.28772 0.87256 0.82956 0.0
H642 H 0.28714 0.85095 0.8448 0.0
H643 H 0.32775 0.86837 0.83875 0.0
H644 H 0.32454 0.79781 0.86999 0.0
H645 H 0.41946 0.84149 0.85406 0.0
H646 H 0.28171 0.79804 0.81863 0.0
H647 H 0.26821 0.81607 0.83616 0.0
H648 H 0.27248 0.79471 0.84995 0.0
H649 H 0.40039 0.85284 0.80018 0.0
H650 H 0.4217 0.8656 0.8266 0.0
H651 H 0.38136 0.86906 0.81689 0.0
C652 C 0.80966 0.8233 0.36256 0.0
C653 C 0.8334 0.8214 0.34455 0.0
C654 C 0.8181 0.83878 0.37965 0.0
C655 C 0.85113 0.85269 0.37881 0.0
C656 C 0.87539 0.85075 0.36088 0.0
C657 C 0.86622 0.83515 0.34394 0.0
C658 C 0.79151 0.84034 0.3985 0.0
C659 C 0.91095 0.86524 0.35953 0.0
C660 C 0.85959 0.90183 0.41032 0.0
C661 C 0.87407 0.89967 0.4322 0.0
C662 C 0.85255 0.88678 0.39259 0.0
C663 C 0.86024 0.86918 0.39682 0.0
C664 C 0.87546 0.86705 0.41867 0.0
C665 C 0.88206 0.88227 0.4361 0.0
C666 C 0.83629 0.88958 0.3695 0.0
C667 C 0.88401 0.8485 0.42387 0.0
H668 H 0.78421 0.81279 0.36318 0.0
H669 H 0.88475 0.83382 0.33011 0.0
H670 H 0.80231 0.84023 0.41652 0.0
H671 H 0.78522 0.85434 0.3973 0.0
H672 H 0.76703 0.8283 0.39674 0.0
H673 H 0.92695 0.86157 0.34463 0.0
H674 H 0.90832 0.87998 0.3571 0.0
H675 H 0.92502 0.86584 0.37649 0.0
H676 H 0.85368 0.91529 0.40707 0.0
H677 H 0.89263 0.88031 0.4531 0.0
H678 H 0.81044 0.87874 0.36743 0.0
H679 H 0.85262 0.88713 0.35416 0.0
H680 H 0.83293 0.90436 0.36867 0.0
H681 H 0.85976 0.83629 0.42423 0.0
H682 H 0.89742 0.84955 0.44121 0.0
H683 H 0.90086 0.84487 0.40954 0.0
C684 C 0.64465 0.26325 0.75282 0.0
C685 C 0.68093 0.2671 0.75171 0.0
C686 C 0.62832 0.26932 0.77285 0.0
C687 C 0.64878 0.27955 0.79216 0.0
C688 C 0.68517 0.2824 0.79179 0.0
C689 C 0.70081 0.27607 0.7716 0.0
C690 C 0.58936 0.26578 0.77271 0.0
C691 C 0.70789 0.29324 0.81203 0.0
C692 C 0.61353 0.31687 0.82599 0.0
C693 C 0.60005 0.30729 0.84679 0.0
C694 C 0.62996 0.3081 0.80836 0.0
C695 C 0.63265 0.28914 0.81137 0.0
C696 C 0.6194 0.27939 0.83236 0.0
C697 C 0.60339 0.28862 0.84989 0.0
C698 C 0.64392 0.31903 0.78627 0.0
C699 C 0.62171 0.25914 0.83613 0.0
H700 H 0.62905 0.25617 0.73764 0.0
H701 H 0.72885 0.27902 0.77099 0.0
H702 H 0.57773 0.2597 0.78976 0.0
H703 H 0.58329 0.27978 0.77096 0.0
H704 H 0.57683 0.25567 0.75776 0.0
H705 H 0.73496 0.29222 0.81033 0.0
H706 H 0.70867 0.30881 0.81225 0.0
H707 H 0.69701 0.28755 0.82942 0.0
H708 H 0.61048 0.3311 0.82315 0.0
H709 H 0.59344 0.28119 0.86601 0.0
H710 H 0.6301 0.31103 0.7703 0.0
H711 H 0.67192 0.32011 0.78384 0.0
H712 H 0.6409 0.33395 0.78708 0.0
H713 H 0.60735 0.24898 0.82183 0.0
H714 H 0.61081 0.25371 0.85367 0.0
H715 H 0.6492 0.25887 0.835 0.0
C716 C 0.26518 0.91081 0.65791 0.0
C717 C 0.24948 0.91128 0.68039 0.0
C718 C 0.28085 0.92801 0.64624 0.0
C719 C 0.28119 0.94614 0.65743 0.0
C720 C 0.26503 0.94672 0.67999 0.0
C721 C 0.2492 0.92927 0.69115 0.0
C722 C 0.29753 0.92678 0.62207 0.0
C723 C 0.26519 0.96579 0.69259 0.0
C724 C 0.35394 0.98924 0.63761 0.0
C725 C 0.33691 0.9977 0.62146 0.0
C726 C 0.33585 0.97286 0.64998 0.0
C727 C 0.29987 0.96449 0.64592 0.0
C728 C 0.28228 0.97315 0.63009 0.0
C729 C 0.30096 0.98971 0.61814 0.0
C730 C 0.35553 0.96414 0.66686 0.0
C731 C 0.24393 0.9646 0.62525 0.0
H732 H 0.26533 0.89696 0.64941 0.0
H733 H 0.23717 0.92976 0.70854 0.0
H734 H 0.28669 0.93453 0.60897 0.0
H735 H 0.32589 0.93402 0.62314 0.0
H736 H 0.29354 0.91152 0.61529 0.0
H737 H 0.2503 0.96373 0.70963 0.0
H738 H 0.29237 0.97444 0.69644 0.0
H739 H 0.25393 0.97445 0.68094 0.0
H740 H 0.38178 0.99501 0.64002 0.0
H741 H 0.28746 0.99627 0.60597 0.0
H742 H 0.3557 0.94946 0.65989 0.0
H743 H 0.34245 0.96241 0.68455 0.0
H744 H 0.38287 0.97317 0.6693 0.0
H745 H 0.23916 0.94978 0.61688 0.0
H746 H 0.23378 0.97355 0.61326 0.0
H747 H 0.22896 0.9632 0.64222 0.0
C748 C 0.7134 0.76791 0.2177 0.0
C749 C 0.73378 0.78504 0.22917 0.0
C750 C 0.69224 0.76863 0.19831 0.0
C751 C 0.6911 0.78689 0.19052 0.0
C752 C 0.71271 0.80418 0.2014 0.0
C753 C 0.73395 0.80304 0.22047 0.0
C754 C 0.67003 0.74989 0.18683 0.0
C755 C 0.71203 0.82396 0.19379 0.0
C756 C 0.65027 0.79386 0.13232 0.0
C757 C 0.61771 0.79529 0.1403 0.0
C758 C 0.67392 0.7901 0.14825 0.0
C759 C 0.66495 0.78813 0.17272 0.0
C760 C 0.63171 0.789 0.18068 0.0
C761 C 0.60846 0.79247 0.16435 0.0
C762 C 0.70889 0.78891 0.13906 0.0
C763 C 0.62128 0.78726 0.20667 0.0
H764 H 0.71337 0.75394 0.22419 0.0
H765 H 0.74969 0.81635 0.22916 0.0
H766 H 0.64229 0.74812 0.19137 0.0
H767 H 0.67253 0.75021 0.16712 0.0
H768 H 0.67715 0.73703 0.19285 0.0
H769 H 0.73202 0.83595 0.20304 0.0
H770 H 0.71638 0.82508 0.17428 0.0
H771 H 0.68606 0.826 0.19777 0.0
H772 H 0.65737 0.79593 0.1137 0.0
H773 H 0.58352 0.79386 0.17065 0.0
H774 H 0.71456 0.77578 0.14551 0.0
H775 H 0.72957 0.80172 0.146 0.0
H776 H 0.7103 0.78848 0.11927 0.0
H777 H 0.62474 0.7737 0.21348 0.0
H778 H 0.59382 0.78724 0.20971 0.0
H779 H 0.63832 0.79961 0.21733 0.0
C780 C 0.72905 0.19822 0.61281 0.0
C781 C 0.74183 0.20746 0.63471 0.0
C782 C 0.74099 0.18299 0.60279 0.0
C783 C 0.76613 0.17677 0.61504 0.0
C784 C 0.77832 0.18563 0.6375 0.0
C785 C 0.76613 0.20092 0.64702 0.0
C786 C 0.72752 0.174 0.57872 0.0
C787 C 0.80496 0.17932 0.65117 0.0
C788 C 0.78118 0.12829 0.59541 0.0
C789 C 0.811 0.13434 0.58106 0.0
C790 C 0.76637 0.14193 0.60681 0.0
C791 C 0.78157 0.16202 0.60354 0.0
C792 C 0.81158 0.16816 0.589 0.0
C793 C 0.82592 0.15427 0.578 0.0
C794 C 0.73451 0.13486 0.62232 0.0
C795 C 0.82838 0.18941 0.58484 0.0
H796 H 0.71023 0.20315 0.60319 0.0
H797 H 0.77597 0.2079 0.66403 0.0
H798 H 0.74913 0.17702 0.5655 0.0
H799 H 0.71737 0.15798 0.57963 0.0
H800 H 0.70655 0.17969 0.57217 0.0
H801 H 0.80982 0.18665 0.66916 0.0
H802 H 0.79624 0.16337 0.65319 0.0
H803 H 0.82989 0.18268 0.64111 0.0
H804 H 0.76965 0.11291 0.59788 0.0
H805 H 0.84856 0.15902 0.56655 0.0
H806 H 0.7127 0.13955 0.61527 0.0
H807 H 0.7398 0.14143 0.64065 0.0
H808 H 0.72613 0.11879 0.6233 0.0
H809 H 0.80944 0.19573 0.57656 0.0
H810 H 0.85169 0.19177 0.57309 0.0
H811 H 0.83625 0.19752 0.6021 0.0
C812 C 0.36603 0.32262 0.26089 0.0
C813 C 0.3596 0.34033 0.26773 0.0
C814 C 0.38263 0.32034 0.23916 0.0
C815 C 0.39296 0.33611 0.22387 0.0
C816 C 0.38671 0.35403 0.23069 0.0
C817 C 0.37016 0.35594 0.25255 0.0
C818 C 0.38904 0.30102 0.23254 0.0
C819 C 0.39736 0.37117 0.21482 0.0
C820 C 0.46338 0.33522 0.17806 0.0
C821 C 0.4438 0.32812 0.15744 0.0
C822 C 0.44719 0.33812 0.19973 0.0
C823 C 0.41053 0.33384 0.2008 0.0
C824 C 0.39062 0.32698 0.17997 0.0
C825 C 0.40751 0.32415 0.15853 0.0
C826 C 0.46928 0.34538 0.22159 0.0
C827 C 0.35147 0.32239 0.18041 0.0
H828 H 0.35801 0.31048 0.27249 0.0
H829 H 0.36527 0.36967 0.25764 0.0
H830 H 0.37579 0.29497 0.21554 0.0
H831 H 0.41726 0.30302 0.22967 0.0
H832 H 0.37958 0.29024 0.24647 0.0
H833 H 0.39056 0.3841 0.22271 0.0
H834 H 0.42583 0.37517 0.21152 0.0
H835 H 0.38446 0.36721 0.19725 0.0
H836 H 0.49139 0.33802 0.17742 0.0
H837 H 0.39231 0.31884 0.14259 0.0
H838 H 0.46243 0.33432 0.23536 0.0
H839 H 0.46407 0.35876 0.22938 0.0
H840 H 0.49753 0.3486 0.21758 0.0
H841 H 0.34032 0.31065 0.19288 0.0
H842 H 0.3399 0.31772 0.16252 0.0
H843 H 0.34369 0.33535 0.18704 0.0
C844 C 0.7447 0.70201 0.66487 0.0
C845 C 0.76394 0.71755 0.67958 0.0
C846 C 0.75986 0.688 0.65496 0.0
C847 C 0.79516 0.6897 0.65969 0.0
C848 C 0.81454 0.7052 0.67479 0.0
C849 C 0.79866 0.71886 0.68464 0.0
C850 C 0.7383 0.67157 0.63914 0.0
C851 C 0.85235 0.70761 0.6801 0.0
C852 C 0.8338 0.6474 0.64977 0.0
C853 C 0.85139 0.65181 0.628 0.0
C854 C 0.81417 0.65917 0.65988 0.0
C855 C 0.81249 0.67585 0.64806 0.0
C856 C 0.82934 0.68003 0.62573 0.0
C857 C 0.84848 0.66792 0.61595 0.0
C858 C 0.79618 0.65412 0.68357 0.0
C859 C 0.82847 0.69777 0.61266 0.0
H860 H 0.71782 0.70085 0.66097 0.0
H861 H 0.81373 0.73083 0.69596 0.0
H862 H 0.74924 0.67265 0.62078 0.0
H863 H 0.73919 0.6574 0.64569 0.0
H864 H 0.71071 0.67167 0.63834 0.0
H865 H 0.86351 0.72018 0.69266 0.0
H866 H 0.85529 0.69428 0.68789 0.0
H867 H 0.86776 0.70975 0.66331 0.0
H868 H 0.8358 0.63488 0.65905 0.0
H869 H 0.86245 0.67156 0.5993 0.0
H870 H 0.76846 0.65385 0.68247 0.0
H871 H 0.80846 0.66542 0.69739 0.0
H872 H 0.79753 0.6398 0.68943 0.0
H873 H 0.80122 0.69802 0.6103 0.0
H874 H 0.84121 0.69833 0.59485 0.0
H875 H 0.84193 0.71109 0.62336 0.0
C876 C 0.91008 0.31661 0.33127 0.0
C877 C 0.8806 0.30772 0.31746 0.0
C878 C 0.91669 0.33592 0.34005 0.0
C879 C 0.89329 0.34664 0.33487 0.0
C880 C 0.86313 0.33765 0.32132 0.0
C881 C 0.85697 0.31822 0.313 0.0
C882 C 0.949 0.34492 0.35464 0.0
C883 C 0.83755 0.3486 0.31547 0.0
C884 C 0.90026 0.39189 0.37461 0.0
C885 C 0.92274 0.40636 0.36122 0.0
C886 C 0.88943 0.37246 0.36593 0.0
C887 C 0.90104 0.3674 0.34321 0.0
C888 C 0.92222 0.38206 0.3291 0.0
C889 C 0.93298 0.40132 0.33832 0.0
C890 C 0.86686 0.35723 0.38153 0.0
C891 C 0.9349 0.37729 0.30469 0.0
H892 H 0.92831 0.30853 0.33497 0.0
H893 H 0.8333 0.31121 0.30339 0.0
H894 H 0.9662 0.35743 0.34537 0.0
H895 H 0.94186 0.35058 0.37216 0.0
H896 H 0.96391 0.33442 0.35778 0.0
H897 H 0.81543 0.33954 0.30465 0.0
H898 H 0.82713 0.3538 0.33214 0.0
H899 H 0.8509 0.36162 0.30544 0.0
H900 H 0.89177 0.39568 0.39216 0.0
H901 H 0.95076 0.41225 0.32793 0.0
H902 H 0.88178 0.3473 0.38696 0.0
H903 H 0.84385 0.34828 0.37151 0.0
H904 H 0.85778 0.36371 0.39788 0.0
H905 H 0.95312 0.36837 0.30644 0.0
H906 H 0.94851 0.39054 0.29512 0.0
H907 H 0.91277 0.36858 0.29366 0.0
C908 C 0.15848 0.41693 0.70519 0.0
C909 C 0.13635 0.39816 0.70798 0.0
C910 C 0.14716 0.43078 0.69332 0.0
C911 C 0.11355 0.42538 0.68314 0.0
C912 C 0.09118 0.40639 0.68596 0.0
C913 C 0.10264 0.39314 0.69878 0.0
C914 C 0.17114 0.45112 0.69159 0.0
C915 C 0.05556 0.39985 0.67476 0.0
C916 C 0.06431 0.46017 0.66488 0.0
C917 C 0.06999 0.46047 0.64007 0.0
C918 C 0.08053 0.45002 0.67941 0.0
C919 C 0.10183 0.43921 0.66885 0.0
C920 C 0.10902 0.44013 0.64408 0.0
C921 C 0.09372 0.45112 0.63013 0.0
C922 C 0.07333 0.45004 0.70592 0.0
C923 C 0.13101 0.42848 0.632 0.0
H924 H 0.18452 0.42079 0.71246 0.0
H925 H 0.0857 0.37854 0.70073 0.0
H926 H 0.17877 0.45401 0.67273 0.0
H927 H 0.15751 0.46191 0.69785 0.0
H928 H 0.19512 0.45345 0.70227 0.0
H929 H 0.0418 0.38443 0.67809 0.0
H930 H 0.03933 0.40903 0.6819 0.0
H931 H 0.05792 0.40158 0.6552 0.0
H932 H 0.04592 0.46708 0.67299 0.0
H933 H 0.09945 0.45174 0.61121 0.0
H934 H 0.09765 0.45193 0.71604 0.0
H935 H 0.05509 0.43589 0.71054 0.0
H936 H 0.06158 0.46175 0.71186 0.0
H937 H 0.15651 0.43157 0.64094 0.0
H938 H 0.1356 0.43156 0.61282 0.0
H939 H 0.11781 0.41274 0.63347 0.0
C940 C 0.27922 0.75154 0.34208 0.0
C941 C 0.31018 0.7535 0.35444 0.0
C942 C 0.24978 0.73574 0.34561 0.0
C943 C 0.25134 0.72153 0.36184 0.0
C944 C 0.28268 0.72321 0.37402 0.0
C945 C 0.31171 0.73918 0.37019 0.0
C946 C 0.21681 0.73443 0.33227 0.0
C947 C 0.28535 0.70831 0.39141 0.0
C948 C 0.16588 0.69226 0.38863 0.0
C949 C 0.15847 0.67496 0.3745 0.0
C950 C 0.19624 0.70742 0.3849 0.0
C951 C 0.21981 0.70523 0.3666 0.0
C952 C 0.21283 0.68767 0.35256 0.0
C953 C 0.18222 0.67274 0.35667 0.0
C954 C 0.20272 0.72595 0.40021 0.0
C955 C 0.23745 0.68475 0.33298 0.0
H956 H 0.27779 0.76251 0.32986 0.0
H957 H 0.33553 0.74054 0.37978 0.0
H958 H 0.20816 0.72033 0.32201 0.0
H959 H 0.19572 0.73502 0.34513 0.0
H960 H 0.22016 0.74636 0.31977 0.0
H961 H 0.31197 0.71133 0.39876 0.0
H962 H 0.26689 0.7081 0.40645 0.0
H963 H 0.27801 0.69359 0.38257 0.0
H964 H 0.14741 0.69418 0.40221 0.0
H965 H 0.17682 0.65932 0.34587 0.0
H966 H 0.20344 0.7383 0.38888 0.0
H967 H 0.22838 0.72922 0.40902 0.0
H968 H 0.18237 0.72511 0.41416 0.0
H969 H 0.23967 0.69569 0.3193 0.0
H970 H 0.22875 0.67002 0.32414 0.0
H971 H 0.26382 0.68695 0.34033 0.0
C972 C 0.8177 0.82564 0.65965 0.0
C973 C 0.7824 0.81745 0.66495 0.0
C974 C 0.82834 0.84084 0.64386 0.0
C975 C 0.80312 0.84829 0.6336 0.0
C976 C 0.76745 0.84014 0.63901 0.0
C977 C 0.75749 0.82466 0.6544 0.0
C978 C 0.86655 0.84885 0.63807 0.0
C979 C 0.73985 0.84794 0.62876 0.0
C980 C 0.83371 0.89923 0.61025 0.0
C981 C 0.83444 0.89524 0.58562 0.0
C982 C 0.82315 0.88407 0.62611 0.0
C983 C 0.81398 0.86453 0.61706 0.0
C984 C 0.81507 0.86048 0.59218 0.0
C985 C 0.82494 0.87592 0.57673 0.0
C986 C 0.82159 0.88894 0.65249 0.0
C987 C 0.8062 0.83987 0.58188 0.0
H988 H 0.83703 0.82004 0.66768 0.0
H989 H 0.73018 0.8185 0.65861 0.0
H990 H 0.87076 0.84769 0.61852 0.0
H991 H 0.87567 0.86449 0.64361 0.0
H992 H 0.88276 0.8411 0.64705 0.0
H993 H 0.71333 0.84027 0.63516 0.0
H994 H 0.74528 0.86366 0.63368 0.0
H995 H 0.7403 0.84646 0.60901 0.0
H996 H 0.84099 0.91421 0.61705 0.0
H997 H 0.82596 0.87289 0.55766 0.0
H998 H 0.8395 0.88279 0.66221 0.0
H999 H 0.79497 0.88228 0.65944 0.0
H1000 H 0.82872 0.90487 0.65656 0.0
H1001 H 0.82332 0.83208 0.58968 0.0
H1002 H 0.8091 0.83923 0.56216 0.0
H1003 H 0.77903 0.83195 0.58657 0.0
C1004 C 0.79265 0.31689 0.17894 0.0
C1005 C 0.78206 0.31088 0.202 0.0
C1006 C 0.76826 0.318 0.16185 0.0
C1007 C 0.73249 0.31287 0.16796 0.0
C1008 C 0.72174 0.30715 0.19133 0.0
C1009 C 0.74664 0.30628 0.20807 0.0
C1010 C 0.78067 0.32434 0.13716 0.0
C1011 C 0.6838 0.30155 0.19853 0.0
C1012 C 0.66608 0.32859 0.13293 0.0
C1013 C 0.64958 0.3114 0.11984 0.0
C1014 C 0.69422 0.32958 0.14787 0.0
C1015 C 0.70596 0.31293 0.14988 0.0
C1016 C 0.69038 0.2958 0.13598 0.0
C1017 C 0.66245 0.29526 0.12107 0.0
C1018 C 0.71029 0.34815 0.16231 0.0
C1019 C 0.70223 0.27775 0.13762 0.0
H1020 H 0.81998 0.32053 0.17413 0.0
H1021 H 0.7382 0.30164 0.22584 0.0
H1022 H 0.76977 0.31232 0.12386 0.0
H1023 H 0.77121 0.33678 0.13252 0.0
H1024 H 0.80948 0.32867 0.13557 0.0
H1025 H 0.67983 0.29782 0.21755 0.0
H1026 H 0.67255 0.31366 0.19552 0.0
H1027 H 0.66908 0.28884 0.18732 0.0
H1028 H 0.65607 0.34107 0.13232 0.0
H1029 H 0.65021 0.28204 0.1107 0.0
H1030 H 0.73903 0.35241 0.16047 0.0
H1031 H 0.70402 0.34581 0.18148 0.0
H1032 H 0.70069 0.36035 0.15685 0.0
H1033 H 0.73074 0.28125 0.13473 0.0
H1034 H 0.68909 0.26609 0.1244 0.0
H1035 H 0.69663 0.27209 0.15575 0.0
C1036 C 0.35387 0.29959 0.69101 0.0
C1037 C 0.32506 0.29101 0.70536 0.0
C1038 C 0.3685 0.28819 0.67537 0.0
C1039 C 0.3538 0.26777 0.67395 0.0
C1040 C 0.32584 0.25897 0.68924 0.0
C1041 C 0.31189 0.2707 0.70483 0.0
C1042 C 0.39859 0.29809 0.65954 0.0
C1043 C 0.30937 0.23725 0.6882 0.0
C1044 C 0.35876 0.24148 0.61445 0.0
C1045 C 0.38464 0.23238 0.61849 0.0
C1046 C 0.34868 0.25306 0.63234 0.0
C1047 C 0.36513 0.25584 0.65482 0.0
C1048 C 0.39171 0.24701 0.65897 0.0
C1049 C 0.40111 0.23532 0.64075 0.0
C1050 C 0.32021 0.26223 0.62719 0.0
C1051 C 0.40996 0.24977 0.68268 0.0
H1052 H 0.36443 0.31527 0.69147 0.0
H1053 H 0.28974 0.26393 0.71594 0.0
H1054 H 0.41959 0.29088 0.66022 0.0
H1055 H 0.38976 0.29684 0.64078 0.0
H1056 H 0.40954 0.31374 0.66471 0.0
H1057 H 0.29006 0.23253 0.70275 0.0
H1058 H 0.29604 0.23271 0.67085 0.0
H1059 H 0.32956 0.22952 0.68936 0.0
H1060 H 0.34647 0.23967 0.59714 0.0
H1061 H 0.42097 0.22824 0.64406 0.0
H1062 H 0.33012 0.27827 0.62963 0.0
H1063 H 0.29832 0.25727 0.63995 0.0
H1064 H 0.31002 0.25859 0.60877 0.0
H1065 H 0.42137 0.26549 0.68717 0.0
H1066 H 0.43097 0.24251 0.68275 0.0
H1067 H 0.39094 0.24381 0.69697 0.0
C1068 C 0.42531 0.82888 0.29235 0.0
C1069 C 0.43041 0.84722 0.3038 0.0
C1070 C 0.4255 0.82676 0.26735 0.0
C1071 C 0.43086 0.84339 0.25358 0.0
C1072 C 0.43308 0.86167 0.26509 0.0
C1073 C 0.43316 0.86339 0.29008 0.0
C1074 C 0.42326 0.80703 0.25582 0.0
C1075 C 0.43833 0.87971 0.25109 0.0
C1076 C 0.48539 0.84484 0.19752 0.0
C1077 C 0.46033 0.84071 0.1795 0.0
C1078 C 0.47596 0.84567 0.22158 0.0
C1079 C 0.44048 0.84238 0.22791 0.0
C1080 C 0.41492 0.83824 0.20984 0.0
C1081 C 0.42514 0.83731 0.18577 0.0
C1082 C 0.50408 0.84992 0.24026 0.0
C1083 C 0.37691 0.83483 0.21595 0.0
H1084 H 0.42397 0.81641 0.30282 0.0
H1085 H 0.43697 0.87759 0.29892 0.0
H1086 H 0.4061 0.80409 0.24001 0.0
H1087 H 0.44953 0.8067 0.24959 0.0
H1088 H 0.41336 0.7952 0.26842 0.0
H1089 H 0.43357 0.89193 0.26221 0.0
H1090 H 0.46547 0.88434 0.24428 0.0
H1091 H 0.42082 0.87676 0.23546 0.0
H1092 H 0.51254 0.84703 0.1928 0.0
H1093 H 0.40572 0.83409 0.17186 0.0
H1094 H 0.49887 0.83785 0.25268 0.0
H1095 H 0.50414 0.86331 0.25096 0.0
H1096 H 0.53039 0.85189 0.23233 0.0
H1097 H 0.36804 0.82229 0.2276 0.0
H1098 H 0.36031 0.83195 0.19982 0.0
H1099 H 0.37305 0.84771 0.22608 0.0
C1100 C 0.85111 0.19433 0.3668 0.0
C1101 C 0.8784 0.20048 0.35038 0.0
C1102 C 0.85174 0.18055 0.38354 0.0
C1103 C 0.88014 0.17254 0.38365 0.0
C1104 C 0.9075 0.17844 0.36686 0.0
C1105 C 0.90642 0.19244 0.35052 0.0
C1106 C 0.82229 0.17479 0.40136 0.0
C1107 C 0.938 0.17004 0.36627 0.0
C1108 C 0.89842 0.1521 0.44145 0.0
C1109 C 0.88226 0.13218 0.43749 0.0
C1110 C 0.89821 0.16536 0.42397 0.0
C1111 C 0.88174 0.15849 0.4019 0.0
C1112 C 0.86603 0.13833 0.39758 0.0
C1113 C 0.86625 0.12541 0.41553 0.0
C1114 C 0.91485 0.18677 0.42936 0.0
C1115 C 0.84863 0.13046 0.37414 0.0
H1116 H 0.82941 0.20051 0.36683 0.0
H1117 H 0.92749 0.19704 0.33778 0.0
H1118 H 0.81008 0.15885 0.39996 0.0
H1119 H 0.83251 0.17845 0.41974 0.0
H1120 H 0.80191 0.18219 0.3987 0.0
H1121 H 0.9564 0.17555 0.35145 0.0
H1122 H 0.95232 0.17374 0.38335 0.0
H1123 H 0.92866 0.15396 0.36429 0.0
H1124 H 0.91034 0.15741 0.45856 0.0
H1125 H 0.85392 0.10999 0.41242 0.0
H1126 H 0.89495 0.19474 0.42863 0.0
H1127 H 0.93492 0.19276 0.41571 0.0
H1128 H 0.92717 0.18968 0.44722 0.0
H1129 H 0.82629 0.13634 0.37153 0.0
H1130 H 0.83905 0.11433 0.37321 0.0
H1131 H 0.8671 0.13523 0.35916 0.0
C1132 C 0.25237 0.35341 0.80867 0.0
C1133 C 0.26218 0.35752 0.78496 0.0
C1134 C 0.27724 0.35288 0.82571 0.0
C1135 C 0.31262 0.35669 0.8188 0.0
C1136 C 0.32276 0.36181 0.79514 0.0
C1137 C 0.29739 0.36223 0.77855 0.0
C1138 C 0.2655 0.34745 0.85079 0.0
C1139 C 0.36025 0.36616 0.78709 0.0
C1140 C 0.38665 0.36774 0.86319 0.0
C1141 C 0.39466 0.34995 0.86271 0.0
C1142 C 0.35891 0.36996 0.84982 0.0
C1143 C 0.33887 0.35403 0.83562 0.0
C1144 C 0.34586 0.33582 0.83594 0.0
C1145 C 0.37361 0.334 0.84952 0.0
C1146 C 0.35213 0.38958 0.84999 0.0
C1147 C 0.32501 0.31846 0.82111 0.0
H1148 H 0.22511 0.34988 0.81368 0.0
H1149 H 0.30513 0.36612 0.76043 0.0
H1150 H 0.26903 0.33305 0.85421 0.0
H1151 H 0.2816 0.35811 0.86393 0.0
H1152 H 0.23773 0.34671 0.85389 0.0
H1153 H 0.36404 0.37098 0.76847 0.0
H1154 H 0.37709 0.37763 0.79899 0.0
H1155 H 0.36913 0.35295 0.78821 0.0
H1156 H 0.40295 0.38015 0.87322 0.0
H1157 H 0.37929 0.32012 0.84943 0.0
H1158 H 0.32409 0.38806 0.85303 0.0
H1159 H 0.3592 0.39601 0.83237 0.0
H1160 H 0.36737 0.39981 0.86393 0.0
H1161 H 0.29681 0.31589 0.82472 0.0
H1162 H 0.33215 0.30501 0.82466 0.0
H1163 H 0.32942 0.32134 0.80189 0.0
C1164 C 0.48502 0.9384 0.40755 0.0
C1165 C 0.47035 0.91978 0.41606 0.0
C1166 C 0.48246 0.95502 0.42079 0.0
C1167 C 0.46575 0.95295 0.44336 0.0
C1168 C 0.45096 0.93416 0.45204 0.0
C1169 C 0.45301 0.91779 0.43811 0.0
C1170 C 0.49763 0.97478 0.41066 0.0
C1171 C 0.43361 0.93137 0.47626 0.0
C1172 C 0.48853 0.99504 0.48932 0.0
C1173 C 0.45848 0.00138 0.48949 0.0
C1174 C 0.49146 0.97948 0.47416 0.0
C1175 C 0.46417 0.97039 0.45821 0.0
C1176 C 0.43459 0.97731 0.45736 0.0
C1177 C 0.43186 0.99251 0.47322 0.0
C1178 C 0.52322 0.97231 0.47584 0.0
C1179 C 0.4053 0.96828 0.44019 0.0
H1180 H 0.49822 0.93996 0.3904 0.0
H1181 H 0.44188 0.90341 0.44481 0.0
H1182 H 0.4774 0.98254 0.41015 0.0
H1183 H 0.51878 0.98371 0.42231 0.0
H1184 H 0.50829 0.97383 0.39237 0.0
H1185 H 0.42383 0.9158 0.48051 0.0
H1186 H 0.4523 0.93911 0.49025 0.0
H1187 H 0.41145 0.93773 0.47707 0.0
H1188 H 0.50966 0.00203 0.50133 0.0
H1189 H 0.40825 0.99698 0.47333 0.0
H1190 H 0.5361 0.9725 0.45815 0.0
H1191 H 0.51533 0.95703 0.48134 0.0
H1192 H 0.54245 0.98121 0.48885 0.0
H1193 H 0.41571 0.96731 0.42185 0.0
H1194 H 0.38595 0.97667 0.43997 0.0
H1195 H 0.39173 0.95327 0.44528 0.0
C1196 C 0.66696 0.74407 0.78721 0.0
C1197 C 0.69762 0.75943 0.78573 0.0
C1198 C 0.64136 0.7447 0.80442 0.0
C1199 C 0.6467 0.76101 0.82058 0.0
C1200 C 0.67852 0.77595 0.82013 0.0
C1201 C 0.70357 0.775 0.80268 0.0
C1202 C 0.60778 0.72846 0.80438 0.0
C1203 C 0.68536 0.79349 0.8372 0.0
C1204 C 0.5686 0.77669 0.84277 0.0
C1205 C 0.56463 0.77025 0.86612 0.0
C1206 C 0.59482 0.77344 0.8277 0.0
C1207 C 0.61775 0.76352 0.83618 0.0
C1208 C 0.61358 0.75669 0.85961 0.0
C1209 C 0.58696 0.76009 0.87431 0.0
C1210 C 0.59822 0.78084 0.80276 0.0
C1211 C 0.63765 0.74615 0.86927 0.0
H1212 H 0.66219 0.73195 0.77425 0.0
H1213 H 0.72735 0.78684 0.80183 0.0
H1214 H 0.60091 0.72347 0.82271 0.0
H1215 H 0.58638 0.73387 0.79804 0.0
H1216 H 0.60927 0.71583 0.79263 0.0
H1217 H 0.71273 0.80274 0.83625 0.0
H1218 H 0.668 0.80243 0.83293 0.0
H1219 H 0.6795 0.78893 0.85579 0.0
H1220 H 0.55102 0.78425 0.83623 0.0
H1221 H 0.5841 0.7552 0.8924 0.0
H1222 H 0.5968 0.7687 0.78948 0.0
H1223 H 0.62394 0.79166 0.80054 0.0
H1224 H 0.57764 0.78776 0.79869 0.0
H1225 H 0.63799 0.73348 0.85727 0.0
H1226 H 0.62994 0.74098 0.88746 0.0
H1227 H 0.66459 0.75595 0.86993 0.0
loop_
_geom_bond_atom_site_label_1
_geom_bond_atom_site_label_2
_geom_bond_distance
_geom_bond_site_symmetry_2
_ccdc_geom_bond_type
O0 Cd1 2.300 . S
O0 C7 1.275 . S
Cd1 O0 2.300 . S
Cd1 O9 2.381 . S
Cd1 O10 2.378 . S
O2 Cd3 2.385 . S
O2 C7 1.255 . S
Cd3 O2 2.385 . S
Cd3 O4 2.317 . S
O4 Cd3 2.317 . S
O4 C5 1.232 . S
C5 O4 1.232 . S
C5 O6 1.218 . S
O6 C5 1.218 . S
C7 O0 1.275 . S
C7 O2 1.255 . S
C8 O9 1.258 . S
C8 O10 1.256 . S
O9 Cd1 2.381 . S
O9 C8 1.258 . S
O10 Cd1 2.378 . S
O10 C8 1.256 . S
O11 Cd12 2.300 . S
O11 C18 1.275 . S
Cd12 O11 2.300 . S
Cd12 O20 2.381 . S
Cd12 O21 2.378 . S
O13 Cd14 2.385 . S
O13 C18 1.255 . S
Cd14 O13 2.385 . S
Cd14 O15 2.317 . S
O15 Cd14 2.317 . S
O15 C16 1.232 . S
C16 O15 1.232 . S
C16 O17 1.218 . S
O17 C16 1.218 . S
C18 O11 1.275 . S
C18 O13 1.255 . S
C19 O20 1.258 . S
C19 O21 1.256 . S
O20 Cd12 2.381 . S
O20 C19 1.258 . S
O21 Cd12 2.378 . S
O21 C19 1.256 . S
O22 Cd23 2.300 . S
O22 C29 1.275 . S
Cd23 O22 2.300 . S
Cd23 O31 2.381 . S
Cd23 O32 2.378 . S
O24 Cd25 2.385 . S
O24 C29 1.255 . S
Cd25 O24 2.385 . S
Cd25 O26 2.317 . S
O26 Cd25 2.317 . S
O26 C27 1.232 . S
C27 O26 1.232 . S
C27 O28 1.218 . S
O28 C27 1.218 . S
C29 O22 1.275 . S
C29 O24 1.255 . S
C30 O31 1.258 . S
C30 O32 1.256 . S
O31 Cd23 2.381 . S
O31 C30 1.258 . S
O32 Cd23 2.378 . S
O32 C30 1.256 . S
O33 Cd34 2.300 . S
O33 C40 1.275 . S
Cd34 O33 2.300 . S
Cd34 O42 2.381 . S
Cd34 O43 2.378 . S
O35 Cd36 2.385 . S
O35 C40 1.255 . S
Cd36 O35 2.385 . S
Cd36 O37 2.317 . S
O37 Cd36 2.317 . S
O37 C38 1.232 . S
C38 O37 1.232 . S
C38 O39 1.218 . S
O39 C38 1.218 . S
C40 O33 1.275 . S
C40 O35 1.255 . S
C41 O42 1.258 . S
C41 O43 1.256 . S
O42 Cd34 2.381 . S
O42 C41 1.258 . S
O43 Cd34 2.378 . S
O43 C41 1.256 . S
O44 Cd45 2.300 . S
O44 C51 1.275 . S
Cd45 O44 2.300 . S
Cd45 O53 2.381 . S
Cd45 O54 2.378 . S
O46 Cd47 2.385 . S
O46 C51 1.255 . S
Cd47 O46 2.385 . S
Cd47 O48 2.317 . S
O48 Cd47 2.317 . S
O48 C49 1.232 . S
C49 O48 1.232 . S
C49 O50 1.218 . S
O50 C49 1.218 . S
C51 O44 1.275 . S
C51 O46 1.255 . S
C52 O53 1.258 . S
C52 O54 1.256 . S
O53 Cd45 2.381 . S
O53 C52 1.258 . S
O54 Cd45 2.378 . S
O54 C52 1.256 . S
O55 Cd56 2.300 . S
O55 C62 1.275 . S
Cd56 O55 2.300 . S
Cd56 O64 2.381 . S
Cd56 O65 2.378 . S
O57 Cd58 2.385 . S
O57 C62 1.255 . S
Cd58 O57 2.385 . S
Cd58 O59 2.317 . S
O59 Cd58 2.317 . S
O59 C60 1.232 . S
C60 O59 1.232 . S
C60 O61 1.218 . S
O61 C60 1.218 . S
C62 O55 1.275 . S
C62 O57 1.255 . S
C63 O64 1.258 . S
C63 O65 1.256 . S
O64 Cd56 2.381 . S
O64 C63 1.258 . S
O65 Cd56 2.378 . S
O65 C63 1.256 . S
O66 Cd67 2.300 . S
O66 C73 1.275 . S
Cd67 O66 2.300 . S
Cd67 O75 2.381 . S
Cd67 O76 2.378 . S
O68 Cd69 2.385 . S
O68 C73 1.255 . S
Cd69 O68 2.385 . S
Cd69 O70 2.317 . S
O70 Cd69 2.317 . S
O70 C71 1.232 . S
C71 O70 1.232 . S
C71 O72 1.218 . S
O72 C71 1.218 . S
C73 O66 1.275 . S
C73 O68 1.255 . S
C74 O75 1.258 . S
C74 O76 1.256 . S
O75 Cd67 2.381 . S
O75 C74 1.258 . S
O76 Cd67 2.378 . S
O76 C74 1.256 . S
O77 Cd78 2.300 . S
O77 C84 1.275 . S
Cd78 O77 2.300 . S
Cd78 O86 2.381 . S
Cd78 O87 2.378 . S
O79 Cd80 2.385 . S
O79 C84 1.255 . S
Cd80 O79 2.385 . S
Cd80 O81 2.317 . S
O81 Cd80 2.317 . S
O81 C82 1.232 . S
C82 O81 1.232 . S
C82 O83 1.218 . S
O83 C82 1.218 . S
C84 O77 1.275 . S
C84 O79 1.255 . S
C85 O86 1.258 . S
C85 O87 1.256 . S
O86 Cd78 2.381 . S
O86 C85 1.258 . S
O87 Cd78 2.378 . S
O87 C85 1.256 . S
H88 C115 0.929 . S
N89 C114 1.433 . S
N89 C120 1.435 . S
N89 C126 1.423 . S
H90 C116 0.930 . S
H91 C119 0.931 1_455 S
H92 C118 0.929 . S
H93 C121 0.930 . S
H94 C122 0.932 . S
H95 C125 0.929 . S
H96 C124 0.931 . S
H97 C127 0.929 . S
H98 C131 0.932 . S
H99 C128 0.931 . S
H100 C130 0.929 . S
H101 C133 0.929 . S
H102 C134 0.930 . S
H103 C136 0.929 . S
H104 C137 0.931 . S
H105 C139 0.930 . S
H106 C140 0.932 . S
H107 C142 0.931 . S
H108 C143 0.929 . S
H109 C145 0.929 . S
H110 C146 0.931 . S
H111 C148 0.929 . S
N112 C132 1.433 . S
N112 C138 1.435 . S
N112 C144 1.423 . S
H113 C149 0.932 . S
C114 N89 1.433 . S
C114 C115 1.363 . S
C114 C119 1.370 1_455 S
C115 H88 0.929 . S
C115 C114 1.363 . S
C115 C116 1.385 1_455 S
C116 H90 0.930 . S
C116 C115 1.385 1_655 S
C116 C117 1.357 . S
C117 C116 1.357 . S
C117 C118 1.406 . S
C118 H92 0.929 . S
C118 C117 1.406 . S
C118 C119 1.391 . S
C119 H91 0.931 1_655 S
C119 C114 1.370 1_655 S
C119 C118 1.391 . S
C120 N89 1.435 . S
C120 C121 1.358 . S
C120 C125 1.371 . S
C121 H93 0.930 . S
C121 C120 1.358 . S
C121 C122 1.405 . S
C122 H94 0.932 . S
C122 C121 1.405 . S
C122 C123 1.383 . S
C123 C122 1.383 . S
C123 C124 1.393 . S
C124 H96 0.931 . S
C124 C123 1.393 . S
C124 C125 1.382 . S
C125 H95 0.929 . S
C125 C120 1.371 . S
C125 C124 1.382 . S
C126 N89 1.423 . S
C126 C127 1.362 . S
C126 C131 1.388 . S
C127 H97 0.929 . S
C127 C126 1.362 . S
C127 C128 1.376 . S
C128 H99 0.931 . S
C128 C127 1.376 . S
C128 C129 1.396 . S
C129 C128 1.396 . S
C129 C130 1.348 . S
C129 C147 1.472 . S
C130 H100 0.929 . S
C130 C129 1.348 . S
C130 C131 1.443 . S
C131 H98 0.932 . S
C131 C126 1.388 . S
C131 C130 1.443 . S
C132 N112 1.433 . S
C132 C133 1.363 . S
C132 C137 1.370 . S
C133 H101 0.929 . S
C133 C132 1.363 . S
C133 C134 1.385 1_455 S
C134 H102 0.930 . S
C134 C133 1.385 1_655 S
C134 C135 1.357 . S
C135 C134 1.357 . S
C135 C136 1.406 . S
C136 H103 0.929 . S
C136 C135 1.406 . S
C136 C137 1.391 1_655 S
C137 H104 0.931 . S
C137 C132 1.370 . S
C137 C136 1.391 1_455 S
C138 N112 1.435 . S
C138 C139 1.358 . S
C138 C143 1.371 . S
C139 H105 0.930 . S
C139 C138 1.358 . S
C139 C140 1.405 . S
C140 H106 0.932 . S
C140 C139 1.405 . S
C140 C141 1.383 . S
C141 C140 1.383 . S
C141 C142 1.393 . S
C142 H107 0.931 . S
C142 C141 1.393 . S
C142 C143 1.382 . S
C143 H108 0.929 . S
C143 C138 1.371 . S
C143 C142 1.382 . S
C144 N112 1.423 . S
C144 C145 1.362 . S
C144 C149 1.388 . S
C145 H109 0.929 . S
C145 C144 1.362 . S
C145 C146 1.376 . S
C146 H110 0.931 . S
C146 C145 1.376 . S
C146 C147 1.396 . S
C147 C129 1.472 . S
C147 C146 1.396 . S
C147 C148 1.348 . S
C148 H111 0.929 . S
C148 C147 1.348 . S
C148 C149 1.443 . S
C149 H113 0.932 . S
C149 C144 1.388 . S
C149 C148 1.443 . S
H150 C177 0.929 . S
N151 C176 1.433 1_455 S
N151 C182 1.435 . S
N151 C188 1.423 . S
H152 C178 0.930 . S
H153 C181 0.931 . S
H154 C180 0.929 . S
H155 C183 0.930 . S
H156 C184 0.932 . S
H157 C187 0.929 . S
H158 C186 0.931 . S
H159 C189 0.929 . S
H160 C193 0.932 . S
H161 C190 0.931 . S
H162 C192 0.929 . S
H163 C195 0.929 . S
H164 C196 0.930 . S
H165 C198 0.929 . S
H166 C199 0.931 . S
H167 C201 0.930 . S
H168 C202 0.932 . S
H169 C204 0.931 . S
H170 C205 0.929 . S
H171 C207 0.929 . S
H172 C208 0.931 . S
H173 C210 0.929 . S
N174 C194 1.433 1_455 S
N174 C200 1.435 . S
N174 C206 1.423 . S
H175 C211 0.932 . S
C176 N151 1.433 1_655 S
C176 C177 1.363 . S
C176 C181 1.370 . S
C177 H150 0.929 . S
C177 C176 1.363 . S
C177 C178 1.385 . S
C178 H152 0.930 . S
C178 C177 1.385 . S
C178 C179 1.357 . S
C179 C178 1.357 . S
C179 C180 1.406 . S
C180 H154 0.929 . S
C180 C179 1.406 . S
C180 C181 1.391 . S
C181 H153 0.931 . S
C181 C176 1.370 . S
C181 C180 1.391 . S
C182 N151 1.435 . S
C182 C183 1.358 . S
C182 C187 1.371 . S
C183 H155 0.930 . S
C183 C182 1.358 . S
C183 C184 1.405 . S
C184 H156 0.932 . S
C184 C183 1.405 . S
C184 C185 1.383 . S
C185 C184 1.383 . S
C185 C186 1.393 . S
C186 H158 0.931 . S
C186 C185 1.393 . S
C186 C187 1.382 . S
C187 H157 0.929 . S
C187 C182 1.371 . S
C187 C186 1.382 . S
C188 N151 1.423 . S
C188 C189 1.362 1_455 S
C188 C193 1.388 . S
C189 H159 0.929 . S
C189 C188 1.362 1_655 S
C189 C190 1.376 . S
C190 H161 0.931 . S
C190 C189 1.376 . S
C190 C191 1.396 1_655 S
C191 C190 1.396 1_455 S
C191 C192 1.348 . S
C191 C209 1.472 . S
C192 H162 0.929 . S
C192 C191 1.348 . S
C192 C193 1.443 . S
C193 H160 0.932 . S
C193 C188 1.388 . S
C193 C192 1.443 . S
C194 N174 1.433 1_655 S
C194 C195 1.363 . S
C194 C199 1.370 . S
C195 H163 0.929 . S
C195 C194 1.363 . S
C195 C196 1.385 . S
C196 H164 0.930 . S
C196 C195 1.385 . S
C196 C197 1.357 . S
C197 C196 1.357 . S
C197 C198 1.406 . S
C198 H165 0.929 . S
C198 C197 1.406 . S
C198 C199 1.391 . S
C199 H166 0.931 . S
C199 C194 1.370 . S
C199 C198 1.391 . S
C200 N174 1.435 . S
C200 C201 1.358 . S
C200 C205 1.371 . S
C201 H167 0.930 . S
C201 C200 1.358 . S
C201 C202 1.405 . S
C202 H168 0.932 . S
C202 C201 1.405 . S
C202 C203 1.383 . S
C203 C202 1.383 . S
C203 C204 1.393 . S
C204 H169 0.931 . S
C204 C203 1.393 . S
C204 C205 1.382 . S
C205 H170 0.929 . S
C205 C200 1.371 . S
C205 C204 1.382 . S
C206 N174 1.423 . S
C206 C207 1.362 1_455 S
C206 C211 1.388 . S
C207 H171 0.929 . S
C207 C206 1.362 1_655 S
C207 C208 1.376 . S
C208 H172 0.931 . S
C208 C207 1.376 . S
C208 C209 1.396 1_655 S
C209 C191 1.472 . S
C209 C208 1.396 1_455 S
C209 C210 1.348 . S
C210 H173 0.929 . S
C210 C209 1.348 . S
C210 C211 1.443 . S
C211 H175 0.932 . S
C211 C206 1.388 . S
C211 C210 1.443 . S
H212 C239 0.929 . S
N213 C238 1.433 . S
N213 C244 1.435 . S
N213 C250 1.423 . S
H214 C240 0.930 . S
H215 C243 0.931 . S
H216 C242 0.929 . S
H217 C245 0.930 . S
H218 C246 0.932 . S
H219 C249 0.929 . S
H220 C248 0.931 . S
H221 C251 0.929 . S
H222 C255 0.932 . S
H223 C252 0.931 . S
H224 C254 0.929 . S
H225 C257 0.929 . S
H226 C258 0.930 1_565 S
H227 C260 0.929 . S
H228 C261 0.931 . S
H229 C263 0.930 . S
H230 C264 0.932 1_565 S
H231 C266 0.931 . S
H232 C267 0.929 . S
H233 C269 0.929 . S
H234 C270 0.931 . S
H235 C272 0.929 . S
N236 C256 1.433 . S
N236 C262 1.435 . S
N236 C268 1.423 . S
H237 C273 0.932 . S
C238 N213 1.433 . S
C238 C239 1.363 . S
C238 C243 1.370 . S
C239 H212 0.929 . S
C239 C238 1.363 . S
C239 C240 1.385 . S
C240 H214 0.930 . S
C240 C239 1.385 . S
C240 C241 1.357 . S
C241 C240 1.357 . S
C241 C242 1.406 . S
C242 H216 0.929 . S
C242 C241 1.406 . S
C242 C243 1.391 . S
C243 H215 0.931 . S
C243 C238 1.370 . S
C243 C242 1.391 . S
C244 N213 1.435 . S
C244 C245 1.358 . S
C244 C249 1.371 . S
C245 H217 0.930 . S
C245 C244 1.358 . S
C245 C246 1.405 . S
C246 H218 0.932 . S
C246 C245 1.405 . S
C246 C247 1.383 . S
C247 C246 1.383 . S
C247 C248 1.393 . S
C248 H220 0.931 . S
C248 C247 1.393 . S
C248 C249 1.382 . S
C249 H219 0.929 . S
C249 C244 1.371 . S
C249 C248 1.382 . S
C250 N213 1.423 . S
C250 C251 1.362 . S
C250 C255 1.388 . S
C251 H221 0.929 . S
C251 C250 1.362 . S
C251 C252 1.376 . S
C252 H223 0.931 . S
C252 C251 1.376 . S
C252 C253 1.396 . S
C253 C252 1.396 . S
C253 C254 1.348 . S
C253 C271 1.472 . S
C254 H224 0.929 . S
C254 C253 1.348 . S
C254 C255 1.443 . S
C255 H222 0.932 . S
C255 C250 1.388 . S
C255 C254 1.443 . S
C256 N236 1.433 . S
C256 C257 1.363 . S
C256 C261 1.370 . S
C257 H225 0.929 . S
C257 C256 1.363 . S
C257 C258 1.385 . S
C258 H226 0.930 1_545 S
C258 C257 1.385 . S
C258 C259 1.357 . S
C259 C258 1.357 . S
C259 C260 1.406 . S
C260 H227 0.929 . S
C260 C259 1.406 . S
C260 C261 1.391 . S
C261 H228 0.931 . S
C261 C256 1.370 . S
C261 C260 1.391 . S
C262 N236 1.435 . S
C262 C263 1.358 . S
C262 C267 1.371 . S
C263 H229 0.930 . S
C263 C262 1.358 . S
C263 C264 1.405 . S
C264 H230 0.932 1_545 S
C264 C263 1.405 . S
C264 C265 1.383 . S
C265 C264 1.383 . S
C265 C266 1.393 . S
C266 H231 0.931 . S
C266 C265 1.393 . S
C266 C267 1.382 . S
C267 H232 0.929 . S
C267 C262 1.371 . S
C267 C266 1.382 . S
C268 N236 1.423 . S
C268 C269 1.362 . S
C268 C273 1.388 . S
C269 H233 0.929 . S
C269 C268 1.362 . S
C269 C270 1.376 . S
C270 H234 0.931 . S
C270 C269 1.376 . S
C270 C271 1.396 . S
C271 C253 1.472 . S
C271 C270 1.396 . S
C271 C272 1.348 . S
C272 H235 0.929 . S
C272 C271 1.348 . S
C272 C273 1.443 . S
C273 H237 0.932 . S
C273 C268 1.388 . S
C273 C272 1.443 . S
H274 C301 0.929 . S
N275 C300 1.433 . S
N275 C306 1.435 . S
N275 C312 1.423 . S
H276 C302 0.930 . S
H277 C305 0.931 . S
H278 C304 0.929 . S
H279 C307 0.930 . S
H280 C308 0.932 . S
H281 C311 0.929 . S
H282 C310 0.931 . S
H283 C313 0.929 . S
H284 C317 0.932 . S
H285 C314 0.931 . S
H286 C316 0.929 . S
H287 C319 0.929 . S
H288 C320 0.930 . S
H289 C322 0.929 . S
H290 C323 0.931 . S
H291 C325 0.930 . S
H292 C326 0.932 . S
H293 C328 0.931 . S
H294 C329 0.929 . S
H295 C331 0.929 . S
H296 C332 0.931 . S
H297 C334 0.949 . S
N298 C318 1.433 . S
N298 C324 1.435 . S
N298 C330 1.423 . S
H299 C335 0.932 . S
C300 N275 1.433 . S
C300 C301 1.363 . S
C300 C305 1.370 . S
C301 H274 0.929 . S
C301 C300 1.363 . S
C301 C302 1.385 . S
C302 H276 0.930 . S
C302 C301 1.385 . S
C302 C303 1.357 . S
C303 C302 1.357 . S
C303 C304 1.406 . S
C304 H278 0.929 . S
C304 C303 1.406 . S
C304 C305 1.391 . S
C305 H277 0.931 . S
C305 C300 1.370 . S
C305 C304 1.391 . S
C306 N275 1.435 . S
C306 C307 1.358 . S
C306 C311 1.371 . S
C307 H279 0.930 . S
C307 C306 1.358 . S
C307 C308 1.405 . S
C308 H280 0.932 . S
C308 C307 1.405 . S
C308 C309 1.383 . S
C309 C308 1.383 . S
C309 C310 1.393 . S
C310 H282 0.931 . S
C310 C309 1.393 . S
C310 C311 1.382 . S
C311 H281 0.929 . S
C311 C306 1.371 . S
C311 C310 1.382 . S
C312 N275 1.423 . S
C312 C313 1.362 . S
C312 C317 1.388 . S
C313 H283 0.929 . S
C313 C312 1.362 . S
C313 C314 1.376 . S
C314 H285 0.931 . S
C314 C313 1.376 . S
C314 C315 1.396 . S
C315 C314 1.396 . S
C315 C316 1.348 . S
C315 C333 1.475 . S
C316 H286 0.929 . S
C316 C315 1.348 . S
C316 C317 1.443 . S
C317 H284 0.932 . S
C317 C312 1.388 . S
C317 C316 1.443 . S
C318 N298 1.433 . S
C318 C319 1.363 . S
C318 C323 1.370 . S
C319 H287 0.929 . S
C319 C318 1.363 . S
C319 C320 1.385 . S
C320 H288 0.930 . S
C320 C319 1.385 . S
C320 C321 1.357 . S
C321 C320 1.357 . S
C321 C322 1.406 . S
C322 H289 0.929 . S
C322 C321 1.406 . S
C322 C323 1.391 . S
C323 H290 0.931 . S
C323 C318 1.370 . S
C323 C322 1.391 . S
C324 N298 1.435 . S
C324 C325 1.358 . S
C324 C329 1.371 . S
C325 H291 0.930 . S
C325 C324 1.358 . S
C325 C326 1.405 . S
C326 H292 0.932 . S
C326 C325 1.405 . S
C326 C327 1.383 . S
C327 C326 1.383 . S
C327 C328 1.393 . S
C328 H293 0.931 . S
C328 C327 1.393 . S
C328 C329 1.382 . S
C329 H294 0.929 . S
C329 C324 1.371 . S
C329 C328 1.382 . S
C330 N298 1.423 . S
C330 C331 1.362 . S
C330 C335 1.388 . S
C331 H295 0.929 . S
C331 C330 1.362 . S
C331 C332 1.376 . S
C332 H296 0.931 . S
C332 C331 1.376 . S
C332 C333 1.394 1_556 S
C333 C315 1.475 . S
C333 C332 1.394 1_554 S
C333 C334 1.346 1_554 S
C334 H297 0.949 . S
C334 C333 1.346 1_556 S
C334 C335 1.443 . S
C335 H299 0.932 . S
C335 C330 1.388 . S
C335 C334 1.443 . S
H336 C363 0.929 . S
N337 C362 1.433 . S
N337 C368 1.435 . S
N337 C374 1.423 . S
H338 C364 0.930 . S
H339 C367 0.931 . S
H340 C366 0.929 . S
H341 C369 0.930 . S
H342 C370 0.932 . S
H343 C373 0.929 . S
H344 C372 0.931 . S
H345 C375 0.929 . S
H346 C379 0.932 . S
H347 C376 0.931 . S
H348 C378 0.929 . S
H349 C381 0.929 . S
H350 C382 0.930 . S
H351 C384 0.929 . S
H352 C385 0.931 . S
H353 C387 0.930 . S
H354 C388 0.932 . S
H355 C390 0.931 . S
H356 C391 0.929 . S
H357 C393 0.929 . S
H358 C394 0.931 . S
H359 C396 0.929 1_545 S
N360 C380 1.433 . S
N360 C386 1.435 . S
N360 C392 1.423 . S
H361 C397 0.932 . S
C362 N337 1.433 . S
C362 C363 1.363 . S
C362 C367 1.370 . S
C363 H336 0.929 . S
C363 C362 1.363 . S
C363 C364 1.385 . S
C364 H338 0.930 . S
C364 C363 1.385 . S
C364 C365 1.357 . S
C365 C364 1.357 . S
C365 C366 1.406 . S
C366 H340 0.929 . S
C366 C365 1.406 . S
C366 C367 1.391 . S
C367 H339 0.931 . S
C367 C362 1.370 . S
C367 C366 1.391 . S
C368 N337 1.435 . S
C368 C369 1.358 . S
C368 C373 1.371 . S
C369 H341 0.930 . S
C369 C368 1.358 . S
C369 C370 1.405 . S
C370 H342 0.932 . S
C370 C369 1.405 . S
C370 C371 1.383 . S
C371 C370 1.383 . S
C371 C372 1.393 . S
C372 H344 0.931 . S
C372 C371 1.393 . S
C372 C373 1.382 . S
C373 H343 0.929 . S
C373 C368 1.371 . S
C373 C372 1.382 . S
C374 N337 1.423 . S
C374 C375 1.362 . S
C374 C379 1.388 . S
C375 H345 0.929 . S
C375 C374 1.362 . S
C375 C376 1.376 . S
C376 H347 0.931 . S
C376 C375 1.376 . S
C376 C377 1.396 . S
C377 C376 1.396 . S
C377 C378 1.348 . S
C377 C395 1.472 . S
C378 H348 0.929 . S
C378 C377 1.348 . S
C378 C379 1.443 . S
C379 H346 0.932 . S
C379 C374 1.388 . S
C379 C378 1.443 . S
C380 N360 1.433 . S
C380 C381 1.363 . S
C380 C385 1.370 . S
C381 H349 0.929 . S
C381 C380 1.363 . S
C381 C382 1.385 . S
C382 H350 0.930 . S
C382 C381 1.385 . S
C382 C383 1.357 . S
C383 C382 1.357 . S
C383 C384 1.406 . S
C384 H351 0.929 . S
C384 C383 1.406 . S
C384 C385 1.391 . S
C385 H352 0.931 . S
C385 C380 1.370 . S
C385 C384 1.391 . S
C386 N360 1.435 . S
C386 C387 1.358 . S
C386 C391 1.371 . S
C387 H353 0.930 . S
C387 C386 1.358 . S
C387 C388 1.405 . S
C388 H354 0.932 . S
C388 C387 1.405 . S
C388 C389 1.383 . S
C389 C388 1.383 . S
C389 C390 1.393 . S
C390 H355 0.931 . S
C390 C389 1.393 . S
C390 C391 1.382 . S
C391 H356 0.929 . S
C391 C386 1.371 . S
C391 C390 1.382 . S
C392 N360 1.423 . S
C392 C393 1.362 . S
C392 C397 1.388 . S
C393 H357 0.929 . S
C393 C392 1.362 . S
C393 C394 1.376 . S
C394 H358 0.931 . S
C394 C393 1.376 . S
C394 C395 1.396 1_565 S
C395 C377 1.472 . S
C395 C394 1.396 1_545 S
C395 C396 1.348 1_545 S
C396 H359 0.929 1_565 S
C396 C395 1.348 1_565 S
C396 C397 1.443 . S
C397 H361 0.932 . S
C397 C392 1.388 . S
C397 C396 1.443 . S
H398 C425 0.929 . S
N399 C424 1.433 . S
N399 C430 1.435 . S
N399 C436 1.423 . S
H400 C426 0.930 . S
H401 C429 0.931 . S
H402 C428 0.929 . S
H403 C431 0.930 . S
H404 C432 0.932 . S
H405 C435 0.929 . S
H406 C434 0.931 . S
H407 C437 0.929 . S
H408 C441 0.932 . S
H409 C438 0.931 . S
H410 C440 0.929 . S
H411 C443 0.929 . S
H412 C444 0.930 . S
H413 C446 0.929 . S
H414 C447 0.931 . S
H415 C449 0.930 . S
H416 C450 0.932 . S
H417 C452 0.931 . S
H418 C453 0.929 . S
H419 C455 0.929 . S
H420 C456 0.931 . S
H421 C458 0.929 . S
N422 C442 1.433 . S
N422 C448 1.435 . S
N422 C454 1.423 . S
H423 C459 0.932 . S
C424 N399 1.433 . S
C424 C425 1.363 . S
C424 C429 1.370 . S
C425 H398 0.929 . S
C425 C424 1.363 . S
C425 C426 1.385 . S
C426 H400 0.930 . S
C426 C425 1.385 . S
C426 C427 1.357 . S
C427 C426 1.357 . S
C427 C428 1.406 . S
C428 H402 0.929 . S
C428 C427 1.406 . S
C428 C429 1.391 . S
C429 H401 0.931 . S
C429 C424 1.370 . S
C429 C428 1.391 . S
C430 N399 1.435 . S
C430 C431 1.358 . S
C430 C435 1.371 . S
C431 H403 0.930 . S
C431 C430 1.358 . S
C431 C432 1.405 . S
C432 H404 0.932 . S
C432 C431 1.405 . S
C432 C433 1.383 . S
C433 C432 1.383 . S
C433 C434 1.393 . S
C434 H406 0.931 . S
C434 C433 1.393 . S
C434 C435 1.382 . S
C435 H405 0.929 . S
C435 C430 1.371 . S
C435 C434 1.382 . S
C436 N399 1.423 . S
C436 C437 1.362 . S
C436 C441 1.388 . S
C437 H407 0.929 . S
C437 C436 1.362 . S
C437 C438 1.376 . S
C438 H409 0.931 . S
C438 C437 1.376 . S
C438 C439 1.396 . S
C439 C438 1.396 . S
C439 C440 1.348 . S
C439 C457 1.479 . S
C440 H410 0.929 . S
C440 C439 1.348 . S
C440 C441 1.443 . S
C441 H408 0.932 . S
C441 C436 1.388 . S
C441 C440 1.443 . S
C442 N422 1.433 . S
C442 C443 1.363 . S
C442 C447 1.370 . S
C443 H411 0.929 . S
C443 C442 1.363 . S
C443 C444 1.385 . S
C444 H412 0.930 . S
C444 C443 1.385 . S
C444 C445 1.357 . S
C445 C444 1.357 . S
C445 C446 1.406 . S
C446 H413 0.929 . S
C446 C445 1.406 . S
C446 C447 1.391 . S
C447 H414 0.931 . S
C447 C442 1.370 . S
C447 C446 1.391 . S
C448 N422 1.435 . S
C448 C449 1.358 . S
C448 C453 1.371 . S
C449 H415 0.930 . S
C449 C448 1.358 . S
C449 C450 1.405 . S
C450 H416 0.932 . S
C450 C449 1.405 . S
C450 C451 1.383 . S
C451 C450 1.383 . S
C451 C452 1.393 . S
C452 H417 0.931 . S
C452 C451 1.393 . S
C452 C453 1.382 . S
C453 H418 0.929 . S
C453 C448 1.371 . S
C453 C452 1.382 . S
C454 N422 1.423 . S
C454 C455 1.362 . S
C454 C459 1.388 . S
C455 H419 0.929 . S
C455 C454 1.362 . S
C455 C456 1.376 . S
C456 H420 0.931 . S
C456 C455 1.376 . S
C456 C457 1.392 1_556 S
C457 C439 1.479 . S
C457 C456 1.392 1_554 S
C457 C458 1.344 1_554 S
C458 H421 0.929 . S
C458 C457 1.344 1_556 S
C458 C459 1.443 . S
C459 H423 0.932 . S
C459 C454 1.388 . S
C459 C458 1.443 . S
C460 C461 1.391 . S
C460 C462 1.394 . S
C460 H476 0.931 . S
C461 C460 1.391 . S
C461 C465 1.376 . S
C462 C460 1.394 . S
C462 C463 1.369 . S
C462 C466 1.531 . S
C463 C462 1.369 . S
C463 C464 1.410 . S
C463 C471 1.503 . S
C464 C463 1.410 . S
C464 C465 1.392 . S
C464 C467 1.511 . S
C465 C461 1.376 . S
C465 C464 1.392 . S
C465 H477 0.929 . S
C466 C462 1.531 . S
C466 H478 0.960 . S
C466 H479 0.962 . S
C466 H480 0.960 . S
C467 C464 1.511 . S
C467 H481 0.961 . S
C467 H482 0.961 . S
C467 H483 0.961 . S
C468 C469 1.370 . S
C468 C470 1.363 . S
C468 H484 0.931 . S
C469 C468 1.370 . S
C469 C473 1.408 . S
C470 C468 1.363 . S
C470 C471 1.370 . S
C470 C474 1.524 . S
C471 C463 1.503 . S
C471 C470 1.370 . S
C471 C472 1.403 . S
C472 C471 1.403 . S
C472 C473 1.404 . S
C472 C475 1.539 . S
C473 C469 1.408 . S
C473 C472 1.404 . S
C473 H485 0.930 . S
C474 C470 1.524 . S
C474 H486 0.956 . S
C474 H487 0.961 . S
C474 H488 0.961 . S
C475 C472 1.539 . S
C475 H489 0.958 . S
C475 H490 0.961 . S
C475 H491 0.960 . S
H476 C460 0.931 . S
H477 C465 0.929 . S
H478 C466 0.960 . S
H479 C466 0.962 . S
H480 C466 0.960 . S
H481 C467 0.961 . S
H482 C467 0.961 . S
H483 C467 0.961 . S
H484 C468 0.931 . S
H485 C473 0.930 . S
H486 C474 0.956 . S
H487 C474 0.961 . S
H488 C474 0.961 . S
H489 C475 0.958 . S
H490 C475 0.961 . S
H491 C475 0.960 . S
C492 C493 1.391 . S
C492 C494 1.394 . S
C492 H508 0.931 . S
C493 C492 1.391 . S
C493 C497 1.376 . S
C494 C492 1.394 . S
C494 C495 1.369 . S
C494 C498 1.531 . S
C495 C494 1.369 . S
C495 C496 1.410 . S
C495 C503 1.503 . S
C496 C495 1.410 . S
C496 C497 1.392 . S
C496 C499 1.511 . S
C497 C493 1.376 . S
C497 C496 1.392 . S
C497 H509 0.929 . S
C498 C494 1.531 . S
C498 H510 0.960 . S
C498 H511 0.962 . S
C498 H512 0.960 . S
C499 C496 1.511 . S
C499 H513 0.961 . S
C499 H514 0.961 . S
C499 H515 0.961 . S
C500 C501 1.370 . S
C500 C502 1.363 . S
C500 H516 0.931 . S
C501 C500 1.370 . S
C501 C505 1.408 . S
C502 C500 1.363 . S
C502 C503 1.370 . S
C502 C506 1.524 . S
C503 C495 1.503 . S
C503 C502 1.370 . S
C503 C504 1.403 . S
C504 C503 1.403 . S
C504 C505 1.404 . S
C504 C507 1.539 . S
C505 C501 1.408 . S
C505 C504 1.404 . S
C505 H517 0.930 . S
C506 C502 1.524 . S
C506 H518 0.956 . S
C506 H519 0.961 . S
C506 H520 0.961 . S
C507 C504 1.539 . S
C507 H521 0.958 . S
C507 H522 0.961 . S
C507 H523 0.960 . S
H508 C492 0.931 . S
H509 C497 0.929 . S
H510 C498 0.960 . S
H511 C498 0.962 . S
H512 C498 0.960 . S
H513 C499 0.961 . S
H514 C499 0.961 . S
H515 C499 0.961 . S
H516 C500 0.931 . S
H517 C505 0.930 . S
H518 C506 0.956 . S
H519 C506 0.961 . S
H520 C506 0.961 . S
H521 C507 0.958 . S
H522 C507 0.961 . S
H523 C507 0.960 . S
C524 C525 1.391 . S
C524 C526 1.394 . S
C524 H540 0.931 . S
C525 C524 1.391 . S
C525 C529 1.376 . S
C526 C524 1.394 . S
C526 C527 1.369 . S
C526 C530 1.531 . S
C527 C526 1.369 . S
C527 C528 1.410 . S
C527 C535 1.503 . S
C528 C527 1.410 . S
C528 C529 1.392 . S
C528 C531 1.511 . S
C529 C525 1.376 . S
C529 C528 1.392 . S
C529 H541 0.929 . S
C530 C526 1.531 . S
C530 H542 0.960 . S
C530 H543 0.962 . S
C530 H544 0.960 . S
C531 C528 1.511 . S
C531 H545 0.961 . S
C531 H546 0.961 . S
C531 H547 0.961 . S
C532 C533 1.370 . S
C532 C534 1.363 . S
C532 H548 0.931 . S
C533 C532 1.370 . S
C533 C537 1.408 . S
C534 C532 1.363 . S
C534 C535 1.370 . S
C534 C538 1.524 . S
C535 C527 1.503 . S
C535 C534 1.370 . S
C535 C536 1.403 . S
C536 C535 1.403 . S
C536 C537 1.404 . S
C536 C539 1.539 . S
C537 C533 1.408 . S
C537 C536 1.404 . S
C537 H549 0.930 . S
C538 C534 1.524 . S
C538 H550 0.956 . S
C538 H551 0.961 . S
C538 H552 0.961 . S
C539 C536 1.539 . S
C539 H553 0.958 . S
C539 H554 0.961 . S
C539 H555 0.960 . S
H540 C524 0.931 . S
H541 C529 0.929 . S
H542 C530 0.960 . S
H543 C530 0.962 . S
H544 C530 0.960 . S
H545 C531 0.961 . S
H546 C531 0.961 . S
H547 C531 0.961 . S
H548 C532 0.931 . S
H549 C537 0.930 . S
H550 C538 0.956 . S
H551 C538 0.961 . S
H552 C538 0.961 . S
H553 C539 0.958 . S
H554 C539 0.961 . S
H555 C539 0.960 . S
C556 C557 1.391 . S
C556 C558 1.394 . S
C556 H572 0.931 . S
C557 C556 1.391 . S
C557 C561 1.376 . S
C558 C556 1.394 . S
C558 C559 1.369 . S
C558 C562 1.531 . S
C559 C558 1.369 . S
C559 C560 1.410 . S
C559 C567 1.503 . S
C560 C559 1.410 . S
C560 C561 1.392 . S
C560 C563 1.511 . S
C561 C557 1.376 . S
C561 C560 1.392 . S
C561 H573 0.929 . S
C562 C558 1.531 . S
C562 H574 0.960 . S
C562 H575 0.962 . S
C562 H576 0.960 . S
C563 C560 1.511 . S
C563 H577 0.961 . S
C563 H578 0.961 . S
C563 H579 0.961 . S
C564 C565 1.370 . S
C564 C566 1.363 . S
C564 H580 0.931 . S
C565 C564 1.370 . S
C565 C569 1.408 . S
C566 C564 1.363 . S
C566 C567 1.370 . S
C566 C570 1.524 . S
C567 C559 1.503 . S
C567 C566 1.370 . S
C567 C568 1.403 . S
C568 C567 1.403 . S
C568 C569 1.404 . S
C568 C571 1.539 . S
C569 C565 1.408 . S
C569 C568 1.404 . S
C569 H581 0.930 . S
C570 C566 1.524 . S
C570 H582 0.956 . S
C570 H583 0.961 . S
C570 H584 0.961 . S
C571 C568 1.539 . S
C571 H585 0.958 . S
C571 H586 0.961 . S
C571 H587 0.960 . S
H572 C556 0.931 . S
H573 C561 0.929 . S
H574 C562 0.960 . S
H575 C562 0.962 . S
H576 C562 0.960 . S
H577 C563 0.961 . S
H578 C563 0.961 . S
H579 C563 0.961 . S
H580 C564 0.931 . S
H581 C569 0.930 . S
H582 C570 0.956 . S
H583 C570 0.961 . S
H584 C570 0.961 . S
H585 C571 0.958 . S
H586 C571 0.961 . S
H587 C571 0.960 . S
C588 C589 1.391 . S
C588 C590 1.394 . S
C588 H604 0.931 . S
C589 C588 1.391 . S
C589 C593 1.376 . S
C590 C588 1.394 . S
C590 C591 1.369 . S
C590 C594 1.531 . S
C591 C590 1.369 . S
C591 C592 1.410 . S
C591 C599 1.503 . S
C592 C591 1.410 . S
C592 C593 1.392 . S
C592 C595 1.511 . S
C593 C589 1.376 . S
C593 C592 1.392 . S
C593 H605 0.929 . S
C594 C590 1.531 . S
C594 H606 0.960 . S
C594 H607 0.962 . S
C594 H608 0.960 . S
C595 C592 1.511 . S
C595 H609 0.961 . S
C595 H610 0.961 . S
C595 H611 0.961 . S
C596 C597 1.370 . S
C596 C598 1.363 . S
C596 H612 0.931 . S
C597 C596 1.370 . S
C597 C601 1.408 . S
C598 C596 1.363 . S
C598 C599 1.370 . S
C598 C602 1.524 . S
C599 C591 1.503 . S
C599 C598 1.370 . S
C599 C600 1.403 . S
C600 C599 1.403 . S
C600 C601 1.404 . S
C600 C603 1.539 . S
C601 C597 1.408 . S
C601 C600 1.404 . S
C601 H613 0.930 . S
C602 C598 1.524 . S
C602 H614 0.956 . S
C602 H615 0.961 . S
C602 H616 0.961 . S
C603 C600 1.539 . S
C603 H617 0.958 . S
C603 H618 0.961 . S
C603 H619 0.960 . S
H604 C588 0.931 . S
H605 C593 0.929 . S
H606 C594 0.960 . S
H607 C594 0.962 . S
H608 C594 0.960 . S
H609 C595 0.961 . S
H610 C595 0.961 . S
H611 C595 0.961 . S
H612 C596 0.931 . S
H613 C601 0.930 . S
H614 C602 0.956 . S
H615 C602 0.961 . S
H616 C602 0.961 . S
H617 C603 0.958 . S
H618 C603 0.961 . S
H619 C603 0.960 . S
C620 C621 1.391 . S
C620 C622 1.394 . S
C620 H636 0.931 . S
C621 C620 1.391 . S
C621 C625 1.376 . S
C622 C620 1.394 . S
C622 C623 1.369 . S
C622 C626 1.531 . S
C623 C622 1.369 . S
C623 C624 1.410 . S
C623 C631 1.503 . S
C624 C623 1.410 . S
C624 C625 1.392 . S
C624 C627 1.511 . S
C625 C621 1.376 . S
C625 C624 1.392 . S
C625 H637 0.929 . S
C626 C622 1.531 . S
C626 H638 0.960 . S
C626 H639 0.962 . S
C626 H640 0.960 . S
C627 C624 1.511 . S
C627 H641 0.961 . S
C627 H642 0.961 . S
C627 H643 0.961 . S
C628 C629 1.370 . S
C628 C630 1.363 . S
C628 H644 0.931 . S
C629 C628 1.370 . S
C629 C633 1.408 . S
C630 C628 1.363 . S
C630 C631 1.370 . S
C630 C634 1.524 . S
C631 C623 1.503 . S
C631 C630 1.370 . S
C631 C632 1.403 . S
C632 C631 1.403 . S
C632 C633 1.404 . S
C632 C635 1.539 . S
C633 C629 1.408 . S
C633 C632 1.404 . S
C633 H645 0.930 . S
C634 C630 1.524 . S
C634 H646 0.956 . S
C634 H647 0.961 . S
C634 H648 0.961 . S
C635 C632 1.539 . S
C635 H649 0.958 . S
C635 H650 0.961 . S
C635 H651 0.960 . S
H636 C620 0.931 . S
H637 C625 0.929 . S
H638 C626 0.960 . S
H639 C626 0.962 . S
H640 C626 0.960 . S
H641 C627 0.961 . S
H642 C627 0.961 . S
H643 C627 0.961 . S
H644 C628 0.931 . S
H645 C633 0.930 . S
H646 C634 0.956 . S
H647 C634 0.961 . S
H648 C634 0.961 . S
H649 C635 0.958 . S
H650 C635 0.961 . S
H651 C635 0.960 . S
C652 C653 1.391 . S
C652 C654 1.394 . S
C652 H668 0.931 . S
C653 C652 1.391 . S
C653 C657 1.376 . S
C654 C652 1.394 . S
C654 C655 1.369 . S
C654 C658 1.531 . S
C655 C654 1.369 . S
C655 C656 1.410 . S
C655 C663 1.503 . S
C656 C655 1.410 . S
C656 C657 1.392 . S
C656 C659 1.511 . S
C657 C653 1.376 . S
C657 C656 1.392 . S
C657 H669 0.929 . S
C658 C654 1.531 . S
C658 H670 0.960 . S
C658 H671 0.962 . S
C658 H672 0.960 . S
C659 C656 1.511 . S
C659 H673 0.961 . S
C659 H674 0.961 . S
C659 H675 0.961 . S
C660 C661 1.370 . S
C660 C662 1.363 . S
C660 H676 0.931 . S
C661 C660 1.370 . S
C661 C665 1.408 . S
C662 C660 1.363 . S
C662 C663 1.370 . S
C662 C666 1.524 . S
C663 C655 1.503 . S
C663 C662 1.370 . S
C663 C664 1.403 . S
C664 C663 1.403 . S
C664 C665 1.404 . S
C664 C667 1.539 . S
C665 C661 1.408 . S
C665 C664 1.404 . S
C665 H677 0.930 . S
C666 C662 1.524 . S
C666 H678 0.956 . S
C666 H679 0.961 . S
C666 H680 0.961 . S
C667 C664 1.539 . S
C667 H681 0.958 . S
C667 H682 0.961 . S
C667 H683 0.960 . S
H668 C652 0.931 . S
H669 C657 0.929 . S
H670 C658 0.960 . S
H671 C658 0.962 . S
H672 C658 0.960 . S
H673 C659 0.961 . S
H674 C659 0.961 . S
H675 C659 0.961 . S
H676 C660 0.931 . S
H677 C665 0.930 . S
H678 C666 0.956 . S
H679 C666 0.961 . S
H680 C666 0.961 . S
H681 C667 0.958 . S
H682 C667 0.961 . S
H683 C667 0.960 . S
C684 C685 1.391 . S
C684 C686 1.394 . S
C684 H700 0.931 . S
C685 C684 1.391 . S
C685 C689 1.376 . S
C686 C684 1.394 . S
C686 C687 1.369 . S
C686 C690 1.531 . S
C687 C686 1.369 . S
C687 C688 1.410 . S
C687 C695 1.503 . S
C688 C687 1.410 . S
C688 C689 1.392 . S
C688 C691 1.511 . S
C689 C685 1.376 . S
C689 C688 1.392 . S
C689 H701 0.929 . S
C690 C686 1.531 . S
C690 H702 0.960 . S
C690 H703 0.962 . S
C690 H704 0.960 . S
C691 C688 1.511 . S
C691 H705 0.961 . S
C691 H706 0.961 . S
C691 H707 0.961 . S
C692 C693 1.370 . S
C692 C694 1.363 . S
C692 H708 0.931 . S
C693 C692 1.370 . S
C693 C697 1.408 . S
C694 C692 1.363 . S
C694 C695 1.370 . S
C694 C698 1.524 . S
C695 C687 1.503 . S
C695 C694 1.370 . S
C695 C696 1.403 . S
C696 C695 1.403 . S
C696 C697 1.404 . S
C696 C699 1.539 . S
C697 C693 1.408 . S
C697 C696 1.404 . S
C697 H709 0.930 . S
C698 C694 1.524 . S
C698 H710 0.956 . S
C698 H711 0.961 . S
C698 H712 0.961 . S
C699 C696 1.539 . S
C699 H713 0.958 . S
C699 H714 0.961 . S
C699 H715 0.960 . S
H700 C684 0.931 . S
H701 C689 0.929 . S
H702 C690 0.960 . S
H703 C690 0.962 . S
H704 C690 0.960 . S
H705 C691 0.961 . S
H706 C691 0.961 . S
H707 C691 0.961 . S
H708 C692 0.931 . S
H709 C697 0.930 . S
H710 C698 0.956 . S
H711 C698 0.961 . S
H712 C698 0.961 . S
H713 C699 0.958 . S
H714 C699 0.961 . S
H715 C699 0.960 . S
C716 C717 1.391 . S
C716 C718 1.394 . S
C716 H732 0.931 . S
C717 C716 1.391 . S
C717 C721 1.376 . S
C718 C716 1.394 . S
C718 C719 1.369 . S
C718 C722 1.531 . S
C719 C718 1.369 . S
C719 C720 1.410 . S
C719 C727 1.503 . S
C720 C719 1.410 . S
C720 C721 1.392 . S
C720 C723 1.511 . S
C721 C717 1.376 . S
C721 C720 1.392 . S
C721 H733 0.929 . S
C722 C718 1.531 . S
C722 H734 0.960 . S
C722 H735 0.962 . S
C722 H736 0.960 . S
C723 C720 1.511 . S
C723 H737 0.961 . S
C723 H738 0.961 . S
C723 H739 0.961 . S
C724 C725 1.370 1_565 S
C724 C726 1.363 . S
C724 H740 0.931 1_565 S
C725 C724 1.370 1_545 S
C725 C729 1.408 1_545 S
C726 C724 1.363 . S
C726 C727 1.370 . S
C726 C730 1.524 . S
C727 C719 1.503 . S
C727 C726 1.370 . S
C727 C728 1.403 . S
C728 C727 1.403 . S
C728 C729 1.404 . S
C728 C731 1.539 . S
C729 C725 1.408 1_565 S
C729 C728 1.404 . S
C729 H741 0.949 . S
C730 C726 1.524 . S
C730 H742 0.956 . S
C730 H743 0.961 . S
C730 H744 0.961 . S
C731 C728 1.539 . S
C731 H745 0.958 . S
C731 H746 0.961 . S
C731 H747 0.960 . S
H732 C716 0.931 . S
H733 C721 0.929 . S
H734 C722 0.960 . S
H735 C722 0.962 . S
H736 C722 0.960 . S
H737 C723 0.961 . S
H738 C723 0.961 . S
H739 C723 0.961 . S
H740 C724 0.931 1_545 S
H741 C729 0.949 . S
H742 C730 0.956 . S
H743 C730 0.961 . S
H744 C730 0.961 . S
H745 C731 0.958 . S
H746 C731 0.961 . S
H747 C731 0.960 . S
C748 C749 1.391 . S
C748 C750 1.394 . S
C748 H764 0.931 . S
C749 C748 1.391 . S
C749 C753 1.376 . S
C750 C748 1.394 . S
C750 C751 1.369 . S
C750 C754 1.531 . S
C751 C750 1.369 . S
C751 C752 1.410 . S
C751 C759 1.503 . S
C752 C751 1.410 . S
C752 C753 1.392 . S
C752 C755 1.511 . S
C753 C749 1.376 . S
C753 C752 1.392 . S
C753 H765 0.929 . S
C754 C750 1.531 . S
C754 H766 0.960 . S
C754 H767 0.962 . S
C754 H768 0.960 . S
C755 C752 1.511 . S
C755 H769 0.961 . S
C755 H770 0.961 . S
C755 H771 0.961 . S
C756 C757 1.370 . S
C756 C758 1.363 . S
C756 H772 0.931 . S
C757 C756 1.370 . S
C757 C761 1.408 . S
C758 C756 1.363 . S
C758 C759 1.370 . S
C758 C762 1.524 . S
C759 C751 1.503 . S
C759 C758 1.370 . S
C759 C760 1.403 . S
C760 C759 1.403 . S
C760 C761 1.404 . S
C760 C763 1.539 . S
C761 C757 1.408 . S
C761 C760 1.404 . S
C761 H773 0.930 . S
C762 C758 1.524 . S
C762 H774 0.956 . S
C762 H775 0.961 . S
C762 H776 0.961 . S
C763 C760 1.539 . S
C763 H777 0.958 . S
C763 H778 0.961 . S
C763 H779 0.960 . S
H764 C748 0.931 . S
H765 C753 0.929 . S
H766 C754 0.960 . S
H767 C754 0.962 . S
H768 C754 0.960 . S
H769 C755 0.961 . S
H770 C755 0.961 . S
H771 C755 0.961 . S
H772 C756 0.931 . S
H773 C761 0.930 . S
H774 C762 0.956 . S
H775 C762 0.961 . S
H776 C762 0.961 . S
H777 C763 0.958 . S
H778 C763 0.961 . S
H779 C763 0.960 . S
C780 C781 1.391 . S
C780 C782 1.394 . S
C780 H796 0.931 . S
C781 C780 1.391 . S
C781 C785 1.376 . S
C782 C780 1.394 . S
C782 C783 1.369 . S
C782 C786 1.531 . S
C783 C782 1.369 . S
C783 C784 1.410 . S
C783 C791 1.503 . S
C784 C783 1.410 . S
C784 C785 1.392 . S
C784 C787 1.511 . S
C785 C781 1.376 . S
C785 C784 1.392 . S
C785 H797 0.929 . S
C786 C782 1.531 . S
C786 H798 0.960 . S
C786 H799 0.962 . S
C786 H800 0.960 . S
C787 C784 1.511 . S
C787 H801 0.961 . S
C787 H802 0.961 . S
C787 H803 0.961 . S
C788 C789 1.370 . S
C788 C790 1.363 . S
C788 H804 0.931 . S
C789 C788 1.370 . S
C789 C793 1.408 . S
C790 C788 1.363 . S
C790 C791 1.370 . S
C790 C794 1.524 . S
C791 C783 1.503 . S
C791 C790 1.370 . S
C791 C792 1.403 . S
C792 C791 1.403 . S
C792 C793 1.404 . S
C792 C795 1.539 . S
C793 C789 1.408 . S
C793 C792 1.404 . S
C793 H805 0.930 . S
C794 C790 1.524 . S
C794 H806 0.956 . S
C794 H807 0.961 . S
C794 H808 0.961 . S
C795 C792 1.539 . S
C795 H809 0.958 . S
C795 H810 0.961 . S
C795 H811 0.960 . S
H796 C780 0.931 . S
H797 C785 0.929 . S
H798 C786 0.960 . S
H799 C786 0.962 . S
H800 C786 0.960 . S
H801 C787 0.961 . S
H802 C787 0.961 . S
H803 C787 0.961 . S
H804 C788 0.931 . S
H805 C793 0.930 . S
H806 C794 0.956 . S
H807 C794 0.961 . S
H808 C794 0.961 . S
H809 C795 0.958 . S
H810 C795 0.961 . S
H811 C795 0.960 . S
C812 C813 1.391 . S
C812 C814 1.394 . S
C812 H828 0.931 . S
C813 C812 1.391 . S
C813 C817 1.376 . S
C814 C812 1.394 . S
C814 C815 1.369 . S
C814 C818 1.531 . S
C815 C814 1.369 . S
C815 C816 1.410 . S
C815 C823 1.503 . S
C816 C815 1.410 . S
C816 C817 1.392 . S
C816 C819 1.511 . S
C817 C813 1.376 . S
C817 C816 1.392 . S
C817 H829 0.929 . S
C818 C814 1.531 . S
C818 H830 0.960 . S
C818 H831 0.962 . S
C818 H832 0.960 . S
C819 C816 1.511 . S
C819 H833 0.961 . S
C819 H834 0.961 . S
C819 H835 0.961 . S
C820 C821 1.370 . S
C820 C822 1.363 . S
C820 H836 0.931 . S
C821 C820 1.370 . S
C821 C825 1.408 . S
C822 C820 1.363 . S
C822 C823 1.370 . S
C822 C826 1.524 . S
C823 C815 1.503 . S
C823 C822 1.370 . S
C823 C824 1.403 . S
C824 C823 1.403 . S
C824 C825 1.404 . S
C824 C827 1.539 . S
C825 C821 1.408 . S
C825 C824 1.404 . S
C825 H837 0.930 . S
C826 C822 1.524 . S
C826 H838 0.956 . S
C826 H839 0.961 . S
C826 H840 0.961 . S
C827 C824 1.539 . S
C827 H841 0.958 . S
C827 H842 0.961 . S
C827 H843 0.960 . S
H828 C812 0.931 . S
H829 C817 0.929 . S
H830 C818 0.960 . S
H831 C818 0.962 . S
H832 C818 0.960 . S
H833 C819 0.961 . S
H834 C819 0.961 . S
H835 C819 0.961 . S
H836 C820 0.931 . S
H837 C825 0.930 . S
H838 C826 0.956 . S
H839 C826 0.961 . S
H840 C826 0.961 . S
H841 C827 0.958 . S
H842 C827 0.961 . S
H843 C827 0.960 . S
C844 C845 1.391 . S
C844 C846 1.394 . S
C844 H860 0.931 . S
C845 C844 1.391 . S
C845 C849 1.376 . S
C846 C844 1.394 . S
C846 C847 1.369 . S
C846 C850 1.531 . S
C847 C846 1.369 . S
C847 C848 1.410 . S
C847 C855 1.503 . S
C848 C847 1.410 . S
C848 C849 1.392 . S
C848 C851 1.511 . S
C849 C845 1.376 . S
C849 C848 1.392 . S
C849 H861 0.929 . S
C850 C846 1.531 . S
C850 H862 0.960 . S
C850 H863 0.962 . S
C850 H864 0.960 . S
C851 C848 1.511 . S
C851 H865 0.961 . S
C851 H866 0.961 . S
C851 H867 0.961 . S
C852 C853 1.370 . S
C852 C854 1.363 . S
C852 H868 0.931 . S
C853 C852 1.370 . S
C853 C857 1.408 . S
C854 C852 1.363 . S
C854 C855 1.370 . S
C854 C858 1.524 . S
C855 C847 1.503 . S
C855 C854 1.370 . S
C855 C856 1.403 . S
C856 C855 1.403 . S
C856 C857 1.404 . S
C856 C859 1.539 . S
C857 C853 1.408 . S
C857 C856 1.404 . S
C857 H869 0.930 . S
C858 C854 1.524 . S
C858 H870 0.956 . S
C858 H871 0.961 . S
C858 H872 0.961 . S
C859 C856 1.539 . S
C859 H873 0.958 . S
C859 H874 0.961 . S
C859 H875 0.960 . S
H860 C844 0.931 . S
H861 C849 0.929 . S
H862 C850 0.960 . S
H863 C850 0.962 . S
H864 C850 0.960 . S
H865 C851 0.961 . S
H866 C851 0.961 . S
H867 C851 0.961 . S
H868 C852 0.931 . S
H869 C857 0.930 . S
H870 C858 0.956 . S
H871 C858 0.961 . S
H872 C858 0.961 . S
H873 C859 0.958 . S
H874 C859 0.961 . S
H875 C859 0.960 . S
C876 C877 1.391 . S
C876 C878 1.394 . S
C876 H892 0.931 . S
C877 C876 1.391 . S
C877 C881 1.376 . S
C878 C876 1.394 . S
C878 C879 1.369 . S
C878 C882 1.531 . S
C879 C878 1.369 . S
C879 C880 1.410 . S
C879 C887 1.503 . S
C880 C879 1.410 . S
C880 C881 1.392 . S
C880 C883 1.511 . S
C881 C877 1.376 . S
C881 C880 1.392 . S
C881 H893 0.929 . S
C882 C878 1.531 . S
C882 H894 0.960 . S
C882 H895 0.962 . S
C882 H896 0.960 . S
C883 C880 1.511 . S
C883 H897 0.961 . S
C883 H898 0.961 . S
C883 H899 0.961 . S
C884 C885 1.370 . S
C884 C886 1.363 . S
C884 H900 0.931 . S
C885 C884 1.370 . S
C885 C889 1.408 . S
C886 C884 1.363 . S
C886 C887 1.370 . S
C886 C890 1.524 . S
C887 C879 1.503 . S
C887 C886 1.370 . S
C887 C888 1.403 . S
C888 C887 1.403 . S
C888 C889 1.404 . S
C888 C891 1.539 . S
C889 C885 1.408 . S
C889 C888 1.404 . S
C889 H901 0.930 . S
C890 C886 1.524 . S
C890 H902 0.956 . S
C890 H903 0.961 . S
C890 H904 0.961 . S
C891 C888 1.539 . S
C891 H905 0.958 . S
C891 H906 0.961 . S
C891 H907 0.960 . S
H892 C876 0.931 . S
H893 C881 0.929 . S
H894 C882 0.960 . S
H895 C882 0.962 . S
H896 C882 0.960 . S
H897 C883 0.961 . S
H898 C883 0.961 . S
H899 C883 0.961 . S
H900 C884 0.931 . S
H901 C889 0.930 . S
H902 C890 0.956 . S
H903 C890 0.961 . S
H904 C890 0.961 . S
H905 C891 0.958 . S
H906 C891 0.961 . S
H907 C891 0.960 . S
C908 C909 1.391 . S
C908 C910 1.394 . S
C908 H924 0.931 . S
C909 C908 1.391 . S
C909 C913 1.376 . S
C910 C908 1.394 . S
C910 C911 1.369 . S
C910 C914 1.531 . S
C911 C910 1.369 . S
C911 C912 1.410 . S
C911 C919 1.503 . S
C912 C911 1.410 . S
C912 C913 1.392 . S
C912 C915 1.511 . S
C913 C909 1.376 . S
C913 C912 1.392 . S
C913 H925 0.929 . S
C914 C910 1.531 . S
C914 H926 0.960 . S
C914 H927 0.962 . S
C914 H928 0.960 . S
C915 C912 1.511 . S
C915 H929 0.961 . S
C915 H930 0.961 . S
C915 H931 0.961 . S
C916 C917 1.370 . S
C916 C918 1.363 . S
C916 H932 0.931 . S
C917 C916 1.370 . S
C917 C921 1.408 . S
C918 C916 1.363 . S
C918 C919 1.370 . S
C918 C922 1.524 . S
C919 C911 1.503 . S
C919 C918 1.370 . S
C919 C920 1.403 . S
C920 C919 1.403 . S
C920 C921 1.404 . S
C920 C923 1.539 . S
C921 C917 1.408 . S
C921 C920 1.404 . S
C921 H933 0.930 . S
C922 C918 1.524 . S
C922 H934 0.956 . S
C922 H935 0.961 . S
C922 H936 0.961 . S
C923 C920 1.539 . S
C923 H937 0.958 . S
C923 H938 0.961 . S
C923 H939 0.960 . S
H924 C908 0.931 . S
H925 C913 0.929 . S
H926 C914 0.960 . S
H927 C914 0.962 . S
H928 C914 0.960 . S
H929 C915 0.961 . S
H930 C915 0.961 . S
H931 C915 0.961 . S
H932 C916 0.931 . S
H933 C921 0.930 . S
H934 C922 0.956 . S
H935 C922 0.961 . S
H936 C922 0.961 . S
H937 C923 0.958 . S
H938 C923 0.961 . S
H939 C923 0.960 . S
C940 C941 1.391 . S
C940 C942 1.394 . S
C940 H956 0.931 . S
C941 C940 1.391 . S
C941 C945 1.376 . S
C942 C940 1.394 . S
C942 C943 1.369 . S
C942 C946 1.531 . S
C943 C942 1.369 . S
C943 C944 1.410 . S
C943 C951 1.503 . S
C944 C943 1.410 . S
C944 C945 1.392 . S
C944 C947 1.511 . S
C945 C941 1.376 . S
C945 C944 1.392 . S
C945 H957 0.929 . S
C946 C942 1.531 . S
C946 H958 0.960 . S
C946 H959 0.962 . S
C946 H960 0.960 . S
C947 C944 1.511 . S
C947 H961 0.961 . S
C947 H962 0.961 . S
C947 H963 0.961 . S
C948 C949 1.370 . S
C948 C950 1.363 . S
C948 H964 0.931 . S
C949 C948 1.370 . S
C949 C953 1.408 . S
C950 C948 1.363 . S
C950 C951 1.370 . S
C950 C954 1.524 . S
C951 C943 1.503 . S
C951 C950 1.370 . S
C951 C952 1.403 . S
C952 C951 1.403 . S
C952 C953 1.404 . S
C952 C955 1.539 . S
C953 C949 1.408 . S
C953 C952 1.404 . S
C953 H965 0.930 . S
C954 C950 1.524 . S
C954 H966 0.956 . S
C954 H967 0.961 . S
C954 H968 0.961 . S
C955 C952 1.539 . S
C955 H969 0.958 . S
C955 H970 0.961 . S
C955 H971 0.960 . S
H956 C940 0.931 . S
H957 C945 0.929 . S
H958 C946 0.960 . S
H959 C946 0.962 . S
H960 C946 0.960 . S
H961 C947 0.961 . S
H962 C947 0.961 . S
H963 C947 0.961 . S
H964 C948 0.931 . S
H965 C953 0.930 . S
H966 C954 0.956 . S
H967 C954 0.961 . S
H968 C954 0.961 . S
H969 C955 0.958 . S
H970 C955 0.961 . S
H971 C955 0.960 . S
C972 C973 1.391 . S
C972 C974 1.394 . S
C972 H988 0.931 . S
C973 C972 1.391 . S
C973 C977 1.376 . S
C974 C972 1.394 . S
C974 C975 1.369 . S
C974 C978 1.531 . S
C975 C974 1.369 . S
C975 C976 1.410 . S
C975 C983 1.503 . S
C976 C975 1.410 . S
C976 C977 1.392 . S
C976 C979 1.511 . S
C977 C973 1.376 . S
C977 C976 1.392 . S
C977 H989 0.929 . S
C978 C974 1.531 . S
C978 H990 0.960 . S
C978 H991 0.962 . S
C978 H992 0.960 . S
C979 C976 1.511 . S
C979 H993 0.961 . S
C979 H994 0.961 . S
C979 H995 0.961 . S
C980 C981 1.370 . S
C980 C982 1.363 . S
C980 H996 0.931 . S
C981 C980 1.370 . S
C981 C985 1.408 . S
C982 C980 1.363 . S
C982 C983 1.370 . S
C982 C986 1.524 . S
C983 C975 1.503 . S
C983 C982 1.370 . S
C983 C984 1.403 . S
C984 C983 1.403 . S
C984 C985 1.404 . S
C984 C987 1.539 . S
C985 C981 1.408 . S
C985 C984 1.404 . S
C985 H997 0.930 . S
C986 C982 1.524 . S
C986 H998 0.956 . S
C986 H999 0.961 . S
C986 H1000 0.961 . S
C987 C984 1.539 . S
C987 H1001 0.958 . S
C987 H1002 0.961 . S
C987 H1003 0.960 . S
H988 C972 0.931 . S
H989 C977 0.929 . S
H990 C978 0.960 . S
H991 C978 0.962 . S
H992 C978 0.960 . S
H993 C979 0.961 . S
H994 C979 0.961 . S
H995 C979 0.961 . S
H996 C980 0.931 . S
H997 C985 0.930 . S
H998 C986 0.956 . S
H999 C986 0.961 . S
H1000 C986 0.961 . S
H1001 C987 0.958 . S
H1002 C987 0.961 . S
H1003 C987 0.960 . S
C1004 C1005 1.391 . S
C1004 C1006 1.394 . S
C1004 H1020 0.931 . S
C1005 C1004 1.391 . S
C1005 C1009 1.376 . S
C1006 C1004 1.394 . S
C1006 C1007 1.369 . S
C1006 C1010 1.531 . S
C1007 C1006 1.369 . S
C1007 C1008 1.410 . S
C1007 C1015 1.503 . S
C1008 C1007 1.410 . S
C1008 C1009 1.392 . S
C1008 C1011 1.511 . S
C1009 C1005 1.376 . S
C1009 C1008 1.392 . S
C1009 H1021 0.929 . S
C1010 C1006 1.531 . S
C1010 H1022 0.960 . S
C1010 H1023 0.962 . S
C1010 H1024 0.960 . S
C1011 C1008 1.511 . S
C1011 H1025 0.961 . S
C1011 H1026 0.961 . S
C1011 H1027 0.961 . S
C1012 C1013 1.370 . S
C1012 C1014 1.363 . S
C1012 H1028 0.931 . S
C1013 C1012 1.370 . S
C1013 C1017 1.408 . S
C1014 C1012 1.363 . S
C1014 C1015 1.370 . S
C1014 C1018 1.524 . S
C1015 C1007 1.503 . S
C1015 C1014 1.370 . S
C1015 C1016 1.403 . S
C1016 C1015 1.403 . S
C1016 C1017 1.404 . S
C1016 C1019 1.539 . S
C1017 C1013 1.408 . S
C1017 C1016 1.404 . S
C1017 H1029 0.930 . S
C1018 C1014 1.524 . S
C1018 H1030 0.956 . S
C1018 H1031 0.961 . S
C1018 H1032 0.961 . S
C1019 C1016 1.539 . S
C1019 H1033 0.958 . S
C1019 H1034 0.961 . S
C1019 H1035 0.960 . S
H1020 C1004 0.931 . S
H1021 C1009 0.929 . S
H1022 C1010 0.960 . S
H1023 C1010 0.962 . S
H1024 C1010 0.960 . S
H1025 C1011 0.961 . S
H1026 C1011 0.961 . S
H1027 C1011 0.961 . S
H1028 C1012 0.931 . S
H1029 C1017 0.930 . S
H1030 C1018 0.956 . S
H1031 C1018 0.961 . S
H1032 C1018 0.961 . S
H1033 C1019 0.958 . S
H1034 C1019 0.961 . S
H1035 C1019 0.960 . S
C1036 C1037 1.391 . S
C1036 C1038 1.394 . S
C1036 H1052 0.931 . S
C1037 C1036 1.391 . S
C1037 C1041 1.376 . S
C1038 C1036 1.394 . S
C1038 C1039 1.369 . S
C1038 C1042 1.531 . S
C1039 C1038 1.369 . S
C1039 C1040 1.410 . S
C1039 C1047 1.503 . S
C1040 C1039 1.410 . S
C1040 C1041 1.392 . S
C1040 C1043 1.511 . S
C1041 C1037 1.376 . S
C1041 C1040 1.392 . S
C1041 H1053 0.929 . S
C1042 C1038 1.531 . S
C1042 H1054 0.960 . S
C1042 H1055 0.962 . S
C1042 H1056 0.960 . S
C1043 C1040 1.511 . S
C1043 H1057 0.961 . S
C1043 H1058 0.961 . S
C1043 H1059 0.961 . S
C1044 C1045 1.370 . S
C1044 C1046 1.363 . S
C1044 H1060 0.931 . S
C1045 C1044 1.370 . S
C1045 C1049 1.408 . S
C1046 C1044 1.363 . S
C1046 C1047 1.370 . S
C1046 C1050 1.524 . S
C1047 C1039 1.503 . S
C1047 C1046 1.370 . S
C1047 C1048 1.403 . S
C1048 C1047 1.403 . S
C1048 C1049 1.404 . S
C1048 C1051 1.539 . S
C1049 C1045 1.408 . S
C1049 C1048 1.404 . S
C1049 H1061 0.930 . S
C1050 C1046 1.524 . S
C1050 H1062 0.956 . S
C1050 H1063 0.961 . S
C1050 H1064 0.961 . S
C1051 C1048 1.539 . S
C1051 H1065 0.958 . S
C1051 H1066 0.961 . S
C1051 H1067 0.960 . S
H1052 C1036 0.931 . S
H1053 C1041 0.929 . S
H1054 C1042 0.960 . S
H1055 C1042 0.962 . S
H1056 C1042 0.960 . S
H1057 C1043 0.961 . S
H1058 C1043 0.961 . S
H1059 C1043 0.961 . S
H1060 C1044 0.931 . S
H1061 C1049 0.930 . S
H1062 C1050 0.956 . S
H1063 C1050 0.961 . S
H1064 C1050 0.961 . S
H1065 C1051 0.958 . S
H1066 C1051 0.961 . S
H1067 C1051 0.960 . S
C1068 C1069 1.391 . S
C1068 C1070 1.394 . S
C1068 H1084 0.931 . S
C1069 C1068 1.391 . S
C1069 C1073 1.376 . S
C1070 C1068 1.394 . S
C1070 C1071 1.369 . S
C1070 C1074 1.531 . S
C1071 C1070 1.369 . S
C1071 C1072 1.410 . S
C1071 C1079 1.503 . S
C1072 C1071 1.410 . S
C1072 C1073 1.392 . S
C1072 C1075 1.511 . S
C1073 C1069 1.376 . S
C1073 C1072 1.392 . S
C1073 H1085 0.929 . S
C1074 C1070 1.531 . S
C1074 H1086 0.960 . S
C1074 H1087 0.962 . S
C1074 H1088 0.960 . S
C1075 C1072 1.511 . S
C1075 H1089 0.961 . S
C1075 H1090 0.961 . S
C1075 H1091 0.961 . S
C1076 C1077 1.370 . S
C1076 C1078 1.363 . S
C1076 H1092 0.931 . S
C1077 C1076 1.370 . S
C1077 C1081 1.408 . S
C1078 C1076 1.363 . S
C1078 C1079 1.370 . S
C1078 C1082 1.524 . S
C1079 C1071 1.503 . S
C1079 C1078 1.370 . S
C1079 C1080 1.403 . S
C1080 C1079 1.403 . S
C1080 C1081 1.404 . S
C1080 C1083 1.539 . S
C1081 C1077 1.408 . S
C1081 C1080 1.404 . S
C1081 H1093 0.930 . S
C1082 C1078 1.524 . S
C1082 H1094 0.956 . S
C1082 H1095 0.961 . S
C1082 H1096 0.961 . S
C1083 C1080 1.539 . S
C1083 H1097 0.958 . S
C1083 H1098 0.961 . S
C1083 H1099 0.960 . S
H1084 C1068 0.931 . S
H1085 C1073 0.929 . S
H1086 C1074 0.960 . S
H1087 C1074 0.962 . S
H1088 C1074 0.960 . S
H1089 C1075 0.961 . S
H1090 C1075 0.961 . S
H1091 C1075 0.961 . S
H1092 C1076 0.931 . S
H1093 C1081 0.930 . S
H1094 C1082 0.956 . S
H1095 C1082 0.961 . S
H1096 C1082 0.961 . S
H1097 C1083 0.958 . S
H1098 C1083 0.961 . S
H1099 C1083 0.960 . S
C1100 C1101 1.391 . S
C1100 C1102 1.394 . S
C1100 H1116 0.931 . S
C1101 C1100 1.391 . S
C1101 C1105 1.376 . S
C1102 C1100 1.394 . S
C1102 C1103 1.369 . S
C1102 C1106 1.531 . S
C1103 C1102 1.369 . S
C1103 C1104 1.410 . S
C1103 C1111 1.503 . S
C1104 C1103 1.410 . S
C1104 C1105 1.392 . S
C1104 C1107 1.511 . S
C1105 C1101 1.376 . S
C1105 C1104 1.392 . S
C1105 H1117 0.929 . S
C1106 C1102 1.531 . S
C1106 H1118 0.960 . S
C1106 H1119 0.962 . S
C1106 H1120 0.960 . S
C1107 C1104 1.511 . S
C1107 H1121 0.961 . S
C1107 H1122 0.961 . S
C1107 H1123 0.961 . S
C1108 C1109 1.370 . S
C1108 C1110 1.363 . S
C1108 H1124 0.931 . S
C1109 C1108 1.370 . S
C1109 C1113 1.408 . S
C1110 C1108 1.363 . S
C1110 C1111 1.370 . S
C1110 C1114 1.524 . S
C1111 C1103 1.503 . S
C1111 C1110 1.370 . S
C1111 C1112 1.403 . S
C1112 C1111 1.403 . S
C1112 C1113 1.404 . S
C1112 C1115 1.539 . S
C1113 C1109 1.408 . S
C1113 C1112 1.404 . S
C1113 H1125 0.930 . S
C1114 C1110 1.524 . S
C1114 H1126 0.956 . S
C1114 H1127 0.961 . S
C1114 H1128 0.961 . S
C1115 C1112 1.539 . S
C1115 H1129 0.958 . S
C1115 H1130 0.961 . S
C1115 H1131 0.960 . S
H1116 C1100 0.931 . S
H1117 C1105 0.929 . S
H1118 C1106 0.960 . S
H1119 C1106 0.962 . S
H1120 C1106 0.960 . S
H1121 C1107 0.961 . S
H1122 C1107 0.961 . S
H1123 C1107 0.961 . S
H1124 C1108 0.931 . S
H1125 C1113 0.930 . S
H1126 C1114 0.956 . S
H1127 C1114 0.961 . S
H1128 C1114 0.961 . S
H1129 C1115 0.958 . S
H1130 C1115 0.961 . S
H1131 C1115 0.960 . S
C1132 C1133 1.391 . S
C1132 C1134 1.394 . S
C1132 H1148 0.931 . S
C1133 C1132 1.391 . S
C1133 C1137 1.376 . S
C1134 C1132 1.394 . S
C1134 C1135 1.369 . S
C1134 C1138 1.531 . S
C1135 C1134 1.369 . S
C1135 C1136 1.410 . S
C1135 C1143 1.503 . S
C1136 C1135 1.410 . S
C1136 C1137 1.392 . S
C1136 C1139 1.511 . S
C1137 C1133 1.376 . S
C1137 C1136 1.392 . S
C1137 H1149 0.929 . S
C1138 C1134 1.531 . S
C1138 H1150 0.960 . S
C1138 H1151 0.962 . S
C1138 H1152 0.960 . S
C1139 C1136 1.511 . S
C1139 H1153 0.961 . S
C1139 H1154 0.961 . S
C1139 H1155 0.961 . S
C1140 C1141 1.370 . S
C1140 C1142 1.363 . S
C1140 H1156 0.931 . S
C1141 C1140 1.370 . S
C1141 C1145 1.408 . S
C1142 C1140 1.363 . S
C1142 C1143 1.370 . S
C1142 C1146 1.524 . S
C1143 C1135 1.503 . S
C1143 C1142 1.370 . S
C1143 C1144 1.403 . S
C1144 C1143 1.403 . S
C1144 C1145 1.404 . S
C1144 C1147 1.539 . S
C1145 C1141 1.408 . S
C1145 C1144 1.404 . S
C1145 H1157 0.930 . S
C1146 C1142 1.524 . S
C1146 H1158 0.956 . S
C1146 H1159 0.961 . S
C1146 H1160 0.961 . S
C1147 C1144 1.539 . S
C1147 H1161 0.958 . S
C1147 H1162 0.961 . S
C1147 H1163 0.960 . S
H1148 C1132 0.931 . S
H1149 C1137 0.929 . S
H1150 C1138 0.960 . S
H1151 C1138 0.962 . S
H1152 C1138 0.960 . S
H1153 C1139 0.961 . S
H1154 C1139 0.961 . S
H1155 C1139 0.961 . S
H1156 C1140 0.931 . S
H1157 C1145 0.930 . S
H1158 C1146 0.956 . S
H1159 C1146 0.961 . S
H1160 C1146 0.961 . S
H1161 C1147 0.958 . S
H1162 C1147 0.961 . S
H1163 C1147 0.960 . S
C1164 C1165 1.391 . S
C1164 C1166 1.394 . S
C1164 H1180 0.931 . S
C1165 C1164 1.391 . S
C1165 C1169 1.376 . S
C1166 C1164 1.394 . S
C1166 C1167 1.369 . S
C1166 C1170 1.531 . S
C1167 C1166 1.369 . S
C1167 C1168 1.410 . S
C1167 C1175 1.503 . S
C1168 C1167 1.410 . S
C1168 C1169 1.392 . S
C1168 C1171 1.511 . S
C1169 C1165 1.376 . S
C1169 C1168 1.392 . S
C1169 H1181 0.929 . S
C1170 C1166 1.531 . S
C1170 H1182 0.960 . S
C1170 H1183 0.962 . S
C1170 H1184 0.960 . S
C1171 C1168 1.511 . S
C1171 H1185 0.961 . S
C1171 H1186 0.961 . S
C1171 H1187 0.961 . S
C1172 C1173 1.370 . S
C1172 C1174 1.363 . S
C1172 H1188 0.931 . S
C1173 C1172 1.370 . S
C1173 C1177 1.408 . S
C1174 C1172 1.363 . S
C1174 C1175 1.370 . S
C1174 C1178 1.524 . S
C1175 C1167 1.503 . S
C1175 C1174 1.370 . S
C1175 C1176 1.403 . S
C1176 C1175 1.403 . S
C1176 C1177 1.404 . S
C1176 C1179 1.539 . S
C1177 C1173 1.408 . S
C1177 C1176 1.404 . S
C1177 H1189 0.930 . S
C1178 C1174 1.524 . S
C1178 H1190 0.956 . S
C1178 H1191 0.961 . S
C1178 H1192 0.961 . S
C1179 C1176 1.539 . S
C1179 H1193 0.958 . S
C1179 H1194 0.961 . S
C1179 H1195 0.960 . S
H1180 C1164 0.931 . S
H1181 C1169 0.929 . S
H1182 C1170 0.960 . S
H1183 C1170 0.962 . S
H1184 C1170 0.960 . S
H1185 C1171 0.961 . S
H1186 C1171 0.961 . S
H1187 C1171 0.961 . S
H1188 C1172 0.931 . S
H1189 C1177 0.930 . S
H1190 C1178 0.956 . S
H1191 C1178 0.961 . S
H1192 C1178 0.961 . S
H1193 C1179 0.958 . S
H1194 C1179 0.961 . S
H1195 C1179 0.960 . S
C1196 C1197 1.391 . S
C1196 C1198 1.394 . S
C1196 H1212 0.931 . S
C1197 C1196 1.391 . S
C1197 C1201 1.376 . S
C1198 C1196 1.394 . S
C1198 C1199 1.369 . S
C1198 C1202 1.531 . S
C1199 C1198 1.369 . S
C1199 C1200 1.410 . S
C1199 C1207 1.503 . S
C1200 C1199 1.410 . S
C1200 C1201 1.392 . S
C1200 C1203 1.511 . S
C1201 C1197 1.376 . S
C1201 C1200 1.392 . S
C1201 H1213 0.929 . S
C1202 C1198 1.531 . S
C1202 H1214 0.960 . S
C1202 H1215 0.962 . S
C1202 H1216 0.960 . S
C1203 C1200 1.511 . S
C1203 H1217 0.961 . S
C1203 H1218 0.961 . S
C1203 H1219 0.961 . S
C1204 C1205 1.370 . S
C1204 C1206 1.363 . S
C1204 H1220 0.931 . S
C1205 C1204 1.370 . S
C1205 C1209 1.408 . S
C1206 C1204 1.363 . S
C1206 C1207 1.370 . S
C1206 C1210 1.524 . S
C1207 C1199 1.503 . S
C1207 C1206 1.370 . S
C1207 C1208 1.403 . S
C1208 C1207 1.403 . S
C1208 C1209 1.404 . S
C1208 C1211 1.539 . S
C1209 C1205 1.408 . S
C1209 C1208 1.404 . S
C1209 H1221 0.930 . S
C1210 C1206 1.524 . S
C1210 H1222 0.956 . S
C1210 H1223 0.961 . S
C1210 H1224 0.961 . S
C1211 C1208 1.539 . S
C1211 H1225 0.958 . S
C1211 H1226 0.961 . S
C1211 H1227 0.960 . S
H1212 C1196 0.931 . S
H1213 C1201 0.929 . S
H1214 C1202 0.960 . S
H1215 C1202 0.962 . S
H1216 C1202 0.960 . S
H1217 C1203 0.961 . S
H1218 C1203 0.961 . S
H1219 C1203 0.961 . S
H1220 C1204 0.931 . S
H1221 C1209 0.930 . S
H1222 C1210 0.956 . S
H1223 C1210 0.961 . S
H1224 C1210 0.961 . S
H1225 C1211 0.958 . S
H1226 C1211 0.961 . S
H1227 C1211 0.960 . S
C469 C123 1.404 . S
C461 C5 1.328 . S
C501 C203 1.613 . S
C493 C16 1.476 . S
C533 C135 1.667 . S
C525 C30 1.758 . S
C565 C179 1.858 . S
C557 C40 1.981 . S
C597 C247 1.263 . S
C589 C8 1.261 . S
C629 C327 1.425 . S
C621 C18 1.352 . S
C653 C29 1.823 . S
C661 C389 1.841 . S
C693 C445 1.581 . S
C685 C38 1.390 . S
C725 C259 1.286 . S
C717 C19 1.447 . S
C749 C27 1.484 . S
C757 C303 1.542 . S
C789 C365 1.752 . S
C781 C41 1.919 . S
C821 C433 1.439 . S
C813 C7 1.472 . S
C845 C52 1.911 . S
C853 C197 1.767 . S
C885 C117 1.554 . S
C877 C62 1.610 . S
C909 C74 1.504 . S
C917 C185 1.483 . S
C941 C82 1.057 . S
C949 C141 1.279 . S
C981 C383 1.977 . S
C973 C51 2.059 . S
C1013 C427 1.561 . S
C1005 C60 1.502 . S
C1045 C241 1.380 . S
C1037 C71 1.240 . S
C1069 C84 1.368 . S
C1077 C309 1.394 . S
C1109 C371 1.774 . S
C1101 C63 1.814 . S
C1141 C451 1.438 . S
C1133 C73 1.417 . S
C1173 C265 1.321 1_565 S
C1165 C85 1.375 . S
C1197 C49 1.405 . S
C1205 C321 1.617 . S
