# Generated by pormake.
# Topology tsx, (6,3)-cn, num edge types: 1
# Building blocks:
#     Node 0, Type 0, BuildingBlock: JUFBIX_clean_sbu_0, # of connection points: 6
#     Node 1, Type 0, BuildingBlock: JUFBIX_clean_sbu_0, # of connection points: 6
#     Node 2, Type 1, BuildingBlock: INOVEN_clean_linker_0, # of connection points: 3
#     Node 3, Type 1, BuildingBlock: INOVEN_clean_linker_0, # of connection points: 3
#     Node 4, Type 1, BuildingBlock: INOVEN_clean_linker_0, # of connection points: 3
#     Node 5, Type 1, BuildingBlock: INOVEN_clean_linker_0, # of connection points: 3
#     Edge 6, Type (0, 1), BuildingBlock: TEMPAE_clean_linker_10, # of connection points: 2
#     Edge 7, Type (0, 1), BuildingBlock: TEMPAE_clean_linker_10, # of connection points: 2
#     Edge 8, Type (0, 1), BuildingBlock: TEMPAE_clean_linker_10, # of connection points: 2
#     Edge 9, Type (0, 1), BuildingBlock: TEMPAE_clean_linker_10, # of connection points: 2
#     Edge 10, Type (0, 1), BuildingBlock: TEMPAE_clean_linker_10, # of connection points: 2
#     Edge 11, Type (0, 1), BuildingBlock: TEMPAE_clean_linker_10, # of connection points: 2
#     Edge 12, Type (0, 1), BuildingBlock: TEMPAE_clean_linker_10, # of connection points: 2
#     Edge 13, Type (0, 1), BuildingBlock: TEMPAE_clean_linker_10, # of connection points: 2
#     Edge 14, Type (0, 1), BuildingBlock: TEMPAE_clean_linker_10, # of connection points: 2
#     Edge 15, Type (0, 1), BuildingBlock: TEMPAE_clean_linker_10, # of connection points: 2
#     Edge 16, Type (0, 1), BuildingBlock: TEMPAE_clean_linker_10, # of connection points: 2
#     Edge 17, Type (0, 1), BuildingBlock: TEMPAE_clean_linker_10, # of connection points: 2
# Relax obj value: 0.097
# Max RMSD: 0.121
# Mean RMSD: 0.109
data_MOF--net-tsx--node1-JUFBIX_clean_sbu_0--node2-INOVEN_clean_linker_0--edge1-TEMPAE_clean_linker_10
_symmetry_space_group_name_H-M    P1
_symmetry_Int_Tables_number       1
_symmetry_cell_setting            triclinic
loop_
_symmetry_equiv_pos_as_xyz
'x, y, z'
_cell_length_a     20.400547
_cell_length_b     24.014985
_cell_length_c     33.186993
_cell_angle_alpha  92.082032
_cell_angle_beta   98.487638
_cell_angle_gamma 98.89292
loop_
_atom_site_label
_atom_site_type_symbol
_atom_site_fract_x
_atom_site_fract_y
_atom_site_fract_z
_atom_type_partial_charge
Co0 Co 0.05306 0.96668 -0.00642 0.0
C1 C 0.98046 1.00504 0.92482 0.0
Co2 Co 0.97444 0.01658 0.00611 0.0
C3 C 0.13989 0.87948 -0.00907 0.0
C4 C 0.16774 0.9518 0.95754 0.0
N5 N 0.12167 0.92953 0.9803 0.0
N6 N 0.19619 0.87077 0.97626 0.0
C7 C 0.21364 0.91615 0.95529 0.0
H8 H 0.11336 0.85065 0.00963 0.0
H9 H 0.16825 0.99182 0.94355 0.0
C10 C 0.04649 0.97881 0.07505 0.0
N11 N 0.90747 0.05498 0.01937 0.0
C12 C 0.89047 0.1037 0.00528 0.0
C13 C 0.8671 0.04095 0.04741 0.0
N14 N 0.84154 0.1208 0.02369 0.0
C15 C 0.82675 0.08139 0.05023 0.0
C16 C 0.93121 0.89998 -0.00628 0.0
O17 O 0.07917 0.95759 0.05023 0.0
O18 O 0.99975 1.00569 0.0616 0.0
O19 O 0.91387 0.9475 0.00099 0.0
O20 O 0.99153 0.89736 0.9891 0.0
O21 O 0.94994 0.02729 0.95026 0.0
H22 H 0.86749 1.00392 0.065 0.0
H23 H 0.9147 0.12687 0.98266 0.0
O24 O 0.0261 0.97641 0.93741 0.0
O25 O 0.11331 0.03678 -0.0017 0.0
O26 O 0.03558 0.08519 0.01142 0.0
C27 C 0.09575 0.08399 0.00615 0.0
H28 H 0.25624 0.92263 0.93904 0.0
H29 H 0.78909 0.08156 0.07003 0.0
Co30 Co 0.57551 0.49018 0.49196 0.0
C31 C 0.49941 0.5261 0.42275 0.0
Co32 Co 0.49727 0.54014 0.50388 0.0
C33 C 0.6643 0.40482 0.49063 0.0
C34 C 0.68334 0.47176 0.45088 0.0
N35 N 0.64276 0.45268 0.47772 0.0
N36 N 0.71733 0.3941 0.47316 0.0
C37 C 0.72905 0.43613 0.4481 0.0
H38 H 0.64228 0.37896 0.51277 0.0
H39 H 0.67998 0.50946 0.43433 0.0
C40 C 0.57229 0.50441 0.57325 0.0
N41 N 0.43097 0.57813 0.51822 0.0
C42 C 0.41379 0.62727 0.50523 0.0
C43 C 0.39205 0.56347 0.54692 0.0
N44 N 0.36636 0.64407 0.5251 0.0
C45 C 0.35255 0.60408 0.55135 0.0
C46 C 0.45413 0.42326 0.49386 0.0
O47 O 0.60553 0.4837 0.54857 0.0
O48 O 0.52418 0.52956 0.55944 0.0
O49 O 0.43668 0.47127 0.49906 0.0
O50 O 0.51496 0.42062 0.49045 0.0
O51 O 0.47092 0.55061 0.44818 0.0
H52 H 0.39311 0.52603 0.564 0.0
H53 H 0.43696 0.65105 0.48249 0.0
O54 O 0.54452 0.49708 0.4356 0.0
O55 O 0.63507 0.56036 0.49372 0.0
O56 O 0.55822 0.60872 0.50848 0.0
C57 C 0.61764 0.60761 0.50166 0.0
H58 H 0.76738 0.44032 0.42855 0.0
H59 H 0.31625 0.60411 0.57208 0.0
H60 H 0.0918 1.00206 0.49489 0.0
H61 H 0.17678 0.93899 0.39506 0.0
H62 H 0.03739 0.05541 0.3735 0.0
N63 N 0.0154 0.06664 0.45149 0.0
N64 N 0.97591 0.08967 0.42773 0.0
C65 C 0.09621 1.00119 0.46284 0.0
C66 C 0.13853 0.96728 0.44794 0.0
C67 C 0.05924 0.03322 0.4362 0.0
C68 C 0.06611 0.03149 0.39455 0.0
C69 C 0.10842 0.9976 0.37958 0.0
C70 C 0.14474 0.96596 0.40652 0.0
H71 H 0.98986 0.99056 0.51756 0.0
H72 H 0.89247 0.95712 0.62222 0.0
H73 H 0.03459 0.1088 0.62249 0.0
N74 N 0.06983 0.08559 0.54949 0.0
N75 N 0.11086 0.12407 0.5698 0.0
C76 C 0.98173 1.00336 0.54775 0.0
C77 C 0.93655 0.96822 0.56755 0.0
C78 C 0.0189 0.05337 0.56791 0.0
C79 C 1.00723 0.06971 0.6071 0.0
C80 C 0.96148 0.03543 0.62694 0.0
C81 C 0.92643 0.98491 0.60678 0.0
H82 H 0.56849 0.47862 0.98595 0.0
H83 H 0.67603 0.43245 0.89125 0.0
H84 H 0.5431 0.55402 0.86988 0.0
N85 N 0.50389 0.55239 0.94422 0.0
N86 N 0.47549 0.58496 0.92172 0.0
C87 C 0.58086 0.48365 0.95558 0.0
C88 C 0.62661 0.45216 0.94173 0.0
C89 C 0.55089 0.52119 0.93005 0.0
C90 C 0.56706 0.52644 0.89035 0.0
C91 C 0.61171 0.49422 0.87612 0.0
C92 C 0.64191 0.45783 0.90219 0.0
H93 H 0.46795 0.46149 0.01502 0.0
H94 H 0.37771 0.44496 0.12392 0.0
H95 H 0.51263 0.59619 0.10864 0.0
N96 N 0.54218 0.56214 0.03708 0.0
N97 N 0.55138 0.61474 0.03783 0.0
C98 C 0.46047 0.47886 0.04424 0.0
C99 C 0.41717 0.44741 0.06731 0.0
C100 C 0.49471 0.53256 0.05907 0.0
C101 C 0.48537 0.555 0.09711 0.0
C102 C 0.44411 0.52335 0.12119 0.0
C103 C 0.40949 0.47001 0.10562 0.0
C104 C 0.12881 0.18754 0.02421 0.0
C105 C 0.1451 0.13673 0.00958 0.0
C106 C 0.17613 0.23728 0.0295 0.0
C107 C 0.24114 0.23634 0.01954 0.0
C108 C 0.25718 0.18567 0.0034 0.0
C109 C 0.20908 0.13635 -0.00118 0.0
C110 C 0.15724 0.29041 0.04709 0.0
C111 C 0.32568 0.18321 -0.00802 0.0
C112 C 0.34364 0.38112 0.01288 0.0
C113 C 0.38006 0.39052 0.05244 0.0
C114 C 0.30047 0.32983 0.00085 0.0
C115 C 0.29353 0.28737 0.02919 0.0
C116 C 0.33321 0.29553 0.06831 0.0
C117 C 0.3763 0.3468 0.07932 0.0
C118 C 0.25983 0.32223 0.95862 0.0
C119 C 0.32754 0.25132 0.09942 0.0
H120 H 0.07946 0.18824 0.03246 0.0
H121 H 0.22187 0.09735 0.98712 0.0
H122 H 0.18902 0.30327 0.07708 0.0
H123 H 0.16662 0.32548 0.02677 0.0
H124 H 0.10368 0.28478 0.0514 0.0
H125 H 0.32814 0.14205 0.97635 0.0
H126 H 0.33919 0.21745 0.97168 0.0
H127 H 0.36407 0.18988 0.01984 0.0
H128 H 0.34643 0.4148 -0.008 0.0
H129 H 0.40563 0.35342 0.10961 0.0
H130 H 0.20627 0.32328 0.96076 0.0
H131 H 0.26264 0.28054 0.94402 0.0
H132 H 0.27719 0.35582 0.93866 0.0
H133 H 0.27652 0.24587 0.10806 0.0
H134 H 0.36495 0.26279 0.12752 0.0
H135 H 0.33458 0.20996 0.08623 0.0
C136 C 0.30132 0.83238 -0.00981 0.0
C137 C 0.23121 0.82319 0.98015 0.0
C138 C 0.33833 0.78834 0.98651 0.0
C139 C 0.30442 0.73396 0.97144 0.0
C140 C 0.23317 0.72364 0.96368 0.0
C141 C 0.19729 0.76845 0.96849 0.0
C142 C 0.41405 0.80106 -0.00399 0.0
C143 C 0.19507 0.66651 0.94721 0.0
C144 C 0.40516 0.65622 0.9075 0.0
C145 C 0.4293 0.61809 0.93438 0.0
C146 C 0.36238 0.69249 0.91871 0.0
C147 C 0.3439 0.69108 0.95824 0.0
C148 C 0.36679 0.65138 0.98532 0.0
C149 C 0.4086 0.61473 0.97283 0.0
C150 C 0.33856 0.73347 0.88855 0.0
C151 C 0.34902 0.64883 0.02783 0.0
H152 H 0.3273 0.8748 -0.00059 0.0
H153 H 0.1431 0.76164 0.9604 0.0
H154 H 0.43383 0.76811 0.01461 0.0
H155 H 0.43546 0.80091 0.96715 0.0
H156 H 0.43204 0.84288 0.01265 0.0
H157 H 0.14047 0.66303 0.94845 0.0
H158 H 0.2018 0.65941 0.91495 0.0
H159 H 0.21488 0.63246 0.96453 0.0
H160 H 0.42089 0.65814 0.87771 0.0
H161 H 0.42544 0.58403 -0.00678 0.0
H162 H 0.36003 0.77736 0.90026 0.0
H163 H 0.28307 0.72976 0.88476 0.0
H164 H 0.35342 0.7263 0.85814 0.0
H165 H 0.37302 0.68831 0.04603 0.0
H166 H 0.36593 0.61248 0.04382 0.0
H167 H 0.29398 0.64574 0.0268 0.0
C168 C 0.86075 0.83545 0.03193 0.0
C169 C 0.88234 0.8486 -0.00513 0.0
C170 C 0.8081 0.7911 0.03371 0.0
C171 C 0.77502 0.76017 -0.00274 0.0
C172 C 0.79799 0.77243 0.95976 0.0
C173 C 0.85201 0.81651 0.95906 0.0
C174 C 0.7862 0.77887 0.07448 0.0
C175 C 0.76336 0.74114 0.92022 0.0
C176 C 0.66274 0.62552 0.01642 0.0
C177 C 0.60288 0.64604 0.01968 0.0
C178 C 0.71854 0.66129 0.00637 0.0
C179 C 0.71352 0.71828 -0.00131 0.0
C180 C 0.65106 0.7373 -0.0016 0.0
C181 C 0.59683 0.70109 0.00961 0.0
C182 C 0.78418 0.63936 0.00747 0.0
C183 C 0.64268 0.79708 0.98905 0.0
H184 H 0.88433 0.86081 0.05949 0.0
H185 H 0.86849 0.82754 0.93036 0.0
H186 H 0.73543 0.78991 0.07477 0.0
H187 H 0.783 0.73318 0.07956 0.0
H188 H 0.8211 0.80315 0.10026 0.0
H189 H 0.79195 0.75101 0.89465 0.0
H190 H 0.75616 0.69488 0.92347 0.0
H191 H 0.71278 0.75298 0.9122 0.0
H192 H 0.66743 0.58281 0.02443 0.0
H193 H 0.55011 0.71633 0.01196 0.0
H194 H 0.81824 0.65636 0.03593 0.0
H195 H 0.80945 0.65369 0.98143 0.0
H196 H 0.77708 0.59249 0.00682 0.0
H197 H 0.66905 0.82637 0.01506 0.0
H198 H 0.58898 0.80239 0.98376 0.0
H199 H 0.6654 0.80959 0.96169 0.0
C200 C 0.79044 0.19938 0.04889 0.0
C201 C 0.8113 0.1707 0.01668 0.0
C202 C 0.76004 0.24763 0.04239 0.0
C203 C 0.74928 0.26708 0.00258 0.0
C204 C 0.77022 0.23821 0.96994 0.0
C205 C 0.80147 0.19068 0.97748 0.0
C206 C 0.73971 0.27791 0.07807 0.0
C207 C 0.75892 0.25715 0.92692 0.0
C208 C 0.61577 0.35724 0.96963 0.0
C209 C 0.65538 0.40941 0.96639 0.0
C210 C 0.64536 0.31095 0.98344 0.0
C211 C 0.71606 0.31751 -0.00536 0.0
C212 C 0.75552 0.37144 -0.00574 0.0
C213 C 0.72471 0.41667 0.97961 0.0
C214 C 0.60152 0.25415 0.98303 0.0
C215 C 0.83076 0.38059 0.0068 0.0
H216 H 0.7988 0.18446 0.07935 0.0
H217 H 0.81688 0.16825 0.95249 0.0
H218 H 0.76491 0.32257 0.08124 0.0
H219 H 0.6848 0.27823 0.07264 0.0
H220 H 0.75266 0.25796 0.10725 0.0
H221 H 0.77721 0.22956 0.90488 0.0
H222 H 0.70457 0.2572 0.91689 0.0
H223 H 0.78514 0.301 0.92587 0.0
H224 H 0.56224 0.35169 0.95871 0.0
H225 H 0.75515 0.45709 0.97664 0.0
H226 H 0.61319 0.23413 0.01225 0.0
H227 H 0.61177 0.22577 0.95837 0.0
H228 H 0.5472 0.25734 0.97777 0.0
H229 H 0.84424 0.36114 0.03607 0.0
H230 H 0.85268 0.42614 0.01023 0.0
H231 H 0.85405 0.3599 0.98338 0.0
C232 C 0.72778 0.66091 0.48924 0.0
C233 C 0.6663 0.66054 0.50355 0.0
C234 C 0.77563 0.71034 0.49276 0.0
C235 C 0.76205 0.76021 0.51164 0.0
C236 C 0.69919 0.7605 0.52489 0.0
C237 C 0.65192 0.71078 0.52043 0.0
C238 C 0.84157 0.70867 0.4776 0.0
C239 C 0.68299 0.81265 0.5456 0.0
C240 C 0.90091 0.86531 0.573 0.0
C241 C 0.90154 0.91236 0.54916 0.0
C242 C 0.85816 0.81451 0.56006 0.0
C243 C 0.81571 0.81025 0.52194 0.0
C244 C 0.82026 0.85603 0.49613 0.0
C245 C 0.86314 0.90688 0.51016 0.0
C246 C 0.85513 0.76683 0.58857 0.0
C247 C 0.77698 0.85252 0.45485 0.0
H248 H 0.73889 0.62238 0.47567 0.0
H249 H 0.60444 0.71089 0.53138 0.0
H250 H 0.85387 0.74533 0.45911 0.0
H251 H 0.88251 0.71154 0.50397 0.0
H252 H 0.84081 0.6692 0.45889 0.0
H253 H 0.63043 0.8069 0.55188 0.0
H254 H 0.71737 0.82333 0.57496 0.0
H255 H 0.69087 0.84918 0.52637 0.0
H256 H 0.9318 0.86916 0.60281 0.0
H257 H 0.86387 0.94315 0.49161 0.0
H258 H 0.86036 0.72688 0.57245 0.0
H259 H 0.80553 0.76024 0.59916 0.0
H260 H 0.89492 0.77545 0.61576 0.0
H261 H 0.7768 0.81166 0.43809 0.0
H262 H 0.7943 0.88749 0.43597 0.0
H263 H 0.72442 0.85483 0.45888 0.0
C264 C 0.82246 0.35547 0.47525 0.0
C265 C 0.75382 0.34734 0.47819 0.0
C266 C 0.85716 0.3097 0.47336 0.0
C267 C 0.82238 0.25413 0.4744 0.0
C268 C 0.7542 0.2458 0.48031 0.0
C269 C 0.72062 0.29265 0.4822 0.0
C270 C 0.92999 0.32073 0.4675 0.0
C271 C 0.7156 0.18728 0.48204 0.0
C272 C 0.89064 0.14813 0.4115 0.0
C273 C 0.93306 0.12543 0.44111 0.0
C274 C 0.85165 0.18789 0.4222 0.0
C275 C 0.8553 0.20546 0.46382 0.0
C276 C 0.89593 0.18061 0.49421 0.0
C277 C 0.93463 0.1409 0.48247 0.0
C278 C 0.80912 0.21314 0.38873 0.0
C279 C 0.90099 0.19775 0.53889 0.0
H280 H 0.8486 0.39784 0.47307 0.0
H281 H 0.66759 0.28622 0.4845 0.0
H282 H 0.96055 0.29768 0.4895 0.0
H283 H 0.93458 0.305 0.43634 0.0
H284 H 0.9514 0.36638 0.47139 0.0
H285 H 0.66688 0.18826 0.49301 0.0
H286 H 0.7054 0.16571 0.4511 0.0
H287 H 0.74554 0.16165 0.50235 0.0
H288 H 0.8897 0.13582 0.37964 0.0
H289 H 0.96726 0.12331 0.50549 0.0
H290 H 0.82944 0.25856 0.3875 0.0
H291 H 0.75691 0.21029 0.39515 0.0
H292 H 0.80785 0.19181 0.35828 0.0
H293 H 0.9308 0.24069 0.54537 0.0
H294 H 0.92569 0.16833 0.55879 0.0
H295 H 0.85046 0.19943 0.54702 0.0
C296 C 0.33581 0.37604 0.49134 0.0
C297 C 0.40416 0.37167 0.49459 0.0
C298 C 0.28816 0.32997 0.49784 0.0
C299 C 0.30931 0.27819 0.50811 0.0
C300 C 0.37753 0.27232 0.50877 0.0
C301 C 0.42428 0.31921 0.5019 0.0
C302 C 0.21587 0.338 0.49645 0.0
C303 C 0.40191 0.21768 0.51936 0.0
C304 C 0.20619 0.19876 0.57997 0.0
C305 C 0.16237 0.1585 0.55351 0.0
C306 C 0.25599 0.2364 0.56576 0.0
C307 C 0.26192 0.2337 0.52376 0.0
C308 C 0.21891 0.19172 0.49691 0.0
C309 C 0.16935 0.15452 0.51213 0.0
C310 C 0.30068 0.28039 0.59553 0.0
C311 C 0.22364 0.18733 0.45199 0.0
H312 H 0.31966 0.41624 0.48512 0.0
H313 H 0.47697 0.31546 0.50429 0.0
H314 H 0.18164 0.30277 0.47805 0.0
H315 H 0.20312 0.33781 0.52782 0.0
H316 H 0.20621 0.37844 0.48338 0.0
H317 H 0.45353 0.21713 0.51255 0.0
H318 H 0.40215 0.21189 0.5524 0.0
H319 H 0.36766 0.18124 0.50238 0.0
H320 H 0.20039 0.20132 0.6119 0.0
H321 H 0.13552 0.12331 0.49161 0.0
H322 H 0.29103 0.32313 0.58743 0.0
H323 H 0.35427 0.27887 0.5938 0.0
H324 H 0.29223 0.27452 0.62752 0.0
H325 H 0.206 0.22417 0.43722 0.0
H326 H 0.19272 0.14817 0.43637 0.0
H327 H 0.27655 0.18818 0.4474 0.0
C328 C 0.32081 0.71299 0.48051 0.0
C329 C 0.33654 0.69425 0.51965 0.0
C330 C 0.28885 0.76036 0.47449 0.0
C331 C 0.27371 0.79039 0.5086 0.0
C332 C 0.29105 0.77243 0.54834 0.0
C333 C 0.32163 0.7241 0.55334 0.0
C334 C 0.27017 0.77761 0.43151 0.0
C335 C 0.27726 0.80419 0.58546 0.0
C336 C 0.24201 0.93718 0.48327 0.0
C337 C 0.17194 0.92827 0.47379 0.0
C338 C 0.27592 0.89371 0.49801 0.0
C339 C 0.23862 0.83991 0.50212 0.0
C340 C 0.16748 0.83205 0.49508 0.0
C341 C 0.13491 0.87666 0.48121 0.0
C342 C 0.3517 0.90421 0.50621 0.0
C343 C 0.12584 0.77524 0.49864 0.0
H344 H 0.33184 0.68953 0.45451 0.0
H345 H 0.33465 0.70988 0.58366 0.0
H346 H 0.21517 0.7772 0.42473 0.0
H347 H 0.29511 0.82134 0.42843 0.0
H348 H 0.28467 0.74926 0.40833 0.0
H349 H 0.2963 0.78598 0.61435 0.0
H350 H 0.30112 0.84908 0.58627 0.0
H351 H 0.22246 0.80358 0.58383 0.0
H352 H 0.27032 0.97714 0.47701 0.0
H353 H 0.08066 0.86986 0.47314 0.0
H354 H 0.37136 0.8833 0.48122 0.0
H355 H 0.37037 0.88592 0.53508 0.0
H356 H 0.37242 0.94998 0.50811 0.0
H357 H 0.13193 0.74563 0.47349 0.0
H358 H 0.07159 0.77786 0.49686 0.0
H359 H 0.14315 0.75704 0.52779 0.0
C360 C 1.01053 0.97579 0.14302 0.0
C361 C 0.06159 0.97346 0.11934 0.0
C362 C 0.02386 0.97635 0.18556 0.0
C363 C 0.09021 0.97543 0.20497 0.0
C364 C 0.14178 0.97139 0.18122 0.0
C365 C 0.12667 0.96995 0.13843 0.0
C366 C 0.96715 0.97953 0.20974 0.0
C367 C 0.21314 0.97076 0.20103 0.0
C368 C 0.12059 0.04024 0.313 0.0
C369 C 0.11112 0.99213 0.33537 0.0
C370 C 0.11823 0.0353 0.27057 0.0
C371 C 0.10506 0.98096 0.25017 0.0
C372 C 0.09801 0.93224 0.27286 0.0
C373 C 0.10138 0.93844 0.3153 0.0
C374 C 0.12674 0.08822 0.24738 0.0
C375 C 0.08299 0.87365 0.25215 0.0
H376 H 0.95994 0.97781 0.12822 0.0
H377 H 0.16617 0.9684 0.12006 0.0
H378 H 0.96402 0.94495 0.231 0.0
H379 H 0.97688 0.02002 0.22846 0.0
H380 H 0.91777 0.97655 0.18982 0.0
H381 H 0.24636 0.96366 0.17831 0.0
H382 H 0.23345 0.01169 0.21836 0.0
H383 H 0.21474 0.9373 0.22316 0.0
H384 H 0.12894 0.08172 0.32867 0.0
H385 H 0.09355 0.90119 0.33261 0.0
H386 H 0.07805 0.09264 0.22891 0.0
H387 H 0.16323 0.08553 0.22597 0.0
H388 H 0.14424 0.12677 0.26806 0.0
H389 H 0.03145 0.86661 0.23456 0.0
H390 H 0.08649 0.84034 0.27438 0.0
H391 H 0.1181 0.86901 0.23018 0.0
C392 C 0.97676 0.97437 0.85225 0.0
C393 C 0.96583 0.01443 0.88112 0.0
C394 C 0.96856 0.9844 0.8107 0.0
C395 C 0.95078 0.03645 0.79795 0.0
C396 C 0.93809 0.07659 0.8269 0.0
C397 C 0.94505 0.06476 0.86828 0.0
C398 C 0.98088 0.93988 0.7806 0.0
C399 C 0.92045 0.13296 0.81451 0.0
C400 C 0.01306 0.06859 0.69867 0.0
C401 C 0.95546 0.04826 0.67029 0.0
C402 C 1.01069 0.07005 0.74065 0.0
C403 C 0.94971 0.04934 0.75454 0.0
C404 C 0.89032 0.03311 0.72614 0.0
C405 C 0.89375 0.03357 0.68429 0.0
C406 C 0.07476 0.08928 0.77011 0.0
C407 C 0.82438 0.01053 0.73976 0.0
H408 H 0.99228 0.93525 0.86224 0.0
H409 H 0.93712 0.09594 0.89076 0.0
H410 H 0.93769 0.93036 0.75546 0.0
H411 H 0.02596 0.95583 0.76678 0.0
H412 H 0.98884 0.90001 0.79512 0.0
H413 H 0.90444 0.15654 0.83979 0.0
H414 H 0.96493 0.15895 0.80517 0.0
H415 H 0.87973 0.12742 0.78787 0.0
H416 H 0.06112 0.07988 0.68841 0.0
H417 H 0.84858 0.01943 0.66253 0.0
H418 H 0.0936 0.05195 0.78341 0.0
H419 H 0.0655 0.11666 0.79563 0.0
H420 H 0.11462 0.11281 0.75491 0.0
H421 H 0.82625 0.96748 0.75049 0.0
H422 H 0.78133 0.00804 0.71463 0.0
H423 H 0.81528 0.03724 0.76567 0.0
C424 C 0.53561 0.50183 0.64111 0.0
C425 C 0.58692 0.49901 0.61766 0.0
C426 C 0.54753 0.49958 0.68351 0.0
C427 C 0.61281 0.49531 0.70319 0.0
C428 C 0.66491 0.49187 0.67975 0.0
C429 C 0.65115 0.4932 0.637 0.0
C430 C 0.49015 0.50218 0.70726 0.0
C431 C 0.73524 0.48799 0.69988 0.0
C432 C 0.63638 0.54571 0.81447 0.0
C433 C 0.6219 0.49465 0.83289 0.0
C434 C 0.63889 0.54636 0.77246 0.0
C435 C 0.62532 0.49476 0.74839 0.0
C436 C 0.61392 0.44298 0.76725 0.0
C437 C 0.61267 0.44357 0.80937 0.0
C438 C 0.65221 0.60239 0.75351 0.0
C439 C 0.59816 0.38713 0.74261 0.0
H440 H 0.48564 0.50567 0.62621 0.0
H441 H 0.6909 0.49128 0.61888 0.0
H442 H 0.48353 0.46487 0.72589 0.0
H443 H 0.50162 0.5403 0.72856 0.0
H444 H 0.44192 0.50349 0.68707 0.0
H445 H 0.76968 0.48422 0.67728 0.0
H446 H 0.75557 0.52615 0.72046 0.0
H447 H 0.73468 0.45103 0.71899 0.0
H448 H 0.64428 0.58517 0.8328 0.0
H449 H 0.60094 0.40403 0.82356 0.0
H450 H 0.60501 0.61119 0.73552 0.0
H451 H 0.68921 0.60119 0.73225 0.0
H452 H 0.67134 0.63772 0.77689 0.0
H453 H 0.54747 0.38316 0.72416 0.0
H454 H 0.59899 0.35073 0.7623 0.0
H455 H 0.6345 0.38478 0.72108 0.0
C456 C 0.45801 0.58036 0.36407 0.0
C457 C 0.48184 0.53198 0.37864 0.0
C458 C 0.44621 0.58798 0.322 0.0
C459 C 0.45713 0.54556 0.29416 0.0
C460 C 0.47873 0.49571 0.30883 0.0
C461 C 0.49165 0.48988 0.35092 0.0
C462 C 0.42466 0.64216 0.3075 0.0
C463 C 0.48951 0.44887 0.28008 0.0
C464 C 0.38481 0.52826 0.18209 0.0
C465 C 0.44316 0.54201 0.16434 0.0
C466 C 0.38731 0.53296 0.22455 0.0
C467 C 0.44923 0.55346 0.24967 0.0
C468 C 0.50648 0.57334 0.2317 0.0
C469 C 0.50302 0.56675 0.18928 0.0
C470 C 0.32515 0.51113 0.24252 0.0
C471 C 0.57304 0.597 0.25745 0.0
H472 H 0.4509 0.61314 0.38559 0.0
H473 H 0.50952 0.45225 0.36219 0.0
H474 H 0.46577 0.66702 0.29412 0.0
H475 H 0.38028 0.63312 0.28317 0.0
H476 H 0.4123 0.66848 0.33268 0.0
H477 H 0.50183 0.4113 0.29635 0.0
H478 H 0.44379 0.43565 0.25714 0.0
H479 H 0.53124 0.46427 0.26327 0.0
H480 H 0.33782 0.51075 0.16297 0.0
H481 H 0.54858 0.57742 0.17614 0.0
H482 H 0.31851 0.54033 0.26771 0.0
H483 H 0.33064 0.46986 0.25552 0.0
H484 H 0.27913 0.50507 0.21925 0.0
H485 H 0.56604 0.62652 0.28237 0.0
H486 H 0.60887 0.61953 0.23903 0.0
H487 H 0.59578 0.56201 0.27176 0.0
loop_
_geom_bond_atom_site_label_1
_geom_bond_atom_site_label_2
_geom_bond_distance
_geom_bond_site_symmetry_2
_ccdc_geom_bond_type
Co0 N5 2.057 . S
Co0 O17 2.021 . S
Co0 O20 2.062 1_455 S
Co0 O24 2.117 1_554 S
Co0 O25 2.020 1_565 S
C1 O21 1.259 1_455 S
C1 O24 1.258 1_545 S
Co2 N11 2.057 . S
Co2 O18 2.117 . S
Co2 O19 2.020 1_545 S
Co2 O21 2.021 1_554 S
Co2 O26 2.062 1_655 S
C3 N5 1.316 . S
C3 N6 1.347 . S
C3 H8 0.931 . S
C4 N5 1.375 1_556 S
C4 C7 1.350 . S
C4 H9 0.930 . S
N5 Co0 2.057 . S
N5 C3 1.316 . S
N5 C4 1.375 1_554 S
N6 C3 1.347 . S
N6 C7 1.373 1_554 S
C7 C4 1.350 . S
C7 N6 1.373 1_556 S
C7 H28 0.931 . S
H8 C3 0.931 . S
H9 C4 0.930 . S
C10 O17 1.259 1_545 S
C10 O18 1.258 1_455 S
N11 Co2 2.057 . S
N11 C12 1.316 1_554 S
N11 C13 1.375 . S
C12 N11 1.316 1_556 S
C12 N14 1.347 1_556 S
C12 H23 0.931 . S
C13 N11 1.375 . S
C13 C15 1.350 . S
C13 H22 0.930 . S
N14 C12 1.347 1_554 S
N14 C15 1.373 . S
C15 C13 1.350 . S
C15 N14 1.373 . S
C15 H29 0.931 . S
C16 O19 1.256 . S
C16 O20 1.255 . S
O17 Co0 2.021 . S
O17 C10 1.259 1_565 S
O18 Co2 2.117 . S
O18 C10 1.258 1_655 S
O19 Co2 2.020 1_565 S
O19 C16 1.256 . S
O20 Co0 2.062 1_655 S
O20 C16 1.255 . S
O21 C1 1.259 1_655 S
O21 Co2 2.021 1_556 S
H22 C13 0.930 . S
H23 C12 0.931 . S
O24 Co0 2.117 1_556 S
O24 C1 1.258 1_565 S
O25 Co0 2.020 1_545 S
O25 C27 1.256 . S
O26 Co2 2.062 1_455 S
O26 C27 1.255 . S
C27 O25 1.256 . S
C27 O26 1.255 . S
H28 C7 0.931 . S
H29 C15 0.931 . S
Co30 N35 2.057 . S
Co30 O47 2.021 . S
Co30 O50 2.062 . S
Co30 O54 2.117 . S
Co30 O55 2.020 . S
C31 O51 1.259 . S
C31 O54 1.258 . S
Co32 N41 2.057 . S
Co32 O48 2.117 . S
Co32 O49 2.020 . S
Co32 O51 2.021 . S
Co32 O56 2.062 . S
C33 N35 1.316 . S
C33 N36 1.347 . S
C33 H38 0.931 . S
C34 N35 1.375 . S
C34 C37 1.350 . S
C34 H39 0.930 . S
N35 Co30 2.057 . S
N35 C33 1.316 . S
N35 C34 1.375 . S
N36 C33 1.347 . S
N36 C37 1.373 . S
C37 C34 1.350 . S
C37 N36 1.373 . S
C37 H58 0.931 . S
H38 C33 0.931 . S
H39 C34 0.930 . S
C40 O47 1.259 . S
C40 O48 1.258 . S
N41 Co32 2.057 . S
N41 C42 1.316 . S
N41 C43 1.375 . S
C42 N41 1.316 . S
C42 N44 1.347 . S
C42 H53 0.931 . S
C43 N41 1.375 . S
C43 C45 1.350 . S
C43 H52 0.930 . S
N44 C42 1.347 . S
N44 C45 1.373 . S
C45 C43 1.350 . S
C45 N44 1.373 . S
C45 H59 0.931 . S
C46 O49 1.256 . S
C46 O50 1.255 . S
O47 Co30 2.021 . S
O47 C40 1.259 . S
O48 Co32 2.117 . S
O48 C40 1.258 . S
O49 Co32 2.020 . S
O49 C46 1.256 . S
O50 Co30 2.062 . S
O50 C46 1.255 . S
O51 C31 1.259 . S
O51 Co32 2.021 . S
H52 C43 0.930 . S
H53 C42 0.931 . S
O54 Co30 2.117 . S
O54 C31 1.258 . S
O55 Co30 2.020 . S
O55 C57 1.256 . S
O56 Co32 2.062 . S
O56 C57 1.255 . S
C57 O55 1.256 . S
C57 O56 1.255 . S
H58 C37 0.931 . S
H59 C45 0.931 . S
H60 C65 0.929 . S
H61 C70 0.931 . S
H62 C68 0.930 1_655 S
N63 N64 1.234 . S
N63 C67 1.453 1_655 S
N64 N63 1.234 . S
C65 H60 0.929 . S
C65 C66 1.373 . S
C65 C67 1.368 1_565 S
C66 C65 1.373 . S
C66 C70 1.397 . S
C67 N63 1.453 1_455 S
C67 C65 1.368 1_545 S
C67 C68 1.373 . S
C68 H62 0.930 1_455 S
C68 C67 1.373 . S
C68 C69 1.371 1_545 S
C69 C68 1.371 1_565 S
C69 C70 1.383 . S
C70 H61 0.931 . S
C70 C66 1.397 . S
C70 C69 1.383 . S
H71 C76 0.929 . S
H72 C81 0.931 . S
H73 C79 0.930 . S
N74 N75 1.234 . S
N74 C78 1.453 . S
N75 N74 1.234 . S
C76 H71 0.929 . S
C76 C77 1.373 . S
C76 C78 1.368 1_665 S
C77 C76 1.373 . S
C77 C81 1.397 . S
C78 N74 1.453 . S
C78 C76 1.368 1_445 S
C78 C79 1.373 . S
C79 H73 0.930 . S
C79 C78 1.373 . S
C79 C80 1.371 1_455 S
C80 C79 1.371 1_655 S
C80 C81 1.383 1_545 S
C81 H72 0.931 . S
C81 C77 1.397 . S
C81 C80 1.383 1_565 S
H82 C87 0.929 1_554 S
H83 C92 0.931 . S
H84 C90 0.930 . S
N85 N86 1.234 . S
N85 C89 1.453 . S
N86 N85 1.234 . S
C87 H82 0.929 1_556 S
C87 C88 1.373 . S
C87 C89 1.368 . S
C88 C87 1.373 . S
C88 C92 1.397 . S
C89 N85 1.453 . S
C89 C87 1.368 . S
C89 C90 1.373 . S
C90 H84 0.930 . S
C90 C89 1.373 . S
C90 C91 1.371 . S
C91 C90 1.371 . S
C91 C92 1.383 . S
C92 H83 0.931 . S
C92 C88 1.397 . S
C92 C91 1.383 . S
H93 C98 0.929 . S
H94 C103 0.931 . S
H95 C101 0.930 . S
N96 N97 1.234 . S
N96 C100 1.453 . S
N97 N96 1.234 . S
C98 H93 0.929 . S
C98 C99 1.373 . S
C98 C100 1.368 . S
C99 C98 1.373 . S
C99 C103 1.397 . S
C100 N96 1.453 . S
C100 C98 1.368 . S
C100 C101 1.373 . S
C101 H95 0.930 . S
C101 C100 1.373 . S
C101 C102 1.371 . S
C102 C101 1.371 . S
C102 C103 1.383 . S
C103 H94 0.931 . S
C103 C99 1.397 . S
C103 C102 1.383 . S
C104 C105 1.391 . S
C104 C106 1.394 . S
C104 H120 0.931 . S
C105 C104 1.391 . S
C105 C109 1.376 . S
C106 C104 1.394 . S
C106 C107 1.369 . S
C106 C110 1.531 . S
C107 C106 1.369 . S
C107 C108 1.410 . S
C107 C115 1.503 . S
C108 C107 1.410 . S
C108 C109 1.392 . S
C108 C111 1.511 1_554 S
C109 C105 1.376 . S
C109 C108 1.392 . S
C109 H121 0.929 1_554 S
C110 C106 1.531 . S
C110 H122 0.960 . S
C110 H123 0.962 . S
C110 H124 0.960 . S
C111 C108 1.511 1_556 S
C111 H125 0.961 . S
C111 H126 0.961 . S
C111 H127 0.961 1_556 S
C112 C113 1.370 . S
C112 C114 1.363 . S
C112 H128 0.931 1_554 S
C113 C112 1.370 . S
C113 C117 1.408 . S
C114 C112 1.363 . S
C114 C115 1.370 . S
C114 C118 1.524 1_554 S
C115 C107 1.503 . S
C115 C114 1.370 . S
C115 C116 1.403 . S
C116 C115 1.403 . S
C116 C117 1.404 . S
C116 C119 1.539 . S
C117 C113 1.408 . S
C117 C116 1.404 . S
C117 H129 0.930 . S
C118 C114 1.524 1_556 S
C118 H130 0.956 . S
C118 H131 0.961 . S
C118 H132 0.961 . S
C119 C116 1.539 . S
C119 H133 0.958 . S
C119 H134 0.961 . S
C119 H135 0.960 . S
H120 C104 0.931 . S
H121 C109 0.929 1_556 S
H122 C110 0.960 . S
H123 C110 0.962 . S
H124 C110 0.960 . S
H125 C111 0.961 . S
H126 C111 0.961 . S
H127 C111 0.961 1_554 S
H128 C112 0.931 1_556 S
H129 C117 0.930 . S
H130 C118 0.956 . S
H131 C118 0.961 . S
H132 C118 0.961 . S
H133 C119 0.958 . S
H134 C119 0.961 . S
H135 C119 0.960 . S
C136 C137 1.391 . S
C136 C138 1.394 . S
C136 H152 0.931 . S
C137 C136 1.391 . S
C137 C141 1.376 1_554 S
C138 C136 1.394 . S
C138 C139 1.369 . S
C138 C142 1.531 . S
C139 C138 1.369 . S
C139 C140 1.410 1_554 S
C139 C147 1.503 . S
C140 C139 1.410 1_556 S
C140 C141 1.392 . S
C140 C143 1.511 . S
C141 C137 1.376 1_556 S
C141 C140 1.392 . S
C141 H153 0.929 . S
C142 C138 1.531 . S
C142 H154 0.960 . S
C142 H155 0.962 . S
C142 H156 0.960 . S
C143 C140 1.511 . S
C143 H157 0.961 . S
C143 H158 0.961 . S
C143 H159 0.961 . S
C144 C145 1.370 . S
C144 C146 1.363 . S
C144 H160 0.931 . S
C145 C144 1.370 . S
C145 C149 1.408 1_556 S
C146 C144 1.363 . S
C146 C147 1.370 1_556 S
C146 C150 1.524 . S
C147 C139 1.503 . S
C147 C146 1.370 1_554 S
C147 C148 1.403 . S
C148 C147 1.403 . S
C148 C149 1.404 . S
C148 C151 1.539 . S
C149 C145 1.408 1_554 S
C149 C148 1.404 . S
C149 H161 0.930 . S
C150 C146 1.524 . S
C150 H162 0.956 . S
C150 H163 0.961 . S
C150 H164 0.961 . S
C151 C148 1.539 . S
C151 H165 0.958 . S
C151 H166 0.961 . S
C151 H167 0.960 . S
H152 C136 0.931 . S
H153 C141 0.929 . S
H154 C142 0.960 . S
H155 C142 0.962 . S
H156 C142 0.960 . S
H157 C143 0.961 . S
H158 C143 0.961 . S
H159 C143 0.961 . S
H160 C144 0.931 . S
H161 C149 0.930 . S
H162 C150 0.956 . S
H163 C150 0.961 . S
H164 C150 0.961 . S
H165 C151 0.958 . S
H166 C151 0.961 . S
H167 C151 0.960 . S
C168 C169 1.391 . S
C168 C170 1.394 . S
C168 H184 0.931 . S
C169 C168 1.391 . S
C169 C173 1.376 1_554 S
C170 C168 1.394 . S
C170 C171 1.369 . S
C170 C174 1.531 . S
C171 C170 1.369 . S
C171 C172 1.410 1_554 S
C171 C179 1.503 . S
C172 C171 1.410 1_556 S
C172 C173 1.392 . S
C172 C175 1.511 . S
C173 C169 1.376 1_556 S
C173 C172 1.392 . S
C173 H185 0.929 . S
C174 C170 1.531 . S
C174 H186 0.960 . S
C174 H187 0.962 . S
C174 H188 0.960 . S
C175 C172 1.511 . S
C175 H189 0.961 . S
C175 H190 0.961 . S
C175 H191 0.961 . S
C176 C177 1.370 . S
C176 C178 1.363 . S
C176 H192 0.931 . S
C177 C176 1.370 . S
C177 C181 1.408 1_554 S
C178 C176 1.363 . S
C178 C179 1.370 . S
C178 C182 1.524 . S
C179 C171 1.503 . S
C179 C178 1.370 . S
C179 C180 1.403 1_554 S
C180 C179 1.403 1_556 S
C180 C181 1.404 . S
C180 C183 1.539 . S
C181 C177 1.408 1_556 S
C181 C180 1.404 . S
C181 H193 0.930 . S
C182 C178 1.524 . S
C182 H194 0.956 . S
C182 H195 0.961 . S
C182 H196 0.961 . S
C183 C180 1.539 . S
C183 H197 0.958 . S
C183 H198 0.961 . S
C183 H199 0.960 . S
H184 C168 0.931 . S
H185 C173 0.929 . S
H186 C174 0.960 . S
H187 C174 0.962 . S
H188 C174 0.960 . S
H189 C175 0.961 . S
H190 C175 0.961 . S
H191 C175 0.961 . S
H192 C176 0.931 . S
H193 C181 0.930 . S
H194 C182 0.956 . S
H195 C182 0.961 . S
H196 C182 0.961 . S
H197 C183 0.958 . S
H198 C183 0.961 . S
H199 C183 0.960 . S
C200 C201 1.391 1_554 S
C200 C202 1.394 . S
C200 H216 0.931 . S
C201 C200 1.391 1_556 S
C201 C205 1.376 . S
C202 C200 1.394 . S
C202 C203 1.369 1_554 S
C202 C206 1.531 . S
C203 C202 1.369 1_556 S
C203 C204 1.410 . S
C203 C211 1.503 . S
C204 C203 1.410 . S
C204 C205 1.392 . S
C204 C207 1.511 . S
C205 C201 1.376 . S
C205 C204 1.392 . S
C205 H217 0.929 . S
C206 C202 1.531 . S
C206 H218 0.960 . S
C206 H219 0.962 . S
C206 H220 0.960 . S
C207 C204 1.511 . S
C207 H221 0.961 . S
C207 H222 0.961 . S
C207 H223 0.961 . S
C208 C209 1.370 . S
C208 C210 1.363 . S
C208 H224 0.931 . S
C209 C208 1.370 . S
C209 C213 1.408 . S
C210 C208 1.363 . S
C210 C211 1.370 . S
C210 C214 1.524 . S
C211 C203 1.503 . S
C211 C210 1.370 . S
C211 C212 1.403 . S
C212 C211 1.403 . S
C212 C213 1.404 . S
C212 C215 1.539 1_556 S
C213 C209 1.408 . S
C213 C212 1.404 . S
C213 H225 0.930 1_556 S
C214 C210 1.524 . S
C214 H226 0.956 . S
C214 H227 0.961 . S
C214 H228 0.961 . S
C215 C212 1.539 1_554 S
C215 H229 0.958 . S
C215 H230 0.961 . S
C215 H231 0.960 . S
H216 C200 0.931 . S
H217 C205 0.929 . S
H218 C206 0.960 . S
H219 C206 0.962 . S
H220 C206 0.960 . S
H221 C207 0.961 . S
H222 C207 0.961 . S
H223 C207 0.961 . S
H224 C208 0.931 . S
H225 C213 0.930 1_554 S
H226 C214 0.956 . S
H227 C214 0.961 . S
H228 C214 0.961 . S
H229 C215 0.958 . S
H230 C215 0.961 . S
H231 C215 0.960 . S
C232 C233 1.391 . S
C232 C234 1.394 . S
C232 H248 0.931 . S
C233 C232 1.391 . S
C233 C237 1.376 . S
C234 C232 1.394 . S
C234 C235 1.369 . S
C234 C238 1.531 . S
C235 C234 1.369 . S
C235 C236 1.410 . S
C235 C243 1.503 . S
C236 C235 1.410 . S
C236 C237 1.392 . S
C236 C239 1.511 . S
C237 C233 1.376 . S
C237 C236 1.392 . S
C237 H249 0.929 . S
C238 C234 1.531 . S
C238 H250 0.960 . S
C238 H251 0.962 . S
C238 H252 0.960 . S
C239 C236 1.511 . S
C239 H253 0.961 . S
C239 H254 0.961 . S
C239 H255 0.961 . S
C240 C241 1.370 . S
C240 C242 1.363 . S
C240 H256 0.931 . S
C241 C240 1.370 . S
C241 C245 1.408 . S
C242 C240 1.363 . S
C242 C243 1.370 . S
C242 C246 1.524 . S
C243 C235 1.503 . S
C243 C242 1.370 . S
C243 C244 1.403 . S
C244 C243 1.403 . S
C244 C245 1.404 . S
C244 C247 1.539 . S
C245 C241 1.408 . S
C245 C244 1.404 . S
C245 H257 0.930 . S
C246 C242 1.524 . S
C246 H258 0.956 . S
C246 H259 0.961 . S
C246 H260 0.961 . S
C247 C244 1.539 . S
C247 H261 0.958 . S
C247 H262 0.961 . S
C247 H263 0.960 . S
H248 C232 0.931 . S
H249 C237 0.929 . S
H250 C238 0.960 . S
H251 C238 0.962 . S
H252 C238 0.960 . S
H253 C239 0.961 . S
H254 C239 0.961 . S
H255 C239 0.961 . S
H256 C240 0.931 . S
H257 C245 0.930 . S
H258 C246 0.956 . S
H259 C246 0.961 . S
H260 C246 0.961 . S
H261 C247 0.958 . S
H262 C247 0.961 . S
H263 C247 0.960 . S
C264 C265 1.391 . S
C264 C266 1.394 . S
C264 H280 0.931 . S
C265 C264 1.391 . S
C265 C269 1.376 . S
C266 C264 1.394 . S
C266 C267 1.369 . S
C266 C270 1.531 . S
C267 C266 1.369 . S
C267 C268 1.410 . S
C267 C275 1.503 . S
C268 C267 1.410 . S
C268 C269 1.392 . S
C268 C271 1.511 . S
C269 C265 1.376 . S
C269 C268 1.392 . S
C269 H281 0.929 . S
C270 C266 1.531 . S
C270 H282 0.960 . S
C270 H283 0.962 . S
C270 H284 0.960 . S
C271 C268 1.511 . S
C271 H285 0.961 . S
C271 H286 0.961 . S
C271 H287 0.961 . S
C272 C273 1.370 . S
C272 C274 1.363 . S
C272 H288 0.931 . S
C273 C272 1.370 . S
C273 C277 1.408 . S
C274 C272 1.363 . S
C274 C275 1.370 . S
C274 C278 1.524 . S
C275 C267 1.503 . S
C275 C274 1.370 . S
C275 C276 1.403 . S
C276 C275 1.403 . S
C276 C277 1.404 . S
C276 C279 1.539 . S
C277 C273 1.408 . S
C277 C276 1.404 . S
C277 H289 0.930 . S
C278 C274 1.524 . S
C278 H290 0.956 . S
C278 H291 0.961 . S
C278 H292 0.961 . S
C279 C276 1.539 . S
C279 H293 0.958 . S
C279 H294 0.961 . S
C279 H295 0.960 . S
H280 C264 0.931 . S
H281 C269 0.929 . S
H282 C270 0.960 . S
H283 C270 0.962 . S
H284 C270 0.960 . S
H285 C271 0.961 . S
H286 C271 0.961 . S
H287 C271 0.961 . S
H288 C272 0.931 . S
H289 C277 0.930 . S
H290 C278 0.956 . S
H291 C278 0.961 . S
H292 C278 0.961 . S
H293 C279 0.958 . S
H294 C279 0.961 . S
H295 C279 0.960 . S
C296 C297 1.391 . S
C296 C298 1.394 . S
C296 H312 0.931 . S
C297 C296 1.391 . S
C297 C301 1.376 . S
C298 C296 1.394 . S
C298 C299 1.369 . S
C298 C302 1.531 . S
C299 C298 1.369 . S
C299 C300 1.410 . S
C299 C307 1.503 . S
C300 C299 1.410 . S
C300 C301 1.392 . S
C300 C303 1.511 . S
C301 C297 1.376 . S
C301 C300 1.392 . S
C301 H313 0.929 . S
C302 C298 1.531 . S
C302 H314 0.960 . S
C302 H315 0.962 . S
C302 H316 0.960 . S
C303 C300 1.511 . S
C303 H317 0.961 . S
C303 H318 0.961 . S
C303 H319 0.961 . S
C304 C305 1.370 . S
C304 C306 1.363 . S
C304 H320 0.931 . S
C305 C304 1.370 . S
C305 C309 1.408 . S
C306 C304 1.363 . S
C306 C307 1.370 . S
C306 C310 1.524 . S
C307 C299 1.503 . S
C307 C306 1.370 . S
C307 C308 1.403 . S
C308 C307 1.403 . S
C308 C309 1.404 . S
C308 C311 1.539 . S
C309 C305 1.408 . S
C309 C308 1.404 . S
C309 H321 0.930 . S
C310 C306 1.524 . S
C310 H322 0.956 . S
C310 H323 0.961 . S
C310 H324 0.961 . S
C311 C308 1.539 . S
C311 H325 0.958 . S
C311 H326 0.961 . S
C311 H327 0.960 . S
H312 C296 0.931 . S
H313 C301 0.929 . S
H314 C302 0.960 . S
H315 C302 0.962 . S
H316 C302 0.960 . S
H317 C303 0.961 . S
H318 C303 0.961 . S
H319 C303 0.961 . S
H320 C304 0.931 . S
H321 C309 0.930 . S
H322 C310 0.956 . S
H323 C310 0.961 . S
H324 C310 0.961 . S
H325 C311 0.958 . S
H326 C311 0.961 . S
H327 C311 0.960 . S
C328 C329 1.391 . S
C328 C330 1.394 . S
C328 H344 0.931 . S
C329 C328 1.391 . S
C329 C333 1.376 . S
C330 C328 1.394 . S
C330 C331 1.369 . S
C330 C334 1.531 . S
C331 C330 1.369 . S
C331 C332 1.410 . S
C331 C339 1.503 . S
C332 C331 1.410 . S
C332 C333 1.392 . S
C332 C335 1.511 . S
C333 C329 1.376 . S
C333 C332 1.392 . S
C333 H345 0.929 . S
C334 C330 1.531 . S
C334 H346 0.960 . S
C334 H347 0.962 . S
C334 H348 0.960 . S
C335 C332 1.511 . S
C335 H349 0.961 . S
C335 H350 0.961 . S
C335 H351 0.961 . S
C336 C337 1.370 . S
C336 C338 1.363 . S
C336 H352 0.931 . S
C337 C336 1.370 . S
C337 C341 1.408 . S
C338 C336 1.363 . S
C338 C339 1.370 . S
C338 C342 1.524 . S
C339 C331 1.503 . S
C339 C338 1.370 . S
C339 C340 1.403 . S
C340 C339 1.403 . S
C340 C341 1.404 . S
C340 C343 1.539 . S
C341 C337 1.408 . S
C341 C340 1.404 . S
C341 H353 0.930 . S
C342 C338 1.524 . S
C342 H354 0.956 . S
C342 H355 0.961 . S
C342 H356 0.961 . S
C343 C340 1.539 . S
C343 H357 0.958 . S
C343 H358 0.961 . S
C343 H359 0.960 . S
H344 C328 0.931 . S
H345 C333 0.929 . S
H346 C334 0.960 . S
H347 C334 0.962 . S
H348 C334 0.960 . S
H349 C335 0.961 . S
H350 C335 0.961 . S
H351 C335 0.961 . S
H352 C336 0.931 . S
H353 C341 0.930 . S
H354 C342 0.956 . S
H355 C342 0.961 . S
H356 C342 0.961 . S
H357 C343 0.958 . S
H358 C343 0.961 . S
H359 C343 0.960 . S
C360 C361 1.391 1_655 S
C360 C362 1.394 . S
C360 H376 0.931 . S
C361 C360 1.391 1_455 S
C361 C365 1.376 1_565 S
C362 C360 1.394 . S
C362 C363 1.369 1_655 S
C362 C366 1.531 . S
C363 C362 1.369 1_455 S
C363 C364 1.410 . S
C363 C371 1.503 . S
C364 C363 1.410 . S
C364 C365 1.392 1_565 S
C364 C367 1.511 1_565 S
C365 C361 1.376 1_545 S
C365 C364 1.392 1_545 S
C365 H377 0.929 . S
C366 C362 1.531 . S
C366 H378 0.960 . S
C366 H379 0.962 . S
C366 H380 0.960 . S
C367 C364 1.511 1_545 S
C367 H381 0.961 . S
C367 H382 0.961 . S
C367 H383 0.961 1_545 S
C368 C369 1.370 1_545 S
C368 C370 1.363 . S
C368 H384 0.931 . S
C369 C368 1.370 1_565 S
C369 C373 1.408 . S
C370 C368 1.363 . S
C370 C371 1.370 1_545 S
C370 C374 1.524 . S
C371 C363 1.503 . S
C371 C370 1.370 1_565 S
C371 C372 1.403 . S
C372 C371 1.403 . S
C372 C373 1.404 . S
C372 C375 1.539 . S
C373 C369 1.408 . S
C373 C372 1.404 . S
C373 H385 0.930 . S
C374 C370 1.524 . S
C374 H386 0.956 1_455 S
C374 H387 0.961 . S
C374 H388 0.961 . S
C375 C372 1.539 . S
C375 H389 0.958 1_455 S
C375 H390 0.961 . S
C375 H391 0.960 . S
H376 C360 0.931 . S
H377 C365 0.929 . S
H378 C366 0.960 . S
H379 C366 0.962 . S
H380 C366 0.960 . S
H381 C367 0.961 . S
H382 C367 0.961 . S
H383 C367 0.961 1_565 S
H384 C368 0.931 . S
H385 C373 0.930 . S
H386 C374 0.956 1_655 S
H387 C374 0.961 . S
H388 C374 0.961 . S
H389 C375 0.958 1_655 S
H390 C375 0.961 . S
H391 C375 0.960 . S
C392 C393 1.391 1_465 S
C392 C394 1.394 . S
C392 H408 0.931 . S
C393 C392 1.391 1_645 S
C393 C397 1.376 . S
C394 C392 1.394 . S
C394 C395 1.379 1_455 S
C394 C398 1.531 . S
C395 C394 1.379 1_655 S
C395 C396 1.399 1_565 S
C395 C403 1.503 1_565 S
C396 C395 1.399 1_545 S
C396 C397 1.392 . S
C396 C399 1.511 . S
C397 C393 1.376 . S
C397 C396 1.392 . S
C397 H409 0.929 . S
C398 C394 1.531 . S
C398 H410 0.960 1_455 S
C398 H411 0.962 . S
C398 H412 0.960 . S
C399 C396 1.511 . S
C399 H413 0.961 . S
C399 H414 0.961 . S
C399 H415 0.961 . S
C400 C401 1.370 1_455 S
C400 C402 1.363 . S
C400 H416 0.931 . S
C401 C400 1.370 1_655 S
C401 C405 1.408 1_545 S
C402 C400 1.363 . S
C402 C403 1.370 1_455 S
C402 C406 1.524 . S
C403 C395 1.503 1_545 S
C403 C402 1.370 1_655 S
C403 C404 1.403 1_545 S
C404 C403 1.403 1_565 S
C404 C405 1.404 . S
C404 C407 1.539 . S
C405 C401 1.408 1_565 S
C405 C404 1.404 . S
C405 H417 0.930 . S
C406 C402 1.524 . S
C406 H418 0.956 . S
C406 H419 0.961 . S
C406 H420 0.961 . S
C407 C404 1.539 . S
C407 H421 0.958 . S
C407 H422 0.961 . S
C407 H423 0.960 . S
H408 C392 0.931 . S
H409 C397 0.929 . S
H410 C398 0.960 1_655 S
H411 C398 0.962 . S
H412 C398 0.960 . S
H413 C399 0.961 . S
H414 C399 0.961 . S
H415 C399 0.961 . S
H416 C400 0.931 . S
H417 C405 0.930 . S
H418 C406 0.956 . S
H419 C406 0.961 . S
H420 C406 0.961 . S
H421 C407 0.958 . S
H422 C407 0.961 . S
H423 C407 0.960 . S
C424 C425 1.391 . S
C424 C426 1.394 . S
C424 H440 0.931 . S
C425 C424 1.391 . S
C425 C429 1.376 . S
C426 C424 1.394 . S
C426 C427 1.369 . S
C426 C430 1.531 . S
C427 C426 1.369 . S
C427 C428 1.410 . S
C427 C435 1.503 . S
C428 C427 1.410 . S
C428 C429 1.392 . S
C428 C431 1.511 . S
C429 C425 1.376 . S
C429 C428 1.392 . S
C429 H441 0.929 . S
C430 C426 1.531 . S
C430 H442 0.960 . S
C430 H443 0.962 . S
C430 H444 0.960 . S
C431 C428 1.511 . S
C431 H445 0.961 . S
C431 H446 0.961 . S
C431 H447 0.961 . S
C432 C433 1.370 . S
C432 C434 1.363 . S
C432 H448 0.931 . S
C433 C432 1.370 . S
C433 C437 1.408 . S
C434 C432 1.363 . S
C434 C435 1.370 . S
C434 C438 1.524 . S
C435 C427 1.503 . S
C435 C434 1.370 . S
C435 C436 1.403 . S
C436 C435 1.403 . S
C436 C437 1.404 . S
C436 C439 1.539 . S
C437 C433 1.408 . S
C437 C436 1.404 . S
C437 H449 0.930 . S
C438 C434 1.524 . S
C438 H450 0.956 . S
C438 H451 0.961 . S
C438 H452 0.961 . S
C439 C436 1.539 . S
C439 H453 0.958 . S
C439 H454 0.961 . S
C439 H455 0.960 . S
H440 C424 0.931 . S
H441 C429 0.929 . S
H442 C430 0.960 . S
H443 C430 0.962 . S
H444 C430 0.960 . S
H445 C431 0.961 . S
H446 C431 0.961 . S
H447 C431 0.961 . S
H448 C432 0.931 . S
H449 C437 0.930 . S
H450 C438 0.956 . S
H451 C438 0.961 . S
H452 C438 0.961 . S
H453 C439 0.958 . S
H454 C439 0.961 . S
H455 C439 0.960 . S
C456 C457 1.391 . S
C456 C458 1.394 . S
C456 H472 0.931 . S
C457 C456 1.391 . S
C457 C461 1.376 . S
C458 C456 1.394 . S
C458 C459 1.369 . S
C458 C462 1.531 . S
C459 C458 1.369 . S
C459 C460 1.410 . S
C459 C467 1.503 . S
C460 C459 1.410 . S
C460 C461 1.392 . S
C460 C463 1.511 . S
C461 C457 1.376 . S
C461 C460 1.392 . S
C461 H473 0.929 . S
C462 C458 1.531 . S
C462 H474 0.960 . S
C462 H475 0.962 . S
C462 H476 0.960 . S
C463 C460 1.511 . S
C463 H477 0.961 . S
C463 H478 0.961 . S
C463 H479 0.961 . S
C464 C465 1.370 . S
C464 C466 1.363 . S
C464 H480 0.931 . S
C465 C464 1.370 . S
C465 C469 1.408 . S
C466 C464 1.363 . S
C466 C467 1.370 . S
C466 C470 1.524 . S
C467 C459 1.503 . S
C467 C466 1.370 . S
C467 C468 1.403 . S
C468 C467 1.403 . S
C468 C469 1.404 . S
C468 C471 1.539 . S
C469 C465 1.408 . S
C469 C468 1.404 . S
C469 H481 0.930 . S
C470 C466 1.524 . S
C470 H482 0.956 . S
C470 H483 0.961 . S
C470 H484 0.961 . S
C471 C468 1.539 . S
C471 H485 0.958 . S
C471 H486 0.961 . S
C471 H487 0.960 . S
H472 C456 0.931 . S
H473 C461 0.929 . S
H474 C462 0.960 . S
H475 C462 0.962 . S
H476 C462 0.960 . S
H477 C463 0.961 . S
H478 C463 0.961 . S
H479 C463 0.961 . S
H480 C464 0.931 . S
H481 C469 0.930 . S
H482 C470 0.956 . S
H483 C470 0.961 . S
H484 C470 0.961 . S
H485 C471 0.958 . S
H486 C471 0.961 . S
H487 C471 0.960 . S
C113 C99 1.446 . S
C105 C27 1.476 . S
C137 N6 1.383 . S
C145 N86 1.378 . S
C169 C16 1.425 . S
C177 N97 1.391 . S
C201 N14 1.434 1_556 S
C209 C88 1.440 . S
C233 C57 1.479 . S
C241 C77 1.463 . S
C265 N36 1.378 . S
C273 N64 1.380 . S
C305 N75 1.387 . S
C297 C46 1.430 . S
C337 C66 1.444 . S
C329 N44 1.409 . S
C361 C10 1.463 1_565 S
C369 C69 1.464 . S
C393 C1 1.533 1_655 S
C401 C80 1.533 . S
C433 C91 1.464 . S
C425 C40 1.464 . S
C457 C31 1.539 . S
C465 C102 1.539 . S
