# Generated by pormake.
# Topology ptr, (4,4)-cn, num edge types: 1
# Building blocks:
#     Node 0, Type 0, BuildingBlock: NAHDIM_clean_sbu_0, # of connection points: 4
#     Node 1, Type 0, BuildingBlock: NAHDIM_clean_sbu_0, # of connection points: 4
#     Node 2, Type 0, BuildingBlock: NAHDIM_clean_sbu_0, # of connection points: 4
#     Node 3, Type 0, BuildingBlock: NAHDIM_clean_sbu_0, # of connection points: 4
#     Node 4, Type 0, BuildingBlock: NAHDIM_clean_sbu_0, # of connection points: 4
#     Node 5, Type 0, BuildingBlock: NAHDIM_clean_sbu_0, # of connection points: 4
#     Node 6, Type 0, BuildingBlock: NAHDIM_clean_sbu_0, # of connection points: 4
#     Node 7, Type 0, BuildingBlock: NAHDIM_clean_sbu_0, # of connection points: 4
#     Node 8, Type 0, BuildingBlock: NAHDIM_clean_sbu_0, # of connection points: 4
#     Node 9, Type 0, BuildingBlock: NAHDIM_clean_sbu_0, # of connection points: 4
#     Node 10, Type 0, BuildingBlock: NAHDIM_clean_sbu_0, # of connection points: 4
#     Node 11, Type 0, BuildingBlock: NAHDIM_clean_sbu_0, # of connection points: 4
#     Node 12, Type 0, BuildingBlock: NAHDIM_clean_sbu_0, # of connection points: 4
#     Node 13, Type 0, BuildingBlock: NAHDIM_clean_sbu_0, # of connection points: 4
#     Node 14, Type 0, BuildingBlock: NAHDIM_clean_sbu_0, # of connection points: 4
#     Node 15, Type 0, BuildingBlock: NAHDIM_clean_sbu_0, # of connection points: 4
#     Node 16, Type 0, BuildingBlock: NAHDIM_clean_sbu_0, # of connection points: 4
#     Node 17, Type 0, BuildingBlock: NAHDIM_clean_sbu_0, # of connection points: 4
#     Node 18, Type 1, BuildingBlock: GIZVER_clean_linker_0, # of connection points: 4
#     Node 19, Type 1, BuildingBlock: GIZVER_clean_linker_0, # of connection points: 4
#     Node 20, Type 1, BuildingBlock: GIZVER_clean_linker_0, # of connection points: 4
#     Node 21, Type 1, BuildingBlock: GIZVER_clean_linker_0, # of connection points: 4
#     Node 22, Type 1, BuildingBlock: GIZVER_clean_linker_0, # of connection points: 4
#     Node 23, Type 1, BuildingBlock: GIZVER_clean_linker_0, # of connection points: 4
#     Node 24, Type 1, BuildingBlock: GIZVER_clean_linker_0, # of connection points: 4
#     Node 25, Type 1, BuildingBlock: GIZVER_clean_linker_0, # of connection points: 4
#     Node 26, Type 1, BuildingBlock: GIZVER_clean_linker_0, # of connection points: 4
#     Node 27, Type 1, BuildingBlock: GIZVER_clean_linker_0, # of connection points: 4
#     Node 28, Type 1, BuildingBlock: GIZVER_clean_linker_0, # of connection points: 4
#     Node 29, Type 1, BuildingBlock: GIZVER_clean_linker_0, # of connection points: 4
#     Node 30, Type 1, BuildingBlock: GIZVER_clean_linker_0, # of connection points: 4
#     Node 31, Type 1, BuildingBlock: GIZVER_clean_linker_0, # of connection points: 4
#     Node 32, Type 1, BuildingBlock: GIZVER_clean_linker_0, # of connection points: 4
#     Node 33, Type 1, BuildingBlock: GIZVER_clean_linker_0, # of connection points: 4
#     Node 34, Type 1, BuildingBlock: GIZVER_clean_linker_0, # of connection points: 4
#     Node 35, Type 1, BuildingBlock: GIZVER_clean_linker_0, # of connection points: 4
#     Edge 36, Type (0, 1), BuildingBlock: XUDNAN_clean_linker_2, # of connection points: 2
#     Edge 37, Type (0, 1), BuildingBlock: XUDNAN_clean_linker_2, # of connection points: 2
#     Edge 38, Type (0, 1), BuildingBlock: XUDNAN_clean_linker_2, # of connection points: 2
#     Edge 39, Type (0, 1), BuildingBlock: XUDNAN_clean_linker_2, # of connection points: 2
#     Edge 40, Type (0, 1), BuildingBlock: XUDNAN_clean_linker_2, # of connection points: 2
#     Edge 41, Type (0, 1), BuildingBlock: XUDNAN_clean_linker_2, # of connection points: 2
#     Edge 42, Type (0, 1), BuildingBlock: XUDNAN_clean_linker_2, # of connection points: 2
#     Edge 43, Type (0, 1), BuildingBlock: XUDNAN_clean_linker_2, # of connection points: 2
#     Edge 44, Type (0, 1), BuildingBlock: XUDNAN_clean_linker_2, # of connection points: 2
#     Edge 45, Type (0, 1), BuildingBlock: XUDNAN_clean_linker_2, # of connection points: 2
#     Edge 46, Type (0, 1), BuildingBlock: XUDNAN_clean_linker_2, # of connection points: 2
#     Edge 47, Type (0, 1), BuildingBlock: XUDNAN_clean_linker_2, # of connection points: 2
#     Edge 48, Type (0, 1), BuildingBlock: XUDNAN_clean_linker_2, # of connection points: 2
#     Edge 49, Type (0, 1), BuildingBlock: XUDNAN_clean_linker_2, # of connection points: 2
#     Edge 50, Type (0, 1), BuildingBlock: XUDNAN_clean_linker_2, # of connection points: 2
#     Edge 51, Type (0, 1), BuildingBlock: XUDNAN_clean_linker_2, # of connection points: 2
#     Edge 52, Type (0, 1), BuildingBlock: XUDNAN_clean_linker_2, # of connection points: 2
#     Edge 53, Type (0, 1), BuildingBlock: XUDNAN_clean_linker_2, # of connection points: 2
#     Edge 54, Type (0, 1), BuildingBlock: XUDNAN_clean_linker_2, # of connection points: 2
#     Edge 55, Type (0, 1), BuildingBlock: XUDNAN_clean_linker_2, # of connection points: 2
#     Edge 56, Type (0, 1), BuildingBlock: XUDNAN_clean_linker_2, # of connection points: 2
#     Edge 57, Type (0, 1), BuildingBlock: XUDNAN_clean_linker_2, # of connection points: 2
#     Edge 58, Type (0, 1), BuildingBlock: XUDNAN_clean_linker_2, # of connection points: 2
#     Edge 59, Type (0, 1), BuildingBlock: XUDNAN_clean_linker_2, # of connection points: 2
#     Edge 60, Type (0, 1), BuildingBlock: XUDNAN_clean_linker_2, # of connection points: 2
#     Edge 61, Type (0, 1), BuildingBlock: XUDNAN_clean_linker_2, # of connection points: 2
#     Edge 62, Type (0, 1), BuildingBlock: XUDNAN_clean_linker_2, # of connection points: 2
#     Edge 63, Type (0, 1), BuildingBlock: XUDNAN_clean_linker_2, # of connection points: 2
#     Edge 64, Type (0, 1), BuildingBlock: XUDNAN_clean_linker_2, # of connection points: 2
#     Edge 65, Type (0, 1), BuildingBlock: XUDNAN_clean_linker_2, # of connection points: 2
#     Edge 66, Type (0, 1), BuildingBlock: XUDNAN_clean_linker_2, # of connection points: 2
#     Edge 67, Type (0, 1), BuildingBlock: XUDNAN_clean_linker_2, # of connection points: 2
#     Edge 68, Type (0, 1), BuildingBlock: XUDNAN_clean_linker_2, # of connection points: 2
#     Edge 69, Type (0, 1), BuildingBlock: XUDNAN_clean_linker_2, # of connection points: 2
#     Edge 70, Type (0, 1), BuildingBlock: XUDNAN_clean_linker_2, # of connection points: 2
#     Edge 71, Type (0, 1), BuildingBlock: XUDNAN_clean_linker_2, # of connection points: 2
#     Edge 72, Type (0, 1), BuildingBlock: XUDNAN_clean_linker_2, # of connection points: 2
#     Edge 73, Type (0, 1), BuildingBlock: XUDNAN_clean_linker_2, # of connection points: 2
#     Edge 74, Type (0, 1), BuildingBlock: XUDNAN_clean_linker_2, # of connection points: 2
#     Edge 75, Type (0, 1), BuildingBlock: XUDNAN_clean_linker_2, # of connection points: 2
#     Edge 76, Type (0, 1), BuildingBlock: XUDNAN_clean_linker_2, # of connection points: 2
#     Edge 77, Type (0, 1), BuildingBlock: XUDNAN_clean_linker_2, # of connection points: 2
#     Edge 78, Type (0, 1), BuildingBlock: XUDNAN_clean_linker_2, # of connection points: 2
#     Edge 79, Type (0, 1), BuildingBlock: XUDNAN_clean_linker_2, # of connection points: 2
#     Edge 80, Type (0, 1), BuildingBlock: XUDNAN_clean_linker_2, # of connection points: 2
#     Edge 81, Type (0, 1), BuildingBlock: XUDNAN_clean_linker_2, # of connection points: 2
#     Edge 82, Type (0, 1), BuildingBlock: XUDNAN_clean_linker_2, # of connection points: 2
#     Edge 83, Type (0, 1), BuildingBlock: XUDNAN_clean_linker_2, # of connection points: 2
#     Edge 84, Type (0, 1), BuildingBlock: XUDNAN_clean_linker_2, # of connection points: 2
#     Edge 85, Type (0, 1), BuildingBlock: XUDNAN_clean_linker_2, # of connection points: 2
#     Edge 86, Type (0, 1), BuildingBlock: XUDNAN_clean_linker_2, # of connection points: 2
#     Edge 87, Type (0, 1), BuildingBlock: XUDNAN_clean_linker_2, # of connection points: 2
#     Edge 88, Type (0, 1), BuildingBlock: XUDNAN_clean_linker_2, # of connection points: 2
#     Edge 89, Type (0, 1), BuildingBlock: XUDNAN_clean_linker_2, # of connection points: 2
#     Edge 90, Type (0, 1), BuildingBlock: XUDNAN_clean_linker_2, # of connection points: 2
#     Edge 91, Type (0, 1), BuildingBlock: XUDNAN_clean_linker_2, # of connection points: 2
#     Edge 92, Type (0, 1), BuildingBlock: XUDNAN_clean_linker_2, # of connection points: 2
#     Edge 93, Type (0, 1), BuildingBlock: XUDNAN_clean_linker_2, # of connection points: 2
#     Edge 94, Type (0, 1), BuildingBlock: XUDNAN_clean_linker_2, # of connection points: 2
#     Edge 95, Type (0, 1), BuildingBlock: XUDNAN_clean_linker_2, # of connection points: 2
#     Edge 96, Type (0, 1), BuildingBlock: XUDNAN_clean_linker_2, # of connection points: 2
#     Edge 97, Type (0, 1), BuildingBlock: XUDNAN_clean_linker_2, # of connection points: 2
#     Edge 98, Type (0, 1), BuildingBlock: XUDNAN_clean_linker_2, # of connection points: 2
#     Edge 99, Type (0, 1), BuildingBlock: XUDNAN_clean_linker_2, # of connection points: 2
#     Edge 100, Type (0, 1), BuildingBlock: XUDNAN_clean_linker_2, # of connection points: 2
#     Edge 101, Type (0, 1), BuildingBlock: XUDNAN_clean_linker_2, # of connection points: 2
#     Edge 102, Type (0, 1), BuildingBlock: XUDNAN_clean_linker_2, # of connection points: 2
#     Edge 103, Type (0, 1), BuildingBlock: XUDNAN_clean_linker_2, # of connection points: 2
#     Edge 104, Type (0, 1), BuildingBlock: XUDNAN_clean_linker_2, # of connection points: 2
#     Edge 105, Type (0, 1), BuildingBlock: XUDNAN_clean_linker_2, # of connection points: 2
#     Edge 106, Type (0, 1), BuildingBlock: XUDNAN_clean_linker_2, # of connection points: 2
#     Edge 107, Type (0, 1), BuildingBlock: XUDNAN_clean_linker_2, # of connection points: 2
# Relax obj value: 0.076
# Max RMSD: 0.210
# Mean RMSD: 0.115
data_MOF--net-ptr--node1-NAHDIM_clean_sbu_0--node2-GIZVER_clean_linker_0--edge1-XUDNAN_clean_linker_2
_symmetry_space_group_name_H-M    P1
_symmetry_Int_Tables_number       1
_symmetry_cell_setting            triclinic
loop_
_symmetry_equiv_pos_as_xyz
'x, y, z'
_cell_length_a     81.36208
_cell_length_b     79.904463
_cell_length_c     47.108077
_cell_angle_alpha  92.096802
_cell_angle_beta   89.398006
_cell_angle_gamma 121.7183
loop_
_atom_site_label
_atom_site_type_symbol
_atom_site_fract_x
_atom_site_fract_y
_atom_site_fract_z
_atom_type_partial_charge
C0 C 0.05041 0.39003 0.0266 0.0
O1 O 0.05356 0.4065 0.03891 0.0
O2 O 0.98655 0.35598 0.01903 0.0
Zn3 Zn 0.01172 0.38252 0.01981 0.0
O4 O 0.0159 0.39936 0.05499 0.0
C5 C 0.99873 0.39709 0.97457 0.0
O6 O 0.98125 0.38312 0.98159 0.0
O7 O 0.03367 0.37765 0.0166 0.0
C8 C 0.00559 0.4066 0.06106 0.0
O9 O 0.99033 0.40171 0.04541 0.0
C10 C 0.97217 0.34955 0.03562 0.0
O11 O 0.97241 0.36088 0.0567 0.0
O12 O 0.01327 0.3988 0.98724 0.0
C13 C 0.6596 0.62531 0.0196 0.0
O14 O 0.64567 0.60684 0.01538 0.0
O15 O 0.62544 0.65509 0.02419 0.0
Zn16 Zn 0.62731 0.6309 0.02376 0.0
O17 O 0.61382 0.61438 0.98881 0.0
C18 C 0.59435 0.60317 0.05401 0.0
O19 O 0.58622 0.60309 0.03002 0.0
O20 O 0.65522 0.63827 0.02427 0.0
C21 C 0.62089 0.61544 0.96434 0.0
O22 O 0.63913 0.6287 0.95988 0.0
C23 C 0.63785 0.67096 0.01264 0.0
O24 O 0.65279 0.67197 -3e-05 0.0
O25 O 0.61257 0.6145 0.0571 0.0
C26 C 0.37518 0.04507 0.02323 0.0
O27 O 0.37315 0.03842 0.04893 0.0
O28 O 0.35745 0.98708 0.00046 0.0
Zn29 Zn 0.38258 0.01374 0.00283 0.0
O30 O 0.39937 0.01735 0.9693 0.0
C31 C 0.3905 0.00555 0.05885 0.0
O32 O 0.37158 0.99458 0.06038 0.0
O33 O 0.3785 0.03657 0.0026 0.0
C34 C 0.40509 0.00587 0.96153 0.0
O35 O 0.39881 0.98941 0.97476 0.0
C36 C 0.34094 0.98485 0.00451 0.0
O37 O 0.33978 1.00048 0.00948 0.0
O38 O 0.39812 0.01545 0.03689 0.0
C39 C 0.95564 0.61673 0.99155 0.0
O40 O 0.95844 0.60585 0.97292 0.0
O41 O 0.01433 0.64876 0.02423 0.0
Zn42 Zn 0.99037 0.62183 0.01773 0.0
O43 O 0.99431 0.6084 0.98321 0.0
C44 C 0.99939 0.60348 0.06175 0.0
O45 O 0.0162 0.61219 0.04907 0.0
O46 O 0.96735 0.62492 0.01239 0.0
C47 C 0.0111 0.61204 0.97688 0.0
O48 O 0.02594 0.62494 0.99263 0.0
C49 C 0.01997 0.66233 0.00651 0.0
O50 O 0.00971 0.65895 0.98329 0.0
O51 O 0.986 0.60552 0.0522 0.0
C52 C 0.34591 0.40159 0.02497 0.0
O53 O 0.35829 0.41124 0.04585 0.0
O54 O 0.36786 0.36686 0.99035 0.0
Zn55 Zn 0.37578 0.3949 0.00081 0.0
O56 O 0.39054 0.40255 0.03791 0.0
C57 C 0.40889 0.41654 0.96436 0.0
O58 O 0.41569 0.40762 0.97866 0.0
O59 O 0.35071 0.39436 0.00437 0.0
C60 C 0.40256 0.42003 0.04694 0.0
O61 O 0.40561 0.43494 0.03195 0.0
C62 C 0.37677 0.35872 -0.00142 0.0
O63 O 0.39282 0.36916 0.01348 0.0
O64 O 0.39218 0.41332 0.97015 0.0
C65 C 0.64153 0.97297 0.98301 0.0
O66 O 0.6536 0.98948 0.97065 0.0
O67 O 0.64898 0.01896 0.00888 0.0
Zn68 Zn 0.62284 0.99419 0.0007 0.0
O69 O 0.60432 0.98791 0.03315 0.0
C70 C 0.59882 0.00321 0.96931 0.0
O71 O 0.59771 0.00983 0.99474 0.0
O72 O 0.62707 0.97147 0.99606 0.0
C73 C 0.60587 0.99941 0.05372 0.0
O74 O 0.62137 0.01717 0.05599 0.0
C75 C 0.65446 0.03586 -0.0004 0.0
O76 O 0.64237 0.03815 0.98444 0.0
O77 O 0.60966 0.99624 0.96574 0.0
C78 C 0.71456 0.71296 0.31863 0.0
O79 O 0.71862 0.72645 0.30004 0.0
O80 O 0.65233 0.69163 0.33053 0.0
Zn81 Zn 0.68002 0.71492 0.32914 0.0
O82 O 0.68554 0.73509 0.36037 0.0
C83 C 0.67243 0.73393 0.28534 0.0
O84 O 0.65626 0.7272 0.29947 0.0
O85 O 0.69905 0.70602 0.33279 0.0
C86 C 0.67354 0.73459 0.37832 0.0
O87 O 0.65581 0.71924 0.37837 0.0
C88 C 0.64822 0.67467 0.33783 0.0
O89 O 0.66228 0.67209 0.34501 0.0
O90 O 0.68461 0.72961 0.29319 0.0
C91 C 0.32526 0.96522 0.34418 0.0
O92 O 0.32703 0.98253 0.34395 0.0
O93 O 0.29008 0.97806 0.35282 0.0
Zn94 Zn 0.28378 0.95006 0.3466 0.0
O95 O 0.26911 0.93837 0.30978 0.0
C96 C 0.25754 0.93599 0.39498 0.0
O97 O 0.25663 0.95175 0.39177 0.0
O98 O 0.30849 0.94979 0.34498 0.0
C99 C 0.25076 0.92918 0.30843 0.0
O100 O 0.24097 0.92742 0.33164 0.0
C101 C 0.28114 0.98507 0.34089 0.0
O102 O 0.26633 0.97358 0.32411 0.0
O103 O 0.26807 0.93273 0.37848 0.0
C104 C 0.02646 0.37022 0.34147 0.0
O105 O 0.01122 0.35448 0.33024 0.0
O106 O 0.01024 0.31965 0.35472 0.0
Zn107 Zn 0.03795 0.34201 0.35028 0.0
O108 O 0.04869 0.33777 0.31377 0.0
C109 C 0.05494 0.32474 0.37877 0.0
O110 O 0.04604 0.31239 0.35714 0.0
O111 O 0.03998 0.36861 0.35169 0.0
C112 C 0.06483 0.35112 0.30421 0.0
O113 O 0.0738 0.3687 0.31675 0.0
C114 C 0.99822 0.31015 0.33456 0.0
O115 O 0.00345 0.3151 0.30821 0.0
O116 O 0.05363 0.33991 0.38161 0.0
C117 C 0.62927 0.97112 0.3383 0.0
O118 O 0.64569 0.9868 0.33132 0.0
O119 O 0.67709 0.9774 0.34233 0.0
Zn120 Zn 0.65146 0.9515 0.34148 0.0
O121 O 0.64844 0.93524 0.30601 0.0
C122 C 0.66384 0.93407 0.38244 0.0
O123 O 0.67982 0.94261 0.36765 0.0
O124 O 0.62883 0.95538 0.34351 0.0
C125 C 0.66203 0.93396 0.2948 0.0
O126 O 0.67944 0.94415 0.30613 0.0
C127 C 0.68485 0.98833 0.32123 0.0
O128 O 0.67585 0.98302 0.29653 0.0
O129 O 0.64993 0.93602 0.37527 0.0
C130 C 0.0036 0.71569 0.32954 0.0
O131 O 0.00397 0.7021 0.31349 0.0
O132 O 0.04237 0.70385 0.34939 0.0
Zn133 Zn 0.04446 0.7302 0.34658 0.0
O134 O 0.05766 0.74651 0.38205 0.0
C135 C 0.0789 0.74705 0.31576 0.0
O136 O 0.08356 0.74156 0.33874 0.0
O137 O 0.01861 0.7282 0.34368 0.0
C138 C 0.06693 0.76523 0.38237 0.0
O139 O 0.06795 0.77418 0.35897 0.0
C140 C 0.02794 0.68709 0.35535 0.0
O141 O 0.0112 0.68518 0.36096 0.0
O142 O 0.06188 0.74382 0.31348 0.0
C143 C 0.31535 0.3009 0.32109 0.0
O144 O 0.32645 0.31593 0.30524 0.0
O145 O 0.32297 0.34981 0.34124 0.0
Zn146 Zn 0.29762 0.32359 0.33855 0.0
O147 O 0.28056 0.31902 0.37234 0.0
C148 C 0.27312 0.33212 0.30919 0.0
O149 O 0.27566 0.34179 0.33351 0.0
O150 O 0.30233 0.3011 0.33598 0.0
C151 C 0.28239 0.33129 0.39188 0.0
O152 O 0.29786 0.34912 0.39278 0.0
C153 C 0.33647 0.35333 0.35842 0.0
O154 O 0.33378 0.33968 0.3759 0.0
O155 O 0.28206 0.32313 0.3049 0.0
C156 C 0.36256 0.03159 0.6714 0.0
O157 O 0.34739 0.01996 0.65528 0.0
O158 O 0.31549 0.0234 0.67948 0.0
Zn159 Zn 0.34053 0.04995 0.68297 0.0
O160 O 0.33999 0.06557 0.71773 0.0
C161 C 0.35325 0.06841 0.62628 0.0
O162 O 0.36172 0.05838 0.62189 0.0
O163 O 0.36305 0.04574 0.68555 0.0
C164 C 0.33568 0.07854 0.71411 0.0
O165 O 0.33099 0.08084 0.68861 0.0
C166 C 0.29997 0.01881 0.69257 0.0
O167 O 0.29951 0.03199 0.70948 0.0
O168 O 0.34389 0.06625 0.649 0.0
C169 C 0.00265 0.30548 0.67633 0.0
O170 O 1.00079 0.3188 0.66373 0.0
O171 O 0.96536 0.31576 0.68762 0.0
Zn172 Zn 0.96192 0.2887 0.68499 0.0
O173 O 0.94925 0.27313 0.64892 0.0
C174 C 0.95025 0.27034 0.74017 0.0
O175 O 0.96883 0.28036 0.74613 0.0
O176 O 0.98794 0.29128 0.68785 0.0
C177 C 0.93249 0.26832 0.64044 0.0
O178 O 0.92306 0.27529 0.6541 0.0
C179 C 0.96201 0.3246 0.66871 0.0
O180 O 0.95525 0.3159 0.64371 0.0
O181 O 0.94447 0.27212 0.71617 0.0
C182 C 0.70223 0.70526 0.65462 0.0
O183 O 0.68573 0.68914 0.64775 0.0
O184 O 0.68642 0.65567 0.66532 0.0
Zn185 Zn 0.71463 0.67771 0.66516 0.0
O186 O 0.72895 0.67378 0.63264 0.0
C187 C 0.73177 0.66621 0.70864 0.0
O188 O 0.72747 0.65147 0.69069 0.0
O189 O 0.71646 0.70391 0.66211 0.0
C190 C 0.74718 0.68162 0.63442 0.0
O191 O 0.75638 0.69242 0.65719 0.0
C192 C 0.68037 0.6375 0.66108 0.0
O193 O 0.69286 0.63213 0.65578 0.0
O194 O 0.72741 0.67876 0.70231 0.0
C195 C 0.3075 0.30634 0.662 0.0
O196 O 0.3232 0.32314 0.65619 0.0
O197 O 0.35692 0.32244 0.67439 0.0
Zn198 Zn 0.33511 0.29416 0.66903 0.0
O199 O 0.33981 0.28225 0.6339 0.0
C200 C 0.35218 0.27874 0.70202 0.0
O201 O 0.36499 0.28727 0.68192 0.0
O202 O 0.30899 0.29179 0.66804 0.0
C203 C 0.32672 0.26819 0.61863 0.0
O204 O 0.30848 0.26147 0.62422 0.0
C205 C 0.36743 0.33332 0.65459 0.0
O206 O 0.36374 0.32642 0.62818 0.0
O207 O 0.33698 0.27957 0.70162 0.0
C208 C 0.67162 0.04544 0.66339 0.0
O209 O 0.67683 0.04101 0.63915 0.0
O210 O 0.71272 0.03453 0.67962 0.0
Zn211 Zn 0.71126 0.05918 0.68123 0.0
O212 O 0.7263 0.0757 0.71587 0.0
C213 C 0.725 0.06674 0.62329 0.0
O214 O 0.71673 0.04751 0.6214 0.0
O215 O 0.68374 0.05297 0.68387 0.0
C216 C 0.7394 0.09383 0.71461 0.0
O217 O 0.74319 0.10238 0.69009 0.0
C218 C 0.69846 0.01684 0.67945 0.0
O219 O 0.68083 0.01342 0.68083 0.0
O220 O 0.72403 0.0748 0.64646 0.0
C221 C 0.965 0.6241 0.65793 0.0
O222 O 0.97145 0.63383 0.63443 0.0
O223 O 0.97778 0.67695 0.66883 0.0
Zn224 Zn 0.95198 0.65113 0.66865 0.0
O225 O 0.93316 0.65036 0.69745 0.0
C226 C 0.93734 0.66018 0.62073 0.0
O227 O 0.94612 0.67753 0.63398 0.0
O228 O 0.95621 0.62893 0.6757 0.0
C229 C 0.93335 0.66454 0.71089 0.0
O230 O 0.94789 0.68266 0.70799 0.0
C231 C 0.9882 0.68608 0.69064 0.0
O232 O 0.98205 0.67898 0.71589 0.0
O233 O 0.93853 0.64636 0.63099 0.0
H234 H 0.14983 0.32735 0.14895 0.0
H235 H 0.15308 0.34575 0.06313 0.0
H236 H 0.12427 0.36039 0.12724 0.0
H237 H 0.154 0.30958 0.10471 0.0
H238 H 0.16193 0.32243 0.07249 0.0
H239 H 0.1755 0.32125 0.14752 0.0
H240 H 0.23617 0.35421 0.13033 0.0
H241 H 0.19565 0.3484 0.06683 0.0
C242 C 0.14733 0.33553 0.13355 0.0
C243 C 0.13719 0.34468 0.14167 0.0
C244 C 0.15354 0.33623 0.10534 0.0
C245 C 0.14909 0.34586 0.08513 0.0
C246 C 0.13864 0.35477 0.09294 0.0
C247 C 0.13318 0.35445 0.12134 0.0
C248 C 0.16258 0.32456 0.09602 0.0
C249 C 0.18326 0.33409 0.10622 0.0
C250 C 0.18726 0.33043 0.13351 0.0
C251 C 0.20635 0.33771 0.14224 0.0
C252 C 0.22148 0.34895 0.12365 0.0
C253 C 0.21791 0.35302 0.09644 0.0
C254 C 0.19868 0.34561 0.0879 0.0
H255 H 0.69484 0.83919 0.12826 0.0
H256 H 0.66952 0.81815 0.04463 0.0
H257 H 0.65759 0.77719 0.10988 0.0
H258 H 0.70659 0.86135 0.08813 0.0
H259 H 0.69642 0.85245 0.0533 0.0
H260 H 0.67941 0.85832 0.12663 0.0
H261 H 0.65283 0.88808 0.095 0.0
H262 H 0.68039 0.86776 0.03692 0.0
C263 C 0.68533 0.82719 0.11365 0.0
C264 C 0.67601 0.80775 0.12262 0.0
C265 C 0.68252 0.83116 0.08578 0.0
C266 C 0.67103 0.81535 0.06651 0.0
C267 C 0.66196 0.79591 0.07535 0.0
C268 C 0.66413 0.79229 0.10346 0.0
C269 C 0.69276 0.85214 0.07617 0.0
C270 C 0.6806 0.86121 0.08102 0.0
C271 C 0.67526 0.86348 0.10875 0.0
C272 C 0.66473 0.87262 0.11358 0.0
C273 C 0.66 0.88004 0.09072 0.0
C274 C 0.66571 0.87861 0.06296 0.0
C275 C 0.67585 0.86893 0.05822 0.0
H276 H 0.1772 0.80935 0.14143 0.0
H277 H 0.15787 0.79326 0.05441 0.0
H278 H 0.11736 0.76844 0.12242 0.0
H279 H 0.19969 0.81352 0.10015 0.0
H280 H 0.19151 0.81196 0.06461 0.0
H281 H 0.18993 0.84001 0.13131 0.0
H282 H 0.23108 0.89596 0.09922 0.0
H283 H 0.21365 0.84347 0.04803 0.0
C284 C 0.16558 0.80197 0.12596 0.0
C285 C 0.14655 0.78989 0.13541 0.0
C286 C 0.16972 0.80434 0.09668 0.0
C287 C 0.15469 0.79274 0.07687 0.0
C288 C 0.13595 0.77919 0.08625 0.0
C289 C 0.13192 0.77863 0.11531 0.0
C290 C 0.19051 0.81666 0.08676 0.0
C291 C 0.19935 0.83888 0.08851 0.0
C292 C 0.1984 0.84839 0.11369 0.0
C293 C 0.20983 0.86889 0.11764 0.0
C294 C 0.22187 0.88017 0.09571 0.0
C295 C 0.22341 0.87123 0.07045 0.0
C296 C 0.21203 0.85055 0.06699 0.0
H297 H 0.37697 0.21175 0.8776 0.0
H298 H 0.36361 0.22134 0.96311 0.0
H299 H 0.35019 0.24522 0.89327 0.0
H300 H 0.39368 0.20956 0.92254 0.0
H301 H 0.38212 0.20672 0.95593 0.0
H302 H 0.35727 0.18007 0.88585 0.0
H303 H 0.35479 0.12733 0.90801 0.0
H304 H 0.37836 0.17636 0.96742 0.0
C305 C 0.37017 0.21706 0.89214 0.0
C306 C 0.36218 0.22751 0.88161 0.0
C307 C 0.36961 0.21355 0.92138 0.0
C308 C 0.36275 0.22252 0.94039 0.0
C309 C 0.35585 0.23402 0.9302 0.0
C310 C 0.35502 0.23585 0.90091 0.0
C311 C 0.37932 0.20326 0.93274 0.0
C312 C 0.36873 0.181 0.92743 0.0
C313 C 0.35998 0.17204 0.90095 0.0
C314 C 0.35526 0.15281 0.89319 0.0
C315 C 0.35801 0.14202 0.91342 0.0
C316 C 0.3658 0.15016 0.94041 0.0
C317 C 0.37122 0.16967 0.94724 0.0
H318 H 0.85652 0.17536 0.90226 0.0
H319 H 0.85661 0.19923 0.98598 0.0
H320 H 0.89346 0.23709 0.92101 0.0
H321 H 0.84308 0.15416 0.9455 0.0
H322 H 0.83941 0.16425 0.97763 0.0
H323 H 0.82502 0.15992 0.89933 0.0
H324 H 0.76482 0.12921 0.91766 0.0
H325 H 0.80614 0.14871 0.98614 0.0
C326 C 0.86109 0.18785 0.91683 0.0
C327 C 0.87531 0.2066 0.90818 0.0
C328 C 0.85346 0.18511 0.94449 0.0
C329 C 0.86143 0.20133 0.96415 0.0
C330 C 0.87655 0.21995 0.95604 0.0
C331 C 0.88258 0.22252 0.92774 0.0
C332 C 0.83888 0.16454 0.95407 0.0
C333 C 0.81827 0.15673 0.94414 0.0
C334 C 0.81378 0.15487 0.91494 0.0
C335 C 0.79455 0.14505 0.90536 0.0
C336 C 0.77966 0.1372 0.92522 0.0
C337 C 0.78358 0.13828 0.95439 0.0
C338 C 0.80297 0.14822 0.96374 0.0
H339 H 0.81945 0.63105 0.85917 0.0
H340 H 0.82894 0.62225 0.94578 0.0
H341 H 0.87553 0.64543 0.88627 0.0
H342 H 0.7924 0.60641 0.89196 0.0
H343 H 0.79669 0.60917 0.92929 0.0
H344 H 0.79701 0.63754 0.86594 0.0
H345 H 0.76891 0.66256 0.91189 0.0
H346 H 0.78449 0.62632 0.95476 0.0
C347 C 0.82911 0.63301 0.87626 0.0
C348 C 0.84856 0.64019 0.87001 0.0
C349 C 0.82197 0.62733 0.9039 0.0
C350 C 0.83449 0.62789 0.925 0.0
C351 C 0.85371 0.63399 0.9184 0.0
C352 C 0.86075 0.64091 0.89135 0.0
C353 C 0.80045 0.61749 0.90941 0.0
C354 C 0.79325 0.63161 0.91076 0.0
C355 C 0.79217 0.64033 0.88593 0.0
C356 C 0.78383 0.65189 0.8863 0.0
C357 C 0.77633 0.65457 0.91176 0.0
C358 C 0.77633 0.64524 0.93635 0.0
C359 C 0.78498 0.63394 0.93591 0.0
H360 H 0.81616 0.65223 0.46076 0.0
H361 H 0.80887 0.6621 0.37362 0.0
H362 H 0.78367 0.67868 0.44103 0.0
H363 H 0.81718 0.63154 0.41488 0.0
H364 H 0.82397 0.64435 0.38263 0.0
H365 H 0.83939 0.64372 0.4566 0.0
H366 H 0.89969 0.68163 0.4386 0.0
H367 H 0.85721 0.67157 0.3759 0.0
C368 C 0.81091 0.65802 0.44524 0.0
C369 C 0.79958 0.66568 0.45431 0.0
C370 C 0.81464 0.65694 0.41613 0.0
C371 C 0.80671 0.66353 0.39611 0.0
C372 C 0.79509 0.67091 0.40496 0.0
C373 C 0.79205 0.67234 0.43405 0.0
C374 C 0.82487 0.64653 0.40615 0.0
C375 C 0.84581 0.65717 0.4157 0.0
C376 C 0.85067 0.65376 0.44259 0.0
C377 C 0.87007 0.66283 0.4512 0.0
C378 C 0.88464 0.6752 0.43259 0.0
C379 C 0.88012 0.67823 0.40544 0.0
C380 C 0.8607 0.66942 0.39708 0.0
H381 H 0.36825 0.16673 0.46201 0.0
H382 H 0.34207 0.14147 0.3799 0.0
H383 H 0.33668 0.10415 0.44727 0.0
H384 H 0.37883 0.18659 0.418 0.0
H385 H 0.36591 0.17629 0.38534 0.0
H386 H 0.35629 0.18696 0.46116 0.0
H387 H 0.33063 0.21862 0.43369 0.0
H388 H 0.34822 0.19037 0.37177 0.0
C389 C 0.35931 0.154 0.44816 0.0
C390 C 0.35269 0.13514 0.45797 0.0
C391 C 0.35517 0.15646 0.42013 0.0
C392 C 0.34464 0.13972 0.40181 0.0
C393 C 0.33853 0.12087 0.41132 0.0
C394 C 0.34208 0.11877 0.43957 0.0
C395 C 0.3641 0.17692 0.40872 0.0
C396 C 0.3526 0.18652 0.41569 0.0
C397 C 0.35066 0.19127 0.4441 0.0
C398 C 0.34229 0.20243 0.45067 0.0
C399 C 0.33589 0.20892 0.42857 0.0
C400 C 0.33797 0.20477 0.40001 0.0
C401 C 0.34617 0.19334 0.39373 0.0
H402 H 0.8258 0.14169 0.46392 0.0
H403 H 0.82171 0.12046 0.37712 0.0
H404 H 0.77071 0.10026 0.42704 0.0
H405 H 0.85301 0.13648 0.43085 0.0
H406 H 0.85276 0.14323 0.39554 0.0
H407 H 0.85683 0.15943 0.47237 0.0
H408 H 0.8906 0.22061 0.45477 0.0
H409 H 0.86866 0.1773 0.38583 0.0
C410 C 0.81739 0.13368 0.4453 0.0
C411 C 0.79734 0.12134 0.44826 0.0
C412 C 0.82648 0.13413 0.41935 0.0
C413 C 0.81496 0.12158 0.39646 0.0
C414 C 0.7949 0.1091 0.39948 0.0
C415 C 0.78622 0.1099 0.42483 0.0
C416 C 0.84837 0.14452 0.41757 0.0
C417 C 0.85935 0.16598 0.42778 0.0
C418 C 0.86226 0.1709 0.45707 0.0
C419 C 0.87295 0.1906 0.46682 0.0
C420 C 0.88175 0.20542 0.4471 0.0
C421 C 0.88135 0.2008 0.41798 0.0
C422 C 0.86922 0.1811 0.40826 0.0
H423 H 0.02496 0.5375 0.22535 0.0
H424 H 0.04103 0.56112 0.31118 0.0
H425 H 0.00647 0.57493 0.26024 0.0
H426 H 0.05897 0.54761 0.25621 0.0
H427 H 0.05388 0.54287 0.29271 0.0
H428 H 0.0402 0.52116 0.21872 0.0
H429 H 0.01935 0.4627 0.24468 0.0
H430 H 0.03624 0.50937 0.30788 0.0
C431 C 0.0239 0.54545 0.24357 0.0
C432 C 0.01369 0.55501 0.24062 0.0
C433 C 0.03342 0.54705 0.2693 0.0
C434 C 0.03296 0.55893 0.29181 0.0
C435 C 0.02328 0.56909 0.28881 0.0
C436 C 0.01323 0.5665 0.2634 0.0
C437 C 0.04695 0.53938 0.2713 0.0
C438 C 0.03766 0.51755 0.26419 0.0
C439 C 0.0355 0.51083 0.23564 0.0
C440 C 0.02815 0.49093 0.22874 0.0
C441 C 0.02371 0.47776 0.25043 0.0
C442 C 0.02701 0.48426 0.27905 0.0
C443 C 0.03351 0.50414 0.28587 0.0
H444 H 0.51897 0.50989 0.22455 0.0
H445 H 0.52331 0.52978 0.31205 0.0
H446 H 0.54701 0.57146 0.24583 0.0
H447 H 0.51714 0.48959 0.26821 0.0
H448 H 0.51106 0.49579 0.3017 0.0
H449 H 0.49329 0.48047 0.2254 0.0
H450 H 0.43478 0.44288 0.25023 0.0
H451 H 0.47779 0.4798 0.31345 0.0
C452 C 0.52251 0.52148 0.2403 0.0
C453 C 0.53276 0.54102 0.23177 0.0
C454 C 0.51827 0.51708 0.26915 0.0
C455 C 0.52526 0.53277 0.28962 0.0
C456 C 0.53562 0.55238 0.28112 0.0
C457 C 0.53879 0.55629 0.25225 0.0
C458 C 0.50919 0.49603 0.27838 0.0
C459 C 0.48799 0.48282 0.2702 0.0
C460 C 0.48255 0.47596 0.2418 0.0
C461 C 0.46331 0.46192 0.23469 0.0
C462 C 0.44941 0.45445 0.25595 0.0
C463 C 0.45437 0.4607 0.28448 0.0
C464 C 0.47371 0.47514 0.29143 0.0
H465 H 0.48848 0.962 0.19719 0.0
H466 H 0.49542 0.96095 0.2874 0.0
H467 H 0.54454 0.98263 0.23255 0.0
H468 H 0.4613 0.93848 0.22781 0.0
H469 H 0.46405 0.94043 0.26544 0.0
H470 H 0.46406 0.96876 0.20262 0.0
H471 H 0.42884 0.98661 0.24566 0.0
H472 H 0.44957 0.9553 0.29049 0.0
C473 C 0.49778 0.9657 0.2156 0.0
C474 C 0.51771 0.97402 0.21185 0.0
C475 C 0.48964 0.96113 0.24284 0.0
C476 C 0.50172 0.96504 0.26651 0.0
C477 C 0.52165 0.97298 0.26305 0.0
C478 C 0.52945 0.97767 0.2357 0.0
C479 C 0.46792 0.94926 0.24605 0.0
C480 C 0.45904 0.96181 0.24702 0.0
C481 C 0.45776 0.97032 0.22212 0.0
C482 C 0.44684 0.97925 0.22162 0.0
C483 C 0.43772 0.98022 0.24644 0.0
C484 C 0.43841 0.9715 0.27133 0.0
C485 C 0.44936 0.96254 0.27161 0.0
H486 H 0.48916 0.00155 0.79753 0.0
H487 H 0.47577 1.00135 0.7091 0.0
H488 H 0.45704 0.02716 0.77346 0.0
H489 H 0.48356 0.97378 0.75462 0.0
H490 H 0.4914 0.98469 0.72113 0.0
H491 H 0.506 0.98667 0.79691 0.0
H492 H 0.56609 0.01466 0.77742 0.0
H493 H 0.52555 0.007 0.7126 0.0
C494 C 0.48343 0.00596 0.78078 0.0
C495 C 0.47405 0.01596 0.78823 0.0
C496 C 0.48465 1.00105 0.75213 0.0
C497 C 0.47564 0.00579 0.73107 0.0
C498 C 0.46566 0.01535 0.73845 0.0
C499 C 0.46539 0.02067 0.76708 0.0
C500 C 0.49272 0.98814 0.7444 0.0
C501 C 0.51348 0.9967 0.75399 0.0
C502 C 0.51763 0.9944 0.78203 0.0
C503 C 0.53666 1.00128 0.79073 0.0
C504 C 0.55151 0.00987 0.77083 0.0
C505 C 0.54776 0.01187 0.74252 0.0
C506 C 0.52868 0.00555 0.73436 0.0
H507 H 0.01461 0.4952 0.81132 0.0
H508 H 1.00238 0.47311 0.72449 0.0
H509 H 0.98555 0.43323 0.79282 0.0
H510 H 0.03473 0.51481 0.76604 0.0
H511 H 0.02177 0.50755 0.73327 0.0
H512 H 0.02267 0.52604 0.80813 0.0
H513 H 0.99495 0.55653 0.78463 0.0
H514 H 0.99962 0.51787 0.7235 0.0
C515 C 0.00782 0.48304 0.79599 0.0
C516 C 0.99943 0.46383 0.80553 0.0
C517 C 0.0084 0.48659 0.76683 0.0
C518 C 1.00089 0.4705 0.74705 0.0
C519 C 0.99297 0.45121 0.75632 0.0
C520 C 0.99159 0.44806 0.78559 0.0
C521 C 0.01993 0.50751 0.75671 0.0
C522 C 0.01132 0.51979 0.76522 0.0
C523 C 0.01454 0.52856 0.79269 0.0
C524 C 0.00789 0.54115 0.80013 0.0
C525 C 0.99872 0.54565 0.7794 0.0
C526 C 0.99586 0.53761 0.75155 0.0
C527 C 1.00174 0.52422 0.74486 0.0
H528 H 0.51096 0.48417 0.80617 0.0
H529 H 0.50011 0.45938 0.72067 0.0
H530 H 0.45318 0.45119 0.7735 0.0
H531 H 0.53397 0.47518 0.77497 0.0
H532 H 0.53221 0.4764 0.73758 0.0
H533 H 0.54275 0.50447 0.80705 0.0
H534 H 0.57668 0.56076 0.76959 0.0
H535 H 0.54761 0.50831 0.71605 0.0
C536 C 0.50127 0.4767 0.78835 0.0
C537 C 0.48144 0.46872 0.7923 0.0
C538 C 0.50834 0.47433 0.76196 0.0
C539 C 0.495 0.46262 0.7402 0.0
C540 C 0.47501 0.45371 0.74454 0.0
C541 C 0.46855 0.45782 0.77005 0.0
C542 C 0.52963 0.48168 0.75834 0.0
C543 C 0.54247 0.50389 0.76119 0.0
C544 C 0.54757 0.51322 0.78834 0.0
C545 C 0.55967 0.53373 0.79158 0.0
C546 C 0.56711 0.54491 0.76735 0.0
C547 C 0.56313 0.53585 0.74021 0.0
C548 C 0.55059 0.51534 0.73705 0.0
H549 H 0.69824 0.87122 0.53929 0.0
H550 H 0.71764 0.89545 0.62415 0.0
H551 H 0.67971 0.90747 0.57838 0.0
H552 H 0.73318 0.88155 0.56553 0.0
H553 H 0.73056 0.87786 0.6026 0.0
H554 H 0.71215 0.85398 0.53054 0.0
H555 H 0.69328 0.79644 0.55909 0.0
H556 H 0.71346 0.84486 0.61989 0.0
C557 C 0.69771 0.87909 0.55803 0.0
C558 C 0.68692 0.88812 0.55687 0.0
C559 C 0.70847 0.88113 0.58254 0.0
C560 C 0.70866 0.89294 0.60572 0.0
C561 C 0.69825 0.90249 0.60453 0.0
C562 C 0.68703 0.89948 0.58025 0.0
C563 C 0.72227 0.87374 0.58226 0.0
C564 C 0.71265 0.85176 0.57613 0.0
C565 C 0.70867 0.84417 0.54789 0.0
C566 C 0.7009 0.82405 0.54178 0.0
C567 C 0.69787 0.81165 0.56407 0.0
C568 C 0.70259 0.81897 0.59223 0.0
C569 C 0.70958 0.83901 0.59824 0.0
H570 H 0.17774 0.84311 0.56786 0.0
H571 H 0.18161 0.86843 0.65185 0.0
H572 H 0.21538 0.90515 0.58384 0.0
H573 H 0.16686 0.82283 0.61262 0.0
H574 H 0.16383 0.83345 0.64477 0.0
H575 H 0.14689 0.83339 0.56896 0.0
H576 H 0.08752 0.79501 0.58849 0.0
H577 H 0.13076 0.80969 0.65249 0.0
C578 C 0.18309 0.85586 0.58218 0.0
C579 C 0.19616 0.87459 0.57209 0.0
C580 C 0.17669 0.85356 0.61053 0.0
C581 C 0.18539 0.87013 0.62957 0.0
C582 C 0.19998 0.88861 0.62017 0.0
C583 C 0.20455 0.89077 0.59127 0.0
C584 C 0.1626 0.83314 0.62123 0.0
C585 C 0.1415 0.82445 0.61278 0.0
C586 C 0.13616 0.82532 0.58468 0.0
C587 C 0.1168 0.81433 0.57574 0.0
C588 C 0.10252 0.80311 0.59536 0.0
C589 C 0.10734 0.80082 0.62281 0.0
C590 C 0.12685 0.81184 0.63161 0.0
H591 H 0.16416 0.30026 0.53079 0.0
H592 H 0.17049 0.29443 0.61991 0.0
H593 H 0.21975 0.31852 0.56531 0.0
H594 H 0.13727 0.27291 0.56269 0.0
H595 H 0.13907 0.2781 0.59983 0.0
H596 H 0.13496 0.29604 0.52902 0.0
H597 H 0.09827 0.31519 0.56285 0.0
H598 H 0.12715 0.29756 0.61931 0.0
C599 C 0.17323 0.30312 0.54913 0.0
C600 C 0.1931 0.31117 0.54522 0.0
C601 C 0.1649 0.2974 0.57612 0.0
C602 C 0.17685 0.29975 0.59936 0.0
C603 C 0.19677 0.30766 0.59568 0.0
C604 C 0.2047 0.31367 0.56869 0.0
C605 C 0.1431 0.28521 0.57893 0.0
C606 C 0.13306 0.29647 0.57473 0.0
C607 C 0.12929 0.29997 0.54715 0.0
C608 C 0.11722 0.30737 0.54271 0.0
C609 C 0.1088 0.31107 0.56632 0.0
C610 C 0.11219 0.30758 0.59405 0.0
C611 C 0.12473 0.30069 0.5981 0.0
H612 H 0.98371 0.41153 0.101 0.0
H613 H 0.04236 0.43678 0.07096 0.0
H614 H 0.05377 0.4639 0.10718 0.0
H615 H 0.98595 0.45732 0.12132 0.0
H616 H 0.97214 0.44759 0.15317 0.0
H617 H 0.96811 0.4314 0.12286 0.0
H618 H 0.97476 0.40943 0.15401 0.0
H619 H 0.97854 0.42541 0.18441 0.0
H620 H 0.99702 0.42046 0.1741 0.0
H621 H 0.05889 0.4878 0.14696 0.0
H622 H 0.05834 0.50385 0.1926 0.0
H623 H 0.99693 0.46158 0.19937 0.0
C624 C 0.9989 0.42293 0.10196 0.0
C625 C 0.01219 0.42231 0.08319 0.0
C626 C 0.03202 0.43711 0.08528 0.0
C627 C 0.03858 0.45262 0.10556 0.0
C628 C 0.02513 0.45289 0.12381 0.0
C629 C 0.00577 0.43823 0.12262 0.0
C630 C 0.99473 0.4408 0.14671 0.0
C631 C 0.97932 0.4445 0.13533 0.0
C632 C 0.98575 0.42297 0.16594 0.0
C633 C 0.01095 0.45906 0.16178 0.0
C634 C 0.02827 0.46609 0.1478 0.0
C635 C 0.04541 0.48252 0.15804 0.0
C636 C 0.04495 0.49161 0.1838 0.0
C637 C 0.02757 0.484 0.19912 0.0
C638 C 0.01032 0.46777 0.18772 0.0
H639 H 0.60472 0.6043 0.10964 0.0
H640 H 0.5566 0.57303 0.05018 0.0
H641 H 0.536 0.55206 0.08855 0.0
H642 H 0.59367 0.56215 0.15169 0.0
H643 H 0.6007 0.57641 0.1847 0.0
H644 H 0.61205 0.58799 0.15208 0.0
H645 H 0.60236 0.61385 0.16143 0.0
H646 H 0.591 0.60235 0.19403 0.0
H647 H 0.57733 0.60565 0.16734 0.0
H648 H 0.52022 0.5352 0.13401 0.0
H649 H 0.51036 0.52513 0.18353 0.0
H650 H 0.56868 0.56777 0.21277 0.0
C651 C 0.58992 0.59289 0.10461 0.0
C652 C 0.5823 0.59026 0.07691 0.0
C653 C 0.56277 0.57533 0.07127 0.0
C654 C 0.55096 0.56328 0.09289 0.0
C655 C 0.55887 0.56636 0.12003 0.0
C656 C 0.57789 0.58083 0.12596 0.0
C657 C 0.5826 0.58185 0.15718 0.0
C658 C 0.59818 0.57679 0.16166 0.0
C659 C 0.58867 0.60213 0.17078 0.0
C660 C 0.56319 0.56591 0.16793 0.0
C661 C 0.54972 0.55695 0.14619 0.0
C662 C 0.53067 0.54206 0.15121 0.0
C663 C 0.5252 0.5364 0.1793 0.0
C664 C 0.53871 0.54581 0.20188 0.0
C665 C 0.55798 0.5605 0.19593 0.0
H666 H 0.37892 0.98619 0.10875 0.0
H667 H 0.43 0.02354 0.05939 0.0
H668 H 0.4503 0.02087 0.09538 0.0
H669 H 0.40111 0.00543 0.17792 0.0
H670 H 0.38771 0.98175 0.19385 0.0
H671 H 0.37743 0.9871 0.16447 0.0
H672 H 0.37263 0.95621 0.13664 0.0
H673 H 0.38299 0.95083 0.16587 0.0
H674 H 0.39308 0.95351 0.13087 0.0
H675 H 0.46492 0.01296 0.13648 0.0
H676 H 0.47248 0.00197 0.18048 0.0
H677 H 0.41165 0.96995 0.20174 0.0
C678 C 0.39438 0.99394 0.10556 0.0
C679 C 0.40285 0.00506 0.08125 0.0
C680 C 0.42317 0.01495 0.0779 0.0
C681 C 0.43483 0.01349 0.09818 0.0
C682 C 0.42596 0.00215 0.12172 0.0
C683 C 0.40621 0.99268 0.12557 0.0
C684 C 0.40016 0.98133 0.15255 0.0
C685 C 0.39107 0.98939 0.17343 0.0
C686 C 0.38641 0.95916 0.14608 0.0
C687 C 0.41956 0.98582 0.16325 0.0
C688 C 0.43432 0.9978 0.14524 0.0
C689 C 0.45348 0.00366 0.15082 0.0
C690 C 0.45764 0.9973 0.1757 0.0
C691 C 0.4427 0.98537 0.19463 0.0
C692 C 0.42344 0.97941 0.18797 0.0
H693 H 0.41437 0.98236 0.93001 0.0
H694 H 0.42816 0.04259 0.94121 0.0
H695 H 0.45163 0.05258 0.90238 0.0
H696 H 0.46353 0.99417 0.90928 0.0
H697 H 0.4542 0.97418 0.8831 0.0
H698 H 0.44038 0.97205 0.91441 0.0
H699 H 0.41118 0.9646 0.88291 0.0
H700 H 0.42483 0.96649 0.85163 0.0
H701 H 0.41447 0.98157 0.85602 0.0
H702 H 0.4709 0.05561 0.85979 0.0
H703 H 0.48284 0.05083 0.81361 0.0
H704 H 0.45677 0.98881 0.82917 0.0
C705 C 0.42261 0.99771 0.92461 0.0
C706 C 0.4195 0.01171 0.93871 0.0
C707 C 0.43026 0.03159 0.93068 0.0
C708 C 0.44377 0.03746 0.90881 0.0
C709 C 0.44639 0.02329 0.89516 0.0
C710 C 0.43606 0.0038 0.90259 0.0
C711 C 0.44018 0.9912 0.88252 0.0
C712 C 0.45017 0.98238 0.89828 0.0
C713 C 0.42156 0.97502 0.86738 0.0
C714 C 0.45388 0.00655 0.8621 0.0
C715 C 0.45757 0.02503 0.87017 0.0
C716 C 0.46845 0.0413 0.85349 0.0
C717 C 0.47518 0.03848 0.82738 0.0
C718 C 0.47095 0.01955 0.81823 0.0
C719 C 0.46068 0.00353 0.83618 0.0
H720 H 0.97235 0.39401 0.93556 0.0
H721 H 0.03171 0.43226 0.96456 0.0
H722 H 0.03688 0.45589 0.92811 0.0
H723 H 0.98238 0.40066 0.86289 0.0
H724 H 0.96063 0.40004 0.8536 0.0
H725 H 0.96097 0.38727 0.88402 0.0
H726 H 0.9498 0.40659 0.91579 0.0
H727 H 0.94959 0.41955 0.88541 0.0
H728 H 0.96363 0.43313 0.91655 0.0
H729 H 0.03647 0.47407 0.88645 0.0
H730 H 0.03129 0.48409 0.84017 0.0
H731 H 0.97213 0.43436 0.83822 0.0
C732 C 0.98634 0.4075 0.93451 0.0
C733 C 1.0016 0.41133 0.95297 0.0
C734 C 0.01981 0.42899 0.95061 0.0
C735 C 0.02285 0.44259 0.93013 0.0
C736 C 0.00755 0.43834 0.91215 0.0
C737 C 0.98968 0.42118 0.91402 0.0
C738 C 0.97619 0.41935 0.89056 0.0
C739 C 0.96967 0.40073 0.87165 0.0
C740 C 0.95877 0.41968 0.90282 0.0
C741 C 0.98944 0.43789 0.87478 0.0
C742 C 0.00735 0.44881 0.88788 0.0
C743 C 0.02241 0.46583 0.87622 0.0
C744 C 0.01927 0.47151 0.85001 0.0
C745 C 1.00126 0.4601 0.83565 0.0
C746 C 0.98603 0.44342 0.84874 0.0
H747 H 0.63119 0.61163 0.90979 0.0
H748 H 0.5824 0.58753 0.96711 0.0
H749 H 0.56151 0.56387 0.92937 0.0
H750 H 0.60464 0.60775 0.84675 0.0
H751 H 0.61819 0.60093 0.82375 0.0
H752 H 0.6294 0.61608 0.85531 0.0
H753 H 0.63793 0.59101 0.8723 0.0
H754 H 0.62674 0.5758 0.84078 0.0
H755 H 0.619 0.56557 0.87534 0.0
H756 H 0.54581 0.54279 0.88548 0.0
H757 H 0.53646 0.52606 0.83801 0.0
H758 H 0.59557 0.56341 0.80987 0.0
C759 C 0.61611 0.60141 0.9144 0.0
C760 C 0.60845 0.60147 0.9414 0.0
C761 C 0.58863 0.58779 0.94658 0.0
C762 C 0.57662 0.57427 0.92529 0.0
C763 C 0.58463 0.57457 0.89895 0.0
C764 C 0.6039 0.58777 0.8934 0.0
C765 C 0.60888 0.58495 0.86327 0.0
C766 C 0.61567 0.60353 0.84627 0.0
C767 C 0.62403 0.57897 0.86292 0.0
C768 C 0.58938 0.56815 0.8528 0.0
C769 C 0.57559 0.56236 0.87369 0.0
C770 C 0.55649 0.54715 0.86894 0.0
C771 C 0.55134 0.53768 0.842 0.0
C772 C 0.56525 0.54347 0.82023 0.0
C773 C 0.58453 0.55883 0.82591 0.0
H774 H 0.98476 0.58826 0.93533 0.0
H775 H 0.04407 0.61257 0.96303 0.0
H776 H 0.04919 0.59558 0.9223 0.0
H777 H 0.9757 0.54069 0.90967 0.0
H778 H 0.96146 0.53933 0.87962 0.0
H779 H 0.96216 0.55271 0.91167 0.0
H780 H 0.9734 0.58393 0.8829 0.0
H781 H 0.97271 0.57065 0.85078 0.0
H782 H 0.99464 0.59323 0.86119 0.0
H783 H 0.04816 0.5766 0.87789 0.0
H784 H 0.04139 0.55827 0.8318 0.0
H785 H 0.98283 0.54634 0.83308 0.0
C786 C 0.99878 0.58991 0.93295 0.0
C787 C 0.014 0.6017 0.95244 0.0
C788 C 0.03219 0.60363 0.94838 0.0
C789 C 0.03524 0.59397 0.92536 0.0
C790 C 0.01996 0.58248 0.90652 0.0
C791 C 1.00211 0.58047 0.90998 0.0
C792 C 0.98835 0.56786 0.88608 0.0
C793 C 0.97089 0.54903 0.89745 0.0
C794 C 0.9819 0.57963 0.86925 0.0
C795 C 1.00129 0.56326 0.86855 0.0
C796 C 0.01942 0.57169 0.88081 0.0
C797 C 0.03397 0.56981 0.86817 0.0
C798 C 0.02996 0.55926 0.84209 0.0
C799 C 0.01157 0.55081 0.82889 0.0
C800 C 0.99705 0.5527 0.84258 0.0
H801 H 0.4424 0.42212 0.94103 0.0
H802 H 0.40072 0.44011 0.93441 0.0
H803 H 0.41832 0.46007 0.89341 0.0
H804 H 0.48543 0.46904 0.91823 0.0
H805 H 0.49501 0.45633 0.89854 0.0
H806 H 0.48079 0.44569 0.9298 0.0
H807 H 0.45743 0.41377 0.90052 0.0
H808 H 0.47163 0.42424 0.86934 0.0
H809 H 0.44617 0.41535 0.8688 0.0
H810 H 0.43784 0.4746 0.84986 0.0
H811 H 0.45709 0.48148 0.80607 0.0
H812 H 0.4864 0.45459 0.8411 0.0
C813 C 0.4372 0.43059 0.93136 0.0
C814 C 0.42022 0.42961 0.94104 0.0
C815 C 0.41371 0.44065 0.92743 0.0
C816 C 0.42368 0.45213 0.90422 0.0
C817 C 0.44022 0.45255 0.89494 0.0
C818 C 0.44696 0.44209 0.90811 0.0
C819 C 0.46397 0.44352 0.89236 0.0
C820 C 0.48239 0.45429 0.91084 0.0
C821 C 0.45952 0.42301 0.88215 0.0
C822 C 0.46529 0.45581 0.86769 0.0
C823 C 0.45165 0.46113 0.86983 0.0
C824 C 0.44886 0.47091 0.84826 0.0
C825 C 0.45985 0.4748 0.82352 0.0
C826 C 0.47346 0.46893 0.82059 0.0
C827 C 0.47657 0.45983 0.84329 0.0
H828 H 0.59893 0.99296 0.91282 0.0
H829 H 0.57152 0.01324 0.97261 0.0
H830 H 0.55098 0.01265 0.93404 0.0
H831 H 0.60043 0.02147 0.85516 0.0
H832 H 0.59556 0.00277 0.82824 0.0
H833 H 0.60752 0.00393 0.86083 0.0
H834 H 0.58118 0.96759 0.86961 0.0
H835 H 0.56907 0.96636 0.83708 0.0
H836 H 0.55612 0.96033 0.87011 0.0
H837 H 0.53387 0.01066 0.88878 0.0
H838 H 0.52305 0.0094 0.83944 0.0
H839 H 0.56127 0.9901 0.80936 0.0
C840 C 0.58856 0.99721 0.91782 0.0
C841 C 0.58683 0.00311 0.94578 0.0
C842 C 0.57316 0.00867 0.95137 0.0
C843 C 0.56134 0.00831 0.92963 0.0
C844 C 0.56334 0.00236 0.90235 0.0
C845 C 0.57667 0.997 0.89633 0.0
C846 C 0.57644 0.99192 0.86499 0.0
C847 C 0.59616 0.00586 0.85152 0.0
C848 C 0.57033 0.97026 0.86018 0.0
C849 C 0.56107 0.99549 0.85435 0.0
C850 C 0.55356 1.00133 0.87624 0.0
C851 C 0.53956 0.00599 0.87145 0.0
C852 C 0.5334 0.00511 0.8434 0.0
C853 C 0.54134 0.99972 0.82055 0.0
C854 C 0.55505 0.99446 0.82633 0.0
H855 H 0.60496 0.01838 0.10312 0.0
H856 H 0.56978 0.96632 0.04897 0.0
H857 H 0.54229 0.95595 0.08122 0.0
H858 H 0.58722 0.99482 0.16851 0.0
H859 H 0.58779 0.01549 0.18624 0.0
H860 H 0.60431 0.01951 0.15786 0.0
H861 H 0.59202 0.03875 0.1312 0.0
H862 H 0.57532 0.03463 0.15945 0.0
H863 H 0.56658 0.02715 0.12341 0.0
H864 H 0.51908 0.95032 0.12034 0.0
H865 H 0.50262 0.94869 0.16535 0.0
H866 H 0.55252 0.00462 0.1938 0.0
C867 C 0.59144 0.00488 0.09794 0.0
C868 C 0.58954 0.9932 0.07347 0.0
C869 C 0.57163 0.97552 0.06761 0.0
C870 C 0.55587 0.96955 0.08571 0.0
C871 C 0.5582 0.9814 0.10959 0.0
C872 C 0.57555 0.99864 0.11586 0.0
C873 C 0.57453 0.00809 0.14375 0.0
C874 C 0.58933 0.00955 0.16536 0.0
C875 C 0.57727 0.02836 0.13916 0.0
C876 C 0.55402 0.99329 0.15237 0.0
C877 C 0.54477 0.97813 0.13223 0.0
C878 C 0.52607 0.96223 0.13614 0.0
C879 C 0.51676 0.96152 0.1617 0.0
C880 C 0.52621 0.97659 0.18306 0.0
C881 C 0.5449 0.99289 0.17788 0.0
H882 H 0.02519 0.59629 0.08694 0.0
H883 H 0.96697 0.58487 0.09477 0.0
H884 H 0.96283 0.56731 0.1389 0.0
H885 H 0.01514 0.54938 0.11557 0.0
H886 H 0.03813 0.561 0.13379 0.0
H887 H 0.0358 0.57086 0.10131 0.0
H888 H 0.0491 0.60492 0.12689 0.0
H889 H 0.05157 0.59521 0.15931 0.0
H890 H 0.03754 0.60668 0.15875 0.0
H891 H 0.96631 0.55418 0.1847 0.0
H892 H 0.97738 0.54696 0.22878 0.0
H893 H 0.03291 0.56617 0.19045 0.0
C894 C 0.01144 0.58984 0.09766 0.0
C895 C 0.99639 0.59194 0.08733 0.0
C896 C 0.9787 0.58342 0.1022 0.0
C897 C 0.97619 0.57335 0.12723 0.0
C898 C 0.99141 0.57175 0.13699 0.0
C899 C 0.00867 0.5797 0.12258 0.0
C900 C 0.02323 0.5771 0.13848 0.0
C901 C 0.02837 0.56379 0.12125 0.0
C902 C 0.04142 0.59717 0.14632 0.0
C903 C 0.01169 0.567 0.16455 0.0
C904 C 0.99329 0.56385 0.16316 0.0
C905 C 0.98053 0.55622 0.18578 0.0
C906 C 0.98691 0.55214 0.21068 0.0
C907 C 0.00583 0.55566 0.21272 0.0
C908 C 0.01817 0.56276 0.18909 0.0
H909 H 0.42507 0.455 0.07737 0.0
H910 H 0.40356 0.39244 0.07806 0.0
H911 H 0.42001 0.39736 0.12393 0.0
H912 H 0.47224 0.47218 0.11166 0.0
H913 H 0.472 0.49157 0.13209 0.0
H914 H 0.46009 0.48366 0.09787 0.0
H915 H 0.4281 0.47681 0.12068 0.0
H916 H 0.43993 0.4848 0.15486 0.0
H917 H 0.41843 0.46071 0.15019 0.0
H918 H 0.43626 0.40818 0.17101 0.0
H919 H 0.45061 0.42435 0.2176 0.0
H920 H 0.46211 0.47999 0.18711 0.0
C921 C 0.42406 0.4424 0.08699 0.0
C922 C 0.41305 0.42334 0.07406 0.0
C923 C 0.41187 0.40717 0.08753 0.0
C924 C 0.42126 0.40983 0.11353 0.0
C925 C 0.43185 0.42874 0.12581 0.0
C926 C 0.43332 0.44477 0.11308 0.0
C927 C 0.44453 0.46328 0.13184 0.0
C928 C 0.46333 0.47858 0.1175 0.0
C929 C 0.43199 0.4719 0.13987 0.0
C930 C 0.44868 0.45501 0.15737 0.0
C931 C 0.44141 0.43508 0.15323 0.0
C932 C 0.44228 0.42383 0.17437 0.0
C933 C 0.45044 0.43309 0.20068 0.0
C934 C 0.45763 0.45337 0.20556 0.0
C935 C 0.45709 0.46456 0.18351 0.0
H936 H 0.65489 0.73621 0.42633 0.0
H937 H 0.70589 0.77137 0.37559 0.0
H938 H 0.71639 0.79966 0.40918 0.0
H939 H 0.64706 0.7761 0.44876 0.0
H940 H 0.63992 0.76705 0.48404 0.0
H941 H 0.63531 0.75011 0.45451 0.0
H942 H 0.6539 0.73683 0.48045 0.0
H943 H 0.65843 0.75362 0.51007 0.0
H944 H 0.67834 0.75382 0.49257 0.0
H945 H 0.7226 0.82339 0.44989 0.0
H946 H 0.72515 0.83981 0.49653 0.0
H947 H 0.67012 0.78941 0.52064 0.0
C948 C 0.66812 0.74995 0.42207 0.0
C949 C 0.67952 0.7516 0.39828 0.0
C950 C 0.69691 0.76973 0.39371 0.0
C951 C 0.70295 0.78595 0.41255 0.0
C952 C 0.69144 0.78381 0.43588 0.0
C953 C 0.67444 0.76625 0.4408 0.0
C954 C 0.66554 0.76735 0.46865 0.0
C955 C 0.64578 0.76502 0.46368 0.0
C956 C 0.66397 0.752 0.48913 0.0
C957 C 0.68043 0.78811 0.47891 0.0
C958 C 0.69511 0.79748 0.45952 0.0
C959 C 0.71106 0.81633 0.46509 0.0
C960 C 0.71233 0.82561 0.49156 0.0
C961 C 0.69779 0.81593 0.51214 0.0
C962 C 0.68142 0.79718 0.50528 0.0
H963 H 0.23614 0.94006 0.43689 0.0
H964 H 0.25449 0.90086 0.40483 0.0
H965 H 0.23753 0.87863 0.44411 0.0
H966 H 0.24313 0.93619 0.50878 0.0
H967 H 0.22247 0.93702 0.52085 0.0
H968 H 0.23431 0.94867 0.4886 0.0
H969 H 0.2018 0.92813 0.46102 0.0
H970 H 0.18987 0.91636 0.49327 0.0
H971 H 0.18844 0.90166 0.46235 0.0
H972 H 0.22074 0.86204 0.48927 0.0
H973 H 0.20676 0.85346 0.53738 0.0
H974 H 0.19908 0.90324 0.53898 0.0
C975 C 0.23636 0.92666 0.43785 0.0
C976 C 0.24661 0.9222 0.41774 0.0
C977 C 0.24672 0.90461 0.41998 0.0
C978 C 0.23705 0.89182 0.44215 0.0
C979 C 0.22724 0.89677 0.46181 0.0
C980 C 0.22682 0.91377 0.45982 0.0
C981 C 0.2164 0.91644 0.48468 0.0
C982 C 0.22989 0.93572 0.50173 0.0
C983 C 0.19803 0.91559 0.47472 0.0
C984 C 0.21151 0.8986 0.50135 0.0
C985 C 0.21763 0.88726 0.48771 0.0
C986 C 0.21565 0.87066 0.49998 0.0
C987 C 0.20761 0.86583 0.52721 0.0
C988 C 0.20186 0.87769 0.54184 0.0
C989 C 0.2034 0.89393 0.5283 0.0
H990 H 0.07271 0.34493 0.42908 0.0
H991 H 0.06227 0.29516 0.37462 0.0
H992 H 0.07971 0.28722 0.40863 0.0
H993 H 0.12117 0.35868 0.45383 0.0
H994 H 0.11739 0.365 0.4894 0.0
H995 H 0.10529 0.36782 0.45979 0.0
H996 H 0.07222 0.3457 0.48374 0.0
H997 H 0.08421 0.34285 0.51339 0.0
H998 H 0.0655 0.32142 0.49412 0.0
H999 H 0.09602 0.28299 0.44986 0.0
H1000 H 0.10947 0.28244 0.49612 0.0
H1001 H 0.11076 0.33564 0.52348 0.0
C1002 C 0.0743 0.33251 0.42417 0.0
C1003 C 0.06612 0.3207 0.39912 0.0
C1004 C 0.06837 0.30445 0.39363 0.0
C1005 C 0.07834 0.29983 0.41278 0.0
C1006 C 0.08608 0.31164 0.43734 0.0
C1007 C 0.08423 0.32766 0.44312 0.0
C1008 C 0.09312 0.3373 0.47179 0.0
C1009 C 0.11026 0.35846 0.4685 0.0
C1010 C 0.07785 0.33678 0.49194 0.0
C1011 C 0.09983 0.32392 0.48141 0.0
C1012 C 0.09577 0.30932 0.46111 0.0
C1013 C 0.09958 0.29455 0.46577 0.0
C1014 C 0.10741 0.29447 0.49211 0.0
C1015 C 0.11139 0.30908 0.51354 0.0
C1016 C 0.10788 0.32421 0.50767 0.0
H1017 H 0.09426 0.37667 0.27 0.0
H1018 H 0.05709 0.31461 0.28685 0.0
H1019 H 0.07419 0.30656 0.25042 0.0
H1020 H 0.09507 0.36989 0.19477 0.0
H1021 H 0.11981 0.38972 0.19129 0.0
H1022 H 0.1054 0.39053 0.21992 0.0
H1023 H 0.13119 0.39469 0.25615 0.0
H1024 H 0.14555 0.3936 0.22758 0.0
H1025 H 0.13821 0.37672 0.25609 0.0
H1026 H 0.0951 0.30523 0.21166 0.0
H1027 H 0.1153 0.31037 0.16936 0.0
H1028 H 0.13817 0.37311 0.17704 0.0
C1029 C 0.08977 0.3614 0.26609 0.0
C1030 C 0.0744 0.34628 0.28132 0.0
C1031 C 0.06879 0.32644 0.27535 0.0
C1032 C 0.07852 0.32173 0.25488 0.0
C1033 C 0.09374 0.33701 0.24042 0.0
C1034 C 0.09915 0.35642 0.24547 0.0
C1035 C 0.11509 0.36993 0.22567 0.0
C1036 C 0.10844 0.38064 0.2068 0.0
C1037 C 0.13361 0.3846 0.24238 0.0
C1038 C 0.11767 0.35507 0.20853 0.0
C1039 C 0.10546 0.3362 0.21766 0.0
C1040 C 0.10481 0.31996 0.20443 0.0
C1041 C 0.11645 0.32302 0.18059 0.0
C1042 C 0.12836 0.34213 0.17012 0.0
C1043 C 0.12929 0.35836 0.18477 0.0
H1044 H 0.6473 0.73931 0.25463 0.0
H1045 H 0.70811 0.75982 0.26399 0.0
H1046 H 0.71604 0.784 0.22692 0.0
H1047 H 0.64784 0.74161 0.17946 0.0
H1048 H 0.63055 0.74919 0.17822 0.0
H1049 H 0.63005 0.73471 0.20696 0.0
H1050 H 0.63295 0.76144 0.2431 0.0
H1051 H 0.63375 0.77614 0.21438 0.0
H1052 H 0.6529 0.78649 0.24062 0.0
H1053 H 0.71723 0.80555 0.18807 0.0
H1054 H 0.71112 0.81947 0.14621 0.0
H1055 H 0.64955 0.78404 0.16135 0.0
C1056 C 0.6623 0.74898 0.24901 0.0
C1057 C 0.6771 0.74778 0.26228 0.0
C1058 C 0.69653 0.76047 0.25404 0.0
C1059 C 0.70119 0.77436 0.2332 0.0
C1060 C 0.68625 0.77528 0.22068 0.0
C1061 C 0.66717 0.76273 0.228 0.0
C1062 C 0.65369 0.76565 0.20986 0.0
C1063 C 0.63972 0.74667 0.1926 0.0
C1064 C 0.64268 0.77286 0.22808 0.0
C1065 C 0.66814 0.7816 0.19091 0.0
C1066 C 0.68688 0.78726 0.19783 0.0
C1067 C 0.70263 0.80133 0.18258 0.0
C1068 C 0.69906 0.80929 0.15902 0.0
C1069 C 0.6799 0.80291 0.15081 0.0
C1070 C 0.66434 0.78928 0.16742 0.0
H1071 H 0.26686 0.93058 0.25662 0.0
H1072 H 0.21162 0.90733 0.29852 0.0
H1073 H 0.19476 0.89115 0.25318 0.0
H1074 H 0.25217 0.93947 0.18859 0.0
H1075 H 0.26649 0.93217 0.16846 0.0
H1076 H 0.27408 0.94301 0.20374 0.0
H1077 H 0.27512 0.91268 0.21882 0.0
H1078 H 0.26761 0.90181 0.18362 0.0
H1079 H 0.25389 0.88841 0.21391 0.0
H1080 H 0.18404 0.8756 0.20369 0.0
H1081 H 0.18056 0.86222 0.15434 0.0
H1082 H 0.24293 0.89584 0.14589 0.0
C1083 C 0.25121 0.92227 0.25626 0.0
C1084 C 0.24056 0.92023 0.28112 0.0
C1085 C 0.2201 0.90913 0.27972 0.0
C1086 C 0.21038 0.89991 0.25406 0.0
C1087 C 0.22135 0.90207 0.23 0.0
C1088 C 0.24132 0.91304 0.23091 0.0
C1089 C 0.24981 0.91239 0.2025 0.0
C1090 C 0.26131 0.93299 0.1901 0.0
C1091 C 0.26234 0.90327 0.20487 0.0
C1092 C 0.23152 0.89903 0.18558 0.0
C1093 C 0.21522 0.8933 0.20166 0.0
C1094 C 0.1967 0.88018 0.1908 0.0
C1095 C 0.19486 0.87261 0.16283 0.0
C1096 C 0.21144 0.87821 0.14615 0.0
C1097 C 0.22994 0.89171 0.15777 0.0
H1098 H 0.68805 0.929 0.26375 0.0
H1099 H 0.62728 0.90983 0.26787 0.0
H1100 H 0.62086 0.88898 0.22453 0.0
H1101 H 0.69213 0.93305 0.18976 0.0
H1102 H 0.70847 0.9243 0.18591 0.0
H1103 H 0.70797 0.93627 0.21872 0.0
H1104 H 0.70139 0.90585 0.24622 0.0
H1105 H 0.70174 0.89373 0.21339 0.0
H1106 H 0.68102 0.88188 0.23618 0.0
H1107 H 0.62139 0.87258 0.17883 0.0
H1108 H 0.62914 0.86236 0.13296 0.0
H1109 H 0.6893 0.8915 0.15865 0.0
C1110 C 0.67335 0.92023 0.25575 0.0
C1111 C 0.65817 0.92103 0.26926 0.0
C1112 C 0.63916 0.90946 0.25793 0.0
C1113 C 0.63534 0.89749 0.23339 0.0
C1114 C 0.65064 0.89713 0.22051 0.0
C1115 C 0.66926 0.90817 0.23127 0.0
C1116 C 0.68329 0.90607 0.21232 0.0
C1117 C 0.69888 0.92611 0.20101 0.0
C1118 C 0.6924 0.8963 0.22797 0.0
C1119 C 0.66972 0.89255 0.18884 0.0
C1120 C 0.65091 0.88741 0.19416 0.0
C1121 C 0.63599 0.87622 0.17463 0.0
C1122 C 0.6405 0.87049 0.1487 0.0
C1123 C 0.65972 0.87593 0.14262 0.0
C1124 C 0.67441 0.88673 0.16319 0.0
H1125 H 0.07424 0.76009 0.26496 0.0
H1126 H 0.11577 0.75454 0.3144 0.0
H1127 H 0.13906 0.76813 0.27528 0.0
H1128 H 0.08389 0.74525 0.1993 0.0
H1129 H 0.08116 0.76225 0.17876 0.0
H1130 H 0.06843 0.75382 0.21165 0.0
H1131 H 0.08381 0.78997 0.23039 0.0
H1132 H 0.09661 0.79851 0.19749 0.0
H1133 H 0.10973 0.80609 0.23076 0.0
H1134 H 0.15672 0.77941 0.22909 0.0
H1135 H 0.16705 0.78719 0.17934 0.0
H1136 H 0.11472 0.78688 0.1609 0.0
C1137 C 0.08832 0.76198 0.26773 0.0
C1138 C 0.09316 0.75625 0.29278 0.0
C1139 C 0.11171 0.75884 0.29544 0.0
C1140 C 0.12509 0.76661 0.27336 0.0
C1141 C 0.1198 0.7719 0.24882 0.0
C1142 C 0.1019 0.76979 0.24594 0.0
C1143 C 0.09941 0.77562 0.21681 0.0
C1144 C 0.08221 0.75819 0.20069 0.0
C1145 C 0.09727 0.79362 0.21901 0.0
C1146 C 0.11847 0.78076 0.20353 0.0
C1147 C 0.13012 0.7787 0.22237 0.0
C1148 C 0.14787 0.78141 0.21427 0.0
C1149 C 0.15369 0.78596 0.18598 0.0
C1150 C 0.14175 0.78771 0.16615 0.0
C1151 C 0.12416 0.78554 0.17544 0.0
H1152 H 0.2708 0.32283 0.25195 0.0
H1153 H 0.24456 0.33971 0.31869 0.0
H1154 H 0.22205 0.33936 0.28373 0.0
H1155 H 0.27004 0.35325 0.20054 0.0
H1156 H 0.26488 0.33623 0.1709 0.0
H1157 H 0.27751 0.33566 0.20161 0.0
H1158 H 0.25163 0.2987 0.20692 0.0
H1159 H 0.23887 0.2992 0.17623 0.0
H1160 H 0.22651 0.29104 0.20953 0.0
H1161 H 0.20366 0.33917 0.24127 0.0
H1162 H 0.1925 0.34151 0.19371 0.0
H1163 H 0.23089 0.32524 0.15461 0.0
C1164 C 0.26011 0.32614 0.25923 0.0
C1165 C 0.25937 0.33121 0.28802 0.0
C1166 C 0.24542 0.33582 0.29669 0.0
C1167 C 0.23247 0.33553 0.27704 0.0
C1168 C 0.23367 0.33066 0.24875 0.0
C1169 C 0.24719 0.32615 0.2398 0.0
C1170 C 0.24646 0.32298 0.20784 0.0
C1171 C 0.26587 0.33793 0.19445 0.0
C1172 C 0.24051 0.30171 0.19966 0.0
C1173 C 0.23073 0.32686 0.20026 0.0
C1174 C 0.22331 0.33094 0.22417 0.0
C1175 C 0.20922 0.33582 0.22237 0.0
C1176 C 0.2029 0.33703 0.19534 0.0
C1177 C 0.21087 0.33361 0.17059 0.0
C1178 C 0.22461 0.32801 0.17322 0.0
H1179 H 0.28174 0.35157 0.44002 0.0
H1180 H 0.2457 0.29932 0.38663 0.0
H1181 H 0.21778 0.29097 0.41695 0.0
H1182 H 0.26153 0.32924 0.50535 0.0
H1183 H 0.26305 0.35075 0.52177 0.0
H1184 H 0.27986 0.35346 0.49451 0.0
H1185 H 0.26986 0.37381 0.46567 0.0
H1186 H 0.25282 0.37092 0.49274 0.0
H1187 H 0.24478 0.36338 0.45643 0.0
H1188 H 0.19419 0.28717 0.45411 0.0
H1189 H 0.17747 0.28644 0.49837 0.0
H1190 H 0.22832 0.34133 0.52757 0.0
C1191 C 0.26794 0.33845 0.43461 0.0
C1192 C 0.26593 0.32614 0.4109 0.0
C1193 C 0.24766 0.30897 0.40473 0.0
C1194 C 0.23164 0.30417 0.42168 0.0
C1195 C 0.23407 0.31666 0.44477 0.0
C1196 C 0.25178 0.33334 0.45145 0.0
C1197 C 0.25074 0.34346 0.47865 0.0
C1198 C 0.26461 0.34426 0.50141 0.0
C1199 C 0.25479 0.36412 0.47302 0.0
C1200 C 0.22981 0.3296 0.48646 0.0
C1201 C 0.22038 0.31441 0.4664 0.0
C1202 C 0.20132 0.29912 0.46982 0.0
C1203 C 0.19185 0.29894 0.49494 0.0
C1204 C 0.20151 0.3139 0.51638 0.0
C1205 C 0.22053 0.32974 0.51152 0.0
H1206 H 0.69115 0.92767 0.40406 0.0
H1207 H 0.63299 0.91522 0.41812 0.0
H1208 H 0.63103 0.89804 0.46166 0.0
H1209 H 0.6832 0.88119 0.4318 0.0
H1210 H 0.70693 0.89333 0.44788 0.0
H1211 H 0.70298 0.90271 0.41611 0.0
H1212 H 0.71675 0.93692 0.44147 0.0
H1213 H 0.72082 0.92768 0.47316 0.0
H1214 H 0.70638 0.93873 0.47459 0.0
H1215 H 0.63672 0.8856 0.50626 0.0
H1216 H 0.64994 0.87927 0.54883 0.0
H1217 H 0.70396 0.89904 0.50522 0.0
C1218 C 0.67787 0.92105 0.41602 0.0
C1219 C 0.66222 0.92277 0.40763 0.0
C1220 C 0.64517 0.91407 0.42407 0.0
C1221 C 0.64388 0.90419 0.44878 0.0
C1222 C 0.65967 0.90297 0.45663 0.0
C1223 C 0.67631 0.91109 0.44067 0.0
C1224 C 0.69174 0.909 0.45481 0.0
C1225 C 0.69648 0.89576 0.43656 0.0
C1226 C 0.70999 0.92929 0.46141 0.0
C1227 C 0.6814 0.89903 0.48169 0.0
C1228 C 0.66283 0.89547 0.48219 0.0
C1229 C 0.65108 0.88794 0.50588 0.0
C1230 C 0.65867 0.88439 0.52992 0.0
C1231 C 0.67779 0.88834 0.53 0.0
C1232 C 0.68909 0.89531 0.50534 0.0
H1233 H 0.06452 0.75112 0.4352 0.0
H1234 H 0.09079 0.80536 0.38946 0.0
H1235 H 0.10664 0.82435 0.43395 0.0
H1236 H 0.05482 0.76996 0.49912 0.0
H1237 H 0.06013 0.75576 0.52197 0.0
H1238 H 0.05108 0.74663 0.48647 0.0
H1239 H 0.08075 0.74358 0.47569 0.0
H1240 H 0.08984 0.75263 0.51119 0.0
H1241 H 0.10475 0.76481 0.48111 0.0
H1242 H 0.12009 0.8373 0.4842 0.0
H1243 H 0.12894 0.84275 0.53548 0.0
H1244 H 0.09336 0.77979 0.54674 0.0
C1245 C 0.07361 0.76699 0.43445 0.0
C1246 C 0.07644 0.77675 0.40884 0.0
C1247 C 0.0884 0.79756 0.40887 0.0
C1248 C 0.09748 0.80847 0.43401 0.0
C1249 C 0.09437 0.79835 0.45892 0.0
C1250 C 0.08266 0.77806 0.45926 0.0
C1251 C 0.08148 0.7706 0.48865 0.0
C1252 C 0.06064 0.76012 0.49969 0.0
C1253 C 0.0897 0.75711 0.48918 0.0
C1254 C 0.09435 0.78982 0.50486 0.0
C1255 C 0.10175 0.80572 0.48749 0.0
C1256 C 0.11428 0.82494 0.49801 0.0
C1257 C 0.11926 0.82791 0.52707 0.0
C1258 C 0.11156 0.81174 0.54513 0.0
C1259 C 0.09908 0.79252 0.53365 0.0
H1260 H 0.3267 0.07064 0.77037 0.0
H1261 H 0.34897 0.11733 0.71015 0.0
H1262 H 0.35364 0.14115 0.74887 0.0
H1263 H 0.30041 0.08886 0.81323 0.0
H1264 H 0.30535 0.08145 0.84616 0.0
H1265 H 0.30312 0.06788 0.81354 0.0
H1266 H 0.337 0.07324 0.82232 0.0
H1267 H 0.33931 0.08681 0.85492 0.0
H1268 H 0.35746 0.09794 0.82794 0.0
H1269 H 0.35992 0.16039 0.79463 0.0
H1270 H 0.36521 0.17351 0.8436 0.0
H1271 H 0.33346 0.11364 0.87366 0.0
C1272 C 0.33244 0.08586 0.76544 0.0
C1273 C 0.33763 0.09226 0.73744 0.0
C1274 C 0.3449 0.1122 0.73154 0.0
C1275 C 0.34759 0.12581 0.75335 0.0
C1276 C 0.3424 0.11911 0.78079 0.0
C1277 C 0.33465 0.09956 0.78686 0.0
C1278 C 0.33032 0.09631 0.81822 0.0
C1279 C 0.3085 0.08283 0.82306 0.0
C1280 C 0.3417 0.0881 0.83163 0.0
C1281 C 0.33762 0.11722 0.82892 0.0
C1282 C 0.34459 0.13012 0.807 0.0
C1283 C 0.35397 0.15039 0.81196 0.0
C1284 C 0.3567 0.15771 0.84011 0.0
C1285 C 0.34971 0.1448 0.8632 0.0
C1286 C 0.3394 0.12419 0.85705 0.0
H1287 H 0.95685 0.26646 0.79581 0.0
H1288 H 0.91152 0.24402 0.73162 0.0
H1289 H 0.88773 0.22219 0.76657 0.0
H1290 H 0.9384 0.22023 0.83254 0.0
H1291 H 0.94519 0.23249 0.8671 0.0
H1292 H 0.95897 0.24502 0.83636 0.0
H1293 H 0.95357 0.27376 0.84787 0.0
H1294 H 0.9399 0.26138 0.87867 0.0
H1295 H 0.92928 0.26857 0.85203 0.0
H1296 H 0.86842 0.20431 0.80955 0.0
H1297 H 0.85519 0.19376 0.85769 0.0
H1298 H 0.91322 0.22777 0.89313 0.0
C1299 C 0.94198 0.25678 0.78897 0.0
C1300 C 0.93608 0.25691 0.76095 0.0
C1301 C 0.9164 0.24419 0.75299 0.0
C1302 C 0.90278 0.23164 0.77264 0.0
C1303 C 0.90906 0.23194 0.80015 0.0
C1304 C 0.92819 0.24424 0.80833 0.0
C1305 C 0.93101 0.24279 0.83962 0.0
C1306 C 0.94417 0.23464 0.84416 0.0
C1307 C 0.9389 0.26281 0.85547 0.0
C1308 C 0.91042 0.22813 0.84791 0.0
C1309 C 0.89796 0.2218 0.82484 0.0
C1310 C 0.87806 0.209 0.82773 0.0
C1311 C 0.87068 0.203 0.85507 0.0
C1312 C 0.88319 0.21 0.87903 0.0
C1313 C 0.90332 0.22224 0.87515 0.0
H1314 H 0.73895 0.63973 0.73213 0.0
H1315 H 0.74788 0.69797 0.74613 0.0
H1316 H 0.76494 0.70183 0.79119 0.0
H1317 H 0.72886 0.62576 0.80355 0.0
H1318 H 0.74086 0.61216 0.80275 0.0
H1319 H 0.7307 0.61466 0.77062 0.0
H1320 H 0.76402 0.62942 0.74632 0.0
H1321 H 0.77432 0.62711 0.77853 0.0
H1322 H 0.78489 0.6507 0.76249 0.0
H1323 H 0.77968 0.69878 0.83574 0.0
H1324 H 0.78938 0.68824 0.87779 0.0
H1325 H 0.77028 0.63181 0.8351 0.0
C1326 C 0.74466 0.65338 0.74452 0.0
C1327 C 0.74214 0.66858 0.73554 0.0
C1328 C 0.74963 0.68612 0.75256 0.0
C1329 C 0.75943 0.6885 0.77813 0.0
C1330 C 0.76164 0.67321 0.78638 0.0
C1331 C 0.75439 0.65596 0.77015 0.0
C1332 C 0.7577 0.64134 0.78463 0.0
C1333 C 0.73838 0.62236 0.79075 0.0
C1334 C 0.77103 0.63689 0.76693 0.0
C1335 C 0.76763 0.65294 0.81175 0.0
C1336 C 0.76998 0.67138 0.8122 0.0
C1337 C 0.77804 0.68443 0.83556 0.0
C1338 C 0.78347 0.67831 0.85934 0.0
C1339 C 0.7807 0.65927 0.85965 0.0
C1340 C 0.77299 0.64661 0.83528 0.0
H1341 H 0.73393 0.66505 0.58104 0.0
H1342 H 0.78505 0.69204 0.63517 0.0
H1343 H 0.8035 0.68831 0.59615 0.0
H1344 H 0.74277 0.62974 0.54314 0.0
H1345 H 0.73395 0.63249 0.50976 0.0
H1346 H 0.72438 0.63588 0.54267 0.0
H1347 H 0.7334 0.67065 0.52799 0.0
H1348 H 0.74294 0.66734 0.49507 0.0
H1349 H 0.75797 0.68828 0.51843 0.0
H1350 H 0.81688 0.68312 0.55017 0.0
H1351 H 0.82425 0.67842 0.50037 0.0
H1352 H 0.7644 0.65491 0.4768 0.0
C1353 C 0.74894 0.66997 0.58482 0.0
C1354 C 0.75801 0.67878 0.61121 0.0
C1355 C 0.77776 0.68524 0.61514 0.0
C1356 C 0.78836 0.68311 0.59313 0.0
C1357 C 0.77902 0.67449 0.56731 0.0
C1358 C 0.75975 0.66806 0.56305 0.0
C1359 C 0.7534 0.66033 0.53283 0.0
C1360 C 0.73769 0.6383 0.53207 0.0
C1361 C 0.74653 0.67237 0.5177 0.0
C1362 C 0.77217 0.66376 0.52063 0.0
C1363 C 0.78675 0.67171 0.54087 0.0
C1364 C 0.80553 0.67675 0.53418 0.0
C1365 C 0.80958 0.67396 0.50592 0.0
C1366 C 0.79494 0.6664 0.48474 0.0
C1367 C 0.77594 0.66088 0.49249 0.0
H1368 H 0.36527 0.07175 0.57093 0.0
H1369 H 0.34465 0.09704 0.63435 0.0
H1370 H 0.34642 0.12017 0.59943 0.0
H1371 H 0.39807 0.1176 0.53434 0.0
H1372 H 0.39205 0.10533 0.49976 0.0
H1373 H 0.39121 0.09218 0.53057 0.0
H1374 H 0.35557 0.06532 0.51875 0.0
H1375 H 0.35638 0.0783 0.48787 0.0
H1376 H 0.33811 0.07243 0.51428 0.0
H1377 H 0.34811 0.13898 0.55655 0.0
H1378 H 0.34719 0.14984 0.50826 0.0
H1379 H 0.36667 0.11234 0.47322 0.0
C1380 C 0.36141 0.08236 0.5776 0.0
C1381 C 0.35489 0.08262 0.60541 0.0
C1382 C 0.34967 0.09652 0.61315 0.0
C1383 C 0.35075 0.10984 0.59352 0.0
C1384 C 0.35711 0.10911 0.56621 0.0
C1385 C 0.36227 0.09566 0.55821 0.0
C1386 C 0.36707 0.0968 0.52695 0.0
C1387 C 0.38837 0.10337 0.52266 0.0
C1388 C 0.35347 0.07705 0.51104 0.0
C1389 C 0.3633 0.1126 0.5185 0.0
C1390 C 0.35788 0.11978 0.54148 0.0
C1391 C 0.35257 0.13365 0.53844 0.0
C1392 C 0.35218 0.13982 0.51102 0.0
C1393 C 0.35685 0.13192 0.48714 0.0
C1394 C 0.36306 0.11864 0.49117 0.0
H1395 H 0.90683 0.26525 0.60021 0.0
H1396 H 0.9368 0.2373 0.6291 0.0
H1397 H 0.92065 0.21134 0.59143 0.0
H1398 H 0.86143 0.22038 0.57705 0.0
H1399 H 0.85904 0.2314 0.54589 0.0
H1400 H 0.87098 0.24649 0.57726 0.0
H1401 H 0.90147 0.26898 0.54784 0.0
H1402 H 0.88952 0.25411 0.51641 0.0
H1403 H 0.91256 0.25814 0.52719 0.0
H1404 H 0.90259 0.18936 0.54975 0.0
H1405 H 0.88764 0.17559 0.50259 0.0
H1406 H 0.87069 0.21863 0.4988 0.0
C1407 C 0.90973 0.25349 0.59875 0.0
C1408 C 0.92289 0.25312 0.61759 0.0
C1409 C 0.92676 0.23781 0.61477 0.0
C1410 C 0.91752 0.22291 0.59366 0.0
C1411 C 0.90462 0.22366 0.57534 0.0
C1412 C 0.90095 0.23872 0.57733 0.0
C1413 C 0.88817 0.23725 0.55301 0.0
C1414 C 0.86875 0.23366 0.56397 0.0
C1415 C 0.89856 0.25571 0.53505 0.0
C1416 C 0.88557 0.21927 0.53678 0.0
C1417 C 0.89478 0.21138 0.55044 0.0
C1418 C 0.89516 0.19526 0.53896 0.0
C1419 C 0.8865 0.18744 0.51229 0.0
C1420 C 0.87788 0.19595 0.49728 0.0
C1421 C 0.877 0.21174 0.51005 0.0
H1422 H 0.30419 0.24326 0.57471 0.0
H1423 H 0.36158 0.27123 0.61232 0.0
H1424 H 0.37065 0.25453 0.5761 0.0
H1425 H 0.29931 0.19642 0.55402 0.0
H1426 H 0.28723 0.19406 0.52092 0.0
H1427 H 0.28467 0.20711 0.55097 0.0
H1428 H 0.29683 0.23793 0.52083 0.0
H1429 H 0.29924 0.22491 0.49067 0.0
H1430 H 0.3197 0.24815 0.50302 0.0
H1431 H 0.37389 0.23565 0.53509 0.0
H1432 H 0.37207 0.21865 0.48931 0.0
H1433 H 0.31281 0.20329 0.4779 0.0
C1434 C 0.31861 0.24574 0.57543 0.0
C1435 C 0.33214 0.25848 0.59639 0.0
C1436 C 0.35097 0.26157 0.59641 0.0
C1437 C 0.35623 0.25204 0.57606 0.0
C1438 C 0.34253 0.23952 0.55575 0.0
C1439 C 0.32418 0.23651 0.55507 0.0
C1440 C 0.31264 0.22337 0.52982 0.0
C1441 C 0.29492 0.2041 0.53953 0.0
C1442 C 0.30677 0.23425 0.50991 0.0
C1443 C 0.32748 0.21972 0.51623 0.0
C1444 C 0.34452 0.2289 0.53176 0.0
C1445 C 0.36057 0.22824 0.52286 0.0
C1446 C 0.35936 0.21842 0.49695 0.0
C1447 C 0.34227 0.20956 0.48017 0.0
C1448 C 0.32603 0.20988 0.49036 0.0
H1449 H 0.72946 0.05402 0.57075 0.0
H1450 H 0.74641 0.10711 0.62176 0.0
H1451 H 0.76668 0.12732 0.58243 0.0
H1452 H 0.77508 0.07079 0.53924 0.0
H1453 H 0.76511 0.05875 0.5052 0.0
H1454 H 0.75145 0.04865 0.53699 0.0
H1455 H 0.72286 0.0499 0.51569 0.0
H1456 H 0.73645 0.05996 0.4838 0.0
H1457 H 0.72698 0.07287 0.50327 0.0
H1458 H 0.7863 0.1417 0.53746 0.0
H1459 H 0.80221 0.1486 0.4904 0.0
H1460 H 0.77214 0.08585 0.47037 0.0
C1461 C 0.73731 0.06989 0.57365 0.0
C1462 C 0.73634 0.07897 0.59933 0.0
C1463 C 0.74689 0.09981 0.60222 0.0
C1464 C 0.75847 0.11143 0.58002 0.0
C1465 C 0.75927 0.10197 0.55507 0.0
C1466 C 0.74886 0.08166 0.55177 0.0
C1467 C 0.75233 0.075 0.52313 0.0
C1468 C 0.76154 0.06257 0.52635 0.0
C1469 C 0.73354 0.06377 0.50543 0.0
C1470 C 0.7664 0.09471 0.51085 0.0
C1471 C 0.7703 0.11015 0.52946 0.0
C1472 C 0.78323 0.1297 0.52265 0.0
C1473 C 0.79225 0.1335 0.496 0.0
C1474 C 0.78815 0.1178 0.47658 0.0
C1475 C 0.7752 0.09822 0.48442 0.0
H1476 H 0.93659 0.68739 0.58802 0.0
H1477 H 0.91005 0.62445 0.59674 0.0
H1478 H 0.88823 0.61822 0.55627 0.0
H1479 H 0.89352 0.68671 0.56852 0.0
H1480 H 0.90564 0.70573 0.5431 0.0
H1481 H 0.91875 0.70527 0.57334 0.0
H1482 H 0.94401 0.70475 0.53989 0.0
H1483 H 0.93108 0.70542 0.50961 0.0
H1484 H 0.93598 0.68597 0.51197 0.0
H1485 H 0.86915 0.61892 0.51486 0.0
H1486 H 0.85671 0.62656 0.47267 0.0
H1487 H 0.8963 0.68895 0.4906 0.0
C1488 C 0.92617 0.67229 0.58146 0.0
C1489 C 0.92496 0.6564 0.5956 0.0
C1490 C 0.91126 0.63686 0.58617 0.0
C1491 C 0.89872 0.63317 0.56333 0.0
C1492 C 0.90016 0.64918 0.55005 0.0
C1493 C 0.9137 0.66835 0.55855 0.0
C1494 C 0.91289 0.68295 0.53993 0.0
C1495 C 0.90737 0.69593 0.55727 0.0
C1496 C 0.93213 0.6955 0.52443 0.0
C1497 C 0.89686 0.669 0.51951 0.0
C1498 C 0.88951 0.64958 0.52589 0.0
C1499 C 0.87476 0.63407 0.5097 0.0
C1500 C 0.86768 0.63853 0.48594 0.0
C1501 C 0.87552 0.65832 0.4785 0.0
C1502 C 0.89006 0.67369 0.49584 0.0
H1503 H 0.93341 0.68507 0.75889 0.0
H1504 H 0.89612 0.63426 0.70403 0.0
H1505 H 0.86859 0.62578 0.73553 0.0
H1506 H 0.9153 0.66116 0.82192 0.0
H1507 H 0.91717 0.68186 0.84163 0.0
H1508 H 0.93304 0.68592 0.81235 0.0
H1509 H 0.92175 0.70707 0.78875 0.0
H1510 H 0.90572 0.70294 0.81799 0.0
H1511 H 0.89636 0.69676 0.78212 0.0
H1512 H 0.84611 0.62071 0.77503 0.0
H1513 H 0.83115 0.61766 0.82188 0.0
H1514 H 0.88292 0.67127 0.85203 0.0
C1515 C 0.91932 0.67246 0.75321 0.0
C1516 C 0.9168 0.66041 0.72897 0.0
C1517 C 0.89832 0.64369 0.72254 0.0
C1518 C 0.88257 0.63886 0.74016 0.0
C1519 C 0.88554 0.65083 0.76419 0.0
C1520 C 0.90348 0.66723 0.77086 0.0
C1521 C 0.90335 0.67617 0.79971 0.0
C1522 C 0.91808 0.67627 0.82009 0.0
C1523 C 0.90701 0.69697 0.79697 0.0
C1524 C 0.88276 0.66183 0.80859 0.0
C1525 C 0.8726 0.64761 0.7875 0.0
C1526 C 0.85378 0.63195 0.79154 0.0
C1527 C 0.84534 0.6304 0.81818 0.0
C1528 C 0.85582 0.64431 0.8405 0.0
C1529 C 0.87453 0.66052 0.83525 0.0
H1530 H 0.32883 0.25952 0.74709 0.0
H1531 H 0.38397 0.27598 0.70911 0.0
H1532 H 0.39105 0.26122 0.74857 0.0
H1533 H 0.34519 0.27065 0.81745 0.0
H1534 H 0.32376 0.25031 0.83229 0.0
H1535 H 0.32217 0.26038 0.79963 0.0
H1536 H 0.30649 0.22584 0.77463 0.0
H1537 H 0.30807 0.21566 0.80728 0.0
H1538 H 0.31874 0.2125 0.7754 0.0
H1539 H 0.39357 0.24763 0.79447 0.0
H1540 H 0.39142 0.23677 0.84349 0.0
H1541 H 0.33405 0.22772 0.85044 0.0
C1542 C 0.34227 0.25977 0.74684 0.0
C1543 C 0.35583 0.2689 0.72498 0.0
C1544 C 0.37332 0.26905 0.72559 0.0
C1545 C 0.37746 0.26063 0.74787 0.0
C1546 C 0.36389 0.25194 0.76926 0.0
C1547 C 0.3466 0.25136 0.76886 0.0
C1548 C 0.33499 0.24218 0.79525 0.0
C1549 C 0.33133 0.25675 0.81214 0.0
C1550 C 0.31595 0.2229 0.78768 0.0
C1551 C 0.34873 0.23829 0.81095 0.0
C1552 C 0.36523 0.24382 0.79551 0.0
C1553 C 0.38056 0.2429 0.80657 0.0
C1554 C 0.37916 0.23659 0.8344 0.0
C1555 C 0.36255 0.23133 0.85086 0.0
C1556 C 0.34698 0.23171 0.8385 0.0
H1557 H 0.73462 0.08087 0.76889 0.0
H1558 H 0.76923 0.13239 0.7187 0.0
H1559 H 0.78776 0.15116 0.76177 0.0
H1560 H 0.7316 0.10646 0.83059 0.0
H1561 H 0.73315 0.09056 0.85515 0.0
H1562 H 0.72291 0.08118 0.82025 0.0
H1563 H 0.74751 0.07035 0.81099 0.0
H1564 H 0.75783 0.07968 0.84588 0.0
H1565 H 0.773 0.08821 0.81504 0.0
H1566 H 0.80247 0.16437 0.8109 0.0
H1567 H 0.81133 0.17091 0.86205 0.0
H1568 H 0.76717 0.11049 0.87901 0.0
C1569 C 0.7461 0.09609 0.76688 0.0
C1570 C 0.75046 0.10515 0.7404 0.0
C1571 C 0.7656 0.12512 0.73877 0.0
C1572 C 0.77624 0.13591 0.76311 0.0
C1573 C 0.77156 0.12651 0.78889 0.0
C1574 C 0.75682 0.10705 0.7909 0.0
C1575 C 0.75447 0.10039 0.82109 0.0
C1576 C 0.73434 0.0943 0.83243 0.0
C1577 C 0.75845 0.08367 0.82337 0.0
C1578 C 0.77011 0.11917 0.8358 0.0
C1579 C 0.77989 0.13408 0.81694 0.0
C1580 C 0.7949 0.15279 0.82586 0.0
C1581 C 0.79988 0.15636 0.85487 0.0
C1582 C 0.78979 0.1413 0.87454 0.0
C1583 C 0.7749 0.12245 0.86463 0.0
H1584 H 0.08357 0.40774 0.05863 0.0
H1585 H 0.05131 0.36096 0.99522 0.0
H1586 H 0.07518 0.3509 -0.00123 0.0
H1587 H 0.13311 0.41864 0.03935 0.0
H1588 H 0.1405 0.42244 0.07614 0.0
H1589 H 0.12317 0.42839 0.0646 0.0
H1590 H 0.09896 0.40564 0.10226 0.0
H1591 H 0.11621 0.39975 0.11394 0.0
H1592 H 0.09239 0.38029 0.10269 0.0
H1593 H 0.09959 0.34295 0.01418 0.0
H1594 H 0.1206 0.3362 0.04271 0.0
H1595 H 0.13719 0.38822 0.09591 0.0
C1596 C 0.08184 0.39576 0.04485 0.0
C1597 C 0.06568 0.38524 0.02646 0.0
C1598 C 0.06364 0.36928 0.00937 0.0
C1599 C 0.07721 0.36356 0.01109 0.0
C1600 C 0.09277 0.37397 0.02993 0.0
C1601 C 0.09514 0.38975 0.04652 0.0
C1602 C 0.11154 0.39683 0.06774 0.0
C1603 C 0.12806 0.41782 0.06158 0.0
C1604 C 0.10433 0.39553 0.09845 0.0
C1605 C 0.11745 0.38202 0.0614 0.0
C1606 C 0.10679 0.36925 0.03906 0.0
C1607 C 0.10834 0.35312 0.03127 0.0
C1608 C 0.12043 0.34947 0.04748 0.0
C1609 C 0.13062 0.36177 0.07141 0.0
C1610 C 0.12971 0.3787 0.07756 0.0
H1611 H 0.66573 0.70933 0.00327 0.0
H1612 H 0.60597 0.67208 0.02836 0.0
H1613 H 0.6038 0.70149 0.03701 0.0
H1614 H 0.67833 0.74417 0.05615 0.0
H1615 H 0.69468 0.76506 0.03559 0.0
H1616 H 0.69023 0.74111 0.02568 0.0
H1617 H 0.67989 0.74423 0.97521 0.0
H1618 H 0.68413 0.76821 0.98521 0.0
H1619 H 0.66089 0.74925 0.97117 0.0
H1620 H 0.60961 0.73442 0.05099 0.0
H1621 H 0.62366 0.7681 0.07188 0.0
H1622 H 0.67937 0.78439 0.03726 0.0
C1623 C 0.65201 0.70734 0.00973 0.0
C1624 C 0.63598 0.68841 0.01495 0.0
C1625 C 0.61843 0.68644 0.02414 0.0
C1626 C 0.61701 0.70306 0.02888 0.0
C1627 C 0.63323 0.72157 0.02418 0.0
C1628 C 0.65041 0.72381 0.01476 0.0
C1629 C 0.66643 0.74531 0.01514 0.0
C1630 C 0.6834 0.74912 0.03429 0.0
C1631 C 0.67323 0.75215 0.98487 0.0
C1632 C 0.65586 0.75474 0.02771 0.0
C1633 C 0.63658 0.74083 0.0321 0.0
C1634 C 0.6245 0.74555 0.04684 0.0
C1635 C 0.63251 0.76472 0.05848 0.0
C1636 C 0.65236 0.77885 0.05522 0.0
C1637 C 0.66396 0.77402 0.03877 0.0
H1638 H 0.30406 0.97513 0.0174 0.0
H1639 H 0.33826 0.94929 0.99618 0.0
H1640 H 0.30973 0.91617 0.0035 0.0
H1641 H 0.27966 0.94536 0.07308 0.0
H1642 H 0.25695 0.94344 0.0663 0.0
H1643 H 0.27912 0.96464 0.05519 0.0
H1644 H 0.26594 0.95814 0.00351 0.0
H1645 H 0.24368 0.93682 0.01451 0.0
H1646 H 0.25745 0.93447 0.98611 0.0
H1647 H 0.27876 0.88638 0.01933 0.0
H1648 H 0.2487 0.86302 0.04378 0.0
H1649 H 0.23426 0.90803 0.05289 0.0
C1650 C 0.30547 0.96249 0.01362 0.0
C1651 C 0.32342 0.96484 0.00608 0.0
C1652 C 0.32467 0.94789 0.00183 0.0
C1653 C 0.3085 0.92899 0.00582 0.0
C1654 C 0.29112 0.92723 0.01381 0.0
C1655 C 0.2895 0.94354 0.01751 0.0
C1656 C 0.26977 0.93791 0.02866 0.0
C1657 C 0.27149 0.94846 0.05751 0.0
C1658 C 0.25855 0.94208 0.00689 0.0
C1659 C 0.26081 0.91599 0.03175 0.0
C1660 C 0.27321 0.91002 0.02267 0.0
C1661 C 0.26876 0.89079 0.02592 0.0
C1662 C 0.25153 0.87754 0.03967 0.0
C1663 C 0.239 0.8836 0.05017 0.0
C1664 C 0.24347 0.90289 0.04507 0.0
H1665 H 0.38505 0.06579 0.9748 0.0
H1666 H 0.36292 0.06411 0.05954 0.0
H1667 H 0.36063 0.09306 0.0494 0.0
H1668 H 0.41374 0.11913 0.97075 0.0
H1669 H 0.40837 0.1184 0.93353 0.0
H1670 H 0.40913 0.09832 0.94828 0.0
H1671 H 0.37433 0.07376 0.92955 0.0
H1672 H 0.3735 0.09372 0.91468 0.0
H1673 H 0.35518 0.07784 0.93919 0.0
H1674 H 0.3588 0.12118 0.028 0.0
H1675 H 0.3571 0.14484 0.9973 0.0
H1676 H 0.38197 0.12832 0.92817 0.0
C1677 C 0.37981 0.07152 0.99137 0.0
C1678 C 0.3741 0.06264 0.01795 0.0
C1679 C 0.36739 0.0707 0.03901 0.0
C1680 C 0.36608 0.08715 0.03346 0.0
C1681 C 0.37177 0.09549 0.0069 0.0
C1682 C 0.37859 0.08793 0.9863 0.0
C1683 C 0.38323 0.09899 0.95915 0.0
C1684 C 0.40491 0.10933 0.95255 0.0
C1685 C 0.37082 0.08526 0.93418 0.0
C1686 C 0.37755 0.11371 0.96734 0.0
C1687 C 0.37106 0.11164 0.99497 0.0
C1688 C 0.36406 0.12304 0.00645 0.0
C1689 C 0.36323 0.13651 0.98895 0.0
C1690 C 0.36928 0.13832 0.96034 0.0
C1691 C 0.37705 0.12715 0.94988 0.0
H1692 H 0.9707 0.31974 0.00338 0.0
H1693 H 0.93549 0.33368 0.05695 0.0
H1694 H 0.90706 0.3003 0.04654 0.0
H1695 H 0.9364 0.29331 0.94992 0.0
H1696 H 0.94325 0.2754 0.94372 0.0
H1697 H 0.96078 0.29971 0.9573 0.0
H1698 H 0.96743 0.28473 0.00041 0.0
H1699 H 0.94984 0.26032 0.98694 0.0
H1700 H 0.94763 0.26811 0.02243 0.0
H1701 H 0.88166 0.26595 0.02589 0.0
H1702 H 0.86251 0.23465 0.99736 0.0
H1703 H 0.91546 0.24349 0.96062 0.0
C1704 C 0.95706 0.31576 0.01317 0.0
C1705 C 0.95528 0.32933 0.03089 0.0
C1706 C 0.93719 0.32348 0.04335 0.0
C1707 C 0.92097 0.30455 0.03758 0.0
C1708 C 0.92321 0.29157 0.01973 0.0
C1709 C 0.94091 0.29695 0.00797 0.0
C1710 C 0.93957 0.28076 0.98869 0.0
C1711 C 0.94533 0.28772 0.95811 0.0
C1712 C 0.95184 0.27303 0.00033 0.0
C1713 C 0.91825 0.26562 0.99067 0.0
C1714 C 0.90894 0.27193 0.00872 0.0
C1715 C 0.88889 0.26076 0.01204 0.0
C1716 C 0.87812 0.24298 0.99591 0.0
C1717 C 0.8875 0.23674 0.9767 0.0
C1718 C 0.90786 0.24795 0.97498 0.0
H1719 H 0.67353 0.60216 0.00128 0.0
H1720 H 0.69197 0.66188 0.02943 0.0
H1721 H 0.7258 0.67233 0.0191 0.0
H1722 H 0.71751 0.60273 0.02592 0.0
H1723 H 0.71699 0.58849 0.99499 0.0
H1724 H 0.69476 0.58498 0.00917 0.0
H1725 H 0.68602 0.59204 0.96008 0.0
H1726 H 0.70808 0.59541 0.94579 0.0
H1727 H 0.70291 0.61464 0.94325 0.0
H1728 H 0.75653 0.67734 -0.00123 0.0
H1729 H 0.78128 0.67655 0.96876 0.0
H1730 H 0.74331 0.61362 0.95486 0.0
C1731 C 0.68473 0.61733 0.00603 0.0
C1732 C 0.68009 0.63117 0.01634 0.0
C1733 C 0.69516 0.65097 0.02166 0.0
C1734 C 0.71445 0.65703 0.016 0.0
C1735 C 0.71849 0.64309 0.00525 0.0
C1736 C 0.70404 0.62361 0.00043 0.0
C1737 C 0.71185 0.61202 0.98584 0.0
C1738 C 0.71018 0.59611 0.00514 0.0
C1739 C 0.70161 0.60301 0.95704 0.0
C1740 C 0.73277 0.62818 0.98208 0.0
C1741 C 0.7364 0.64594 0.99386 0.0
C1742 C 0.75403 0.66344 0.99019 0.0
C1743 C 0.76804 0.66287 0.97326 0.0
C1744 C 0.76434 0.64494 0.96034 0.0
C1745 C 0.74674 0.62734 0.96556 0.0
H1746 H 0.93035 0.60405 0.94669 0.0
H1747 H 0.94408 0.63646 0.02766 0.0
H1748 H 0.91734 0.64215 0.02017 0.0
H1749 H 0.92044 0.63527 0.90969 0.0
H1750 H 0.9012 0.61567 0.88842 0.0
H1751 H 0.92038 0.61303 0.90148 0.0
H1752 H 0.89519 0.58069 0.9253 0.0
H1753 H 0.87592 0.58331 0.91238 0.0
H1754 H 0.87812 0.58087 0.94982 0.0
H1755 H 0.88962 0.64565 0.00197 0.0
H1756 H 0.86519 0.64787 0.97369 0.0
H1757 H 0.87036 0.61306 0.90555 0.0
C1758 C 0.92765 0.61216 0.96306 0.0
C1759 C 0.93928 0.61973 0.98782 0.0
C1760 C 0.93533 0.63046 0.00852 0.0
C1761 C 0.92013 0.63371 0.0045 0.0
C1762 C 0.90899 0.62611 0.9797 0.0
C1763 C 0.91264 0.61557 0.95935 0.0
C1764 C 0.89942 0.60985 0.93384 0.0
C1765 C 0.91105 0.61901 0.90677 0.0
C1766 C 0.88639 0.58734 0.93013 0.0
C1767 C 0.88788 0.619 0.94274 0.0
C1768 C 0.89339 0.6282 0.96933 0.0
C1769 C 0.88512 0.63835 0.98122 0.0
C1770 C 0.87122 0.63948 0.96516 0.0
C1771 C 0.866 0.63067 0.93754 0.0
C1772 C 0.87414 0.61995 0.92665 0.0
H1773 H 0.39506 0.33819 0.00282 0.0
H1774 H 0.34031 0.33132 0.97954 0.0
H1775 H 0.32696 0.29611 0.96787 0.0
H1776 H 0.39581 0.30905 0.94687 0.0
H1777 H 0.4069 0.29864 0.96678 0.0
H1778 H 0.41107 0.32244 0.97717 0.0
H1779 H 0.39882 0.31011 0.02773 0.0
H1780 H 0.39433 0.28611 0.01725 0.0
H1781 H 0.37513 0.28854 0.03202 0.0
H1782 H 0.32066 0.26289 0.95377 0.0
H1783 H 0.323 0.23514 0.93399 0.0
H1784 H 0.3816 0.26317 0.96633 0.0
C1785 C 0.38015 0.32919 0.99578 0.0
C1786 C 0.36869 0.33749 0.99224 0.0
C1787 C 0.34937 0.32531 0.98241 0.0
C1788 C 0.34159 0.30523 0.97598 0.0
C1789 C 0.35329 0.29752 0.97954 0.0
C1790 C 0.3722 0.30914 0.98905 0.0
C1791 C 0.38234 0.29776 0.98804 0.0
C1792 C 0.40006 0.30755 0.96855 0.0
C1793 C 0.38799 0.2955 0.01805 0.0
C1794 C 0.36642 0.27815 0.97547 0.0
C1795 C 0.34964 0.27819 0.97132 0.0
C1796 C 0.33355 0.26249 0.95747 0.0
C1797 C 0.33495 0.24675 0.94645 0.0
C1798 C 0.35231 0.24688 0.94929 0.0
C1799 C 0.36795 0.26241 0.96488 0.0
H1800 H 0.67187 0.07272 0.97797 0.0
H1801 H 0.68339 0.03575 0.02889 0.0
H1802 H 0.71807 0.06151 0.03026 0.0
H1803 H 0.71098 0.08891 0.93478 0.0
H1804 H 0.716 0.11359 0.93175 0.0
H1805 H 0.69188 0.0939 0.9391 0.0
H1806 H 0.69144 0.11311 0.9844 0.0
H1807 H 0.71568 0.1329 0.97717 0.0
H1808 H 0.71019 0.12127 0.01094 0.0
H1809 H 0.75188 0.08879 0.01957 0.0
H1810 H 0.78147 0.1144 0.99655 0.0
H1811 H 0.74807 0.13453 0.95462 0.0
C1812 C 0.68159 0.07024 0.99009 0.0
C1813 C 0.67485 0.05222 0.00341 0.0
C1814 C 0.68815 0.04946 0.0186 0.0
C1815 C 0.7079 0.06406 0.01962 0.0
C1816 C 0.71414 0.08147 0.00564 0.0
C1817 C 0.70133 0.08467 0.99134 0.0
C1818 C 0.71187 0.10365 0.97552 0.0
C1819 C 0.70742 0.09977 0.9434 0.0
C1820 C 0.70701 0.11862 0.98775 0.0
C1821 C 0.73263 0.11016 0.98202 0.0
C1822 C 0.73368 0.09737 -0.00017 0.0
C1823 C 0.75127 0.09918 0.00621 0.0
C1824 C 0.76807 0.11391 0.99317 0.0
C1825 C 0.76715 0.12657 0.97382 0.0
C1826 C 0.74928 0.12514 0.96936 0.0
H1827 H 0.6204 0.93775 0.0092 0.0
H1828 H 0.67306 0.97293 0.96181 0.0
H1829 H 0.68254 0.94883 0.97046 0.0
H1830 H 0.64066 0.92681 0.06272 0.0
H1831 H 0.62071 0.90202 0.0673 0.0
H1832 H 0.61645 0.91997 0.05309 0.0
H1833 H 0.60004 0.89722 0.00853 0.0
H1834 H 0.60425 0.87911 0.02268 0.0
H1835 H 0.6129 0.88836 0.98787 0.0
H1836 H 0.68874 0.92396 0.99089 0.0
H1837 H 0.69116 0.90095 0.02161 0.0
H1838 H 0.63379 0.88101 0.05372 0.0
C1839 C 0.63367 0.94013 -7e-05 0.0
C1840 C 0.64595 0.95723 0.98475 0.0
C1841 C 0.66334 0.95991 0.97339 0.0
C1842 C 0.66883 0.94625 0.97811 0.0
C1843 C 0.65665 0.92983 0.99389 0.0
C1844 C 0.63932 0.92662 0.00437 0.0
C1845 C 0.62975 0.90897 0.02305 0.0
C1846 C 0.62673 0.9148 0.05331 0.0
C1847 C 0.6106 0.89244 0.00972 0.0
C1848 C 0.64483 0.90333 0.02261 0.0
C1849 C 0.66011 0.9153 0.00532 0.0
C1850 C 0.67664 0.91417 0.00394 0.0
C1851 C 0.67785 0.90095 0.02137 0.0
C1852 C 0.66265 0.8891 0.04007 0.0
C1853 C 0.64566 0.88985 0.03968 0.0
H1854 H 0.04576 0.67271 0.05024 0.0
H1855 H 0.03503 0.6956 0.97515 0.0
H1856 H 0.06496 0.72785 0.98512 0.0
H1857 H 0.06314 0.71553 0.09414 0.0
H1858 H 0.08104 0.7127 0.11176 0.0
H1859 H 0.05939 0.69136 0.09764 0.0
H1860 H 0.08008 0.68135 0.06783 0.0
H1861 H 0.10182 0.70271 0.08183 0.0
H1862 H 0.09792 0.69864 0.04397 0.0
H1863 H 0.09582 0.75845 0.00527 0.0
H1864 H 0.12372 0.78406 0.03432 0.0
H1865 H 0.11376 0.74002 0.09462 0.0
C1866 C 0.0497 0.68444 0.03575 0.0
C1867 C 0.03802 0.68161 0.01193 0.0
C1868 C 0.04376 0.6974 0.99354 0.0
C1869 C 0.06076 0.71577 -0.00101 0.0
C1870 C 0.07192 0.71806 0.02279 0.0
C1871 C 0.06657 0.70274 0.04078 0.0
C1872 C 0.08059 0.70895 0.06538 0.0
C1873 C 0.07043 0.70702 0.0939 0.0
C1874 C 0.0907 0.69722 0.06469 0.0
C1875 C 0.0945 0.73026 0.05877 0.0
C1876 C 0.08944 0.73534 0.03407 0.0
C1877 C 0.09996 0.75457 0.02454 0.0
C1878 C 0.1158 0.76899 0.04104 0.0
C1879 C 0.12075 0.76404 0.06678 0.0
C1880 C 0.11018 0.74431 0.07519 0.0
H1881 H 0.32957 0.41149 0.06852 0.0
H1882 H 0.31648 0.38081 0.98618 0.0
H1883 H 0.28207 0.36952 0.99216 0.0
H1884 H 0.29053 0.37551 0.103 0.0
H1885 H 0.28612 0.39161 0.12508 0.0
H1886 H 0.31002 0.40017 0.11219 0.0
H1887 H 0.3109 0.42974 0.0896 0.0
H1888 H 0.28691 0.42123 0.1025 0.0
H1889 H 0.29199 0.42533 0.0652 0.0
H1890 H 0.24864 0.35703 0.01049 0.0
H1891 H 0.21939 0.34439 0.0398 0.0
H1892 H 0.25415 0.38465 0.10897 0.0
C1893 C 0.31957 0.40288 0.05137 0.0
C1894 C 0.32578 0.3971 0.02686 0.0
C1895 C 0.31213 0.38551 0.00513 0.0
C1896 C 0.29253 0.37908 0.00827 0.0
C1897 C 0.28679 0.38456 0.03308 0.0
C1898 C 0.29997 0.39639 0.05413 0.0
C1899 C 0.2899 0.39856 0.07994 0.0
C1900 C 0.29441 0.391 0.1066 0.0
C1901 C 0.29524 0.41999 0.08457 0.0
C1902 C 0.26899 0.38534 0.07067 0.0
C1903 C 0.26746 0.37763 0.04342 0.0
C1904 C 0.24962 0.36336 0.03157 0.0
C1905 C 0.23303 0.35634 0.04834 0.0
C1906 C 0.23442 0.36352 0.07671 0.0
C1907 C 0.25258 0.37882 0.08739 0.0
H1908 H 0.71108 0.68649 0.35725 0.0
H1909 H 0.74954 0.72553 0.29324 0.0
H1910 H 0.77346 0.71664 0.3051 0.0
H1911 H 0.74663 0.69813 0.40833 0.0
H1912 H 0.73558 0.67354 0.42108 0.0
H1913 H 0.72083 0.68147 0.40551 0.0
H1914 H 0.70692 0.65195 0.3691 0.0
H1915 H 0.72165 0.6439 0.38463 0.0
H1916 H 0.72319 0.64836 0.34718 0.0
H1917 H 0.79436 0.70534 0.32698 0.0
H1918 H 0.81026 0.6932 0.35759 0.0
H1919 H 0.75763 0.66138 0.40617 0.0
C1920 C 0.7244 0.69298 0.34538 0.0
C1921 C 0.7284 0.70669 0.32426 0.0
C1922 C 0.74611 0.71495 0.30947 0.0
C1923 C 0.75978 0.70995 0.31601 0.0
C1924 C 0.75548 0.69658 0.33726 0.0
C1925 C 0.73816 0.68816 0.35162 0.0
C1926 C 0.73741 0.67511 0.37468 0.0
C1927 C 0.73498 0.68252 0.40413 0.0
C1928 C 0.72134 0.65355 0.36851 0.0
C1929 C 0.7572 0.67789 0.37157 0.0
C1930 C 0.7674 0.69014 0.34972 0.0
C1931 C 0.78641 0.69555 0.34393 0.0
C1932 C 0.79532 0.68855 0.36132 0.0
C1933 C 0.78522 0.67645 0.3843 0.0
C1934 C 0.76579 0.67075 0.3889 0.0
H1935 H 0.31383 0.01364 0.36873 0.0
H1936 H 0.26323 0.00411 0.32349 0.0
H1937 H 0.27407 0.03918 0.33212 0.0
H1938 H 0.31436 0.04541 0.42262 0.0
H1939 H 0.34032 0.06082 0.42457 0.0
H1940 H 0.3291 0.03542 0.41297 0.0
H1941 H 0.34875 0.046 0.36637 0.0
H1942 H 0.35995 0.07149 0.37779 0.0
H1943 H 0.34735 0.06311 0.34413 0.0
H1944 H 0.28957 0.07516 0.34919 0.0
H1945 H 0.30772 0.10789 0.37437 0.0
H1946 H 0.34841 0.09339 0.40602 0.0
C1947 C 0.30506 0.01891 0.36043 0.0
C1948 C 0.28766 0.00611 0.34548 0.0
C1949 C 0.27664 0.01365 0.335 0.0
C1950 C 0.28271 0.03357 0.33971 0.0
C1951 C 0.29993 0.04578 0.35465 0.0
C1952 C 0.31095 0.03869 0.36475 0.0
C1953 C 0.32843 0.05447 0.38122 0.0
C1954 C 0.32801 0.04868 0.41217 0.0
C1955 C 0.34723 0.05904 0.36649 0.0
C1956 C 0.3253 0.07145 0.37948 0.0
C1957 C 0.30891 0.06632 0.36391 0.0
C1958 C 0.30257 0.07941 0.36111 0.0
C1959 C 0.31299 0.09798 0.37531 0.0
C1960 C 0.32938 0.10308 0.39214 0.0
C1961 C 0.33587 0.08984 0.39334 0.0
H1962 H 0.98571 0.29171 0.38479 0.0
H1963 H 0.96658 0.2905 0.29871 0.0
H1964 H 0.93407 0.26231 0.30999 0.0
H1965 H 0.96032 0.23958 0.39147 0.0
H1966 H 0.95503 0.24078 0.42848 0.0
H1967 H 0.97636 0.26101 0.41339 0.0
H1968 H 0.96534 0.28483 0.43036 0.0
H1969 H 0.94394 0.26464 0.44541 0.0
H1970 H 0.94183 0.27971 0.41992 0.0
H1971 H 0.90306 0.23379 0.33192 0.0
H1972 H 0.87759 0.208 0.3618 0.0
H1973 H 0.91886 0.22798 0.43159 0.0
C1974 C 0.97469 0.28564 0.36828 0.0
C1975 C 0.97866 0.29339 0.34092 0.0
C1976 C 0.96386 0.2848 0.31987 0.0
C1977 C 0.94534 0.26881 0.32609 0.0
C1978 C 0.94194 0.26151 0.35338 0.0
C1979 C 0.95632 0.26965 0.37402 0.0
C1980 C 0.94938 0.25901 0.40148 0.0
C1981 C 0.96096 0.24953 0.40913 0.0
C1982 C 0.95017 0.27287 0.42571 0.0
C1983 C 0.9288 0.24365 0.39324 0.0
C1984 C 0.9246 0.24523 0.36553 0.0
C1985 C 0.90625 0.23246 0.35367 0.0
C1986 C 0.89189 0.21782 0.37073 0.0
C1987 C 0.89603 0.21614 0.39927 0.0
C1988 C 0.91488 0.22915 0.41022 0.0
H1989 H 1.001 0.37835 0.31769 0.0
H1990 H 0.05568 0.40602 0.36338 0.0
H1991 H 0.059 0.43846 0.35944 0.0
H1992 H 0.01532 0.4141 0.26799 0.0
H1993 H 0.99246 0.41257 0.26592 0.0
H1994 H 0.99324 0.39153 0.27603 0.0
H1995 H 0.97514 0.38994 0.32247 0.0
H1996 H 0.97447 0.41116 0.31254 0.0
H1997 H 0.98488 0.41131 0.34621 0.0
H1998 H 0.05809 0.46827 0.34545 0.0
H1999 H 0.05421 0.49247 0.31995 0.0
H2000 H 0.9997 0.44517 0.28464 0.0
C2001 C 0.0135 0.39115 0.32741 0.0
C2002 C 0.02804 0.38959 0.34099 0.0
C2003 C 0.04431 0.40681 0.35298 0.0
C2004 C 0.04626 0.42529 0.35098 0.0
C2005 C 0.03175 0.42632 0.33712 0.0
C2006 C 0.01567 0.40965 0.32558 0.0
C2007 C 0.00303 0.41481 0.30941 0.0
C2008 C 1.0009 0.40785 0.27799 0.0
C2009 C 0.9832 0.4063 0.32351 0.0
C2010 C 0.01484 0.43704 0.31271 0.0
C2011 C 0.03119 0.44343 0.32919 0.0
C2012 C 0.04514 0.46342 0.33299 0.0
C2013 C 0.04273 0.47711 0.31861 0.0
C2014 C 0.02659 0.47075 0.30042 0.0
C2015 C 0.01211 0.4505 0.29857 0.0
H2016 H 0.63553 0.63553 0.34109 0.0
H2017 H 0.61519 0.67544 0.33081 0.0
H2018 H 0.5818 0.64701 0.32481 0.0
H2019 H 0.60743 0.60248 0.28781 0.0
H2020 H 0.60296 0.58079 0.3053 0.0
H2021 H 0.62441 0.60415 0.31377 0.0
H2022 H 0.61502 0.6001 0.36697 0.0
H2023 H 0.59334 0.57675 0.35848 0.0
H2024 H 0.5918 0.5959 0.37739 0.0
H2025 H 0.55175 0.61467 0.31279 0.0
H2026 H 0.52828 0.58142 0.29269 0.0
H2027 H 0.56773 0.56235 0.31139 0.0
C2028 C 0.62399 0.63832 0.33834 0.0
C2029 C 0.62797 0.65774 0.33663 0.0
C2030 C 0.6125 0.66071 0.33231 0.0
C2031 C 0.59345 0.64464 0.32908 0.0
C2032 C 0.59006 0.62566 0.33038 0.0
C2033 C 0.60493 0.62244 0.33491 0.0
C2034 C 0.59789 0.60073 0.33197 0.0
C2035 C 0.60881 0.59682 0.3083 0.0
C2036 C 0.59962 0.59291 0.3604 0.0
C2037 C 0.57692 0.59228 0.32389 0.0
C2038 C 0.57258 0.60686 0.32367 0.0
C2039 C 0.55479 0.60304 0.31368 0.0
C2040 C 0.54148 0.5841 0.30251 0.0
C2041 C 0.546 0.56926 0.3015 0.0
C2042 C 0.56363 0.57323 0.31323 0.0
H2043 H 0.36235 0.99428 0.33225 0.0
H2044 H 0.32714 0.93233 0.35081 0.0
H2045 H 0.35539 0.92901 0.34353 0.0
H2046 H 0.3862 0.98854 0.2762 0.0
H2047 H 0.40915 0.01087 0.28325 0.0
H2048 H 0.38729 0.00914 0.29512 0.0
H2049 H 0.40089 0.01804 0.34667 0.0
H2050 H 0.4228 0.01961 0.33487 0.0
H2051 H 0.40897 0.00351 0.363 0.0
H2052 H 0.38571 0.93116 0.3272 0.0
H2053 H 0.41448 0.93801 0.29989 0.0
H2054 H 0.43063 0.9988 0.29336 0.0
C2055 C 0.3607 0.98013 0.33554 0.0
C2056 C 0.34256 0.96359 0.34224 0.0
C2057 C 0.34091 0.94523 0.34574 0.0
C2058 C 0.35692 0.94323 0.34187 0.0
C2059 C 0.37454 0.95976 0.33472 0.0
C2060 C 0.37652 0.97788 0.33163 0.0
C2061 C 0.39628 0.99271 0.32044 0.0
C2062 C 0.39462 1.00077 0.29208 0.0
C2063 C 0.40792 0.00946 0.34258 0.0
C2064 C 0.40476 0.97986 0.31638 0.0
C2065 C 0.39217 0.96102 0.32535 0.0
C2066 C 0.3959 0.94598 0.32074 0.0
C2067 C 0.4124 0.95005 0.30538 0.0
C2068 C 0.42488 0.96898 0.29459 0.0
C2069 C 0.42144 0.98424 0.30152 0.0
H2070 H 0.6234 0.99889 0.31634 0.0
H2071 H 0.59383 0.94289 0.3577 0.0
H2072 H 0.56277 0.94081 0.35124 0.0
H2073 H 0.5905 0.01639 0.34183 0.0
H2074 H 0.59196 0.02715 0.30821 0.0
H2075 H 0.61226 0.02628 0.32121 0.0
H2076 H 0.61224 0.00804 0.27452 0.0
H2077 H 0.59206 0.0089 0.26144 0.0
H2078 H 0.59041 0.98558 0.26333 0.0
H2079 H 0.53471 0.94187 0.3331 0.0
H2080 H 0.51214 0.94523 0.30298 0.0
H2081 H 0.55957 1.0012 0.27483 0.0
C2082 C 0.61048 0.9865 0.32486 0.0
C2083 C 0.61107 0.97111 0.33766 0.0
C2084 C 0.59376 0.9549 0.34789 0.0
C2085 C 0.57604 0.95365 0.3445 0.0
C2086 C 0.57586 0.9688 0.33105 0.0
C2087 C 0.59266 0.98499 0.32153 0.0
C2088 C 0.5883 0.998 0.3046 0.0
C2089 C 0.59623 0.01815 0.31989 0.0
C2090 C 0.59621 1.00024 0.27419 0.0
C2091 C 0.56642 0.98603 0.30476 0.0
C2092 C 0.55951 0.96947 0.32067 0.0
C2093 C 0.5399 0.95504 0.32121 0.0
C2094 C 0.52712 0.95715 0.30413 0.0
C2095 C 0.53403 0.97353 0.28657 0.0
C2096 C 0.55382 0.98855 0.28808 0.0
H2097 H 0.99963 0.64848 0.34441 0.0
H2098 H 0.06097 0.68668 0.3622 0.0
H2099 H 0.06515 0.65837 0.35545 0.0
H2100 H 0.99314 0.60269 0.37537 0.0
H2101 H 0.97671 0.58722 0.34725 0.0
H2102 H 0.97778 0.60955 0.35871 0.0
H2103 H 0.98458 0.62145 0.30706 0.0
H2104 H 0.98348 0.5992 0.29549 0.0
H2105 H 0.00468 0.62276 0.28842 0.0
H2106 H 0.06358 0.62729 0.34081 0.0
H2107 H 0.05691 0.59672 0.3158 0.0
H2108 H 0.99656 0.57822 0.30714 0.0
C2109 C 0.01382 0.65073 0.34775 0.0
C2110 C 0.02994 0.66971 0.35416 0.0
C2111 C 0.0484 0.67223 0.35743 0.0
C2112 C 0.0509 0.65621 0.35383 0.0
C2113 C 0.03479 0.63773 0.34691 0.0
C2114 C 0.0166 0.6349 0.34383 0.0
C2115 C 1.0022 0.61417 0.33274 0.0
C2116 C 0.98653 0.60273 0.35484 0.0
C2117 C 0.99322 0.61442 0.30424 0.0
C2118 C 0.01529 0.60607 0.32897 0.0
C2119 C 0.03394 0.61974 0.33791 0.0
C2120 C 0.04895 0.6163 0.33428 0.0
C2121 C 0.04498 0.59876 0.3202 0.0
C2122 C 0.02617 0.58494 0.30964 0.0
C2123 C 0.01106 0.58842 0.3151 0.0
H2124 H 0.34693 0.38422 0.32388 0.0
H2125 H 0.36936 0.36429 0.38906 0.0
H2126 H 0.40192 0.39361 0.3829 0.0
H2127 H 0.38482 0.39962 0.27819 0.0
H2128 H 0.38478 0.42076 0.2662 0.0
H2129 H 0.3629 0.40008 0.27908 0.0
H2130 H 0.35973 0.42304 0.31608 0.0
H2131 H 0.38173 0.44385 0.30331 0.0
H2132 H 0.37944 0.43827 0.3404 0.0
H2133 H 0.43276 0.42232 0.36449 0.0
H2134 H 0.45881 0.44692 0.3346 0.0
H2135 H 0.41615 0.44916 0.28318 0.0
C2136 C 0.35857 0.38624 0.33738 0.0
C2137 C 0.35554 0.37195 0.35701 0.0
C2138 C 0.37127 0.37505 0.37396 0.0
C2139 C 0.38982 0.39173 0.37069 0.0
C2140 C 0.3924 0.40533 0.35068 0.0
C2141 C 0.37714 0.40282 0.33447 0.0
C2142 C 0.38397 0.41848 0.31254 0.0
C2143 C 0.37882 0.40917 0.28223 0.0
C2144 C 0.37573 0.4317 0.31845 0.0
C2145 C 0.40555 0.42963 0.31802 0.0
C2146 C 0.41015 0.42207 0.3404 0.0
C2147 C 0.42931 0.42868 0.34738 0.0
C2148 C 0.44406 0.4428 0.33038 0.0
C2149 C 0.43957 0.45005 0.30658 0.0
C2150 C 0.42008 0.44395 0.30128 0.0
H2151 H 0.29564 0.26832 0.3534 0.0
H2152 H 0.34358 0.29694 0.29513 0.0
H2153 H 0.3515 0.27157 0.30323 0.0
H2154 H 0.31916 0.258 0.40344 0.0
H2155 H 0.29862 0.23451 0.41261 0.0
H2156 H 0.29499 0.25301 0.39883 0.0
H2157 H 0.27317 0.2285 0.35858 0.0
H2158 H 0.2768 0.20989 0.37227 0.0
H2159 H 0.28237 0.21672 0.33578 0.0
H2160 H 0.35692 0.24588 0.32293 0.0
H2161 H 0.35984 0.22304 0.35333 0.0
H2162 H 0.30748 0.21024 0.39701 0.0
C2163 C 0.30753 0.26903 0.3418 0.0
C2164 C 0.31895 0.28462 0.32354 0.0
C2165 C 0.33456 0.28511 0.30912 0.0
C2166 C 0.33912 0.2707 0.3135 0.0
C2167 C 0.32781 0.25576 0.33211 0.0
C2168 C 0.31224 0.25477 0.34587 0.0
C2169 C 0.30345 0.23836 0.36676 0.0
C2170 C 0.30411 0.24646 0.39719 0.0
C2171 C 0.28272 0.22242 0.3578 0.0
C2172 C 0.31698 0.2308 0.36352 0.0
C2173 C 0.33078 0.24079 0.34314 0.0
C2174 C 0.34593 0.23765 0.33846 0.0
C2175 C 0.3474 0.2245 0.35573 0.0
C2176 C 0.33384 0.21474 0.37752 0.0
C2177 C 0.31805 0.21742 0.38051 0.0
H2178 H 0.70922 1.0008 0.36707 0.0
H2179 H 0.70267 0.01863 0.28416 0.0
H2180 H 0.73293 0.05092 0.29237 0.0
H2181 H 0.72524 0.04554 0.4031 0.0
H2182 H 0.74201 0.04395 0.42585 0.0
H2183 H 0.72106 0.02184 0.4119 0.0
H2184 H 0.74307 0.01028 0.39024 0.0
H2185 H 0.76413 0.03247 0.40406 0.0
H2186 H 0.76222 0.02602 0.36666 0.0
H2187 H 0.76247 0.08282 0.31248 0.0
H2188 H 0.78754 0.11063 0.3428 0.0
H2189 H 0.77465 0.07062 0.41085 0.0
C2190 C 0.71424 0.01136 0.35043 0.0
C2191 C 0.70356 0.0072 0.32499 0.0
C2192 C 0.71065 0.02148 0.3038 0.0
C2193 C 0.72785 0.03984 0.30826 0.0
C2194 C 0.7379 0.04356 0.33382 0.0
C2195 C 0.73135 0.02959 0.35443 0.0
C2196 C 0.744 0.03739 0.38073 0.0
C2197 C 0.73239 0.03717 0.40692 0.0
C2198 C 0.75395 0.02585 0.3857 0.0
C2199 C 0.75838 0.05813 0.37215 0.0
C2200 C 0.75486 0.06152 0.34496 0.0
C2201 C 0.76554 0.08022 0.3336 0.0
C2202 C 0.77978 0.0959 0.35081 0.0
C2203 C 0.78297 0.09264 0.37897 0.0
C2204 C 0.77255 0.07342 0.38925 0.0
H2205 H 0.96658 0.68413 0.32232 0.0
H2206 H 0.99944 0.74596 0.34844 0.0
H2207 H 0.96927 0.74426 0.36218 0.0
H2208 H 0.92153 0.68222 0.29779 0.0
H2209 H 0.90615 0.65824 0.31214 0.0
H2210 H 0.92969 0.66519 0.29883 0.0
H2211 H 0.9386 0.65739 0.34721 0.0
H2212 H 0.91515 0.65037 0.36052 0.0
H2213 H 0.93653 0.66915 0.37928 0.0
H2214 H 0.93678 0.73478 0.38044 0.0
H2215 H 0.9048 0.7178 0.40351 0.0
H2216 H 0.89266 0.6622 0.36584 0.0
C2217 C 0.96733 0.69747 0.32997 0.0
C2218 C 0.98533 0.71524 0.334 0.0
C2219 C 0.9858 0.73222 0.34501 0.0
C2220 C 0.96871 0.73142 0.35272 0.0
C2221 C 0.95122 0.71354 0.34926 0.0
C2222 C 0.95039 0.69685 0.33809 0.0
C2223 C 0.93017 0.6789 0.34015 0.0
C2224 C 0.92137 0.67065 0.31046 0.0
C2225 C 0.93012 0.66304 0.35785 0.0
C2226 C 0.91998 0.68792 0.35537 0.0
C2227 C 0.93227 0.70801 0.35988 0.0
C2228 C 0.92684 0.71918 0.3763 0.0
C2229 C 0.90865 0.70949 0.3892 0.0
C2230 C 0.89616 0.6889 0.38551 0.0
C2231 C 0.90168 0.6781 0.36781 0.0
H2232 H 0.39715 0.05382 0.70039 0.0
H2233 H 0.36401 1.00064 0.64755 0.0
H2234 H 0.38956 0.99315 0.6532 0.0
H2235 H 0.44561 0.06586 0.67559 0.0
H2236 H 0.45625 0.07459 0.71049 0.0
H2237 H 0.43637 0.07695 0.69973 0.0
H2238 H 0.41703 0.05807 0.74379 0.0
H2239 H 0.43685 0.05578 0.7547 0.0
H2240 H 0.41312 0.03408 0.74977 0.0
H2241 H 0.41674 0.9893 0.66942 0.0
H2242 H 0.44266 0.98913 0.69583 0.0
H2243 H 0.45946 0.04595 0.73528 0.0
C2244 C 0.3954 0.04077 0.68962 0.0
C2245 C 0.37855 0.02784 0.6735 0.0
C2246 C 0.37679 0.01083 0.65995 0.0
C2247 C 0.39128 0.00647 0.66293 0.0
C2248 C 0.40762 0.01939 0.67921 0.0
C2249 C 0.40981 0.03627 0.69218 0.0
C2250 C 0.42811 0.04702 0.71009 0.0
C2251 C 0.44243 0.06731 0.69826 0.0
C2252 C 0.42349 0.04883 0.74143 0.0
C2253 C 0.43545 0.03316 0.70607 0.0
C2254 C 0.42356 0.01742 0.68794 0.0
C2255 C 0.42641 0.00178 0.68317 0.0
C2256 C 0.44133 0.0019 0.69812 0.0
C2257 C 0.45322 0.01753 0.71768 0.0
C2258 C 0.45064 0.03372 0.72059 0.0
H2259 H 0.98303 0.34945 0.71311 0.0
H2260 H 0.94962 0.34507 0.63895 0.0
H2261 H 0.95521 0.3781 0.65133 0.0
H2262 H 0.96644 0.37275 0.75966 0.0
H2263 H 0.98946 0.38828 0.77726 0.0
H2264 H 0.98345 0.36483 0.7616 0.0
H2265 H 0.01457 0.38199 0.73141 0.0
H2266 H 0.02069 0.40552 0.74704 0.0
H2267 H 0.01886 0.40168 0.70897 0.0
H2268 H 0.96315 0.41134 0.67432 0.0
H2269 H 0.97291 0.44108 0.70519 0.0
H2270 H 1.00223 0.42333 0.76196 0.0
C2271 C 0.97693 0.35542 0.69934 0.0
C2272 C 0.96582 0.34464 0.67513 0.0
C2273 C 0.95822 0.35309 0.65761 0.0
C2274 C 0.96131 0.37184 0.66447 0.0
C2275 C 0.97224 0.38201 0.6887 0.0
C2276 C 0.98004 0.37408 0.70567 0.0
C2277 C 0.99099 0.38766 0.73076 0.0
C2278 C 0.98204 0.37779 0.75897 0.0
C2279 C 0.01255 0.39463 0.72945 0.0
C2280 C 0.98782 0.40431 0.72569 0.0
C2281 C 0.97704 0.40095 0.70136 0.0
C2282 C 0.97174 0.41416 0.6933 0.0
C2283 C 0.97738 0.43103 0.71086 0.0
C2284 C 0.9881 0.43441 0.73617 0.0
C2285 C 0.9937 0.42103 0.74307 0.0
H2286 H 0.66385 0.59812 0.66979 0.0
H2287 H 0.65001 0.64319 0.66055 0.0
H2288 H 0.61578 0.61893 0.67044 0.0
H2289 H 0.61682 0.55516 0.64155 0.0
H2290 H 0.61678 0.53916 0.66759 0.0
H2291 H 0.63936 0.55891 0.65439 0.0
H2292 H 0.6508 0.5725 0.7059 0.0
H2293 H 0.62841 0.55274 0.71915 0.0
H2294 H 0.63593 0.57789 0.72833 0.0
H2295 H 0.58456 0.59166 0.68861 0.0
H2296 H 0.55957 0.5643 0.71649 0.0
H2297 H 0.59319 0.53665 0.71378 0.0
C2298 C 0.65351 0.60273 0.66899 0.0
C2299 C 0.65957 0.62251 0.66414 0.0
C2300 C 0.64569 0.6281 0.6641 0.0
C2301 C 0.62618 0.61438 0.66949 0.0
C2302 C 0.62073 0.59507 0.6748 0.0
C2303 C 0.634 0.58924 0.6746 0.0
C2304 C 0.62498 0.56841 0.68462 0.0
C2305 C 0.62445 0.55459 0.6606 0.0
C2306 C 0.63566 0.56787 0.71106 0.0
C2307 C 0.60482 0.56374 0.6917 0.0
C2308 C 0.60251 0.57916 0.68527 0.0
C2309 C 0.58596 0.57926 0.69296 0.0
C2310 C 0.57178 0.56364 0.70861 0.0
C2311 C 0.57425 0.54816 0.71632 0.0
C2312 C 0.59063 0.5479 0.70694 0.0
H2313 H 0.67609 0.7135 0.6335 0.0
H2314 H 0.73303 0.74122 0.67249 0.0
H2315 H 0.73681 0.77381 0.66844 0.0
H2316 H 0.68841 0.74817 0.58243 0.0
H2317 H 0.66578 0.74722 0.58314 0.0
H2318 H 0.66659 0.72614 0.59289 0.0
H2319 H 0.65119 0.72616 0.64139 0.0
H2320 H 0.65055 0.74746 0.63181 0.0
H2321 H 0.66256 0.74808 0.66413 0.0
H2322 H 0.73591 0.80354 0.65512 0.0
H2323 H 0.73152 0.82757 0.63009 0.0
H2324 H 0.67486 0.78051 0.60107 0.0
C2325 C 0.68921 0.72637 0.64171 0.0
C2326 C 0.70422 0.72477 0.65345 0.0
C2327 C 0.7213 0.74205 0.66347 0.0
C2328 C 0.72353 0.76063 0.66145 0.0
C2329 C 0.7085 0.7617 0.64953 0.0
C2330 C 0.69168 0.745 0.63979 0.0
C2331 C 0.67853 0.75022 0.62526 0.0
C2332 C 0.67461 0.74249 0.5941 0.0
C2333 C 0.65959 0.74252 0.64164 0.0
C2334 C 0.69088 0.77247 0.62739 0.0
C2335 C 0.70796 0.77885 0.64193 0.0
C2336 C 0.72243 0.79875 0.64419 0.0
C2337 C 0.71974 0.81235 0.63011 0.0
C2338 C 0.7028 0.80594 0.61378 0.0
C2339 C 0.68788 0.78586 0.61362 0.0
H2340 H 0.29699 0.98752 0.662 0.0
H2341 H 0.26354 0.00481 0.71376 0.0
H2342 H 0.23438 0.97173 0.70528 0.0
H2343 H 0.26165 0.96068 0.60968 0.0
H2344 H 0.26753 0.94196 0.60449 0.0
H2345 H 0.28582 0.96634 0.6168 0.0
H2346 H 0.29221 0.95184 0.66072 0.0
H2347 H 0.27382 0.92737 0.64859 0.0
H2348 H 0.27246 0.93635 0.68366 0.0
H2349 H 0.20811 0.93709 0.68755 0.0
H2350 H 0.18766 0.90515 0.66106 0.0
H2351 H 0.23902 0.91103 0.62279 0.0
C2352 C 0.2836 0.98434 0.67184 0.0
C2353 C 0.28258 0.99879 0.68854 0.0
C2354 C 0.26471 0.99397 0.70091 0.0
C2355 C 0.24807 0.97519 0.69628 0.0
C2356 C 0.24957 0.96132 0.67949 0.0
C2357 C 0.26696 0.96572 0.66757 0.0
C2358 C 0.2647 0.94874 0.64917 0.0
C2359 C 0.27024 0.9548 0.61821 0.0
C2360 C 0.2765 0.94059 0.66127 0.0
C2361 C 0.24325 0.93427 0.65193 0.0
C2362 C 0.2347 0.94159 0.66968 0.0
C2363 C 0.21472 0.93112 0.67389 0.0
C2364 C 0.20321 0.91298 0.65893 0.0
C2365 C 0.21179 0.90571 0.63992 0.0
C2366 C 0.23209 0.91627 0.6372 0.0
H2367 H 0.03571 0.33218 0.64935 0.0
H2368 H 0.01094 0.27924 0.69788 0.0
H2369 H 0.04002 0.27758 0.68907 0.0
H2370 H 0.05359 0.31669 0.59591 0.0
H2371 H 0.0754 0.34012 0.59057 0.0
H2372 H 0.05449 0.33927 0.60512 0.0
H2373 H 0.07467 0.36039 0.64902 0.0
H2374 H 0.09572 0.36131 0.63452 0.0
H2375 H 0.08766 0.35239 0.66966 0.0
H2376 H 0.06894 0.27847 0.66827 0.0
H2377 H 0.09459 0.28144 0.63668 0.0
H2378 H 0.1016 0.33476 0.60353 0.0
C2379 C 0.03661 0.32055 0.65883 0.0
C2380 C 0.02105 0.30587 0.67438 0.0
C2381 C 0.0227 0.2907 0.686 0.0
C2382 C 0.03922 0.28969 0.68121 0.0
C2383 C 0.05408 0.30408 0.66508 0.0
C2384 C 0.05299 0.31934 0.65428 0.0
C2385 C 0.06989 0.33171 0.6351 0.0
C2386 C 0.06292 0.33194 0.60491 0.0
C2387 C 0.08275 0.35269 0.64785 0.0
C2388 C 0.08011 0.32044 0.6356 0.0
C2389 C 0.07098 0.30476 0.65341 0.0
C2390 C 0.07652 0.29099 0.65485 0.0
C2391 C 0.09125 0.29289 0.63691 0.0
C2392 C 0.10024 0.3084 0.61764 0.0
C2393 C 0.09507 0.32276 0.61803 0.0
H2394 H 0.29943 0.33368 0.64496 0.0
H2395 H 0.2721 0.27423 0.67497 0.0
H2396 H 0.24007 0.27033 0.66944 0.0
H2397 H 0.26457 0.34583 0.67624 0.0
H2398 H 0.26569 0.35934 0.64571 0.0
H2399 H 0.28651 0.35848 0.65603 0.0
H2400 H 0.28769 0.34496 0.60563 0.0
H2401 H 0.26708 0.34599 0.59516 0.0
H2402 H 0.26645 0.32313 0.59135 0.0
H2403 H 0.21096 0.27146 0.65477 0.0
H2404 H 0.18778 0.27667 0.62916 0.0
H2405 H 0.23405 0.33574 0.61033 0.0
C2406 C 0.28676 0.31997 0.65097 0.0
C2407 C 0.28831 0.3043 0.66055 0.0
C2408 C 0.2713 0.28648 0.66769 0.0
C2409 C 0.25304 0.28417 0.66479 0.0
C2410 C 0.25201 0.29986 0.65494 0.0
C2411 C 0.26846 0.31743 0.64816 0.0
C2412 C 0.26345 0.33129 0.63527 0.0
C2413 C 0.27047 0.34983 0.65447 0.0
C2414 C 0.27164 0.33664 0.60508 0.0
C2415 C 0.24161 0.31851 0.63479 0.0
C2416 C 0.23523 0.30056 0.64669 0.0
C2417 C 0.21575 0.28562 0.64597 0.0
C2418 C 0.20262 0.28877 0.63158 0.0
C2419 C 0.20907 0.30667 0.61791 0.0
C2420 C 0.22866 0.32199 0.62083 0.0
H2421 H 0.67154 0.97791 0.66729 0.0
H2422 H 0.73288 0.01845 0.68267 0.0
H2423 H 0.73871 0.99145 0.67286 0.0
H2424 H 0.66854 0.93336 0.69577 0.0
H2425 H 0.65163 0.91746 0.6684 0.0
H2426 H 0.65184 0.93916 0.68098 0.0
H2427 H 0.65655 0.95118 0.62947 0.0
H2428 H 0.65626 0.92954 0.61679 0.0
H2429 H 0.6765 0.95358 0.60905 0.0
H2430 H 0.73843 0.96123 0.65562 0.0
H2431 H 0.73233 0.93113 0.62958 0.0
H2432 H 0.6711 0.90984 0.62635 0.0
C2433 C 0.68614 0.98102 0.6693 0.0
C2434 C 0.70173 1.00029 0.67595 0.0
C2435 C 0.72068 0.0038 0.67772 0.0
C2436 C 0.72413 0.98852 0.67235 0.0
C2437 C 0.70847 0.96975 0.66537 0.0
C2438 C 0.68984 0.96595 0.66387 0.0
C2439 C 0.67584 0.94506 0.65302 0.0
C2440 C 0.66109 0.93305 0.67592 0.0
C2441 C 0.66571 0.94484 0.62545 0.0
C2442 C 0.68962 0.93796 0.64758 0.0
C2443 C 0.70832 0.95228 0.65535 0.0
C2444 C 0.72379 0.94975 0.64999 0.0
C2445 C 0.72015 0.93248 0.63536 0.0
C2446 C 0.70121 0.91801 0.62603 0.0
C2447 C 0.68572 0.92056 0.6333 0.0
H2448 H 0.0093 0.69882 0.64219 0.0
H2449 H 0.01028 0.71456 0.73153 0.0
H2450 H 0.04194 0.74533 0.72516 0.0
H2451 H 0.06051 0.71721 0.63705 0.0
H2452 H 0.06205 0.72551 0.60151 0.0
H2453 H 0.03977 0.70477 0.6136 0.0
H2454 H 0.0216 0.72219 0.60085 0.0
H2455 H 0.04381 0.74294 0.58872 0.0
H2456 H 0.02993 0.74653 0.61563 0.0
H2457 H 0.07322 0.77566 0.70752 0.0
H2458 H 0.10068 0.80169 0.68055 0.0
H2459 H 0.07925 0.764 0.60432 0.0
C2460 C 0.01615 0.7087 0.66047 0.0
C2461 C 0.00728 0.70436 0.68732 0.0
C2462 C 0.01684 0.71761 0.71074 0.0
C2463 C 0.03481 0.73511 0.70732 0.0
C2464 C 0.04314 0.73898 0.68045 0.0
C2465 C 0.03412 0.72599 0.65753 0.0
C2466 C 0.04589 0.73336 0.63085 0.0
C2467 C 0.05245 0.71938 0.62014 0.0
C2468 C 0.03464 0.73644 0.60766 0.0
C2469 C 0.06276 0.75273 0.64209 0.0
C2470 C 0.06106 0.75584 0.6707 0.0
C2471 C 0.07474 0.77326 0.68514 0.0
C2472 C 0.09033 0.78793 0.66973 0.0
C2473 C 0.09201 0.78505 0.64024 0.0
C2474 C 0.07823 0.76694 0.62668 0.0
H2475 H 0.95215 0.60006 0.70344 0.0
H2476 H 0.9864 0.61262 0.62703 0.0
H2477 H 0.99436 0.5879 0.63945 0.0
H2478 H 0.9833 0.59589 0.74787 0.0
H2479 H 0.96475 0.57613 0.76805 0.0
H2480 H 0.95982 0.59292 0.75131 0.0
H2481 H 0.93047 0.5636 0.72476 0.0
H2482 H 0.93536 0.54669 0.74142 0.0
H2483 H 0.93385 0.54653 0.70325 0.0
H2484 H 1.00187 0.56499 0.66326 0.0
H2485 H 0.00876 0.5464 0.69676 0.0
H2486 H 0.968 0.54719 0.75621 0.0
C2487 C 0.96104 0.59739 0.68903 0.0
C2488 C 0.96863 0.60828 0.66423 0.0
C2489 C 0.98036 0.60442 0.64609 0.0
C2490 C 0.9849 0.59035 0.65291 0.0
C2491 C 0.9774 0.58007 0.67774 0.0
C2492 C 0.96561 0.58332 0.69541 0.0
C2493 C 0.96056 0.5714 0.72185 0.0
C2494 C 0.96753 0.58489 0.74885 0.0
C2495 C 0.93876 0.55615 0.72286 0.0
C2496 C 0.97198 0.56154 0.71686 0.0
C2497 C 0.98141 0.56652 0.69115 0.0
C2498 C 0.99422 0.56063 0.68315 0.0
C2499 C 0.99793 0.54991 0.70229 0.0
C2500 C 0.98889 0.54521 0.72918 0.0
C2501 C 0.97521 0.55055 0.73591 0.0
H2502 H 0.38091 0.34988 0.70744 0.0
H2503 H 0.39229 0.36158 0.61786 0.0
H2504 H 0.42116 0.39419 0.63046 0.0
H2505 H 0.39552 0.39907 0.73153 0.0
H2506 H 0.40614 0.39757 0.76398 0.0
H2507 H 0.3862 0.37562 0.74755 0.0
H2508 H 0.40658 0.35927 0.74621 0.0
H2509 H 0.42657 0.38116 0.76262 0.0
H2510 H 0.42981 0.37154 0.72923 0.0
H2511 H 0.44958 0.42573 0.65386 0.0
H2512 H 0.4741 0.45271 0.68567 0.0
H2513 H 0.44364 0.41865 0.75879 0.0
C2514 C 0.38934 0.3593 0.69038 0.0
C2515 C 0.38429 0.35319 0.66166 0.0
C2516 C 0.39586 0.36597 0.64005 0.0
C2517 C 0.41228 0.38452 0.64699 0.0
C2518 C 0.41692 0.38999 0.67561 0.0
C2519 C 0.40572 0.37769 0.69689 0.0
C2520 C 0.41385 0.38661 0.72599 0.0
C2521 C 0.39958 0.38991 0.74327 0.0
C2522 C 0.41954 0.37389 0.74193 0.0
C2523 C 0.43142 0.40589 0.71788 0.0
C2524 C 0.43305 0.40773 0.6888 0.0
C2525 C 0.44838 0.42443 0.67668 0.0
C2526 C 0.46226 0.43963 0.69484 0.0
C2527 C 0.46063 0.43797 0.72472 0.0
C2528 C 0.44507 0.42071 0.7361 0.0
H2529 H 0.65795 0.05841 0.70679 0.0
H2530 H 0.64003 0.02216 0.62904 0.0
H2531 H 0.60629 0.01303 0.63737 0.0
H2532 H 0.61862 0.02684 0.74748 0.0
H2533 H 0.61697 0.04588 0.76648 0.0
H2534 H 0.63981 0.0511 0.75266 0.0
H2535 H 0.64281 0.08002 0.72492 0.0
H2536 H 0.61987 0.0748 0.73861 0.0
H2537 H 0.62373 0.07553 0.70081 0.0
H2538 H 0.57397 0.0046 0.65759 0.0
H2539 H 0.54627 0.99758 0.68796 0.0
H2540 H 0.5857 0.04151 0.75028 0.0
C2541 C 0.64699 0.04878 0.69128 0.0
C2542 C 0.65163 0.04098 0.66728 0.0
C2543 C 0.63684 0.02838 0.64753 0.0
C2544 C 0.61764 0.02315 0.65204 0.0
C2545 C 0.61352 0.03092 0.67613 0.0
C2546 C 0.62784 0.04363 0.69526 0.0
C2547 C 0.61955 0.04906 0.7203 0.0
C2548 C 0.624 0.04284 0.74837 0.0
C2549 C 0.62693 0.07117 0.7212 0.0
C2550 C 0.59824 0.03683 0.71287 0.0
C2551 C 0.59501 0.02658 0.68721 0.0
C2552 C 0.57634 0.01288 0.67741 0.0
C2553 C 0.56065 0.00909 0.69473 0.0
C2554 C 0.56373 0.01896 0.72157 0.0
C2555 C 0.58279 0.0336 0.72999 0.0
loop_
_geom_bond_atom_site_label_1
_geom_bond_atom_site_label_2
_geom_bond_distance
_geom_bond_site_symmetry_2
_ccdc_geom_bond_type
C0 O1 1.160 . S
C0 O7 1.185 . S
O1 C0 1.160 . S
O2 Zn3 1.899 1_656 S
O2 C10 1.284 1_556 S
Zn3 O2 1.899 1_454 S
Zn3 O4 2.032 . S
Zn3 O7 2.086 . S
Zn3 O12 1.977 1_554 S
O4 Zn3 2.032 . S
O4 C8 1.278 1_455 S
C5 O6 1.203 1_455 S
C5 O12 1.267 . S
O6 C5 1.203 1_655 S
O7 C0 1.185 . S
O7 Zn3 2.086 . S
C8 O4 1.278 1_655 S
C8 O9 1.211 . S
O9 C8 1.211 . S
C10 O2 1.284 1_554 S
C10 O11 1.273 . S
O11 C10 1.273 . S
O12 Zn3 1.977 1_556 S
O12 C5 1.267 . S
C13 O14 1.160 . S
C13 O20 1.185 1_556 S
O14 C13 1.160 . S
O15 Zn16 1.899 . S
O15 C23 1.284 . S
Zn16 O15 1.899 . S
Zn16 O17 2.032 1_554 S
Zn16 O20 2.086 . S
Zn16 O25 1.977 . S
O17 Zn16 2.032 1_556 S
O17 C21 1.278 . S
C18 O19 1.203 . S
C18 O25 1.267 . S
O19 C18 1.203 . S
O20 C13 1.185 1_554 S
O20 Zn16 2.086 . S
C21 O17 1.278 . S
C21 O22 1.211 . S
O22 C21 1.211 . S
C23 O15 1.284 . S
C23 O24 1.273 . S
O24 C23 1.273 . S
O25 Zn16 1.977 . S
O25 C18 1.267 . S
C26 O27 1.151 1_554 S
C26 O33 1.199 . S
O27 C26 1.151 1_556 S
O28 Zn29 1.899 1_565 S
O28 C36 1.284 . S
Zn29 O28 1.899 1_545 S
Zn29 O30 2.032 1_554 S
Zn29 O33 2.086 . S
Zn29 O38 1.977 . S
O30 Zn29 2.032 1_556 S
O30 C34 1.236 1_545 S
C31 O32 1.203 1_545 S
C31 O38 1.267 . S
O32 C31 1.203 1_565 S
O33 C26 1.199 . S
O33 Zn29 2.086 . S
C34 O30 1.236 1_565 S
C34 O35 1.245 . S
O35 C34 1.245 . S
C36 O28 1.284 . S
C36 O37 1.273 . S
O37 C36 1.273 . S
O38 Zn29 1.977 . S
O38 C31 1.267 . S
C39 O40 1.160 . S
C39 O46 1.185 1_556 S
O40 C39 1.160 . S
O41 Zn42 1.899 1_455 S
O41 C49 1.284 . S
Zn42 O41 1.899 1_655 S
Zn42 O43 2.032 1_554 S
Zn42 O46 2.086 . S
Zn42 O51 1.977 . S
O43 Zn42 2.032 1_556 S
O43 C47 1.278 1_655 S
C44 O45 1.203 1_655 S
C44 O51 1.267 . S
O45 C44 1.203 1_455 S
O46 C39 1.185 1_554 S
O46 Zn42 2.086 . S
C47 O43 1.278 1_455 S
C47 O48 1.211 . S
O48 C47 1.211 . S
C49 O41 1.284 . S
C49 O50 1.273 . S
O50 C49 1.273 . S
O51 Zn42 1.977 . S
O51 C44 1.267 . S
C52 O53 1.160 . S
C52 O59 1.185 . S
O53 C52 1.160 . S
O54 Zn55 1.899 1_556 S
O54 C62 1.284 . S
Zn55 O54 1.899 1_554 S
Zn55 O56 2.032 . S
Zn55 O59 2.086 . S
Zn55 O64 1.977 1_554 S
O56 Zn55 2.032 . S
O56 C60 1.278 . S
C57 O58 1.203 . S
C57 O64 1.267 . S
O58 C57 1.203 . S
O59 C52 1.185 . S
O59 Zn55 2.086 . S
C60 O56 1.278 . S
C60 O61 1.211 . S
O61 C60 1.211 . S
C62 O54 1.284 . S
C62 O63 1.273 1_556 S
O63 C62 1.273 1_554 S
O64 Zn55 1.977 1_556 S
O64 C57 1.267 . S
C65 O66 1.160 . S
C65 O72 1.185 . S
O66 C65 1.160 . S
O67 Zn68 1.899 1_546 S
O67 C75 1.284 . S
Zn68 O67 1.899 1_564 S
Zn68 O69 2.032 . S
Zn68 O72 2.086 . S
Zn68 O77 1.977 1_554 S
O69 Zn68 2.032 . S
O69 C73 1.278 1_565 S
C70 O71 1.203 1_565 S
C70 O77 1.267 . S
O71 C70 1.203 1_545 S
O72 C65 1.185 . S
O72 Zn68 2.086 . S
C73 O69 1.278 1_545 S
C73 O74 1.211 . S
O74 C73 1.211 . S
C75 O67 1.284 . S
C75 O76 1.273 1_556 S
O76 C75 1.273 1_554 S
O77 Zn68 1.977 1_556 S
O77 C70 1.267 . S
C78 O79 1.160 . S
C78 O85 1.185 . S
O79 C78 1.160 . S
O80 Zn81 1.899 . S
O80 C88 1.284 . S
Zn81 O80 1.899 . S
Zn81 O82 2.032 . S
Zn81 O85 2.086 . S
Zn81 O90 1.977 . S
O82 Zn81 2.032 . S
O82 C86 1.278 . S
C83 O84 1.203 . S
C83 O90 1.267 . S
O84 C83 1.203 . S
O85 C78 1.185 . S
O85 Zn81 2.086 . S
C86 O82 1.278 . S
C86 O87 1.211 . S
O87 C86 1.211 . S
C88 O80 1.284 . S
C88 O89 1.273 . S
O89 C88 1.273 . S
O90 Zn81 1.977 . S
O90 C83 1.267 . S
C91 O92 1.160 1_565 S
C91 O98 1.185 . S
O92 C91 1.160 1_545 S
O93 Zn94 1.899 1_545 S
O93 C101 1.284 . S
Zn94 O93 1.899 1_565 S
Zn94 O95 2.032 . S
Zn94 O98 2.086 . S
Zn94 O103 1.977 . S
O95 Zn94 2.032 . S
O95 C99 1.278 . S
C96 O97 1.203 . S
C96 O103 1.267 . S
O97 C96 1.203 . S
O98 C91 1.185 . S
O98 Zn94 2.086 . S
C99 O95 1.278 . S
C99 O100 1.211 . S
O100 C99 1.211 . S
C101 O93 1.284 . S
C101 O102 1.273 . S
O102 C101 1.273 . S
O103 Zn94 1.977 . S
O103 C96 1.267 . S
C104 O105 1.160 . S
C104 O111 1.185 . S
O105 C104 1.160 . S
O106 Zn107 1.876 1_655 S
O106 C114 1.281 . S
Zn107 O106 1.876 1_455 S
Zn107 O108 2.032 . S
Zn107 O111 2.086 . S
Zn107 O116 1.977 . S
O108 Zn107 2.032 . S
O108 C112 1.278 . S
C109 O110 1.203 . S
C109 O116 1.267 . S
O110 C109 1.203 . S
O111 C104 1.185 . S
O111 Zn107 2.086 . S
C112 O108 1.278 . S
C112 O113 1.211 . S
O113 C112 1.211 . S
C114 O106 1.281 . S
C114 O115 1.274 1_655 S
O115 C114 1.274 1_455 S
O116 Zn107 1.977 . S
O116 C109 1.267 . S
C117 O118 1.160 1_565 S
C117 O124 1.185 . S
O118 C117 1.160 1_545 S
O119 Zn120 1.899 1_545 S
O119 C127 1.284 . S
Zn120 O119 1.899 1_565 S
Zn120 O121 2.032 . S
Zn120 O124 2.086 . S
Zn120 O129 1.977 . S
O121 Zn120 2.032 . S
O121 C125 1.278 . S
C122 O123 1.203 . S
C122 O129 1.267 . S
O123 C122 1.203 . S
O124 C117 1.185 . S
O124 Zn120 2.086 . S
C125 O121 1.278 . S
C125 O126 1.211 . S
O126 C125 1.211 . S
C127 O119 1.284 . S
C127 O128 1.273 . S
O128 C127 1.273 . S
O129 Zn120 1.977 . S
O129 C122 1.267 . S
C130 O131 1.160 . S
C130 O137 1.185 . S
O131 C130 1.160 . S
O132 Zn133 1.899 . S
O132 C140 1.284 . S
Zn133 O132 1.899 . S
Zn133 O134 2.032 . S
Zn133 O137 2.086 1_455 S
Zn133 O142 1.977 . S
O134 Zn133 2.032 . S
O134 C138 1.278 . S
C135 O136 1.203 . S
C135 O142 1.267 . S
O136 C135 1.203 . S
O137 C130 1.185 . S
O137 Zn133 2.086 1_655 S
C138 O134 1.278 . S
C138 O139 1.211 . S
O139 C138 1.211 . S
C140 O132 1.284 . S
C140 O141 1.273 . S
O141 C140 1.273 . S
O142 Zn133 1.977 . S
O142 C135 1.267 . S
C143 O144 1.160 . S
C143 O150 1.185 . S
O144 C143 1.160 . S
O145 Zn146 1.899 . S
O145 C153 1.284 . S
Zn146 O145 1.899 . S
Zn146 O147 2.032 . S
Zn146 O150 2.086 . S
Zn146 O155 1.977 . S
O147 Zn146 2.032 . S
O147 C151 1.278 . S
C148 O149 1.203 . S
C148 O155 1.267 . S
O149 C148 1.203 . S
O150 C143 1.185 . S
O150 Zn146 2.086 . S
C151 O147 1.278 . S
C151 O152 1.211 . S
O152 C151 1.211 . S
C153 O145 1.284 . S
C153 O154 1.273 . S
O154 C153 1.273 . S
O155 Zn146 1.977 . S
O155 C148 1.267 . S
C156 O157 1.139 1_545 S
C156 O163 1.185 . S
O157 C156 1.139 1_565 S
O158 Zn159 1.899 1_565 S
O158 C166 1.284 . S
Zn159 O158 1.899 1_545 S
Zn159 O160 2.032 . S
Zn159 O163 2.086 . S
Zn159 O168 1.977 . S
O160 Zn159 2.032 . S
O160 C164 1.278 . S
C161 O162 1.203 . S
C161 O168 1.267 . S
O162 C161 1.203 . S
O163 C156 1.185 . S
O163 Zn159 2.086 . S
C164 O160 1.278 . S
C164 O165 1.211 . S
O165 C164 1.211 . S
C166 O158 1.284 . S
C166 O167 1.273 . S
O167 C166 1.273 . S
O168 Zn159 1.977 . S
O168 C161 1.267 . S
C169 O170 1.160 . S
C169 O176 1.185 . S
O170 C169 1.160 . S
O171 Zn172 1.899 . S
O171 C179 1.284 . S
Zn172 O171 1.899 . S
Zn172 O173 2.032 . S
Zn172 O176 2.086 1_655 S
Zn172 O181 1.977 . S
O173 Zn172 2.032 . S
O173 C177 1.278 . S
C174 O175 1.203 . S
C174 O181 1.267 . S
O175 C174 1.203 . S
O176 C169 1.185 . S
O176 Zn172 2.086 1_455 S
C177 O173 1.278 . S
C177 O178 1.211 . S
O178 C177 1.211 . S
C179 O171 1.284 . S
C179 O180 1.273 . S
O180 C179 1.273 . S
O181 Zn172 1.977 . S
O181 C174 1.267 . S
C182 O183 1.160 . S
C182 O189 1.185 . S
O183 C182 1.160 . S
O184 Zn185 1.899 . S
O184 C192 1.284 . S
Zn185 O184 1.899 . S
Zn185 O186 2.032 . S
Zn185 O189 2.086 . S
Zn185 O194 1.977 . S
O186 Zn185 2.032 . S
O186 C190 1.278 . S
C187 O188 1.203 . S
C187 O194 1.267 . S
O188 C187 1.203 . S
O189 C182 1.185 . S
O189 Zn185 2.086 . S
C190 O186 1.278 . S
C190 O191 1.211 . S
O191 C190 1.211 . S
C192 O184 1.284 . S
C192 O193 1.273 . S
O193 C192 1.273 . S
O194 Zn185 1.977 . S
O194 C187 1.267 . S
C195 O196 1.160 . S
C195 O202 1.185 . S
O196 C195 1.160 . S
O197 Zn198 1.899 . S
O197 C205 1.284 . S
Zn198 O197 1.899 . S
Zn198 O199 2.032 . S
Zn198 O202 2.086 . S
Zn198 O207 1.977 . S
O199 Zn198 2.032 . S
O199 C203 1.278 . S
C200 O201 1.203 . S
C200 O207 1.267 . S
O201 C200 1.203 . S
O202 C195 1.185 . S
O202 Zn198 2.086 . S
C203 O199 1.278 . S
C203 O204 1.211 . S
O204 C203 1.211 . S
C205 O197 1.284 . S
C205 O206 1.273 . S
O206 C205 1.273 . S
O207 Zn198 1.977 . S
O207 C200 1.267 . S
C208 O209 1.128 1_545 S
C208 O215 1.185 . S
O209 C208 1.128 1_565 S
O210 Zn211 1.899 1_565 S
O210 C218 1.284 . S
Zn211 O210 1.899 1_545 S
Zn211 O212 2.032 . S
Zn211 O215 2.086 . S
Zn211 O220 1.977 . S
O212 Zn211 2.032 . S
O212 C216 1.278 . S
C213 O214 1.203 . S
C213 O220 1.267 . S
O214 C213 1.203 . S
O215 C208 1.185 . S
O215 Zn211 2.086 . S
C216 O212 1.278 . S
C216 O217 1.211 . S
O217 C216 1.211 . S
C218 O210 1.284 . S
C218 O219 1.277 . S
O219 C218 1.277 . S
O220 Zn211 1.977 . S
O220 C213 1.267 . S
C221 O222 1.160 . S
C221 O228 1.185 . S
O222 C221 1.160 . S
O223 Zn224 1.889 1_455 S
O223 C231 1.283 . S
Zn224 O223 1.889 1_655 S
Zn224 O225 2.032 . S
Zn224 O228 2.086 . S
Zn224 O233 1.977 . S
O225 Zn224 2.032 . S
O225 C229 1.278 . S
C226 O227 1.203 . S
C226 O233 1.267 . S
O227 C226 1.203 . S
O228 C221 1.185 . S
O228 Zn224 2.086 . S
C229 O225 1.278 . S
C229 O230 1.211 . S
O230 C229 1.211 . S
C231 O223 1.283 . S
C231 O232 1.254 1_455 S
O232 C231 1.254 1_655 S
O233 Zn224 1.977 . S
O233 C226 1.267 . S
H234 C242 0.930 . S
H235 C245 0.930 . S
H236 C247 0.930 . S
H237 C248 0.970 . S
H238 C248 0.970 . S
H239 C250 0.930 . S
H240 C252 0.930 . S
H241 C254 0.930 . S
C242 H234 0.930 . S
C242 C243 1.382 . S
C242 C244 1.426 . S
C243 C242 1.382 . S
C243 C247 1.389 . S
C244 C242 1.426 . S
C244 C245 1.375 . S
C244 C248 1.532 . S
C245 H235 0.930 . S
C245 C244 1.375 . S
C245 C246 1.416 . S
C246 C245 1.416 . S
C246 C247 1.371 . S
C247 H236 0.930 . S
C247 C243 1.389 . S
C247 C246 1.371 . S
C248 H237 0.970 . S
C248 H238 0.970 . S
C248 C244 1.532 . S
C248 C249 1.499 . S
C249 C248 1.499 . S
C249 C250 1.370 . S
C249 C254 1.415 . S
C250 H239 0.930 . S
C250 C249 1.370 . S
C250 C251 1.407 . S
C251 C250 1.407 . S
C251 C252 1.365 . S
C252 H240 0.930 . S
C252 C251 1.365 . S
C252 C253 1.393 . S
C253 C252 1.393 . S
C253 C254 1.387 . S
C254 H241 0.930 . S
C254 C249 1.415 . S
C254 C253 1.387 . S
H255 C263 0.930 . S
H256 C266 0.930 . S
H257 C268 0.930 . S
H258 C269 0.970 . S
H259 C269 0.970 . S
H260 C271 0.930 . S
H261 C273 0.930 . S
H262 C275 0.930 . S
C263 H255 0.930 . S
C263 C264 1.382 . S
C263 C265 1.426 . S
C264 C263 1.382 . S
C264 C268 1.389 . S
C265 C263 1.426 . S
C265 C266 1.375 . S
C265 C269 1.532 . S
C266 H256 0.930 . S
C266 C265 1.375 . S
C266 C267 1.416 . S
C267 C266 1.416 . S
C267 C268 1.371 . S
C268 H257 0.930 . S
C268 C264 1.389 . S
C268 C267 1.371 . S
C269 H258 0.970 . S
C269 H259 0.970 . S
C269 C265 1.532 . S
C269 C270 1.499 . S
C270 C269 1.499 . S
C270 C271 1.370 . S
C270 C275 1.415 . S
C271 H260 0.930 . S
C271 C270 1.370 . S
C271 C272 1.407 . S
C272 C271 1.407 . S
C272 C273 1.365 . S
C273 H261 0.930 . S
C273 C272 1.365 . S
C273 C274 1.393 . S
C274 C273 1.393 . S
C274 C275 1.387 . S
C275 H262 0.930 . S
C275 C270 1.415 . S
C275 C274 1.387 . S
H276 C284 0.930 . S
H277 C287 0.930 . S
H278 C289 0.930 . S
H279 C290 0.970 . S
H280 C290 0.970 . S
H281 C292 0.930 . S
H282 C294 0.930 . S
H283 C296 0.930 . S
C284 H276 0.930 . S
C284 C285 1.382 . S
C284 C286 1.426 . S
C285 C284 1.382 . S
C285 C289 1.389 . S
C286 C284 1.426 . S
C286 C287 1.375 . S
C286 C290 1.532 . S
C287 H277 0.930 . S
C287 C286 1.375 . S
C287 C288 1.416 . S
C288 C287 1.416 . S
C288 C289 1.371 . S
C289 H278 0.930 . S
C289 C285 1.389 . S
C289 C288 1.371 . S
C290 H279 0.970 . S
C290 H280 0.970 . S
C290 C286 1.532 . S
C290 C291 1.499 . S
C291 C290 1.499 . S
C291 C292 1.370 . S
C291 C296 1.415 . S
C292 H281 0.930 . S
C292 C291 1.370 . S
C292 C293 1.407 . S
C293 C292 1.407 . S
C293 C294 1.365 . S
C294 H282 0.930 . S
C294 C293 1.365 . S
C294 C295 1.393 . S
C295 C294 1.393 . S
C295 C296 1.387 . S
C296 H283 0.930 . S
C296 C291 1.415 . S
C296 C295 1.387 . S
H297 C305 0.930 . S
H298 C308 0.930 . S
H299 C310 0.930 . S
H300 C311 0.970 . S
H301 C311 0.970 . S
H302 C313 0.930 . S
H303 C315 0.930 . S
H304 C317 0.930 . S
C305 H297 0.930 . S
C305 C306 1.382 . S
C305 C307 1.426 . S
C306 C305 1.382 . S
C306 C310 1.389 . S
C307 C305 1.426 . S
C307 C308 1.375 . S
C307 C311 1.532 . S
C308 H298 0.930 . S
C308 C307 1.375 . S
C308 C309 1.416 . S
C309 C308 1.416 . S
C309 C310 1.371 . S
C310 H299 0.930 . S
C310 C306 1.389 . S
C310 C309 1.371 . S
C311 H300 0.970 . S
C311 H301 0.970 . S
C311 C307 1.532 . S
C311 C312 1.499 . S
C312 C311 1.499 . S
C312 C313 1.370 . S
C312 C317 1.415 . S
C313 H302 0.930 . S
C313 C312 1.370 . S
C313 C314 1.407 . S
C314 C313 1.407 . S
C314 C315 1.365 . S
C315 H303 0.930 . S
C315 C314 1.365 . S
C315 C316 1.393 . S
C316 C315 1.393 . S
C316 C317 1.387 . S
C317 H304 0.930 . S
C317 C312 1.415 . S
C317 C316 1.387 . S
H318 C326 0.930 . S
H319 C329 0.930 . S
H320 C331 0.930 . S
H321 C332 0.970 . S
H322 C332 0.970 . S
H323 C334 0.930 . S
H324 C336 0.930 . S
H325 C338 0.930 . S
C326 H318 0.930 . S
C326 C327 1.382 . S
C326 C328 1.426 . S
C327 C326 1.382 . S
C327 C331 1.389 . S
C328 C326 1.426 . S
C328 C329 1.375 . S
C328 C332 1.532 . S
C329 H319 0.930 . S
C329 C328 1.375 . S
C329 C330 1.416 . S
C330 C329 1.416 . S
C330 C331 1.371 . S
C331 H320 0.930 . S
C331 C327 1.389 . S
C331 C330 1.371 . S
C332 H321 0.970 . S
C332 H322 0.970 . S
C332 C328 1.532 . S
C332 C333 1.499 . S
C333 C332 1.499 . S
C333 C334 1.370 . S
C333 C338 1.415 . S
C334 H323 0.930 . S
C334 C333 1.370 . S
C334 C335 1.407 . S
C335 C334 1.407 . S
C335 C336 1.365 . S
C336 H324 0.930 . S
C336 C335 1.365 . S
C336 C337 1.393 . S
C337 C336 1.393 . S
C337 C338 1.387 . S
C338 H325 0.930 . S
C338 C333 1.415 . S
C338 C337 1.387 . S
H339 C347 0.930 . S
H340 C350 0.930 . S
H341 C352 0.930 . S
H342 C353 0.970 . S
H343 C353 0.970 . S
H344 C355 0.930 . S
H345 C357 0.930 . S
H346 C359 0.930 . S
C347 H339 0.930 . S
C347 C348 1.382 . S
C347 C349 1.426 . S
C348 C347 1.382 . S
C348 C352 1.389 . S
C349 C347 1.426 . S
C349 C350 1.375 . S
C349 C353 1.532 . S
C350 H340 0.930 . S
C350 C349 1.375 . S
C350 C351 1.416 . S
C351 C350 1.416 . S
C351 C352 1.371 . S
C352 H341 0.930 . S
C352 C348 1.389 . S
C352 C351 1.371 . S
C353 H342 0.970 . S
C353 H343 0.970 . S
C353 C349 1.532 . S
C353 C354 1.499 . S
C354 C353 1.499 . S
C354 C355 1.370 . S
C354 C359 1.415 . S
C355 H344 0.930 . S
C355 C354 1.370 . S
C355 C356 1.407 . S
C356 C355 1.407 . S
C356 C357 1.365 . S
C357 H345 0.930 . S
C357 C356 1.365 . S
C357 C358 1.393 . S
C358 C357 1.393 . S
C358 C359 1.387 . S
C359 H346 0.930 . S
C359 C354 1.415 . S
C359 C358 1.387 . S
H360 C368 0.930 . S
H361 C371 0.930 . S
H362 C373 0.930 . S
H363 C374 0.970 . S
H364 C374 0.970 . S
H365 C376 0.930 . S
H366 C378 0.930 . S
H367 C380 0.930 . S
C368 H360 0.930 . S
C368 C369 1.382 . S
C368 C370 1.426 . S
C369 C368 1.382 . S
C369 C373 1.389 . S
C370 C368 1.426 . S
C370 C371 1.375 . S
C370 C374 1.532 . S
C371 H361 0.930 . S
C371 C370 1.375 . S
C371 C372 1.416 . S
C372 C371 1.416 . S
C372 C373 1.371 . S
C373 H362 0.930 . S
C373 C369 1.389 . S
C373 C372 1.371 . S
C374 H363 0.970 . S
C374 H364 0.970 . S
C374 C370 1.532 . S
C374 C375 1.499 . S
C375 C374 1.499 . S
C375 C376 1.370 . S
C375 C380 1.415 . S
C376 H365 0.930 . S
C376 C375 1.370 . S
C376 C377 1.407 . S
C377 C376 1.407 . S
C377 C378 1.365 . S
C378 H366 0.930 . S
C378 C377 1.365 . S
C378 C379 1.393 . S
C379 C378 1.393 . S
C379 C380 1.387 . S
C380 H367 0.930 . S
C380 C375 1.415 . S
C380 C379 1.387 . S
H381 C389 0.930 . S
H382 C392 0.930 . S
H383 C394 0.930 . S
H384 C395 0.970 . S
H385 C395 0.970 . S
H386 C397 0.930 . S
H387 C399 0.930 . S
H388 C401 0.930 . S
C389 H381 0.930 . S
C389 C390 1.382 . S
C389 C391 1.426 . S
C390 C389 1.382 . S
C390 C394 1.389 . S
C391 C389 1.426 . S
C391 C392 1.375 . S
C391 C395 1.532 . S
C392 H382 0.930 . S
C392 C391 1.375 . S
C392 C393 1.416 . S
C393 C392 1.416 . S
C393 C394 1.371 . S
C394 H383 0.930 . S
C394 C390 1.389 . S
C394 C393 1.371 . S
C395 H384 0.970 . S
C395 H385 0.970 . S
C395 C391 1.532 . S
C395 C396 1.499 . S
C396 C395 1.499 . S
C396 C397 1.370 . S
C396 C401 1.415 . S
C397 H386 0.930 . S
C397 C396 1.370 . S
C397 C398 1.407 . S
C398 C397 1.407 . S
C398 C399 1.365 . S
C399 H387 0.930 . S
C399 C398 1.365 . S
C399 C400 1.393 . S
C400 C399 1.393 . S
C400 C401 1.387 . S
C401 H388 0.930 . S
C401 C396 1.415 . S
C401 C400 1.387 . S
H402 C410 0.930 . S
H403 C413 0.930 . S
H404 C415 0.930 . S
H405 C416 0.970 . S
H406 C416 0.970 . S
H407 C418 0.930 . S
H408 C420 0.930 . S
H409 C422 0.930 . S
C410 H402 0.930 . S
C410 C411 1.382 . S
C410 C412 1.426 . S
C411 C410 1.382 . S
C411 C415 1.389 . S
C412 C410 1.426 . S
C412 C413 1.375 . S
C412 C416 1.532 . S
C413 H403 0.930 . S
C413 C412 1.375 . S
C413 C414 1.416 . S
C414 C413 1.416 . S
C414 C415 1.371 . S
C415 H404 0.930 . S
C415 C411 1.389 . S
C415 C414 1.371 . S
C416 H405 0.970 . S
C416 H406 0.970 . S
C416 C412 1.532 . S
C416 C417 1.499 . S
C417 C416 1.499 . S
C417 C418 1.370 . S
C417 C422 1.415 . S
C418 H407 0.930 . S
C418 C417 1.370 . S
C418 C419 1.407 . S
C419 C418 1.407 . S
C419 C420 1.365 . S
C420 H408 0.930 . S
C420 C419 1.365 . S
C420 C421 1.393 . S
C421 C420 1.393 . S
C421 C422 1.387 . S
C422 H409 0.930 . S
C422 C417 1.415 . S
C422 C421 1.387 . S
H423 C431 0.930 . S
H424 C434 0.930 . S
H425 C436 0.930 . S
H426 C437 0.970 . S
H427 C437 0.970 . S
H428 C439 0.930 . S
H429 C441 0.930 . S
H430 C443 0.930 . S
C431 H423 0.930 . S
C431 C432 1.382 . S
C431 C433 1.426 . S
C432 C431 1.382 . S
C432 C436 1.389 1_455 S
C433 C431 1.426 . S
C433 C434 1.375 . S
C433 C437 1.532 . S
C434 H424 0.930 . S
C434 C433 1.375 . S
C434 C435 1.416 . S
C435 C434 1.416 . S
C435 C436 1.371 1_455 S
C436 H425 0.930 . S
C436 C432 1.389 1_655 S
C436 C435 1.371 1_655 S
C437 H426 0.970 . S
C437 H427 0.970 . S
C437 C433 1.532 . S
C437 C438 1.499 . S
C438 C437 1.499 . S
C438 C439 1.370 . S
C438 C443 1.415 . S
C439 H428 0.930 . S
C439 C438 1.370 . S
C439 C440 1.407 . S
C440 C439 1.407 . S
C440 C441 1.365 1_455 S
C441 H429 0.930 . S
C441 C440 1.365 1_655 S
C441 C442 1.393 1_655 S
C442 C441 1.393 1_455 S
C442 C443 1.387 . S
C443 H430 0.930 . S
C443 C438 1.415 . S
C443 C442 1.387 . S
H444 C452 0.930 . S
H445 C455 0.930 . S
H446 C457 0.930 . S
H447 C458 0.970 . S
H448 C458 0.970 . S
H449 C460 0.930 . S
H450 C462 0.930 . S
H451 C464 0.930 . S
C452 H444 0.930 . S
C452 C453 1.382 . S
C452 C454 1.426 . S
C453 C452 1.382 . S
C453 C457 1.389 . S
C454 C452 1.426 . S
C454 C455 1.375 . S
C454 C458 1.532 . S
C455 H445 0.930 . S
C455 C454 1.375 . S
C455 C456 1.416 . S
C456 C455 1.416 . S
C456 C457 1.371 . S
C457 H446 0.930 . S
C457 C453 1.389 . S
C457 C456 1.371 . S
C458 H447 0.970 . S
C458 H448 0.970 . S
C458 C454 1.532 . S
C458 C459 1.499 . S
C459 C458 1.499 . S
C459 C460 1.370 . S
C459 C464 1.415 . S
C460 H449 0.930 . S
C460 C459 1.370 . S
C460 C461 1.407 . S
C461 C460 1.407 . S
C461 C462 1.365 . S
C462 H450 0.930 . S
C462 C461 1.365 . S
C462 C463 1.393 . S
C463 C462 1.393 . S
C463 C464 1.387 . S
C464 H451 0.930 . S
C464 C459 1.415 . S
C464 C463 1.387 . S
H465 C473 0.930 . S
H466 C476 0.930 . S
H467 C478 0.930 . S
H468 C479 0.970 . S
H469 C479 0.970 . S
H470 C481 0.930 . S
H471 C483 0.930 . S
H472 C485 0.930 . S
C473 H465 0.930 . S
C473 C474 1.382 . S
C473 C475 1.426 . S
C474 C473 1.382 . S
C474 C478 1.389 1_565 S
C475 C473 1.426 . S
C475 C476 1.375 . S
C475 C479 1.532 . S
C476 H466 0.930 . S
C476 C475 1.375 . S
C476 C477 1.416 . S
C477 C476 1.416 . S
C477 C478 1.371 1_565 S
C478 H467 0.930 . S
C478 C474 1.389 1_545 S
C478 C477 1.371 1_545 S
C479 H468 0.970 . S
C479 H469 0.970 . S
C479 C475 1.532 . S
C479 C480 1.499 . S
C480 C479 1.499 . S
C480 C481 1.370 . S
C480 C485 1.415 . S
C481 H470 0.930 . S
C481 C480 1.370 . S
C481 C482 1.406 . S
C482 C481 1.406 . S
C482 C483 1.365 1_565 S
C483 H471 0.930 . S
C483 C482 1.365 1_545 S
C483 C484 1.393 1_545 S
C484 C483 1.393 1_565 S
C484 C485 1.387 . S
C485 H472 0.930 . S
C485 C480 1.415 . S
C485 C484 1.387 . S
H486 C494 0.930 . S
H487 C497 0.930 . S
H488 C499 0.930 . S
H489 C500 0.970 . S
H490 C500 0.970 . S
H491 C502 0.930 . S
H492 C504 0.930 . S
H493 C506 0.930 . S
C494 H486 0.930 . S
C494 C495 1.382 . S
C494 C496 1.426 . S
C495 C494 1.382 . S
C495 C499 1.389 1_565 S
C496 C494 1.426 . S
C496 C497 1.375 . S
C496 C500 1.532 . S
C497 H487 0.930 . S
C497 C496 1.375 . S
C497 C498 1.468 . S
C498 C497 1.468 . S
C498 C499 1.353 1_565 S
C499 H488 0.930 . S
C499 C495 1.389 1_545 S
C499 C498 1.353 1_545 S
C500 H489 0.970 . S
C500 H490 0.970 . S
C500 C496 1.532 . S
C500 C501 1.499 . S
C501 C500 1.499 . S
C501 C502 1.370 . S
C501 C506 1.415 . S
C502 H491 0.930 . S
C502 C501 1.370 . S
C502 C503 1.407 . S
C503 C502 1.407 . S
C503 C504 1.365 1_565 S
C504 H492 0.930 . S
C504 C503 1.365 1_545 S
C504 C505 1.393 1_545 S
C505 C504 1.393 1_565 S
C505 C506 1.387 . S
C506 H493 0.930 . S
C506 C501 1.415 . S
C506 C505 1.387 . S
H507 C515 0.930 . S
H508 C518 0.930 . S
H509 C520 0.930 . S
H510 C521 0.970 . S
H511 C521 0.970 . S
H512 C523 0.930 . S
H513 C525 0.930 . S
H514 C527 0.930 . S
C515 H507 0.930 . S
C515 C516 1.382 . S
C515 C517 1.426 . S
C516 C515 1.382 . S
C516 C520 1.389 1_455 S
C517 C515 1.426 . S
C517 C518 1.375 . S
C517 C521 1.532 . S
C518 H508 0.930 . S
C518 C517 1.375 . S
C518 C519 1.416 . S
C519 C518 1.416 . S
C519 C520 1.371 1_455 S
C520 H509 0.930 . S
C520 C516 1.389 1_655 S
C520 C519 1.371 1_655 S
C521 H510 0.970 . S
C521 H511 0.970 . S
C521 C517 1.532 . S
C521 C522 1.499 . S
C522 C521 1.499 . S
C522 C523 1.370 . S
C522 C527 1.415 . S
C523 H512 0.930 . S
C523 C522 1.370 . S
C523 C524 1.407 . S
C524 C523 1.407 . S
C524 C525 1.365 1_455 S
C525 H513 0.930 . S
C525 C524 1.365 1_655 S
C525 C526 1.393 1_655 S
C526 C525 1.393 1_455 S
C526 C527 1.387 . S
C527 H514 0.930 . S
C527 C522 1.415 . S
C527 C526 1.387 . S
H528 C536 0.930 . S
H529 C539 0.930 . S
H530 C541 0.930 . S
H531 C542 0.970 . S
H532 C542 0.970 . S
H533 C544 0.930 . S
H534 C546 0.930 . S
H535 C548 0.930 . S
C536 H528 0.930 . S
C536 C537 1.382 . S
C536 C538 1.426 . S
C537 C536 1.382 . S
C537 C541 1.389 . S
C538 C536 1.426 . S
C538 C539 1.375 . S
C538 C542 1.532 . S
C539 H529 0.930 . S
C539 C538 1.375 . S
C539 C540 1.416 . S
C540 C539 1.416 . S
C540 C541 1.371 . S
C541 H530 0.930 . S
C541 C537 1.389 . S
C541 C540 1.371 . S
C542 H531 0.970 . S
C542 H532 0.970 . S
C542 C538 1.532 . S
C542 C543 1.499 . S
C543 C542 1.499 . S
C543 C544 1.370 . S
C543 C548 1.415 . S
C544 H533 0.930 . S
C544 C543 1.370 . S
C544 C545 1.407 . S
C545 C544 1.407 . S
C545 C546 1.365 . S
C546 H534 0.930 . S
C546 C545 1.365 . S
C546 C547 1.393 . S
C547 C546 1.393 . S
C547 C548 1.387 . S
C548 H535 0.930 . S
C548 C543 1.415 . S
C548 C547 1.387 . S
H549 C557 0.930 . S
H550 C560 0.930 . S
H551 C562 0.930 . S
H552 C563 0.970 . S
H553 C563 0.970 . S
H554 C565 0.930 . S
H555 C567 0.930 . S
H556 C569 0.930 . S
C557 H549 0.930 . S
C557 C558 1.382 . S
C557 C559 1.426 . S
C558 C557 1.382 . S
C558 C562 1.389 . S
C559 C557 1.426 . S
C559 C560 1.375 . S
C559 C563 1.532 . S
C560 H550 0.930 . S
C560 C559 1.375 . S
C560 C561 1.416 . S
C561 C560 1.416 . S
C561 C562 1.371 . S
C562 H551 0.930 . S
C562 C558 1.389 . S
C562 C561 1.371 . S
C563 H552 0.970 . S
C563 H553 0.970 . S
C563 C559 1.532 . S
C563 C564 1.499 . S
C564 C563 1.499 . S
C564 C565 1.370 . S
C564 C569 1.415 . S
C565 H554 0.930 . S
C565 C564 1.370 . S
C565 C566 1.407 . S
C566 C565 1.407 . S
C566 C567 1.365 . S
C567 H555 0.930 . S
C567 C566 1.365 . S
C567 C568 1.393 . S
C568 C567 1.393 . S
C568 C569 1.387 . S
C569 H556 0.930 . S
C569 C564 1.415 . S
C569 C568 1.387 . S
H570 C578 0.930 . S
H571 C581 0.930 . S
H572 C583 0.930 . S
H573 C584 0.970 . S
H574 C584 0.970 . S
H575 C586 0.930 . S
H576 C588 0.930 . S
H577 C590 0.930 . S
C578 H570 0.930 . S
C578 C579 1.382 . S
C578 C580 1.426 . S
C579 C578 1.382 . S
C579 C583 1.389 . S
C580 C578 1.426 . S
C580 C581 1.375 . S
C580 C584 1.532 . S
C581 H571 0.930 . S
C581 C580 1.375 . S
C581 C582 1.416 . S
C582 C581 1.416 . S
C582 C583 1.371 . S
C583 H572 0.930 . S
C583 C579 1.389 . S
C583 C582 1.371 . S
C584 H573 0.970 . S
C584 H574 0.970 . S
C584 C580 1.532 . S
C584 C585 1.499 . S
C585 C584 1.499 . S
C585 C586 1.370 . S
C585 C590 1.415 . S
C586 H575 0.930 . S
C586 C585 1.370 . S
C586 C587 1.407 . S
C587 C586 1.407 . S
C587 C588 1.365 . S
C588 H576 0.930 . S
C588 C587 1.365 . S
C588 C589 1.393 . S
C589 C588 1.393 . S
C589 C590 1.387 . S
C590 H577 0.930 . S
C590 C585 1.415 . S
C590 C589 1.387 . S
H591 C599 0.930 . S
H592 C602 0.930 . S
H593 C604 0.930 . S
H594 C605 0.970 . S
H595 C605 0.970 . S
H596 C607 0.930 . S
H597 C609 0.930 . S
H598 C611 0.930 . S
C599 H591 0.930 . S
C599 C600 1.382 . S
C599 C601 1.426 . S
C600 C599 1.382 . S
C600 C604 1.389 . S
C601 C599 1.426 . S
C601 C602 1.375 . S
C601 C605 1.532 . S
C602 H592 0.930 . S
C602 C601 1.375 . S
C602 C603 1.416 . S
C603 C602 1.416 . S
C603 C604 1.371 . S
C604 H593 0.930 . S
C604 C600 1.389 . S
C604 C603 1.371 . S
C605 H594 0.970 . S
C605 H595 0.970 . S
C605 C601 1.532 . S
C605 C606 1.499 . S
C606 C605 1.499 . S
C606 C607 1.370 . S
C606 C611 1.415 . S
C607 H596 0.930 . S
C607 C606 1.370 . S
C607 C608 1.407 . S
C608 C607 1.407 . S
C608 C609 1.365 . S
C609 H597 0.930 . S
C609 C608 1.365 . S
C609 C610 1.393 . S
C610 C609 1.393 . S
C610 C611 1.387 . S
C611 H598 0.930 . S
C611 C606 1.415 . S
C611 C610 1.387 . S
H612 C624 0.930 . S
H613 C626 0.890 1_455 S
H614 C627 0.928 1_455 S
H615 C631 0.959 1_455 S
H616 C631 0.959 . S
H617 C631 0.961 . S
H618 C632 0.960 . S
H619 C632 0.961 . S
H620 C632 0.959 . S
H621 C635 0.929 . S
H622 C636 0.931 . S
H623 C638 0.930 . S
C624 H612 0.930 . S
C624 C625 1.399 . S
C624 C629 1.399 . S
C625 C624 1.399 . S
C625 C626 1.376 . S
C626 H613 0.890 1_655 S
C626 C625 1.376 . S
C626 C627 1.387 . S
C627 H614 0.928 1_655 S
C627 C626 1.387 . S
C627 C628 1.393 . S
C628 C627 1.393 . S
C628 C629 1.394 . S
C628 C634 1.465 . S
C629 C624 1.399 . S
C629 C628 1.394 . S
C629 C630 1.516 . S
C630 C629 1.516 . S
C630 C631 1.502 . S
C630 C632 1.561 . S
C630 C633 1.526 . S
C631 H615 0.959 1_655 S
C631 H616 0.959 . S
C631 H617 0.961 . S
C631 C630 1.502 . S
C632 H618 0.960 . S
C632 H619 0.961 . S
C632 H620 0.959 . S
C632 C630 1.561 . S
C633 C630 1.526 . S
C633 C634 1.396 . S
C633 C638 1.390 . S
C634 C628 1.465 . S
C634 C633 1.396 . S
C634 C635 1.399 1_655 S
C635 H621 0.929 . S
C635 C634 1.399 1_455 S
C635 C636 1.385 . S
C636 H622 0.931 . S
C636 C635 1.385 . S
C636 C637 1.389 1_455 S
C637 C636 1.389 1_655 S
C637 C638 1.387 . S
C638 H623 0.930 . S
C638 C633 1.390 . S
C638 C637 1.387 . S
H639 C651 0.930 . S
H640 C653 0.930 . S
H641 C654 0.930 . S
H642 C658 0.959 . S
H643 C658 0.959 . S
H644 C658 0.961 . S
H645 C659 0.960 . S
H646 C659 0.961 . S
H647 C659 0.959 . S
H648 C662 0.929 . S
H649 C663 0.931 . S
H650 C665 0.930 . S
C651 H639 0.930 . S
C651 C652 1.399 . S
C651 C656 1.399 . S
C652 C651 1.399 . S
C652 C653 1.376 . S
C653 H640 0.930 . S
C653 C652 1.376 . S
C653 C654 1.388 . S
C654 H641 0.930 . S
C654 C653 1.388 . S
C654 C655 1.390 . S
C655 C654 1.390 . S
C655 C656 1.394 . S
C655 C661 1.465 . S
C656 C651 1.399 . S
C656 C655 1.394 . S
C656 C657 1.516 . S
C657 C656 1.516 . S
C657 C658 1.502 . S
C657 C659 1.561 . S
C657 C660 1.526 . S
C658 H642 0.959 . S
C658 H643 0.959 . S
C658 H644 0.961 . S
C658 C657 1.502 . S
C659 H645 0.960 . S
C659 H646 0.961 . S
C659 H647 0.959 . S
C659 C657 1.561 . S
C660 C657 1.526 . S
C660 C661 1.396 . S
C660 C665 1.390 . S
C661 C655 1.465 . S
C661 C660 1.396 . S
C661 C662 1.399 . S
C662 H648 0.929 . S
C662 C661 1.399 . S
C662 C663 1.385 . S
C663 H649 0.931 . S
C663 C662 1.385 . S
C663 C664 1.389 . S
C664 C663 1.389 . S
C664 C665 1.387 . S
C665 H650 0.930 . S
C665 C660 1.390 . S
C665 C664 1.387 . S
H666 C678 0.921 1_565 S
H667 C680 0.930 . S
H668 C681 0.930 . S
H669 C685 0.959 1_545 S
H670 C685 0.959 . S
H671 C685 0.961 . S
H672 C686 0.960 . S
H673 C686 0.961 . S
H674 C686 0.959 . S
H675 C689 0.929 . S
H676 C690 0.931 . S
H677 C692 0.930 . S
C678 H666 0.921 1_545 S
C678 C679 1.438 . S
C678 C683 1.373 . S
C679 C678 1.438 . S
C679 C680 1.376 . S
C680 H667 0.930 . S
C680 C679 1.376 . S
C680 C681 1.388 . S
C681 H668 0.930 . S
C681 C680 1.388 . S
C681 C682 1.390 . S
C682 C681 1.390 . S
C682 C683 1.394 . S
C682 C688 1.465 . S
C683 C678 1.373 . S
C683 C682 1.394 . S
C683 C684 1.516 1_545 S
C684 C683 1.516 1_565 S
C684 C685 1.502 . S
C684 C686 1.561 . S
C684 C687 1.524 . S
C685 H669 0.959 1_565 S
C685 H670 0.959 . S
C685 H671 0.961 . S
C685 C684 1.502 . S
C686 H672 0.960 . S
C686 H673 0.961 . S
C686 H674 0.959 . S
C686 C684 1.561 . S
C687 C684 1.524 . S
C687 C688 1.384 1_565 S
C687 C692 1.402 . S
C688 C682 1.465 . S
C688 C687 1.384 1_545 S
C688 C689 1.399 . S
C689 H675 0.929 . S
C689 C688 1.399 . S
C689 C690 1.385 . S
C690 H676 0.931 . S
C690 C689 1.385 . S
C690 C691 1.389 . S
C691 C690 1.389 . S
C691 C692 1.387 1_545 S
C692 H677 0.930 . S
C692 C687 1.402 . S
C692 C691 1.387 1_565 S
H693 C705 0.930 . S
H694 C707 0.930 . S
H695 C708 0.930 . S
H696 C712 0.959 . S
H697 C712 0.959 . S
H698 C712 0.961 . S
H699 C713 0.960 . S
H700 C713 0.961 . S
H701 C713 0.959 . S
H702 C716 0.929 . S
H703 C717 0.931 . S
H704 C719 0.930 . S
C705 H693 0.930 . S
C705 C706 1.463 . S
C705 C710 1.399 . S
C706 C705 1.463 . S
C706 C707 1.327 1_565 S
C707 H694 0.930 . S
C707 C706 1.327 1_545 S
C707 C708 1.388 . S
C708 H695 0.930 . S
C708 C707 1.388 . S
C708 C709 1.390 . S
C709 C708 1.390 . S
C709 C710 1.394 1_545 S
C709 C715 1.465 . S
C710 C705 1.399 . S
C710 C709 1.394 1_565 S
C710 C711 1.516 . S
C711 C710 1.516 . S
C711 C712 1.502 . S
C711 C713 1.561 . S
C711 C714 1.526 . S
C712 H696 0.959 . S
C712 H697 0.959 . S
C712 H698 0.961 . S
C712 C711 1.502 . S
C713 H699 0.960 . S
C713 H700 0.961 . S
C713 H701 0.959 . S
C713 C711 1.561 . S
C714 C711 1.526 . S
C714 C715 1.396 1_565 S
C714 C719 1.390 . S
C715 C709 1.465 . S
C715 C714 1.396 1_545 S
C715 C716 1.399 . S
C716 H702 0.929 . S
C716 C715 1.399 . S
C716 C717 1.385 . S
C717 H703 0.931 . S
C717 C716 1.385 . S
C717 C718 1.389 1_545 S
C718 C717 1.389 1_565 S
C718 C719 1.387 . S
C719 H704 0.930 . S
C719 C714 1.390 . S
C719 C718 1.387 . S
H720 C732 0.930 . S
H721 C734 0.930 . S
H722 C735 0.930 . S
H723 C739 0.959 . S
H724 C739 0.959 . S
H725 C739 0.961 . S
H726 C740 0.960 . S
H727 C740 0.961 . S
H728 C740 0.959 . S
H729 C743 0.929 . S
H730 C744 0.931 . S
H731 C746 0.930 . S
C732 H720 0.930 . S
C732 C733 1.399 1_655 S
C732 C737 1.399 . S
C733 C732 1.399 1_455 S
C733 C734 1.376 . S
C734 H721 0.930 . S
C734 C733 1.376 . S
C734 C735 1.388 . S
C735 H722 0.930 . S
C735 C734 1.388 . S
C735 C736 1.390 . S
C736 C735 1.390 . S
C736 C737 1.394 1_455 S
C736 C742 1.465 . S
C737 C732 1.399 . S
C737 C736 1.394 1_655 S
C737 C738 1.516 . S
C738 C737 1.516 . S
C738 C739 1.502 . S
C738 C740 1.561 . S
C738 C741 1.526 . S
C739 H723 0.959 . S
C739 H724 0.959 . S
C739 H725 0.961 . S
C739 C738 1.502 . S
C740 H726 0.960 . S
C740 H727 0.961 . S
C740 H728 0.959 . S
C740 C738 1.561 . S
C741 C738 1.526 . S
C741 C742 1.396 1_655 S
C741 C746 1.390 . S
C742 C736 1.465 . S
C742 C741 1.396 1_455 S
C742 C743 1.399 . S
C743 H729 0.929 . S
C743 C742 1.399 . S
C743 C744 1.385 . S
C744 H730 0.931 . S
C744 C743 1.385 . S
C744 C745 1.389 . S
C745 C744 1.389 . S
C745 C746 1.387 1_455 S
C746 H731 0.930 . S
C746 C741 1.390 . S
C746 C745 1.387 1_655 S
H747 C759 0.930 . S
H748 C761 0.930 . S
H749 C762 0.930 . S
H750 C766 0.959 . S
H751 C766 0.959 . S
H752 C766 0.961 . S
H753 C767 0.960 . S
H754 C767 0.961 . S
H755 C767 0.959 . S
H756 C770 0.929 . S
H757 C771 0.931 . S
H758 C773 0.930 . S
C759 H747 0.930 . S
C759 C760 1.399 . S
C759 C764 1.399 . S
C760 C759 1.399 . S
C760 C761 1.376 . S
C761 H748 0.930 . S
C761 C760 1.376 . S
C761 C762 1.388 . S
C762 H749 0.930 . S
C762 C761 1.388 . S
C762 C763 1.390 . S
C763 C762 1.390 . S
C763 C764 1.394 . S
C763 C769 1.465 . S
C764 C759 1.399 . S
C764 C763 1.394 . S
C764 C765 1.516 . S
C765 C764 1.516 . S
C765 C766 1.502 . S
C765 C767 1.561 . S
C765 C768 1.526 . S
C766 H750 0.959 . S
C766 H751 0.959 . S
C766 H752 0.961 . S
C766 C765 1.502 . S
C767 H753 0.960 . S
C767 H754 0.961 . S
C767 H755 0.959 . S
C767 C765 1.561 . S
C768 C765 1.526 . S
C768 C769 1.396 . S
C768 C773 1.390 . S
C769 C763 1.465 . S
C769 C768 1.396 . S
C769 C770 1.399 . S
C770 H756 0.929 . S
C770 C769 1.399 . S
C770 C771 1.385 . S
C771 H757 0.931 . S
C771 C770 1.385 . S
C771 C772 1.389 . S
C772 C771 1.389 . S
C772 C773 1.387 . S
C773 H758 0.930 . S
C773 C768 1.390 . S
C773 C772 1.387 . S
H774 C786 0.930 . S
H775 C788 0.930 . S
H776 C789 0.930 . S
H777 C793 0.959 . S
H778 C793 0.959 . S
H779 C793 0.961 . S
H780 C794 0.960 . S
H781 C794 0.961 . S
H782 C794 0.959 . S
H783 C797 0.929 . S
H784 C798 0.931 . S
H785 C800 0.930 . S
C786 H774 0.930 . S
C786 C787 1.399 1_655 S
C786 C791 1.399 . S
C787 C786 1.399 1_455 S
C787 C788 1.376 . S
C788 H775 0.930 . S
C788 C787 1.376 . S
C788 C789 1.388 . S
C789 H776 0.930 . S
C789 C788 1.388 . S
C789 C790 1.390 . S
C790 C789 1.390 . S
C790 C791 1.394 1_455 S
C790 C796 1.465 . S
C791 C786 1.399 . S
C791 C790 1.394 1_655 S
C791 C792 1.516 . S
C792 C791 1.516 . S
C792 C793 1.502 . S
C792 C794 1.561 . S
C792 C795 1.526 . S
C793 H777 0.959 . S
C793 H778 0.959 . S
C793 H779 0.961 . S
C793 C792 1.502 . S
C794 H780 0.960 . S
C794 H781 0.961 . S
C794 H782 0.959 . S
C794 C792 1.561 . S
C795 C792 1.526 . S
C795 C796 1.396 1_655 S
C795 C800 1.390 . S
C796 C790 1.465 . S
C796 C795 1.396 1_455 S
C796 C797 1.399 . S
C797 H783 0.929 . S
C797 C796 1.399 . S
C797 C798 1.385 . S
C798 H784 0.931 . S
C798 C797 1.385 . S
C798 C799 1.389 . S
C799 C798 1.389 . S
C799 C800 1.387 1_455 S
C800 H785 0.930 . S
C800 C795 1.390 . S
C800 C799 1.387 1_655 S
H801 C813 0.930 . S
H802 C815 0.930 . S
H803 C816 0.930 . S
H804 C820 0.959 . S
H805 C820 0.959 . S
H806 C820 0.961 . S
H807 C821 0.960 . S
H808 C821 0.961 . S
H809 C821 0.959 . S
H810 C824 0.929 . S
H811 C825 0.931 . S
H812 C827 0.930 . S
C813 H801 0.930 . S
C813 C814 1.399 . S
C813 C818 1.399 . S
C814 C813 1.399 . S
C814 C815 1.376 . S
C815 H802 0.930 . S
C815 C814 1.376 . S
C815 C816 1.388 . S
C816 H803 0.930 . S
C816 C815 1.388 . S
C816 C817 1.390 . S
C817 C816 1.390 . S
C817 C818 1.394 . S
C817 C823 1.465 . S
C818 C813 1.399 . S
C818 C817 1.394 . S
C818 C819 1.516 . S
C819 C818 1.516 . S
C819 C820 1.502 . S
C819 C821 1.561 . S
C819 C822 1.526 . S
C820 H804 0.959 . S
C820 H805 0.959 . S
C820 H806 0.961 . S
C820 C819 1.502 . S
C821 H807 0.960 . S
C821 H808 0.961 . S
C821 H809 0.959 . S
C821 C819 1.561 . S
C822 C819 1.526 . S
C822 C823 1.396 . S
C822 C827 1.390 . S
C823 C817 1.465 . S
C823 C822 1.396 . S
C823 C824 1.399 . S
C824 H810 0.929 . S
C824 C823 1.399 . S
C824 C825 1.385 . S
C825 H811 0.931 . S
C825 C824 1.385 . S
C825 C826 1.389 . S
C826 C825 1.389 . S
C826 C827 1.387 . S
C827 H812 0.930 . S
C827 C822 1.390 . S
C827 C826 1.387 . S
H828 C840 0.930 . S
H829 C842 0.930 . S
H830 C843 0.930 . S
H831 C847 0.959 . S
H832 C847 0.959 . S
H833 C847 0.961 . S
H834 C848 0.960 . S
H835 C848 0.961 . S
H836 C848 0.959 . S
H837 C851 0.929 . S
H838 C852 0.931 . S
H839 C854 0.930 . S
C840 H828 0.930 . S
C840 C841 1.399 . S
C840 C845 1.399 . S
C841 C840 1.399 . S
C841 C842 1.376 1_565 S
C842 H829 0.930 . S
C842 C841 1.376 1_545 S
C842 C843 1.388 . S
C843 H830 0.930 . S
C843 C842 1.388 . S
C843 C844 1.390 . S
C844 C843 1.390 . S
C844 C845 1.394 1_545 S
C844 C850 1.465 . S
C845 C840 1.399 . S
C845 C844 1.394 1_565 S
C845 C846 1.516 . S
C846 C845 1.516 . S
C846 C847 1.502 . S
C846 C848 1.561 . S
C846 C849 1.526 . S
C847 H831 0.959 . S
C847 H832 0.959 . S
C847 H833 0.961 . S
C847 C846 1.502 . S
C848 H834 0.960 . S
C848 H835 0.961 . S
C848 H836 0.959 . S
C848 C846 1.561 . S
C849 C846 1.526 . S
C849 C850 1.396 1_565 S
C849 C854 1.390 . S
C850 C844 1.465 . S
C850 C849 1.396 1_545 S
C850 C851 1.399 . S
C851 H837 0.929 . S
C851 C850 1.399 . S
C851 C852 1.385 . S
C852 H838 0.931 . S
C852 C851 1.385 . S
C852 C853 1.406 . S
C853 C852 1.406 . S
C853 C854 1.359 1_545 S
C854 H839 0.930 . S
C854 C849 1.390 . S
C854 C853 1.359 1_565 S
H855 C867 0.930 . S
H856 C869 0.930 . S
H857 C870 0.930 . S
H858 C874 0.959 . S
H859 C874 0.959 . S
H860 C874 0.961 . S
H861 C875 0.960 . S
H862 C875 0.961 . S
H863 C875 0.959 . S
H864 C878 0.929 . S
H865 C879 0.931 . S
H866 C881 0.930 . S
C867 H855 0.930 . S
C867 C868 1.399 . S
C867 C872 1.399 . S
C868 C867 1.399 . S
C868 C869 1.376 1_545 S
C869 H856 0.930 . S
C869 C868 1.376 1_565 S
C869 C870 1.388 . S
C870 H857 0.930 . S
C870 C869 1.388 . S
C870 C871 1.427 . S
C871 C870 1.427 . S
C871 C872 1.376 1_565 S
C871 C877 1.446 . S
C872 C867 1.399 . S
C872 C871 1.376 1_545 S
C872 C873 1.516 . S
C873 C872 1.516 . S
C873 C874 1.502 . S
C873 C875 1.561 . S
C873 C876 1.526 . S
C874 H858 0.959 . S
C874 H859 0.959 . S
C874 H860 0.961 . S
C874 C873 1.502 . S
C875 H861 0.960 . S
C875 H862 0.961 . S
C875 H863 0.959 . S
C875 C873 1.561 . S
C876 C873 1.526 . S
C876 C877 1.396 1_545 S
C876 C881 1.390 . S
C877 C871 1.446 . S
C877 C876 1.396 1_565 S
C877 C878 1.399 . S
C878 H864 0.929 . S
C878 C877 1.399 . S
C878 C879 1.385 . S
C879 H865 0.931 . S
C879 C878 1.385 . S
C879 C880 1.388 . S
C880 C879 1.388 . S
C880 C881 1.387 1_565 S
C881 H866 0.930 . S
C881 C876 1.390 . S
C881 C880 1.387 1_545 S
H882 C894 0.930 . S
H883 C896 0.930 . S
H884 C897 0.930 . S
H885 C901 0.959 . S
H886 C901 0.959 . S
H887 C901 0.961 . S
H888 C902 0.960 . S
H889 C902 0.961 . S
H890 C902 0.959 . S
H891 C905 0.929 . S
H892 C906 0.931 . S
H893 C908 0.930 . S
C894 H882 0.930 . S
C894 C895 1.399 1_455 S
C894 C899 1.399 . S
C895 C894 1.399 1_655 S
C895 C896 1.376 . S
C896 H883 0.930 . S
C896 C895 1.376 . S
C896 C897 1.388 . S
C897 H884 0.930 . S
C897 C896 1.388 . S
C897 C898 1.390 . S
C898 C897 1.390 . S
C898 C899 1.394 1_655 S
C898 C904 1.465 . S
C899 C894 1.399 . S
C899 C898 1.394 1_455 S
C899 C900 1.516 . S
C900 C899 1.516 . S
C900 C901 1.502 . S
C900 C902 1.561 . S
C900 C903 1.526 . S
C901 H885 0.959 . S
C901 H886 0.959 . S
C901 H887 0.961 . S
C901 C900 1.502 . S
C902 H888 0.960 . S
C902 H889 0.961 . S
C902 H890 0.959 . S
C902 C900 1.561 . S
C903 C900 1.526 . S
C903 C904 1.396 1_455 S
C903 C908 1.390 . S
C904 C898 1.465 . S
C904 C903 1.396 1_655 S
C904 C905 1.399 . S
C905 H891 0.929 . S
C905 C904 1.399 . S
C905 C906 1.385 . S
C906 H892 0.931 . S
C906 C905 1.385 . S
C906 C907 1.389 . S
C907 C906 1.389 . S
C907 C908 1.387 1_655 S
C908 H893 0.930 . S
C908 C903 1.390 . S
C908 C907 1.387 1_455 S
H909 C921 0.930 . S
H910 C923 0.930 . S
H911 C924 0.930 . S
H912 C928 0.959 . S
H913 C928 0.959 . S
H914 C928 0.961 . S
H915 C929 0.960 . S
H916 C929 0.961 . S
H917 C929 0.959 . S
H918 C932 0.929 . S
H919 C933 0.931 . S
H920 C935 0.930 . S
C921 H909 0.930 . S
C921 C922 1.399 . S
C921 C926 1.399 . S
C922 C921 1.399 . S
C922 C923 1.376 . S
C923 H910 0.930 . S
C923 C922 1.376 . S
C923 C924 1.388 . S
C924 H911 0.930 . S
C924 C923 1.388 . S
C924 C925 1.390 . S
C925 C924 1.390 . S
C925 C926 1.394 . S
C925 C931 1.465 . S
C926 C921 1.399 . S
C926 C925 1.394 . S
C926 C927 1.516 . S
C927 C926 1.516 . S
C927 C928 1.502 . S
C927 C929 1.561 . S
C927 C930 1.526 . S
C928 H912 0.959 . S
C928 H913 0.959 . S
C928 H914 0.961 . S
C928 C927 1.502 . S
C929 H915 0.960 . S
C929 H916 0.961 . S
C929 H917 0.959 . S
C929 C927 1.561 . S
C930 C927 1.526 . S
C930 C931 1.396 . S
C930 C935 1.390 . S
C931 C925 1.465 . S
C931 C930 1.396 . S
C931 C932 1.399 . S
C932 H918 0.929 . S
C932 C931 1.399 . S
C932 C933 1.385 . S
C933 H919 0.931 . S
C933 C932 1.385 . S
C933 C934 1.389 . S
C934 C933 1.389 . S
C934 C935 1.387 . S
C935 H920 0.930 . S
C935 C930 1.390 . S
C935 C934 1.387 . S
H936 C948 0.930 . S
H937 C950 0.930 . S
H938 C951 0.930 . S
H939 C955 0.959 . S
H940 C955 0.959 . S
H941 C955 0.961 . S
H942 C956 0.960 . S
H943 C956 0.961 . S
H944 C956 0.959 . S
H945 C959 0.929 . S
H946 C960 0.931 . S
H947 C962 0.930 . S
C948 H936 0.930 . S
C948 C949 1.399 . S
C948 C953 1.399 . S
C949 C948 1.399 . S
C949 C950 1.376 . S
C950 H937 0.930 . S
C950 C949 1.376 . S
C950 C951 1.388 . S
C951 H938 0.930 . S
C951 C950 1.388 . S
C951 C952 1.390 . S
C952 C951 1.390 . S
C952 C953 1.394 . S
C952 C958 1.465 . S
C953 C948 1.399 . S
C953 C952 1.394 . S
C953 C954 1.516 . S
C954 C953 1.516 . S
C954 C955 1.502 . S
C954 C956 1.561 . S
C954 C957 1.526 . S
C955 H939 0.959 . S
C955 H940 0.959 . S
C955 H941 0.961 . S
C955 C954 1.502 . S
C956 H942 0.960 . S
C956 H943 0.961 . S
C956 H944 0.959 . S
C956 C954 1.561 . S
C957 C954 1.526 . S
C957 C958 1.396 . S
C957 C962 1.390 . S
C958 C952 1.465 . S
C958 C957 1.396 . S
C958 C959 1.399 . S
C959 H945 0.929 . S
C959 C958 1.399 . S
C959 C960 1.385 . S
C960 H946 0.931 . S
C960 C959 1.385 . S
C960 C961 1.389 . S
C961 C960 1.389 . S
C961 C962 1.387 . S
C962 H947 0.930 . S
C962 C957 1.390 . S
C962 C961 1.387 . S
H963 C975 0.930 . S
H964 C977 0.930 . S
H965 C978 0.930 . S
H966 C982 0.959 . S
H967 C982 0.959 . S
H968 C982 0.961 . S
H969 C983 0.960 . S
H970 C983 0.961 . S
H971 C983 0.959 . S
H972 C986 0.929 . S
H973 C987 0.931 . S
H974 C989 0.930 . S
C975 H963 0.930 . S
C975 C976 1.399 . S
C975 C980 1.399 . S
C976 C975 1.399 . S
C976 C977 1.376 . S
C977 H964 0.930 . S
C977 C976 1.376 . S
C977 C978 1.388 . S
C978 H965 0.930 . S
C978 C977 1.388 . S
C978 C979 1.390 . S
C979 C978 1.390 . S
C979 C980 1.394 . S
C979 C985 1.465 . S
C980 C975 1.399 . S
C980 C979 1.394 . S
C980 C981 1.516 . S
C981 C980 1.516 . S
C981 C982 1.502 . S
C981 C983 1.561 . S
C981 C984 1.526 . S
C982 H966 0.959 . S
C982 H967 0.959 . S
C982 H968 0.961 . S
C982 C981 1.502 . S
C983 H969 0.960 . S
C983 H970 0.961 . S
C983 H971 0.959 . S
C983 C981 1.561 . S
C984 C981 1.526 . S
C984 C985 1.396 . S
C984 C989 1.390 . S
C985 C979 1.465 . S
C985 C984 1.396 . S
C985 C986 1.399 . S
C986 H972 0.929 . S
C986 C985 1.399 . S
C986 C987 1.385 . S
C987 H973 0.931 . S
C987 C986 1.385 . S
C987 C988 1.389 . S
C988 C987 1.389 . S
C988 C989 1.387 . S
C989 H974 0.930 . S
C989 C984 1.390 . S
C989 C988 1.387 . S
H990 C1002 0.930 . S
H991 C1004 0.930 . S
H992 C1005 0.930 . S
H993 C1009 0.959 . S
H994 C1009 0.959 . S
H995 C1009 0.961 . S
H996 C1010 0.960 . S
H997 C1010 0.961 . S
H998 C1010 0.959 . S
H999 C1013 0.929 . S
H1000 C1014 0.931 . S
H1001 C1016 0.930 . S
C1002 H990 0.930 . S
C1002 C1003 1.399 . S
C1002 C1007 1.399 . S
C1003 C1002 1.399 . S
C1003 C1004 1.376 . S
C1004 H991 0.930 . S
C1004 C1003 1.376 . S
C1004 C1005 1.388 . S
C1005 H992 0.930 . S
C1005 C1004 1.388 . S
C1005 C1006 1.390 . S
C1006 C1005 1.390 . S
C1006 C1007 1.394 . S
C1006 C1012 1.465 . S
C1007 C1002 1.399 . S
C1007 C1006 1.394 . S
C1007 C1008 1.516 . S
C1008 C1007 1.516 . S
C1008 C1009 1.502 . S
C1008 C1010 1.561 . S
C1008 C1011 1.526 . S
C1009 H993 0.959 . S
C1009 H994 0.959 . S
C1009 H995 0.961 . S
C1009 C1008 1.502 . S
C1010 H996 0.960 . S
C1010 H997 0.961 . S
C1010 H998 0.959 . S
C1010 C1008 1.561 . S
C1011 C1008 1.526 . S
C1011 C1012 1.396 . S
C1011 C1016 1.390 . S
C1012 C1006 1.465 . S
C1012 C1011 1.396 . S
C1012 C1013 1.399 . S
C1013 H999 0.929 . S
C1013 C1012 1.399 . S
C1013 C1014 1.385 . S
C1014 H1000 0.931 . S
C1014 C1013 1.385 . S
C1014 C1015 1.389 . S
C1015 C1014 1.389 . S
C1015 C1016 1.387 . S
C1016 H1001 0.930 . S
C1016 C1011 1.390 . S
C1016 C1015 1.387 . S
H1017 C1029 0.930 . S
H1018 C1031 0.930 . S
H1019 C1032 0.930 . S
H1020 C1036 0.959 . S
H1021 C1036 0.959 . S
H1022 C1036 0.961 . S
H1023 C1037 0.960 . S
H1024 C1037 0.961 . S
H1025 C1037 0.959 . S
H1026 C1040 0.929 . S
H1027 C1041 0.931 . S
H1028 C1043 0.930 . S
C1029 H1017 0.930 . S
C1029 C1030 1.399 . S
C1029 C1034 1.399 . S
C1030 C1029 1.399 . S
C1030 C1031 1.376 . S
C1031 H1018 0.930 . S
C1031 C1030 1.376 . S
C1031 C1032 1.388 . S
C1032 H1019 0.930 . S
C1032 C1031 1.388 . S
C1032 C1033 1.390 . S
C1033 C1032 1.390 . S
C1033 C1034 1.394 . S
C1033 C1039 1.465 . S
C1034 C1029 1.399 . S
C1034 C1033 1.394 . S
C1034 C1035 1.516 . S
C1035 C1034 1.516 . S
C1035 C1036 1.502 . S
C1035 C1037 1.561 . S
C1035 C1038 1.526 . S
C1036 H1020 0.959 . S
C1036 H1021 0.959 . S
C1036 H1022 0.961 . S
C1036 C1035 1.502 . S
C1037 H1023 0.960 . S
C1037 H1024 0.961 . S
C1037 H1025 0.959 . S
C1037 C1035 1.561 . S
C1038 C1035 1.526 . S
C1038 C1039 1.396 . S
C1038 C1043 1.390 . S
C1039 C1033 1.465 . S
C1039 C1038 1.396 . S
C1039 C1040 1.399 . S
C1040 H1026 0.929 . S
C1040 C1039 1.399 . S
C1040 C1041 1.385 . S
C1041 H1027 0.931 . S
C1041 C1040 1.385 . S
C1041 C1042 1.389 . S
C1042 C1041 1.389 . S
C1042 C1043 1.387 . S
C1043 H1028 0.930 . S
C1043 C1038 1.390 . S
C1043 C1042 1.387 . S
H1044 C1056 0.930 . S
H1045 C1058 0.930 . S
H1046 C1059 0.930 . S
H1047 C1063 0.959 . S
H1048 C1063 0.959 . S
H1049 C1063 0.961 . S
H1050 C1064 0.960 . S
H1051 C1064 0.961 . S
H1052 C1064 0.959 . S
H1053 C1067 0.929 . S
H1054 C1068 0.931 . S
H1055 C1070 0.930 . S
C1056 H1044 0.930 . S
C1056 C1057 1.399 . S
C1056 C1061 1.399 . S
C1057 C1056 1.399 . S
C1057 C1058 1.376 . S
C1058 H1045 0.930 . S
C1058 C1057 1.376 . S
C1058 C1059 1.388 . S
C1059 H1046 0.930 . S
C1059 C1058 1.388 . S
C1059 C1060 1.390 . S
C1060 C1059 1.390 . S
C1060 C1061 1.394 . S
C1060 C1066 1.465 . S
C1061 C1056 1.399 . S
C1061 C1060 1.394 . S
C1061 C1062 1.516 . S
C1062 C1061 1.516 . S
C1062 C1063 1.502 . S
C1062 C1064 1.561 . S
C1062 C1065 1.526 . S
C1063 H1047 0.959 . S
C1063 H1048 0.959 . S
C1063 H1049 0.961 . S
C1063 C1062 1.502 . S
C1064 H1050 0.960 . S
C1064 H1051 0.961 . S
C1064 H1052 0.959 . S
C1064 C1062 1.561 . S
C1065 C1062 1.526 . S
C1065 C1066 1.396 . S
C1065 C1070 1.390 . S
C1066 C1060 1.465 . S
C1066 C1065 1.396 . S
C1066 C1067 1.399 . S
C1067 H1053 0.929 . S
C1067 C1066 1.399 . S
C1067 C1068 1.385 . S
C1068 H1054 0.931 . S
C1068 C1067 1.385 . S
C1068 C1069 1.389 . S
C1069 C1068 1.389 . S
C1069 C1070 1.387 . S
C1070 H1055 0.930 . S
C1070 C1065 1.390 . S
C1070 C1069 1.387 . S
H1071 C1083 0.930 . S
H1072 C1085 0.930 . S
H1073 C1086 0.930 . S
H1074 C1090 0.959 . S
H1075 C1090 0.959 . S
H1076 C1090 0.961 . S
H1077 C1091 0.960 . S
H1078 C1091 0.961 . S
H1079 C1091 0.959 . S
H1080 C1094 0.929 . S
H1081 C1095 0.931 . S
H1082 C1097 0.930 . S
C1083 H1071 0.930 . S
C1083 C1084 1.399 . S
C1083 C1088 1.399 . S
C1084 C1083 1.399 . S
C1084 C1085 1.376 . S
C1085 H1072 0.930 . S
C1085 C1084 1.376 . S
C1085 C1086 1.388 . S
C1086 H1073 0.930 . S
C1086 C1085 1.388 . S
C1086 C1087 1.390 . S
C1087 C1086 1.390 . S
C1087 C1088 1.394 . S
C1087 C1093 1.465 . S
C1088 C1083 1.399 . S
C1088 C1087 1.394 . S
C1088 C1089 1.516 . S
C1089 C1088 1.516 . S
C1089 C1090 1.502 . S
C1089 C1091 1.561 . S
C1089 C1092 1.526 . S
C1090 H1074 0.959 . S
C1090 H1075 0.959 . S
C1090 H1076 0.961 . S
C1090 C1089 1.502 . S
C1091 H1077 0.960 . S
C1091 H1078 0.961 . S
C1091 H1079 0.959 . S
C1091 C1089 1.561 . S
C1092 C1089 1.526 . S
C1092 C1093 1.396 . S
C1092 C1097 1.390 . S
C1093 C1087 1.465 . S
C1093 C1092 1.396 . S
C1093 C1094 1.399 . S
C1094 H1080 0.929 . S
C1094 C1093 1.399 . S
C1094 C1095 1.385 . S
C1095 H1081 0.931 . S
C1095 C1094 1.385 . S
C1095 C1096 1.389 . S
C1096 C1095 1.389 . S
C1096 C1097 1.387 . S
C1097 H1082 0.930 . S
C1097 C1092 1.390 . S
C1097 C1096 1.387 . S
H1098 C1110 0.930 . S
H1099 C1112 0.930 . S
H1100 C1113 0.930 . S
H1101 C1117 0.959 . S
H1102 C1117 0.959 . S
H1103 C1117 0.961 . S
H1104 C1118 0.960 . S
H1105 C1118 0.961 . S
H1106 C1118 0.959 . S
H1107 C1121 0.929 . S
H1108 C1122 0.931 . S
H1109 C1124 0.930 . S
C1110 H1098 0.930 . S
C1110 C1111 1.399 . S
C1110 C1115 1.399 . S
C1111 C1110 1.399 . S
C1111 C1112 1.376 . S
C1112 H1099 0.930 . S
C1112 C1111 1.376 . S
C1112 C1113 1.388 . S
C1113 H1100 0.930 . S
C1113 C1112 1.388 . S
C1113 C1114 1.390 . S
C1114 C1113 1.390 . S
C1114 C1115 1.394 . S
C1114 C1120 1.465 . S
C1115 C1110 1.399 . S
C1115 C1114 1.394 . S
C1115 C1116 1.516 . S
C1116 C1115 1.516 . S
C1116 C1117 1.502 . S
C1116 C1118 1.561 . S
C1116 C1119 1.526 . S
C1117 H1101 0.959 . S
C1117 H1102 0.959 . S
C1117 H1103 0.961 . S
C1117 C1116 1.502 . S
C1118 H1104 0.960 . S
C1118 H1105 0.961 . S
C1118 H1106 0.959 . S
C1118 C1116 1.561 . S
C1119 C1116 1.526 . S
C1119 C1120 1.396 . S
C1119 C1124 1.390 . S
C1120 C1114 1.465 . S
C1120 C1119 1.396 . S
C1120 C1121 1.399 . S
C1121 H1107 0.929 . S
C1121 C1120 1.399 . S
C1121 C1122 1.385 . S
C1122 H1108 0.931 . S
C1122 C1121 1.385 . S
C1122 C1123 1.389 . S
C1123 C1122 1.389 . S
C1123 C1124 1.387 . S
C1124 H1109 0.930 . S
C1124 C1119 1.390 . S
C1124 C1123 1.387 . S
H1125 C1137 0.930 . S
H1126 C1139 0.930 . S
H1127 C1140 0.930 . S
H1128 C1144 0.959 . S
H1129 C1144 0.959 . S
H1130 C1144 0.961 . S
H1131 C1145 0.960 . S
H1132 C1145 0.961 . S
H1133 C1145 0.959 . S
H1134 C1148 0.929 . S
H1135 C1149 0.931 . S
H1136 C1151 0.930 . S
C1137 H1125 0.930 . S
C1137 C1138 1.399 . S
C1137 C1142 1.399 . S
C1138 C1137 1.399 . S
C1138 C1139 1.376 . S
C1139 H1126 0.930 . S
C1139 C1138 1.376 . S
C1139 C1140 1.388 . S
C1140 H1127 0.930 . S
C1140 C1139 1.388 . S
C1140 C1141 1.390 . S
C1141 C1140 1.390 . S
C1141 C1142 1.394 . S
C1141 C1147 1.465 . S
C1142 C1137 1.399 . S
C1142 C1141 1.394 . S
C1142 C1143 1.516 . S
C1143 C1142 1.516 . S
C1143 C1144 1.502 . S
C1143 C1145 1.561 . S
C1143 C1146 1.526 . S
C1144 H1128 0.959 . S
C1144 H1129 0.959 . S
C1144 H1130 0.961 . S
C1144 C1143 1.502 . S
C1145 H1131 0.960 . S
C1145 H1132 0.961 . S
C1145 H1133 0.959 . S
C1145 C1143 1.561 . S
C1146 C1143 1.526 . S
C1146 C1147 1.396 . S
C1146 C1151 1.390 . S
C1147 C1141 1.465 . S
C1147 C1146 1.396 . S
C1147 C1148 1.399 . S
C1148 H1134 0.929 . S
C1148 C1147 1.399 . S
C1148 C1149 1.385 . S
C1149 H1135 0.931 . S
C1149 C1148 1.385 . S
C1149 C1150 1.389 . S
C1150 C1149 1.389 . S
C1150 C1151 1.387 . S
C1151 H1136 0.930 . S
C1151 C1146 1.390 . S
C1151 C1150 1.387 . S
H1152 C1164 0.930 . S
H1153 C1166 0.930 . S
H1154 C1167 0.930 . S
H1155 C1171 0.959 . S
H1156 C1171 0.959 . S
H1157 C1171 0.961 . S
H1158 C1172 0.960 . S
H1159 C1172 0.961 . S
H1160 C1172 0.959 . S
H1161 C1175 0.929 . S
H1162 C1176 0.931 . S
H1163 C1178 0.930 . S
C1164 H1152 0.930 . S
C1164 C1165 1.399 . S
C1164 C1169 1.399 . S
C1165 C1164 1.399 . S
C1165 C1166 1.376 . S
C1166 H1153 0.930 . S
C1166 C1165 1.376 . S
C1166 C1167 1.388 . S
C1167 H1154 0.930 . S
C1167 C1166 1.388 . S
C1167 C1168 1.390 . S
C1168 C1167 1.390 . S
C1168 C1169 1.394 . S
C1168 C1174 1.465 . S
C1169 C1164 1.399 . S
C1169 C1168 1.394 . S
C1169 C1170 1.516 . S
C1170 C1169 1.516 . S
C1170 C1171 1.502 . S
C1170 C1172 1.561 . S
C1170 C1173 1.526 . S
C1171 H1155 0.959 . S
C1171 H1156 0.959 . S
C1171 H1157 0.961 . S
C1171 C1170 1.502 . S
C1172 H1158 0.960 . S
C1172 H1159 0.961 . S
C1172 H1160 0.959 . S
C1172 C1170 1.561 . S
C1173 C1170 1.526 . S
C1173 C1174 1.396 . S
C1173 C1178 1.390 . S
C1174 C1168 1.465 . S
C1174 C1173 1.396 . S
C1174 C1175 1.399 . S
C1175 H1161 0.929 . S
C1175 C1174 1.399 . S
C1175 C1176 1.385 . S
C1176 H1162 0.931 . S
C1176 C1175 1.385 . S
C1176 C1177 1.389 . S
C1177 C1176 1.389 . S
C1177 C1178 1.387 . S
C1178 H1163 0.930 . S
C1178 C1173 1.390 . S
C1178 C1177 1.387 . S
H1179 C1191 0.930 . S
H1180 C1193 0.930 . S
H1181 C1194 0.930 . S
H1182 C1198 0.959 . S
H1183 C1198 0.959 . S
H1184 C1198 0.961 . S
H1185 C1199 0.960 . S
H1186 C1199 0.961 . S
H1187 C1199 0.959 . S
H1188 C1202 0.929 . S
H1189 C1203 0.931 . S
H1190 C1205 0.930 . S
C1191 H1179 0.930 . S
C1191 C1192 1.399 . S
C1191 C1196 1.399 . S
C1192 C1191 1.399 . S
C1192 C1193 1.376 . S
C1193 H1180 0.930 . S
C1193 C1192 1.376 . S
C1193 C1194 1.388 . S
C1194 H1181 0.930 . S
C1194 C1193 1.388 . S
C1194 C1195 1.390 . S
C1195 C1194 1.390 . S
C1195 C1196 1.394 . S
C1195 C1201 1.465 . S
C1196 C1191 1.399 . S
C1196 C1195 1.394 . S
C1196 C1197 1.516 . S
C1197 C1196 1.516 . S
C1197 C1198 1.502 . S
C1197 C1199 1.561 . S
C1197 C1200 1.526 . S
C1198 H1182 0.959 . S
C1198 H1183 0.959 . S
C1198 H1184 0.961 . S
C1198 C1197 1.502 . S
C1199 H1185 0.960 . S
C1199 H1186 0.961 . S
C1199 H1187 0.959 . S
C1199 C1197 1.561 . S
C1200 C1197 1.526 . S
C1200 C1201 1.396 . S
C1200 C1205 1.390 . S
C1201 C1195 1.465 . S
C1201 C1200 1.396 . S
C1201 C1202 1.399 . S
C1202 H1188 0.929 . S
C1202 C1201 1.399 . S
C1202 C1203 1.385 . S
C1203 H1189 0.931 . S
C1203 C1202 1.385 . S
C1203 C1204 1.389 . S
C1204 C1203 1.389 . S
C1204 C1205 1.387 . S
C1205 H1190 0.930 . S
C1205 C1200 1.390 . S
C1205 C1204 1.387 . S
H1206 C1218 0.930 . S
H1207 C1220 0.930 . S
H1208 C1221 0.930 . S
H1209 C1225 0.959 . S
H1210 C1225 0.959 . S
H1211 C1225 0.961 . S
H1212 C1226 0.960 . S
H1213 C1226 0.961 . S
H1214 C1226 0.959 . S
H1215 C1229 0.929 . S
H1216 C1230 0.931 . S
H1217 C1232 0.930 . S
C1218 H1206 0.930 . S
C1218 C1219 1.399 . S
C1218 C1223 1.399 . S
C1219 C1218 1.399 . S
C1219 C1220 1.376 . S
C1220 H1207 0.930 . S
C1220 C1219 1.376 . S
C1220 C1221 1.388 . S
C1221 H1208 0.930 . S
C1221 C1220 1.388 . S
C1221 C1222 1.390 . S
C1222 C1221 1.390 . S
C1222 C1223 1.394 . S
C1222 C1228 1.465 . S
C1223 C1218 1.399 . S
C1223 C1222 1.394 . S
C1223 C1224 1.516 . S
C1224 C1223 1.516 . S
C1224 C1225 1.502 . S
C1224 C1226 1.561 . S
C1224 C1227 1.526 . S
C1225 H1209 0.959 . S
C1225 H1210 0.959 . S
C1225 H1211 0.961 . S
C1225 C1224 1.502 . S
C1226 H1212 0.960 . S
C1226 H1213 0.961 . S
C1226 H1214 0.959 . S
C1226 C1224 1.561 . S
C1227 C1224 1.526 . S
C1227 C1228 1.396 . S
C1227 C1232 1.390 . S
C1228 C1222 1.465 . S
C1228 C1227 1.396 . S
C1228 C1229 1.399 . S
C1229 H1215 0.929 . S
C1229 C1228 1.399 . S
C1229 C1230 1.385 . S
C1230 H1216 0.931 . S
C1230 C1229 1.385 . S
C1230 C1231 1.389 . S
C1231 C1230 1.389 . S
C1231 C1232 1.387 . S
C1232 H1217 0.930 . S
C1232 C1227 1.390 . S
C1232 C1231 1.387 . S
H1233 C1245 0.930 . S
H1234 C1247 0.930 . S
H1235 C1248 0.930 . S
H1236 C1252 0.959 . S
H1237 C1252 0.959 . S
H1238 C1252 0.961 . S
H1239 C1253 0.960 . S
H1240 C1253 0.961 . S
H1241 C1253 0.959 . S
H1242 C1256 0.929 . S
H1243 C1257 0.931 . S
H1244 C1259 0.930 . S
C1245 H1233 0.930 . S
C1245 C1246 1.399 . S
C1245 C1250 1.399 . S
C1246 C1245 1.399 . S
C1246 C1247 1.376 . S
C1247 H1234 0.930 . S
C1247 C1246 1.376 . S
C1247 C1248 1.388 . S
C1248 H1235 0.930 . S
C1248 C1247 1.388 . S
C1248 C1249 1.390 . S
C1249 C1248 1.390 . S
C1249 C1250 1.394 . S
C1249 C1255 1.465 . S
C1250 C1245 1.399 . S
C1250 C1249 1.394 . S
C1250 C1251 1.516 . S
C1251 C1250 1.516 . S
C1251 C1252 1.502 . S
C1251 C1253 1.561 . S
C1251 C1254 1.526 . S
C1252 H1236 0.959 . S
C1252 H1237 0.959 . S
C1252 H1238 0.961 . S
C1252 C1251 1.502 . S
C1253 H1239 0.960 . S
C1253 H1240 0.961 . S
C1253 H1241 0.959 . S
C1253 C1251 1.561 . S
C1254 C1251 1.526 . S
C1254 C1255 1.396 . S
C1254 C1259 1.390 . S
C1255 C1249 1.465 . S
C1255 C1254 1.396 . S
C1255 C1256 1.399 . S
C1256 H1242 0.929 . S
C1256 C1255 1.399 . S
C1256 C1257 1.385 . S
C1257 H1243 0.931 . S
C1257 C1256 1.385 . S
C1257 C1258 1.389 . S
C1258 C1257 1.389 . S
C1258 C1259 1.387 . S
C1259 H1244 0.930 . S
C1259 C1254 1.390 . S
C1259 C1258 1.387 . S
H1260 C1272 0.930 . S
H1261 C1274 0.930 . S
H1262 C1275 0.930 . S
H1263 C1279 0.959 . S
H1264 C1279 0.959 . S
H1265 C1279 0.961 . S
H1266 C1280 0.960 . S
H1267 C1280 0.961 . S
H1268 C1280 0.959 . S
H1269 C1283 0.929 . S
H1270 C1284 0.931 . S
H1271 C1286 0.930 . S
C1272 H1260 0.930 . S
C1272 C1273 1.399 . S
C1272 C1277 1.399 . S
C1273 C1272 1.399 . S
C1273 C1274 1.376 . S
C1274 H1261 0.930 . S
C1274 C1273 1.376 . S
C1274 C1275 1.388 . S
C1275 H1262 0.930 . S
C1275 C1274 1.388 . S
C1275 C1276 1.390 . S
C1276 C1275 1.390 . S
C1276 C1277 1.394 . S
C1276 C1282 1.465 . S
C1277 C1272 1.399 . S
C1277 C1276 1.394 . S
C1277 C1278 1.516 . S
C1278 C1277 1.516 . S
C1278 C1279 1.502 . S
C1278 C1280 1.561 . S
C1278 C1281 1.526 . S
C1279 H1263 0.959 . S
C1279 H1264 0.959 . S
C1279 H1265 0.961 . S
C1279 C1278 1.502 . S
C1280 H1266 0.960 . S
C1280 H1267 0.961 . S
C1280 H1268 0.959 . S
C1280 C1278 1.561 . S
C1281 C1278 1.526 . S
C1281 C1282 1.396 . S
C1281 C1286 1.390 . S
C1282 C1276 1.465 . S
C1282 C1281 1.396 . S
C1282 C1283 1.399 . S
C1283 H1269 0.929 . S
C1283 C1282 1.399 . S
C1283 C1284 1.385 . S
C1284 H1270 0.931 . S
C1284 C1283 1.385 . S
C1284 C1285 1.389 . S
C1285 C1284 1.389 . S
C1285 C1286 1.387 . S
C1286 H1271 0.930 . S
C1286 C1281 1.390 . S
C1286 C1285 1.387 . S
H1287 C1299 0.930 . S
H1288 C1301 0.930 . S
H1289 C1302 0.930 . S
H1290 C1306 0.959 . S
H1291 C1306 0.959 . S
H1292 C1306 0.961 . S
H1293 C1307 0.960 . S
H1294 C1307 0.961 . S
H1295 C1307 0.959 . S
H1296 C1310 0.929 . S
H1297 C1311 0.931 . S
H1298 C1313 0.930 . S
C1299 H1287 0.930 . S
C1299 C1300 1.399 . S
C1299 C1304 1.399 . S
C1300 C1299 1.399 . S
C1300 C1301 1.376 . S
C1301 H1288 0.930 . S
C1301 C1300 1.376 . S
C1301 C1302 1.388 . S
C1302 H1289 0.930 . S
C1302 C1301 1.388 . S
C1302 C1303 1.390 . S
C1303 C1302 1.390 . S
C1303 C1304 1.394 . S
C1303 C1309 1.465 . S
C1304 C1299 1.399 . S
C1304 C1303 1.394 . S
C1304 C1305 1.516 . S
C1305 C1304 1.516 . S
C1305 C1306 1.502 . S
C1305 C1307 1.561 . S
C1305 C1308 1.526 . S
C1306 H1290 0.959 . S
C1306 H1291 0.959 . S
C1306 H1292 0.961 . S
C1306 C1305 1.502 . S
C1307 H1293 0.960 . S
C1307 H1294 0.961 . S
C1307 H1295 0.959 . S
C1307 C1305 1.561 . S
C1308 C1305 1.526 . S
C1308 C1309 1.396 . S
C1308 C1313 1.390 . S
C1309 C1303 1.465 . S
C1309 C1308 1.396 . S
C1309 C1310 1.399 . S
C1310 H1296 0.929 . S
C1310 C1309 1.399 . S
C1310 C1311 1.385 . S
C1311 H1297 0.931 . S
C1311 C1310 1.385 . S
C1311 C1312 1.389 . S
C1312 C1311 1.389 . S
C1312 C1313 1.387 . S
C1313 H1298 0.930 . S
C1313 C1308 1.390 . S
C1313 C1312 1.387 . S
H1314 C1326 0.930 . S
H1315 C1328 0.930 . S
H1316 C1329 0.930 . S
H1317 C1333 0.959 . S
H1318 C1333 0.959 . S
H1319 C1333 0.961 . S
H1320 C1334 0.960 . S
H1321 C1334 0.961 . S
H1322 C1334 0.959 . S
H1323 C1337 0.929 . S
H1324 C1338 0.931 . S
H1325 C1340 0.930 . S
C1326 H1314 0.930 . S
C1326 C1327 1.399 . S
C1326 C1331 1.399 . S
C1327 C1326 1.399 . S
C1327 C1328 1.376 . S
C1328 H1315 0.930 . S
C1328 C1327 1.376 . S
C1328 C1329 1.388 . S
C1329 H1316 0.930 . S
C1329 C1328 1.388 . S
C1329 C1330 1.390 . S
C1330 C1329 1.390 . S
C1330 C1331 1.394 . S
C1330 C1336 1.465 . S
C1331 C1326 1.399 . S
C1331 C1330 1.394 . S
C1331 C1332 1.516 . S
C1332 C1331 1.516 . S
C1332 C1333 1.502 . S
C1332 C1334 1.561 . S
C1332 C1335 1.526 . S
C1333 H1317 0.959 . S
C1333 H1318 0.959 . S
C1333 H1319 0.961 . S
C1333 C1332 1.502 . S
C1334 H1320 0.960 . S
C1334 H1321 0.961 . S
C1334 H1322 0.959 . S
C1334 C1332 1.561 . S
C1335 C1332 1.526 . S
C1335 C1336 1.396 . S
C1335 C1340 1.390 . S
C1336 C1330 1.465 . S
C1336 C1335 1.396 . S
C1336 C1337 1.399 . S
C1337 H1323 0.929 . S
C1337 C1336 1.399 . S
C1337 C1338 1.385 . S
C1338 H1324 0.931 . S
C1338 C1337 1.385 . S
C1338 C1339 1.389 . S
C1339 C1338 1.389 . S
C1339 C1340 1.387 . S
C1340 H1325 0.930 . S
C1340 C1335 1.390 . S
C1340 C1339 1.387 . S
H1341 C1353 0.930 . S
H1342 C1355 0.930 . S
H1343 C1356 0.930 . S
H1344 C1360 0.959 . S
H1345 C1360 0.959 . S
H1346 C1360 0.961 . S
H1347 C1361 0.960 . S
H1348 C1361 0.961 . S
H1349 C1361 0.959 . S
H1350 C1364 0.929 . S
H1351 C1365 0.931 . S
H1352 C1367 0.930 . S
C1353 H1341 0.930 . S
C1353 C1354 1.399 . S
C1353 C1358 1.399 . S
C1354 C1353 1.399 . S
C1354 C1355 1.376 . S
C1355 H1342 0.930 . S
C1355 C1354 1.376 . S
C1355 C1356 1.388 . S
C1356 H1343 0.930 . S
C1356 C1355 1.388 . S
C1356 C1357 1.390 . S
C1357 C1356 1.390 . S
C1357 C1358 1.394 . S
C1357 C1363 1.465 . S
C1358 C1353 1.399 . S
C1358 C1357 1.394 . S
C1358 C1359 1.516 . S
C1359 C1358 1.516 . S
C1359 C1360 1.502 . S
C1359 C1361 1.561 . S
C1359 C1362 1.526 . S
C1360 H1344 0.959 . S
C1360 H1345 0.959 . S
C1360 H1346 0.961 . S
C1360 C1359 1.502 . S
C1361 H1347 0.960 . S
C1361 H1348 0.961 . S
C1361 H1349 0.959 . S
C1361 C1359 1.561 . S
C1362 C1359 1.526 . S
C1362 C1363 1.396 . S
C1362 C1367 1.390 . S
C1363 C1357 1.465 . S
C1363 C1362 1.396 . S
C1363 C1364 1.399 . S
C1364 H1350 0.929 . S
C1364 C1363 1.399 . S
C1364 C1365 1.385 . S
C1365 H1351 0.931 . S
C1365 C1364 1.385 . S
C1365 C1366 1.389 . S
C1366 C1365 1.389 . S
C1366 C1367 1.387 . S
C1367 H1352 0.930 . S
C1367 C1362 1.390 . S
C1367 C1366 1.387 . S
H1368 C1380 0.930 . S
H1369 C1382 0.930 . S
H1370 C1383 0.930 . S
H1371 C1387 0.959 . S
H1372 C1387 0.959 . S
H1373 C1387 0.961 . S
H1374 C1388 0.960 . S
H1375 C1388 0.961 . S
H1376 C1388 0.959 . S
H1377 C1391 0.929 . S
H1378 C1392 0.931 . S
H1379 C1394 0.930 . S
C1380 H1368 0.930 . S
C1380 C1381 1.399 . S
C1380 C1385 1.399 . S
C1381 C1380 1.399 . S
C1381 C1382 1.376 . S
C1382 H1369 0.930 . S
C1382 C1381 1.376 . S
C1382 C1383 1.388 . S
C1383 H1370 0.930 . S
C1383 C1382 1.388 . S
C1383 C1384 1.390 . S
C1384 C1383 1.390 . S
C1384 C1385 1.394 . S
C1384 C1390 1.465 . S
C1385 C1380 1.399 . S
C1385 C1384 1.394 . S
C1385 C1386 1.516 . S
C1386 C1385 1.516 . S
C1386 C1387 1.502 . S
C1386 C1388 1.561 . S
C1386 C1389 1.526 . S
C1387 H1371 0.959 . S
C1387 H1372 0.959 . S
C1387 H1373 0.961 . S
C1387 C1386 1.502 . S
C1388 H1374 0.960 . S
C1388 H1375 0.961 . S
C1388 H1376 0.959 . S
C1388 C1386 1.561 . S
C1389 C1386 1.526 . S
C1389 C1390 1.396 . S
C1389 C1394 1.390 . S
C1390 C1384 1.465 . S
C1390 C1389 1.396 . S
C1390 C1391 1.399 . S
C1391 H1377 0.929 . S
C1391 C1390 1.399 . S
C1391 C1392 1.385 . S
C1392 H1378 0.931 . S
C1392 C1391 1.385 . S
C1392 C1393 1.389 . S
C1393 C1392 1.389 . S
C1393 C1394 1.387 . S
C1394 H1379 0.930 . S
C1394 C1389 1.390 . S
C1394 C1393 1.387 . S
H1395 C1407 0.930 . S
H1396 C1409 0.930 . S
H1397 C1410 0.930 . S
H1398 C1414 0.959 . S
H1399 C1414 0.959 . S
H1400 C1414 0.961 . S
H1401 C1415 0.960 . S
H1402 C1415 0.961 . S
H1403 C1415 0.959 . S
H1404 C1418 0.929 . S
H1405 C1419 0.931 . S
H1406 C1421 0.930 . S
C1407 H1395 0.930 . S
C1407 C1408 1.399 . S
C1407 C1412 1.399 . S
C1408 C1407 1.399 . S
C1408 C1409 1.376 . S
C1409 H1396 0.930 . S
C1409 C1408 1.376 . S
C1409 C1410 1.388 . S
C1410 H1397 0.930 . S
C1410 C1409 1.388 . S
C1410 C1411 1.390 . S
C1411 C1410 1.390 . S
C1411 C1412 1.394 . S
C1411 C1417 1.465 . S
C1412 C1407 1.399 . S
C1412 C1411 1.394 . S
C1412 C1413 1.516 . S
C1413 C1412 1.516 . S
C1413 C1414 1.502 . S
C1413 C1415 1.561 . S
C1413 C1416 1.526 . S
C1414 H1398 0.959 . S
C1414 H1399 0.959 . S
C1414 H1400 0.961 . S
C1414 C1413 1.502 . S
C1415 H1401 0.960 . S
C1415 H1402 0.961 . S
C1415 H1403 0.959 . S
C1415 C1413 1.561 . S
C1416 C1413 1.526 . S
C1416 C1417 1.396 . S
C1416 C1421 1.390 . S
C1417 C1411 1.465 . S
C1417 C1416 1.396 . S
C1417 C1418 1.399 . S
C1418 H1404 0.929 . S
C1418 C1417 1.399 . S
C1418 C1419 1.385 . S
C1419 H1405 0.931 . S
C1419 C1418 1.385 . S
C1419 C1420 1.389 . S
C1420 C1419 1.389 . S
C1420 C1421 1.387 . S
C1421 H1406 0.930 . S
C1421 C1416 1.390 . S
C1421 C1420 1.387 . S
H1422 C1434 0.930 . S
H1423 C1436 0.930 . S
H1424 C1437 0.930 . S
H1425 C1441 0.959 . S
H1426 C1441 0.959 . S
H1427 C1441 0.961 . S
H1428 C1442 0.960 . S
H1429 C1442 0.961 . S
H1430 C1442 0.959 . S
H1431 C1445 0.929 . S
H1432 C1446 0.931 . S
H1433 C1448 0.930 . S
C1434 H1422 0.930 . S
C1434 C1435 1.399 . S
C1434 C1439 1.399 . S
C1435 C1434 1.399 . S
C1435 C1436 1.376 . S
C1436 H1423 0.930 . S
C1436 C1435 1.376 . S
C1436 C1437 1.388 . S
C1437 H1424 0.930 . S
C1437 C1436 1.388 . S
C1437 C1438 1.390 . S
C1438 C1437 1.390 . S
C1438 C1439 1.394 . S
C1438 C1444 1.465 . S
C1439 C1434 1.399 . S
C1439 C1438 1.394 . S
C1439 C1440 1.516 . S
C1440 C1439 1.516 . S
C1440 C1441 1.502 . S
C1440 C1442 1.561 . S
C1440 C1443 1.526 . S
C1441 H1425 0.959 . S
C1441 H1426 0.959 . S
C1441 H1427 0.961 . S
C1441 C1440 1.502 . S
C1442 H1428 0.960 . S
C1442 H1429 0.961 . S
C1442 H1430 0.959 . S
C1442 C1440 1.561 . S
C1443 C1440 1.526 . S
C1443 C1444 1.396 . S
C1443 C1448 1.390 . S
C1444 C1438 1.465 . S
C1444 C1443 1.396 . S
C1444 C1445 1.399 . S
C1445 H1431 0.929 . S
C1445 C1444 1.399 . S
C1445 C1446 1.385 . S
C1446 H1432 0.931 . S
C1446 C1445 1.385 . S
C1446 C1447 1.389 . S
C1447 C1446 1.389 . S
C1447 C1448 1.387 . S
C1448 H1433 0.930 . S
C1448 C1443 1.390 . S
C1448 C1447 1.387 . S
H1449 C1461 0.930 . S
H1450 C1463 0.930 . S
H1451 C1464 0.930 . S
H1452 C1468 0.959 . S
H1453 C1468 0.959 . S
H1454 C1468 0.961 . S
H1455 C1469 0.960 . S
H1456 C1469 0.961 . S
H1457 C1469 0.959 . S
H1458 C1472 0.929 . S
H1459 C1473 0.931 . S
H1460 C1475 0.930 . S
C1461 H1449 0.930 . S
C1461 C1462 1.399 . S
C1461 C1466 1.399 . S
C1462 C1461 1.399 . S
C1462 C1463 1.376 . S
C1463 H1450 0.930 . S
C1463 C1462 1.376 . S
C1463 C1464 1.388 . S
C1464 H1451 0.930 . S
C1464 C1463 1.388 . S
C1464 C1465 1.390 . S
C1465 C1464 1.390 . S
C1465 C1466 1.394 . S
C1465 C1471 1.465 . S
C1466 C1461 1.399 . S
C1466 C1465 1.394 . S
C1466 C1467 1.516 . S
C1467 C1466 1.516 . S
C1467 C1468 1.502 . S
C1467 C1469 1.561 . S
C1467 C1470 1.526 . S
C1468 H1452 0.959 . S
C1468 H1453 0.959 . S
C1468 H1454 0.961 . S
C1468 C1467 1.502 . S
C1469 H1455 0.960 . S
C1469 H1456 0.961 . S
C1469 H1457 0.959 . S
C1469 C1467 1.561 . S
C1470 C1467 1.526 . S
C1470 C1471 1.396 . S
C1470 C1475 1.390 . S
C1471 C1465 1.465 . S
C1471 C1470 1.396 . S
C1471 C1472 1.399 . S
C1472 H1458 0.929 . S
C1472 C1471 1.399 . S
C1472 C1473 1.385 . S
C1473 H1459 0.931 . S
C1473 C1472 1.385 . S
C1473 C1474 1.389 . S
C1474 C1473 1.389 . S
C1474 C1475 1.387 . S
C1475 H1460 0.930 . S
C1475 C1470 1.390 . S
C1475 C1474 1.387 . S
H1476 C1488 0.930 . S
H1477 C1490 0.930 . S
H1478 C1491 0.930 . S
H1479 C1495 0.959 . S
H1480 C1495 0.959 . S
H1481 C1495 0.961 . S
H1482 C1496 0.960 . S
H1483 C1496 0.961 . S
H1484 C1496 0.959 . S
H1485 C1499 0.929 . S
H1486 C1500 0.931 . S
H1487 C1502 0.930 . S
C1488 H1476 0.930 . S
C1488 C1489 1.399 . S
C1488 C1493 1.399 . S
C1489 C1488 1.399 . S
C1489 C1490 1.376 . S
C1490 H1477 0.930 . S
C1490 C1489 1.376 . S
C1490 C1491 1.388 . S
C1491 H1478 0.930 . S
C1491 C1490 1.388 . S
C1491 C1492 1.390 . S
C1492 C1491 1.390 . S
C1492 C1493 1.394 . S
C1492 C1498 1.465 . S
C1493 C1488 1.399 . S
C1493 C1492 1.394 . S
C1493 C1494 1.516 . S
C1494 C1493 1.516 . S
C1494 C1495 1.502 . S
C1494 C1496 1.561 . S
C1494 C1497 1.526 . S
C1495 H1479 0.959 . S
C1495 H1480 0.959 . S
C1495 H1481 0.961 . S
C1495 C1494 1.502 . S
C1496 H1482 0.960 . S
C1496 H1483 0.961 . S
C1496 H1484 0.959 . S
C1496 C1494 1.561 . S
C1497 C1494 1.526 . S
C1497 C1498 1.396 . S
C1497 C1502 1.390 . S
C1498 C1492 1.465 . S
C1498 C1497 1.396 . S
C1498 C1499 1.399 . S
C1499 H1485 0.929 . S
C1499 C1498 1.399 . S
C1499 C1500 1.385 . S
C1500 H1486 0.931 . S
C1500 C1499 1.385 . S
C1500 C1501 1.389 . S
C1501 C1500 1.389 . S
C1501 C1502 1.387 . S
C1502 H1487 0.930 . S
C1502 C1497 1.390 . S
C1502 C1501 1.387 . S
H1503 C1515 0.930 . S
H1504 C1517 0.930 . S
H1505 C1518 0.930 . S
H1506 C1522 0.959 . S
H1507 C1522 0.959 . S
H1508 C1522 0.961 . S
H1509 C1523 0.960 . S
H1510 C1523 0.961 . S
H1511 C1523 0.959 . S
H1512 C1526 0.929 . S
H1513 C1527 0.931 . S
H1514 C1529 0.930 . S
C1515 H1503 0.930 . S
C1515 C1516 1.399 . S
C1515 C1520 1.399 . S
C1516 C1515 1.399 . S
C1516 C1517 1.376 . S
C1517 H1504 0.930 . S
C1517 C1516 1.376 . S
C1517 C1518 1.388 . S
C1518 H1505 0.930 . S
C1518 C1517 1.388 . S
C1518 C1519 1.390 . S
C1519 C1518 1.390 . S
C1519 C1520 1.394 . S
C1519 C1525 1.465 . S
C1520 C1515 1.399 . S
C1520 C1519 1.394 . S
C1520 C1521 1.516 . S
C1521 C1520 1.516 . S
C1521 C1522 1.502 . S
C1521 C1523 1.561 . S
C1521 C1524 1.526 . S
C1522 H1506 0.959 . S
C1522 H1507 0.959 . S
C1522 H1508 0.961 . S
C1522 C1521 1.502 . S
C1523 H1509 0.960 . S
C1523 H1510 0.961 . S
C1523 H1511 0.959 . S
C1523 C1521 1.561 . S
C1524 C1521 1.526 . S
C1524 C1525 1.396 . S
C1524 C1529 1.390 . S
C1525 C1519 1.465 . S
C1525 C1524 1.396 . S
C1525 C1526 1.399 . S
C1526 H1512 0.929 . S
C1526 C1525 1.399 . S
C1526 C1527 1.385 . S
C1527 H1513 0.931 . S
C1527 C1526 1.385 . S
C1527 C1528 1.389 . S
C1528 C1527 1.389 . S
C1528 C1529 1.387 . S
C1529 H1514 0.930 . S
C1529 C1524 1.390 . S
C1529 C1528 1.387 . S
H1530 C1542 0.930 . S
H1531 C1544 0.930 . S
H1532 C1545 0.930 . S
H1533 C1549 0.959 . S
H1534 C1549 0.959 . S
H1535 C1549 0.961 . S
H1536 C1550 0.960 . S
H1537 C1550 0.961 . S
H1538 C1550 0.959 . S
H1539 C1553 0.929 . S
H1540 C1554 0.931 . S
H1541 C1556 0.930 . S
C1542 H1530 0.930 . S
C1542 C1543 1.399 . S
C1542 C1547 1.399 . S
C1543 C1542 1.399 . S
C1543 C1544 1.376 . S
C1544 H1531 0.930 . S
C1544 C1543 1.376 . S
C1544 C1545 1.388 . S
C1545 H1532 0.930 . S
C1545 C1544 1.388 . S
C1545 C1546 1.390 . S
C1546 C1545 1.390 . S
C1546 C1547 1.394 . S
C1546 C1552 1.465 . S
C1547 C1542 1.399 . S
C1547 C1546 1.394 . S
C1547 C1548 1.516 . S
C1548 C1547 1.516 . S
C1548 C1549 1.502 . S
C1548 C1550 1.561 . S
C1548 C1551 1.526 . S
C1549 H1533 0.959 . S
C1549 H1534 0.959 . S
C1549 H1535 0.961 . S
C1549 C1548 1.502 . S
C1550 H1536 0.960 . S
C1550 H1537 0.961 . S
C1550 H1538 0.959 . S
C1550 C1548 1.561 . S
C1551 C1548 1.526 . S
C1551 C1552 1.396 . S
C1551 C1556 1.390 . S
C1552 C1546 1.465 . S
C1552 C1551 1.396 . S
C1552 C1553 1.399 . S
C1553 H1539 0.929 . S
C1553 C1552 1.399 . S
C1553 C1554 1.385 . S
C1554 H1540 0.931 . S
C1554 C1553 1.385 . S
C1554 C1555 1.389 . S
C1555 C1554 1.389 . S
C1555 C1556 1.387 . S
C1556 H1541 0.930 . S
C1556 C1551 1.390 . S
C1556 C1555 1.387 . S
H1557 C1569 0.930 . S
H1558 C1571 0.930 . S
H1559 C1572 0.930 . S
H1560 C1576 0.959 . S
H1561 C1576 0.959 . S
H1562 C1576 0.961 . S
H1563 C1577 0.960 . S
H1564 C1577 0.961 . S
H1565 C1577 0.959 . S
H1566 C1580 0.929 . S
H1567 C1581 0.931 . S
H1568 C1583 0.930 . S
C1569 H1557 0.930 . S
C1569 C1570 1.399 . S
C1569 C1574 1.399 . S
C1570 C1569 1.399 . S
C1570 C1571 1.376 . S
C1571 H1558 0.930 . S
C1571 C1570 1.376 . S
C1571 C1572 1.388 . S
C1572 H1559 0.930 . S
C1572 C1571 1.388 . S
C1572 C1573 1.390 . S
C1573 C1572 1.390 . S
C1573 C1574 1.394 . S
C1573 C1579 1.465 . S
C1574 C1569 1.399 . S
C1574 C1573 1.394 . S
C1574 C1575 1.516 . S
C1575 C1574 1.516 . S
C1575 C1576 1.502 . S
C1575 C1577 1.561 . S
C1575 C1578 1.526 . S
C1576 H1560 0.959 . S
C1576 H1561 0.959 . S
C1576 H1562 0.961 . S
C1576 C1575 1.502 . S
C1577 H1563 0.960 . S
C1577 H1564 0.961 . S
C1577 H1565 0.959 . S
C1577 C1575 1.561 . S
C1578 C1575 1.526 . S
C1578 C1579 1.396 . S
C1578 C1583 1.390 . S
C1579 C1573 1.465 . S
C1579 C1578 1.396 . S
C1579 C1580 1.399 . S
C1580 H1566 0.929 . S
C1580 C1579 1.399 . S
C1580 C1581 1.385 . S
C1581 H1567 0.931 . S
C1581 C1580 1.385 . S
C1581 C1582 1.389 . S
C1582 C1581 1.389 . S
C1582 C1583 1.387 . S
C1583 H1568 0.930 . S
C1583 C1578 1.390 . S
C1583 C1582 1.387 . S
H1584 C1596 0.930 . S
H1585 C1598 0.930 . S
H1586 C1599 0.930 . S
H1587 C1603 0.959 . S
H1588 C1603 0.959 . S
H1589 C1603 0.961 . S
H1590 C1604 0.960 . S
H1591 C1604 0.961 . S
H1592 C1604 0.959 . S
H1593 C1607 0.929 . S
H1594 C1608 0.931 . S
H1595 C1610 0.930 . S
C1596 H1584 0.930 . S
C1596 C1597 1.399 . S
C1596 C1601 1.399 . S
C1597 C1596 1.399 . S
C1597 C1598 1.376 . S
C1598 H1585 0.930 . S
C1598 C1597 1.376 . S
C1598 C1599 1.388 . S
C1599 H1586 0.930 . S
C1599 C1598 1.388 . S
C1599 C1600 1.390 . S
C1600 C1599 1.390 . S
C1600 C1601 1.394 . S
C1600 C1606 1.465 . S
C1601 C1596 1.399 . S
C1601 C1600 1.394 . S
C1601 C1602 1.516 . S
C1602 C1601 1.516 . S
C1602 C1603 1.502 . S
C1602 C1604 1.561 . S
C1602 C1605 1.526 . S
C1603 H1587 0.959 . S
C1603 H1588 0.959 . S
C1603 H1589 0.961 . S
C1603 C1602 1.502 . S
C1604 H1590 0.960 . S
C1604 H1591 0.961 . S
C1604 H1592 0.959 . S
C1604 C1602 1.561 . S
C1605 C1602 1.526 . S
C1605 C1606 1.396 . S
C1605 C1610 1.390 . S
C1606 C1600 1.465 . S
C1606 C1605 1.396 . S
C1606 C1607 1.399 . S
C1607 H1593 0.929 . S
C1607 C1606 1.399 . S
C1607 C1608 1.385 . S
C1608 H1594 0.931 . S
C1608 C1607 1.385 . S
C1608 C1609 1.389 . S
C1609 C1608 1.389 . S
C1609 C1610 1.387 . S
C1610 H1595 0.930 . S
C1610 C1605 1.390 . S
C1610 C1609 1.387 . S
H1611 C1623 0.930 . S
H1612 C1625 0.930 . S
H1613 C1626 0.930 . S
H1614 C1630 0.959 . S
H1615 C1630 0.959 . S
H1616 C1630 0.961 . S
H1617 C1631 0.960 1_556 S
H1618 C1631 0.961 . S
H1619 C1631 0.959 . S
H1620 C1634 0.929 . S
H1621 C1635 0.931 . S
H1622 C1637 0.930 . S
C1623 H1611 0.930 . S
C1623 C1624 1.399 . S
C1623 C1628 1.399 . S
C1624 C1623 1.399 . S
C1624 C1625 1.376 . S
C1625 H1612 0.930 . S
C1625 C1624 1.376 . S
C1625 C1626 1.388 . S
C1626 H1613 0.930 . S
C1626 C1625 1.388 . S
C1626 C1627 1.390 . S
C1627 C1626 1.390 . S
C1627 C1628 1.394 . S
C1627 C1633 1.465 . S
C1628 C1623 1.399 . S
C1628 C1627 1.394 . S
C1628 C1629 1.516 . S
C1629 C1628 1.516 . S
C1629 C1630 1.502 . S
C1629 C1631 1.561 . S
C1629 C1632 1.526 . S
C1630 H1614 0.959 . S
C1630 H1615 0.959 . S
C1630 H1616 0.961 . S
C1630 C1629 1.502 . S
C1631 H1617 0.960 1_554 S
C1631 H1618 0.961 . S
C1631 H1619 0.959 . S
C1631 C1629 1.561 . S
C1632 C1629 1.526 . S
C1632 C1633 1.396 . S
C1632 C1637 1.390 . S
C1633 C1627 1.465 . S
C1633 C1632 1.396 . S
C1633 C1634 1.399 . S
C1634 H1620 0.929 . S
C1634 C1633 1.399 . S
C1634 C1635 1.385 . S
C1635 H1621 0.931 . S
C1635 C1634 1.385 . S
C1635 C1636 1.389 . S
C1636 C1635 1.389 . S
C1636 C1637 1.387 . S
C1637 H1622 0.930 . S
C1637 C1632 1.390 . S
C1637 C1636 1.387 . S
H1638 C1650 0.930 . S
H1639 C1652 0.930 . S
H1640 C1653 0.930 . S
H1641 C1657 0.959 . S
H1642 C1657 0.959 . S
H1643 C1657 0.961 . S
H1644 C1658 0.960 1_556 S
H1645 C1658 0.961 1_556 S
H1646 C1658 0.959 . S
H1647 C1661 0.929 . S
H1648 C1662 0.931 . S
H1649 C1664 0.930 . S
C1650 H1638 0.930 . S
C1650 C1651 1.399 . S
C1650 C1655 1.399 . S
C1651 C1650 1.399 . S
C1651 C1652 1.376 . S
C1652 H1639 0.930 . S
C1652 C1651 1.376 . S
C1652 C1653 1.388 . S
C1653 H1640 0.930 . S
C1653 C1652 1.388 . S
C1653 C1654 1.390 . S
C1654 C1653 1.390 . S
C1654 C1655 1.394 . S
C1654 C1660 1.465 . S
C1655 C1650 1.399 . S
C1655 C1654 1.394 . S
C1655 C1656 1.516 . S
C1656 C1655 1.516 . S
C1656 C1657 1.502 . S
C1656 C1658 1.561 . S
C1656 C1659 1.526 . S
C1657 H1641 0.959 . S
C1657 H1642 0.959 . S
C1657 H1643 0.961 . S
C1657 C1656 1.502 . S
C1658 H1644 0.960 1_554 S
C1658 H1645 0.961 1_554 S
C1658 H1646 0.959 . S
C1658 C1656 1.561 . S
C1659 C1656 1.526 . S
C1659 C1660 1.396 . S
C1659 C1664 1.390 . S
C1660 C1654 1.465 . S
C1660 C1659 1.396 . S
C1660 C1661 1.399 . S
C1661 H1647 0.929 . S
C1661 C1660 1.399 . S
C1661 C1662 1.385 . S
C1662 H1648 0.931 . S
C1662 C1661 1.385 . S
C1662 C1663 1.389 . S
C1663 C1662 1.389 . S
C1663 C1664 1.387 . S
C1664 H1649 0.930 . S
C1664 C1659 1.390 . S
C1664 C1663 1.387 . S
H1665 C1677 0.930 . S
H1666 C1679 0.930 1_554 S
H1667 C1680 0.930 . S
H1668 C1684 0.959 . S
H1669 C1684 0.959 . S
H1670 C1684 0.961 . S
H1671 C1685 0.960 . S
H1672 C1685 0.961 . S
H1673 C1685 0.959 . S
H1674 C1688 0.929 . S
H1675 C1689 0.931 . S
H1676 C1691 0.930 . S
C1677 H1665 0.930 . S
C1677 C1678 1.399 . S
C1677 C1682 1.399 . S
C1678 C1677 1.399 . S
C1678 C1679 1.376 . S
C1679 H1666 0.930 1_556 S
C1679 C1678 1.376 . S
C1679 C1680 1.388 . S
C1680 H1667 0.930 . S
C1680 C1679 1.388 . S
C1680 C1681 1.390 . S
C1681 C1680 1.390 . S
C1681 C1682 1.394 . S
C1681 C1687 1.465 . S
C1682 C1677 1.399 . S
C1682 C1681 1.394 . S
C1682 C1683 1.516 . S
C1683 C1682 1.516 . S
C1683 C1684 1.502 . S
C1683 C1685 1.561 . S
C1683 C1686 1.526 . S
C1684 H1668 0.959 . S
C1684 H1669 0.959 . S
C1684 H1670 0.961 . S
C1684 C1683 1.502 . S
C1685 H1671 0.960 . S
C1685 H1672 0.961 . S
C1685 H1673 0.959 . S
C1685 C1683 1.561 . S
C1686 C1683 1.526 . S
C1686 C1687 1.396 . S
C1686 C1691 1.390 . S
C1687 C1681 1.465 . S
C1687 C1686 1.396 . S
C1687 C1688 1.399 . S
C1688 H1674 0.929 . S
C1688 C1687 1.399 . S
C1688 C1689 1.385 . S
C1689 H1675 0.931 . S
C1689 C1688 1.385 . S
C1689 C1690 1.389 . S
C1690 C1689 1.389 . S
C1690 C1691 1.387 . S
C1691 H1676 0.930 . S
C1691 C1686 1.390 . S
C1691 C1690 1.387 . S
H1692 C1704 0.930 . S
H1693 C1706 0.930 . S
H1694 C1707 0.930 . S
H1695 C1711 0.959 . S
H1696 C1711 0.959 . S
H1697 C1711 0.961 . S
H1698 C1712 0.960 1_554 S
H1699 C1712 0.961 . S
H1700 C1712 0.959 1_554 S
H1701 C1715 0.929 . S
H1702 C1716 0.931 . S
H1703 C1718 0.930 . S
C1704 H1692 0.930 . S
C1704 C1705 1.399 . S
C1704 C1709 1.399 . S
C1705 C1704 1.399 . S
C1705 C1706 1.376 . S
C1706 H1693 0.930 . S
C1706 C1705 1.376 . S
C1706 C1707 1.388 . S
C1707 H1694 0.930 . S
C1707 C1706 1.388 . S
C1707 C1708 1.390 . S
C1708 C1707 1.390 . S
C1708 C1709 1.394 . S
C1708 C1714 1.465 . S
C1709 C1704 1.399 . S
C1709 C1708 1.394 . S
C1709 C1710 1.516 . S
C1710 C1709 1.516 . S
C1710 C1711 1.502 . S
C1710 C1712 1.561 . S
C1710 C1713 1.526 . S
C1711 H1695 0.959 . S
C1711 H1696 0.959 . S
C1711 H1697 0.961 . S
C1711 C1710 1.502 . S
C1712 H1698 0.960 1_556 S
C1712 H1699 0.961 . S
C1712 H1700 0.959 1_556 S
C1712 C1710 1.561 . S
C1713 C1710 1.526 . S
C1713 C1714 1.396 . S
C1713 C1718 1.390 . S
C1714 C1708 1.465 . S
C1714 C1713 1.396 . S
C1714 C1715 1.399 . S
C1715 H1701 0.929 . S
C1715 C1714 1.399 . S
C1715 C1716 1.385 . S
C1716 H1702 0.931 . S
C1716 C1715 1.385 . S
C1716 C1717 1.389 . S
C1717 C1716 1.389 . S
C1717 C1718 1.387 . S
C1718 H1703 0.930 . S
C1718 C1713 1.390 . S
C1718 C1717 1.387 . S
H1719 C1731 0.930 . S
H1720 C1733 0.930 . S
H1721 C1734 0.930 . S
H1722 C1738 0.959 . S
H1723 C1738 0.959 . S
H1724 C1738 0.961 . S
H1725 C1739 0.960 . S
H1726 C1739 0.961 . S
H1727 C1739 0.959 . S
H1728 C1742 0.929 1_554 S
H1729 C1743 0.931 . S
H1730 C1745 0.930 . S
C1731 H1719 0.930 . S
C1731 C1732 1.399 . S
C1731 C1736 1.399 . S
C1732 C1731 1.399 . S
C1732 C1733 1.376 1_556 S
C1733 H1720 0.930 . S
C1733 C1732 1.376 1_554 S
C1733 C1734 1.388 . S
C1734 H1721 0.930 . S
C1734 C1733 1.388 . S
C1734 C1735 1.390 1_554 S
C1735 C1734 1.390 1_556 S
C1735 C1736 1.394 . S
C1735 C1741 1.465 . S
C1736 C1731 1.399 . S
C1736 C1735 1.394 . S
C1736 C1737 1.516 . S
C1737 C1736 1.516 . S
C1737 C1738 1.502 . S
C1737 C1739 1.561 . S
C1737 C1740 1.526 . S
C1738 H1722 0.959 . S
C1738 H1723 0.959 . S
C1738 H1724 0.961 . S
C1738 C1737 1.502 . S
C1739 H1725 0.960 . S
C1739 H1726 0.961 . S
C1739 H1727 0.959 . S
C1739 C1737 1.561 . S
C1740 C1737 1.526 . S
C1740 C1741 1.396 . S
C1740 C1745 1.390 . S
C1741 C1735 1.465 . S
C1741 C1740 1.396 . S
C1741 C1742 1.399 . S
C1742 H1728 0.929 1_556 S
C1742 C1741 1.399 . S
C1742 C1743 1.385 . S
C1743 H1729 0.931 . S
C1743 C1742 1.385 . S
C1743 C1744 1.389 . S
C1744 C1743 1.389 . S
C1744 C1745 1.387 . S
C1745 H1730 0.930 . S
C1745 C1740 1.390 . S
C1745 C1744 1.387 . S
H1746 C1758 0.930 . S
H1747 C1760 0.930 . S
H1748 C1761 0.930 . S
H1749 C1765 0.959 . S
H1750 C1765 0.959 . S
H1751 C1765 0.961 . S
H1752 C1766 0.960 . S
H1753 C1766 0.961 . S
H1754 C1766 0.959 . S
H1755 C1769 0.929 . S
H1756 C1770 0.931 . S
H1757 C1772 0.930 . S
C1758 H1746 0.930 . S
C1758 C1759 1.399 . S
C1758 C1763 1.399 . S
C1759 C1758 1.399 . S
C1759 C1760 1.376 1_556 S
C1760 H1747 0.930 . S
C1760 C1759 1.376 1_554 S
C1760 C1761 1.388 . S
C1761 H1748 0.930 . S
C1761 C1760 1.388 . S
C1761 C1762 1.390 1_554 S
C1762 C1761 1.390 1_556 S
C1762 C1763 1.394 . S
C1762 C1768 1.465 . S
C1763 C1758 1.399 . S
C1763 C1762 1.394 . S
C1763 C1764 1.516 . S
C1764 C1763 1.516 . S
C1764 C1765 1.502 . S
C1764 C1766 1.561 . S
C1764 C1767 1.526 . S
C1765 H1749 0.959 . S
C1765 H1750 0.959 . S
C1765 H1751 0.961 . S
C1765 C1764 1.502 . S
C1766 H1752 0.960 . S
C1766 H1753 0.961 . S
C1766 H1754 0.959 . S
C1766 C1764 1.561 . S
C1767 C1764 1.526 . S
C1767 C1768 1.396 . S
C1767 C1772 1.390 . S
C1768 C1762 1.465 . S
C1768 C1767 1.396 . S
C1768 C1769 1.399 . S
C1769 H1755 0.929 . S
C1769 C1768 1.399 . S
C1769 C1770 1.385 . S
C1770 H1756 0.931 . S
C1770 C1769 1.385 . S
C1770 C1771 1.389 . S
C1771 C1770 1.389 . S
C1771 C1772 1.387 . S
C1772 H1757 0.930 . S
C1772 C1767 1.390 . S
C1772 C1771 1.387 . S
H1773 C1785 0.930 1_554 S
H1774 C1787 0.930 . S
H1775 C1788 0.930 . S
H1776 C1792 0.959 1_556 S
H1777 C1792 0.959 . S
H1778 C1792 0.961 . S
H1779 C1793 0.960 . S
H1780 C1793 0.961 . S
H1781 C1793 0.959 . S
H1782 C1796 0.929 . S
H1783 C1797 0.931 . S
H1784 C1799 0.930 . S
C1785 H1773 0.930 1_556 S
C1785 C1786 1.399 . S
C1785 C1790 1.399 . S
C1786 C1785 1.399 . S
C1786 C1787 1.376 . S
C1787 H1774 0.930 . S
C1787 C1786 1.376 . S
C1787 C1788 1.388 . S
C1788 H1775 0.930 . S
C1788 C1787 1.388 . S
C1788 C1789 1.390 . S
C1789 C1788 1.390 . S
C1789 C1790 1.394 . S
C1789 C1795 1.465 . S
C1790 C1785 1.399 . S
C1790 C1789 1.394 . S
C1790 C1791 1.516 . S
C1791 C1790 1.516 . S
C1791 C1792 1.502 1_556 S
C1791 C1793 1.561 1_556 S
C1791 C1794 1.526 . S
C1792 H1776 0.959 1_554 S
C1792 H1777 0.959 . S
C1792 H1778 0.961 . S
C1792 C1791 1.502 1_554 S
C1793 H1779 0.960 . S
C1793 H1780 0.961 . S
C1793 H1781 0.959 . S
C1793 C1791 1.561 1_554 S
C1794 C1791 1.526 . S
C1794 C1795 1.396 . S
C1794 C1799 1.390 . S
C1795 C1789 1.465 . S
C1795 C1794 1.396 . S
C1795 C1796 1.399 . S
C1796 H1782 0.929 . S
C1796 C1795 1.399 . S
C1796 C1797 1.385 . S
C1797 H1783 0.931 . S
C1797 C1796 1.385 . S
C1797 C1798 1.389 . S
C1798 C1797 1.389 . S
C1798 C1799 1.387 . S
C1799 H1784 0.930 . S
C1799 C1794 1.390 . S
C1799 C1798 1.387 . S
H1800 C1812 0.923 1_554 S
H1801 C1814 0.930 . S
H1802 C1815 0.930 . S
H1803 C1819 0.959 . S
H1804 C1819 0.959 . S
H1805 C1819 0.961 . S
H1806 C1820 0.960 . S
H1807 C1820 0.961 . S
H1808 C1820 0.959 . S
H1809 C1823 0.929 . S
H1810 C1824 0.931 . S
H1811 C1826 0.930 . S
C1812 H1800 0.923 1_556 S
C1812 C1813 1.399 . S
C1812 C1817 1.399 . S
C1813 C1812 1.399 . S
C1813 C1814 1.376 . S
C1814 H1801 0.930 . S
C1814 C1813 1.376 . S
C1814 C1815 1.388 . S
C1815 H1802 0.930 . S
C1815 C1814 1.388 . S
C1815 C1816 1.390 . S
C1816 C1815 1.390 . S
C1816 C1817 1.394 . S
C1816 C1822 1.465 . S
C1817 C1812 1.399 . S
C1817 C1816 1.394 . S
C1817 C1818 1.516 . S
C1818 C1817 1.516 . S
C1818 C1819 1.502 . S
C1818 C1820 1.561 1_556 S
C1818 C1821 1.526 . S
C1819 H1803 0.959 . S
C1819 H1804 0.959 . S
C1819 H1805 0.961 . S
C1819 C1818 1.502 . S
C1820 H1806 0.960 . S
C1820 H1807 0.961 . S
C1820 H1808 0.959 . S
C1820 C1818 1.561 1_554 S
C1821 C1818 1.526 . S
C1821 C1822 1.396 . S
C1821 C1826 1.390 . S
C1822 C1816 1.465 . S
C1822 C1821 1.396 . S
C1822 C1823 1.399 . S
C1823 H1809 0.929 . S
C1823 C1822 1.399 . S
C1823 C1824 1.385 . S
C1824 H1810 0.931 . S
C1824 C1823 1.385 . S
C1824 C1825 1.389 . S
C1825 C1824 1.389 . S
C1825 C1826 1.387 . S
C1826 H1811 0.930 . S
C1826 C1821 1.390 . S
C1826 C1825 1.387 . S
H1827 C1839 0.930 . S
H1828 C1841 0.930 . S
H1829 C1842 0.930 . S
H1830 C1846 0.959 . S
H1831 C1846 0.959 . S
H1832 C1846 0.961 . S
H1833 C1847 0.960 1_556 S
H1834 C1847 0.961 . S
H1835 C1847 0.959 . S
H1836 C1850 0.929 . S
H1837 C1851 0.931 . S
H1838 C1853 0.930 . S
C1839 H1827 0.930 . S
C1839 C1840 1.399 . S
C1839 C1844 1.399 . S
C1840 C1839 1.399 . S
C1840 C1841 1.376 . S
C1841 H1828 0.930 . S
C1841 C1840 1.376 . S
C1841 C1842 1.388 . S
C1842 H1829 0.930 . S
C1842 C1841 1.388 . S
C1842 C1843 1.390 . S
C1843 C1842 1.390 . S
C1843 C1844 1.394 . S
C1843 C1849 1.465 . S
C1844 C1839 1.399 . S
C1844 C1843 1.394 . S
C1844 C1845 1.516 . S
C1845 C1844 1.516 . S
C1845 C1846 1.502 . S
C1845 C1847 1.561 . S
C1845 C1848 1.526 . S
C1846 H1830 0.959 . S
C1846 H1831 0.959 . S
C1846 H1832 0.961 . S
C1846 C1845 1.502 . S
C1847 H1833 0.960 1_554 S
C1847 H1834 0.961 . S
C1847 H1835 0.959 . S
C1847 C1845 1.561 . S
C1848 C1845 1.526 . S
C1848 C1849 1.396 . S
C1848 C1853 1.390 . S
C1849 C1843 1.465 . S
C1849 C1848 1.396 . S
C1849 C1850 1.399 . S
C1850 H1836 0.929 . S
C1850 C1849 1.399 . S
C1850 C1851 1.385 . S
C1851 H1837 0.931 . S
C1851 C1850 1.385 . S
C1851 C1852 1.389 . S
C1852 C1851 1.389 . S
C1852 C1853 1.387 . S
C1853 H1838 0.930 . S
C1853 C1848 1.390 . S
C1853 C1852 1.387 . S
H1854 C1866 0.930 . S
H1855 C1868 0.930 1_556 S
H1856 C1869 0.930 1_556 S
H1857 C1873 0.959 . S
H1858 C1873 0.959 . S
H1859 C1873 0.961 . S
H1860 C1874 0.960 . S
H1861 C1874 0.961 . S
H1862 C1874 0.959 . S
H1863 C1877 0.929 . S
H1864 C1878 0.931 . S
H1865 C1880 0.930 . S
C1866 H1854 0.930 . S
C1866 C1867 1.399 . S
C1866 C1871 1.399 . S
C1867 C1866 1.399 . S
C1867 C1868 1.376 . S
C1868 H1855 0.930 1_554 S
C1868 C1867 1.376 . S
C1868 C1869 1.388 . S
C1869 H1856 0.930 1_554 S
C1869 C1868 1.388 . S
C1869 C1870 1.390 . S
C1870 C1869 1.390 . S
C1870 C1871 1.394 . S
C1870 C1876 1.465 . S
C1871 C1866 1.399 . S
C1871 C1870 1.394 . S
C1871 C1872 1.516 . S
C1872 C1871 1.516 . S
C1872 C1873 1.502 . S
C1872 C1874 1.561 . S
C1872 C1875 1.526 . S
C1873 H1857 0.959 . S
C1873 H1858 0.959 . S
C1873 H1859 0.961 . S
C1873 C1872 1.502 . S
C1874 H1860 0.960 . S
C1874 H1861 0.961 . S
C1874 H1862 0.959 . S
C1874 C1872 1.561 . S
C1875 C1872 1.526 . S
C1875 C1876 1.396 . S
C1875 C1880 1.390 . S
C1876 C1870 1.465 . S
C1876 C1875 1.396 . S
C1876 C1877 1.399 . S
C1877 H1863 0.929 . S
C1877 C1876 1.399 . S
C1877 C1878 1.385 . S
C1878 H1864 0.931 . S
C1878 C1877 1.385 . S
C1878 C1879 1.389 . S
C1879 C1878 1.389 . S
C1879 C1880 1.387 . S
C1880 H1865 0.930 . S
C1880 C1875 1.390 . S
C1880 C1879 1.387 . S
H1881 C1893 0.930 . S
H1882 C1895 0.930 1_556 S
H1883 C1896 0.920 1_556 S
H1884 C1900 0.959 . S
H1885 C1900 0.959 . S
H1886 C1900 0.961 . S
H1887 C1901 0.960 . S
H1888 C1901 0.961 . S
H1889 C1901 0.959 . S
H1890 C1904 0.929 . S
H1891 C1905 0.931 . S
H1892 C1907 0.930 . S
C1893 H1881 0.930 . S
C1893 C1894 1.399 . S
C1893 C1898 1.399 . S
C1894 C1893 1.399 . S
C1894 C1895 1.376 . S
C1895 H1882 0.930 1_554 S
C1895 C1894 1.376 . S
C1895 C1896 1.388 . S
C1896 H1883 0.920 1_554 S
C1896 C1895 1.388 . S
C1896 C1897 1.390 . S
C1897 C1896 1.390 . S
C1897 C1898 1.394 . S
C1897 C1903 1.465 . S
C1898 C1893 1.399 . S
C1898 C1897 1.394 . S
C1898 C1899 1.516 . S
C1899 C1898 1.516 . S
C1899 C1900 1.502 . S
C1899 C1901 1.561 . S
C1899 C1902 1.526 . S
C1900 H1884 0.959 . S
C1900 H1885 0.959 . S
C1900 H1886 0.961 . S
C1900 C1899 1.502 . S
C1901 H1887 0.960 . S
C1901 H1888 0.961 . S
C1901 H1889 0.959 . S
C1901 C1899 1.561 . S
C1902 C1899 1.526 . S
C1902 C1903 1.396 . S
C1902 C1907 1.390 . S
C1903 C1897 1.465 . S
C1903 C1902 1.396 . S
C1903 C1904 1.399 . S
C1904 H1890 0.929 . S
C1904 C1903 1.399 . S
C1904 C1905 1.385 . S
C1905 H1891 0.931 . S
C1905 C1904 1.385 . S
C1905 C1906 1.389 . S
C1906 C1905 1.389 . S
C1906 C1907 1.387 . S
C1907 H1892 0.930 . S
C1907 C1902 1.390 . S
C1907 C1906 1.387 . S
H1908 C1920 0.930 . S
H1909 C1922 0.930 . S
H1910 C1923 0.930 . S
H1911 C1927 0.959 . S
H1912 C1927 0.959 . S
H1913 C1927 0.961 . S
H1914 C1928 0.960 . S
H1915 C1928 0.961 . S
H1916 C1928 0.959 . S
H1917 C1931 0.929 . S
H1918 C1932 0.931 . S
H1919 C1934 0.930 . S
C1920 H1908 0.930 . S
C1920 C1921 1.399 . S
C1920 C1925 1.399 . S
C1921 C1920 1.399 . S
C1921 C1922 1.376 . S
C1922 H1909 0.930 . S
C1922 C1921 1.376 . S
C1922 C1923 1.388 . S
C1923 H1910 0.930 . S
C1923 C1922 1.388 . S
C1923 C1924 1.390 . S
C1924 C1923 1.390 . S
C1924 C1925 1.394 . S
C1924 C1930 1.465 . S
C1925 C1920 1.399 . S
C1925 C1924 1.394 . S
C1925 C1926 1.516 . S
C1926 C1925 1.516 . S
C1926 C1927 1.502 . S
C1926 C1928 1.561 . S
C1926 C1929 1.526 . S
C1927 H1911 0.959 . S
C1927 H1912 0.959 . S
C1927 H1913 0.961 . S
C1927 C1926 1.502 . S
C1928 H1914 0.960 . S
C1928 H1915 0.961 . S
C1928 H1916 0.959 . S
C1928 C1926 1.561 . S
C1929 C1926 1.526 . S
C1929 C1930 1.396 . S
C1929 C1934 1.390 . S
C1930 C1924 1.465 . S
C1930 C1929 1.396 . S
C1930 C1931 1.399 . S
C1931 H1917 0.929 . S
C1931 C1930 1.399 . S
C1931 C1932 1.385 . S
C1932 H1918 0.931 . S
C1932 C1931 1.385 . S
C1932 C1933 1.389 . S
C1933 C1932 1.389 . S
C1933 C1934 1.387 . S
C1934 H1919 0.930 . S
C1934 C1929 1.390 . S
C1934 C1933 1.387 . S
H1935 C1947 0.930 . S
H1936 C1949 0.930 . S
H1937 C1950 0.930 . S
H1938 C1954 0.959 . S
H1939 C1954 0.959 . S
H1940 C1954 0.961 . S
H1941 C1955 0.960 . S
H1942 C1955 0.961 . S
H1943 C1955 0.959 . S
H1944 C1958 0.929 . S
H1945 C1959 0.931 . S
H1946 C1961 0.930 . S
C1947 H1935 0.930 . S
C1947 C1948 1.399 . S
C1947 C1952 1.399 . S
C1948 C1947 1.399 . S
C1948 C1949 1.376 . S
C1949 H1936 0.930 . S
C1949 C1948 1.376 . S
C1949 C1950 1.388 . S
C1950 H1937 0.930 . S
C1950 C1949 1.388 . S
C1950 C1951 1.390 . S
C1951 C1950 1.390 . S
C1951 C1952 1.394 . S
C1951 C1957 1.465 . S
C1952 C1947 1.399 . S
C1952 C1951 1.394 . S
C1952 C1953 1.516 . S
C1953 C1952 1.516 . S
C1953 C1954 1.502 . S
C1953 C1955 1.561 . S
C1953 C1956 1.526 . S
C1954 H1938 0.959 . S
C1954 H1939 0.959 . S
C1954 H1940 0.961 . S
C1954 C1953 1.502 . S
C1955 H1941 0.960 . S
C1955 H1942 0.961 . S
C1955 H1943 0.959 . S
C1955 C1953 1.561 . S
C1956 C1953 1.526 . S
C1956 C1957 1.396 . S
C1956 C1961 1.390 . S
C1957 C1951 1.465 . S
C1957 C1956 1.396 . S
C1957 C1958 1.399 . S
C1958 H1944 0.929 . S
C1958 C1957 1.399 . S
C1958 C1959 1.385 . S
C1959 H1945 0.931 . S
C1959 C1958 1.385 . S
C1959 C1960 1.389 . S
C1960 C1959 1.389 . S
C1960 C1961 1.387 . S
C1961 H1946 0.930 . S
C1961 C1956 1.390 . S
C1961 C1960 1.387 . S
H1962 C1974 0.930 . S
H1963 C1976 0.930 . S
H1964 C1977 0.930 . S
H1965 C1981 0.959 . S
H1966 C1981 0.959 . S
H1967 C1981 0.961 . S
H1968 C1982 0.960 . S
H1969 C1982 0.961 . S
H1970 C1982 0.959 . S
H1971 C1985 0.929 . S
H1972 C1986 0.931 . S
H1973 C1988 0.930 . S
C1974 H1962 0.930 . S
C1974 C1975 1.399 . S
C1974 C1979 1.399 . S
C1975 C1974 1.399 . S
C1975 C1976 1.376 . S
C1976 H1963 0.930 . S
C1976 C1975 1.376 . S
C1976 C1977 1.388 . S
C1977 H1964 0.930 . S
C1977 C1976 1.388 . S
C1977 C1978 1.390 . S
C1978 C1977 1.390 . S
C1978 C1979 1.394 . S
C1978 C1984 1.465 . S
C1979 C1974 1.399 . S
C1979 C1978 1.394 . S
C1979 C1980 1.516 . S
C1980 C1979 1.516 . S
C1980 C1981 1.502 . S
C1980 C1982 1.561 . S
C1980 C1983 1.526 . S
C1981 H1965 0.959 . S
C1981 H1966 0.959 . S
C1981 H1967 0.961 . S
C1981 C1980 1.502 . S
C1982 H1968 0.960 . S
C1982 H1969 0.961 . S
C1982 H1970 0.959 . S
C1982 C1980 1.561 . S
C1983 C1980 1.526 . S
C1983 C1984 1.396 . S
C1983 C1988 1.390 . S
C1984 C1978 1.465 . S
C1984 C1983 1.396 . S
C1984 C1985 1.399 . S
C1985 H1971 0.929 . S
C1985 C1984 1.399 . S
C1985 C1986 1.385 . S
C1986 H1972 0.931 . S
C1986 C1985 1.385 . S
C1986 C1987 1.389 . S
C1987 C1986 1.389 . S
C1987 C1988 1.387 . S
C1988 H1973 0.930 . S
C1988 C1983 1.390 . S
C1988 C1987 1.387 . S
H1989 C2001 0.930 . S
H1990 C2003 0.930 . S
H1991 C2004 0.930 . S
H1992 C2008 0.959 . S
H1993 C2008 0.959 . S
H1994 C2008 0.961 . S
H1995 C2009 0.960 . S
H1996 C2009 0.961 . S
H1997 C2009 0.959 . S
H1998 C2012 0.929 . S
H1999 C2013 0.931 . S
H2000 C2015 0.930 1_655 S
C2001 H1989 0.930 . S
C2001 C2002 1.399 . S
C2001 C2006 1.399 . S
C2002 C2001 1.399 . S
C2002 C2003 1.376 . S
C2003 H1990 0.930 . S
C2003 C2002 1.376 . S
C2003 C2004 1.388 . S
C2004 H1991 0.930 . S
C2004 C2003 1.388 . S
C2004 C2005 1.390 . S
C2005 C2004 1.390 . S
C2005 C2006 1.394 . S
C2005 C2011 1.465 . S
C2006 C2001 1.399 . S
C2006 C2005 1.394 . S
C2006 C2007 1.516 . S
C2007 C2006 1.516 . S
C2007 C2008 1.502 . S
C2007 C2009 1.561 1_455 S
C2007 C2010 1.526 . S
C2008 H1992 0.959 . S
C2008 H1993 0.959 . S
C2008 H1994 0.961 . S
C2008 C2007 1.502 . S
C2009 H1995 0.960 . S
C2009 H1996 0.961 . S
C2009 H1997 0.959 . S
C2009 C2007 1.561 1_655 S
C2010 C2007 1.526 . S
C2010 C2011 1.396 . S
C2010 C2015 1.390 . S
C2011 C2005 1.465 . S
C2011 C2010 1.396 . S
C2011 C2012 1.399 . S
C2012 H1998 0.929 . S
C2012 C2011 1.399 . S
C2012 C2013 1.385 . S
C2013 H1999 0.931 . S
C2013 C2012 1.385 . S
C2013 C2014 1.389 . S
C2014 C2013 1.389 . S
C2014 C2015 1.387 . S
C2015 H2000 0.930 1_455 S
C2015 C2010 1.390 . S
C2015 C2014 1.387 . S
H2016 C2028 0.930 . S
H2017 C2030 0.930 . S
H2018 C2031 0.930 . S
H2019 C2035 0.959 . S
H2020 C2035 0.959 . S
H2021 C2035 0.961 . S
H2022 C2036 0.960 . S
H2023 C2036 0.961 . S
H2024 C2036 0.959 . S
H2025 C2039 0.929 . S
H2026 C2040 0.931 . S
H2027 C2042 0.930 . S
C2028 H2016 0.930 . S
C2028 C2029 1.399 . S
C2028 C2033 1.399 . S
C2029 C2028 1.399 . S
C2029 C2030 1.376 . S
C2030 H2017 0.930 . S
C2030 C2029 1.376 . S
C2030 C2031 1.388 . S
C2031 H2018 0.930 . S
C2031 C2030 1.388 . S
C2031 C2032 1.390 . S
C2032 C2031 1.390 . S
C2032 C2033 1.394 . S
C2032 C2038 1.465 . S
C2033 C2028 1.399 . S
C2033 C2032 1.394 . S
C2033 C2034 1.516 . S
C2034 C2033 1.516 . S
C2034 C2035 1.502 . S
C2034 C2036 1.561 . S
C2034 C2037 1.526 . S
C2035 H2019 0.959 . S
C2035 H2020 0.959 . S
C2035 H2021 0.961 . S
C2035 C2034 1.502 . S
C2036 H2022 0.960 . S
C2036 H2023 0.961 . S
C2036 H2024 0.959 . S
C2036 C2034 1.561 . S
C2037 C2034 1.526 . S
C2037 C2038 1.396 . S
C2037 C2042 1.390 . S
C2038 C2032 1.465 . S
C2038 C2037 1.396 . S
C2038 C2039 1.399 . S
C2039 H2025 0.929 . S
C2039 C2038 1.399 . S
C2039 C2040 1.385 . S
C2040 H2026 0.931 . S
C2040 C2039 1.385 . S
C2040 C2041 1.389 . S
C2041 C2040 1.389 . S
C2041 C2042 1.387 . S
C2042 H2027 0.930 . S
C2042 C2037 1.390 . S
C2042 C2041 1.387 . S
H2043 C2055 0.930 . S
H2044 C2057 0.930 . S
H2045 C2058 0.930 . S
H2046 C2062 0.959 . S
H2047 C2062 0.959 . S
H2048 C2062 0.961 . S
H2049 C2063 0.960 . S
H2050 C2063 0.961 . S
H2051 C2063 0.959 . S
H2052 C2066 0.929 . S
H2053 C2067 0.931 . S
H2054 C2069 0.930 . S
C2055 H2043 0.930 . S
C2055 C2056 1.399 1_545 S
C2055 C2060 1.409 . S
C2056 C2055 1.399 1_565 S
C2056 C2057 1.376 . S
C2057 H2044 0.930 . S
C2057 C2056 1.376 . S
C2057 C2058 1.388 . S
C2058 H2045 0.930 . S
C2058 C2057 1.388 . S
C2058 C2059 1.390 . S
C2059 C2058 1.390 . S
C2059 C2060 1.378 1_565 S
C2059 C2065 1.465 . S
C2060 C2055 1.409 . S
C2060 C2059 1.378 1_545 S
C2060 C2061 1.520 . S
C2061 C2060 1.520 . S
C2061 C2062 1.502 . S
C2061 C2063 1.561 . S
C2061 C2064 1.526 . S
C2062 H2046 0.959 . S
C2062 H2047 0.959 . S
C2062 H2048 0.961 . S
C2062 C2061 1.502 . S
C2063 H2049 0.960 . S
C2063 H2050 0.961 . S
C2063 H2051 0.959 . S
C2063 C2061 1.561 . S
C2064 C2061 1.526 . S
C2064 C2065 1.396 1_545 S
C2064 C2069 1.390 . S
C2065 C2059 1.465 . S
C2065 C2064 1.396 1_565 S
C2065 C2066 1.399 . S
C2066 H2052 0.929 . S
C2066 C2065 1.399 . S
C2066 C2067 1.385 . S
C2067 H2053 0.931 . S
C2067 C2066 1.385 . S
C2067 C2068 1.389 . S
C2068 C2067 1.389 . S
C2068 C2069 1.387 1_565 S
C2069 H2054 0.930 . S
C2069 C2064 1.390 . S
C2069 C2068 1.387 1_545 S
H2070 C2082 0.930 . S
H2071 C2084 0.930 . S
H2072 C2085 0.930 . S
H2073 C2089 0.959 . S
H2074 C2089 0.959 . S
H2075 C2089 0.961 . S
H2076 C2090 0.960 . S
H2077 C2090 0.961 . S
H2078 C2090 0.959 . S
H2079 C2093 0.929 . S
H2080 C2094 0.931 . S
H2081 C2096 0.930 . S
C2082 H2070 0.930 . S
C2082 C2083 1.399 1_545 S
C2082 C2087 1.385 . S
C2083 C2082 1.399 1_565 S
C2083 C2084 1.376 . S
C2084 H2071 0.930 . S
C2084 C2083 1.376 . S
C2084 C2085 1.388 . S
C2085 H2072 0.930 . S
C2085 C2084 1.388 . S
C2085 C2086 1.390 . S
C2086 C2085 1.390 . S
C2086 C2087 1.374 1_565 S
C2086 C2092 1.465 . S
C2087 C2082 1.385 . S
C2087 C2086 1.374 1_545 S
C2087 C2088 1.550 . S
C2088 C2087 1.550 . S
C2088 C2089 1.502 . S
C2088 C2090 1.561 . S
C2088 C2091 1.526 . S
C2089 H2073 0.959 . S
C2089 H2074 0.959 . S
C2089 H2075 0.961 . S
C2089 C2088 1.502 . S
C2090 H2076 0.960 . S
C2090 H2077 0.961 . S
C2090 H2078 0.959 . S
C2090 C2088 1.561 . S
C2091 C2088 1.526 . S
C2091 C2092 1.396 1_545 S
C2091 C2096 1.390 . S
C2092 C2086 1.465 . S
C2092 C2091 1.396 1_565 S
C2092 C2093 1.399 . S
C2093 H2079 0.929 . S
C2093 C2092 1.399 . S
C2093 C2094 1.385 . S
C2094 H2080 0.931 . S
C2094 C2093 1.385 . S
C2094 C2095 1.389 . S
C2095 C2094 1.389 . S
C2095 C2096 1.387 1_565 S
C2096 H2081 0.930 . S
C2096 C2091 1.390 . S
C2096 C2095 1.387 1_545 S
H2097 C2109 0.930 . S
H2098 C2111 0.930 . S
H2099 C2112 0.930 . S
H2100 C2116 0.959 . S
H2101 C2116 0.954 . S
H2102 C2116 0.961 . S
H2103 C2117 0.960 . S
H2104 C2117 0.961 . S
H2105 C2117 0.959 . S
H2106 C2120 0.929 . S
H2107 C2121 0.931 . S
H2108 C2123 0.930 . S
C2109 H2097 0.930 . S
C2109 C2110 1.399 . S
C2109 C2114 1.399 . S
C2110 C2109 1.399 . S
C2110 C2111 1.376 . S
C2111 H2098 0.930 . S
C2111 C2110 1.376 . S
C2111 C2112 1.388 . S
C2112 H2099 0.930 . S
C2112 C2111 1.388 . S
C2112 C2113 1.390 . S
C2113 C2112 1.390 . S
C2113 C2114 1.394 . S
C2113 C2119 1.465 . S
C2114 C2109 1.399 . S
C2114 C2113 1.394 . S
C2114 C2115 1.516 1_455 S
C2115 C2114 1.516 1_655 S
C2115 C2116 1.502 1_655 S
C2115 C2117 1.561 . S
C2115 C2118 1.524 . S
C2116 H2100 0.959 . S
C2116 H2101 0.954 . S
C2116 H2102 0.961 . S
C2116 C2115 1.502 1_455 S
C2117 H2103 0.960 . S
C2117 H2104 0.961 . S
C2117 H2105 0.959 . S
C2117 C2115 1.561 . S
C2118 C2115 1.524 . S
C2118 C2119 1.396 1_655 S
C2118 C2123 1.392 . S
C2119 C2113 1.465 . S
C2119 C2118 1.396 1_455 S
C2119 C2120 1.399 . S
C2120 H2106 0.929 . S
C2120 C2119 1.399 . S
C2120 C2121 1.385 . S
C2121 H2107 0.931 . S
C2121 C2120 1.385 . S
C2121 C2122 1.389 . S
C2122 C2121 1.389 . S
C2122 C2123 1.387 1_455 S
C2123 H2108 0.930 . S
C2123 C2118 1.392 . S
C2123 C2122 1.387 1_655 S
H2124 C2136 0.930 . S
H2125 C2138 0.930 . S
H2126 C2139 0.930 . S
H2127 C2143 0.959 . S
H2128 C2143 0.959 . S
H2129 C2143 0.961 . S
H2130 C2144 0.960 . S
H2131 C2144 0.961 . S
H2132 C2144 0.959 . S
H2133 C2147 0.929 . S
H2134 C2148 0.931 . S
H2135 C2150 0.930 . S
C2136 H2124 0.930 . S
C2136 C2137 1.399 . S
C2136 C2141 1.399 . S
C2137 C2136 1.399 . S
C2137 C2138 1.376 . S
C2138 H2125 0.930 . S
C2138 C2137 1.376 . S
C2138 C2139 1.388 . S
C2139 H2126 0.930 . S
C2139 C2138 1.388 . S
C2139 C2140 1.390 . S
C2140 C2139 1.390 . S
C2140 C2141 1.394 . S
C2140 C2146 1.465 . S
C2141 C2136 1.399 . S
C2141 C2140 1.394 . S
C2141 C2142 1.516 . S
C2142 C2141 1.516 . S
C2142 C2143 1.502 . S
C2142 C2144 1.561 . S
C2142 C2145 1.526 . S
C2143 H2127 0.959 . S
C2143 H2128 0.959 . S
C2143 H2129 0.961 . S
C2143 C2142 1.502 . S
C2144 H2130 0.960 . S
C2144 H2131 0.961 . S
C2144 H2132 0.959 . S
C2144 C2142 1.561 . S
C2145 C2142 1.526 . S
C2145 C2146 1.396 . S
C2145 C2150 1.390 . S
C2146 C2140 1.465 . S
C2146 C2145 1.396 . S
C2146 C2147 1.399 . S
C2147 H2133 0.929 . S
C2147 C2146 1.399 . S
C2147 C2148 1.385 . S
C2148 H2134 0.931 . S
C2148 C2147 1.385 . S
C2148 C2149 1.389 . S
C2149 C2148 1.389 . S
C2149 C2150 1.387 . S
C2150 H2135 0.930 . S
C2150 C2145 1.390 . S
C2150 C2149 1.387 . S
H2151 C2163 0.930 . S
H2152 C2165 0.930 . S
H2153 C2166 0.930 . S
H2154 C2170 0.959 . S
H2155 C2170 0.959 . S
H2156 C2170 0.961 . S
H2157 C2171 0.960 . S
H2158 C2171 0.961 . S
H2159 C2171 0.959 . S
H2160 C2174 0.929 . S
H2161 C2175 0.931 . S
H2162 C2177 0.930 . S
C2163 H2151 0.930 . S
C2163 C2164 1.399 . S
C2163 C2168 1.399 . S
C2164 C2163 1.399 . S
C2164 C2165 1.376 . S
C2165 H2152 0.930 . S
C2165 C2164 1.376 . S
C2165 C2166 1.388 . S
C2166 H2153 0.930 . S
C2166 C2165 1.388 . S
C2166 C2167 1.390 . S
C2167 C2166 1.390 . S
C2167 C2168 1.394 . S
C2167 C2173 1.465 . S
C2168 C2163 1.399 . S
C2168 C2167 1.394 . S
C2168 C2169 1.516 . S
C2169 C2168 1.516 . S
C2169 C2170 1.502 . S
C2169 C2171 1.561 . S
C2169 C2172 1.526 . S
C2170 H2154 0.959 . S
C2170 H2155 0.959 . S
C2170 H2156 0.961 . S
C2170 C2169 1.502 . S
C2171 H2157 0.960 . S
C2171 H2158 0.961 . S
C2171 H2159 0.959 . S
C2171 C2169 1.561 . S
C2172 C2169 1.526 . S
C2172 C2173 1.396 . S
C2172 C2177 1.390 . S
C2173 C2167 1.465 . S
C2173 C2172 1.396 . S
C2173 C2174 1.399 . S
C2174 H2160 0.929 . S
C2174 C2173 1.399 . S
C2174 C2175 1.385 . S
C2175 H2161 0.931 . S
C2175 C2174 1.385 . S
C2175 C2176 1.389 . S
C2176 C2175 1.389 . S
C2176 C2177 1.387 . S
C2177 H2162 0.930 . S
C2177 C2172 1.390 . S
C2177 C2176 1.387 . S
H2178 C2190 0.930 . S
H2179 C2192 0.930 . S
H2180 C2193 0.930 . S
H2181 C2197 0.959 . S
H2182 C2197 0.959 . S
H2183 C2197 0.961 . S
H2184 C2198 0.960 . S
H2185 C2198 0.961 . S
H2186 C2198 0.959 . S
H2187 C2201 0.929 . S
H2188 C2202 0.931 . S
H2189 C2204 0.930 . S
C2190 H2178 0.930 . S
C2190 C2191 1.399 . S
C2190 C2195 1.399 . S
C2191 C2190 1.399 . S
C2191 C2192 1.376 . S
C2192 H2179 0.930 . S
C2192 C2191 1.376 . S
C2192 C2193 1.388 . S
C2193 H2180 0.930 . S
C2193 C2192 1.388 . S
C2193 C2194 1.390 . S
C2194 C2193 1.390 . S
C2194 C2195 1.394 . S
C2194 C2200 1.465 . S
C2195 C2190 1.399 . S
C2195 C2194 1.394 . S
C2195 C2196 1.516 . S
C2196 C2195 1.516 . S
C2196 C2197 1.502 . S
C2196 C2198 1.561 . S
C2196 C2199 1.526 . S
C2197 H2181 0.959 . S
C2197 H2182 0.959 . S
C2197 H2183 0.961 . S
C2197 C2196 1.502 . S
C2198 H2184 0.960 . S
C2198 H2185 0.961 . S
C2198 H2186 0.959 . S
C2198 C2196 1.561 . S
C2199 C2196 1.526 . S
C2199 C2200 1.396 . S
C2199 C2204 1.390 . S
C2200 C2194 1.465 . S
C2200 C2199 1.396 . S
C2200 C2201 1.399 . S
C2201 H2187 0.929 . S
C2201 C2200 1.399 . S
C2201 C2202 1.385 . S
C2202 H2188 0.931 . S
C2202 C2201 1.385 . S
C2202 C2203 1.389 . S
C2203 C2202 1.389 . S
C2203 C2204 1.387 . S
C2204 H2189 0.930 . S
C2204 C2199 1.390 . S
C2204 C2203 1.387 . S
H2205 C2217 0.930 . S
H2206 C2219 0.930 . S
H2207 C2220 0.930 . S
H2208 C2224 0.959 . S
H2209 C2224 0.959 . S
H2210 C2224 0.961 . S
H2211 C2225 0.960 . S
H2212 C2225 0.961 . S
H2213 C2225 0.959 . S
H2214 C2228 0.929 . S
H2215 C2229 0.931 . S
H2216 C2231 0.930 . S
C2217 H2205 0.930 . S
C2217 C2218 1.399 . S
C2217 C2222 1.399 . S
C2218 C2217 1.399 . S
C2218 C2219 1.376 . S
C2219 H2206 0.930 . S
C2219 C2218 1.376 . S
C2219 C2220 1.388 . S
C2220 H2207 0.930 . S
C2220 C2219 1.388 . S
C2220 C2221 1.390 . S
C2221 C2220 1.390 . S
C2221 C2222 1.394 . S
C2221 C2227 1.465 . S
C2222 C2217 1.399 . S
C2222 C2221 1.394 . S
C2222 C2223 1.516 . S
C2223 C2222 1.516 . S
C2223 C2224 1.502 . S
C2223 C2225 1.561 . S
C2223 C2226 1.526 . S
C2224 H2208 0.959 . S
C2224 H2209 0.959 . S
C2224 H2210 0.961 . S
C2224 C2223 1.502 . S
C2225 H2211 0.960 . S
C2225 H2212 0.961 . S
C2225 H2213 0.959 . S
C2225 C2223 1.561 . S
C2226 C2223 1.526 . S
C2226 C2227 1.396 . S
C2226 C2231 1.390 . S
C2227 C2221 1.465 . S
C2227 C2226 1.396 . S
C2227 C2228 1.399 . S
C2228 H2214 0.929 . S
C2228 C2227 1.399 . S
C2228 C2229 1.385 . S
C2229 H2215 0.931 . S
C2229 C2228 1.385 . S
C2229 C2230 1.389 . S
C2230 C2229 1.389 . S
C2230 C2231 1.387 . S
C2231 H2216 0.930 . S
C2231 C2226 1.390 . S
C2231 C2230 1.387 . S
H2232 C2244 0.930 . S
H2233 C2246 0.930 . S
H2234 C2247 0.930 . S
H2235 C2251 0.959 . S
H2236 C2251 0.959 . S
H2237 C2251 0.961 . S
H2238 C2252 0.960 . S
H2239 C2252 0.961 . S
H2240 C2252 0.959 . S
H2241 C2255 0.929 . S
H2242 C2256 0.931 . S
H2243 C2258 0.930 . S
C2244 H2232 0.930 . S
C2244 C2245 1.399 . S
C2244 C2249 1.399 . S
C2245 C2244 1.399 . S
C2245 C2246 1.376 1_545 S
C2246 H2233 0.930 . S
C2246 C2245 1.376 1_565 S
C2246 C2247 1.388 . S
C2247 H2234 0.930 . S
C2247 C2246 1.388 . S
C2247 C2248 1.390 1_565 S
C2248 C2247 1.390 1_545 S
C2248 C2249 1.394 . S
C2248 C2254 1.470 1_545 S
C2249 C2244 1.399 . S
C2249 C2248 1.394 . S
C2249 C2250 1.516 . S
C2250 C2249 1.516 . S
C2250 C2251 1.502 . S
C2250 C2252 1.561 . S
C2250 C2253 1.526 . S
C2251 H2235 0.959 . S
C2251 H2236 0.959 . S
C2251 H2237 0.961 . S
C2251 C2250 1.502 . S
C2252 H2238 0.960 . S
C2252 H2239 0.961 . S
C2252 H2240 0.959 . S
C2252 C2250 1.561 . S
C2253 C2250 1.526 . S
C2253 C2254 1.400 1_545 S
C2253 C2258 1.390 . S
C2254 C2248 1.470 1_565 S
C2254 C2253 1.400 1_565 S
C2254 C2255 1.392 . S
C2255 H2241 0.929 . S
C2255 C2254 1.392 . S
C2255 C2256 1.385 . S
C2256 H2242 0.931 . S
C2256 C2255 1.385 . S
C2256 C2257 1.389 1_565 S
C2257 C2256 1.389 1_545 S
C2257 C2258 1.387 . S
C2258 H2243 0.930 . S
C2258 C2253 1.390 . S
C2258 C2257 1.387 . S
H2259 C2271 0.930 . S
H2260 C2273 0.930 . S
H2261 C2274 0.936 1_455 S
H2262 C2278 0.959 . S
H2263 C2278 0.959 . S
H2264 C2278 0.961 . S
H2265 C2279 0.960 . S
H2266 C2279 0.961 . S
H2267 C2279 0.959 . S
H2268 C2282 0.929 . S
H2269 C2283 0.931 . S
H2270 C2285 0.930 . S
C2271 H2259 0.930 . S
C2271 C2272 1.399 . S
C2271 C2276 1.399 . S
C2272 C2271 1.399 . S
C2272 C2273 1.376 . S
C2273 H2260 0.930 . S
C2273 C2272 1.376 . S
C2273 C2274 1.363 . S
C2274 H2261 0.936 1_655 S
C2274 C2273 1.363 . S
C2274 C2275 1.415 . S
C2275 C2274 1.415 . S
C2275 C2276 1.394 . S
C2275 C2281 1.465 . S
C2276 C2271 1.399 . S
C2276 C2275 1.394 . S
C2276 C2277 1.516 . S
C2277 C2276 1.516 . S
C2277 C2278 1.502 . S
C2277 C2279 1.561 1_655 S
C2277 C2280 1.526 . S
C2278 H2262 0.959 . S
C2278 H2263 0.959 . S
C2278 H2264 0.961 . S
C2278 C2277 1.502 . S
C2279 H2265 0.960 . S
C2279 H2266 0.961 . S
C2279 H2267 0.959 . S
C2279 C2277 1.561 1_455 S
C2280 C2277 1.526 . S
C2280 C2281 1.396 . S
C2280 C2285 1.390 . S
C2281 C2275 1.465 . S
C2281 C2280 1.396 . S
C2281 C2282 1.399 1_655 S
C2282 H2268 0.929 . S
C2282 C2281 1.399 1_455 S
C2282 C2283 1.385 . S
C2283 H2269 0.931 . S
C2283 C2282 1.385 . S
C2283 C2284 1.389 1_455 S
C2284 C2283 1.389 1_655 S
C2284 C2285 1.387 . S
C2285 H2270 0.930 . S
C2285 C2280 1.390 . S
C2285 C2284 1.387 . S
H2286 C2298 0.930 . S
H2287 C2300 0.930 . S
H2288 C2301 0.930 . S
H2289 C2305 0.959 . S
H2290 C2305 0.959 . S
H2291 C2305 0.961 . S
H2292 C2306 0.960 . S
H2293 C2306 0.961 . S
H2294 C2306 0.959 . S
H2295 C2309 0.929 . S
H2296 C2310 0.931 . S
H2297 C2312 0.930 . S
C2298 H2286 0.930 . S
C2298 C2299 1.399 . S
C2298 C2303 1.399 . S
C2299 C2298 1.399 . S
C2299 C2300 1.376 . S
C2300 H2287 0.930 . S
C2300 C2299 1.376 . S
C2300 C2301 1.388 . S
C2301 H2288 0.930 . S
C2301 C2300 1.388 . S
C2301 C2302 1.390 . S
C2302 C2301 1.390 . S
C2302 C2303 1.394 . S
C2302 C2308 1.465 . S
C2303 C2298 1.399 . S
C2303 C2302 1.394 . S
C2303 C2304 1.516 . S
C2304 C2303 1.516 . S
C2304 C2305 1.502 . S
C2304 C2306 1.561 . S
C2304 C2307 1.526 . S
C2305 H2289 0.959 . S
C2305 H2290 0.959 . S
C2305 H2291 0.961 . S
C2305 C2304 1.502 . S
C2306 H2292 0.960 . S
C2306 H2293 0.961 . S
C2306 H2294 0.959 . S
C2306 C2304 1.561 . S
C2307 C2304 1.526 . S
C2307 C2308 1.396 . S
C2307 C2312 1.390 . S
C2308 C2302 1.465 . S
C2308 C2307 1.396 . S
C2308 C2309 1.399 . S
C2309 H2295 0.929 . S
C2309 C2308 1.399 . S
C2309 C2310 1.385 . S
C2310 H2296 0.931 . S
C2310 C2309 1.385 . S
C2310 C2311 1.389 . S
C2311 C2310 1.389 . S
C2311 C2312 1.387 . S
C2312 H2297 0.930 . S
C2312 C2307 1.390 . S
C2312 C2311 1.387 . S
H2313 C2325 0.930 . S
H2314 C2327 0.930 . S
H2315 C2328 0.930 . S
H2316 C2332 0.959 . S
H2317 C2332 0.959 . S
H2318 C2332 0.961 . S
H2319 C2333 0.960 . S
H2320 C2333 0.961 . S
H2321 C2333 0.959 . S
H2322 C2336 0.929 . S
H2323 C2337 0.931 . S
H2324 C2339 0.930 . S
C2325 H2313 0.930 . S
C2325 C2326 1.399 . S
C2325 C2330 1.399 . S
C2326 C2325 1.399 . S
C2326 C2327 1.376 . S
C2327 H2314 0.930 . S
C2327 C2326 1.376 . S
C2327 C2328 1.388 . S
C2328 H2315 0.930 . S
C2328 C2327 1.388 . S
C2328 C2329 1.390 . S
C2329 C2328 1.390 . S
C2329 C2330 1.394 . S
C2329 C2335 1.465 . S
C2330 C2325 1.399 . S
C2330 C2329 1.394 . S
C2330 C2331 1.516 . S
C2331 C2330 1.516 . S
C2331 C2332 1.502 . S
C2331 C2333 1.561 . S
C2331 C2334 1.526 . S
C2332 H2316 0.959 . S
C2332 H2317 0.959 . S
C2332 H2318 0.961 . S
C2332 C2331 1.502 . S
C2333 H2319 0.960 . S
C2333 H2320 0.961 . S
C2333 H2321 0.959 . S
C2333 C2331 1.561 . S
C2334 C2331 1.526 . S
C2334 C2335 1.396 . S
C2334 C2339 1.390 . S
C2335 C2329 1.465 . S
C2335 C2334 1.396 . S
C2335 C2336 1.399 . S
C2336 H2322 0.929 . S
C2336 C2335 1.399 . S
C2336 C2337 1.385 . S
C2337 H2323 0.931 . S
C2337 C2336 1.385 . S
C2337 C2338 1.389 . S
C2338 C2337 1.389 . S
C2338 C2339 1.387 . S
C2339 H2324 0.930 . S
C2339 C2334 1.390 . S
C2339 C2338 1.387 . S
H2340 C2352 0.930 . S
H2341 C2354 0.930 . S
H2342 C2355 0.930 . S
H2343 C2359 0.959 . S
H2344 C2359 0.959 . S
H2345 C2359 0.961 . S
H2346 C2360 0.960 . S
H2347 C2360 0.961 . S
H2348 C2360 0.959 . S
H2349 C2363 0.929 . S
H2350 C2364 0.931 . S
H2351 C2366 0.930 . S
C2352 H2340 0.930 . S
C2352 C2353 1.399 . S
C2352 C2357 1.399 . S
C2353 C2352 1.399 . S
C2353 C2354 1.376 . S
C2354 H2341 0.930 . S
C2354 C2353 1.376 . S
C2354 C2355 1.388 . S
C2355 H2342 0.930 . S
C2355 C2354 1.388 . S
C2355 C2356 1.390 . S
C2356 C2355 1.390 . S
C2356 C2357 1.394 . S
C2356 C2362 1.465 . S
C2357 C2352 1.399 . S
C2357 C2356 1.394 . S
C2357 C2358 1.516 . S
C2358 C2357 1.516 . S
C2358 C2359 1.502 . S
C2358 C2360 1.561 . S
C2358 C2361 1.526 . S
C2359 H2343 0.959 . S
C2359 H2344 0.959 . S
C2359 H2345 0.961 . S
C2359 C2358 1.502 . S
C2360 H2346 0.960 . S
C2360 H2347 0.961 . S
C2360 H2348 0.959 . S
C2360 C2358 1.561 . S
C2361 C2358 1.526 . S
C2361 C2362 1.396 . S
C2361 C2366 1.390 . S
C2362 C2356 1.465 . S
C2362 C2361 1.396 . S
C2362 C2363 1.399 . S
C2363 H2349 0.929 . S
C2363 C2362 1.399 . S
C2363 C2364 1.385 . S
C2364 H2350 0.931 . S
C2364 C2363 1.385 . S
C2364 C2365 1.389 . S
C2365 C2364 1.389 . S
C2365 C2366 1.387 . S
C2366 H2351 0.930 . S
C2366 C2361 1.390 . S
C2366 C2365 1.387 . S
H2367 C2379 0.930 . S
H2368 C2381 0.930 . S
H2369 C2382 0.930 . S
H2370 C2386 0.959 . S
H2371 C2386 0.959 . S
H2372 C2386 0.961 . S
H2373 C2387 0.960 . S
H2374 C2387 0.961 . S
H2375 C2387 0.959 . S
H2376 C2390 0.929 . S
H2377 C2391 0.931 . S
H2378 C2393 0.930 . S
C2379 H2367 0.930 . S
C2379 C2380 1.399 . S
C2379 C2384 1.399 . S
C2380 C2379 1.399 . S
C2380 C2381 1.376 . S
C2381 H2368 0.930 . S
C2381 C2380 1.376 . S
C2381 C2382 1.388 . S
C2382 H2369 0.930 . S
C2382 C2381 1.388 . S
C2382 C2383 1.390 . S
C2383 C2382 1.390 . S
C2383 C2384 1.394 . S
C2383 C2389 1.465 . S
C2384 C2379 1.399 . S
C2384 C2383 1.394 . S
C2384 C2385 1.516 . S
C2385 C2384 1.516 . S
C2385 C2386 1.502 . S
C2385 C2387 1.561 . S
C2385 C2388 1.526 . S
C2386 H2370 0.959 . S
C2386 H2371 0.959 . S
C2386 H2372 0.961 . S
C2386 C2385 1.502 . S
C2387 H2373 0.960 . S
C2387 H2374 0.961 . S
C2387 H2375 0.959 . S
C2387 C2385 1.561 . S
C2388 C2385 1.526 . S
C2388 C2389 1.396 . S
C2388 C2393 1.390 . S
C2389 C2383 1.465 . S
C2389 C2388 1.396 . S
C2389 C2390 1.399 . S
C2390 H2376 0.929 . S
C2390 C2389 1.399 . S
C2390 C2391 1.385 . S
C2391 H2377 0.931 . S
C2391 C2390 1.385 . S
C2391 C2392 1.389 . S
C2392 C2391 1.389 . S
C2392 C2393 1.387 . S
C2393 H2378 0.930 . S
C2393 C2388 1.390 . S
C2393 C2392 1.387 . S
H2394 C2406 0.930 . S
H2395 C2408 0.930 . S
H2396 C2409 0.930 . S
H2397 C2413 0.959 . S
H2398 C2413 0.959 . S
H2399 C2413 0.961 . S
H2400 C2414 0.960 . S
H2401 C2414 0.961 . S
H2402 C2414 0.959 . S
H2403 C2417 0.929 . S
H2404 C2418 0.931 . S
H2405 C2420 0.930 . S
C2406 H2394 0.930 . S
C2406 C2407 1.399 . S
C2406 C2411 1.399 . S
C2407 C2406 1.399 . S
C2407 C2408 1.376 . S
C2408 H2395 0.930 . S
C2408 C2407 1.376 . S
C2408 C2409 1.388 . S
C2409 H2396 0.930 . S
C2409 C2408 1.388 . S
C2409 C2410 1.390 . S
C2410 C2409 1.390 . S
C2410 C2411 1.394 . S
C2410 C2416 1.465 . S
C2411 C2406 1.399 . S
C2411 C2410 1.394 . S
C2411 C2412 1.516 . S
C2412 C2411 1.516 . S
C2412 C2413 1.502 . S
C2412 C2414 1.561 . S
C2412 C2415 1.526 . S
C2413 H2397 0.959 . S
C2413 H2398 0.959 . S
C2413 H2399 0.961 . S
C2413 C2412 1.502 . S
C2414 H2400 0.960 . S
C2414 H2401 0.961 . S
C2414 H2402 0.959 . S
C2414 C2412 1.561 . S
C2415 C2412 1.526 . S
C2415 C2416 1.396 . S
C2415 C2420 1.390 . S
C2416 C2410 1.465 . S
C2416 C2415 1.396 . S
C2416 C2417 1.399 . S
C2417 H2403 0.929 . S
C2417 C2416 1.399 . S
C2417 C2418 1.385 . S
C2418 H2404 0.931 . S
C2418 C2417 1.385 . S
C2418 C2419 1.389 . S
C2419 C2418 1.389 . S
C2419 C2420 1.387 . S
C2420 H2405 0.930 . S
C2420 C2415 1.390 . S
C2420 C2419 1.387 . S
H2421 C2433 0.930 . S
H2422 C2435 0.930 . S
H2423 C2436 0.930 . S
H2424 C2440 0.959 . S
H2425 C2440 0.959 . S
H2426 C2440 0.961 . S
H2427 C2441 0.960 . S
H2428 C2441 0.961 . S
H2429 C2441 0.959 . S
H2430 C2444 0.929 . S
H2431 C2445 0.931 . S
H2432 C2447 0.930 . S
C2433 H2421 0.930 . S
C2433 C2434 1.399 . S
C2433 C2438 1.399 . S
C2434 C2433 1.399 . S
C2434 C2435 1.376 . S
C2435 H2422 0.930 . S
C2435 C2434 1.376 . S
C2435 C2436 1.388 . S
C2436 H2423 0.930 . S
C2436 C2435 1.388 . S
C2436 C2437 1.390 . S
C2437 C2436 1.390 . S
C2437 C2438 1.394 . S
C2437 C2443 1.465 . S
C2438 C2433 1.399 . S
C2438 C2437 1.394 . S
C2438 C2439 1.516 . S
C2439 C2438 1.516 . S
C2439 C2440 1.502 . S
C2439 C2441 1.561 . S
C2439 C2442 1.526 . S
C2440 H2424 0.959 . S
C2440 H2425 0.959 . S
C2440 H2426 0.961 . S
C2440 C2439 1.502 . S
C2441 H2427 0.960 . S
C2441 H2428 0.961 . S
C2441 H2429 0.959 . S
C2441 C2439 1.561 . S
C2442 C2439 1.526 . S
C2442 C2443 1.396 . S
C2442 C2447 1.390 . S
C2443 C2437 1.465 . S
C2443 C2442 1.396 . S
C2443 C2444 1.399 . S
C2444 H2430 0.929 . S
C2444 C2443 1.399 . S
C2444 C2445 1.385 . S
C2445 H2431 0.931 . S
C2445 C2444 1.385 . S
C2445 C2446 1.389 . S
C2446 C2445 1.389 . S
C2446 C2447 1.387 . S
C2447 H2432 0.930 . S
C2447 C2442 1.390 . S
C2447 C2446 1.387 . S
H2448 C2460 0.930 . S
H2449 C2462 0.930 . S
H2450 C2463 0.930 . S
H2451 C2467 0.959 . S
H2452 C2467 0.959 . S
H2453 C2467 0.961 . S
H2454 C2468 0.960 . S
H2455 C2468 0.961 . S
H2456 C2468 0.959 . S
H2457 C2471 0.929 . S
H2458 C2472 0.931 . S
H2459 C2474 0.930 . S
C2460 H2448 0.930 . S
C2460 C2461 1.399 . S
C2460 C2465 1.399 . S
C2461 C2460 1.399 . S
C2461 C2462 1.376 . S
C2462 H2449 0.930 . S
C2462 C2461 1.376 . S
C2462 C2463 1.388 . S
C2463 H2450 0.930 . S
C2463 C2462 1.388 . S
C2463 C2464 1.390 . S
C2464 C2463 1.390 . S
C2464 C2465 1.394 . S
C2464 C2470 1.465 . S
C2465 C2460 1.399 . S
C2465 C2464 1.394 . S
C2465 C2466 1.516 . S
C2466 C2465 1.516 . S
C2466 C2467 1.502 . S
C2466 C2468 1.561 . S
C2466 C2469 1.526 . S
C2467 H2451 0.959 . S
C2467 H2452 0.959 . S
C2467 H2453 0.961 . S
C2467 C2466 1.502 . S
C2468 H2454 0.960 . S
C2468 H2455 0.961 . S
C2468 H2456 0.959 . S
C2468 C2466 1.561 . S
C2469 C2466 1.526 . S
C2469 C2470 1.396 . S
C2469 C2474 1.390 . S
C2470 C2464 1.465 . S
C2470 C2469 1.396 . S
C2470 C2471 1.399 . S
C2471 H2457 0.929 . S
C2471 C2470 1.399 . S
C2471 C2472 1.385 . S
C2472 H2458 0.931 . S
C2472 C2471 1.385 . S
C2472 C2473 1.389 . S
C2473 C2472 1.389 . S
C2473 C2474 1.387 . S
C2474 H2459 0.930 . S
C2474 C2469 1.390 . S
C2474 C2473 1.387 . S
H2475 C2487 0.930 . S
H2476 C2489 0.930 . S
H2477 C2490 0.930 . S
H2478 C2494 0.959 . S
H2479 C2494 0.959 . S
H2480 C2494 0.961 . S
H2481 C2495 0.960 . S
H2482 C2495 0.961 . S
H2483 C2495 0.959 . S
H2484 C2498 0.929 . S
H2485 C2499 0.931 . S
H2486 C2501 0.930 . S
C2487 H2475 0.930 . S
C2487 C2488 1.399 . S
C2487 C2492 1.399 . S
C2488 C2487 1.399 . S
C2488 C2489 1.376 1_655 S
C2489 H2476 0.930 . S
C2489 C2488 1.376 1_455 S
C2489 C2490 1.388 . S
C2490 H2477 0.930 . S
C2490 C2489 1.388 . S
C2490 C2491 1.390 1_455 S
C2491 C2490 1.390 1_655 S
C2491 C2492 1.394 . S
C2491 C2497 1.458 1_655 S
C2492 C2487 1.399 . S
C2492 C2491 1.394 . S
C2492 C2493 1.516 . S
C2493 C2492 1.516 . S
C2493 C2494 1.502 . S
C2493 C2495 1.561 . S
C2493 C2496 1.526 . S
C2494 H2478 0.959 . S
C2494 H2479 0.959 . S
C2494 H2480 0.961 . S
C2494 C2493 1.502 . S
C2495 H2481 0.960 . S
C2495 H2482 0.961 . S
C2495 H2483 0.959 . S
C2495 C2493 1.561 . S
C2496 C2493 1.526 . S
C2496 C2497 1.390 1_655 S
C2496 C2501 1.390 . S
C2497 C2491 1.458 1_455 S
C2497 C2496 1.390 1_455 S
C2497 C2498 1.410 . S
C2498 H2484 0.929 . S
C2498 C2497 1.410 . S
C2498 C2499 1.385 . S
C2499 H2485 0.931 . S
C2499 C2498 1.385 . S
C2499 C2500 1.351 1_455 S
C2500 C2499 1.351 1_655 S
C2500 C2501 1.459 . S
C2501 H2486 0.930 . S
C2501 C2496 1.390 . S
C2501 C2500 1.459 . S
H2502 C2514 0.930 . S
H2503 C2516 0.930 . S
H2504 C2517 0.930 . S
H2505 C2521 0.959 . S
H2506 C2521 0.959 . S
H2507 C2521 0.961 . S
H2508 C2522 0.960 . S
H2509 C2522 0.961 . S
H2510 C2522 0.959 . S
H2511 C2525 0.929 . S
H2512 C2526 0.931 . S
H2513 C2528 0.930 . S
C2514 H2502 0.930 . S
C2514 C2515 1.399 . S
C2514 C2519 1.399 . S
C2515 C2514 1.399 . S
C2515 C2516 1.376 . S
C2516 H2503 0.930 . S
C2516 C2515 1.376 . S
C2516 C2517 1.388 . S
C2517 H2504 0.930 . S
C2517 C2516 1.388 . S
C2517 C2518 1.390 . S
C2518 C2517 1.390 . S
C2518 C2519 1.394 . S
C2518 C2524 1.465 . S
C2519 C2514 1.399 . S
C2519 C2518 1.394 . S
C2519 C2520 1.516 . S
C2520 C2519 1.516 . S
C2520 C2521 1.502 . S
C2520 C2522 1.561 . S
C2520 C2523 1.526 . S
C2521 H2505 0.959 . S
C2521 H2506 0.959 . S
C2521 H2507 0.961 . S
C2521 C2520 1.502 . S
C2522 H2508 0.960 . S
C2522 H2509 0.961 . S
C2522 H2510 0.959 . S
C2522 C2520 1.561 . S
C2523 C2520 1.526 . S
C2523 C2524 1.396 . S
C2523 C2528 1.390 . S
C2524 C2518 1.465 . S
C2524 C2523 1.396 . S
C2524 C2525 1.399 . S
C2525 H2511 0.929 . S
C2525 C2524 1.399 . S
C2525 C2526 1.385 . S
C2526 H2512 0.931 . S
C2526 C2525 1.385 . S
C2526 C2527 1.389 . S
C2527 C2526 1.389 . S
C2527 C2528 1.387 . S
C2528 H2513 0.930 . S
C2528 C2523 1.390 . S
C2528 C2527 1.387 . S
H2529 C2541 0.930 . S
H2530 C2543 0.930 . S
H2531 C2544 0.930 1_565 S
H2532 C2548 0.959 . S
H2533 C2548 0.959 . S
H2534 C2548 0.961 . S
H2535 C2549 0.960 . S
H2536 C2549 0.961 . S
H2537 C2549 0.959 . S
H2538 C2552 0.929 . S
H2539 C2553 0.931 . S
H2540 C2555 0.930 . S
C2541 H2529 0.930 . S
C2541 C2542 1.399 . S
C2541 C2546 1.399 . S
C2542 C2541 1.399 . S
C2542 C2543 1.376 . S
C2543 H2530 0.930 . S
C2543 C2542 1.376 . S
C2543 C2544 1.388 . S
C2544 H2531 0.930 1_545 S
C2544 C2543 1.388 . S
C2544 C2545 1.390 . S
C2545 C2544 1.390 . S
C2545 C2546 1.394 . S
C2545 C2551 1.465 . S
C2546 C2541 1.399 . S
C2546 C2545 1.394 . S
C2546 C2547 1.516 . S
C2547 C2546 1.516 . S
C2547 C2548 1.502 . S
C2547 C2549 1.561 . S
C2547 C2550 1.526 . S
C2548 H2532 0.959 . S
C2548 H2533 0.959 . S
C2548 H2534 0.961 . S
C2548 C2547 1.502 . S
C2549 H2535 0.960 . S
C2549 H2536 0.961 . S
C2549 H2537 0.959 . S
C2549 C2547 1.561 . S
C2550 C2547 1.526 . S
C2550 C2551 1.396 . S
C2550 C2555 1.390 . S
C2551 C2545 1.465 . S
C2551 C2550 1.396 . S
C2551 C2552 1.399 1_545 S
C2552 H2538 0.929 . S
C2552 C2551 1.399 1_565 S
C2552 C2553 1.385 . S
C2553 H2539 0.931 . S
C2553 C2552 1.385 . S
C2553 C2554 1.376 1_565 S
C2554 C2553 1.376 1_545 S
C2554 C2555 1.387 . S
C2555 H2540 0.930 . S
C2555 C2550 1.390 . S
C2555 C2554 1.387 . S
C625 C8 1.543 . S
C637 C440 1.480 1_655 S
C652 C18 1.482 . S
C664 C453 1.555 . S
C691 C482 1.554 1_545 S
C679 C31 1.516 . S
C706 C34 1.523 . S
C718 C495 1.529 . S
C733 C5 1.549 . S
C745 C516 1.522 . S
C760 C21 1.481 . S
C772 C545 1.513 . S
C787 C47 1.528 . S
C799 C524 1.480 . S
C826 C537 1.537 . S
C814 C57 1.545 . S
C853 C503 1.540 1_545 S
C841 C70 1.486 . S
C868 C73 1.438 . S
C880 C474 1.520 . S
C907 C432 1.544 1_655 S
C895 C44 1.559 . S
C922 C60 1.537 . S
C934 C461 1.487 . S
C949 C86 1.521 . S
C961 C566 1.538 . S
C976 C96 1.568 . S
C988 C579 1.507 . S
C1015 C608 1.483 . S
C1003 C109 1.575 . S
C1030 C112 1.585 . S
C1042 C243 1.570 . S
C1057 C83 1.604 . S
C1069 C264 1.556 . S
C1084 C99 1.497 . S
C1096 C293 1.536 . S
C1111 C125 1.501 . S
C1123 C272 1.538 . S
C1138 C135 1.498 . S
C1150 C285 1.485 . S
C1177 C251 1.585 . S
C1165 C148 1.529 . S
C1204 C600 1.530 . S
C1192 C151 1.535 . S
C1231 C558 1.565 . S
C1219 C122 1.575 . S
C1258 C587 1.569 . S
C1246 C138 1.509 . S
C1273 C164 1.501 . S
C1285 C314 1.520 . S
C1300 C174 1.517 . S
C1312 C327 1.568 . S
C1327 C187 1.591 . S
C1339 C356 1.567 . S
C1354 C190 1.550 . S
C1366 C369 1.638 . S
C1393 C390 1.609 . S
C1381 C161 1.553 . S
C1420 C419 1.498 . S
C1408 C177 1.581 . S
C1447 C398 1.532 . S
C1435 C203 1.579 . S
C1474 C411 1.559 . S
C1462 C213 1.555 . S
C1489 C226 1.573 . S
C1501 C377 1.572 . S
C1528 C348 1.511 . S
C1516 C229 1.507 . S
C1543 C200 1.530 . S
C1555 C306 1.502 . S
C1582 C335 1.566 . S
C1570 C216 1.503 . S
C1609 C246 1.315 . S
C1597 C0 1.318 . S
C1624 C23 1.335 . S
C1636 C267 1.217 . S
C1663 C295 1.219 . S
C1651 C36 1.389 . S
C1690 C316 1.330 . S
C1678 C26 1.311 1_556 S
C1717 C330 1.285 . S
C1705 C10 1.349 1_556 S
C1744 C358 1.304 . S
C1732 C13 1.293 . S
C1759 C39 1.372 . S
C1771 C351 1.329 . S
C1786 C62 1.362 . S
C1798 C309 1.154 . S
C1813 C75 1.385 . S
C1825 C337 1.262 . S
C1840 C65 1.360 . S
C1852 C274 1.329 . S
C1879 C288 1.277 . S
C1867 C49 1.364 . S
C1894 C52 1.339 . S
C1906 C253 1.349 . S
C1933 C372 1.256 . S
C1921 C78 1.378 . S
C1948 C101 1.379 . S
C1960 C393 1.320 . S
C1975 C114 1.414 . S
C1987 C421 1.363 . S
C2014 C442 1.294 . S
C2002 C104 1.311 . S
C2029 C88 1.351 . S
C2041 C456 1.225 . S
C2056 C91 1.294 . S
C2068 C484 1.198 . S
C2083 C117 1.335 . S
C2095 C477 1.171 . S
C2110 C140 1.322 . S
C2122 C435 1.113 . S
C2149 C463 1.255 . S
C2137 C153 1.403 . S
C2164 C143 1.347 . S
C2176 C400 1.277 . S
C2191 C127 1.410 . S
C2203 C414 1.302 . S
C2230 C379 1.304 . S
C2218 C130 1.390 . S
C2257 C498 1.141 1_545 S
C2245 C156 1.283 . S
C2272 C179 1.298 . S
C2284 C519 1.230 1_655 S
C2299 C192 1.386 . S
C2311 C547 1.223 . S
C2338 C568 1.203 . S
C2326 C182 1.361 . S
C2365 C582 1.335 . S
C2353 C166 1.395 . S
C2380 C169 1.400 . S
C2392 C610 1.235 . S
C2407 C195 1.395 . S
C2419 C603 1.185 . S
C2434 C218 1.420 . S
C2446 C561 1.200 . S
C2473 C589 1.352 . S
C2461 C231 1.413 . S
C2500 C526 1.230 1_655 S
C2488 C221 1.283 . S
C2527 C540 1.258 . S
C2515 C205 1.361 . S
C2542 C208 1.282 . S
C2554 C505 1.279 1_545 S
