# Generated by pormake.
# Topology anh, (6,3)-cn, num edge types: 1
# Building blocks:
#     Node 0, Type 0, BuildingBlock: BETDAH_clean_sbu_0, # of connection points: 6
#     Node 1, Type 0, BuildingBlock: BETDAH_clean_sbu_0, # of connection points: 6
#     Node 2, Type 0, BuildingBlock: BETDAH_clean_sbu_0, # of connection points: 6
#     Node 3, Type 1, BuildingBlock: CUQRIR_clean_linker_1, # of connection points: 3
#     Node 4, Type 1, BuildingBlock: CUQRIR_clean_linker_1, # of connection points: 3
#     Node 5, Type 1, BuildingBlock: CUQRIR_clean_linker_1, # of connection points: 3
#     Node 6, Type 1, BuildingBlock: CUQRIR_clean_linker_1, # of connection points: 3
#     Node 7, Type 1, BuildingBlock: CUQRIR_clean_linker_1, # of connection points: 3
#     Node 8, Type 1, BuildingBlock: CUQRIR_clean_linker_1, # of connection points: 3
#     Edge 9, Type (0, 1), BuildingBlock: OJICUG_clean_linker_0, # of connection points: 2
#     Edge 10, Type (0, 1), BuildingBlock: OJICUG_clean_linker_0, # of connection points: 2
#     Edge 11, Type (0, 1), BuildingBlock: OJICUG_clean_linker_0, # of connection points: 2
#     Edge 12, Type (0, 1), BuildingBlock: OJICUG_clean_linker_0, # of connection points: 2
#     Edge 13, Type (0, 1), BuildingBlock: OJICUG_clean_linker_0, # of connection points: 2
#     Edge 14, Type (0, 1), BuildingBlock: OJICUG_clean_linker_0, # of connection points: 2
#     Edge 15, Type (0, 1), BuildingBlock: OJICUG_clean_linker_0, # of connection points: 2
#     Edge 16, Type (0, 1), BuildingBlock: OJICUG_clean_linker_0, # of connection points: 2
#     Edge 17, Type (0, 1), BuildingBlock: OJICUG_clean_linker_0, # of connection points: 2
#     Edge 18, Type (0, 1), BuildingBlock: OJICUG_clean_linker_0, # of connection points: 2
#     Edge 19, Type (0, 1), BuildingBlock: OJICUG_clean_linker_0, # of connection points: 2
#     Edge 20, Type (0, 1), BuildingBlock: OJICUG_clean_linker_0, # of connection points: 2
#     Edge 21, Type (0, 1), BuildingBlock: OJICUG_clean_linker_0, # of connection points: 2
#     Edge 22, Type (0, 1), BuildingBlock: OJICUG_clean_linker_0, # of connection points: 2
#     Edge 23, Type (0, 1), BuildingBlock: OJICUG_clean_linker_0, # of connection points: 2
#     Edge 24, Type (0, 1), BuildingBlock: OJICUG_clean_linker_0, # of connection points: 2
#     Edge 25, Type (0, 1), BuildingBlock: OJICUG_clean_linker_0, # of connection points: 2
#     Edge 26, Type (0, 1), BuildingBlock: OJICUG_clean_linker_0, # of connection points: 2
# Relax obj value: 0.281
# Max RMSD: 0.228
# Mean RMSD: 0.175
data_MOF--net-anh--node1-BETDAH_clean_sbu_0--node2-CUQRIR_clean_linker_1--edge1-OJICUG_clean_linker_0
_symmetry_space_group_name_H-M    P1
_symmetry_Int_Tables_number       1
_symmetry_cell_setting            triclinic
loop_
_symmetry_equiv_pos_as_xyz
'x, y, z'
_cell_length_a     20.890258
_cell_length_b     26.701654
_cell_length_c     33.089536
_cell_angle_alpha  88.215161
_cell_angle_beta   90.053133
_cell_angle_gamma 133.57244
loop_
_atom_site_label
_atom_site_type_symbol
_atom_site_fract_x
_atom_site_fract_y
_atom_site_fract_z
_atom_type_partial_charge
Ho0 Ho 0.21913 0.47006 0.16228 0.0
Ho1 Ho 1.10818 0.48651 0.14795 0.0
C2 C 0.31058 0.62846 0.16016 0.0
C3 C 0.34037 0.4691 0.17214 0.0
C4 C 0.39209 0.48442 0.20828 0.0
C5 C 0.46919 0.55271 0.21625 0.0
C6 C 0.52695 0.5656 0.24531 0.0
C7 C 0.51088 0.50996 0.26507 0.0
C8 C 0.42361 0.44415 0.26434 0.0
C9 C 0.36609 0.43089 0.23493 0.0
C10 C 0.14739 0.46314 0.23386 0.0
C11 C 1.01921 0.33281 0.16201 0.0
C12 C 0.99895 0.49847 0.13447 0.0
C13 C 0.92442 0.45762 0.10669 0.0
C14 C 0.83806 0.40412 0.12212 0.0
C15 C 0.7668 0.36923 0.09647 0.0
C16 C 0.78043 0.38974 0.05509 0.0
C17 C 0.86716 0.43466 0.03889 0.0
C18 C 0.9387 0.46929 0.0645 0.0
C19 C 0.14369 0.45693 0.07743 0.0
O20 O 0.32431 0.58717 0.1637 0.0
O21 O 0.22911 0.60112 0.15532 0.0
O22 O 0.25655 0.41301 0.17426 0.0
O23 O 0.35549 0.52077 0.15453 0.0
O24 O 0.15842 0.4232 0.22444 0.0
O25 O 0.17533 0.5058 0.20481 0.0
O26 O 1.01273 0.37602 0.17336 0.0
O27 O 1.09599 0.36016 0.14611 0.0
O28 O 1.07802 0.54058 0.11759 0.0
O29 O 0.99155 0.46464 0.1665 0.0
O30 O 1.06633 0.42387 0.09267 0.0
O31 O 0.19887 0.49868 0.10324 0.0
H32 H 0.48861 0.59597 0.19802 0.0
H33 H 0.58944 0.61852 0.24746 0.0
H34 H 0.40384 0.40049 0.28212 0.0
H35 H 0.30402 0.37805 0.23142 0.0
H36 H 0.8251 0.39162 0.15433 0.0
H37 H 0.7013 0.3328 0.11045 0.0
H38 H 0.87988 0.44926 0.00701 0.0
H39 H 1.00488 0.5077 0.05134 0.0
Ho40 Ho 0.80041 0.07958 0.47221 0.0
Ho41 Ho 0.67733 0.09678 0.45574 0.0
C42 C 0.5893 0.94182 0.46012 0.0
C43 C 0.87238 0.04071 0.50628 0.0
C44 C 0.8405 0.97369 0.52058 0.0
C45 C 0.86231 0.96736 0.55926 0.0
C46 C 0.83137 0.90398 0.57382 0.0
C47 C 0.77833 0.84563 0.54982 0.0
C48 C 0.75595 0.85219 0.51114 0.0
C49 C 0.78623 0.91539 0.49677 0.0
C50 C 0.7832 0.09303 0.39247 0.0
C51 C 0.89173 0.23577 0.45831 0.0
C52 C 0.60178 0.1386 0.43373 0.0
C53 C 0.61613 0.19621 0.44979 0.0
C54 C 0.58846 0.2248 0.42908 0.0
C55 C 0.60323 0.27985 0.44524 0.0
C56 C 0.64576 0.30686 0.48237 0.0
C57 C 0.67363 0.27787 0.50269 0.0
C58 C 0.65955 0.22357 0.48644 0.0
C59 C 0.69478 0.08207 0.53524 0.0
O60 O 0.66358 0.96788 0.47783 0.0
O61 O 0.58419 0.984 0.44227 0.0
O62 O 0.87545 0.05146 0.46718 0.0
O63 O 0.84111 0.06158 0.52642 0.0
O64 O 0.85656 0.1175 0.40831 0.0
O65 O 0.72202 0.05885 0.41911 0.0
O66 O 0.81194 0.20764 0.44747 0.0
O67 O 0.90418 0.19642 0.47302 0.0
O68 O 0.56565 0.0867 0.45956 0.0
O69 O 0.6694 0.15636 0.41392 0.0
O70 O 0.62108 0.05453 0.51892 0.0
O71 O 0.75647 0.11886 0.50895 0.0
H72 H 0.90313 1.01151 0.57832 0.0
H73 H 0.8488 0.90074 0.60396 0.0
H74 H 0.71649 0.80888 0.49147 0.0
H75 H 0.76745 0.9186 0.46698 0.0
H76 H 0.55559 0.20464 0.40055 0.0
H77 H 0.58187 0.30148 0.42856 0.0
H78 H 0.70493 0.29615 0.53166 0.0
H79 H 0.68191 0.20236 0.50275 0.0
Ho80 Ho 0.72199 0.66061 0.85219 0.0
Ho81 Ho 0.58884 0.50987 0.86388 0.0
C82 C 0.50388 0.57881 0.86414 0.0
C83 C 0.80813 0.78242 0.81918 0.0
C84 C 0.78738 0.82279 0.805 0.0
C85 C 0.7033 0.79 0.79085 0.0
C86 C 0.68569 0.82918 0.77626 0.0
C87 C 0.75176 0.902 0.77551 0.0
C88 C 0.8358 0.93445 0.78984 0.0
C89 C 0.85333 0.89521 0.80439 0.0
C90 C 0.68916 0.61808 0.92997 0.0
C91 C 0.80703 0.59077 0.86118 0.0
C92 C 0.50794 0.38339 0.88199 0.0
C93 C 0.53068 0.3464 0.86559 0.0
C94 C 0.50512 0.28771 0.88569 0.0
C95 C 0.53059 0.25523 0.8699 0.0
C96 C 0.58237 0.28119 0.83384 0.0
C97 C 0.60763 0.34015 0.81402 0.0
C98 C 0.58248 0.37244 0.82979 0.0
C99 C 0.62627 0.556 0.78574 0.0
O100 O 0.5873 0.63569 0.85129 0.0
O101 O 0.48972 0.5228 0.87515 0.0
O102 O 0.80377 0.77084 0.85824 0.0
O103 O 0.77374 0.72793 0.79875 0.0
O104 O 0.7673 0.67256 0.91557 0.0
O105 O 0.63181 0.59149 0.90321 0.0
O106 O 0.72097 0.53284 0.86784 0.0
O107 O 0.82528 0.64934 0.85268 0.0
O108 O 0.47886 0.40063 0.85545 0.0
O109 O 0.56722 0.43435 0.90516 0.0
O110 O 0.54742 0.50414 0.80001 0.0
O111 O 0.68089 0.57876 0.81329 0.0
H112 H 0.65138 0.73411 0.79074 0.0
H113 H 0.6205 0.80234 0.76517 0.0
H114 H 0.88784 0.99028 0.79047 0.0
H115 H 0.91862 0.92153 0.81514 0.0
H116 H 0.4661 0.26736 0.91362 0.0
H117 H 0.51074 0.21039 0.88621 0.0
H118 H 0.64598 0.36104 0.78589 0.0
H119 H 0.60368 0.41809 0.81389 0.0
C120 C 0.67016 0.98182 0.16818 0.0
N121 N 0.72046 0.0356 0.19376 0.0
N122 N 0.60236 0.92087 0.18869 0.0
C123 C 0.68474 0.98905 0.12321 0.0
C124 C 0.61363 0.93952 0.22749 0.0
N125 N 0.68398 1.00851 0.23061 0.0
C126 C 0.55809 0.88917 0.26279 0.0
H127 H 0.70711 0.03847 0.11135 0.0
H128 H 0.62355 0.94497 0.10808 0.0
H129 H 0.73728 0.9898 0.11609 0.0
H130 H 0.59888 0.90484 0.28981 0.0
H131 H 0.5256 0.83591 0.25556 0.0
H132 H 0.50585 0.88862 0.27029 0.0
C133 C 0.68568 0.55995 0.55311 0.0
N134 N 0.6902 0.593 0.58487 0.0
N135 N 0.68421 0.51064 0.56609 0.0
C136 C 0.68846 0.57867 0.50938 0.0
C137 C 0.68847 0.51502 0.60679 0.0
N138 N 0.69322 0.56569 0.61818 0.0
C139 C 0.68255 0.46708 0.63554 0.0
H140 H 0.62113 0.55414 0.5007 0.0
H141 H 0.71073 0.56022 0.48945 0.0
H142 H 0.73329 0.63552 0.50463 0.0
H143 H 0.7503 0.4927 0.64424 0.0
H144 H 0.65103 0.41776 0.62138 0.0
H145 H 0.6445 0.45577 0.66349 0.0
C146 C 0.16199 0.58995 0.8607 0.0
N147 N 0.19981 0.57048 0.88347 0.0
N148 N 1.08923 0.57435 0.88012 0.0
C149 C 0.19377 0.62171 0.81883 0.0
C150 C 1.08715 0.54603 0.91568 0.0
N151 N 0.15007 0.54298 0.91753 0.0
C152 C 1.02542 0.5244 0.95064 0.0
H153 H 0.25387 0.67762 0.82071 0.0
H154 H 0.14254 0.61589 0.80263 0.0
H155 H 0.21197 0.59762 0.80191 0.0
H156 H 0.96563 0.46837 0.94902 0.0
H157 H 1.00505 0.55332 0.94979 0.0
H158 H 1.05686 0.53315 0.97996 0.0
C159 C 0.24352 0.58667 0.45514 0.0
N160 N 0.18825 0.53345 0.42968 0.0
N161 N 0.30233 0.64882 0.43405 0.0
C162 C 0.23744 0.57849 0.50038 0.0
C163 C 0.28109 0.63124 0.39506 0.0
N164 N 0.21171 0.56208 0.39237 0.0
C165 C 0.33344 0.68155 0.35934 0.0
H166 H 0.16746 0.53663 0.5109 0.0
H167 H 0.26756 0.6276 0.51442 0.0
H168 H 0.27368 0.56388 0.51025 0.0
H169 H 0.33541 0.65656 0.33386 0.0
H170 H 0.40229 0.7272 0.36754 0.0
H171 H 0.30166 0.69982 0.34902 0.0
C172 C 0.67566 0.10091 0.76866 0.0
N173 N 0.69332 0.07897 0.73804 0.0
N174 N 0.6765 0.14964 0.75488 0.0
C175 C 0.66326 0.07833 0.81248 0.0
C176 C 0.69598 0.15701 0.71482 0.0
N177 N 0.70736 0.11476 0.70462 0.0
C178 C 0.69681 0.20132 0.68509 0.0
H179 H 0.59286 0.03044 0.81855 0.0
H180 H 0.68092 0.11863 0.83253 0.0
H181 H 0.70431 0.06715 0.81979 0.0
H182 H 0.76597 0.25167 0.6801 0.0
H183 H 0.65663 0.21117 0.69661 0.0
H184 H 0.67129 0.17661 0.65553 0.0
C185 C 0.64501 0.46055 0.13542 0.0
N186 N 0.63146 0.4643 0.09582 0.0
N187 N 0.65118 0.5062 0.15659 0.0
C188 C 0.66743 0.42123 0.15205 0.0
C189 C 0.64141 0.53828 0.1282 0.0
N190 N 0.63102 0.51361 0.09127 0.0
C191 C 0.63658 0.59065 0.13656 0.0
H192 H 0.6071 0.36505 0.15374 0.0
H193 H 0.69612 0.43801 0.18246 0.0
H194 H 0.71645 0.43003 0.13154 0.0
H195 H 0.70444 0.64203 0.13971 0.0
H196 H 0.59869 0.57627 0.16509 0.0
H197 H 0.60464 0.59466 0.1116 0.0
C198 C 0.56698 0.45384 0.26254 0.0
C199 C 0.58671 0.51474 0.27059 0.0
H200 H 0.5579 0.39965 0.21309 0.0
C201 C 0.67028 0.57612 0.25542 0.0
H202 H 0.51455 0.40576 0.2792 0.0
C203 C 0.6996 0.57458 0.21781 0.0
C204 C 0.65175 0.51063 0.19988 0.0
H205 H 0.69983 0.62582 0.2663 0.0
H206 H 0.75225 0.6226 0.20115 0.0
C207 C 0.59225 0.45005 0.22458 0.0
C208 C 1.05275 0.34789 0.46809 0.0
C209 C 0.96831 0.31329 0.45295 0.0
H210 H 0.18836 0.44487 0.47308 0.0
C211 C 0.95777 0.35383 0.43176 0.0
H212 H 1.06403 0.31901 0.48458 0.0
C213 C 1.02911 0.42569 0.42511 0.0
C214 C 1.11341 0.46 0.4398 0.0
H215 H 0.89439 0.32987 0.41956 0.0
H216 H 1.01864 0.4547 0.40806 0.0
C217 C 1.1241 0.42024 0.46179 0.0
C218 C 0.79676 1.00736 0.73923 0.0
C219 C 0.73257 0.94407 0.76128 0.0
H220 H 0.83365 0.09979 0.71419 0.0
C221 C 0.65125 0.9229 0.77134 0.0
H222 H 0.85941 0.02471 0.73024 0.0
C223 C 0.63643 0.96548 0.7615 0.0
C224 C 0.70254 0.03024 0.74162 0.0
H225 H 0.60035 0.87481 0.78841 0.0
H226 H 0.57447 0.94907 0.77077 0.0
C227 C 0.78177 0.04995 0.72948 0.0
C228 C 0.62638 0.33837 0.05031 0.0
C229 C 0.71415 0.38705 0.03505 0.0
H230 H 0.53086 0.32782 0.08524 0.0
C231 C 0.74672 0.45132 0.02027 0.0
H232 H 0.59529 0.28608 0.05865 0.0
C233 C 0.71236 0.47619 0.03677 0.0
C234 C 0.63946 0.43358 0.06377 0.0
H235 H 0.81034 0.4888 0.00462 0.0
H236 H 0.75105 0.53099 0.03336 0.0
C237 C 0.58997 0.36238 0.06608 0.0
C238 C 0.51759 0.8167 0.47095 0.0
C239 C 0.5122 0.86467 0.45807 0.0
H240 H 0.45417 0.7098 0.47395 0.0
C241 C 0.4321 0.83812 0.4416 0.0
H242 H 0.57782 0.83475 0.48383 0.0
C243 C 0.36152 0.76688 0.43656 0.0
C244 C 0.36806 0.71932 0.44774 0.0
H245 H 0.42439 0.87264 0.43152 0.0
H246 H 0.3025 0.74886 0.42221 0.0
C247 C 0.44644 0.74492 0.46573 0.0
C248 C 0.55002 0.17425 0.81665 0.0
C249 C 0.60906 0.24687 0.81618 0.0
H250 H 0.52573 0.08648 0.79713 0.0
C251 C 0.69261 0.28661 0.79686 0.0
H252 H 0.48488 0.14194 0.83078 0.0
C253 C 0.71514 0.25466 0.77731 0.0
C254 C 0.65519 0.18239 0.77699 0.0
H255 H 0.7406 0.34259 0.79658 0.0
H256 H 0.77917 0.28626 0.76213 0.0
C257 C 0.57302 0.14239 0.79731 0.0
C258 C 0.66714 0.71529 0.5535 0.0
C259 C 0.74968 0.77906 0.5641 0.0
H260 H 0.58317 0.60523 0.55241 0.0
C261 C 0.80705 0.77875 0.58626 0.0
H262 H 0.6203 0.71324 0.53736 0.0
C263 C 0.78446 0.71669 0.59555 0.0
C264 C 0.70476 0.65402 0.58255 0.0
H265 H 0.87146 0.82665 0.59463 0.0
H266 H 0.83147 0.71792 0.61071 0.0
C267 C 0.64522 0.65343 0.56244 0.0
C268 C 0.86223 0.52524 0.87085 0.0
C269 C 0.88257 0.5881 0.86322 0.0
H270 H 0.90471 0.47087 0.88075 0.0
C271 C 0.97645 0.64667 0.85808 0.0
H272 H 0.79349 0.47756 0.87519 0.0
C273 C 1.04299 0.64265 0.86114 0.0
C274 C 1.02185 0.57944 0.86927 0.0
H275 H 0.99966 0.69712 0.85223 0.0
H276 H 1.11201 0.6903 0.85825 0.0
C277 C 0.92814 0.52119 0.87384 0.0
C278 C 0.37314 0.75004 0.16781 0.0
C279 C 0.38708 0.70573 0.16348 0.0
H280 H 0.4309 0.85319 0.17894 0.0
C281 C 0.47538 0.73606 0.16362 0.0
H282 H 0.30669 0.72924 0.16806 0.0
C283 C 0.54668 0.8076 0.16898 0.0
C284 C 0.53214 0.85114 0.17451 0.0
H285 H 0.4895 0.70421 0.16041 0.0
H286 H 0.61306 0.8285 0.17062 0.0
C287 C 0.44443 0.82138 0.17365 0.0
C288 C 0.73573 0.41407 0.52264 0.0
C289 C 0.65913 0.36353 0.50081 0.0
H290 H 0.80295 0.50055 0.56086 0.0
C291 C 0.59345 0.36538 0.49886 0.0
H292 H 0.7886 0.41532 0.52407 0.0
C293 C 0.60297 0.41511 0.51937 0.0
C294 C 0.67773 0.46329 0.54238 0.0
H295 H 0.53324 0.32693 0.48277 0.0
H296 H 0.55078 0.4147 0.51846 0.0
C297 C 0.74451 0.46309 0.54347 0.0
C298 C 0.33788 0.51845 0.88205 0.0
C299 C 0.42524 0.57763 0.86717 0.0
H300 H 0.20332 0.46828 0.8974 0.0
C301 C 0.43342 0.63435 0.8557 0.0
H302 H 0.32381 0.47241 0.89139 0.0
C303 C 0.36145 0.63207 0.85935 0.0
C304 C 0.27448 0.57276 0.87492 0.0
H305 H 0.49688 0.68194 0.84393 0.0
H306 H 0.37536 0.67824 0.85069 0.0
C307 C 0.26651 0.51616 0.88575 0.0
C308 C 0.86477 0.22963 0.1897 0.0
C309 C 0.94173 0.25556 0.16852 0.0
H310 H 0.73526 0.14058 0.21389 0.0
C311 C 0.94317 0.20682 0.15469 0.0
H312 H 0.86027 0.2648 0.20094 0.0
C313 C 0.87033 0.13484 0.16207 0.0
C314 C 0.79423 0.10947 0.18379 0.0
H315 H 1.00084 0.22427 0.13835 0.0
H316 H 0.87429 0.09902 0.15158 0.0
C317 C 0.79272 0.1581 0.1973 0.0
C318 C 1.09037 0.42694 0.00661 0.0
C319 C 0.15882 0.47399 0.03304 0.0
H320 H 1.03546 0.41223 0.94832 0.0
C321 C 0.23285 0.54117 0.01766 0.0
H322 H 1.03238 0.37499 0.01745 0.0
C323 C 0.23414 0.56247 0.97794 0.0
C324 C 0.16187 0.5169 0.95291 0.0
H325 H 0.28643 0.57892 0.03724 0.0
H326 H 0.28817 0.61592 0.96787 0.0
C327 C 1.09205 0.44811 0.96702 0.0
C328 C 0.82593 0.0955 0.32084 0.0
C329 C 0.76586 0.08432 0.34865 0.0
H330 H 0.84609 0.07961 0.26056 0.0
C331 C 0.68425 0.05794 0.33491 0.0
H332 H 0.88945 0.11601 0.33058 0.0
C333 C 0.66051 0.03843 0.29495 0.0
C334 C 0.71729 0.04403 0.26807 0.0
H335 H 0.63709 0.04955 0.35554 0.0
H336 H 0.59559 1.01518 0.28552 0.0
C337 C 0.80156 0.07516 0.28081 0.0
C338 C 0.58491 0.54812 0.71392 0.0
C339 C 0.64934 0.56993 0.74212 0.0
H340 H 0.5505 0.53198 0.65133 0.0
C341 C 0.73313 0.59944 0.72816 0.0
H342 H 0.51998 0.52548 0.72396 0.0
C343 C 0.74977 0.6022 0.6868 0.0
C344 C 0.68374 0.57716 0.65893 0.0
H345 H 0.78392 0.61659 0.7493 0.0
H346 H 0.81253 0.62077 0.67662 0.0
C347 C 0.60235 0.55229 0.67255 0.0
C348 C 0.78374 0.14374 0.59691 0.0
C349 C 0.70548 0.08537 0.57954 0.0
H350 H 0.84514 0.19888 0.65152 0.0
C351 C 0.63302 0.03251 0.60499 0.0
H352 H 0.84039 0.18532 0.57796 0.0
C353 C 0.63682 0.03957 0.64686 0.0
C354 C 0.71246 0.10009 0.66389 0.0
H355 H 0.57202 0.98689 0.59233 0.0
H356 H 0.57861 1.00005 0.66571 0.0
C357 C 0.78672 0.15141 0.63882 0.0
C358 C 0.58855 0.52715 0.984 0.0
C359 C 0.66861 0.59417 0.97269 0.0
H360 H 0.51398 0.44855 0.03172 0.0
C361 C 0.73043 0.63707 0.00229 0.0
H362 H 0.53953 0.49336 0.96171 0.0
C363 C 0.71422 0.61218 0.04231 0.0
C364 C 0.6371 0.54361 0.05299 0.0
H365 H 0.7923 0.68913 0.99432 0.0
H366 H 0.76459 0.64467 0.06438 0.0
C367 C 0.57343 0.50173 0.02387 0.0
C368 C 0.13905 0.52506 0.28535 0.0
C369 C 0.14608 0.47801 0.27631 0.0
H370 H 0.15098 0.58665 0.33065 0.0
C371 C 0.16139 0.45094 0.3078 0.0
H372 H 0.12644 0.54615 0.26174 0.0
C373 C 0.17724 0.47522 0.34687 0.0
C374 C 0.17651 0.52598 0.35518 0.0
H375 H 0.16684 0.41434 0.30175 0.0
H376 H 0.19563 0.45772 0.36991 0.0
C377 C 0.15314 0.54821 0.32461 0.0
loop_
_geom_bond_atom_site_label_1
_geom_bond_atom_site_label_2
_geom_bond_distance
_geom_bond_site_symmetry_2
_ccdc_geom_bond_type
Ho0 C3 2.811 . S
Ho0 O20 2.322 . S
Ho0 O22 2.378 . S
Ho0 O23 2.524 . S
Ho0 O24 2.381 . S
Ho0 O25 2.669 1_455 S
Ho0 O27 2.346 1_455 S
Ho0 O31 2.305 . S
Ho1 C12 2.811 . S
Ho1 O21 2.346 1_655 S
Ho1 O25 2.305 . S
Ho1 O26 2.322 . S
Ho1 O28 2.378 . S
Ho1 O29 2.524 . S
Ho1 O30 2.381 . S
Ho1 O31 2.669 1_655 S
C2 O20 1.259 . S
C2 O21 1.268 . S
C3 Ho0 2.811 . S
C3 C4 1.488 . S
C3 O22 1.215 . S
C3 O23 1.289 . S
C4 C3 1.488 . S
C4 C5 1.348 . S
C4 C9 1.413 . S
C5 C4 1.348 . S
C5 C6 1.442 . S
C5 H32 0.930 . S
C6 C5 1.442 . S
C6 C7 1.381 . S
C6 H33 0.931 . S
C7 C6 1.381 . S
C7 C8 1.321 . S
C8 C7 1.321 . S
C8 C9 1.403 . S
C8 H34 0.934 . S
C9 C4 1.413 . S
C9 C8 1.403 . S
C9 H35 0.930 . S
C10 O24 1.275 . S
C10 O25 1.256 1_455 S
C11 O26 1.259 . S
C11 O27 1.268 . S
C12 Ho1 2.811 . S
C12 C13 1.488 . S
C12 O28 1.215 . S
C12 O29 1.289 . S
C13 C12 1.488 . S
C13 C14 1.348 . S
C13 C18 1.413 . S
C14 C13 1.348 . S
C14 C15 1.442 . S
C14 H36 0.930 . S
C15 C14 1.442 . S
C15 C16 1.381 . S
C15 H37 0.931 . S
C16 C15 1.381 . S
C16 C17 1.321 . S
C17 C16 1.321 . S
C17 C18 1.403 . S
C17 H38 0.934 . S
C18 C13 1.413 . S
C18 C17 1.403 . S
C18 H39 0.930 . S
C19 O30 1.275 1_455 S
C19 O31 1.256 . S
O20 Ho0 2.322 . S
O20 C2 1.259 . S
O21 Ho1 2.346 1_455 S
O21 C2 1.268 . S
O22 Ho0 2.378 . S
O22 C3 1.215 . S
O23 Ho0 2.524 . S
O23 C3 1.289 . S
O24 Ho0 2.381 . S
O24 C10 1.275 . S
O25 Ho0 2.669 1_655 S
O25 Ho1 2.305 . S
O25 C10 1.256 1_655 S
O26 Ho1 2.322 . S
O26 C11 1.259 . S
O27 Ho0 2.346 1_655 S
O27 C11 1.268 . S
O28 Ho1 2.378 . S
O28 C12 1.215 . S
O29 Ho1 2.524 . S
O29 C12 1.289 . S
O30 Ho1 2.381 . S
O30 C19 1.275 1_655 S
O31 Ho0 2.305 . S
O31 Ho1 2.669 1_455 S
O31 C19 1.256 . S
H32 C5 0.930 . S
H33 C6 0.931 . S
H34 C8 0.934 . S
H35 C9 0.930 . S
H36 C14 0.930 . S
H37 C15 0.931 . S
H38 C17 0.934 . S
H39 C18 0.930 . S
Ho40 C43 2.811 1_545 S
Ho40 O60 2.322 1_545 S
Ho40 O62 2.378 1_545 S
Ho40 O63 2.524 1_545 S
Ho40 O64 2.381 . S
Ho40 O65 2.669 . S
Ho40 O67 2.346 . S
Ho40 O71 2.305 . S
Ho41 C52 2.811 . S
Ho41 O61 2.346 1_545 S
Ho41 O65 2.305 . S
Ho41 O66 2.322 . S
Ho41 O68 2.378 . S
Ho41 O69 2.524 . S
Ho41 O70 2.381 . S
Ho41 O71 2.669 . S
C42 O60 1.259 . S
C42 O61 1.268 . S
C43 Ho40 2.811 1_565 S
C43 C44 1.488 . S
C43 O62 1.215 . S
C43 O63 1.289 . S
C44 C43 1.488 . S
C44 C45 1.348 . S
C44 C49 1.413 . S
C45 C44 1.348 . S
C45 C46 1.442 . S
C45 H72 0.930 . S
C46 C45 1.442 . S
C46 C47 1.381 . S
C46 H73 0.931 . S
C47 C46 1.381 . S
C47 C48 1.321 . S
C48 C47 1.321 . S
C48 C49 1.403 . S
C48 H74 0.934 . S
C49 C44 1.413 . S
C49 C48 1.403 . S
C49 H75 0.930 . S
C50 O64 1.275 . S
C50 O65 1.256 . S
C51 O66 1.259 . S
C51 O67 1.268 . S
C52 Ho41 2.811 . S
C52 C53 1.488 . S
C52 O68 1.215 . S
C52 O69 1.289 . S
C53 C52 1.488 . S
C53 C54 1.348 . S
C53 C58 1.413 . S
C54 C53 1.348 . S
C54 C55 1.442 . S
C54 H76 0.930 . S
C55 C54 1.442 . S
C55 C56 1.381 . S
C55 H77 0.931 . S
C56 C55 1.381 . S
C56 C57 1.321 . S
C57 C56 1.321 . S
C57 C58 1.403 . S
C57 H78 0.934 . S
C58 C53 1.413 . S
C58 C57 1.403 . S
C58 H79 0.930 . S
C59 O70 1.275 . S
C59 O71 1.256 . S
O60 Ho40 2.322 1_565 S
O60 C42 1.259 . S
O61 Ho41 2.346 1_565 S
O61 C42 1.268 . S
O62 Ho40 2.378 1_565 S
O62 C43 1.215 . S
O63 Ho40 2.524 1_565 S
O63 C43 1.289 . S
O64 Ho40 2.381 . S
O64 C50 1.275 . S
O65 Ho40 2.669 . S
O65 Ho41 2.305 . S
O65 C50 1.256 . S
O66 Ho41 2.322 . S
O66 C51 1.259 . S
O67 Ho40 2.346 . S
O67 C51 1.268 . S
O68 Ho41 2.378 . S
O68 C52 1.215 . S
O69 Ho41 2.524 . S
O69 C52 1.289 . S
O70 Ho41 2.381 . S
O70 C59 1.275 . S
O71 Ho40 2.305 . S
O71 Ho41 2.669 . S
O71 C59 1.256 . S
H72 C45 0.930 . S
H73 C46 0.931 . S
H74 C48 0.934 . S
H75 C49 0.930 . S
H76 C54 0.930 . S
H77 C55 0.931 . S
H78 C57 0.934 . S
H79 C58 0.930 . S
Ho80 C83 2.811 . S
Ho80 O100 2.322 . S
Ho80 O102 2.378 . S
Ho80 O103 2.524 . S
Ho80 O104 2.381 . S
Ho80 O105 2.669 . S
Ho80 O107 2.346 . S
Ho80 O111 2.305 . S
Ho81 C92 2.811 . S
Ho81 O101 2.346 . S
Ho81 O105 2.305 . S
Ho81 O106 2.322 . S
Ho81 O108 2.378 . S
Ho81 O109 2.524 . S
Ho81 O110 2.381 . S
Ho81 O111 2.669 . S
C82 O100 1.259 . S
C82 O101 1.268 . S
C83 Ho80 2.811 . S
C83 C84 1.488 . S
C83 O102 1.215 . S
C83 O103 1.289 . S
C84 C83 1.488 . S
C84 C85 1.348 . S
C84 C89 1.413 . S
C85 C84 1.348 . S
C85 C86 1.442 . S
C85 H112 0.930 . S
C86 C85 1.442 . S
C86 C87 1.381 . S
C86 H113 0.931 . S
C87 C86 1.381 . S
C87 C88 1.321 . S
C88 C87 1.321 . S
C88 C89 1.403 . S
C88 H114 0.934 . S
C89 C84 1.413 . S
C89 C88 1.403 . S
C89 H115 0.930 . S
C90 O104 1.275 . S
C90 O105 1.256 . S
C91 O106 1.259 . S
C91 O107 1.268 . S
C92 Ho81 2.811 . S
C92 C93 1.488 . S
C92 O108 1.215 . S
C92 O109 1.289 . S
C93 C92 1.488 . S
C93 C94 1.348 . S
C93 C98 1.413 . S
C94 C93 1.348 . S
C94 C95 1.442 . S
C94 H116 0.930 . S
C95 C94 1.442 . S
C95 C96 1.381 . S
C95 H117 0.931 . S
C96 C95 1.381 . S
C96 C97 1.321 . S
C97 C96 1.321 . S
C97 C98 1.403 . S
C97 H118 0.934 . S
C98 C93 1.413 . S
C98 C97 1.403 . S
C98 H119 0.930 . S
C99 O110 1.275 . S
C99 O111 1.256 . S
O100 Ho80 2.322 . S
O100 C82 1.259 . S
O101 Ho81 2.346 . S
O101 C82 1.268 . S
O102 Ho80 2.378 . S
O102 C83 1.215 . S
O103 Ho80 2.524 . S
O103 C83 1.289 . S
O104 Ho80 2.381 . S
O104 C90 1.275 . S
O105 Ho80 2.669 . S
O105 Ho81 2.305 . S
O105 C90 1.256 . S
O106 Ho81 2.322 . S
O106 C91 1.259 . S
O107 Ho80 2.346 . S
O107 C91 1.268 . S
O108 Ho81 2.378 . S
O108 C92 1.215 . S
O109 Ho81 2.524 . S
O109 C92 1.289 . S
O110 Ho81 2.381 . S
O110 C99 1.275 . S
O111 Ho80 2.305 . S
O111 Ho81 2.669 . S
O111 C99 1.256 . S
H112 C85 0.930 . S
H113 C86 0.931 . S
H114 C88 0.934 . S
H115 C89 0.930 . S
H116 C94 0.930 . S
H117 C95 0.931 . S
H118 C97 0.934 . S
H119 C98 0.930 . S
C120 N121 1.317 1_565 S
C120 N122 1.348 . S
C120 C123 1.485 1_565 S
N121 C120 1.317 1_545 S
N121 N125 1.370 . S
N122 C120 1.348 . S
N122 C124 1.346 . S
C123 C120 1.485 1_545 S
C123 H127 0.960 . S
C123 H128 0.961 1_545 S
C123 H129 0.960 . S
C124 N122 1.346 . S
C124 N125 1.307 1_565 S
C124 C126 1.486 . S
N125 N121 1.370 . S
N125 C124 1.307 1_545 S
C126 C124 1.486 . S
C126 H130 0.960 . S
C126 H131 0.960 . S
C126 H132 0.959 . S
H127 C123 0.960 . S
H128 C123 0.961 1_565 S
H129 C123 0.960 . S
H130 C126 0.960 . S
H131 C126 0.960 . S
H132 C126 0.959 . S
C133 N134 1.317 . S
C133 N135 1.348 . S
C133 C136 1.485 . S
N134 C133 1.317 . S
N134 N138 1.370 . S
N135 C133 1.348 . S
N135 C137 1.346 . S
C136 C133 1.485 . S
C136 H140 0.960 . S
C136 H141 0.961 . S
C136 H142 0.960 . S
C137 N135 1.346 . S
C137 N138 1.307 . S
C137 C139 1.486 . S
N138 N134 1.370 . S
N138 C137 1.307 . S
C139 C137 1.486 . S
C139 H143 0.960 . S
C139 H144 0.960 . S
C139 H145 0.959 . S
H140 C136 0.960 . S
H141 C136 0.961 . S
H142 C136 0.960 . S
H143 C139 0.960 . S
H144 C139 0.960 . S
H145 C139 0.959 . S
C146 N147 1.317 . S
C146 N148 1.348 . S
C146 C149 1.485 . S
N147 C146 1.317 . S
N147 N151 1.370 . S
N148 C146 1.348 . S
N148 C150 1.346 . S
C149 C146 1.485 . S
C149 H153 0.960 . S
C149 H154 0.961 . S
C149 H155 0.960 . S
C150 N148 1.346 . S
C150 N151 1.307 . S
C150 C152 1.486 1_455 S
N151 N147 1.370 . S
N151 C150 1.307 . S
C152 C150 1.486 1_655 S
C152 H156 0.960 . S
C152 H157 0.960 . S
C152 H158 0.959 . S
H153 C149 0.960 . S
H154 C149 0.961 . S
H155 C149 0.960 . S
H156 C152 0.960 . S
H157 C152 0.960 . S
H158 C152 0.959 . S
C159 N160 1.317 . S
C159 N161 1.348 . S
C159 C162 1.485 . S
N160 C159 1.317 . S
N160 N164 1.370 . S
N161 C159 1.348 . S
N161 C163 1.346 . S
C162 C159 1.485 . S
C162 H166 0.960 . S
C162 H167 0.961 . S
C162 H168 0.960 . S
C163 N161 1.346 . S
C163 N164 1.307 . S
C163 C165 1.486 . S
N164 N160 1.370 . S
N164 C163 1.307 . S
C165 C163 1.486 . S
C165 H169 0.960 . S
C165 H170 0.960 . S
C165 H171 0.959 . S
H166 C162 0.960 . S
H167 C162 0.961 . S
H168 C162 0.960 . S
H169 C165 0.960 . S
H170 C165 0.960 . S
H171 C165 0.959 . S
C172 N173 1.317 . S
C172 N174 1.348 . S
C172 C175 1.485 . S
N173 C172 1.317 . S
N173 N177 1.370 . S
N174 C172 1.348 . S
N174 C176 1.346 . S
C175 C172 1.485 . S
C175 H179 0.960 . S
C175 H180 0.961 . S
C175 H181 0.960 . S
C176 N174 1.346 . S
C176 N177 1.307 . S
C176 C178 1.486 . S
N177 N173 1.370 . S
N177 C176 1.307 . S
C178 C176 1.486 . S
C178 H182 0.960 . S
C178 H183 0.960 . S
C178 H184 0.959 . S
H179 C175 0.960 . S
H180 C175 0.961 . S
H181 C175 0.960 . S
H182 C178 0.960 . S
H183 C178 0.960 . S
H184 C178 0.959 . S
C185 N186 1.317 . S
C185 N187 1.348 . S
C185 C188 1.485 . S
N186 C185 1.317 . S
N186 N190 1.370 . S
N187 C185 1.348 . S
N187 C189 1.346 . S
C188 C185 1.485 . S
C188 H192 0.960 . S
C188 H193 0.961 . S
C188 H194 0.960 . S
C189 N187 1.346 . S
C189 N190 1.307 . S
C189 C191 1.486 . S
N190 N186 1.370 . S
N190 C189 1.307 . S
C191 C189 1.486 . S
C191 H195 0.960 . S
C191 H196 0.960 . S
C191 H197 0.959 . S
H192 C188 0.960 . S
H193 C188 0.961 . S
H194 C188 0.960 . S
H195 C191 0.960 . S
H196 C191 0.960 . S
H197 C191 0.959 . S
C198 C199 1.387 . S
C198 H202 0.950 . S
C198 C207 1.390 . S
C199 C198 1.387 . S
C199 C201 1.387 . S
H200 C207 0.950 . S
C201 C199 1.387 . S
C201 C203 1.390 . S
C201 H205 0.950 . S
H202 C198 0.950 . S
C203 C201 1.390 . S
C203 C204 1.387 . S
C203 H206 0.950 . S
C204 C203 1.387 . S
C204 C207 1.387 . S
H205 C201 0.950 . S
H206 C203 0.950 . S
C207 C198 1.390 . S
C207 H200 0.950 . S
C207 C204 1.387 . S
C208 C209 1.387 . S
C208 H212 0.950 . S
C208 C217 1.390 . S
C209 C208 1.387 . S
C209 C211 1.387 . S
H210 C217 0.950 . S
C211 C209 1.387 . S
C211 C213 1.390 . S
C211 H215 0.950 . S
H212 C208 0.950 . S
C213 C211 1.390 . S
C213 C214 1.387 . S
C213 H216 0.950 . S
C214 C213 1.387 . S
C214 C217 1.387 . S
H215 C211 0.950 . S
H216 C213 0.950 . S
C217 C208 1.390 . S
C217 H210 0.950 . S
C217 C214 1.387 . S
C218 C219 1.387 . S
C218 H222 0.950 1_565 S
C218 C227 1.390 1_565 S
C219 C218 1.387 . S
C219 C221 1.387 . S
H220 C227 0.950 . S
C221 C219 1.387 . S
C221 C223 1.390 . S
C221 H225 0.950 . S
H222 C218 0.950 1_545 S
C223 C221 1.390 . S
C223 C224 1.387 . S
C223 H226 0.950 . S
C224 C223 1.387 . S
C224 C227 1.387 1_565 S
H225 C221 0.950 . S
H226 C223 0.950 . S
C227 C218 1.390 1_545 S
C227 H220 0.950 . S
C227 C224 1.387 1_545 S
C228 C229 1.387 . S
C228 H232 0.950 . S
C228 C237 1.390 . S
C229 C228 1.387 . S
C229 C231 1.387 . S
H230 C237 0.950 . S
C231 C229 1.387 . S
C231 C233 1.390 . S
C231 H235 0.950 . S
H232 C228 0.950 . S
C233 C231 1.390 . S
C233 C234 1.387 . S
C233 H236 0.950 . S
C234 C233 1.387 . S
C234 C237 1.387 . S
H235 C231 0.950 . S
H236 C233 0.950 . S
C237 C228 1.390 . S
C237 H230 0.950 . S
C237 C234 1.387 . S
C238 C239 1.387 . S
C238 H242 0.950 . S
C238 C247 1.390 . S
C239 C238 1.387 . S
C239 C241 1.387 . S
H240 C247 0.950 . S
C241 C239 1.387 . S
C241 C243 1.390 . S
C241 H245 0.950 . S
H242 C238 0.950 . S
C243 C241 1.390 . S
C243 C244 1.387 . S
C243 H246 0.950 . S
C244 C243 1.387 . S
C244 C247 1.387 . S
H245 C241 0.950 . S
H246 C243 0.950 . S
C247 C238 1.390 . S
C247 H240 0.950 . S
C247 C244 1.387 . S
C248 C249 1.387 . S
C248 H252 0.950 . S
C248 C257 1.390 . S
C249 C248 1.387 . S
C249 C251 1.387 . S
H250 C257 0.950 . S
C251 C249 1.387 . S
C251 C253 1.390 . S
C251 H255 0.950 . S
H252 C248 0.950 . S
C253 C251 1.390 . S
C253 C254 1.387 . S
C253 H256 0.950 . S
C254 C253 1.387 . S
C254 C257 1.387 . S
H255 C251 0.950 . S
H256 C253 0.950 . S
C257 C248 1.390 . S
C257 H250 0.950 . S
C257 C254 1.387 . S
C258 C259 1.387 . S
C258 H262 0.950 . S
C258 C267 1.390 . S
C259 C258 1.387 . S
C259 C261 1.387 . S
H260 C267 0.950 . S
C261 C259 1.387 . S
C261 C263 1.390 . S
C261 H265 0.950 . S
H262 C258 0.950 . S
C263 C261 1.390 . S
C263 C264 1.387 . S
C263 H266 0.950 . S
C264 C263 1.387 . S
C264 C267 1.387 . S
H265 C261 0.950 . S
H266 C263 0.950 . S
C267 C258 1.390 . S
C267 H260 0.950 . S
C267 C264 1.387 . S
C268 C269 1.387 . S
C268 H272 0.950 . S
C268 C277 1.390 . S
C269 C268 1.387 . S
C269 C271 1.387 . S
H270 C277 0.950 . S
C271 C269 1.387 . S
C271 C273 1.390 . S
C271 H275 0.950 . S
H272 C268 0.950 . S
C273 C271 1.390 . S
C273 C274 1.387 . S
C273 H276 0.950 . S
C274 C273 1.387 . S
C274 C277 1.387 . S
H275 C271 0.950 . S
H276 C273 0.950 . S
C277 C268 1.390 . S
C277 H270 0.950 . S
C277 C274 1.387 . S
C278 C279 1.387 . S
C278 H282 0.950 . S
C278 C287 1.390 . S
C279 C278 1.387 . S
C279 C281 1.387 . S
H280 C287 0.950 . S
C281 C279 1.387 . S
C281 C283 1.390 . S
C281 H285 0.950 . S
H282 C278 0.950 . S
C283 C281 1.390 . S
C283 C284 1.387 . S
C283 H286 0.950 . S
C284 C283 1.387 . S
C284 C287 1.387 . S
H285 C281 0.950 . S
H286 C283 0.950 . S
C287 C278 1.390 . S
C287 H280 0.950 . S
C287 C284 1.387 . S
C288 C289 1.387 . S
C288 H292 0.950 . S
C288 C297 1.390 . S
C289 C288 1.387 . S
C289 C291 1.387 . S
H290 C297 0.950 . S
C291 C289 1.387 . S
C291 C293 1.390 . S
C291 H295 0.950 . S
H292 C288 0.950 . S
C293 C291 1.390 . S
C293 C294 1.387 . S
C293 H296 0.950 . S
C294 C293 1.387 . S
C294 C297 1.387 . S
H295 C291 0.950 . S
H296 C293 0.950 . S
C297 C288 1.390 . S
C297 H290 0.950 . S
C297 C294 1.387 . S
C298 C299 1.387 . S
C298 H302 0.950 . S
C298 C307 1.390 . S
C299 C298 1.387 . S
C299 C301 1.387 . S
H300 C307 0.950 . S
C301 C299 1.387 . S
C301 C303 1.390 . S
C301 H305 0.950 . S
H302 C298 0.950 . S
C303 C301 1.390 . S
C303 C304 1.387 . S
C303 H306 0.950 . S
C304 C303 1.387 . S
C304 C307 1.387 . S
H305 C301 0.950 . S
H306 C303 0.950 . S
C307 C298 1.390 . S
C307 H300 0.950 . S
C307 C304 1.387 . S
C308 C309 1.387 . S
C308 H312 0.950 . S
C308 C317 1.390 . S
C309 C308 1.387 . S
C309 C311 1.387 . S
H310 C317 0.950 . S
C311 C309 1.387 . S
C311 C313 1.390 . S
C311 H315 0.950 . S
H312 C308 0.950 . S
C313 C311 1.390 . S
C313 C314 1.387 . S
C313 H316 0.950 . S
C314 C313 1.387 . S
C314 C317 1.387 . S
H315 C311 0.950 . S
H316 C313 0.950 . S
C317 C308 1.390 . S
C317 H310 0.950 . S
C317 C314 1.387 . S
C318 C319 1.387 1_655 S
C318 H322 0.950 . S
C318 C327 1.390 1_554 S
C319 C318 1.387 1_455 S
C319 C321 1.387 . S
H320 C327 0.950 . S
C321 C319 1.387 . S
C321 C323 1.390 1_554 S
C321 H325 0.950 . S
H322 C318 0.950 . S
C323 C321 1.390 1_556 S
C323 C324 1.387 . S
C323 H326 0.950 . S
C324 C323 1.387 . S
C324 C327 1.387 1_455 S
H325 C321 0.950 . S
H326 C323 0.950 . S
C327 C318 1.390 1_556 S
C327 H320 0.950 . S
C327 C324 1.387 1_655 S
C328 C329 1.387 1_565 S
C328 H332 0.950 . S
C328 C337 1.390 . S
C329 C328 1.387 1_545 S
C329 C331 1.387 . S
H330 C337 0.950 . S
C331 C329 1.387 . S
C331 C333 1.390 . S
C331 H335 0.950 . S
H332 C328 0.950 . S
C333 C331 1.390 . S
C333 C334 1.387 . S
C333 H336 0.950 . S
C334 C333 1.387 . S
C334 C337 1.387 1_545 S
H335 C331 0.950 . S
H336 C333 0.950 . S
C337 C328 1.390 . S
C337 H330 0.950 . S
C337 C334 1.387 1_565 S
C338 C339 1.387 . S
C338 H342 0.950 . S
C338 C347 1.390 . S
C339 C338 1.387 . S
C339 C341 1.387 . S
H340 C347 0.950 . S
C341 C339 1.387 . S
C341 C343 1.390 . S
C341 H345 0.950 . S
H342 C338 0.950 . S
C343 C341 1.390 . S
C343 C344 1.387 . S
C343 H346 0.950 . S
C344 C343 1.387 . S
C344 C347 1.387 . S
H345 C341 0.950 . S
H346 C343 0.950 . S
C347 C338 1.390 . S
C347 H340 0.950 . S
C347 C344 1.387 . S
C348 C349 1.387 . S
C348 H352 0.950 . S
C348 C357 1.390 . S
C349 C348 1.387 . S
C349 C351 1.387 1_545 S
H350 C357 0.950 . S
C351 C349 1.387 1_565 S
C351 C353 1.390 . S
C351 H355 0.950 . S
H352 C348 0.950 . S
C353 C351 1.390 . S
C353 C354 1.387 1_565 S
C353 H356 0.950 . S
C354 C353 1.387 1_545 S
C354 C357 1.387 . S
H355 C351 0.950 . S
H356 C353 0.950 . S
C357 C348 1.390 . S
C357 H350 0.950 . S
C357 C354 1.387 . S
C358 C359 1.387 . S
C358 H362 0.950 . S
C358 C367 1.390 1_556 S
C359 C358 1.387 . S
C359 C361 1.387 . S
H360 C367 0.950 . S
C361 C359 1.387 . S
C361 C363 1.390 1_556 S
C361 H365 0.950 . S
H362 C358 0.950 . S
C363 C361 1.390 1_554 S
C363 C364 1.387 . S
C363 H366 0.950 . S
C364 C363 1.387 . S
C364 C367 1.387 . S
H365 C361 0.950 . S
H366 C363 0.950 . S
C367 C358 1.390 1_554 S
C367 H360 0.950 . S
C367 C364 1.387 . S
C368 C369 1.387 . S
C368 H372 0.950 . S
C368 C377 1.390 . S
C369 C368 1.387 . S
C369 C371 1.387 1_655 S
H370 C377 0.950 . S
C371 C369 1.387 1_455 S
C371 C373 1.390 . S
C371 H375 0.950 . S
H372 C368 0.950 . S
C373 C371 1.390 . S
C373 C374 1.387 . S
C373 H376 0.950 . S
C374 C373 1.387 . S
C374 C377 1.387 1_455 S
H375 C371 0.950 . S
H376 C373 0.950 . S
C377 C368 1.390 . S
C377 H370 0.950 . S
C377 C374 1.387 1_655 S
C199 C7 0.809 . S
C204 N187 0.837 . S
C209 C51 1.866 . S
C214 N160 1.865 1_655 S
C219 C87 1.377 . S
C224 N173 1.378 1_565 S
C229 C16 1.039 . S
C234 N186 1.161 . S
C244 N161 1.991 . S
C239 C42 2.001 . S
C254 N174 1.501 . S
C249 C96 1.433 . S
C259 C47 1.186 . S
C264 N134 1.187 . S
C269 C91 2.952 . S
C274 N148 2.904 1_655 S
C279 C2 2.033 . S
C284 N122 2.046 . S
C294 N135 1.568 . S
C289 C56 1.478 . S
C304 N147 3.288 . S
C299 C82 3.245 . S
C309 C11 1.874 . S
C314 N121 1.906 . S
C324 N151 1.765 . S
C319 C19 1.784 . S
C329 C50 1.448 . S
C334 N125 1.452 . S
C339 C99 1.483 . S
C344 N138 1.584 . S
C354 N177 1.526 . S
C349 C59 1.455 . S
C364 N190 1.168 . S
C359 C90 1.191 . S
C369 C10 1.399 1_655 S
C374 N164 1.426 . S
