# Generated by pormake.
# Topology hwx, (6,3)-cn, num edge types: 1
# Building blocks:
#     Node 0, Type 0, BuildingBlock: IZENUY_clean_sbu_0, # of connection points: 6
#     Node 1, Type 0, BuildingBlock: IZENUY_clean_sbu_0, # of connection points: 6
#     Node 2, Type 0, BuildingBlock: IZENUY_clean_sbu_0, # of connection points: 6
#     Node 3, Type 0, BuildingBlock: IZENUY_clean_sbu_0, # of connection points: 6
#     Node 4, Type 1, BuildingBlock: KAKCAD_clean_linker_0, # of connection points: 3
#     Node 5, Type 1, BuildingBlock: KAKCAD_clean_linker_0, # of connection points: 3
#     Node 6, Type 1, BuildingBlock: KAKCAD_clean_linker_0, # of connection points: 3
#     Node 7, Type 1, BuildingBlock: KAKCAD_clean_linker_0, # of connection points: 3
#     Node 8, Type 1, BuildingBlock: KAKCAD_clean_linker_0, # of connection points: 3
#     Node 9, Type 1, BuildingBlock: KAKCAD_clean_linker_0, # of connection points: 3
#     Node 10, Type 1, BuildingBlock: KAKCAD_clean_linker_0, # of connection points: 3
#     Node 11, Type 1, BuildingBlock: KAKCAD_clean_linker_0, # of connection points: 3
#     Edge 12, Type (0, 1), BuildingBlock: TEMPAE_clean_linker_10, # of connection points: 2
#     Edge 13, Type (0, 1), BuildingBlock: TEMPAE_clean_linker_10, # of connection points: 2
#     Edge 14, Type (0, 1), BuildingBlock: TEMPAE_clean_linker_10, # of connection points: 2
#     Edge 15, Type (0, 1), BuildingBlock: TEMPAE_clean_linker_10, # of connection points: 2
#     Edge 16, Type (0, 1), BuildingBlock: TEMPAE_clean_linker_10, # of connection points: 2
#     Edge 17, Type (0, 1), BuildingBlock: TEMPAE_clean_linker_10, # of connection points: 2
#     Edge 18, Type (0, 1), BuildingBlock: TEMPAE_clean_linker_10, # of connection points: 2
#     Edge 19, Type (0, 1), BuildingBlock: TEMPAE_clean_linker_10, # of connection points: 2
#     Edge 20, Type (0, 1), BuildingBlock: TEMPAE_clean_linker_10, # of connection points: 2
#     Edge 21, Type (0, 1), BuildingBlock: TEMPAE_clean_linker_10, # of connection points: 2
#     Edge 22, Type (0, 1), BuildingBlock: TEMPAE_clean_linker_10, # of connection points: 2
#     Edge 23, Type (0, 1), BuildingBlock: TEMPAE_clean_linker_10, # of connection points: 2
#     Edge 24, Type (0, 1), BuildingBlock: TEMPAE_clean_linker_10, # of connection points: 2
#     Edge 25, Type (0, 1), BuildingBlock: TEMPAE_clean_linker_10, # of connection points: 2
#     Edge 26, Type (0, 1), BuildingBlock: TEMPAE_clean_linker_10, # of connection points: 2
#     Edge 27, Type (0, 1), BuildingBlock: TEMPAE_clean_linker_10, # of connection points: 2
#     Edge 28, Type (0, 1), BuildingBlock: TEMPAE_clean_linker_10, # of connection points: 2
#     Edge 29, Type (0, 1), BuildingBlock: TEMPAE_clean_linker_10, # of connection points: 2
#     Edge 30, Type (0, 1), BuildingBlock: TEMPAE_clean_linker_10, # of connection points: 2
#     Edge 31, Type (0, 1), BuildingBlock: TEMPAE_clean_linker_10, # of connection points: 2
#     Edge 32, Type (0, 1), BuildingBlock: TEMPAE_clean_linker_10, # of connection points: 2
#     Edge 33, Type (0, 1), BuildingBlock: TEMPAE_clean_linker_10, # of connection points: 2
#     Edge 34, Type (0, 1), BuildingBlock: TEMPAE_clean_linker_10, # of connection points: 2
#     Edge 35, Type (0, 1), BuildingBlock: TEMPAE_clean_linker_10, # of connection points: 2
# Relax obj value: 0.051
# Max RMSD: 0.075
# Mean RMSD: 0.067
data_MOF--net-hwx--node1-IZENUY_clean_sbu_0--node2-KAKCAD_clean_linker_0--edge1-TEMPAE_clean_linker_10
_symmetry_space_group_name_H-M    P1
_symmetry_Int_Tables_number       1
_symmetry_cell_setting            triclinic
loop_
_symmetry_equiv_pos_as_xyz
'x, y, z'
_cell_length_a     58.593669
_cell_length_b     58.577244
_cell_length_c     28.36947
_cell_angle_alpha  89.914476
_cell_angle_beta   90.093847
_cell_angle_gamma 90.008765
loop_
_atom_site_label
_atom_site_type_symbol
_atom_site_fract_x
_atom_site_fract_y
_atom_site_fract_z
_atom_type_partial_charge
Fe0 Fe 0.23439 0.20473 0.05273 0.0
Fe1 Fe 0.23472 0.20249 0.9449 0.0
O2 O 0.22797 0.19006 -2e-05 0.0
Fe3 Fe 0.21466 0.16292 0.00249 0.0
O4 O 0.19863 0.16881 0.05689 0.0
O5 O 0.20456 0.20532 0.0693 0.0
O6 O 0.23012 0.2333 0.028 0.0
C7 C 0.21893 0.23991 0.99234 0.0
C8 C 0.24525 0.15872 0.07435 0.0
O9 O 0.21697 0.22728 0.95658 0.0
C10 C 0.24621 0.15822 0.92739 0.0
O11 O 0.26455 0.20518 0.0392 0.0
O12 O 0.26054 0.21704 0.96608 0.0
O13 O 0.23843 0.15097 0.0353 0.0
O14 O 0.23988 0.17872 0.0872 0.0
C15 C 0.19132 0.18232 0.92956 0.0
O16 O 0.25294 0.17863 0.92946 0.0
O17 O 0.22821 0.15203 0.94857 0.0
C18 C 0.27293 0.21347 0.002 0.0
O19 O 0.21008 0.19007 0.91407 0.0
O20 O 0.19012 0.1733 0.96989 0.0
C21 C 0.19251 0.18771 0.07438 0.0
Fe22 Fe 0.26272 0.70118 0.55366 0.0
Fe23 Fe 0.28302 0.66136 0.49761 0.0
O24 O 0.26936 0.68836 0.49891 0.0
Fe25 Fe 0.26235 0.70247 0.44562 0.0
O26 O 0.27966 0.72705 0.46091 0.0
O27 O 0.26667 0.73061 0.53305 0.0
O28 O 0.29248 0.70153 0.5709 0.0
C29 C 0.30494 0.68403 0.57335 0.0
C30 C 0.22402 0.71103 0.50387 0.0
O31 O 0.29928 0.66582 0.5523 0.0
C32 C 0.25147 0.65864 0.42187 0.0
O33 O 0.25757 0.67409 0.58436 0.0
O34 O 0.25954 0.64804 0.52895 0.0
O35 O 0.23633 0.71583 0.46855 0.0
O36 O 0.23253 0.70173 0.53996 0.0
C37 C 0.30601 0.68353 0.42759 0.0
O38 O 0.26944 0.65199 0.44256 0.0
O39 O 0.24451 0.67888 0.42648 0.0
C40 C 0.25257 0.65445 0.56885 0.0
O41 O 0.30732 0.67288 0.46618 0.0
O42 O 0.28719 0.69167 0.4133 0.0
C43 C 0.27748 0.73857 0.49812 0.0
Fe44 Fe 0.76254 0.80229 0.94735 0.0
Fe45 Fe 0.76197 0.80309 0.05527 0.0
O46 O 0.76916 0.81615 0.00098 0.0
Fe47 Fe 0.78295 0.84306 0.00044 0.0
O48 O 0.7696 0.85276 0.94535 0.0
O49 O 0.74476 0.82593 0.92815 0.0
O50 O 0.73634 0.78876 0.96941 0.0
C51 C 0.7237 0.79368 0.00415 0.0
C52 C 0.80624 0.82137 0.93045 0.0
O53 O 0.73193 0.80296 0.04047 0.0
C54 C 0.80415 0.81985 0.07666 0.0
O55 O 0.77993 0.77779 0.96304 0.0
O56 O 0.76571 0.77369 0.03412 0.0
O57 O 0.80738 0.83167 0.96937 0.0
O58 O 0.7875 0.81329 0.91566 0.0
C59 C 0.75217 0.84984 0.07102 0.0
O60 O 0.7916 0.80242 0.07354 0.0
O61 O 0.79887 0.83817 0.05544 0.0
C62 C 0.77707 0.76598 -0.00027 0.0
O63 O 0.75685 0.83006 0.08636 0.0
O64 O 0.7594 0.85633 0.03138 0.0
C65 C 0.7516 0.84627 0.92452 0.0
Fe66 Fe 0.71398 0.34535 0.50157 0.0
Fe67 Fe 0.73432 0.30513 0.55672 0.0
O68 O 0.72707 0.3181 0.5024 0.0
Fe69 Fe 0.733 0.30369 0.44907 0.0
O70 O 0.75135 0.32669 0.429 0.0
O71 O 0.72759 0.35452 0.44632 0.0
O72 O 0.73786 0.35825 0.53261 0.0
C73 C 0.74487 0.3517 0.57244 0.0
C74 C 0.6899 0.32398 0.43191 0.0
O75 O 0.73994 0.33199 0.5876 0.0
C76 C 0.71804 0.26808 0.50242 0.0
O77 O 0.69797 0.34083 0.55657 0.0
O78 O 0.70479 0.30502 0.57537 0.0
O79 O 0.70832 0.31524 0.41727 0.0
O80 O 0.68919 0.33454 0.47055 0.0
C81 C 0.77195 0.29464 0.50516 0.0
O82 O 0.73001 0.27571 0.53607 0.0
O83 O 0.71494 0.27983 0.46572 0.0
C84 C 0.6925 0.32265 0.57817 0.0
O85 O 0.7643 0.30463 0.54116 0.0
O86 O 0.75886 0.28944 0.47125 0.0
C87 C 0.74513 0.34722 0.42498 0.0
C88 C 0.17672 0.55716 0.84802 0.0
C89 C 0.19201 0.54752 0.81551 0.0
C90 C 0.17206 0.54611 0.89062 0.0
C91 C 0.18251 0.52515 0.90147 0.0
C92 C 0.19702 0.51505 0.86806 0.0
C93 C 0.20174 0.52614 0.82556 0.0
C94 C 0.17967 0.51463 0.94874 0.0
C95 C 0.17692 0.49094 0.95356 0.0
C96 C 0.17658 0.48065 0.99835 0.0
C97 C 0.17852 0.49444 0.03874 0.0
C98 C 0.18133 0.51816 0.03442 0.0
C99 C 0.18173 0.52811 0.98938 0.0
C100 C 0.18576 0.53248 0.07646 0.0
C101 C 0.17114 0.53194 0.11559 0.0
C102 C 0.20485 0.54694 0.07732 0.0
C103 C 0.2092 0.56072 0.11635 0.0
C104 C 0.19437 0.56069 0.15533 0.0
C105 C 0.17657 0.45537 0.00219 0.0
C106 C 0.16212 0.44208 0.97364 0.0
C107 C 0.19252 0.44433 0.03138 0.0
C108 C 0.19465 0.42059 0.03055 0.0
C109 C 0.18081 0.40736 0.0007 0.0
C110 C 0.16415 0.41829 0.97306 0.0
C111 C 0.1753 0.54604 0.15454 0.0
H112 H 0.1691 0.5737 0.84142 0.0
H113 H 0.16066 0.55419 0.91554 0.0
H114 H 0.20551 0.49902 0.87554 0.0
H115 H 0.21344 0.51822 0.80099 0.0
H116 H 0.1759 0.4804 0.92227 0.0
H117 H 0.18446 0.54635 0.98602 0.0
H118 H 0.17869 0.48665 0.07342 0.0
H119 H 0.15626 0.52096 0.11564 0.0
H120 H 0.21662 0.54737 0.04791 0.0
H121 H 0.22441 0.57122 0.11608 0.0
H122 H 0.14957 0.45013 0.95099 0.0
H123 H 0.20405 0.4541 0.0534 0.0
H124 H 0.16339 0.54568 0.18366 0.0
H125 H 0.15329 0.40853 0.94964 0.0
H126 H 0.20745 0.41259 0.05268 0.0
C127 C 0.9372 0.80455 0.34146 0.0
C128 C 0.92215 0.823 0.33535 0.0
C129 C 0.95092 0.80307 0.38166 0.0
C130 C 0.94988 0.82 0.41666 0.0
C131 C 0.9354 0.83884 0.40979 0.0
C132 C 0.9217 0.84033 0.36956 0.0
C133 C 0.96275 0.81721 0.46143 0.0
C134 C 0.98522 0.80881 0.4613 0.0
C135 C 0.99674 0.80428 0.50382 0.0
C136 C 0.98553 0.80833 0.54674 0.0
C137 C 0.96324 0.817 0.54742 0.0
C138 C 0.95202 0.82157 0.50473 0.0
C139 C 0.95104 0.81993 0.5926 0.0
C140 C 0.95 0.80188 0.62507 0.0
C141 C 0.93952 0.84036 0.60256 0.0
C142 C 0.92683 0.84254 0.64396 0.0
C143 C 0.92508 0.82419 0.67587 0.0
C144 C 0.02019 0.79464 0.50355 0.0
C145 C 0.02625 0.77758 0.4711 0.0
C146 C 0.03655 0.80208 0.53642 0.0
C147 C 0.05838 0.79252 0.53713 0.0
C148 C 0.0644 0.77538 0.50484 0.0
C149 C 0.04812 0.7681 0.47167 0.0
C150 C 0.93705 0.80391 0.6661 0.0
H151 H 0.93775 0.79078 0.31605 0.0
H152 H 0.96166 0.78818 0.3862 0.0
H153 H 0.93448 0.85233 0.43581 0.0
H154 H 0.91056 0.85496 0.36546 0.0
H155 H 0.99375 0.8059 0.42799 0.0
H156 H 0.93447 0.82742 0.50534 0.0
H157 H 0.99397 0.80438 0.57978 0.0
H158 H 0.95854 0.78585 0.61788 0.0
H159 H 0.94027 0.85459 0.57819 0.0
H160 H 0.91823 0.85857 0.65073 0.0
H161 H 0.01398 0.77126 0.44567 0.0
H162 H 0.03252 0.81536 0.56158 0.0
H163 H 0.93579 0.78927 0.68928 0.0
H164 H 0.05229 0.75513 0.44591 0.0
H165 H 0.07045 0.79837 0.56344 0.0
C166 C 0.80241 0.46939 0.16777 0.0
C167 C 0.80966 0.44654 0.16773 0.0
C168 C 0.80594 0.48327 0.1283 0.0
C169 C 0.81705 0.47467 0.08808 0.0
C170 C 0.82531 0.4521 0.0892 0.0
C171 C 0.82148 0.43815 0.12841 0.0
C172 C 0.81837 0.48856 0.04403 0.0
C173 C 0.8214 0.51239 0.04581 0.0
C174 C 0.82021 0.52579 0.00458 0.0
C175 C 0.81661 0.51486 0.96107 0.0
C176 C 0.81419 0.49108 0.9584 0.0
C177 C 0.81499 0.4781 -3e-05 0.0
C178 C 0.80972 0.47981 0.91245 0.0
C179 C 0.79357 0.4889 0.8809 0.0
C180 C 0.82114 0.45955 0.9004 0.0
C181 C 0.81622 0.4484 0.85807 0.0
C182 C 0.79969 0.45721 0.82703 0.0
C183 C 0.82127 0.55123 0.00688 0.0
C184 C 0.81127 0.56311 0.04473 0.0
C185 C 0.83093 0.56395 0.96971 0.0
C186 C 0.82946 0.58776 0.96913 0.0
C187 C 0.81887 0.5994 0.00626 0.0
C188 C 0.81027 0.58696 0.04458 0.0
C189 C 0.78857 0.47769 0.83869 0.0
H190 H 0.79305 0.47622 0.19748 0.0
H191 H 0.79902 0.50041 0.12863 0.0
H192 H 0.83437 0.44503 0.05937 0.0
H193 H 0.82747 0.42065 0.12775 0.0
H194 H 0.82462 0.52052 0.07942 0.0
H195 H 0.81186 0.4599 0.99804 0.0
H196 H 0.81522 0.52486 0.92905 0.0
H197 H 0.78436 0.50438 0.88939 0.0
H198 H 0.83379 0.45225 0.92387 0.0
H199 H 0.8249 0.43252 0.85028 0.0
H200 H 0.80333 0.55403 0.07364 0.0
H201 H 0.8393 0.55553 0.94053 0.0
H202 H 0.77586 0.48494 0.81532 0.0
H203 H 0.80185 0.59565 0.07341 0.0
H204 H 0.83636 0.5971 0.93939 0.0
C205 C 0.04967 0.17635 0.67507 0.0
C206 C 0.06929 0.18933 0.68478 0.0
C207 C 0.03829 0.17887 0.63188 0.0
C208 C 0.04677 0.19396 0.59758 0.0
C209 C 0.06643 0.20679 0.60739 0.0
C210 C 0.07749 0.20461 0.65064 0.0
C211 C 0.03523 0.19693 0.55164 0.0
C212 C 0.01225 0.20339 0.54959 0.0
C213 C 0.0024 0.20982 0.50649 0.0
C214 C 0.01556 0.20937 0.46517 0.0
C215 C 0.03842 0.20199 0.46626 0.0
C216 C 0.04796 0.19561 0.50991 0.0
C217 C 0.05256 0.2016 0.4225 0.0
C218 C 0.04273 0.19686 0.37826 0.0
C219 C 0.07616 0.20589 0.42464 0.0
C220 C 0.08962 0.20482 0.38422 0.0
C221 C 0.07983 0.20023 0.33991 0.0
C222 C 0.97872 0.21835 0.5052 0.0
C223 C 0.96078 0.20484 0.52223 0.0
C224 C 0.97405 0.24028 0.48785 0.0
C225 C 0.95178 0.24874 0.48809 0.0
C226 C 0.93361 0.23525 0.50485 0.0
C227 C 0.93841 0.2131 0.52159 0.0
C228 C 0.05612 0.19647 0.33749 0.0
H229 H 0.04311 0.16443 0.70094 0.0
H230 H 0.02312 0.16883 0.62497 0.0
H231 H 0.07315 0.21871 0.58165 0.0
H232 H 0.09273 0.2146 0.65712 0.0
H233 H 0.00241 0.20469 0.58181 0.0
H234 H 0.06545 0.18973 0.51196 0.0
H235 H 0.00794 0.21511 0.43242 0.0
H236 H 0.0247 0.19317 0.37496 0.0
H237 H 0.08444 0.2102 0.45757 0.0
H238 H 0.10782 0.20734 0.38815 0.0
H239 H 0.96405 0.18781 0.53554 0.0
H240 H 0.98774 0.25107 0.47507 0.0
H241 H 0.04776 0.19326 0.3041 0.0
H242 H 0.92488 0.20201 0.53387 0.0
H243 H 0.94891 0.26602 0.47586 0.0
C244 C 0.67592 0.96189 0.66088 0.0
C245 C 0.69557 0.94811 0.66433 0.0
C246 C 0.67254 0.97605 0.62153 0.0
C247 C 0.68864 0.97643 0.58496 0.0
C248 C 0.70851 0.96323 0.58911 0.0
C249 C 0.71201 0.94939 0.62837 0.0
C250 C 0.68481 0.98971 0.54127 0.0
C251 C 0.68184 0.0135 0.54246 0.0
C252 C 0.6821 0.02616 0.50032 0.0
C253 C 0.68454 0.01484 0.45698 0.0
C254 C 0.68708 0.99106 0.45539 0.0
C255 C 0.68694 0.97865 0.49769 0.0
C256 C 0.69203 0.97933 0.41025 0.0
C257 C 0.67973 0.98449 0.369 0.0
C258 C 0.70951 0.96295 0.40823 0.0
C259 C 0.71448 0.95184 0.36612 0.0
C260 C 0.70217 0.95686 0.32486 0.0
C261 C 0.68294 0.05133 0.50142 0.0
C262 C 0.66464 0.06421 0.51886 0.0
C263 C 0.7023 0.06256 0.48407 0.0
C264 C 0.70338 0.08633 0.48382 0.0
C265 C 0.6849 0.0995 0.50001 0.0
C266 C 0.66552 0.08812 0.51778 0.0
C267 C 0.68468 0.97326 0.32669 0.0
H268 H 0.66291 0.9613 0.68792 0.0
H269 H 0.65709 0.98613 0.61899 0.0
H270 H 0.72137 0.96357 0.56171 0.0
H271 H 0.72768 0.93964 0.63046 0.0
H272 H 0.68098 0.02226 0.57605 0.0
H273 H 0.68914 0.96027 0.4969 0.0
H274 H 0.6855 0.02473 0.42469 0.0
H275 H 0.66613 0.99702 0.3696 0.0
H276 H 0.71954 0.95884 0.43921 0.0
H277 H 0.72785 0.93906 0.36603 0.0
H278 H 0.64953 0.05579 0.53231 0.0
H279 H 0.71673 0.05289 0.47103 0.0
H280 H 0.67498 0.97753 0.29537 0.0
H281 H 0.65087 0.09762 0.53016 0.0
H282 H 0.71888 0.09433 0.47126 0.0
C283 C 0.55905 0.30691 0.16729 0.0
C284 C 0.57102 0.32721 0.17684 0.0
C285 C 0.54626 0.30465 0.12599 0.0
C286 C 0.54539 0.32253 0.09304 0.0
C287 C 0.5569 0.34299 0.10283 0.0
C288 C 0.56944 0.34539 0.14447 0.0
C289 C 0.53335 0.31937 0.04763 0.0
C290 C 0.51119 0.31035 0.04659 0.0
C291 C 0.50011 0.30629 0.0035 0.0
C292 C 0.51152 0.31118 0.96115 0.0
C293 C 0.53387 0.31988 0.96159 0.0
C294 C 0.54452 0.32423 0.00507 0.0
C295 C 0.54675 0.32292 0.91698 0.0
C296 C 0.54591 0.30606 0.88178 0.0
C297 C 0.56104 0.34193 0.91044 0.0
C298 C 0.57473 0.34368 0.87032 0.0
C299 C 0.57444 0.32645 0.83588 0.0
C300 C 0.47689 0.29633 0.00277 0.0
C301 C 0.47162 0.27746 0.0314 0.0
C302 C 0.45988 0.30554 0.97344 0.0
C303 C 0.43795 0.29616 0.97303 0.0
C304 C 0.43271 0.27726 0.00159 0.0
C305 C 0.44977 0.26796 0.03067 0.0
C306 C 0.5596 0.30782 0.84168 0.0
H307 H 0.56017 0.2924 0.19087 0.0
H308 H 0.53772 0.2886 0.11899 0.0
H309 H 0.55627 0.35711 0.07814 0.0
H310 H 0.57806 0.36142 0.15104 0.0
H311 H 0.50248 0.30668 0.07943 0.0
H312 H 0.56199 0.33032 0.00591 0.0
H313 H 0.50314 0.30774 0.9278 0.0
H314 H 0.53534 0.29103 0.88606 0.0
H315 H 0.56182 0.35535 0.93662 0.0
H316 H 0.58573 0.35843 0.86648 0.0
H317 H 0.48448 0.2699 0.05402 0.0
H318 H 0.46346 0.32016 0.95122 0.0
H319 H 0.5592 0.29411 0.8161 0.0
H320 H 0.44614 0.25349 0.05328 0.0
H321 H 0.42514 0.30355 0.95004 0.0
C322 C 0.29127 0.03343 0.3392 0.0
C323 C 0.30209 0.05444 0.33082 0.0
C324 C 0.29597 0.021 0.38008 0.0
C325 C 0.31162 0.0293 0.41355 0.0
C326 C 0.32295 0.05 0.40455 0.0
C327 C 0.31827 0.06243 0.36352 0.0
C328 C 0.31508 0.0169 0.45872 0.0
C329 C 0.31626 0.993 0.45938 0.0
C330 C 0.3169 0.9809 0.50215 0.0
C331 C 0.31745 0.99314 0.54479 0.0
C332 C 0.31655 0.01718 0.54493 0.0
C333 C 0.31532 0.02883 0.50157 0.0
C334 C 0.31501 0.03022 0.58995 0.0
C335 C 0.30212 0.02181 0.62807 0.0
C336 C 0.32511 0.05196 0.59402 0.0
C337 C 0.32139 0.06539 0.63394 0.0
C338 C 0.30788 0.05723 0.67111 0.0
C339 C 0.3152 0.95554 0.50198 0.0
C340 C 0.30041 0.94462 0.47009 0.0
C341 C 0.32774 0.9421 0.53395 0.0
C342 C 0.32539 0.9183 0.53414 0.0
C343 C 0.31044 0.90747 0.50238 0.0
C344 C 0.29816 0.92093 0.47012 0.0
C345 C 0.29873 0.03512 0.66834 0.0
H346 H 0.27889 0.02674 0.31441 0.0
H347 H 0.28676 0.00524 0.38616 0.0
H348 H 0.33522 0.05673 0.42951 0.0
H349 H 0.32677 0.07865 0.35817 0.0
H350 H 0.31635 0.98376 0.42632 0.0
H351 H 0.31329 0.04721 0.50111 0.0
H352 H 0.31789 0.98393 0.57789 0.0
H353 H 0.29377 0.00536 0.6261 0.0
H354 H 0.33555 0.05882 0.56591 0.0
H355 H 0.3288 0.08232 0.63551 0.0
H356 H 0.29018 0.9544 0.44548 0.0
H357 H 0.3394 0.94995 0.55875 0.0
H358 H 0.28806 0.02854 0.69641 0.0
H359 H 0.28675 0.91316 0.44471 0.0
H360 H 0.33497 0.90843 0.5597 0.0
C361 C 0.42503 0.66314 0.8615 0.0
C362 C 0.42516 0.68046 0.82715 0.0
C363 C 0.43825 0.66518 0.90227 0.0
C364 C 0.45193 0.68457 0.9095 0.0
C365 C 0.45293 0.70136 0.87413 0.0
C366 C 0.43966 0.69934 0.83339 0.0
C367 C 0.46352 0.68828 0.95537 0.0
C368 C 0.48583 0.69692 0.95727 0.0
C369 C 0.49597 0.70237 0.0007 0.0
C370 C 0.48355 0.69919 0.04251 0.0
C371 C 0.46124 0.69039 0.04133 0.0
C372 C 0.45154 0.68469 0.99754 0.0
C373 C 0.44766 0.68802 0.08536 0.0
C374 C 0.45793 0.6809 0.12783 0.0
C375 C 0.4242 0.69311 0.08523 0.0
C376 C 0.41126 0.69075 0.12613 0.0
C377 C 0.42152 0.68361 0.16835 0.0
C378 C 0.5193 0.71206 0.00221 0.0
C379 C 0.53698 0.70205 0.976 0.0
C380 C 0.52399 0.73151 0.02947 0.0
C381 C 0.54591 0.74088 0.03024 0.0
C382 C 0.56359 0.73084 0.00412 0.0
C383 C 0.55894 0.71129 0.97713 0.0
C384 C 0.44499 0.67888 0.16905 0.0
H385 H 0.41435 0.64818 0.85727 0.0
H386 H 0.43741 0.65181 0.92863 0.0
H387 H 0.46311 0.71662 0.87896 0.0
H388 H 0.43997 0.71309 0.80784 0.0
H389 H 0.49516 0.69982 0.92484 0.0
H390 H 0.43432 0.67798 0.99608 0.0
H391 H 0.4912 0.70388 0.07592 0.0
H392 H 0.47589 0.6766 0.12915 0.0
H393 H 0.41579 0.69924 0.05365 0.0
H394 H 0.39324 0.69489 0.12496 0.0
H395 H 0.53384 0.68696 0.95491 0.0
H396 H 0.51062 0.73968 0.04966 0.0
H397 H 0.45323 0.67328 0.20126 0.0
H398 H 0.57224 0.70332 0.95638 0.0
H399 H 0.54908 0.75587 0.05159 0.0
C400 C 0.17332 0.17272 0.14582 0.0
C401 C 0.17372 0.18833 0.10847 0.0
C402 C 0.15694 0.17454 0.18159 0.0
C403 C 0.14011 0.19186 0.17875 0.0
C404 C 0.13983 0.20696 0.1397 0.0
C405 C 0.15702 0.20533 0.10547 0.0
C406 C 0.15832 0.15863 0.22344 0.0
C407 C 0.12166 0.22506 0.13452 0.0
C408 C 0.0892 0.18398 0.25988 0.0
C409 C 0.09444 0.19908 0.29685 0.0
C410 C 0.10339 0.18216 0.22022 0.0
C411 C 0.12379 0.19504 0.21823 0.0
C412 C 0.12912 0.21042 0.25501 0.0
C413 C 0.11416 0.21263 0.29322 0.0
C414 C 0.09676 0.16615 0.18084 0.0
C415 C 0.15099 0.22411 0.25473 0.0
H416 H 0.18649 0.15976 0.14818 0.0
H417 H 0.15741 0.21731 0.07629 0.0
H418 H 0.16126 0.16868 0.25604 0.0
H419 H 0.14197 0.14937 0.22794 0.0
H420 H 0.17228 0.14592 0.21989 0.0
H421 H 0.12236 0.23365 0.09961 0.0
H422 H 0.10447 0.21741 0.13913 0.0
H423 H 0.12381 0.23818 0.16232 0.0
H424 H 0.07427 0.17316 0.26219 0.0
H425 H 0.11814 0.22491 0.32051 0.0
H426 H 0.10884 0.1516 0.17957 0.0
H427 H 0.09776 0.17508 0.14637 0.0
H428 H 0.07922 0.15928 0.18532 0.0
H429 H 0.16587 0.21243 0.25261 0.0
H430 H 0.15288 0.23489 0.28669 0.0
H431 H 0.15155 0.23534 0.22325 0.0
C432 C 0.2357 0.61583 0.58545 0.0
C433 C 0.241 0.63801 0.60059 0.0
C434 C 0.22604 0.59983 0.61655 0.0
C435 C 0.22174 0.60616 0.66385 0.0
C436 C 0.22642 0.6287 0.6789 0.0
C437 C 0.23588 0.64435 0.64709 0.0
C438 C 0.22104 0.576 0.59919 0.0
C439 C 0.22214 0.63611 0.72912 0.0
C440 C 0.18317 0.57247 0.74582 0.0
C441 C 0.1992 0.5606 0.77324 0.0
C442 C 0.19016 0.58657 0.70846 0.0
C443 C 0.21373 0.589 0.69873 0.0
C444 C 0.22991 0.57644 0.72528 0.0
C445 C 0.22244 0.56236 0.76213 0.0
C446 C 0.17241 0.59952 0.68057 0.0
C447 C 0.25522 0.57872 0.7163 0.0
H448 H 0.23942 0.61082 0.5495 0.0
H449 H 0.23977 0.66146 0.65914 0.0
H450 H 0.23244 0.56364 0.61725 0.0
H451 H 0.20323 0.57115 0.60786 0.0
H452 H 0.22354 0.57435 0.56053 0.0
H453 H 0.22578 0.65453 0.73462 0.0
H454 H 0.20414 0.63275 0.73897 0.0
H455 H 0.23308 0.62605 0.75345 0.0
H456 H 0.16517 0.57095 0.75401 0.0
H457 H 0.23493 0.55346 0.78359 0.0
H458 H 0.17523 0.59719 0.64222 0.0
H459 H 0.17394 0.61804 0.68805 0.0
H460 H 0.15478 0.59399 0.6893 0.0
H461 H 0.25902 0.57573 0.67852 0.0
H462 H 0.26544 0.56657 0.73779 0.0
H463 H 0.26082 0.59634 0.72479 0.0
C464 C 0.83643 0.83977 0.11739 0.0
C465 C 0.8235 0.81987 0.11039 0.0
C466 C 0.85368 0.84061 0.15169 0.0
C467 C 0.85813 0.82109 0.17965 0.0
C468 C 0.8457 0.80072 0.17174 0.0
C469 C 0.82854 0.80035 0.13718 0.0
C470 C 0.86664 0.86261 0.15902 0.0
C471 C 0.85003 0.77953 0.20078 0.0
C472 C 0.91339 0.81718 0.24952 0.0
C473 C 0.90611 0.8235 0.29476 0.0
C474 C 0.89803 0.81655 0.2115 0.0
C475 C 0.87487 0.82233 0.21899 0.0
C476 C 0.86749 0.829 0.26441 0.0
C477 C 0.88319 0.82949 0.30172 0.0
C478 C 0.90652 0.80946 0.16348 0.0
C479 C 0.8429 0.83526 0.2738 0.0
H480 H 0.83278 0.85491 0.09671 0.0
H481 H 0.81877 0.78486 0.13188 0.0
H482 H 0.86282 0.86954 0.19452 0.0
H483 H 0.88528 0.85943 0.15751 0.0
H484 H 0.86218 0.87576 0.1323 0.0
H485 H 0.83983 0.76471 0.18839 0.0
H486 H 0.86838 0.77491 0.19957 0.0
H487 H 0.84568 0.78288 0.23819 0.0
H488 H 0.93114 0.81277 0.24384 0.0
H489 H 0.87737 0.83403 0.33672 0.0
H490 H 0.90281 0.82305 0.13727 0.0
H491 H 0.8974 0.79387 0.15174 0.0
H492 H 0.92515 0.80597 0.16332 0.0
H493 H 0.83756 0.8494 0.25017 0.0
H494 H 0.84005 0.84059 0.31089 0.0
H495 H 0.8317 0.82045 0.26607 0.0
C496 C 0.75965 0.39092 0.59168 0.0
C497 C 0.75606 0.3681 0.60487 0.0
C498 C 0.76838 0.40685 0.62404 0.0
C499 C 0.77353 0.39978 0.67061 0.0
C500 C 0.77075 0.37662 0.68354 0.0
C501 C 0.76216 0.36108 0.65053 0.0
C502 C 0.77138 0.43138 0.60889 0.0
C503 C 0.77603 0.36838 0.73287 0.0
C504 C 0.80988 0.43446 0.75518 0.0
C505 C 0.79316 0.44435 0.78403 0.0
C506 C 0.80376 0.42075 0.71661 0.0
C507 C 0.78039 0.41668 0.70703 0.0
C508 C 0.76346 0.42724 0.7351 0.0
C509 C 0.77006 0.44098 0.77318 0.0
C510 C 0.82228 0.40997 0.68717 0.0
C511 C 0.73836 0.42317 0.7263 0.0
H512 H 0.75514 0.39648 0.55641 0.0
H513 H 0.75965 0.34346 0.66105 0.0
H514 H 0.75903 0.44233 0.62799 0.0
H515 H 0.78875 0.43749 0.6181 0.0
H516 H 0.76867 0.43369 0.57041 0.0
H517 H 0.77399 0.3496 0.73658 0.0
H518 H 0.79375 0.373 0.74275 0.0
H519 H 0.76447 0.37686 0.75836 0.0
H520 H 0.82776 0.43726 0.76312 0.0
H521 H 0.75707 0.44837 0.79566 0.0
H522 H 0.81902 0.41304 0.64915 0.0
H523 H 0.82227 0.39122 0.69274 0.0
H524 H 0.83948 0.41665 0.6962 0.0
H525 H 0.73406 0.42681 0.68894 0.0
H526 H 0.72736 0.43388 0.7492 0.0
H527 H 0.73424 0.40496 0.73301 0.0
C528 C 0.65343 0.34142 0.40316 0.0
C529 C 0.66984 0.32405 0.40035 0.0
C530 C 0.63563 0.3428 0.37005 0.0
C531 C 0.63406 0.3262 0.33397 0.0
C532 C 0.64997 0.30803 0.33245 0.0
C533 C 0.66777 0.30729 0.36542 0.0
C534 C 0.61914 0.36257 0.37242 0.0
C535 C 0.64862 0.28974 0.29505 0.0
C536 C 0.58004 0.31845 0.2617 0.0
C537 C 0.58616 0.32885 0.2189 0.0
C538 C 0.59519 0.318 0.30008 0.0
C539 C 0.61683 0.32851 0.2958 0.0
C540 C 0.62272 0.33991 0.25353 0.0
C541 C 0.60742 0.33977 0.2155 0.0
C542 C 0.58838 0.30555 0.34453 0.0
C543 C 0.64558 0.35152 0.24777 0.0
H544 H 0.65501 0.35446 0.43005 0.0
H545 H 0.68028 0.29368 0.36352 0.0
H546 H 0.62157 0.37375 0.34121 0.0
H547 H 0.60128 0.35631 0.37143 0.0
H548 H 0.62156 0.37298 0.40474 0.0
H549 H 0.66118 0.27583 0.30107 0.0
H550 H 0.63125 0.28222 0.29408 0.0
H551 H 0.65192 0.29738 0.2599 0.0
H552 H 0.5635 0.31034 0.26502 0.0
H553 H 0.61253 0.34756 0.1825 0.0
H554 H 0.59066 0.31675 0.37567 0.0
H555 H 0.59962 0.2905 0.34965 0.0
H556 H 0.57038 0.29961 0.34341 0.0
H557 H 0.6488 0.36328 0.27766 0.0
H558 H 0.6467 0.36136 0.21435 0.0
H559 H 0.65936 0.33853 0.24803 0.0
C560 C 0.28001 0.14589 0.87985 0.0
C561 C 0.25737 0.14235 0.89409 0.0
C562 C 0.29024 0.13168 0.84606 0.0
C563 C 0.27732 0.1139 0.82527 0.0
C564 C 0.25458 0.11005 0.8401 0.0
C565 C 0.24497 0.12415 0.8747 0.0
C566 C 0.31469 0.13598 0.83194 0.0
C567 C 0.24007 0.09156 0.81816 0.0
C568 C 0.29219 0.0938 0.702 0.0
C569 C 0.30184 0.07234 0.71098 0.0
C570 C 0.28454 0.10768 0.73898 0.0
C571 C 0.28701 0.10008 0.78613 0.0
C572 C 0.29752 0.07877 0.79547 0.0
C573 C 0.30455 0.06499 0.75768 0.0
C574 C 0.27301 0.13007 0.72746 0.0
C575 C 0.30091 0.07033 0.84529 0.0
H576 H 0.28971 0.15983 0.89502 0.0
H577 H 0.22742 0.12141 0.88532 0.0
H578 H 0.32472 0.11995 0.83452 0.0
H579 H 0.31536 0.14168 0.79467 0.0
H580 H 0.32297 0.14919 0.85425 0.0
H581 H 0.22287 0.09045 0.83442 0.0
H582 H 0.23799 0.09494 0.77989 0.0
H583 H 0.2486 0.07475 0.8218 0.0
H584 H 0.28986 0.09936 0.66584 0.0
H585 H 0.31214 0.04843 0.76455 0.0
H586 H 0.2817 0.14429 0.74597 0.0
H587 H 0.25508 0.12968 0.73999 0.0
H588 H 0.27299 0.13377 0.68904 0.0
H589 H 0.30965 0.08356 0.8667 0.0
H590 H 0.3111 0.05435 0.84669 0.0
H591 H 0.2841 0.06707 0.8619 0.0
C592 C 0.3268 0.70053 0.35961 0.0
C593 C 0.32589 0.68419 0.39568 0.0
C594 C 0.34442 0.70034 0.32634 0.0
C595 C 0.36138 0.68317 0.32879 0.0
C596 C 0.36104 0.6671 0.3661 0.0
C597 C 0.34335 0.6679 0.3994 0.0
C598 C 0.34441 0.71803 0.28752 0.0
C599 C 0.37872 0.64843 0.36957 0.0
C600 C 0.38705 0.66913 0.21005 0.0
C601 C 0.40753 0.68144 0.21144 0.0
C602 C 0.37241 0.66865 0.249 0.0
C603 C 0.37826 0.68109 0.29004 0.0
C604 C 0.39933 0.69289 0.29226 0.0
C605 C 0.41383 0.6928 0.25289 0.0
C606 C 0.35025 0.65557 0.24552 0.0
C607 C 0.40602 0.70651 0.33524 0.0
H608 H 0.3135 0.71334 0.35698 0.0
H609 H 0.34271 0.65521 0.42722 0.0
H610 H 0.36134 0.72641 0.28519 0.0
H611 H 0.34111 0.70962 0.25315 0.0
H612 H 0.33121 0.73137 0.29303 0.0
H613 H 0.37729 0.63859 0.40294 0.0
H614 H 0.37662 0.63646 0.33958 0.0
H615 H 0.39616 0.65571 0.36717 0.0
H616 H 0.38234 0.66015 0.17809 0.0
H617 H 0.42964 0.70242 0.25378 0.0
H618 H 0.33569 0.66767 0.2459 0.0
H619 H 0.34828 0.64406 0.27634 0.0
H620 H 0.3492 0.64521 0.21282 0.0
H621 H 0.39438 0.72134 0.33897 0.0
H622 H 0.42383 0.71293 0.33308 0.0
H623 H 0.40425 0.69599 0.36757 0.0
C624 C 0.75217 0.88088 0.87315 0.0
C625 C 0.74031 0.86189 0.8907 0.0
C626 C 0.74251 0.89502 0.8386 0.0
C627 C 0.72023 0.89036 0.82176 0.0
C628 C 0.70776 0.8718 0.84076 0.0
C629 C 0.71804 0.85762 0.8747 0.0
C630 C 0.75655 0.9144 0.81871 0.0
C631 C 0.68379 0.8666 0.8244 0.0
C632 C 0.69395 0.93889 0.75105 0.0
C633 C 0.69924 0.9323 0.70479 0.0
C634 C 0.69953 0.92481 0.78958 0.0
C635 C 0.71096 0.90386 0.78162 0.0
C636 C 0.71541 0.89669 0.73494 0.0
C637 C 0.70926 0.91085 0.69718 0.0
C638 C 0.69409 0.93279 0.83885 0.0
C639 C 0.7277 0.87455 0.72486 0.0
H640 H 0.76939 0.88428 0.88524 0.0
H641 H 0.7087 0.84311 0.88851 0.0
H642 H 0.75976 0.9114 0.78068 0.0
H643 H 0.74708 0.93073 0.8217 0.0
H644 H 0.77324 0.91628 0.83692 0.0
H645 H 0.67555 0.85315 0.84616 0.0
H646 H 0.67314 0.88225 0.82564 0.0
H647 H 0.68413 0.86076 0.78724 0.0
H648 H 0.68623 0.95541 0.75736 0.0
H649 H 0.71281 0.90529 0.66152 0.0
H650 H 0.71011 0.93753 0.85728 0.0
H651 H 0.686 0.91885 0.85941 0.0
H652 H 0.68254 0.94783 0.83881 0.0
H653 H 0.74527 0.87534 0.73947 0.0
H654 H 0.72883 0.87092 0.68652 0.0
H655 H 0.71888 0.8601 0.74233 0.0
C656 C 0.82784 0.80455 0.8635 0.0
C657 C 0.82618 0.82119 0.89874 0.0
C658 C 0.84558 0.8051 0.83047 0.0
C659 C 0.8618 0.82299 0.83223 0.0
C660 C 0.86061 0.83949 0.86856 0.0
C661 C 0.84289 0.83827 0.90174 0.0
C662 C 0.84654 0.78692 0.79282 0.0
C663 C 0.87742 0.85899 0.87114 0.0
C664 C 0.91576 0.81492 0.76029 0.0
C665 C 0.90982 0.82564 0.71768 0.0
C666 C 0.90054 0.81438 0.79843 0.0
C667 C 0.87902 0.82514 0.79413 0.0
C668 C 0.8733 0.83682 0.75204 0.0
C669 C 0.88866 0.83675 0.71422 0.0
C670 C 0.90715 0.80161 0.84267 0.0
C671 C 0.85059 0.84873 0.74631 0.0
H672 H 0.81508 0.79117 0.86145 0.0
H673 H 0.84161 0.85123 0.92885 0.0
H674 H 0.84328 0.79473 0.75779 0.0
H675 H 0.86378 0.77913 0.79169 0.0
H676 H 0.83377 0.77319 0.79869 0.0
H677 H 0.87519 0.86939 0.90351 0.0
H678 H 0.89517 0.85244 0.87021 0.0
H679 H 0.87517 0.87025 0.83998 0.0
H680 H 0.93223 0.80666 0.76369 0.0
H681 H 0.88368 0.84477 0.68134 0.0
H682 H 0.89558 0.7868 0.84759 0.0
H683 H 0.90518 0.81275 0.87397 0.0
H684 H 0.925 0.79528 0.84144 0.0
H685 H 0.83664 0.83593 0.74636 0.0
H686 H 0.84958 0.85868 0.713 0.0
H687 H 0.84755 0.86045 0.77633 0.0
C688 C 0.74513 0.38106 0.3713 0.0
C689 C 0.75667 0.36218 0.39027 0.0
C690 C 0.75517 0.39467 0.33629 0.0
C691 C 0.7775 0.38957 0.32048 0.0
C692 C 0.78953 0.37096 0.34051 0.0
C693 C 0.77888 0.35732 0.37485 0.0
C694 C 0.7416 0.41412 0.31528 0.0
C695 C 0.81353 0.36527 0.32522 0.0
C696 C 0.7924 0.41035 0.19753 0.0
C697 C 0.80334 0.43111 0.20708 0.0
C698 C 0.78438 0.3964 0.23417 0.0
C699 C 0.78773 0.40321 0.28156 0.0
C700 C 0.79956 0.42375 0.29144 0.0
C701 C 0.80702 0.4376 0.25402 0.0
C702 C 0.7715 0.37485 0.2221 0.0
C703 C 0.80385 0.43135 0.34149 0.0
H704 H 0.72791 0.38485 0.38282 0.0
H705 H 0.78795 0.34286 0.38967 0.0
H706 H 0.75106 0.4304 0.31937 0.0
H707 H 0.73917 0.41125 0.27694 0.0
H708 H 0.72455 0.41601 0.33192 0.0
H709 H 0.82109 0.35122 0.34645 0.0
H710 H 0.81354 0.36013 0.28761 0.0
H711 H 0.82461 0.38057 0.32835 0.0
H712 H 0.78931 0.40544 0.16123 0.0
H713 H 0.81562 0.45359 0.26142 0.0
H714 H 0.75366 0.37621 0.23488 0.0
H715 H 0.77935 0.35996 0.24006 0.0
H716 H 0.77114 0.37151 0.18357 0.0
H717 H 0.7874 0.43544 0.35881 0.0
H718 H 0.81502 0.44666 0.34322 0.0
H719 H 0.81192 0.41737 0.36202 0.0
C720 C 0.14924 0.17791 0.91581 0.0
C721 C 0.17121 0.18186 0.89796 0.0
C722 C 0.13011 0.17792 0.88585 0.0
C723 C 0.13314 0.18171 0.83698 0.0
C724 C 0.15532 0.18531 0.81874 0.0
C725 C 0.17404 0.18548 0.84946 0.0
C726 C 0.10667 0.17428 0.90652 0.0
C727 C 0.15931 0.18922 0.76673 0.0
C728 C 0.09028 0.16514 0.74292 0.0
C729 C 0.08203 0.18662 0.72944 0.0
C730 C 0.10596 0.16301 0.78016 0.0
C731 C 0.11324 0.18282 0.80453 0.0
C732 C 0.10354 0.20428 0.79329 0.0
C733 C 0.08815 0.20594 0.75559 0.0
C734 C 0.11601 0.13986 0.79095 0.0
C735 C 0.11058 0.22575 0.81888 0.0
H736 H 0.14693 0.17518 0.95331 0.0
H737 H 0.19097 0.18836 0.8353 0.0
H738 H 0.09602 0.18967 0.90044 0.0
H739 H 0.09805 0.1598 0.88871 0.0
H740 H 0.10729 0.17077 0.945 0.0
H741 H 0.17772 0.19082 0.75803 0.0
H742 H 0.15204 0.1749 0.74603 0.0
H743 H 0.15049 0.20505 0.75525 0.0
H744 H 0.0856 0.15023 0.72248 0.0
H745 H 0.08155 0.22251 0.74533 0.0
H746 H 0.11626 0.13669 0.82949 0.0
H747 H 0.13394 0.13931 0.77846 0.0
H748 H 0.10639 0.12587 0.7735 0.0
H749 H 0.11045 0.22296 0.85756 0.0
H750 H 0.09923 0.24038 0.81039 0.0
H751 H 0.12828 0.23037 0.80874 0.0
C752 C 0.2181 0.64747 0.3714 0.0
C753 C 0.24054 0.64353 0.38664 0.0
C754 C 0.20814 0.63385 0.33616 0.0
C755 C 0.22115 0.61625 0.31501 0.0
C756 C 0.24368 0.61201 0.33081 0.0
C757 C 0.253 0.62553 0.36674 0.0
C758 C 0.18389 0.63853 0.32098 0.0
C759 C 0.25829 0.5937 0.30862 0.0
C760 C 0.19519 0.56815 0.24282 0.0
C761 C 0.19915 0.57575 0.19657 0.0
C762 C 0.20122 0.58165 0.28184 0.0
C763 C 0.21187 0.60305 0.27448 0.0
C764 C 0.21526 0.61113 0.22799 0.0
C765 C 0.20861 0.59754 0.18972 0.0
C766 C 0.19693 0.57264 0.33092 0.0
C767 C 0.22676 0.63377 0.21857 0.0
H768 H 0.20833 0.66125 0.38694 0.0
H769 H 0.2704 0.62245 0.37814 0.0
H770 H 0.18368 0.64475 0.28404 0.0
H771 H 0.17372 0.62255 0.32205 0.0
H772 H 0.17547 0.65149 0.34361 0.0
H773 H 0.27529 0.59222 0.32573 0.0
H774 H 0.24959 0.57692 0.31086 0.0
H775 H 0.26082 0.59757 0.27068 0.0
H776 H 0.18805 0.55132 0.24871 0.0
H777 H 0.21117 0.6039 0.15424 0.0
H778 H 0.18846 0.58584 0.35277 0.0
H779 H 0.21343 0.56847 0.34811 0.0
H780 H 0.18615 0.55704 0.33072 0.0
H781 H 0.21768 0.64768 0.23723 0.0
H782 H 0.22736 0.63798 0.1804 0.0
H783 H 0.24449 0.63334 0.23237 0.0
C784 C 0.33792 0.66404 0.61151 0.0
C785 C 0.3247 0.68385 0.606 0.0
C786 C 0.35564 0.66306 0.64477 0.0
C787 C 0.36025 0.68235 0.67319 0.0
C788 C 0.34752 0.70266 0.6667 0.0
C789 C 0.32992 0.70318 0.63314 0.0
C790 C 0.36893 0.64115 0.65058 0.0
C791 C 0.35197 0.7236 0.69632 0.0
C792 C 0.38626 0.67323 0.79414 0.0
C793 C 0.40902 0.67969 0.78676 0.0
C794 C 0.37033 0.6737 0.75726 0.0
C795 C 0.37731 0.68085 0.71185 0.0
C796 C 0.40034 0.68705 0.70389 0.0
C797 C 0.41594 0.68641 0.7415 0.0
C798 C 0.3459 0.66701 0.76717 0.0
C799 C 0.40839 0.69466 0.65585 0.0
H800 H 0.33415 0.64906 0.59049 0.0
H801 H 0.31992 0.71861 0.62895 0.0
H802 H 0.38752 0.64457 0.64858 0.0
H803 H 0.36547 0.63372 0.68586 0.0
H804 H 0.3644 0.62828 0.62338 0.0
H805 H 0.34155 0.73846 0.68486 0.0
H806 H 0.34798 0.71984 0.73376 0.0
H807 H 0.37027 0.72838 0.69457 0.0
H808 H 0.38069 0.6684 0.82918 0.0
H809 H 0.43356 0.69123 0.73552 0.0
H810 H 0.34052 0.65311 0.74307 0.0
H811 H 0.33447 0.68177 0.76054 0.0
H812 H 0.34341 0.66118 0.80409 0.0
H813 H 0.40447 0.68137 0.62922 0.0
H814 H 0.42702 0.69819 0.65514 0.0
H815 H 0.39917 0.71038 0.64512 0.0
C816 C 0.73737 0.88914 0.08857 0.0
C817 C 0.74107 0.86648 0.10289 0.0
C818 C 0.72887 0.90546 0.12022 0.0
C819 C 0.72408 0.89896 0.16724 0.0
C820 C 0.7268 0.87592 0.18126 0.0
C821 C 0.73518 0.85997 0.1489 0.0
C822 C 0.72593 0.92982 0.10391 0.0
C823 C 0.72186 0.8683 0.23112 0.0
C824 C 0.73034 0.9407 0.26799 0.0
C825 C 0.70754 0.94453 0.2806 0.0
C826 C 0.73591 0.92672 0.22971 0.0
C827 C 0.71823 0.91641 0.20318 0.0
C828 C 0.69515 0.92124 0.21402 0.0
C829 C 0.69006 0.93525 0.25275 0.0
C830 C 0.76075 0.92207 0.21919 0.0
C831 C 0.67586 0.9107 0.18626 0.0
H832 H 0.74166 0.8943 0.05295 0.0
H833 H 0.73776 0.84248 0.16024 0.0
H834 H 0.7089 0.93639 0.11426 0.0
H835 H 0.7389 0.94079 0.1212 0.0
H836 H 0.72781 0.93155 0.06511 0.0
H837 H 0.72336 0.84951 0.23546 0.0
H838 H 0.73402 0.87664 0.25571 0.0
H839 H 0.70442 0.87358 0.24162 0.0
H840 H 0.7439 0.94823 0.28886 0.0
H841 H 0.6724 0.93809 0.26247 0.0
H842 H 0.76442 0.9254 0.18146 0.0
H843 H 0.76461 0.90382 0.2261 0.0
H844 H 0.77239 0.93268 0.24099 0.0
H845 H 0.67885 0.91267 0.14786 0.0
H846 H 0.6591 0.91842 0.19516 0.0
H847 H 0.67503 0.89213 0.19384 0.0
C848 C 0.66796 0.30364 0.63891 0.0
C849 C 0.67319 0.32303 0.61186 0.0
C850 C 0.65082 0.30428 0.67334 0.0
C851 C 0.63856 0.32477 0.68084 0.0
C852 C 0.64321 0.34417 0.65267 0.0
C853 C 0.66046 0.34307 0.61851 0.0
C854 C 0.64629 0.28322 0.70263 0.0
C855 C 0.63042 0.3663 0.65957 0.0
C856 C 0.58321 0.32099 0.75004 0.0
C857 C 0.59046 0.32722 0.79539 0.0
C858 C 0.59859 0.32045 0.71215 0.0
C859 C 0.62175 0.32623 0.7199 0.0
C860 C 0.62908 0.33289 0.76541 0.0
C861 C 0.61336 0.3333 0.80259 0.0
C862 C 0.59015 0.31339 0.66402 0.0
C863 C 0.65367 0.33913 0.77509 0.0
H864 H 0.67758 0.28804 0.63389 0.0
H865 H 0.66426 0.35811 0.59764 0.0
H866 H 0.65053 0.2867 0.74008 0.0
H867 H 0.62793 0.27868 0.7011 0.0
H868 H 0.65646 0.2683 0.69071 0.0
H869 H 0.63505 0.37934 0.63277 0.0
H870 H 0.61175 0.36326 0.65779 0.0
H871 H 0.63422 0.37328 0.69505 0.0
H872 H 0.56548 0.31651 0.74419 0.0
H873 H 0.61915 0.33779 0.83767 0.0
H874 H 0.59909 0.29765 0.65261 0.0
H875 H 0.5941 0.32687 0.63776 0.0
H876 H 0.57147 0.31013 0.66355 0.0
H877 H 0.66483 0.32425 0.76782 0.0
H878 H 0.65645 0.3446 0.81213 0.0
H879 H 0.65912 0.35314 0.7513 0.0
C880 C 0.26183 0.15113 0.15406 0.0
C881 C 0.25675 0.14334 0.10847 0.0
C882 C 0.27094 0.13641 0.18822 0.0
C883 C 0.27522 0.11334 0.1765 0.0
C884 C 0.27105 0.10557 0.13005 0.0
C885 C 0.26181 0.12066 0.09656 0.0
C886 C 0.27513 0.14535 0.2374 0.0
C887 C 0.27559 0.08111 0.1162 0.0
C888 C 0.3121 0.07969 0.26228 0.0
C889 C 0.29551 0.06857 0.28951 0.0
C890 C 0.30582 0.09386 0.22442 0.0
C891 C 0.28241 0.09707 0.21392 0.0
C892 C 0.26562 0.0856 0.24086 0.0
C893 C 0.27238 0.07148 0.27826 0.0
C894 C 0.32418 0.1057 0.19623 0.0
C895 C 0.24046 0.08874 0.23103 0.0
H896 H 0.25814 0.16866 0.1636 0.0
H897 H 0.25812 0.11452 0.06133 0.0
H898 H 0.26353 0.13665 0.26257 0.0
H899 H 0.29286 0.14156 0.24866 0.0
H900 H 0.27227 0.16406 0.23999 0.0
H901 H 0.27338 0.07828 0.07775 0.0
H902 H 0.29318 0.0761 0.12635 0.0
H903 H 0.2637 0.06965 0.13535 0.0
H904 H 0.33001 0.07731 0.2706 0.0
H905 H 0.25947 0.0632 0.29962 0.0
H906 H 0.32268 0.12446 0.20068 0.0
H907 H 0.32198 0.10201 0.15815 0.0
H908 H 0.3416 0.10038 0.20716 0.0
H909 H 0.23566 0.10686 0.23657 0.0
H910 H 0.22963 0.07789 0.25406 0.0
H911 H 0.23664 0.08455 0.19373 0.0
C912 C 0.20458 0.27447 0.94889 0.0
C913 C 0.21013 0.26361 0.99149 0.0
C914 C 0.19803 0.29756 0.94806 0.0
C915 C 0.19678 0.30992 0.99087 0.0
C916 C 0.20139 0.29874 0.03408 0.0
C917 C 0.20809 0.27578 0.03384 0.0
C918 C 0.19333 0.30895 0.90129 0.0
C919 C 0.19998 0.31122 0.08055 0.0
C920 C 0.20681 0.37385 0.99207 0.0
C921 C 0.18458 0.38238 0.99679 0.0
C922 C 0.21091 0.35034 0.98879 0.0
C923 C 0.19232 0.33492 0.99058 0.0
C924 C 0.16978 0.34342 0.99461 0.0
C925 C 0.16616 0.36709 0.99746 0.0
C926 C 0.23519 0.34198 0.98413 0.0
C927 C 0.14956 0.32748 0.99705 0.0
H928 H 0.20607 0.26516 0.91605 0.0
H929 H 0.21204 0.26742 0.06699 0.0
H930 H 0.17661 0.31781 0.90212 0.0
H931 H 0.20656 0.32209 0.89437 0.0
H932 H 0.19331 0.2966 0.87162 0.0
H933 H 0.20237 0.29963 0.11119 0.0
H934 H 0.21332 0.32466 0.08196 0.0
H935 H 0.18321 0.31984 0.08396 0.0
H936 H 0.22106 0.38565 0.99066 0.0
H937 H 0.14896 0.37364 0.00127 0.0
H938 H 0.23682 0.33084 0.95272 0.0
H939 H 0.23985 0.33158 0.01541 0.0
H940 H 0.2476 0.35624 0.98092 0.0
H941 H 0.14959 0.31576 0.96637 0.0
H942 H 0.13307 0.33682 0.99772 0.0
H943 H 0.15079 0.31677 0.02925 0.0
C944 C 0.18954 0.72635 0.46279 0.0
C945 C 0.19996 0.71869 0.50447 0.0
C946 C 0.16714 0.73474 0.46292 0.0
C947 C 0.15491 0.73564 0.50583 0.0
C948 C 0.16513 0.72756 0.5479 0.0
C949 C 0.18752 0.71906 0.54669 0.0
C950 C 0.1567 0.74298 0.41724 0.0
C951 C 0.15262 0.72837 0.59435 0.0
C952 C 0.10686 0.77887 0.51301 0.0
C953 C 0.08758 0.76511 0.50579 0.0
C954 C 0.12885 0.76943 0.51377 0.0
C955 C 0.13164 0.74568 0.50678 0.0
C956 C 0.11228 0.73166 0.49963 0.0
C957 C 0.09047 0.74153 0.4994 0.0
C958 C 0.14912 0.78492 0.52157 0.0
C959 C 0.11463 0.70626 0.49191 0.0
H960 H 0.19895 0.72593 0.42993 0.0
H961 H 0.19544 0.71318 0.57906 0.0
H962 H 0.14036 0.73397 0.41054 0.0
H963 H 0.15277 0.76147 0.41979 0.0
H964 H 0.16816 0.74026 0.38661 0.0
H965 H 0.16268 0.72071 0.62358 0.0
H966 H 0.14866 0.74634 0.6035 0.0
H967 H 0.13613 0.71916 0.59149 0.0
H968 H 0.1048 0.79714 0.51733 0.0
H969 H 0.07564 0.73073 0.49455 0.0
H970 H 0.16045 0.78447 0.49029 0.0
H971 H 0.15926 0.77884 0.55216 0.0
H972 H 0.14397 0.8029 0.52801 0.0
H973 H 0.12519 0.703 0.4602 0.0
H974 H 0.09785 0.69773 0.4872 0.0
H975 H 0.12352 0.69832 0.52233 0.0
C976 C 0.77254 0.72571 0.0266 0.0
C977 C 0.78474 0.74197 0.00054 0.0
C978 C 0.7791 0.70269 0.02683 0.0
C979 C 0.79874 0.69589 0.00146 0.0
C980 C 0.81144 0.71233 0.97591 0.0
C981 C 0.80408 0.73516 0.97518 0.0
C982 C 0.76476 0.68559 0.0535 0.0
C983 C 0.8328 0.70582 0.94944 0.0
C984 C 0.82368 0.63875 0.03877 0.0
C985 C 0.81527 0.62432 0.00349 0.0
C986 C 0.81926 0.66231 0.03748 0.0
C987 C 0.80553 0.67141 0.00083 0.0
C988 C 0.79718 0.65685 0.96492 0.0
C989 C 0.80241 0.63349 0.9664 0.0
C990 C 0.82893 0.67739 0.07572 0.0
C991 C 0.78201 0.66576 0.92594 0.0
H992 H 0.75746 0.73089 0.04594 0.0
H993 H 0.81363 0.74777 0.95532 0.0
H994 H 0.75854 0.67217 0.02907 0.0
H995 H 0.77522 0.677 0.08088 0.0
H996 H 0.74979 0.69363 0.07082 0.0
H997 H 0.84132 0.72083 0.9332 0.0
H998 H 0.84503 0.69731 0.97366 0.0
H999 H 0.82857 0.69343 0.92122 0.0
H1000 H 0.8337 0.63156 0.06732 0.0
H1001 H 0.79575 0.6222 0.93941 0.0
H1002 H 0.81487 0.68439 0.09745 0.0
H1003 H 0.83808 0.6921 0.05987 0.0
H1004 H 0.84088 0.66801 0.09924 0.0
H1005 H 0.76608 0.67281 0.94125 0.0
H1006 H 0.77738 0.65228 0.90013 0.0
H1007 H 0.79061 0.67987 0.90688 0.0
C1008 C 0.81268 0.29815 0.52999 0.0
C1009 C 0.79572 0.28638 0.50507 0.0
C1010 C 0.83536 0.29043 0.52996 0.0
C1011 C 0.84098 0.27015 0.50544 0.0
C1012 C 0.82382 0.25808 0.48069 0.0
C1013 C 0.80144 0.26651 0.48029 0.0
C1014 C 0.85332 0.30404 0.55582 0.0
C1015 C 0.82905 0.2361 0.45509 0.0
C1016 C 0.90217 0.25875 0.46886 0.0
C1017 C 0.90984 0.24429 0.50512 0.0
C1018 C 0.87995 0.26766 0.46905 0.0
C1019 C 0.8648 0.2615 0.50569 0.0
C1020 C 0.87227 0.24676 0.54212 0.0
C1021 C 0.89476 0.23858 0.54173 0.0
C1022 C 0.87267 0.28361 0.42994 0.0
C1023 C 0.85644 0.2395 0.58136 0.0
H1024 H 0.80828 0.3136 0.5489 0.0
H1025 H 0.78828 0.25726 0.46137 0.0
H1026 H 0.86119 0.29343 0.58389 0.0
H1027 H 0.86713 0.309 0.53113 0.0
H1028 H 0.84623 0.31973 0.57214 0.0
H1029 H 0.81364 0.22852 0.43845 0.0
H1030 H 0.84197 0.2392 0.42729 0.0
H1031 H 0.83641 0.22347 0.48004 0.0
H1032 H 0.91344 0.26297 0.4399 0.0
H1033 H 0.90056 0.22782 0.57044 0.0
H1034 H 0.86615 0.29981 0.44502 0.0
H1035 H 0.85854 0.27583 0.40946 0.0
H1036 H 0.88687 0.28764 0.40539 0.0
H1037 H 0.85054 0.25467 0.60122 0.0
H1038 H 0.86474 0.22749 0.60643 0.0
H1039 H 0.84108 0.23111 0.56637 0.0
C1040 C 0.72348 0.22777 0.52811 0.0
C1041 C 0.71062 0.24399 0.50325 0.0
C1042 C 0.71752 0.2046 0.52738 0.0
C1043 C 0.69785 0.19756 0.50227 0.0
C1044 C 0.68434 0.21398 0.47837 0.0
C1045 C 0.6911 0.237 0.47853 0.0
C1046 C 0.73271 0.18758 0.5523 0.0
C1047 C 0.66291 0.20719 0.45234 0.0
C1048 C 0.69774 0.13595 0.4616 0.0
C1049 C 0.68619 0.12494 0.49856 0.0
C1050 C 0.70118 0.15963 0.46185 0.0
C1051 C 0.69224 0.17283 0.49922 0.0
C1052 C 0.67942 0.16209 0.53523 0.0
C1053 C 0.67678 0.13825 0.53481 0.0
C1054 C 0.71523 0.17037 0.42309 0.0
C1055 C 0.66915 0.17569 0.57507 0.0
H1056 H 0.73869 0.2331 0.54694 0.0
H1057 H 0.68104 0.24958 0.45962 0.0
H1058 H 0.72274 0.17783 0.57873 0.0
H1059 H 0.73951 0.1751 0.52647 0.0
H1060 H 0.74733 0.19588 0.57045 0.0
H1061 H 0.65341 0.22222 0.43863 0.0
H1062 H 0.66729 0.19596 0.42226 0.0
H1063 H 0.6515 0.19732 0.47599 0.0
H1064 H 0.70448 0.12601 0.43262 0.0
H1065 H 0.66796 0.13002 0.56374 0.0
H1066 H 0.73085 0.17814 0.43838 0.0
H1067 H 0.70548 0.18426 0.40572 0.0
H1068 H 0.72042 0.15781 0.39585 0.0
H1069 H 0.68294 0.18236 0.59807 0.0
H1070 H 0.6574 0.16526 0.59698 0.0
H1071 H 0.65965 0.19061 0.56102 0.0
C1072 C 0.3092 0.22336 0.0441 0.0
C1073 C 0.29691 0.22139 0.00181 0.0
C1074 C 0.33155 0.23195 0.04447 0.0
C1075 C 0.34192 0.23847 0.00149 0.0
C1076 C 0.32983 0.23602 0.95859 0.0
C1077 C 0.30743 0.22761 0.95929 0.0
C1078 C 0.3439 0.23446 0.09094 0.0
C1079 C 0.34044 0.24256 0.912 0.0
C1080 C 0.39029 0.2815 0.00464 0.0
C1081 C 0.40947 0.26731 0.00128 0.0
C1082 C 0.3682 0.27231 0.00501 0.0
C1083 C 0.36525 0.24838 0.00148 0.0
C1084 C 0.38456 0.23398 0.99778 0.0
C1085 C 0.40647 0.24362 0.99795 0.0
C1086 C 0.34801 0.28819 0.00944 0.0
C1087 C 0.38205 0.20841 0.9934 0.0
H1088 H 0.3012 0.21862 0.07712 0.0
H1089 H 0.29812 0.22596 0.92641 0.0
H1090 H 0.36024 0.22491 0.0901 0.0
H1091 H 0.34813 0.25269 0.09705 0.0
H1092 H 0.3336 0.22817 0.12113 0.0
H1093 H 0.32907 0.23874 0.88164 0.0
H1094 H 0.34442 0.26107 0.91174 0.0
H1095 H 0.35678 0.23329 0.90709 0.0
H1096 H 0.39261 0.2998 0.00775 0.0
H1097 H 0.42129 0.23265 0.99486 0.0
H1098 H 0.33786 0.28361 0.04106 0.0
H1099 H 0.33665 0.28632 0.97837 0.0
H1100 H 0.35325 0.30636 0.0123 0.0
H1101 H 0.37285 0.20152 0.02447 0.0
H1102 H 0.39879 0.19962 0.99059 0.0
H1103 H 0.3717 0.20421 0.96179 0.0
C1104 C 0.29194 0.77392 0.458 0.0
C1105 C 0.28538 0.7626 0.49945 0.0
C1106 C 0.29772 0.79719 0.45857 0.0
C1107 C 0.29713 0.80935 0.50167 0.0
C1108 C 0.29146 0.79779 0.54389 0.0
C1109 C 0.28557 0.7746 0.54224 0.0
C1110 C 0.30359 0.80896 0.41279 0.0
C1111 C 0.29088 0.8101 0.59062 0.0
C1112 C 0.32587 0.8675 0.5089 0.0
C1113 C 0.30722 0.88227 0.50313 0.0
C1114 C 0.3229 0.84369 0.5086 0.0
C1115 C 0.30078 0.83447 0.50215 0.0
C1116 C 0.28189 0.84929 0.49655 0.0
C1117 C 0.28532 0.87296 0.49737 0.0
C1118 C 0.34341 0.8284 0.51499 0.0
C1119 C 0.25801 0.84014 0.48966 0.0
H1120 H 0.29191 0.76478 0.4248 0.0
H1121 H 0.2808 0.76593 0.57455 0.0
H1122 H 0.2903 0.82183 0.40431 0.0
H1123 H 0.32004 0.81819 0.41616 0.0
H1124 H 0.30484 0.79679 0.38291 0.0
H1125 H 0.28793 0.79827 0.62065 0.0
H1126 H 0.30717 0.81932 0.59659 0.0
H1127 H 0.27704 0.82302 0.59027 0.0
H1128 H 0.34287 0.87455 0.51291 0.0
H1129 H 0.27074 0.88422 0.49383 0.0
H1130 H 0.3455 0.81731 0.48363 0.0
H1131 H 0.34084 0.81701 0.54582 0.0
H1132 H 0.35941 0.83825 0.52032 0.0
H1133 H 0.25744 0.8289 0.45823 0.0
H1134 H 0.24522 0.85396 0.485 0.0
H1135 H 0.25299 0.82963 0.52052 0.0
C1136 C 0.68703 0.78558 0.04617 0.0
C1137 C 0.69963 0.78606 0.00416 0.0
C1138 C 0.6646 0.77722 0.04696 0.0
C1139 C 0.65446 0.76941 0.00464 0.0
C1140 C 0.66686 0.77039 0.96192 0.0
C1141 C 0.68933 0.77861 0.96223 0.0
C1142 C 0.65192 0.77628 0.09323 0.0
C1143 C 0.6565 0.76246 0.91599 0.0
C1144 C 0.60591 0.7267 0.01137 0.0
C1145 C 0.58683 0.74079 0.00484 0.0
C1146 C 0.62802 0.73585 0.01185 0.0
C1147 C 0.63109 0.75961 0.0052 0.0
C1148 C 0.61188 0.77392 0.99859 0.0
C1149 C 0.58994 0.76433 0.99872 0.0
C1150 C 0.6481 0.72009 0.01947 0.0
C1151 C 0.61453 0.79929 0.99089 0.0
H1152 H 0.69486 0.79128 0.07875 0.0
H1153 H 0.69889 0.77912 0.92956 0.0
H1154 H 0.63562 0.7858 0.09039 0.0
H1155 H 0.64761 0.75831 0.10187 0.0
H1156 H 0.66203 0.78354 0.12279 0.0
H1157 H 0.66807 0.76527 0.88555 0.0
H1158 H 0.65245 0.74399 0.91819 0.0
H1159 H 0.64024 0.77161 0.90925 0.0
H1160 H 0.6035 0.70853 0.01663 0.0
H1161 H 0.57521 0.77521 0.99318 0.0
H1162 H 0.65808 0.72573 0.05061 0.0
H1163 H 0.65965 0.72081 0.98856 0.0
H1164 H 0.64275 0.70209 0.02499 0.0
H1165 H 0.62368 0.80707 0.02113 0.0
H1166 H 0.59784 0.80806 0.98656 0.0
H1167 H 0.62498 0.80248 0.95896 0.0
loop_
_geom_bond_atom_site_label_1
_geom_bond_atom_site_label_2
_geom_bond_distance
_geom_bond_site_symmetry_2
_ccdc_geom_bond_type
Fe0 O2 1.918 . S
Fe0 O5 1.997 . S
Fe0 O6 2.002 . S
Fe0 O11 1.976 . S
Fe0 O14 1.996 . S
Fe1 O2 1.918 1_556 S
Fe1 O9 1.997 . S
Fe1 O12 1.996 . S
Fe1 O16 1.976 . S
Fe1 O19 2.002 . S
O2 Fe0 1.918 . S
O2 Fe1 1.918 1_554 S
O2 Fe3 1.918 . S
Fe3 O2 1.918 . S
Fe3 O4 2.016 . S
Fe3 O13 1.989 . S
Fe3 O17 1.982 1_554 S
Fe3 O20 1.983 1_554 S
O4 Fe3 2.016 . S
O4 C21 1.295 . S
O5 Fe0 1.997 . S
O5 C21 1.235 . S
O6 Fe0 2.002 . S
O6 C7 1.295 . S
C7 O6 1.295 . S
C7 O9 1.235 1_554 S
C8 O13 1.287 . S
C8 O14 1.255 . S
O9 Fe1 1.997 . S
O9 C7 1.235 1_556 S
C10 O16 1.287 . S
C10 O17 1.255 . S
O11 Fe0 1.976 . S
O11 C18 1.285 1_554 S
O12 Fe1 1.996 . S
O12 C18 1.256 . S
O13 Fe3 1.989 . S
O13 C8 1.287 . S
O14 Fe0 1.996 . S
O14 C8 1.255 . S
C15 O19 1.295 . S
C15 O20 1.235 . S
O16 Fe1 1.976 . S
O16 C10 1.287 . S
O17 Fe3 1.982 1_556 S
O17 C10 1.255 . S
C18 O11 1.285 1_556 S
C18 O12 1.256 . S
O19 Fe1 2.002 . S
O19 C15 1.295 . S
O20 Fe3 1.983 1_556 S
O20 C15 1.235 . S
C21 O4 1.295 . S
C21 O5 1.235 . S
Fe22 O24 1.918 . S
Fe22 O27 1.997 . S
Fe22 O28 2.002 . S
Fe22 O33 1.976 . S
Fe22 O36 1.996 . S
Fe23 O24 1.918 . S
Fe23 O31 1.997 . S
Fe23 O34 1.996 . S
Fe23 O38 1.976 . S
Fe23 O41 2.002 . S
O24 Fe22 1.918 . S
O24 Fe23 1.918 . S
O24 Fe25 1.918 . S
Fe25 O24 1.918 . S
Fe25 O26 2.002 . S
Fe25 O35 1.976 . S
Fe25 O39 1.996 . S
Fe25 O42 1.997 . S
O26 Fe25 2.002 . S
O26 C43 1.295 . S
O27 Fe22 1.997 . S
O27 C43 1.235 . S
O28 Fe22 2.002 . S
O28 C29 1.295 . S
C29 O28 1.295 . S
C29 O31 1.235 . S
C30 O35 1.287 . S
C30 O36 1.255 . S
O31 Fe23 1.997 . S
O31 C29 1.235 . S
C32 O38 1.287 . S
C32 O39 1.255 . S
O33 Fe22 1.976 . S
O33 C40 1.287 . S
O34 Fe23 1.996 . S
O34 C40 1.255 . S
O35 Fe25 1.976 . S
O35 C30 1.287 . S
O36 Fe22 1.996 . S
O36 C30 1.255 . S
C37 O41 1.295 . S
C37 O42 1.235 . S
O38 Fe23 1.976 . S
O38 C32 1.287 . S
O39 Fe25 1.996 . S
O39 C32 1.255 . S
C40 O33 1.287 . S
C40 O34 1.255 . S
O41 Fe23 2.002 . S
O41 C37 1.295 . S
O42 Fe25 1.997 . S
O42 C37 1.235 . S
C43 O26 1.295 . S
C43 O27 1.235 . S
Fe44 O46 1.899 1_556 S
Fe44 O49 1.997 . S
Fe44 O50 2.002 . S
Fe44 O55 1.976 . S
Fe44 O58 1.996 . S
Fe45 O46 1.938 . S
Fe45 O53 1.997 . S
Fe45 O56 1.996 . S
Fe45 O60 1.976 . S
Fe45 O63 2.002 . S
O46 Fe44 1.899 1_554 S
O46 Fe45 1.938 . S
O46 Fe47 1.918 . S
Fe47 O46 1.918 . S
Fe47 O48 2.002 1_554 S
Fe47 O57 1.976 1_554 S
Fe47 O61 1.996 . S
Fe47 O64 1.997 . S
O48 Fe47 2.002 1_556 S
O48 C65 1.295 . S
O49 Fe44 1.997 . S
O49 C65 1.235 . S
O50 Fe44 2.002 . S
O50 C51 1.302 . S
C51 O50 1.302 . S
C51 O53 1.229 1_556 S
C52 O57 1.287 . S
C52 O58 1.255 . S
O53 Fe45 1.997 . S
O53 C51 1.229 1_554 S
C54 O60 1.287 . S
C54 O61 1.255 . S
O55 Fe44 1.976 . S
O55 C62 1.287 1_556 S
O56 Fe45 1.996 . S
O56 C62 1.255 . S
O57 Fe47 1.976 1_556 S
O57 C52 1.287 . S
O58 Fe44 1.996 . S
O58 C52 1.255 . S
C59 O63 1.295 . S
C59 O64 1.235 . S
O60 Fe45 1.976 . S
O60 C54 1.287 . S
O61 Fe47 1.996 . S
O61 C54 1.255 . S
C62 O55 1.287 1_554 S
C62 O56 1.255 . S
O63 Fe45 2.002 . S
O63 C59 1.295 . S
O64 Fe47 1.997 . S
O64 C59 1.235 . S
C65 O48 1.295 . S
C65 O49 1.235 . S
Fe66 O68 1.918 . S
Fe66 O71 1.997 . S
Fe66 O72 2.002 . S
Fe66 O77 1.976 . S
Fe66 O80 1.996 . S
Fe67 O68 1.918 . S
Fe67 O75 1.997 . S
Fe67 O78 1.996 . S
Fe67 O82 1.976 . S
Fe67 O85 2.002 . S
O68 Fe66 1.918 . S
O68 Fe67 1.918 . S
O68 Fe69 1.918 . S
Fe69 O68 1.918 . S
Fe69 O70 2.002 . S
Fe69 O79 1.976 . S
Fe69 O83 1.996 . S
Fe69 O86 1.997 . S
O70 Fe69 2.002 . S
O70 C87 1.295 . S
O71 Fe66 1.997 . S
O71 C87 1.235 . S
O72 Fe66 2.002 . S
O72 C73 1.295 . S
C73 O72 1.295 . S
C73 O75 1.235 . S
C74 O79 1.287 . S
C74 O80 1.255 . S
O75 Fe67 1.997 . S
O75 C73 1.235 . S
C76 O82 1.287 . S
C76 O83 1.255 . S
O77 Fe66 1.976 . S
O77 C84 1.287 . S
O78 Fe67 1.996 . S
O78 C84 1.255 . S
O79 Fe69 1.976 . S
O79 C74 1.287 . S
O80 Fe66 1.996 . S
O80 C74 1.255 . S
C81 O85 1.295 . S
C81 O86 1.235 . S
O82 Fe67 1.976 . S
O82 C76 1.287 . S
O83 Fe69 1.996 . S
O83 C76 1.255 . S
C84 O77 1.287 . S
C84 O78 1.255 . S
O85 Fe67 2.002 . S
O85 C81 1.295 . S
O86 Fe69 1.997 . S
O86 C81 1.235 . S
C87 O70 1.295 . S
C87 O71 1.235 . S
C88 C89 1.386 . S
C88 C90 1.397 . S
C88 H112 0.931 . S
C89 C88 1.386 . S
C89 C93 1.397 . S
C90 C88 1.397 . S
C90 C91 1.384 . S
C90 H113 0.930 . S
C91 C90 1.384 . S
C91 C92 1.377 . S
C91 C94 1.481 . S
C92 C91 1.377 . S
C92 C93 1.389 . S
C92 H114 0.929 . S
C93 C89 1.397 . S
C93 C92 1.389 . S
C93 H115 0.931 . S
C94 C91 1.481 . S
C94 C95 1.387 . S
C94 C99 1.390 1_556 S
C95 C94 1.387 . S
C95 C96 1.401 1_556 S
C95 H116 0.930 . S
C96 C95 1.401 1_554 S
C96 C97 1.376 . S
C96 C105 1.511 . S
C97 C96 1.376 . S
C97 C98 1.392 . S
C97 H118 0.931 . S
C98 C97 1.392 . S
C98 C99 1.361 . S
C98 C100 1.500 . S
C99 C94 1.390 1_554 S
C99 C98 1.361 . S
C99 H117 0.931 . S
C100 C98 1.500 . S
C100 C101 1.371 . S
C100 C102 1.365 . S
C101 C100 1.371 . S
C101 C111 1.386 . S
C101 H119 0.931 . S
C102 C100 1.365 . S
C102 C103 1.409 . S
C102 H120 0.929 . S
C103 C102 1.409 . S
C103 C104 1.380 . S
C103 H121 0.930 . S
C104 C103 1.380 . S
C104 C111 1.357 . S
C105 C96 1.511 . S
C105 C106 1.341 1_554 S
C105 C107 1.371 . S
C106 C105 1.341 1_556 S
C106 C110 1.394 . S
C106 H122 0.930 . S
C107 C105 1.371 . S
C107 C108 1.392 . S
C107 H123 0.931 . S
C108 C107 1.392 . S
C108 C109 1.331 . S
C108 H126 0.932 . S
C109 C108 1.331 . S
C109 C110 1.336 1_554 S
C110 C106 1.394 . S
C110 C109 1.336 1_556 S
C110 H125 0.929 . S
C111 C101 1.386 . S
C111 C104 1.357 . S
C111 H124 0.928 . S
H112 C88 0.931 . S
H113 C90 0.930 . S
H114 C92 0.929 . S
H115 C93 0.931 . S
H116 C95 0.930 . S
H117 C99 0.931 . S
H118 C97 0.931 . S
H119 C101 0.931 . S
H120 C102 0.929 . S
H121 C103 0.930 . S
H122 C106 0.930 . S
H123 C107 0.931 . S
H124 C111 0.928 . S
H125 C110 0.929 . S
H126 C108 0.932 . S
C127 C128 1.386 . S
C127 C129 1.397 . S
C127 H151 0.931 . S
C128 C127 1.386 . S
C128 C132 1.397 . S
C129 C127 1.397 . S
C129 C130 1.384 . S
C129 H152 0.930 . S
C130 C129 1.384 . S
C130 C131 1.377 . S
C130 C133 1.481 . S
C131 C130 1.377 . S
C131 C132 1.389 . S
C131 H153 0.929 . S
C132 C128 1.397 . S
C132 C131 1.389 . S
C132 H154 0.931 . S
C133 C130 1.481 . S
C133 C134 1.387 . S
C133 C138 1.390 . S
C134 C133 1.387 . S
C134 C135 1.401 1_655 S
C134 H155 0.947 . S
C135 C134 1.401 1_455 S
C135 C136 1.376 1_455 S
C135 C144 1.511 . S
C136 C135 1.376 1_655 S
C136 C137 1.392 . S
C136 H157 0.931 . S
C137 C136 1.392 . S
C137 C138 1.361 . S
C137 C139 1.500 . S
C138 C133 1.390 . S
C138 C137 1.361 . S
C138 H156 0.931 . S
C139 C137 1.500 . S
C139 C140 1.371 . S
C139 C141 1.365 . S
C140 C139 1.371 . S
C140 C150 1.386 . S
C140 H158 0.931 . S
C141 C139 1.365 . S
C141 C142 1.409 . S
C141 H159 0.929 . S
C142 C141 1.409 . S
C142 C143 1.380 . S
C142 H160 0.930 . S
C143 C142 1.380 . S
C143 C150 1.357 . S
C144 C135 1.511 . S
C144 C145 1.341 . S
C144 C146 1.371 . S
C145 C144 1.341 . S
C145 C149 1.394 . S
C145 H161 0.930 . S
C146 C144 1.371 . S
C146 C147 1.392 . S
C146 H162 0.931 . S
C147 C146 1.392 . S
C147 C148 1.331 . S
C147 H165 0.932 . S
C148 C147 1.331 . S
C148 C149 1.336 . S
C149 C145 1.394 . S
C149 C148 1.336 . S
C149 H164 0.929 . S
C150 C140 1.386 . S
C150 C143 1.357 . S
C150 H163 0.928 . S
H151 C127 0.931 . S
H152 C129 0.930 . S
H153 C131 0.929 . S
H154 C132 0.931 . S
H155 C134 0.947 . S
H156 C138 0.931 . S
H157 C136 0.931 . S
H158 C140 0.931 . S
H159 C141 0.929 . S
H160 C142 0.930 . S
H161 C145 0.930 . S
H162 C146 0.931 . S
H163 C150 0.928 . S
H164 C149 0.929 . S
H165 C147 0.932 . S
C166 C167 1.386 . S
C166 C168 1.397 . S
C166 H190 0.931 . S
C167 C166 1.386 . S
C167 C171 1.397 . S
C168 C166 1.397 . S
C168 C169 1.384 . S
C168 H191 0.930 . S
C169 C168 1.384 . S
C169 C170 1.377 . S
C169 C172 1.481 . S
C170 C169 1.377 . S
C170 C171 1.389 . S
C170 H192 0.929 . S
C171 C167 1.397 . S
C171 C170 1.389 . S
C171 H193 0.931 . S
C172 C169 1.481 . S
C172 C173 1.387 . S
C172 C177 1.399 . S
C173 C172 1.387 . S
C173 C174 1.389 1_554 S
C173 H194 0.930 . S
C174 C173 1.389 1_556 S
C174 C175 1.388 . S
C174 C183 1.511 . S
C175 C174 1.388 . S
C175 C176 1.392 . S
C175 H196 0.931 . S
C176 C175 1.392 . S
C176 C177 1.353 1_556 S
C176 C178 1.500 . S
C177 C172 1.399 . S
C177 C176 1.353 1_554 S
C177 H195 0.931 . S
C178 C176 1.500 . S
C178 C179 1.371 . S
C178 C180 1.365 . S
C179 C178 1.371 . S
C179 C189 1.386 . S
C179 H197 0.931 . S
C180 C178 1.365 . S
C180 C181 1.409 . S
C180 H198 0.929 . S
C181 C180 1.409 . S
C181 C182 1.380 . S
C181 H199 0.930 . S
C182 C181 1.380 . S
C182 C189 1.357 . S
C183 C174 1.511 . S
C183 C184 1.334 1_556 S
C183 C185 1.378 . S
C184 C183 1.334 1_554 S
C184 C188 1.394 . S
C184 H200 0.930 . S
C185 C183 1.378 . S
C185 C186 1.392 . S
C185 H201 0.931 . S
C186 C185 1.392 . S
C186 C187 1.317 1_556 S
C186 H204 0.932 . S
C187 C186 1.317 1_554 S
C187 C188 1.350 . S
C188 C184 1.394 . S
C188 C187 1.350 . S
C188 H203 0.929 . S
C189 C179 1.386 . S
C189 C182 1.357 . S
C189 H202 0.928 . S
H190 C166 0.931 . S
H191 C168 0.930 . S
H192 C170 0.929 . S
H193 C171 0.931 . S
H194 C173 0.930 . S
H195 C177 0.931 . S
H196 C175 0.931 . S
H197 C179 0.931 . S
H198 C180 0.929 . S
H199 C181 0.930 . S
H200 C184 0.930 . S
H201 C185 0.931 . S
H202 C189 0.928 . S
H203 C188 0.929 . S
H204 C186 0.932 . S
C205 C206 1.386 . S
C205 C207 1.397 . S
C205 H229 0.931 . S
C206 C205 1.386 . S
C206 C210 1.397 . S
C207 C205 1.397 . S
C207 C208 1.384 . S
C207 H230 0.930 . S
C208 C207 1.384 . S
C208 C209 1.377 . S
C208 C211 1.481 . S
C209 C208 1.377 . S
C209 C210 1.389 . S
C209 H231 0.929 . S
C210 C206 1.397 . S
C210 C209 1.389 . S
C210 H232 0.931 . S
C211 C208 1.481 . S
C211 C212 1.387 . S
C211 C216 1.390 . S
C212 C211 1.387 . S
C212 C213 1.401 1_455 S
C212 H233 0.919 1_455 S
C213 C212 1.401 1_655 S
C213 C214 1.376 1_655 S
C213 C222 1.511 . S
C214 C213 1.376 1_455 S
C214 C215 1.392 . S
C214 H235 0.938 . S
C215 C214 1.392 . S
C215 C216 1.361 . S
C215 C217 1.500 . S
C216 C211 1.390 . S
C216 C215 1.361 . S
C216 H234 0.931 . S
C217 C215 1.500 . S
C217 C218 1.371 . S
C217 C219 1.365 . S
C218 C217 1.371 . S
C218 C228 1.386 . S
C218 H236 0.931 . S
C219 C217 1.365 . S
C219 C220 1.409 . S
C219 H237 0.929 . S
C220 C219 1.409 . S
C220 C221 1.380 . S
C220 H238 0.930 . S
C221 C220 1.380 . S
C221 C228 1.357 . S
C222 C213 1.511 . S
C222 C223 1.341 . S
C222 C224 1.371 . S
C223 C222 1.341 . S
C223 C227 1.394 . S
C223 H239 0.930 . S
C224 C222 1.371 . S
C224 C225 1.392 . S
C224 H240 0.931 . S
C225 C224 1.392 . S
C225 C226 1.331 . S
C225 H243 0.932 . S
C226 C225 1.331 . S
C226 C227 1.336 . S
C227 C223 1.394 . S
C227 C226 1.336 . S
C227 H242 0.929 . S
C228 C218 1.386 . S
C228 C221 1.357 . S
C228 H241 0.928 . S
H229 C205 0.931 . S
H230 C207 0.930 . S
H231 C209 0.929 . S
H232 C210 0.931 . S
H233 C212 0.919 1_655 S
H234 C216 0.931 . S
H235 C214 0.938 . S
H236 C218 0.931 . S
H237 C219 0.929 . S
H238 C220 0.930 . S
H239 C223 0.930 . S
H240 C224 0.931 . S
H241 C228 0.928 . S
H242 C227 0.929 . S
H243 C225 0.932 . S
C244 C245 1.386 . S
C244 C246 1.397 . S
C244 H268 0.931 . S
C245 C244 1.386 . S
C245 C249 1.397 . S
C246 C244 1.397 . S
C246 C247 1.384 . S
C246 H269 0.930 . S
C247 C246 1.384 . S
C247 C248 1.377 . S
C247 C250 1.481 . S
C248 C247 1.377 . S
C248 C249 1.389 . S
C248 H270 0.929 . S
C249 C245 1.397 . S
C249 C248 1.389 . S
C249 H271 0.931 . S
C250 C247 1.481 . S
C250 C251 1.387 1_565 S
C250 C255 1.390 . S
C251 C250 1.387 1_545 S
C251 C252 1.401 . S
C251 H272 0.930 . S
C252 C251 1.401 . S
C252 C253 1.376 . S
C252 C261 1.511 . S
C253 C252 1.376 . S
C253 C254 1.392 1_545 S
C253 H274 0.931 . S
C254 C253 1.392 1_565 S
C254 C255 1.361 . S
C254 C256 1.500 . S
C255 C250 1.390 . S
C255 C254 1.361 . S
C255 H273 0.931 . S
C256 C254 1.500 . S
C256 C257 1.371 . S
C256 C258 1.365 . S
C257 C256 1.371 . S
C257 C267 1.386 . S
C257 H275 0.931 . S
C258 C256 1.365 . S
C258 C259 1.409 . S
C258 H276 0.929 . S
C259 C258 1.409 . S
C259 C260 1.380 . S
C259 H277 0.930 . S
C260 C259 1.380 . S
C260 C267 1.357 . S
C261 C252 1.511 . S
C261 C262 1.341 . S
C261 C263 1.371 . S
C262 C261 1.341 . S
C262 C266 1.394 . S
C262 H278 0.930 . S
C263 C261 1.371 . S
C263 C264 1.392 . S
C263 H279 0.931 . S
C264 C263 1.392 . S
C264 C265 1.331 . S
C264 H282 0.932 . S
C265 C264 1.331 . S
C265 C266 1.336 . S
C266 C262 1.394 . S
C266 C265 1.336 . S
C266 H281 0.929 . S
C267 C257 1.386 . S
C267 C260 1.357 . S
C267 H280 0.928 . S
H268 C244 0.931 . S
H269 C246 0.930 . S
H270 C248 0.929 . S
H271 C249 0.931 . S
H272 C251 0.930 . S
H273 C255 0.931 . S
H274 C253 0.931 . S
H275 C257 0.931 . S
H276 C258 0.929 . S
H277 C259 0.930 . S
H278 C262 0.930 . S
H279 C263 0.931 . S
H280 C267 0.928 . S
H281 C266 0.929 . S
H282 C264 0.932 . S
C283 C284 1.386 . S
C283 C285 1.397 . S
C283 H307 0.931 . S
C284 C283 1.386 . S
C284 C288 1.397 . S
C285 C283 1.397 . S
C285 C286 1.384 . S
C285 H308 0.930 . S
C286 C285 1.384 . S
C286 C287 1.377 . S
C286 C289 1.481 . S
C287 C286 1.377 . S
C287 C288 1.389 . S
C287 H309 0.929 . S
C288 C284 1.397 . S
C288 C287 1.389 . S
C288 H310 0.931 . S
C289 C286 1.481 . S
C289 C290 1.387 . S
C289 C294 1.388 1_554 S
C290 C289 1.387 . S
C290 C291 1.401 1_554 S
C290 H311 0.930 . S
C291 C290 1.401 1_556 S
C291 C292 1.376 . S
C291 C300 1.511 . S
C292 C291 1.376 . S
C292 C293 1.392 . S
C292 H313 0.931 . S
C293 C292 1.392 . S
C293 C294 1.363 . S
C293 C295 1.500 . S
C294 C289 1.388 1_556 S
C294 C293 1.363 . S
C294 H312 0.931 . S
C295 C293 1.500 . S
C295 C296 1.371 . S
C295 C297 1.365 . S
C296 C295 1.371 . S
C296 C306 1.386 . S
C296 H314 0.931 . S
C297 C295 1.365 . S
C297 C298 1.409 . S
C297 H315 0.929 . S
C298 C297 1.409 . S
C298 C299 1.380 . S
C298 H316 0.930 . S
C299 C298 1.380 . S
C299 C306 1.357 . S
C300 C291 1.511 . S
C300 C301 1.321 1_556 S
C300 C302 1.391 . S
C301 C300 1.321 1_554 S
C301 C305 1.394 . S
C301 H317 0.930 . S
C302 C300 1.391 . S
C302 C303 1.392 . S
C302 H318 0.931 . S
C303 C302 1.392 . S
C303 C304 1.330 1_556 S
C303 H321 0.932 . S
C304 C303 1.330 1_554 S
C304 C305 1.337 . S
C305 C301 1.394 . S
C305 C304 1.337 . S
C305 H320 0.929 . S
C306 C296 1.386 . S
C306 C299 1.357 . S
C306 H319 0.928 . S
H307 C283 0.931 . S
H308 C285 0.930 . S
H309 C287 0.929 . S
H310 C288 0.931 . S
H311 C290 0.930 . S
H312 C294 0.931 . S
H313 C292 0.931 . S
H314 C296 0.931 . S
H315 C297 0.929 . S
H316 C298 0.930 . S
H317 C301 0.930 . S
H318 C302 0.931 . S
H319 C306 0.928 . S
H320 C305 0.929 . S
H321 C303 0.932 . S
C322 C323 1.386 . S
C322 C324 1.397 . S
C322 H346 0.931 . S
C323 C322 1.386 . S
C323 C327 1.397 . S
C324 C322 1.397 . S
C324 C325 1.384 . S
C324 H347 0.930 . S
C325 C324 1.384 . S
C325 C326 1.377 . S
C325 C328 1.481 . S
C326 C325 1.377 . S
C326 C327 1.389 . S
C326 H348 0.929 . S
C327 C323 1.397 . S
C327 C326 1.389 . S
C327 H349 0.931 . S
C328 C325 1.481 . S
C328 C329 1.348 1_545 S
C328 C333 1.390 . S
C329 C328 1.348 1_565 S
C329 C330 1.421 . S
C329 H350 0.951 . S
C330 C329 1.421 . S
C330 C331 1.385 . S
C330 C339 1.511 . S
C331 C330 1.385 . S
C331 C332 1.375 1_565 S
C331 H352 0.940 . S
C332 C331 1.375 1_545 S
C332 C333 1.361 . S
C332 C334 1.500 . S
C333 C328 1.390 . S
C333 C332 1.361 . S
C333 H351 0.931 . S
C334 C332 1.500 . S
C334 C335 1.371 . S
C334 C336 1.365 . S
C335 C334 1.371 . S
C335 C345 1.386 . S
C335 H353 0.931 . S
C336 C334 1.365 . S
C336 C337 1.409 . S
C336 H354 0.929 . S
C337 C336 1.409 . S
C337 C338 1.380 . S
C337 H355 0.930 . S
C338 C337 1.380 . S
C338 C345 1.357 . S
C339 C330 1.511 . S
C339 C340 1.341 . S
C339 C341 1.371 . S
C340 C339 1.341 . S
C340 C344 1.394 . S
C340 H356 0.930 . S
C341 C339 1.371 . S
C341 C342 1.392 . S
C341 H357 0.931 . S
C342 C341 1.392 . S
C342 C343 1.331 . S
C342 H360 0.932 . S
C343 C342 1.331 . S
C343 C344 1.336 . S
C344 C340 1.394 . S
C344 C343 1.336 . S
C344 H359 0.929 . S
C345 C335 1.386 . S
C345 C338 1.357 . S
C345 H358 0.928 . S
H346 C322 0.931 . S
H347 C324 0.930 . S
H348 C326 0.929 . S
H349 C327 0.931 . S
H350 C329 0.951 . S
H351 C333 0.931 . S
H352 C331 0.940 . S
H353 C335 0.931 . S
H354 C336 0.929 . S
H355 C337 0.930 . S
H356 C340 0.930 . S
H357 C341 0.931 . S
H358 C345 0.928 . S
H359 C344 0.929 . S
H360 C342 0.932 . S
C361 C362 1.386 . S
C361 C363 1.397 . S
C361 H385 0.931 . S
C362 C361 1.386 . S
C362 C366 1.397 . S
C363 C361 1.397 . S
C363 C364 1.384 . S
C363 H386 0.930 . S
C364 C363 1.384 . S
C364 C365 1.377 . S
C364 C367 1.481 . S
C365 C364 1.377 . S
C365 C366 1.389 . S
C365 H387 0.929 . S
C366 C362 1.397 . S
C366 C365 1.389 . S
C366 H388 0.931 . S
C367 C364 1.481 . S
C367 C368 1.387 . S
C367 C372 1.390 1_556 S
C368 C367 1.387 . S
C368 C369 1.401 1_556 S
C368 H389 0.930 . S
C369 C368 1.401 1_554 S
C369 C370 1.376 . S
C369 C378 1.511 . S
C370 C369 1.376 . S
C370 C371 1.392 . S
C370 H391 0.931 . S
C371 C370 1.392 . S
C371 C372 1.361 . S
C371 C373 1.500 . S
C372 C367 1.390 1_554 S
C372 C371 1.361 . S
C372 H390 0.931 . S
C373 C371 1.500 . S
C373 C374 1.371 . S
C373 C375 1.365 . S
C374 C373 1.371 . S
C374 C384 1.386 . S
C374 H392 0.931 . S
C375 C373 1.365 . S
C375 C376 1.409 . S
C375 H393 0.929 . S
C376 C375 1.409 . S
C376 C377 1.380 . S
C376 H394 0.930 . S
C377 C376 1.380 . S
C377 C384 1.357 . S
C378 C369 1.511 . S
C378 C379 1.341 1_554 S
C378 C380 1.371 . S
C379 C378 1.341 1_556 S
C379 C383 1.394 . S
C379 H395 0.930 . S
C380 C378 1.371 . S
C380 C381 1.392 . S
C380 H396 0.931 . S
C381 C380 1.392 . S
C381 C382 1.331 . S
C381 H399 0.932 . S
C382 C381 1.331 . S
C382 C383 1.336 1_554 S
C383 C379 1.394 . S
C383 C382 1.336 1_556 S
C383 H398 0.929 . S
C384 C374 1.386 . S
C384 C377 1.357 . S
C384 H397 0.928 . S
H385 C361 0.931 . S
H386 C363 0.930 . S
H387 C365 0.929 . S
H388 C366 0.931 . S
H389 C368 0.930 . S
H390 C372 0.931 . S
H391 C370 0.931 . S
H392 C374 0.931 . S
H393 C375 0.929 . S
H394 C376 0.930 . S
H395 C379 0.930 . S
H396 C380 0.931 . S
H397 C384 0.928 . S
H398 C383 0.929 . S
H399 C381 0.932 . S
C400 C401 1.391 . S
C400 C402 1.394 . S
C400 H416 0.931 . S
C401 C400 1.391 . S
C401 C405 1.376 . S
C402 C400 1.394 . S
C402 C403 1.369 . S
C402 C406 1.531 . S
C403 C402 1.369 . S
C403 C404 1.410 . S
C403 C411 1.503 . S
C404 C403 1.410 . S
C404 C405 1.392 . S
C404 C407 1.511 . S
C405 C401 1.376 . S
C405 C404 1.392 . S
C405 H417 0.929 . S
C406 C402 1.531 . S
C406 H418 0.960 . S
C406 H419 0.962 . S
C406 H420 0.960 . S
C407 C404 1.511 . S
C407 H421 0.961 . S
C407 H422 0.961 . S
C407 H423 0.961 . S
C408 C409 1.370 . S
C408 C410 1.363 . S
C408 H424 0.931 . S
C409 C408 1.370 . S
C409 C413 1.408 . S
C410 C408 1.363 . S
C410 C411 1.370 . S
C410 C414 1.524 . S
C411 C403 1.503 . S
C411 C410 1.370 . S
C411 C412 1.403 . S
C412 C411 1.403 . S
C412 C413 1.404 . S
C412 C415 1.539 . S
C413 C409 1.408 . S
C413 C412 1.404 . S
C413 H425 0.930 . S
C414 C410 1.524 . S
C414 H426 0.956 . S
C414 H427 0.961 . S
C414 H428 0.961 . S
C415 C412 1.539 . S
C415 H429 0.958 . S
C415 H430 0.961 . S
C415 H431 0.960 . S
H416 C400 0.931 . S
H417 C405 0.929 . S
H418 C406 0.960 . S
H419 C406 0.962 . S
H420 C406 0.960 . S
H421 C407 0.961 . S
H422 C407 0.961 . S
H423 C407 0.961 . S
H424 C408 0.931 . S
H425 C413 0.930 . S
H426 C414 0.956 . S
H427 C414 0.961 . S
H428 C414 0.961 . S
H429 C415 0.958 . S
H430 C415 0.961 . S
H431 C415 0.960 . S
C432 C433 1.391 . S
C432 C434 1.394 . S
C432 H448 0.931 . S
C433 C432 1.391 . S
C433 C437 1.376 . S
C434 C432 1.394 . S
C434 C435 1.369 . S
C434 C438 1.531 . S
C435 C434 1.369 . S
C435 C436 1.410 . S
C435 C443 1.503 . S
C436 C435 1.410 . S
C436 C437 1.392 . S
C436 C439 1.511 . S
C437 C433 1.376 . S
C437 C436 1.392 . S
C437 H449 0.929 . S
C438 C434 1.531 . S
C438 H450 0.960 . S
C438 H451 0.962 . S
C438 H452 0.960 . S
C439 C436 1.511 . S
C439 H453 0.961 . S
C439 H454 0.961 . S
C439 H455 0.961 . S
C440 C441 1.370 . S
C440 C442 1.363 . S
C440 H456 0.931 . S
C441 C440 1.370 . S
C441 C445 1.408 . S
C442 C440 1.363 . S
C442 C443 1.370 . S
C442 C446 1.524 . S
C443 C435 1.503 . S
C443 C442 1.370 . S
C443 C444 1.403 . S
C444 C443 1.403 . S
C444 C445 1.404 . S
C444 C447 1.539 . S
C445 C441 1.408 . S
C445 C444 1.404 . S
C445 H457 0.930 . S
C446 C442 1.524 . S
C446 H458 0.956 . S
C446 H459 0.961 . S
C446 H460 0.961 . S
C447 C444 1.539 . S
C447 H461 0.958 . S
C447 H462 0.961 . S
C447 H463 0.960 . S
H448 C432 0.931 . S
H449 C437 0.929 . S
H450 C438 0.960 . S
H451 C438 0.962 . S
H452 C438 0.960 . S
H453 C439 0.961 . S
H454 C439 0.961 . S
H455 C439 0.961 . S
H456 C440 0.931 . S
H457 C445 0.930 . S
H458 C446 0.956 . S
H459 C446 0.961 . S
H460 C446 0.961 . S
H461 C447 0.958 . S
H462 C447 0.961 . S
H463 C447 0.960 . S
C464 C465 1.391 . S
C464 C466 1.394 . S
C464 H480 0.931 . S
C465 C464 1.391 . S
C465 C469 1.376 . S
C466 C464 1.394 . S
C466 C467 1.369 . S
C466 C470 1.531 . S
C467 C466 1.369 . S
C467 C468 1.410 . S
C467 C475 1.503 . S
C468 C467 1.410 . S
C468 C469 1.392 . S
C468 C471 1.511 . S
C469 C465 1.376 . S
C469 C468 1.392 . S
C469 H481 0.929 . S
C470 C466 1.531 . S
C470 H482 0.960 . S
C470 H483 0.962 . S
C470 H484 0.960 . S
C471 C468 1.511 . S
C471 H485 0.961 . S
C471 H486 0.961 . S
C471 H487 0.961 . S
C472 C473 1.370 . S
C472 C474 1.363 . S
C472 H488 0.931 . S
C473 C472 1.370 . S
C473 C477 1.408 . S
C474 C472 1.363 . S
C474 C475 1.370 . S
C474 C478 1.524 . S
C475 C467 1.503 . S
C475 C474 1.370 . S
C475 C476 1.403 . S
C476 C475 1.403 . S
C476 C477 1.404 . S
C476 C479 1.539 . S
C477 C473 1.408 . S
C477 C476 1.404 . S
C477 H489 0.930 . S
C478 C474 1.524 . S
C478 H490 0.956 . S
C478 H491 0.961 . S
C478 H492 0.961 . S
C479 C476 1.539 . S
C479 H493 0.958 . S
C479 H494 0.961 . S
C479 H495 0.960 . S
H480 C464 0.931 . S
H481 C469 0.929 . S
H482 C470 0.960 . S
H483 C470 0.962 . S
H484 C470 0.960 . S
H485 C471 0.961 . S
H486 C471 0.961 . S
H487 C471 0.961 . S
H488 C472 0.931 . S
H489 C477 0.930 . S
H490 C478 0.956 . S
H491 C478 0.961 . S
H492 C478 0.961 . S
H493 C479 0.958 . S
H494 C479 0.961 . S
H495 C479 0.960 . S
C496 C497 1.391 . S
C496 C498 1.394 . S
C496 H512 0.931 . S
C497 C496 1.391 . S
C497 C501 1.376 . S
C498 C496 1.394 . S
C498 C499 1.369 . S
C498 C502 1.531 . S
C499 C498 1.369 . S
C499 C500 1.410 . S
C499 C507 1.503 . S
C500 C499 1.410 . S
C500 C501 1.392 . S
C500 C503 1.511 . S
C501 C497 1.376 . S
C501 C500 1.392 . S
C501 H513 0.929 . S
C502 C498 1.531 . S
C502 H514 0.960 . S
C502 H515 0.962 . S
C502 H516 0.960 . S
C503 C500 1.511 . S
C503 H517 0.961 . S
C503 H518 0.961 . S
C503 H519 0.961 . S
C504 C505 1.370 . S
C504 C506 1.363 . S
C504 H520 0.931 . S
C505 C504 1.370 . S
C505 C509 1.408 . S
C506 C504 1.363 . S
C506 C507 1.370 . S
C506 C510 1.524 . S
C507 C499 1.503 . S
C507 C506 1.370 . S
C507 C508 1.403 . S
C508 C507 1.403 . S
C508 C509 1.404 . S
C508 C511 1.539 . S
C509 C505 1.408 . S
C509 C508 1.404 . S
C509 H521 0.930 . S
C510 C506 1.524 . S
C510 H522 0.956 . S
C510 H523 0.961 . S
C510 H524 0.961 . S
C511 C508 1.539 . S
C511 H525 0.958 . S
C511 H526 0.961 . S
C511 H527 0.960 . S
H512 C496 0.931 . S
H513 C501 0.929 . S
H514 C502 0.960 . S
H515 C502 0.962 . S
H516 C502 0.960 . S
H517 C503 0.961 . S
H518 C503 0.961 . S
H519 C503 0.961 . S
H520 C504 0.931 . S
H521 C509 0.930 . S
H522 C510 0.956 . S
H523 C510 0.961 . S
H524 C510 0.961 . S
H525 C511 0.958 . S
H526 C511 0.961 . S
H527 C511 0.960 . S
C528 C529 1.391 . S
C528 C530 1.394 . S
C528 H544 0.931 . S
C529 C528 1.391 . S
C529 C533 1.376 . S
C530 C528 1.394 . S
C530 C531 1.369 . S
C530 C534 1.531 . S
C531 C530 1.369 . S
C531 C532 1.410 . S
C531 C539 1.503 . S
C532 C531 1.410 . S
C532 C533 1.392 . S
C532 C535 1.511 . S
C533 C529 1.376 . S
C533 C532 1.392 . S
C533 H545 0.929 . S
C534 C530 1.531 . S
C534 H546 0.960 . S
C534 H547 0.962 . S
C534 H548 0.960 . S
C535 C532 1.511 . S
C535 H549 0.961 . S
C535 H550 0.961 . S
C535 H551 0.961 . S
C536 C537 1.370 . S
C536 C538 1.363 . S
C536 H552 0.931 . S
C537 C536 1.370 . S
C537 C541 1.408 . S
C538 C536 1.363 . S
C538 C539 1.370 . S
C538 C542 1.524 . S
C539 C531 1.503 . S
C539 C538 1.370 . S
C539 C540 1.403 . S
C540 C539 1.403 . S
C540 C541 1.404 . S
C540 C543 1.539 . S
C541 C537 1.408 . S
C541 C540 1.404 . S
C541 H553 0.930 . S
C542 C538 1.524 . S
C542 H554 0.956 . S
C542 H555 0.961 . S
C542 H556 0.961 . S
C543 C540 1.539 . S
C543 H557 0.958 . S
C543 H558 0.961 . S
C543 H559 0.960 . S
H544 C528 0.931 . S
H545 C533 0.929 . S
H546 C534 0.960 . S
H547 C534 0.962 . S
H548 C534 0.960 . S
H549 C535 0.961 . S
H550 C535 0.961 . S
H551 C535 0.961 . S
H552 C536 0.931 . S
H553 C541 0.930 . S
H554 C542 0.956 . S
H555 C542 0.961 . S
H556 C542 0.961 . S
H557 C543 0.958 . S
H558 C543 0.961 . S
H559 C543 0.960 . S
C560 C561 1.391 . S
C560 C562 1.394 . S
C560 H576 0.931 . S
C561 C560 1.391 . S
C561 C565 1.376 . S
C562 C560 1.394 . S
C562 C563 1.369 . S
C562 C566 1.531 . S
C563 C562 1.369 . S
C563 C564 1.410 . S
C563 C571 1.503 . S
C564 C563 1.410 . S
C564 C565 1.392 . S
C564 C567 1.511 . S
C565 C561 1.376 . S
C565 C564 1.392 . S
C565 H577 0.929 . S
C566 C562 1.531 . S
C566 H578 0.960 . S
C566 H579 0.962 . S
C566 H580 0.960 . S
C567 C564 1.511 . S
C567 H581 0.961 . S
C567 H582 0.961 . S
C567 H583 0.961 . S
C568 C569 1.370 . S
C568 C570 1.363 . S
C568 H584 0.931 . S
C569 C568 1.370 . S
C569 C573 1.408 . S
C570 C568 1.363 . S
C570 C571 1.370 . S
C570 C574 1.524 . S
C571 C563 1.503 . S
C571 C570 1.370 . S
C571 C572 1.403 . S
C572 C571 1.403 . S
C572 C573 1.404 . S
C572 C575 1.539 . S
C573 C569 1.408 . S
C573 C572 1.404 . S
C573 H585 0.930 . S
C574 C570 1.524 . S
C574 H586 0.956 . S
C574 H587 0.961 . S
C574 H588 0.961 . S
C575 C572 1.539 . S
C575 H589 0.958 . S
C575 H590 0.961 . S
C575 H591 0.960 . S
H576 C560 0.931 . S
H577 C565 0.929 . S
H578 C566 0.960 . S
H579 C566 0.962 . S
H580 C566 0.960 . S
H581 C567 0.961 . S
H582 C567 0.961 . S
H583 C567 0.961 . S
H584 C568 0.931 . S
H585 C573 0.930 . S
H586 C574 0.956 . S
H587 C574 0.961 . S
H588 C574 0.961 . S
H589 C575 0.958 . S
H590 C575 0.961 . S
H591 C575 0.960 . S
C592 C593 1.391 . S
C592 C594 1.394 . S
C592 H608 0.931 . S
C593 C592 1.391 . S
C593 C597 1.376 . S
C594 C592 1.394 . S
C594 C595 1.369 . S
C594 C598 1.531 . S
C595 C594 1.369 . S
C595 C596 1.410 . S
C595 C603 1.503 . S
C596 C595 1.410 . S
C596 C597 1.392 . S
C596 C599 1.511 . S
C597 C593 1.376 . S
C597 C596 1.392 . S
C597 H609 0.929 . S
C598 C594 1.531 . S
C598 H610 0.960 . S
C598 H611 0.962 . S
C598 H612 0.960 . S
C599 C596 1.511 . S
C599 H613 0.961 . S
C599 H614 0.961 . S
C599 H615 0.961 . S
C600 C601 1.370 . S
C600 C602 1.363 . S
C600 H616 0.931 . S
C601 C600 1.370 . S
C601 C605 1.408 . S
C602 C600 1.363 . S
C602 C603 1.370 . S
C602 C606 1.524 . S
C603 C595 1.503 . S
C603 C602 1.370 . S
C603 C604 1.403 . S
C604 C603 1.403 . S
C604 C605 1.404 . S
C604 C607 1.539 . S
C605 C601 1.408 . S
C605 C604 1.404 . S
C605 H617 0.930 . S
C606 C602 1.524 . S
C606 H618 0.956 . S
C606 H619 0.961 . S
C606 H620 0.961 . S
C607 C604 1.539 . S
C607 H621 0.958 . S
C607 H622 0.961 . S
C607 H623 0.960 . S
H608 C592 0.931 . S
H609 C597 0.929 . S
H610 C598 0.960 . S
H611 C598 0.962 . S
H612 C598 0.960 . S
H613 C599 0.961 . S
H614 C599 0.961 . S
H615 C599 0.961 . S
H616 C600 0.931 . S
H617 C605 0.930 . S
H618 C606 0.956 . S
H619 C606 0.961 . S
H620 C606 0.961 . S
H621 C607 0.958 . S
H622 C607 0.961 . S
H623 C607 0.960 . S
C624 C625 1.391 . S
C624 C626 1.394 . S
C624 H640 0.931 . S
C625 C624 1.391 . S
C625 C629 1.376 . S
C626 C624 1.394 . S
C626 C627 1.369 . S
C626 C630 1.531 . S
C627 C626 1.369 . S
C627 C628 1.410 . S
C627 C635 1.503 . S
C628 C627 1.410 . S
C628 C629 1.392 . S
C628 C631 1.511 . S
C629 C625 1.376 . S
C629 C628 1.392 . S
C629 H641 0.929 . S
C630 C626 1.531 . S
C630 H642 0.960 . S
C630 H643 0.962 . S
C630 H644 0.960 . S
C631 C628 1.511 . S
C631 H645 0.961 . S
C631 H646 0.961 . S
C631 H647 0.961 . S
C632 C633 1.370 . S
C632 C634 1.363 . S
C632 H648 0.931 . S
C633 C632 1.370 . S
C633 C637 1.408 . S
C634 C632 1.363 . S
C634 C635 1.370 . S
C634 C638 1.524 . S
C635 C627 1.503 . S
C635 C634 1.370 . S
C635 C636 1.403 . S
C636 C635 1.403 . S
C636 C637 1.404 . S
C636 C639 1.539 . S
C637 C633 1.408 . S
C637 C636 1.404 . S
C637 H649 0.930 . S
C638 C634 1.524 . S
C638 H650 0.956 . S
C638 H651 0.961 . S
C638 H652 0.961 . S
C639 C636 1.539 . S
C639 H653 0.958 . S
C639 H654 0.961 . S
C639 H655 0.960 . S
H640 C624 0.931 . S
H641 C629 0.929 . S
H642 C630 0.960 . S
H643 C630 0.962 . S
H644 C630 0.960 . S
H645 C631 0.961 . S
H646 C631 0.961 . S
H647 C631 0.961 . S
H648 C632 0.931 . S
H649 C637 0.930 . S
H650 C638 0.956 . S
H651 C638 0.961 . S
H652 C638 0.961 . S
H653 C639 0.958 . S
H654 C639 0.961 . S
H655 C639 0.960 . S
C656 C657 1.391 . S
C656 C658 1.394 . S
C656 H672 0.931 . S
C657 C656 1.391 . S
C657 C661 1.376 . S
C658 C656 1.394 . S
C658 C659 1.369 . S
C658 C662 1.531 . S
C659 C658 1.369 . S
C659 C660 1.410 . S
C659 C667 1.503 . S
C660 C659 1.410 . S
C660 C661 1.392 . S
C660 C663 1.511 . S
C661 C657 1.376 . S
C661 C660 1.392 . S
C661 H673 0.929 . S
C662 C658 1.531 . S
C662 H674 0.960 . S
C662 H675 0.962 . S
C662 H676 0.960 . S
C663 C660 1.511 . S
C663 H677 0.961 . S
C663 H678 0.961 . S
C663 H679 0.961 . S
C664 C665 1.370 . S
C664 C666 1.363 . S
C664 H680 0.931 . S
C665 C664 1.370 . S
C665 C669 1.408 . S
C666 C664 1.363 . S
C666 C667 1.370 . S
C666 C670 1.524 . S
C667 C659 1.503 . S
C667 C666 1.370 . S
C667 C668 1.403 . S
C668 C667 1.403 . S
C668 C669 1.404 . S
C668 C671 1.539 . S
C669 C665 1.408 . S
C669 C668 1.404 . S
C669 H681 0.930 . S
C670 C666 1.524 . S
C670 H682 0.956 . S
C670 H683 0.961 . S
C670 H684 0.961 . S
C671 C668 1.539 . S
C671 H685 0.958 . S
C671 H686 0.961 . S
C671 H687 0.960 . S
H672 C656 0.931 . S
H673 C661 0.929 . S
H674 C662 0.960 . S
H675 C662 0.962 . S
H676 C662 0.960 . S
H677 C663 0.961 . S
H678 C663 0.961 . S
H679 C663 0.961 . S
H680 C664 0.931 . S
H681 C669 0.930 . S
H682 C670 0.956 . S
H683 C670 0.961 . S
H684 C670 0.961 . S
H685 C671 0.958 . S
H686 C671 0.961 . S
H687 C671 0.960 . S
C688 C689 1.391 . S
C688 C690 1.394 . S
C688 H704 0.931 . S
C689 C688 1.391 . S
C689 C693 1.376 . S
C690 C688 1.394 . S
C690 C691 1.369 . S
C690 C694 1.531 . S
C691 C690 1.369 . S
C691 C692 1.410 . S
C691 C699 1.503 . S
C692 C691 1.410 . S
C692 C693 1.392 . S
C692 C695 1.511 . S
C693 C689 1.376 . S
C693 C692 1.392 . S
C693 H705 0.929 . S
C694 C690 1.531 . S
C694 H706 0.960 . S
C694 H707 0.962 . S
C694 H708 0.960 . S
C695 C692 1.511 . S
C695 H709 0.961 . S
C695 H710 0.961 . S
C695 H711 0.961 . S
C696 C697 1.370 . S
C696 C698 1.363 . S
C696 H712 0.931 . S
C697 C696 1.370 . S
C697 C701 1.408 . S
C698 C696 1.363 . S
C698 C699 1.370 . S
C698 C702 1.524 . S
C699 C691 1.503 . S
C699 C698 1.370 . S
C699 C700 1.403 . S
C700 C699 1.403 . S
C700 C701 1.404 . S
C700 C703 1.539 . S
C701 C697 1.408 . S
C701 C700 1.404 . S
C701 H713 0.930 . S
C702 C698 1.524 . S
C702 H714 0.956 . S
C702 H715 0.961 . S
C702 H716 0.961 . S
C703 C700 1.539 . S
C703 H717 0.958 . S
C703 H718 0.961 . S
C703 H719 0.960 . S
H704 C688 0.931 . S
H705 C693 0.929 . S
H706 C694 0.960 . S
H707 C694 0.962 . S
H708 C694 0.960 . S
H709 C695 0.961 . S
H710 C695 0.961 . S
H711 C695 0.961 . S
H712 C696 0.931 . S
H713 C701 0.930 . S
H714 C702 0.956 . S
H715 C702 0.961 . S
H716 C702 0.961 . S
H717 C703 0.958 . S
H718 C703 0.961 . S
H719 C703 0.960 . S
C720 C721 1.391 . S
C720 C722 1.394 . S
C720 H736 0.931 . S
C721 C720 1.391 . S
C721 C725 1.376 . S
C722 C720 1.394 . S
C722 C723 1.369 . S
C722 C726 1.531 . S
C723 C722 1.369 . S
C723 C724 1.410 . S
C723 C731 1.503 . S
C724 C723 1.410 . S
C724 C725 1.392 . S
C724 C727 1.511 . S
C725 C721 1.376 . S
C725 C724 1.392 . S
C725 H737 0.929 . S
C726 C722 1.531 . S
C726 H738 0.960 . S
C726 H739 0.962 . S
C726 H740 0.960 . S
C727 C724 1.511 . S
C727 H741 0.961 . S
C727 H742 0.961 . S
C727 H743 0.961 . S
C728 C729 1.370 . S
C728 C730 1.363 . S
C728 H744 0.931 . S
C729 C728 1.370 . S
C729 C733 1.408 . S
C730 C728 1.363 . S
C730 C731 1.370 . S
C730 C734 1.524 . S
C731 C723 1.503 . S
C731 C730 1.370 . S
C731 C732 1.403 . S
C732 C731 1.403 . S
C732 C733 1.404 . S
C732 C735 1.539 . S
C733 C729 1.408 . S
C733 C732 1.404 . S
C733 H745 0.930 . S
C734 C730 1.524 . S
C734 H746 0.956 . S
C734 H747 0.961 . S
C734 H748 0.961 . S
C735 C732 1.539 . S
C735 H749 0.958 . S
C735 H750 0.961 . S
C735 H751 0.960 . S
H736 C720 0.931 . S
H737 C725 0.929 . S
H738 C726 0.960 . S
H739 C726 0.962 . S
H740 C726 0.960 . S
H741 C727 0.961 . S
H742 C727 0.961 . S
H743 C727 0.961 . S
H744 C728 0.931 . S
H745 C733 0.930 . S
H746 C734 0.956 . S
H747 C734 0.961 . S
H748 C734 0.961 . S
H749 C735 0.958 . S
H750 C735 0.961 . S
H751 C735 0.960 . S
C752 C753 1.391 . S
C752 C754 1.394 . S
C752 H768 0.931 . S
C753 C752 1.391 . S
C753 C757 1.376 . S
C754 C752 1.394 . S
C754 C755 1.369 . S
C754 C758 1.531 . S
C755 C754 1.369 . S
C755 C756 1.410 . S
C755 C763 1.503 . S
C756 C755 1.410 . S
C756 C757 1.392 . S
C756 C759 1.511 . S
C757 C753 1.376 . S
C757 C756 1.392 . S
C757 H769 0.929 . S
C758 C754 1.531 . S
C758 H770 0.960 . S
C758 H771 0.962 . S
C758 H772 0.960 . S
C759 C756 1.511 . S
C759 H773 0.961 . S
C759 H774 0.961 . S
C759 H775 0.961 . S
C760 C761 1.370 . S
C760 C762 1.363 . S
C760 H776 0.931 . S
C761 C760 1.370 . S
C761 C765 1.408 . S
C762 C760 1.363 . S
C762 C763 1.370 . S
C762 C766 1.524 . S
C763 C755 1.503 . S
C763 C762 1.370 . S
C763 C764 1.403 . S
C764 C763 1.403 . S
C764 C765 1.404 . S
C764 C767 1.539 . S
C765 C761 1.408 . S
C765 C764 1.404 . S
C765 H777 0.930 . S
C766 C762 1.524 . S
C766 H778 0.956 . S
C766 H779 0.961 . S
C766 H780 0.961 . S
C767 C764 1.539 . S
C767 H781 0.958 . S
C767 H782 0.961 . S
C767 H783 0.960 . S
H768 C752 0.931 . S
H769 C757 0.929 . S
H770 C758 0.960 . S
H771 C758 0.962 . S
H772 C758 0.960 . S
H773 C759 0.961 . S
H774 C759 0.961 . S
H775 C759 0.961 . S
H776 C760 0.931 . S
H777 C765 0.930 . S
H778 C766 0.956 . S
H779 C766 0.961 . S
H780 C766 0.961 . S
H781 C767 0.958 . S
H782 C767 0.961 . S
H783 C767 0.960 . S
C784 C785 1.391 . S
C784 C786 1.394 . S
C784 H800 0.931 . S
C785 C784 1.391 . S
C785 C789 1.376 . S
C786 C784 1.394 . S
C786 C787 1.369 . S
C786 C790 1.531 . S
C787 C786 1.369 . S
C787 C788 1.410 . S
C787 C795 1.503 . S
C788 C787 1.410 . S
C788 C789 1.392 . S
C788 C791 1.511 . S
C789 C785 1.376 . S
C789 C788 1.392 . S
C789 H801 0.929 . S
C790 C786 1.531 . S
C790 H802 0.960 . S
C790 H803 0.962 . S
C790 H804 0.960 . S
C791 C788 1.511 . S
C791 H805 0.961 . S
C791 H806 0.961 . S
C791 H807 0.961 . S
C792 C793 1.370 . S
C792 C794 1.363 . S
C792 H808 0.931 . S
C793 C792 1.370 . S
C793 C797 1.408 . S
C794 C792 1.363 . S
C794 C795 1.370 . S
C794 C798 1.524 . S
C795 C787 1.503 . S
C795 C794 1.370 . S
C795 C796 1.403 . S
C796 C795 1.403 . S
C796 C797 1.404 . S
C796 C799 1.539 . S
C797 C793 1.408 . S
C797 C796 1.404 . S
C797 H809 0.930 . S
C798 C794 1.524 . S
C798 H810 0.956 . S
C798 H811 0.961 . S
C798 H812 0.961 . S
C799 C796 1.539 . S
C799 H813 0.958 . S
C799 H814 0.961 . S
C799 H815 0.960 . S
H800 C784 0.931 . S
H801 C789 0.929 . S
H802 C790 0.960 . S
H803 C790 0.962 . S
H804 C790 0.960 . S
H805 C791 0.961 . S
H806 C791 0.961 . S
H807 C791 0.961 . S
H808 C792 0.931 . S
H809 C797 0.930 . S
H810 C798 0.956 . S
H811 C798 0.961 . S
H812 C798 0.961 . S
H813 C799 0.958 . S
H814 C799 0.961 . S
H815 C799 0.960 . S
C816 C817 1.391 . S
C816 C818 1.394 . S
C816 H832 0.931 . S
C817 C816 1.391 . S
C817 C821 1.376 . S
C818 C816 1.394 . S
C818 C819 1.369 . S
C818 C822 1.531 . S
C819 C818 1.369 . S
C819 C820 1.410 . S
C819 C827 1.503 . S
C820 C819 1.410 . S
C820 C821 1.392 . S
C820 C823 1.511 . S
C821 C817 1.376 . S
C821 C820 1.392 . S
C821 H833 0.929 . S
C822 C818 1.531 . S
C822 H834 0.960 . S
C822 H835 0.962 . S
C822 H836 0.960 . S
C823 C820 1.511 . S
C823 H837 0.961 . S
C823 H838 0.961 . S
C823 H839 0.961 . S
C824 C825 1.370 . S
C824 C826 1.363 . S
C824 H840 0.931 . S
C825 C824 1.370 . S
C825 C829 1.408 . S
C826 C824 1.363 . S
C826 C827 1.370 . S
C826 C830 1.524 . S
C827 C819 1.503 . S
C827 C826 1.370 . S
C827 C828 1.403 . S
C828 C827 1.403 . S
C828 C829 1.404 . S
C828 C831 1.539 . S
C829 C825 1.408 . S
C829 C828 1.404 . S
C829 H841 0.930 . S
C830 C826 1.524 . S
C830 H842 0.956 . S
C830 H843 0.961 . S
C830 H844 0.961 . S
C831 C828 1.539 . S
C831 H845 0.958 . S
C831 H846 0.961 . S
C831 H847 0.960 . S
H832 C816 0.931 . S
H833 C821 0.929 . S
H834 C822 0.960 . S
H835 C822 0.962 . S
H836 C822 0.960 . S
H837 C823 0.961 . S
H838 C823 0.961 . S
H839 C823 0.961 . S
H840 C824 0.931 . S
H841 C829 0.930 . S
H842 C830 0.956 . S
H843 C830 0.961 . S
H844 C830 0.961 . S
H845 C831 0.958 . S
H846 C831 0.961 . S
H847 C831 0.960 . S
C848 C849 1.391 . S
C848 C850 1.394 . S
C848 H864 0.931 . S
C849 C848 1.391 . S
C849 C853 1.376 . S
C850 C848 1.394 . S
C850 C851 1.369 . S
C850 C854 1.531 . S
C851 C850 1.369 . S
C851 C852 1.410 . S
C851 C859 1.503 . S
C852 C851 1.410 . S
C852 C853 1.392 . S
C852 C855 1.511 . S
C853 C849 1.376 . S
C853 C852 1.392 . S
C853 H865 0.929 . S
C854 C850 1.531 . S
C854 H866 0.960 . S
C854 H867 0.962 . S
C854 H868 0.960 . S
C855 C852 1.511 . S
C855 H869 0.961 . S
C855 H870 0.961 . S
C855 H871 0.961 . S
C856 C857 1.370 . S
C856 C858 1.363 . S
C856 H872 0.931 . S
C857 C856 1.370 . S
C857 C861 1.408 . S
C858 C856 1.363 . S
C858 C859 1.370 . S
C858 C862 1.524 . S
C859 C851 1.503 . S
C859 C858 1.370 . S
C859 C860 1.403 . S
C860 C859 1.403 . S
C860 C861 1.404 . S
C860 C863 1.539 . S
C861 C857 1.408 . S
C861 C860 1.404 . S
C861 H873 0.930 . S
C862 C858 1.524 . S
C862 H874 0.956 . S
C862 H875 0.961 . S
C862 H876 0.961 . S
C863 C860 1.539 . S
C863 H877 0.958 . S
C863 H878 0.961 . S
C863 H879 0.960 . S
H864 C848 0.931 . S
H865 C853 0.929 . S
H866 C854 0.960 . S
H867 C854 0.962 . S
H868 C854 0.960 . S
H869 C855 0.961 . S
H870 C855 0.961 . S
H871 C855 0.961 . S
H872 C856 0.931 . S
H873 C861 0.930 . S
H874 C862 0.956 . S
H875 C862 0.961 . S
H876 C862 0.961 . S
H877 C863 0.958 . S
H878 C863 0.961 . S
H879 C863 0.960 . S
C880 C881 1.391 . S
C880 C882 1.394 . S
C880 H896 0.931 . S
C881 C880 1.391 . S
C881 C885 1.376 . S
C882 C880 1.394 . S
C882 C883 1.369 . S
C882 C886 1.531 . S
C883 C882 1.369 . S
C883 C884 1.410 . S
C883 C891 1.503 . S
C884 C883 1.410 . S
C884 C885 1.392 . S
C884 C887 1.511 . S
C885 C881 1.376 . S
C885 C884 1.392 . S
C885 H897 0.929 . S
C886 C882 1.531 . S
C886 H898 0.960 . S
C886 H899 0.962 . S
C886 H900 0.960 . S
C887 C884 1.511 . S
C887 H901 0.961 . S
C887 H902 0.961 . S
C887 H903 0.961 . S
C888 C889 1.370 . S
C888 C890 1.363 . S
C888 H904 0.931 . S
C889 C888 1.370 . S
C889 C893 1.408 . S
C890 C888 1.363 . S
C890 C891 1.370 . S
C890 C894 1.524 . S
C891 C883 1.503 . S
C891 C890 1.370 . S
C891 C892 1.403 . S
C892 C891 1.403 . S
C892 C893 1.404 . S
C892 C895 1.539 . S
C893 C889 1.408 . S
C893 C892 1.404 . S
C893 H905 0.930 . S
C894 C890 1.524 . S
C894 H906 0.956 . S
C894 H907 0.961 . S
C894 H908 0.961 . S
C895 C892 1.539 . S
C895 H909 0.958 . S
C895 H910 0.961 . S
C895 H911 0.960 . S
H896 C880 0.931 . S
H897 C885 0.929 . S
H898 C886 0.960 . S
H899 C886 0.962 . S
H900 C886 0.960 . S
H901 C887 0.961 . S
H902 C887 0.961 . S
H903 C887 0.961 . S
H904 C888 0.931 . S
H905 C893 0.930 . S
H906 C894 0.956 . S
H907 C894 0.961 . S
H908 C894 0.961 . S
H909 C895 0.958 . S
H910 C895 0.961 . S
H911 C895 0.960 . S
C912 C913 1.391 . S
C912 C914 1.394 . S
C912 H928 0.931 . S
C913 C912 1.391 . S
C913 C917 1.376 1_556 S
C914 C912 1.394 . S
C914 C915 1.369 . S
C914 C918 1.531 . S
C915 C914 1.369 . S
C915 C916 1.410 1_556 S
C915 C923 1.503 . S
C916 C915 1.410 1_554 S
C916 C917 1.392 . S
C916 C919 1.511 . S
C917 C913 1.376 1_554 S
C917 C916 1.392 . S
C917 H929 0.929 . S
C918 C914 1.531 . S
C918 H930 0.960 . S
C918 H931 0.962 . S
C918 H932 0.960 . S
C919 C916 1.511 . S
C919 H933 0.961 . S
C919 H934 0.961 . S
C919 H935 0.962 1_554 S
C920 C921 1.357 1_554 S
C920 C922 1.363 . S
C920 H936 0.931 . S
C921 C920 1.357 1_556 S
C921 C925 1.423 . S
C922 C920 1.363 . S
C922 C923 1.370 1_554 S
C922 C926 1.524 . S
C923 C915 1.503 . S
C923 C922 1.370 1_556 S
C923 C924 1.403 . S
C924 C923 1.403 . S
C924 C925 1.404 . S
C924 C927 1.539 . S
C925 C921 1.423 . S
C925 C924 1.404 . S
C925 H937 0.930 . S
C926 C922 1.524 . S
C926 H938 0.956 . S
C926 H939 0.961 . S
C926 H940 0.961 . S
C927 C924 1.539 . S
C927 H941 0.958 . S
C927 H942 0.961 . S
C927 H943 0.960 . S
H928 C912 0.931 . S
H929 C917 0.929 . S
H930 C918 0.960 . S
H931 C918 0.962 . S
H932 C918 0.960 . S
H933 C919 0.961 . S
H934 C919 0.961 . S
H935 C919 0.962 1_556 S
H936 C920 0.931 . S
H937 C925 0.930 . S
H938 C926 0.956 . S
H939 C926 0.961 . S
H940 C926 0.961 . S
H941 C927 0.958 . S
H942 C927 0.961 . S
H943 C927 0.960 . S
C944 C945 1.391 . S
C944 C946 1.394 . S
C944 H960 0.931 . S
C945 C944 1.391 . S
C945 C949 1.376 . S
C946 C944 1.394 . S
C946 C947 1.369 . S
C946 C950 1.531 . S
C947 C946 1.369 . S
C947 C948 1.410 . S
C947 C955 1.503 . S
C948 C947 1.410 . S
C948 C949 1.392 . S
C948 C951 1.511 . S
C949 C945 1.376 . S
C949 C948 1.392 . S
C949 H961 0.929 . S
C950 C946 1.531 . S
C950 H962 0.960 . S
C950 H963 0.962 . S
C950 H964 0.960 . S
C951 C948 1.511 . S
C951 H965 0.961 . S
C951 H966 0.961 . S
C951 H967 0.961 . S
C952 C953 1.370 . S
C952 C954 1.363 . S
C952 H968 0.931 . S
C953 C952 1.370 . S
C953 C957 1.408 . S
C954 C952 1.363 . S
C954 C955 1.370 . S
C954 C958 1.524 . S
C955 C947 1.503 . S
C955 C954 1.370 . S
C955 C956 1.403 . S
C956 C955 1.403 . S
C956 C957 1.404 . S
C956 C959 1.539 . S
C957 C953 1.408 . S
C957 C956 1.404 . S
C957 H969 0.930 . S
C958 C954 1.524 . S
C958 H970 0.956 . S
C958 H971 0.961 . S
C958 H972 0.961 . S
C959 C956 1.539 . S
C959 H973 0.958 . S
C959 H974 0.961 . S
C959 H975 0.960 . S
H960 C944 0.931 . S
H961 C949 0.929 . S
H962 C950 0.960 . S
H963 C950 0.962 . S
H964 C950 0.960 . S
H965 C951 0.961 . S
H966 C951 0.961 . S
H967 C951 0.961 . S
H968 C952 0.931 . S
H969 C957 0.930 . S
H970 C958 0.956 . S
H971 C958 0.961 . S
H972 C958 0.961 . S
H973 C959 0.958 . S
H974 C959 0.961 . S
H975 C959 0.960 . S
C976 C977 1.391 . S
C976 C978 1.394 . S
C976 H992 0.930 1_556 S
C977 C976 1.391 . S
C977 C981 1.376 . S
C978 C976 1.394 . S
C978 C979 1.369 . S
C978 C982 1.531 . S
C979 C978 1.369 . S
C979 C980 1.410 . S
C979 C987 1.503 . S
C980 C979 1.410 . S
C980 C981 1.392 . S
C980 C983 1.511 . S
C981 C977 1.376 . S
C981 C980 1.392 . S
C981 H993 0.929 . S
C982 C978 1.531 . S
C982 H994 0.961 . S
C982 H995 0.961 1_556 S
C982 H996 0.961 . S
C983 C980 1.511 . S
C983 H997 0.961 . S
C983 H998 0.961 . S
C983 H999 0.961 . S
C984 C985 1.367 1_554 S
C984 C986 1.363 . S
C984 H1000 0.931 . S
C985 C984 1.367 1_556 S
C985 C989 1.412 . S
C986 C984 1.363 . S
C986 C987 1.370 1_554 S
C986 C990 1.524 . S
C987 C979 1.503 . S
C987 C986 1.370 1_556 S
C987 C988 1.403 . S
C988 C987 1.403 . S
C988 C989 1.404 . S
C988 C991 1.539 . S
C989 C985 1.412 . S
C989 C988 1.404 . S
C989 H1001 0.930 . S
C990 C986 1.524 . S
C990 H1002 0.956 . S
C990 H1003 0.961 . S
C990 H1004 0.961 . S
C991 C988 1.539 . S
C991 H1005 0.958 . S
C991 H1006 0.961 . S
C991 H1007 0.960 . S
H992 C976 0.930 1_554 S
H993 C981 0.929 . S
H994 C982 0.961 . S
H995 C982 0.961 1_554 S
H996 C982 0.961 . S
H997 C983 0.961 . S
H998 C983 0.961 . S
H999 C983 0.961 . S
H1000 C984 0.931 . S
H1001 C989 0.930 . S
H1002 C990 0.956 . S
H1003 C990 0.961 . S
H1004 C990 0.961 . S
H1005 C991 0.958 . S
H1006 C991 0.961 . S
H1007 C991 0.960 . S
C1008 C1009 1.391 . S
C1008 C1010 1.394 . S
C1008 H1024 0.931 . S
C1009 C1008 1.391 . S
C1009 C1013 1.376 . S
C1010 C1008 1.394 . S
C1010 C1011 1.369 . S
C1010 C1014 1.531 . S
C1011 C1010 1.369 . S
C1011 C1012 1.410 . S
C1011 C1019 1.503 . S
C1012 C1011 1.410 . S
C1012 C1013 1.392 . S
C1012 C1015 1.511 . S
C1013 C1009 1.376 . S
C1013 C1012 1.392 . S
C1013 H1025 0.929 . S
C1014 C1010 1.531 . S
C1014 H1026 0.960 . S
C1014 H1027 0.962 . S
C1014 H1028 0.960 . S
C1015 C1012 1.511 . S
C1015 H1029 0.961 . S
C1015 H1030 0.961 . S
C1015 H1031 0.961 . S
C1016 C1017 1.370 . S
C1016 C1018 1.363 . S
C1016 H1032 0.931 . S
C1017 C1016 1.370 . S
C1017 C1021 1.408 . S
C1018 C1016 1.363 . S
C1018 C1019 1.370 . S
C1018 C1022 1.524 . S
C1019 C1011 1.503 . S
C1019 C1018 1.370 . S
C1019 C1020 1.403 . S
C1020 C1019 1.403 . S
C1020 C1021 1.404 . S
C1020 C1023 1.539 . S
C1021 C1017 1.408 . S
C1021 C1020 1.404 . S
C1021 H1033 0.930 . S
C1022 C1018 1.524 . S
C1022 H1034 0.956 . S
C1022 H1035 0.961 . S
C1022 H1036 0.961 . S
C1023 C1020 1.539 . S
C1023 H1037 0.958 . S
C1023 H1038 0.961 . S
C1023 H1039 0.960 . S
H1024 C1008 0.931 . S
H1025 C1013 0.929 . S
H1026 C1014 0.960 . S
H1027 C1014 0.962 . S
H1028 C1014 0.960 . S
H1029 C1015 0.961 . S
H1030 C1015 0.961 . S
H1031 C1015 0.961 . S
H1032 C1016 0.931 . S
H1033 C1021 0.930 . S
H1034 C1022 0.956 . S
H1035 C1022 0.961 . S
H1036 C1022 0.961 . S
H1037 C1023 0.958 . S
H1038 C1023 0.961 . S
H1039 C1023 0.960 . S
C1040 C1041 1.391 . S
C1040 C1042 1.394 . S
C1040 H1056 0.931 . S
C1041 C1040 1.391 . S
C1041 C1045 1.376 . S
C1042 C1040 1.394 . S
C1042 C1043 1.369 . S
C1042 C1046 1.531 . S
C1043 C1042 1.369 . S
C1043 C1044 1.410 . S
C1043 C1051 1.503 . S
C1044 C1043 1.410 . S
C1044 C1045 1.392 . S
C1044 C1047 1.511 . S
C1045 C1041 1.376 . S
C1045 C1044 1.392 . S
C1045 H1057 0.929 . S
C1046 C1042 1.531 . S
C1046 H1058 0.960 . S
C1046 H1059 0.962 . S
C1046 H1060 0.960 . S
C1047 C1044 1.511 . S
C1047 H1061 0.961 . S
C1047 H1062 0.961 . S
C1047 H1063 0.961 . S
C1048 C1049 1.370 . S
C1048 C1050 1.363 . S
C1048 H1064 0.931 . S
C1049 C1048 1.370 . S
C1049 C1053 1.408 . S
C1050 C1048 1.363 . S
C1050 C1051 1.370 . S
C1050 C1054 1.524 . S
C1051 C1043 1.503 . S
C1051 C1050 1.370 . S
C1051 C1052 1.403 . S
C1052 C1051 1.403 . S
C1052 C1053 1.404 . S
C1052 C1055 1.539 . S
C1053 C1049 1.408 . S
C1053 C1052 1.404 . S
C1053 H1065 0.930 . S
C1054 C1050 1.524 . S
C1054 H1066 0.956 . S
C1054 H1067 0.961 . S
C1054 H1068 0.961 . S
C1055 C1052 1.539 . S
C1055 H1069 0.958 . S
C1055 H1070 0.961 . S
C1055 H1071 0.960 . S
H1056 C1040 0.931 . S
H1057 C1045 0.929 . S
H1058 C1046 0.960 . S
H1059 C1046 0.962 . S
H1060 C1046 0.960 . S
H1061 C1047 0.961 . S
H1062 C1047 0.961 . S
H1063 C1047 0.961 . S
H1064 C1048 0.931 . S
H1065 C1053 0.930 . S
H1066 C1054 0.956 . S
H1067 C1054 0.961 . S
H1068 C1054 0.961 . S
H1069 C1055 0.958 . S
H1070 C1055 0.961 . S
H1071 C1055 0.960 . S
C1072 C1073 1.377 1_554 S
C1072 C1074 1.394 . S
C1072 H1088 0.931 . S
C1073 C1072 1.377 1_556 S
C1073 C1077 1.390 . S
C1074 C1072 1.394 . S
C1074 C1075 1.369 1_554 S
C1074 C1078 1.531 . S
C1075 C1074 1.369 1_556 S
C1075 C1076 1.410 . S
C1075 C1083 1.503 . S
C1076 C1075 1.410 . S
C1076 C1077 1.392 . S
C1076 C1079 1.511 . S
C1077 C1073 1.390 . S
C1077 C1076 1.392 . S
C1077 H1089 0.929 . S
C1078 C1074 1.531 . S
C1078 H1090 0.960 . S
C1078 H1091 0.962 . S
C1078 H1092 0.960 . S
C1079 C1076 1.511 . S
C1079 H1093 0.961 . S
C1079 H1094 0.961 . S
C1079 H1095 0.961 . S
C1080 C1081 1.370 . S
C1080 C1082 1.363 . S
C1080 H1096 0.931 . S
C1081 C1080 1.370 . S
C1081 C1085 1.409 1_554 S
C1082 C1080 1.363 . S
C1082 C1083 1.370 1_554 S
C1082 C1086 1.524 . S
C1083 C1075 1.503 . S
C1083 C1082 1.370 1_556 S
C1083 C1084 1.403 . S
C1084 C1083 1.403 . S
C1084 C1085 1.404 . S
C1084 C1087 1.539 . S
C1085 C1081 1.409 1_556 S
C1085 C1084 1.404 . S
C1085 H1097 0.930 . S
C1086 C1082 1.524 . S
C1086 H1098 0.956 . S
C1086 H1099 0.961 . S
C1086 H1100 0.961 . S
C1087 C1084 1.539 . S
C1087 H1101 0.958 . S
C1087 H1102 0.961 . S
C1087 H1103 0.960 . S
H1088 C1072 0.931 . S
H1089 C1077 0.929 . S
H1090 C1078 0.960 . S
H1091 C1078 0.962 . S
H1092 C1078 0.960 . S
H1093 C1079 0.961 . S
H1094 C1079 0.961 . S
H1095 C1079 0.961 . S
H1096 C1080 0.931 . S
H1097 C1085 0.930 . S
H1098 C1086 0.956 . S
H1099 C1086 0.961 . S
H1100 C1086 0.961 . S
H1101 C1087 0.958 . S
H1102 C1087 0.961 . S
H1103 C1087 0.960 . S
C1104 C1105 1.391 . S
C1104 C1106 1.394 . S
C1104 H1120 0.931 . S
C1105 C1104 1.391 . S
C1105 C1109 1.376 . S
C1106 C1104 1.394 . S
C1106 C1107 1.369 . S
C1106 C1110 1.531 . S
C1107 C1106 1.369 . S
C1107 C1108 1.410 . S
C1107 C1115 1.503 . S
C1108 C1107 1.410 . S
C1108 C1109 1.392 . S
C1108 C1111 1.511 . S
C1109 C1105 1.376 . S
C1109 C1108 1.392 . S
C1109 H1121 0.929 . S
C1110 C1106 1.531 . S
C1110 H1122 0.960 . S
C1110 H1123 0.962 . S
C1110 H1124 0.960 . S
C1111 C1108 1.511 . S
C1111 H1125 0.961 . S
C1111 H1126 0.961 . S
C1111 H1127 0.961 . S
C1112 C1113 1.370 . S
C1112 C1114 1.363 . S
C1112 H1128 0.931 . S
C1113 C1112 1.370 . S
C1113 C1117 1.408 . S
C1114 C1112 1.363 . S
C1114 C1115 1.370 . S
C1114 C1118 1.524 . S
C1115 C1107 1.503 . S
C1115 C1114 1.370 . S
C1115 C1116 1.403 . S
C1116 C1115 1.403 . S
C1116 C1117 1.404 . S
C1116 C1119 1.539 . S
C1117 C1113 1.408 . S
C1117 C1116 1.404 . S
C1117 H1129 0.930 . S
C1118 C1114 1.524 . S
C1118 H1130 0.956 . S
C1118 H1131 0.961 . S
C1118 H1132 0.961 . S
C1119 C1116 1.539 . S
C1119 H1133 0.958 . S
C1119 H1134 0.961 . S
C1119 H1135 0.960 . S
H1120 C1104 0.931 . S
H1121 C1109 0.929 . S
H1122 C1110 0.960 . S
H1123 C1110 0.962 . S
H1124 C1110 0.960 . S
H1125 C1111 0.961 . S
H1126 C1111 0.961 . S
H1127 C1111 0.961 . S
H1128 C1112 0.931 . S
H1129 C1117 0.930 . S
H1130 C1118 0.956 . S
H1131 C1118 0.961 . S
H1132 C1118 0.961 . S
H1133 C1119 0.958 . S
H1134 C1119 0.961 . S
H1135 C1119 0.960 . S
C1136 C1137 1.391 1_554 S
C1136 C1138 1.394 . S
C1136 H1152 0.931 . S
C1137 C1136 1.391 1_556 S
C1137 C1141 1.376 . S
C1138 C1136 1.394 . S
C1138 C1139 1.369 1_554 S
C1138 C1142 1.531 . S
C1139 C1138 1.369 1_556 S
C1139 C1140 1.410 . S
C1139 C1147 1.503 . S
C1140 C1139 1.410 . S
C1140 C1141 1.392 . S
C1140 C1143 1.511 . S
C1141 C1137 1.376 . S
C1141 C1140 1.392 . S
C1141 H1153 0.929 . S
C1142 C1138 1.531 . S
C1142 H1154 0.960 . S
C1142 H1155 0.962 . S
C1142 H1156 0.960 . S
C1143 C1140 1.511 . S
C1143 H1157 0.961 . S
C1143 H1158 0.961 . S
C1143 H1159 0.961 . S
C1144 C1145 1.371 1_554 S
C1144 C1146 1.363 . S
C1144 H1160 0.931 . S
C1145 C1144 1.371 1_556 S
C1145 C1149 1.407 . S
C1146 C1144 1.363 . S
C1146 C1147 1.370 1_554 S
C1146 C1150 1.524 . S
C1147 C1139 1.503 . S
C1147 C1146 1.370 1_556 S
C1147 C1148 1.403 . S
C1148 C1147 1.403 . S
C1148 C1149 1.404 . S
C1148 C1151 1.539 . S
C1149 C1145 1.407 . S
C1149 C1148 1.404 . S
C1149 H1161 0.930 . S
C1150 C1146 1.524 . S
C1150 H1162 0.956 . S
C1150 H1163 0.961 . S
C1150 H1164 0.961 . S
C1151 C1148 1.539 . S
C1151 H1165 0.958 . S
C1151 H1166 0.961 . S
C1151 H1167 0.960 . S
H1152 C1136 0.931 . S
H1153 C1141 0.929 . S
H1154 C1142 0.960 . S
H1155 C1142 0.962 . S
H1156 C1142 0.960 . S
H1157 C1143 0.961 . S
H1158 C1143 0.961 . S
H1159 C1143 0.961 . S
H1160 C1144 0.931 . S
H1161 C1149 0.930 . S
H1162 C1150 0.956 . S
H1163 C1150 0.961 . S
H1164 C1150 0.961 . S
H1165 C1151 0.958 . S
H1166 C1151 0.961 . S
H1167 C1151 0.960 . S
C401 C21 1.619 . S
C409 C221 1.596 . S
C433 C40 1.732 . S
C441 C89 1.679 . S
C473 C128 1.551 . S
C465 C54 1.594 . S
C497 C73 1.775 . S
C505 C182 1.719 . S
C537 C284 1.557 . S
C529 C74 1.582 . S
C569 C338 1.680 . S
C561 C10 1.735 . S
C601 C377 1.605 . S
C593 C37 1.633 . S
C633 C245 1.724 . S
C625 C65 1.767 . S
C657 C52 1.584 . S
C665 C143 1.563 . S
C689 C87 1.779 . S
C697 C167 1.722 . S
C721 C15 1.636 . S
C729 C206 1.608 . S
C761 C104 1.664 . S
C753 C32 1.725 . S
C785 C29 1.630 . S
C793 C362 1.605 . S
C825 C260 1.728 . S
C817 C59 1.772 . S
C857 C299 1.567 . S
C849 C84 1.580 . S
C881 C8 1.727 . S
C889 C323 1.663 . S
C921 C109 1.808 1_556 S
C913 C7 1.847 1_556 S
C953 C148 1.651 . S
C945 C30 1.685 . S
C977 C62 1.863 1_556 S
C985 C187 1.801 1_556 S
C1009 C81 1.653 . S
C1017 C226 1.674 . S
C1049 C265 1.817 . S
C1041 C76 1.865 . S
C1073 C18 1.690 . S
C1081 C304 1.648 . S
C1105 C43 1.842 . S
C1113 C343 1.776 . S
C1137 C51 1.676 . S
C1145 C382 1.666 1_556 S
