# Generated by pormake.
# Topology ctn, (3,4)-cn, num edge types: 1
# Building blocks:
#     Node 0, Type 0, BuildingBlock: MIDCAF_clean_linker_0, # of connection points: 3
#     Node 1, Type 0, BuildingBlock: MIDCAF_clean_linker_0, # of connection points: 3
#     Node 2, Type 0, BuildingBlock: MIDCAF_clean_linker_0, # of connection points: 3
#     Node 3, Type 0, BuildingBlock: MIDCAF_clean_linker_0, # of connection points: 3
#     Node 4, Type 0, BuildingBlock: MIDCAF_clean_linker_0, # of connection points: 3
#     Node 5, Type 0, BuildingBlock: MIDCAF_clean_linker_0, # of connection points: 3
#     Node 6, Type 0, BuildingBlock: MIDCAF_clean_linker_0, # of connection points: 3
#     Node 7, Type 0, BuildingBlock: MIDCAF_clean_linker_0, # of connection points: 3
#     Node 8, Type 0, BuildingBlock: MIDCAF_clean_linker_0, # of connection points: 3
#     Node 9, Type 0, BuildingBlock: MIDCAF_clean_linker_0, # of connection points: 3
#     Node 10, Type 0, BuildingBlock: MIDCAF_clean_linker_0, # of connection points: 3
#     Node 11, Type 0, BuildingBlock: MIDCAF_clean_linker_0, # of connection points: 3
#     Node 12, Type 0, BuildingBlock: MIDCAF_clean_linker_0, # of connection points: 3
#     Node 13, Type 0, BuildingBlock: MIDCAF_clean_linker_0, # of connection points: 3
#     Node 14, Type 0, BuildingBlock: MIDCAF_clean_linker_0, # of connection points: 3
#     Node 15, Type 0, BuildingBlock: MIDCAF_clean_linker_0, # of connection points: 3
#     Node 16, Type 1, BuildingBlock: NAHDIM_clean_sbu_0, # of connection points: 4
#     Node 17, Type 1, BuildingBlock: NAHDIM_clean_sbu_0, # of connection points: 4
#     Node 18, Type 1, BuildingBlock: NAHDIM_clean_sbu_0, # of connection points: 4
#     Node 19, Type 1, BuildingBlock: NAHDIM_clean_sbu_0, # of connection points: 4
#     Node 20, Type 1, BuildingBlock: NAHDIM_clean_sbu_0, # of connection points: 4
#     Node 21, Type 1, BuildingBlock: NAHDIM_clean_sbu_0, # of connection points: 4
#     Node 22, Type 1, BuildingBlock: NAHDIM_clean_sbu_0, # of connection points: 4
#     Node 23, Type 1, BuildingBlock: NAHDIM_clean_sbu_0, # of connection points: 4
#     Node 24, Type 1, BuildingBlock: NAHDIM_clean_sbu_0, # of connection points: 4
#     Node 25, Type 1, BuildingBlock: NAHDIM_clean_sbu_0, # of connection points: 4
#     Node 26, Type 1, BuildingBlock: NAHDIM_clean_sbu_0, # of connection points: 4
#     Node 27, Type 1, BuildingBlock: NAHDIM_clean_sbu_0, # of connection points: 4
#     Edge 28, Type (0, 1), None
#     Edge 29, Type (0, 1), None
#     Edge 30, Type (0, 1), None
#     Edge 31, Type (0, 1), None
#     Edge 32, Type (0, 1), None
#     Edge 33, Type (0, 1), None
#     Edge 34, Type (0, 1), None
#     Edge 35, Type (0, 1), None
#     Edge 36, Type (0, 1), None
#     Edge 37, Type (0, 1), None
#     Edge 38, Type (0, 1), None
#     Edge 39, Type (0, 1), None
#     Edge 40, Type (0, 1), None
#     Edge 41, Type (0, 1), None
#     Edge 42, Type (0, 1), None
#     Edge 43, Type (0, 1), None
#     Edge 44, Type (0, 1), None
#     Edge 45, Type (0, 1), None
#     Edge 46, Type (0, 1), None
#     Edge 47, Type (0, 1), None
#     Edge 48, Type (0, 1), None
#     Edge 49, Type (0, 1), None
#     Edge 50, Type (0, 1), None
#     Edge 51, Type (0, 1), None
#     Edge 52, Type (0, 1), None
#     Edge 53, Type (0, 1), None
#     Edge 54, Type (0, 1), None
#     Edge 55, Type (0, 1), None
#     Edge 56, Type (0, 1), None
#     Edge 57, Type (0, 1), None
#     Edge 58, Type (0, 1), None
#     Edge 59, Type (0, 1), None
#     Edge 60, Type (0, 1), None
#     Edge 61, Type (0, 1), None
#     Edge 62, Type (0, 1), None
#     Edge 63, Type (0, 1), None
#     Edge 64, Type (0, 1), None
#     Edge 65, Type (0, 1), None
#     Edge 66, Type (0, 1), None
#     Edge 67, Type (0, 1), None
#     Edge 68, Type (0, 1), None
#     Edge 69, Type (0, 1), None
#     Edge 70, Type (0, 1), None
#     Edge 71, Type (0, 1), None
#     Edge 72, Type (0, 1), None
#     Edge 73, Type (0, 1), None
#     Edge 74, Type (0, 1), None
#     Edge 75, Type (0, 1), None
# Relax obj value: 0.002
# Max RMSD: 0.031
# Mean RMSD: 0.017
data_MOF--net-ctn--node1-NAHDIM_clean_sbu_0--node2-MIDCAF_clean_linker_0--edge1-none
_symmetry_space_group_name_H-M    P1
_symmetry_Int_Tables_number       1
_symmetry_cell_setting            triclinic
loop_
_symmetry_equiv_pos_as_xyz
'x, y, z'
_cell_length_a     36.021865
_cell_length_b     36.910588
_cell_length_c     36.160296
_cell_angle_alpha  91.526813
_cell_angle_beta   89.97312
_cell_angle_gamma 92.98503
loop_
_atom_site_label
_atom_site_type_symbol
_atom_site_fract_x
_atom_site_fract_y
_atom_site_fract_z
_atom_type_partial_charge
C0 C 0.93443 0.03799 0.13955 0.0
C1 C 0.94263 0.01058 0.16404 0.0
C2 C 0.97457 0.991 0.1578 0.0
C3 C 0.99797 -0.00116 0.12788 0.0
H4 H 0.09935 0.97445 0.08129 0.0
H5 H 0.15529 0.94153 0.06975 0.0
H6 H 0.17193 -0.00325 0.96669 0.0
H7 H 0.11628 0.02968 0.97812 0.0
H8 H 0.0705 0.09484 0.96088 0.0
H9 H 0.05832 0.14508 0.92142 0.0
H10 H 0.95858 0.16499 0.98357 0.0
H11 H 0.97069 0.11466 0.02324 0.0
H12 H 0.95059 0.06725 0.09148 0.0
H13 H 0.91001 0.05357 0.14352 0.0
H14 H 0.98169 0.96969 0.17614 0.0
H15 H 0.02243 0.9833 0.12404 0.0
N16 N 0.04614 0.01664 0.06606 0.0
N17 N 0.06075 0.05187 0.01459 0.0
N18 N 0.00709 0.0623 0.04893 0.0
C19 C 0.06915 0.02481 0.03731 0.0
C20 C 0.02986 0.07077 0.02015 0.0
C21 C 0.01496 0.03525 0.07201 0.0
C22 C 0.10318 0.00471 0.03064 0.0
C23 C 0.11491 0.9796 0.05617 0.0
C24 C 0.14707 0.9608 0.04961 0.0
C25 C 0.16806 0.96655 0.01729 0.0
C26 C 0.1564 0.99168 0.99184 0.0
C27 C 0.12441 0.0106 -0.00153 0.0
C28 C 0.02166 0.10071 0.99543 0.0
C29 C 0.04588 0.10979 0.96618 0.0
C30 C 0.03891 0.13865 0.94347 0.0
C31 C 0.00756 0.1591 0.94943 0.0
C32 C 0.98303 0.14978 0.97829 0.0
C33 C 0.99001 0.1209 0.00107 0.0
C34 C 0.98994 0.02646 0.1035 0.0
C35 C 0.95778 0.04583 0.10965 0.0
C36 C 0.22934 0.59473 0.24791 0.0
C37 C 0.19261 0.59394 0.23455 0.0
C38 C 0.17958 0.62526 0.21887 0.0
C39 C 0.20293 0.6564 0.21579 0.0
H40 H 0.2131 0.7457 0.1528 0.0
H41 H 0.19799 0.78699 0.10433 0.0
H42 H 0.3059 0.84266 0.1175 0.0
H43 H 0.32108 0.80153 0.166 0.0
H44 H 0.3769 0.7747 0.22171 0.0
H45 H 0.43499 0.78594 0.25495 0.0
H46 H 0.40402 0.69974 0.32925 0.0
H47 H 0.34554 0.68822 0.29574 0.0
H48 H 0.28094 0.62572 0.25527 0.0
H49 H 0.24014 0.57106 0.26035 0.0
H50 H 0.15143 0.62562 0.20841 0.0
H51 H 0.19198 0.67987 0.20311 0.0
N52 N 0.25553 0.7145 0.19815 0.0
N53 N 0.31079 0.74872 0.21046 0.0
N54 N 0.29758 0.69477 0.24196 0.0
C55 C 0.27831 0.74401 0.19158 0.0
C56 C 0.32065 0.72442 0.23578 0.0
C57 C 0.26487 0.68973 0.22317 0.0
C58 C 0.2684 0.77012 0.16325 0.0
C59 C 0.2336 0.76681 0.1455 0.0
C60 C 0.22487 0.79053 0.11772 0.0
C61 C 0.2508 0.81798 0.10695 0.0
C62 C 0.28535 0.8217 0.12507 0.0
C63 C 0.29402 0.7981 0.15295 0.0
C64 C 0.35636 0.73054 0.25603 0.0
C65 C 0.3823 0.75804 0.24512 0.0
C66 C 0.41577 0.76451 0.26418 0.0
C67 C 0.42415 0.74382 0.29481 0.0
C68 C 0.39835 0.71624 0.30579 0.0
C69 C 0.36486 0.70957 0.28651 0.0
C70 C 0.23984 0.65714 0.22863 0.0
C71 C 0.25266 0.6261 0.24517 0.0
C72 C 0.01862 0.34466 0.96221 0.0
C73 C 0.01106 0.34899 0.92446 0.0
C74 C 1.00084 0.3829 0.91245 0.0
C75 C 0.99665 0.41149 0.93786 0.0
H76 H 0.92732 0.49423 0.9515 0.0
H77 H 0.87239 0.5262 0.93638 0.0
H78 H 0.85819 0.55515 0.05193 0.0
H79 H 0.91363 0.52306 0.0672 0.0
H80 H 0.98436 0.50734 0.12152 0.0
H81 H 0.0187 0.51673 0.17927 0.0
H82 H 0.10287 0.44692 0.13799 0.0
H83 H 0.06847 0.43727 0.0803 0.0
H84 H 0.02025 0.3693 0.01664 0.0
H85 H 0.02687 0.31886 0.97218 0.0
H86 H 0.99494 0.38708 0.88355 0.0
H87 H 0.98765 0.43703 0.92791 0.0
N88 N 0.96687 0.45801 0.99489 0.0
N89 N 0.9746 0.48779 0.05257 0.0
N90 N 0.01263 0.44018 0.03559 0.0
C91 C 0.95651 0.48377 0.0196 0.0
C92 C 0.00302 0.4663 0.06061 0.0
C93 C 0.99462 0.43606 0.00262 0.0
C94 C 0.92477 0.5059 0.01063 0.0
C95 C 0.91264 0.5075 0.97376 0.0
C96 C 0.8811 0.52589 0.96503 0.0
C97 C 0.86071 0.54291 0.99297 0.0
C98 C 0.87319 0.54204 0.0298 0.0
C99 C 0.90506 0.52386 0.03853 0.0
C100 C 0.02357 0.47153 0.09614 0.0
C101 C 0.01016 0.49393 0.12469 0.0
C102 C 0.02984 0.49928 0.1579 0.0
C103 C 0.06358 0.48263 0.16325 0.0
C104 C 0.07701 0.46023 0.13475 0.0
C105 C 0.05717 0.45461 0.10167 0.0
C106 C 0.00331 0.40697 0.97572 0.0
C107 C 0.01515 0.37356 0.9876 0.0
C108 C 0.78033 0.71282 0.08648 0.0
C109 C 0.75822 0.6811 0.07868 0.0
C110 C 0.72579 0.67412 0.09948 0.0
C111 C 0.71556 0.69849 0.12739 0.0
H112 H 0.64387 0.7092 0.21369 0.0
H113 H 0.59252 0.69305 0.25472 0.0
H114 H 0.60938 0.79628 0.3131 0.0
H115 H 0.66081 0.81256 0.2721 0.0
H116 H 0.73806 0.86162 0.25392 0.0
H117 H 0.77445 0.9192 0.25971 0.0
H118 H 0.81507 0.90419 0.14817 0.0
H119 H 0.77918 0.84672 0.14248 0.0
H120 H 0.78765 0.76158 0.11935 0.0
H121 H 0.80546 0.719 0.07091 0.0
H122 H 0.70817 0.64986 0.09414 0.0
H123 H 0.6903 0.69235 0.14277 0.0
N124 N 0.69794 0.74815 0.18741 0.0
N125 N 0.70676 0.80489 0.21785 0.0
N126 N 0.74476 0.78958 0.16776 0.0
C127 C 0.68791 0.77204 0.21437 0.0
C128 C 0.73516 0.81384 0.19446 0.0
C129 C 0.72641 0.75667 0.16409 0.0
C130 C 0.65663 0.76224 0.23952 0.0
C131 C 0.63674 0.72853 0.23526 0.0
C132 C 0.60721 0.7192 0.25881 0.0
C133 C 0.59685 0.74333 0.28719 0.0
C134 C 0.61667 0.77702 0.2915 0.0
C135 C 0.6462 0.78638 0.26794 0.0
C136 C 0.75584 0.84948 0.19783 0.0
C137 C 0.75462 0.87071 0.2306 0.0
C138 C 0.77557 0.90362 0.23396 0.0
C139 C 0.79771 0.91616 0.20442 0.0
C140 C 0.7983 0.8953 0.17143 0.0
C141 C 0.77779 0.86225 0.16824 0.0
C142 C 0.73745 0.73047 0.13494 0.0
C143 C 0.77001 0.7373 0.11422 0.0
C144 C 0.03681 0.86032 0.55149 0.0
C145 C 0.00411 0.83785 0.55012 0.0
C146 C 0.97643 0.84498 0.52433 0.0
C147 C 0.98145 0.87372 0.50017 0.0
H148 H 0.93117 0.92268 0.4152 0.0
H149 H 0.88435 0.93229 0.36856 0.0
H150 H 0.9524 0.02185 0.32647 0.0
H151 H 0.99933 0.01234 0.3731 0.0
H152 H 0.077 0.03306 0.40925 0.0
H153 H 0.13366 0.07183 0.41284 0.0
H154 H 0.17443 0.0069 0.5003 0.0
H155 H 0.11784 0.96808 0.49682 0.0
H156 H 0.06752 0.90569 0.52901 0.0
H157 H 0.05867 0.85555 0.57106 0.0
H158 H 0.95088 0.82822 0.52256 0.0
H159 H 0.95958 0.87823 0.48054 0.0
N160 N 0.99328 0.93267 0.44986 0.0
N161 N 0.0306 0.9808 0.4267 0.0
N162 N 0.052 0.94715 0.4757 0.0
C163 C 0.99835 0.95997 0.4256 0.0
C164 C 0.05758 0.97455 0.45166 0.0
C165 C 0.01995 0.92608 0.47503 0.0
C166 C 0.96923 0.9666 0.39791 0.0
C167 C 0.93619 0.94454 0.39613 0.0
C168 C 0.90925 0.95006 0.36936 0.0
C169 C 0.91465 0.97778 0.34371 0.0
C170 C 0.94736 0.00023 0.3458 0.0
C171 C 0.97433 -0.00529 0.37257 0.0
C172 C 0.09263 -0.0025 0.4529 0.0
C173 C 0.09806 0.02689 0.42917 0.0
C174 C 0.13062 0.04915 0.43118 0.0
C175 C 0.15853 0.04253 0.45692 0.0
C176 C 0.15346 0.01278 0.48017 0.0
C177 C 0.1209 0.99054 0.4782 0.0
C178 C 0.01431 0.89603 0.50121 0.0
C179 C 0.04186 0.88908 0.52731 0.0
C180 C 0.2589 0.77343 0.93576 0.0
C181 C 0.24363 0.80742 0.94079 0.0
C182 C 0.21798 0.81863 0.91469 0.0
C183 C 0.20809 0.79641 0.88399 0.0
H184 H 0.13814 0.78714 0.7943 0.0
H185 H 0.08968 0.80342 0.75195 0.0
H186 H 0.10935 0.70856 0.68356 0.0
H187 H 0.15786 0.69216 0.72587 0.0
H188 H 0.23713 0.64978 0.74391 0.0
H189 H 0.27499 0.5972 0.73449 0.0
H190 H 0.2969 0.59631 0.85193 0.0
H191 H 0.25965 0.64883 0.86127 0.0
H192 H 0.26166 0.72532 0.90211 0.0
H193 H 0.27866 0.76394 0.9554 0.0
H194 H 0.20563 0.84468 0.91784 0.0
H195 H 0.18847 0.80598 0.86426 0.0
N196 N 0.18866 0.74885 0.82084 0.0
N197 N 0.19924 0.6968 0.78435 0.0
N198 N 0.23221 0.70822 0.83964 0.0
C199 C 0.18078 0.72774 0.79015 0.0
C200 C 0.22492 0.68687 0.80917 0.0
C201 C 0.21441 0.73926 0.84568 0.0
C202 C 0.15197 0.73821 0.76365 0.0
C203 C 0.1323 0.76974 0.77019 0.0
C204 C 0.10444 0.77914 0.74587 0.0
C205 C 0.09556 0.75729 0.7144 0.0
C206 C 0.11547 0.72601 0.70758 0.0
C207 C 0.14333 0.71658 0.7319 0.0
C208 C 0.24555 0.65358 0.80328 0.0
C209 C 0.24982 0.63816 0.76769 0.0
C210 C 0.27166 0.60819 0.7623 0.0
C211 C 0.2891 0.59277 0.79247 0.0
C212 C 0.2839 0.60758 0.82812 0.0
C213 C 0.2626 0.63778 0.83343 0.0
C214 C 0.22372 0.76254 0.87872 0.0
C215 C 0.2491 0.75127 0.9051 0.0
C216 C 0.01937 0.65447 0.53746 0.0
C217 C 0.005 0.64968 0.57329 0.0
C218 C 0.98916 0.6156 0.5826 0.0
C219 C 0.98662 0.58722 0.55631 0.0
H220 H 0.9018 0.51855 0.51879 0.0
H221 H 0.84608 0.47975 0.525 0.0
H222 H 0.88054 0.41271 0.4327 0.0
H223 H 0.93684 0.4519 0.42625 0.0
H224 H 0.00884 0.48167 0.37976 0.0
H225 H 0.05347 0.47359 0.32991 0.0
H226 H 0.12468 0.56034 0.37762 0.0
H227 H 0.08021 0.56857 0.42731 0.0
H228 H 0.02835 0.63025 0.48376 0.0
H229 H 0.03201 0.68041 0.52962 0.0
H230 H 0.97793 0.61107 0.60999 0.0
H231 H 0.97353 0.56146 0.56413 0.0
N232 N 0.96475 0.53948 0.49446 0.0
N233 N 0.98279 0.50811 0.44083 0.0
N234 N 0.01942 0.55833 0.46387 0.0
C235 C 0.95815 0.51238 0.46893 0.0
C236 C 0.01362 0.53093 0.43816 0.0
C237 C 0.99508 0.56252 0.49221 0.0
C238 C 0.92405 0.48835 0.47204 0.0
C239 C 0.89772 0.49559 0.49968 0.0
C240 C 0.86556 0.47332 0.50326 0.0
C241 C 0.85883 0.4431 0.47938 0.0
C242 C 0.88493 0.43582 0.45156 0.0
C243 C 0.91722 0.45827 0.44787 0.0
C244 C 0.04076 0.52586 0.40767 0.0
C245 C 0.03401 0.49905 0.3797 0.0
C246 C 0.05964 0.49436 0.35106 0.0
C247 C 0.0927 0.51627 0.34975 0.0
C248 C 0.09954 0.54293 0.37776 0.0
C249 C 0.0739 0.5477 0.4063 0.0
C250 C 1.00057 0.59205 0.52036 0.0
C251 C 0.01756 0.62575 0.51132 0.0
C252 C 0.91685 0.72848 0.7385 0.0
C253 C 0.92575 0.7499 0.70791 0.0
C254 C 0.9024 0.77787 0.69919 0.0
C255 C 0.87121 0.78464 0.72104 0.0
H256 H 0.77117 0.84845 0.73389 0.0
H257 H 0.73208 0.90055 0.72901 0.0
H258 H 0.70556 0.89387 0.84525 0.0
H259 H 0.74386 0.84198 0.84998 0.0
H260 H 0.73936 0.76232 0.88042 0.0
H261 H 0.72332 0.72211 0.93061 0.0
H262 H 0.80761 0.65013 0.894 0.0
H263 H 0.82385 0.69049 0.84354 0.0
H264 H 0.88006 0.71802 0.78362 0.0
H265 H 0.93412 0.70664 0.74596 0.0
H266 H 0.90849 0.7949 0.67579 0.0
H267 H 0.85406 0.80663 0.71381 0.0
N268 N 0.81048 0.80097 0.77191 0.0
N269 N 0.77365 0.78487 0.82306 0.0
N270 N 0.82121 0.74795 0.80401 0.0
C271 C 0.78211 0.80811 0.79551 0.0
C272 C 0.79282 0.75467 0.82745 0.0
C273 C 0.83034 0.77087 0.77621 0.0
C274 C 0.76047 0.84096 0.79223 0.0
C275 C 0.75713 0.8583 0.75836 0.0
C276 C 0.73459 0.88798 0.75556 0.0
C277 C 0.71557 0.90121 0.78673 0.0
C278 C 0.71974 0.88437 0.8207 0.0
C279 C 0.74167 0.85449 0.82336 0.0
C280 C 0.78299 0.72975 0.85784 0.0
C281 C 0.75453 0.73793 0.8829 0.0
C282 C 0.74528 0.71482 0.91178 0.0
C283 C 0.76418 0.68292 0.91632 0.0
C284 C 0.7925 0.67453 0.89123 0.0
C285 C 0.80183 0.69771 0.86231 0.0
C286 C 0.86257 0.7634 0.75193 0.0
C287 C 0.88566 0.73503 0.76011 0.0
C288 C 0.41685 0.22848 0.2385 0.0
C289 C 0.42575 0.2499 0.20791 0.0
C290 C 0.4024 0.27787 0.19919 0.0
C291 C 0.37121 0.28464 0.22104 0.0
H292 H 0.27117 0.34845 0.23389 0.0
H293 H 0.23208 0.40055 0.22901 0.0
H294 H 0.20556 0.39387 0.34525 0.0
H295 H 0.24385 0.34198 0.34998 0.0
H296 H 0.23936 0.26232 0.38042 0.0
H297 H 0.22333 0.22211 0.43061 0.0
H298 H 0.30761 0.15013 0.394 0.0
H299 H 0.32385 0.19049 0.34354 0.0
H300 H 0.38006 0.21802 0.28362 0.0
H301 H 0.43412 0.20664 0.24596 0.0
H302 H 0.40849 0.2949 0.17579 0.0
H303 H 0.35406 0.30663 0.21381 0.0
N304 N 0.31048 0.30097 0.27191 0.0
N305 N 0.27365 0.28487 0.32306 0.0
N306 N 0.32121 0.24795 0.30401 0.0
C307 C 0.28211 0.30811 0.29551 0.0
C308 C 0.29282 0.25467 0.32745 0.0
C309 C 0.33034 0.27087 0.27621 0.0
C310 C 0.26047 0.34096 0.29223 0.0
C311 C 0.25713 0.3583 0.25836 0.0
C312 C 0.23459 0.38798 0.25556 0.0
C313 C 0.21557 0.40121 0.28673 0.0
C314 C 0.21974 0.38437 0.3207 0.0
C315 C 0.24167 0.35449 0.32336 0.0
C316 C 0.28299 0.22975 0.35784 0.0
C317 C 0.25453 0.23793 0.3829 0.0
C318 C 0.24528 0.21482 0.41178 0.0
C319 C 0.26418 0.18292 0.41632 0.0
C320 C 0.2925 0.17453 0.39123 0.0
C321 C 0.30183 0.19771 0.36231 0.0
C322 C 0.36257 0.2634 0.25193 0.0
C323 C 0.38566 0.23503 0.26011 0.0
C324 C 0.51862 0.84466 0.46221 0.0
C325 C 0.51106 0.84899 0.42446 0.0
C326 C 0.50084 0.8829 0.41245 0.0
C327 C 0.49665 0.91149 0.43786 0.0
H328 H 0.42732 -0.00577 0.4515 0.0
H329 H 0.37239 0.0262 0.43638 0.0
H330 H 0.35819 0.05515 0.55193 0.0
H331 H 0.41363 0.02306 0.5672 0.0
H332 H 0.48436 0.00734 0.62152 0.0
H333 H 0.5187 0.01673 0.67927 0.0
H334 H 0.60287 0.94692 0.63799 0.0
H335 H 0.56847 0.93727 0.5803 0.0
H336 H 0.52025 0.8693 0.51664 0.0
H337 H 0.52687 0.81886 0.47218 0.0
H338 H 0.49494 0.88708 0.38355 0.0
H339 H 0.48765 0.93704 0.42791 0.0
N340 N 0.46687 0.95802 0.49489 0.0
N341 N 0.47461 0.98779 0.55257 0.0
N342 N 0.51263 0.94018 0.53559 0.0
C343 C 0.45651 0.98377 0.5196 0.0
C344 C 0.50302 0.96631 0.56061 0.0
C345 C 0.49462 0.93606 0.50262 0.0
C346 C 0.42478 0.0059 0.51063 0.0
C347 C 0.41264 0.0075 0.47376 0.0
C348 C 0.38111 0.02589 0.46503 0.0
C349 C 0.36071 0.04291 0.49296 0.0
C350 C 0.37319 0.04204 0.52979 0.0
C351 C 0.40507 0.02386 0.53853 0.0
C352 C 0.52357 0.97153 0.59614 0.0
C353 C 0.51016 -0.00607 0.62469 0.0
C354 C 0.52984 -0.00072 0.6579 0.0
C355 C 0.56358 0.98263 0.66325 0.0
C356 C 0.57701 0.96023 0.63475 0.0
C357 C 0.55717 0.95461 0.60167 0.0
C358 C 0.50331 0.90697 0.47572 0.0
C359 C 0.51515 0.87356 0.4876 0.0
C360 C 0.28034 0.21282 0.58648 0.0
C361 C 0.25823 0.1811 0.57869 0.0
C362 C 0.22579 0.17412 0.59948 0.0
C363 C 0.21557 0.19849 0.62739 0.0
H364 H 0.14388 0.2092 0.71369 0.0
H365 H 0.09253 0.19304 0.75472 0.0
H366 H 0.10938 0.29628 0.8131 0.0
H367 H 0.16082 0.31256 0.7721 0.0
H368 H 0.23806 0.36162 0.75392 0.0
H369 H 0.27445 0.41919 0.75971 0.0
H370 H 0.31507 0.40419 0.64817 0.0
H371 H 0.27918 0.34671 0.64248 0.0
H372 H 0.28765 0.26158 0.61936 0.0
H373 H 0.30547 0.219 0.57091 0.0
H374 H 0.20817 0.14986 0.59414 0.0
H375 H 0.1903 0.19235 0.64277 0.0
N376 N 0.19795 0.24814 0.68741 0.0
N377 N 0.20677 0.30489 0.71785 0.0
N378 N 0.24476 0.28957 0.66776 0.0
C379 C 0.18791 0.27204 0.71437 0.0
C380 C 0.23517 0.31384 0.69446 0.0
C381 C 0.22641 0.25667 0.66409 0.0
C382 C 0.15663 0.26224 0.73952 0.0
C383 C 0.13674 0.22853 0.73527 0.0
C384 C 0.10721 0.2192 0.75881 0.0
C385 C 0.09686 0.24332 0.7872 0.0
C386 C 0.11667 0.27702 0.7915 0.0
C387 C 0.14621 0.28638 0.76795 0.0
C388 C 0.25584 0.34948 0.69783 0.0
C389 C 0.25462 0.37071 0.7306 0.0
C390 C 0.27557 0.40362 0.73396 0.0
C391 C 0.29771 0.41616 0.70442 0.0
C392 C 0.2983 0.3953 0.67143 0.0
C393 C 0.27779 0.36224 0.66824 0.0
C394 C 0.23745 0.23047 0.63494 0.0
C395 C 0.27001 0.2373 0.61422 0.0
C396 C 0.72934 0.09473 0.74791 0.0
C397 C 0.69261 0.09394 0.73455 0.0
C398 C 0.67958 0.12526 0.71887 0.0
C399 C 0.70293 0.1564 0.71579 0.0
H400 H 0.7131 0.2457 0.65281 0.0
H401 H 0.69799 0.28699 0.60433 0.0
H402 H 0.8059 0.34266 0.6175 0.0
H403 H 0.82108 0.30153 0.666 0.0
H404 H 0.8769 0.2747 0.72171 0.0
H405 H 0.93499 0.28594 0.75495 0.0
H406 H 0.90402 0.19974 0.82925 0.0
H407 H 0.84555 0.18822 0.79574 0.0
H408 H 0.78094 0.12572 0.75527 0.0
H409 H 0.74014 0.07106 0.76035 0.0
H410 H 0.65144 0.12562 0.70841 0.0
H411 H 0.69198 0.17987 0.70311 0.0
N412 N 0.75554 0.2145 0.69815 0.0
N413 N 0.81079 0.24872 0.71046 0.0
N414 N 0.79758 0.19477 0.74196 0.0
C415 C 0.77831 0.24401 0.69158 0.0
C416 C 0.82065 0.22442 0.73578 0.0
C417 C 0.76487 0.18973 0.72317 0.0
C418 C 0.76841 0.27012 0.66325 0.0
C419 C 0.7336 0.26681 0.6455 0.0
C420 C 0.72487 0.29054 0.61772 0.0
C421 C 0.7508 0.31799 0.60695 0.0
C422 C 0.78535 0.3217 0.62507 0.0
C423 C 0.79402 0.2981 0.65295 0.0
C424 C 0.85636 0.23054 0.75603 0.0
C425 C 0.8823 0.25804 0.74512 0.0
C426 C 0.91577 0.26451 0.76418 0.0
C427 C 0.92415 0.24382 0.79481 0.0
C428 C 0.89835 0.21624 0.80579 0.0
C429 C 0.86486 0.20957 0.78651 0.0
C430 C 0.73984 0.15715 0.72863 0.0
C431 C 0.75266 0.1261 0.74517 0.0
C432 C 0.43443 0.53799 0.63955 0.0
C433 C 0.44263 0.51058 0.66404 0.0
C434 C 0.47458 0.491 0.6578 0.0
C435 C 0.49797 0.49884 0.62788 0.0
H436 H 0.59935 0.47445 0.58129 0.0
H437 H 0.65529 0.44153 0.56975 0.0
H438 H 0.67194 0.49675 0.46669 0.0
H439 H 0.61628 0.52969 0.47812 0.0
H440 H 0.5705 0.59484 0.46088 0.0
H441 H 0.55832 0.64508 0.42142 0.0
H442 H 0.45858 0.66499 0.48357 0.0
H443 H 0.47069 0.61466 0.52325 0.0
H444 H 0.45059 0.56725 0.59148 0.0
H445 H 0.41001 0.55357 0.64352 0.0
H446 H 0.48169 0.46969 0.67614 0.0
H447 H 0.52243 0.4833 0.62404 0.0
N448 N 0.54614 0.51664 0.56606 0.0
N449 N 0.56075 0.55187 0.51459 0.0
N450 N 0.50709 0.5623 0.54893 0.0
C451 C 0.56915 0.52481 0.53731 0.0
C452 C 0.52986 0.57077 0.52015 0.0
C453 C 0.51496 0.53525 0.57201 0.0
C454 C 0.60318 0.50471 0.53064 0.0
C455 C 0.61491 0.4796 0.55617 0.0
C456 C 0.64707 0.4608 0.54961 0.0
C457 C 0.66806 0.46655 0.51729 0.0
C458 C 0.6564 0.49168 0.49184 0.0
C459 C 0.62441 0.5106 0.49847 0.0
C460 C 0.52166 0.60071 0.49543 0.0
C461 C 0.54588 0.60979 0.46618 0.0
C462 C 0.53891 0.63865 0.44347 0.0
C463 C 0.50756 0.65911 0.44943 0.0
C464 C 0.48303 0.64978 0.47829 0.0
C465 C 0.49001 0.6209 0.50107 0.0
C466 C 0.48994 0.52646 0.6035 0.0
C467 C 0.45778 0.54583 0.60965 0.0
C468 C 0.53681 0.36032 0.05149 0.0
C469 C 0.50411 0.33785 0.05012 0.0
C470 C 0.47643 0.34498 0.02433 0.0
C471 C 0.48145 0.37372 0.00017 0.0
H472 H 0.43117 0.42268 0.9152 0.0
H473 H 0.38435 0.43229 0.86856 0.0
H474 H 0.4524 0.52185 0.82647 0.0
H475 H 0.49933 0.51234 0.8731 0.0
H476 H 0.57701 0.53306 0.90925 0.0
H477 H 0.63366 0.57183 0.91283 0.0
H478 H 0.67443 0.5069 0.0003 0.0
H479 H 0.61784 0.46808 -0.00318 0.0
H480 H 0.56752 0.40569 0.02901 0.0
H481 H 0.55867 0.35555 0.07106 0.0
H482 H 0.45088 0.32822 0.02256 0.0
H483 H 0.45958 0.37823 0.98054 0.0
N484 N 0.49328 0.43267 0.94986 0.0
N485 N 0.5306 0.4808 0.9267 0.0
N486 N 0.552 0.44715 0.9757 0.0
C487 C 0.49835 0.45997 0.9256 0.0
C488 C 0.55758 0.47455 0.95166 0.0
C489 C 0.51995 0.42608 0.97503 0.0
C490 C 0.46923 0.4666 0.89791 0.0
C491 C 0.43619 0.44454 0.89613 0.0
C492 C 0.40925 0.45006 0.86936 0.0
C493 C 0.41465 0.47778 0.84371 0.0
C494 C 0.44736 0.50023 0.8458 0.0
C495 C 0.47433 0.49471 0.87257 0.0
C496 C 0.59264 0.4975 0.9529 0.0
C497 C 0.59806 0.52689 0.92917 0.0
C498 C 0.63062 0.54915 0.93118 0.0
C499 C 0.65853 0.54253 0.95692 0.0
C500 C 0.65346 0.51278 0.98017 0.0
C501 C 0.6209 0.49054 0.9782 0.0
C502 C 0.51431 0.39603 0.00121 0.0
C503 C 0.54186 0.38908 0.02731 0.0
C504 C 0.7589 0.27343 0.43576 0.0
C505 C 0.74363 0.30742 0.44079 0.0
C506 C 0.71798 0.31863 0.41469 0.0
C507 C 0.70809 0.29641 0.38399 0.0
H508 H 0.63814 0.28714 0.2943 0.0
H509 H 0.58968 0.30342 0.25195 0.0
H510 H 0.60935 0.20856 0.18357 0.0
H511 H 0.65786 0.19216 0.22587 0.0
H512 H 0.73713 0.14978 0.24391 0.0
H513 H 0.77499 0.0972 0.23449 0.0
H514 H 0.7969 0.09632 0.35193 0.0
H515 H 0.75965 0.14883 0.36127 0.0
H516 H 0.76166 0.22532 0.40211 0.0
H517 H 0.77866 0.26394 0.4554 0.0
H518 H 0.70563 0.34468 0.41784 0.0
H519 H 0.68847 0.30598 0.36426 0.0
N520 N 0.68866 0.24885 0.32084 0.0
N521 N 0.69924 0.1968 0.28435 0.0
N522 N 0.73221 0.20822 0.33964 0.0
C523 C 0.68078 0.22774 0.29015 0.0
C524 C 0.72492 0.18687 0.30917 0.0
C525 C 0.71441 0.23927 0.34568 0.0
C526 C 0.65197 0.23821 0.26366 0.0
C527 C 0.6323 0.26974 0.27019 0.0
C528 C 0.60444 0.27914 0.24587 0.0
C529 C 0.59556 0.25729 0.2144 0.0
C530 C 0.61547 0.22601 0.20758 0.0
C531 C 0.64333 0.21658 0.2319 0.0
C532 C 0.74555 0.15358 0.30328 0.0
C533 C 0.74982 0.13816 0.26769 0.0
C534 C 0.77166 0.10819 0.2623 0.0
C535 C 0.7891 0.09277 0.29247 0.0
C536 C 0.7839 0.10758 0.32812 0.0
C537 C 0.7626 0.13778 0.33343 0.0
C538 C 0.72372 0.26254 0.37873 0.0
C539 C 0.7491 0.25127 0.4051 0.0
C540 C 0.51937 0.15447 0.03746 0.0
C541 C 0.505 0.14968 0.07329 0.0
C542 C 0.48916 0.1156 0.0826 0.0
C543 C 0.48662 0.08722 0.05631 0.0
H544 H 0.4018 0.01855 0.01879 0.0
H545 H 0.34608 0.97975 0.025 0.0
H546 H 0.38053 0.91271 0.9327 0.0
H547 H 0.43684 0.9519 0.92625 0.0
H548 H 0.50884 0.98167 0.87976 0.0
H549 H 0.55347 0.97359 0.82991 0.0
H550 H 0.62468 0.06034 0.87763 0.0
H551 H 0.58021 0.06857 0.92731 0.0
H552 H 0.52836 0.13025 0.98376 0.0
H553 H 0.53201 0.18041 0.02962 0.0
H554 H 0.47793 0.11107 0.10999 0.0
H555 H 0.47353 0.06146 0.06413 0.0
N556 N 0.46475 0.03948 0.99446 0.0
N557 N 0.48279 0.00811 0.94083 0.0
N558 N 0.51942 0.05833 0.96387 0.0
C559 C 0.45815 0.01238 0.96893 0.0
C560 C 0.51362 0.03093 0.93816 0.0
C561 C 0.49508 0.06253 0.99221 0.0
C562 C 0.42405 0.98835 0.97204 0.0
C563 C 0.39772 -0.00441 -0.00032 0.0
C564 C 0.36556 0.97332 0.00326 0.0
C565 C 0.35883 0.9431 0.97938 0.0
C566 C 0.38493 0.93582 0.95156 0.0
C567 C 0.41722 0.95827 0.94787 0.0
C568 C 0.54076 0.02586 0.90767 0.0
C569 C 0.53401 -0.00095 0.8797 0.0
C570 C 0.55964 -0.00564 0.85106 0.0
C571 C 0.5927 0.01627 0.84975 0.0
C572 C 0.59954 0.04293 0.87776 0.0
C573 C 0.5739 0.0477 0.9063 0.0
C574 C 0.50057 0.09205 0.02036 0.0
C575 C 0.51756 0.12575 0.01132 0.0
C576 C 0.20146 0.94594 0.00972 0.0
O577 O 0.21864 0.94839 0.97774 0.0
O578 O 0.24165 0.86222 0.97705 0.0
Zn579 Zn 0.25627 0.89451 0.02079 0.0
O580 O 0.30167 0.92641 0.00934 0.0
C581 C 0.24231 0.842 0.07637 0.0
O582 O 0.20951 0.8396 0.06034 0.0
O583 O 0.21324 0.9247 0.03359 0.0
C584 C 0.32505 0.91912 0.98418 0.0
O585 O 0.31954 0.88961 0.9634 0.0
C586 C 0.25462 0.83103 0.97298 0.0
O587 O 0.27842 0.82028 -0.00261 0.0
O588 O 0.26723 0.8642 0.06421 0.0
C589 C 0.19128 0.43222 0.28414 0.0
O590 O 0.17992 0.4489 0.3143 0.0
O591 O 0.11284 0.48927 0.29257 0.0
Zn592 Zn 0.14768 0.48513 0.24845 0.0
O593 O 0.18096 0.53074 0.24539 0.0
C594 C 0.08461 0.4887 0.1983 0.0
O595 O 0.0697 0.50572 0.22654 0.0
O596 O 0.18068 0.44271 0.25287 0.0
C597 C 0.16799 0.56067 0.23655 0.0
O598 O 0.13242 0.56168 0.22893 0.0
C599 C 0.1197 0.51195 0.31915 0.0
O600 O 0.15075 0.53224 0.31874 0.0
O601 O 0.11734 0.4777 0.20136 0.0
C602 C 0.82647 0.5611 0.98356 0.0
O603 O 0.81729 0.56527 0.94882 0.0
O604 O 0.77117 0.62972 0.95144 0.0
Zn605 Zn 0.75965 0.59814 0.99521 0.0
O606 O 0.71657 0.56214 0.98474 0.0
C607 C 0.76848 0.65586 0.04849 0.0
O608 O 0.80004 0.661 0.03067 0.0
O609 O 0.80534 0.57259 0.0089 0.0
C610 C 0.69199 0.5674 0.96051 0.0
O611 O 0.69542 0.59638 0.94026 0.0
C612 C 0.75461 0.65893 0.9474 0.0
O613 O 0.729 0.66776 0.97141 0.0
O614 O 0.74613 0.62976 0.03836 0.0
C615 C 0.81311 0.06181 0.28691 0.0
O616 O 0.82353 0.04325 0.31526 0.0
O617 O 0.89221 0.00704 0.29057 0.0
Zn618 Zn 0.85792 0.01175 0.24692 0.0
O619 O 0.82581 0.96579 0.23965 0.0
C620 C 0.91828 0.00284 0.19616 0.0
O621 O 0.92605 0.97735 0.21919 0.0
O622 O 0.82464 0.05338 0.25479 0.0
C623 C 0.82058 0.95049 0.20808 0.0
O624 O 0.83644 0.96499 0.17889 0.0
C625 C 0.88689 0.98245 0.31425 0.0
O626 O 0.85733 0.96018 0.31127 0.0
O627 O 0.88985 0.02114 0.20214 0.0
C628 C 0.32648 0.0611 0.48356 0.0
O629 O 0.31729 0.06527 0.44882 0.0
O630 O 0.27117 0.12972 0.45144 0.0
Zn631 Zn 0.25965 0.09814 0.49521 0.0
O632 O 0.21657 0.06214 0.48474 0.0
C633 C 0.26849 0.15585 0.54849 0.0
O634 O 0.30004 0.161 0.53067 0.0
O635 O 0.30535 0.07259 0.5089 0.0
C636 C 0.19199 0.0674 0.46051 0.0
O637 O 0.19542 0.09638 0.44026 0.0
C638 C 0.25461 0.15893 0.4474 0.0
O639 O 0.229 0.16776 0.47141 0.0
O640 O 0.24613 0.12976 0.53836 0.0
C641 C 0.31311 0.56181 0.78691 0.0
O642 O 0.32353 0.54325 0.81526 0.0
O643 O 0.39221 0.50704 0.79057 0.0
Zn644 Zn 0.35792 0.51175 0.74692 0.0
O645 O 0.32581 0.46579 0.73965 0.0
C646 C 0.41828 0.50284 0.69616 0.0
O647 O 0.42605 0.47735 0.71919 0.0
O648 O 0.32464 0.55338 0.75479 0.0
C649 C 0.32058 0.45049 0.70808 0.0
O650 O 0.33644 0.46499 0.67889 0.0
C651 C 0.38689 0.48245 0.81425 0.0
O652 O 0.35733 0.46018 0.81127 0.0
O653 O 0.38985 0.52114 0.70214 0.0
C654 C 0.70147 0.44594 0.50972 0.0
O655 O 0.71864 0.4484 0.47775 0.0
O656 O 0.74165 0.36222 0.47706 0.0
Zn657 Zn 0.75627 0.39451 0.52079 0.0
O658 O 0.80167 0.42641 0.50934 0.0
C659 C 0.74231 0.34201 0.57637 0.0
O660 O 0.70951 0.3396 0.56034 0.0
O661 O 0.71324 0.4247 0.53359 0.0
C662 C 0.82505 0.41912 0.48418 0.0
O663 O 0.81954 0.38961 0.4634 0.0
C664 C 0.75462 0.33103 0.47298 0.0
O665 O 0.77842 0.32028 0.49739 0.0
O666 O 0.76723 0.3642 0.56421 0.0
C667 C 0.69128 0.93222 0.78414 0.0
O668 O 0.67992 0.9489 0.8143 0.0
O669 O 0.61285 0.98927 0.79257 0.0
Zn670 Zn 0.64768 0.98513 0.74845 0.0
O671 O 0.68096 0.03074 0.74539 0.0
C672 C 0.58461 0.9887 0.6983 0.0
O673 O 0.56971 0.00572 0.72654 0.0
O674 O 0.68068 0.94271 0.75287 0.0
C675 C 0.66799 0.06067 0.73655 0.0
O676 O 0.63242 0.06168 0.72893 0.0
C677 C 0.6197 0.01195 0.81915 0.0
O678 O 0.65075 0.03224 0.81874 0.0
O679 O 0.61734 0.9777 0.70136 0.0
C680 C 1.00094 0.19042 0.92615 0.0
O681 O 0.97166 0.20965 0.93171 0.0
O682 O 0.96595 0.23504 0.8448 0.0
Zn683 Zn 0.01432 0.24397 0.87267 0.0
O684 O 0.0114 0.28582 0.90899 0.0
C685 C 0.06559 0.23347 0.81216 0.0
O686 O 0.04666 0.20223 0.80792 0.0
O687 O 0.02406 0.1998 0.90119 0.0
C688 C 0.01296 0.31817 0.89779 0.0
O689 O 0.01534 0.32387 0.86214 0.0
C690 C 0.95965 0.25112 0.81498 0.0
O691 O 0.98506 0.27435 0.80222 0.0
O692 O 0.05664 0.25534 0.83795 0.0
C693 C 0.50094 0.69043 0.42615 0.0
O694 O 0.47166 0.70965 0.43171 0.0
O695 O 0.46595 0.73504 0.3448 0.0
Zn696 Zn 0.51432 0.74397 0.37267 0.0
O697 O 0.51139 0.78583 0.40899 0.0
C698 C 0.56558 0.73348 0.31216 0.0
O699 O 0.54666 0.70224 0.30792 0.0
O700 O 0.52406 0.6998 0.40119 0.0
C701 C 0.51296 0.81817 0.39779 0.0
O702 O 0.51535 0.82387 0.36214 0.0
C703 C 0.45964 0.75112 0.31498 0.0
O704 O 0.48506 0.77435 0.30222 0.0
O705 O 0.55664 0.75534 0.33795 0.0
C706 C 0.99906 0.80666 0.57482 0.0
O707 O 0.96896 0.78503 0.57229 0.0
O708 O 0.9664 0.76028 0.65633 0.0
Zn709 Zn 0.0141 0.75467 0.62723 0.0
O710 O 0.00984 0.71258 0.59054 0.0
C711 C 0.06522 0.76657 0.68925 0.0
O712 O 0.04575 0.7951 0.69623 0.0
O713 O 0.02404 0.79963 0.598 0.0
C714 C 0.00631 0.67997 0.60088 0.0
O715 O 0.0038 0.67346 0.63634 0.0
C716 C 0.95976 0.74348 0.68605 0.0
O717 O 0.98409 0.72115 0.6979 0.0
O718 O 0.05686 0.74618 0.66132 0.0
C719 C 0.49906 0.30666 0.07482 0.0
O720 O 0.46896 0.28503 0.07229 0.0
O721 O 0.4664 0.26028 0.15633 0.0
Zn722 Zn 0.5141 0.25467 0.12723 0.0
O723 O 0.50984 0.21258 0.09054 0.0
C724 C 0.56522 0.26657 0.18925 0.0
O725 O 0.54576 0.2951 0.19623 0.0
O726 O 0.52404 0.29963 0.098 0.0
C727 C 0.50631 0.17998 0.10088 0.0
O728 O 0.50379 0.17346 0.13634 0.0
C729 C 0.45976 0.24348 0.18605 0.0
O730 O 0.48409 0.22115 0.1979 0.0
O731 O 0.55686 0.24618 0.16132 0.0
loop_
_geom_bond_atom_site_label_1
_geom_bond_atom_site_label_2
_geom_bond_distance
_geom_bond_site_symmetry_2
_ccdc_geom_bond_type
C0 C1 1.384 . S
C0 H13 0.947 . S
C0 C35 1.382 . S
C1 C0 1.384 . S
C1 C2 1.378 . S
C2 C1 1.378 . S
C2 C3 1.378 1_655 S
C2 H14 0.952 1_545 S
C3 C2 1.378 1_455 S
C3 H15 0.950 1_545 S
C3 C34 1.383 1_455 S
H4 C23 0.947 . S
H5 C24 0.946 . S
H6 C26 0.953 1_556 S
H7 C27 0.945 1_556 S
H8 C29 0.952 . S
H9 C30 0.949 . S
H10 C32 0.950 1_655 S
H11 C33 0.948 1_655 S
H12 C35 0.951 . S
H13 C0 0.947 . S
H14 C2 0.952 1_565 S
H15 C3 0.950 1_565 S
N16 C19 1.382 . S
N16 C21 1.363 . S
N17 C19 1.371 . S
N17 C20 1.372 . S
N18 C20 1.361 . S
N18 C21 1.377 . S
C19 N16 1.382 . S
C19 N17 1.371 . S
C19 C22 1.480 . S
C20 N17 1.372 . S
C20 N18 1.361 . S
C20 C28 1.457 . S
C21 N16 1.363 . S
C21 N18 1.377 . S
C21 C34 1.479 1_455 S
C22 C19 1.480 . S
C22 C23 1.383 1_545 S
C22 C27 1.385 . S
C23 H4 0.947 . S
C23 C22 1.383 1_565 S
C23 C24 1.388 . S
C24 H5 0.946 . S
C24 C23 1.388 . S
C24 C25 1.384 . S
C25 C24 1.384 . S
C25 C26 1.377 . S
C26 H6 0.953 1_554 S
C26 C25 1.377 . S
C26 C27 1.369 1_565 S
C27 H7 0.945 1_554 S
C27 C22 1.385 . S
C27 C26 1.369 1_545 S
C28 C20 1.457 . S
C28 C29 1.372 1_554 S
C28 C33 1.364 . S
C29 H8 0.952 . S
C29 C28 1.372 1_556 S
C29 C30 1.389 . S
C30 H9 0.949 . S
C30 C29 1.389 . S
C30 C31 1.387 . S
C31 C30 1.387 . S
C31 C32 1.372 . S
C32 H10 0.950 1_455 S
C32 C31 1.372 . S
C32 C33 1.379 1_556 S
C33 H11 0.948 1_455 S
C33 C28 1.364 . S
C33 C32 1.379 1_554 S
C34 C3 1.383 1_655 S
C34 C21 1.479 1_655 S
C34 C35 1.398 . S
C35 C0 1.382 . S
C35 H12 0.951 . S
C35 C34 1.398 . S
C36 C37 1.384 . S
C36 H49 0.947 . S
C36 C71 1.382 . S
C37 C36 1.384 . S
C37 C38 1.378 . S
C38 C37 1.378 . S
C38 C39 1.378 . S
C38 H50 0.952 . S
C39 C38 1.378 . S
C39 H51 0.950 . S
C39 C70 1.383 . S
H40 C59 0.947 . S
H41 C60 0.946 . S
H42 C62 0.953 . S
H43 C63 0.945 . S
H44 C65 0.952 . S
H45 C66 0.949 . S
H46 C68 0.950 . S
H47 C69 0.948 . S
H48 C71 0.951 . S
H49 C36 0.947 . S
H50 C38 0.952 . S
H51 C39 0.950 . S
N52 C55 1.382 . S
N52 C57 1.363 . S
N53 C55 1.371 . S
N53 C56 1.372 . S
N54 C56 1.361 . S
N54 C57 1.377 . S
C55 N52 1.382 . S
C55 N53 1.371 . S
C55 C58 1.480 . S
C56 N53 1.372 . S
C56 N54 1.361 . S
C56 C64 1.457 . S
C57 N52 1.363 . S
C57 N54 1.377 . S
C57 C70 1.479 . S
C58 C55 1.480 . S
C58 C59 1.383 . S
C58 C63 1.385 . S
C59 H40 0.947 . S
C59 C58 1.383 . S
C59 C60 1.388 . S
C60 H41 0.946 . S
C60 C59 1.388 . S
C60 C61 1.384 . S
C61 C60 1.384 . S
C61 C62 1.377 . S
C62 H42 0.953 . S
C62 C61 1.377 . S
C62 C63 1.369 . S
C63 H43 0.945 . S
C63 C58 1.385 . S
C63 C62 1.369 . S
C64 C56 1.457 . S
C64 C65 1.372 . S
C64 C69 1.364 . S
C65 H44 0.952 . S
C65 C64 1.372 . S
C65 C66 1.389 . S
C66 H45 0.949 . S
C66 C65 1.389 . S
C66 C67 1.387 . S
C67 C66 1.387 . S
C67 C68 1.372 . S
C68 H46 0.950 . S
C68 C67 1.372 . S
C68 C69 1.379 . S
C69 H47 0.948 . S
C69 C64 1.364 . S
C69 C68 1.379 . S
C70 C39 1.383 . S
C70 C57 1.479 . S
C70 C71 1.398 . S
C71 C36 1.382 . S
C71 H48 0.951 . S
C71 C70 1.398 . S
C72 C73 1.384 1_455 S
C72 H85 0.947 . S
C72 C107 1.382 . S
C73 C72 1.384 1_655 S
C73 C74 1.378 . S
C74 C73 1.378 . S
C74 C75 1.378 . S
C74 H86 0.952 . S
C75 C74 1.378 . S
C75 H87 0.950 . S
C75 C106 1.383 . S
H76 C95 0.947 . S
H77 C96 0.946 . S
H78 C98 0.953 . S
H79 C99 0.945 . S
H80 C101 0.952 1_655 S
H81 C102 0.949 . S
H82 C104 0.950 . S
H83 C105 0.948 . S
H84 C107 0.951 1_554 S
H85 C72 0.947 . S
H86 C74 0.952 . S
H87 C75 0.950 . S
N88 C91 1.382 . S
N88 C93 1.363 . S
N89 C91 1.371 . S
N89 C92 1.372 . S
N90 C92 1.361 1_455 S
N90 C93 1.377 1_455 S
C91 N88 1.382 . S
C91 N89 1.371 . S
C91 C94 1.480 . S
C92 N89 1.372 . S
C92 N90 1.361 1_655 S
C92 C100 1.457 1_655 S
C93 N88 1.363 . S
C93 N90 1.377 1_655 S
C93 C106 1.479 1_554 S
C94 C91 1.480 . S
C94 C95 1.383 1_554 S
C94 C99 1.385 . S
C95 H76 0.947 . S
C95 C94 1.383 1_556 S
C95 C96 1.388 . S
C96 H77 0.946 . S
C96 C95 1.388 . S
C96 C97 1.384 1_556 S
C97 C96 1.384 1_554 S
C97 C98 1.377 . S
C98 H78 0.953 . S
C98 C97 1.377 . S
C98 C99 1.369 . S
C99 H79 0.945 . S
C99 C94 1.385 . S
C99 C98 1.369 . S
C100 C92 1.457 1_455 S
C100 C101 1.372 . S
C100 C105 1.364 . S
C101 H80 0.952 1_455 S
C101 C100 1.372 . S
C101 C102 1.389 . S
C102 H81 0.949 . S
C102 C101 1.389 . S
C102 C103 1.387 . S
C103 C102 1.387 . S
C103 C104 1.372 . S
C104 H82 0.950 . S
C104 C103 1.372 . S
C104 C105 1.379 . S
C105 H83 0.948 . S
C105 C100 1.364 . S
C105 C104 1.379 . S
C106 C75 1.383 . S
C106 C93 1.479 1_556 S
C106 C107 1.398 1_655 S
C107 C72 1.382 . S
C107 H84 0.951 1_556 S
C107 C106 1.398 1_455 S
C108 C109 1.384 . S
C108 H121 0.947 . S
C108 C143 1.382 . S
C109 C108 1.384 . S
C109 C110 1.378 . S
C110 C109 1.378 . S
C110 C111 1.378 . S
C110 H122 0.952 . S
C111 C110 1.378 . S
C111 H123 0.950 . S
C111 C142 1.383 . S
H112 C131 0.947 . S
H113 C132 0.946 . S
H114 C134 0.953 . S
H115 C135 0.945 . S
H116 C137 0.952 . S
H117 C138 0.949 . S
H118 C140 0.950 . S
H119 C141 0.948 . S
H120 C143 0.951 . S
H121 C108 0.947 . S
H122 C110 0.952 . S
H123 C111 0.950 . S
N124 C127 1.382 . S
N124 C129 1.363 . S
N125 C127 1.371 . S
N125 C128 1.372 . S
N126 C128 1.361 . S
N126 C129 1.377 . S
C127 N124 1.382 . S
C127 N125 1.371 . S
C127 C130 1.480 . S
C128 N125 1.372 . S
C128 N126 1.361 . S
C128 C136 1.457 . S
C129 N124 1.363 . S
C129 N126 1.377 . S
C129 C142 1.479 . S
C130 C127 1.480 . S
C130 C131 1.383 . S
C130 C135 1.385 . S
C131 H112 0.947 . S
C131 C130 1.383 . S
C131 C132 1.388 . S
C132 H113 0.946 . S
C132 C131 1.388 . S
C132 C133 1.384 . S
C133 C132 1.384 . S
C133 C134 1.377 . S
C134 H114 0.953 . S
C134 C133 1.377 . S
C134 C135 1.369 . S
C135 H115 0.945 . S
C135 C130 1.385 . S
C135 C134 1.369 . S
C136 C128 1.457 . S
C136 C137 1.372 . S
C136 C141 1.364 . S
C137 H116 0.952 . S
C137 C136 1.372 . S
C137 C138 1.389 . S
C138 H117 0.949 . S
C138 C137 1.389 . S
C138 C139 1.387 . S
C139 C138 1.387 . S
C139 C140 1.372 . S
C140 H118 0.950 . S
C140 C139 1.372 . S
C140 C141 1.379 . S
C141 H119 0.948 . S
C141 C136 1.364 . S
C141 C140 1.379 . S
C142 C111 1.383 . S
C142 C129 1.479 . S
C142 C143 1.398 . S
C143 C108 1.382 . S
C143 H120 0.951 . S
C143 C142 1.398 . S
C144 C145 1.384 . S
C144 H157 0.947 . S
C144 C179 1.382 . S
C145 C144 1.384 . S
C145 C146 1.378 1_455 S
C146 C145 1.378 1_655 S
C146 C147 1.378 1_655 S
C146 H158 0.952 . S
C147 C146 1.378 1_455 S
C147 H159 0.950 1_455 S
C147 C178 1.383 . S
H148 C167 0.947 . S
H149 C168 0.946 . S
H150 C170 0.953 . S
H151 C171 0.945 . S
H152 C173 0.952 . S
H153 C174 0.949 . S
H154 C176 0.950 . S
H155 C177 0.948 1_565 S
H156 C179 0.951 . S
H157 C144 0.947 . S
H158 C146 0.952 . S
H159 C147 0.950 1_655 S
N160 C163 1.382 . S
N160 C165 1.363 . S
N161 C163 1.371 1_545 S
N161 C164 1.372 1_545 S
N162 C164 1.361 . S
N162 C165 1.377 . S
C163 N160 1.382 . S
C163 N161 1.371 1_565 S
C163 C166 1.480 1_455 S
C164 N161 1.372 1_565 S
C164 N162 1.361 . S
C164 C172 1.457 1_565 S
C165 N160 1.363 . S
C165 N162 1.377 . S
C165 C178 1.479 . S
C166 C163 1.480 1_655 S
C166 C167 1.383 . S
C166 C171 1.385 1_665 S
C167 H148 0.947 . S
C167 C166 1.383 . S
C167 C168 1.388 . S
C168 H149 0.946 . S
C168 C167 1.388 . S
C168 C169 1.384 . S
C169 C168 1.384 . S
C169 C170 1.377 1_565 S
C170 H150 0.953 . S
C170 C169 1.377 1_545 S
C170 C171 1.369 1_655 S
C171 H151 0.945 . S
C171 C166 1.385 1_445 S
C171 C170 1.369 1_455 S
C172 C164 1.457 1_545 S
C172 C173 1.372 . S
C172 C177 1.364 . S
C173 H152 0.952 . S
C173 C172 1.372 . S
C173 C174 1.389 . S
C174 H153 0.949 . S
C174 C173 1.389 . S
C174 C175 1.387 . S
C175 C174 1.387 . S
C175 C176 1.372 . S
C176 H154 0.950 . S
C176 C175 1.372 . S
C176 C177 1.379 . S
C177 H155 0.948 1_545 S
C177 C172 1.364 . S
C177 C176 1.379 . S
C178 C147 1.383 . S
C178 C165 1.479 . S
C178 C179 1.398 . S
C179 C144 1.382 . S
C179 H156 0.951 . S
C179 C178 1.398 . S
C180 C181 1.384 . S
C180 H193 0.947 . S
C180 C215 1.382 . S
C181 C180 1.384 . S
C181 C182 1.378 . S
C182 C181 1.378 . S
C182 C183 1.378 . S
C182 H194 0.952 . S
C183 C182 1.378 . S
C183 H195 0.950 . S
C183 C214 1.383 . S
H184 C203 0.947 . S
H185 C204 0.946 . S
H186 C206 0.953 . S
H187 C207 0.945 . S
H188 C209 0.952 . S
H189 C210 0.949 . S
H190 C212 0.950 . S
H191 C213 0.948 . S
H192 C215 0.951 . S
H193 C180 0.947 . S
H194 C182 0.952 . S
H195 C183 0.950 . S
N196 C199 1.382 . S
N196 C201 1.363 . S
N197 C199 1.371 . S
N197 C200 1.372 . S
N198 C200 1.361 . S
N198 C201 1.377 . S
C199 N196 1.382 . S
C199 N197 1.371 . S
C199 C202 1.480 . S
C200 N197 1.372 . S
C200 N198 1.361 . S
C200 C208 1.457 . S
C201 N196 1.363 . S
C201 N198 1.377 . S
C201 C214 1.479 . S
C202 C199 1.480 . S
C202 C203 1.383 . S
C202 C207 1.385 . S
C203 H184 0.947 . S
C203 C202 1.383 . S
C203 C204 1.388 . S
C204 H185 0.946 . S
C204 C203 1.388 . S
C204 C205 1.384 . S
C205 C204 1.384 . S
C205 C206 1.377 . S
C206 H186 0.953 . S
C206 C205 1.377 . S
C206 C207 1.369 . S
C207 H187 0.945 . S
C207 C202 1.385 . S
C207 C206 1.369 . S
C208 C200 1.457 . S
C208 C209 1.372 . S
C208 C213 1.364 . S
C209 H188 0.952 . S
C209 C208 1.372 . S
C209 C210 1.389 . S
C210 H189 0.949 . S
C210 C209 1.389 . S
C210 C211 1.387 . S
C211 C210 1.387 . S
C211 C212 1.372 . S
C212 H190 0.950 . S
C212 C211 1.372 . S
C212 C213 1.379 . S
C213 H191 0.948 . S
C213 C208 1.364 . S
C213 C212 1.379 . S
C214 C183 1.383 . S
C214 C201 1.479 . S
C214 C215 1.398 . S
C215 C180 1.382 . S
C215 H192 0.951 . S
C215 C214 1.398 . S
C216 C217 1.384 1_455 S
C216 H229 0.947 . S
C216 C251 1.382 . S
C217 C216 1.384 1_655 S
C217 C218 1.378 . S
C218 C217 1.378 . S
C218 C219 1.378 . S
C218 H230 0.952 . S
C219 C218 1.378 . S
C219 H231 0.950 . S
C219 C250 1.383 . S
H220 C239 0.947 . S
H221 C240 0.946 . S
H222 C242 0.953 . S
H223 C243 0.945 . S
H224 C245 0.952 1_655 S
H225 C246 0.949 . S
H226 C248 0.950 . S
H227 C249 0.948 . S
H228 C251 0.951 . S
H229 C216 0.947 . S
H230 C218 0.952 . S
H231 C219 0.950 . S
N232 C235 1.382 . S
N232 C237 1.363 . S
N233 C235 1.371 . S
N233 C236 1.372 . S
N234 C236 1.361 1_455 S
N234 C237 1.377 1_455 S
C235 N232 1.382 . S
C235 N233 1.371 . S
C235 C238 1.480 . S
C236 N233 1.372 . S
C236 N234 1.361 1_655 S
C236 C244 1.457 1_655 S
C237 N232 1.363 . S
C237 N234 1.377 1_655 S
C237 C250 1.479 . S
C238 C235 1.480 . S
C238 C239 1.383 . S
C238 C243 1.385 . S
C239 H220 0.947 . S
C239 C238 1.383 . S
C239 C240 1.388 . S
C240 H221 0.946 . S
C240 C239 1.388 . S
C240 C241 1.384 . S
C241 C240 1.384 . S
C241 C242 1.377 . S
C242 H222 0.953 . S
C242 C241 1.377 . S
C242 C243 1.369 . S
C243 H223 0.945 . S
C243 C238 1.385 . S
C243 C242 1.369 . S
C244 C236 1.457 1_455 S
C244 C245 1.372 . S
C244 C249 1.364 . S
C245 H224 0.952 1_455 S
C245 C244 1.372 . S
C245 C246 1.389 . S
C246 H225 0.949 . S
C246 C245 1.389 . S
C246 C247 1.387 . S
C247 C246 1.387 . S
C247 C248 1.372 . S
C248 H226 0.950 . S
C248 C247 1.372 . S
C248 C249 1.379 . S
C249 H227 0.948 . S
C249 C244 1.364 . S
C249 C248 1.379 . S
C250 C219 1.383 . S
C250 C237 1.479 . S
C250 C251 1.398 1_655 S
C251 C216 1.382 . S
C251 H228 0.951 . S
C251 C250 1.398 1_455 S
C252 C253 1.384 . S
C252 H265 0.947 . S
C252 C287 1.382 . S
C253 C252 1.384 . S
C253 C254 1.378 . S
C254 C253 1.378 . S
C254 C255 1.378 . S
C254 H266 0.952 . S
C255 C254 1.378 . S
C255 H267 0.950 . S
C255 C286 1.383 . S
H256 C275 0.947 . S
H257 C276 0.946 . S
H258 C278 0.953 . S
H259 C279 0.945 . S
H260 C281 0.952 . S
H261 C282 0.949 . S
H262 C284 0.950 . S
H263 C285 0.948 . S
H264 C287 0.951 . S
H265 C252 0.947 . S
H266 C254 0.952 . S
H267 C255 0.950 . S
N268 C271 1.382 . S
N268 C273 1.363 . S
N269 C271 1.371 . S
N269 C272 1.372 . S
N270 C272 1.361 . S
N270 C273 1.377 . S
C271 N268 1.382 . S
C271 N269 1.371 . S
C271 C274 1.480 . S
C272 N269 1.372 . S
C272 N270 1.361 . S
C272 C280 1.457 . S
C273 N268 1.363 . S
C273 N270 1.377 . S
C273 C286 1.479 . S
C274 C271 1.480 . S
C274 C275 1.383 . S
C274 C279 1.385 . S
C275 H256 0.947 . S
C275 C274 1.383 . S
C275 C276 1.388 . S
C276 H257 0.946 . S
C276 C275 1.388 . S
C276 C277 1.384 . S
C277 C276 1.384 . S
C277 C278 1.377 . S
C278 H258 0.953 . S
C278 C277 1.377 . S
C278 C279 1.369 . S
C279 H259 0.945 . S
C279 C274 1.385 . S
C279 C278 1.369 . S
C280 C272 1.457 . S
C280 C281 1.372 . S
C280 C285 1.364 . S
C281 H260 0.952 . S
C281 C280 1.372 . S
C281 C282 1.389 . S
C282 H261 0.949 . S
C282 C281 1.389 . S
C282 C283 1.387 . S
C283 C282 1.387 . S
C283 C284 1.372 . S
C284 H262 0.950 . S
C284 C283 1.372 . S
C284 C285 1.379 . S
C285 H263 0.948 . S
C285 C280 1.364 . S
C285 C284 1.379 . S
C286 C255 1.383 . S
C286 C273 1.479 . S
C286 C287 1.398 . S
C287 C252 1.382 . S
C287 H264 0.951 . S
C287 C286 1.398 . S
C288 C289 1.384 . S
C288 H301 0.947 . S
C288 C323 1.382 . S
C289 C288 1.384 . S
C289 C290 1.378 . S
C290 C289 1.378 . S
C290 C291 1.378 . S
C290 H302 0.952 . S
C291 C290 1.378 . S
C291 H303 0.950 . S
C291 C322 1.383 . S
H292 C311 0.947 . S
H293 C312 0.946 . S
H294 C314 0.953 . S
H295 C315 0.945 . S
H296 C317 0.952 . S
H297 C318 0.949 . S
H298 C320 0.950 . S
H299 C321 0.948 . S
H300 C323 0.951 . S
H301 C288 0.947 . S
H302 C290 0.952 . S
H303 C291 0.950 . S
N304 C307 1.382 . S
N304 C309 1.363 . S
N305 C307 1.371 . S
N305 C308 1.372 . S
N306 C308 1.361 . S
N306 C309 1.377 . S
C307 N304 1.382 . S
C307 N305 1.371 . S
C307 C310 1.480 . S
C308 N305 1.372 . S
C308 N306 1.361 . S
C308 C316 1.457 . S
C309 N304 1.363 . S
C309 N306 1.377 . S
C309 C322 1.479 . S
C310 C307 1.480 . S
C310 C311 1.383 . S
C310 C315 1.385 . S
C311 H292 0.947 . S
C311 C310 1.383 . S
C311 C312 1.388 . S
C312 H293 0.946 . S
C312 C311 1.388 . S
C312 C313 1.384 . S
C313 C312 1.384 . S
C313 C314 1.377 . S
C314 H294 0.953 . S
C314 C313 1.377 . S
C314 C315 1.369 . S
C315 H295 0.945 . S
C315 C310 1.385 . S
C315 C314 1.369 . S
C316 C308 1.457 . S
C316 C317 1.372 . S
C316 C321 1.364 . S
C317 H296 0.952 . S
C317 C316 1.372 . S
C317 C318 1.389 . S
C318 H297 0.949 . S
C318 C317 1.389 . S
C318 C319 1.387 . S
C319 C318 1.387 . S
C319 C320 1.372 . S
C320 H298 0.950 . S
C320 C319 1.372 . S
C320 C321 1.379 . S
C321 H299 0.948 . S
C321 C316 1.364 . S
C321 C320 1.379 . S
C322 C291 1.383 . S
C322 C309 1.479 . S
C322 C323 1.398 . S
C323 C288 1.382 . S
C323 H300 0.951 . S
C323 C322 1.398 . S
C324 C325 1.384 . S
C324 H337 0.947 . S
C324 C359 1.382 . S
C325 C324 1.384 . S
C325 C326 1.378 . S
C326 C325 1.378 . S
C326 C327 1.378 . S
C326 H338 0.952 . S
C327 C326 1.378 . S
C327 H339 0.950 . S
C327 C358 1.383 . S
H328 C347 0.947 1_565 S
H329 C348 0.946 . S
H330 C350 0.953 . S
H331 C351 0.945 . S
H332 C353 0.952 . S
H333 C354 0.949 . S
H334 C356 0.950 . S
H335 C357 0.948 . S
H336 C359 0.951 . S
H337 C324 0.947 . S
H338 C326 0.952 . S
H339 C327 0.950 . S
N340 C343 1.382 . S
N340 C345 1.363 . S
N341 C343 1.374 . S
N341 C344 1.389 . S
N342 C344 1.361 . S
N342 C345 1.377 . S
C343 N340 1.382 . S
C343 N341 1.374 . S
C343 C346 1.480 1_565 S
C344 N341 1.389 . S
C344 N342 1.361 . S
C344 C352 1.457 . S
C345 N340 1.363 . S
C345 N342 1.377 . S
C345 C358 1.479 . S
C346 C343 1.480 1_545 S
C346 C347 1.383 . S
C346 C351 1.385 . S
C347 H328 0.947 1_545 S
C347 C346 1.383 . S
C347 C348 1.388 . S
C348 H329 0.946 . S
C348 C347 1.388 . S
C348 C349 1.384 . S
C349 C348 1.384 . S
C349 C350 1.377 . S
C350 H330 0.953 . S
C350 C349 1.377 . S
C350 C351 1.369 . S
C351 H331 0.945 . S
C351 C346 1.385 . S
C351 C350 1.369 . S
C352 C344 1.457 . S
C352 C353 1.372 1_565 S
C352 C357 1.364 . S
C353 H332 0.952 . S
C353 C352 1.372 1_545 S
C353 C354 1.389 . S
C354 H333 0.949 . S
C354 C353 1.389 . S
C354 C355 1.387 1_545 S
C355 C354 1.387 1_565 S
C355 C356 1.372 . S
C356 H334 0.950 . S
C356 C355 1.372 . S
C356 C357 1.379 . S
C357 H335 0.948 . S
C357 C352 1.364 . S
C357 C356 1.379 . S
C358 C327 1.383 . S
C358 C345 1.479 . S
C358 C359 1.398 . S
C359 C324 1.382 . S
C359 H336 0.951 . S
C359 C358 1.398 . S
C360 C361 1.384 . S
C360 H373 0.947 . S
C360 C395 1.382 . S
C361 C360 1.384 . S
C361 C362 1.378 . S
C362 C361 1.378 . S
C362 C363 1.378 . S
C362 H374 0.952 . S
C363 C362 1.378 . S
C363 H375 0.950 . S
C363 C394 1.383 . S
H364 C383 0.947 . S
H365 C384 0.946 . S
H366 C386 0.953 . S
H367 C387 0.945 . S
H368 C389 0.952 . S
H369 C390 0.949 . S
H370 C392 0.950 . S
H371 C393 0.948 . S
H372 C395 0.951 . S
H373 C360 0.947 . S
H374 C362 0.952 . S
H375 C363 0.950 . S
N376 C379 1.382 . S
N376 C381 1.363 . S
N377 C379 1.371 . S
N377 C380 1.372 . S
N378 C380 1.361 . S
N378 C381 1.377 . S
C379 N376 1.382 . S
C379 N377 1.371 . S
C379 C382 1.480 . S
C380 N377 1.372 . S
C380 N378 1.361 . S
C380 C388 1.457 . S
C381 N376 1.363 . S
C381 N378 1.377 . S
C381 C394 1.479 . S
C382 C379 1.480 . S
C382 C383 1.383 . S
C382 C387 1.385 . S
C383 H364 0.947 . S
C383 C382 1.383 . S
C383 C384 1.388 . S
C384 H365 0.946 . S
C384 C383 1.388 . S
C384 C385 1.384 . S
C385 C384 1.384 . S
C385 C386 1.377 . S
C386 H366 0.953 . S
C386 C385 1.377 . S
C386 C387 1.369 . S
C387 H367 0.945 . S
C387 C382 1.385 . S
C387 C386 1.369 . S
C388 C380 1.457 . S
C388 C389 1.372 . S
C388 C393 1.364 . S
C389 H368 0.952 . S
C389 C388 1.372 . S
C389 C390 1.389 . S
C390 H369 0.949 . S
C390 C389 1.389 . S
C390 C391 1.387 . S
C391 C390 1.387 . S
C391 C392 1.372 . S
C392 H370 0.950 . S
C392 C391 1.372 . S
C392 C393 1.379 . S
C393 H371 0.948 . S
C393 C388 1.364 . S
C393 C392 1.379 . S
C394 C363 1.383 . S
C394 C381 1.479 . S
C394 C395 1.398 . S
C395 C360 1.382 . S
C395 H372 0.951 . S
C395 C394 1.398 . S
C396 C397 1.384 . S
C396 H409 0.947 . S
C396 C431 1.382 . S
C397 C396 1.384 . S
C397 C398 1.378 . S
C398 C397 1.378 . S
C398 C399 1.378 . S
C398 H410 0.952 . S
C399 C398 1.378 . S
C399 H411 0.950 . S
C399 C430 1.383 . S
H400 C419 0.947 . S
H401 C420 0.946 . S
H402 C422 0.953 . S
H403 C423 0.945 . S
H404 C425 0.952 . S
H405 C426 0.949 . S
H406 C428 0.950 . S
H407 C429 0.948 . S
H408 C431 0.951 . S
H409 C396 0.947 . S
H410 C398 0.952 . S
H411 C399 0.950 . S
N412 C415 1.382 . S
N412 C417 1.363 . S
N413 C415 1.371 . S
N413 C416 1.372 . S
N414 C416 1.361 . S
N414 C417 1.377 . S
C415 N412 1.382 . S
C415 N413 1.371 . S
C415 C418 1.480 . S
C416 N413 1.372 . S
C416 N414 1.361 . S
C416 C424 1.457 . S
C417 N412 1.363 . S
C417 N414 1.377 . S
C417 C430 1.479 . S
C418 C415 1.480 . S
C418 C419 1.383 . S
C418 C423 1.385 . S
C419 H400 0.947 . S
C419 C418 1.383 . S
C419 C420 1.388 . S
C420 H401 0.946 . S
C420 C419 1.388 . S
C420 C421 1.384 . S
C421 C420 1.384 . S
C421 C422 1.377 . S
C422 H402 0.953 . S
C422 C421 1.377 . S
C422 C423 1.369 . S
C423 H403 0.945 . S
C423 C418 1.385 . S
C423 C422 1.369 . S
C424 C416 1.457 . S
C424 C425 1.372 . S
C424 C429 1.364 . S
C425 H404 0.952 . S
C425 C424 1.372 . S
C425 C426 1.389 . S
C426 H405 0.949 . S
C426 C425 1.389 . S
C426 C427 1.387 . S
C427 C426 1.387 . S
C427 C428 1.372 . S
C428 H406 0.950 . S
C428 C427 1.372 . S
C428 C429 1.379 . S
C429 H407 0.948 . S
C429 C424 1.364 . S
C429 C428 1.379 . S
C430 C399 1.383 . S
C430 C417 1.479 . S
C430 C431 1.398 . S
C431 C396 1.382 . S
C431 H408 0.951 . S
C431 C430 1.398 . S
C432 C433 1.384 . S
C432 H445 0.947 . S
C432 C467 1.382 . S
C433 C432 1.384 . S
C433 C434 1.378 . S
C434 C433 1.378 . S
C434 C435 1.378 . S
C434 H446 0.952 . S
C435 C434 1.378 . S
C435 H447 0.950 . S
C435 C466 1.383 . S
H436 C455 0.947 . S
H437 C456 0.946 . S
H438 C458 0.953 . S
H439 C459 0.945 . S
H440 C461 0.952 . S
H441 C462 0.949 . S
H442 C464 0.950 . S
H443 C465 0.948 . S
H444 C467 0.951 . S
H445 C432 0.947 . S
H446 C434 0.952 . S
H447 C435 0.950 . S
N448 C451 1.382 . S
N448 C453 1.363 . S
N449 C451 1.371 . S
N449 C452 1.372 . S
N450 C452 1.361 . S
N450 C453 1.377 . S
C451 N448 1.382 . S
C451 N449 1.371 . S
C451 C454 1.480 . S
C452 N449 1.372 . S
C452 N450 1.361 . S
C452 C460 1.457 . S
C453 N448 1.363 . S
C453 N450 1.377 . S
C453 C466 1.479 . S
C454 C451 1.480 . S
C454 C455 1.383 . S
C454 C459 1.385 . S
C455 H436 0.947 . S
C455 C454 1.383 . S
C455 C456 1.388 . S
C456 H437 0.946 . S
C456 C455 1.388 . S
C456 C457 1.384 . S
C457 C456 1.384 . S
C457 C458 1.377 . S
C458 H438 0.953 . S
C458 C457 1.377 . S
C458 C459 1.369 . S
C459 H439 0.945 . S
C459 C454 1.385 . S
C459 C458 1.369 . S
C460 C452 1.457 . S
C460 C461 1.372 . S
C460 C465 1.364 . S
C461 H440 0.952 . S
C461 C460 1.372 . S
C461 C462 1.389 . S
C462 H441 0.949 . S
C462 C461 1.389 . S
C462 C463 1.387 . S
C463 C462 1.387 . S
C463 C464 1.372 . S
C464 H442 0.950 . S
C464 C463 1.372 . S
C464 C465 1.379 . S
C465 H443 0.948 . S
C465 C460 1.364 . S
C465 C464 1.379 . S
C466 C435 1.383 . S
C466 C453 1.479 . S
C466 C467 1.398 . S
C467 C432 1.382 . S
C467 H444 0.951 . S
C467 C466 1.398 . S
C468 C469 1.384 . S
C468 H481 0.947 . S
C468 C503 1.382 . S
C469 C468 1.384 . S
C469 C470 1.378 . S
C470 C469 1.378 . S
C470 C471 1.378 1_554 S
C470 H482 0.952 . S
C471 C470 1.378 1_556 S
C471 H483 0.950 . S
C471 C502 1.383 1_556 S
H472 C491 0.947 . S
H473 C492 0.946 . S
H474 C494 0.953 . S
H475 C495 0.945 . S
H476 C497 0.952 . S
H477 C498 0.949 . S
H478 C500 0.969 . S
H479 C501 0.948 1_554 S
H480 C503 0.951 . S
H481 C468 0.947 . S
H482 C470 0.952 . S
H483 C471 0.950 . S
N484 C487 1.382 . S
N484 C489 1.363 . S
N485 C487 1.371 . S
N485 C488 1.372 . S
N486 C488 1.361 . S
N486 C489 1.377 . S
C487 N484 1.382 . S
C487 N485 1.371 . S
C487 C490 1.480 . S
C488 N485 1.372 . S
C488 N486 1.361 . S
C488 C496 1.457 . S
C489 N484 1.363 . S
C489 N486 1.377 . S
C489 C502 1.479 1_556 S
C490 C487 1.480 . S
C490 C491 1.383 . S
C490 C495 1.385 . S
C491 H472 0.947 . S
C491 C490 1.383 . S
C491 C492 1.388 . S
C492 H473 0.946 . S
C492 C491 1.388 . S
C492 C493 1.384 . S
C493 C492 1.384 . S
C493 C494 1.377 . S
C494 H474 0.953 . S
C494 C493 1.377 . S
C494 C495 1.369 . S
C495 H475 0.945 . S
C495 C490 1.385 . S
C495 C494 1.369 . S
C496 C488 1.457 . S
C496 C497 1.372 . S
C496 C501 1.364 . S
C497 H476 0.952 . S
C497 C496 1.372 . S
C497 C498 1.389 . S
C498 H477 0.949 . S
C498 C497 1.389 . S
C498 C499 1.387 . S
C499 C498 1.387 . S
C499 C500 1.358 1_556 S
C500 H478 0.969 . S
C500 C499 1.358 1_554 S
C500 C501 1.375 1_554 S
C501 H479 0.948 1_556 S
C501 C496 1.364 . S
C501 C500 1.375 1_556 S
C502 C471 1.383 1_554 S
C502 C489 1.479 1_554 S
C502 C503 1.398 . S
C503 C468 1.382 . S
C503 H480 0.951 . S
C503 C502 1.398 . S
C504 C505 1.384 . S
C504 H517 0.947 . S
C504 C539 1.382 . S
C505 C504 1.384 . S
C505 C506 1.378 . S
C506 C505 1.378 . S
C506 C507 1.378 . S
C506 H518 0.952 . S
C507 C506 1.378 . S
C507 H519 0.950 . S
C507 C538 1.383 . S
H508 C527 0.947 . S
H509 C528 0.946 . S
H510 C530 0.953 . S
H511 C531 0.945 . S
H512 C533 0.952 . S
H513 C534 0.949 . S
H514 C536 0.950 . S
H515 C537 0.948 . S
H516 C539 0.951 . S
H517 C504 0.947 . S
H518 C506 0.952 . S
H519 C507 0.950 . S
N520 C523 1.382 . S
N520 C525 1.363 . S
N521 C523 1.371 . S
N521 C524 1.372 . S
N522 C524 1.361 . S
N522 C525 1.377 . S
C523 N520 1.382 . S
C523 N521 1.371 . S
C523 C526 1.480 . S
C524 N521 1.372 . S
C524 N522 1.361 . S
C524 C532 1.457 . S
C525 N520 1.363 . S
C525 N522 1.377 . S
C525 C538 1.479 . S
C526 C523 1.480 . S
C526 C527 1.383 . S
C526 C531 1.385 . S
C527 H508 0.947 . S
C527 C526 1.383 . S
C527 C528 1.388 . S
C528 H509 0.946 . S
C528 C527 1.388 . S
C528 C529 1.384 . S
C529 C528 1.384 . S
C529 C530 1.377 . S
C530 H510 0.953 . S
C530 C529 1.377 . S
C530 C531 1.369 . S
C531 H511 0.945 . S
C531 C526 1.385 . S
C531 C530 1.369 . S
C532 C524 1.457 . S
C532 C533 1.372 . S
C532 C537 1.364 . S
C533 H512 0.952 . S
C533 C532 1.372 . S
C533 C534 1.389 . S
C534 H513 0.949 . S
C534 C533 1.389 . S
C534 C535 1.387 . S
C535 C534 1.387 . S
C535 C536 1.372 . S
C536 H514 0.950 . S
C536 C535 1.372 . S
C536 C537 1.379 . S
C537 H515 0.948 . S
C537 C532 1.364 . S
C537 C536 1.379 . S
C538 C507 1.383 . S
C538 C525 1.479 . S
C538 C539 1.398 . S
C539 C504 1.382 . S
C539 H516 0.951 . S
C539 C538 1.398 . S
C540 C541 1.384 . S
C540 H553 0.947 . S
C540 C575 1.382 . S
C541 C540 1.384 . S
C541 C542 1.378 . S
C542 C541 1.378 . S
C542 C543 1.378 . S
C542 H554 0.952 . S
C543 C542 1.378 . S
C543 H555 0.950 . S
C543 C574 1.383 . S
H544 C563 0.947 1_545 S
H545 C564 0.946 . S
H546 C566 0.953 . S
H547 C567 0.945 . S
H548 C569 0.952 . S
H549 C570 0.949 . S
H550 C572 0.950 . S
H551 C573 0.948 . S
H552 C575 0.951 1_556 S
H553 C540 0.947 . S
H554 C542 0.952 . S
H555 C543 0.950 . S
N556 C559 1.382 1_554 S
N556 C561 1.363 1_554 S
N557 C559 1.371 . S
N557 C560 1.372 . S
N558 C560 1.361 . S
N558 C561 1.377 . S
C559 N556 1.382 1_556 S
C559 N557 1.371 . S
C559 C562 1.480 1_545 S
C560 N557 1.372 . S
C560 N558 1.361 . S
C560 C568 1.457 . S
C561 N556 1.363 1_556 S
C561 N558 1.377 . S
C561 C574 1.479 1_556 S
C562 C559 1.480 1_565 S
C562 C563 1.383 1_556 S
C562 C567 1.385 . S
C563 H544 0.947 1_565 S
C563 C562 1.383 1_554 S
C563 C564 1.388 . S
C564 H545 0.946 . S
C564 C563 1.388 . S
C564 C565 1.384 1_554 S
C565 C564 1.384 1_556 S
C565 C566 1.377 . S
C566 H546 0.953 . S
C566 C565 1.377 . S
C566 C567 1.369 . S
C567 H547 0.945 . S
C567 C562 1.385 . S
C567 C566 1.369 . S
C568 C560 1.457 . S
C568 C569 1.372 1_545 S
C568 C573 1.364 . S
C569 H548 0.952 . S
C569 C568 1.372 1_565 S
C569 C570 1.389 . S
C570 H549 0.949 . S
C570 C569 1.389 . S
C570 C571 1.387 1_565 S
C571 C570 1.387 1_545 S
C571 C572 1.372 . S
C572 H550 0.950 . S
C572 C571 1.372 . S
C572 C573 1.379 . S
C573 H551 0.948 . S
C573 C568 1.364 . S
C573 C572 1.379 . S
C574 C543 1.383 . S
C574 C561 1.479 1_554 S
C574 C575 1.398 . S
C575 C540 1.382 . S
C575 H552 0.951 1_554 S
C575 C574 1.398 . S
C576 O577 1.160 1_554 S
C576 O583 1.185 . S
O577 C576 1.160 1_556 S
O578 Zn579 1.899 1_556 S
O578 C586 1.284 . S
Zn579 O578 1.899 1_554 S
Zn579 O580 2.032 . S
Zn579 O583 2.086 . S
Zn579 O588 1.977 . S
O580 Zn579 2.032 . S
O580 C584 1.278 . S
C581 O582 1.203 . S
C581 O588 1.267 . S
O582 C581 1.203 . S
O583 C576 1.185 . S
O583 Zn579 2.086 . S
C584 O580 1.278 . S
C584 O585 1.211 . S
O585 C584 1.211 . S
C586 O578 1.284 . S
C586 O587 1.273 . S
O587 C586 1.273 . S
O588 Zn579 1.977 . S
O588 C581 1.267 . S
C589 O590 1.160 . S
C589 O596 1.185 . S
O590 C589 1.160 . S
O591 Zn592 1.899 . S
O591 C599 1.284 . S
Zn592 O591 1.899 . S
Zn592 O593 2.032 . S
Zn592 O596 2.086 . S
Zn592 O601 1.977 . S
O593 Zn592 2.032 . S
O593 C597 1.278 . S
C594 O595 1.203 . S
C594 O601 1.267 . S
O595 C594 1.203 . S
O596 C589 1.185 . S
O596 Zn592 2.086 . S
C597 O593 1.278 . S
C597 O598 1.211 . S
O598 C597 1.211 . S
C599 O591 1.284 . S
C599 O600 1.273 . S
O600 C599 1.273 . S
O601 Zn592 1.977 . S
O601 C594 1.267 . S
C602 O603 1.160 1_554 S
C602 O609 1.185 . S
O603 C602 1.160 1_556 S
O604 Zn605 1.899 1_556 S
O604 C612 1.284 . S
Zn605 O604 1.899 1_554 S
Zn605 O606 2.032 1_554 S
Zn605 O609 2.086 . S
Zn605 O614 1.977 . S
O606 Zn605 2.032 1_556 S
O606 C610 1.278 . S
C607 O608 1.203 . S
C607 O614 1.267 . S
O608 C607 1.203 . S
O609 C602 1.185 . S
O609 Zn605 2.086 . S
C610 O606 1.278 . S
C610 O611 1.211 1_556 S
O611 C610 1.211 1_554 S
C612 O604 1.284 . S
C612 O613 1.273 . S
O613 C612 1.273 . S
O614 Zn605 1.977 . S
O614 C607 1.267 . S
C615 O616 1.160 . S
C615 O622 1.185 . S
O616 C615 1.160 . S
O617 Zn618 1.899 . S
O617 C625 1.284 1_545 S
Zn618 O617 1.899 . S
Zn618 O619 2.032 1_545 S
Zn618 O622 2.086 . S
Zn618 O627 1.977 . S
O619 Zn618 2.032 1_565 S
O619 C623 1.278 . S
C620 O621 1.203 1_545 S
C620 O627 1.267 . S
O621 C620 1.203 1_565 S
O622 C615 1.185 . S
O622 Zn618 2.086 . S
C623 O619 1.278 . S
C623 O624 1.211 . S
O624 C623 1.211 . S
C625 O617 1.284 1_565 S
C625 O626 1.273 . S
O626 C625 1.273 . S
O627 Zn618 1.977 . S
O627 C620 1.267 . S
C628 O629 1.160 . S
C628 O635 1.185 . S
O629 C628 1.160 . S
O630 Zn631 1.899 . S
O630 C638 1.284 . S
Zn631 O630 1.899 . S
Zn631 O632 2.032 . S
Zn631 O635 2.086 . S
Zn631 O640 1.977 . S
O632 Zn631 2.032 . S
O632 C636 1.278 . S
C633 O634 1.203 . S
C633 O640 1.267 . S
O634 C633 1.203 . S
O635 C628 1.185 . S
O635 Zn631 2.086 . S
C636 O632 1.278 . S
C636 O637 1.211 . S
O637 C636 1.211 . S
C638 O630 1.284 . S
C638 O639 1.273 . S
O639 C638 1.273 . S
O640 Zn631 1.977 . S
O640 C633 1.267 . S
C641 O642 1.160 . S
C641 O648 1.185 . S
O642 C641 1.160 . S
O643 Zn644 1.899 . S
O643 C651 1.284 . S
Zn644 O643 1.899 . S
Zn644 O645 2.032 . S
Zn644 O648 2.086 . S
Zn644 O653 1.977 . S
O645 Zn644 2.032 . S
O645 C649 1.278 . S
C646 O647 1.203 . S
C646 O653 1.267 . S
O647 C646 1.203 . S
O648 C641 1.185 . S
O648 Zn644 2.086 . S
C649 O645 1.278 . S
C649 O650 1.211 . S
O650 C649 1.211 . S
C651 O643 1.284 . S
C651 O652 1.273 . S
O652 C651 1.273 . S
O653 Zn644 1.977 . S
O653 C646 1.267 . S
C654 O655 1.160 . S
C654 O661 1.185 . S
O655 C654 1.160 . S
O656 Zn657 1.899 . S
O656 C664 1.284 . S
Zn657 O656 1.899 . S
Zn657 O658 2.032 . S
Zn657 O661 2.086 . S
Zn657 O666 1.977 . S
O658 Zn657 2.032 . S
O658 C662 1.278 . S
C659 O660 1.203 . S
C659 O666 1.267 . S
O660 C659 1.203 . S
O661 C654 1.185 . S
O661 Zn657 2.086 . S
C662 O658 1.278 . S
C662 O663 1.211 . S
O663 C662 1.211 . S
C664 O656 1.284 . S
C664 O665 1.273 . S
O665 C664 1.273 . S
O666 Zn657 1.977 . S
O666 C659 1.267 . S
C667 O668 1.160 . S
C667 O674 1.185 . S
O668 C667 1.160 . S
O669 Zn670 1.899 . S
O669 C677 1.284 1_565 S
Zn670 O669 1.899 . S
Zn670 O671 2.032 1_565 S
Zn670 O674 2.086 . S
Zn670 O679 1.977 . S
O671 Zn670 2.032 1_545 S
O671 C675 1.278 . S
C672 O673 1.203 1_565 S
C672 O679 1.267 . S
O673 C672 1.203 1_545 S
O674 C667 1.185 . S
O674 Zn670 2.086 . S
C675 O671 1.278 . S
C675 O676 1.211 . S
O676 C675 1.211 . S
C677 O669 1.284 1_545 S
C677 O678 1.273 . S
O678 C677 1.273 . S
O679 Zn670 1.977 . S
O679 C672 1.267 . S
C680 O681 1.160 1_455 S
C680 O687 1.185 . S
O681 C680 1.160 1_655 S
O682 Zn683 1.899 1_655 S
O682 C690 1.284 . S
Zn683 O682 1.899 1_455 S
Zn683 O684 2.032 1_455 S
Zn683 O687 2.086 . S
Zn683 O692 1.977 . S
O684 Zn683 2.032 1_655 S
O684 C688 1.277 1_655 S
C685 O686 1.203 . S
C685 O692 1.267 . S
O686 C685 1.203 . S
O687 C680 1.185 . S
O687 Zn683 2.086 . S
C688 O684 1.277 1_455 S
C688 O689 1.216 . S
O689 C688 1.216 . S
C690 O682 1.284 . S
C690 O691 1.273 . S
O691 C690 1.273 . S
O692 Zn683 1.977 . S
O692 C685 1.267 . S
C693 O694 1.160 . S
C693 O700 1.185 . S
O694 C693 1.160 . S
O695 Zn696 1.899 . S
O695 C703 1.284 . S
Zn696 O695 1.899 . S
Zn696 O697 2.032 . S
Zn696 O700 2.086 . S
Zn696 O705 1.977 . S
O697 Zn696 2.032 . S
O697 C701 1.278 . S
C698 O699 1.203 . S
C698 O705 1.267 . S
O699 C698 1.203 . S
O700 C693 1.185 . S
O700 Zn696 2.086 . S
C701 O697 1.278 . S
C701 O702 1.211 . S
O702 C701 1.211 . S
C703 O695 1.284 . S
C703 O704 1.273 . S
O704 C703 1.273 . S
O705 Zn696 1.977 . S
O705 C698 1.267 . S
C706 O707 1.160 1_455 S
C706 O713 1.185 . S
O707 C706 1.160 1_655 S
O708 Zn709 1.899 1_655 S
O708 C716 1.284 . S
Zn709 O708 1.899 1_455 S
Zn709 O710 2.032 1_455 S
Zn709 O713 2.086 . S
Zn709 O718 1.977 . S
O710 Zn709 2.032 1_655 S
O710 C714 1.278 . S
C711 O712 1.203 . S
C711 O718 1.267 . S
O712 C711 1.203 . S
O713 C706 1.185 . S
O713 Zn709 2.086 . S
C714 O710 1.278 . S
C714 O715 1.210 1_655 S
O715 C714 1.210 1_455 S
C716 O708 1.284 . S
C716 O717 1.273 . S
O717 C716 1.273 . S
O718 Zn709 1.977 . S
O718 C711 1.267 . S
C719 O720 1.160 . S
C719 O726 1.185 . S
O720 C719 1.160 . S
O721 Zn722 1.899 . S
O721 C729 1.284 . S
Zn722 O721 1.899 . S
Zn722 O723 2.032 . S
Zn722 O726 2.086 . S
Zn722 O731 1.977 . S
O723 Zn722 2.032 . S
O723 C727 1.278 . S
C724 O725 1.203 . S
C724 O731 1.267 . S
O725 C724 1.203 . S
O726 C719 1.185 . S
O726 Zn722 2.086 . S
C727 O723 1.278 . S
C727 O728 1.211 . S
O728 C727 1.211 . S
C729 O721 1.284 . S
C729 O730 1.273 . S
O730 C729 1.273 . S
O731 Zn722 1.977 . S
O731 C724 1.267 . S
C586 C181 1.452 . S
C599 C247 1.669 . S
C283 C612 1.459 . S
C625 C169 1.522 . S
C633 C361 1.444 . S
C646 C433 1.377 . S
C421 C659 1.489 . S
C672 C355 1.584 . S
C427 C690 1.453 . S
C701 C325 1.510 . S
C385 C685 1.395 . S
C693 C463 1.453 . S
C253 C716 1.531 . S
C145 C706 1.471 . S
C205 C711 1.437 . S
C217 C714 1.527 . S
C139 C623 1.478 . S
C535 C615 1.415 . S
C584 C565 1.533 1_554 S
C589 C313 1.514 . S
C175 C636 1.528 . S
C675 C397 1.515 . S
C628 C349 1.462 . S
C654 C457 1.417 . S
C664 C505 1.452 . S
C571 C677 1.669 . S
C319 C638 1.457 . S
C651 C493 1.522 . S
C109 C607 1.442 . S
C620 C1 1.377 . S
C581 C61 1.489 . S
C594 C103 1.583 . S
C67 C703 1.453 . S
C73 C688 1.505 1_655 S
C133 C698 1.395 . S
C31 C680 1.453 . S
C729 C289 1.531 . S
C719 C469 1.471 . S
C724 C529 1.437 . S
C541 C727 1.526 . S
C391 C649 1.478 . S
C641 C211 1.415 . S
C662 C241 1.533 . S
C667 C277 1.516 . S
C499 C610 1.529 . S
C597 C37 1.518 . S
C97 C602 1.461 . S
C576 C25 1.417 . S
