# Generated by pormake.
# Topology ssb, (4,4)-cn, num edge types: 1
# Building blocks:
#     Node 0, Type 0, BuildingBlock: MUDLON_clean_linker_0, # of connection points: 4
#     Node 1, Type 0, BuildingBlock: MUDLON_clean_linker_0, # of connection points: 4
#     Node 2, Type 0, BuildingBlock: MUDLON_clean_linker_0, # of connection points: 4
#     Node 3, Type 0, BuildingBlock: MUDLON_clean_linker_0, # of connection points: 4
#     Node 4, Type 0, BuildingBlock: MUDLON_clean_linker_0, # of connection points: 4
#     Node 5, Type 0, BuildingBlock: MUDLON_clean_linker_0, # of connection points: 4
#     Node 6, Type 0, BuildingBlock: MUDLON_clean_linker_0, # of connection points: 4
#     Node 7, Type 0, BuildingBlock: MUDLON_clean_linker_0, # of connection points: 4
#     Node 8, Type 1, BuildingBlock: NAWXER_clean_sbu_0, # of connection points: 4
#     Node 9, Type 1, BuildingBlock: NAWXER_clean_sbu_0, # of connection points: 4
#     Node 10, Type 1, BuildingBlock: NAWXER_clean_sbu_0, # of connection points: 4
#     Node 11, Type 1, BuildingBlock: NAWXER_clean_sbu_0, # of connection points: 4
#     Node 12, Type 1, BuildingBlock: NAWXER_clean_sbu_0, # of connection points: 4
#     Node 13, Type 1, BuildingBlock: NAWXER_clean_sbu_0, # of connection points: 4
#     Node 14, Type 1, BuildingBlock: NAWXER_clean_sbu_0, # of connection points: 4
#     Node 15, Type 1, BuildingBlock: NAWXER_clean_sbu_0, # of connection points: 4
#     Edge 16, Type (0, 1), BuildingBlock: TEMPAE_clean_linker_10, # of connection points: 2
#     Edge 17, Type (0, 1), BuildingBlock: TEMPAE_clean_linker_10, # of connection points: 2
#     Edge 18, Type (0, 1), BuildingBlock: TEMPAE_clean_linker_10, # of connection points: 2
#     Edge 19, Type (0, 1), BuildingBlock: TEMPAE_clean_linker_10, # of connection points: 2
#     Edge 20, Type (0, 1), BuildingBlock: TEMPAE_clean_linker_10, # of connection points: 2
#     Edge 21, Type (0, 1), BuildingBlock: TEMPAE_clean_linker_10, # of connection points: 2
#     Edge 22, Type (0, 1), BuildingBlock: TEMPAE_clean_linker_10, # of connection points: 2
#     Edge 23, Type (0, 1), BuildingBlock: TEMPAE_clean_linker_10, # of connection points: 2
#     Edge 24, Type (0, 1), BuildingBlock: TEMPAE_clean_linker_10, # of connection points: 2
#     Edge 25, Type (0, 1), BuildingBlock: TEMPAE_clean_linker_10, # of connection points: 2
#     Edge 26, Type (0, 1), BuildingBlock: TEMPAE_clean_linker_10, # of connection points: 2
#     Edge 27, Type (0, 1), BuildingBlock: TEMPAE_clean_linker_10, # of connection points: 2
#     Edge 28, Type (0, 1), BuildingBlock: TEMPAE_clean_linker_10, # of connection points: 2
#     Edge 29, Type (0, 1), BuildingBlock: TEMPAE_clean_linker_10, # of connection points: 2
#     Edge 30, Type (0, 1), BuildingBlock: TEMPAE_clean_linker_10, # of connection points: 2
#     Edge 31, Type (0, 1), BuildingBlock: TEMPAE_clean_linker_10, # of connection points: 2
#     Edge 32, Type (0, 1), BuildingBlock: TEMPAE_clean_linker_10, # of connection points: 2
#     Edge 33, Type (0, 1), BuildingBlock: TEMPAE_clean_linker_10, # of connection points: 2
#     Edge 34, Type (0, 1), BuildingBlock: TEMPAE_clean_linker_10, # of connection points: 2
#     Edge 35, Type (0, 1), BuildingBlock: TEMPAE_clean_linker_10, # of connection points: 2
#     Edge 36, Type (0, 1), BuildingBlock: TEMPAE_clean_linker_10, # of connection points: 2
#     Edge 37, Type (0, 1), BuildingBlock: TEMPAE_clean_linker_10, # of connection points: 2
#     Edge 38, Type (0, 1), BuildingBlock: TEMPAE_clean_linker_10, # of connection points: 2
#     Edge 39, Type (0, 1), BuildingBlock: TEMPAE_clean_linker_10, # of connection points: 2
#     Edge 40, Type (0, 1), BuildingBlock: TEMPAE_clean_linker_10, # of connection points: 2
#     Edge 41, Type (0, 1), BuildingBlock: TEMPAE_clean_linker_10, # of connection points: 2
#     Edge 42, Type (0, 1), BuildingBlock: TEMPAE_clean_linker_10, # of connection points: 2
#     Edge 43, Type (0, 1), BuildingBlock: TEMPAE_clean_linker_10, # of connection points: 2
#     Edge 44, Type (0, 1), BuildingBlock: TEMPAE_clean_linker_10, # of connection points: 2
#     Edge 45, Type (0, 1), BuildingBlock: TEMPAE_clean_linker_10, # of connection points: 2
#     Edge 46, Type (0, 1), BuildingBlock: TEMPAE_clean_linker_10, # of connection points: 2
#     Edge 47, Type (0, 1), BuildingBlock: TEMPAE_clean_linker_10, # of connection points: 2
# Relax obj value: 0.003
# Max RMSD: 0.052
# Mean RMSD: 0.027
data_MOF--net-ssb--node1-NAWXER_clean_sbu_0--node2-MUDLON_clean_linker_0--edge1-TEMPAE_clean_linker_10
_symmetry_space_group_name_H-M    P1
_symmetry_Int_Tables_number       1
_symmetry_cell_setting            triclinic
loop_
_symmetry_equiv_pos_as_xyz
'x, y, z'
_cell_length_a     61.071588
_cell_length_b     61.044941
_cell_length_c     53.342248
_cell_angle_alpha  89.975589
_cell_angle_beta   89.990395
_cell_angle_gamma 89.951487
loop_
_atom_site_label
_atom_site_type_symbol
_atom_site_fract_x
_atom_site_fract_y
_atom_site_fract_z
_atom_type_partial_charge
H0 H 0.25766 0.29861 0.13752 0.0
N1 N 0.28314 0.29869 0.17779 0.0
H2 H 0.24073 0.33025 0.11687 0.0
H3 H 0.28225 0.34083 0.19579 0.0
H4 H 0.26605 0.3724 0.1751 0.0
H5 H 0.31764 0.32668 0.18576 0.0
H6 H 0.3538 0.32427 0.16655 0.0
H7 H 0.29875 0.26639 0.14978 0.0
H8 H 0.33512 0.26371 0.1306 0.0
H9 H 0.25654 0.26641 0.19082 0.0
H10 H 0.29912 0.31563 0.22189 0.0
H11 H 0.24654 0.25459 0.23308 0.0
H12 H 0.28833 0.30496 0.26403 0.0
H13 H 0.19804 0.24015 0.34692 0.0
H14 H 0.16442 0.25368 0.36614 0.0
H15 H 0.19992 0.3087 0.39677 0.0
H16 H 0.23369 0.29489 0.37739 0.0
H17 H 0.25012 0.24653 0.39898 0.0
H18 H 0.25213 0.2101 0.41725 0.0
H19 H 0.23888 0.1818 0.34442 0.0
H20 H 0.23504 0.21844 0.32692 0.0
H21 H 0.21405 0.2557 0.30965 0.0
H22 H 0.22569 0.26553 0.26767 0.0
H23 H 0.29107 0.27799 0.29532 0.0
N24 N 0.23902 0.25741 0.35264 0.0
H25 H 0.27879 0.26926 0.33781 0.0
C26 C 0.2713 0.31726 0.16807 0.0
C27 C 0.25914 0.31465 0.14601 0.0
C28 C 0.24961 0.33274 0.13421 0.0
C29 C 0.25216 0.35389 0.14425 0.0
C30 C 0.26353 0.35633 0.16701 0.0
C31 C 0.273 0.33821 0.17882 0.0
C32 C 0.30543 0.2966 0.16923 0.0
C33 C 0.32135 0.31268 0.17415 0.0
C34 C 0.3421 0.31129 0.16312 0.0
C35 C 0.34728 0.29389 0.14689 0.0
C36 C 0.33154 0.27749 0.14271 0.0
C37 C 0.31085 0.27887 0.15379 0.0
C38 C 0.27834 0.29199 0.20309 0.0
C39 C 0.26361 0.27474 0.20681 0.0
C40 C 0.25779 0.26817 0.231 0.0
C41 C 0.26642 0.27894 0.25213 0.0
C42 C 0.2815 0.29608 0.24831 0.0
C43 C 0.28752 0.30244 0.22407 0.0
C44 C 0.21841 0.2666 0.36071 0.0
C45 C 0.19851 0.2554 0.35723 0.0
C46 C 0.17927 0.26321 0.36819 0.0
C47 C 0.17953 0.28226 0.38301 0.0
C48 C 0.19925 0.29391 0.3856 0.0
C49 C 0.21849 0.28614 0.37447 0.0
C50 C 0.24272 0.23536 0.3616 0.0
C51 C 0.24787 0.23241 0.38696 0.0
C52 C 0.24916 0.21146 0.39731 0.0
C53 C 0.24581 0.19273 0.38238 0.0
C54 C 0.24121 0.19571 0.3567 0.0
C55 C 0.23935 0.21677 0.34649 0.0
C56 C 0.24551 0.26213 0.32715 0.0
C57 C 0.23083 0.26071 0.30688 0.0
C58 C 0.23764 0.26611 0.28264 0.0
C59 C 0.25936 0.27266 0.27794 0.0
C60 C 0.27412 0.27348 0.29819 0.0
C61 C 0.2672 0.26834 0.32249 0.0
H62 H 0.6978 0.34119 0.20845 0.0
N63 N 0.71913 0.3035 0.20433 0.0
H64 H 0.70291 0.37444 0.18344 0.0
H65 H 0.75289 0.31126 0.17125 0.0
H66 H 0.75831 0.34441 0.14658 0.0
H67 H 0.71906 0.291 0.15493 0.0
H68 H 0.6895 0.27289 0.13287 0.0
H69 H 0.683 0.28644 0.22421 0.0
H70 H 0.65353 0.26699 0.20241 0.0
H71 H 0.73149 0.30618 0.25189 0.0
H72 H 0.74622 0.27295 0.18263 0.0
H73 H 0.75912 0.28407 0.27352 0.0
H74 H 0.77411 0.25116 0.20387 0.0
H75 H 0.82387 0.23174 0.33777 0.0
H76 H 0.85262 0.24138 0.36731 0.0
H77 H 0.90117 0.21573 0.31612 0.0
H78 H 0.87215 0.20697 0.28611 0.0
H79 H 0.84216 0.16794 0.29208 0.0
H80 H 0.82967 0.13788 0.31884 0.0
H81 H 0.78016 0.18026 0.35049 0.0
H82 H 0.79292 0.21026 0.32383 0.0
H83 H 0.82367 0.25478 0.29916 0.0
H84 H 0.79825 0.27775 0.27661 0.0
H85 H 0.77591 0.22179 0.2343 0.0
N86 N 0.82916 0.20948 0.29355 0.0
H87 H 0.80175 0.19849 0.25684 0.0
C88 C 0.72489 0.32373 0.19191 0.0
C89 C 0.71129 0.34199 0.19531 0.0
C90 C 0.71425 0.36096 0.18101 0.0
C91 C 0.73092 0.36201 0.16287 0.0
C92 C 0.74511 0.344 0.16014 0.0
C93 C 0.74215 0.32505 0.17448 0.0
C94 C 0.70303 0.29053 0.19125 0.0
C95 C 0.70491 0.2858 0.16553 0.0
C96 C 0.688 0.27511 0.15293 0.0
C97 C 0.66897 0.26853 0.16578 0.0
C98 C 0.66772 0.27219 0.1918 0.0
C99 C 0.68456 0.28317 0.20433 0.0
C100 C 0.73672 0.29126 0.21576 0.0
C101 C 0.74091 0.29431 0.24132 0.0
C102 C 0.75675 0.28172 0.25359 0.0
C103 C 0.76878 0.26576 0.24045 0.0
C104 C 0.7649 0.26306 0.21463 0.0
C105 C 0.74903 0.27566 0.2024 0.0
C106 C 0.84589 0.21881 0.30948 0.0
C107 C 0.84071 0.22863 0.33262 0.0
C108 C 0.85721 0.23393 0.34966 0.0
C109 C 0.87923 0.22906 0.34429 0.0
C110 C 0.88444 0.21995 0.3208 0.0
C111 C 0.8679 0.21493 0.30359 0.0
C112 C 0.8186 0.1913 0.30599 0.0
C113 C 0.82826 0.17052 0.30435 0.0
C114 C 0.82108 0.1534 0.31964 0.0
C115 C 0.80406 0.15676 0.33697 0.0
C116 C 0.79354 0.17727 0.3376 0.0
C117 C 0.80072 0.19439 0.32226 0.0
C118 C 0.81438 0.2243 0.28049 0.0
C119 C 0.81327 0.24701 0.28546 0.0
C120 C 0.79862 0.2604 0.27236 0.0
C121 C 0.78487 0.25163 0.2538 0.0
C122 C 0.78636 0.22915 0.24836 0.0
C123 C 0.801 0.21576 0.26142 0.0
H124 H 0.77793 0.7732 0.40392 0.0
N125 N 0.76731 0.78376 0.35713 0.0
H126 H 0.81375 0.76283 0.42023 0.0
H127 H 0.80471 0.7751 0.32903 0.0
H128 H 0.8398 0.7633 0.34484 0.0
H129 H 0.79523 0.81891 0.35642 0.0
H130 H 0.78835 0.85492 0.37514 0.0
H131 H 0.72964 0.7988 0.37553 0.0
H132 H 0.72244 0.83525 0.39342 0.0
H133 H 0.74037 0.75177 0.34353 0.0
H134 H 0.77897 0.80472 0.31378 0.0
H135 H 0.72944 0.74137 0.30115 0.0
H136 H 0.76957 0.79365 0.27126 0.0
H137 H 0.71956 0.69541 0.18553 0.0
H138 H 0.73637 0.66238 0.16827 0.0
H139 H 0.79105 0.70081 0.14179 0.0
H140 H 0.77401 0.73393 0.15923 0.0
H141 H 0.72712 0.7483 0.13359 0.0
H142 H 0.69217 0.74937 0.11182 0.0
H143 H 0.65898 0.73386 0.18132 0.0
H144 H 0.69436 0.73098 0.20232 0.0
H145 H 0.73548 0.71178 0.22359 0.0
H146 H 0.7423 0.72422 0.26587 0.0
H147 H 0.74405 0.79127 0.23957 0.0
N148 N 0.73482 0.73726 0.18078 0.0
H149 H 0.7389 0.7783 0.19666 0.0
C150 C 0.78826 0.77506 0.3653 0.0
C151 C 0.79135 0.77089 0.39092 0.0
C152 C 0.81189 0.76478 0.40017 0.0
C153 C 0.82988 0.76225 0.38391 0.0
C154 C 0.82655 0.76554 0.35808 0.0
C155 C 0.80614 0.77214 0.3489 0.0
C156 C 0.76299 0.80599 0.36502 0.0
C157 C 0.77926 0.82231 0.36432 0.0
C158 C 0.77534 0.84287 0.37497 0.0
C159 C 0.75493 0.84768 0.3858 0.0
C160 C 0.73828 0.83186 0.38514 0.0
C161 C 0.74237 0.81113 0.37498 0.0
C162 C 0.76062 0.77877 0.33181 0.0
C163 C 0.74656 0.76105 0.32775 0.0
C164 C 0.74053 0.75504 0.30343 0.0
C165 C 0.74882 0.76641 0.28249 0.0
C166 C 0.76254 0.7846 0.28673 0.0
C167 C 0.76813 0.7909 0.31111 0.0
C168 C 0.74562 0.71715 0.17367 0.0
C169 C 0.73538 0.69667 0.1765 0.0
C170 C 0.74506 0.67778 0.16671 0.0
C171 C 0.76504 0.67902 0.15368 0.0
C172 C 0.77561 0.6994 0.15165 0.0
C173 C 0.76599 0.71826 0.16165 0.0
C174 C 0.71344 0.73991 0.16958 0.0
C175 C 0.71225 0.74531 0.14411 0.0
C176 C 0.69213 0.74606 0.13176 0.0
C177 C 0.67247 0.74192 0.14473 0.0
C178 C 0.67367 0.73685 0.1705 0.0
C179 C 0.69395 0.73553 0.18272 0.0
C180 C 0.73717 0.74411 0.20661 0.0
C181 C 0.7375 0.72913 0.22668 0.0
C182 C 0.74112 0.73639 0.25118 0.0
C183 C 0.74389 0.75884 0.25642 0.0
C184 C 0.74259 0.77382 0.23638 0.0
C185 C 0.73944 0.76649 0.21181 0.0
H186 H 0.29356 0.75534 0.12807 0.0
N187 N 0.28921 0.74414 0.17583 0.0
H188 H 0.32591 0.77015 0.10742 0.0
H189 H 0.32623 0.75999 0.19956 0.0
H190 H 0.35793 0.77611 0.17941 0.0
H191 H 0.32436 0.71623 0.1793 0.0
H192 H 0.32601 0.67884 0.1627 0.0
H193 H 0.25576 0.71971 0.16052 0.0
H194 H 0.25718 0.68187 0.14492 0.0
H195 H 0.25706 0.77177 0.18656 0.0
H196 H 0.30529 0.72993 0.22092 0.0
H197 H 0.24462 0.78366 0.22793 0.0
H198 H 0.29385 0.74248 0.26238 0.0
H199 H 0.23075 0.83836 0.33791 0.0
H200 H 0.24655 0.87219 0.35429 0.0
H201 H 0.29851 0.835 0.38906 0.0
H202 H 0.28265 0.80106 0.37226 0.0
H203 H 0.23301 0.78766 0.39302 0.0
H204 H 0.19601 0.78703 0.40989 0.0
H205 H 0.17024 0.79966 0.33569 0.0
H206 H 0.20744 0.80202 0.31951 0.0
H207 H 0.24523 0.81969 0.30218 0.0
H208 H 0.25566 0.80591 0.26129 0.0
H209 H 0.2661 0.7416 0.29319 0.0
N210 N 0.24553 0.79675 0.34665 0.0
H211 H 0.25675 0.75603 0.33465 0.0
C212 C 0.30723 0.75648 0.16531 0.0
C213 C 0.30745 0.76021 0.1394 0.0
C214 C 0.32597 0.76883 0.12766 0.0
C215 C 0.34472 0.77428 0.14169 0.0
C216 C 0.34402 0.77171 0.1679 0.0
C217 C 0.32563 0.76266 0.17957 0.0
C218 C 0.28993 0.72093 0.17065 0.0
C219 C 0.30955 0.70883 0.17212 0.0
C220 C 0.31051 0.68747 0.1627 0.0
C221 C 0.29175 0.67765 0.1525 0.0
C222 C 0.27182 0.68913 0.15282 0.0
C223 C 0.27099 0.71066 0.16167 0.0
C224 C 0.28211 0.75016 0.20066 0.0
C225 C 0.26499 0.76524 0.20312 0.0
C226 C 0.25807 0.77213 0.22679 0.0
C227 C 0.26836 0.76423 0.24862 0.0
C228 C 0.28534 0.74874 0.24608 0.0
C229 C 0.29204 0.74164 0.22235 0.0
C230 C 0.25565 0.81716 0.35381 0.0
C231 C 0.24582 0.8375 0.34853 0.0
C232 C 0.2549 0.85684 0.35784 0.0
C233 C 0.27379 0.85621 0.37289 0.0
C234 C 0.28393 0.83593 0.37755 0.0
C235 C 0.27496 0.81661 0.36796 0.0
C236 C 0.22314 0.79454 0.35503 0.0
C237 C 0.21932 0.79013 0.38041 0.0
C238 C 0.19806 0.78963 0.38996 0.0
C239 C 0.17988 0.79307 0.37419 0.0
C240 C 0.18372 0.79721 0.34856 0.0
C241 C 0.2051 0.79824 0.33913 0.0
C242 C 0.25056 0.78893 0.32174 0.0
C243 C 0.24992 0.80269 0.30059 0.0
C244 C 0.25566 0.79465 0.27697 0.0
C245 C 0.26179 0.77259 0.27379 0.0
C246 C 0.26189 0.75876 0.29492 0.0
C247 C 0.25639 0.76691 0.31861 0.0
H248 H 0.19656 0.83373 0.69197 0.0
N249 N 0.2138 0.79479 0.6822 0.0
H250 H 0.20318 0.86823 0.66977 0.0
H251 H 0.24479 0.8017 0.64576 0.0
H252 H 0.25193 0.83602 0.62402 0.0
H253 H 0.22288 0.77023 0.64047 0.0
H254 H 0.19631 0.75066 0.61466 0.0
H255 H 0.17158 0.78916 0.69151 0.0
H256 H 0.14473 0.76996 0.66558 0.0
H257 H 0.21029 0.79251 0.73159 0.0
H258 H 0.25108 0.77195 0.67003 0.0
H259 H 0.23353 0.77212 0.76075 0.0
H260 H 0.27492 0.75243 0.69894 0.0
H261 H 0.30337 0.73008 0.84425 0.0
H262 H 0.33411 0.74031 0.87068 0.0
H263 H 0.37868 0.71081 0.8175 0.0
H264 H 0.34766 0.70159 0.79045 0.0
H265 H 0.31186 0.6636 0.8011 0.0
H266 H 0.29329 0.63639 0.82713 0.0
H267 H 0.25046 0.68686 0.85591 0.0
H268 H 0.2693 0.71399 0.82989 0.0
H269 H 0.28852 0.74763 0.8099 0.0
H270 H 0.26822 0.77045 0.78063 0.0
H271 H 0.27469 0.72031 0.72386 0.0
N272 N 0.30537 0.70649 0.80049 0.0
H273 H 0.29587 0.69795 0.75312 0.0
C274 C 0.22019 0.81516 0.67073 0.0
C275 C 0.2089 0.83428 0.67739 0.0
C276 C 0.21275 0.85395 0.66471 0.0
C277 C 0.22802 0.85488 0.645 0.0
C278 C 0.23982 0.8358 0.63885 0.0
C279 C 0.2359 0.81613 0.65151 0.0
C280 C 0.19912 0.78124 0.66793 0.0
C281 C 0.20596 0.76996 0.64634 0.0
C282 C 0.19071 0.75882 0.63151 0.0
C283 C 0.16838 0.75876 0.63801 0.0
C284 C 0.16182 0.76935 0.66021 0.0
C285 C 0.17707 0.78046 0.67496 0.0
C286 C 0.22894 0.78393 0.69872 0.0
C287 C 0.22451 0.7839 0.72446 0.0
C288 C 0.2379 0.77234 0.74108 0.0
C289 C 0.25617 0.76059 0.73225 0.0
C290 C 0.26083 0.76102 0.7064 0.0
C291 C 0.24729 0.77245 0.68977 0.0
C292 C 0.32323 0.71527 0.81506 0.0
C293 C 0.31973 0.72635 0.83783 0.0
C294 C 0.33739 0.7319 0.8532 0.0
C295 C 0.35892 0.72618 0.84641 0.0
C296 C 0.36239 0.71572 0.82324 0.0
C297 C 0.34471 0.71039 0.80775 0.0
C298 C 0.29208 0.69073 0.81361 0.0
C299 C 0.29819 0.66866 0.81268 0.0
C300 C 0.28747 0.65315 0.82747 0.0
C301 C 0.27039 0.65947 0.84362 0.0
C302 C 0.26368 0.68153 0.84382 0.0
C303 C 0.2744 0.69704 0.8289 0.0
C304 C 0.29399 0.72103 0.78361 0.0
C305 C 0.2859 0.74159 0.79113 0.0
C306 C 0.27404 0.75462 0.77434 0.0
C307 C 0.26976 0.74729 0.7498 0.0
C308 C 0.27798 0.72674 0.7424 0.0
C309 C 0.28997 0.71385 0.75912 0.0
H310 H 0.29529 0.26131 0.91066 0.0
N311 N 0.2859 0.2755 0.865 0.0
H312 H 0.33009 0.24694 0.92587 0.0
H313 H 0.32212 0.26648 0.83618 0.0
H314 H 0.35645 0.25078 0.85069 0.0
H315 H 0.31306 0.30793 0.8482 0.0
H316 H 0.31384 0.34578 0.86357 0.0
H317 H 0.25633 0.29484 0.89375 0.0
H318 H 0.25656 0.3327 0.90873 0.0
H319 H 0.25317 0.24722 0.86532 0.0
H320 H 0.29342 0.28555 0.8157 0.0
H321 H 0.2353 0.23016 0.82941 0.0
H322 H 0.27685 0.26748 0.77947 0.0
H323 H 0.21879 0.15466 0.71576 0.0
H324 H 0.24177 0.13129 0.68947 0.0
H325 H 0.27727 0.1883 0.66392 0.0
H326 H 0.25412 0.21159 0.69058 0.0
H327 H 0.21925 0.22687 0.67966 0.0
H328 H 0.18769 0.23733 0.65435 0.0
H329 H 0.14619 0.19651 0.70048 0.0
H330 H 0.17789 0.18678 0.72628 0.0
H331 H 0.22764 0.18353 0.76456 0.0
H332 H 0.24334 0.2037 0.79959 0.0
H333 H 0.24612 0.26205 0.7536 0.0
N334 N 0.21937 0.19789 0.71884 0.0
H335 H 0.23165 0.24122 0.71826 0.0
C336 C 0.30596 0.26486 0.87237 0.0
C337 C 0.30855 0.25879 0.89748 0.0
C338 C 0.32844 0.25037 0.90604 0.0
C339 C 0.3462 0.24756 0.88951 0.0
C340 C 0.34329 0.25296 0.86406 0.0
C341 C 0.32348 0.26177 0.85563 0.0
C342 C 0.28465 0.2986 0.87005 0.0
C343 C 0.30046 0.31337 0.86105 0.0
C344 C 0.30088 0.335 0.86984 0.0
C345 C 0.28548 0.34214 0.88772 0.0
C346 C 0.26895 0.32759 0.89542 0.0
C347 C 0.26861 0.30605 0.88671 0.0
C348 C 0.27481 0.26727 0.84318 0.0
C349 C 0.25816 0.25186 0.84657 0.0
C350 C 0.24817 0.24197 0.82598 0.0
C351 C 0.25494 0.247 0.80141 0.0
C352 C 0.27113 0.26319 0.79804 0.0
C353 C 0.28082 0.2734 0.81876 0.0
C354 C 0.23462 0.18473 0.70489 0.0
C355 C 0.23177 0.16202 0.70478 0.0
C356 C 0.24502 0.14872 0.68989 0.0
C357 C 0.2614 0.15795 0.67467 0.0
C358 C 0.26471 0.18076 0.67536 0.0
C359 C 0.25149 0.19407 0.69051 0.0
C360 C 0.20085 0.20613 0.70504 0.0
C361 C 0.20333 0.22051 0.68466 0.0
C362 C 0.18526 0.22629 0.67 0.0
C363 C 0.16439 0.21764 0.67523 0.0
C364 C 0.16193 0.20371 0.69606 0.0
C365 C 0.18 0.19807 0.71079 0.0
C366 C 0.22817 0.21085 0.73898 0.0
C367 C 0.23163 0.20069 0.76213 0.0
C368 C 0.24043 0.21236 0.78219 0.0
C369 C 0.24573 0.2347 0.77968 0.0
C370 C 0.24239 0.24487 0.75626 0.0
C371 C 0.23387 0.23301 0.73602 0.0
H372 H 0.7844 0.26963 0.61933 0.0
N373 N 0.77447 0.25581 0.66509 0.0
H374 H 0.82046 0.278 0.60234 0.0
H375 H 0.81323 0.25641 0.69153 0.0
H376 H 0.84907 0.26645 0.67539 0.0
H377 H 0.79742 0.21757 0.67083 0.0
H378 H 0.78808 0.18196 0.65293 0.0
H379 H 0.73821 0.2452 0.64024 0.0
H380 H 0.72868 0.20946 0.62217 0.0
H381 H 0.75879 0.29421 0.68022 0.0
H382 H 0.77808 0.23068 0.7079 0.0
H383 H 0.75065 0.30596 0.72308 0.0
H384 H 0.76897 0.24177 0.75025 0.0
H385 H 0.74531 0.34098 0.82298 0.0
H386 H 0.76141 0.37247 0.84425 0.0
H387 H 0.78086 0.33058 0.90573 0.0
H388 H 0.76383 0.29933 0.88465 0.0
H389 H 0.72095 0.26393 0.85954 0.0
H390 H 0.68407 0.26139 0.87788 0.0
H391 H 0.67361 0.32999 0.86274 0.0
H392 H 0.70981 0.33232 0.84346 0.0
H393 H 0.71866 0.31305 0.80034 0.0
H394 H 0.72618 0.30194 0.75721 0.0
H395 H 0.78167 0.26404 0.78298 0.0
N396 N 0.74093 0.29964 0.84236 0.0
H397 H 0.77324 0.2744 0.82613 0.0
C398 C 0.79592 0.2626 0.65667 0.0
C399 C 0.79848 0.26907 0.63166 0.0
C400 C 0.81917 0.27405 0.62206 0.0
C401 C 0.83789 0.27307 0.63745 0.0
C402 C 0.8352 0.26708 0.66278 0.0
C403 C 0.81454 0.26159 0.6722 0.0
C404 C 0.7684 0.23408 0.65691 0.0
C405 C 0.7822 0.21588 0.66062 0.0
C406 C 0.77681 0.1955 0.65043 0.0
C407 C 0.75764 0.19291 0.63612 0.0
C408 C 0.74363 0.21099 0.63295 0.0
C409 C 0.74896 0.23134 0.64334 0.0
C410 C 0.76882 0.26156 0.6906 0.0
C411 C 0.76095 0.28271 0.69549 0.0
C412 C 0.7562 0.28933 0.72 0.0
C413 C 0.75912 0.27484 0.74025 0.0
C414 C 0.76684 0.25354 0.73526 0.0
C415 C 0.77182 0.24702 0.7108 0.0
C416 C 0.75318 0.31782 0.85244 0.0
C417 C 0.75332 0.33852 0.84085 0.0
C418 C 0.76269 0.35651 0.85301 0.0
C419 C 0.77226 0.35414 0.87687 0.0
C420 C 0.77325 0.3331 0.88762 0.0
C421 C 0.7637 0.3152 0.87556 0.0
C422 C 0.71841 0.29831 0.85056 0.0
C423 C 0.71053 0.2783 0.85977 0.0
C424 C 0.68955 0.27686 0.87017 0.0
C425 C 0.67624 0.29555 0.87181 0.0
C426 C 0.68372 0.31542 0.86178 0.0
C427 C 0.70449 0.31674 0.85088 0.0
C428 C 0.74525 0.29421 0.81653 0.0
C429 C 0.73233 0.30223 0.79672 0.0
C430 C 0.7368 0.296 0.77197 0.0
C431 C 0.75445 0.28189 0.7665 0.0
C432 C 0.76762 0.27444 0.78642 0.0
C433 C 0.76298 0.28048 0.81109 0.0
H434 H 0.81188 0.82301 0.67464 0.0
N435 N 0.827 0.82548 0.72305 0.0
H436 H 0.80208 0.85348 0.64798 0.0
H437 H 0.82044 0.86685 0.7372 0.0
H438 H 0.809 0.89769 0.71086 0.0
H439 H 0.86832 0.83882 0.72235 0.0
H440 H 0.89743 0.82616 0.69439 0.0
H441 H 0.82581 0.78793 0.6947 0.0
H442 H 0.85486 0.77504 0.66693 0.0
H443 H 0.78784 0.80768 0.70732 0.0
H444 H 0.83261 0.8114 0.76964 0.0
H445 H 0.76299 0.78551 0.73223 0.0
H446 H 0.8083 0.78813 0.79445 0.0
H447 H 0.68022 0.74452 0.80794 0.0
H448 H 0.65046 0.76142 0.83176 0.0
H449 H 0.69532 0.77398 0.89281 0.0
H450 H 0.72433 0.75584 0.86962 0.0
H451 H 0.753 0.73039 0.85853 0.0
H452 H 0.75971 0.69705 0.88286 0.0
H453 H 0.7089 0.66386 0.8413 0.0
H454 H 0.70235 0.6973 0.81707 0.0
H455 H 0.73043 0.73073 0.77551 0.0
H456 H 0.75729 0.75084 0.75045 0.0
H457 H 0.77462 0.789 0.81579 0.0
N458 N 0.72065 0.73622 0.82352 0.0
H459 H 0.74876 0.76815 0.8407 0.0
C460 C 0.81729 0.84265 0.70801 0.0
C461 C 0.81121 0.83917 0.68287 0.0
C462 C 0.80533 0.85675 0.66758 0.0
C463 C 0.80488 0.87824 0.67709 0.0
C464 C 0.80965 0.88148 0.70266 0.0
C465 C 0.81592 0.86386 0.71787 0.0
C466 C 0.8449 0.81447 0.71063 0.0
C467 C 0.86554 0.82448 0.71083 0.0
C468 C 0.88213 0.81722 0.69484 0.0
C469 C 0.87834 0.79975 0.67825 0.0
C470 C 0.85814 0.78874 0.67927 0.0
C471 C 0.84157 0.79598 0.69534 0.0
C472 C 0.81205 0.81162 0.7368 0.0
C473 C 0.79243 0.8037 0.72635 0.0
C474 C 0.77826 0.79072 0.74061 0.0
C475 C 0.7835 0.78503 0.76549 0.0
C476 C 0.80343 0.79252 0.77559 0.0
C477 C 0.81745 0.8057 0.76141 0.0
C478 C 0.70452 0.74901 0.83677 0.0
C479 C 0.68362 0.75126 0.82631 0.0
C480 C 0.66669 0.76107 0.83994 0.0
C481 C 0.67041 0.76904 0.86433 0.0
C482 C 0.69172 0.76772 0.87427 0.0
C483 C 0.70851 0.75759 0.8608 0.0
C484 C 0.7271 0.71628 0.83595 0.0
C485 C 0.74349 0.71589 0.85445 0.0
C486 C 0.74723 0.69684 0.86844 0.0
C487 C 0.73474 0.67784 0.86411 0.0
C488 C 0.71894 0.67812 0.84495 0.0
C489 C 0.71515 0.69717 0.83111 0.0
C490 C 0.7373 0.74799 0.80987 0.0
C491 C 0.7402 0.74334 0.78438 0.0
C492 C 0.75543 0.755 0.77007 0.0
C493 C 0.76805 0.77177 0.78097 0.0
C494 C 0.76542 0.77608 0.80673 0.0
C495 C 0.75035 0.76423 0.82106 0.0
C496 C 0.98236 0.27826 0.54678 0.0
C497 C 0.0465 0.2819 0.49216 0.0
O498 O 0.99314 0.29526 0.54073 0.0
Zn499 Zn 0.01499 0.28059 0.5203 0.0
O500 O 0.98896 0.25936 0.53953 0.0
Zn501 Zn 0.01535 0.24588 0.51804 0.0
O502 O 0.03194 0.22898 0.54197 0.0
O503 O 0.03539 0.26457 0.54759 0.0
O504 O 0.04031 0.26228 0.49696 0.0
O505 O 0.03613 0.29794 0.50171 0.0
O506 O 0.99562 0.26645 0.49043 0.0
O507 O 0.99988 0.23055 0.49206 0.0
C508 C 0.04041 0.2449 0.55382 0.0
C509 C 0.99139 0.2473 0.48174 0.0
C510 C 0.75283 0.05195 0.53825 0.0
C511 C 0.74894 0.98814 0.48284 0.0
O512 O 0.77166 0.04495 0.53118 0.0
Zn513 Zn 0.78496 0.01906 0.50851 0.0
O514 O 0.73567 0.04191 0.53117 0.0
Zn515 Zn 0.75027 0.01966 0.51127 0.0
O516 O 0.76645 0.00058 0.53951 0.0
O517 O 0.80192 0.00173 0.53179 0.0
O518 O 0.73303 0.99759 0.49379 0.0
O519 O 0.76854 0.99475 0.48674 0.0
O520 O 0.80014 0.03532 0.48309 0.0
O521 O 0.7642 0.03893 0.48113 0.0
C522 C 0.78607 0.99494 0.5451 0.0
C523 C 0.78333 0.04351 0.47259 0.0
C524 C 0.98524 0.78313 0.53541 0.0
C525 C 0.03597 0.78742 0.465 0.0
O526 O 0.99339 0.80024 0.52551 0.0
Zn527 Zn 0.0096 0.78565 0.49956 0.0
O528 O 0.9898 0.76423 0.52618 0.0
Zn529 Zn 0.00928 0.75095 0.49575 0.0
O530 O 0.03039 0.73295 0.51394 0.0
O531 O 0.03338 0.7684 0.52126 0.0
O532 O 0.03023 0.76765 0.46973 0.0
O533 O 0.02768 0.80304 0.47753 0.0
O534 O 0.98367 0.77311 0.47686 0.0
O535 O 0.98736 0.7372 0.47455 0.0
C536 C 0.03977 0.74871 0.52526 0.0
C537 C 0.97685 0.75451 0.46892 0.0
C538 C 0.28184 0.04679 0.54237 0.0
C539 C 0.28204 0.99232 0.47516 0.0
O540 O 0.2986 0.03851 0.53183 0.0
Zn541 Zn 0.28274 0.01995 0.50824 0.0
O542 O 0.26271 0.04112 0.53503 0.0
Zn543 Zn 0.24782 0.02033 0.508 0.0
O544 O 0.23132 0.00037 0.52875 0.0
O545 O 0.26708 0.99632 0.53248 0.0
O546 O 0.2628 0.99838 0.48186 0.0
O547 O 0.2987 0.00099 0.48546 0.0
O548 O 0.26818 0.04352 0.48328 0.0
O549 O 0.23227 0.04108 0.48728 0.0
C550 C 0.24758 0.99049 0.53848 0.0
C551 C 0.2489 0.05002 0.47729 0.0
C552 C 0.47937 0.7805 0.03488 0.0
C553 C 0.53826 0.7822 0.97308 0.0
O554 O 0.48928 0.79732 0.0266 0.0
Zn555 Zn 0.50939 0.78186 0.00489 0.0
O556 O 0.48549 0.76134 0.02785 0.0
Zn557 Zn 0.50964 0.74707 0.0035 0.0
O558 O 0.52883 0.73074 0.02549 0.0
O559 O 0.53103 0.76645 0.03128 0.0
O560 O 0.53213 0.76277 0.97881 0.0
O561 O 0.52952 0.79852 0.984 0.0
O562 O 0.48739 0.76707 0.97783 0.0
O563 O 0.49159 0.73119 0.98026 0.0
C564 C 0.53704 0.74696 0.03702 0.0
C565 C 0.48225 0.74772 0.97042 0.0
C566 C 0.28261 0.54527 0.04129 0.0
C567 C 0.28266 0.48577 0.98002 0.0
O568 O 0.29901 0.53447 0.03336 0.0
Zn569 Zn 0.28315 0.51546 0.0108 0.0
O570 O 0.26333 0.5405 0.03345 0.0
Zn571 Zn 0.24831 0.51729 0.00846 0.0
O572 O 0.23038 0.49931 0.03051 0.0
O573 O 0.26587 0.49475 0.03616 0.0
O574 O 0.2634 0.49295 0.98502 0.0
O575 O 0.29913 0.49437 0.99076 0.0
O576 O 0.27051 0.53767 0.98315 0.0
O577 O 0.2344 0.53635 0.9842 0.0
C578 C 0.24609 0.48992 0.04191 0.0
C579 C 0.25189 0.54416 0.97483 0.0
C580 C 0.5425 0.28022 0.98073 0.0
C581 C 0.48642 0.28233 0.04605 0.0
O582 O 0.53198 0.29679 0.98864 0.0
Zn583 Zn 0.5142 0.28166 0.01315 0.0
O584 O 0.53794 0.26113 0.98933 0.0
Zn585 Zn 0.51547 0.24687 0.01575 0.0
O586 O 0.49633 0.22911 0.99486 0.0
O587 O 0.49081 0.26469 0.99083 0.0
O588 O 0.49266 0.26279 0.04074 0.0
O589 O 0.49512 0.29847 0.03473 0.0
O590 O 0.53799 0.2687 0.03882 0.0
O591 O 0.53509 0.2326 0.03905 0.0
C592 C 0.48557 0.24493 0.98546 0.0
C593 C 0.54429 0.24995 0.04699 0.0
C594 C 0.77947 0.54708 0.04464 0.0
C595 C 0.78242 0.48992 0.98039 0.0
O596 O 0.79661 0.53803 0.03588 0.0
Zn597 Zn 0.78177 0.51832 0.01281 0.0
O598 O 0.76061 0.54088 0.03684 0.0
Zn599 Zn 0.74684 0.51807 0.01092 0.0
O600 O 0.73029 0.49852 0.03238 0.0
O601 O 0.76597 0.49578 0.03782 0.0
O602 O 0.76292 0.49592 0.98604 0.0
O603 O 0.79862 0.49868 0.99151 0.0
O604 O 0.76748 0.541 0.98647 0.0
O605 O 0.73156 0.53738 0.98814 0.0
C606 C 0.74648 0.48971 0.04348 0.0
C607 C 0.74835 0.54675 0.97897 0.0
C608 C 0.16167 0.29336 0.42325 0.0
C609 C 0.15979 0.28852 0.39763 0.0
C610 C 0.14301 0.29572 0.43837 0.0
C611 C 0.12198 0.29324 0.42758 0.0
C612 C 0.11996 0.2899 0.40142 0.0
C613 C 0.13891 0.28749 0.38676 0.0
C614 C 0.14589 0.29918 0.4662 0.0
C615 C 0.09784 0.28739 0.38915 0.0
C616 C 0.07846 0.26725 0.46846 0.0
C617 C 0.06576 0.28534 0.47571 0.0
C618 C 0.09673 0.26972 0.45287 0.0
C619 C 0.10248 0.29081 0.44408 0.0
C620 C 0.08977 0.30921 0.45122 0.0
C621 C 0.07156 0.30627 0.46707 0.0
C622 C 0.10992 0.24966 0.44587 0.0
C623 C 0.09538 0.33191 0.44206 0.0
H624 H 0.17774 0.29399 0.43183 0.0
H625 H 0.13739 0.28406 0.3669 0.0
H626 H 0.13467 0.31215 0.47308 0.0
H627 H 0.14171 0.28384 0.47629 0.0
H628 H 0.16296 0.30377 0.47109 0.0
H629 H 0.09892 0.28807 0.36837 0.0
H630 H 0.09063 0.27139 0.39455 0.0
H631 H 0.08646 0.30038 0.39565 0.0
H632 H 0.07421 0.25102 0.47509 0.0
H633 H 0.06181 0.32032 0.47253 0.0
H634 H 0.12715 0.2517 0.45201 0.0
H635 H 0.11006 0.24761 0.42521 0.0
H636 H 0.10332 0.23445 0.45444 0.0
H637 H 0.11218 0.33635 0.4481 0.0
H638 H 0.08379 0.34449 0.44919 0.0
H639 H 0.09519 0.33229 0.42127 0.0
C640 C 0.79603 0.14521 0.38101 0.0
C641 C 0.79867 0.13956 0.3557 0.0
C642 C 0.79279 0.12909 0.39938 0.0
C643 C 0.79215 0.10676 0.39229 0.0
C644 C 0.79427 0.10096 0.36671 0.0
C645 C 0.79755 0.11744 0.34871 0.0
C646 C 0.79065 0.13594 0.42648 0.0
C647 C 0.7935 0.07733 0.35842 0.0
C648 C 0.80646 0.06541 0.44295 0.0
C649 C 0.78567 0.05877 0.45113 0.0
C650 C 0.8088 0.0807 0.42347 0.0
C651 C 0.7899 0.08951 0.41183 0.0
C652 C 0.76889 0.08251 0.41959 0.0
C653 C 0.76702 0.06725 0.43917 0.0
C654 C 0.8315 0.0878 0.41572 0.0
C655 C 0.74837 0.09147 0.40757 0.0
H656 H 0.79725 0.16223 0.38662 0.0
H657 H 0.79938 0.113 0.32914 0.0
H658 H 0.77526 0.12937 0.43456 0.0
H659 H 0.8044 0.129 0.43754 0.0
H660 H 0.7907 0.15403 0.42877 0.0
H661 H 0.79449 0.07562 0.33772 0.0
H662 H 0.80731 0.06815 0.36695 0.0
H663 H 0.77814 0.06953 0.36502 0.0
H664 H 0.82096 0.05894 0.45205 0.0
H665 H 0.75088 0.06217 0.44527 0.0
H666 H 0.83354 0.10558 0.41929 0.0
H667 H 0.83383 0.08515 0.39532 0.0
H668 H 0.84452 0.07879 0.42599 0.0
H669 H 0.74719 0.10935 0.41107 0.0
H670 H 0.73331 0.08351 0.41488 0.0
H671 H 0.74901 0.08913 0.38696 0.0
C672 C 0.87083 0.76701 0.38303 0.0
C673 C 0.85222 0.75746 0.39402 0.0
C674 C 0.89173 0.76419 0.39348 0.0
C675 C 0.89412 0.752 0.41588 0.0
C676 C 0.87561 0.7417 0.42665 0.0
C677 C 0.85496 0.74433 0.41544 0.0
C678 C 0.91111 0.77515 0.38117 0.0
C679 C 0.87741 0.72883 0.45074 0.0
C680 C 0.95114 0.73608 0.43875 0.0
C681 C 0.95593 0.75348 0.45498 0.0
C682 C 0.93113 0.73537 0.42565 0.0
C683 C 0.91543 0.75216 0.42947 0.0
C684 C 0.92011 0.76953 0.44619 0.0
C685 C 0.94037 0.7701 0.45847 0.0
C686 C 0.92691 0.71689 0.40752 0.0
C687 C 0.90367 0.78751 0.45124 0.0
H688 H 0.86906 0.77746 0.36674 0.0
H689 H 0.84088 0.73641 0.42381 0.0
H690 H 0.91665 0.7891 0.39288 0.0
H691 H 0.92503 0.76354 0.37959 0.0
H692 H 0.90709 0.78146 0.36217 0.0
H693 H 0.86187 0.72041 0.45565 0.0
H694 H 0.89061 0.71641 0.44931 0.0
H695 H 0.88182 0.74005 0.46631 0.0
H696 H 0.96317 0.72323 0.43597 0.0
H697 H 0.94385 0.78345 0.47126 0.0
H698 H 0.92402 0.72361 0.38847 0.0
H699 H 0.91191 0.70786 0.41304 0.0
H700 H 0.94079 0.70514 0.40664 0.0
H701 H 0.90016 0.7966 0.43368 0.0
H702 H 0.90953 0.79935 0.46555 0.0
H703 H 0.888 0.78033 0.45782 0.0
C704 C 0.28307 0.8962 0.3725 0.0
C705 C 0.28141 0.87638 0.38565 0.0
C706 C 0.28695 0.91597 0.38518 0.0
C707 C 0.28877 0.9159 0.41164 0.0
C708 C 0.28843 0.89575 0.42481 0.0
C709 C 0.28486 0.87622 0.41162 0.0
C710 C 0.28766 0.93706 0.37042 0.0
C711 C 0.29006 0.89496 0.45305 0.0
C712 C 0.30491 0.96622 0.44959 0.0
C713 C 0.2843 0.97416 0.45688 0.0
C714 C 0.30675 0.9477 0.43401 0.0
C715 C 0.28755 0.93682 0.42586 0.0
C716 C 0.26675 0.94521 0.43254 0.0
C717 C 0.2654 0.9638 0.44779 0.0
C718 C 0.32918 0.9394 0.42689 0.0
C719 C 0.24583 0.93407 0.42438 0.0
H720 H 0.28066 0.89631 0.35236 0.0
H721 H 0.28341 0.86095 0.42188 0.0
H722 H 0.27216 0.94621 0.37329 0.0
H723 H 0.30123 0.94765 0.37704 0.0
H724 H 0.28972 0.93406 0.35001 0.0
H725 H 0.29205 0.87796 0.46015 0.0
H726 H 0.30406 0.90495 0.45969 0.0
H727 H 0.27496 0.90201 0.46137 0.0
H728 H 0.31959 0.97417 0.45644 0.0
H729 H 0.24937 0.96981 0.4532 0.0
H730 H 0.33012 0.93653 0.40638 0.0
H731 H 0.33228 0.92347 0.43626 0.0
H732 H 0.34234 0.95101 0.43237 0.0
H733 H 0.24535 0.93261 0.40367 0.0
H734 H 0.23097 0.94305 0.43063 0.0
H735 H 0.24522 0.91723 0.4322 0.0
C736 C 0.13319 0.73867 0.62996 0.0
C737 C 0.1516 0.74975 0.62064 0.0
C738 C 0.11533 0.73381 0.61435 0.0
C739 C 0.11591 0.74025 0.58886 0.0
C740 C 0.1352 0.74972 0.5789 0.0
C741 C 0.1528 0.75439 0.59492 0.0
C742 C 0.09519 0.72346 0.62565 0.0
C743 C 0.13654 0.75678 0.55181 0.0
C744 C 0.07051 0.72572 0.54266 0.0
C745 C 0.05815 0.74509 0.54287 0.0
C746 C 0.08913 0.72349 0.55805 0.0
C747 C 0.09532 0.74101 0.57398 0.0
C748 C 0.08234 0.7602 0.57489 0.0
C749 C 0.06401 0.76199 0.55935 0.0
C750 C 0.10258 0.70279 0.55664 0.0
C751 C 0.08818 0.77923 0.59176 0.0
H752 H 0.13235 0.73463 0.64973 0.0
H753 H 0.16688 0.76306 0.58754 0.0
H754 H 0.08241 0.73619 0.62828 0.0
H755 H 0.08836 0.71079 0.61297 0.0
H756 H 0.09868 0.71587 0.64416 0.0
H757 H 0.15359 0.76066 0.54608 0.0
H758 H 0.13006 0.74381 0.53928 0.0
H759 H 0.12633 0.77163 0.549 0.0
H760 H 0.06605 0.71261 0.52996 0.0
H761 H 0.05438 0.77692 0.55989 0.0
H762 H 0.10603 0.69644 0.57573 0.0
H763 H 0.11857 0.7064 0.54769 0.0
H764 H 0.09426 0.68979 0.54562 0.0
H765 H 0.08965 0.7736 0.61146 0.0
H766 H 0.07584 0.79259 0.59099 0.0
H767 H 0.10429 0.78606 0.58615 0.0
C768 C 0.27468 0.15013 0.63123 0.0
C769 C 0.27322 0.14384 0.65646 0.0
C770 C 0.28105 0.13506 0.61274 0.0
C771 C 0.28603 0.11322 0.61971 0.0
C772 C 0.28676 0.10747 0.64541 0.0
C773 C 0.28031 0.12286 0.66349 0.0
C774 C 0.28021 0.14193 0.58558 0.0
C775 C 0.29223 0.08446 0.6537 0.0
C776 C 0.26475 0.06988 0.5754 0.0
C777 C 0.28375 0.06316 0.56277 0.0
C778 C 0.26547 0.08594 0.59404 0.0
C779 C 0.28574 0.09568 0.60037 0.0
C780 C 0.30513 0.08881 0.58805 0.0
C781 C 0.30392 0.07257 0.56934 0.0
C782 C 0.24437 0.09265 0.60676 0.0
C783 C 0.32701 0.09885 0.59437 0.0
H784 H 0.26921 0.16631 0.62563 0.0
H785 H 0.27964 0.11807 0.68305 0.0
H786 H 0.29433 0.13516 0.57504 0.0
H787 H 0.26505 0.13538 0.57688 0.0
H788 H 0.28013 0.16004 0.5835 0.0
H789 H 0.29622 0.08372 0.674 0.0
H790 H 0.27794 0.07367 0.65018 0.0
H791 H 0.30625 0.07783 0.64287 0.0
H792 H 0.24909 0.06265 0.57063 0.0
H793 H 0.31866 0.06748 0.55964 0.0
H794 H 0.24123 0.11034 0.60354 0.0
H795 H 0.24571 0.09013 0.6273 0.0
H796 H 0.23003 0.08326 0.59982 0.0
H797 H 0.32691 0.11649 0.58937 0.0
H798 H 0.34071 0.09074 0.58428 0.0
H799 H 0.33009 0.09776 0.61483 0.0
C800 C 0.86304 0.29226 0.60703 0.0
C801 C 0.86014 0.27719 0.62669 0.0
C802 C 0.88332 0.29445 0.59485 0.0
C803 C 0.90138 0.28177 0.60298 0.0
C804 C 0.89898 0.26757 0.62377 0.0
C805 C 0.87837 0.2652 0.63511 0.0
C806 C 0.88508 0.3095 0.57247 0.0
C807 C 0.91796 0.2541 0.63336 0.0
C808 C 0.94486 0.26487 0.55607 0.0
C809 C 0.96164 0.27993 0.56092 0.0
C810 C 0.92501 0.26572 0.56921 0.0
C811 C 0.92208 0.28162 0.58822 0.0
C812 C 0.939 0.29688 0.59327 0.0
C813 C 0.95851 0.29607 0.57923 0.0
C814 C 0.90719 0.24952 0.56273 0.0
C815 C 0.9367 0.31368 0.61386 0.0
H816 H 0.84934 0.30209 0.60073 0.0
H817 H 0.87647 0.25329 0.65 0.0
H818 H 0.89914 0.32082 0.57469 0.0
H819 H 0.88813 0.29964 0.55534 0.0
H820 H 0.86998 0.31934 0.56956 0.0
H821 H 0.91424 0.24618 0.65163 0.0
H822 H 0.92201 0.2411 0.61958 0.0
H823 H 0.93273 0.26449 0.6356 0.0
H824 H 0.94715 0.25253 0.54169 0.0
H825 H 0.97154 0.30765 0.58306 0.0
H826 H 0.89178 0.25834 0.55826 0.0
H827 H 0.90384 0.23878 0.57906 0.0
H828 H 0.91163 0.23903 0.54649 0.0
H829 H 0.92195 0.32391 0.61065 0.0
H830 H 0.95121 0.32457 0.61518 0.0
H831 H 0.93444 0.30526 0.63212 0.0
C832 C 0.81226 0.91692 0.66298 0.0
C833 C 0.80078 0.89715 0.65993 0.0
C834 C 0.8099 0.93419 0.64577 0.0
C835 C 0.79618 0.93146 0.62463 0.0
C836 C 0.78426 0.91177 0.62164 0.0
C837 C 0.78643 0.89503 0.6395 0.0
C838 C 0.82246 0.95517 0.64993 0.0
C839 C 0.76963 0.90812 0.59919 0.0
C840 C 0.77523 0.97974 0.58667 0.0
C841 C 0.78984 0.97995 0.5664 0.0
C842 C 0.77764 0.96463 0.60631 0.0
C843 C 0.79467 0.94892 0.60522 0.0
C844 C 0.80966 0.94926 0.58494 0.0
C845 C 0.80724 0.965 0.56593 0.0
C846 C 0.76172 0.96522 0.62797 0.0
C847 C 0.82774 0.93248 0.58284 0.0
H848 H 0.82364 0.91875 0.6784 0.0
H849 H 0.77706 0.88011 0.6372 0.0
H850 H 0.8349 0.95721 0.63497 0.0
H851 H 0.81125 0.96945 0.64887 0.0
H852 H 0.83091 0.95542 0.66837 0.0
H853 H 0.76159 0.8918 0.59954 0.0
H854 H 0.75675 0.92091 0.59843 0.0
H855 H 0.77938 0.90948 0.58169 0.0
H856 H 0.76185 0.99143 0.58716 0.0
H857 H 0.81845 0.96503 0.55016 0.0
H858 H 0.77075 0.9657 0.64601 0.0
H859 H 0.75164 0.95012 0.628 0.0
H860 H 0.75059 0.9796 0.62704 0.0
H861 H 0.83814 0.93278 0.59987 0.0
H862 H 0.83832 0.93528 0.56619 0.0
H863 H 0.82054 0.91583 0.58147 0.0
C864 C 0.88747 0.79193 0.63346 0.0
C865 C 0.89452 0.79463 0.6583 0.0
C866 C 0.90254 0.78927 0.61387 0.0
C867 C 0.92524 0.78924 0.61923 0.0
C868 C 0.93247 0.79133 0.64434 0.0
C869 C 0.91701 0.79408 0.66358 0.0
C870 C 0.89419 0.78716 0.58733 0.0
C871 C 0.95653 0.79116 0.65079 0.0
C872 C 0.96297 0.76577 0.56941 0.0
C873 C 0.97043 0.7848 0.55735 0.0
C874 C 0.94857 0.76698 0.58987 0.0
C875 C 0.94136 0.7877 0.5984 0.0
C876 C 0.949 0.80698 0.5865 0.0
C877 C 0.96349 0.8053 0.56615 0.0
C878 C 0.94086 0.74606 0.60215 0.0
C879 C 0.94159 0.82938 0.59502 0.0
H880 H 0.87013 0.79272 0.62919 0.0
H881 H 0.92251 0.796 0.68277 0.0
H882 H 0.89999 0.80125 0.57597 0.0
H883 H 0.90077 0.77207 0.57853 0.0
H884 H 0.87602 0.78664 0.58644 0.0
H885 H 0.95942 0.79191 0.67134 0.0
H886 H 0.96439 0.77613 0.64331 0.0
H887 H 0.96475 0.80536 0.64187 0.0
H888 H 0.96831 0.74984 0.56283 0.0
H889 H 0.96917 0.82008 0.55696 0.0
H890 H 0.92285 0.74453 0.60011 0.0
H891 H 0.94449 0.74647 0.62253 0.0
H892 H 0.94868 0.73129 0.59391 0.0
H893 H 0.92356 0.83083 0.59295 0.0
H894 H 0.94944 0.84278 0.58416 0.0
H895 H 0.94544 0.83169 0.61517 0.0
C896 C 0.23132 0.89588 0.64214 0.0
C897 C 0.23095 0.87538 0.63023 0.0
C898 C 0.23361 0.91532 0.62826 0.0
C899 C 0.23563 0.91424 0.60184 0.0
C900 C 0.23528 0.89362 0.58972 0.0
C901 C 0.2329 0.87447 0.60404 0.0
C902 C 0.23397 0.937 0.64186 0.0
C903 C 0.23739 0.89177 0.56159 0.0
C904 C 0.22318 0.96419 0.56154 0.0
C905 C 0.24429 0.97179 0.55587 0.0
C906 C 0.22009 0.94572 0.5769 0.0
C907 C 0.23852 0.93461 0.58682 0.0
C908 C 0.25983 0.94248 0.5816 0.0
C909 C 0.26245 0.96095 0.56622 0.0
C910 C 0.1971 0.93784 0.5821 0.0
C911 C 0.27991 0.93111 0.59182 0.0
H912 H 0.23004 0.89673 0.66238 0.0
H913 H 0.23223 0.85876 0.59462 0.0
H914 H 0.24975 0.94545 0.63835 0.0
H915 H 0.22078 0.94779 0.63462 0.0
H916 H 0.2318 0.93507 0.66242 0.0
H917 H 0.23675 0.87451 0.55504 0.0
H918 H 0.22404 0.90108 0.55233 0.0
H919 H 0.25311 0.89907 0.55537 0.0
H920 H 0.20905 0.97245 0.55367 0.0
H921 H 0.27883 0.96669 0.56203 0.0
H922 H 0.19432 0.93668 0.60261 0.0
H923 H 0.19487 0.92118 0.57422 0.0
H924 H 0.18449 0.94883 0.57389 0.0
H925 H 0.27885 0.92982 0.61253 0.0
H926 H 0.29528 0.93981 0.58687 0.0
H927 H 0.28082 0.91418 0.58431 0.0
C928 C 0.14842 0.22265 0.63228 0.0
C929 C 0.1455 0.22228 0.65838 0.0
C930 C 0.13074 0.22642 0.61605 0.0
C931 C 0.10954 0.22971 0.62609 0.0
C932 C 0.10643 0.22937 0.65238 0.0
C933 C 0.12445 0.22573 0.66822 0.0
C934 C 0.13475 0.22674 0.5881 0.0
C935 C 0.08405 0.23279 0.66377 0.0
C936 C 0.06851 0.25867 0.58407 0.0
C937 C 0.05695 0.24099 0.57369 0.0
C938 C 0.08535 0.25525 0.60153 0.0
C939 C 0.0907 0.23364 0.60896 0.0
C940 C 0.07868 0.21576 0.59914 0.0
C941 C 0.062 0.21964 0.58155 0.0
C942 C 0.09787 0.27474 0.61145 0.0
C943 C 0.08379 0.1925 0.60679 0.0
H944 H 0.16451 0.2196 0.62446 0.0
H945 H 0.12207 0.22573 0.68835 0.0
H946 H 0.12498 0.21372 0.57889 0.0
H947 H 0.12935 0.24264 0.58013 0.0
H948 H 0.15228 0.22423 0.58333 0.0
H949 H 0.08433 0.23179 0.68457 0.0
H950 H 0.07754 0.24907 0.65825 0.0
H951 H 0.07249 0.22029 0.65653 0.0
H952 H 0.06477 0.27523 0.57811 0.0
H953 H 0.05311 0.2059 0.57371 0.0
H954 H 0.11524 0.27365 0.6055 0.0
H955 H 0.09766 0.27475 0.63224 0.0
H956 H 0.09103 0.29054 0.60469 0.0
H957 H 0.10059 0.18812 0.60066 0.0
H958 H 0.07213 0.18054 0.59855 0.0
H959 H 0.08331 0.19093 0.6275 0.0
C960 C 0.7472 0.1716 0.59785 0.0
C961 C 0.75312 0.17179 0.62325 0.0
C962 C 0.74506 0.15181 0.58466 0.0
C963 C 0.74879 0.13171 0.59722 0.0
C964 C 0.7538 0.13176 0.62315 0.0
C965 C 0.75603 0.15181 0.63582 0.0
C966 C 0.73991 0.15249 0.55698 0.0
C967 C 0.75766 0.11068 0.63728 0.0
C968 C 0.73159 0.07896 0.56441 0.0
C969 C 0.75149 0.072 0.55392 0.0
C970 C 0.73044 0.09821 0.57888 0.0
C971 C 0.74959 0.11087 0.58271 0.0
C972 C 0.76969 0.10387 0.57222 0.0
C973 C 0.77041 0.08453 0.5581 0.0
C974 C 0.70876 0.10507 0.58997 0.0
C975 C 0.79047 0.11696 0.57566 0.0
H976 H 0.74516 0.18698 0.58796 0.0
H977 H 0.76035 0.15188 0.65553 0.0
H978 H 0.75431 0.14667 0.54618 0.0
H979 H 0.72608 0.14137 0.55259 0.0
H980 H 0.73567 0.16926 0.55049 0.0
H981 H 0.75918 0.11339 0.6578 0.0
H982 H 0.74407 0.09902 0.63383 0.0
H983 H 0.77294 0.10284 0.63047 0.0
H984 H 0.71691 0.06936 0.56134 0.0
H985 H 0.78587 0.07938 0.55002 0.0
H986 H 0.70387 0.12126 0.58236 0.0
H987 H 0.71031 0.10689 0.61059 0.0
H988 H 0.69554 0.09309 0.58593 0.0
H989 H 0.78827 0.13368 0.56787 0.0
H990 H 0.80478 0.10923 0.56632 0.0
H991 H 0.79418 0.11876 0.59591 0.0
C992 C 0.89191 0.22737 0.38894 0.0
C993 C 0.89643 0.23224 0.36374 0.0
C994 C 0.90788 0.22995 0.40757 0.0
C995 C 0.92906 0.23726 0.40085 0.0
C996 C 0.93386 0.24202 0.37547 0.0
C997 C 0.91746 0.23957 0.35722 0.0
C998 C 0.90207 0.22482 0.43447 0.0
C999 C 0.95632 0.24972 0.3676 0.0
C1000 C 0.96323 0.26265 0.45264 0.0
C1001 C 0.97622 0.24488 0.46027 0.0
C1002 C 0.94808 0.26049 0.43304 0.0
C1003 C 0.94603 0.24014 0.42057 0.0
C1004 C 0.95945 0.22228 0.42776 0.0
C1005 C 0.9743 0.22483 0.44765 0.0
C1006 C 0.93385 0.27982 0.42614 0.0
C1007 C 0.95789 0.2004 0.41469 0.0
H1008 H 0.87591 0.2212 0.39414 0.0
H1009 H 0.92107 0.24356 0.33786 0.0
H1010 H 0.91279 0.21156 0.44168 0.0
H1011 H 0.90488 0.23945 0.44639 0.0
H1012 H 0.88474 0.21964 0.43663 0.0
H1013 H 0.95758 0.2522 0.34701 0.0
H1014 H 0.96029 0.26539 0.3771 0.0
H1015 H 0.96887 0.23759 0.37344 0.0
H1016 H 0.96455 0.27819 0.46234 0.0
H1017 H 0.98438 0.21107 0.45334 0.0
H1018 H 0.9164 0.27574 0.42953 0.0
H1019 H 0.93558 0.2836 0.40589 0.0
H1020 H 0.93801 0.29473 0.43708 0.0
H1021 H 0.9414 0.19327 0.41771 0.0
H1022 H 0.97035 0.18857 0.42156 0.0
H1023 H 0.96004 0.20255 0.39418 0.0
C1024 C 0.76482 0.87371 0.41982 0.0
C1025 C 0.75156 0.86859 0.39925 0.0
C1026 C 0.76196 0.89334 0.43306 0.0
C1027 C 0.7458 0.9085 0.42511 0.0
C1028 C 0.73229 0.90335 0.40433 0.0
C1029 C 0.73515 0.88327 0.39182 0.0
C1030 C 0.77641 0.89796 0.45542 0.0
C1031 C 0.71527 0.91929 0.39492 0.0
C1032 C 0.73052 0.95269 0.47238 0.0
C1033 C 0.7455 0.96918 0.46615 0.0
C1034 C 0.72983 0.93302 0.45864 0.0
C1035 C 0.74404 0.93015 0.43785 0.0
C1036 C 0.75814 0.94742 0.4306 0.0
C1037 C 0.75894 0.96657 0.44507 0.0
C1038 C 0.71492 0.91483 0.4673 0.0
C1039 C 0.77312 0.94532 0.4082 0.0
H1040 H 0.77733 0.86218 0.42568 0.0
H1041 H 0.72492 0.87923 0.37587 0.0
H1042 H 0.78701 0.9123 0.45146 0.0
H1043 H 0.76623 0.9021 0.47198 0.0
H1044 H 0.78705 0.8838 0.46025 0.0
H1045 H 0.70561 0.91252 0.37907 0.0
H1046 H 0.70388 0.9238 0.41027 0.0
H1047 H 0.72339 0.93459 0.3886 0.0
H1048 H 0.72027 0.95464 0.48882 0.0
H1049 H 0.77042 0.97942 0.44016 0.0
H1050 H 0.72494 0.9011 0.47471 0.0
H1051 H 0.70522 0.90834 0.45138 0.0
H1052 H 0.70349 0.92031 0.48225 0.0
H1053 H 0.78612 0.93313 0.41226 0.0
H1054 H 0.78106 0.96112 0.40329 0.0
H1055 H 0.76386 0.93936 0.39166 0.0
C1056 C 0.14077 0.80663 0.37518 0.0
C1057 C 0.15716 0.79273 0.3847 0.0
C1058 C 0.11961 0.80689 0.38557 0.0
C1059 C 0.11484 0.79344 0.40648 0.0
C1060 C 0.1312 0.77932 0.41611 0.0
C1061 C 0.15195 0.77885 0.40485 0.0
C1062 C 0.10241 0.82173 0.37436 0.0
C1063 C 0.12692 0.76491 0.43864 0.0
C1064 C 0.06948 0.8079 0.45229 0.0
C1065 C 0.05413 0.79143 0.44729 0.0
C1066 C 0.08903 0.80929 0.4385 0.0
C1067 C 0.09295 0.79426 0.41878 0.0
C1068 C 0.07674 0.77862 0.4125 0.0
C1069 C 0.05768 0.77714 0.42713 0.0
C1070 C 0.1061 0.82585 0.44622 0.0
C1071 C 0.07995 0.76278 0.39109 0.0
H1072 H 0.14452 0.81768 0.35988 0.0
H1073 H 0.16413 0.76756 0.412 0.0
H1074 H 0.0874 0.81223 0.37001 0.0
H1075 H 0.09777 0.83456 0.38808 0.0
H1076 H 0.10819 0.82986 0.35693 0.0
H1077 H 0.14161 0.75539 0.44432 0.0
H1078 H 0.12159 0.7751 0.45475 0.0
H1079 H 0.11348 0.75326 0.43448 0.0
H1080 H 0.06689 0.81881 0.46805 0.0
H1081 H 0.04575 0.76446 0.42317 0.0
H1082 H 0.11175 0.83539 0.42976 0.0
H1083 H 0.12058 0.81716 0.45396 0.0
H1084 H 0.09989 0.83742 0.46064 0.0
H1085 H 0.08577 0.77156 0.37412 0.0
H1086 H 0.06464 0.75387 0.3864 0.0
H1087 H 0.09266 0.75058 0.39618 0.0
C1088 C 0.23268 0.15355 0.38514 0.0
C1089 C 0.24645 0.17036 0.39387 0.0
C1090 C 0.23251 0.1328 0.39657 0.0
C1091 C 0.24586 0.1289 0.41778 0.0
C1092 C 0.25987 0.14565 0.42663 0.0
C1093 C 0.26031 0.16595 0.4143 0.0
C1094 C 0.21784 0.11512 0.38612 0.0
C1095 C 0.27412 0.1423 0.44947 0.0
C1096 C 0.23024 0.08467 0.46467 0.0
C1097 C 0.24641 0.06886 0.46018 0.0
C1098 C 0.22958 0.10414 0.45064 0.0
C1099 C 0.245 0.10749 0.43116 0.0
C1100 C 0.26056 0.09096 0.42567 0.0
C1101 C 0.26134 0.07202 0.44058 0.0
C1102 C 0.21313 0.12161 0.45757 0.0
C1103 C 0.27678 0.09355 0.40451 0.0
H1104 H 0.22163 0.15667 0.36968 0.0
H1105 H 0.27151 0.17843 0.42088 0.0
H1106 H 0.22742 0.09995 0.38272 0.0
H1107 H 0.20488 0.11105 0.39991 0.0
H1108 H 0.20988 0.12015 0.36829 0.0
H1109 H 0.28355 0.15723 0.45445 0.0
H1110 H 0.26383 0.13761 0.46576 0.0
H1111 H 0.28583 0.12872 0.44614 0.0
H1112 H 0.21884 0.08232 0.48001 0.0
H1113 H 0.27377 0.05971 0.43702 0.0
H1114 H 0.20341 0.12646 0.44092 0.0
H1115 H 0.22188 0.13644 0.46422 0.0
H1116 H 0.20173 0.11612 0.47253 0.0
H1117 H 0.26822 0.09852 0.38706 0.0
H1118 H 0.28603 0.0782 0.40084 0.0
H1119 H 0.28866 0.10666 0.40915 0.0
C1120 C 0.63415 0.78827 0.86958 0.0
C1121 C 0.65179 0.77671 0.88014 0.0
C1122 C 0.61527 0.79292 0.88368 0.0
C1123 C 0.61408 0.78602 0.90898 0.0
C1124 C 0.63234 0.77561 0.92017 0.0
C1125 C 0.65086 0.77094 0.9056 0.0
C1126 C 0.59613 0.80407 0.87109 0.0
C1127 C 0.63182 0.76809 0.94715 0.0
C1128 C 0.56923 0.8037 0.95423 0.0
C1129 C 0.55598 0.78495 0.95446 0.0
C1130 C 0.5878 0.80482 0.93864 0.0
C1131 C 0.59297 0.78688 0.92286 0.0
C1132 C 0.57888 0.76851 0.92203 0.0
C1133 C 0.56065 0.76774 0.93789 0.0
C1134 C 0.60247 0.82465 0.94005 0.0
C1135 C 0.58361 0.74912 0.90526 0.0
H1136 H 0.63485 0.7932 0.85008 0.0
H1137 H 0.66416 0.76173 0.91395 0.0
H1138 H 0.58278 0.79201 0.86822 0.0
H1139 H 0.58954 0.81735 0.88311 0.0
H1140 H 0.60067 0.81108 0.85258 0.0
H1141 H 0.64817 0.76268 0.95386 0.0
H1142 H 0.62588 0.78144 0.95951 0.0
H1143 H 0.62026 0.75417 0.94907 0.0
H1144 H 0.56568 0.81703 0.96701 0.0
H1145 H 0.55028 0.75333 0.93773 0.0
H1146 H 0.60676 0.83049 0.92098 0.0
H1147 H 0.61799 0.82014 0.94957 0.0
H1148 H 0.59474 0.83831 0.95059 0.0
H1149 H 0.58647 0.75465 0.88572 0.0
H1150 H 0.57004 0.73701 0.90525 0.0
H1151 H 0.59874 0.74076 0.9117 0.0
C1152 C 0.2587 0.64915 0.88702 0.0
C1153 C 0.26121 0.64341 0.86172 0.0
C1154 C 0.2537 0.63327 0.90516 0.0
C1155 C 0.25117 0.61113 0.89782 0.0
C1156 C 0.25211 0.60552 0.8721 0.0
C1157 C 0.25713 0.62173 0.85434 0.0
C1158 C 0.25279 0.63995 0.93239 0.0
C1159 C 0.24934 0.58213 0.86347 0.0
C1160 C 0.27087 0.5686 0.94434 0.0
C1161 C 0.2512 0.5609 0.9547 0.0
C1162 C 0.27095 0.58478 0.92575 0.0
C1163 C 0.25086 0.59359 0.91718 0.0
C1164 C 0.23089 0.58582 0.92732 0.0
C1165 C 0.23128 0.56953 0.946 0.0
C1166 C 0.29264 0.59258 0.91541 0.0
C1167 C 0.20918 0.59485 0.91861 0.0
H1168 H 0.26198 0.66582 0.89291 0.0
H1169 H 0.25867 0.61728 0.83475 0.0
H1170 H 0.23841 0.63251 0.9418 0.0
H1171 H 0.26766 0.6339 0.94215 0.0
H1172 H 0.25196 0.65803 0.93467 0.0
H1173 H 0.24741 0.58097 0.84281 0.0
H1174 H 0.26395 0.57245 0.86902 0.0
H1175 H 0.2349 0.57452 0.87257 0.0
H1176 H 0.28635 0.56204 0.95085 0.0
H1177 H 0.21601 0.56369 0.95391 0.0
H1178 H 0.29456 0.61039 0.91892 0.0
H1179 H 0.29315 0.59009 0.89482 0.0
H1180 H 0.30679 0.58387 0.92392 0.0
H1181 H 0.20834 0.61267 0.92261 0.0
H1182 H 0.19509 0.58667 0.92787 0.0
H1183 H 0.20756 0.59285 0.89802 0.0
C1184 C 0.36976 0.22637 0.91971 0.0
C1185 C 0.36807 0.2409 0.89937 0.0
C1186 C 0.38974 0.22323 0.93219 0.0
C1187 C 0.40861 0.23448 0.92377 0.0
C1188 C 0.40749 0.24744 0.9018 0.0
C1189 C 0.38721 0.25071 0.89005 0.0
C1190 C 0.39018 0.20938 0.95564 0.0
C1191 C 0.42734 0.25937 0.8919 0.0
C1192 C 0.44848 0.25604 0.97195 0.0
C1193 C 0.46587 0.24115 0.97011 0.0
C1194 C 0.42957 0.25356 0.95748 0.0
C1195 C 0.42819 0.23602 0.9402 0.0
C1196 C 0.44563 0.22077 0.93835 0.0
C1197 C 0.46424 0.22335 0.95365 0.0
C1198 C 0.41117 0.26992 0.96054 0.0
C1199 C 0.44489 0.20217 0.91975 0.0
H1200 H 0.35524 0.21817 0.92663 0.0
H1201 H 0.38624 0.26206 0.87447 0.0
H1202 H 0.40481 0.19861 0.95591 0.0
H1203 H 0.39118 0.22024 0.97228 0.0
H1204 H 0.37529 0.19906 0.95745 0.0
H1205 H 0.42478 0.26538 0.87245 0.0
H1206 H 0.43087 0.27368 0.90406 0.0
H1207 H 0.44195 0.24857 0.8922 0.0
H1208 H 0.44958 0.26963 0.98497 0.0
H1209 H 0.47775 0.21188 0.95222 0.0
H1210 H 0.39558 0.26128 0.96458 0.0
H1211 H 0.40888 0.27921 0.94285 0.0
H1212 H 0.41434 0.2818 0.97588 0.0
H1213 H 0.42958 0.19262 0.92206 0.0
H1214 H 0.45909 0.19093 0.92175 0.0
H1215 H 0.44483 0.20889 0.90041 0.0
C1216 C 0.78937 0.39162 0.87964 0.0
C1217 C 0.77921 0.37375 0.89145 0.0
C1218 C 0.7935 0.41116 0.89277 0.0
C1219 C 0.78732 0.41284 0.91828 0.0
C1220 C 0.77813 0.39448 0.93061 0.0
C1221 C 0.77412 0.37524 0.91705 0.0
C1222 C 0.80342 0.43034 0.879 0.0
C1223 C 0.77129 0.39556 0.95781 0.0
C1224 C 0.80456 0.45937 0.96146 0.0
C1225 C 0.78539 0.47203 0.96197 0.0
C1226 C 0.80595 0.44052 0.94635 0.0
C1227 C 0.78781 0.43437 0.93137 0.0
C1228 C 0.76896 0.44786 0.93075 0.0
C1229 C 0.76797 0.46644 0.94607 0.0
C1230 C 0.82634 0.42656 0.94745 0.0
C1231 C 0.74931 0.44206 0.91488 0.0
H1232 H 0.79368 0.39051 0.85997 0.0
H1233 H 0.76598 0.36171 0.92632 0.0
H1234 H 0.79077 0.44317 0.87623 0.0
H1235 H 0.81683 0.43773 0.89018 0.0
H1236 H 0.80997 0.42555 0.86036 0.0
H1237 H 0.76653 0.37926 0.9653 0.0
H1238 H 0.78479 0.40218 0.96947 0.0
H1239 H 0.75713 0.40683 0.95979 0.0
H1240 H 0.81808 0.4636 0.9737 0.0
H1241 H 0.7532 0.47631 0.94611 0.0
H1242 H 0.83178 0.42204 0.9283 0.0
H1243 H 0.82268 0.41112 0.9576 0.0
H1244 H 0.83999 0.43501 0.95723 0.0
H1245 H 0.75437 0.43889 0.89525 0.0
H1246 H 0.73672 0.45521 0.91488 0.0
H1247 H 0.74169 0.42681 0.92213 0.0
C1248 C 0.62855 0.26648 0.15773 0.0
C1249 C 0.64988 0.25977 0.15157 0.0
C1250 C 0.61075 0.26134 0.14222 0.0
C1251 C 0.61439 0.24957 0.11975 0.0
C1252 C 0.63557 0.24148 0.11426 0.0
C1253 C 0.65303 0.24651 0.13036 0.0
C1254 C 0.58833 0.26997 0.14895 0.0
C1255 C 0.64016 0.22894 0.09044 0.0
C1256 C 0.56511 0.23115 0.08142 0.0
C1257 C 0.56259 0.24894 0.06504 0.0
C1258 C 0.58202 0.23093 0.09933 0.0
C1259 C 0.59689 0.2487 0.10042 0.0
C1260 C 0.59473 0.26635 0.08338 0.0
C1261 C 0.57752 0.26634 0.06609 0.0
C1262 C 0.58365 0.21202 0.11746 0.0
C1263 C 0.61047 0.28545 0.08358 0.0
H1264 H 0.62585 0.27686 0.17391 0.0
H1265 H 0.66934 0.24076 0.12577 0.0
H1266 H 0.58417 0.28394 0.13651 0.0
H1267 H 0.57569 0.25716 0.14611 0.0
H1268 H 0.58753 0.2757 0.1687 0.0
H1269 H 0.65664 0.22123 0.0906 0.0
H1270 H 0.62769 0.21601 0.08747 0.0
H1271 H 0.63924 0.24029 0.07422 0.0
H1272 H 0.55354 0.21771 0.08069 0.0
H1273 H 0.5758 0.28 0.05324 0.0
H1274 H 0.58084 0.218 0.13684 0.0
H1275 H 0.60033 0.20482 0.11695 0.0
H1276 H 0.57155 0.19894 0.11331 0.0
H1277 H 0.60931 0.29424 0.10174 0.0
H1278 H 0.60714 0.29732 0.06825 0.0
H1279 H 0.62755 0.27948 0.08166 0.0
C1280 C 0.77344 0.63882 0.15165 0.0
C1281 C 0.77351 0.6595 0.14019 0.0
C1282 C 0.77807 0.61982 0.13779 0.0
C1283 C 0.78256 0.62155 0.11182 0.0
C1284 C 0.78404 0.64251 0.10056 0.0
C1285 C 0.77957 0.66124 0.11491 0.0
C1286 C 0.77666 0.59781 0.15059 0.0
C1287 C 0.78858 0.6451 0.07289 0.0
C1288 C 0.80075 0.57233 0.073 0.0
C1289 C 0.78071 0.56536 0.06289 0.0
C1290 C 0.80168 0.59032 0.08949 0.0
C1291 C 0.78216 0.60165 0.09572 0.0
C1292 C 0.76192 0.59446 0.08583 0.0
C1293 C 0.76144 0.57641 0.06969 0.0
C1294 C 0.8235 0.5974 0.09995 0.0
C1295 C 0.74071 0.60614 0.09183 0.0
H1296 H 0.76905 0.63745 0.17128 0.0
H1297 H 0.77947 0.67716 0.10589 0.0
H1298 H 0.76135 0.58945 0.1448 0.0
H1299 H 0.79056 0.58719 0.14493 0.0
H1300 H 0.77661 0.59937 0.17134 0.0
H1301 H 0.79203 0.66239 0.06773 0.0
H1302 H 0.80271 0.63483 0.06716 0.0
H1303 H 0.77414 0.63948 0.06204 0.0
H1304 H 0.8157 0.56385 0.06791 0.0
H1305 H 0.74586 0.57122 0.06202 0.0
H1306 H 0.82268 0.59833 0.12071 0.0
H1307 H 0.82757 0.61405 0.09302 0.0
H1308 H 0.83694 0.58606 0.09458 0.0
H1309 H 0.73799 0.60636 0.11239 0.0
H1310 H 0.72633 0.5983 0.08279 0.0
H1311 H 0.74162 0.62342 0.08545 0.0
C1312 C 0.36497 0.79268 0.10634 0.0
C1313 C 0.36545 0.78057 0.12873 0.0
C1314 C 0.38397 0.79561 0.09189 0.0
C1315 C 0.40404 0.78662 0.1003 0.0
C1316 C 0.40499 0.77589 0.12379 0.0
C1317 C 0.38568 0.77277 0.13756 0.0
C1318 C 0.38223 0.807 0.06685 0.0
C1319 C 0.42615 0.7664 0.13364 0.0
C1320 C 0.44456 0.7658 0.05213 0.0
C1321 C 0.46015 0.78263 0.05153 0.0
C1322 C 0.42605 0.76722 0.06752 0.0
C1323 C 0.42324 0.78573 0.08317 0.0
C1324 C 0.43892 0.80282 0.08272 0.0
C1325 C 0.45712 0.80118 0.06664 0.0
C1326 C 0.40952 0.74881 0.06706 0.0
C1327 C 0.43668 0.82256 0.09954 0.0
H1328 H 0.34958 0.79928 0.09961 0.0
H1329 H 0.38637 0.76318 0.15463 0.0
H1330 H 0.39543 0.81932 0.06469 0.0
H1331 H 0.38428 0.79479 0.05161 0.0
H1332 H 0.36616 0.81527 0.06435 0.0
H1333 H 0.42488 0.76164 0.15369 0.0
H1334 H 0.43054 0.75162 0.12261 0.0
H1335 H 0.43972 0.77834 0.13153 0.0
H1336 H 0.44668 0.75155 0.04025 0.0
H1337 H 0.46919 0.81419 0.06626 0.0
H1338 H 0.393 0.75537 0.06274 0.0
H1339 H 0.40864 0.74093 0.08578 0.0
H1340 H 0.41365 0.73605 0.05298 0.0
H1341 H 0.42072 0.83076 0.09623 0.0
H1342 H 0.45 0.83466 0.09653 0.0
H1343 H 0.43693 0.8173 0.11945 0.0
C1344 C 0.23595 0.39176 0.14219 0.0
C1345 C 0.24499 0.37353 0.12991 0.0
C1346 C 0.23209 0.41145 0.12927 0.0
C1347 C 0.23751 0.41296 0.10353 0.0
C1348 C 0.24536 0.39422 0.09072 0.0
C1349 C 0.24902 0.37477 0.10405 0.0
C1350 C 0.22347 0.43099 0.14352 0.0
C1351 C 0.25138 0.39511 0.06326 0.0
C1352 C 0.2223 0.46089 0.06132 0.0
C1353 C 0.24221 0.47232 0.06049 0.0
C1354 C 0.22002 0.44204 0.07631 0.0
C1355 C 0.23804 0.43461 0.09073 0.0
C1356 C 0.25767 0.44691 0.09109 0.0
C1357 C 0.25949 0.46556 0.07598 0.0
C1358 C 0.19878 0.42945 0.07563 0.0
C1359 C 0.27725 0.43969 0.10633 0.0
H1360 H 0.23246 0.39081 0.16209 0.0
H1361 H 0.25622 0.36089 0.09443 0.0
H1362 H 0.2369 0.44297 0.14636 0.0
H1363 H 0.2104 0.43937 0.13271 0.0
H1364 H 0.21688 0.42631 0.16218 0.0
H1365 H 0.25495 0.37861 0.05547 0.0
H1366 H 0.23795 0.40262 0.05221 0.0
H1367 H 0.26612 0.40552 0.06078 0.0
H1368 H 0.20887 0.46604 0.04941 0.0
H1369 H 0.27484 0.47448 0.0757 0.0
H1370 H 0.1936 0.42483 0.09486 0.0
H1371 H 0.20116 0.41406 0.06491 0.0
H1372 H 0.18543 0.43899 0.06662 0.0
H1373 H 0.27242 0.43674 0.12609 0.0
H1374 H 0.29066 0.45197 0.10604 0.0
H1375 H 0.28368 0.42402 0.09877 0.0
C1376 C 0.36933 0.28804 0.10788 0.0
C1377 C 0.36863 0.29331 0.13346 0.0
C1378 C 0.38925 0.28737 0.09479 0.0
C1379 C 0.40901 0.29204 0.10757 0.0
C1380 C 0.40843 0.29759 0.13334 0.0
C1381 C 0.38823 0.29821 0.14598 0.0
C1382 C 0.38913 0.28149 0.06728 0.0
C1383 C 0.42917 0.30256 0.14763 0.0
C1384 C 0.45989 0.26779 0.07762 0.0
C1385 C 0.4681 0.28563 0.06393 0.0
C1386 C 0.44117 0.26989 0.09266 0.0
C1387 C 0.43027 0.29032 0.09401 0.0
C1388 C 0.43891 0.30863 0.08102 0.0
C1389 C 0.45777 0.30608 0.06617 0.0
C1390 C 0.43257 0.25001 0.10633 0.0
C1391 C 0.42774 0.33068 0.08199 0.0
H1392 H 0.35422 0.28464 0.09798 0.0
H1393 H 0.38781 0.30216 0.16578 0.0
H1394 H 0.39701 0.29469 0.0562 0.0
H1395 H 0.39878 0.26632 0.0642 0.0
H1396 H 0.37231 0.27886 0.05995 0.0
H1397 H 0.42588 0.30733 0.16737 0.0
H1398 H 0.44001 0.28797 0.14761 0.0
H1399 H 0.43826 0.31603 0.13832 0.0
H1400 H 0.46782 0.25195 0.07616 0.0
H1401 H 0.46398 0.31995 0.05566 0.0
H1402 H 0.41647 0.24524 0.09842 0.0
H1403 H 0.42999 0.25383 0.12645 0.0
H1404 H 0.44384 0.23577 0.10488 0.0
H1405 H 0.41149 0.32959 0.07279 0.0
H1406 H 0.43743 0.34364 0.07248 0.0
H1407 H 0.4249 0.33565 0.10173 0.0
C1408 C 0.73642 0.37846 0.12027 0.0
C1409 C 0.73282 0.38137 0.14604 0.0
C1410 C 0.73787 0.39645 0.10398 0.0
C1411 C 0.73566 0.41794 0.11365 0.0
C1412 C 0.73191 0.42102 0.13961 0.0
C1413 C 0.73051 0.40269 0.15549 0.0
C1414 C 0.74183 0.39247 0.0764 0.0
C1415 C 0.7296 0.44367 0.15064 0.0
C1416 C 0.76141 0.4635 0.07521 0.0
C1417 C 0.74328 0.47212 0.06235 0.0
C1418 C 0.75906 0.44618 0.09229 0.0
C1419 C 0.73807 0.43716 0.09665 0.0
C1420 C 0.71962 0.446 0.08411 0.0
C1421 C 0.72243 0.46341 0.06712 0.0
C1422 C 0.77914 0.43727 0.10532 0.0
C1423 C 0.69698 0.43679 0.08827 0.0
H1424 H 0.73781 0.36202 0.11274 0.0
H1425 H 0.72788 0.40507 0.1754 0.0
H1426 H 0.72852 0.4 0.06517 0.0
H1427 H 0.75739 0.40034 0.07058 0.0
H1428 H 0.74273 0.37474 0.0718 0.0
H1429 H 0.72612 0.44326 0.17108 0.0
H1430 H 0.7449 0.45309 0.14754 0.0
H1431 H 0.7162 0.45267 0.14109 0.0
H1432 H 0.77758 0.47014 0.07177 0.0
H1433 H 0.70834 0.46995 0.05728 0.0
H1434 H 0.78173 0.41992 0.09989 0.0
H1435 H 0.7768 0.43764 0.12594 0.0
H1436 H 0.79416 0.44668 0.10063 0.0
H1437 H 0.6965 0.41942 0.08217 0.0
H1438 H 0.68422 0.44603 0.07784 0.0
H1439 H 0.69287 0.4371 0.10853 0.0
C1440 C 0.63388 0.72821 0.13783 0.0
C1441 C 0.65102 0.74243 0.13114 0.0
C1442 C 0.614 0.72808 0.12452 0.0
C1443 C 0.61139 0.74197 0.10348 0.0
C1444 C 0.62851 0.75639 0.09665 0.0
C1445 C 0.64786 0.75675 0.11081 0.0
C1446 C 0.59586 0.71295 0.13284 0.0
C1447 C 0.62657 0.77123 0.07407 0.0
C1448 C 0.57063 0.72775 0.05213 0.0
C1449 C 0.55453 0.7438 0.05578 0.0
C1450 C 0.58901 0.7266 0.06791 0.0
C1451 C 0.59093 0.74138 0.08828 0.0
C1452 C 0.57401 0.75675 0.09287 0.0
C1453 C 0.55622 0.75806 0.07627 0.0
C1454 C 0.60696 0.71039 0.06193 0.0
C1455 C 0.57504 0.77229 0.11485 0.0
H1456 H 0.63605 0.71682 0.1532 0.0
H1457 H 0.66057 0.76831 0.10578 0.0
H1458 H 0.58043 0.72231 0.13538 0.0
H1459 H 0.59278 0.70043 0.1182 0.0
H1460 H 0.59981 0.70443 0.15069 0.0
H1461 H 0.64172 0.78084 0.07068 0.0
H1462 H 0.62298 0.76137 0.05709 0.0
H1463 H 0.61275 0.78281 0.07666 0.0
H1464 H 0.56943 0.71687 0.03613 0.0
H1465 H 0.54368 0.77039 0.07918 0.0
H1466 H 0.61083 0.70028 0.07863 0.0
H1467 H 0.6221 0.71937 0.05677 0.0
H1468 H 0.60249 0.69933 0.04622 0.0
H1469 H 0.57894 0.76321 0.13232 0.0
H1470 H 0.55941 0.7813 0.11757 0.0
H1471 H 0.58829 0.78441 0.11183 0.0
C1472 C 0.28028 0.63872 0.14621 0.0
C1473 C 0.29331 0.65653 0.1391 0.0
C1474 C 0.28011 0.61937 0.13196 0.0
C1475 C 0.2927 0.61818 0.10967 0.0
C1476 C 0.30626 0.63602 0.10279 0.0
C1477 C 0.30659 0.65489 0.11779 0.0
C1478 C 0.2659 0.6005 0.14027 0.0
C1479 C 0.31947 0.63567 0.07886 0.0
C1480 C 0.3025 0.56379 0.07649 0.0
C1481 C 0.28548 0.56374 0.05888 0.0
C1482 C 0.30483 0.58118 0.09358 0.0
C1483 C 0.29021 0.59919 0.0924 0.0
C1484 C 0.27321 0.5993 0.07434 0.0
C1485 C 0.27087 0.58143 0.05807 0.0
C1486 C 0.32276 0.58022 0.11301 0.0
C1487 C 0.25764 0.61844 0.07197 0.0
H1488 H 0.27004 0.64007 0.16275 0.0
H1489 H 0.31646 0.66882 0.1122 0.0
H1490 H 0.25196 0.59859 0.12713 0.0
H1491 H 0.27536 0.58498 0.13993 0.0
H1492 H 0.25925 0.60299 0.15945 0.0
H1493 H 0.33012 0.65033 0.07694 0.0
H1494 H 0.32989 0.62081 0.07808 0.0
H1495 H 0.30823 0.63506 0.06252 0.0
H1496 H 0.31371 0.55002 0.07726 0.0
H1497 H 0.2578 0.58151 0.04431 0.0
H1498 H 0.31559 0.58169 0.13206 0.0
H1499 H 0.33414 0.5942 0.1105 0.0
H1500 H 0.33231 0.56475 0.11198 0.0
H1501 H 0.24837 0.6206 0.08967 0.0
H1502 H 0.24576 0.61626 0.0564 0.0
H1503 H 0.26699 0.63375 0.06866 0.0
C1504 C 0.37464 0.72672 0.88989 0.0
C1505 C 0.37747 0.73004 0.86404 0.0
C1506 C 0.39198 0.72978 0.90677 0.0
C1507 C 0.4128 0.73604 0.89762 0.0
C1508 C 0.41585 0.73935 0.87158 0.0
C1509 C 0.39814 0.73642 0.85512 0.0
C1510 C 0.38802 0.72621 0.93443 0.0
C1511 C 0.43786 0.74594 0.86111 0.0
C1512 C 0.45196 0.7626 0.94382 0.0
C1513 C 0.46509 0.74481 0.95105 0.0
C1514 C 0.43506 0.76003 0.92625 0.0
C1515 C 0.43132 0.73921 0.91541 0.0
C1516 C 0.44478 0.72127 0.92223 0.0
C1517 C 0.46144 0.72426 0.94007 0.0
C1518 C 0.4209 0.7795 0.91967 0.0
C1519 C 0.44143 0.69887 0.91089 0.0
H1520 H 0.35891 0.72133 0.89697 0.0
H1521 H 0.40045 0.73927 0.83524 0.0
H1522 H 0.39877 0.71291 0.94146 0.0
H1523 H 0.39222 0.74126 0.94504 0.0
H1524 H 0.37074 0.72182 0.93857 0.0
H1525 H 0.43762 0.74753 0.84037 0.0
H1526 H 0.44302 0.76182 0.86929 0.0
H1527 H 0.45041 0.73362 0.86638 0.0
H1528 H 0.4546 0.77853 0.95226 0.0
H1529 H 0.47157 0.71045 0.94545 0.0
H1530 H 0.40366 0.77615 0.92501 0.0
H1531 H 0.42117 0.78236 0.89914 0.0
H1532 H 0.42631 0.79471 0.92928 0.0
H1533 H 0.42496 0.6926 0.91593 0.0
H1534 H 0.4539 0.68686 0.91735 0.0
H1535 H 0.44214 0.69991 0.89014 0.0
C1536 C 0.28424 0.3664 0.92546 0.0
C1537 C 0.28726 0.36416 0.89951 0.0
C1538 C 0.28516 0.38696 0.93707 0.0
C1539 C 0.2893 0.40585 0.92243 0.0
C1540 C 0.29297 0.4037 0.89632 0.0
C1541 C 0.29191 0.38285 0.88515 0.0
C1542 C 0.28121 0.38851 0.96498 0.0
C1543 C 0.29746 0.42346 0.88012 0.0
C1544 C 0.26673 0.45811 0.95076 0.0
C1545 C 0.28517 0.46675 0.96295 0.0
C1546 C 0.2681 0.43884 0.93656 0.0
C1547 C 0.28843 0.42786 0.93444 0.0
C1548 C 0.30734 0.43698 0.94572 0.0
C1549 C 0.30549 0.45634 0.95987 0.0
C1550 C 0.24755 0.42969 0.92482 0.0
C1551 C 0.32932 0.42579 0.94376 0.0
H1552 H 0.28117 0.35198 0.93679 0.0
H1553 H 0.29422 0.38124 0.86509 0.0
H1554 H 0.29513 0.39693 0.97422 0.0
H1555 H 0.2663 0.39841 0.96864 0.0
H1556 H 0.27906 0.37217 0.97383 0.0
H1557 H 0.30151 0.41888 0.8605 0.0
H1558 H 0.28287 0.4343 0.8799 0.0
H1559 H 0.31122 0.43311 0.88799 0.0
H1560 H 0.25097 0.46609 0.95283 0.0
H1561 H 0.31984 0.46292 0.96914 0.0
H1562 H 0.24316 0.41402 0.9341 0.0
H1563 H 0.25032 0.4261 0.90469 0.0
H1564 H 0.23344 0.44109 0.92649 0.0
H1565 H 0.32894 0.41018 0.95442 0.0
H1566 H 0.34279 0.4361 0.95128 0.0
H1567 H 0.33301 0.42168 0.92395 0.0
C1568 C 0.65296 0.30668 0.90787 0.0
C1569 C 0.65531 0.2947 0.88567 0.0
C1570 C 0.63389 0.30495 0.92242 0.0
C1571 C 0.61657 0.29132 0.91416 0.0
C1572 C 0.61861 0.2798 0.89121 0.0
C1573 C 0.63815 0.28136 0.8774 0.0
C1574 C 0.63265 0.31704 0.94707 0.0
C1575 C 0.6003 0.26555 0.88147 0.0
C1576 C 0.5784 0.26798 0.96357 0.0
C1577 C 0.56087 0.28281 0.9629 0.0
C1578 C 0.59658 0.27058 0.94779 0.0
C1579 C 0.59697 0.28808 0.93037 0.0
C1580 C 0.57903 0.30278 0.92912 0.0
C1581 C 0.56131 0.30018 0.94571 0.0
C1582 C 0.61562 0.2549 0.95023 0.0
C1583 C 0.5786 0.32128 0.91034 0.0
H1584 H 0.66639 0.31686 0.91427 0.0
H1585 H 0.64005 0.27217 0.86014 0.0
H1586 H 0.61793 0.32768 0.94752 0.0
H1587 H 0.63105 0.3051 0.96267 0.0
H1588 H 0.64734 0.32733 0.9505 0.0
H1589 H 0.60367 0.25931 0.86229 0.0
H1590 H 0.59792 0.25134 0.89414 0.0
H1591 H 0.58471 0.27489 0.88118 0.0
H1592 H 0.57821 0.25466 0.97702 0.0
H1593 H 0.54771 0.31158 0.94507 0.0
H1594 H 0.63072 0.2641 0.95501 0.0
H1595 H 0.61861 0.24652 0.93211 0.0
H1596 H 0.6128 0.24227 0.96487 0.0
H1597 H 0.59211 0.3329 0.91428 0.0
H1598 H 0.56287 0.33043 0.91071 0.0
H1599 H 0.58124 0.31477 0.89115 0.0
C1600 C 0.73755 0.63707 0.86967 0.0
C1601 C 0.73738 0.65812 0.88022 0.0
C1602 C 0.73915 0.61831 0.88483 0.0
C1603 C 0.74051 0.62065 0.91119 0.0
C1604 C 0.74041 0.64185 0.92195 0.0
C1605 C 0.7389 0.66032 0.90634 0.0
C1606 C 0.73939 0.59599 0.87264 0.0
C1607 C 0.74175 0.64504 0.94998 0.0
C1608 C 0.72542 0.57279 0.95358 0.0
C1609 C 0.74611 0.56484 0.96054 0.0
C1610 C 0.72332 0.59074 0.93722 0.0
C1611 C 0.74237 0.60096 0.92757 0.0
C1612 C 0.76326 0.59274 0.93413 0.0
C1613 C 0.76488 0.57482 0.95051 0.0
C1614 C 0.70075 0.59904 0.93065 0.0
C1615 C 0.78396 0.60313 0.92419 0.0
H1616 H 0.73657 0.63528 0.84948 0.0
H1617 H 0.73843 0.67652 0.91465 0.0
H1618 H 0.75473 0.58725 0.87755 0.0
H1619 H 0.72558 0.586 0.87981 0.0
H1620 H 0.73813 0.59698 0.85189 0.0
H1621 H 0.74141 0.66261 0.95538 0.0
H1622 H 0.72787 0.63659 0.95927 0.0
H1623 H 0.75706 0.6376 0.9573 0.0
H1624 H 0.71082 0.56521 0.96122 0.0
H1625 H 0.78095 0.56881 0.95569 0.0
H1626 H 0.69858 0.59925 0.91 0.0
H1627 H 0.6988 0.61614 0.93735 0.0
H1628 H 0.68758 0.58886 0.93905 0.0
H1629 H 0.78364 0.60349 0.9034 0.0
H1630 H 0.79892 0.59427 0.93034 0.0
H1631 H 0.78505 0.62035 0.93072 0.0
loop_
_geom_bond_atom_site_label_1
_geom_bond_atom_site_label_2
_geom_bond_distance
_geom_bond_site_symmetry_2
_ccdc_geom_bond_type
H0 C27 0.929 . S
N1 C26 1.433 . S
N1 C32 1.435 . S
N1 C38 1.423 . S
H2 C28 0.930 . S
H3 C31 0.931 . S
H4 C30 0.929 . S
H5 C33 0.930 . S
H6 C34 0.932 . S
H7 C37 0.929 . S
H8 C36 0.931 . S
H9 C39 0.929 . S
H10 C43 0.932 . S
H11 C40 0.931 . S
H12 C42 0.929 . S
H13 C45 0.929 . S
H14 C46 0.930 . S
H15 C48 0.929 . S
H16 C49 0.931 . S
H17 C51 0.930 . S
H18 C52 0.932 . S
H19 C54 0.931 . S
H20 C55 0.929 . S
H21 C57 0.929 . S
H22 C58 0.931 . S
H23 C60 0.929 . S
N24 C44 1.433 . S
N24 C50 1.435 . S
N24 C56 1.423 . S
H25 C61 0.932 . S
C26 N1 1.433 . S
C26 C27 1.363 . S
C26 C31 1.370 . S
C27 H0 0.929 . S
C27 C26 1.363 . S
C27 C28 1.385 . S
C28 H2 0.930 . S
C28 C27 1.385 . S
C28 C29 1.357 . S
C29 C28 1.357 . S
C29 C30 1.406 . S
C30 H4 0.929 . S
C30 C29 1.406 . S
C30 C31 1.391 . S
C31 H3 0.931 . S
C31 C26 1.370 . S
C31 C30 1.391 . S
C32 N1 1.435 . S
C32 C33 1.358 . S
C32 C37 1.371 . S
C33 H5 0.930 . S
C33 C32 1.358 . S
C33 C34 1.405 . S
C34 H6 0.932 . S
C34 C33 1.405 . S
C34 C35 1.383 . S
C35 C34 1.383 . S
C35 C36 1.393 . S
C36 H8 0.931 . S
C36 C35 1.393 . S
C36 C37 1.382 . S
C37 H7 0.929 . S
C37 C32 1.371 . S
C37 C36 1.382 . S
C38 N1 1.423 . S
C38 C39 1.362 . S
C38 C43 1.388 . S
C39 H9 0.929 . S
C39 C38 1.362 . S
C39 C40 1.376 . S
C40 H11 0.931 . S
C40 C39 1.376 . S
C40 C41 1.396 . S
C41 C40 1.396 . S
C41 C42 1.348 . S
C41 C59 1.472 . S
C42 H12 0.929 . S
C42 C41 1.348 . S
C42 C43 1.443 . S
C43 H10 0.932 . S
C43 C38 1.388 . S
C43 C42 1.443 . S
C44 N24 1.433 . S
C44 C45 1.363 . S
C44 C49 1.370 . S
C45 H13 0.929 . S
C45 C44 1.363 . S
C45 C46 1.385 . S
C46 H14 0.930 . S
C46 C45 1.385 . S
C46 C47 1.357 . S
C47 C46 1.357 . S
C47 C48 1.406 . S
C48 H15 0.929 . S
C48 C47 1.406 . S
C48 C49 1.391 . S
C49 H16 0.931 . S
C49 C44 1.370 . S
C49 C48 1.391 . S
C50 N24 1.435 . S
C50 C51 1.358 . S
C50 C55 1.371 . S
C51 H17 0.930 . S
C51 C50 1.358 . S
C51 C52 1.405 . S
C52 H18 0.932 . S
C52 C51 1.405 . S
C52 C53 1.383 . S
C53 C52 1.383 . S
C53 C54 1.393 . S
C54 H19 0.931 . S
C54 C53 1.393 . S
C54 C55 1.382 . S
C55 H20 0.929 . S
C55 C50 1.371 . S
C55 C54 1.382 . S
C56 N24 1.423 . S
C56 C57 1.362 . S
C56 C61 1.388 . S
C57 H21 0.929 . S
C57 C56 1.362 . S
C57 C58 1.376 . S
C58 H22 0.931 . S
C58 C57 1.376 . S
C58 C59 1.396 . S
C59 C41 1.472 . S
C59 C58 1.396 . S
C59 C60 1.348 . S
C60 H23 0.929 . S
C60 C59 1.348 . S
C60 C61 1.443 . S
C61 H25 0.932 . S
C61 C56 1.388 . S
C61 C60 1.443 . S
H62 C89 0.929 . S
N63 C88 1.433 . S
N63 C94 1.435 . S
N63 C100 1.423 . S
H64 C90 0.930 . S
H65 C93 0.931 . S
H66 C92 0.929 . S
H67 C95 0.930 . S
H68 C96 0.932 . S
H69 C99 0.929 . S
H70 C98 0.931 . S
H71 C101 0.929 . S
H72 C105 0.932 . S
H73 C102 0.931 . S
H74 C104 0.929 . S
H75 C107 0.929 . S
H76 C108 0.930 . S
H77 C110 0.929 . S
H78 C111 0.931 . S
H79 C113 0.930 . S
H80 C114 0.932 . S
H81 C116 0.931 . S
H82 C117 0.929 . S
H83 C119 0.929 . S
H84 C120 0.931 . S
H85 C122 0.929 . S
N86 C106 1.433 . S
N86 C112 1.435 . S
N86 C118 1.423 . S
H87 C123 0.932 . S
C88 N63 1.433 . S
C88 C89 1.363 . S
C88 C93 1.370 . S
C89 H62 0.929 . S
C89 C88 1.363 . S
C89 C90 1.385 . S
C90 H64 0.930 . S
C90 C89 1.385 . S
C90 C91 1.357 . S
C91 C90 1.357 . S
C91 C92 1.406 . S
C92 H66 0.929 . S
C92 C91 1.406 . S
C92 C93 1.391 . S
C93 H65 0.931 . S
C93 C88 1.370 . S
C93 C92 1.391 . S
C94 N63 1.435 . S
C94 C95 1.358 . S
C94 C99 1.371 . S
C95 H67 0.930 . S
C95 C94 1.358 . S
C95 C96 1.405 . S
C96 H68 0.932 . S
C96 C95 1.405 . S
C96 C97 1.383 . S
C97 C96 1.383 . S
C97 C98 1.393 . S
C98 H70 0.931 . S
C98 C97 1.393 . S
C98 C99 1.382 . S
C99 H69 0.929 . S
C99 C94 1.371 . S
C99 C98 1.382 . S
C100 N63 1.423 . S
C100 C101 1.362 . S
C100 C105 1.388 . S
C101 H71 0.929 . S
C101 C100 1.362 . S
C101 C102 1.376 . S
C102 H73 0.931 . S
C102 C101 1.376 . S
C102 C103 1.396 . S
C103 C102 1.396 . S
C103 C104 1.348 . S
C103 C121 1.472 . S
C104 H74 0.929 . S
C104 C103 1.348 . S
C104 C105 1.443 . S
C105 H72 0.932 . S
C105 C100 1.388 . S
C105 C104 1.443 . S
C106 N86 1.433 . S
C106 C107 1.363 . S
C106 C111 1.370 . S
C107 H75 0.929 . S
C107 C106 1.363 . S
C107 C108 1.385 . S
C108 H76 0.930 . S
C108 C107 1.385 . S
C108 C109 1.357 . S
C109 C108 1.357 . S
C109 C110 1.406 . S
C110 H77 0.929 . S
C110 C109 1.406 . S
C110 C111 1.391 . S
C111 H78 0.931 . S
C111 C106 1.370 . S
C111 C110 1.391 . S
C112 N86 1.435 . S
C112 C113 1.358 . S
C112 C117 1.371 . S
C113 H79 0.930 . S
C113 C112 1.358 . S
C113 C114 1.405 . S
C114 H80 0.932 . S
C114 C113 1.405 . S
C114 C115 1.383 . S
C115 C114 1.383 . S
C115 C116 1.393 . S
C116 H81 0.931 . S
C116 C115 1.393 . S
C116 C117 1.382 . S
C117 H82 0.929 . S
C117 C112 1.371 . S
C117 C116 1.382 . S
C118 N86 1.423 . S
C118 C119 1.362 . S
C118 C123 1.388 . S
C119 H83 0.929 . S
C119 C118 1.362 . S
C119 C120 1.376 . S
C120 H84 0.931 . S
C120 C119 1.376 . S
C120 C121 1.396 . S
C121 C103 1.472 . S
C121 C120 1.396 . S
C121 C122 1.348 . S
C122 H85 0.929 . S
C122 C121 1.348 . S
C122 C123 1.443 . S
C123 H87 0.932 . S
C123 C118 1.388 . S
C123 C122 1.443 . S
H124 C151 0.929 . S
N125 C150 1.433 . S
N125 C156 1.435 . S
N125 C162 1.423 . S
H126 C152 0.930 . S
H127 C155 0.931 . S
H128 C154 0.929 . S
H129 C157 0.930 . S
H130 C158 0.932 . S
H131 C161 0.929 . S
H132 C160 0.931 . S
H133 C163 0.929 . S
H134 C167 0.932 . S
H135 C164 0.931 . S
H136 C166 0.929 . S
H137 C169 0.929 . S
H138 C170 0.930 . S
H139 C172 0.929 . S
H140 C173 0.931 . S
H141 C175 0.930 . S
H142 C176 0.932 . S
H143 C178 0.931 . S
H144 C179 0.929 . S
H145 C181 0.929 . S
H146 C182 0.931 . S
H147 C184 0.929 . S
N148 C168 1.433 . S
N148 C174 1.435 . S
N148 C180 1.423 . S
H149 C185 0.932 . S
C150 N125 1.433 . S
C150 C151 1.363 . S
C150 C155 1.370 . S
C151 H124 0.929 . S
C151 C150 1.363 . S
C151 C152 1.385 . S
C152 H126 0.930 . S
C152 C151 1.385 . S
C152 C153 1.357 . S
C153 C152 1.357 . S
C153 C154 1.406 . S
C154 H128 0.929 . S
C154 C153 1.406 . S
C154 C155 1.391 . S
C155 H127 0.931 . S
C155 C150 1.370 . S
C155 C154 1.391 . S
C156 N125 1.435 . S
C156 C157 1.358 . S
C156 C161 1.371 . S
C157 H129 0.930 . S
C157 C156 1.358 . S
C157 C158 1.405 . S
C158 H130 0.932 . S
C158 C157 1.405 . S
C158 C159 1.383 . S
C159 C158 1.383 . S
C159 C160 1.393 . S
C160 H132 0.931 . S
C160 C159 1.393 . S
C160 C161 1.382 . S
C161 H131 0.929 . S
C161 C156 1.371 . S
C161 C160 1.382 . S
C162 N125 1.423 . S
C162 C163 1.362 . S
C162 C167 1.388 . S
C163 H133 0.929 . S
C163 C162 1.362 . S
C163 C164 1.376 . S
C164 H135 0.931 . S
C164 C163 1.376 . S
C164 C165 1.396 . S
C165 C164 1.396 . S
C165 C166 1.348 . S
C165 C183 1.472 . S
C166 H136 0.929 . S
C166 C165 1.348 . S
C166 C167 1.443 . S
C167 H134 0.932 . S
C167 C162 1.388 . S
C167 C166 1.443 . S
C168 N148 1.433 . S
C168 C169 1.363 . S
C168 C173 1.370 . S
C169 H137 0.929 . S
C169 C168 1.363 . S
C169 C170 1.385 . S
C170 H138 0.930 . S
C170 C169 1.385 . S
C170 C171 1.357 . S
C171 C170 1.357 . S
C171 C172 1.406 . S
C172 H139 0.929 . S
C172 C171 1.406 . S
C172 C173 1.391 . S
C173 H140 0.931 . S
C173 C168 1.370 . S
C173 C172 1.391 . S
C174 N148 1.435 . S
C174 C175 1.358 . S
C174 C179 1.371 . S
C175 H141 0.930 . S
C175 C174 1.358 . S
C175 C176 1.405 . S
C176 H142 0.932 . S
C176 C175 1.405 . S
C176 C177 1.383 . S
C177 C176 1.383 . S
C177 C178 1.393 . S
C178 H143 0.931 . S
C178 C177 1.393 . S
C178 C179 1.382 . S
C179 H144 0.929 . S
C179 C174 1.371 . S
C179 C178 1.382 . S
C180 N148 1.423 . S
C180 C181 1.362 . S
C180 C185 1.388 . S
C181 H145 0.929 . S
C181 C180 1.362 . S
C181 C182 1.376 . S
C182 H146 0.931 . S
C182 C181 1.376 . S
C182 C183 1.396 . S
C183 C165 1.472 . S
C183 C182 1.396 . S
C183 C184 1.348 . S
C184 H147 0.929 . S
C184 C183 1.348 . S
C184 C185 1.443 . S
C185 H149 0.932 . S
C185 C180 1.388 . S
C185 C184 1.443 . S
H186 C213 0.929 . S
N187 C212 1.433 . S
N187 C218 1.435 . S
N187 C224 1.423 . S
H188 C214 0.930 . S
H189 C217 0.931 . S
H190 C216 0.929 . S
H191 C219 0.930 . S
H192 C220 0.932 . S
H193 C223 0.929 . S
H194 C222 0.931 . S
H195 C225 0.929 . S
H196 C229 0.932 . S
H197 C226 0.931 . S
H198 C228 0.929 . S
H199 C231 0.929 . S
H200 C232 0.930 . S
H201 C234 0.929 . S
H202 C235 0.931 . S
H203 C237 0.930 . S
H204 C238 0.932 . S
H205 C240 0.931 . S
H206 C241 0.929 . S
H207 C243 0.929 . S
H208 C244 0.931 . S
H209 C246 0.929 . S
N210 C230 1.433 . S
N210 C236 1.435 . S
N210 C242 1.423 . S
H211 C247 0.932 . S
C212 N187 1.433 . S
C212 C213 1.363 . S
C212 C217 1.370 . S
C213 H186 0.929 . S
C213 C212 1.363 . S
C213 C214 1.385 . S
C214 H188 0.930 . S
C214 C213 1.385 . S
C214 C215 1.357 . S
C215 C214 1.357 . S
C215 C216 1.406 . S
C216 H190 0.929 . S
C216 C215 1.406 . S
C216 C217 1.391 . S
C217 H189 0.931 . S
C217 C212 1.370 . S
C217 C216 1.391 . S
C218 N187 1.435 . S
C218 C219 1.358 . S
C218 C223 1.371 . S
C219 H191 0.930 . S
C219 C218 1.358 . S
C219 C220 1.405 . S
C220 H192 0.932 . S
C220 C219 1.405 . S
C220 C221 1.383 . S
C221 C220 1.383 . S
C221 C222 1.393 . S
C222 H194 0.931 . S
C222 C221 1.393 . S
C222 C223 1.382 . S
C223 H193 0.929 . S
C223 C218 1.371 . S
C223 C222 1.382 . S
C224 N187 1.423 . S
C224 C225 1.362 . S
C224 C229 1.388 . S
C225 H195 0.929 . S
C225 C224 1.362 . S
C225 C226 1.376 . S
C226 H197 0.931 . S
C226 C225 1.376 . S
C226 C227 1.396 . S
C227 C226 1.396 . S
C227 C228 1.348 . S
C227 C245 1.472 . S
C228 H198 0.929 . S
C228 C227 1.348 . S
C228 C229 1.443 . S
C229 H196 0.932 . S
C229 C224 1.388 . S
C229 C228 1.443 . S
C230 N210 1.433 . S
C230 C231 1.363 . S
C230 C235 1.370 . S
C231 H199 0.929 . S
C231 C230 1.363 . S
C231 C232 1.385 . S
C232 H200 0.930 . S
C232 C231 1.385 . S
C232 C233 1.357 . S
C233 C232 1.357 . S
C233 C234 1.406 . S
C234 H201 0.929 . S
C234 C233 1.406 . S
C234 C235 1.391 . S
C235 H202 0.931 . S
C235 C230 1.370 . S
C235 C234 1.391 . S
C236 N210 1.435 . S
C236 C237 1.358 . S
C236 C241 1.371 . S
C237 H203 0.930 . S
C237 C236 1.358 . S
C237 C238 1.405 . S
C238 H204 0.932 . S
C238 C237 1.405 . S
C238 C239 1.383 . S
C239 C238 1.383 . S
C239 C240 1.393 . S
C240 H205 0.931 . S
C240 C239 1.393 . S
C240 C241 1.382 . S
C241 H206 0.929 . S
C241 C236 1.371 . S
C241 C240 1.382 . S
C242 N210 1.423 . S
C242 C243 1.362 . S
C242 C247 1.388 . S
C243 H207 0.929 . S
C243 C242 1.362 . S
C243 C244 1.376 . S
C244 H208 0.931 . S
C244 C243 1.376 . S
C244 C245 1.396 . S
C245 C227 1.472 . S
C245 C244 1.396 . S
C245 C246 1.348 . S
C246 H209 0.929 . S
C246 C245 1.348 . S
C246 C247 1.443 . S
C247 H211 0.932 . S
C247 C242 1.388 . S
C247 C246 1.443 . S
H248 C275 0.929 . S
N249 C274 1.433 . S
N249 C280 1.435 . S
N249 C286 1.423 . S
H250 C276 0.930 . S
H251 C279 0.931 . S
H252 C278 0.929 . S
H253 C281 0.930 . S
H254 C282 0.932 . S
H255 C285 0.929 . S
H256 C284 0.931 . S
H257 C287 0.929 . S
H258 C291 0.932 . S
H259 C288 0.931 . S
H260 C290 0.929 . S
H261 C293 0.929 . S
H262 C294 0.930 . S
H263 C296 0.929 . S
H264 C297 0.931 . S
H265 C299 0.930 . S
H266 C300 0.932 . S
H267 C302 0.931 . S
H268 C303 0.929 . S
H269 C305 0.929 . S
H270 C306 0.931 . S
H271 C308 0.929 . S
N272 C292 1.433 . S
N272 C298 1.435 . S
N272 C304 1.423 . S
H273 C309 0.932 . S
C274 N249 1.433 . S
C274 C275 1.363 . S
C274 C279 1.370 . S
C275 H248 0.929 . S
C275 C274 1.363 . S
C275 C276 1.385 . S
C276 H250 0.930 . S
C276 C275 1.385 . S
C276 C277 1.357 . S
C277 C276 1.357 . S
C277 C278 1.406 . S
C278 H252 0.929 . S
C278 C277 1.406 . S
C278 C279 1.391 . S
C279 H251 0.931 . S
C279 C274 1.370 . S
C279 C278 1.391 . S
C280 N249 1.435 . S
C280 C281 1.358 . S
C280 C285 1.371 . S
C281 H253 0.930 . S
C281 C280 1.358 . S
C281 C282 1.405 . S
C282 H254 0.932 . S
C282 C281 1.405 . S
C282 C283 1.383 . S
C283 C282 1.383 . S
C283 C284 1.393 . S
C284 H256 0.931 . S
C284 C283 1.393 . S
C284 C285 1.382 . S
C285 H255 0.929 . S
C285 C280 1.371 . S
C285 C284 1.382 . S
C286 N249 1.423 . S
C286 C287 1.362 . S
C286 C291 1.388 . S
C287 H257 0.929 . S
C287 C286 1.362 . S
C287 C288 1.376 . S
C288 H259 0.931 . S
C288 C287 1.376 . S
C288 C289 1.396 . S
C289 C288 1.396 . S
C289 C290 1.348 . S
C289 C307 1.472 . S
C290 H260 0.929 . S
C290 C289 1.348 . S
C290 C291 1.443 . S
C291 H258 0.932 . S
C291 C286 1.388 . S
C291 C290 1.443 . S
C292 N272 1.433 . S
C292 C293 1.363 . S
C292 C297 1.370 . S
C293 H261 0.929 . S
C293 C292 1.363 . S
C293 C294 1.385 . S
C294 H262 0.930 . S
C294 C293 1.385 . S
C294 C295 1.357 . S
C295 C294 1.357 . S
C295 C296 1.406 . S
C296 H263 0.929 . S
C296 C295 1.406 . S
C296 C297 1.391 . S
C297 H264 0.931 . S
C297 C292 1.370 . S
C297 C296 1.391 . S
C298 N272 1.435 . S
C298 C299 1.358 . S
C298 C303 1.371 . S
C299 H265 0.930 . S
C299 C298 1.358 . S
C299 C300 1.405 . S
C300 H266 0.932 . S
C300 C299 1.405 . S
C300 C301 1.383 . S
C301 C300 1.383 . S
C301 C302 1.393 . S
C302 H267 0.931 . S
C302 C301 1.393 . S
C302 C303 1.382 . S
C303 H268 0.929 . S
C303 C298 1.371 . S
C303 C302 1.382 . S
C304 N272 1.423 . S
C304 C305 1.362 . S
C304 C309 1.388 . S
C305 H269 0.929 . S
C305 C304 1.362 . S
C305 C306 1.376 . S
C306 H270 0.931 . S
C306 C305 1.376 . S
C306 C307 1.396 . S
C307 C289 1.472 . S
C307 C306 1.396 . S
C307 C308 1.348 . S
C308 H271 0.929 . S
C308 C307 1.348 . S
C308 C309 1.443 . S
C309 H273 0.932 . S
C309 C304 1.388 . S
C309 C308 1.443 . S
H310 C337 0.929 . S
N311 C336 1.433 . S
N311 C342 1.435 . S
N311 C348 1.423 . S
H312 C338 0.930 . S
H313 C341 0.931 . S
H314 C340 0.929 . S
H315 C343 0.930 . S
H316 C344 0.932 . S
H317 C347 0.929 . S
H318 C346 0.931 . S
H319 C349 0.929 . S
H320 C353 0.932 . S
H321 C350 0.931 . S
H322 C352 0.929 . S
H323 C355 0.929 . S
H324 C356 0.930 . S
H325 C358 0.929 . S
H326 C359 0.931 . S
H327 C361 0.930 . S
H328 C362 0.932 . S
H329 C364 0.931 . S
H330 C365 0.929 . S
H331 C367 0.929 . S
H332 C368 0.931 . S
H333 C370 0.929 . S
N334 C354 1.433 . S
N334 C360 1.435 . S
N334 C366 1.423 . S
H335 C371 0.932 . S
C336 N311 1.433 . S
C336 C337 1.363 . S
C336 C341 1.370 . S
C337 H310 0.929 . S
C337 C336 1.363 . S
C337 C338 1.385 . S
C338 H312 0.930 . S
C338 C337 1.385 . S
C338 C339 1.357 . S
C339 C338 1.357 . S
C339 C340 1.406 . S
C340 H314 0.929 . S
C340 C339 1.406 . S
C340 C341 1.391 . S
C341 H313 0.931 . S
C341 C336 1.370 . S
C341 C340 1.391 . S
C342 N311 1.435 . S
C342 C343 1.358 . S
C342 C347 1.371 . S
C343 H315 0.930 . S
C343 C342 1.358 . S
C343 C344 1.405 . S
C344 H316 0.932 . S
C344 C343 1.405 . S
C344 C345 1.383 . S
C345 C344 1.383 . S
C345 C346 1.393 . S
C346 H318 0.931 . S
C346 C345 1.393 . S
C346 C347 1.382 . S
C347 H317 0.929 . S
C347 C342 1.371 . S
C347 C346 1.382 . S
C348 N311 1.423 . S
C348 C349 1.362 . S
C348 C353 1.388 . S
C349 H319 0.929 . S
C349 C348 1.362 . S
C349 C350 1.376 . S
C350 H321 0.931 . S
C350 C349 1.376 . S
C350 C351 1.396 . S
C351 C350 1.396 . S
C351 C352 1.348 . S
C351 C369 1.472 . S
C352 H322 0.929 . S
C352 C351 1.348 . S
C352 C353 1.443 . S
C353 H320 0.932 . S
C353 C348 1.388 . S
C353 C352 1.443 . S
C354 N334 1.433 . S
C354 C355 1.363 . S
C354 C359 1.370 . S
C355 H323 0.929 . S
C355 C354 1.363 . S
C355 C356 1.385 . S
C356 H324 0.930 . S
C356 C355 1.385 . S
C356 C357 1.357 . S
C357 C356 1.357 . S
C357 C358 1.406 . S
C358 H325 0.929 . S
C358 C357 1.406 . S
C358 C359 1.391 . S
C359 H326 0.931 . S
C359 C354 1.370 . S
C359 C358 1.391 . S
C360 N334 1.435 . S
C360 C361 1.358 . S
C360 C365 1.371 . S
C361 H327 0.930 . S
C361 C360 1.358 . S
C361 C362 1.405 . S
C362 H328 0.932 . S
C362 C361 1.405 . S
C362 C363 1.383 . S
C363 C362 1.383 . S
C363 C364 1.393 . S
C364 H329 0.931 . S
C364 C363 1.393 . S
C364 C365 1.382 . S
C365 H330 0.929 . S
C365 C360 1.371 . S
C365 C364 1.382 . S
C366 N334 1.423 . S
C366 C367 1.362 . S
C366 C371 1.388 . S
C367 H331 0.929 . S
C367 C366 1.362 . S
C367 C368 1.376 . S
C368 H332 0.931 . S
C368 C367 1.376 . S
C368 C369 1.396 . S
C369 C351 1.472 . S
C369 C368 1.396 . S
C369 C370 1.348 . S
C370 H333 0.929 . S
C370 C369 1.348 . S
C370 C371 1.443 . S
C371 H335 0.932 . S
C371 C366 1.388 . S
C371 C370 1.443 . S
H372 C399 0.929 . S
N373 C398 1.433 . S
N373 C404 1.435 . S
N373 C410 1.423 . S
H374 C400 0.930 . S
H375 C403 0.931 . S
H376 C402 0.929 . S
H377 C405 0.930 . S
H378 C406 0.932 . S
H379 C409 0.929 . S
H380 C408 0.931 . S
H381 C411 0.929 . S
H382 C415 0.932 . S
H383 C412 0.931 . S
H384 C414 0.929 . S
H385 C417 0.929 . S
H386 C418 0.930 . S
H387 C420 0.929 . S
H388 C421 0.931 . S
H389 C423 0.930 . S
H390 C424 0.932 . S
H391 C426 0.931 . S
H392 C427 0.929 . S
H393 C429 0.929 . S
H394 C430 0.931 . S
H395 C432 0.929 . S
N396 C416 1.433 . S
N396 C422 1.435 . S
N396 C428 1.423 . S
H397 C433 0.932 . S
C398 N373 1.433 . S
C398 C399 1.363 . S
C398 C403 1.370 . S
C399 H372 0.929 . S
C399 C398 1.363 . S
C399 C400 1.385 . S
C400 H374 0.930 . S
C400 C399 1.385 . S
C400 C401 1.357 . S
C401 C400 1.357 . S
C401 C402 1.406 . S
C402 H376 0.929 . S
C402 C401 1.406 . S
C402 C403 1.391 . S
C403 H375 0.931 . S
C403 C398 1.370 . S
C403 C402 1.391 . S
C404 N373 1.435 . S
C404 C405 1.358 . S
C404 C409 1.371 . S
C405 H377 0.930 . S
C405 C404 1.358 . S
C405 C406 1.405 . S
C406 H378 0.932 . S
C406 C405 1.405 . S
C406 C407 1.383 . S
C407 C406 1.383 . S
C407 C408 1.393 . S
C408 H380 0.931 . S
C408 C407 1.393 . S
C408 C409 1.382 . S
C409 H379 0.929 . S
C409 C404 1.371 . S
C409 C408 1.382 . S
C410 N373 1.423 . S
C410 C411 1.362 . S
C410 C415 1.388 . S
C411 H381 0.929 . S
C411 C410 1.362 . S
C411 C412 1.376 . S
C412 H383 0.931 . S
C412 C411 1.376 . S
C412 C413 1.396 . S
C413 C412 1.396 . S
C413 C414 1.348 . S
C413 C431 1.472 . S
C414 H384 0.929 . S
C414 C413 1.348 . S
C414 C415 1.443 . S
C415 H382 0.932 . S
C415 C410 1.388 . S
C415 C414 1.443 . S
C416 N396 1.433 . S
C416 C417 1.363 . S
C416 C421 1.370 . S
C417 H385 0.929 . S
C417 C416 1.363 . S
C417 C418 1.385 . S
C418 H386 0.930 . S
C418 C417 1.385 . S
C418 C419 1.357 . S
C419 C418 1.357 . S
C419 C420 1.406 . S
C420 H387 0.929 . S
C420 C419 1.406 . S
C420 C421 1.391 . S
C421 H388 0.931 . S
C421 C416 1.370 . S
C421 C420 1.391 . S
C422 N396 1.435 . S
C422 C423 1.358 . S
C422 C427 1.371 . S
C423 H389 0.930 . S
C423 C422 1.358 . S
C423 C424 1.405 . S
C424 H390 0.932 . S
C424 C423 1.405 . S
C424 C425 1.383 . S
C425 C424 1.383 . S
C425 C426 1.393 . S
C426 H391 0.931 . S
C426 C425 1.393 . S
C426 C427 1.382 . S
C427 H392 0.929 . S
C427 C422 1.371 . S
C427 C426 1.382 . S
C428 N396 1.423 . S
C428 C429 1.362 . S
C428 C433 1.388 . S
C429 H393 0.929 . S
C429 C428 1.362 . S
C429 C430 1.376 . S
C430 H394 0.931 . S
C430 C429 1.376 . S
C430 C431 1.396 . S
C431 C413 1.472 . S
C431 C430 1.396 . S
C431 C432 1.348 . S
C432 H395 0.929 . S
C432 C431 1.348 . S
C432 C433 1.443 . S
C433 H397 0.932 . S
C433 C428 1.388 . S
C433 C432 1.443 . S
H434 C461 0.929 . S
N435 C460 1.433 . S
N435 C466 1.435 . S
N435 C472 1.423 . S
H436 C462 0.930 . S
H437 C465 0.931 . S
H438 C464 0.929 . S
H439 C467 0.930 . S
H440 C468 0.932 . S
H441 C471 0.929 . S
H442 C470 0.931 . S
H443 C473 0.929 . S
H444 C477 0.932 . S
H445 C474 0.931 . S
H446 C476 0.929 . S
H447 C479 0.929 . S
H448 C480 0.930 . S
H449 C482 0.929 . S
H450 C483 0.931 . S
H451 C485 0.930 . S
H452 C486 0.932 . S
H453 C488 0.931 . S
H454 C489 0.929 . S
H455 C491 0.929 . S
H456 C492 0.931 . S
H457 C494 0.929 . S
N458 C478 1.433 . S
N458 C484 1.435 . S
N458 C490 1.423 . S
H459 C495 0.932 . S
C460 N435 1.433 . S
C460 C461 1.363 . S
C460 C465 1.370 . S
C461 H434 0.929 . S
C461 C460 1.363 . S
C461 C462 1.385 . S
C462 H436 0.930 . S
C462 C461 1.385 . S
C462 C463 1.357 . S
C463 C462 1.357 . S
C463 C464 1.406 . S
C464 H438 0.929 . S
C464 C463 1.406 . S
C464 C465 1.391 . S
C465 H437 0.931 . S
C465 C460 1.370 . S
C465 C464 1.391 . S
C466 N435 1.435 . S
C466 C467 1.358 . S
C466 C471 1.371 . S
C467 H439 0.930 . S
C467 C466 1.358 . S
C467 C468 1.405 . S
C468 H440 0.932 . S
C468 C467 1.405 . S
C468 C469 1.383 . S
C469 C468 1.383 . S
C469 C470 1.393 . S
C470 H442 0.931 . S
C470 C469 1.393 . S
C470 C471 1.382 . S
C471 H441 0.929 . S
C471 C466 1.371 . S
C471 C470 1.382 . S
C472 N435 1.423 . S
C472 C473 1.362 . S
C472 C477 1.388 . S
C473 H443 0.929 . S
C473 C472 1.362 . S
C473 C474 1.376 . S
C474 H445 0.931 . S
C474 C473 1.376 . S
C474 C475 1.396 . S
C475 C474 1.396 . S
C475 C476 1.348 . S
C475 C493 1.472 . S
C476 H446 0.929 . S
C476 C475 1.348 . S
C476 C477 1.443 . S
C477 H444 0.932 . S
C477 C472 1.388 . S
C477 C476 1.443 . S
C478 N458 1.433 . S
C478 C479 1.363 . S
C478 C483 1.370 . S
C479 H447 0.929 . S
C479 C478 1.363 . S
C479 C480 1.385 . S
C480 H448 0.930 . S
C480 C479 1.385 . S
C480 C481 1.357 . S
C481 C480 1.357 . S
C481 C482 1.406 . S
C482 H449 0.929 . S
C482 C481 1.406 . S
C482 C483 1.391 . S
C483 H450 0.931 . S
C483 C478 1.370 . S
C483 C482 1.391 . S
C484 N458 1.435 . S
C484 C485 1.358 . S
C484 C489 1.371 . S
C485 H451 0.930 . S
C485 C484 1.358 . S
C485 C486 1.405 . S
C486 H452 0.932 . S
C486 C485 1.405 . S
C486 C487 1.383 . S
C487 C486 1.383 . S
C487 C488 1.393 . S
C488 H453 0.931 . S
C488 C487 1.393 . S
C488 C489 1.382 . S
C489 H454 0.929 . S
C489 C484 1.371 . S
C489 C488 1.382 . S
C490 N458 1.423 . S
C490 C491 1.362 . S
C490 C495 1.388 . S
C491 H455 0.929 . S
C491 C490 1.362 . S
C491 C492 1.376 . S
C492 H456 0.931 . S
C492 C491 1.376 . S
C492 C493 1.396 . S
C493 C475 1.472 . S
C493 C492 1.396 . S
C493 C494 1.348 . S
C494 H457 0.929 . S
C494 C493 1.348 . S
C494 C495 1.443 . S
C495 H459 0.932 . S
C495 C490 1.388 . S
C495 C494 1.443 . S
C496 O498 1.247 . S
C496 O500 1.258 . S
C497 O504 1.247 . S
C497 O505 1.258 . S
O498 C496 1.247 . S
O498 Zn499 2.028 1_655 S
Zn499 O498 2.028 1_455 S
Zn499 O503 2.035 . S
Zn499 O505 2.035 . S
Zn499 O506 2.028 1_455 S
O500 C496 1.258 . S
O500 Zn501 2.035 1_655 S
Zn501 O500 2.035 1_455 S
Zn501 O502 2.028 . S
Zn501 O504 2.028 . S
Zn501 O507 2.035 1_455 S
O502 Zn501 2.028 . S
O502 C508 1.247 . S
O503 Zn499 2.035 . S
O503 C508 1.258 . S
O504 C497 1.247 . S
O504 Zn501 2.028 . S
O505 C497 1.258 . S
O505 Zn499 2.035 . S
O506 Zn499 2.028 1_655 S
O506 C509 1.247 . S
O507 Zn501 2.035 1_655 S
O507 C509 1.258 . S
C508 O502 1.247 . S
C508 O503 1.258 . S
C509 O506 1.247 . S
C509 O507 1.258 . S
C510 O512 1.247 . S
C510 O514 1.258 . S
C511 O518 1.247 . S
C511 O519 1.258 . S
O512 C510 1.247 . S
O512 Zn513 2.028 . S
Zn513 O512 2.028 . S
Zn513 O517 2.035 1_545 S
Zn513 O519 2.035 1_545 S
Zn513 O520 2.028 . S
O514 C510 1.258 . S
O514 Zn515 2.035 . S
Zn515 O514 2.035 . S
Zn515 O516 2.028 1_545 S
Zn515 O518 2.028 1_545 S
Zn515 O521 2.035 . S
O516 Zn515 2.028 1_565 S
O516 C522 1.247 . S
O517 Zn513 2.035 1_565 S
O517 C522 1.258 . S
O518 C511 1.247 . S
O518 Zn515 2.028 1_565 S
O519 C511 1.258 . S
O519 Zn513 2.035 1_565 S
O520 Zn513 2.028 . S
O520 C523 1.247 . S
O521 Zn515 2.035 . S
O521 C523 1.258 . S
C522 O516 1.247 . S
C522 O517 1.258 . S
C523 O520 1.247 . S
C523 O521 1.258 . S
C524 O526 1.247 . S
C524 O528 1.258 . S
C525 O532 1.247 . S
C525 O533 1.258 . S
O526 C524 1.247 . S
O526 Zn527 2.028 1_655 S
Zn527 O526 2.028 1_455 S
Zn527 O531 2.035 . S
Zn527 O533 2.035 . S
Zn527 O534 2.028 1_455 S
O528 C524 1.258 . S
O528 Zn529 2.035 1_655 S
Zn529 O528 2.035 1_455 S
Zn529 O530 2.028 . S
Zn529 O532 2.028 . S
Zn529 O535 2.035 1_455 S
O530 Zn529 2.028 . S
O530 C536 1.247 . S
O531 Zn527 2.035 . S
O531 C536 1.258 . S
O532 C525 1.247 . S
O532 Zn529 2.028 . S
O533 C525 1.258 . S
O533 Zn527 2.035 . S
O534 Zn527 2.028 1_655 S
O534 C537 1.247 . S
O535 Zn529 2.035 1_655 S
O535 C537 1.258 . S
C536 O530 1.247 . S
C536 O531 1.258 . S
C537 O534 1.247 . S
C537 O535 1.258 . S
C538 O540 1.247 . S
C538 O542 1.258 . S
C539 O546 1.247 . S
C539 O547 1.258 . S
O540 C538 1.247 . S
O540 Zn541 2.028 . S
Zn541 O540 2.028 . S
Zn541 O545 2.035 1_545 S
Zn541 O547 2.035 1_545 S
Zn541 O548 2.028 . S
O542 C538 1.258 . S
O542 Zn543 2.035 . S
Zn543 O542 2.035 . S
Zn543 O544 2.028 1_545 S
Zn543 O546 2.028 1_545 S
Zn543 O549 2.035 . S
O544 Zn543 2.028 1_565 S
O544 C550 1.247 . S
O545 Zn541 2.035 1_565 S
O545 C550 1.258 . S
O546 C539 1.247 . S
O546 Zn543 2.028 1_565 S
O547 C539 1.258 . S
O547 Zn541 2.035 1_565 S
O548 Zn541 2.028 . S
O548 C551 1.247 . S
O549 Zn543 2.035 . S
O549 C551 1.258 . S
C550 O544 1.247 . S
C550 O545 1.258 . S
C551 O548 1.247 . S
C551 O549 1.258 . S
C552 O554 1.247 . S
C552 O556 1.258 . S
C553 O560 1.247 . S
C553 O561 1.258 . S
O554 C552 1.247 . S
O554 Zn555 2.028 . S
Zn555 O554 2.028 . S
Zn555 O559 2.035 . S
Zn555 O561 2.035 1_554 S
Zn555 O562 2.028 1_554 S
O556 C552 1.258 . S
O556 Zn557 2.035 . S
Zn557 O556 2.035 . S
Zn557 O558 2.028 . S
Zn557 O560 2.028 1_554 S
Zn557 O563 2.035 1_554 S
O558 Zn557 2.028 . S
O558 C564 1.247 . S
O559 Zn555 2.035 . S
O559 C564 1.258 . S
O560 C553 1.247 . S
O560 Zn557 2.028 1_556 S
O561 C553 1.258 . S
O561 Zn555 2.035 1_556 S
O562 Zn555 2.028 1_556 S
O562 C565 1.247 . S
O563 Zn557 2.035 1_556 S
O563 C565 1.258 . S
C564 O558 1.247 . S
C564 O559 1.258 . S
C565 O562 1.247 . S
C565 O563 1.258 . S
C566 O568 1.247 . S
C566 O570 1.258 . S
C567 O574 1.247 . S
C567 O575 1.258 . S
O568 C566 1.247 . S
O568 Zn569 2.028 . S
Zn569 O568 2.028 . S
Zn569 O573 2.035 . S
Zn569 O575 2.035 1_554 S
Zn569 O576 2.028 1_554 S
O570 C566 1.258 . S
O570 Zn571 2.035 . S
Zn571 O570 2.035 . S
Zn571 O572 2.028 . S
Zn571 O574 2.028 1_554 S
Zn571 O577 2.035 1_554 S
O572 Zn571 2.028 . S
O572 C578 1.247 . S
O573 Zn569 2.035 . S
O573 C578 1.258 . S
O574 C567 1.247 . S
O574 Zn571 2.028 1_556 S
O575 C567 1.258 . S
O575 Zn569 2.035 1_556 S
O576 Zn569 2.028 1_556 S
O576 C579 1.247 . S
O577 Zn571 2.035 1_556 S
O577 C579 1.258 . S
C578 O572 1.247 . S
C578 O573 1.258 . S
C579 O576 1.247 . S
C579 O577 1.258 . S
C580 O582 1.247 . S
C580 O584 1.258 . S
C581 O588 1.247 . S
C581 O589 1.258 . S
O582 C580 1.247 . S
O582 Zn583 2.028 1_556 S
Zn583 O582 2.028 1_554 S
Zn583 O587 2.035 1_554 S
Zn583 O589 2.035 . S
Zn583 O590 2.028 . S
O584 C580 1.258 . S
O584 Zn585 2.035 1_556 S
Zn585 O584 2.035 1_554 S
Zn585 O586 2.028 1_554 S
Zn585 O588 2.028 . S
Zn585 O591 2.035 . S
O586 Zn585 2.028 1_556 S
O586 C592 1.247 . S
O587 Zn583 2.035 1_556 S
O587 C592 1.258 . S
O588 C581 1.247 . S
O588 Zn585 2.028 . S
O589 C581 1.258 . S
O589 Zn583 2.035 . S
O590 Zn583 2.028 . S
O590 C593 1.247 . S
O591 Zn585 2.035 . S
O591 C593 1.258 . S
C592 O586 1.247 . S
C592 O587 1.258 . S
C593 O590 1.247 . S
C593 O591 1.258 . S
C594 O596 1.247 . S
C594 O598 1.258 . S
C595 O602 1.247 . S
C595 O603 1.258 . S
O596 C594 1.247 . S
O596 Zn597 2.028 . S
Zn597 O596 2.028 . S
Zn597 O601 2.035 . S
Zn597 O603 2.035 1_554 S
Zn597 O604 2.028 1_554 S
O598 C594 1.258 . S
O598 Zn599 2.035 . S
Zn599 O598 2.035 . S
Zn599 O600 2.028 . S
Zn599 O602 2.028 1_554 S
Zn599 O605 2.035 1_554 S
O600 Zn599 2.028 . S
O600 C606 1.247 . S
O601 Zn597 2.035 . S
O601 C606 1.258 . S
O602 C595 1.247 . S
O602 Zn599 2.028 1_556 S
O603 C595 1.258 . S
O603 Zn597 2.035 1_556 S
O604 Zn597 2.028 1_556 S
O604 C607 1.247 . S
O605 Zn599 2.035 1_556 S
O605 C607 1.258 . S
C606 O600 1.247 . S
C606 O601 1.258 . S
C607 O604 1.247 . S
C607 O605 1.258 . S
C608 C609 1.391 . S
C608 C610 1.394 . S
C608 H624 0.931 . S
C609 C608 1.391 . S
C609 C613 1.376 . S
C610 C608 1.394 . S
C610 C611 1.369 . S
C610 C614 1.531 . S
C611 C610 1.369 . S
C611 C612 1.410 . S
C611 C619 1.503 . S
C612 C611 1.410 . S
C612 C613 1.392 . S
C612 C615 1.511 . S
C613 C609 1.376 . S
C613 C612 1.392 . S
C613 H625 0.929 . S
C614 C610 1.531 . S
C614 H626 0.960 . S
C614 H627 0.962 . S
C614 H628 0.960 . S
C615 C612 1.511 . S
C615 H629 0.961 . S
C615 H630 0.961 . S
C615 H631 0.961 . S
C616 C617 1.370 . S
C616 C618 1.363 . S
C616 H632 0.931 . S
C617 C616 1.370 . S
C617 C621 1.408 . S
C618 C616 1.363 . S
C618 C619 1.370 . S
C618 C622 1.524 . S
C619 C611 1.503 . S
C619 C618 1.370 . S
C619 C620 1.403 . S
C620 C619 1.403 . S
C620 C621 1.404 . S
C620 C623 1.539 . S
C621 C617 1.408 . S
C621 C620 1.404 . S
C621 H633 0.930 . S
C622 C618 1.524 . S
C622 H634 0.956 . S
C622 H635 0.961 . S
C622 H636 0.961 . S
C623 C620 1.539 . S
C623 H637 0.958 . S
C623 H638 0.961 . S
C623 H639 0.960 . S
H624 C608 0.931 . S
H625 C613 0.929 . S
H626 C614 0.960 . S
H627 C614 0.962 . S
H628 C614 0.960 . S
H629 C615 0.961 . S
H630 C615 0.961 . S
H631 C615 0.961 . S
H632 C616 0.931 . S
H633 C621 0.930 . S
H634 C622 0.956 . S
H635 C622 0.961 . S
H636 C622 0.961 . S
H637 C623 0.958 . S
H638 C623 0.961 . S
H639 C623 0.960 . S
C640 C641 1.391 . S
C640 C642 1.394 . S
C640 H656 0.931 . S
C641 C640 1.391 . S
C641 C645 1.376 . S
C642 C640 1.394 . S
C642 C643 1.369 . S
C642 C646 1.531 . S
C643 C642 1.369 . S
C643 C644 1.410 . S
C643 C651 1.503 . S
C644 C643 1.410 . S
C644 C645 1.392 . S
C644 C647 1.511 . S
C645 C641 1.376 . S
C645 C644 1.392 . S
C645 H657 0.929 . S
C646 C642 1.531 . S
C646 H658 0.960 . S
C646 H659 0.962 . S
C646 H660 0.960 . S
C647 C644 1.511 . S
C647 H661 0.961 . S
C647 H662 0.961 . S
C647 H663 0.961 . S
C648 C649 1.370 . S
C648 C650 1.363 . S
C648 H664 0.931 . S
C649 C648 1.370 . S
C649 C653 1.408 . S
C650 C648 1.363 . S
C650 C651 1.370 . S
C650 C654 1.524 . S
C651 C643 1.503 . S
C651 C650 1.370 . S
C651 C652 1.403 . S
C652 C651 1.403 . S
C652 C653 1.404 . S
C652 C655 1.539 . S
C653 C649 1.408 . S
C653 C652 1.404 . S
C653 H665 0.930 . S
C654 C650 1.524 . S
C654 H666 0.956 . S
C654 H667 0.961 . S
C654 H668 0.961 . S
C655 C652 1.539 . S
C655 H669 0.958 . S
C655 H670 0.961 . S
C655 H671 0.960 . S
H656 C640 0.931 . S
H657 C645 0.929 . S
H658 C646 0.960 . S
H659 C646 0.962 . S
H660 C646 0.960 . S
H661 C647 0.961 . S
H662 C647 0.961 . S
H663 C647 0.961 . S
H664 C648 0.931 . S
H665 C653 0.930 . S
H666 C654 0.956 . S
H667 C654 0.961 . S
H668 C654 0.961 . S
H669 C655 0.958 . S
H670 C655 0.961 . S
H671 C655 0.960 . S
C672 C673 1.391 . S
C672 C674 1.394 . S
C672 H688 0.931 . S
C673 C672 1.391 . S
C673 C677 1.376 . S
C674 C672 1.394 . S
C674 C675 1.369 . S
C674 C678 1.531 . S
C675 C674 1.369 . S
C675 C676 1.410 . S
C675 C683 1.503 . S
C676 C675 1.410 . S
C676 C677 1.392 . S
C676 C679 1.511 . S
C677 C673 1.376 . S
C677 C676 1.392 . S
C677 H689 0.929 . S
C678 C674 1.531 . S
C678 H690 0.960 . S
C678 H691 0.962 . S
C678 H692 0.960 . S
C679 C676 1.511 . S
C679 H693 0.961 . S
C679 H694 0.961 . S
C679 H695 0.961 . S
C680 C681 1.370 . S
C680 C682 1.363 . S
C680 H696 0.931 . S
C681 C680 1.370 . S
C681 C685 1.408 . S
C682 C680 1.363 . S
C682 C683 1.370 . S
C682 C686 1.524 . S
C683 C675 1.503 . S
C683 C682 1.370 . S
C683 C684 1.403 . S
C684 C683 1.403 . S
C684 C685 1.404 . S
C684 C687 1.539 . S
C685 C681 1.408 . S
C685 C684 1.404 . S
C685 H697 0.930 . S
C686 C682 1.524 . S
C686 H698 0.956 . S
C686 H699 0.961 . S
C686 H700 0.961 . S
C687 C684 1.539 . S
C687 H701 0.958 . S
C687 H702 0.961 . S
C687 H703 0.960 . S
H688 C672 0.931 . S
H689 C677 0.929 . S
H690 C678 0.960 . S
H691 C678 0.962 . S
H692 C678 0.960 . S
H693 C679 0.961 . S
H694 C679 0.961 . S
H695 C679 0.961 . S
H696 C680 0.931 . S
H697 C685 0.930 . S
H698 C686 0.956 . S
H699 C686 0.961 . S
H700 C686 0.961 . S
H701 C687 0.958 . S
H702 C687 0.961 . S
H703 C687 0.960 . S
C704 C705 1.391 . S
C704 C706 1.394 . S
C704 H720 0.931 . S
C705 C704 1.391 . S
C705 C709 1.376 . S
C706 C704 1.394 . S
C706 C707 1.369 . S
C706 C710 1.531 . S
C707 C706 1.369 . S
C707 C708 1.410 . S
C707 C715 1.503 . S
C708 C707 1.410 . S
C708 C709 1.392 . S
C708 C711 1.511 . S
C709 C705 1.376 . S
C709 C708 1.392 . S
C709 H721 0.929 . S
C710 C706 1.531 . S
C710 H722 0.960 . S
C710 H723 0.962 . S
C710 H724 0.960 . S
C711 C708 1.511 . S
C711 H725 0.961 . S
C711 H726 0.961 . S
C711 H727 0.961 . S
C712 C713 1.370 . S
C712 C714 1.363 . S
C712 H728 0.931 . S
C713 C712 1.370 . S
C713 C717 1.408 . S
C714 C712 1.363 . S
C714 C715 1.370 . S
C714 C718 1.524 . S
C715 C707 1.503 . S
C715 C714 1.370 . S
C715 C716 1.403 . S
C716 C715 1.403 . S
C716 C717 1.404 . S
C716 C719 1.539 . S
C717 C713 1.408 . S
C717 C716 1.404 . S
C717 H729 0.930 . S
C718 C714 1.524 . S
C718 H730 0.956 . S
C718 H731 0.961 . S
C718 H732 0.961 . S
C719 C716 1.539 . S
C719 H733 0.958 . S
C719 H734 0.961 . S
C719 H735 0.960 . S
H720 C704 0.931 . S
H721 C709 0.929 . S
H722 C710 0.960 . S
H723 C710 0.962 . S
H724 C710 0.960 . S
H725 C711 0.961 . S
H726 C711 0.961 . S
H727 C711 0.961 . S
H728 C712 0.931 . S
H729 C717 0.930 . S
H730 C718 0.956 . S
H731 C718 0.961 . S
H732 C718 0.961 . S
H733 C719 0.958 . S
H734 C719 0.961 . S
H735 C719 0.960 . S
C736 C737 1.391 . S
C736 C738 1.394 . S
C736 H752 0.931 . S
C737 C736 1.391 . S
C737 C741 1.376 . S
C738 C736 1.394 . S
C738 C739 1.369 . S
C738 C742 1.531 . S
C739 C738 1.369 . S
C739 C740 1.410 . S
C739 C747 1.503 . S
C740 C739 1.410 . S
C740 C741 1.392 . S
C740 C743 1.511 . S
C741 C737 1.376 . S
C741 C740 1.392 . S
C741 H753 0.929 . S
C742 C738 1.531 . S
C742 H754 0.960 . S
C742 H755 0.962 . S
C742 H756 0.960 . S
C743 C740 1.511 . S
C743 H757 0.961 . S
C743 H758 0.961 . S
C743 H759 0.961 . S
C744 C745 1.370 . S
C744 C746 1.363 . S
C744 H760 0.931 . S
C745 C744 1.370 . S
C745 C749 1.408 . S
C746 C744 1.363 . S
C746 C747 1.370 . S
C746 C750 1.524 . S
C747 C739 1.503 . S
C747 C746 1.370 . S
C747 C748 1.403 . S
C748 C747 1.403 . S
C748 C749 1.404 . S
C748 C751 1.539 . S
C749 C745 1.408 . S
C749 C748 1.404 . S
C749 H761 0.930 . S
C750 C746 1.524 . S
C750 H762 0.956 . S
C750 H763 0.961 . S
C750 H764 0.961 . S
C751 C748 1.539 . S
C751 H765 0.958 . S
C751 H766 0.961 . S
C751 H767 0.960 . S
H752 C736 0.931 . S
H753 C741 0.929 . S
H754 C742 0.960 . S
H755 C742 0.962 . S
H756 C742 0.960 . S
H757 C743 0.961 . S
H758 C743 0.961 . S
H759 C743 0.961 . S
H760 C744 0.931 . S
H761 C749 0.930 . S
H762 C750 0.956 . S
H763 C750 0.961 . S
H764 C750 0.961 . S
H765 C751 0.958 . S
H766 C751 0.961 . S
H767 C751 0.960 . S
C768 C769 1.391 . S
C768 C770 1.394 . S
C768 H784 0.931 . S
C769 C768 1.391 . S
C769 C773 1.376 . S
C770 C768 1.394 . S
C770 C771 1.369 . S
C770 C774 1.531 . S
C771 C770 1.369 . S
C771 C772 1.410 . S
C771 C779 1.503 . S
C772 C771 1.410 . S
C772 C773 1.392 . S
C772 C775 1.511 . S
C773 C769 1.376 . S
C773 C772 1.392 . S
C773 H785 0.929 . S
C774 C770 1.531 . S
C774 H786 0.960 . S
C774 H787 0.962 . S
C774 H788 0.960 . S
C775 C772 1.511 . S
C775 H789 0.961 . S
C775 H790 0.961 . S
C775 H791 0.961 . S
C776 C777 1.370 . S
C776 C778 1.363 . S
C776 H792 0.931 . S
C777 C776 1.370 . S
C777 C781 1.408 . S
C778 C776 1.363 . S
C778 C779 1.370 . S
C778 C782 1.524 . S
C779 C771 1.503 . S
C779 C778 1.370 . S
C779 C780 1.403 . S
C780 C779 1.403 . S
C780 C781 1.404 . S
C780 C783 1.539 . S
C781 C777 1.408 . S
C781 C780 1.404 . S
C781 H793 0.930 . S
C782 C778 1.524 . S
C782 H794 0.956 . S
C782 H795 0.961 . S
C782 H796 0.961 . S
C783 C780 1.539 . S
C783 H797 0.958 . S
C783 H798 0.961 . S
C783 H799 0.960 . S
H784 C768 0.931 . S
H785 C773 0.929 . S
H786 C774 0.960 . S
H787 C774 0.962 . S
H788 C774 0.960 . S
H789 C775 0.961 . S
H790 C775 0.961 . S
H791 C775 0.961 . S
H792 C776 0.931 . S
H793 C781 0.930 . S
H794 C782 0.956 . S
H795 C782 0.961 . S
H796 C782 0.961 . S
H797 C783 0.958 . S
H798 C783 0.961 . S
H799 C783 0.960 . S
C800 C801 1.391 . S
C800 C802 1.394 . S
C800 H816 0.931 . S
C801 C800 1.391 . S
C801 C805 1.376 . S
C802 C800 1.394 . S
C802 C803 1.369 . S
C802 C806 1.531 . S
C803 C802 1.369 . S
C803 C804 1.410 . S
C803 C811 1.503 . S
C804 C803 1.410 . S
C804 C805 1.392 . S
C804 C807 1.511 . S
C805 C801 1.376 . S
C805 C804 1.392 . S
C805 H817 0.929 . S
C806 C802 1.531 . S
C806 H818 0.960 . S
C806 H819 0.962 . S
C806 H820 0.960 . S
C807 C804 1.511 . S
C807 H821 0.961 . S
C807 H822 0.961 . S
C807 H823 0.961 . S
C808 C809 1.370 . S
C808 C810 1.363 . S
C808 H824 0.931 . S
C809 C808 1.370 . S
C809 C813 1.408 . S
C810 C808 1.363 . S
C810 C811 1.370 . S
C810 C814 1.524 . S
C811 C803 1.503 . S
C811 C810 1.370 . S
C811 C812 1.403 . S
C812 C811 1.403 . S
C812 C813 1.404 . S
C812 C815 1.539 . S
C813 C809 1.408 . S
C813 C812 1.404 . S
C813 H825 0.930 . S
C814 C810 1.524 . S
C814 H826 0.956 . S
C814 H827 0.961 . S
C814 H828 0.961 . S
C815 C812 1.539 . S
C815 H829 0.958 . S
C815 H830 0.961 . S
C815 H831 0.960 . S
H816 C800 0.931 . S
H817 C805 0.929 . S
H818 C806 0.960 . S
H819 C806 0.962 . S
H820 C806 0.960 . S
H821 C807 0.961 . S
H822 C807 0.961 . S
H823 C807 0.961 . S
H824 C808 0.931 . S
H825 C813 0.930 . S
H826 C814 0.956 . S
H827 C814 0.961 . S
H828 C814 0.961 . S
H829 C815 0.958 . S
H830 C815 0.961 . S
H831 C815 0.960 . S
C832 C833 1.391 . S
C832 C834 1.394 . S
C832 H848 0.931 . S
C833 C832 1.391 . S
C833 C837 1.376 . S
C834 C832 1.394 . S
C834 C835 1.369 . S
C834 C838 1.531 . S
C835 C834 1.369 . S
C835 C836 1.410 . S
C835 C843 1.503 . S
C836 C835 1.410 . S
C836 C837 1.392 . S
C836 C839 1.511 . S
C837 C833 1.376 . S
C837 C836 1.392 . S
C837 H849 0.929 . S
C838 C834 1.531 . S
C838 H850 0.960 . S
C838 H851 0.962 . S
C838 H852 0.960 . S
C839 C836 1.511 . S
C839 H853 0.961 . S
C839 H854 0.961 . S
C839 H855 0.961 . S
C840 C841 1.370 . S
C840 C842 1.363 . S
C840 H856 0.931 . S
C841 C840 1.370 . S
C841 C845 1.408 . S
C842 C840 1.363 . S
C842 C843 1.370 . S
C842 C846 1.524 . S
C843 C835 1.503 . S
C843 C842 1.370 . S
C843 C844 1.403 . S
C844 C843 1.403 . S
C844 C845 1.404 . S
C844 C847 1.539 . S
C845 C841 1.408 . S
C845 C844 1.404 . S
C845 H857 0.930 . S
C846 C842 1.524 . S
C846 H858 0.956 . S
C846 H859 0.961 . S
C846 H860 0.961 . S
C847 C844 1.539 . S
C847 H861 0.958 . S
C847 H862 0.961 . S
C847 H863 0.960 . S
H848 C832 0.931 . S
H849 C837 0.929 . S
H850 C838 0.960 . S
H851 C838 0.962 . S
H852 C838 0.960 . S
H853 C839 0.961 . S
H854 C839 0.961 . S
H855 C839 0.961 . S
H856 C840 0.931 . S
H857 C845 0.930 . S
H858 C846 0.956 . S
H859 C846 0.961 . S
H860 C846 0.961 . S
H861 C847 0.958 . S
H862 C847 0.961 . S
H863 C847 0.960 . S
C864 C865 1.391 . S
C864 C866 1.394 . S
C864 H880 0.931 . S
C865 C864 1.391 . S
C865 C869 1.376 . S
C866 C864 1.394 . S
C866 C867 1.369 . S
C866 C870 1.531 . S
C867 C866 1.369 . S
C867 C868 1.410 . S
C867 C875 1.503 . S
C868 C867 1.410 . S
C868 C869 1.392 . S
C868 C871 1.511 . S
C869 C865 1.376 . S
C869 C868 1.392 . S
C869 H881 0.929 . S
C870 C866 1.531 . S
C870 H882 0.960 . S
C870 H883 0.962 . S
C870 H884 0.960 . S
C871 C868 1.511 . S
C871 H885 0.961 . S
C871 H886 0.961 . S
C871 H887 0.961 . S
C872 C873 1.370 . S
C872 C874 1.363 . S
C872 H888 0.931 . S
C873 C872 1.370 . S
C873 C877 1.408 . S
C874 C872 1.363 . S
C874 C875 1.370 . S
C874 C878 1.524 . S
C875 C867 1.503 . S
C875 C874 1.370 . S
C875 C876 1.403 . S
C876 C875 1.403 . S
C876 C877 1.404 . S
C876 C879 1.539 . S
C877 C873 1.408 . S
C877 C876 1.404 . S
C877 H889 0.930 . S
C878 C874 1.524 . S
C878 H890 0.956 . S
C878 H891 0.961 . S
C878 H892 0.961 . S
C879 C876 1.539 . S
C879 H893 0.958 . S
C879 H894 0.961 . S
C879 H895 0.960 . S
H880 C864 0.931 . S
H881 C869 0.929 . S
H882 C870 0.960 . S
H883 C870 0.962 . S
H884 C870 0.960 . S
H885 C871 0.961 . S
H886 C871 0.961 . S
H887 C871 0.961 . S
H888 C872 0.931 . S
H889 C877 0.930 . S
H890 C878 0.956 . S
H891 C878 0.961 . S
H892 C878 0.961 . S
H893 C879 0.958 . S
H894 C879 0.961 . S
H895 C879 0.960 . S
C896 C897 1.391 . S
C896 C898 1.394 . S
C896 H912 0.931 . S
C897 C896 1.391 . S
C897 C901 1.376 . S
C898 C896 1.394 . S
C898 C899 1.369 . S
C898 C902 1.531 . S
C899 C898 1.369 . S
C899 C900 1.410 . S
C899 C907 1.503 . S
C900 C899 1.410 . S
C900 C901 1.392 . S
C900 C903 1.511 . S
C901 C897 1.376 . S
C901 C900 1.392 . S
C901 H913 0.929 . S
C902 C898 1.531 . S
C902 H914 0.960 . S
C902 H915 0.962 . S
C902 H916 0.960 . S
C903 C900 1.511 . S
C903 H917 0.961 . S
C903 H918 0.961 . S
C903 H919 0.961 . S
C904 C905 1.370 . S
C904 C906 1.363 . S
C904 H920 0.931 . S
C905 C904 1.370 . S
C905 C909 1.408 . S
C906 C904 1.363 . S
C906 C907 1.370 . S
C906 C910 1.524 . S
C907 C899 1.503 . S
C907 C906 1.370 . S
C907 C908 1.403 . S
C908 C907 1.403 . S
C908 C909 1.404 . S
C908 C911 1.539 . S
C909 C905 1.408 . S
C909 C908 1.404 . S
C909 H921 0.930 . S
C910 C906 1.524 . S
C910 H922 0.956 . S
C910 H923 0.961 . S
C910 H924 0.961 . S
C911 C908 1.539 . S
C911 H925 0.958 . S
C911 H926 0.961 . S
C911 H927 0.960 . S
H912 C896 0.931 . S
H913 C901 0.929 . S
H914 C902 0.960 . S
H915 C902 0.962 . S
H916 C902 0.960 . S
H917 C903 0.961 . S
H918 C903 0.961 . S
H919 C903 0.961 . S
H920 C904 0.931 . S
H921 C909 0.930 . S
H922 C910 0.956 . S
H923 C910 0.961 . S
H924 C910 0.961 . S
H925 C911 0.958 . S
H926 C911 0.961 . S
H927 C911 0.960 . S
C928 C929 1.391 . S
C928 C930 1.394 . S
C928 H944 0.931 . S
C929 C928 1.391 . S
C929 C933 1.376 . S
C930 C928 1.394 . S
C930 C931 1.369 . S
C930 C934 1.531 . S
C931 C930 1.369 . S
C931 C932 1.410 . S
C931 C939 1.503 . S
C932 C931 1.410 . S
C932 C933 1.392 . S
C932 C935 1.511 . S
C933 C929 1.376 . S
C933 C932 1.392 . S
C933 H945 0.929 . S
C934 C930 1.531 . S
C934 H946 0.960 . S
C934 H947 0.962 . S
C934 H948 0.960 . S
C935 C932 1.511 . S
C935 H949 0.961 . S
C935 H950 0.961 . S
C935 H951 0.961 . S
C936 C937 1.370 . S
C936 C938 1.363 . S
C936 H952 0.931 . S
C937 C936 1.370 . S
C937 C941 1.408 . S
C938 C936 1.363 . S
C938 C939 1.370 . S
C938 C942 1.524 . S
C939 C931 1.503 . S
C939 C938 1.370 . S
C939 C940 1.403 . S
C940 C939 1.403 . S
C940 C941 1.404 . S
C940 C943 1.539 . S
C941 C937 1.408 . S
C941 C940 1.404 . S
C941 H953 0.930 . S
C942 C938 1.524 . S
C942 H954 0.956 . S
C942 H955 0.961 . S
C942 H956 0.961 . S
C943 C940 1.539 . S
C943 H957 0.958 . S
C943 H958 0.961 . S
C943 H959 0.960 . S
H944 C928 0.931 . S
H945 C933 0.929 . S
H946 C934 0.960 . S
H947 C934 0.962 . S
H948 C934 0.960 . S
H949 C935 0.961 . S
H950 C935 0.961 . S
H951 C935 0.961 . S
H952 C936 0.931 . S
H953 C941 0.930 . S
H954 C942 0.956 . S
H955 C942 0.961 . S
H956 C942 0.961 . S
H957 C943 0.958 . S
H958 C943 0.961 . S
H959 C943 0.960 . S
C960 C961 1.391 . S
C960 C962 1.394 . S
C960 H976 0.931 . S
C961 C960 1.391 . S
C961 C965 1.376 . S
C962 C960 1.394 . S
C962 C963 1.369 . S
C962 C966 1.531 . S
C963 C962 1.369 . S
C963 C964 1.410 . S
C963 C971 1.503 . S
C964 C963 1.410 . S
C964 C965 1.392 . S
C964 C967 1.511 . S
C965 C961 1.376 . S
C965 C964 1.392 . S
C965 H977 0.929 . S
C966 C962 1.531 . S
C966 H978 0.960 . S
C966 H979 0.962 . S
C966 H980 0.960 . S
C967 C964 1.511 . S
C967 H981 0.961 . S
C967 H982 0.961 . S
C967 H983 0.961 . S
C968 C969 1.370 . S
C968 C970 1.363 . S
C968 H984 0.931 . S
C969 C968 1.370 . S
C969 C973 1.408 . S
C970 C968 1.363 . S
C970 C971 1.370 . S
C970 C974 1.524 . S
C971 C963 1.503 . S
C971 C970 1.370 . S
C971 C972 1.403 . S
C972 C971 1.403 . S
C972 C973 1.404 . S
C972 C975 1.539 . S
C973 C969 1.408 . S
C973 C972 1.404 . S
C973 H985 0.930 . S
C974 C970 1.524 . S
C974 H986 0.956 . S
C974 H987 0.961 . S
C974 H988 0.961 . S
C975 C972 1.539 . S
C975 H989 0.958 . S
C975 H990 0.961 . S
C975 H991 0.960 . S
H976 C960 0.931 . S
H977 C965 0.929 . S
H978 C966 0.960 . S
H979 C966 0.962 . S
H980 C966 0.960 . S
H981 C967 0.961 . S
H982 C967 0.961 . S
H983 C967 0.961 . S
H984 C968 0.931 . S
H985 C973 0.930 . S
H986 C974 0.956 . S
H987 C974 0.961 . S
H988 C974 0.961 . S
H989 C975 0.958 . S
H990 C975 0.961 . S
H991 C975 0.960 . S
C992 C993 1.391 . S
C992 C994 1.394 . S
C992 H1008 0.931 . S
C993 C992 1.391 . S
C993 C997 1.376 . S
C994 C992 1.394 . S
C994 C995 1.369 . S
C994 C998 1.531 . S
C995 C994 1.369 . S
C995 C996 1.410 . S
C995 C1003 1.503 . S
C996 C995 1.410 . S
C996 C997 1.392 . S
C996 C999 1.511 . S
C997 C993 1.376 . S
C997 C996 1.392 . S
C997 H1009 0.929 . S
C998 C994 1.531 . S
C998 H1010 0.960 . S
C998 H1011 0.962 . S
C998 H1012 0.960 . S
C999 C996 1.511 . S
C999 H1013 0.961 . S
C999 H1014 0.961 . S
C999 H1015 0.961 . S
C1000 C1001 1.370 . S
C1000 C1002 1.363 . S
C1000 H1016 0.931 . S
C1001 C1000 1.370 . S
C1001 C1005 1.408 . S
C1002 C1000 1.363 . S
C1002 C1003 1.370 . S
C1002 C1006 1.524 . S
C1003 C995 1.503 . S
C1003 C1002 1.370 . S
C1003 C1004 1.403 . S
C1004 C1003 1.403 . S
C1004 C1005 1.404 . S
C1004 C1007 1.539 . S
C1005 C1001 1.408 . S
C1005 C1004 1.404 . S
C1005 H1017 0.930 . S
C1006 C1002 1.524 . S
C1006 H1018 0.956 . S
C1006 H1019 0.961 . S
C1006 H1020 0.961 . S
C1007 C1004 1.539 . S
C1007 H1021 0.958 . S
C1007 H1022 0.961 . S
C1007 H1023 0.960 . S
H1008 C992 0.931 . S
H1009 C997 0.929 . S
H1010 C998 0.960 . S
H1011 C998 0.962 . S
H1012 C998 0.960 . S
H1013 C999 0.961 . S
H1014 C999 0.961 . S
H1015 C999 0.961 . S
H1016 C1000 0.931 . S
H1017 C1005 0.930 . S
H1018 C1006 0.956 . S
H1019 C1006 0.961 . S
H1020 C1006 0.961 . S
H1021 C1007 0.958 . S
H1022 C1007 0.961 . S
H1023 C1007 0.960 . S
C1024 C1025 1.391 . S
C1024 C1026 1.394 . S
C1024 H1040 0.931 . S
C1025 C1024 1.391 . S
C1025 C1029 1.376 . S
C1026 C1024 1.394 . S
C1026 C1027 1.369 . S
C1026 C1030 1.531 . S
C1027 C1026 1.369 . S
C1027 C1028 1.410 . S
C1027 C1035 1.503 . S
C1028 C1027 1.410 . S
C1028 C1029 1.392 . S
C1028 C1031 1.511 . S
C1029 C1025 1.376 . S
C1029 C1028 1.392 . S
C1029 H1041 0.929 . S
C1030 C1026 1.531 . S
C1030 H1042 0.960 . S
C1030 H1043 0.962 . S
C1030 H1044 0.960 . S
C1031 C1028 1.511 . S
C1031 H1045 0.961 . S
C1031 H1046 0.961 . S
C1031 H1047 0.961 . S
C1032 C1033 1.370 . S
C1032 C1034 1.363 . S
C1032 H1048 0.931 . S
C1033 C1032 1.370 . S
C1033 C1037 1.408 . S
C1034 C1032 1.363 . S
C1034 C1035 1.370 . S
C1034 C1038 1.524 . S
C1035 C1027 1.503 . S
C1035 C1034 1.370 . S
C1035 C1036 1.403 . S
C1036 C1035 1.403 . S
C1036 C1037 1.404 . S
C1036 C1039 1.539 . S
C1037 C1033 1.408 . S
C1037 C1036 1.404 . S
C1037 H1049 0.930 . S
C1038 C1034 1.524 . S
C1038 H1050 0.956 . S
C1038 H1051 0.961 . S
C1038 H1052 0.961 . S
C1039 C1036 1.539 . S
C1039 H1053 0.958 . S
C1039 H1054 0.961 . S
C1039 H1055 0.960 . S
H1040 C1024 0.931 . S
H1041 C1029 0.929 . S
H1042 C1030 0.960 . S
H1043 C1030 0.962 . S
H1044 C1030 0.960 . S
H1045 C1031 0.961 . S
H1046 C1031 0.961 . S
H1047 C1031 0.961 . S
H1048 C1032 0.931 . S
H1049 C1037 0.930 . S
H1050 C1038 0.956 . S
H1051 C1038 0.961 . S
H1052 C1038 0.961 . S
H1053 C1039 0.958 . S
H1054 C1039 0.961 . S
H1055 C1039 0.960 . S
C1056 C1057 1.391 . S
C1056 C1058 1.394 . S
C1056 H1072 0.931 . S
C1057 C1056 1.391 . S
C1057 C1061 1.376 . S
C1058 C1056 1.394 . S
C1058 C1059 1.369 . S
C1058 C1062 1.531 . S
C1059 C1058 1.369 . S
C1059 C1060 1.410 . S
C1059 C1067 1.503 . S
C1060 C1059 1.410 . S
C1060 C1061 1.392 . S
C1060 C1063 1.511 . S
C1061 C1057 1.376 . S
C1061 C1060 1.392 . S
C1061 H1073 0.929 . S
C1062 C1058 1.531 . S
C1062 H1074 0.960 . S
C1062 H1075 0.962 . S
C1062 H1076 0.960 . S
C1063 C1060 1.511 . S
C1063 H1077 0.961 . S
C1063 H1078 0.961 . S
C1063 H1079 0.961 . S
C1064 C1065 1.370 . S
C1064 C1066 1.363 . S
C1064 H1080 0.931 . S
C1065 C1064 1.370 . S
C1065 C1069 1.408 . S
C1066 C1064 1.363 . S
C1066 C1067 1.370 . S
C1066 C1070 1.524 . S
C1067 C1059 1.503 . S
C1067 C1066 1.370 . S
C1067 C1068 1.403 . S
C1068 C1067 1.403 . S
C1068 C1069 1.404 . S
C1068 C1071 1.539 . S
C1069 C1065 1.408 . S
C1069 C1068 1.404 . S
C1069 H1081 0.930 . S
C1070 C1066 1.524 . S
C1070 H1082 0.956 . S
C1070 H1083 0.961 . S
C1070 H1084 0.961 . S
C1071 C1068 1.539 . S
C1071 H1085 0.958 . S
C1071 H1086 0.961 . S
C1071 H1087 0.960 . S
H1072 C1056 0.931 . S
H1073 C1061 0.929 . S
H1074 C1062 0.960 . S
H1075 C1062 0.962 . S
H1076 C1062 0.960 . S
H1077 C1063 0.961 . S
H1078 C1063 0.961 . S
H1079 C1063 0.961 . S
H1080 C1064 0.931 . S
H1081 C1069 0.930 . S
H1082 C1070 0.956 . S
H1083 C1070 0.961 . S
H1084 C1070 0.961 . S
H1085 C1071 0.958 . S
H1086 C1071 0.961 . S
H1087 C1071 0.960 . S
C1088 C1089 1.391 . S
C1088 C1090 1.394 . S
C1088 H1104 0.931 . S
C1089 C1088 1.391 . S
C1089 C1093 1.376 . S
C1090 C1088 1.394 . S
C1090 C1091 1.369 . S
C1090 C1094 1.531 . S
C1091 C1090 1.369 . S
C1091 C1092 1.410 . S
C1091 C1099 1.503 . S
C1092 C1091 1.410 . S
C1092 C1093 1.392 . S
C1092 C1095 1.511 . S
C1093 C1089 1.376 . S
C1093 C1092 1.392 . S
C1093 H1105 0.929 . S
C1094 C1090 1.531 . S
C1094 H1106 0.960 . S
C1094 H1107 0.962 . S
C1094 H1108 0.960 . S
C1095 C1092 1.511 . S
C1095 H1109 0.961 . S
C1095 H1110 0.961 . S
C1095 H1111 0.961 . S
C1096 C1097 1.370 . S
C1096 C1098 1.363 . S
C1096 H1112 0.931 . S
C1097 C1096 1.370 . S
C1097 C1101 1.408 . S
C1098 C1096 1.363 . S
C1098 C1099 1.370 . S
C1098 C1102 1.524 . S
C1099 C1091 1.503 . S
C1099 C1098 1.370 . S
C1099 C1100 1.403 . S
C1100 C1099 1.403 . S
C1100 C1101 1.404 . S
C1100 C1103 1.539 . S
C1101 C1097 1.408 . S
C1101 C1100 1.404 . S
C1101 H1113 0.930 . S
C1102 C1098 1.524 . S
C1102 H1114 0.956 . S
C1102 H1115 0.961 . S
C1102 H1116 0.961 . S
C1103 C1100 1.539 . S
C1103 H1117 0.958 . S
C1103 H1118 0.961 . S
C1103 H1119 0.960 . S
H1104 C1088 0.931 . S
H1105 C1093 0.929 . S
H1106 C1094 0.960 . S
H1107 C1094 0.962 . S
H1108 C1094 0.960 . S
H1109 C1095 0.961 . S
H1110 C1095 0.961 . S
H1111 C1095 0.961 . S
H1112 C1096 0.931 . S
H1113 C1101 0.930 . S
H1114 C1102 0.956 . S
H1115 C1102 0.961 . S
H1116 C1102 0.961 . S
H1117 C1103 0.958 . S
H1118 C1103 0.961 . S
H1119 C1103 0.960 . S
C1120 C1121 1.391 . S
C1120 C1122 1.394 . S
C1120 H1136 0.931 . S
C1121 C1120 1.391 . S
C1121 C1125 1.376 . S
C1122 C1120 1.394 . S
C1122 C1123 1.369 . S
C1122 C1126 1.531 . S
C1123 C1122 1.369 . S
C1123 C1124 1.410 . S
C1123 C1131 1.503 . S
C1124 C1123 1.410 . S
C1124 C1125 1.392 . S
C1124 C1127 1.511 . S
C1125 C1121 1.376 . S
C1125 C1124 1.392 . S
C1125 H1137 0.929 . S
C1126 C1122 1.531 . S
C1126 H1138 0.960 . S
C1126 H1139 0.962 . S
C1126 H1140 0.960 . S
C1127 C1124 1.511 . S
C1127 H1141 0.961 . S
C1127 H1142 0.961 . S
C1127 H1143 0.961 . S
C1128 C1129 1.370 . S
C1128 C1130 1.363 . S
C1128 H1144 0.931 . S
C1129 C1128 1.370 . S
C1129 C1133 1.408 . S
C1130 C1128 1.363 . S
C1130 C1131 1.370 . S
C1130 C1134 1.524 . S
C1131 C1123 1.503 . S
C1131 C1130 1.370 . S
C1131 C1132 1.403 . S
C1132 C1131 1.403 . S
C1132 C1133 1.404 . S
C1132 C1135 1.539 . S
C1133 C1129 1.408 . S
C1133 C1132 1.404 . S
C1133 H1145 0.930 . S
C1134 C1130 1.524 . S
C1134 H1146 0.956 . S
C1134 H1147 0.961 . S
C1134 H1148 0.961 . S
C1135 C1132 1.539 . S
C1135 H1149 0.958 . S
C1135 H1150 0.961 . S
C1135 H1151 0.960 . S
H1136 C1120 0.931 . S
H1137 C1125 0.929 . S
H1138 C1126 0.960 . S
H1139 C1126 0.962 . S
H1140 C1126 0.960 . S
H1141 C1127 0.961 . S
H1142 C1127 0.961 . S
H1143 C1127 0.961 . S
H1144 C1128 0.931 . S
H1145 C1133 0.930 . S
H1146 C1134 0.956 . S
H1147 C1134 0.961 . S
H1148 C1134 0.961 . S
H1149 C1135 0.958 . S
H1150 C1135 0.961 . S
H1151 C1135 0.960 . S
C1152 C1153 1.391 . S
C1152 C1154 1.394 . S
C1152 H1168 0.931 . S
C1153 C1152 1.391 . S
C1153 C1157 1.376 . S
C1154 C1152 1.394 . S
C1154 C1155 1.369 . S
C1154 C1158 1.531 . S
C1155 C1154 1.369 . S
C1155 C1156 1.410 . S
C1155 C1163 1.503 . S
C1156 C1155 1.410 . S
C1156 C1157 1.392 . S
C1156 C1159 1.511 . S
C1157 C1153 1.376 . S
C1157 C1156 1.392 . S
C1157 H1169 0.929 . S
C1158 C1154 1.531 . S
C1158 H1170 0.960 . S
C1158 H1171 0.962 . S
C1158 H1172 0.960 . S
C1159 C1156 1.511 . S
C1159 H1173 0.961 . S
C1159 H1174 0.961 . S
C1159 H1175 0.961 . S
C1160 C1161 1.370 . S
C1160 C1162 1.363 . S
C1160 H1176 0.931 . S
C1161 C1160 1.370 . S
C1161 C1165 1.408 . S
C1162 C1160 1.363 . S
C1162 C1163 1.370 . S
C1162 C1166 1.524 . S
C1163 C1155 1.503 . S
C1163 C1162 1.370 . S
C1163 C1164 1.403 . S
C1164 C1163 1.403 . S
C1164 C1165 1.404 . S
C1164 C1167 1.539 . S
C1165 C1161 1.408 . S
C1165 C1164 1.404 . S
C1165 H1177 0.930 . S
C1166 C1162 1.524 . S
C1166 H1178 0.956 . S
C1166 H1179 0.961 . S
C1166 H1180 0.961 . S
C1167 C1164 1.539 . S
C1167 H1181 0.958 . S
C1167 H1182 0.961 . S
C1167 H1183 0.960 . S
H1168 C1152 0.931 . S
H1169 C1157 0.929 . S
H1170 C1158 0.960 . S
H1171 C1158 0.962 . S
H1172 C1158 0.960 . S
H1173 C1159 0.961 . S
H1174 C1159 0.961 . S
H1175 C1159 0.961 . S
H1176 C1160 0.931 . S
H1177 C1165 0.930 . S
H1178 C1166 0.956 . S
H1179 C1166 0.961 . S
H1180 C1166 0.961 . S
H1181 C1167 0.958 . S
H1182 C1167 0.961 . S
H1183 C1167 0.960 . S
C1184 C1185 1.391 . S
C1184 C1186 1.394 . S
C1184 H1200 0.931 . S
C1185 C1184 1.391 . S
C1185 C1189 1.376 . S
C1186 C1184 1.394 . S
C1186 C1187 1.369 . S
C1186 C1190 1.531 . S
C1187 C1186 1.369 . S
C1187 C1188 1.410 . S
C1187 C1195 1.503 . S
C1188 C1187 1.410 . S
C1188 C1189 1.392 . S
C1188 C1191 1.511 . S
C1189 C1185 1.376 . S
C1189 C1188 1.392 . S
C1189 H1201 0.929 . S
C1190 C1186 1.531 . S
C1190 H1202 0.960 . S
C1190 H1203 0.962 . S
C1190 H1204 0.960 . S
C1191 C1188 1.511 . S
C1191 H1205 0.961 . S
C1191 H1206 0.961 . S
C1191 H1207 0.961 . S
C1192 C1193 1.370 . S
C1192 C1194 1.363 . S
C1192 H1208 0.931 . S
C1193 C1192 1.370 . S
C1193 C1197 1.408 . S
C1194 C1192 1.363 . S
C1194 C1195 1.370 . S
C1194 C1198 1.524 . S
C1195 C1187 1.503 . S
C1195 C1194 1.370 . S
C1195 C1196 1.403 . S
C1196 C1195 1.403 . S
C1196 C1197 1.404 . S
C1196 C1199 1.539 . S
C1197 C1193 1.408 . S
C1197 C1196 1.404 . S
C1197 H1209 0.930 . S
C1198 C1194 1.524 . S
C1198 H1210 0.956 . S
C1198 H1211 0.961 . S
C1198 H1212 0.961 . S
C1199 C1196 1.539 . S
C1199 H1213 0.958 . S
C1199 H1214 0.961 . S
C1199 H1215 0.960 . S
H1200 C1184 0.931 . S
H1201 C1189 0.929 . S
H1202 C1190 0.960 . S
H1203 C1190 0.962 . S
H1204 C1190 0.960 . S
H1205 C1191 0.961 . S
H1206 C1191 0.961 . S
H1207 C1191 0.961 . S
H1208 C1192 0.931 . S
H1209 C1197 0.930 . S
H1210 C1198 0.956 . S
H1211 C1198 0.961 . S
H1212 C1198 0.961 . S
H1213 C1199 0.958 . S
H1214 C1199 0.961 . S
H1215 C1199 0.960 . S
C1216 C1217 1.391 . S
C1216 C1218 1.394 . S
C1216 H1232 0.931 . S
C1217 C1216 1.391 . S
C1217 C1221 1.376 . S
C1218 C1216 1.394 . S
C1218 C1219 1.369 . S
C1218 C1222 1.531 . S
C1219 C1218 1.369 . S
C1219 C1220 1.410 . S
C1219 C1227 1.503 . S
C1220 C1219 1.410 . S
C1220 C1221 1.392 . S
C1220 C1223 1.511 . S
C1221 C1217 1.376 . S
C1221 C1220 1.392 . S
C1221 H1233 0.929 . S
C1222 C1218 1.531 . S
C1222 H1234 0.960 . S
C1222 H1235 0.962 . S
C1222 H1236 0.960 . S
C1223 C1220 1.511 . S
C1223 H1237 0.961 . S
C1223 H1238 0.961 . S
C1223 H1239 0.961 . S
C1224 C1225 1.370 . S
C1224 C1226 1.363 . S
C1224 H1240 0.931 . S
C1225 C1224 1.370 . S
C1225 C1229 1.408 . S
C1226 C1224 1.363 . S
C1226 C1227 1.370 . S
C1226 C1230 1.524 . S
C1227 C1219 1.503 . S
C1227 C1226 1.370 . S
C1227 C1228 1.403 . S
C1228 C1227 1.403 . S
C1228 C1229 1.404 . S
C1228 C1231 1.539 . S
C1229 C1225 1.408 . S
C1229 C1228 1.404 . S
C1229 H1241 0.930 . S
C1230 C1226 1.524 . S
C1230 H1242 0.956 . S
C1230 H1243 0.961 . S
C1230 H1244 0.961 . S
C1231 C1228 1.539 . S
C1231 H1245 0.958 . S
C1231 H1246 0.961 . S
C1231 H1247 0.960 . S
H1232 C1216 0.931 . S
H1233 C1221 0.929 . S
H1234 C1222 0.960 . S
H1235 C1222 0.962 . S
H1236 C1222 0.960 . S
H1237 C1223 0.961 . S
H1238 C1223 0.961 . S
H1239 C1223 0.961 . S
H1240 C1224 0.931 . S
H1241 C1229 0.930 . S
H1242 C1230 0.956 . S
H1243 C1230 0.961 . S
H1244 C1230 0.961 . S
H1245 C1231 0.958 . S
H1246 C1231 0.961 . S
H1247 C1231 0.960 . S
C1248 C1249 1.391 . S
C1248 C1250 1.394 . S
C1248 H1264 0.931 . S
C1249 C1248 1.391 . S
C1249 C1253 1.376 . S
C1250 C1248 1.394 . S
C1250 C1251 1.369 . S
C1250 C1254 1.531 . S
C1251 C1250 1.369 . S
C1251 C1252 1.410 . S
C1251 C1259 1.503 . S
C1252 C1251 1.410 . S
C1252 C1253 1.392 . S
C1252 C1255 1.511 . S
C1253 C1249 1.376 . S
C1253 C1252 1.392 . S
C1253 H1265 0.929 . S
C1254 C1250 1.531 . S
C1254 H1266 0.960 . S
C1254 H1267 0.962 . S
C1254 H1268 0.960 . S
C1255 C1252 1.511 . S
C1255 H1269 0.961 . S
C1255 H1270 0.961 . S
C1255 H1271 0.961 . S
C1256 C1257 1.370 . S
C1256 C1258 1.363 . S
C1256 H1272 0.931 . S
C1257 C1256 1.370 . S
C1257 C1261 1.408 . S
C1258 C1256 1.363 . S
C1258 C1259 1.370 . S
C1258 C1262 1.524 . S
C1259 C1251 1.503 . S
C1259 C1258 1.370 . S
C1259 C1260 1.403 . S
C1260 C1259 1.403 . S
C1260 C1261 1.404 . S
C1260 C1263 1.539 . S
C1261 C1257 1.408 . S
C1261 C1260 1.404 . S
C1261 H1273 0.930 . S
C1262 C1258 1.524 . S
C1262 H1274 0.956 . S
C1262 H1275 0.961 . S
C1262 H1276 0.961 . S
C1263 C1260 1.539 . S
C1263 H1277 0.958 . S
C1263 H1278 0.961 . S
C1263 H1279 0.960 . S
H1264 C1248 0.931 . S
H1265 C1253 0.929 . S
H1266 C1254 0.960 . S
H1267 C1254 0.962 . S
H1268 C1254 0.960 . S
H1269 C1255 0.961 . S
H1270 C1255 0.961 . S
H1271 C1255 0.961 . S
H1272 C1256 0.931 . S
H1273 C1261 0.930 . S
H1274 C1262 0.956 . S
H1275 C1262 0.961 . S
H1276 C1262 0.961 . S
H1277 C1263 0.958 . S
H1278 C1263 0.961 . S
H1279 C1263 0.960 . S
C1280 C1281 1.391 . S
C1280 C1282 1.394 . S
C1280 H1296 0.931 . S
C1281 C1280 1.391 . S
C1281 C1285 1.376 . S
C1282 C1280 1.394 . S
C1282 C1283 1.369 . S
C1282 C1286 1.531 . S
C1283 C1282 1.369 . S
C1283 C1284 1.410 . S
C1283 C1291 1.503 . S
C1284 C1283 1.410 . S
C1284 C1285 1.392 . S
C1284 C1287 1.511 . S
C1285 C1281 1.376 . S
C1285 C1284 1.392 . S
C1285 H1297 0.929 . S
C1286 C1282 1.531 . S
C1286 H1298 0.960 . S
C1286 H1299 0.962 . S
C1286 H1300 0.960 . S
C1287 C1284 1.511 . S
C1287 H1301 0.961 . S
C1287 H1302 0.961 . S
C1287 H1303 0.961 . S
C1288 C1289 1.370 . S
C1288 C1290 1.363 . S
C1288 H1304 0.931 . S
C1289 C1288 1.370 . S
C1289 C1293 1.408 . S
C1290 C1288 1.363 . S
C1290 C1291 1.370 . S
C1290 C1294 1.524 . S
C1291 C1283 1.503 . S
C1291 C1290 1.370 . S
C1291 C1292 1.403 . S
C1292 C1291 1.403 . S
C1292 C1293 1.404 . S
C1292 C1295 1.539 . S
C1293 C1289 1.408 . S
C1293 C1292 1.404 . S
C1293 H1305 0.930 . S
C1294 C1290 1.524 . S
C1294 H1306 0.956 . S
C1294 H1307 0.961 . S
C1294 H1308 0.961 . S
C1295 C1292 1.539 . S
C1295 H1309 0.958 . S
C1295 H1310 0.961 . S
C1295 H1311 0.960 . S
H1296 C1280 0.931 . S
H1297 C1285 0.929 . S
H1298 C1286 0.960 . S
H1299 C1286 0.962 . S
H1300 C1286 0.960 . S
H1301 C1287 0.961 . S
H1302 C1287 0.961 . S
H1303 C1287 0.961 . S
H1304 C1288 0.931 . S
H1305 C1293 0.930 . S
H1306 C1294 0.956 . S
H1307 C1294 0.961 . S
H1308 C1294 0.961 . S
H1309 C1295 0.958 . S
H1310 C1295 0.961 . S
H1311 C1295 0.960 . S
C1312 C1313 1.391 . S
C1312 C1314 1.394 . S
C1312 H1328 0.931 . S
C1313 C1312 1.391 . S
C1313 C1317 1.376 . S
C1314 C1312 1.394 . S
C1314 C1315 1.369 . S
C1314 C1318 1.531 . S
C1315 C1314 1.369 . S
C1315 C1316 1.410 . S
C1315 C1323 1.503 . S
C1316 C1315 1.410 . S
C1316 C1317 1.392 . S
C1316 C1319 1.511 . S
C1317 C1313 1.376 . S
C1317 C1316 1.392 . S
C1317 H1329 0.929 . S
C1318 C1314 1.531 . S
C1318 H1330 0.960 . S
C1318 H1331 0.962 . S
C1318 H1332 0.960 . S
C1319 C1316 1.511 . S
C1319 H1333 0.961 . S
C1319 H1334 0.961 . S
C1319 H1335 0.961 . S
C1320 C1321 1.370 . S
C1320 C1322 1.363 . S
C1320 H1336 0.931 . S
C1321 C1320 1.370 . S
C1321 C1325 1.408 . S
C1322 C1320 1.363 . S
C1322 C1323 1.370 . S
C1322 C1326 1.524 . S
C1323 C1315 1.503 . S
C1323 C1322 1.370 . S
C1323 C1324 1.403 . S
C1324 C1323 1.403 . S
C1324 C1325 1.404 . S
C1324 C1327 1.539 . S
C1325 C1321 1.408 . S
C1325 C1324 1.404 . S
C1325 H1337 0.930 . S
C1326 C1322 1.524 . S
C1326 H1338 0.956 . S
C1326 H1339 0.961 . S
C1326 H1340 0.961 . S
C1327 C1324 1.539 . S
C1327 H1341 0.958 . S
C1327 H1342 0.961 . S
C1327 H1343 0.960 . S
H1328 C1312 0.931 . S
H1329 C1317 0.929 . S
H1330 C1318 0.960 . S
H1331 C1318 0.962 . S
H1332 C1318 0.960 . S
H1333 C1319 0.961 . S
H1334 C1319 0.961 . S
H1335 C1319 0.961 . S
H1336 C1320 0.931 . S
H1337 C1325 0.930 . S
H1338 C1326 0.956 . S
H1339 C1326 0.961 . S
H1340 C1326 0.961 . S
H1341 C1327 0.958 . S
H1342 C1327 0.961 . S
H1343 C1327 0.960 . S
C1344 C1345 1.391 . S
C1344 C1346 1.394 . S
C1344 H1360 0.931 . S
C1345 C1344 1.391 . S
C1345 C1349 1.376 . S
C1346 C1344 1.394 . S
C1346 C1347 1.369 . S
C1346 C1350 1.531 . S
C1347 C1346 1.369 . S
C1347 C1348 1.410 . S
C1347 C1355 1.503 . S
C1348 C1347 1.410 . S
C1348 C1349 1.392 . S
C1348 C1351 1.511 . S
C1349 C1345 1.376 . S
C1349 C1348 1.392 . S
C1349 H1361 0.929 . S
C1350 C1346 1.531 . S
C1350 H1362 0.960 . S
C1350 H1363 0.962 . S
C1350 H1364 0.960 . S
C1351 C1348 1.511 . S
C1351 H1365 0.961 . S
C1351 H1366 0.961 . S
C1351 H1367 0.961 . S
C1352 C1353 1.370 . S
C1352 C1354 1.363 . S
C1352 H1368 0.931 . S
C1353 C1352 1.370 . S
C1353 C1357 1.408 . S
C1354 C1352 1.363 . S
C1354 C1355 1.370 . S
C1354 C1358 1.524 . S
C1355 C1347 1.503 . S
C1355 C1354 1.370 . S
C1355 C1356 1.403 . S
C1356 C1355 1.403 . S
C1356 C1357 1.404 . S
C1356 C1359 1.539 . S
C1357 C1353 1.408 . S
C1357 C1356 1.404 . S
C1357 H1369 0.930 . S
C1358 C1354 1.524 . S
C1358 H1370 0.956 . S
C1358 H1371 0.961 . S
C1358 H1372 0.961 . S
C1359 C1356 1.539 . S
C1359 H1373 0.958 . S
C1359 H1374 0.961 . S
C1359 H1375 0.960 . S
H1360 C1344 0.931 . S
H1361 C1349 0.929 . S
H1362 C1350 0.960 . S
H1363 C1350 0.962 . S
H1364 C1350 0.960 . S
H1365 C1351 0.961 . S
H1366 C1351 0.961 . S
H1367 C1351 0.961 . S
H1368 C1352 0.931 . S
H1369 C1357 0.930 . S
H1370 C1358 0.956 . S
H1371 C1358 0.961 . S
H1372 C1358 0.961 . S
H1373 C1359 0.958 . S
H1374 C1359 0.961 . S
H1375 C1359 0.960 . S
C1376 C1377 1.391 . S
C1376 C1378 1.394 . S
C1376 H1392 0.931 . S
C1377 C1376 1.391 . S
C1377 C1381 1.376 . S
C1378 C1376 1.394 . S
C1378 C1379 1.369 . S
C1378 C1382 1.531 . S
C1379 C1378 1.369 . S
C1379 C1380 1.410 . S
C1379 C1387 1.503 . S
C1380 C1379 1.410 . S
C1380 C1381 1.392 . S
C1380 C1383 1.511 . S
C1381 C1377 1.376 . S
C1381 C1380 1.392 . S
C1381 H1393 0.929 . S
C1382 C1378 1.531 . S
C1382 H1394 0.960 . S
C1382 H1395 0.962 . S
C1382 H1396 0.960 . S
C1383 C1380 1.511 . S
C1383 H1397 0.961 . S
C1383 H1398 0.961 . S
C1383 H1399 0.961 . S
C1384 C1385 1.370 . S
C1384 C1386 1.363 . S
C1384 H1400 0.931 . S
C1385 C1384 1.370 . S
C1385 C1389 1.408 . S
C1386 C1384 1.363 . S
C1386 C1387 1.370 . S
C1386 C1390 1.524 . S
C1387 C1379 1.503 . S
C1387 C1386 1.370 . S
C1387 C1388 1.403 . S
C1388 C1387 1.403 . S
C1388 C1389 1.404 . S
C1388 C1391 1.539 . S
C1389 C1385 1.408 . S
C1389 C1388 1.404 . S
C1389 H1401 0.930 . S
C1390 C1386 1.524 . S
C1390 H1402 0.956 . S
C1390 H1403 0.961 . S
C1390 H1404 0.961 . S
C1391 C1388 1.539 . S
C1391 H1405 0.958 . S
C1391 H1406 0.961 . S
C1391 H1407 0.960 . S
H1392 C1376 0.931 . S
H1393 C1381 0.929 . S
H1394 C1382 0.960 . S
H1395 C1382 0.962 . S
H1396 C1382 0.960 . S
H1397 C1383 0.961 . S
H1398 C1383 0.961 . S
H1399 C1383 0.961 . S
H1400 C1384 0.931 . S
H1401 C1389 0.930 . S
H1402 C1390 0.956 . S
H1403 C1390 0.961 . S
H1404 C1390 0.961 . S
H1405 C1391 0.958 . S
H1406 C1391 0.961 . S
H1407 C1391 0.960 . S
C1408 C1409 1.391 . S
C1408 C1410 1.394 . S
C1408 H1424 0.931 . S
C1409 C1408 1.391 . S
C1409 C1413 1.376 . S
C1410 C1408 1.394 . S
C1410 C1411 1.369 . S
C1410 C1414 1.531 . S
C1411 C1410 1.369 . S
C1411 C1412 1.410 . S
C1411 C1419 1.503 . S
C1412 C1411 1.410 . S
C1412 C1413 1.392 . S
C1412 C1415 1.511 . S
C1413 C1409 1.376 . S
C1413 C1412 1.392 . S
C1413 H1425 0.929 . S
C1414 C1410 1.531 . S
C1414 H1426 0.960 . S
C1414 H1427 0.962 . S
C1414 H1428 0.960 . S
C1415 C1412 1.511 . S
C1415 H1429 0.961 . S
C1415 H1430 0.961 . S
C1415 H1431 0.961 . S
C1416 C1417 1.370 . S
C1416 C1418 1.363 . S
C1416 H1432 0.931 . S
C1417 C1416 1.370 . S
C1417 C1421 1.408 . S
C1418 C1416 1.363 . S
C1418 C1419 1.370 . S
C1418 C1422 1.524 . S
C1419 C1411 1.503 . S
C1419 C1418 1.370 . S
C1419 C1420 1.403 . S
C1420 C1419 1.403 . S
C1420 C1421 1.404 . S
C1420 C1423 1.539 . S
C1421 C1417 1.408 . S
C1421 C1420 1.404 . S
C1421 H1433 0.930 . S
C1422 C1418 1.524 . S
C1422 H1434 0.956 . S
C1422 H1435 0.961 . S
C1422 H1436 0.961 . S
C1423 C1420 1.539 . S
C1423 H1437 0.958 . S
C1423 H1438 0.961 . S
C1423 H1439 0.960 . S
H1424 C1408 0.931 . S
H1425 C1413 0.929 . S
H1426 C1414 0.960 . S
H1427 C1414 0.962 . S
H1428 C1414 0.960 . S
H1429 C1415 0.961 . S
H1430 C1415 0.961 . S
H1431 C1415 0.961 . S
H1432 C1416 0.931 . S
H1433 C1421 0.930 . S
H1434 C1422 0.956 . S
H1435 C1422 0.961 . S
H1436 C1422 0.961 . S
H1437 C1423 0.958 . S
H1438 C1423 0.961 . S
H1439 C1423 0.960 . S
C1440 C1441 1.391 . S
C1440 C1442 1.394 . S
C1440 H1456 0.931 . S
C1441 C1440 1.391 . S
C1441 C1445 1.376 . S
C1442 C1440 1.394 . S
C1442 C1443 1.369 . S
C1442 C1446 1.531 . S
C1443 C1442 1.369 . S
C1443 C1444 1.410 . S
C1443 C1451 1.503 . S
C1444 C1443 1.410 . S
C1444 C1445 1.392 . S
C1444 C1447 1.511 . S
C1445 C1441 1.376 . S
C1445 C1444 1.392 . S
C1445 H1457 0.929 . S
C1446 C1442 1.531 . S
C1446 H1458 0.960 . S
C1446 H1459 0.962 . S
C1446 H1460 0.960 . S
C1447 C1444 1.511 . S
C1447 H1461 0.961 . S
C1447 H1462 0.961 . S
C1447 H1463 0.961 . S
C1448 C1449 1.370 . S
C1448 C1450 1.363 . S
C1448 H1464 0.931 . S
C1449 C1448 1.370 . S
C1449 C1453 1.408 . S
C1450 C1448 1.363 . S
C1450 C1451 1.370 . S
C1450 C1454 1.524 . S
C1451 C1443 1.503 . S
C1451 C1450 1.370 . S
C1451 C1452 1.403 . S
C1452 C1451 1.403 . S
C1452 C1453 1.404 . S
C1452 C1455 1.539 . S
C1453 C1449 1.408 . S
C1453 C1452 1.404 . S
C1453 H1465 0.930 . S
C1454 C1450 1.524 . S
C1454 H1466 0.956 . S
C1454 H1467 0.961 . S
C1454 H1468 0.961 . S
C1455 C1452 1.539 . S
C1455 H1469 0.958 . S
C1455 H1470 0.961 . S
C1455 H1471 0.960 . S
H1456 C1440 0.931 . S
H1457 C1445 0.929 . S
H1458 C1446 0.960 . S
H1459 C1446 0.962 . S
H1460 C1446 0.960 . S
H1461 C1447 0.961 . S
H1462 C1447 0.961 . S
H1463 C1447 0.961 . S
H1464 C1448 0.931 . S
H1465 C1453 0.930 . S
H1466 C1454 0.956 . S
H1467 C1454 0.961 . S
H1468 C1454 0.961 . S
H1469 C1455 0.958 . S
H1470 C1455 0.961 . S
H1471 C1455 0.960 . S
C1472 C1473 1.391 . S
C1472 C1474 1.394 . S
C1472 H1488 0.931 . S
C1473 C1472 1.391 . S
C1473 C1477 1.376 . S
C1474 C1472 1.394 . S
C1474 C1475 1.369 . S
C1474 C1478 1.531 . S
C1475 C1474 1.369 . S
C1475 C1476 1.410 . S
C1475 C1483 1.503 . S
C1476 C1475 1.410 . S
C1476 C1477 1.392 . S
C1476 C1479 1.511 . S
C1477 C1473 1.376 . S
C1477 C1476 1.392 . S
C1477 H1489 0.929 . S
C1478 C1474 1.531 . S
C1478 H1490 0.960 . S
C1478 H1491 0.962 . S
C1478 H1492 0.960 . S
C1479 C1476 1.511 . S
C1479 H1493 0.961 . S
C1479 H1494 0.961 . S
C1479 H1495 0.961 . S
C1480 C1481 1.370 . S
C1480 C1482 1.363 . S
C1480 H1496 0.931 . S
C1481 C1480 1.370 . S
C1481 C1485 1.408 . S
C1482 C1480 1.363 . S
C1482 C1483 1.370 . S
C1482 C1486 1.524 . S
C1483 C1475 1.503 . S
C1483 C1482 1.370 . S
C1483 C1484 1.403 . S
C1484 C1483 1.403 . S
C1484 C1485 1.404 . S
C1484 C1487 1.539 . S
C1485 C1481 1.408 . S
C1485 C1484 1.404 . S
C1485 H1497 0.930 . S
C1486 C1482 1.524 . S
C1486 H1498 0.956 . S
C1486 H1499 0.961 . S
C1486 H1500 0.961 . S
C1487 C1484 1.539 . S
C1487 H1501 0.958 . S
C1487 H1502 0.961 . S
C1487 H1503 0.960 . S
H1488 C1472 0.931 . S
H1489 C1477 0.929 . S
H1490 C1478 0.960 . S
H1491 C1478 0.962 . S
H1492 C1478 0.960 . S
H1493 C1479 0.961 . S
H1494 C1479 0.961 . S
H1495 C1479 0.961 . S
H1496 C1480 0.931 . S
H1497 C1485 0.930 . S
H1498 C1486 0.956 . S
H1499 C1486 0.961 . S
H1500 C1486 0.961 . S
H1501 C1487 0.958 . S
H1502 C1487 0.961 . S
H1503 C1487 0.960 . S
C1504 C1505 1.391 . S
C1504 C1506 1.394 . S
C1504 H1520 0.931 . S
C1505 C1504 1.391 . S
C1505 C1509 1.376 . S
C1506 C1504 1.394 . S
C1506 C1507 1.369 . S
C1506 C1510 1.531 . S
C1507 C1506 1.369 . S
C1507 C1508 1.410 . S
C1507 C1515 1.503 . S
C1508 C1507 1.410 . S
C1508 C1509 1.392 . S
C1508 C1511 1.511 . S
C1509 C1505 1.376 . S
C1509 C1508 1.392 . S
C1509 H1521 0.929 . S
C1510 C1506 1.531 . S
C1510 H1522 0.960 . S
C1510 H1523 0.962 . S
C1510 H1524 0.960 . S
C1511 C1508 1.511 . S
C1511 H1525 0.961 . S
C1511 H1526 0.961 . S
C1511 H1527 0.961 . S
C1512 C1513 1.370 . S
C1512 C1514 1.363 . S
C1512 H1528 0.931 . S
C1513 C1512 1.370 . S
C1513 C1517 1.408 . S
C1514 C1512 1.363 . S
C1514 C1515 1.370 . S
C1514 C1518 1.524 . S
C1515 C1507 1.503 . S
C1515 C1514 1.370 . S
C1515 C1516 1.403 . S
C1516 C1515 1.403 . S
C1516 C1517 1.404 . S
C1516 C1519 1.539 . S
C1517 C1513 1.408 . S
C1517 C1516 1.404 . S
C1517 H1529 0.930 . S
C1518 C1514 1.524 . S
C1518 H1530 0.956 . S
C1518 H1531 0.961 . S
C1518 H1532 0.961 . S
C1519 C1516 1.539 . S
C1519 H1533 0.958 . S
C1519 H1534 0.961 . S
C1519 H1535 0.960 . S
H1520 C1504 0.931 . S
H1521 C1509 0.929 . S
H1522 C1510 0.960 . S
H1523 C1510 0.962 . S
H1524 C1510 0.960 . S
H1525 C1511 0.961 . S
H1526 C1511 0.961 . S
H1527 C1511 0.961 . S
H1528 C1512 0.931 . S
H1529 C1517 0.930 . S
H1530 C1518 0.956 . S
H1531 C1518 0.961 . S
H1532 C1518 0.961 . S
H1533 C1519 0.958 . S
H1534 C1519 0.961 . S
H1535 C1519 0.960 . S
C1536 C1537 1.391 . S
C1536 C1538 1.394 . S
C1536 H1552 0.931 . S
C1537 C1536 1.391 . S
C1537 C1541 1.376 . S
C1538 C1536 1.394 . S
C1538 C1539 1.369 . S
C1538 C1542 1.531 . S
C1539 C1538 1.369 . S
C1539 C1540 1.410 . S
C1539 C1547 1.503 . S
C1540 C1539 1.410 . S
C1540 C1541 1.392 . S
C1540 C1543 1.511 . S
C1541 C1537 1.376 . S
C1541 C1540 1.392 . S
C1541 H1553 0.929 . S
C1542 C1538 1.531 . S
C1542 H1554 0.960 . S
C1542 H1555 0.962 . S
C1542 H1556 0.960 . S
C1543 C1540 1.511 . S
C1543 H1557 0.961 . S
C1543 H1558 0.961 . S
C1543 H1559 0.961 . S
C1544 C1545 1.370 . S
C1544 C1546 1.363 . S
C1544 H1560 0.931 . S
C1545 C1544 1.370 . S
C1545 C1549 1.408 . S
C1546 C1544 1.363 . S
C1546 C1547 1.370 . S
C1546 C1550 1.524 . S
C1547 C1539 1.503 . S
C1547 C1546 1.370 . S
C1547 C1548 1.403 . S
C1548 C1547 1.403 . S
C1548 C1549 1.404 . S
C1548 C1551 1.539 . S
C1549 C1545 1.408 . S
C1549 C1548 1.404 . S
C1549 H1561 0.930 . S
C1550 C1546 1.524 . S
C1550 H1562 0.956 . S
C1550 H1563 0.961 . S
C1550 H1564 0.961 . S
C1551 C1548 1.539 . S
C1551 H1565 0.958 . S
C1551 H1566 0.961 . S
C1551 H1567 0.960 . S
H1552 C1536 0.931 . S
H1553 C1541 0.929 . S
H1554 C1542 0.960 . S
H1555 C1542 0.962 . S
H1556 C1542 0.960 . S
H1557 C1543 0.961 . S
H1558 C1543 0.961 . S
H1559 C1543 0.961 . S
H1560 C1544 0.931 . S
H1561 C1549 0.930 . S
H1562 C1550 0.956 . S
H1563 C1550 0.961 . S
H1564 C1550 0.961 . S
H1565 C1551 0.958 . S
H1566 C1551 0.961 . S
H1567 C1551 0.960 . S
C1568 C1569 1.391 . S
C1568 C1570 1.394 . S
C1568 H1584 0.931 . S
C1569 C1568 1.391 . S
C1569 C1573 1.376 . S
C1570 C1568 1.394 . S
C1570 C1571 1.369 . S
C1570 C1574 1.531 . S
C1571 C1570 1.369 . S
C1571 C1572 1.410 . S
C1571 C1579 1.503 . S
C1572 C1571 1.410 . S
C1572 C1573 1.392 . S
C1572 C1575 1.511 . S
C1573 C1569 1.376 . S
C1573 C1572 1.392 . S
C1573 H1585 0.929 . S
C1574 C1570 1.531 . S
C1574 H1586 0.960 . S
C1574 H1587 0.962 . S
C1574 H1588 0.960 . S
C1575 C1572 1.511 . S
C1575 H1589 0.961 . S
C1575 H1590 0.961 . S
C1575 H1591 0.961 . S
C1576 C1577 1.370 . S
C1576 C1578 1.363 . S
C1576 H1592 0.931 . S
C1577 C1576 1.370 . S
C1577 C1581 1.408 . S
C1578 C1576 1.363 . S
C1578 C1579 1.370 . S
C1578 C1582 1.524 . S
C1579 C1571 1.503 . S
C1579 C1578 1.370 . S
C1579 C1580 1.403 . S
C1580 C1579 1.403 . S
C1580 C1581 1.404 . S
C1580 C1583 1.539 . S
C1581 C1577 1.408 . S
C1581 C1580 1.404 . S
C1581 H1593 0.930 . S
C1582 C1578 1.524 . S
C1582 H1594 0.956 . S
C1582 H1595 0.961 . S
C1582 H1596 0.961 . S
C1583 C1580 1.539 . S
C1583 H1597 0.958 . S
C1583 H1598 0.961 . S
C1583 H1599 0.960 . S
H1584 C1568 0.931 . S
H1585 C1573 0.929 . S
H1586 C1574 0.960 . S
H1587 C1574 0.962 . S
H1588 C1574 0.960 . S
H1589 C1575 0.961 . S
H1590 C1575 0.961 . S
H1591 C1575 0.961 . S
H1592 C1576 0.931 . S
H1593 C1581 0.930 . S
H1594 C1582 0.956 . S
H1595 C1582 0.961 . S
H1596 C1582 0.961 . S
H1597 C1583 0.958 . S
H1598 C1583 0.961 . S
H1599 C1583 0.960 . S
C1600 C1601 1.391 . S
C1600 C1602 1.394 . S
C1600 H1616 0.931 . S
C1601 C1600 1.391 . S
C1601 C1605 1.376 . S
C1602 C1600 1.394 . S
C1602 C1603 1.369 . S
C1602 C1606 1.531 . S
C1603 C1602 1.369 . S
C1603 C1604 1.410 . S
C1603 C1611 1.503 . S
C1604 C1603 1.410 . S
C1604 C1605 1.392 . S
C1604 C1607 1.511 . S
C1605 C1601 1.376 . S
C1605 C1604 1.392 . S
C1605 H1617 0.929 . S
C1606 C1602 1.531 . S
C1606 H1618 0.960 . S
C1606 H1619 0.962 . S
C1606 H1620 0.960 . S
C1607 C1604 1.511 . S
C1607 H1621 0.961 . S
C1607 H1622 0.961 . S
C1607 H1623 0.961 . S
C1608 C1609 1.370 . S
C1608 C1610 1.363 . S
C1608 H1624 0.931 . S
C1609 C1608 1.370 . S
C1609 C1613 1.408 . S
C1610 C1608 1.363 . S
C1610 C1611 1.370 . S
C1610 C1614 1.524 . S
C1611 C1603 1.503 . S
C1611 C1610 1.370 . S
C1611 C1612 1.403 . S
C1612 C1611 1.403 . S
C1612 C1613 1.404 . S
C1612 C1615 1.539 . S
C1613 C1609 1.408 . S
C1613 C1612 1.404 . S
C1613 H1625 0.930 . S
C1614 C1610 1.524 . S
C1614 H1626 0.956 . S
C1614 H1627 0.961 . S
C1614 H1628 0.961 . S
C1615 C1612 1.539 . S
C1615 H1629 0.958 . S
C1615 H1630 0.961 . S
C1615 H1631 0.960 . S
H1616 C1600 0.931 . S
H1617 C1605 0.929 . S
H1618 C1606 0.960 . S
H1619 C1606 0.962 . S
H1620 C1606 0.960 . S
H1621 C1607 0.961 . S
H1622 C1607 0.961 . S
H1623 C1607 0.961 . S
H1624 C1608 0.931 . S
H1625 C1613 0.930 . S
H1626 C1614 0.956 . S
H1627 C1614 0.961 . S
H1628 C1614 0.961 . S
H1629 C1615 0.958 . S
H1630 C1615 0.961 . S
H1631 C1615 0.960 . S
C617 C497 1.613 . S
C609 C47 1.523 . S
C649 C523 1.486 . S
C641 C115 1.469 . S
C681 C537 1.561 . S
C673 C153 1.363 . S
C713 C539 1.671 . S
C705 C233 1.555 . S
C737 C283 1.440 . S
C745 C536 1.489 . S
C777 C538 1.615 . S
C769 C357 1.525 . S
C809 C496 1.670 . S
C801 C401 1.577 . S
C841 C522 1.561 . S
C833 C463 1.376 . S
C873 C524 1.392 . S
C865 C469 1.329 . S
C905 C550 1.530 . S
C897 C277 1.463 . S
C937 C508 1.518 . S
C929 C363 1.500 . S
C969 C510 1.372 . S
C961 C407 1.325 . S
C1001 C509 1.530 . S
C993 C109 1.430 . S
C1033 C511 1.387 . S
C1025 C159 1.371 . S
C1065 C525 1.371 . S
C1057 C239 1.337 . S
C1097 C551 1.522 . S
C1089 C53 1.520 . S
C1129 C553 1.616 . S
C1121 C481 1.462 . S
C1153 C301 1.475 . S
C1161 C579 1.486 . S
C1185 C339 1.459 . S
C1193 C592 1.552 . S
C1217 C419 1.511 . S
C1225 C595 1.675 . S
C1249 C97 1.419 . S
C1257 C593 1.492 . S
C1281 C171 1.496 . S
C1289 C594 1.614 . S
C1313 C215 1.578 . S
C1321 C552 1.670 . S
C1353 C578 1.556 . S
C1345 C29 1.428 . S
C1385 C581 1.392 . S
C1377 C35 1.330 . S
C1409 C91 1.396 . S
C1417 C606 1.534 . S
C1441 C177 1.514 . S
C1449 C564 1.520 . S
C1473 C221 1.336 . S
C1481 C566 1.371 . S
C1513 C565 1.530 . S
C1505 C295 1.425 . S
C1545 C567 1.392 . S
C1537 C345 1.328 . S
C1569 C425 1.337 . S
C1577 C580 1.371 . S
C1609 C607 1.524 . S
C1601 C487 1.501 . S
