# Generated by pormake.
# Topology zzz, (3,6)-cn, num edge types: 1
# Building blocks:
#     Node 0, Type 0, BuildingBlock: MIDCAF_clean_linker_0, # of connection points: 3
#     Node 1, Type 0, BuildingBlock: MIDCAF_clean_linker_0, # of connection points: 3
#     Node 2, Type 0, BuildingBlock: MIDCAF_clean_linker_0, # of connection points: 3
#     Node 3, Type 0, BuildingBlock: MIDCAF_clean_linker_0, # of connection points: 3
#     Node 4, Type 0, BuildingBlock: MIDCAF_clean_linker_0, # of connection points: 3
#     Node 5, Type 0, BuildingBlock: MIDCAF_clean_linker_0, # of connection points: 3
#     Node 6, Type 0, BuildingBlock: MIDCAF_clean_linker_0, # of connection points: 3
#     Node 7, Type 0, BuildingBlock: MIDCAF_clean_linker_0, # of connection points: 3
#     Node 8, Type 1, BuildingBlock: BETDIP_clean_sbu_0, # of connection points: 6
#     Node 9, Type 1, BuildingBlock: BETDIP_clean_sbu_0, # of connection points: 6
#     Node 10, Type 1, BuildingBlock: BETDIP_clean_sbu_0, # of connection points: 6
#     Node 11, Type 1, BuildingBlock: BETDIP_clean_sbu_0, # of connection points: 6
#     Edge 12, Type (0, 1), BuildingBlock: OJICUG_clean_linker_0, # of connection points: 2
#     Edge 13, Type (0, 1), BuildingBlock: OJICUG_clean_linker_0, # of connection points: 2
#     Edge 14, Type (0, 1), BuildingBlock: OJICUG_clean_linker_0, # of connection points: 2
#     Edge 15, Type (0, 1), BuildingBlock: OJICUG_clean_linker_0, # of connection points: 2
#     Edge 16, Type (0, 1), BuildingBlock: OJICUG_clean_linker_0, # of connection points: 2
#     Edge 17, Type (0, 1), BuildingBlock: OJICUG_clean_linker_0, # of connection points: 2
#     Edge 18, Type (0, 1), BuildingBlock: OJICUG_clean_linker_0, # of connection points: 2
#     Edge 19, Type (0, 1), BuildingBlock: OJICUG_clean_linker_0, # of connection points: 2
#     Edge 20, Type (0, 1), BuildingBlock: OJICUG_clean_linker_0, # of connection points: 2
#     Edge 21, Type (0, 1), BuildingBlock: OJICUG_clean_linker_0, # of connection points: 2
#     Edge 22, Type (0, 1), BuildingBlock: OJICUG_clean_linker_0, # of connection points: 2
#     Edge 23, Type (0, 1), BuildingBlock: OJICUG_clean_linker_0, # of connection points: 2
#     Edge 24, Type (0, 1), BuildingBlock: OJICUG_clean_linker_0, # of connection points: 2
#     Edge 25, Type (0, 1), BuildingBlock: OJICUG_clean_linker_0, # of connection points: 2
#     Edge 26, Type (0, 1), BuildingBlock: OJICUG_clean_linker_0, # of connection points: 2
#     Edge 27, Type (0, 1), BuildingBlock: OJICUG_clean_linker_0, # of connection points: 2
#     Edge 28, Type (0, 1), BuildingBlock: OJICUG_clean_linker_0, # of connection points: 2
#     Edge 29, Type (0, 1), BuildingBlock: OJICUG_clean_linker_0, # of connection points: 2
#     Edge 30, Type (0, 1), BuildingBlock: OJICUG_clean_linker_0, # of connection points: 2
#     Edge 31, Type (0, 1), BuildingBlock: OJICUG_clean_linker_0, # of connection points: 2
#     Edge 32, Type (0, 1), BuildingBlock: OJICUG_clean_linker_0, # of connection points: 2
#     Edge 33, Type (0, 1), BuildingBlock: OJICUG_clean_linker_0, # of connection points: 2
#     Edge 34, Type (0, 1), BuildingBlock: OJICUG_clean_linker_0, # of connection points: 2
#     Edge 35, Type (0, 1), BuildingBlock: OJICUG_clean_linker_0, # of connection points: 2
# Relax obj value: 0.502
# Max RMSD: 0.260
# Mean RMSD: 0.244
data_MOF--net-zzz--node1-BETDIP_clean_sbu_0--node2-MIDCAF_clean_linker_0--edge1-OJICUG_clean_linker_0
_symmetry_space_group_name_H-M    P1
_symmetry_Int_Tables_number       1
_symmetry_cell_setting            triclinic
loop_
_symmetry_equiv_pos_as_xyz
'x, y, z'
_cell_length_a     45.754127
_cell_length_b     45.768739
_cell_length_c     14.558005
_cell_angle_alpha  89.763082
_cell_angle_beta   89.838684
_cell_angle_gamma 89.968899
loop_
_atom_site_label
_atom_site_type_symbol
_atom_site_fract_x
_atom_site_fract_y
_atom_site_fract_z
_atom_type_partial_charge
C0 C 0.83315 0.51265 0.43358 0.0
C1 C 0.83607 0.50706 0.52862 0.0
C2 C 0.81101 0.49719 0.57642 0.0
C3 C 0.78479 0.49113 0.52971 0.0
H4 H 0.70369 0.53116 0.23532 0.0
H5 H 0.66143 0.54637 0.14282 0.0
H6 H 0.62769 0.45829 0.15538 0.0
H7 H 0.66901 0.44362 0.24837 0.0
H8 H 0.75175 0.42106 0.12048 0.0
H9 H 0.79031 0.39336 0.04846 0.0
H10 H 0.81743 0.361 0.31477 0.0
H11 H 0.78 0.39114 0.38699 0.0
H12 H 0.80629 0.50927 0.31334 0.0
H13 H 0.85171 0.51967 0.39293 0.0
H14 H 0.81185 0.49307 0.64961 0.0
H15 H 0.76682 0.48132 0.56734 0.0
N16 N 0.73535 0.49106 0.34631 0.0
N17 N 0.72602 0.44719 0.26697 0.0
N18 N 0.76785 0.4513 0.35739 0.0
C19 C 0.71756 0.47467 0.29061 0.0
C20 C 0.75094 0.43536 0.30051 0.0
C21 C 0.76045 0.47889 0.38112 0.0
C22 C 0.68995 0.48613 0.24894 0.0
C23 C 0.68683 0.51532 0.22011 0.0
C24 C 0.66271 0.52391 0.16603 0.0
C25 C 0.64098 0.50356 0.14023 0.0
C26 C 0.64352 0.47481 0.17385 0.0
C27 C 0.66753 0.46628 0.22699 0.0
C28 C 0.76363 0.40894 0.25925 0.0
C29 C 0.76514 0.40703 0.1633 0.0
C30 C 0.78745 0.39092 0.12188 0.0
C31 C 0.80823 0.37601 0.17604 0.0
C32 C 0.80286 0.37346 0.27111 0.0
C33 C 0.78117 0.3904 0.31268 0.0
C34 C 0.78258 0.4954 0.43432 0.0
C35 C 0.80686 0.50691 0.38741 0.0
C36 C 1.00147 0.82275 0.47025 0.0
C37 C 0.0204 0.83421 0.53791 0.0
C38 C 0.04532 0.81767 0.56079 0.0
C39 C 0.05212 0.79187 0.5138 0.0
H40 H 0.99138 0.70621 0.2243 0.0
H41 H 0.97568 0.66405 0.13271 0.0
H42 H 0.06193 0.62648 0.15917 0.0
H43 H 0.07696 0.66776 0.25131 0.0
H44 H 0.10929 0.7358 0.10853 0.0
H45 H 0.13737 0.76806 1.00831 0.0
H46 H 0.15087 0.82692 0.23585 0.0
H47 H 0.12402 0.7944 0.33559 0.0
H48 H 0.99446 0.78971 0.36721 0.0
H49 H 0.98181 0.83444 0.45127 0.0
H50 H 0.06078 0.82556 0.61107 0.0
H51 H 0.07259 0.781 0.52924 0.0
N52 N 0.0337 0.73574 0.3443 0.0
N53 N 0.07443 0.72647 0.24861 0.0
N54 N 0.07395 0.76778 0.34155 0.0
C55 C 0.04789 0.71817 0.28187 0.0
C56 C 0.08756 0.75122 0.27777 0.0
C57 C 0.04733 0.76054 0.37554 0.0
C58 C 0.03542 0.69042 0.24515 0.0
C59 C 1.00657 0.68844 0.21282 0.0
C60 C 0.99777 0.6644 0.15904 0.0
C61 C 0.01756 0.64168 0.13687 0.0
C62 C 0.0458 0.64306 0.17467 0.0
C63 C 0.05454 0.66698 0.22755 0.0
C64 C 0.11325 0.76334 0.22885 0.0
C65 C 0.11941 0.75497 0.13804 0.0
C66 C 0.13543 0.77356 0.08035 0.0
C67 C 0.14519 0.80082 0.11262 0.0
C68 C 0.14339 0.80643 0.20747 0.0
C69 C 0.12759 0.78783 0.26502 0.0
C70 C 0.03427 0.78144 0.44252 0.0
C71 C 1.00833 0.7967 0.42313 0.0
C72 C 0.69956 1.00036 0.47182 0.0
C73 C 0.68735 0.01973 0.53705 0.0
C74 C 0.70317 0.04523 0.55773 0.0
C75 C 0.729 0.05215 0.51059 0.0
H76 H 0.81602 0.99003 0.22687 0.0
H77 H 0.85858 0.97395 0.13671 0.0
H78 H 0.89554 0.06054 0.15742 0.0
H79 H 0.85384 0.07597 0.24802 0.0
H80 H 0.78514 0.10603 0.1002 0.0
H81 H 0.75275 0.13314 0.99824 0.0
H82 H 0.69397 0.14867 0.22602 0.0
H83 H 0.72662 0.12276 0.32735 0.0
H84 H 0.73324 0.99305 0.37037 0.0
H85 H 0.68841 0.98026 0.45469 0.0
H86 H 0.69466 0.061 0.60617 0.0
H87 H 0.73931 0.07301 0.52406 0.0
N88 N 0.78604 0.033 0.34364 0.0
N89 N 0.79501 0.07292 0.24414 0.0
N90 N 0.75351 0.07282 0.33719 0.0
C91 C 0.80355 0.0468 0.27994 0.0
C92 C 0.77002 0.08602 0.27209 0.0
C93 C 0.76102 0.04661 0.37363 0.0
C94 C 0.8315 0.03427 0.24458 0.0
C95 C 0.83375 1.00522 0.21447 0.0
C96 C 0.85801 0.99619 0.16158 0.0
C97 C 0.88064 0.01596 0.13825 0.0
C98 C 0.879 0.04443 0.17399 0.0
C99 C 0.85486 0.0534 0.22593 0.0
C100 C 0.75769 0.11111 0.22088 0.0
C101 C 0.76596 0.1164 0.12924 0.0
C102 C 0.74729 0.13185 0.07058 0.0
C103 C 0.72005 0.14194 0.10272 0.0
C104 C 0.71447 0.14094 0.19781 0.0
C105 C 0.73314 0.12569 0.2563 0.0
C106 C 0.74015 0.03382 0.44146 0.0
C107 C 0.72565 1.00733 0.42459 0.0
C108 C 0.38154 0.72014 0.20594 0.0
C109 C 0.38187 0.7248 0.1103 0.0
C110 C 0.39322 0.75138 0.07668 0.0
C111 C 0.40888 0.7699 0.13481 0.0
H112 H 0.48238 0.85996 0.3369 0.0
H113 H 0.4969 0.90198 0.24222 0.0
H114 H 0.52589 0.84294 0.0295 0.0
H115 H 0.51217 0.80148 0.12559 0.0
H116 H 0.44617 0.73853 0.5258 0.0
H117 H 0.45757 0.69394 0.60918 0.0
H118 H 0.54234 0.69116 0.47806 0.0
H119 H 0.53037 0.73599 0.39265 0.0
H120 H 0.39876 0.73276 0.33579 0.0
H121 H 0.37273 0.70026 0.23545 0.0
H122 H 0.39282 0.7563 1.00386 0.0
H123 H 0.42032 0.78834 0.10479 0.0
N124 N 0.45429 0.79626 0.24628 0.0
N125 N 0.49231 0.78554 0.3506 0.0
N126 N 0.44957 0.75706 0.34804 0.0
C127 C 0.48076 0.80291 0.28266 0.0
C128 C 0.47619 0.76262 0.38451 0.0
C129 C 0.43848 0.77344 0.27887 0.0
C130 C 0.49703 0.82744 0.23976 0.0
C131 C 0.49307 0.85613 0.27151 0.0
C132 C 0.50088 0.88021 0.21623 0.0
C133 C 0.51251 0.87618 0.12721 0.0
C134 C 0.51758 0.84727 0.09781 0.0
C135 C 0.50985 0.82332 0.15311 0.0
C136 C 0.48741 0.74102 0.45288 0.0
C137 C 0.46764 0.72893 0.51681 0.0
C138 C 0.47423 0.7032 0.56485 0.0
C139 C 0.50082 0.68845 0.55021 0.0
C140 C 0.52144 0.70155 0.49035 0.0
C141 C 0.51484 0.72759 0.44245 0.0
C142 C 0.41299 0.76221 0.22747 0.0
C143 C 0.39688 0.73875 0.26397 0.0
C144 C 0.20536 0.54438 0.93745 0.0
C145 C 0.18886 0.51957 0.96188 0.0
C146 C 0.20037 0.50088 0.03058 0.0
C147 C 0.2264 0.50795 0.07742 0.0
H148 H 0.31586 0.49155 0.27816 0.0
H149 H 0.35755 0.47574 0.37236 0.0
H150 H 0.39519 0.56199 0.34713 0.0
H151 H 0.35439 0.57713 0.25251 0.0
H152 H 0.28625 0.61041 0.38691 0.0
H153 H 0.25338 0.6382 0.48524 0.0
H154 H 0.19458 0.65017 0.25612 0.0
H155 H 0.22773 0.62369 0.15814 0.0
H156 H 0.24197 0.5718 0.96753 0.0
H157 H 0.19743 0.55964 0.88626 0.0
H158 H 0.18871 0.48129 0.0507 0.0
H159 H 0.2334 0.49431 0.13422 0.0
N160 N 0.28689 0.53366 0.15658 0.0
N161 N 0.29582 0.57477 0.25001 0.0
N162 N 0.25494 0.57399 0.1551 0.0
C163 C 0.30422 0.54806 0.21886 0.0
C164 C 0.27122 0.58783 0.21882 0.0
C165 C 0.26228 0.54722 0.12322 0.0
C166 C 0.33172 0.5356 0.25785 0.0
C167 C 0.33355 0.50673 0.29057 0.0
C168 C 0.35731 0.49786 0.34578 0.0
C169 C 0.37989 0.51761 0.36895 0.0
C170 C 0.37869 0.5459 0.33088 0.0
C171 C 0.35505 0.5547 0.2766 0.0
C172 C 0.2588 0.61361 0.26595 0.0
C173 C 0.26696 0.62015 0.35658 0.0
C174 C 0.248 0.636 0.4132 0.0
C175 C 0.22058 0.64516 0.38008 0.0
C176 C 0.21517 0.64311 0.28519 0.0
C177 C 0.23415 0.62752 0.22866 0.0
C178 C 0.24156 0.53385 0.05664 0.0
C179 C 0.23114 0.55138 0.98413 0.0
C180 C 0.9783 0.2038 0.94562 0.0
C181 C 1.00309 0.18709 0.96873 0.0
C182 C 0.02196 0.19838 0.03684 0.0
C183 C 0.01514 0.22439 0.08425 0.0
H184 H 0.03243 0.31595 0.27793 0.0
H185 H 0.0482 0.35827 0.36908 0.0
H186 H 0.96067 0.39345 0.35575 0.0
H187 H 0.94543 0.35193 0.26539 0.0
H188 H 0.91347 0.28522 0.39777 0.0
H189 H 0.88515 0.25309 0.4977 0.0
H190 H 0.87258 0.19372 0.27095 0.0
H191 H 0.89975 0.22607 0.17147 0.0
H192 H 0.95115 0.24056 0.97725 0.0
H193 H 0.96289 0.19606 0.89498 0.0
H194 H 0.04153 0.18658 0.05601 0.0
H195 H 0.02894 0.23122 0.14054 0.0
N196 N 0.98971 0.28532 0.16391 0.0
N197 N 0.94887 0.29425 0.25941 0.0
N198 N 0.94953 0.25317 0.16561 0.0
C199 C 0.97543 0.30271 0.22667 0.0
C200 C 0.93582 0.26956 0.22958 0.0
C201 C 0.97616 0.26054 0.13203 0.0
C202 C 0.98768 0.3305 0.26406 0.0
C203 C 0.0169 0.33321 0.29234 0.0
C204 C 0.02579 0.35734 0.34569 0.0
C205 C 1.00573 0.37947 0.37101 0.0
C206 C 0.977 0.37734 0.33753 0.0
C207 C 0.96816 0.35329 0.28561 0.0
C208 C 0.91005 0.25739 0.27792 0.0
C209 C 0.90352 0.26596 0.36832 0.0
C210 C 0.88734 0.24746 0.42583 0.0
C211 C 0.87776 0.22012 0.39377 0.0
C212 C 0.87992 0.2143 0.29912 0.0
C213 C 0.89591 0.23279 0.24175 0.0
C214 C 0.9893 0.2398 0.06467 0.0
C215 C 0.97154 0.22957 0.99286 0.0
C216 C 0.31746 0.974 0.93939 0.0
C217 C 0.33309 0.99969 0.9591 0.0
C218 C 0.32081 0.01917 0.02386 0.0
C219 C 0.29482 0.01215 0.07159 0.0
H220 H 0.20621 0.0298 0.27475 0.0
H221 H 0.1643 0.04625 0.36718 0.0
H222 H 0.12558 0.96052 0.34358 0.0
H223 H 0.16666 0.94473 0.25079 0.0
H224 H 0.23523 0.91321 0.39676 0.0
H225 H 0.26764 0.88605 0.49848 0.0
H226 H 0.32629 0.87048 0.27043 0.0
H227 H 0.29362 0.89645 0.16927 0.0
H228 H 0.28155 0.94607 0.97422 0.0
H229 H 0.32603 0.95815 0.89133 0.0
H230 H 0.33182 0.03941 0.04021 0.0
H231 H 0.28716 0.02656 0.12537 0.0
N232 N 0.23493 0.98674 0.15485 0.0
N233 N 0.22569 0.94677 0.25394 0.0
N234 N 0.26691 0.94646 0.15967 0.0
C235 C 0.21741 0.97307 0.21882 0.0
C236 C 0.25041 0.93338 0.22508 0.0
C237 C 0.25965 0.97283 0.12384 0.0
C238 C 0.1898 0.98597 0.25541 0.0
C239 C 0.18822 0.0149 0.28701 0.0
C240 C 0.16434 0.02413 0.3412 0.0
C241 C 0.14141 1.00469 0.3644 0.0
C242 C 0.14237 0.97637 0.3272 0.0
C243 C 0.16614 0.9672 0.27396 0.0
C244 C 0.26263 0.90815 0.27593 0.0
C245 C 0.25438 0.90282 0.36758 0.0
C246 C 0.27306 0.88734 0.42612 0.0
C247 C 0.30028 0.87725 0.39385 0.0
C248 C 0.30581 0.87823 0.29872 0.0
C249 C 0.28712 0.89351 0.24034 0.0
C250 C 0.28053 0.98548 0.05575 0.0
C251 C 0.29174 0.96703 0.98703 0.0
C252 C 0.6393 0.30639 0.29928 0.0
C253 C 0.6403 0.30067 0.39429 0.0
C254 C 0.6303 0.27337 0.42638 0.0
C255 C 0.61497 0.25472 0.36779 0.0
H256 H 0.57505 0.16692 0.25038 0.0
H257 H 0.55959 0.12521 0.34122 0.0
H258 H 0.47269 0.16175 0.36103 0.0
H259 H 0.48879 0.20433 0.27067 0.0
H260 H 0.49157 0.28708 0.12943 0.0
H261 H 0.47851 0.33198 0.04598 0.0
H262 H 0.55925 0.32633 0.89237 0.0
H263 H 0.57154 0.28161 0.97367 0.0
H264 H 0.62124 0.29435 0.16993 0.0
H265 H 0.64695 0.32694 0.27115 0.0
H266 H 0.63158 0.26783 0.49865 0.0
H267 H 0.60469 0.23547 0.39686 0.0
N268 N 0.57173 0.22563 0.25339 0.0
N269 N 0.53179 0.23454 0.15465 0.0
N270 N 0.57145 0.26722 0.1606 0.0
C271 C 0.54565 0.21703 0.21797 0.0
C272 C 0.54529 0.25963 0.12457 0.0
C273 C 0.58471 0.25069 0.22537 0.0
C274 C 0.5332 0.18906 0.25344 0.0
C275 C 0.55242 0.1658 0.27234 0.0
C276 C 0.54343 0.14165 0.32439 0.0
C277 C 0.51486 0.1399 0.35995 0.0
C278 C 0.49501 0.16241 0.3363 0.0
C279 C 0.50406 0.18668 0.28331 0.0
C280 C 0.53238 0.2805 0.05725 0.0
C281 C 0.50579 0.29482 0.07493 0.0
C282 C 0.49866 0.32094 0.02819 0.0
C283 C 0.51796 0.33332 0.96266 0.0
C284 C 0.54354 0.31767 0.94108 0.0
C285 C 0.55063 0.29181 0.98775 0.0
C286 C 0.6097 0.26309 0.2763 0.0
C287 C 0.62417 0.28774 0.24087 0.0
Tb288 Tb 0.03315 1.00418 0.8183 0.0
Tb289 Tb 0.99001 0.0171 0.68773 0.0
C290 C 0.06538 0.98345 0.94244 0.0
C291 C 0.08677 0.95967 0.94639 0.0
C292 C 0.10076 0.95328 0.02936 0.0
C293 C 0.11918 0.92906 0.03612 0.0
C294 C 0.12384 0.91078 0.95982 0.0
C295 C 0.11107 0.91838 0.87518 0.0
C296 C 0.09264 0.94265 0.86856 0.0
C297 C 0.05622 0.02153 0.65811 0.0
C298 C 0.01109 0.95294 0.68686 0.0
C299 C 0.95766 0.03776 0.56382 0.0
C300 C 0.9363 0.06157 0.56002 0.0
C301 C 0.92227 0.06797 0.47714 0.0
C302 C 0.90381 0.09217 0.47057 0.0
C303 C 0.89915 0.1104 0.54698 0.0
C304 C 0.91198 0.10279 0.63152 0.0
C305 C 0.93046 0.07855 0.63795 0.0
C306 C 0.96703 0.99955 0.84788 0.0
C307 C 0.01211 0.06836 0.81919 0.0
O308 O 0.03821 0.97557 0.93012 0.0
O309 O 0.07266 1.00555 0.89049 0.0
O310 O 0.03475 1.00461 0.6694 0.0
O311 O 0.06528 0.02903 0.73838 0.0
O312 O 0.02219 0.95964 0.76811 0.0
O313 O 1.001 0.97407 0.6339 0.0
O314 O 0.98486 0.04562 0.57571 0.0
O315 O 0.95042 0.01571 0.61604 0.0
O316 O 0.98835 0.01668 0.83661 0.0
O317 O 0.95811 0.99194 0.76754 0.0
O318 O 1.00096 0.06166 0.738 0.0
O319 O 0.02224 0.04723 0.87206 0.0
H320 H 0.09658 0.96638 0.08985 0.0
H321 H 0.12824 0.92366 0.10274 0.0
H322 H 0.11439 0.9049 0.81507 0.0
H323 H 0.08223 0.94758 0.80355 0.0
H324 H 0.92644 0.0549 0.41658 0.0
H325 H 0.89472 0.09758 0.40402 0.0
H326 H 0.90867 0.11624 0.6917 0.0
H327 H 0.94089 0.0736 0.70289 0.0
Tb328 Tb 0.51598 0.03157 0.8126 0.0
Tb329 Tb 0.50436 0.98795 0.68296 0.0
C330 C 0.53611 0.06435 0.9356 0.0
C331 C 0.56022 0.08533 0.93893 0.0
C332 C 0.56667 0.09939 0.0215 0.0
C333 C 0.59127 0.11729 0.0278 0.0
C334 C 0.60985 0.12131 0.95147 0.0
C335 C 0.60223 0.10848 0.86721 0.0
C336 C 0.57758 0.0906 0.86102 0.0
C337 C 0.4986 0.05395 0.65196 0.0
C338 C 0.56803 1.00988 0.68228 0.0
C339 C 0.48449 0.95469 0.56076 0.0
C340 C 0.46031 0.93378 0.5575 0.0
C341 C 0.45399 0.91947 0.47525 0.0
C342 C 0.42935 0.90163 0.46898 0.0
C343 C 0.41058 0.8979 0.54504 0.0
C344 C 0.4181 0.91094 0.62908 0.0
C345 C 0.44278 0.92878 0.63522 0.0
C346 C 0.52204 0.96592 0.84353 0.0
C347 C 0.45224 1.00977 0.81274 0.0
O348 O 0.54368 0.03698 0.92587 0.0
O349 O 0.5145 0.07156 0.88197 0.0
O350 O 0.51601 0.03288 0.66366 0.0
O351 O 0.49054 0.0629 0.73199 0.0
O352 O 0.56082 0.02106 0.7631 0.0
O353 O 0.54731 0.99938 0.6291 0.0
O354 O 0.47701 0.98214 0.56909 0.0
O355 O 0.50587 0.94762 0.61547 0.0
O356 O 0.50421 0.98663 0.83182 0.0
O357 O 0.53054 0.95728 0.76365 0.0
O358 O 0.45949 0.99847 0.73214 0.0
O359 O 0.47293 0.02032 0.86591 0.0
H360 H 0.55333 0.09564 0.08205 0.0
H361 H 0.59668 0.12642 0.09414 0.0
H362 H 0.61596 0.11131 0.80711 0.0
H363 H 0.57261 0.08013 0.7963 0.0
H364 H 0.46748 0.92296 0.41487 0.0
H365 H 0.42404 0.89231 0.40281 0.0
H366 H 0.40426 0.90832 0.68903 0.0
H367 H 0.44766 0.93942 0.69973 0.0
Tb368 Tb 0.48788 0.51715 0.82355 0.0
Tb369 Tb 0.53103 0.50506 0.69203 0.0
C370 C 0.45567 0.53767 0.94814 0.0
C371 C 0.43532 0.56237 0.95198 0.0
C372 C 0.42163 0.56943 0.03499 0.0
C373 C 0.40444 0.59457 0.04139 0.0
C374 C 0.40082 0.6131 0.96474 0.0
C375 C 0.41326 0.60492 0.88018 0.0
C376 C 0.43039 0.57972 0.87387 0.0
C377 C 0.46484 0.50094 0.66307 0.0
C378 C 0.51044 0.56921 0.69463 0.0
C379 C 0.5634 0.48487 0.5673 0.0
C380 C 0.5841 0.46051 0.56263 0.0
C381 C 0.59811 0.4542 0.47955 0.0
C382 C 0.61584 0.42949 0.47213 0.0
C383 C 0.61974 0.41063 0.54785 0.0
C384 C 0.60693 0.41807 0.63259 0.0
C385 C 0.58923 0.44284 0.6399 0.0
C386 C 0.55403 0.52127 0.85269 0.0
C387 C 0.50837 0.45295 0.82069 0.0
O388 O 0.48323 0.54451 0.93796 0.0
O389 O 0.44793 0.51637 0.89428 0.0
O390 O 0.48632 0.51781 0.67461 0.0
O391 O 0.45581 0.4928 0.74315 0.0
O392 O 0.49916 0.5619 0.77542 0.0
O393 O 0.52055 0.54852 0.64047 0.0
O394 O 0.53595 0.47764 0.57784 0.0
O395 O 0.57095 0.50621 0.62124 0.0
O396 O 0.53265 0.50429 0.84094 0.0
O397 O 0.56289 0.52961 0.77263 0.0
O398 O 0.5197 0.46028 0.73997 0.0
O399 O 0.49824 0.47362 0.87492 0.0
H400 H 0.42511 0.55612 0.09573 0.0
H401 H 0.39557 0.60041 0.10789 0.0
H402 H 0.41072 0.6186 0.81985 0.0
H403 H 0.44055 0.5743 0.80883 0.0
H404 H 0.59449 0.46779 0.41948 0.0
H405 H 0.62495 0.42423 0.40546 0.0
H406 H 0.60968 0.40412 0.69225 0.0
H407 H 0.57881 0.44768 0.705 0.0
Tb408 Tb 1.00539 0.4893 0.81944 0.0
Tb409 Tb 0.01803 0.53232 0.68635 0.0
C410 C 0.98657 0.45802 0.94951 0.0
C411 C 0.96376 0.43608 0.96644 0.0
C412 C 0.93663 0.43757 0.92215 0.0
C413 C 0.91425 0.4183 0.94682 0.0
C414 C 0.91869 0.39721 0.01606 0.0
C415 C 0.9466 0.39452 0.0554 0.0
C416 C 0.96891 0.41388 0.03097 0.0
C417 C 0.02228 0.46589 0.65985 0.0
C418 C 0.95368 0.51144 0.68839 0.0
C419 C 0.0382 0.56417 0.55973 0.0
C420 C 0.06216 0.58527 0.55303 0.0
C421 C 0.06818 0.5988 0.46877 0.0
C422 C 0.09234 0.61721 0.45972 0.0
C423 C 0.11091 0.62233 0.53498 0.0
C424 C 0.10374 0.60994 0.62078 0.0
C425 C 0.07955 0.59151 0.62969 0.0
C426 C 1.00121 0.55561 0.84639 0.0
C427 C 0.06975 0.51032 0.81605 0.0
O428 O 0.97796 0.48489 0.93429 0.0
O429 O 1.00762 0.45014 0.89443 0.0
O430 O 1.00543 0.48748 0.67053 0.0
O431 O 0.0299 0.45691 0.74039 0.0
O432 O 0.96058 0.4992 0.76827 0.0
O433 O 0.97452 0.52228 0.63575 0.0
O434 O 0.04587 0.53692 0.57234 0.0
O435 O 0.01665 0.57179 0.61323 0.0
O436 O 0.01812 0.53412 0.83517 0.0
O437 O 0.99353 0.5646 0.76598 0.0
O438 O 0.06278 0.52145 0.73489 0.0
O439 O 0.04881 0.50033 0.86999 0.0
H440 H 0.93236 0.45437 0.87143 0.0
H441 H 0.89293 0.42123 0.9159 0.0
H442 H 0.95077 0.37828 0.10799 0.0
H443 H 0.98989 0.41217 0.06495 0.0
H444 H 0.05479 0.59434 0.40916 0.0
H445 H 0.09741 0.62596 0.39229 0.0
H446 H 0.11745 0.61362 0.68014 0.0
H447 H 0.0749 0.58147 0.69566 0.0
C448 C 0.12471 0.02953 0.51085 0.0
C449 C 0.11801 0.01258 0.43312 0.0
H450 H 0.11055 0.04582 0.64157 0.0
C451 C 0.08947 1.00101 0.42658 0.0
H452 H 0.14637 0.03859 0.51961 0.0
C453 C 0.06894 1.0049 0.49758 0.0
C454 C 0.07626 0.02062 0.57699 0.0
H455 H 0.08312 0.98831 0.36732 0.0
H456 H 0.04762 0.99482 0.4915 0.0
C457 C 0.10414 0.03352 0.5815 0.0
C458 C 0.51946 0.08796 0.42134 0.0
C459 C 0.50708 0.11617 0.42778 0.0
H460 H 0.52645 0.04621 0.48613 0.0
C461 C 0.48944 0.12228 0.50481 0.0
H462 H 0.5327 0.08205 0.36254 0.0
C463 C 0.48559 0.10151 0.57508 0.0
C464 C 0.49933 0.07402 0.57086 0.0
H465 H 0.47973 0.14368 0.51345 0.0
H466 H 0.47275 0.10751 0.63471 0.0
C467 C 0.51571 0.06723 0.49198 0.0
C468 C 0.39663 0.49275 0.51581 0.0
C469 C 0.40323 0.51001 0.43811 0.0
H470 H 0.41078 0.4762 0.6464 0.0
C471 C 0.43162 0.52203 0.4318 0.0
H472 H 0.37509 0.48334 0.52447 0.0
C473 C 0.45209 0.5182 0.50283 0.0
C474 C 0.44486 0.50208 0.58208 0.0
H475 H 0.43793 0.53498 0.37259 0.0
H476 H 0.47328 0.52857 0.49682 0.0
C477 C 0.41713 0.48881 0.58647 0.0
C478 C 0.03134 0.39736 0.51453 0.0
C479 C 0.01348 0.40329 0.43802 0.0
H480 H 0.04824 0.41236 0.64333 0.0
C481 C 1.00087 0.43141 0.4313 0.0
H482 H 0.04123 0.37604 0.5233 0.0
C483 C 1.0047 0.45226 0.50105 0.0
C484 C 0.02133 0.44566 0.57949 0.0
H485 H 0.98741 0.43717 0.37291 0.0
H486 H 0.99384 0.47321 0.4949 0.0
C487 C 0.03521 0.41821 0.58404 0.0
C488 C 0.93272 0.02038 0.07764 0.0
C489 C 0.90444 1.00821 0.07073 0.0
H490 H 0.97464 0.02714 0.01367 0.0
C491 C 0.89834 0.99076 0.99362 0.0
H492 H 0.93862 0.03348 0.1365 0.0
C493 C 0.91921 0.98687 0.9238 0.0
C494 C 0.9468 1.00037 0.92853 0.0
H495 H 0.8769 0.98122 0.98461 0.0
H496 H 0.91324 0.97417 0.86411 0.0
C497 C 0.95356 0.01659 1.00745 0.0
C498 C 0.53982 0.9008 0.99616 0.0
C499 C 0.51725 0.90151 0.06228 0.0
H500 H 0.55906 0.92054 0.87638 0.0
C501 C 0.49799 0.92562 0.06081 0.0
H502 H 0.55554 0.88316 0.99573 0.0
C503 C 0.50037 0.94749 0.9929 0.0
C504 C 0.52196 0.9457 0.92415 0.0
H505 H 0.48009 0.92701 0.10954 0.0
H506 H 0.4845 0.96499 0.99175 0.0
C507 C 0.542 0.92245 0.92799 0.0
C508 C 0.62263 0.52983 0.99784 0.0
C509 C 0.61704 0.51125 0.07326 0.0
H510 H 0.60721 0.5477 0.87043 0.0
C511 C 0.58912 0.49817 0.0793 0.0
H512 H 0.64378 0.54011 0.98954 0.0
C513 C 0.56813 0.50234 1.00999 0.0
C514 C 0.57438 0.5198 0.93274 0.0
H515 H 0.58361 0.48416 0.13689 0.0
H516 H 0.54734 0.49115 0.01555 0.0
C517 C 0.60162 0.53405 0.92884 0.0
C518 C 0.99277 0.62428 0.99125 0.0
C519 C 1.01006 0.61804 0.06884 0.0
H520 H 0.97624 0.6096 0.86167 0.0
C521 C 0.02219 0.5897 0.07603 0.0
H522 H 0.98327 0.64575 0.98186 0.0
C523 C 0.01842 0.56896 1.00592 0.0
C524 C 1.00226 0.57584 0.92674 0.0
H525 H 0.03517 0.58365 0.13519 0.0
H526 H 0.02889 0.54782 0.01254 0.0
C527 C 0.98889 0.60351 0.92155 0.0
C528 C 0.89371 0.19191 0.53153 0.0
C529 C 0.87386 0.19513 0.45846 0.0
H530 H 0.91733 0.16235 0.61682 0.0
C531 C 0.85648 0.17102 0.43419 0.0
H532 H 0.90754 0.20982 0.55274 0.0
C533 C 0.8624 0.14336 0.47093 0.0
C534 C 0.88551 0.13954 0.53332 0.0
H535 H 0.84034 0.17291 0.38019 0.0
H536 H 0.8506 0.12467 0.44465 0.0
C537 C 0.89949 0.16439 0.56848 0.0
C538 C 0.32892 0.89421 0.52893 0.0
C539 C 0.32542 0.87378 0.45777 0.0
H540 H 0.35877 0.91789 0.61224 0.0
C541 C 0.34931 0.85586 0.4345 0.0
H542 H 0.3112 0.9085 0.54919 0.0
C543 C 0.37702 0.86154 0.4706 0.0
C544 C 0.38115 0.88498 0.53137 0.0
H545 H 0.3472 0.83931 0.38197 0.0
H546 H 0.39554 0.84917 0.4453 0.0
C547 C 0.35649 0.89975 0.56527 0.0
C548 C 0.62336 0.32904 0.53023 0.0
C549 C 0.64376 0.32566 0.45849 0.0
H550 H 0.59973 0.35875 0.6147 0.0
C551 C 0.66169 0.34957 0.43515 0.0
H552 H 0.60906 0.3113 0.55054 0.0
C553 C 0.65602 0.3772 0.47183 0.0
C554 C 0.63262 0.38123 0.53331 0.0
H555 H 0.67822 0.34755 0.38216 0.0
H556 H 0.66838 0.39576 0.44646 0.0
C557 C 0.61785 0.35653 0.56719 0.0
C558 C 0.19241 0.62875 0.51774 0.0
C559 C 0.19529 0.64851 0.44387 0.0
H560 H 0.1633 0.60493 0.60432 0.0
C561 C 0.17081 0.66532 0.41848 0.0
H562 H 0.21058 0.61531 0.53978 0.0
C563 C 0.14326 0.65902 0.45547 0.0
C564 C 0.13988 0.63612 0.5193 0.0
H565 H 0.1724 0.68137 0.36384 0.0
H566 H 0.12435 0.67045 0.42868 0.0
C567 C 0.165 0.62262 0.55497 0.0
C568 C 0.12909 0.82923 0.97533 0.0
C569 C 0.14898 0.82593 0.04827 0.0
H570 H 0.1055 0.85886 0.89017 0.0
C571 C 0.16638 0.85003 0.07264 0.0
H572 H 0.11524 0.81135 0.95402 0.0
C573 C 0.16048 0.87772 0.03607 0.0
C574 C 0.13738 0.8816 0.97367 0.0
H575 H 0.18256 0.84809 0.12649 0.0
H576 H 0.17231 0.89638 0.06239 0.0
C577 C 0.12335 0.85678 0.9385 0.0
C578 C 0.67106 0.16337 0.06205 0.0
C579 C 0.69496 0.14548 0.03867 0.0
H580 H 0.62481 0.16998 0.05148 0.0
C581 C 0.69149 0.12513 0.96726 0.0
H582 H 0.67315 0.17987 0.11473 0.0
C583 C 0.66391 0.1196 0.93087 0.0
C584 C 0.63924 0.13431 0.96498 0.0
H585 H 0.70921 0.11087 0.94688 0.0
H586 H 0.66164 0.10151 0.8837 0.0
C587 C 0.64335 0.15768 0.02596 0.0
C588 C 0.35991 0.6758 0.07273 0.0
C589 C 0.37834 0.69922 0.04823 0.0
H590 H 0.35242 0.62964 0.06467 0.0
C591 C 0.39896 0.69488 0.97758 0.0
H592 H 0.34315 0.67852 0.12469 0.0
C593 C 0.40403 0.66702 0.94276 0.0
C594 C 0.38865 0.64287 0.97778 0.0
H595 H 0.41367 0.71215 0.95633 0.0
H596 H 0.42222 0.6641 0.89588 0.0
C597 C 0.3652 0.64778 0.03841 0.0
C598 C 0.84266 0.36625 0.04353 0.0
C599 C 0.83816 0.37067 0.13827 0.0
H600 H 0.87208 0.37114 0.9295 0.0
C601 C 0.86267 0.37681 0.19337 0.0
H602 H 0.82466 0.36045 0.99913 0.0
C603 C 0.88982 0.38237 0.15361 0.0
C604 C 0.89319 0.38212 0.05779 0.0
H605 H 0.86055 0.38055 0.2664 0.0
H606 H 0.90729 0.38991 0.19764 0.0
C607 C 0.86987 0.37227 1.0035 0.0
C608 C 0.9987 0.15087 0.83647 0.0
C609 C 1.00758 0.15716 0.92718 0.0
H610 H 0.99298 0.11843 0.73151 0.0
C611 C 0.01892 0.13393 0.98006 0.0
H612 H 0.99023 0.168 0.79252 0.0
C613 C 0.02075 0.10547 0.94445 0.0
C614 C 0.01122 0.09911 0.85473 0.0
H615 H 0.02555 0.13741 0.05047 0.0
H616 H 0.02918 0.08828 0.98834 0.0
C617 C 1.0004 0.12232 0.80098 0.0
C618 C 0.37001 0.99486 0.82848 0.0
C619 C 0.36304 1.00455 0.91794 0.0
H620 H 0.40316 0.98875 0.72531 0.0
C621 C 0.38567 0.01696 0.97036 0.0
H622 H 0.35331 0.98552 0.78505 0.0
C623 C 0.41428 0.01901 0.93557 0.0
C624 C 0.42134 1.00867 0.84719 0.0
H625 H 0.3816 0.02424 0.03988 0.0
H626 H 0.43102 0.02826 0.97907 0.0
C627 C 0.3987 0.99683 0.79377 0.0
C628 C 0.52244 0.37059 0.83285 0.0
C629 C 0.51306 0.36341 0.92268 0.0
H630 H 0.52845 0.40402 0.73041 0.0
C631 C 0.50101 0.38594 0.97653 0.0
H632 H 0.53148 0.35396 0.78836 0.0
C633 C 0.49906 0.41467 0.94276 0.0
C634 C 0.50915 0.42194 0.85405 0.0
H635 H 0.49397 0.38168 0.04636 0.0
H636 H 0.49013 0.43135 0.98732 0.0
C637 C 0.52058 0.39939 0.79919 0.0
C638 C 0.15231 0.52353 0.83025 0.0
C639 C 0.15886 0.5149 0.92123 0.0
H640 H 0.11955 0.52903 0.72591 0.0
C641 C 0.13579 0.50374 0.9753 0.0
H642 H 0.16933 0.53185 0.78547 0.0
C643 C 0.10723 0.50187 0.94055 0.0
C644 C 0.10061 0.51119 0.85058 0.0
H645 H 0.13949 0.49732 0.04595 0.0
H646 H 0.09016 0.4936 0.98532 0.0
C647 C 0.12366 0.52179 0.79562 0.0
C648 C 0.02468 0.87049 0.66993 0.0
C649 C 0.0158 0.86413 0.57927 0.0
H650 H 0.03034 0.90297 0.77471 0.0
C651 C 1.00437 0.8873 0.52629 0.0
H652 H 0.03322 0.85339 0.71392 0.0
C653 C 1.00248 0.91577 0.56177 0.0
C654 C 0.01202 0.92219 0.65142 0.0
H655 H 0.99773 0.88375 0.45592 0.0
H656 H 0.99399 0.93292 0.51783 0.0
C657 C 0.0229 0.89903 0.70528 0.0
C658 C 0.63466 1.00285 0.52477 0.0
C659 C 0.65732 0.01496 0.57774 0.0
H660 H 0.58924 0.99182 0.51539 0.0
C661 C 0.65033 0.02443 0.66741 0.0
H662 H 0.63874 0.99575 0.45507 0.0
C663 C 0.62161 0.02253 0.70182 0.0
C664 C 0.59894 0.01097 0.6479 0.0
H665 H 0.66705 0.03353 0.71127 0.0
H666 H 0.61715 0.03041 0.7705 0.0
C667 C 0.60601 1.00086 0.55928 0.0
C668 C 0.51927 0.63632 0.5401 0.0
C669 C 0.50562 0.65855 0.59133 0.0
H670 H 0.53141 0.59117 0.53175 0.0
C671 C 0.49466 0.6512 0.67921 0.0
H672 H 0.52759 0.64075 0.47176 0.0
C673 C 0.49663 0.62248 0.71354 0.0
C674 C 0.50962 0.60019 0.66109 0.0
H675 H 0.48429 0.66763 0.72155 0.0
H676 H 0.48753 0.6177 0.78071 0.0
C677 C 0.52122 0.60765 0.57436 0.0
C678 C 0.87351 0.49089 0.64852 0.0
C679 C 0.86548 0.50964 0.57536 0.0
H680 H 0.90711 0.47675 0.7418 0.0
C681 C 0.88657 0.52985 0.54406 0.0
H682 H 0.85839 0.47462 0.67432 0.0
C683 C 0.91479 0.53053 0.58171 0.0
C684 C 0.92291 0.51142 0.65325 0.0
H685 H 0.88145 0.54524 0.48982 0.0
H686 H 0.93035 0.54614 0.55428 0.0
C687 C 0.90169 0.49192 0.68724 0.0
loop_
_geom_bond_atom_site_label_1
_geom_bond_atom_site_label_2
_geom_bond_distance
_geom_bond_site_symmetry_2
_ccdc_geom_bond_type
C0 C1 1.384 . S
C0 H13 0.947 . S
C0 C35 1.382 . S
C1 C0 1.384 . S
C1 C2 1.378 . S
C2 C1 1.378 . S
C2 C3 1.378 . S
C2 H14 0.952 . S
C3 C2 1.378 . S
C3 H15 0.950 . S
C3 C34 1.383 . S
H4 C23 0.947 . S
H5 C24 0.946 . S
H6 C26 0.953 . S
H7 C27 0.945 . S
H8 C29 0.952 . S
H9 C30 0.949 . S
H10 C32 0.950 . S
H11 C33 0.948 . S
H12 C35 0.951 . S
H13 C0 0.947 . S
H14 C2 0.952 . S
H15 C3 0.950 . S
N16 C19 1.382 . S
N16 C21 1.363 . S
N17 C19 1.371 . S
N17 C20 1.372 . S
N18 C20 1.361 . S
N18 C21 1.377 . S
C19 N16 1.382 . S
C19 N17 1.371 . S
C19 C22 1.480 . S
C20 N17 1.372 . S
C20 N18 1.361 . S
C20 C28 1.457 . S
C21 N16 1.363 . S
C21 N18 1.377 . S
C21 C34 1.479 . S
C22 C19 1.480 . S
C22 C23 1.383 . S
C22 C27 1.385 . S
C23 H4 0.947 . S
C23 C22 1.383 . S
C23 C24 1.388 . S
C24 H5 0.946 . S
C24 C23 1.388 . S
C24 C25 1.384 . S
C25 C24 1.384 . S
C25 C26 1.377 . S
C26 H6 0.953 . S
C26 C25 1.377 . S
C26 C27 1.369 . S
C27 H7 0.945 . S
C27 C22 1.385 . S
C27 C26 1.369 . S
C28 C20 1.457 . S
C28 C29 1.372 . S
C28 C33 1.364 . S
C29 H8 0.952 . S
C29 C28 1.372 . S
C29 C30 1.389 . S
C30 H9 0.949 . S
C30 C29 1.389 . S
C30 C31 1.387 . S
C31 C30 1.387 . S
C31 C32 1.372 . S
C32 H10 0.950 . S
C32 C31 1.372 . S
C32 C33 1.379 . S
C33 H11 0.948 . S
C33 C28 1.364 . S
C33 C32 1.379 . S
C34 C3 1.383 . S
C34 C21 1.479 . S
C34 C35 1.398 . S
C35 C0 1.382 . S
C35 H12 0.951 . S
C35 C34 1.398 . S
C36 C37 1.384 1_655 S
C36 H49 0.948 . S
C36 C71 1.382 1_655 S
C37 C36 1.384 1_455 S
C37 C38 1.378 . S
C38 C37 1.378 . S
C38 C39 1.378 . S
C38 H50 0.952 . S
C39 C38 1.378 . S
C39 H51 0.950 . S
C39 C70 1.383 . S
H40 C59 0.947 . S
H41 C60 0.952 . S
H42 C62 0.953 . S
H43 C63 0.945 . S
H44 C65 0.949 1_655 S
H45 C66 0.949 . S
H46 C68 0.950 . S
H47 C69 0.948 . S
H48 C71 0.951 1_655 S
H49 C36 0.948 . S
H50 C38 0.952 . S
H51 C39 0.950 . S
N52 C55 1.382 . S
N52 C57 1.363 . S
N53 C55 1.371 . S
N53 C56 1.372 . S
N54 C56 1.361 . S
N54 C57 1.377 . S
C55 N52 1.382 . S
C55 N53 1.371 . S
C55 C58 1.480 . S
C56 N53 1.372 . S
C56 N54 1.361 . S
C56 C64 1.457 . S
C57 N52 1.363 . S
C57 N54 1.377 . S
C57 C70 1.479 . S
C58 C55 1.480 . S
C58 C59 1.383 . S
C58 C63 1.385 . S
C59 H40 0.947 . S
C59 C58 1.383 . S
C59 C60 1.386 1_455 S
C60 H41 0.952 . S
C60 C59 1.386 1_655 S
C60 C61 1.381 1_655 S
C61 C60 1.381 1_455 S
C61 C62 1.377 . S
C62 H42 0.953 . S
C62 C61 1.377 . S
C62 C63 1.369 . S
C63 H43 0.945 . S
C63 C58 1.385 . S
C63 C62 1.369 . S
C64 C56 1.457 . S
C64 C65 1.377 . S
C64 C69 1.364 . S
C65 H44 0.949 1_455 S
C65 C64 1.377 . S
C65 C66 1.387 1_455 S
C66 H45 0.949 . S
C66 C65 1.387 1_655 S
C66 C67 1.387 1_655 S
C67 C66 1.387 1_455 S
C67 C68 1.372 . S
C68 H46 0.950 . S
C68 C67 1.372 . S
C68 C69 1.379 . S
C69 H47 0.948 . S
C69 C64 1.364 . S
C69 C68 1.379 . S
C70 C39 1.383 . S
C70 C57 1.479 . S
C70 C71 1.398 . S
C71 C36 1.382 1_455 S
C71 H48 0.951 1_455 S
C71 C70 1.398 . S
C72 C73 1.384 1_565 S
C72 H85 0.948 . S
C72 C107 1.382 1_565 S
C73 C72 1.384 1_545 S
C73 C74 1.378 . S
C74 C73 1.378 . S
C74 C75 1.378 . S
C74 H86 0.952 . S
C75 C74 1.378 . S
C75 H87 0.950 . S
C75 C106 1.383 . S
H76 C95 0.947 . S
H77 C96 0.952 . S
H78 C98 0.953 . S
H79 C99 0.945 . S
H80 C101 0.949 1_565 S
H81 C102 0.949 . S
H82 C104 0.950 . S
H83 C105 0.948 . S
H84 C107 0.951 1_565 S
H85 C72 0.948 . S
H86 C74 0.952 . S
H87 C75 0.950 . S
N88 C91 1.382 . S
N88 C93 1.363 . S
N89 C91 1.371 . S
N89 C92 1.372 . S
N90 C92 1.361 . S
N90 C93 1.377 . S
C91 N88 1.382 . S
C91 N89 1.371 . S
C91 C94 1.480 . S
C92 N89 1.372 . S
C92 N90 1.361 . S
C92 C100 1.457 . S
C93 N88 1.363 . S
C93 N90 1.377 . S
C93 C106 1.479 . S
C94 C91 1.480 . S
C94 C95 1.383 . S
C94 C99 1.385 . S
C95 H76 0.947 . S
C95 C94 1.383 . S
C95 C96 1.386 1_545 S
C96 H77 0.952 . S
C96 C95 1.386 1_565 S
C96 C97 1.382 1_565 S
C97 C96 1.382 1_545 S
C97 C98 1.377 . S
C98 H78 0.953 . S
C98 C97 1.377 . S
C98 C99 1.369 . S
C99 H79 0.945 . S
C99 C94 1.385 . S
C99 C98 1.369 . S
C100 C92 1.457 . S
C100 C101 1.377 . S
C100 C105 1.364 . S
C101 H80 0.949 1_545 S
C101 C100 1.377 . S
C101 C102 1.387 1_545 S
C102 H81 0.949 . S
C102 C101 1.387 1_565 S
C102 C103 1.387 1_565 S
C103 C102 1.387 1_545 S
C103 C104 1.372 . S
C104 H82 0.950 . S
C104 C103 1.372 . S
C104 C105 1.379 . S
C105 H83 0.948 . S
C105 C100 1.364 . S
C105 C104 1.379 . S
C106 C75 1.383 . S
C106 C93 1.479 . S
C106 C107 1.398 . S
C107 C72 1.382 1_545 S
C107 H84 0.951 1_545 S
C107 C106 1.398 . S
C108 C109 1.384 . S
C108 H121 0.947 . S
C108 C143 1.382 . S
C109 C108 1.384 . S
C109 C110 1.378 . S
C110 C109 1.378 . S
C110 C111 1.378 . S
C110 H122 0.952 . S
C111 C110 1.378 . S
C111 H123 0.950 . S
C111 C142 1.383 . S
H112 C131 0.947 . S
H113 C132 0.946 . S
H114 C134 0.953 . S
H115 C135 0.945 . S
H116 C137 0.952 . S
H117 C138 0.949 . S
H118 C140 0.950 . S
H119 C141 0.948 . S
H120 C143 0.951 . S
H121 C108 0.947 . S
H122 C110 0.952 . S
H123 C111 0.950 . S
N124 C127 1.382 . S
N124 C129 1.363 . S
N125 C127 1.371 . S
N125 C128 1.372 . S
N126 C128 1.361 . S
N126 C129 1.377 . S
C127 N124 1.382 . S
C127 N125 1.371 . S
C127 C130 1.480 . S
C128 N125 1.372 . S
C128 N126 1.361 . S
C128 C136 1.457 . S
C129 N124 1.363 . S
C129 N126 1.377 . S
C129 C142 1.479 . S
C130 C127 1.480 . S
C130 C131 1.383 . S
C130 C135 1.385 . S
C131 H112 0.947 . S
C131 C130 1.383 . S
C131 C132 1.388 . S
C132 H113 0.946 . S
C132 C131 1.388 . S
C132 C133 1.384 . S
C133 C132 1.384 . S
C133 C134 1.377 . S
C134 H114 0.953 . S
C134 C133 1.377 . S
C134 C135 1.369 . S
C135 H115 0.945 . S
C135 C130 1.385 . S
C135 C134 1.369 . S
C136 C128 1.457 . S
C136 C137 1.372 . S
C136 C141 1.364 . S
C137 H116 0.952 . S
C137 C136 1.372 . S
C137 C138 1.389 . S
C138 H117 0.949 . S
C138 C137 1.389 . S
C138 C139 1.387 . S
C139 C138 1.387 . S
C139 C140 1.372 . S
C140 H118 0.950 . S
C140 C139 1.372 . S
C140 C141 1.379 . S
C141 H119 0.948 . S
C141 C136 1.364 . S
C141 C140 1.379 . S
C142 C111 1.383 . S
C142 C129 1.479 . S
C142 C143 1.398 . S
C143 C108 1.382 . S
C143 H120 0.951 . S
C143 C142 1.398 . S
C144 C145 1.384 . S
C144 H157 0.947 . S
C144 C179 1.382 . S
C145 C144 1.384 . S
C145 C146 1.378 . S
C146 C145 1.378 . S
C146 C147 1.378 . S
C146 H158 0.952 . S
C147 C146 1.378 . S
C147 H159 0.950 . S
C147 C178 1.383 . S
H148 C167 0.947 1_556 S
H149 C168 0.946 . S
H150 C170 0.953 . S
H151 C171 0.945 . S
H152 C173 0.952 . S
H153 C174 0.949 . S
H154 C176 0.950 . S
H155 C177 0.948 . S
H156 C179 0.951 . S
H157 C144 0.947 . S
H158 C146 0.952 . S
H159 C147 0.950 . S
N160 C163 1.382 1_556 S
N160 C165 1.363 . S
N161 C163 1.371 . S
N161 C164 1.372 . S
N162 C164 1.361 . S
N162 C165 1.377 1_554 S
C163 N160 1.382 1_554 S
C163 N161 1.371 . S
C163 C166 1.480 . S
C164 N161 1.372 . S
C164 N162 1.361 . S
C164 C172 1.457 . S
C165 N160 1.363 . S
C165 N162 1.377 1_556 S
C165 C178 1.479 . S
C166 C163 1.480 . S
C166 C167 1.383 . S
C166 C171 1.385 . S
C167 H148 0.947 1_554 S
C167 C166 1.383 . S
C167 C168 1.388 . S
C168 H149 0.946 . S
C168 C167 1.388 . S
C168 C169 1.384 . S
C169 C168 1.384 . S
C169 C170 1.377 . S
C170 H150 0.953 . S
C170 C169 1.377 . S
C170 C171 1.369 . S
C171 H151 0.945 . S
C171 C166 1.385 . S
C171 C170 1.369 . S
C172 C164 1.457 . S
C172 C173 1.372 . S
C172 C177 1.364 . S
C173 H152 0.952 . S
C173 C172 1.372 . S
C173 C174 1.389 . S
C174 H153 0.949 . S
C174 C173 1.389 . S
C174 C175 1.387 . S
C175 C174 1.387 . S
C175 C176 1.372 . S
C176 H154 0.950 . S
C176 C175 1.372 . S
C176 C177 1.379 . S
C177 H155 0.948 . S
C177 C172 1.364 . S
C177 C176 1.379 . S
C178 C147 1.383 . S
C178 C165 1.479 . S
C178 C179 1.398 . S
C179 C144 1.382 . S
C179 H156 0.951 . S
C179 C178 1.398 . S
C180 C181 1.384 1_655 S
C180 H193 0.947 . S
C180 C215 1.382 1_655 S
C181 C180 1.384 1_455 S
C181 C182 1.378 . S
C182 C181 1.378 . S
C182 C183 1.378 . S
C182 H194 0.952 . S
C183 C182 1.378 . S
C183 H195 0.950 . S
C183 C214 1.383 . S
H184 C203 0.947 1_556 S
H185 C204 0.950 . S
H186 C206 0.953 . S
H187 C207 0.945 . S
H188 C209 0.947 1_655 S
H189 C210 0.954 . S
H190 C212 0.950 . S
H191 C213 0.948 . S
H192 C215 0.950 1_655 S
H193 C180 0.947 . S
H194 C182 0.952 . S
H195 C183 0.950 . S
N196 C199 1.382 1_556 S
N196 C201 1.363 . S
N197 C199 1.371 . S
N197 C200 1.372 . S
N198 C200 1.361 . S
N198 C201 1.377 1_554 S
C199 N196 1.382 1_554 S
C199 N197 1.371 . S
C199 C202 1.480 . S
C200 N197 1.372 . S
C200 N198 1.361 . S
C200 C208 1.457 . S
C201 N196 1.363 . S
C201 N198 1.377 1_556 S
C201 C214 1.479 . S
C202 C199 1.480 . S
C202 C203 1.383 . S
C202 C207 1.385 . S
C203 H184 0.947 1_554 S
C203 C202 1.383 . S
C203 C204 1.387 1_455 S
C204 H185 0.950 . S
C204 C203 1.387 1_655 S
C204 C205 1.382 1_655 S
C205 C204 1.382 1_455 S
C205 C206 1.377 . S
C206 H186 0.953 . S
C206 C205 1.377 . S
C206 C207 1.369 . S
C207 H187 0.945 . S
C207 C202 1.385 . S
C207 C206 1.369 . S
C208 C200 1.457 . S
C208 C209 1.379 . S
C208 C213 1.364 . S
C209 H188 0.947 1_455 S
C209 C208 1.379 . S
C209 C210 1.387 1_455 S
C210 H189 0.954 . S
C210 C209 1.387 1_655 S
C210 C211 1.383 1_655 S
C211 C210 1.383 1_455 S
C211 C212 1.372 . S
C212 H190 0.950 . S
C212 C211 1.372 . S
C212 C213 1.379 . S
C213 H191 0.948 . S
C213 C208 1.364 . S
C213 C212 1.379 . S
C214 C183 1.383 . S
C214 C201 1.479 . S
C214 C215 1.399 . S
C215 C180 1.382 1_455 S
C215 H192 0.950 1_455 S
C215 C214 1.399 . S
C216 C217 1.384 1_565 S
C216 H229 0.947 . S
C216 C251 1.382 1_565 S
C217 C216 1.384 1_545 S
C217 C218 1.378 . S
C218 C217 1.378 . S
C218 C219 1.378 . S
C218 H230 0.952 . S
C219 C218 1.378 . S
C219 H231 0.950 . S
C219 C250 1.383 . S
H220 C239 0.947 1_556 S
H221 C240 0.950 . S
H222 C242 0.953 . S
H223 C243 0.945 . S
H224 C245 0.948 1_565 S
H225 C246 0.954 . S
H226 C248 0.950 . S
H227 C249 0.948 . S
H228 C251 0.950 1_565 S
H229 C216 0.947 . S
H230 C218 0.952 . S
H231 C219 0.950 . S
N232 C235 1.382 1_556 S
N232 C237 1.363 . S
N233 C235 1.371 . S
N233 C236 1.372 . S
N234 C236 1.361 . S
N234 C237 1.377 1_554 S
C235 N232 1.382 1_554 S
C235 N233 1.371 . S
C235 C238 1.480 . S
C236 N233 1.372 . S
C236 N234 1.361 . S
C236 C244 1.457 . S
C237 N232 1.363 . S
C237 N234 1.377 1_556 S
C237 C250 1.479 . S
C238 C235 1.480 . S
C238 C239 1.383 . S
C238 C243 1.385 . S
C239 H220 0.947 1_554 S
C239 C238 1.383 . S
C239 C240 1.387 1_545 S
C240 H221 0.950 . S
C240 C239 1.387 1_565 S
C240 C241 1.382 1_565 S
C241 C240 1.382 1_545 S
C241 C242 1.377 . S
C242 H222 0.953 . S
C242 C241 1.377 . S
C242 C243 1.369 . S
C243 H223 0.945 . S
C243 C238 1.385 . S
C243 C242 1.369 . S
C244 C236 1.457 . S
C244 C245 1.378 . S
C244 C249 1.364 . S
C245 H224 0.948 1_545 S
C245 C244 1.378 . S
C245 C246 1.387 1_545 S
C246 H225 0.954 . S
C246 C245 1.387 1_565 S
C246 C247 1.384 1_565 S
C247 C246 1.384 1_545 S
C247 C248 1.372 . S
C248 H226 0.950 . S
C248 C247 1.372 . S
C248 C249 1.379 . S
C249 H227 0.948 . S
C249 C244 1.364 . S
C249 C248 1.379 . S
C250 C219 1.383 . S
C250 C237 1.479 . S
C250 C251 1.399 . S
C251 C216 1.382 1_545 S
C251 H228 0.950 1_545 S
C251 C250 1.399 . S
C252 C253 1.384 . S
C252 H265 0.947 . S
C252 C287 1.382 . S
C253 C252 1.384 . S
C253 C254 1.378 . S
C254 C253 1.378 . S
C254 C255 1.378 . S
C254 H266 0.952 . S
C255 C254 1.378 . S
C255 H267 0.950 . S
C255 C286 1.383 . S
H256 C275 0.947 . S
H257 C276 0.946 . S
H258 C278 0.953 1_556 S
H259 C279 0.945 1_556 S
H260 C281 0.952 . S
H261 C282 0.949 . S
H262 C284 0.950 . S
H263 C285 0.948 . S
H264 C287 0.951 . S
H265 C252 0.947 . S
H266 C254 0.952 . S
H267 C255 0.950 . S
N268 C271 1.382 . S
N268 C273 1.363 . S
N269 C271 1.371 1_556 S
N269 C272 1.372 . S
N270 C272 1.361 1_554 S
N270 C273 1.377 . S
C271 N268 1.382 . S
C271 N269 1.371 1_554 S
C271 C274 1.480 . S
C272 N269 1.372 . S
C272 N270 1.361 1_556 S
C272 C280 1.457 . S
C273 N268 1.363 . S
C273 N270 1.377 . S
C273 C286 1.479 . S
C274 C271 1.480 . S
C274 C275 1.383 . S
C274 C279 1.385 . S
C275 H256 0.947 . S
C275 C274 1.383 . S
C275 C276 1.388 . S
C276 H257 0.946 . S
C276 C275 1.388 . S
C276 C277 1.384 . S
C277 C276 1.384 . S
C277 C278 1.377 . S
C278 H258 0.953 1_554 S
C278 C277 1.377 . S
C278 C279 1.369 . S
C279 H259 0.945 1_554 S
C279 C274 1.385 . S
C279 C278 1.369 . S
C280 C272 1.457 . S
C280 C281 1.372 . S
C280 C285 1.364 . S
C281 H260 0.952 . S
C281 C280 1.372 . S
C281 C282 1.389 . S
C282 H261 0.949 . S
C282 C281 1.389 . S
C282 C283 1.387 . S
C283 C282 1.387 . S
C283 C284 1.372 . S
C284 H262 0.950 . S
C284 C283 1.372 . S
C284 C285 1.379 . S
C285 H263 0.948 . S
C285 C280 1.364 . S
C285 C284 1.379 . S
C286 C255 1.383 . S
C286 C273 1.479 . S
C286 C287 1.398 . S
C287 C252 1.382 . S
C287 H264 0.951 . S
C287 C286 1.398 . S
Tb288 C290 2.809 . S
Tb288 O308 2.484 . S
Tb288 O309 2.440 . S
Tb288 O310 2.658 1_565 S
Tb288 O311 2.409 . S
Tb288 O312 2.378 . S
Tb288 O316 2.325 1_455 S
Tb288 O319 2.341 1_565 S
Tb289 C299 2.809 . S
Tb289 O310 2.325 1_655 S
Tb289 O313 2.341 1_545 S
Tb289 O314 2.484 . S
Tb289 O315 2.440 . S
Tb289 O316 2.658 1_545 S
Tb289 O317 2.409 . S
Tb289 O318 2.378 . S
C290 Tb288 2.809 . S
C290 C291 1.514 . S
C290 O308 1.248 . S
C290 O309 1.266 . S
C291 C290 1.514 . S
C291 C292 1.359 1_556 S
C291 C296 1.348 . S
C292 C291 1.359 1_554 S
C292 C293 1.380 . S
C292 H320 0.929 1_455 S
C293 C292 1.380 . S
C293 C294 1.347 . S
C293 H321 0.931 . S
C294 C293 1.347 . S
C294 C295 1.369 . S
C295 C294 1.369 . S
C295 C296 1.408 1_554 S
C295 H322 0.930 . S
C296 C291 1.348 . S
C296 C295 1.408 1_556 S
C296 H323 0.930 . S
C297 O310 1.281 1_565 S
C297 O311 1.254 . S
C298 O312 1.236 1_655 S
C298 O313 1.266 . S
C299 Tb289 2.809 . S
C299 C300 1.514 . S
C299 O314 1.248 . S
C299 O315 1.266 . S
C300 C299 1.514 . S
C300 C301 1.359 . S
C300 C305 1.348 . S
C301 C300 1.359 . S
C301 C302 1.380 . S
C301 H324 0.929 1_655 S
C302 C301 1.380 . S
C302 C303 1.347 . S
C302 H325 0.931 . S
C303 C302 1.347 . S
C303 C304 1.369 . S
C304 C303 1.369 . S
C304 C305 1.408 . S
C304 H326 0.930 . S
C305 C300 1.348 . S
C305 C304 1.408 . S
C305 H327 0.930 . S
C306 O316 1.281 1_545 S
C306 O317 1.254 . S
C307 O318 1.236 1_455 S
C307 O319 1.266 . S
O308 Tb288 2.484 . S
O308 C290 1.248 . S
O309 Tb288 2.440 . S
O309 C290 1.266 . S
O310 Tb288 2.658 1_545 S
O310 Tb289 2.325 1_455 S
O310 C297 1.281 1_545 S
O311 Tb288 2.409 . S
O311 C297 1.254 . S
O312 Tb288 2.378 . S
O312 C298 1.236 1_455 S
O313 Tb289 2.341 1_565 S
O313 C298 1.266 . S
O314 Tb289 2.484 . S
O314 C299 1.248 . S
O315 Tb289 2.440 . S
O315 C299 1.266 . S
O316 Tb288 2.325 1_655 S
O316 Tb289 2.658 1_565 S
O316 C306 1.281 1_565 S
O317 Tb289 2.409 . S
O317 C306 1.254 . S
O318 Tb289 2.378 . S
O318 C307 1.236 1_655 S
O319 Tb288 2.341 1_545 S
O319 C307 1.266 . S
H320 C292 0.929 1_655 S
H321 C293 0.931 . S
H322 C295 0.930 . S
H323 C296 0.930 . S
H324 C301 0.929 1_455 S
H325 C302 0.931 . S
H326 C304 0.930 . S
H327 C305 0.930 . S
Tb328 C330 2.809 . S
Tb328 O348 2.484 . S
Tb328 O349 2.440 . S
Tb328 O350 2.658 . S
Tb328 O351 2.409 . S
Tb328 O352 2.378 . S
Tb328 O356 2.325 1_545 S
Tb328 O359 2.341 . S
Tb329 C339 2.809 . S
Tb329 O350 2.325 1_565 S
Tb329 O353 2.341 . S
Tb329 O354 2.484 . S
Tb329 O355 2.440 . S
Tb329 O356 2.658 . S
Tb329 O357 2.409 . S
Tb329 O358 2.378 . S
C330 Tb328 2.809 . S
C330 C331 1.514 . S
C330 O348 1.248 . S
C330 O349 1.266 . S
C331 C330 1.514 . S
C331 C332 1.359 1_556 S
C331 C336 1.348 . S
C332 C331 1.359 1_554 S
C332 C333 1.380 . S
C332 H360 0.929 1_545 S
C333 C332 1.380 . S
C333 C334 1.347 . S
C333 H361 0.931 1_545 S
C334 C333 1.347 . S
C334 C335 1.369 . S
C335 C334 1.369 . S
C335 C336 1.408 1_554 S
C335 H362 0.930 . S
C336 C331 1.348 . S
C336 C335 1.408 1_556 S
C336 H363 0.930 . S
C337 O350 1.281 . S
C337 O351 1.254 . S
C338 O352 1.236 1_565 S
C338 O353 1.266 . S
C339 Tb329 2.809 . S
C339 C340 1.514 . S
C339 O354 1.248 . S
C339 O355 1.266 . S
C340 C339 1.514 . S
C340 C341 1.359 . S
C340 C345 1.348 . S
C341 C340 1.359 . S
C341 C342 1.380 . S
C341 H364 0.929 1_565 S
C342 C341 1.380 . S
C342 C343 1.347 . S
C342 H365 0.931 1_565 S
C343 C342 1.347 . S
C343 C344 1.369 . S
C344 C343 1.369 . S
C344 C345 1.408 . S
C344 H366 0.930 . S
C345 C340 1.348 . S
C345 C344 1.408 . S
C345 H367 0.930 . S
C346 O356 1.281 . S
C346 O357 1.254 . S
C347 O358 1.236 1_545 S
C347 O359 1.266 . S
O348 Tb328 2.484 . S
O348 C330 1.248 . S
O349 Tb328 2.440 . S
O349 C330 1.266 . S
O350 Tb328 2.658 . S
O350 Tb329 2.325 1_545 S
O350 C337 1.281 . S
O351 Tb328 2.409 . S
O351 C337 1.254 . S
O352 Tb328 2.378 . S
O352 C338 1.236 1_545 S
O353 Tb329 2.341 . S
O353 C338 1.266 . S
O354 Tb329 2.484 . S
O354 C339 1.248 . S
O355 Tb329 2.440 . S
O355 C339 1.266 . S
O356 Tb328 2.325 1_565 S
O356 Tb329 2.658 . S
O356 C346 1.281 . S
O357 Tb329 2.409 . S
O357 C346 1.254 . S
O358 Tb329 2.378 . S
O358 C347 1.236 1_565 S
O359 Tb328 2.341 . S
O359 C347 1.266 . S
H360 C332 0.929 1_565 S
H361 C333 0.931 1_565 S
H362 C335 0.930 . S
H363 C336 0.930 . S
H364 C341 0.929 1_545 S
H365 C342 0.931 1_545 S
H366 C344 0.930 . S
H367 C345 0.930 . S
Tb368 C370 2.809 . S
Tb368 O388 2.484 . S
Tb368 O389 2.440 . S
Tb368 O390 2.658 . S
Tb368 O391 2.409 . S
Tb368 O392 2.378 . S
Tb368 O396 2.325 . S
Tb368 O399 2.341 . S
Tb369 C379 2.809 . S
Tb369 O390 2.325 . S
Tb369 O393 2.341 . S
Tb369 O394 2.484 . S
Tb369 O395 2.440 . S
Tb369 O396 2.658 . S
Tb369 O397 2.409 . S
Tb369 O398 2.378 . S
C370 Tb368 2.809 . S
C370 C371 1.514 . S
C370 O388 1.248 . S
C370 O389 1.266 . S
C371 C370 1.514 . S
C371 C372 1.359 1_556 S
C371 C376 1.348 . S
C372 C371 1.359 1_554 S
C372 C373 1.380 . S
C372 H400 0.929 . S
C373 C372 1.380 . S
C373 C374 1.347 . S
C373 H401 0.931 . S
C374 C373 1.347 . S
C374 C375 1.369 . S
C375 C374 1.369 . S
C375 C376 1.408 1_554 S
C375 H402 0.930 . S
C376 C371 1.348 . S
C376 C375 1.408 1_556 S
C376 H403 0.930 . S
C377 O390 1.281 . S
C377 O391 1.254 . S
C378 O392 1.236 . S
C378 O393 1.266 . S
C379 Tb369 2.809 . S
C379 C380 1.514 . S
C379 O394 1.248 . S
C379 O395 1.266 . S
C380 C379 1.514 . S
C380 C381 1.359 . S
C380 C385 1.348 . S
C381 C380 1.359 . S
C381 C382 1.380 . S
C381 H404 0.929 . S
C382 C381 1.380 . S
C382 C383 1.347 . S
C382 H405 0.931 . S
C383 C382 1.347 . S
C383 C384 1.369 . S
C384 C383 1.369 . S
C384 C385 1.408 . S
C384 H406 0.930 . S
C385 C380 1.348 . S
C385 C384 1.408 . S
C385 H407 0.930 . S
C386 O396 1.281 . S
C386 O397 1.254 . S
C387 O398 1.236 . S
C387 O399 1.266 . S
O388 Tb368 2.484 . S
O388 C370 1.248 . S
O389 Tb368 2.440 . S
O389 C370 1.266 . S
O390 Tb368 2.658 . S
O390 Tb369 2.325 . S
O390 C377 1.281 . S
O391 Tb368 2.409 . S
O391 C377 1.254 . S
O392 Tb368 2.378 . S
O392 C378 1.236 . S
O393 Tb369 2.341 . S
O393 C378 1.266 . S
O394 Tb369 2.484 . S
O394 C379 1.248 . S
O395 Tb369 2.440 . S
O395 C379 1.266 . S
O396 Tb368 2.325 . S
O396 Tb369 2.658 . S
O396 C386 1.281 . S
O397 Tb369 2.409 . S
O397 C386 1.254 . S
O398 Tb369 2.378 . S
O398 C387 1.236 . S
O399 Tb368 2.341 . S
O399 C387 1.266 . S
H400 C372 0.929 . S
H401 C373 0.931 . S
H402 C375 0.930 . S
H403 C376 0.930 . S
H404 C381 0.929 . S
H405 C382 0.931 . S
H406 C384 0.930 . S
H407 C385 0.930 . S
Tb408 C410 2.809 . S
Tb408 O428 2.484 . S
Tb408 O429 2.440 . S
Tb408 O430 2.658 1_655 S
Tb408 O431 2.409 . S
Tb408 O432 2.378 . S
Tb408 O436 2.325 . S
Tb408 O439 2.341 1_655 S
Tb409 C419 2.809 . S
Tb409 O430 2.325 . S
Tb409 O433 2.341 1_455 S
Tb409 O434 2.484 . S
Tb409 O435 2.440 . S
Tb409 O436 2.658 1_455 S
Tb409 O437 2.409 . S
Tb409 O438 2.378 . S
C410 Tb408 2.809 . S
C410 C411 1.514 . S
C410 O428 1.248 . S
C410 O429 1.266 . S
C411 C410 1.514 . S
C411 C412 1.359 1_556 S
C411 C416 1.348 . S
C412 C411 1.359 1_554 S
C412 C413 1.380 . S
C412 H440 0.929 . S
C413 C412 1.380 . S
C413 C414 1.347 . S
C413 H441 0.931 . S
C414 C413 1.347 . S
C414 C415 1.369 . S
C415 C414 1.369 . S
C415 C416 1.408 1_554 S
C415 H442 0.930 . S
C416 C411 1.348 . S
C416 C415 1.408 1_556 S
C416 H443 0.930 . S
C417 O430 1.281 1_655 S
C417 O431 1.254 . S
C418 O432 1.236 . S
C418 O433 1.266 . S
C419 Tb409 2.809 . S
C419 C420 1.514 . S
C419 O434 1.248 . S
C419 O435 1.266 . S
C420 C419 1.514 . S
C420 C421 1.359 . S
C420 C425 1.348 . S
C421 C420 1.359 . S
C421 C422 1.380 . S
C421 H444 0.929 . S
C422 C421 1.380 . S
C422 C423 1.347 . S
C422 H445 0.931 . S
C423 C422 1.347 . S
C423 C424 1.369 . S
C424 C423 1.369 . S
C424 C425 1.408 . S
C424 H446 0.930 . S
C425 C420 1.348 . S
C425 C424 1.408 . S
C425 H447 0.930 . S
C426 O436 1.278 1_455 S
C426 O437 1.258 . S
C427 O438 1.236 . S
C427 O439 1.266 . S
O428 Tb408 2.484 . S
O428 C410 1.248 . S
O429 Tb408 2.440 . S
O429 C410 1.266 . S
O430 Tb408 2.658 1_455 S
O430 Tb409 2.325 . S
O430 C417 1.281 1_455 S
O431 Tb408 2.409 . S
O431 C417 1.254 . S
O432 Tb408 2.378 . S
O432 C418 1.236 . S
O433 Tb409 2.341 1_655 S
O433 C418 1.266 . S
O434 Tb409 2.484 . S
O434 C419 1.248 . S
O435 Tb409 2.440 . S
O435 C419 1.266 . S
O436 Tb408 2.325 . S
O436 Tb409 2.658 1_655 S
O436 C426 1.278 1_655 S
O437 Tb409 2.409 . S
O437 C426 1.258 . S
O438 Tb409 2.378 . S
O438 C427 1.236 . S
O439 Tb408 2.341 1_455 S
O439 C427 1.266 . S
H440 C412 0.929 . S
H441 C413 0.931 . S
H442 C415 0.930 . S
H443 C416 0.930 . S
H444 C421 0.929 . S
H445 C422 0.931 . S
H446 C424 0.930 . S
H447 C425 0.930 . S
C448 C449 1.384 . S
C448 H452 0.950 . S
C448 C457 1.390 . S
C449 C448 1.384 . S
C449 C451 1.391 1_545 S
H450 C457 0.950 . S
C451 C449 1.391 1_565 S
C451 C453 1.390 . S
C451 H455 0.950 . S
H452 C448 0.950 . S
C453 C451 1.390 . S
C453 C454 1.386 . S
C453 H456 0.950 . S
C454 C453 1.386 . S
C454 C457 1.389 1_565 S
H455 C451 0.950 . S
H456 C453 0.950 . S
C457 C448 1.390 . S
C457 H450 0.950 . S
C457 C454 1.389 1_545 S
C458 C459 1.387 . S
C458 H462 0.950 . S
C458 C467 1.390 . S
C459 C458 1.387 . S
C459 C461 1.387 . S
H460 C467 0.950 . S
C461 C459 1.387 . S
C461 C463 1.390 . S
C461 H465 0.950 . S
H462 C458 0.950 . S
C463 C461 1.390 . S
C463 C464 1.387 . S
C463 H466 0.950 . S
C464 C463 1.387 . S
C464 C467 1.387 . S
H465 C461 0.950 . S
H466 C463 0.950 . S
C467 C458 1.390 . S
C467 H460 0.950 . S
C467 C464 1.387 . S
C468 C469 1.387 . S
C468 H472 0.950 . S
C468 C477 1.390 . S
C469 C468 1.387 . S
C469 C471 1.387 . S
H470 C477 0.950 . S
C471 C469 1.387 . S
C471 C473 1.390 . S
C471 H475 0.950 . S
H472 C468 0.950 . S
C473 C471 1.390 . S
C473 C474 1.387 . S
C473 H476 0.950 . S
C474 C473 1.387 . S
C474 C477 1.387 . S
H475 C471 0.950 . S
H476 C473 0.950 . S
C477 C468 1.390 . S
C477 H470 0.950 . S
C477 C474 1.387 . S
C478 C479 1.405 . S
C478 H482 0.950 . S
C478 C487 1.390 . S
C479 C478 1.405 . S
C479 C481 1.370 1_455 S
H480 C487 0.950 . S
C481 C479 1.370 1_655 S
C481 C483 1.390 . S
C481 H485 0.950 . S
H482 C478 0.950 . S
C483 C481 1.390 . S
C483 C484 1.387 1_655 S
C483 H486 0.950 . S
C484 C483 1.387 1_455 S
C484 C487 1.387 . S
H485 C481 0.950 . S
H486 C483 0.950 . S
C487 C478 1.390 . S
C487 H480 0.950 . S
C487 C484 1.387 . S
C488 C489 1.391 . S
C488 H492 0.950 . S
C488 C497 1.390 . S
C489 C488 1.391 . S
C489 C491 1.384 1_545 S
H490 C497 0.950 . S
C491 C489 1.384 1_565 S
C491 C493 1.390 . S
C491 H495 0.950 . S
H492 C488 0.950 . S
C493 C491 1.390 . S
C493 C494 1.381 1_565 S
C493 H496 0.950 . S
C494 C493 1.381 1_545 S
C494 C497 1.394 . S
H495 C491 0.950 . S
H496 C493 0.950 . S
C497 C488 1.390 . S
C497 H490 0.950 . S
C497 C494 1.394 . S
C498 C499 1.387 . S
C498 H502 0.950 . S
C498 C507 1.390 . S
C499 C498 1.387 . S
C499 C501 1.387 . S
H500 C507 0.950 . S
C501 C499 1.387 . S
C501 C503 1.390 . S
C501 H505 0.950 . S
H502 C498 0.950 . S
C503 C501 1.390 . S
C503 C504 1.387 . S
C503 H506 0.950 . S
C504 C503 1.387 . S
C504 C507 1.387 . S
H505 C501 0.950 . S
H506 C503 0.950 . S
C507 C498 1.390 . S
C507 H500 0.950 . S
C507 C504 1.387 . S
C508 C509 1.387 . S
C508 H512 0.950 . S
C508 C517 1.390 . S
C509 C508 1.387 . S
C509 C511 1.387 . S
H510 C517 0.950 . S
C511 C509 1.387 . S
C511 C513 1.390 . S
C511 H515 0.950 . S
H512 C508 0.950 . S
C513 C511 1.390 . S
C513 C514 1.387 . S
C513 H516 0.950 . S
C514 C513 1.387 . S
C514 C517 1.387 . S
H515 C511 0.950 . S
H516 C513 0.950 . S
C517 C508 1.390 . S
C517 H510 0.950 . S
C517 C514 1.387 . S
C518 C519 1.408 . S
C518 H522 0.950 . S
C518 C527 1.390 . S
C519 C518 1.408 . S
C519 C521 1.367 1_655 S
H520 C527 0.950 . S
C521 C519 1.367 1_455 S
C521 C523 1.390 . S
C521 H525 0.950 . S
H522 C518 0.950 . S
C523 C521 1.390 . S
C523 C524 1.387 1_455 S
C523 H526 0.950 . S
C524 C523 1.387 1_655 S
C524 C527 1.387 . S
H525 C521 0.950 . S
H526 C523 0.950 . S
C527 C518 1.390 . S
C527 H520 0.950 . S
C527 C524 1.387 . S
C528 C529 1.391 . S
C528 H532 0.950 1_655 S
C528 C537 1.390 . S
C529 C528 1.391 . S
C529 C531 1.395 . S
H530 C537 0.950 . S
C531 C529 1.395 . S
C531 C533 1.390 . S
C531 H535 0.950 . S
H532 C528 0.950 1_455 S
C533 C531 1.390 . S
C533 C534 1.387 . S
C533 H536 0.950 . S
C534 C533 1.387 . S
C534 C537 1.387 . S
H535 C531 0.950 . S
H536 C533 0.950 . S
C537 C528 1.390 . S
C537 H530 0.950 . S
C537 C534 1.387 . S
C538 C539 1.388 . S
C538 H542 0.950 1_565 S
C538 C547 1.390 . S
C539 C538 1.388 . S
C539 C541 1.390 . S
H540 C547 0.950 . S
C541 C539 1.390 . S
C541 C543 1.390 . S
C541 H545 0.950 . S
H542 C538 0.950 1_545 S
C543 C541 1.390 . S
C543 C544 1.387 . S
C543 H546 0.950 . S
C544 C543 1.387 . S
C544 C547 1.387 . S
H545 C541 0.950 . S
H546 C543 0.950 . S
C547 C538 1.390 . S
C547 H540 0.950 . S
C547 C544 1.387 . S
C548 C549 1.387 . S
C548 H552 0.950 . S
C548 C557 1.390 . S
C549 C548 1.387 . S
C549 C551 1.387 . S
H550 C557 0.950 . S
C551 C549 1.387 . S
C551 C553 1.390 . S
C551 H555 0.950 . S
H552 C548 0.950 . S
C553 C551 1.390 . S
C553 C554 1.387 . S
C553 H556 0.950 . S
C554 C553 1.387 . S
C554 C557 1.387 . S
H555 C551 0.950 . S
H556 C553 0.950 . S
C557 C548 1.390 . S
C557 H550 0.950 . S
C557 C554 1.387 . S
C558 C559 1.387 . S
C558 H562 0.950 . S
C558 C567 1.390 . S
C559 C558 1.387 . S
C559 C561 1.387 . S
H560 C567 0.950 . S
C561 C559 1.387 . S
C561 C563 1.390 . S
C561 H565 0.950 . S
H562 C558 0.950 . S
C563 C561 1.390 . S
C563 C564 1.387 . S
C563 H566 0.950 . S
C564 C563 1.387 . S
C564 C567 1.387 . S
H565 C561 0.950 . S
H566 C563 0.950 . S
C567 C558 1.390 . S
C567 H560 0.950 . S
C567 C564 1.387 . S
C568 C569 1.394 . S
C568 H572 0.958 1_554 S
C568 C577 1.390 . S
C569 C568 1.394 . S
C569 C571 1.398 . S
H570 C577 0.950 1_556 S
C571 C569 1.398 . S
C571 C573 1.390 . S
C571 H575 0.950 . S
H572 C568 0.958 1_556 S
C573 C571 1.390 . S
C573 C574 1.387 . S
C573 H576 0.950 . S
C574 C573 1.387 . S
C574 C577 1.387 . S
H575 C571 0.950 . S
H576 C573 0.950 . S
C577 C568 1.390 . S
C577 H570 0.950 1_554 S
C577 C574 1.387 . S
C578 C579 1.402 . S
C578 H582 0.950 . S
C578 C587 1.390 . S
C579 C578 1.402 . S
C579 C581 1.385 1_545 S
H580 C587 0.950 . S
C581 C579 1.385 1_565 S
C581 C583 1.390 1_565 S
C581 H585 0.950 . S
H582 C578 0.950 . S
C583 C581 1.390 1_545 S
C583 C584 1.387 . S
C583 H586 0.950 1_554 S
C584 C583 1.387 . S
C584 C587 1.387 . S
H585 C581 0.950 . S
H586 C583 0.950 1_556 S
C587 C578 1.390 . S
C587 H580 0.950 . S
C587 C584 1.387 . S
C588 C589 1.387 . S
C588 H592 0.950 . S
C588 C597 1.390 . S
C589 C588 1.387 . S
C589 C591 1.387 . S
H590 C597 0.950 . S
C591 C589 1.387 . S
C591 C593 1.390 . S
C591 H595 0.950 1_554 S
H592 C588 0.950 . S
C593 C591 1.390 . S
C593 C594 1.387 . S
C593 H596 0.950 1_554 S
C594 C593 1.387 . S
C594 C597 1.387 . S
H595 C591 0.950 1_556 S
H596 C593 0.950 1_556 S
C597 C588 1.390 . S
C597 H590 0.950 . S
C597 C594 1.387 . S
C598 C599 1.387 . S
C598 H602 0.950 . S
C598 C607 1.390 . S
C599 C598 1.387 . S
C599 C601 1.387 . S
H600 C607 0.950 . S
C601 C599 1.387 . S
C601 C603 1.390 . S
C601 H605 0.950 . S
H602 C598 0.950 . S
C603 C601 1.390 . S
C603 C604 1.387 . S
C603 H606 0.950 . S
C604 C603 1.387 . S
C604 C607 1.387 . S
H605 C601 0.950 . S
H606 C603 0.950 . S
C607 C598 1.390 . S
C607 H600 0.950 . S
C607 C604 1.387 . S
C608 C609 1.387 1_655 S
C608 H612 0.950 . S
C608 C617 1.390 . S
C609 C608 1.387 1_455 S
C609 C611 1.387 . S
H610 C617 0.950 . S
C611 C609 1.387 . S
C611 C613 1.390 . S
C611 H615 0.950 . S
H612 C608 0.950 . S
C613 C611 1.390 . S
C613 C614 1.387 . S
C613 H616 0.950 . S
C614 C613 1.387 . S
C614 C617 1.387 1_455 S
H615 C611 0.950 . S
H616 C613 0.950 . S
C617 C608 1.390 . S
C617 H610 0.950 . S
C617 C614 1.387 1_655 S
C618 C619 1.387 1_565 S
C618 H622 0.950 . S
C618 C627 1.390 . S
C619 C618 1.387 1_545 S
C619 C621 1.387 . S
H620 C627 0.950 . S
C621 C619 1.387 . S
C621 C623 1.390 . S
C621 H625 0.950 . S
H622 C618 0.950 . S
C623 C621 1.390 . S
C623 C624 1.387 . S
C623 H626 0.950 . S
C624 C623 1.387 . S
C624 C627 1.387 1_545 S
H625 C621 0.950 . S
H626 C623 0.950 . S
C627 C618 1.390 . S
C627 H620 0.950 . S
C627 C624 1.387 1_565 S
C628 C629 1.387 . S
C628 H632 0.950 . S
C628 C637 1.390 . S
C629 C628 1.387 . S
C629 C631 1.387 . S
H630 C637 0.950 . S
C631 C629 1.387 . S
C631 C633 1.390 . S
C631 H635 0.950 . S
H632 C628 0.950 . S
C633 C631 1.390 . S
C633 C634 1.387 . S
C633 H636 0.950 . S
C634 C633 1.387 . S
C634 C637 1.387 . S
H635 C631 0.950 . S
H636 C633 0.950 . S
C637 C628 1.390 . S
C637 H630 0.950 . S
C637 C634 1.387 . S
C638 C639 1.387 . S
C638 H642 0.950 . S
C638 C647 1.390 . S
C639 C638 1.387 . S
C639 C641 1.387 . S
H640 C647 0.950 . S
C641 C639 1.387 . S
C641 C643 1.390 . S
C641 H645 0.950 . S
H642 C638 0.950 . S
C643 C641 1.390 . S
C643 C644 1.387 . S
C643 H646 0.950 . S
C644 C643 1.387 . S
C644 C647 1.387 . S
H645 C641 0.950 . S
H646 C643 0.950 . S
C647 C638 1.390 . S
C647 H640 0.950 . S
C647 C644 1.387 . S
C648 C649 1.387 . S
C648 H652 0.950 . S
C648 C657 1.390 . S
C649 C648 1.387 . S
C649 C651 1.387 . S
H650 C657 0.950 . S
C651 C649 1.387 . S
C651 C653 1.390 . S
C651 H655 0.950 1_655 S
H652 C648 0.950 . S
C653 C651 1.390 . S
C653 C654 1.387 . S
C653 H656 0.950 . S
C654 C653 1.387 . S
C654 C657 1.387 . S
H655 C651 0.950 1_455 S
H656 C653 0.950 . S
C657 C648 1.390 . S
C657 H650 0.950 . S
C657 C654 1.387 . S
C658 C659 1.387 . S
C658 H662 0.950 . S
C658 C667 1.390 . S
C659 C658 1.387 . S
C659 C661 1.387 1_565 S
H660 C667 0.950 . S
C661 C659 1.387 1_545 S
C661 C663 1.390 . S
C661 H665 0.950 . S
H662 C658 0.950 . S
C663 C661 1.390 . S
C663 C664 1.387 1_545 S
C663 H666 0.950 . S
C664 C663 1.387 1_565 S
C664 C667 1.387 . S
H665 C661 0.950 . S
H666 C663 0.950 . S
C667 C658 1.390 . S
C667 H660 0.950 . S
C667 C664 1.387 . S
C668 C669 1.387 . S
C668 H672 0.950 . S
C668 C677 1.390 . S
C669 C668 1.387 . S
C669 C671 1.387 . S
H670 C677 0.950 . S
C671 C669 1.387 . S
C671 C673 1.390 . S
C671 H675 0.950 . S
H672 C668 0.950 . S
C673 C671 1.390 . S
C673 C674 1.387 . S
C673 H676 0.950 . S
C674 C673 1.387 . S
C674 C677 1.387 . S
H675 C671 0.950 . S
H676 C673 0.950 . S
C677 C668 1.390 . S
C677 H670 0.950 . S
C677 C674 1.387 . S
C678 C679 1.387 . S
C678 H682 0.950 . S
C678 C687 1.390 . S
C679 C678 1.387 . S
C679 C681 1.387 . S
H680 C687 0.950 . S
C681 C679 1.387 . S
C681 C683 1.390 . S
C681 H685 0.950 . S
H682 C678 0.950 . S
C683 C681 1.390 . S
C683 C684 1.387 . S
C683 H686 0.950 . S
C684 C683 1.387 . S
C684 C687 1.387 . S
H685 C681 0.950 . S
H686 C683 0.950 . S
C687 C678 1.390 . S
C687 H680 0.950 . S
C687 C684 1.387 . S
C449 C241 2.437 . S
C454 C297 2.846 . S
C464 C337 2.895 . S
C459 C277 2.578 . S
C474 C377 2.881 . S
C469 C169 2.467 . S
C484 C417 2.861 1_455 S
C479 C205 2.455 . S
C494 C306 2.847 1_554 S
C489 C97 2.439 . S
C499 C133 2.563 . S
C504 C346 2.898 1_554 S
C509 C25 2.489 . S
C514 C386 2.880 1_554 S
C519 C61 2.458 1_655 S
C524 C426 2.861 1_654 S
C534 C303 0.775 . S
C529 C211 0.773 1_655 S
C544 C343 0.768 . S
C539 C247 0.769 1_565 S
C554 C383 0.720 . S
C549 C253 0.717 . S
C559 C175 0.720 . S
C564 C423 0.725 . S
C569 C67 0.767 . S
C574 C294 0.768 . S
C584 C334 0.766 . S
C579 C103 0.763 . S
C594 C374 0.720 . S
C589 C109 0.708 . S
C599 C31 0.724 . S
C604 C414 0.729 . S
C609 C181 3.257 . S
C614 C307 3.735 . S
C619 C217 3.200 . S
C624 C347 3.686 . S
C634 C387 3.683 . S
C629 C283 3.135 . S
C644 C427 3.718 . S
C639 C145 3.225 . S
C649 C37 3.268 1_655 S
C654 C298 3.743 . S
C664 C338 3.686 . S
C659 C73 3.212 1_565 S
C674 C378 3.683 . S
C669 C139 3.105 . S
C679 C1 3.254 . S
C684 C418 3.724 . S
