# Generated by pormake.
# Topology ctn, (3,4)-cn, num edge types: 1
# Building blocks:
#     Node 0, Type 0, BuildingBlock: QEWDON_clean_linker_0, # of connection points: 3
#     Node 1, Type 0, BuildingBlock: QEWDON_clean_linker_0, # of connection points: 3
#     Node 2, Type 0, BuildingBlock: QEWDON_clean_linker_0, # of connection points: 3
#     Node 3, Type 0, BuildingBlock: QEWDON_clean_linker_0, # of connection points: 3
#     Node 4, Type 0, BuildingBlock: QEWDON_clean_linker_0, # of connection points: 3
#     Node 5, Type 0, BuildingBlock: QEWDON_clean_linker_0, # of connection points: 3
#     Node 6, Type 0, BuildingBlock: QEWDON_clean_linker_0, # of connection points: 3
#     Node 7, Type 0, BuildingBlock: QEWDON_clean_linker_0, # of connection points: 3
#     Node 8, Type 0, BuildingBlock: QEWDON_clean_linker_0, # of connection points: 3
#     Node 9, Type 0, BuildingBlock: QEWDON_clean_linker_0, # of connection points: 3
#     Node 10, Type 0, BuildingBlock: QEWDON_clean_linker_0, # of connection points: 3
#     Node 11, Type 0, BuildingBlock: QEWDON_clean_linker_0, # of connection points: 3
#     Node 12, Type 0, BuildingBlock: QEWDON_clean_linker_0, # of connection points: 3
#     Node 13, Type 0, BuildingBlock: QEWDON_clean_linker_0, # of connection points: 3
#     Node 14, Type 0, BuildingBlock: QEWDON_clean_linker_0, # of connection points: 3
#     Node 15, Type 0, BuildingBlock: QEWDON_clean_linker_0, # of connection points: 3
#     Node 16, Type 1, BuildingBlock: UXUYUI_clean_sbu_0, # of connection points: 4
#     Node 17, Type 1, BuildingBlock: UXUYUI_clean_sbu_0, # of connection points: 4
#     Node 18, Type 1, BuildingBlock: UXUYUI_clean_sbu_0, # of connection points: 4
#     Node 19, Type 1, BuildingBlock: UXUYUI_clean_sbu_0, # of connection points: 4
#     Node 20, Type 1, BuildingBlock: UXUYUI_clean_sbu_0, # of connection points: 4
#     Node 21, Type 1, BuildingBlock: UXUYUI_clean_sbu_0, # of connection points: 4
#     Node 22, Type 1, BuildingBlock: UXUYUI_clean_sbu_0, # of connection points: 4
#     Node 23, Type 1, BuildingBlock: UXUYUI_clean_sbu_0, # of connection points: 4
#     Node 24, Type 1, BuildingBlock: UXUYUI_clean_sbu_0, # of connection points: 4
#     Node 25, Type 1, BuildingBlock: UXUYUI_clean_sbu_0, # of connection points: 4
#     Node 26, Type 1, BuildingBlock: UXUYUI_clean_sbu_0, # of connection points: 4
#     Node 27, Type 1, BuildingBlock: UXUYUI_clean_sbu_0, # of connection points: 4
#     Edge 28, Type (0, 1), BuildingBlock: TEMPAE_clean_linker_10, # of connection points: 2
#     Edge 29, Type (0, 1), BuildingBlock: TEMPAE_clean_linker_10, # of connection points: 2
#     Edge 30, Type (0, 1), BuildingBlock: TEMPAE_clean_linker_10, # of connection points: 2
#     Edge 31, Type (0, 1), BuildingBlock: TEMPAE_clean_linker_10, # of connection points: 2
#     Edge 32, Type (0, 1), BuildingBlock: TEMPAE_clean_linker_10, # of connection points: 2
#     Edge 33, Type (0, 1), BuildingBlock: TEMPAE_clean_linker_10, # of connection points: 2
#     Edge 34, Type (0, 1), BuildingBlock: TEMPAE_clean_linker_10, # of connection points: 2
#     Edge 35, Type (0, 1), BuildingBlock: TEMPAE_clean_linker_10, # of connection points: 2
#     Edge 36, Type (0, 1), BuildingBlock: TEMPAE_clean_linker_10, # of connection points: 2
#     Edge 37, Type (0, 1), BuildingBlock: TEMPAE_clean_linker_10, # of connection points: 2
#     Edge 38, Type (0, 1), BuildingBlock: TEMPAE_clean_linker_10, # of connection points: 2
#     Edge 39, Type (0, 1), BuildingBlock: TEMPAE_clean_linker_10, # of connection points: 2
#     Edge 40, Type (0, 1), BuildingBlock: TEMPAE_clean_linker_10, # of connection points: 2
#     Edge 41, Type (0, 1), BuildingBlock: TEMPAE_clean_linker_10, # of connection points: 2
#     Edge 42, Type (0, 1), BuildingBlock: TEMPAE_clean_linker_10, # of connection points: 2
#     Edge 43, Type (0, 1), BuildingBlock: TEMPAE_clean_linker_10, # of connection points: 2
#     Edge 44, Type (0, 1), BuildingBlock: TEMPAE_clean_linker_10, # of connection points: 2
#     Edge 45, Type (0, 1), BuildingBlock: TEMPAE_clean_linker_10, # of connection points: 2
#     Edge 46, Type (0, 1), BuildingBlock: TEMPAE_clean_linker_10, # of connection points: 2
#     Edge 47, Type (0, 1), BuildingBlock: TEMPAE_clean_linker_10, # of connection points: 2
#     Edge 48, Type (0, 1), BuildingBlock: TEMPAE_clean_linker_10, # of connection points: 2
#     Edge 49, Type (0, 1), BuildingBlock: TEMPAE_clean_linker_10, # of connection points: 2
#     Edge 50, Type (0, 1), BuildingBlock: TEMPAE_clean_linker_10, # of connection points: 2
#     Edge 51, Type (0, 1), BuildingBlock: TEMPAE_clean_linker_10, # of connection points: 2
#     Edge 52, Type (0, 1), BuildingBlock: TEMPAE_clean_linker_10, # of connection points: 2
#     Edge 53, Type (0, 1), BuildingBlock: TEMPAE_clean_linker_10, # of connection points: 2
#     Edge 54, Type (0, 1), BuildingBlock: TEMPAE_clean_linker_10, # of connection points: 2
#     Edge 55, Type (0, 1), BuildingBlock: TEMPAE_clean_linker_10, # of connection points: 2
#     Edge 56, Type (0, 1), BuildingBlock: TEMPAE_clean_linker_10, # of connection points: 2
#     Edge 57, Type (0, 1), BuildingBlock: TEMPAE_clean_linker_10, # of connection points: 2
#     Edge 58, Type (0, 1), BuildingBlock: TEMPAE_clean_linker_10, # of connection points: 2
#     Edge 59, Type (0, 1), BuildingBlock: TEMPAE_clean_linker_10, # of connection points: 2
#     Edge 60, Type (0, 1), BuildingBlock: TEMPAE_clean_linker_10, # of connection points: 2
#     Edge 61, Type (0, 1), BuildingBlock: TEMPAE_clean_linker_10, # of connection points: 2
#     Edge 62, Type (0, 1), BuildingBlock: TEMPAE_clean_linker_10, # of connection points: 2
#     Edge 63, Type (0, 1), BuildingBlock: TEMPAE_clean_linker_10, # of connection points: 2
#     Edge 64, Type (0, 1), BuildingBlock: TEMPAE_clean_linker_10, # of connection points: 2
#     Edge 65, Type (0, 1), BuildingBlock: TEMPAE_clean_linker_10, # of connection points: 2
#     Edge 66, Type (0, 1), BuildingBlock: TEMPAE_clean_linker_10, # of connection points: 2
#     Edge 67, Type (0, 1), BuildingBlock: TEMPAE_clean_linker_10, # of connection points: 2
#     Edge 68, Type (0, 1), BuildingBlock: TEMPAE_clean_linker_10, # of connection points: 2
#     Edge 69, Type (0, 1), BuildingBlock: TEMPAE_clean_linker_10, # of connection points: 2
#     Edge 70, Type (0, 1), BuildingBlock: TEMPAE_clean_linker_10, # of connection points: 2
#     Edge 71, Type (0, 1), BuildingBlock: TEMPAE_clean_linker_10, # of connection points: 2
#     Edge 72, Type (0, 1), BuildingBlock: TEMPAE_clean_linker_10, # of connection points: 2
#     Edge 73, Type (0, 1), BuildingBlock: TEMPAE_clean_linker_10, # of connection points: 2
#     Edge 74, Type (0, 1), BuildingBlock: TEMPAE_clean_linker_10, # of connection points: 2
#     Edge 75, Type (0, 1), BuildingBlock: TEMPAE_clean_linker_10, # of connection points: 2
# Relax obj value: 0.115
# Max RMSD: 0.279
# Mean RMSD: 0.161
data_MOF--net-ctn--node1-UXUYUI_clean_sbu_0--node2-QEWDON_clean_linker_0--edge1-TEMPAE_clean_linker_10
_symmetry_space_group_name_H-M    P1
_symmetry_Int_Tables_number       1
_symmetry_cell_setting            triclinic
loop_
_symmetry_equiv_pos_as_xyz
'x, y, z'
_cell_length_a     65.94697
_cell_length_b     68.613077
_cell_length_c     73.038239
_cell_angle_alpha  97.791187
_cell_angle_beta   91.887673
_cell_angle_gamma 95.339434
loop_
_atom_site_label
_atom_site_type_symbol
_atom_site_fract_x
_atom_site_fract_y
_atom_site_fract_z
_atom_type_partial_charge
H0 H 0.09127 0.04464 0.05764 0.0
C1 C 0.08104 0.0412 0.06833 0.0
C2 C 0.08083 0.02281 0.07491 0.0
C3 C 0.06888 0.0556 0.07614 0.0
H4 H 0.06772 1.00483 0.09449 0.0
C5 C 0.06777 0.01881 0.08912 0.0
C6 C 0.05529 0.03302 0.09691 0.0
C7 C 0.05596 0.05134 0.09028 0.0
C8 C 0.07157 0.07598 0.07139 0.0
H9 H 0.04699 0.06267 0.09663 0.0
C10 C 0.06854 0.07997 0.0531 0.0
C11 C 0.07152 0.09956 0.0491 0.0
C12 C 0.07755 0.09167 0.08553 0.0
H13 H 0.08006 0.08892 0.09965 0.0
C14 C 0.08062 0.11099 0.08158 0.0
H15 H 0.06384 0.06796 0.04213 0.0
C16 C 0.07766 0.11494 0.06352 0.0
H17 H 0.07983 0.13014 0.06087 0.0
H18 H 0.08526 0.12297 0.09257 0.0
H19 H 0.33974 0.74726 0.24418 0.0
C20 C 0.32892 0.73423 0.241 0.0
C21 C 0.33311 0.71656 0.24737 0.0
C22 C 0.31037 0.73557 0.23143 0.0
H23 H 0.32158 0.6865 0.24913 0.0
C24 C 0.31861 0.70003 0.24384 0.0
C25 C 0.29995 0.70105 0.23429 0.0
C26 C 0.29601 0.71888 0.22795 0.0
C27 C 0.30511 0.75509 0.22731 0.0
H28 H 0.2815 0.72003 0.22097 0.0
C29 C 0.30005 0.75838 0.20915 0.0
C30 C 0.29526 0.77722 0.2057 0.0
C31 C 0.30525 0.77068 0.24192 0.0
H32 H 0.30901 0.76844 0.25599 0.0
C33 C 0.30034 0.78923 0.23859 0.0
H34 H 0.29998 0.74642 0.19781 0.0
C35 C 0.29541 0.79252 0.22064 0.0
H36 H 0.29209 0.80721 0.2184 0.0
H37 H 0.30049 0.80115 0.24995 0.0
H38 H 0.02228 0.4772 0.04503 0.0
C39 C 0.01017 0.48681 0.04465 0.0
C40 C 1.00352 0.49671 0.06124 0.0
C41 C 1.00186 0.48988 0.02748 0.0
H42 H 0.98244 0.51694 0.07293 0.0
C43 C 0.98759 0.50898 0.06037 0.0
C44 C 0.97912 0.51201 0.04319 0.0
C45 C 0.98644 0.50253 0.02687 0.0
C46 C 0.01013 0.48106 0.01002 0.0
H47 H 0.98004 0.50497 0.01359 0.0
C48 C 0.01024 0.46045 0.00559 0.0
C49 C 0.01704 0.4523 0.98838 0.0
C50 C 0.01738 0.49346 0.99737 0.0
H51 H 0.0175 0.50936 1.00056 0.0
C52 C 0.02462 0.48548 0.98056 0.0
H53 H 1.00431 0.45082 0.01517 0.0
C54 C 0.02441 0.46506 0.97603 0.0
H55 H 0.03009 0.45924 0.96285 0.0
H56 H 0.03029 0.49516 0.97093 0.0
H57 H 0.77209 0.7996 0.24601 0.0
C58 C 0.77178 0.79321 0.23157 0.0
C59 C 0.78103 0.80406 0.21854 0.0
C60 C 0.76362 0.77353 0.22631 0.0
H61 H 0.78828 0.80359 0.18989 0.0
C62 C 0.78133 0.79524 0.20002 0.0
C63 C 0.7729 0.77568 0.19452 0.0
C64 C 0.7641 0.76492 0.20778 0.0
C65 C 0.75722 0.76103 0.24045 0.0
H66 H 0.75832 0.74955 0.20387 0.0
C67 C 0.74008 0.76452 0.25096 0.0
C68 C 0.73428 0.75222 0.26427 0.0
C69 C 0.76853 0.74529 0.24335 0.0
H70 H 0.78178 0.74241 0.23539 0.0
C71 C 0.76299 0.73325 0.25662 0.0
H72 H 0.73127 0.77662 0.2487 0.0
C73 C 0.74599 0.73664 0.26701 0.0
H74 H 0.74176 0.72679 0.27696 0.0
H75 H 0.77181 0.72115 0.25878 0.0
H76 H 0.10364 0.9652 0.48804 0.0
C77 C 0.09145 0.96905 0.4793 0.0
C78 C 0.09329 0.98727 0.47234 0.0
C79 C 0.0747 0.95502 0.47374 0.0
H80 H 0.0789 0.00547 0.45486 0.0
C81 C 0.0778 0.99142 0.46016 0.0
C82 C 0.06124 0.9774 0.45415 0.0
C83 C 0.05964 0.9593 0.46122 0.0
C84 C 0.07505 0.93452 0.47775 0.0
H85 H 0.04739 0.94803 0.4561 0.0
C86 C 0.06799 0.92856 0.49435 0.0
C87 C 0.06765 0.90854 0.49711 0.0
C88 C 0.08213 0.92057 0.46422 0.0
H89 H 0.08761 0.92493 0.45141 0.0
C90 C 0.08217 0.90091 0.46706 0.0
H91 H 0.06234 0.93926 0.50476 0.0
C92 C 0.07495 0.8949 0.48332 0.0
H93 H 0.0752 0.87952 0.48518 0.0
H94 H 0.08773 0.89026 0.45657 0.0
H95 H 0.27434 0.6949 0.78427 0.0
C96 C 0.27127 0.7037 0.79718 0.0
C97 C 0.27899 0.69882 0.81395 0.0
C98 C 0.25971 0.71983 0.79678 0.0
H99 H 0.28069 0.70675 0.84365 0.0
C100 C 0.27447 0.71006 0.83063 0.0
C101 C 0.263 0.72636 0.83049 0.0
C102 C 0.25557 0.73109 0.81351 0.0
C103 C 0.25325 0.72543 0.77869 0.0
H104 H 0.24702 0.74382 0.81331 0.0
C105 C 0.23288 0.72873 0.77466 0.0
C106 C 0.22691 0.73237 0.75682 0.0
C107 C 0.26761 0.72666 0.76496 0.0
H108 H 0.2834 0.72445 0.76778 0.0
C109 C 0.26177 0.73069 0.74746 0.0
H110 H 0.22161 0.72765 0.78503 0.0
C111 C 0.24153 0.73335 0.74334 0.0
H112 H 0.23724 0.73624 0.72958 0.0
H113 H 0.27294 0.73156 0.737 0.0
H114 H 0.97905 0.58605 0.46755 0.0
C115 C 0.96846 0.57448 0.4715 0.0
C116 C 0.96387 0.57435 0.49024 0.0
C117 C 0.95857 0.56031 0.45761 0.0
H118 H 0.94584 0.55878 0.50902 0.0
C119 C 0.95006 0.55899 0.49483 0.0
C120 C 0.94041 0.54454 0.48105 0.0
C121 C 0.94454 0.54546 0.46247 0.0
C122 C 0.96071 0.56246 0.43789 0.0
H123 H 0.93664 0.5347 0.45172 0.0
C124 C 0.97911 0.55969 0.42905 0.0
C125 C 0.98053 0.56165 0.41013 0.0
C126 C 0.94386 0.56727 0.42778 0.0
H127 H 0.9296 0.56945 0.43437 0.0
C128 C 0.94527 0.56942 0.40917 0.0
H129 H 0.99212 0.55589 0.43681 0.0
C130 C 0.96343 0.56663 0.40037 0.0
H131 H 0.96394 0.56795 0.38578 0.0
H132 H 0.93219 0.57312 0.40148 0.0
H133 H 0.8319 0.81747 0.79612 0.0
C134 C 0.82928 0.80592 0.80477 0.0
C135 C 0.83989 0.78897 0.80179 0.0
C136 C 0.81665 0.80873 0.81983 0.0
H137 H 0.84554 0.76153 0.81157 0.0
C138 C 0.83731 0.77455 0.81375 0.0
C139 C 0.82407 0.7768 0.82841 0.0
C140 C 0.81379 0.7939 0.83129 0.0
C141 C 0.80865 0.82811 0.82527 0.0
H142 H 0.80417 0.79609 0.84301 0.0
C143 C 0.79731 0.83726 0.81271 0.0
C144 C 0.79021 0.85583 0.81841 0.0
C145 C 0.81284 0.83772 0.84343 0.0
H146 H 0.82171 0.83112 0.85328 0.0
C147 C 0.80591 0.85605 0.84905 0.0
H148 H 0.79398 0.82997 0.79868 0.0
C149 C 0.79468 0.86504 0.83669 0.0
H150 H 0.78917 0.87914 0.84155 0.0
H151 H 0.80922 0.86329 0.86309 0.0
H152 H 0.32981 0.32055 0.30024 0.0
C153 C 0.32767 0.30874 0.30866 0.0
C154 C 0.33793 0.29162 0.30473 0.0
C155 C 0.31538 0.31113 0.32398 0.0
H156 H 0.34334 0.26359 0.31358 0.0
C157 C 0.33523 0.27665 0.31616 0.0
C158 C 0.32253 0.27867 0.33126 0.0
C159 C 0.31268 0.29594 0.33501 0.0
C160 C 0.30741 0.33035 0.33 0.0
H161 H 0.30346 0.29793 0.34703 0.0
C162 C 0.29418 0.33885 0.31847 0.0
C163 C 0.2863 0.35684 0.325 0.0
C164 C 0.3131 0.34019 0.34782 0.0
H165 H 0.32338 0.334 0.35684 0.0
C166 C 0.3058 0.35818 0.35411 0.0
H167 H 0.28955 0.33119 0.3048 0.0
C168 C 0.29251 0.36645 0.34284 0.0
H169 H 0.28714 0.3805 0.34809 0.0
H170 H 0.31042 0.36572 0.3678 0.0
H171 H 0.52328 0.97786 0.54635 0.0
C172 C 0.51088 0.98709 0.54565 0.0
C173 C 0.50332 0.99638 0.56206 0.0
C174 C 0.50308 0.99025 0.52832 0.0
H175 H 0.48135 0.01574 0.57341 0.0
C176 C 0.48714 0.00827 0.5609 0.0
C177 C 0.47928 0.01158 0.54358 0.0
C178 C 0.48739 1.00258 0.52741 0.0
C179 C 0.5121 0.98168 0.51111 0.0
H180 H 0.48137 1.0051 0.51402 0.0
C181 C 0.51406 0.96127 0.50741 0.0
C182 C 0.52245 0.95329 0.49087 0.0
C183 C 0.51873 0.99405 0.49822 0.0
H184 H 0.51747 0.00981 0.50084 0.0
C185 C 0.52725 0.98625 0.48195 0.0
H186 H 0.5089 0.95165 0.51728 0.0
C187 C 0.52908 0.96603 0.47825 0.0
H188 H 0.53533 0.9603 0.4653 0.0
H189 H 0.53232 0.99589 0.47209 0.0
H190 H 0.27028 0.30164 0.74844 0.0
C191 C 0.27004 0.29473 0.73416 0.0
C192 C 0.27884 0.3052 0.72066 0.0
C193 C 0.26242 0.27483 0.72963 0.0
H194 H 0.28628 0.30359 0.69199 0.0
C195 C 0.27927 0.29565 0.70238 0.0
C196 C 0.27149 0.27575 0.69759 0.0
C197 C 0.26307 0.26547 0.71139 0.0
C198 C 0.2564 0.26303 0.74438 0.0
H199 H 0.25724 0.25005 0.70807 0.0
C200 C 0.23837 0.26567 0.75381 0.0
C201 C 0.2332 0.25438 0.76803 0.0
C202 C 0.26913 0.24904 0.74915 0.0
H203 H 0.28305 0.24684 0.74201 0.0
C204 C 0.26414 0.23798 0.76331 0.0
H205 H 0.22846 0.27641 0.75009 0.0
C206 C 0.24633 0.24063 0.77273 0.0
H207 H 0.24261 0.23165 0.78349 0.0
H208 H 0.27407 0.22727 0.76696 0.0
H209 H 0.83642 0.24618 0.74273 0.0
C210 C 0.82616 0.23271 0.74026 0.0
C211 C 0.83147 0.21557 0.74708 0.0
C212 C 0.80737 0.23284 0.7307 0.0
H213 H 0.8211 0.18554 0.75015 0.0
C214 C 0.81764 0.19845 0.74405 0.0
C215 C 0.79876 0.19826 0.73442 0.0
C216 C 0.79385 0.21556 0.72759 0.0
C217 C 0.80072 0.25186 0.7267 0.0
H218 H 0.77921 0.21588 0.7205 0.0
C219 C 0.79901 0.25645 0.70851 0.0
C220 C 0.79341 0.27513 0.70535 0.0
C221 C 0.79642 0.2658 0.7416 0.0
H222 H 0.79764 0.26249 0.75566 0.0
C223 C 0.7904 0.28404 0.73851 0.0
H224 H 0.80263 0.24579 0.69702 0.0
C225 C 0.7889 0.28871 0.72056 0.0
H226 H 0.78409 0.30298 0.71859 0.0
H227 H 0.78694 0.29464 0.75008 0.0
H228 H 0.59368 0.54902 0.55991 0.0
C229 C 0.58373 0.54608 0.57095 0.0
C230 C 0.58414 0.52829 0.57848 0.0
C231 C 0.57184 0.56076 0.5787 0.0
H232 H 0.57295 0.51164 0.59969 0.0
C233 C 0.57214 0.5251 0.59359 0.0
C234 C 0.55965 0.53942 0.60117 0.0
C235 C 0.55948 0.55707 0.5934 0.0
C236 C 0.57434 0.581 0.57348 0.0
H237 H 0.55 0.5683 0.59902 0.0
C238 C 0.57218 0.58456 0.55496 0.0
C239 C 0.57469 0.60411 0.55069 0.0
C240 C 0.57917 0.59706 0.58754 0.0
H241 H 0.58113 0.5947 0.60184 0.0
C242 C 0.58171 0.6163 0.58335 0.0
H243 H 0.56847 0.57228 0.54403 0.0
C244 C 0.57945 0.61984 0.56512 0.0
H245 H 0.58109 0.63501 0.56235 0.0
H246 H 0.58536 0.62854 0.59432 0.0
H247 H 0.60192 0.46622 0.9887 0.0
C248 C 0.58929 0.47002 0.98044 0.0
C249 C 0.59057 0.48826 0.9735 0.0
C250 C 0.57247 0.45594 0.9755 0.0
H251 H 0.57535 0.50628 0.95643 0.0
C252 C 0.57443 0.49237 0.96198 0.0
C253 C 0.55771 0.4783 0.95661 0.0
C254 C 0.5568 0.46014 0.96358 0.0
C255 C 0.573 0.43552 0.9797 0.0
H256 H 0.54425 0.44893 0.95924 0.0
C257 C 0.56651 0.42983 0.99658 0.0
C258 C 0.56593 0.40983 0.99942 0.0
C259 C 0.57934 0.4213 0.96599 0.0
H260 H 0.58433 0.42544 0.95293 0.0
C261 C 0.57914 0.40164 0.9689 0.0
H262 H 0.56141 0.44072 0.00715 0.0
C263 C 0.5724 0.3959 0.98543 0.0
H264 H 0.57233 0.38051 0.98735 0.0
H265 H 0.58407 0.39078 0.95825 0.0
H266 H 0.77132 0.19669 0.28398 0.0
C267 C 0.7689 0.20505 0.29728 0.0
C268 C 0.7777 0.19989 0.31353 0.0
C269 C 0.75724 0.22119 0.2978 0.0
H270 H 0.78094 0.20737 0.34323 0.0
C271 C 0.77406 0.21095 0.3306 0.0
C272 C 0.76204 0.227 0.33146 0.0
C273 C 0.75354 0.23189 0.31492 0.0
C274 C 0.75127 0.22813 0.28023 0.0
H275 H 0.74505 0.24472 0.31525 0.0
C276 C 0.73078 0.23011 0.27532 0.0
C277 C 0.72562 0.23568 0.25797 0.0
C278 C 0.76653 0.23238 0.26797 0.0
H279 H 0.78239 0.23111 0.27153 0.0
C280 C 0.76154 0.2384 0.25108 0.0
H281 H 0.71891 0.22661 0.28461 0.0
C282 C 0.74127 0.23999 0.24606 0.0
H283 H 0.73782 0.24467 0.23282 0.0
H284 H 0.77343 0.24174 0.24179 0.0
H285 H 0.47984 0.08822 0.97697 0.0
C286 C 0.47084 0.07475 0.97918 0.0
C287 C 0.46491 0.07216 0.99706 0.0
C288 C 0.4642 0.06066 0.9639 0.0
H289 H 0.44737 0.05316 0.01322 0.0
C290 C 0.45238 0.05507 0.99953 0.0
C291 C 0.44545 0.0409 0.98432 0.0
C292 C 0.45157 0.04374 0.96653 0.0
C293 C 0.46785 0.06521 0.94503 0.0
H294 H 0.44589 0.03319 0.95464 0.0
C295 C 0.48145 0.05515 0.93361 0.0
C296 C 0.48465 0.05996 0.91567 0.0
C297 C 0.45751 0.08003 0.93847 0.0
H298 H 0.44702 0.08791 0.9471 0.0
C299 C 0.46052 0.08472 0.92073 0.0
H300 H 0.48948 0.04373 0.93868 0.0
C301 C 0.47397 0.07481 0.9094 0.0
H302 H 0.47633 0.07905 0.89582 0.0
H303 H 0.45249 0.09618 0.91578 0.0
Li304 Li 0.2776 0.89274 0.01786 0.0
Li305 Li 0.263 0.86788 0.03667 0.0
Li306 Li 0.25563 0.86415 1.00305 0.0
Li307 Li 0.24101 0.88984 0.02456 0.0
C308 C 0.29192 0.85003 0.00713 0.0
N309 N 0.30959 0.81947 0.98708 0.0
C310 C 0.293 0.83216 0.01412 0.0
C311 C 0.29998 0.85243 0.99002 0.0
C312 C 0.30198 0.81688 1.00376 0.0
C313 C 0.30879 0.83678 0.98006 0.0
C314 C 0.27223 0.90013 0.05993 0.0
C315 C 0.26752 0.89856 0.09232 0.0
N316 N 0.28776 0.90409 0.09597 0.0
C317 C 0.29296 0.90585 0.06399 0.0
C318 C 0.25936 0.89653 0.07419 0.0
C319 C 0.30052 0.90776 0.08231 0.0
C320 C 0.29811 0.93065 0.01632 0.0
N321 N 0.30061 0.91107 0.01481 0.0
C322 C 0.33573 0.91759 0.0083 0.0
C323 C 0.31902 0.90439 0.01113 0.0
C324 C 0.33348 0.93789 0.00913 0.0
C325 C 0.31428 0.94431 0.01328 0.0
H326 H 0.28343 0.93564 0.01964 0.0
H327 H 0.32077 0.88881 0.01043 0.0
C328 C 0.25241 0.84289 0.06349 0.0
N329 N 0.26821 0.85363 0.0569 0.0
C330 C 0.25563 0.83254 0.07837 0.0
C331 C 0.29139 0.84426 0.07928 0.0
C332 C 0.28749 0.85435 0.06434 0.0
C333 C 0.27532 0.83319 0.08655 0.0
H334 H 0.23727 0.8424 0.05724 0.0
H335 H 0.29983 0.86281 0.05867 0.0
C336 C 0.2584 0.90701 0.99034 0.0
N337 N 0.26955 0.93776 0.97077 0.0
C338 C 0.24963 0.92484 0.99392 0.0
C339 C 0.27271 0.90476 0.9767 0.0
C340 C 0.25549 0.94022 0.98389 0.0
C341 C 0.27819 0.92051 0.967 0.0
C342 C 0.21577 0.8575 0.02312 0.0
C343 C 0.20439 0.85039 0.0067 0.0
C344 C 0.20578 0.8622 0.03949 0.0
C345 C 0.18312 0.84817 0.00693 0.0
C346 C 0.1845 0.85983 0.03913 0.0
N347 N 0.17371 0.85292 0.02299 0.0
C348 C 0.25231 0.82576 0.98258 0.0
C349 C 0.24897 0.8514 0.96429 0.0
C350 C 0.25191 0.81178 0.96673 0.0
N351 N 0.25148 0.84522 0.98107 0.0
C352 C 0.24803 0.83783 0.94808 0.0
C353 C 0.24997 0.81782 0.94922 0.0
H354 H 0.25391 0.82119 0.9961 0.0
H355 H 0.24813 0.86691 0.96345 0.0
C356 C 0.21972 0.91839 0.0453 0.0
N357 N 0.21826 0.90509 0.02962 0.0
C358 C 0.20393 0.93017 0.04976 0.0
C359 C 0.18534 0.91451 0.02177 0.0
C360 C 0.2016 0.90311 0.01778 0.0
C361 C 0.18634 0.9283 0.03799 0.0
H362 H 0.23328 0.92005 0.05429 0.0
H363 H 0.20094 0.89267 0.00522 0.0
O364 O 0.28286 0.86503 0.01691 0.0
O365 O 0.26462 0.89773 0.04204 0.0
O366 O 0.25305 0.89187 1.00017 0.0
O367 O 0.23659 0.85997 0.02314 0.0
H368 H 0.28678 0.83002 0.0273 0.0
H369 H 0.29925 0.86616 0.98441 0.0
H370 H 0.30283 0.80292 0.00894 0.0
H371 H 0.31494 0.83838 0.96674 0.0
H372 H 0.25779 0.89568 0.10347 0.0
H373 H 0.30313 0.90862 0.05311 0.0
H374 H 0.24331 0.89194 0.07124 0.0
H375 H 0.31654 0.9121 0.08566 0.0
H376 H 0.35027 0.9119 0.00562 0.0
H377 H 0.31159 0.95971 0.01388 0.0
H378 H 0.24274 0.8244 0.08363 0.0
H379 H 0.30686 0.84499 0.08498 0.0
H380 H 0.23855 0.92684 1.00444 0.0
H381 H 0.27964 0.89107 0.97376 0.0
H382 H 0.2489 0.95413 0.98657 0.0
H383 H 0.28935 0.91902 0.95649 0.0
H384 H 0.21188 0.84671 0.99391 0.0
H385 H 0.21437 0.86791 0.05228 0.0
H386 H 0.17411 0.84273 0.99432 0.0
H387 H 0.17656 0.86354 0.05166 0.0
H388 H 0.25325 0.79643 0.96813 0.0
H389 H 0.24653 0.84301 0.93478 0.0
H390 H 0.2057 0.94089 0.06217 0.0
H391 H 0.17208 0.91242 0.01232 0.0
Li392 Li 0.1283 0.51247 0.26841 0.0
Li393 Li 0.1522 0.49089 0.25542 0.0
Li394 Li 0.15481 0.528 0.25191 0.0
Li395 Li 0.12637 0.50363 0.23581 0.0
C396 C 0.15956 0.51758 0.29298 0.0
N397 N 0.16118 0.52332 0.33116 0.0
C398 C 0.15367 0.50191 0.30265 0.0
C399 C 0.16648 0.5361 0.30267 0.0
C400 C 0.15453 0.50514 0.32198 0.0
C401 C 0.16715 0.53872 0.322 0.0
C402 C 0.11682 0.46633 0.24614 0.0
C403 C 0.12094 0.44039 0.22111 0.0
N404 N 0.10745 0.428 0.22877 0.0
C405 C 0.103 0.45331 0.25377 0.0
C406 C 0.12587 0.45979 0.22969 0.0
C407 C 0.09846 0.43401 0.24478 0.0
C408 C 0.11471 0.53617 0.30025 0.0
N409 N 0.112 0.5182 0.28955 0.0
C410 C 0.08476 0.50776 0.30794 0.0
C411 C 0.09746 0.50404 0.29318 0.0
C412 C 0.08703 0.52626 0.31912 0.0
C413 C 0.10238 0.54052 0.31518 0.0
H414 H 0.12625 0.54727 0.29702 0.0
H415 H 0.09557 0.48991 0.28448 0.0
C416 C 0.18845 0.472 0.25393 0.0
N417 N 0.16868 0.46999 0.25867 0.0
C418 C 0.20155 0.45789 0.25739 0.0
C419 C 0.17361 0.4397 0.27026 0.0
C420 C 0.16109 0.45423 0.26665 0.0
C421 C 0.19423 0.44155 0.26585 0.0
H422 H 0.19414 0.4848 0.24779 0.0
H423 H 0.14545 0.45318 0.27069 0.0
C424 C 0.10903 0.53996 0.25482 0.0
N425 N 0.0758 0.55904 0.26671 0.0
C426 C 0.08949 0.52991 0.25266 0.0
C427 C 0.11168 0.55974 0.26288 0.0
C428 C 0.07288 0.53981 0.25881 0.0
C429 C 0.09468 0.56912 0.26884 0.0
C430 C 0.16472 0.5027 0.21602 0.0
C431 C 0.16653 0.51911 0.20654 0.0
C432 C 0.17192 0.48505 0.2082 0.0
C433 C 0.17507 0.51748 0.18922 0.0
C434 C 0.18038 0.484 0.19085 0.0
N435 N 0.18175 0.50009 0.18179 0.0
C436 C 0.19255 0.55185 0.25596 0.0
C437 C 0.16577 0.5653 0.24096 0.0
C438 C 0.20611 0.5682 0.25378 0.0
N439 N 0.17284 0.55071 0.24951 0.0
C440 C 0.17883 0.58185 0.23838 0.0
C441 C 0.19932 0.58344 0.2448 0.0
H442 H 0.19774 0.53996 0.26265 0.0
H443 H 0.15002 0.56396 0.23593 0.0
C444 C 0.09279 0.48568 0.21051 0.0
N445 N 0.10908 0.49962 0.21356 0.0
C446 C 0.08013 0.48424 0.19453 0.0
C447 C 0.10076 0.51193 0.18539 0.0
C448 C 0.11301 0.51279 0.20149 0.0
C449 C 0.08402 0.49753 0.18172 0.0
H450 H 0.08925 0.47592 0.22063 0.0
H451 H 0.12543 0.52429 0.20457 0.0
O452 O 0.15849 0.5148 0.27408 0.0
O453 O 0.12167 0.48517 0.25502 0.0
O454 O 0.12551 0.53038 0.24927 0.0
O455 O 0.1567 0.50411 0.23316 0.0
H456 H 0.14823 0.4875 0.29531 0.0
H457 H 0.1711 0.54835 0.29533 0.0
H458 H 0.14987 0.4932 0.32967 0.0
H459 H 0.17235 0.553 0.3297 0.0
H460 H 0.1278 0.43521 0.20833 0.0
H461 H 0.09592 0.45801 0.26656 0.0
H462 H 0.13636 0.46964 0.22348 0.0
H463 H 0.08781 0.4238 0.25055 0.0
H464 H 0.07329 0.49625 0.31057 0.0
H465 H 0.1045 0.55508 0.32324 0.0
H466 H 0.2173 0.45985 0.25369 0.0
H467 H 0.16742 0.42756 0.27709 0.0
H468 H 0.08723 0.51455 0.24653 0.0
H469 H 0.12674 0.56768 0.26472 0.0
H470 H 0.05768 0.53218 0.25735 0.0
H471 H 0.09649 0.5844 0.27521 0.0
H472 H 0.16131 0.53296 0.21245 0.0
H473 H 0.17108 0.47228 0.21546 0.0
H474 H 0.17643 0.53004 0.1817 0.0
H475 H 0.18593 0.4704 0.18462 0.0
H476 H 0.22183 0.56875 0.25878 0.0
H477 H 0.17291 0.59334 0.23157 0.0
H478 H 0.06713 0.47318 0.19246 0.0
H479 H 0.10439 0.52246 0.17592 0.0
Li480 Li 0.77679 0.62904 0.99182 0.0
Li481 Li 0.79408 0.65886 0.01214 0.0
Li482 Li 0.79862 0.6522 0.9785 0.0
Li483 Li 0.81422 0.63171 0.99771 0.0
C484 C 0.7529 0.65724 0.98941 0.0
N485 N 0.71091 0.65478 0.98547 0.0
C486 C 0.74143 0.66302 1.00459 0.0
C487 C 0.74307 0.65043 0.97218 0.0
C488 C 0.7202 0.66162 1.00233 0.0
C489 C 0.72182 0.64923 0.97049 0.0
C490 C 0.79815 0.61894 0.02782 0.0
C491 C 0.81909 0.61417 0.05421 0.0
N492 N 0.81237 0.5946 0.05148 0.0
C493 C 0.79137 0.59881 0.02529 0.0
C494 C 0.81205 0.62674 0.04241 0.0
C495 C 0.79876 0.58674 0.03741 0.0
C496 C 0.74896 0.59682 0.97503 0.0
N497 N 0.75265 0.61106 0.98992 0.0
C498 C 0.72221 0.59932 1.00357 0.0
C499 C 0.73981 0.61244 1.00413 0.0
C500 C 0.71798 0.58441 0.98839 0.0
C501 C 0.73163 0.58325 0.97399 0.0
H502 H 0.75954 0.59589 0.96403 0.0
H503 H 0.74335 0.62368 0.01597 0.0
C504 C 0.79941 0.69543 0.03698 0.0
N505 N 0.79111 0.67631 0.03427 0.0
C506 C 0.79728 0.70739 0.05378 0.0
C507 C 0.77817 0.67973 0.0646 0.0
C508 C 0.78053 0.66839 0.04759 0.0
C509 C 0.7867 0.69948 0.06791 0.0
H510 H 0.80784 0.70135 0.02622 0.0
H511 H 0.77399 0.65317 0.04502 0.0
C512 C 0.80315 0.61812 0.95648 0.0
N513 N 0.81332 0.60887 0.92017 0.0
C514 C 0.82265 0.61283 0.95244 0.0
C515 C 0.78876 0.61849 0.94209 0.0
C516 C 0.8275 0.60824 0.93397 0.0
C517 C 0.79422 0.61385 0.92381 0.0
C518 C 0.83355 0.67219 0.9903 0.0
C519 C 0.85031 0.66438 0.98186 0.0
C520 C 0.83004 0.69177 0.98908 0.0
C521 C 0.86335 0.67634 0.97239 0.0
C522 C 0.84338 0.70322 0.97943 0.0
N523 N 0.85963 0.69534 0.97137 0.0
C524 C 0.78927 0.68027 0.95519 0.0
C525 C 0.81697 0.66266 0.94505 0.0
C526 C 0.79142 0.6917 0.94078 0.0
N527 N 0.80195 0.66605 0.9571 0.0
C528 C 0.81947 0.67354 0.93027 0.0
C529 C 0.80668 0.68839 0.92808 0.0
H530 H 0.77765 0.68298 0.96507 0.0
H531 H 0.82735 0.65181 0.94706 0.0
C532 C 0.8333 0.59678 0.99954 0.0
N533 N 0.83605 0.6168 1.00349 0.0
C534 C 0.84821 0.58527 1.00497 0.0
C535 C 0.86874 0.61523 0.01807 0.0
C536 C 0.85327 0.62613 0.01264 0.0
C537 C 0.86631 0.59444 0.01438 0.0
H538 H 0.81926 0.58974 0.99253 0.0
H539 H 0.85491 0.64207 0.01591 0.0
O540 O 0.77366 0.65808 0.99141 0.0
O541 O 0.79161 0.63086 0.01577 0.0
O542 O 0.79809 0.62252 0.97447 0.0
O543 O 0.82043 0.66061 0.99937 0.0
H544 H 0.74882 0.66837 0.01801 0.0
H545 H 0.75178 0.646 0.96028 0.0
H546 H 0.7111 0.66592 0.01398 0.0
H547 H 0.71399 0.64386 0.95726 0.0
H548 H 0.82996 0.61996 0.06549 0.0
H549 H 0.7807 0.59255 0.01398 0.0
H550 H 0.81752 0.64229 0.04444 0.0
H551 H 0.79374 0.5711 0.03559 0.0
H552 H 0.71222 0.60059 0.01506 0.0
H553 H 0.72886 0.57206 0.96197 0.0
H554 H 0.80423 0.72251 0.05584 0.0
H555 H 0.76967 0.67314 0.07502 0.0
H556 H 0.83396 0.61245 0.96342 0.0
H557 H 0.77358 0.62245 0.945 0.0
H558 H 0.84256 0.60423 0.93062 0.0
H559 H 0.78329 0.61421 0.91252 0.0
H560 H 0.85306 0.64916 0.98236 0.0
H561 H 0.8169 0.69792 0.99517 0.0
H562 H 0.87633 0.67047 0.96575 0.0
H563 H 0.84076 0.71834 0.97825 0.0
H564 H 0.78121 0.70299 0.93955 0.0
H565 H 0.83163 0.67074 0.92096 0.0
H566 H 0.84536 0.56933 1.00212 0.0
H567 H 0.88247 0.62305 0.02502 0.0
Li568 Li 0.90634 0.03292 0.28207 0.0
Li569 Li 0.93057 0.01261 0.29515 0.0
Li570 Li 0.93074 0.01699 0.26093 0.0
Li571 Li 0.90366 0.99586 0.27325 0.0
C572 C 0.94347 0.05665 0.28825 0.0
N573 N 0.95708 0.09615 0.29803 0.0
C574 C 0.94705 0.06453 0.30687 0.0
C575 C 0.94724 0.06879 0.27459 0.0
C576 C 0.95379 0.08455 0.31155 0.0
C577 C 0.95401 0.08874 0.27982 0.0
C578 C 0.89658 0.00861 0.31548 0.0
C579 C 0.89733 0.98843 0.34006 0.0
N580 N 0.88941 1.00281 0.35153 0.0
C581 C 0.88827 0.02311 0.32747 0.0
C582 C 0.90098 0.99106 0.32179 0.0
C583 C 0.88481 0.01993 0.34565 0.0
C584 C 0.87529 0.05768 0.27547 0.0
N585 N 0.89082 0.05538 0.28747 0.0
C586 C 0.88278 0.0837 0.30793 0.0
C587 C 0.89467 0.068 0.30351 0.0
C588 C 0.86677 0.08661 0.29567 0.0
C589 C 0.86328 0.07335 0.27916 0.0
H590 H 0.87197 0.0472 0.2631 0.0
H591 H 0.90656 0.06554 0.3132 0.0
C592 C 0.96242 0.9976 0.31409 0.0
N593 N 0.94735 0.00981 0.3165 0.0
C594 C 0.97429 0.994 0.32926 0.0
C595 C 0.95519 0.01587 0.34914 0.0
C596 C 0.94382 0.01919 0.33357 0.0
C597 C 0.9706 1.00298 0.34716 0.0
H598 H 0.96515 0.99053 0.30037 0.0
H599 H 0.93192 0.02901 0.33518 0.0
C600 C 0.89587 0.02364 0.24103 0.0
N601 N 0.88672 0.03755 0.20825 0.0
C602 C 0.88368 0.01165 0.2271 0.0
C603 C 0.90322 0.04276 0.23835 0.0
C604 C 0.87928 0.01893 0.21061 0.0
C605 C 0.89847 0.04952 0.22168 0.0
C606 C 0.93407 0.97298 0.26757 0.0
C607 C 0.93609 0.96571 0.24897 0.0
C608 C 0.93255 0.95986 0.28063 0.0
C609 C 0.93615 0.94537 0.24369 0.0
C610 C 0.93265 0.93962 0.2748 0.0
N611 N 0.9344 0.93284 0.2566 0.0
C612 C 0.96622 0.02896 0.2422 0.0
C613 C 0.93963 0.01057 0.22286 0.0
C614 C 0.97846 0.03025 0.22701 0.0
N615 N 0.94716 0.01928 0.23987 0.0
C616 C 0.95127 0.01156 0.20732 0.0
C617 C 0.97104 0.02143 0.20923 0.0
H618 H 0.972 0.03552 0.2559 0.0
H619 H 0.92464 1.00258 0.22134 0.0
C620 C 0.8739 0.96489 0.27969 0.0
N621 N 0.88554 0.9723 0.26674 0.0
C622 C 0.86135 0.94722 0.27513 0.0
C623 C 0.87241 0.94546 0.24379 0.0
C624 C 0.88488 0.96307 0.24901 0.0
C625 C 0.86056 0.93724 0.25698 0.0
H626 H 0.87433 0.97264 0.29359 0.0
H627 H 0.89424 0.96929 0.23895 0.0
O628 O 0.93696 0.03703 0.28343 0.0
O629 O 0.90032 0.01161 0.29769 0.0
O630 O 0.90065 0.01664 0.25715 0.0
O631 O 0.9336 0.99284 0.27295 0.0
H632 H 0.94444 0.05533 0.31762 0.0
H633 H 0.94518 0.06287 0.2601 0.0
H634 H 0.95642 0.09087 0.32592 0.0
H635 H 0.9569 0.09831 0.26938 0.0
H636 H 0.90081 0.97496 0.34513 0.0
H637 H 0.88445 0.03664 0.32281 0.0
H638 H 0.90726 0.97963 0.3127 0.0
H639 H 0.87845 0.03106 0.35509 0.0
H640 H 0.88585 0.09314 0.32103 0.0
H641 H 0.85138 0.075 0.26908 0.0
H642 H 0.9863 0.98432 0.32693 0.0
H643 H 0.95161 0.02302 0.36262 0.0
H644 H 0.8777 0.99688 0.22898 0.0
H645 H 0.91231 0.05233 0.24911 0.0
H646 H 0.86993 0.00979 0.19968 0.0
H647 H 0.90408 0.06428 0.21943 0.0
H648 H 0.9374 0.97562 0.23869 0.0
H649 H 0.93138 0.96521 0.29512 0.0
H650 H 0.93754 0.93953 0.22931 0.0
H651 H 0.93138 0.92929 0.28476 0.0
H652 H 0.9937 0.03776 0.22925 0.0
H653 H 0.94476 1.00473 0.19392 0.0
H654 H 0.85223 0.94151 0.28564 0.0
H655 H 0.87237 0.93814 0.22968 0.0
Li656 Li 0.29474 0.1602 0.51473 0.0
Li657 Li 0.2775 0.13036 0.49439 0.0
Li658 Li 0.31488 0.13305 0.50031 0.0
Li659 Li 0.29931 0.15361 0.48108 0.0
C660 C 0.29892 0.12062 0.53065 0.0
N661 N 0.31338 0.09694 0.55482 0.0
C662 C 0.29234 0.10046 0.52844 0.0
C663 C 0.31273 0.1288 0.54519 0.0
C664 C 0.29985 0.08872 0.54081 0.0
C665 C 0.3199 0.11656 0.55725 0.0
C666 C 0.25362 0.15849 0.49138 0.0
C667 C 0.22315 0.15038 0.47163 0.0
N668 N 0.21173 0.15597 0.48625 0.0
C669 C 0.24162 0.16431 0.50618 0.0
C670 C 0.24436 0.15161 0.47393 0.0
C671 C 0.22045 0.16288 0.50331 0.0
C672 C 0.30125 0.19635 0.54006 0.0
N673 N 0.29165 0.17772 0.53679 0.0
C674 C 0.2767 0.18192 0.56626 0.0
C675 C 0.27955 0.17039 0.54946 0.0
C676 C 0.28637 0.20127 0.5701 0.0
C677 C 0.29877 0.20846 0.5567 0.0
H678 H 0.3109 0.20179 0.52982 0.0
H679 H 0.2722 0.15547 0.54653 0.0
C680 C 0.25042 0.09765 0.47771 0.0
N681 N 0.25349 0.11223 0.49237 0.0
C682 C 0.23333 0.08379 0.47655 0.0
C683 C 0.22282 0.1003 0.50556 0.0
C684 C 0.24023 0.11371 0.50624 0.0
C685 C 0.21926 0.08501 0.49061 0.0
H686 H 0.26135 0.09664 0.467 0.0
H687 H 0.24328 0.12522 0.51794 0.0
C688 C 0.33417 0.17356 0.49285 0.0
N689 N 0.36006 0.19669 0.47375 0.0
C690 C 0.35082 0.16572 0.48425 0.0
C691 C 0.33067 0.19315 0.49173 0.0
C692 C 0.36376 0.17767 0.47469 0.0
C693 C 0.34392 0.2046 0.48198 0.0
C694 C 0.30406 0.11939 0.45912 0.0
C695 C 0.32369 0.11433 0.45529 0.0
C696 C 0.28974 0.11935 0.44458 0.0
C697 C 0.32873 0.10955 0.4369 0.0
C698 C 0.29539 0.11453 0.42638 0.0
N699 N 0.3146 0.10978 0.42295 0.0
C700 C 0.33355 0.09796 0.50195 0.0
C701 C 0.35404 0.12707 0.5149 0.0
C702 C 0.34839 0.08622 0.50708 0.0
N703 N 0.3366 0.11797 0.50596 0.0
C704 C 0.36944 0.11592 0.52003 0.0
C705 C 0.36672 0.09514 0.51624 0.0
H706 H 0.31937 0.09112 0.49509 0.0
H707 H 0.35593 0.143 0.51819 0.0
C708 C 0.29001 0.18186 0.45798 0.0
N709 N 0.30257 0.1675 0.45969 0.0
C710 C 0.29203 0.19328 0.44355 0.0
C711 C 0.31971 0.17483 0.43262 0.0
C712 C 0.31737 0.16397 0.44743 0.0
C713 C 0.30702 0.1898 0.43061 0.0
H714 H 0.27858 0.18469 0.46802 0.0
H715 H 0.32769 0.15303 0.44929 0.0
O716 O 0.29225 0.13222 0.51836 0.0
O717 O 0.27432 0.15938 0.49398 0.0
O718 O 0.32112 0.16197 0.50198 0.0
O719 O 0.29881 0.12395 0.47703 0.0
H720 H 0.28172 0.09392 0.51718 0.0
H721 H 0.31803 0.14439 0.54699 0.0
H722 H 0.29499 0.07306 0.53923 0.0
H723 H 0.3307 0.12265 0.5685 0.0
H724 H 0.21576 0.14496 0.45822 0.0
H725 H 0.24856 0.16974 0.51976 0.0
H726 H 0.25347 0.14718 0.46232 0.0
H727 H 0.21095 0.16721 0.51466 0.0
H728 H 0.2673 0.1756 0.57627 0.0
H729 H 0.30639 0.22332 0.55898 0.0
H730 H 0.23107 0.07232 0.46473 0.0
H731 H 0.21249 0.10163 0.51678 0.0
H732 H 0.35357 0.15049 0.4847 0.0
H733 H 0.31762 0.19933 0.49796 0.0
H734 H 0.37666 0.17178 0.46791 0.0
H735 H 0.3413 0.21974 0.48087 0.0
H736 H 0.33496 0.11427 0.46638 0.0
H737 H 0.27445 0.12311 0.44732 0.0
H738 H 0.34388 0.10571 0.43372 0.0
H739 H 0.2845 0.11457 0.41499 0.0
H740 H 0.34532 0.07031 0.50417 0.0
H741 H 0.38336 0.12355 0.52681 0.0
H742 H 0.28191 0.20468 0.44248 0.0
H743 H 0.33168 0.1719 0.42312 0.0
Li744 Li 0.43171 0.51338 0.79504 0.0
Li745 Li 0.40651 0.53219 0.78171 0.0
Li746 Li 0.40406 0.49565 0.77335 0.0
Li747 Li 0.43053 0.51712 0.76145 0.0
C748 C 0.39556 0.4993 0.81061 0.0
N749 N 0.38282 0.47443 0.8356 0.0
C750 C 0.37906 0.50342 0.82151 0.0
C751 C 0.40559 0.48254 0.8124 0.0
C752 C 0.37284 0.49066 0.83407 0.0
C753 C 0.39892 0.47015 0.82512 0.0
C754 C 0.43925 0.55751 0.78928 0.0
C755 C 0.44161 0.59124 0.78302 0.0
N756 N 0.44287 0.59763 0.80152 0.0
C757 C 0.44078 0.5644 0.80822 0.0
C758 C 0.43986 0.57101 0.77655 0.0
C759 C 0.44252 0.58475 0.81414 0.0
C760 C 0.46642 0.50382 0.81481 0.0
N761 N 0.44824 0.51153 0.81672 0.0
C762 C 0.45232 0.51457 0.8497 0.0
C763 C 0.44118 0.51715 0.83373 0.0
C764 C 0.47095 0.50619 0.84818 0.0
C765 C 0.47806 0.50097 0.8304 0.0
H766 H 0.47176 0.49964 0.80115 0.0
H767 H 0.42676 0.52342 0.8349 0.0
C768 C 0.37984 0.5609 0.77412 0.0
N769 N 0.39056 0.55408 0.78772 0.0
C770 C 0.36767 0.57636 0.77838 0.0
C771 C 0.37762 0.57753 0.81066 0.0
C772 C 0.38955 0.56195 0.80576 0.0
C773 C 0.36637 0.58487 0.79687 0.0
H774 H 0.38048 0.55422 0.75994 0.0
H775 H 0.39787 0.55599 0.81638 0.0
C776 C 0.43992 0.47844 0.76007 0.0
N777 N 0.45247 0.45005 0.73342 0.0
C778 C 0.42738 0.4712 0.74436 0.0
C779 C 0.45886 0.47122 0.76221 0.0
C780 C 0.43398 0.45686 0.73105 0.0
C781 C 0.46493 0.45687 0.74859 0.0
C782 C 0.39672 0.51893 0.73927 0.0
C783 C 0.38616 0.50393 0.7267 0.0
C784 C 0.40374 0.53677 0.73333 0.0
C785 C 0.38296 0.50699 0.70835 0.0
C786 C 0.40025 0.53926 0.71486 0.0
N787 N 0.39003 0.52444 0.70285 0.0
C788 C 0.3661 0.4733 0.76299 0.0
C789 C 0.39252 0.45438 0.77092 0.0
C790 C 0.35259 0.4562 0.75875 0.0
N791 N 0.38571 0.47205 0.76869 0.0
C792 C 0.37957 0.43694 0.76681 0.0
C793 C 0.35932 0.43765 0.76048 0.0
H794 H 0.36104 0.48759 0.76155 0.0
H795 H 0.40813 0.45378 0.77562 0.0
C796 C 0.46551 0.53131 0.74351 0.0
N797 N 0.44749 0.51972 0.74059 0.0
C798 C 0.47844 0.53338 0.72891 0.0
C799 C 0.45404 0.51164 0.70851 0.0
C800 C 0.44177 0.50978 0.7235 0.0
C801 C 0.47266 0.52356 0.71109 0.0
H802 H 0.46987 0.53893 0.75723 0.0
H803 H 0.42765 0.50034 0.72139 0.0
O804 O 0.40177 0.51166 0.79824 0.0
O805 O 0.43715 0.53764 0.78323 0.0
O806 O 0.43378 0.4926 0.77322 0.0
O807 O 0.40015 0.51611 0.75727 0.0
H808 H 0.37115 0.51636 0.82027 0.0
H809 H 0.41842 0.47915 0.8041 0.0
H810 H 0.36009 0.49366 0.84261 0.0
H811 H 0.40654 0.45713 0.82666 0.0
H812 H 0.44201 0.60185 0.77332 0.0
H813 H 0.44038 0.55415 0.81825 0.0
H814 H 0.43904 0.56592 0.76185 0.0
H815 H 0.44354 0.59029 0.82876 0.0
H816 H 0.44639 0.51913 0.8631 0.0
H817 H 0.49224 0.49432 0.82852 0.0
H818 H 0.35943 0.58164 0.76727 0.0
H819 H 0.37687 0.58346 0.82511 0.0
H820 H 0.41278 0.47672 0.74235 0.0
H821 H 0.46881 0.47661 0.77423 0.0
H822 H 0.42442 0.45119 0.71882 0.0
H823 H 0.47956 0.45117 0.75008 0.0
H824 H 0.38062 0.49001 0.73101 0.0
H825 H 0.41194 0.54851 0.74285 0.0
H826 H 0.3749 0.49548 0.69846 0.0
H827 H 0.4057 0.55297 0.71007 0.0
H828 H 0.33704 0.4575 0.75419 0.0
H829 H 0.38553 0.42299 0.76816 0.0
H830 H 0.49266 0.54277 0.73147 0.0
H831 H 0.44915 0.50359 0.69506 0.0
Li832 Li 0.77834 0.39363 0.52056 0.0
Li833 Li 0.76232 0.37002 0.5383 0.0
Li834 Li 0.75666 0.36484 0.50489 0.0
Li835 Li 0.74122 0.39312 0.52564 0.0
C836 C 0.80148 0.36242 0.52599 0.0
N837 N 0.83962 0.3569 0.54 0.0
C838 C 0.80889 0.3727 0.54308 0.0
C839 C 0.81341 0.34928 0.51604 0.0
C840 C 0.82822 0.36972 0.54993 0.0
C841 C 0.83267 0.34672 0.52335 0.0
C842 C 0.76601 0.40959 0.56099 0.0
C843 C 0.7505 0.4228 0.58886 0.0
N844 N 0.76907 0.43136 0.59586 0.0
C845 C 0.7849 0.41871 0.56839 0.0
C846 C 0.74862 0.41182 0.57123 0.0
C847 C 0.78614 0.42957 0.58607 0.0
C848 C 0.79923 0.4315 0.52244 0.0
N849 N 0.80141 0.41199 0.51772 0.0
C850 C 0.83485 0.41975 0.50734 0.0
C851 C 0.81876 0.40592 0.51026 0.0
C852 C 0.83293 0.44011 0.51169 0.0
C853 C 0.81474 0.44585 0.51939 0.0
H854 H 0.78515 0.43593 0.52813 0.0
H855 H 0.82005 0.39036 0.50626 0.0
C856 C 0.77346 0.33743 0.5553 0.0
N857 N 0.7658 0.35524 0.55883 0.0
C858 C 0.77628 0.32603 0.56951 0.0
C859 C 0.76299 0.35131 0.59074 0.0
C860 C 0.76039 0.36217 0.57612 0.0
C861 C 0.77108 0.33296 0.58758 0.0
H862 H 0.77725 0.33197 0.54136 0.0
H863 H 0.75389 0.37603 0.57865 0.0
C864 C 0.76382 0.40542 0.49021 0.0
N865 N 0.78235 0.43061 0.46795 0.0
C866 C 0.75926 0.42504 0.49165 0.0
C867 C 0.77767 0.39855 0.47737 0.0
C868 C 0.76882 0.43756 0.48028 0.0
C869 C 0.78692 0.41154 0.46626 0.0
C870 C 0.72624 0.35078 0.53453 0.0
C871 C 0.72852 0.33061 0.53075 0.0
C872 C 0.71515 0.35782 0.54959 0.0
C873 C 0.71985 0.31779 0.5423 0.0
C874 C 0.70671 0.34452 0.56081 0.0
N875 N 0.70923 0.32496 0.55698 0.0
C876 C 0.76106 0.32846 0.48327 0.0
C877 C 0.74421 0.35067 0.46738 0.0
C878 C 0.7603 0.31473 0.4672 0.0
N879 N 0.7532 0.34605 0.48302 0.0
C880 C 0.74314 0.33739 0.45097 0.0
C881 C 0.75143 0.31918 0.45068 0.0
H882 H 0.76831 0.32528 0.49589 0.0
H883 H 0.73818 0.36483 0.46756 0.0
C884 C 0.72436 0.42873 0.53651 0.0
N885 N 0.71937 0.40953 0.52922 0.0
C886 C 0.70917 0.44136 0.54047 0.0
C887 C 0.68391 0.41449 0.5285 0.0
C888 C 0.69963 0.40226 0.52506 0.0
C889 C 0.68853 0.43436 0.5365 0.0
H890 H 0.7402 0.43416 0.53961 0.0
H891 H 0.69608 0.38693 0.51917 0.0
O892 O 0.7826 0.36507 0.51897 0.0
O893 O 0.76442 0.39932 0.54349 0.0
O894 O 0.75515 0.39312 0.50162 0.0
O895 O 0.73522 0.36365 0.52379 0.0
H896 H 0.79977 0.38272 0.55103 0.0
H897 H 0.80786 0.3412 0.50279 0.0
H898 H 0.83413 0.37756 0.56315 0.0
H899 H 0.8421 0.33662 0.51579 0.0
H900 H 0.73719 0.42452 0.59698 0.0
H901 H 0.79846 0.41753 0.56052 0.0
H902 H 0.73386 0.40496 0.5657 0.0
H903 H 0.80068 0.43665 0.59198 0.0
H904 H 0.8486 0.41446 0.50167 0.0
H905 H 0.81219 0.46127 0.52261 0.0
H906 H 0.78224 0.31184 0.56631 0.0
H907 H 0.75893 0.3574 0.60443 0.0
H908 H 0.74861 0.43057 0.50158 0.0
H909 H 0.78144 0.38342 0.4762 0.0
H910 H 0.76553 0.45281 0.48131 0.0
H911 H 0.79779 0.40648 0.45636 0.0
H912 H 0.73714 0.32498 0.51917 0.0
H913 H 0.71327 0.3734 0.55268 0.0
H914 H 0.72162 0.30216 0.53965 0.0
H915 H 0.6982 0.34976 0.57259 0.0
H916 H 0.76714 0.30104 0.4676 0.0
H917 H 0.73598 0.34136 0.43863 0.0
H918 H 0.71365 0.45635 0.54696 0.0
H919 H 0.66835 0.40841 0.52485 0.0
Li920 Li 0.65094 0.9886 0.75467 0.0
Li921 Li 0.62708 0.01054 0.7696 0.0
Li922 Li 0.62469 1.00121 0.73552 0.0
Li923 Li 0.65274 0.02416 0.7503 0.0
C924 C 0.61391 0.96489 0.74698 0.0
N925 N 0.60023 0.92723 0.73017 0.0
C926 C 0.5968 0.95471 0.75333 0.0
C927 C 0.62408 0.95592 0.73209 0.0
C928 C 0.59011 0.93567 0.74464 0.0
C929 C 0.61692 0.93687 0.72377 0.0
C930 C 0.66241 0.01651 0.79163 0.0
C931 C 0.67089 0.03986 0.81919 0.0
N932 N 0.67265 0.0246 0.82906 0.0
C933 C 0.66457 1.00107 0.80199 0.0
C934 C 0.66583 0.03607 0.80024 0.0
C935 C 0.66965 0.00546 0.82092 0.0
C936 C 0.68627 0.96814 0.75213 0.0
N937 N 0.6669 0.9673 0.75799 0.0
C938 C 0.6714 0.93751 0.77063 0.0
C939 C 0.65926 0.95232 0.76698 0.0
C940 C 0.69164 0.93816 0.76505 0.0
C941 C 0.69894 0.95362 0.75546 0.0
H942 H 0.69205 0.98039 0.74528 0.0
H943 H 0.64389 0.95211 0.7717 0.0
C944 C 0.59723 0.02899 0.79092 0.0
N945 N 0.61101 0.01544 0.79097 0.0
C946 C 0.58492 0.03281 0.80592 0.0
C947 C 0.60061 0.00818 0.82065 0.0
C948 C 0.61265 1.00483 0.80531 0.0
C949 C 0.58656 0.02243 0.82114 0.0
H950 H 0.59547 0.03663 0.77907 0.0
H951 H 0.62311 0.99357 0.80476 0.0
C952 C 0.66061 0.00617 0.71495 0.0
N953 N 0.67351 0.01797 0.68219 0.0
C954 C 0.64981 0.01919 0.70624 0.0
C955 C 0.67795 0.99911 0.70697 0.0
C956 C 0.65657 0.02499 0.68969 0.0
C957 C 0.68424 0.00526 0.69041 0.0
C958 C 0.62088 0.04712 0.75089 0.0
C959 C 0.61201 0.05436 0.73586 0.0
C960 C 0.6276 0.06017 0.76676 0.0
C961 C 0.61021 0.07461 0.7369 0.0
C962 C 0.62554 0.08031 0.76727 0.0
N963 N 0.61698 0.08706 0.75244 0.0
C964 C 0.58821 1.00415 0.71576 0.0
C965 C 0.61071 0.98458 0.69857 0.0
C966 C 0.57481 1.00267 0.70031 0.0
N967 N 0.60596 0.99555 0.7145 0.0
C968 C 0.59766 0.98259 0.68279 0.0
C969 C 0.57963 0.99206 0.68345 0.0
H970 H 0.58477 0.01268 0.72865 0.0
H971 H 0.62495 0.97793 0.69791 0.0
C972 C 0.68962 0.04926 0.75703 0.0
N973 N 0.67141 0.04671 0.7473 0.0
C974 C 0.70384 0.06524 0.75514 0.0
C975 C 0.68036 0.07566 0.7332 0.0
C976 C 0.66669 0.05946 0.73544 0.0
C977 C 0.69929 0.07875 0.74308 0.0
H978 H 0.69318 0.03878 0.76618 0.0
H979 H 0.65234 0.05711 0.72759 0.0
O980 O 0.62054 0.98356 0.75533 0.0
O981 O 0.65749 0.01249 0.77308 0.0
O982 O 0.65432 1.00033 0.7312 0.0
O983 O 0.62297 0.02736 0.75007 0.0
H984 H 0.58877 0.96147 0.76484 0.0
H985 H 0.63737 0.96354 0.727 0.0
H986 H 0.57688 0.92761 0.74941 0.0
H987 H 0.62463 0.92976 0.71224 0.0
H988 H 0.67351 0.05493 0.82604 0.0
H989 H 0.66213 0.98585 0.79554 0.0
H990 H 0.66476 0.04821 0.79236 0.0
H991 H 0.67119 0.99365 0.82913 0.0
H992 H 0.66508 0.9258 0.77793 0.0
H993 H 0.71451 0.95491 0.75116 0.0
H994 H 0.5739 0.0435 0.8054 0.0
H995 H 0.60234 0.99975 0.83202 0.0
H996 H 0.63638 0.02482 0.71222 0.0
H997 H 0.68646 0.98898 0.7135 0.0
H998 H 0.64836 0.0351 0.68284 0.0
H999 H 0.69765 0.99993 0.68408 0.0
H1000 H 0.60677 0.04452 0.72343 0.0
H1001 H 0.63424 0.05477 0.77858 0.0
H1002 H 0.60349 0.08043 0.72533 0.0
H1003 H 0.63072 0.09057 0.77946 0.0
H1004 H 0.56095 0.00997 0.70148 0.0
H1005 H 0.60205 0.97441 0.67004 0.0
H1006 H 0.71835 0.06681 0.76283 0.0
H1007 H 0.67602 0.08576 0.72392 0.0
Li1008 Li 0.04872 0.231 0.8749 0.0
Li1009 Li 0.02809 0.24908 0.89916 0.0
Li1010 Li 0.03227 0.213 0.89802 0.0
Li1011 Li 0.01158 0.22427 0.87471 0.0
C1012 C 0.07321 0.2405 0.90802 0.0
N1013 N 0.11374 0.25012 0.91925 0.0
C1014 C 0.08093 0.26029 0.91262 0.0
C1015 C 0.08599 0.22559 0.90948 0.0
C1016 C 0.1015 0.26486 0.91816 0.0
C1017 C 0.10646 0.23076 0.91509 0.0
C1018 C 0.01764 0.25641 0.85848 0.0
C1019 C 0.9901 0.27357 0.84809 0.0
N1020 N 0.99501 0.26832 0.83027 0.0
C1021 C 0.02252 0.25129 0.8401 0.0
C1022 C 1.0014 0.26773 0.86256 0.0
C1023 C 0.01086 0.25743 0.82601 0.0
C1024 C 0.07445 0.22122 0.84513 0.0
N1025 N 0.07169 0.23476 0.86001 0.0
C1026 C 0.10117 0.25517 0.8533 0.0
C1027 C 0.08441 0.25168 0.86402 0.0
C1028 C 0.10468 0.2413 0.838 0.0
C1029 C 0.09092 0.22419 0.83391 0.0
H1030 H 0.06371 0.20823 0.84179 0.0
H1031 H 0.08146 0.26258 0.87547 0.0
C1032 C 0.01911 0.27463 0.93132 0.0
N1033 N 0.02653 0.27367 0.91411 0.0
C1034 C 0.018 0.29299 0.94205 0.0
C1035 C 0.03228 0.30885 0.91711 0.0
C1036 C 0.03304 0.29025 0.90688 0.0
C1037 C 0.0247 0.31042 0.93496 0.0
H1038 H 0.01409 0.26116 0.93671 0.0
H1039 H 0.03881 0.28899 0.89312 0.0
C1040 C 0.03835 0.18673 0.86659 0.0
N1041 N 0.05101 0.14935 0.85889 0.0
C1042 C 0.02467 0.17095 0.85837 0.0
C1043 C 0.05852 0.18356 0.87068 0.0
C1044 C 0.03135 0.15214 0.85464 0.0
C1045 C 0.06462 0.16454 0.86674 0.0
C1046 C 0.9915 0.21396 0.90608 0.0
C1047 C 0.98711 0.19556 0.89523 0.0
C1048 C 0.98019 0.2189 0.92158 0.0
C1049 C 0.97144 0.18235 0.90008 0.0
C1050 C 0.96463 0.20529 0.92598 0.0
N1051 N 0.96062 0.18745 0.91523 0.0
C1052 C 0.04429 0.201 0.93122 0.0
C1053 C 0.02914 0.17405 0.90993 0.0
C1054 C 0.04709 0.18856 0.94451 0.0
N1055 N 0.03553 0.19363 0.9143 0.0
C1056 C 0.03173 0.16101 0.92283 0.0
C1057 C 0.04073 0.16826 0.94044 0.0
H1058 H 0.04903 0.21664 0.93444 0.0
H1059 H 0.02178 0.16853 0.89658 0.0
C1060 C 0.9896 0.21079 0.84074 0.0
N1061 N 0.98783 0.21928 0.85847 0.0
C1062 C 0.97307 0.20902 0.82795 0.0
C1063 C 0.95301 0.22413 0.8521 0.0
C1064 C 0.96999 0.22579 0.86436 0.0
C1065 C 0.95452 0.21589 0.83356 0.0
H1066 H 1.00406 0.20594 0.83641 0.0
H1067 H 0.96913 0.23282 0.87845 0.0
O1068 O 0.0531 0.23577 0.90261 0.0
O1069 O 0.02841 0.24996 0.8724 0.0
O1070 O 0.032 0.20519 0.87049 0.0
O1071 O 0.00687 0.22709 0.9017 0.0
H1072 H 0.07119 0.27201 0.91175 0.0
H1073 H 0.08015 0.21019 0.9065 0.0
H1074 H 0.10772 0.28012 0.9216 0.0
H1075 H 0.11655 0.21937 0.91622 0.0
H1076 H 0.97738 0.2822 0.85101 0.0
H1077 H 0.03501 0.24246 0.83674 0.0
H1078 H 0.9974 0.27171 0.87675 0.0
H1079 H 0.01435 0.25346 0.8117 0.0
H1080 H 0.11136 0.26853 0.85709 0.0
H1081 H 0.09267 0.2133 0.82203 0.0
H1082 H 0.01218 0.29354 0.95578 0.0
H1083 H 0.0373 0.32189 0.91098 0.0
H1084 H 0.00903 0.17319 0.85496 0.0
H1085 H 0.06936 0.19569 0.8767 0.0
H1086 H 0.02091 0.13977 0.84837 0.0
H1087 H 0.08018 0.16187 0.86988 0.0
H1088 H 0.99569 0.1915 0.8832 0.0
H1089 H 0.98342 0.23309 0.93014 0.0
H1090 H 0.9679 0.16805 0.8918 0.0
H1091 H 0.95575 0.20891 0.93795 0.0
H1092 H 0.0543 0.19478 0.95783 0.0
H1093 H 0.02639 0.14551 0.91919 0.0
H1094 H 0.9748 0.20248 0.81381 0.0
H1095 H 0.93907 0.22983 0.85691 0.0
Li1096 Li 0.55167 0.73241 0.37368 0.0
Li1097 Li 0.5317 0.75065 0.39881 0.0
Li1098 Li 0.53547 0.71429 0.3971 0.0
Li1099 Li 0.51446 0.72628 0.37437 0.0
C1100 C 0.57537 0.73121 0.40673 0.0
N1101 N 0.61181 0.71886 0.41817 0.0
C1102 C 0.5865 0.74165 0.42216 0.0
C1103 C 0.58272 0.71447 0.39713 0.0
C1104 C 0.60491 0.73518 0.42772 0.0
C1105 C 0.60118 0.70847 0.40312 0.0
C1106 C 0.52 0.75904 0.359 0.0
C1107 C 0.49227 0.77725 0.35087 0.0
N1108 N 0.49603 0.77262 0.33267 0.0
C1109 C 0.52369 0.75457 0.34024 0.0
C1110 C 0.50426 0.77055 0.3644 0.0
C1111 C 0.51137 0.76155 0.32713 0.0
C1112 C 0.57466 0.72495 0.3418 0.0
N1113 N 0.57442 0.73587 0.35875 0.0
C1114 C 0.60666 0.7532 0.35441 0.0
C1115 C 0.58992 0.74983 0.36518 0.0
C1116 C 0.60741 0.74217 0.3368 0.0
C1117 C 0.5911 0.72786 0.33054 0.0
H1118 H 0.56197 0.71412 0.33697 0.0
H1119 H 0.58924 0.75836 0.37869 0.0
C1120 C 0.52307 0.77625 0.43116 0.0
N1121 N 0.53041 0.77519 0.41391 0.0
C1122 C 0.52151 0.79466 0.44164 0.0
C1123 C 0.53529 0.81038 0.41642 0.0
C1124 C 0.53664 0.79173 0.4065 0.0
C1125 C 0.52748 0.81205 0.43418 0.0
H1126 H 0.51821 0.7628 0.43668 0.0
H1127 H 0.54249 0.7904 0.39277 0.0
C1128 C 0.5312 0.68718 0.36329 0.0
N1129 N 0.52418 0.64728 0.35035 0.0
C1130 C 0.51151 0.67756 0.36281 0.0
C1131 C 0.54728 0.67656 0.35697 0.0
C1132 C 0.50829 0.65738 0.35627 0.0
C1133 C 0.54343 0.65638 0.35055 0.0
C1134 C 0.49266 0.72155 0.40707 0.0
C1135 C 0.48745 0.70117 0.40554 0.0
C1136 C 0.47911 0.73453 0.41477 0.0
C1137 C 0.46854 0.69409 0.41137 0.0
C1138 C 0.46033 0.72688 0.42043 0.0
N1139 N 0.45547 0.70699 0.41861 0.0
C1140 C 0.54329 0.70287 0.43138 0.0
C1141 C 0.53761 0.67502 0.4082 0.0
C1142 C 0.54628 0.69072 0.44489 0.0
N1143 N 0.53908 0.69494 0.41342 0.0
C1144 C 0.54035 0.66228 0.42132 0.0
C1145 C 0.54472 0.67007 0.44 0.0
H1146 H 0.5444 0.71874 0.43518 0.0
H1147 H 0.53418 0.6689 0.39395 0.0
C1148 C 0.4918 0.71315 0.34061 0.0
N1149 N 0.49033 0.7219 0.35831 0.0
C1150 C 0.47522 0.71157 0.32789 0.0
C1151 C 0.45583 0.72782 0.35189 0.0
C1152 C 0.47281 0.7292 0.36409 0.0
C1153 C 0.45693 0.71912 0.33343 0.0
H1154 H 0.50609 0.70794 0.33622 0.0
H1155 H 0.47218 0.73673 0.37798 0.0
O1156 O 0.55722 0.7372 0.40123 0.0
O1157 O 0.53143 0.75178 0.37198 0.0
O1158 O 0.53472 0.70698 0.36949 0.0
O1159 O 0.51114 0.72884 0.40159 0.0
H1160 H 0.58094 0.7546 0.42977 0.0
H1161 H 0.57422 0.70619 0.38523 0.0
H1162 H 0.6137 0.74311 0.43964 0.0
H1163 H 0.60705 0.69554 0.39583 0.0
H1164 H 0.47992 0.78603 0.35482 0.0
H1165 H 0.53578 0.74559 0.33586 0.0
H1166 H 0.50114 0.77401 0.37888 0.0
H1167 H 0.51394 0.75809 0.31255 0.0
H1168 H 0.61899 0.76418 0.35991 0.0
H1169 H 0.59089 0.71919 0.31698 0.0
H1170 H 0.51529 0.79529 0.45522 0.0
H1171 H 0.54039 0.82338 0.41027 0.0
H1172 H 0.49882 0.68557 0.36737 0.0
H1173 H 0.56258 0.6838 0.35702 0.0
H1174 H 0.49314 0.64974 0.35588 0.0
H1175 H 0.55575 0.64795 0.34569 0.0
H1176 H 0.49793 0.69091 0.40005 0.0
H1177 H 0.48299 0.75036 0.41617 0.0
H1178 H 0.46428 0.67835 0.41021 0.0
H1179 H 0.44962 0.73676 0.42627 0.0
H1180 H 0.55002 0.69751 0.459 0.0
H1181 H 0.53877 0.64648 0.4169 0.0
H1182 H 0.47694 0.70506 0.31374 0.0
H1183 H 0.44204 0.7337 0.35687 0.0
Li1184 Li 0.02049 0.78223 0.6391 0.0
Li1185 Li 0.99754 0.76635 0.66301 0.0
Li1186 Li 0.03431 0.76231 0.66113 0.0
Li1187 Li 0.01155 0.74632 0.63721 0.0
C1188 C 0.03132 0.79766 0.68214 0.0
N1189 N 0.05245 0.81741 0.71351 0.0
C1190 C 0.02895 0.7907 0.69913 0.0
C1191 C 0.04429 0.81474 0.68109 0.0
C1192 C 0.03982 0.80087 0.71483 0.0
C1193 C 0.05487 0.8245 0.69712 0.0
C1194 C 0.97821 0.75843 0.62295 0.0
C1195 C 0.94579 0.73958 0.6144 0.0
N1196 N 0.94991 0.73928 0.59624 0.0
C1197 C 0.98207 0.75807 0.60421 0.0
C1198 C 0.95991 0.74921 0.62812 0.0
C1199 C 0.96759 0.74825 0.59091 0.0
C1200 C 0.03185 0.79764 0.60734 0.0
N1201 N 0.02523 0.80325 0.62451 0.0
C1202 C 0.0268 0.83698 0.61895 0.0
C1203 C 0.02254 0.82246 0.63048 0.0
C1204 C 0.034 0.83161 0.60122 0.0
C1205 C 0.03636 0.81159 0.59547 0.0
H1206 H 0.03375 0.78225 0.60292 0.0
H1207 H 0.01721 0.82653 0.64419 0.0
C1208 C 0.97536 0.76022 0.69436 0.0
N1209 N 0.97585 0.77022 0.67951 0.0
C1210 C 0.95979 0.76217 0.70679 0.0
C1211 C 0.94595 0.78547 0.68896 0.0
C1212 C 0.96162 0.78276 0.67663 0.0
C1213 C 0.94484 0.77493 0.70417 0.0
H1214 H 0.9871 0.75066 0.69655 0.0
H1215 H 0.96246 0.79066 0.66478 0.0
C1216 C 0.05876 0.76078 0.63335 0.0
N1217 N 0.10064 0.76101 0.63259 0.0
C1218 C 0.06783 0.74312 0.6329 0.0
C1219 C 0.07098 0.77854 0.63323 0.0
C1220 C 0.08904 0.74355 0.63259 0.0
C1221 C 0.09213 0.77835 0.63288 0.0
C1222 C 0.00652 0.72226 0.6623 0.0
C1223 C 0.0208 0.70922 0.65632 0.0
C1224 C 0.9871 0.71472 0.66664 0.0
C1225 C 0.01539 0.68887 0.65472 0.0
C1226 C 0.9823 0.69427 0.66491 0.0
N1227 N 0.99642 0.68187 0.65901 0.0
C1228 C 0.07401 0.77498 0.67873 0.0
C1229 C 0.0591 0.74406 0.68509 0.0
C1230 C 0.09139 0.77334 0.68968 0.0
N1231 N 0.05832 0.76039 0.67652 0.0
C1232 C 0.07632 0.74163 0.69589 0.0
C1233 C 0.09289 0.75635 0.69831 0.0
H1234 H 0.0731 0.78794 0.67197 0.0
H1235 H 0.04638 0.7328 0.68349 0.0
C1236 C 0.01876 0.72087 0.60472 0.0
N1237 N 0.00563 0.72333 0.61862 0.0
C1238 C 0.01538 0.70476 0.59068 0.0
C1239 C 0.985 0.69387 0.60548 0.0
C1240 C 0.98878 0.71038 0.61903 0.0
C1241 C 0.99837 0.69082 0.59096 0.0
H1242 H 0.0318 0.73158 0.60438 0.0
H1243 H 0.97818 0.71284 0.62984 0.0
O1244 O 0.02105 0.78775 0.66658 0.0
O1245 O 0.99236 0.76758 0.63618 0.0
O1246 O 0.03805 0.76069 0.63396 0.0
O1247 O 0.01156 0.74226 0.66395 0.0
H1248 H 0.01904 0.77744 0.70012 0.0
H1249 H 0.04632 0.82026 0.66801 0.0
H1250 H 0.03826 0.79558 0.72806 0.0
H1251 H 0.06505 0.83768 0.69652 0.0
H1252 H 0.93161 0.73228 0.61819 0.0
H1253 H 0.99621 0.7651 0.60001 0.0
H1254 H 0.95675 0.74931 0.64259 0.0
H1255 H 0.97043 0.74771 0.57636 0.0
H1256 H 0.02481 0.85224 0.62395 0.0
H1257 H 0.04149 0.80669 0.58183 0.0
H1258 H 0.95961 0.75402 0.7185 0.0
H1259 H 0.93468 0.79545 0.68651 0.0
H1260 H 0.0586 0.72923 0.6328 0.0
H1261 H 0.06425 0.79238 0.63376 0.0
H1262 H 0.09626 0.73 0.63233 0.0
H1263 H 0.10177 0.792 0.63293 0.0
H1264 H 0.03585 0.71476 0.65282 0.0
H1265 H 0.9757 0.7245 0.67095 0.0
H1266 H 0.02628 0.67864 0.65003 0.0
H1267 H 0.9673 0.68825 0.66812 0.0
H1268 H 0.10347 0.78533 0.69137 0.0
H1269 H 0.07672 0.72813 0.70196 0.0
H1270 H 0.02587 0.70347 0.57959 0.0
H1271 H 0.97179 0.68355 0.60654 0.0
Li1272 Li 0.51711 0.28478 0.14235 0.0
Li1273 Li 0.49538 0.26919 0.16458 0.0
Li1274 Li 0.53146 0.2648 0.16428 0.0
Li1275 Li 0.50854 0.2477 0.13958 0.0
C1276 C 0.51952 0.29773 0.18814 0.0
N1277 N 0.5202 0.31251 0.2253 0.0
C1278 C 0.51887 0.28486 0.20145 0.0
C1279 C 0.52044 0.3181 0.19372 0.0
C1280 C 0.51925 0.29263 0.22017 0.0
C1281 C 0.5208 0.32529 0.21258 0.0
C1282 C 0.47144 0.2759 0.13518 0.0
C1283 C 0.43487 0.27068 0.1302 0.0
N1284 N 0.43417 0.2905 0.13072 0.0
C1285 C 0.47035 0.29619 0.13554 0.0
C1286 C 0.45356 0.26301 0.13235 0.0
C1287 C 0.45137 0.30329 0.1333 0.0
C1288 C 0.52701 0.29936 0.10979 0.0
N1289 N 0.52295 0.30558 0.12764 0.0
C1290 C 0.52819 0.33941 0.12248 0.0
C1291 C 0.52349 0.32517 0.13419 0.0
C1292 C 0.53265 0.33337 0.10399 0.0
C1293 C 0.53195 0.31302 0.09772 0.0
H1294 H 0.52648 0.28369 0.10496 0.0
H1295 H 0.52027 0.32974 0.14847 0.0
C1296 C 0.47012 0.25947 0.19329 0.0
N1297 N 0.47332 0.27276 0.1812 0.0
C1298 C 0.45503 0.26149 0.20619 0.0
C1299 C 0.44694 0.29119 0.19444 0.0
C1300 C 0.46229 0.28863 0.18177 0.0
C1301 C 0.44316 0.27751 0.20692 0.0
H1302 H 0.47953 0.24743 0.19324 0.0
H1303 H 0.46567 0.29957 0.17271 0.0
C1304 C 0.55575 0.26463 0.13656 0.0
N1305 N 0.59781 0.26772 0.13668 0.0
C1306 C 0.56591 0.24776 0.13206 0.0
C1307 C 0.56695 0.28308 0.14105 0.0
C1308 C 0.58719 0.24963 0.13222 0.0
C1309 C 0.58821 0.28433 0.14104 0.0
C1310 C 0.49878 0.22595 0.16551 0.0
C1311 C 0.50906 0.21059 0.17092 0.0
C1312 C 0.47842 0.22216 0.15907 0.0
C1313 C 0.49885 0.19162 0.16952 0.0
C1314 C 0.46874 0.20301 0.15786 0.0
N1315 N 0.47908 0.18825 0.16304 0.0
C1316 C 0.56646 0.2782 0.1889 0.0
C1317 C 0.56201 0.24386 0.17817 0.0
C1318 C 0.58389 0.27587 0.19952 0.0
N1319 N 0.55575 0.26224 0.17872 0.0
C1320 C 0.57931 0.24084 0.18856 0.0
C1321 C 0.59046 0.25695 0.19955 0.0
H1322 H 0.56152 0.29277 0.18879 0.0
H1323 H 0.55371 0.23158 0.16939 0.0
C1324 C 0.48784 0.22313 0.10908 0.0
N1325 N 0.50331 0.22426 0.12205 0.0
C1326 C 0.48374 0.20624 0.096 0.0
C1327 C 0.5117 0.19203 0.10975 0.0
C1328 C 0.51517 0.20916 0.12265 0.0
C1329 C 0.49583 0.1904 0.09612 0.0
H1330 H 0.4787 0.23538 0.10885 0.0
H1331 H 0.52739 0.21045 0.13311 0.0
O1332 O 0.51878 0.29048 0.16971 0.0
O1333 O 0.48994 0.26868 0.13725 0.0
O1334 O 0.53497 0.26305 0.1371 0.0
O1335 O 0.5086 0.24456 0.16627 0.0
H1336 H 0.51807 0.26904 0.19741 0.0
H1337 H 0.52082 0.32825 0.18358 0.0
H1338 H 0.51876 0.28284 0.23061 0.0
H1339 H 0.52151 0.34103 0.2171 0.0
H1340 H 0.42092 0.26087 0.12805 0.0
H1341 H 0.48394 0.30642 0.13782 0.0
H1342 H 0.45405 0.24723 0.1317 0.0
H1343 H 0.45032 0.31898 0.13368 0.0
H1344 H 0.52865 0.35495 0.1279 0.0
H1345 H 0.53499 0.30767 0.08353 0.0
H1346 H 0.45269 0.25055 0.2155 0.0
H1347 H 0.43848 0.30402 0.19478 0.0
H1348 H 0.55746 0.23337 0.12863 0.0
H1349 H 0.55931 0.29625 0.14476 0.0
H1350 H 0.59528 0.2367 0.12884 0.0
H1351 H 0.59709 0.2985 0.14459 0.0
H1352 H 0.5247 0.21322 0.17619 0.0
H1353 H 0.47023 0.23391 0.15503 0.0
H1354 H 0.50664 0.17959 0.17359 0.0
H1355 H 0.45302 0.19989 0.1528 0.0
H1356 H 0.59201 0.28871 0.20775 0.0
H1357 H 0.58412 0.22609 0.18774 0.0
H1358 H 0.47114 0.20559 0.08598 0.0
H1359 H 0.52159 0.18036 0.11029 0.0
C1360 C 0.2513 0.73148 0.86296 0.0
C1361 C 0.26004 0.73932 0.84797 0.0
C1362 C 0.24869 0.7437 0.87963 0.0
C1363 C 0.2555 0.76411 0.88148 0.0
C1364 C 0.26451 0.77202 0.86639 0.0
C1365 C 0.26645 0.75957 0.84975 0.0
C1366 C 0.23862 0.73479 0.89524 0.0
C1367 C 0.27242 0.79358 0.86791 0.0
C1368 C 0.2354 0.80134 0.91826 0.0
C1369 C 0.25086 0.80349 0.93221 0.0
C1370 C 0.23639 0.78812 0.90191 0.0
C1371 C 0.25355 0.77721 0.89926 0.0
C1372 C 0.2692 0.77937 0.91335 0.0
C1373 C 0.26755 0.79232 0.92975 0.0
C1374 C 0.21917 0.78591 0.88742 0.0
C1375 C 0.28796 0.7684 0.91092 0.0
H1376 H 0.24629 0.71582 0.86153 0.0
H1377 H 0.27343 0.76557 0.83822 0.0
H1378 H 0.2494 0.73646 0.90745 0.0
H1379 H 0.22527 0.74275 0.8995 0.0
H1380 H 0.23345 0.71884 0.89134 0.0
H1381 H 0.27929 0.79733 0.85499 0.0
H1382 H 0.25986 0.80299 0.87112 0.0
H1383 H 0.2841 0.79734 0.87945 0.0
H1384 H 0.22244 0.80992 0.92024 0.0
H1385 H 0.2796 0.79414 0.94049 0.0
H1386 H 0.21328 0.77011 0.8839 0.0
H1387 H 0.22483 0.79098 0.87455 0.0
H1388 H 0.20637 0.79453 0.89206 0.0
H1389 H 0.28355 0.75224 0.90823 0.0
H1390 H 0.29867 0.7716 0.92326 0.0
H1391 H 0.29608 0.77255 0.89874 0.0
C1392 C 0.00893 0.54064 0.40151 0.0
C1393 C 0.99933 0.55781 0.40006 0.0
C1394 C 0.02477 0.53542 0.38993 0.0
C1395 C 0.03115 0.54768 0.37664 0.0
C1396 C 0.02226 0.56557 0.37587 0.0
C1397 C 0.00649 0.5704 0.38757 0.0
C1398 C 0.03391 0.51627 0.39125 0.0
C1399 C 0.02871 0.57916 0.36204 0.0
C1400 C 0.08031 0.54161 0.35139 0.0
C1401 C 0.07297 0.53092 0.33432 0.0
C1402 C 0.06699 0.54674 0.36551 0.0
C1403 C 0.04581 0.54111 0.36249 0.0
C1404 C 0.03837 0.53002 0.34542 0.0
C1405 C 0.05201 0.52507 0.33158 0.0
C1406 C 0.07552 0.55847 0.38354 0.0
C1407 C 0.01588 0.5238 0.34158 0.0
H1408 H 1.00338 0.53079 0.41105 0.0
H1409 H 0.99932 0.58384 0.38659 0.0
H1410 H 0.02923 0.50558 0.37869 0.0
H1411 H 0.0508 0.51869 0.39187 0.0
H1412 H 0.02896 0.50954 0.40358 0.0
H1413 H 0.02148 0.59324 0.3642 0.0
H1414 H 0.04551 0.58265 0.36293 0.0
H1415 H 0.02443 0.57168 0.34781 0.0
H1416 H 0.09652 0.54596 0.35371 0.0
H1417 H 0.04615 0.51706 0.31837 0.0
H1418 H 0.0706 0.55081 0.39532 0.0
H1419 H 0.06948 0.57313 0.38544 0.0
H1420 H 0.09245 0.56075 0.38411 0.0
H1421 H 0.00984 0.51541 0.35251 0.0
H1422 H 0.01267 0.51447 0.32794 0.0
H1423 H 0.00745 0.53709 0.34182 0.0
C1424 C 0.83895 0.75591 0.85006 0.0
C1425 C 0.82175 0.76201 0.84151 0.0
C1426 C 0.83694 0.74332 0.86372 0.0
C1427 C 0.81723 0.73641 0.86871 0.0
C1428 C 0.79982 0.74202 0.85964 0.0
C1429 C 0.80229 0.75488 0.84628 0.0
C1430 C 0.85589 0.73794 0.87323 0.0
C1431 C 0.77855 0.73473 0.86429 0.0
C1432 C 0.81159 0.69171 0.89465 0.0
C1433 C 0.8095 0.70062 0.91285 0.0
C1434 C 0.81406 0.70314 0.88013 0.0
C1435 C 0.8148 0.724 0.88395 0.0
C1436 C 0.81296 0.73307 0.90236 0.0
C1437 C 0.81017 0.72127 0.91654 0.0
C1438 C 0.81562 0.69288 0.86066 0.0
C1439 C 0.81399 0.75527 0.9071 0.0
H1440 H 0.85402 0.76156 0.84655 0.0
H1441 H 0.78896 0.75948 0.83959 0.0
H1442 H 0.85621 0.74378 0.88818 0.0
H1443 H 0.85575 0.72164 0.8721 0.0
H1444 H 0.87007 0.74394 0.86731 0.0
H1445 H 0.76666 0.73942 0.85517 0.0
H1446 H 0.77688 0.71835 0.86304 0.0
H1447 H 0.7758 0.74048 0.87884 0.0
H1448 H 0.81093 0.67574 0.89172 0.0
H1449 H 0.80881 0.72823 0.93063 0.0
H1450 H 0.83021 0.6981 0.85497 0.0
H1451 H 0.80313 0.69663 0.85161 0.0
H1452 H 0.81475 0.67654 0.85999 0.0
H1453 H 0.82853 0.76219 0.90259 0.0
H1454 H 0.81288 0.76003 0.92216 0.0
H1455 H 0.80142 0.76097 0.89958 0.0
C1456 C 0.05477 0.98776 0.42315 0.0
C1457 C 0.04698 0.98095 0.43903 0.0
C1458 C 0.04178 0.99109 0.40854 0.0
C1459 C 0.02041 0.98769 0.40986 0.0
C1460 C 0.01242 0.98081 0.42586 0.0
C1461 C 0.02582 0.97737 0.44022 0.0
C1462 C 0.05097 0.99812 0.39163 0.0
C1463 C 0.98972 0.97723 0.42785 0.0
C1464 C 0.98852 0.01397 0.37836 0.0
C1465 C 0.98272 0.99889 0.36362 0.0
C1466 C 1.00024 0.01037 0.39376 0.0
C1467 C 0.00656 0.9913 0.39437 0.0
C1468 C 1.00058 0.97596 0.37968 0.0
C1469 C 0.98865 0.9799 0.36457 0.0
C1470 C 0.00621 0.02711 0.40919 0.0
C1471 C 0.00713 0.95545 0.37974 0.0
H1472 H 0.07114 0.9902 0.42203 0.0
H1473 H 0.01977 0.97216 0.45249 0.0
H1474 H 0.04598 0.98744 0.37915 0.0
H1475 H 0.04552 0.01251 0.38954 0.0
H1476 H 0.0679 0.99992 0.39273 0.0
H1477 H 0.98594 0.97202 0.4412 0.0
H1478 H 0.9825 0.99105 0.4269 0.0
H1479 H 0.98289 0.96603 0.41638 0.0
H1480 H 0.98429 0.02875 0.37773 0.0
H1481 H 0.98394 0.96803 0.35347 0.0
H1482 H 0.023 0.0307 0.40993 0.0
H1483 H 1.0019 0.02261 0.42268 0.0
H1484 H 0.99891 0.04068 0.40724 0.0
H1485 H 0.02401 0.95607 0.37982 0.0
H1486 H 1.00071 0.945 0.36752 0.0
H1487 H 1.00226 0.94952 0.39246 0.0
C1488 C 0.27892 0.24604 0.6757 0.0
C1489 C 0.27322 0.2654 0.67848 0.0
C1490 C 0.28085 0.23612 0.65783 0.0
C1491 C 0.27719 0.24582 0.6423 0.0
C1492 C 0.27152 0.26538 0.64497 0.0
C1493 C 0.26954 0.27491 0.66302 0.0
C1494 C 0.28688 0.21526 0.65558 0.0
C1495 C 0.26756 0.27623 0.62876 0.0
C1496 C 0.30042 0.22544 0.59757 0.0
C1497 C 0.28378 0.21361 0.58814 0.0
C1498 C 0.29838 0.23638 0.615 0.0
C1499 C 0.27927 0.2354 0.62329 0.0
C1500 C 0.26232 0.2238 0.61371 0.0
C1501 C 0.26476 0.21312 0.59625 0.0
C1502 C 0.31681 0.24863 0.62475 0.0
C1503 C 0.24169 0.22236 0.62208 0.0
H1504 H 0.28219 0.2387 0.68754 0.0
H1505 H 0.26493 0.28977 0.66501 0.0
H1506 H 0.27507 0.20518 0.64695 0.0
H1507 H 0.30135 0.21458 0.64829 0.0
H1508 H 0.28893 0.20971 0.66905 0.0
H1509 H 0.2635 0.29146 0.63318 0.0
H1510 H 0.28129 0.2771 0.62041 0.0
H1511 H 0.25496 0.268 0.61961 0.0
H1512 H 0.31523 0.22575 0.59154 0.0
H1513 H 0.25172 0.20432 0.58895 0.0
H1514 H 0.32082 0.24274 0.63767 0.0
H1515 H 0.31332 0.26411 0.62873 0.0
H1516 H 0.33029 0.2487 0.61602 0.0
H1517 H 0.24274 0.21577 0.6351 0.0
H1518 H 0.2299 0.2132 0.6126 0.0
H1519 H 0.23663 0.23732 0.62566 0.0
C1520 C 0.53777 0.51787 0.61973 0.0
C1521 C 0.54752 0.5365 0.61771 0.0
C1522 C 0.52606 0.51516 0.63511 0.0
C1523 C 0.52377 0.53151 0.64872 0.0
C1524 C 0.53367 0.55029 0.64686 0.0
C1525 C 0.54556 0.5525 0.63154 0.0
C1526 C 0.51596 0.49483 0.63671 0.0
C1527 C 0.5315 0.56815 0.66095 0.0
C1528 C 0.47741 0.52957 0.67836 0.0
C1529 C 0.48584 0.52568 0.69521 0.0
C1530 C 0.48956 0.53147 0.66314 0.0
C1531 C 0.51064 0.52914 0.6647 0.0
C1532 C 0.51922 0.52504 0.68164 0.0
C1533 C 0.50674 0.52352 0.69674 0.0
C1534 C 0.47988 0.5362 0.64545 0.0
C1535 C 0.54154 0.52217 0.68379 0.0
H1536 H 0.53899 0.50543 0.60911 0.0
H1537 H 0.55342 0.56686 0.63047 0.0
H1538 H 0.5204 0.49042 0.65024 0.0
H1539 H 0.49915 0.49503 0.63619 0.0
H1540 H 0.52007 0.48347 0.62549 0.0
H1541 H 0.54007 0.58176 0.65744 0.0
H1542 H 0.51518 0.57071 0.66194 0.0
H1543 H 0.53707 0.56552 0.67482 0.0
H1544 H 0.46129 0.53142 0.67717 0.0
H1545 H 0.51327 0.5203 0.70968 0.0
H1546 H 0.48211 0.5245 0.63384 0.0
H1547 H 0.48737 0.5503 0.64195 0.0
H1548 H 0.46328 0.53753 0.64648 0.0
H1549 H 0.54543 0.51008 0.67319 0.0
H1550 H 0.54574 0.51854 0.6977 0.0
H1551 H 0.55099 0.53579 0.68151 0.0
C1552 C 0.78276 0.26805 0.67143 0.0
C1553 C 0.79235 0.28094 0.68643 0.0
C1554 C 0.77983 0.27439 0.65407 0.0
C1555 C 0.78661 0.29407 0.65169 0.0
C1556 C 0.7971 0.30682 0.66656 0.0
C1557 C 0.79992 0.30007 0.68366 0.0
C1558 C 0.7688 0.26029 0.63848 0.0
C1559 C 0.80467 0.32789 0.66466 0.0
C1560 C 0.79187 0.31154 0.60462 0.0
C1561 C 0.77426 0.32137 0.60313 0.0
C1562 C 0.79568 0.30177 0.61993 0.0
C1563 C 0.78163 0.30196 0.63419 0.0
C1564 C 0.7635 0.31125 0.63246 0.0
C1565 C 0.76 0.32074 0.61695 0.0
C1566 C 0.81511 0.29192 0.62118 0.0
C1567 C 0.74812 0.31182 0.64734 0.0
H1568 H 0.77684 0.25326 0.67346 0.0
H1569 H 0.80776 0.30998 0.69505 0.0
H1570 H 0.75372 0.26533 0.6354 0.0
H1571 H 0.77748 0.26011 0.62571 0.0
H1572 H 0.76641 0.24498 0.64192 0.0
H1573 H 0.81345 0.33557 0.67724 0.0
H1574 H 0.81452 0.32822 0.65266 0.0
H1575 H 0.79153 0.33628 0.66203 0.0
H1576 H 0.80307 0.31204 0.59412 0.0
H1577 H 0.74613 0.32788 0.61575 0.0
H1578 H 0.8118 0.27673 0.62465 0.0
H1579 H 0.82541 0.30032 0.63243 0.0
H1580 H 0.82328 0.29112 0.60807 0.0
H1581 H 0.7435 0.29666 0.65034 0.0
H1582 H 0.73424 0.3186 0.64341 0.0
H1583 H 0.75511 0.32047 0.66032 0.0
C1584 C 0.53475 0.9972 0.58238 0.0
C1585 C 0.51341 0.99479 0.58024 0.0
C1586 C 0.54471 0.99621 0.59944 0.0
C1587 C 0.53307 0.99264 0.6148 0.0
C1588 C 0.51151 0.99006 0.61274 0.0
C1589 C 0.50192 0.99128 0.59549 0.0
C1590 C 0.56772 0.99928 0.60109 0.0
C1591 C 0.4986 0.98609 0.62876 0.0
C1592 C 0.56181 0.97431 0.65412 0.0
C1593 C 0.56654 0.99181 0.66643 0.0
C1594 C 0.55032 0.97421 0.63754 0.0
C1595 C 0.5436 0.99209 0.63308 0.0
C1596 C 0.54804 0.00973 0.64561 0.0
C1597 C 0.55938 0.00936 0.66215 0.0
C1598 C 0.54575 0.95507 0.62461 0.0
C1599 C 0.54137 0.02914 0.64129 0.0
H1600 H 0.54371 1.00026 0.57073 0.0
H1601 H 0.48542 0.98931 0.59388 0.0
H1602 H 0.57269 0.01225 0.61158 0.0
H1603 H 0.57388 0.98624 0.60586 0.0
H1604 H 0.57453 1.00171 0.58777 0.0
H1605 H 0.48205 0.98392 0.62477 0.0
H1606 H 0.50297 0.9727 0.63427 0.0
H1607 H 0.50132 0.99862 0.64015 0.0
H1608 H 0.56713 0.96067 0.65745 0.0
H1609 H 0.56322 0.02299 0.67148 0.0
H1610 H 0.55345 0.95615 0.61146 0.0
H1611 H 0.52913 0.95225 0.62116 0.0
H1612 H 0.55089 0.94224 0.63064 0.0
H1613 H 0.54893 0.03327 0.62882 0.0
H1614 H 0.54515 0.04133 0.65289 0.0
H1615 H 0.52469 0.0277 0.63814 0.0
C1616 C 0.85731 0.23233 0.77167 0.0
C1617 C 0.85067 0.21587 0.75855 0.0
C1618 C 0.87474 0.2324 0.78326 0.0
C1619 C 0.88571 0.21552 0.78191 0.0
C1620 C 0.87929 0.19896 0.76855 0.0
C1621 C 0.86194 0.19938 0.75698 0.0
C1622 C 0.88118 0.25041 0.79723 0.0
C1623 C 0.89053 0.18065 0.76673 0.0
C1624 C 0.93995 0.22137 0.80275 0.0
C1625 C 0.93702 0.2151 0.82005 0.0
C1626 C 0.92342 0.22147 0.79013 0.0
C1627 C 0.90351 0.21498 0.79488 0.0
C1628 C 0.90051 0.20835 0.81222 0.0
C1629 C 0.91729 0.20859 0.82463 0.0
C1630 C 0.92721 0.22887 0.77188 0.0
C1631 C 0.87956 0.20112 0.81772 0.0
H1632 H 0.84857 0.24501 0.77326 0.0
H1633 H 0.85712 0.1867 0.74672 0.0
H1634 H 0.87996 0.24653 0.81144 0.0
H1635 H 0.89736 0.25566 0.79563 0.0
H1636 H 0.8717 0.26274 0.79584 0.0
H1637 H 0.88382 0.16917 0.75541 0.0
H1638 H 0.90676 0.1845 0.76403 0.0
H1639 H 0.8902 0.17426 0.7799 0.0
H1640 H 0.95514 0.22666 0.79925 0.0
H1641 H 0.91499 0.20356 0.83793 0.0
H1642 H 0.91879 0.24198 0.77086 0.0
H1643 H 0.9214 0.21736 0.76027 0.0
H1644 H 0.94365 0.23301 0.77013 0.0
H1645 H 0.86941 0.21317 0.81814 0.0
H1646 H 0.8799 0.19591 0.83147 0.0
H1647 H 0.87272 0.1888 0.80727 0.0
C1648 C 0.54116 0.92458 0.47844 0.0
C1649 C 0.52364 0.93166 0.48623 0.0
C1650 C 0.54169 0.90447 0.47184 0.0
C1651 C 0.52426 0.89108 0.47305 0.0
C1652 C 0.50689 0.89796 0.48174 0.0
C1653 C 0.50679 0.9182 0.48825 0.0
C1654 C 0.56058 0.89773 0.4628 0.0
C1655 C 0.48803 0.88415 0.48332 0.0
C1656 C 0.51811 0.84671 0.43551 0.0
C1657 C 0.52545 0.83188 0.44463 0.0
C1658 C 0.51714 0.86585 0.44477 0.0
C1659 C 0.52365 0.87035 0.46366 0.0
C1660 C 0.53052 0.85532 0.47313 0.0
C1661 C 0.53132 0.83624 0.4635 0.0
C1662 C 0.50958 0.88141 0.43418 0.0
C1663 C 0.53757 0.85956 0.49327 0.0
H1664 H 0.55434 0.93489 0.47712 0.0
H1665 H 0.49316 0.9236 0.49416 0.0
H1666 H 0.56559 0.88488 0.46885 0.0
H1667 H 0.55709 0.89284 0.44783 0.0
H1668 H 0.57339 0.90963 0.46436 0.0
H1669 H 0.47673 0.89132 0.49224 0.0
H1670 H 0.48072 0.87916 0.46937 0.0
H1671 H 0.49209 0.87078 0.48906 0.0
H1672 H 0.51317 0.84334 0.42103 0.0
H1673 H 0.53711 0.82488 0.4706 0.0
H1674 H 0.522 0.89338 0.43366 0.0
H1675 H 0.49685 0.8882 0.44133 0.0
H1676 H 0.50424 0.8753 0.41978 0.0
H1677 H 0.55149 0.87015 0.49491 0.0
H1678 H 0.54104 0.84596 0.49897 0.0
H1679 H 0.52574 0.86657 0.50159 0.0
C1680 C 0.19518 0.25419 0.76767 0.0
C1681 C 0.21391 0.25621 0.77772 0.0
C1682 C 0.17669 0.2531 0.7767 0.0
C1683 C 0.177 0.25432 0.79624 0.0
C1684 C 0.19591 0.25741 0.80647 0.0
C1685 C 0.21413 0.25818 0.79708 0.0
C1686 C 0.15686 0.24966 0.76529 0.0
C1687 C 0.19694 0.25913 0.82732 0.0
C1688 C 0.12927 0.26363 0.82268 0.0
C1689 C 0.12265 0.2446 0.82651 0.0
C1690 C 0.14672 0.26701 0.81257 0.0
C1691 C 0.15774 0.25095 0.80595 0.0
C1692 C 0.15087 0.23165 0.80936 0.0
C1693 C 0.13353 0.22873 0.81967 0.0
C1694 C 0.15359 0.28781 0.80928 0.0
C1695 C 0.16213 0.2141 0.80247 0.0
H1696 H 0.195 0.2525 0.75268 0.0
H1697 H 0.22862 0.25993 0.80487 0.0
H1698 H 0.14941 0.23471 0.76639 0.0
H1699 H 0.14624 0.26049 0.77061 0.0
H1700 H 0.15913 0.25078 0.75045 0.0
H1701 H 0.21273 0.26314 0.83328 0.0
H1702 H 0.18714 0.27044 0.83332 0.0
H1703 H 0.19107 0.24484 0.83162 0.0
H1704 H 0.1208 0.27595 0.82759 0.0
H1705 H 0.12877 0.21402 0.82274 0.0
H1706 H 0.15494 0.28838 0.79426 0.0
H1707 H 0.16892 0.29247 0.81602 0.0
H1708 H 0.14294 0.29857 0.81477 0.0
H1709 H 0.16393 0.21325 0.78734 0.0
H1710 H 0.15417 0.19993 0.80535 0.0
H1711 H 0.17766 0.21588 0.80919 0.0
C1712 C 0.55426 0.60075 0.52052 0.0
C1713 C 0.57169 0.60872 0.5315 0.0
C1714 C 0.5495 0.60792 0.50387 0.0
C1715 C 0.56244 0.62345 0.49819 0.0
C1716 C 0.58075 0.63055 0.50861 0.0
C1717 C 0.58518 0.62304 0.52504 0.0
C1718 C 0.53002 0.5997 0.49299 0.0
C1719 C 0.59504 0.64704 0.50307 0.0
C1720 C 0.55836 0.64009 0.45062 0.0
C1721 C 0.54776 0.65693 0.45437 0.0
C1722 C 0.56243 0.62843 0.46449 0.0
C1723 C 0.55597 0.63385 0.48262 0.0
C1724 C 0.54467 0.6504 0.48632 0.0
C1725 C 0.5406 0.66162 0.47217 0.0
C1726 C 0.57428 0.61075 0.45992 0.0
C1727 C 0.53749 0.65673 0.50545 0.0
H1728 H 0.54375 0.58972 0.52543 0.0
H1729 H 0.59888 0.62899 0.53331 0.0
H1730 H 0.51869 0.61072 0.49481 0.0
H1731 H 0.53275 0.59682 0.478 0.0
H1732 H 0.52333 0.5858 0.49756 0.0
H1733 H 0.60943 0.64972 0.51176 0.0
H1734 H 0.59886 0.64359 0.48839 0.0
H1735 H 0.58743 0.66089 0.50442 0.0
H1736 H 0.56407 0.63636 0.43698 0.0
H1737 H 0.53195 0.67426 0.47513 0.0
H1738 H 0.56666 0.59765 0.46519 0.0
H1739 H 0.58971 0.61383 0.46681 0.0
H1740 H 0.57596 0.60706 0.44479 0.0
H1741 H 0.52841 0.64423 0.51042 0.0
H1742 H 0.52807 0.66937 0.50586 0.0
H1743 H 0.55086 0.66113 0.51526 0.0
C1744 C 0.84881 0.78855 0.76861 0.0
C1745 C 0.8547 0.78693 0.78692 0.0
C1746 C 0.86276 0.7866 0.75446 0.0
C1747 C 0.88319 0.78345 0.75883 0.0
C1748 C 0.88924 0.78208 0.77738 0.0
C1749 C 0.87487 0.78363 0.79114 0.0
C1750 C 0.85558 0.7877 0.73483 0.0
C1751 C 0.91095 0.77914 0.78271 0.0
C1752 C 0.91677 0.76056 0.72203 0.0
C1753 C 0.92832 0.77725 0.71741 0.0
C1754 C 0.90163 0.76241 0.73507 0.0
C1755 C 0.89827 0.78139 0.74404 0.0
C1756 C 0.90982 0.79832 0.73932 0.0
C1757 C 0.92456 0.79606 0.7259 0.0
C1758 C 0.88938 0.74402 0.73939 0.0
C1759 C 0.90701 0.81878 0.74882 0.0
H1760 H 0.83318 0.79103 0.76533 0.0
H1761 H 0.87949 0.78261 0.80534 0.0
H1762 H 0.86449 0.80005 0.72945 0.0
H1763 H 0.85822 0.77389 0.72581 0.0
H1764 H 0.83914 0.7899 0.73368 0.0
H1765 H 0.91333 0.779 0.79782 0.0
H1766 H 0.91511 0.76497 0.77531 0.0
H1767 H 0.92153 0.79112 0.77852 0.0
H1768 H 0.91956 0.74601 0.71535 0.0
H1769 H 0.9336 0.80896 0.72245 0.0
H1770 H 0.87284 0.74548 0.73762 0.0
H1771 H 0.89245 0.7421 0.75403 0.0
H1772 H 0.893 0.7305 0.73042 0.0
H1773 H 0.89091 0.82189 0.74706 0.0
H1774 H 0.91695 0.83044 0.74336 0.0
H1775 H 0.91054 0.81969 0.76389 0.0
C1776 C 0.06695 0.91047 0.53176 0.0
C1777 C 0.05975 0.90134 0.5141 0.0
C1778 C 0.062 0.90173 0.54764 0.0
C1779 C 0.04953 0.88351 0.54575 0.0
C1780 C 0.04122 0.87496 0.52804 0.0
C1781 C 0.04642 0.88396 0.51249 0.0
C1782 C 0.07105 0.9114 0.56627 0.0
C1783 C 0.02773 0.85566 0.52535 0.0
C1784 C 0.05647 0.84553 0.57814 0.0
C1785 C 0.03901 0.84655 0.58857 0.0
C1786 C 0.06052 0.85812 0.5648 0.0
C1787 C 0.04681 0.87219 0.56175 0.0
C1788 C 0.02966 0.87397 0.57284 0.0
C1789 C 0.02597 0.86113 0.58613 0.0
C1790 C 0.07906 0.85576 0.5534 0.0
C1791 C 0.01472 0.88881 0.57009 0.0
H1792 H 0.07728 0.92387 0.53308 0.0
H1793 H 0.04057 0.87702 0.49888 0.0
H1794 H 0.05924 0.91182 0.57675 0.0
H1795 H 0.08302 0.90259 0.57092 0.0
H1796 H 0.078 0.9267 0.56581 0.0
H1797 H 0.02106 0.85189 0.51099 0.0
H1798 H 0.03675 0.84354 0.52845 0.0
H1799 H 0.01513 0.85633 0.53504 0.0
H1800 H 0.06686 0.83459 0.58021 0.0
H1801 H 0.01241 0.862 0.59408 0.0
H1802 H 0.0882 0.87022 0.55371 0.0
H1803 H 0.07417 0.85038 0.53876 0.0
H1804 H 0.08898 0.84515 0.55837 0.0
H1805 H 0.0229 0.9036 0.56959 0.0
H1806 H 1.00367 0.89006 0.58125 0.0
H1807 H 0.00609 0.88428 0.55665 0.0
C1808 C 0.19583 0.7507 0.75997 0.0
C1809 C 0.20545 0.73462 0.75169 0.0
C1810 C 0.17665 0.75458 0.75308 0.0
C1811 C 0.16684 0.74187 0.73777 0.0
C1812 C 0.17608 0.72498 0.7301 0.0
C1813 C 0.19536 0.72168 0.73703 0.0
C1814 C 0.16744 0.77286 0.7615 0.0
C1815 C 0.166 0.71083 0.71404 0.0
C1816 C 0.11069 0.74356 0.72476 0.0
C1817 C 0.11176 0.75373 0.70928 0.0
C1818 C 0.12843 0.73991 0.73441 0.0
C1819 C 0.14776 0.74693 0.72876 0.0
C1820 C 0.14897 0.75781 0.71362 0.0
C1821 C 0.13103 0.76087 0.70396 0.0
C1822 C 0.12651 0.72803 0.75033 0.0
C1823 C 0.16927 0.76577 0.70725 0.0
H1824 H 0.20377 0.76077 0.7712 0.0
H1825 H 0.20284 0.70922 0.7307 0.0
H1826 H 0.16747 0.78356 0.75139 0.0
H1827 H 0.15134 0.76914 0.76472 0.0
H1828 H 0.17597 0.78016 0.77435 0.0
H1829 H 0.17423 0.69745 0.71087 0.0
H1830 H 0.15004 0.70614 0.71704 0.0
H1831 H 0.1655 0.71834 0.70152 0.0
H1832 H 0.09596 0.73831 0.72931 0.0
H1833 H 0.13222 0.76844 0.6919 0.0
H1834 H 0.13477 0.73628 0.76291 0.0
H1835 H 0.13363 0.71403 0.74692 0.0
H1836 H 0.11037 0.72438 0.75356 0.0
H1837 H 0.17851 0.77446 0.71909 0.0
H1838 H 0.16755 0.77532 0.69628 0.0
H1839 H 0.17794 0.75332 0.70176 0.0
C1840 C 0.97593 0.58791 0.52306 0.0
C1841 C 0.97187 0.5911 0.50474 0.0
C1842 C 0.98116 0.60379 0.53722 0.0
C1843 C 0.98295 0.62338 0.53294 0.0
C1844 C 0.97987 0.62668 0.51439 0.0
C1845 C 0.97412 0.61059 0.5006 0.0
C1846 C 0.98405 0.59964 0.55687 0.0
C1847 C 0.98204 0.64731 0.50916 0.0
C1848 C 0.97444 0.66592 0.57013 0.0
C1849 C 0.99447 0.6734 0.57614 0.0
C1850 C 0.97053 0.64947 0.55637 0.0
C1851 C 0.98701 0.64048 0.54797 0.0
C1852 C 0.00725 0.64801 0.55376 0.0
C1853 C 0.01073 0.66418 0.5679 0.0
C1854 C 0.94869 0.64173 0.55077 0.0
C1855 C 0.02525 0.63906 0.54492 0.0
H1856 H 0.97468 0.57297 0.52645 0.0
H1857 H 0.97071 0.61344 0.48665 0.0
H1858 H 0.9992 0.60631 0.56282 0.0
H1859 H 0.9724 0.60653 0.56552 0.0
H1860 H 0.98275 0.58355 0.55783 0.0
H1861 H 0.98105 0.64725 0.49394 0.0
H1862 H 0.96983 0.65579 0.51536 0.0
H1863 H 0.99685 0.65525 0.51473 0.0
H1864 H 0.96171 0.67305 0.57602 0.0
H1865 H 0.02627 0.66949 0.57257 0.0
H1866 H 0.94616 0.6258 0.55218 0.0
H1867 H 0.9455 0.64312 0.53602 0.0
H1868 H 0.93761 0.64979 0.55924 0.0
H1869 H 0.02492 0.6233 0.54691 0.0
H1870 H 0.04004 0.64689 0.55073 0.0
H1871 H 0.02435 0.63954 0.52979 0.0
C1872 C 0.78262 0.83847 0.2358 0.0
C1873 C 0.79184 0.82401 0.22443 0.0
C1874 C 0.7929 0.85733 0.24141 0.0
C1875 C 0.81296 0.86169 0.23572 0.0
C1876 C 0.82237 0.84707 0.22436 0.0
C1877 C 0.81167 0.82846 0.2188 0.0
C1878 C 0.7823 0.87261 0.25336 0.0
C1879 C 0.84383 0.85102 0.2182 0.0
C1880 C 0.83538 0.91475 0.23555 0.0
C1881 C 0.8477 0.9182 0.2519 0.0
C1882 C 0.82355 0.89662 0.23036 0.0
C1883 C 0.82427 0.88148 0.24169 0.0
C1884 C 0.83653 0.88495 0.25832 0.0
C1885 C 0.84802 0.9033 0.26326 0.0
C1886 C 0.81051 0.89356 0.21264 0.0
C1887 C 0.83791 0.8691 0.27065 0.0
H1888 H 0.76726 0.83509 0.24009 0.0
H1889 H 0.81898 0.81721 0.21026 0.0
H1890 H 0.79116 0.87733 0.26665 0.0
H1891 H 0.7815 0.88594 0.24638 0.0
H1892 H 0.76659 0.86698 0.25637 0.0
H1893 H 0.84898 0.83802 0.20948 0.0
H1894 H 0.84477 0.8637 0.21021 0.0
H1895 H 0.85453 0.85511 0.23046 0.0
H1896 H 0.83491 0.92632 0.22684 0.0
H1897 H 0.85769 0.90583 0.27582 0.0
H1898 H 0.79448 0.88888 0.21545 0.0
H1899 H 0.8159 0.88156 0.20281 0.0
H1900 H 0.81084 0.90714 0.20588 0.0
H1901 H 0.82249 0.8639 0.27469 0.0
H1902 H 0.84762 0.87437 0.2834 0.0
H1903 H 0.84435 0.85617 0.26299 0.0
C1904 C 0.79153 0.17086 0.32596 0.0
C1905 C 0.79135 0.18356 0.3124 0.0
C1906 C 0.80409 0.15527 0.32469 0.0
C1907 C 0.81647 0.15199 0.3093 0.0
C1908 C 0.81649 0.1648 0.29566 0.0
C1909 C 0.80422 0.18054 0.29752 0.0
C1910 C 0.80396 0.14218 0.33972 0.0
C1911 C 0.82925 0.16171 0.2789 0.0
C1912 C 0.86184 0.12149 0.30966 0.0
C1913 C 0.85364 0.10315 0.30008 0.0
C1914 C 0.84974 0.13727 0.3134 0.0
C1915 C 0.82902 0.13488 0.30706 0.0
C1916 C 0.82056 0.11638 0.29761 0.0
C1917 C 0.83286 0.10072 0.29446 0.0
C1918 C 0.85926 0.15665 0.32381 0.0
C1919 C 0.7986 0.11326 0.29039 0.0
H1920 H 0.78159 0.17287 0.33745 0.0
H1921 H 0.80478 0.19052 0.28722 0.0
H1922 H 0.79788 0.12689 0.33395 0.0
H1923 H 0.81975 0.14153 0.34519 0.0
H1924 H 0.79454 0.14746 0.35138 0.0
H1925 H 0.82738 0.17286 0.26943 0.0
H1926 H 0.84561 0.16249 0.28328 0.0
H1927 H 0.82497 0.14677 0.27111 0.0
H1928 H 0.87787 0.12374 0.31393 0.0
H1929 H 0.82611 0.08655 0.2875 0.0
H1930 H 0.84984 0.1616 0.33555 0.0
H1931 H 0.85983 0.16821 0.31455 0.0
H1932 H 0.87499 0.1556 0.32926 0.0
H1933 H 0.78831 0.11664 0.30186 0.0
H1934 H 0.79423 0.09788 0.28359 0.0
H1935 H 0.79606 0.12353 0.28023 0.0
C1936 C 0.43355 0.01247 1.00085 0.0
C1937 C 0.4303 0.02419 0.98694 0.0
C1938 C 0.41865 0.99754 1.00428 0.0
C1939 C 0.39989 0.99455 0.99378 0.0
C1940 C 0.39666 0.0062 0.97955 0.0
C1941 C 0.41197 0.02078 0.97622 0.0
C1942 C 0.42284 0.98519 0.01933 0.0
C1943 C 0.37677 1.00373 0.96825 0.0
C1944 C 0.36512 0.94679 0.99235 0.0
C1945 C 0.35092 0.95223 0.00557 0.0
C1946 C 0.38138 0.96025 0.98866 0.0
C1947 C 0.38331 0.97979 0.99812 0.0
C1948 C 0.36911 0.98541 0.01149 0.0
C1949 C 0.35326 0.97154 0.01518 0.0
C1950 C 0.39637 0.9536 0.97449 0.0
C1951 C 0.3705 0.00617 0.02175 0.0
H1952 H 0.44776 0.01504 0.0091 0.0
H1953 H 0.4093 0.03001 0.96562 0.0
H1954 H 0.41204 0.98789 0.03051 0.0
H1955 H 0.42039 0.96924 0.01374 0.0
H1956 H 0.43863 0.98853 0.02543 0.0
H1957 H 0.37688 0.01358 0.95737 0.0
H1958 H 0.37349 0.9882 0.96154 0.0
H1959 H 0.3641 0.00704 0.97745 0.0
H1960 H 0.36338 0.93207 0.98459 0.0
H1961 H 0.34272 0.97588 0.0257 0.0
H1962 H 0.41215 0.9565 0.98065 0.0
H1963 H 0.39555 0.96218 0.9627 0.0
H1964 H 0.39341 0.93762 0.96908 0.0
H1965 H 0.38539 0.00974 0.02956 0.0
H1966 H 0.35814 0.00825 0.0316 0.0
H1967 H 0.36964 0.01692 0.01176 0.0
C1968 C 0.27454 0.36744 0.29498 0.0
C1969 C 0.27145 0.3658 0.31365 0.0
C1970 C 0.26178 0.37803 0.28499 0.0
C1971 C 0.24566 0.38721 0.29391 0.0
C1972 C 0.24193 0.38475 0.31247 0.0
C1973 C 0.25477 0.37402 0.32204 0.0
C1974 C 0.26609 0.3801 0.26514 0.0
C1975 C 0.22488 0.39419 0.32252 0.0
C1976 C 0.22739 0.43414 0.27981 0.0
C1977 C 0.20825 0.42726 0.2712 0.0
C1978 C 0.24008 0.42112 0.28654 0.0
C1979 C 0.23357 0.40064 0.28452 0.0
C1980 C 0.21467 0.39347 0.27512 0.0
C1981 C 0.20217 0.40688 0.26867 0.0
C1982 C 0.26003 0.42943 0.29662 0.0
C1983 C 0.2073 0.37174 0.27246 0.0
H1984 H 0.2874 0.36115 0.28842 0.0
H1985 H 0.252 0.37242 0.33633 0.0
H1986 H 0.25187 0.37669 0.25629 0.0
H1987 H 0.27194 0.3956 0.26418 0.0
H1988 H 0.27754 0.37023 0.25957 0.0
H1989 H 0.22335 0.38999 0.33661 0.0
H1990 H 0.22778 0.41052 0.32378 0.0
H1991 H 0.21017 0.38985 0.31457 0.0
H1992 H 0.2321 0.44987 0.28201 0.0
H1993 H 0.18751 0.40143 0.26181 0.0
H1994 H 0.27272 0.42144 0.29075 0.0
H1995 H 0.25938 0.42732 0.31139 0.0
H1996 H 0.26355 0.44545 0.29587 0.0
H1997 H 0.21942 0.36285 0.26671 0.0
H1998 H 0.19344 0.36828 0.26309 0.0
H1999 H 0.20368 0.36706 0.28603 0.0
C2000 C 0.1217 1.00522 0.49398 0.0
C2001 C 0.11211 1.00128 0.47625 0.0
C2002 C 0.13937 0.01858 0.49758 0.0
C2003 C 0.14758 0.02826 0.48313 0.0
C2004 C 0.13805 0.02423 0.46521 0.0
C2005 C 0.12059 0.01072 0.46197 0.0
C2006 C 0.14922 0.0224 0.51684 0.0
C2007 C 0.14627 0.0342 0.4494 0.0
C2008 C 0.18174 0.07662 0.49338 0.0
C2009 C 0.20103 0.07037 0.48969 0.0
C2010 C 0.16427 0.06301 0.4918 0.0
C2011 C 0.16615 0.04263 0.48657 0.0
C2012 C 0.18567 0.03619 0.48335 0.0
C2013 C 0.20285 0.05014 0.48486 0.0
C2014 C 0.14372 0.07052 0.49512 0.0
C2015 C 0.18837 0.01458 0.47793 0.0
H2016 H 0.11524 0.99806 0.5051 0.0
H2017 H 0.11366 0.00741 0.4481 0.0
H2018 H 0.16534 0.01902 0.51642 0.0
H2019 H 0.14929 0.03826 0.52247 0.0
H2020 H 0.14122 0.0134 0.52646 0.0
H2021 H 0.13686 0.02969 0.43635 0.0
H2022 H 0.14686 0.05049 0.45298 0.0
H2023 H 0.16208 0.03057 0.4469 0.0
H2024 H 0.18023 0.09226 0.49699 0.0
H2025 H 0.21777 0.0452 0.48226 0.0
H2026 H 0.13569 0.06257 0.50544 0.0
H2027 H 0.13413 0.06757 0.48208 0.0
H2028 H 0.14496 0.08664 0.5001 0.0
H2029 H 0.18118 0.00569 0.48803 0.0
H2030 H 0.20468 0.01184 0.47718 0.0
H2031 H 0.18061 0.00921 0.46423 0.0
C2032 C 0.79007 0.16142 0.72987 0.0
C2033 C 0.78366 0.18049 0.7331 0.0
C2034 C 0.77645 0.14457 0.73061 0.0
C2035 C 0.75583 0.14679 0.73449 0.0
C2036 C 0.74907 0.16592 0.73706 0.0
C2037 C 0.76306 0.18253 0.73642 0.0
C2038 C 0.78428 0.12443 0.7278 0.0
C2039 C 0.72717 0.1689 0.74106 0.0
C2040 C 0.71655 0.10209 0.72335 0.0
C2041 C 0.71409 0.09597 0.74081 0.0
C2042 C 0.73004 0.11859 0.72108 0.0
C2043 C 0.74153 0.12916 0.73659 0.0
C2044 C 0.73932 0.12296 0.7542 0.0
C2045 C 0.72559 0.10651 0.75611 0.0
C2046 C 0.73193 0.12476 0.70209 0.0
C2047 C 0.75137 0.13379 0.77108 0.0
H2048 H 0.80588 0.15967 0.72704 0.0
H2049 H 0.75798 0.19717 0.73919 0.0
H2050 H 0.78272 0.11753 0.74064 0.0
H2051 H 0.77505 0.1146 0.71666 0.0
H2052 H 0.80053 0.12517 0.72417 0.0
H2053 H 0.72404 0.18459 0.74152 0.0
H2054 H 0.71675 0.1597 0.73037 0.0
H2055 H 0.72351 0.16407 0.75457 0.0
H2056 H 0.70802 0.09388 0.71137 0.0
H2057 H 0.72362 0.10211 0.76969 0.0
H2058 H 0.74792 0.12446 0.69786 0.0
H2059 H 0.72801 0.14018 0.70238 0.0
H2060 H 0.72184 0.11504 0.69145 0.0
H2061 H 0.76793 0.13412 0.76877 0.0
H2062 H 0.74821 0.12685 0.78371 0.0
H2063 H 0.74766 0.14934 0.77357 0.0
C2064 C 0.44438 0.02163 0.55017 0.0
C2065 C 0.46312 0.025 0.54208 0.0
C2066 C 0.42832 0.03314 0.5472 0.0
C2067 C 0.43128 0.04858 0.53617 0.0
C2068 C 0.45051 0.05251 0.52864 0.0
C2069 C 0.46612 0.04055 0.53155 0.0
C2070 C 0.40797 0.02831 0.55524 0.0
C2071 C 0.45445 0.06904 0.51712 0.0
C2072 C 0.3865 0.06541 0.51044 0.0
C2073 C 0.38287 0.08288 0.52174 0.0
C2074 C 0.40177 0.05383 0.51528 0.0
C2075 C 0.41407 0.06001 0.53167 0.0
C2076 C 0.41049 0.07754 0.54321 0.0
C2077 C 0.39484 0.08864 0.53821 0.0
C2078 C 0.40496 0.03513 0.50267 0.0
C2079 C 0.42343 0.08474 0.56068 0.0
H2080 H 0.44205 0.00951 0.55822 0.0
H2081 H 0.4807 0.04325 0.52543 0.0
H2082 H 0.40293 0.0417 0.56338 0.0
H2083 H 0.39631 0.02325 0.54387 0.0
H2084 H 0.40846 0.01657 0.56429 0.0
H2085 H 0.47063 0.07103 0.51338 0.0
H2086 H 0.4447 0.0659 0.5042 0.0
H2087 H 0.45039 0.08315 0.52475 0.0
H2088 H 0.37766 0.06091 0.49754 0.0
H2089 H 0.39198 0.10186 0.54727 0.0
H2090 H 0.40455 0.02245 0.51064 0.0
H2091 H 0.42021 0.03664 0.49674 0.0
H2092 H 0.39325 0.03168 0.49111 0.0
H2093 H 0.42283 0.07318 0.56994 0.0
H2094 H 0.41846 0.09847 0.56834 0.0
H2095 H 0.43959 0.08769 0.55721 0.0
C2096 C 0.59824 0.50617 0.55277 0.0
C2097 C 0.59842 0.51375 0.57159 0.0
C2098 C 0.61195 0.4926 0.54616 0.0
C2099 C 0.6265 0.4869 0.55861 0.0
C2100 C 0.62676 0.49463 0.57763 0.0
C2101 C 0.61258 0.50779 0.5839 0.0
C2102 C 0.61086 0.48436 0.52588 0.0
C2103 C 0.64229 0.48931 0.5913 0.0
C2104 C 0.65321 0.44015 0.54707 0.0
C2105 C 0.67206 0.44763 0.54109 0.0
C2106 C 0.638 0.45264 0.5522 0.0
C2107 C 0.6418 0.47322 0.55178 0.0
C2108 C 0.66063 0.48086 0.54555 0.0
C2109 C 0.67536 0.46799 0.54006 0.0
C2110 C 0.61798 0.44384 0.55843 0.0
C2111 C 0.66543 0.50275 0.54511 0.0
H2112 H 0.58722 0.51073 0.54327 0.0
H2113 H 0.61288 0.51383 0.59843 0.0
H2114 H 0.62534 0.48873 0.51953 0.0
H2115 H 0.60888 0.46797 0.52419 0.0
H2116 H 0.5981 0.48962 0.51817 0.0
H2117 H 0.64051 0.49668 0.60559 0.0
H2118 H 0.64089 0.47309 0.59139 0.0
H2119 H 0.65791 0.49364 0.5871 0.0
H2120 H 0.65045 0.42456 0.54822 0.0
H2121 H 0.68957 0.47398 0.53504 0.0
H2122 H 0.60507 0.44866 0.55062 0.0
H2123 H 0.61636 0.44922 0.57328 0.0
H2124 H 0.61673 0.42743 0.55652 0.0
H2125 H 0.65383 0.50822 0.53627 0.0
H2126 H 0.68072 0.50634 0.53979 0.0
H2127 H 0.66486 0.51091 0.55925 0.0
C2128 C 0.74059 0.2463 0.35381 0.0
C2129 C 0.75951 0.2395 0.34944 0.0
C2130 C 0.73828 0.25879 0.37037 0.0
C2131 C 0.75531 0.2647 0.38288 0.0
C2132 C 0.77437 0.25768 0.37867 0.0
C2133 C 0.77625 0.24521 0.36202 0.0
C2134 C 0.71768 0.26587 0.37439 0.0
C2135 C 0.79293 0.26367 0.39158 0.0
C2136 C 0.75612 0.31231 0.41649 0.0
C2137 C 0.7515 0.30521 0.43316 0.0
C2138 C 0.7571 0.29931 0.4 0.0
C2139 C 0.75339 0.27867 0.40013 0.0
C2140 C 0.74844 0.2714 0.41684 0.0
C2141 C 0.74757 0.28474 0.43314 0.0
C2142 C 0.7625 0.30767 0.3825 0.0
C2143 C 0.7443 0.2495 0.41755 0.0
H2144 H 0.72755 0.2418 0.34425 0.0
H2145 H 0.791 0.24032 0.35865 0.0
H2146 H 0.71273 0.26191 0.3879 0.0
H2147 H 0.7187 0.28222 0.37544 0.0
H2148 H 0.70583 0.25947 0.36353 0.0
H2149 H 0.80648 0.25643 0.38658 0.0
H2150 H 0.79667 0.27992 0.3931 0.0
H2151 H 0.78973 0.25979 0.40554 0.0
H2152 H 0.75947 0.32806 0.4164 0.0
H2153 H 0.74374 0.27913 0.44589 0.0
H2154 H 0.7505 0.30248 0.37147 0.0
H2155 H 0.77696 0.3023 0.37749 0.0
H2156 H 0.76432 0.32409 0.38458 0.0
H2157 H 0.73177 0.24303 0.4074 0.0
H2158 H 0.74007 0.24626 0.4315 0.0
H2159 H 0.75803 0.24199 0.41365 0.0
C2160 C 0.51937 0.04859 0.9102 0.0
C2161 C 0.49953 0.05028 0.90348 0.0
C2162 C 0.53438 0.04222 0.89811 0.0
C2163 C 0.52938 0.03743 0.87891 0.0
C2164 C 0.50906 0.03803 0.87226 0.0
C2165 C 0.49442 0.04443 0.88461 0.0
C2166 C 0.55582 0.04166 0.90577 0.0
C2167 C 0.503 0.0329 0.85193 0.0
C2168 C 0.56924 0.04562 0.84365 0.0
C2169 C 0.57326 0.02624 0.8371 0.0
C2170 C 0.55552 0.04946 0.85767 0.0
C2171 C 0.54558 0.03355 0.86547 0.0
C2172 C 0.55014 0.01401 0.85945 0.0
C2173 C 0.56391 0.01058 0.84532 0.0
C2174 C 0.55118 0.07054 0.86373 0.0
C2175 C 0.53993 0.99666 0.86746 0.0
H2176 H 0.52344 0.05317 0.92474 0.0
H2177 H 0.47901 0.04541 0.8794 0.0
H2178 H 0.56178 0.02749 0.90039 0.0
H2179 H 0.56595 0.05372 0.90118 0.0
H2180 H 0.55669 0.04347 0.92113 0.0
H2181 H 0.48628 0.03256 0.84922 0.0
H2182 H 0.51079 0.04398 0.84413 0.0
H2183 H 0.50787 0.01827 0.84644 0.0
H2184 H 0.5767 0.05785 0.83765 0.0
H2185 H 0.56679 0.99554 0.84027 0.0
H2186 H 0.55359 0.07429 0.87895 0.0
H2187 H 0.53499 0.07223 0.86024 0.0
H2188 H 0.56097 0.08131 0.85701 0.0
H2189 H 0.54125 0.9994 0.88279 0.0
H2190 H 0.54658 0.98267 0.86264 0.0
H2191 H 0.52344 0.99475 0.86336 0.0
C2192 C 0.33783 0.25709 0.35201 0.0
C2193 C 0.32047 0.26351 0.34401 0.0
C2194 C 0.33611 0.24436 0.36557 0.0
C2195 C 0.31654 0.23765 0.37103 0.0
C2196 C 0.29895 0.24352 0.36246 0.0
C2197 C 0.30114 0.25651 0.34919 0.0
C2198 C 0.35524 0.23869 0.37453 0.0
C2199 C 0.27781 0.23645 0.36762 0.0
C2200 C 0.31117 0.193 0.39706 0.0
C2201 C 0.30965 0.20198 0.41534 0.0
C2202 C 0.31336 0.20439 0.38249 0.0
C2203 C 0.31445 0.22527 0.38632 0.0
C2204 C 0.31323 0.2344 0.4048 0.0
C2205 C 0.31067 0.22265 0.41905 0.0
C2206 C 0.31425 0.19407 0.36296 0.0
C2207 C 0.31465 0.25662 0.40955 0.0
H2208 H 0.3528 0.26266 0.3482 0.0
H2209 H 0.28769 0.26138 0.34294 0.0
H2210 H 0.35615 0.2446 0.38948 0.0
H2211 H 0.35485 0.22237 0.37344 0.0
H2212 H 0.36925 0.24443 0.36818 0.0
H2213 H 0.26572 0.24124 0.35876 0.0
H2214 H 0.27599 0.22008 0.36643 0.0
H2215 H 0.27551 0.24231 0.38225 0.0
H2216 H 0.31023 0.17702 0.39413 0.0
H2217 H 0.30976 0.22965 0.43318 0.0
H2218 H 0.32867 0.19912 0.35688 0.0
H2219 H 0.30155 0.19795 0.35423 0.0
H2220 H 0.31324 0.17773 0.36229 0.0
H2221 H 0.32907 0.26334 0.40465 0.0
H2222 H 0.31407 0.26142 0.42466 0.0
H2223 H 0.30193 0.26249 0.40239 0.0
C2224 C 0.53507 0.50046 0.94264 0.0
C2225 C 0.5425 0.48189 0.9422 0.0
C2226 C 0.52246 0.50467 0.92808 0.0
C2227 C 0.51716 0.48997 0.91267 0.0
C2228 C 0.52407 0.47101 0.91242 0.0
C2229 C 0.53665 0.46721 0.92717 0.0
C2230 C 0.51528 0.52502 0.92894 0.0
C2231 C 0.51881 0.45494 0.89625 0.0
C2232 C 0.4727 0.49531 0.87969 0.0
C2233 C 0.48274 0.50258 0.86497 0.0
C2234 C 0.48365 0.49135 0.89538 0.0
C2235 C 0.5052 0.49468 0.89641 0.0
C2236 C 0.51542 0.50218 0.8817 0.0
C2237 C 0.50409 0.50606 0.8662 0.0
C2238 C 0.47219 0.48335 0.91076 0.0
C2239 C 0.53837 0.50598 0.88227 0.0
H2240 H 0.53936 0.51182 0.95429 0.0
H2241 H 0.54256 0.45293 0.92656 0.0
H2242 H 0.52182 0.53249 0.9176 0.0
H2243 H 0.49845 0.5239 0.9269 0.0
H2244 H 0.51978 0.53443 0.94232 0.0
H2245 H 0.52436 0.44066 0.89867 0.0
H2246 H 0.50206 0.45262 0.89346 0.0
H2247 H 0.52568 0.45948 0.88363 0.0
H2248 H 0.45624 0.49232 0.87878 0.0
H2249 H 0.51197 0.51194 0.85505 0.0
H2250 H 0.47617 0.49303 0.92407 0.0
H2251 H 0.47672 0.46848 0.91238 0.0
H2252 H 0.45541 0.48219 0.90813 0.0
H2253 H 0.54377 0.51657 0.8947 0.0
H2254 H 0.54399 0.51203 0.8698 0.0
H2255 H 0.54532 0.49203 0.88333 0.0
C2256 C 0.75769 0.75448 0.16579 0.0
C2257 C 0.77449 0.766 0.17522 0.0
C2258 C 0.7593 0.74446 0.14789 0.0
C2259 C 0.77823 0.74584 0.1393 0.0
C2260 C 0.79515 0.75771 0.14864 0.0
C2261 C 0.79306 0.7677 0.16646 0.0
C2262 C 0.74085 0.7321 0.13831 0.0
C2263 C 0.81563 0.75941 0.14003 0.0
C2264 C 0.78815 0.70354 0.10252 0.0
C2265 C 0.78479 0.71157 0.08614 0.0
C2266 C 0.78619 0.71459 0.11988 0.0
C2267 C 0.78058 0.73412 0.12092 0.0
C2268 C 0.77721 0.74235 0.10444 0.0
C2269 C 0.77945 0.731 0.08724 0.0
C2270 C 0.79013 0.70535 0.13712 0.0
C2271 C 0.77106 0.76306 0.10499 0.0
H2272 H 0.74326 0.75329 0.17245 0.0
H2273 H 0.80616 0.77639 0.17379 0.0
H2274 H 0.73777 0.73663 0.12455 0.0
H2275 H 0.74384 0.71633 0.13597 0.0
H2276 H 0.727 0.73342 0.14646 0.0
H2277 H 0.82703 0.76991 0.14877 0.0
H2278 H 0.82156 0.7447 0.13784 0.0
H2279 H 0.81407 0.7644 0.12627 0.0
H2280 H 0.79256 0.68863 0.10175 0.0
H2281 H 0.77666 0.7372 0.07461 0.0
H2282 H 0.77626 0.70487 0.1453 0.0
H2283 H 0.80244 0.71448 0.14599 0.0
H2284 H 0.79462 0.69009 0.13393 0.0
H2285 H 0.75653 0.7643 0.11211 0.0
H2286 H 0.76907 0.76731 0.09095 0.0
H2287 H 0.78276 0.77379 0.11305 0.0
C2288 C 0.02247 0.03463 0.11326 0.0
C2289 C 0.04256 0.02947 0.11283 0.0
C2290 C 0.01073 0.0327 0.12874 0.0
C2291 C 0.01931 0.02558 0.14428 0.0
C2292 C 0.03947 0.02003 0.14381 0.0
C2293 C 0.05082 0.02197 0.12808 0.0
C2294 C 0.98921 0.03854 0.12856 0.0
C2295 C 0.04925 0.01251 0.16013 0.0
C2296 C 0.99623 0.03965 0.1908 0.0
C2297 C 0.9838 0.02237 0.19278 0.0
C2298 C 0.00802 0.04081 0.17522 0.0
C2299 C 0.00732 0.02434 0.16115 0.0
C2300 C 0.99492 0.00682 0.16308 0.0
C2301 C 0.98341 0.00602 0.17887 0.0
C2302 C 0.02109 0.05975 0.17372 0.0
C2303 C 0.99371 0.98894 0.1484 0.0
H2304 H 0.01595 0.04027 0.10145 0.0
H2305 H 0.06642 0.0182 0.12794 0.0
H2306 H 0.97839 0.02599 0.13127 0.0
H2307 H 0.98786 0.05094 0.13976 0.0
H2308 H 0.98455 0.04317 0.11517 0.0
H2309 H 0.06481 0.00823 0.15737 0.0
H2310 H 0.05024 0.02412 0.17237 0.0
H2311 H 0.03973 0.99951 0.16376 0.0
H2312 H 0.99649 0.05245 0.20131 0.0
H2313 H 0.97417 0.99247 0.18036 0.0
H2314 H 0.01599 0.06605 0.16134 0.0
H2315 H 0.03718 0.0567 0.17192 0.0
H2316 H 0.02044 0.071 0.18609 0.0
H2317 H 0.98815 0.99287 0.135 0.0
H2318 H 0.98339 0.97642 0.15199 0.0
H2319 H 0.0091 0.98395 0.14636 0.0
C2320 C 0.30374 0.77623 0.17232 0.0
C2321 C 0.29081 0.78154 0.18664 0.0
C2322 C 0.30132 0.78277 0.155 0.0
C2323 C 0.28555 0.79483 0.15195 0.0
C2324 C 0.27184 0.79935 0.16607 0.0
C2325 C 0.27464 0.79267 0.18321 0.0
C2326 C 0.31621 0.77757 0.14028 0.0
C2327 C 0.2547 0.81198 0.16336 0.0
C2328 C 0.2917 0.83196 0.11784 0.0
C2329 C 0.27892 0.82275 0.1028 0.0
C2330 C 0.29443 0.82277 0.13367 0.0
C2331 C 0.28412 0.80388 0.13455 0.0
C2332 C 0.27158 0.79428 0.11925 0.0
C2333 C 0.26912 0.80383 0.10358 0.0
C2334 C 0.3079 0.83355 0.1497 0.0
C2335 C 0.26041 0.77411 0.1196 0.0
H2336 H 0.31633 0.76774 0.17493 0.0
H2337 H 0.26443 0.79658 0.19416 0.0
H2338 H 0.30795 0.77161 0.12693 0.0
H2339 H 0.32586 0.7911 0.13807 0.0
H2340 H 0.32631 0.76653 0.14411 0.0
H2341 H 0.24456 0.81303 0.17522 0.0
H2342 H 0.26112 0.82713 0.16164 0.0
H2343 H 0.24539 0.80589 0.15059 0.0
H2344 H 0.29914 0.84666 0.11747 0.0
H2345 H 0.25946 0.79647 0.09191 0.0
H2346 H 0.31963 0.82408 0.15361 0.0
H2347 H 0.29861 0.83685 0.16193 0.0
H2348 H 0.31569 0.84765 0.14646 0.0
H2349 H 0.27126 0.76356 0.12299 0.0
H2350 H 0.25224 0.76814 0.10618 0.0
H2351 H 0.24917 0.77497 0.13058 0.0
C2352 C 0.03564 0.49614 0.08044 0.0
C2353 C 0.01428 0.4954 0.07925 0.0
C2354 C 0.04623 0.49574 0.09733 0.0
C2355 C 0.03527 0.49469 0.11356 0.0
C2356 C 0.0137 0.49375 0.11249 0.0
C2357 C 1.00346 0.49412 0.09535 0.0
C2358 C 0.06924 0.49684 0.09787 0.0
C2359 C 1.00147 0.4926 0.12948 0.0
C2360 C 0.06364 0.47844 0.15426 0.0
C2361 C 0.07058 0.49665 0.16476 0.0
C2362 C 0.05169 0.47753 0.1378 0.0
C2363 C 0.04653 0.49525 0.1317 0.0
C2364 C 0.05308 0.51364 0.14247 0.0
C2365 C 0.065 0.51411 0.15884 0.0
C2366 C 0.04505 0.45763 0.12669 0.0
C2367 C 0.04784 0.53287 0.13651 0.0
H2368 H 0.04419 0.49754 0.06818 0.0
H2369 H 0.98696 0.49337 0.09454 0.0
H2370 H 0.07574 0.5105 0.10683 0.0
H2371 H 0.0745 0.48412 0.10396 0.0
H2372 H 0.07544 0.49684 0.08391 0.0
H2373 H 0.98478 0.49141 0.12625 0.0
H2374 H 0.00506 0.47963 0.13612 0.0
H2375 H 0.00567 0.50596 0.13974 0.0
H2376 H 0.068 0.46489 0.15865 0.0
H2377 H 0.06997 0.52823 0.16704 0.0
H2378 H 0.05223 0.45655 0.11311 0.0
H2379 H 0.0283 0.45596 0.1239 0.0
H2380 H 0.04928 0.4452 0.13385 0.0
H2381 H 0.05476 0.53478 0.12315 0.0
H2382 H 0.05333 0.54586 0.14684 0.0
H2383 H 0.03109 0.53263 0.13428 0.0
C2384 C 0.37091 0.72355 0.25376 0.0
C2385 C 0.35186 0.71587 0.25901 0.0
C2386 C 0.38858 0.72362 0.26508 0.0
C2387 C 0.3871 0.71608 0.28216 0.0
C2388 C 0.36792 0.70817 0.28744 0.0
C2389 C 0.35056 0.70809 0.27578 0.0
C2390 C 0.40879 0.73197 0.25886 0.0
C2391 C 0.36564 0.70021 0.30564 0.0
C2392 C 0.43422 0.70179 0.30661 0.0
C2393 C 0.4393 0.71842 0.31997 0.0
C2394 C 0.41751 0.70096 0.29399 0.0
C2395 C 0.40544 0.71705 0.29484 0.0
C2396 C 0.41056 0.73393 0.30817 0.0
C2397 C 0.42746 0.73446 0.32048 0.0
C2398 C 0.4126 0.68275 0.27989 0.0
C2399 C 0.39804 0.75138 0.30958 0.0
H2400 H 0.37198 0.72945 0.24075 0.0
H2401 H 0.33582 0.70241 0.28003 0.0
H2402 H 0.41497 0.74503 0.26878 0.0
H2403 H 0.42 0.72085 0.25871 0.0
H2404 H 0.4075 0.73648 0.24486 0.0
H2405 H 0.34975 0.6941 0.30748 0.0
H2406 H 0.37588 0.68841 0.30657 0.0
H2407 H 0.37021 0.71217 0.31724 0.0
H2408 H 0.44312 0.68925 0.3062 0.0
H2409 H 0.43149 0.74755 0.33046 0.0
H2410 H 0.41196 0.68694 0.26575 0.0
H2411 H 0.39736 0.67546 0.28225 0.0
H2412 H 0.42401 0.67189 0.28049 0.0
H2413 H 0.39768 0.75739 0.29623 0.0
H2414 H 0.40412 0.76343 0.32065 0.0
H2415 H 0.38207 0.74658 0.31246 0.0
C2416 C 0.02324 0.41828 0.99506 0.0
C2417 C 0.01616 0.43056 0.98289 0.0
C2418 C 0.02402 0.39796 0.98926 0.0
C2419 C 0.01748 0.3898 0.97092 0.0
C2420 C 0.00953 0.40201 0.95886 0.0
C2421 C 0.00896 0.4222 0.965 0.0
C2422 C 0.03252 0.38539 1.00253 0.0
C2423 C 1.00224 0.3939 0.93925 0.0
C2424 C 0.0397 0.34508 0.94598 0.0
C2425 C 0.02357 0.33021 0.94585 0.0
C2426 C 0.03823 0.36433 0.9548 0.0
C2427 C 0.02018 0.36887 0.96374 0.0
C2428 C 1.00418 0.35374 0.96435 0.0
C2429 C 0.00606 0.33457 0.9554 0.0
C2430 C 0.0557 0.38 0.95391 0.0
C2431 C 0.98471 0.35799 0.97376 0.0
H2432 H 0.02886 0.42468 0.00888 0.0
H2433 H 1.00308 0.43156 0.95566 0.0
H2434 H 0.02198 0.37191 1.00302 0.0
H2435 H 0.04721 0.38048 0.99762 0.0
H2436 H 0.03517 0.39352 0.01676 0.0
H2437 H 0.99539 0.4051 0.932 0.0
H2438 H 0.01523 0.38868 0.93131 0.0
H2439 H 0.99075 0.381 0.93915 0.0
H2440 H 0.05342 0.34171 0.93894 0.0
H2441 H 0.99349 0.32318 0.95527 0.0
H2442 H 0.06028 0.38773 0.96799 0.0
H2443 H 0.05077 0.39125 0.94558 0.0
H2444 H 0.06922 0.37377 0.94762 0.0
H2445 H 0.98816 0.36608 0.98789 0.0
H2446 H 0.97468 0.34428 0.97474 0.0
H2447 H 0.97621 0.36761 0.96588 0.0
C2448 C 0.71624 0.75367 0.29395 0.0
C2449 C 0.71567 0.75481 0.27492 0.0
C2450 C 0.69835 0.75336 0.30383 0.0
C2451 C 0.67938 0.75415 0.29444 0.0
C2452 C 0.67881 0.75626 0.2754 0.0
C2453 C 0.697 0.75662 0.26586 0.0
C2454 C 0.69968 0.75133 0.32415 0.0
C2455 C 0.6589 0.75717 0.2649 0.0
C2456 C 0.63348 0.72925 0.31524 0.0
C2457 C 0.62525 0.7454 0.32518 0.0
C2458 C 0.65076 0.73197 0.30481 0.0
C2459 C 0.66013 0.75131 0.30431 0.0
C2460 C 0.65169 0.76772 0.31399 0.0
C2461 C 0.63435 0.76456 0.3243 0.0
C2462 C 0.6593 0.71408 0.29469 0.0
C2463 C 0.6612 0.78856 0.31375 0.0
H2464 H 0.73069 0.75254 0.30105 0.0
H2465 H 0.69646 0.75737 0.25112 0.0
H2466 H 0.69176 0.76297 0.33224 0.0
H2467 H 0.69192 0.73684 0.32636 0.0
H2468 H 0.7157 0.75237 0.32969 0.0
H2469 H 0.66121 0.76074 0.25069 0.0
H2470 H 0.64961 0.74269 0.26391 0.0
H2471 H 0.64998 0.76842 0.27237 0.0
H2472 H 0.62672 0.71439 0.31601 0.0
H2473 H 0.6279 0.77715 0.33168 0.0
H2474 H 0.67482 0.71287 0.3005 0.0
H2475 H 0.6607 0.71566 0.27986 0.0
H2476 H 0.64965 0.70014 0.29572 0.0
H2477 H 0.67682 0.79032 0.32024 0.0
H2478 H 0.65221 0.79976 0.32125 0.0
H2479 H 0.66259 0.79159 0.29928 0.0
C2480 C 0.08195 0.11735 0.02274 0.0
C2481 C 0.06767 0.10455 0.0302 0.0
C2482 C 0.07726 0.12518 0.00651 0.0
C2483 C 0.05774 0.12019 0.99755 0.0
C2484 C 0.04371 0.10627 1.00436 0.0
C2485 C 0.04887 0.09855 0.02061 0.0
C2486 C 0.09279 0.13976 0.99964 0.0
C2487 C 0.02277 0.10051 0.99519 0.0
C2488 C 0.03916 0.16108 0.97312 0.0
C2489 C 0.04343 0.15495 0.95466 0.0
C2490 C 0.04302 0.14951 0.98704 0.0
C2491 C 0.05139 0.13129 0.98245 0.0
C2492 C 0.05502 0.12463 0.96373 0.0
C2493 C 0.05097 0.13653 0.95005 0.0
C2494 C 0.03874 0.15712 0.00678 0.0
C2495 C 0.06391 0.1053 0.95827 0.0
H2496 H 0.09658 0.12184 0.03002 0.0
H2497 H 0.03776 0.08873 0.0264 0.0
H2498 H 0.09463 0.13576 0.9846 0.0
H2499 H 0.08739 0.15472 1.00173 0.0
H2500 H 0.10792 0.14049 0.00698 0.0
H2501 H 0.0148 0.08759 1.00053 0.0
H2502 H 0.01341 0.11314 0.99779 0.0
H2503 H 0.02376 0.09696 0.97999 0.0
H2504 H 0.03294 0.1751 0.97674 0.0
H2505 H 0.05438 0.13173 0.93582 0.0
H2506 H 0.05326 0.16007 0.01526 0.0
H2507 H 0.02897 0.14581 0.01282 0.0
H2508 H 0.03108 0.17095 0.00789 0.0
H2509 H 0.07987 0.10644 0.96392 0.0
H2510 H 0.06386 0.10125 0.94302 0.0
H2511 H 0.05526 0.09321 0.96424 0.0
C2512 C 0.36586 0.30618 0.28659 0.0
C2513 C 0.3524 0.28988 0.28943 0.0
C2514 C 0.38016 0.30461 0.27276 0.0
C2515 C 0.38116 0.28626 0.26148 0.0
C2516 C 0.36746 0.26981 0.2641 0.0
C2517 C 0.35326 0.27181 0.27802 0.0
C2518 C 0.39452 0.3225 0.27047 0.0
C2519 C 0.36799 0.25 0.25235 0.0
C2520 C 0.40815 0.28576 0.21607 0.0
C2521 C 0.42729 0.28005 0.2209 0.0
C2522 C 0.39297 0.2878 0.22909 0.0
C2523 C 0.39702 0.28412 0.24742 0.0
C2524 C 0.41635 0.27849 0.2524 0.0
C2525 C 0.43121 0.27654 0.23911 0.0
C2526 C 0.37255 0.29379 0.22322 0.0
C2527 C 0.42136 0.27454 0.27181 0.0
H2528 H 0.36558 0.32012 0.29551 0.0
H2529 H 0.34278 0.2592 0.27996 0.0
H2530 H 0.41047 0.31953 0.27342 0.0
H2531 H 0.39347 0.32562 0.25597 0.0
H2532 H 0.39123 0.33589 0.27981 0.0
H2533 H 0.3559 0.23883 0.25573 0.0
H2534 H 0.36611 0.25156 0.23749 0.0
H2535 H 0.38303 0.24439 0.25441 0.0
H2536 H 0.40492 0.28831 0.20199 0.0
H2537 H 0.44606 0.27244 0.24306 0.0
H2538 H 0.36938 0.30761 0.23193 0.0
H2539 H 0.36028 0.2822 0.22532 0.0
H2540 H 0.37182 0.29616 0.20848 0.0
H2541 H 0.4198 0.28794 0.28183 0.0
H2542 H 0.43707 0.27022 0.27344 0.0
H2543 H 0.41043 0.26255 0.27549 0.0
C2544 C 0.56745 0.411 0.034 0.0
C2545 C 0.55847 0.40291 0.01664 0.0
C2546 C 0.56283 0.40217 0.0499 0.0
C2547 C 0.54879 0.38499 0.04835 0.0
C2548 C 0.53875 0.37761 0.03102 0.0
C2549 C 0.54378 0.38659 0.01541 0.0
C2550 C 0.57386 0.41052 0.06809 0.0
C2551 C 0.5235 0.35951 0.02873 0.0
C2552 C 0.55409 0.34528 0.07926 0.0
C2553 C 0.53797 0.34798 0.09112 0.0
C2554 C 0.55831 0.3578 0.06588 0.0
C2555 C 0.54607 0.37343 0.06419 0.0
C2556 C 0.53027 0.37674 0.07659 0.0
C2557 C 0.52644 0.36401 0.08996 0.0
C2558 C 0.57544 0.35382 0.05309 0.0
C2559 C 0.51683 0.39317 0.07523 0.0
H2560 H 0.57889 0.42356 0.03497 0.0
H2561 H 0.53667 0.38043 1.00201 0.0
H2562 H 0.56299 0.41187 0.07936 0.0
H2563 H 0.58499 0.4003 0.07167 0.0
H2564 H 0.58222 0.42525 0.06757 0.0
H2565 H 0.51559 0.35683 0.01482 0.0
H2566 H 0.53142 0.34633 0.03073 0.0
H2567 H 0.51189 0.36106 0.03935 0.0
H2568 H 0.56329 0.33315 0.08029 0.0
H2569 H 0.5139 0.36613 0.09901 0.0
H2570 H 0.58583 0.36749 0.05303 0.0
H2571 H 0.56909 0.34918 0.03874 0.0
H2572 H 0.58448 0.34205 0.05709 0.0
H2573 H 0.52624 0.40732 0.07465 0.0
H2574 H 0.50673 0.39515 0.08708 0.0
H2575 H 0.50717 0.38981 0.06225 0.0
C2576 C 0.69733 0.2286 0.2337 0.0
C2577 C 0.7041 0.23677 0.25176 0.0
C2578 C 0.67794 0.23134 0.22662 0.0
C2579 C 0.6649 0.24252 0.23787 0.0
C2580 C 0.67125 0.25006 0.25642 0.0
C2581 C 0.6908 0.24706 0.26318 0.0
C2582 C 0.67174 0.22286 0.20684 0.0
C2583 C 0.65773 0.26196 0.26888 0.0
C2584 C 0.62668 0.26727 0.21106 0.0
C2585 C 0.60908 0.25402 0.21057 0.0
C2586 C 0.64471 0.26408 0.22051 0.0
C2587 C 0.64521 0.24722 0.22971 0.0
C2588 C 0.62732 0.23411 0.22976 0.0
C2589 C 0.60949 0.23765 0.22017 0.0
C2590 C 0.66347 0.27838 0.22004 0.0
C2591 C 0.62717 0.21604 0.23948 0.0
H2592 H 0.70742 0.22032 0.22493 0.0
H2593 H 0.69599 0.25344 0.27713 0.0
H2594 H 0.65688 0.21373 0.20621 0.0
H2595 H 0.66978 0.23506 0.19859 0.0
H2596 H 0.68319 0.21361 0.20026 0.0
H2597 H 0.66405 0.26517 0.28338 0.0
H2598 H 0.65594 0.27618 0.26366 0.0
H2599 H 0.6423 0.25396 0.26877 0.0
H2600 H 0.62658 0.27984 0.20354 0.0
H2601 H 0.59586 0.22751 0.22011 0.0
H2602 H 0.67535 0.2708 0.21227 0.0
H2603 H 0.6699 0.28356 0.23428 0.0
H2604 H 0.66022 0.29146 0.21338 0.0
H2605 H 0.63731 0.20561 0.2325 0.0
H2606 H 0.61165 0.20822 0.23952 0.0
H2607 H 0.63319 0.22021 0.25398 0.0
C2608 C 0.4552 0.09487 0.02449 0.0
C2609 C 0.4703 0.08817 0.01279 0.0
C2610 C 0.45963 0.11097 0.03854 0.0
C2611 C 0.4797 0.12052 0.04108 0.0
C2612 C 0.49515 0.11349 0.02963 0.0
C2613 C 0.49023 0.09747 0.01555 0.0
C2614 C 0.44267 0.11814 0.05029 0.0
C2615 C 0.51678 0.12311 0.03205 0.0
C2616 C 0.48634 0.17416 0.06362 0.0
C2617 C 0.492 0.17243 0.08199 0.0
C2618 C 0.48236 0.15742 0.0502 0.0
C2619 C 0.48429 0.13841 0.05516 0.0
C2620 C 0.49025 0.13652 0.07359 0.0
C2621 C 0.49393 0.15353 0.08679 0.0
C2622 C 0.47596 0.16007 0.03072 0.0
C2623 C 0.49258 0.11652 0.07939 0.0
H2624 H 0.4397 0.08792 0.02224 0.0
H2625 H 0.50197 0.09225 0.00662 0.0
H2626 H 0.44695 0.11858 0.06517 0.0
H2627 H 0.44019 0.13344 0.04806 0.0
H2628 H 0.42809 0.10862 0.04705 0.0
H2629 H 0.52723 0.11519 0.02271 0.0
H2630 H 0.51722 0.1386 0.02917 0.0
H2631 H 0.52255 0.12358 0.04656 0.0
H2632 H 0.48517 0.18868 0.05964 0.0
H2633 H 0.49802 0.15196 0.10097 0.0
H2634 H 0.46081 0.15183 0.02678 0.0
H2635 H 0.48693 0.15388 0.02087 0.0
H2636 H 0.47506 0.17584 0.02912 0.0
H2637 H 0.47775 0.10727 0.07745 0.0
H2638 H 0.49803 0.11761 0.09409 0.0
H2639 H 0.50352 0.10874 0.07055 0.0
C2640 C 0.30868 0.3304 0.71987 0.0
C2641 C 0.28917 0.32549 0.72599 0.0
C2642 C 0.31919 0.34911 0.72548 0.0
C2643 C 0.30995 0.36332 0.73748 0.0
C2644 C 0.29011 0.35859 0.74348 0.0
C2645 C 0.27999 0.33969 0.73773 0.0
C2646 C 0.34038 0.3535 0.71887 0.0
C2647 C 0.2797 0.37341 0.75615 0.0
C2648 C 0.34604 0.40345 0.7658 0.0
C2649 C 0.34557 0.41909 0.75528 0.0
C2650 C 0.33418 0.38539 0.76039 0.0
C2651 C 0.32139 0.3829 0.74411 0.0
C2652 C 0.32037 0.39879 0.73372 0.0
C2653 C 0.33251 0.41667 0.73939 0.0
C2654 C 0.33571 0.3688 0.77185 0.0
C2655 C 0.30689 0.39673 0.71632 0.0
H2656 H 0.31601 0.31939 0.71106 0.0
H2657 H 0.26485 0.33601 0.7424 0.0
H2658 H 0.34109 0.36686 0.71181 0.0
H2659 H 0.35149 0.35666 0.73089 0.0
H2660 H 0.34518 0.34102 0.70918 0.0
H2661 H 0.26399 0.36768 0.75903 0.0
H2662 H 0.28866 0.37738 0.76947 0.0
H2663 H 0.27896 0.3872 0.74989 0.0
H2664 H 0.35581 0.40529 0.77826 0.0
H2665 H 0.3322 0.42856 0.73105 0.0
H2666 H 0.3418 0.35611 0.76347 0.0
H2667 H 0.32036 0.36353 0.77603 0.0
H2668 H 0.34577 0.37335 0.78449 0.0
H2669 H 0.31231 0.38551 0.70569 0.0
H2670 H 0.30674 0.41088 0.71052 0.0
H2671 H 0.29103 0.39148 0.71915 0.0
C2672 C 0.30772 0.68087 0.8007 0.0
C2673 C 0.29255 0.68258 0.8137 0.0
C2674 C 0.31993 0.6651 0.79935 0.0
C2675 C 0.31702 0.65062 0.81135 0.0
C2676 C 0.30216 0.65254 0.8249 0.0
C2677 C 0.29011 0.66853 0.82594 0.0
C2678 C 0.33565 0.66371 0.78477 0.0
C2679 C 0.29864 0.63744 0.83797 0.0
C2680 C 0.33384 0.60046 0.79286 0.0
C2681 C 0.35321 0.60119 0.80163 0.0
C2682 C 0.32165 0.61615 0.79639 0.0
C2683 C 0.32895 0.63307 0.809 0.0
C2684 C 0.34824 0.63368 0.81832 0.0
C2685 C 0.36012 0.61773 0.81454 0.0
C2686 C 0.30115 0.61484 0.78621 0.0
C2687 C 0.3566 0.65145 0.83184 0.0
H2688 H 0.31 0.6919 0.79145 0.0
H2689 H 0.2784 0.66972 0.83598 0.0
H2690 H 0.35091 0.66274 0.79124 0.0
H2691 H 0.33186 0.65006 0.77478 0.0
H2692 H 0.33655 0.67659 0.777 0.0
H2693 H 0.28742 0.64167 0.84844 0.0
H2694 H 0.29294 0.62291 0.83001 0.0
H2695 H 0.31319 0.63548 0.84524 0.0
H2696 H 0.32821 0.58758 0.78313 0.0
H2697 H 0.37512 0.61849 0.82129 0.0
H2698 H 0.30122 0.62646 0.77701 0.0
H2699 H 0.28904 0.61753 0.79618 0.0
H2700 H 0.29716 0.60022 0.77768 0.0
H2701 H 0.35942 0.66445 0.82442 0.0
H2702 H 0.37109 0.64902 0.83899 0.0
H2703 H 0.34533 0.65515 0.84239 0.0
C2704 C 0.93015 0.51652 0.49852 0.0
C2705 C 0.92502 0.52919 0.48597 0.0
C2706 C 0.91574 0.5017 0.50303 0.0
C2707 C 0.89562 0.4999 0.49514 0.0
C2708 C 0.89032 0.51293 0.48268 0.0
C2709 C 0.90516 0.52727 0.47808 0.0
C2710 C 0.92212 0.48781 0.51602 0.0
C2711 C 0.86893 0.51182 0.4743 0.0
C2712 C 0.86153 0.45162 0.49241 0.0
C2713 C 0.84951 0.45523 0.50781 0.0
C2714 C 0.87693 0.46579 0.48843 0.0
C2715 C 0.88008 0.48433 0.49979 0.0
C2716 C 0.86804 0.48816 0.51532 0.0
C2717 C 0.85314 0.4735 0.51928 0.0
C2718 C 0.88969 0.461 0.47192 0.0
C2719 C 0.87069 0.50786 0.52761 0.0
H2720 H 0.94556 0.51799 0.50454 0.0
H2721 H 0.90118 0.53722 0.4685 0.0
H2722 H 0.91267 0.48891 0.52833 0.0
H2723 H 0.91956 0.47232 0.50904 0.0
H2724 H 0.93843 0.49099 0.52074 0.0
H2725 H 0.86714 0.52343 0.46531 0.0
H2726 H 0.86485 0.49715 0.46594 0.0
H2727 H 0.8579 0.51343 0.48543 0.0
H2728 H 0.85873 0.43781 0.48317 0.0
H2729 H 0.84433 0.47643 0.53144 0.0
H2730 H 0.90613 0.46349 0.4762 0.0
H2731 H 0.88693 0.47096 0.46154 0.0
H2732 H 0.88625 0.44546 0.46519 0.0
H2733 H 0.88649 0.51073 0.5337 0.0
H2734 H 0.85995 0.5086 0.53902 0.0
H2735 H 0.86823 0.51989 0.51928 0.0
C2736 C 0.78162 0.88601 0.8053 0.0
C2737 C 0.77753 0.86568 0.8059 0.0
C2738 C 0.76792 0.89649 0.79638 0.0
C2739 C 0.74962 0.8864 0.78779 0.0
C2740 C 0.74605 0.86563 0.78727 0.0
C2741 C 0.76007 0.85549 0.79634 0.0
C2742 C 0.77246 0.91858 0.79716 0.0
C2743 C 0.72683 0.85431 0.77812 0.0
C2744 C 0.70533 0.91807 0.78802 0.0
C2745 C 0.70542 0.92353 0.77019 0.0
C2746 C 0.71915 0.90543 0.79364 0.0
C2747 C 0.73349 0.898 0.78115 0.0
C2748 C 0.73327 0.90292 0.76294 0.0
C2749 C 0.71929 0.91569 0.75769 0.0
C2750 C 0.71891 0.90066 0.81323 0.0
C2751 C 0.74817 0.89517 0.74916 0.0
H2752 H 0.79526 0.89389 0.81245 0.0
H2753 H 0.7568 0.83979 0.79683 0.0
H2754 H 0.77068 0.92292 0.78316 0.0
H2755 H 0.76142 0.92622 0.80599 0.0
H2756 H 0.78812 0.92389 0.80288 0.0
H2757 H 0.72762 0.83807 0.77665 0.0
H2758 H 0.71365 0.85797 0.78654 0.0
H2759 H 0.72389 0.85859 0.76423 0.0
H2760 H 0.69489 0.92424 0.79786 0.0
H2761 H 0.7193 0.91963 0.74382 0.0
H2762 H 0.73342 0.90694 0.82083 0.0
H2763 H 0.71774 0.88442 0.8132 0.0
H2764 H 0.70606 0.90666 0.82088 0.0
H2765 H 0.76387 0.90154 0.7538 0.0
H2766 H 0.74484 0.8989 0.73511 0.0
H2767 H 0.74785 0.87888 0.74834 0.0
C2768 C 0.61721 0.51177 0.9622 0.0
C2769 C 0.60945 0.50229 0.97674 0.0
C2770 C 0.63484 0.52512 0.96483 0.0
C2771 C 0.64529 0.52893 0.98237 0.0
C2772 C 0.63776 0.51925 0.99707 0.0
C2773 C 0.61991 0.50608 0.99411 0.0
C2774 C 0.64231 0.53512 0.94876 0.0
C2775 C 0.64857 0.52283 0.01594 0.0
C2776 C 0.70076 0.54984 0.98228 0.0
C2777 C 0.69948 0.5701 0.9876 0.0
C2778 C 0.68334 0.5362 0.9811 0.0
C2779 C 0.66413 0.54299 0.98513 0.0
C2780 C 0.6628 0.5634 0.99076 0.0
C2781 C 0.6805 0.57669 0.99201 0.0
C2782 C 0.68546 0.51455 0.97523 0.0
C2783 C 0.64258 0.57128 0.99495 0.0
H2784 H 0.60961 0.50859 0.9486 0.0
H2785 H 0.61401 0.49889 0.00543 0.0
H2786 H 0.64331 0.55141 0.95252 0.0
H2787 H 0.65785 0.5312 0.94549 0.0
H2788 H 0.63218 0.53088 0.93612 0.0
H2789 H 0.64095 0.51395 0.02585 0.0
H2790 H 0.66454 0.51911 0.01479 0.0
H2791 H 0.64918 0.5387 0.02166 0.0
H2792 H 0.71544 0.54464 0.97912 0.0
H2793 H 0.6794 0.59235 0.99598 0.0
H2794 H 0.67689 0.50944 0.96185 0.0
H2795 H 0.67878 0.50565 0.98555 0.0
H2796 H 0.70161 0.51153 0.97363 0.0
H2797 H 0.63237 0.5685 0.9823 0.0
H2798 H 0.64425 0.5874 0.99997 0.0
H2799 H 0.63499 0.56344 0.00557 0.0
C2800 C 0.28927 0.66465 0.22768 0.0
C2801 C 0.28405 0.68396 0.23264 0.0
C2802 C 0.27508 0.64821 0.22836 0.0
C2803 C 0.2552 0.65114 0.23421 0.0
C2804 C 0.24959 0.67061 0.23852 0.0
C2805 C 0.26408 0.68679 0.23765 0.0
C2806 C 0.28161 0.6277 0.22346 0.0
C2807 C 0.22856 0.67436 0.24485 0.0
C2808 C 0.21357 0.60822 0.22505 0.0
C2809 C 0.21354 0.60085 0.24207 0.0
C2810 C 0.22701 0.62457 0.22226 0.0
C2811 C 0.24069 0.63386 0.23688 0.0
C2812 C 0.24066 0.62655 0.25411 0.0
C2813 C 0.22714 0.61012 0.25648 0.0
C2814 C 0.22669 0.63182 0.20365 0.0
C2815 C 0.25491 0.63611 0.27009 0.0
H2816 H 0.30464 0.66239 0.22362 0.0
H2817 H 0.26001 0.70166 0.24172 0.0
H2818 H 0.28163 0.62012 0.23594 0.0
H2819 H 0.27064 0.61877 0.21306 0.0
H2820 H 0.29708 0.62794 0.21787 0.0
H2821 H 0.22615 0.6903 0.24642 0.0
H2822 H 0.21675 0.66606 0.23487 0.0
H2823 H 0.22629 0.66899 0.25837 0.0
H2824 H 0.20326 0.60098 0.21378 0.0
H2825 H 0.22703 0.60466 0.26972 0.0
H2826 H 0.24186 0.63101 0.19761 0.0
H2827 H 0.22354 0.64755 0.20528 0.0
H2828 H 0.21502 0.62307 0.19376 0.0
H2829 H 0.27097 0.6356 0.26611 0.0
H2830 H 0.25285 0.62877 0.28264 0.0
H2831 H 0.25235 0.65191 0.2736 0.0
C2832 C 0.94434 0.5222 0.04995 0.0
C2833 C 0.96311 0.52561 0.04193 0.0
C2834 C 0.92824 0.53362 0.04685 0.0
C2835 C 0.93119 0.54899 0.03575 0.0
C2836 C 0.95048 0.55302 0.02836 0.0
C2837 C 0.96613 0.54116 0.0314 0.0
C2838 C 0.90783 0.52867 0.05474 0.0
C2839 C 0.95441 0.5695 0.01678 0.0
C2840 C 0.88652 0.56496 0.00919 0.0
C2841 C 0.88252 0.58244 0.02026 0.0
C2842 C 0.90187 0.55365 0.01438 0.0
C2843 C 0.91388 0.56013 0.03089 0.0
C2844 C 0.90992 0.57767 0.04221 0.0
C2845 C 0.89418 0.58849 0.03686 0.0
C2846 C 0.90546 0.53491 1.00201 0.0
C2847 C 0.92255 0.5852 0.05979 0.0
H2848 H 0.94201 0.51006 0.05798 0.0
H2849 H 0.98072 0.54384 0.02529 0.0
H2850 H 0.90249 0.54208 0.06258 0.0
H2851 H 0.89637 0.52324 0.04329 0.0
H2852 H 0.90839 0.51716 0.06403 0.0
H2853 H 0.97067 0.57171 0.01331 0.0
H2854 H 0.94494 0.5661 1.00369 0.0
H2855 H 0.94999 0.58357 0.0242 0.0
H2856 H 0.87792 0.56023 0.9962 0.0
H2857 H 0.89102 0.60172 0.04576 0.0
H2858 H 0.9051 0.52233 0.01012 0.0
H2859 H 0.92079 0.53655 0.99626 0.0
H2860 H 0.89393 0.53119 0.99033 0.0
H2861 H 0.92198 0.57374 0.06917 0.0
H2862 H 0.91728 0.59888 0.06725 0.0
H2863 H 0.93874 0.58832 0.05651 0.0
C2864 C 0.11588 0.01488 0.06609 0.0
C2865 C 0.09534 0.0084 0.06797 0.0
C2866 C 0.13007 1.00145 0.06053 0.0
C2867 C 0.12359 0.98099 0.05664 0.0
C2868 C 0.10279 0.97437 0.05818 0.0
C2869 C 0.08894 0.98814 0.0639 0.0
C2870 C 0.15212 0.00913 0.05925 0.0
C2871 C 0.09522 0.95272 0.05398 0.0
C2872 C 0.15892 0.94881 0.02866 0.0
C2873 C 0.16941 0.94093 0.04257 0.0
C2874 C 0.14362 0.96145 0.03297 0.0
C2875 C 0.13877 0.96653 0.05165 0.0
C2876 C 0.14903 0.95838 0.06571 0.0
C2877 C 0.16409 0.94563 0.061 0.0
C2878 C 0.13295 0.96972 0.01756 0.0
C2879 C 0.14437 0.96344 0.08581 0.0
H2880 H 0.12102 0.03047 0.06949 0.0
H2881 H 0.07305 0.98305 0.06518 0.0
H2882 H 0.16177 1.00284 0.06926 0.0
H2883 H 0.15741 1.00436 0.04524 0.0
H2884 H 0.15459 0.02551 0.06219 0.0
H2885 H 0.07845 0.95006 0.05506 0.0
H2886 H 0.09922 0.94672 0.03983 0.0
H2887 H 0.10279 0.94432 0.06374 0.0
H2888 H 0.16302 0.94551 0.01441 0.0
H2889 H 0.17175 0.93934 0.07183 0.0
H2890 H 0.13651 0.98601 0.01923 0.0
H2891 H 0.11619 0.96671 0.01821 0.0
H2892 H 0.13756 0.96339 1.00368 0.0
H2893 H 0.14772 0.97958 0.09018 0.0
H2894 H 0.15338 0.95555 0.09504 0.0
H2895 H 0.12793 0.95965 0.08773 0.0
loop_
_geom_bond_atom_site_label_1
_geom_bond_atom_site_label_2
_geom_bond_distance
_geom_bond_site_symmetry_2
_ccdc_geom_bond_type
H0 C1 0.949 . S
C1 H0 0.949 . S
C1 C2 1.395 . S
C1 C3 1.391 . S
C2 C1 1.395 . S
C2 C5 1.390 . S
C3 C1 1.391 . S
C3 C7 1.387 . S
C3 C8 1.491 . S
H4 C5 0.994 . S
C5 C2 1.390 . S
C5 H4 0.994 . S
C5 C6 1.378 . S
C6 C5 1.378 . S
C6 C7 1.409 . S
C7 C3 1.387 . S
C7 C6 1.409 . S
C7 H9 0.951 . S
C8 C3 1.491 . S
C8 C10 1.382 . S
C8 C12 1.404 . S
H9 C7 0.951 . S
C10 C8 1.382 . S
C10 C11 1.390 . S
C10 H15 0.949 . S
C11 C10 1.390 . S
C11 C16 1.399 . S
C12 C8 1.404 . S
C12 H13 0.950 . S
C12 C14 1.375 . S
H13 C12 0.950 . S
C14 C12 1.375 . S
C14 C16 1.382 . S
C14 H18 0.950 . S
H15 C10 0.949 . S
C16 C11 1.399 . S
C16 C14 1.382 . S
C16 H17 0.952 . S
H17 C16 0.952 . S
H18 C14 0.950 . S
H19 C20 0.949 . S
C20 H19 0.949 . S
C20 C21 1.395 . S
C20 C22 1.391 . S
C21 C20 1.395 . S
C21 C24 1.390 . S
C22 C20 1.391 . S
C22 C26 1.387 . S
C22 C27 1.491 . S
H23 C24 0.950 . S
C24 C21 1.390 . S
C24 H23 0.950 . S
C24 C25 1.378 . S
C25 C24 1.378 . S
C25 C26 1.409 . S
C26 C22 1.387 . S
C26 C25 1.409 . S
C26 H28 0.951 . S
C27 C22 1.491 . S
C27 C29 1.382 . S
C27 C31 1.404 . S
H28 C26 0.951 . S
C29 C27 1.382 . S
C29 C30 1.390 . S
C29 H34 0.949 . S
C30 C29 1.390 . S
C30 C35 1.399 . S
C31 C27 1.404 . S
C31 H32 0.950 . S
C31 C33 1.375 . S
H32 C31 0.950 . S
C33 C31 1.375 . S
C33 C35 1.382 . S
C33 H37 0.950 . S
H34 C29 0.949 . S
C35 C30 1.399 . S
C35 C33 1.382 . S
C35 H36 0.952 . S
H36 C35 0.952 . S
H37 C33 0.950 . S
H38 C39 0.949 . S
C39 H38 0.949 . S
C39 C40 1.395 . S
C39 C41 1.391 1_455 S
C40 C39 1.395 . S
C40 C43 1.390 1_455 S
C41 C39 1.391 1_655 S
C41 C45 1.387 . S
C41 C46 1.487 1_654 S
H42 C43 0.950 . S
C43 C40 1.390 1_655 S
C43 H42 0.950 . S
C43 C44 1.378 . S
C44 C43 1.378 . S
C44 C45 1.409 . S
C45 C41 1.387 . S
C45 C44 1.409 . S
C45 H47 0.951 1_554 S
C46 C41 1.487 1_456 S
C46 C48 1.386 . S
C46 C50 1.404 . S
H47 C45 0.951 1_556 S
C48 C46 1.386 . S
C48 C49 1.390 . S
C48 H53 0.949 1_556 S
C49 C48 1.390 . S
C49 C54 1.399 . S
C50 C46 1.404 . S
C50 H51 0.949 1_455 S
C50 C52 1.376 . S
H51 C50 0.949 1_655 S
C52 C50 1.376 . S
C52 C54 1.382 . S
C52 H56 0.950 . S
H53 C48 0.949 1_554 S
C54 C49 1.399 . S
C54 C52 1.382 . S
C54 H55 0.952 . S
H55 C54 0.952 . S
H56 C52 0.950 . S
H57 C58 0.949 . S
C58 H57 0.949 . S
C58 C59 1.395 . S
C58 C60 1.391 . S
C59 C58 1.395 . S
C59 C62 1.390 . S
C60 C58 1.391 . S
C60 C64 1.387 . S
C60 C65 1.491 . S
H61 C62 0.950 . S
C62 C59 1.390 . S
C62 H61 0.950 . S
C62 C63 1.378 . S
C63 C62 1.378 . S
C63 C64 1.409 . S
C64 C60 1.387 . S
C64 C63 1.409 . S
C64 H66 0.951 . S
C65 C60 1.491 . S
C65 C67 1.382 . S
C65 C69 1.404 . S
H66 C64 0.951 . S
C67 C65 1.382 . S
C67 C68 1.390 . S
C67 H72 0.949 . S
C68 C67 1.390 . S
C68 C73 1.399 . S
C69 C65 1.404 . S
C69 H70 0.950 . S
C69 C71 1.375 . S
H70 C69 0.950 . S
C71 C69 1.375 . S
C71 C73 1.382 . S
C71 H75 0.950 . S
H72 C67 0.949 . S
C73 C68 1.399 . S
C73 C71 1.382 . S
C73 H74 0.952 . S
H74 C73 0.952 . S
H75 C71 0.950 . S
H76 C77 0.949 . S
C77 H76 0.949 . S
C77 C78 1.395 . S
C77 C79 1.391 . S
C78 C77 1.395 . S
C78 C81 1.390 . S
C79 C77 1.391 . S
C79 C83 1.387 . S
C79 C84 1.491 . S
H80 C81 0.950 1_545 S
C81 C78 1.390 . S
C81 H80 0.950 1_565 S
C81 C82 1.378 . S
C82 C81 1.378 . S
C82 C83 1.409 . S
C83 C79 1.387 . S
C83 C82 1.409 . S
C83 H85 0.951 . S
C84 C79 1.491 . S
C84 C86 1.382 . S
C84 C88 1.404 . S
H85 C83 0.951 . S
C86 C84 1.382 . S
C86 C87 1.390 . S
C86 H91 0.949 . S
C87 C86 1.390 . S
C87 C92 1.399 . S
C88 C84 1.404 . S
C88 H89 0.950 . S
C88 C90 1.375 . S
H89 C88 0.950 . S
C90 C88 1.375 . S
C90 C92 1.382 . S
C90 H94 0.950 . S
H91 C86 0.949 . S
C92 C87 1.399 . S
C92 C90 1.382 . S
C92 H93 0.952 . S
H93 C92 0.952 . S
H94 C90 0.950 . S
H95 C96 0.949 . S
C96 H95 0.949 . S
C96 C97 1.395 . S
C96 C98 1.391 . S
C97 C96 1.395 . S
C97 C100 1.390 . S
C98 C96 1.391 . S
C98 C102 1.387 . S
C98 C103 1.491 . S
H99 C100 0.950 . S
C100 C97 1.390 . S
C100 H99 0.950 . S
C100 C101 1.378 . S
C101 C100 1.378 . S
C101 C102 1.409 . S
C102 C98 1.387 . S
C102 C101 1.409 . S
C102 H104 0.951 . S
C103 C98 1.491 . S
C103 C105 1.382 . S
C103 C107 1.404 . S
H104 C102 0.951 . S
C105 C103 1.382 . S
C105 C106 1.390 . S
C105 H110 0.949 . S
C106 C105 1.390 . S
C106 C111 1.399 . S
C107 C103 1.404 . S
C107 H108 0.950 . S
C107 C109 1.375 . S
H108 C107 0.950 . S
C109 C107 1.375 . S
C109 C111 1.382 . S
C109 H113 0.950 . S
H110 C105 0.949 . S
C111 C106 1.399 . S
C111 C109 1.382 . S
C111 H112 0.952 . S
H112 C111 0.952 . S
H113 C109 0.950 . S
H114 C115 0.949 . S
C115 H114 0.949 . S
C115 C116 1.395 . S
C115 C117 1.391 . S
C116 C115 1.395 . S
C116 C119 1.390 . S
C117 C115 1.391 . S
C117 C121 1.387 . S
C117 C122 1.491 . S
H118 C119 0.950 . S
C119 C116 1.390 . S
C119 H118 0.950 . S
C119 C120 1.378 . S
C120 C119 1.378 . S
C120 C121 1.409 . S
C121 C117 1.387 . S
C121 C120 1.409 . S
C121 H123 0.951 . S
C122 C117 1.491 . S
C122 C124 1.382 . S
C122 C126 1.404 . S
H123 C121 0.951 . S
C124 C122 1.382 . S
C124 C125 1.390 1_655 S
C124 H129 0.949 1_655 S
C125 C124 1.390 1_455 S
C125 C130 1.399 1_455 S
C126 C122 1.404 . S
C126 H127 0.950 . S
C126 C128 1.375 . S
H127 C126 0.950 . S
C128 C126 1.375 . S
C128 C130 1.382 . S
C128 H132 0.950 . S
H129 C124 0.949 1_455 S
C130 C125 1.399 1_655 S
C130 C128 1.382 . S
C130 H131 0.952 . S
H131 C130 0.952 . S
H132 C128 0.950 . S
H133 C134 0.949 . S
C134 H133 0.949 . S
C134 C135 1.395 . S
C134 C136 1.391 . S
C135 C134 1.395 . S
C135 C138 1.390 . S
C136 C134 1.391 . S
C136 C140 1.387 . S
C136 C141 1.491 . S
H137 C138 0.950 . S
C138 C135 1.390 . S
C138 H137 0.950 . S
C138 C139 1.378 . S
C139 C138 1.378 . S
C139 C140 1.409 . S
C140 C136 1.387 . S
C140 C139 1.409 . S
C140 H142 0.951 . S
C141 C136 1.491 . S
C141 C143 1.382 . S
C141 C145 1.404 . S
H142 C140 0.951 . S
C143 C141 1.382 . S
C143 C144 1.390 . S
C143 H148 0.949 . S
C144 C143 1.390 . S
C144 C149 1.399 . S
C145 C141 1.404 . S
C145 H146 0.950 . S
C145 C147 1.375 . S
H146 C145 0.950 . S
C147 C145 1.375 . S
C147 C149 1.382 . S
C147 H151 0.950 . S
H148 C143 0.949 . S
C149 C144 1.399 . S
C149 C147 1.382 . S
C149 H150 0.952 . S
H150 C149 0.952 . S
H151 C147 0.950 . S
H152 C153 0.949 . S
C153 H152 0.949 . S
C153 C154 1.395 . S
C153 C155 1.391 . S
C154 C153 1.395 . S
C154 C157 1.390 . S
C155 C153 1.391 . S
C155 C159 1.387 . S
C155 C160 1.491 . S
H156 C157 0.950 . S
C157 C154 1.390 . S
C157 H156 0.950 . S
C157 C158 1.378 . S
C158 C157 1.378 . S
C158 C159 1.409 . S
C159 C155 1.387 . S
C159 C158 1.409 . S
C159 H161 0.951 . S
C160 C155 1.491 . S
C160 C162 1.382 . S
C160 C164 1.404 . S
H161 C159 0.951 . S
C162 C160 1.382 . S
C162 C163 1.390 . S
C162 H167 0.949 . S
C163 C162 1.390 . S
C163 C168 1.399 . S
C164 C160 1.404 . S
C164 H165 0.950 . S
C164 C166 1.375 . S
H165 C164 0.950 . S
C166 C164 1.375 . S
C166 C168 1.382 . S
C166 H170 0.950 . S
H167 C162 0.949 . S
C168 C163 1.399 . S
C168 C166 1.382 . S
C168 H169 0.952 . S
H169 C168 0.952 . S
H170 C166 0.950 . S
H171 C172 0.949 . S
C172 H171 0.949 . S
C172 C173 1.395 . S
C172 C174 1.391 . S
C173 C172 1.395 . S
C173 C176 1.390 . S
C174 C172 1.391 . S
C174 C178 1.387 . S
C174 C179 1.491 . S
H175 C176 0.950 1_545 S
C176 C173 1.390 . S
C176 H175 0.950 1_565 S
C176 C177 1.378 . S
C177 C176 1.378 . S
C177 C178 1.409 . S
C178 C174 1.387 . S
C178 C177 1.409 . S
C178 H180 0.951 . S
C179 C174 1.491 . S
C179 C181 1.382 . S
C179 C183 1.404 . S
H180 C178 0.951 . S
C181 C179 1.382 . S
C181 C182 1.390 . S
C181 H186 0.949 . S
C182 C181 1.390 . S
C182 C187 1.399 . S
C183 C179 1.404 . S
C183 H184 0.950 . S
C183 C185 1.375 . S
H184 C183 0.950 . S
C185 C183 1.375 . S
C185 C187 1.382 . S
C185 H189 0.950 . S
H186 C181 0.949 . S
C187 C182 1.399 . S
C187 C185 1.382 . S
C187 H188 0.952 . S
H188 C187 0.952 . S
H189 C185 0.950 . S
H190 C191 0.949 . S
C191 H190 0.949 . S
C191 C192 1.395 . S
C191 C193 1.391 . S
C192 C191 1.395 . S
C192 C195 1.390 . S
C193 C191 1.391 . S
C193 C197 1.387 . S
C193 C198 1.491 . S
H194 C195 0.950 . S
C195 C192 1.390 . S
C195 H194 0.950 . S
C195 C196 1.378 . S
C196 C195 1.378 . S
C196 C197 1.409 . S
C197 C193 1.387 . S
C197 C196 1.409 . S
C197 H199 0.951 . S
C198 C193 1.491 . S
C198 C200 1.382 . S
C198 C202 1.404 . S
H199 C197 0.951 . S
C200 C198 1.382 . S
C200 C201 1.390 . S
C200 H205 0.949 . S
C201 C200 1.390 . S
C201 C206 1.399 . S
C202 C198 1.404 . S
C202 H203 0.950 . S
C202 C204 1.375 . S
H203 C202 0.950 . S
C204 C202 1.375 . S
C204 C206 1.382 . S
C204 H208 0.950 . S
H205 C200 0.949 . S
C206 C201 1.399 . S
C206 C204 1.382 . S
C206 H207 0.952 . S
H207 C206 0.952 . S
H208 C204 0.950 . S
H209 C210 0.949 . S
C210 H209 0.949 . S
C210 C211 1.395 . S
C210 C212 1.391 . S
C211 C210 1.395 . S
C211 C214 1.390 . S
C212 C210 1.391 . S
C212 C216 1.387 . S
C212 C217 1.491 . S
H213 C214 0.950 . S
C214 C211 1.390 . S
C214 H213 0.950 . S
C214 C215 1.378 . S
C215 C214 1.378 . S
C215 C216 1.409 . S
C216 C212 1.387 . S
C216 C215 1.409 . S
C216 H218 0.951 . S
C217 C212 1.491 . S
C217 C219 1.382 . S
C217 C221 1.404 . S
H218 C216 0.951 . S
C219 C217 1.382 . S
C219 C220 1.390 . S
C219 H224 0.949 . S
C220 C219 1.390 . S
C220 C225 1.399 . S
C221 C217 1.404 . S
C221 H222 0.950 . S
C221 C223 1.375 . S
H222 C221 0.950 . S
C223 C221 1.375 . S
C223 C225 1.382 . S
C223 H227 0.950 . S
H224 C219 0.949 . S
C225 C220 1.399 . S
C225 C223 1.382 . S
C225 H226 0.952 . S
H226 C225 0.952 . S
H227 C223 0.950 . S
H228 C229 0.949 . S
C229 H228 0.949 . S
C229 C230 1.395 . S
C229 C231 1.391 . S
C230 C229 1.395 . S
C230 C233 1.390 . S
C231 C229 1.391 . S
C231 C235 1.387 . S
C231 C236 1.491 . S
H232 C233 0.950 . S
C233 C230 1.390 . S
C233 H232 0.950 . S
C233 C234 1.378 . S
C234 C233 1.378 . S
C234 C235 1.409 . S
C235 C231 1.387 . S
C235 C234 1.409 . S
C235 H237 0.951 . S
C236 C231 1.491 . S
C236 C238 1.382 . S
C236 C240 1.404 . S
H237 C235 0.951 . S
C238 C236 1.382 . S
C238 C239 1.390 . S
C238 H243 0.949 . S
C239 C238 1.390 . S
C239 C244 1.399 . S
C240 C236 1.404 . S
C240 H241 0.950 . S
C240 C242 1.375 . S
H241 C240 0.950 . S
C242 C240 1.375 . S
C242 C244 1.382 . S
C242 H246 0.950 . S
H243 C238 0.949 . S
C244 C239 1.399 . S
C244 C242 1.382 . S
C244 H245 0.952 . S
H245 C244 0.952 . S
H246 C242 0.950 . S
H247 C248 0.949 1_554 S
C248 H247 0.949 1_556 S
C248 C249 1.395 . S
C248 C250 1.391 . S
C249 C248 1.395 . S
C249 C252 1.390 . S
C250 C248 1.391 . S
C250 C254 1.387 . S
C250 C255 1.491 . S
H251 C252 0.950 . S
C252 C249 1.390 . S
C252 H251 0.950 . S
C252 C253 1.378 . S
C253 C252 1.378 . S
C253 C254 1.409 . S
C254 C250 1.387 . S
C254 C253 1.409 . S
C254 H256 0.951 . S
C255 C250 1.491 . S
C255 C257 1.382 1_556 S
C255 C259 1.404 . S
H256 C254 0.951 . S
C257 C255 1.382 1_554 S
C257 C258 1.390 . S
C257 H262 0.949 . S
C258 C257 1.390 . S
C258 C263 1.399 . S
C259 C255 1.404 . S
C259 H260 0.950 . S
C259 C261 1.375 . S
H260 C259 0.950 . S
C261 C259 1.375 . S
C261 C263 1.382 1_556 S
C261 H265 0.950 . S
H262 C257 0.949 . S
C263 C258 1.399 . S
C263 C261 1.382 1_554 S
C263 H264 0.952 . S
H264 C263 0.952 . S
H265 C261 0.950 . S
H266 C267 0.949 . S
C267 H266 0.949 . S
C267 C268 1.395 . S
C267 C269 1.391 . S
C268 C267 1.395 . S
C268 C271 1.390 . S
C269 C267 1.391 . S
C269 C273 1.387 . S
C269 C274 1.491 . S
H270 C271 0.950 . S
C271 C268 1.390 . S
C271 H270 0.950 . S
C271 C272 1.378 . S
C272 C271 1.378 . S
C272 C273 1.409 . S
C273 C269 1.387 . S
C273 C272 1.409 . S
C273 H275 0.951 . S
C274 C269 1.491 . S
C274 C276 1.382 . S
C274 C278 1.404 . S
H275 C273 0.951 . S
C276 C274 1.382 . S
C276 C277 1.390 . S
C276 H281 0.949 . S
C277 C276 1.390 . S
C277 C282 1.399 . S
C278 C274 1.404 . S
C278 H279 0.950 . S
C278 C280 1.375 . S
H279 C278 0.950 . S
C280 C278 1.375 . S
C280 C282 1.382 . S
C280 H284 0.950 . S
H281 C276 0.949 . S
C282 C277 1.399 . S
C282 C280 1.382 . S
C282 H283 0.952 . S
H283 C282 0.952 . S
H284 C280 0.950 . S
H285 C286 0.949 . S
C286 H285 0.949 . S
C286 C287 1.395 . S
C286 C288 1.391 . S
C287 C286 1.395 . S
C287 C290 1.390 . S
C288 C286 1.391 . S
C288 C292 1.387 . S
C288 C293 1.491 . S
H289 C290 0.950 . S
C290 C287 1.390 . S
C290 H289 0.950 . S
C290 C291 1.378 . S
C291 C290 1.378 . S
C291 C292 1.409 . S
C292 C288 1.387 . S
C292 C291 1.409 . S
C292 H294 0.951 . S
C293 C288 1.491 . S
C293 C295 1.382 . S
C293 C297 1.404 . S
H294 C292 0.951 . S
C295 C293 1.382 . S
C295 C296 1.390 . S
C295 H300 0.949 . S
C296 C295 1.390 . S
C296 C301 1.399 . S
C297 C293 1.404 . S
C297 H298 0.950 . S
C297 C299 1.375 . S
H298 C297 0.950 . S
C299 C297 1.375 . S
C299 C301 1.382 . S
C299 H303 0.950 . S
H300 C295 0.949 . S
C301 C296 1.399 . S
C301 C299 1.382 . S
C301 H302 0.952 . S
H302 C301 0.952 . S
H303 C299 0.950 . S
Li304 N321 1.990 . S
Li304 O364 1.956 . S
Li304 O365 1.970 . S
Li304 O366 1.961 . S
Li305 N329 1.990 . S
Li305 O364 1.970 . S
Li305 O365 1.956 . S
Li305 O367 1.961 . S
Li306 N351 1.990 1_554 S
Li306 O364 1.961 . S
Li306 O366 1.956 . S
Li306 O367 1.970 . S
Li307 N357 1.990 . S
Li307 O365 1.961 . S
Li307 O366 1.970 . S
Li307 O367 1.956 . S
C308 C310 1.348 . S
C308 C311 1.356 . S
C308 O364 1.325 . S
N309 C312 1.314 . S
N309 C313 1.279 . S
C310 C308 1.348 . S
C310 C312 1.353 . S
C310 H368 0.929 . S
C311 C308 1.356 . S
C311 C313 1.358 . S
C311 H369 0.930 . S
C312 N309 1.314 . S
C312 C310 1.353 . S
C312 H370 0.930 . S
C313 N309 1.279 . S
C313 C311 1.358 . S
C313 H371 0.930 1_554 S
C314 C317 1.348 . S
C314 C318 1.356 . S
C314 O365 1.325 . S
C315 N316 1.279 . S
C315 C318 1.358 . S
C315 H372 0.930 . S
N316 C315 1.279 . S
N316 C319 1.314 . S
C317 C314 1.348 . S
C317 C319 1.353 . S
C317 H373 0.929 . S
C318 C314 1.356 . S
C318 C315 1.358 . S
C318 H374 0.930 . S
C319 N316 1.314 . S
C319 C317 1.353 . S
C319 H375 0.930 . S
C320 N321 1.314 . S
C320 C325 1.353 . S
C320 H326 0.930 . S
N321 Li304 1.990 . S
N321 C320 1.314 . S
N321 C323 1.279 . S
C322 C323 1.358 . S
C322 C324 1.356 . S
C322 H376 0.930 . S
C323 N321 1.279 . S
C323 C322 1.358 . S
C323 H327 0.930 . S
C324 C322 1.356 . S
C324 C325 1.348 . S
C325 C320 1.353 . S
C325 C324 1.348 . S
C325 H377 0.929 . S
H326 C320 0.930 . S
H327 C323 0.930 . S
C328 N329 1.314 . S
C328 C330 1.353 . S
C328 H334 0.930 . S
N329 Li305 1.990 . S
N329 C328 1.314 . S
N329 C332 1.279 . S
C330 C328 1.353 . S
C330 C333 1.348 . S
C330 H378 0.929 . S
C331 C332 1.358 . S
C331 C333 1.356 . S
C331 H379 0.930 . S
C332 N329 1.279 . S
C332 C331 1.358 . S
C332 H335 0.930 . S
C333 C330 1.348 . S
C333 C331 1.356 . S
H334 C328 0.930 . S
H335 C332 0.930 . S
C336 C338 1.348 . S
C336 C339 1.356 . S
C336 O366 1.325 1_556 S
N337 C340 1.314 . S
N337 C341 1.279 . S
C338 C336 1.348 . S
C338 C340 1.353 . S
C338 H380 0.929 1_556 S
C339 C336 1.356 . S
C339 C341 1.358 . S
C339 H381 0.930 . S
C340 N337 1.314 . S
C340 C338 1.353 . S
C340 H382 0.930 . S
C341 N337 1.279 . S
C341 C339 1.358 . S
C341 H383 0.930 . S
C342 C343 1.348 . S
C342 C344 1.356 . S
C342 O367 1.325 . S
C343 C342 1.348 . S
C343 C345 1.353 . S
C343 H384 0.929 . S
C344 C342 1.356 . S
C344 C346 1.358 . S
C344 H385 0.930 . S
C345 C343 1.353 . S
C345 N347 1.314 . S
C345 H386 0.930 . S
C346 C344 1.358 . S
C346 N347 1.279 . S
C346 H387 0.930 . S
N347 C345 1.314 . S
N347 C346 1.279 . S
C348 C350 1.353 . S
C348 N351 1.314 . S
C348 H354 0.930 1_556 S
C349 N351 1.279 . S
C349 C352 1.358 . S
C349 H355 0.930 . S
C350 C348 1.353 . S
C350 C353 1.348 . S
C350 H388 0.929 . S
N351 Li306 1.990 1_556 S
N351 C348 1.314 . S
N351 C349 1.279 . S
C352 C349 1.358 . S
C352 C353 1.356 . S
C352 H389 0.930 . S
C353 C350 1.348 . S
C353 C352 1.356 . S
H354 C348 0.930 1_554 S
H355 C349 0.930 . S
C356 N357 1.314 . S
C356 C358 1.353 . S
C356 H362 0.930 . S
N357 Li307 1.990 . S
N357 C356 1.314 . S
N357 C360 1.279 . S
C358 C356 1.353 . S
C358 C361 1.348 . S
C358 H390 0.929 . S
C359 C360 1.358 . S
C359 C361 1.356 . S
C359 H391 0.930 . S
C360 N357 1.279 . S
C360 C359 1.358 . S
C360 H363 0.930 . S
C361 C358 1.348 . S
C361 C359 1.356 . S
H362 C356 0.930 . S
H363 C360 0.930 . S
O364 Li304 1.956 . S
O364 Li305 1.970 . S
O364 Li306 1.961 . S
O364 C308 1.325 . S
O365 Li304 1.970 . S
O365 Li305 1.956 . S
O365 Li307 1.961 . S
O365 C314 1.325 . S
O366 Li304 1.961 . S
O366 Li306 1.956 . S
O366 Li307 1.970 . S
O366 C336 1.325 1_554 S
O367 Li305 1.961 . S
O367 Li306 1.970 . S
O367 Li307 1.956 . S
O367 C342 1.325 . S
H368 C310 0.929 . S
H369 C311 0.930 . S
H370 C312 0.930 . S
H371 C313 0.930 1_556 S
H372 C315 0.930 . S
H373 C317 0.929 . S
H374 C318 0.930 . S
H375 C319 0.930 . S
H376 C322 0.930 . S
H377 C325 0.929 . S
H378 C330 0.929 . S
H379 C331 0.930 . S
H380 C338 0.929 1_554 S
H381 C339 0.930 . S
H382 C340 0.930 . S
H383 C341 0.930 . S
H384 C343 0.929 . S
H385 C344 0.930 . S
H386 C345 0.930 . S
H387 C346 0.930 . S
H388 C350 0.929 . S
H389 C352 0.930 . S
H390 C358 0.929 . S
H391 C359 0.930 . S
Li392 N409 1.990 . S
Li392 O452 1.956 . S
Li392 O453 1.970 . S
Li392 O454 1.961 . S
Li393 N417 1.990 . S
Li393 O452 1.970 . S
Li393 O453 1.956 . S
Li393 O455 1.961 . S
Li394 N439 1.990 . S
Li394 O452 1.961 . S
Li394 O454 1.956 . S
Li394 O455 1.970 . S
Li395 N445 1.990 . S
Li395 O453 1.961 . S
Li395 O454 1.970 . S
Li395 O455 1.956 . S
C396 C398 1.348 . S
C396 C399 1.356 . S
C396 O452 1.325 . S
N397 C400 1.314 . S
N397 C401 1.279 . S
C398 C396 1.348 . S
C398 C400 1.353 . S
C398 H456 0.929 . S
C399 C396 1.356 . S
C399 C401 1.358 . S
C399 H457 0.930 . S
C400 N397 1.314 . S
C400 C398 1.353 . S
C400 H458 0.930 . S
C401 N397 1.279 . S
C401 C399 1.358 . S
C401 H459 0.930 . S
C402 C405 1.348 . S
C402 C406 1.356 . S
C402 O453 1.325 . S
C403 N404 1.279 . S
C403 C406 1.358 . S
C403 H460 0.930 . S
N404 C403 1.279 . S
N404 C407 1.314 . S
C405 C402 1.348 . S
C405 C407 1.353 . S
C405 H461 0.929 . S
C406 C402 1.356 . S
C406 C403 1.358 . S
C406 H462 0.930 . S
C407 N404 1.314 . S
C407 C405 1.353 . S
C407 H463 0.930 . S
C408 N409 1.314 . S
C408 C413 1.353 . S
C408 H414 0.930 . S
N409 Li392 1.990 . S
N409 C408 1.314 . S
N409 C411 1.279 . S
C410 C411 1.358 . S
C410 C412 1.356 . S
C410 H464 0.930 . S
C411 N409 1.279 . S
C411 C410 1.358 . S
C411 H415 0.930 . S
C412 C410 1.356 . S
C412 C413 1.348 . S
C413 C408 1.353 . S
C413 C412 1.348 . S
C413 H465 0.929 . S
H414 C408 0.930 . S
H415 C411 0.930 . S
C416 N417 1.314 . S
C416 C418 1.353 . S
C416 H422 0.930 . S
N417 Li393 1.990 . S
N417 C416 1.314 . S
N417 C420 1.279 . S
C418 C416 1.353 . S
C418 C421 1.348 . S
C418 H466 0.929 . S
C419 C420 1.358 . S
C419 C421 1.356 . S
C419 H467 0.930 . S
C420 N417 1.279 . S
C420 C419 1.358 . S
C420 H423 0.930 . S
C421 C418 1.348 . S
C421 C419 1.356 . S
H422 C416 0.930 . S
H423 C420 0.930 . S
C424 C426 1.348 . S
C424 C427 1.356 . S
C424 O454 1.325 . S
N425 C428 1.314 . S
N425 C429 1.279 . S
C426 C424 1.348 . S
C426 C428 1.353 . S
C426 H468 0.929 . S
C427 C424 1.356 . S
C427 C429 1.358 . S
C427 H469 0.930 . S
C428 N425 1.314 . S
C428 C426 1.353 . S
C428 H470 0.930 . S
C429 N425 1.279 . S
C429 C427 1.358 . S
C429 H471 0.930 . S
C430 C431 1.348 . S
C430 C432 1.356 . S
C430 O455 1.325 . S
C431 C430 1.348 . S
C431 C433 1.353 . S
C431 H472 0.929 . S
C432 C430 1.356 . S
C432 C434 1.358 . S
C432 H473 0.930 . S
C433 C431 1.353 . S
C433 N435 1.314 . S
C433 H474 0.930 . S
C434 C432 1.358 . S
C434 N435 1.279 . S
C434 H475 0.930 . S
N435 C433 1.314 . S
N435 C434 1.279 . S
C436 C438 1.353 . S
C436 N439 1.314 . S
C436 H442 0.930 . S
C437 N439 1.279 . S
C437 C440 1.358 . S
C437 H443 0.930 . S
C438 C436 1.353 . S
C438 C441 1.348 . S
C438 H476 0.929 . S
N439 Li394 1.990 . S
N439 C436 1.314 . S
N439 C437 1.279 . S
C440 C437 1.358 . S
C440 C441 1.356 . S
C440 H477 0.930 . S
C441 C438 1.348 . S
C441 C440 1.356 . S
H442 C436 0.930 . S
H443 C437 0.930 . S
C444 N445 1.314 . S
C444 C446 1.353 . S
C444 H450 0.930 . S
N445 Li395 1.990 . S
N445 C444 1.314 . S
N445 C448 1.279 . S
C446 C444 1.353 . S
C446 C449 1.348 . S
C446 H478 0.929 . S
C447 C448 1.358 . S
C447 C449 1.356 . S
C447 H479 0.930 . S
C448 N445 1.279 . S
C448 C447 1.358 . S
C448 H451 0.930 . S
C449 C446 1.348 . S
C449 C447 1.356 . S
H450 C444 0.930 . S
H451 C448 0.930 . S
O452 Li392 1.956 . S
O452 Li393 1.970 . S
O452 Li394 1.961 . S
O452 C396 1.325 . S
O453 Li392 1.970 . S
O453 Li393 1.956 . S
O453 Li395 1.961 . S
O453 C402 1.325 . S
O454 Li392 1.961 . S
O454 Li394 1.956 . S
O454 Li395 1.970 . S
O454 C424 1.325 . S
O455 Li393 1.961 . S
O455 Li394 1.970 . S
O455 Li395 1.956 . S
O455 C430 1.325 . S
H456 C398 0.929 . S
H457 C399 0.930 . S
H458 C400 0.930 . S
H459 C401 0.930 . S
H460 C403 0.930 . S
H461 C405 0.929 . S
H462 C406 0.930 . S
H463 C407 0.930 . S
H464 C410 0.930 . S
H465 C413 0.929 . S
H466 C418 0.929 . S
H467 C419 0.930 . S
H468 C426 0.929 . S
H469 C427 0.930 . S
H470 C428 0.930 . S
H471 C429 0.930 . S
H472 C431 0.929 . S
H473 C432 0.930 . S
H474 C433 0.930 . S
H475 C434 0.930 . S
H476 C438 0.929 . S
H477 C440 0.930 . S
H478 C446 0.929 . S
H479 C447 0.930 . S
Li480 N497 1.990 . S
Li480 O540 1.956 1_556 S
Li480 O541 1.970 1_556 S
Li480 O542 1.961 . S
Li481 N505 1.990 . S
Li481 O540 1.970 . S
Li481 O541 1.956 . S
Li481 O543 1.961 . S
Li482 N527 1.990 . S
Li482 O540 1.961 1_556 S
Li482 O542 1.956 . S
Li482 O543 1.970 1_556 S
Li483 N533 1.990 . S
Li483 O541 1.961 . S
Li483 O542 1.970 1_554 S
Li483 O543 1.956 . S
C484 C486 1.385 . S
C484 C487 1.317 1_554 S
C484 O540 1.329 . S
N485 C488 1.286 1_556 S
N485 C489 1.305 . S
C486 C484 1.385 . S
C486 C488 1.353 . S
C486 H544 0.929 . S
C487 C484 1.317 1_556 S
C487 C489 1.358 . S
C487 H545 0.930 . S
C488 N485 1.286 1_554 S
C488 C486 1.353 . S
C488 H546 0.930 . S
C489 N485 1.305 . S
C489 C487 1.358 . S
C489 H547 0.930 . S
C490 C493 1.348 . S
C490 C494 1.356 . S
C490 O541 1.325 . S
C491 N492 1.279 . S
C491 C494 1.358 . S
C491 H548 0.930 . S
N492 C491 1.279 . S
N492 C495 1.314 . S
C493 C490 1.348 . S
C493 C495 1.353 . S
C493 H549 0.929 . S
C494 C490 1.356 . S
C494 C491 1.358 . S
C494 H550 0.930 . S
C495 N492 1.314 . S
C495 C493 1.353 . S
C495 H551 0.930 . S
C496 N497 1.314 . S
C496 C501 1.353 . S
C496 H502 0.930 . S
N497 Li480 1.990 . S
N497 C496 1.314 . S
N497 C499 1.279 . S
C498 C499 1.358 . S
C498 C500 1.356 . S
C498 H552 0.930 . S
C499 N497 1.279 . S
C499 C498 1.358 . S
C499 H503 0.930 1_556 S
C500 C498 1.356 . S
C500 C501 1.348 . S
C501 C496 1.353 . S
C501 C500 1.348 . S
C501 H553 0.929 . S
H502 C496 0.930 . S
H503 C499 0.930 1_554 S
C504 N505 1.314 . S
C504 C506 1.353 . S
C504 H510 0.930 . S
N505 Li481 1.990 . S
N505 C504 1.314 . S
N505 C508 1.279 . S
C506 C504 1.353 . S
C506 C509 1.348 . S
C506 H554 0.929 . S
C507 C508 1.358 . S
C507 C509 1.356 . S
C507 H555 0.930 . S
C508 N505 1.279 . S
C508 C507 1.358 . S
C508 H511 0.930 . S
C509 C506 1.348 . S
C509 C507 1.356 . S
H510 C504 0.930 . S
H511 C508 0.930 . S
C512 C514 1.348 . S
C512 C515 1.356 . S
C512 O542 1.325 . S
N513 C516 1.314 . S
N513 C517 1.279 . S
C514 C512 1.348 . S
C514 C516 1.353 . S
C514 H556 0.929 . S
C515 C512 1.356 . S
C515 C517 1.358 . S
C515 H557 0.930 . S
C516 N513 1.314 . S
C516 C514 1.353 . S
C516 H558 0.930 . S
C517 N513 1.279 . S
C517 C515 1.358 . S
C517 H559 0.930 . S
C518 C519 1.348 1_554 S
C518 C520 1.356 . S
C518 O543 1.325 . S
C519 C518 1.348 1_556 S
C519 C521 1.353 . S
C519 H560 0.929 . S
C520 C518 1.356 . S
C520 C522 1.358 . S
C520 H561 0.930 . S
C521 C519 1.353 . S
C521 N523 1.314 1_556 S
C521 H562 0.930 . S
C522 C520 1.358 . S
C522 N523 1.279 . S
C522 H563 0.930 . S
N523 C521 1.314 1_554 S
N523 C522 1.279 . S
C524 C526 1.353 . S
C524 N527 1.314 . S
C524 H530 0.930 . S
C525 N527 1.279 . S
C525 C528 1.358 . S
C525 H531 0.930 . S
C526 C524 1.353 . S
C526 C529 1.348 . S
C526 H564 0.929 . S
N527 Li482 1.990 . S
N527 C524 1.314 . S
N527 C525 1.279 . S
C528 C525 1.358 . S
C528 C529 1.356 . S
C528 H565 0.930 . S
C529 C526 1.348 . S
C529 C528 1.356 . S
H530 C524 0.930 . S
H531 C525 0.930 . S
C532 N533 1.314 . S
C532 C534 1.353 . S
C532 H538 0.930 . S
N533 Li483 1.990 . S
N533 C532 1.314 . S
N533 C536 1.289 . S
C534 C532 1.353 . S
C534 C537 1.348 . S
C534 H566 0.929 . S
C535 C536 1.359 . S
C535 C537 1.359 . S
C535 H567 0.918 1_554 S
C536 N533 1.289 . S
C536 C535 1.359 . S
C536 H539 0.920 1_554 S
C537 C534 1.348 . S
C537 C535 1.359 . S
H538 C532 0.930 . S
H539 C536 0.920 1_556 S
O540 Li480 1.956 1_554 S
O540 Li481 1.970 . S
O540 Li482 1.961 1_554 S
O540 C484 1.329 . S
O541 Li480 1.970 1_554 S
O541 Li481 1.956 . S
O541 Li483 1.961 . S
O541 C490 1.325 . S
O542 Li480 1.961 . S
O542 Li482 1.956 . S
O542 Li483 1.970 1_556 S
O542 C512 1.325 . S
O543 Li481 1.961 . S
O543 Li482 1.970 1_554 S
O543 Li483 1.956 . S
O543 C518 1.325 . S
H544 C486 0.929 . S
H545 C487 0.930 . S
H546 C488 0.930 . S
H547 C489 0.930 . S
H548 C491 0.930 . S
H549 C493 0.929 . S
H550 C494 0.930 . S
H551 C495 0.930 . S
H552 C498 0.930 . S
H553 C501 0.929 . S
H554 C506 0.929 . S
H555 C507 0.930 . S
H556 C514 0.929 . S
H557 C515 0.930 . S
H558 C516 0.930 . S
H559 C517 0.930 . S
H560 C519 0.929 . S
H561 C520 0.930 . S
H562 C521 0.930 . S
H563 C522 0.930 . S
H564 C526 0.929 . S
H565 C528 0.930 . S
H566 C534 0.929 . S
H567 C535 0.918 1_556 S
Li568 N585 1.990 . S
Li568 O628 1.956 . S
Li568 O629 1.970 . S
Li568 O630 1.961 . S
Li569 N593 1.990 . S
Li569 O628 1.970 . S
Li569 O629 1.956 . S
Li569 O631 1.961 1_545 S
Li570 N615 1.990 . S
Li570 O628 1.961 . S
Li570 O630 1.956 . S
Li570 O631 1.970 1_545 S
Li571 N621 1.990 . S
Li571 O629 1.961 1_565 S
Li571 O630 1.970 1_565 S
Li571 O631 1.956 . S
C572 C574 1.348 . S
C572 C575 1.356 . S
C572 O628 1.325 . S
N573 C576 1.314 . S
N573 C577 1.279 . S
C574 C572 1.348 . S
C574 C576 1.353 . S
C574 H632 0.929 . S
C575 C572 1.356 . S
C575 C577 1.358 . S
C575 H633 0.930 . S
C576 N573 1.314 . S
C576 C574 1.353 . S
C576 H634 0.930 . S
C577 N573 1.279 . S
C577 C575 1.358 . S
C577 H635 0.930 . S
C578 C581 1.348 . S
C578 C582 1.356 1_545 S
C578 O629 1.325 . S
C579 N580 1.279 1_565 S
C579 C582 1.358 . S
C579 H636 0.930 . S
N580 C579 1.279 1_545 S
N580 C583 1.314 . S
C581 C578 1.348 . S
C581 C583 1.353 . S
C581 H637 0.929 . S
C582 C578 1.356 1_565 S
C582 C579 1.358 . S
C582 H638 0.930 . S
C583 N580 1.314 . S
C583 C581 1.353 . S
C583 H639 0.930 . S
C584 N585 1.314 . S
C584 C589 1.353 . S
C584 H590 0.930 . S
N585 Li568 1.990 . S
N585 C584 1.314 . S
N585 C587 1.279 . S
C586 C587 1.358 . S
C586 C588 1.356 . S
C586 H640 0.930 . S
C587 N585 1.279 . S
C587 C586 1.358 . S
C587 H591 0.930 . S
C588 C586 1.356 . S
C588 C589 1.348 . S
C589 C584 1.353 . S
C589 C588 1.348 . S
C589 H641 0.929 . S
H590 C584 0.930 . S
H591 C587 0.930 . S
C592 N593 1.314 . S
C592 C594 1.353 1_655 S
C592 H598 0.930 . S
N593 Li569 1.990 . S
N593 C592 1.314 . S
N593 C596 1.279 . S
C594 C592 1.353 1_455 S
C594 C597 1.348 1_455 S
C594 H642 0.929 . S
C595 C596 1.358 . S
C595 C597 1.356 . S
C595 H643 0.930 . S
C596 N593 1.279 . S
C596 C595 1.358 . S
C596 H599 0.930 . S
C597 C594 1.348 1_655 S
C597 C595 1.356 . S
H598 C592 0.930 . S
H599 C596 0.930 . S
C600 C602 1.350 1_545 S
C600 C603 1.356 . S
C600 O630 1.325 . S
N601 C604 1.314 . S
N601 C605 1.279 . S
C602 C600 1.350 1_565 S
C602 C604 1.354 1_565 S
C602 H644 0.926 . S
C603 C600 1.356 . S
C603 C605 1.358 . S
C603 H645 0.930 . S
C604 N601 1.314 . S
C604 C602 1.354 1_545 S
C604 H646 0.930 1_545 S
C605 N601 1.279 . S
C605 C603 1.358 . S
C605 H647 0.930 . S
C606 C607 1.348 . S
C606 C608 1.356 . S
C606 O631 1.325 . S
C607 C606 1.348 . S
C607 C609 1.353 . S
C607 H648 0.929 . S
C608 C606 1.356 . S
C608 C610 1.358 . S
C608 H649 0.930 . S
C609 C607 1.353 . S
C609 N611 1.314 . S
C609 H650 0.930 . S
C610 C608 1.358 . S
C610 N611 1.279 . S
C610 H651 0.930 . S
N611 C609 1.314 . S
N611 C610 1.279 . S
C612 C614 1.353 . S
C612 N615 1.314 . S
C612 H618 0.930 . S
C613 N615 1.279 . S
C613 C616 1.358 . S
C613 H619 0.930 . S
C614 C612 1.353 . S
C614 C617 1.348 . S
C614 H652 0.929 1_655 S
N615 Li570 1.990 . S
N615 C612 1.314 . S
N615 C613 1.279 . S
C616 C613 1.358 . S
C616 C617 1.356 . S
C616 H653 0.930 . S
C617 C614 1.348 . S
C617 C616 1.356 . S
H618 C612 0.930 . S
H619 C613 0.930 . S
C620 N621 1.314 . S
C620 C622 1.353 . S
C620 H626 0.930 . S
N621 Li571 1.990 . S
N621 C620 1.314 . S
N621 C624 1.279 . S
C622 C620 1.353 . S
C622 C625 1.348 . S
C622 H654 0.929 . S
C623 C624 1.358 . S
C623 C625 1.356 . S
C623 H655 0.930 . S
C624 N621 1.279 . S
C624 C623 1.358 . S
C624 H627 0.930 . S
C625 C622 1.348 . S
C625 C623 1.356 . S
H626 C620 0.930 . S
H627 C624 0.930 . S
O628 Li568 1.956 . S
O628 Li569 1.970 . S
O628 Li570 1.961 . S
O628 C572 1.325 . S
O629 Li568 1.970 . S
O629 Li569 1.956 . S
O629 Li571 1.961 1_545 S
O629 C578 1.325 . S
O630 Li568 1.961 . S
O630 Li570 1.956 . S
O630 Li571 1.970 1_545 S
O630 C600 1.325 . S
O631 Li569 1.961 1_565 S
O631 Li570 1.970 1_565 S
O631 Li571 1.956 . S
O631 C606 1.325 . S
H632 C574 0.929 . S
H633 C575 0.930 . S
H634 C576 0.930 . S
H635 C577 0.930 . S
H636 C579 0.930 . S
H637 C581 0.929 . S
H638 C582 0.930 . S
H639 C583 0.930 . S
H640 C586 0.930 . S
H641 C589 0.929 . S
H642 C594 0.929 . S
H643 C595 0.930 . S
H644 C602 0.926 . S
H645 C603 0.930 . S
H646 C604 0.930 1_565 S
H647 C605 0.930 . S
H648 C607 0.929 . S
H649 C608 0.930 . S
H650 C609 0.930 . S
H651 C610 0.930 . S
H652 C614 0.929 1_455 S
H653 C616 0.930 . S
H654 C622 0.929 . S
H655 C623 0.930 . S
Li656 N673 1.990 . S
Li656 O716 1.956 . S
Li656 O717 1.970 . S
Li656 O718 1.961 . S
Li657 N681 1.990 . S
Li657 O716 1.970 . S
Li657 O717 1.956 . S
Li657 O719 1.961 . S
Li658 N703 1.990 . S
Li658 O716 1.961 . S
Li658 O718 1.956 . S
Li658 O719 1.970 . S
Li659 N709 1.990 . S
Li659 O717 1.961 . S
Li659 O718 1.970 . S
Li659 O719 1.956 . S
C660 C662 1.348 . S
C660 C663 1.356 . S
C660 O716 1.325 . S
N661 C664 1.314 . S
N661 C665 1.279 . S
C662 C660 1.348 . S
C662 C664 1.353 . S
C662 H720 0.929 . S
C663 C660 1.356 . S
C663 C665 1.358 . S
C663 H721 0.930 . S
C664 N661 1.314 . S
C664 C662 1.353 . S
C664 H722 0.930 . S
C665 N661 1.279 . S
C665 C663 1.358 . S
C665 H723 0.930 . S
C666 C669 1.348 . S
C666 C670 1.356 . S
C666 O717 1.325 . S
C667 N668 1.279 . S
C667 C670 1.358 . S
C667 H724 0.930 . S
N668 C667 1.279 . S
N668 C671 1.314 . S
C669 C666 1.348 . S
C669 C671 1.353 . S
C669 H725 0.929 . S
C670 C666 1.356 . S
C670 C667 1.358 . S
C670 H726 0.930 . S
C671 N668 1.314 . S
C671 C669 1.353 . S
C671 H727 0.930 . S
C672 N673 1.314 . S
C672 C677 1.353 . S
C672 H678 0.930 . S
N673 Li656 1.990 . S
N673 C672 1.314 . S
N673 C675 1.279 . S
C674 C675 1.358 . S
C674 C676 1.356 . S
C674 H728 0.930 . S
C675 N673 1.279 . S
C675 C674 1.358 . S
C675 H679 0.930 . S
C676 C674 1.356 . S
C676 C677 1.348 . S
C677 C672 1.353 . S
C677 C676 1.348 . S
C677 H729 0.929 . S
H678 C672 0.930 . S
H679 C675 0.930 . S
C680 N681 1.314 . S
C680 C682 1.353 . S
C680 H686 0.930 . S
N681 Li657 1.990 . S
N681 C680 1.314 . S
N681 C684 1.279 . S
C682 C680 1.353 . S
C682 C685 1.348 . S
C682 H730 0.929 . S
C683 C684 1.358 . S
C683 C685 1.356 . S
C683 H731 0.930 . S
C684 N681 1.279 . S
C684 C683 1.358 . S
C684 H687 0.930 . S
C685 C682 1.348 . S
C685 C683 1.356 . S
H686 C680 0.930 . S
H687 C684 0.930 . S
C688 C690 1.348 . S
C688 C691 1.356 . S
C688 O718 1.325 . S
N689 C692 1.314 . S
N689 C693 1.279 . S
C690 C688 1.348 . S
C690 C692 1.353 . S
C690 H732 0.929 . S
C691 C688 1.356 . S
C691 C693 1.358 . S
C691 H733 0.930 . S
C692 N689 1.314 . S
C692 C690 1.353 . S
C692 H734 0.930 . S
C693 N689 1.279 . S
C693 C691 1.358 . S
C693 H735 0.930 . S
C694 C695 1.348 . S
C694 C696 1.356 . S
C694 O719 1.325 . S
C695 C694 1.348 . S
C695 C697 1.353 . S
C695 H736 0.929 . S
C696 C694 1.356 . S
C696 C698 1.358 . S
C696 H737 0.930 . S
C697 C695 1.353 . S
C697 N699 1.314 . S
C697 H738 0.930 . S
C698 C696 1.358 . S
C698 N699 1.279 . S
C698 H739 0.930 . S
N699 C697 1.314 . S
N699 C698 1.279 . S
C700 C702 1.353 . S
C700 N703 1.314 . S
C700 H706 0.930 . S
C701 N703 1.279 . S
C701 C704 1.358 . S
C701 H707 0.930 . S
C702 C700 1.353 . S
C702 C705 1.348 . S
C702 H740 0.929 . S
N703 Li658 1.990 . S
N703 C700 1.314 . S
N703 C701 1.279 . S
C704 C701 1.358 . S
C704 C705 1.356 . S
C704 H741 0.930 . S
C705 C702 1.348 . S
C705 C704 1.356 . S
H706 C700 0.930 . S
H707 C701 0.930 . S
C708 N709 1.314 . S
C708 C710 1.353 . S
C708 H714 0.930 . S
N709 Li659 1.990 . S
N709 C708 1.314 . S
N709 C712 1.279 . S
C710 C708 1.353 . S
C710 C713 1.348 . S
C710 H742 0.929 . S
C711 C712 1.358 . S
C711 C713 1.356 . S
C711 H743 0.930 . S
C712 N709 1.279 . S
C712 C711 1.358 . S
C712 H715 0.930 . S
C713 C710 1.348 . S
C713 C711 1.356 . S
H714 C708 0.930 . S
H715 C712 0.930 . S
O716 Li656 1.956 . S
O716 Li657 1.970 . S
O716 Li658 1.961 . S
O716 C660 1.325 . S
O717 Li656 1.970 . S
O717 Li657 1.956 . S
O717 Li659 1.961 . S
O717 C666 1.325 . S
O718 Li656 1.961 . S
O718 Li658 1.956 . S
O718 Li659 1.970 . S
O718 C688 1.325 . S
O719 Li657 1.961 . S
O719 Li658 1.970 . S
O719 Li659 1.956 . S
O719 C694 1.325 . S
H720 C662 0.929 . S
H721 C663 0.930 . S
H722 C664 0.930 . S
H723 C665 0.930 . S
H724 C667 0.930 . S
H725 C669 0.929 . S
H726 C670 0.930 . S
H727 C671 0.930 . S
H728 C674 0.930 . S
H729 C677 0.929 . S
H730 C682 0.929 . S
H731 C683 0.930 . S
H732 C690 0.929 . S
H733 C691 0.930 . S
H734 C692 0.930 . S
H735 C693 0.930 . S
H736 C695 0.929 . S
H737 C696 0.930 . S
H738 C697 0.930 . S
H739 C698 0.930 . S
H740 C702 0.929 . S
H741 C704 0.930 . S
H742 C710 0.929 . S
H743 C711 0.930 . S
Li744 N761 1.990 . S
Li744 O804 1.956 . S
Li744 O805 1.970 . S
Li744 O806 1.961 . S
Li745 N769 1.990 . S
Li745 O804 1.970 . S
Li745 O805 1.956 . S
Li745 O807 1.961 . S
Li746 N791 1.990 . S
Li746 O804 1.961 . S
Li746 O806 1.956 . S
Li746 O807 1.970 . S
Li747 N797 1.990 . S
Li747 O805 1.961 . S
Li747 O806 1.970 . S
Li747 O807 1.956 . S
C748 C750 1.348 . S
C748 C751 1.356 . S
C748 O804 1.325 . S
N749 C752 1.314 . S
N749 C753 1.279 . S
C750 C748 1.348 . S
C750 C752 1.353 . S
C750 H808 0.929 . S
C751 C748 1.356 . S
C751 C753 1.358 . S
C751 H809 0.930 . S
C752 N749 1.314 . S
C752 C750 1.353 . S
C752 H810 0.930 . S
C753 N749 1.279 . S
C753 C751 1.358 . S
C753 H811 0.930 . S
C754 C757 1.348 . S
C754 C758 1.356 . S
C754 O805 1.325 . S
C755 N756 1.279 . S
C755 C758 1.358 . S
C755 H812 0.930 . S
N756 C755 1.279 . S
N756 C759 1.314 . S
C757 C754 1.348 . S
C757 C759 1.353 . S
C757 H813 0.929 . S
C758 C754 1.356 . S
C758 C755 1.358 . S
C758 H814 0.930 . S
C759 N756 1.314 . S
C759 C757 1.353 . S
C759 H815 0.930 . S
C760 N761 1.314 . S
C760 C765 1.353 . S
C760 H766 0.930 . S
N761 Li744 1.990 . S
N761 C760 1.314 . S
N761 C763 1.279 . S
C762 C763 1.358 . S
C762 C764 1.356 . S
C762 H816 0.930 . S
C763 N761 1.279 . S
C763 C762 1.358 . S
C763 H767 0.930 . S
C764 C762 1.356 . S
C764 C765 1.348 . S
C765 C760 1.353 . S
C765 C764 1.348 . S
C765 H817 0.929 . S
H766 C760 0.930 . S
H767 C763 0.930 . S
C768 N769 1.314 . S
C768 C770 1.353 . S
C768 H774 0.930 . S
N769 Li745 1.990 . S
N769 C768 1.314 . S
N769 C772 1.279 . S
C770 C768 1.353 . S
C770 C773 1.348 . S
C770 H818 0.929 . S
C771 C772 1.358 . S
C771 C773 1.356 . S
C771 H819 0.930 . S
C772 N769 1.279 . S
C772 C771 1.358 . S
C772 H775 0.930 . S
C773 C770 1.348 . S
C773 C771 1.356 . S
H774 C768 0.930 . S
H775 C772 0.930 . S
C776 C778 1.348 . S
C776 C779 1.356 . S
C776 O806 1.325 . S
N777 C780 1.314 . S
N777 C781 1.279 . S
C778 C776 1.348 . S
C778 C780 1.353 . S
C778 H820 0.929 . S
C779 C776 1.356 . S
C779 C781 1.358 . S
C779 H821 0.930 . S
C780 N777 1.314 . S
C780 C778 1.353 . S
C780 H822 0.930 . S
C781 N777 1.279 . S
C781 C779 1.358 . S
C781 H823 0.930 . S
C782 C783 1.348 . S
C782 C784 1.356 . S
C782 O807 1.325 . S
C783 C782 1.348 . S
C783 C785 1.353 . S
C783 H824 0.929 . S
C784 C782 1.356 . S
C784 C786 1.358 . S
C784 H825 0.930 . S
C785 C783 1.353 . S
C785 N787 1.314 . S
C785 H826 0.930 . S
C786 C784 1.358 . S
C786 N787 1.279 . S
C786 H827 0.930 . S
N787 C785 1.314 . S
N787 C786 1.279 . S
C788 C790 1.353 . S
C788 N791 1.314 . S
C788 H794 0.930 . S
C789 N791 1.279 . S
C789 C792 1.358 . S
C789 H795 0.930 . S
C790 C788 1.353 . S
C790 C793 1.348 . S
C790 H828 0.929 . S
N791 Li746 1.990 . S
N791 C788 1.314 . S
N791 C789 1.279 . S
C792 C789 1.358 . S
C792 C793 1.356 . S
C792 H829 0.930 . S
C793 C790 1.348 . S
C793 C792 1.356 . S
H794 C788 0.930 . S
H795 C789 0.930 . S
C796 N797 1.314 . S
C796 C798 1.353 . S
C796 H802 0.930 . S
N797 Li747 1.990 . S
N797 C796 1.314 . S
N797 C800 1.279 . S
C798 C796 1.353 . S
C798 C801 1.348 . S
C798 H830 0.929 . S
C799 C800 1.358 . S
C799 C801 1.356 . S
C799 H831 0.930 . S
C800 N797 1.279 . S
C800 C799 1.358 . S
C800 H803 0.930 . S
C801 C798 1.348 . S
C801 C799 1.356 . S
H802 C796 0.930 . S
H803 C800 0.930 . S
O804 Li744 1.956 . S
O804 Li745 1.970 . S
O804 Li746 1.961 . S
O804 C748 1.325 . S
O805 Li744 1.970 . S
O805 Li745 1.956 . S
O805 Li747 1.961 . S
O805 C754 1.325 . S
O806 Li744 1.961 . S
O806 Li746 1.956 . S
O806 Li747 1.970 . S
O806 C776 1.325 . S
O807 Li745 1.961 . S
O807 Li746 1.970 . S
O807 Li747 1.956 . S
O807 C782 1.325 . S
H808 C750 0.929 . S
H809 C751 0.930 . S
H810 C752 0.930 . S
H811 C753 0.930 . S
H812 C755 0.930 . S
H813 C757 0.929 . S
H814 C758 0.930 . S
H815 C759 0.930 . S
H816 C762 0.930 . S
H817 C765 0.929 . S
H818 C770 0.929 . S
H819 C771 0.930 . S
H820 C778 0.929 . S
H821 C779 0.930 . S
H822 C780 0.930 . S
H823 C781 0.930 . S
H824 C783 0.929 . S
H825 C784 0.930 . S
H826 C785 0.930 . S
H827 C786 0.930 . S
H828 C790 0.929 . S
H829 C792 0.930 . S
H830 C798 0.929 . S
H831 C799 0.930 . S
Li832 N849 1.990 . S
Li832 O892 1.956 . S
Li832 O893 1.970 . S
Li832 O894 1.961 . S
Li833 N857 1.990 . S
Li833 O892 1.970 . S
Li833 O893 1.956 . S
Li833 O895 1.961 . S
Li834 N879 1.990 . S
Li834 O892 1.961 . S
Li834 O894 1.956 . S
Li834 O895 1.970 . S
Li835 N885 1.990 . S
Li835 O893 1.961 . S
Li835 O894 1.970 . S
Li835 O895 1.956 . S
C836 C838 1.348 . S
C836 C839 1.356 . S
C836 O892 1.325 . S
N837 C840 1.314 . S
N837 C841 1.279 . S
C838 C836 1.348 . S
C838 C840 1.353 . S
C838 H896 0.929 . S
C839 C836 1.356 . S
C839 C841 1.358 . S
C839 H897 0.930 . S
C840 N837 1.314 . S
C840 C838 1.353 . S
C840 H898 0.930 . S
C841 N837 1.279 . S
C841 C839 1.358 . S
C841 H899 0.930 . S
C842 C845 1.348 . S
C842 C846 1.356 . S
C842 O893 1.325 . S
C843 N844 1.279 . S
C843 C846 1.358 . S
C843 H900 0.930 . S
N844 C843 1.279 . S
N844 C847 1.314 . S
C845 C842 1.348 . S
C845 C847 1.353 . S
C845 H901 0.929 . S
C846 C842 1.356 . S
C846 C843 1.358 . S
C846 H902 0.930 . S
C847 N844 1.314 . S
C847 C845 1.353 . S
C847 H903 0.930 . S
C848 N849 1.314 . S
C848 C853 1.353 . S
C848 H854 0.930 . S
N849 Li832 1.990 . S
N849 C848 1.314 . S
N849 C851 1.279 . S
C850 C851 1.358 . S
C850 C852 1.356 . S
C850 H904 0.930 . S
C851 N849 1.279 . S
C851 C850 1.358 . S
C851 H855 0.930 . S
C852 C850 1.356 . S
C852 C853 1.348 . S
C853 C848 1.353 . S
C853 C852 1.348 . S
C853 H905 0.929 . S
H854 C848 0.930 . S
H855 C851 0.930 . S
C856 N857 1.314 . S
C856 C858 1.353 . S
C856 H862 0.930 . S
N857 Li833 1.990 . S
N857 C856 1.314 . S
N857 C860 1.279 . S
C858 C856 1.353 . S
C858 C861 1.348 . S
C858 H906 0.929 . S
C859 C860 1.358 . S
C859 C861 1.356 . S
C859 H907 0.930 . S
C860 N857 1.279 . S
C860 C859 1.358 . S
C860 H863 0.930 . S
C861 C858 1.348 . S
C861 C859 1.356 . S
H862 C856 0.930 . S
H863 C860 0.930 . S
C864 C866 1.348 . S
C864 C867 1.356 . S
C864 O894 1.325 . S
N865 C868 1.314 . S
N865 C869 1.279 . S
C866 C864 1.348 . S
C866 C868 1.353 . S
C866 H908 0.929 . S
C867 C864 1.356 . S
C867 C869 1.358 . S
C867 H909 0.930 . S
C868 N865 1.314 . S
C868 C866 1.353 . S
C868 H910 0.930 . S
C869 N865 1.279 . S
C869 C867 1.358 . S
C869 H911 0.930 . S
C870 C871 1.348 . S
C870 C872 1.356 . S
C870 O895 1.325 . S
C871 C870 1.348 . S
C871 C873 1.353 . S
C871 H912 0.929 . S
C872 C870 1.356 . S
C872 C874 1.358 . S
C872 H913 0.930 . S
C873 C871 1.353 . S
C873 N875 1.314 . S
C873 H914 0.930 . S
C874 C872 1.358 . S
C874 N875 1.279 . S
C874 H915 0.930 . S
N875 C873 1.314 . S
N875 C874 1.279 . S
C876 C878 1.353 . S
C876 N879 1.314 . S
C876 H882 0.930 . S
C877 N879 1.279 . S
C877 C880 1.358 . S
C877 H883 0.930 . S
C878 C876 1.353 . S
C878 C881 1.348 . S
C878 H916 0.929 . S
N879 Li834 1.990 . S
N879 C876 1.314 . S
N879 C877 1.279 . S
C880 C877 1.358 . S
C880 C881 1.356 . S
C880 H917 0.930 . S
C881 C878 1.348 . S
C881 C880 1.356 . S
H882 C876 0.930 . S
H883 C877 0.930 . S
C884 N885 1.314 . S
C884 C886 1.353 . S
C884 H890 0.930 . S
N885 Li835 1.990 . S
N885 C884 1.314 . S
N885 C888 1.279 . S
C886 C884 1.353 . S
C886 C889 1.348 . S
C886 H918 0.929 . S
C887 C888 1.358 . S
C887 C889 1.356 . S
C887 H919 0.930 . S
C888 N885 1.279 . S
C888 C887 1.358 . S
C888 H891 0.930 . S
C889 C886 1.348 . S
C889 C887 1.356 . S
H890 C884 0.930 . S
H891 C888 0.930 . S
O892 Li832 1.956 . S
O892 Li833 1.970 . S
O892 Li834 1.961 . S
O892 C836 1.325 . S
O893 Li832 1.970 . S
O893 Li833 1.956 . S
O893 Li835 1.961 . S
O893 C842 1.325 . S
O894 Li832 1.961 . S
O894 Li834 1.956 . S
O894 Li835 1.970 . S
O894 C864 1.325 . S
O895 Li833 1.961 . S
O895 Li834 1.970 . S
O895 Li835 1.956 . S
O895 C870 1.325 . S
H896 C838 0.929 . S
H897 C839 0.930 . S
H898 C840 0.930 . S
H899 C841 0.930 . S
H900 C843 0.930 . S
H901 C845 0.929 . S
H902 C846 0.930 . S
H903 C847 0.930 . S
H904 C850 0.930 . S
H905 C853 0.929 . S
H906 C858 0.929 . S
H907 C859 0.930 . S
H908 C866 0.929 . S
H909 C867 0.930 . S
H910 C868 0.930 . S
H911 C869 0.930 . S
H912 C871 0.929 . S
H913 C872 0.930 . S
H914 C873 0.930 . S
H915 C874 0.930 . S
H916 C878 0.929 . S
H917 C880 0.930 . S
H918 C886 0.929 . S
H919 C887 0.930 . S
Li920 N937 1.990 1_545 S
Li920 O980 1.956 . S
Li920 O981 1.970 . S
Li920 O982 1.961 . S
Li921 N945 1.990 . S
Li921 O980 1.970 . S
Li921 O981 1.956 . S
Li921 O983 1.961 . S
Li922 N967 1.990 . S
Li922 O980 1.961 . S
Li922 O982 1.956 . S
Li922 O983 1.970 . S
Li923 N973 1.990 . S
Li923 O981 1.961 . S
Li923 O982 1.970 . S
Li923 O983 1.956 . S
C924 C926 1.348 . S
C924 C927 1.356 . S
C924 O980 1.325 1_565 S
N925 C928 1.314 . S
N925 C929 1.279 . S
C926 C924 1.348 . S
C926 C928 1.353 . S
C926 H984 0.929 . S
C927 C924 1.356 . S
C927 C929 1.358 . S
C927 H985 0.930 . S
C928 N925 1.314 . S
C928 C926 1.353 . S
C928 H986 0.930 . S
C929 N925 1.279 . S
C929 C927 1.358 . S
C929 H987 0.930 . S
C930 C933 1.348 . S
C930 C934 1.356 . S
C930 O981 1.325 . S
C931 N932 1.279 . S
C931 C934 1.358 . S
C931 H988 0.930 . S
N932 C931 1.279 . S
N932 C935 1.314 . S
C933 C930 1.348 . S
C933 C935 1.353 . S
C933 H989 0.929 . S
C934 C930 1.356 . S
C934 C931 1.358 . S
C934 H990 0.930 . S
C935 N932 1.314 . S
C935 C933 1.353 . S
C935 H991 0.930 . S
C936 N937 1.314 . S
C936 C941 1.353 . S
C936 H942 0.930 . S
N937 Li920 1.990 1_565 S
N937 C936 1.314 . S
N937 C939 1.279 . S
C938 C939 1.358 . S
C938 C940 1.356 . S
C938 H992 0.930 . S
C939 N937 1.279 . S
C939 C938 1.358 . S
C939 H943 0.930 . S
C940 C938 1.356 . S
C940 C941 1.348 . S
C941 C936 1.353 . S
C941 C940 1.348 . S
C941 H993 0.929 . S
H942 C936 0.930 . S
H943 C939 0.930 . S
C944 N945 1.314 . S
C944 C946 1.353 . S
C944 H950 0.930 . S
N945 Li921 1.990 . S
N945 C944 1.314 . S
N945 C948 1.279 . S
C946 C944 1.353 . S
C946 C949 1.348 . S
C946 H994 0.929 . S
C947 C948 1.358 . S
C947 C949 1.356 . S
C947 H995 0.930 . S
C948 N945 1.279 . S
C948 C947 1.358 . S
C948 H951 0.930 . S
C949 C946 1.348 . S
C949 C947 1.356 . S
H950 C944 0.930 . S
H951 C948 0.930 . S
C952 C954 1.348 . S
C952 C955 1.356 1_545 S
C952 O982 1.325 . S
N953 C956 1.314 . S
N953 C957 1.279 1_545 S
C954 C952 1.348 . S
C954 C956 1.353 . S
C954 H996 0.929 . S
C955 C952 1.356 1_565 S
C955 C957 1.358 . S
C955 H997 0.930 . S
C956 N953 1.314 . S
C956 C954 1.353 . S
C956 H998 0.930 . S
C957 N953 1.279 1_565 S
C957 C955 1.358 . S
C957 H999 0.930 . S
C958 C959 1.348 . S
C958 C960 1.356 . S
C958 O983 1.325 . S
C959 C958 1.348 . S
C959 C961 1.353 . S
C959 H1000 0.929 . S
C960 C958 1.356 . S
C960 C962 1.358 . S
C960 H1001 0.930 . S
C961 C959 1.353 . S
C961 N963 1.314 . S
C961 H1002 0.930 . S
C962 C960 1.358 . S
C962 N963 1.279 . S
C962 H1003 0.930 . S
N963 C961 1.314 . S
N963 C962 1.279 . S
C964 C966 1.352 1_545 S
C964 N967 1.314 . S
C964 H970 0.930 . S
C965 N967 1.279 . S
C965 C968 1.358 . S
C965 H971 0.930 . S
C966 C964 1.352 1_565 S
C966 C969 1.342 1_565 S
C966 H1004 0.937 . S
N967 Li922 1.990 . S
N967 C964 1.314 . S
N967 C965 1.279 . S
C968 C965 1.358 . S
C968 C969 1.356 . S
C968 H1005 0.930 . S
C969 C966 1.342 1_545 S
C969 C968 1.356 . S
H970 C964 0.930 . S
H971 C965 0.930 . S
C972 N973 1.314 . S
C972 C974 1.353 . S
C972 H978 0.930 . S
N973 Li923 1.990 . S
N973 C972 1.314 . S
N973 C976 1.279 . S
C974 C972 1.353 . S
C974 C977 1.348 . S
C974 H1006 0.929 . S
C975 C976 1.358 . S
C975 C977 1.356 . S
C975 H1007 0.930 . S
C976 N973 1.279 . S
C976 C975 1.358 . S
C976 H979 0.930 . S
C977 C974 1.348 . S
C977 C975 1.356 . S
H978 C972 0.930 . S
H979 C976 0.930 . S
O980 Li920 1.956 . S
O980 Li921 1.970 . S
O980 Li922 1.961 . S
O980 C924 1.325 1_545 S
O981 Li920 1.970 . S
O981 Li921 1.956 . S
O981 Li923 1.961 . S
O981 C930 1.325 . S
O982 Li920 1.961 . S
O982 Li922 1.956 . S
O982 Li923 1.970 . S
O982 C952 1.325 . S
O983 Li921 1.961 . S
O983 Li922 1.970 . S
O983 Li923 1.956 . S
O983 C958 1.325 . S
H984 C926 0.929 . S
H985 C927 0.930 . S
H986 C928 0.930 . S
H987 C929 0.930 . S
H988 C931 0.930 . S
H989 C933 0.929 . S
H990 C934 0.930 . S
H991 C935 0.930 . S
H992 C938 0.930 . S
H993 C941 0.929 . S
H994 C946 0.929 . S
H995 C947 0.930 . S
H996 C954 0.929 . S
H997 C955 0.930 . S
H998 C956 0.930 . S
H999 C957 0.930 . S
H1000 C959 0.929 . S
H1001 C960 0.930 . S
H1002 C961 0.930 . S
H1003 C962 0.930 . S
H1004 C966 0.937 . S
H1005 C968 0.930 . S
H1006 C974 0.929 . S
H1007 C975 0.930 . S
Li1008 N1025 1.990 . S
Li1008 O1068 1.956 . S
Li1008 O1069 1.970 . S
Li1008 O1070 1.961 . S
Li1009 N1033 1.990 . S
Li1009 O1068 1.970 . S
Li1009 O1069 1.956 . S
Li1009 O1071 1.961 1_455 S
Li1010 N1055 1.990 . S
Li1010 O1068 1.961 . S
Li1010 O1070 1.956 . S
Li1010 O1071 1.970 1_455 S
Li1011 N1061 1.990 . S
Li1011 O1069 1.961 1_655 S
Li1011 O1070 1.970 1_655 S
Li1011 O1071 1.956 . S
C1012 C1014 1.348 . S
C1012 C1015 1.356 . S
C1012 O1068 1.325 . S
N1013 C1016 1.314 . S
N1013 C1017 1.279 . S
C1014 C1012 1.348 . S
C1014 C1016 1.353 . S
C1014 H1072 0.929 . S
C1015 C1012 1.356 . S
C1015 C1017 1.358 . S
C1015 H1073 0.930 . S
C1016 N1013 1.314 . S
C1016 C1014 1.353 . S
C1016 H1074 0.930 . S
C1017 N1013 1.279 . S
C1017 C1015 1.358 . S
C1017 H1075 0.930 . S
C1018 C1021 1.348 . S
C1018 C1022 1.356 1_455 S
C1018 O1069 1.325 . S
C1019 N1020 1.244 1_655 S
C1019 C1022 1.358 . S
C1019 H1076 0.930 . S
N1020 C1019 1.244 1_455 S
N1020 C1023 1.356 . S
C1021 C1018 1.348 . S
C1021 C1023 1.353 . S
C1021 H1077 0.929 . S
C1022 C1018 1.356 1_655 S
C1022 C1019 1.358 . S
C1022 H1078 0.930 . S
C1023 N1020 1.356 . S
C1023 C1021 1.353 . S
C1023 H1079 0.930 . S
C1024 N1025 1.314 . S
C1024 C1029 1.353 . S
C1024 H1030 0.930 . S
N1025 Li1008 1.990 . S
N1025 C1024 1.314 . S
N1025 C1027 1.279 . S
C1026 C1027 1.358 . S
C1026 C1028 1.356 . S
C1026 H1080 0.930 . S
C1027 N1025 1.279 . S
C1027 C1026 1.358 . S
C1027 H1031 0.930 . S
C1028 C1026 1.356 . S
C1028 C1029 1.348 . S
C1029 C1024 1.353 . S
C1029 C1028 1.348 . S
C1029 H1081 0.929 . S
H1030 C1024 0.930 . S
H1031 C1027 0.930 . S
C1032 N1033 1.314 1_655 S
C1032 C1034 1.353 . S
C1032 H1038 0.930 . S
N1033 Li1009 1.990 . S
N1033 C1032 1.314 1_455 S
N1033 C1036 1.279 . S
C1034 C1032 1.353 . S
C1034 C1037 1.348 1_655 S
C1034 H1082 0.929 . S
C1035 C1036 1.358 . S
C1035 C1037 1.356 . S
C1035 H1083 0.930 . S
C1036 N1033 1.279 . S
C1036 C1035 1.358 . S
C1036 H1039 0.930 . S
C1037 C1034 1.348 1_455 S
C1037 C1035 1.356 . S
H1038 C1032 0.930 . S
H1039 C1036 0.930 . S
C1040 C1042 1.348 1_455 S
C1040 C1043 1.356 . S
C1040 O1070 1.325 . S
N1041 C1044 1.314 1_455 S
N1041 C1045 1.279 . S
C1042 C1040 1.348 1_655 S
C1042 C1044 1.353 . S
C1042 H1084 0.929 . S
C1043 C1040 1.356 . S
C1043 C1045 1.358 . S
C1043 H1085 0.930 . S
C1044 N1041 1.314 1_655 S
C1044 C1042 1.353 . S
C1044 H1086 0.930 . S
C1045 N1041 1.279 . S
C1045 C1043 1.358 . S
C1045 H1087 0.930 . S
C1046 C1047 1.348 . S
C1046 C1048 1.356 . S
C1046 O1071 1.325 . S
C1047 C1046 1.348 . S
C1047 C1049 1.353 . S
C1047 H1088 0.929 . S
C1048 C1046 1.356 . S
C1048 C1050 1.358 . S
C1048 H1089 0.930 . S
C1049 C1047 1.353 . S
C1049 N1051 1.314 . S
C1049 H1090 0.930 . S
C1050 C1048 1.358 . S
C1050 N1051 1.279 . S
C1050 H1091 0.930 . S
N1051 C1049 1.314 . S
N1051 C1050 1.279 . S
C1052 C1054 1.353 . S
C1052 N1055 1.314 . S
C1052 H1058 0.930 . S
C1053 N1055 1.279 . S
C1053 C1056 1.358 . S
C1053 H1059 0.930 . S
C1054 C1052 1.353 . S
C1054 C1057 1.348 . S
C1054 H1092 0.929 . S
N1055 Li1010 1.990 . S
N1055 C1052 1.314 . S
N1055 C1053 1.279 . S
C1056 C1053 1.358 . S
C1056 C1057 1.356 . S
C1056 H1093 0.930 . S
C1057 C1054 1.348 . S
C1057 C1056 1.356 . S
H1058 C1052 0.930 . S
H1059 C1053 0.930 . S
C1060 N1061 1.314 . S
C1060 C1062 1.353 . S
C1060 H1066 0.930 . S
N1061 Li1011 1.990 . S
N1061 C1060 1.314 . S
N1061 C1064 1.279 . S
C1062 C1060 1.353 . S
C1062 C1065 1.348 . S
C1062 H1094 0.929 . S
C1063 C1064 1.358 . S
C1063 C1065 1.356 . S
C1063 H1095 0.930 . S
C1064 N1061 1.279 . S
C1064 C1063 1.358 . S
C1064 H1067 0.930 . S
C1065 C1062 1.348 . S
C1065 C1063 1.356 . S
H1066 C1060 0.930 . S
H1067 C1064 0.930 . S
O1068 Li1008 1.956 . S
O1068 Li1009 1.970 . S
O1068 Li1010 1.961 . S
O1068 C1012 1.325 . S
O1069 Li1008 1.970 . S
O1069 Li1009 1.956 . S
O1069 Li1011 1.961 1_455 S
O1069 C1018 1.325 . S
O1070 Li1008 1.961 . S
O1070 Li1010 1.956 . S
O1070 Li1011 1.970 1_455 S
O1070 C1040 1.325 . S
O1071 Li1009 1.961 1_655 S
O1071 Li1010 1.970 1_655 S
O1071 Li1011 1.956 . S
O1071 C1046 1.325 . S
H1072 C1014 0.929 . S
H1073 C1015 0.930 . S
H1074 C1016 0.930 . S
H1075 C1017 0.930 . S
H1076 C1019 0.930 . S
H1077 C1021 0.929 . S
H1078 C1022 0.930 . S
H1079 C1023 0.930 . S
H1080 C1026 0.930 . S
H1081 C1029 0.929 . S
H1082 C1034 0.929 . S
H1083 C1035 0.930 . S
H1084 C1042 0.929 . S
H1085 C1043 0.930 . S
H1086 C1044 0.930 . S
H1087 C1045 0.930 . S
H1088 C1047 0.929 . S
H1089 C1048 0.930 . S
H1090 C1049 0.930 . S
H1091 C1050 0.930 . S
H1092 C1054 0.929 . S
H1093 C1056 0.930 . S
H1094 C1062 0.929 . S
H1095 C1063 0.930 . S
Li1096 N1113 1.990 . S
Li1096 O1156 1.956 . S
Li1096 O1157 1.970 . S
Li1096 O1158 1.961 . S
Li1097 N1121 1.990 . S
Li1097 O1156 1.970 . S
Li1097 O1157 1.956 . S
Li1097 O1159 1.961 . S
Li1098 N1143 1.990 . S
Li1098 O1156 1.961 . S
Li1098 O1158 1.956 . S
Li1098 O1159 1.970 . S
Li1099 N1149 1.990 . S
Li1099 O1157 1.961 . S
Li1099 O1158 1.970 . S
Li1099 O1159 1.956 . S
C1100 C1102 1.348 . S
C1100 C1103 1.356 . S
C1100 O1156 1.325 . S
N1101 C1104 1.314 . S
N1101 C1105 1.279 . S
C1102 C1100 1.348 . S
C1102 C1104 1.353 . S
C1102 H1160 0.929 . S
C1103 C1100 1.356 . S
C1103 C1105 1.358 . S
C1103 H1161 0.930 . S
C1104 N1101 1.314 . S
C1104 C1102 1.353 . S
C1104 H1162 0.930 . S
C1105 N1101 1.279 . S
C1105 C1103 1.358 . S
C1105 H1163 0.930 . S
C1106 C1109 1.348 . S
C1106 C1110 1.356 . S
C1106 O1157 1.325 . S
C1107 N1108 1.279 . S
C1107 C1110 1.358 . S
C1107 H1164 0.930 . S
N1108 C1107 1.279 . S
N1108 C1111 1.314 . S
C1109 C1106 1.348 . S
C1109 C1111 1.353 . S
C1109 H1165 0.929 . S
C1110 C1106 1.356 . S
C1110 C1107 1.358 . S
C1110 H1166 0.930 . S
C1111 N1108 1.314 . S
C1111 C1109 1.353 . S
C1111 H1167 0.930 . S
C1112 N1113 1.314 . S
C1112 C1117 1.353 . S
C1112 H1118 0.930 . S
N1113 Li1096 1.990 . S
N1113 C1112 1.314 . S
N1113 C1115 1.279 . S
C1114 C1115 1.358 . S
C1114 C1116 1.356 . S
C1114 H1168 0.930 . S
C1115 N1113 1.279 . S
C1115 C1114 1.358 . S
C1115 H1119 0.930 . S
C1116 C1114 1.356 . S
C1116 C1117 1.348 . S
C1117 C1112 1.353 . S
C1117 C1116 1.348 . S
C1117 H1169 0.929 . S
H1118 C1112 0.930 . S
H1119 C1115 0.930 . S
C1120 N1121 1.314 . S
C1120 C1122 1.353 . S
C1120 H1126 0.930 . S
N1121 Li1097 1.990 . S
N1121 C1120 1.314 . S
N1121 C1124 1.279 . S
C1122 C1120 1.353 . S
C1122 C1125 1.348 . S
C1122 H1170 0.929 . S
C1123 C1124 1.358 . S
C1123 C1125 1.356 . S
C1123 H1171 0.930 . S
C1124 N1121 1.279 . S
C1124 C1123 1.358 . S
C1124 H1127 0.930 . S
C1125 C1122 1.348 . S
C1125 C1123 1.356 . S
H1126 C1120 0.930 . S
H1127 C1124 0.930 . S
C1128 C1130 1.348 . S
C1128 C1131 1.356 . S
C1128 O1158 1.325 . S
N1129 C1132 1.314 . S
N1129 C1133 1.279 . S
C1130 C1128 1.348 . S
C1130 C1132 1.353 . S
C1130 H1172 0.929 . S
C1131 C1128 1.356 . S
C1131 C1133 1.358 . S
C1131 H1173 0.930 . S
C1132 N1129 1.314 . S
C1132 C1130 1.353 . S
C1132 H1174 0.930 . S
C1133 N1129 1.279 . S
C1133 C1131 1.358 . S
C1133 H1175 0.930 . S
C1134 C1135 1.348 . S
C1134 C1136 1.356 . S
C1134 O1159 1.325 . S
C1135 C1134 1.348 . S
C1135 C1137 1.353 . S
C1135 H1176 0.929 . S
C1136 C1134 1.356 . S
C1136 C1138 1.358 . S
C1136 H1177 0.930 . S
C1137 C1135 1.353 . S
C1137 N1139 1.314 . S
C1137 H1178 0.930 . S
C1138 C1136 1.358 . S
C1138 N1139 1.279 . S
C1138 H1179 0.930 . S
N1139 C1137 1.314 . S
N1139 C1138 1.279 . S
C1140 C1142 1.353 . S
C1140 N1143 1.314 . S
C1140 H1146 0.930 . S
C1141 N1143 1.279 . S
C1141 C1144 1.358 . S
C1141 H1147 0.930 . S
C1142 C1140 1.353 . S
C1142 C1145 1.348 . S
C1142 H1180 0.929 . S
N1143 Li1098 1.990 . S
N1143 C1140 1.314 . S
N1143 C1141 1.279 . S
C1144 C1141 1.358 . S
C1144 C1145 1.356 . S
C1144 H1181 0.930 . S
C1145 C1142 1.348 . S
C1145 C1144 1.356 . S
H1146 C1140 0.930 . S
H1147 C1141 0.930 . S
C1148 N1149 1.314 . S
C1148 C1150 1.353 . S
C1148 H1154 0.930 . S
N1149 Li1099 1.990 . S
N1149 C1148 1.314 . S
N1149 C1152 1.279 . S
C1150 C1148 1.353 . S
C1150 C1153 1.348 . S
C1150 H1182 0.929 . S
C1151 C1152 1.358 . S
C1151 C1153 1.356 . S
C1151 H1183 0.930 . S
C1152 N1149 1.279 . S
C1152 C1151 1.358 . S
C1152 H1155 0.930 . S
C1153 C1150 1.348 . S
C1153 C1151 1.356 . S
H1154 C1148 0.930 . S
H1155 C1152 0.930 . S
O1156 Li1096 1.956 . S
O1156 Li1097 1.970 . S
O1156 Li1098 1.961 . S
O1156 C1100 1.325 . S
O1157 Li1096 1.970 . S
O1157 Li1097 1.956 . S
O1157 Li1099 1.961 . S
O1157 C1106 1.325 . S
O1158 Li1096 1.961 . S
O1158 Li1098 1.956 . S
O1158 Li1099 1.970 . S
O1158 C1128 1.325 . S
O1159 Li1097 1.961 . S
O1159 Li1098 1.970 . S
O1159 Li1099 1.956 . S
O1159 C1134 1.325 . S
H1160 C1102 0.929 . S
H1161 C1103 0.930 . S
H1162 C1104 0.930 . S
H1163 C1105 0.930 . S
H1164 C1107 0.930 . S
H1165 C1109 0.929 . S
H1166 C1110 0.930 . S
H1167 C1111 0.930 . S
H1168 C1114 0.930 . S
H1169 C1117 0.929 . S
H1170 C1122 0.929 . S
H1171 C1123 0.930 . S
H1172 C1130 0.929 . S
H1173 C1131 0.930 . S
H1174 C1132 0.930 . S
H1175 C1133 0.930 . S
H1176 C1135 0.929 . S
H1177 C1136 0.930 . S
H1178 C1137 0.930 . S
H1179 C1138 0.930 . S
H1180 C1142 0.929 . S
H1181 C1144 0.930 . S
H1182 C1150 0.929 . S
H1183 C1151 0.930 . S
Li1184 N1201 1.990 . S
Li1184 O1244 1.956 . S
Li1184 O1245 1.970 1_455 S
Li1184 O1246 1.961 . S
Li1185 N1209 1.990 . S
Li1185 O1244 1.970 1_655 S
Li1185 O1245 1.956 . S
Li1185 O1247 1.961 . S
Li1186 N1231 1.990 . S
Li1186 O1244 1.961 . S
Li1186 O1246 1.956 . S
Li1186 O1247 1.970 1_455 S
Li1187 N1237 1.990 . S
Li1187 O1245 1.961 . S
Li1187 O1246 1.970 1_655 S
Li1187 O1247 1.956 . S
C1188 C1190 1.348 1_455 S
C1188 C1191 1.356 . S
C1188 O1244 1.325 . S
N1189 C1192 1.320 . S
N1189 C1193 1.279 . S
C1190 C1188 1.348 1_655 S
C1190 C1192 1.352 1_655 S
C1190 H1248 0.929 . S
C1191 C1188 1.356 . S
C1191 C1193 1.358 . S
C1191 H1249 0.930 . S
C1192 N1189 1.320 . S
C1192 C1190 1.352 1_455 S
C1192 H1250 0.924 1_455 S
C1193 N1189 1.279 . S
C1193 C1191 1.358 . S
C1193 H1251 0.930 . S
C1194 C1197 1.348 . S
C1194 C1198 1.356 . S
C1194 O1245 1.325 . S
C1195 N1196 1.279 . S
C1195 C1198 1.358 . S
C1195 H1252 0.930 . S
N1196 C1195 1.279 . S
N1196 C1199 1.314 . S
C1197 C1194 1.348 . S
C1197 C1199 1.353 . S
C1197 H1253 0.929 . S
C1198 C1194 1.356 . S
C1198 C1195 1.358 . S
C1198 H1254 0.930 . S
C1199 N1196 1.314 . S
C1199 C1197 1.353 . S
C1199 H1255 0.930 . S
C1200 N1201 1.314 . S
C1200 C1205 1.353 . S
C1200 H1206 0.930 . S
N1201 Li1184 1.990 . S
N1201 C1200 1.314 . S
N1201 C1203 1.279 . S
C1202 C1203 1.358 . S
C1202 C1204 1.356 . S
C1202 H1256 0.930 . S
C1203 N1201 1.279 . S
C1203 C1202 1.358 . S
C1203 H1207 0.930 . S
C1204 C1202 1.356 . S
C1204 C1205 1.348 . S
C1205 C1200 1.353 . S
C1205 C1204 1.348 . S
C1205 H1257 0.929 . S
H1206 C1200 0.930 . S
H1207 C1203 0.930 . S
C1208 N1209 1.314 . S
C1208 C1210 1.353 . S
C1208 H1214 0.930 . S
N1209 Li1185 1.990 . S
N1209 C1208 1.314 . S
N1209 C1212 1.279 . S
C1210 C1208 1.353 . S
C1210 C1213 1.348 . S
C1210 H1258 0.929 . S
C1211 C1212 1.358 . S
C1211 C1213 1.356 . S
C1211 H1259 0.930 . S
C1212 N1209 1.279 . S
C1212 C1211 1.358 . S
C1212 H1215 0.930 . S
C1213 C1210 1.348 . S
C1213 C1211 1.356 . S
H1214 C1208 0.930 . S
H1215 C1212 0.930 . S
C1216 C1218 1.348 . S
C1216 C1219 1.356 . S
C1216 O1246 1.325 . S
N1217 C1220 1.314 . S
N1217 C1221 1.279 . S
C1218 C1216 1.348 . S
C1218 C1220 1.353 . S
C1218 H1260 0.929 . S
C1219 C1216 1.356 . S
C1219 C1221 1.358 . S
C1219 H1261 0.930 . S
C1220 N1217 1.314 . S
C1220 C1218 1.353 . S
C1220 H1262 0.930 . S
C1221 N1217 1.279 . S
C1221 C1219 1.358 . S
C1221 H1263 0.930 . S
C1222 C1223 1.348 1_655 S
C1222 C1224 1.356 . S
C1222 O1247 1.325 . S
C1223 C1222 1.348 1_455 S
C1223 C1225 1.353 1_455 S
C1223 H1264 0.929 . S
C1224 C1222 1.356 . S
C1224 C1226 1.358 . S
C1224 H1265 0.930 . S
C1225 C1223 1.353 1_655 S
C1225 N1227 1.314 . S
C1225 H1266 0.930 1_655 S
C1226 C1224 1.358 . S
C1226 N1227 1.279 . S
C1226 H1267 0.930 . S
N1227 C1225 1.314 . S
N1227 C1226 1.279 . S
C1228 C1230 1.353 . S
C1228 N1231 1.314 . S
C1228 H1234 0.930 . S
C1229 N1231 1.279 . S
C1229 C1232 1.358 . S
C1229 H1235 0.930 . S
C1230 C1228 1.353 . S
C1230 C1233 1.348 . S
C1230 H1268 0.929 . S
N1231 Li1186 1.990 . S
N1231 C1228 1.314 . S
N1231 C1229 1.279 . S
C1232 C1229 1.358 . S
C1232 C1233 1.356 . S
C1232 H1269 0.930 . S
C1233 C1230 1.348 . S
C1233 C1232 1.356 . S
H1234 C1228 0.930 . S
H1235 C1229 0.930 . S
C1236 N1237 1.314 . S
C1236 C1238 1.353 . S
C1236 H1242 0.930 . S
N1237 Li1187 1.990 . S
N1237 C1236 1.314 . S
N1237 C1240 1.279 . S
C1238 C1236 1.353 . S
C1238 C1241 1.348 . S
C1238 H1270 0.929 . S
C1239 C1240 1.358 . S
C1239 C1241 1.356 . S
C1239 H1271 0.930 . S
C1240 N1237 1.279 . S
C1240 C1239 1.358 . S
C1240 H1243 0.930 . S
C1241 C1238 1.348 . S
C1241 C1239 1.356 . S
H1242 C1236 0.930 . S
H1243 C1240 0.930 . S
O1244 Li1184 1.956 . S
O1244 Li1185 1.970 1_455 S
O1244 Li1186 1.961 . S
O1244 C1188 1.325 . S
O1245 Li1184 1.970 1_655 S
O1245 Li1185 1.956 . S
O1245 Li1187 1.961 . S
O1245 C1194 1.325 . S
O1246 Li1184 1.961 . S
O1246 Li1186 1.956 . S
O1246 Li1187 1.970 1_455 S
O1246 C1216 1.325 . S
O1247 Li1185 1.961 . S
O1247 Li1186 1.970 1_655 S
O1247 Li1187 1.956 . S
O1247 C1222 1.325 . S
H1248 C1190 0.929 . S
H1249 C1191 0.930 . S
H1250 C1192 0.924 1_655 S
H1251 C1193 0.930 . S
H1252 C1195 0.930 . S
H1253 C1197 0.929 . S
H1254 C1198 0.930 . S
H1255 C1199 0.930 . S
H1256 C1202 0.930 . S
H1257 C1205 0.929 . S
H1258 C1210 0.929 . S
H1259 C1211 0.930 . S
H1260 C1218 0.929 . S
H1261 C1219 0.930 . S
H1262 C1220 0.930 . S
H1263 C1221 0.930 . S
H1264 C1223 0.929 . S
H1265 C1224 0.930 . S
H1266 C1225 0.930 1_455 S
H1267 C1226 0.930 . S
H1268 C1230 0.929 . S
H1269 C1232 0.930 . S
H1270 C1238 0.929 . S
H1271 C1239 0.930 . S
Li1272 N1289 1.990 . S
Li1272 O1332 1.956 . S
Li1272 O1333 1.970 . S
Li1272 O1334 1.961 . S
Li1273 N1297 1.990 . S
Li1273 O1332 1.970 . S
Li1273 O1333 1.956 . S
Li1273 O1335 1.961 . S
Li1274 N1319 1.990 . S
Li1274 O1332 1.961 . S
Li1274 O1334 1.956 . S
Li1274 O1335 1.970 . S
Li1275 N1325 1.990 . S
Li1275 O1333 1.961 . S
Li1275 O1334 1.970 . S
Li1275 O1335 1.956 . S
C1276 C1278 1.348 . S
C1276 C1279 1.356 . S
C1276 O1332 1.325 . S
N1277 C1280 1.314 . S
N1277 C1281 1.279 . S
C1278 C1276 1.348 . S
C1278 C1280 1.353 . S
C1278 H1336 0.929 . S
C1279 C1276 1.356 . S
C1279 C1281 1.358 . S
C1279 H1337 0.930 . S
C1280 N1277 1.314 . S
C1280 C1278 1.353 . S
C1280 H1338 0.930 . S
C1281 N1277 1.279 . S
C1281 C1279 1.358 . S
C1281 H1339 0.930 . S
C1282 C1285 1.348 . S
C1282 C1286 1.356 . S
C1282 O1333 1.325 . S
C1283 N1284 1.279 . S
C1283 C1286 1.358 . S
C1283 H1340 0.930 . S
N1284 C1283 1.279 . S
N1284 C1287 1.314 . S
C1285 C1282 1.348 . S
C1285 C1287 1.353 . S
C1285 H1341 0.929 . S
C1286 C1282 1.356 . S
C1286 C1283 1.358 . S
C1286 H1342 0.930 . S
C1287 N1284 1.314 . S
C1287 C1285 1.353 . S
C1287 H1343 0.930 . S
C1288 N1289 1.314 . S
C1288 C1293 1.353 . S
C1288 H1294 0.930 . S
N1289 Li1272 1.990 . S
N1289 C1288 1.314 . S
N1289 C1291 1.279 . S
C1290 C1291 1.358 . S
C1290 C1292 1.356 . S
C1290 H1344 0.930 . S
C1291 N1289 1.279 . S
C1291 C1290 1.358 . S
C1291 H1295 0.930 . S
C1292 C1290 1.356 . S
C1292 C1293 1.348 . S
C1293 C1288 1.353 . S
C1293 C1292 1.348 . S
C1293 H1345 0.929 . S
H1294 C1288 0.930 . S
H1295 C1291 0.930 . S
C1296 N1297 1.314 . S
C1296 C1298 1.353 . S
C1296 H1302 0.930 . S
N1297 Li1273 1.990 . S
N1297 C1296 1.314 . S
N1297 C1300 1.279 . S
C1298 C1296 1.353 . S
C1298 C1301 1.348 . S
C1298 H1346 0.929 . S
C1299 C1300 1.358 . S
C1299 C1301 1.356 . S
C1299 H1347 0.930 . S
C1300 N1297 1.279 . S
C1300 C1299 1.358 . S
C1300 H1303 0.930 . S
C1301 C1298 1.348 . S
C1301 C1299 1.356 . S
H1302 C1296 0.930 . S
H1303 C1300 0.930 . S
C1304 C1306 1.348 . S
C1304 C1307 1.356 . S
C1304 O1334 1.325 . S
N1305 C1308 1.314 . S
N1305 C1309 1.279 . S
C1306 C1304 1.348 . S
C1306 C1308 1.353 . S
C1306 H1348 0.929 . S
C1307 C1304 1.356 . S
C1307 C1309 1.358 . S
C1307 H1349 0.930 . S
C1308 N1305 1.314 . S
C1308 C1306 1.353 . S
C1308 H1350 0.930 . S
C1309 N1305 1.279 . S
C1309 C1307 1.358 . S
C1309 H1351 0.930 . S
C1310 C1311 1.348 . S
C1310 C1312 1.356 . S
C1310 O1335 1.325 . S
C1311 C1310 1.348 . S
C1311 C1313 1.353 . S
C1311 H1352 0.929 . S
C1312 C1310 1.356 . S
C1312 C1314 1.358 . S
C1312 H1353 0.930 . S
C1313 C1311 1.353 . S
C1313 N1315 1.314 . S
C1313 H1354 0.930 . S
C1314 C1312 1.358 . S
C1314 N1315 1.279 . S
C1314 H1355 0.930 . S
N1315 C1313 1.314 . S
N1315 C1314 1.279 . S
C1316 C1318 1.353 . S
C1316 N1319 1.314 . S
C1316 H1322 0.930 . S
C1317 N1319 1.279 . S
C1317 C1320 1.358 . S
C1317 H1323 0.930 . S
C1318 C1316 1.353 . S
C1318 C1321 1.348 . S
C1318 H1356 0.929 . S
N1319 Li1274 1.990 . S
N1319 C1316 1.314 . S
N1319 C1317 1.279 . S
C1320 C1317 1.358 . S
C1320 C1321 1.356 . S
C1320 H1357 0.930 . S
C1321 C1318 1.348 . S
C1321 C1320 1.356 . S
H1322 C1316 0.930 . S
H1323 C1317 0.930 . S
C1324 N1325 1.314 . S
C1324 C1326 1.353 . S
C1324 H1330 0.930 . S
N1325 Li1275 1.990 . S
N1325 C1324 1.314 . S
N1325 C1328 1.279 . S
C1326 C1324 1.353 . S
C1326 C1329 1.348 . S
C1326 H1358 0.929 . S
C1327 C1328 1.358 . S
C1327 C1329 1.356 . S
C1327 H1359 0.930 . S
C1328 N1325 1.279 . S
C1328 C1327 1.358 . S
C1328 H1331 0.930 . S
C1329 C1326 1.348 . S
C1329 C1327 1.356 . S
H1330 C1324 0.930 . S
H1331 C1328 0.930 . S
O1332 Li1272 1.956 . S
O1332 Li1273 1.970 . S
O1332 Li1274 1.961 . S
O1332 C1276 1.325 . S
O1333 Li1272 1.970 . S
O1333 Li1273 1.956 . S
O1333 Li1275 1.961 . S
O1333 C1282 1.325 . S
O1334 Li1272 1.961 . S
O1334 Li1274 1.956 . S
O1334 Li1275 1.970 . S
O1334 C1304 1.325 . S
O1335 Li1273 1.961 . S
O1335 Li1274 1.970 . S
O1335 Li1275 1.956 . S
O1335 C1310 1.325 . S
H1336 C1278 0.929 . S
H1337 C1279 0.930 . S
H1338 C1280 0.930 . S
H1339 C1281 0.930 . S
H1340 C1283 0.930 . S
H1341 C1285 0.929 . S
H1342 C1286 0.930 . S
H1343 C1287 0.930 . S
H1344 C1290 0.930 . S
H1345 C1293 0.929 . S
H1346 C1298 0.929 . S
H1347 C1299 0.930 . S
H1348 C1306 0.929 . S
H1349 C1307 0.930 . S
H1350 C1308 0.930 . S
H1351 C1309 0.930 . S
H1352 C1311 0.929 . S
H1353 C1312 0.930 . S
H1354 C1313 0.930 . S
H1355 C1314 0.930 . S
H1356 C1318 0.929 . S
H1357 C1320 0.930 . S
H1358 C1326 0.929 . S
H1359 C1327 0.930 . S
C1360 C1361 1.391 . S
C1360 C1362 1.394 . S
C1360 H1376 0.931 . S
C1361 C1360 1.391 . S
C1361 C1365 1.376 . S
C1362 C1360 1.394 . S
C1362 C1363 1.369 . S
C1362 C1366 1.531 . S
C1363 C1362 1.369 . S
C1363 C1364 1.410 . S
C1363 C1371 1.503 . S
C1364 C1363 1.410 . S
C1364 C1365 1.392 . S
C1364 C1367 1.511 . S
C1365 C1361 1.376 . S
C1365 C1364 1.392 . S
C1365 H1377 0.929 . S
C1366 C1362 1.531 . S
C1366 H1378 0.960 . S
C1366 H1379 0.962 . S
C1366 H1380 0.960 . S
C1367 C1364 1.511 . S
C1367 H1381 0.961 . S
C1367 H1382 0.961 . S
C1367 H1383 0.961 . S
C1368 C1369 1.370 . S
C1368 C1370 1.363 . S
C1368 H1384 0.931 . S
C1369 C1368 1.370 . S
C1369 C1373 1.408 . S
C1370 C1368 1.363 . S
C1370 C1371 1.370 . S
C1370 C1374 1.524 . S
C1371 C1363 1.503 . S
C1371 C1370 1.370 . S
C1371 C1372 1.403 . S
C1372 C1371 1.403 . S
C1372 C1373 1.404 . S
C1372 C1375 1.539 . S
C1373 C1369 1.408 . S
C1373 C1372 1.404 . S
C1373 H1385 0.930 . S
C1374 C1370 1.524 . S
C1374 H1386 0.956 . S
C1374 H1387 0.961 . S
C1374 H1388 0.961 . S
C1375 C1372 1.539 . S
C1375 H1389 0.958 . S
C1375 H1390 0.961 . S
C1375 H1391 0.960 . S
H1376 C1360 0.931 . S
H1377 C1365 0.929 . S
H1378 C1366 0.960 . S
H1379 C1366 0.962 . S
H1380 C1366 0.960 . S
H1381 C1367 0.961 . S
H1382 C1367 0.961 . S
H1383 C1367 0.961 . S
H1384 C1368 0.931 . S
H1385 C1373 0.930 . S
H1386 C1374 0.956 . S
H1387 C1374 0.961 . S
H1388 C1374 0.961 . S
H1389 C1375 0.958 . S
H1390 C1375 0.961 . S
H1391 C1375 0.960 . S
C1392 C1393 1.391 . S
C1392 C1394 1.394 . S
C1392 H1408 0.931 . S
C1393 C1392 1.391 . S
C1393 C1397 1.376 . S
C1394 C1392 1.394 . S
C1394 C1395 1.369 . S
C1394 C1398 1.531 . S
C1395 C1394 1.369 . S
C1395 C1396 1.410 . S
C1395 C1403 1.503 . S
C1396 C1395 1.410 . S
C1396 C1397 1.392 . S
C1396 C1399 1.511 . S
C1397 C1393 1.376 . S
C1397 C1396 1.392 . S
C1397 H1409 0.929 1_455 S
C1398 C1394 1.531 . S
C1398 H1410 0.960 . S
C1398 H1411 0.962 . S
C1398 H1412 0.960 . S
C1399 C1396 1.511 . S
C1399 H1413 0.961 1_455 S
C1399 H1414 0.961 . S
C1399 H1415 0.961 . S
C1400 C1401 1.370 . S
C1400 C1402 1.363 . S
C1400 H1416 0.931 . S
C1401 C1400 1.370 . S
C1401 C1405 1.408 . S
C1402 C1400 1.363 . S
C1402 C1403 1.370 . S
C1402 C1406 1.524 . S
C1403 C1395 1.503 . S
C1403 C1402 1.370 . S
C1403 C1404 1.403 . S
C1404 C1403 1.403 . S
C1404 C1405 1.404 . S
C1404 C1407 1.539 . S
C1405 C1401 1.408 . S
C1405 C1404 1.404 . S
C1405 H1417 0.930 . S
C1406 C1402 1.524 . S
C1406 H1418 0.956 . S
C1406 H1419 0.961 . S
C1406 H1420 0.961 . S
C1407 C1404 1.539 . S
C1407 H1421 0.958 . S
C1407 H1422 0.961 . S
C1407 H1423 0.960 . S
H1408 C1392 0.931 . S
H1409 C1397 0.929 1_655 S
H1410 C1398 0.960 . S
H1411 C1398 0.962 . S
H1412 C1398 0.960 . S
H1413 C1399 0.961 1_655 S
H1414 C1399 0.961 . S
H1415 C1399 0.961 . S
H1416 C1400 0.931 . S
H1417 C1405 0.930 . S
H1418 C1406 0.956 . S
H1419 C1406 0.961 . S
H1420 C1406 0.961 . S
H1421 C1407 0.958 . S
H1422 C1407 0.961 . S
H1423 C1407 0.960 . S
C1424 C1425 1.391 . S
C1424 C1426 1.394 . S
C1424 H1440 0.931 . S
C1425 C1424 1.391 . S
C1425 C1429 1.376 . S
C1426 C1424 1.394 . S
C1426 C1427 1.369 . S
C1426 C1430 1.531 . S
C1427 C1426 1.369 . S
C1427 C1428 1.410 . S
C1427 C1435 1.503 . S
C1428 C1427 1.410 . S
C1428 C1429 1.392 . S
C1428 C1431 1.511 . S
C1429 C1425 1.376 . S
C1429 C1428 1.392 . S
C1429 H1441 0.929 . S
C1430 C1426 1.531 . S
C1430 H1442 0.960 . S
C1430 H1443 0.962 . S
C1430 H1444 0.960 . S
C1431 C1428 1.511 . S
C1431 H1445 0.961 . S
C1431 H1446 0.961 . S
C1431 H1447 0.961 . S
C1432 C1433 1.370 . S
C1432 C1434 1.363 . S
C1432 H1448 0.931 . S
C1433 C1432 1.370 . S
C1433 C1437 1.408 . S
C1434 C1432 1.363 . S
C1434 C1435 1.370 . S
C1434 C1438 1.524 . S
C1435 C1427 1.503 . S
C1435 C1434 1.370 . S
C1435 C1436 1.403 . S
C1436 C1435 1.403 . S
C1436 C1437 1.404 . S
C1436 C1439 1.539 . S
C1437 C1433 1.408 . S
C1437 C1436 1.404 . S
C1437 H1449 0.930 . S
C1438 C1434 1.524 . S
C1438 H1450 0.956 . S
C1438 H1451 0.961 . S
C1438 H1452 0.961 . S
C1439 C1436 1.539 . S
C1439 H1453 0.958 . S
C1439 H1454 0.961 . S
C1439 H1455 0.960 . S
H1440 C1424 0.931 . S
H1441 C1429 0.929 . S
H1442 C1430 0.960 . S
H1443 C1430 0.962 . S
H1444 C1430 0.960 . S
H1445 C1431 0.961 . S
H1446 C1431 0.961 . S
H1447 C1431 0.961 . S
H1448 C1432 0.931 . S
H1449 C1437 0.930 . S
H1450 C1438 0.956 . S
H1451 C1438 0.961 . S
H1452 C1438 0.961 . S
H1453 C1439 0.958 . S
H1454 C1439 0.961 . S
H1455 C1439 0.960 . S
C1456 C1457 1.391 . S
C1456 C1458 1.394 . S
C1456 H1472 0.931 . S
C1457 C1456 1.391 . S
C1457 C1461 1.376 . S
C1458 C1456 1.394 . S
C1458 C1459 1.369 . S
C1458 C1462 1.531 . S
C1459 C1458 1.369 . S
C1459 C1460 1.410 . S
C1459 C1467 1.503 . S
C1460 C1459 1.410 . S
C1460 C1461 1.392 . S
C1460 C1463 1.511 . S
C1461 C1457 1.376 . S
C1461 C1460 1.392 . S
C1461 H1473 0.929 . S
C1462 C1458 1.531 . S
C1462 H1474 0.960 . S
C1462 H1475 1.001 . S
C1462 H1476 0.960 . S
C1463 C1460 1.511 . S
C1463 H1477 0.961 1_455 S
C1463 H1478 0.954 1_465 S
C1463 H1479 0.961 1_455 S
C1464 C1465 1.370 . S
C1464 C1466 1.363 . S
C1464 H1480 0.931 . S
C1465 C1464 1.370 . S
C1465 C1469 1.408 1_545 S
C1466 C1464 1.363 . S
C1466 C1467 1.370 1_545 S
C1466 C1470 1.524 . S
C1467 C1459 1.503 . S
C1467 C1466 1.370 1_565 S
C1467 C1468 1.403 . S
C1468 C1467 1.403 . S
C1468 C1469 1.404 . S
C1468 C1471 1.539 . S
C1469 C1465 1.408 1_565 S
C1469 C1468 1.404 . S
C1469 H1481 0.930 . S
C1470 C1466 1.524 . S
C1470 H1482 0.956 . S
C1470 H1483 0.961 . S
C1470 H1484 0.961 . S
C1471 C1468 1.539 . S
C1471 H1485 0.958 . S
C1471 H1486 1.005 . S
C1471 H1487 0.960 . S
H1472 C1456 0.931 . S
H1473 C1461 0.929 . S
H1474 C1462 0.960 . S
H1475 C1462 1.001 . S
H1476 C1462 0.960 . S
H1477 C1463 0.961 1_655 S
H1478 C1463 0.954 1_645 S
H1479 C1463 0.961 1_655 S
H1480 C1464 0.931 . S
H1481 C1469 0.930 . S
H1482 C1470 0.956 . S
H1483 C1470 0.961 . S
H1484 C1470 0.961 . S
H1485 C1471 0.958 . S
H1486 C1471 1.005 . S
H1487 C1471 0.960 . S
C1488 C1489 1.391 . S
C1488 C1490 1.394 . S
C1488 H1504 0.931 . S
C1489 C1488 1.391 . S
C1489 C1493 1.376 . S
C1490 C1488 1.394 . S
C1490 C1491 1.369 . S
C1490 C1494 1.531 . S
C1491 C1490 1.369 . S
C1491 C1492 1.410 . S
C1491 C1499 1.503 . S
C1492 C1491 1.410 . S
C1492 C1493 1.392 . S
C1492 C1495 1.511 . S
C1493 C1489 1.376 . S
C1493 C1492 1.392 . S
C1493 H1505 0.929 . S
C1494 C1490 1.531 . S
C1494 H1506 0.960 . S
C1494 H1507 0.962 . S
C1494 H1508 0.960 . S
C1495 C1492 1.511 . S
C1495 H1509 0.961 . S
C1495 H1510 0.961 . S
C1495 H1511 0.961 . S
C1496 C1497 1.370 . S
C1496 C1498 1.363 . S
C1496 H1512 0.931 . S
C1497 C1496 1.370 . S
C1497 C1501 1.408 . S
C1498 C1496 1.363 . S
C1498 C1499 1.370 . S
C1498 C1502 1.524 . S
C1499 C1491 1.503 . S
C1499 C1498 1.370 . S
C1499 C1500 1.403 . S
C1500 C1499 1.403 . S
C1500 C1501 1.404 . S
C1500 C1503 1.539 . S
C1501 C1497 1.408 . S
C1501 C1500 1.404 . S
C1501 H1513 0.930 . S
C1502 C1498 1.524 . S
C1502 H1514 0.956 . S
C1502 H1515 0.961 . S
C1502 H1516 0.961 . S
C1503 C1500 1.539 . S
C1503 H1517 0.958 . S
C1503 H1518 0.961 . S
C1503 H1519 0.960 . S
H1504 C1488 0.931 . S
H1505 C1493 0.929 . S
H1506 C1494 0.960 . S
H1507 C1494 0.962 . S
H1508 C1494 0.960 . S
H1509 C1495 0.961 . S
H1510 C1495 0.961 . S
H1511 C1495 0.961 . S
H1512 C1496 0.931 . S
H1513 C1501 0.930 . S
H1514 C1502 0.956 . S
H1515 C1502 0.961 . S
H1516 C1502 0.961 . S
H1517 C1503 0.958 . S
H1518 C1503 0.961 . S
H1519 C1503 0.960 . S
C1520 C1521 1.391 . S
C1520 C1522 1.394 . S
C1520 H1536 0.931 . S
C1521 C1520 1.391 . S
C1521 C1525 1.376 . S
C1522 C1520 1.394 . S
C1522 C1523 1.369 . S
C1522 C1526 1.531 . S
C1523 C1522 1.369 . S
C1523 C1524 1.410 . S
C1523 C1531 1.503 . S
C1524 C1523 1.410 . S
C1524 C1525 1.392 . S
C1524 C1527 1.511 . S
C1525 C1521 1.376 . S
C1525 C1524 1.392 . S
C1525 H1537 0.929 . S
C1526 C1522 1.531 . S
C1526 H1538 0.960 . S
C1526 H1539 0.962 . S
C1526 H1540 0.960 . S
C1527 C1524 1.511 . S
C1527 H1541 0.961 . S
C1527 H1542 0.961 . S
C1527 H1543 0.961 . S
C1528 C1529 1.370 . S
C1528 C1530 1.363 . S
C1528 H1544 0.931 . S
C1529 C1528 1.370 . S
C1529 C1533 1.408 . S
C1530 C1528 1.363 . S
C1530 C1531 1.370 . S
C1530 C1534 1.524 . S
C1531 C1523 1.503 . S
C1531 C1530 1.370 . S
C1531 C1532 1.403 . S
C1532 C1531 1.403 . S
C1532 C1533 1.404 . S
C1532 C1535 1.539 . S
C1533 C1529 1.408 . S
C1533 C1532 1.404 . S
C1533 H1545 0.930 . S
C1534 C1530 1.524 . S
C1534 H1546 0.956 . S
C1534 H1547 0.961 . S
C1534 H1548 0.961 . S
C1535 C1532 1.539 . S
C1535 H1549 0.958 . S
C1535 H1550 0.961 . S
C1535 H1551 0.960 . S
H1536 C1520 0.931 . S
H1537 C1525 0.929 . S
H1538 C1526 0.960 . S
H1539 C1526 0.962 . S
H1540 C1526 0.960 . S
H1541 C1527 0.961 . S
H1542 C1527 0.961 . S
H1543 C1527 0.961 . S
H1544 C1528 0.931 . S
H1545 C1533 0.930 . S
H1546 C1534 0.956 . S
H1547 C1534 0.961 . S
H1548 C1534 0.961 . S
H1549 C1535 0.958 . S
H1550 C1535 0.961 . S
H1551 C1535 0.960 . S
C1552 C1553 1.391 . S
C1552 C1554 1.394 . S
C1552 H1568 0.931 . S
C1553 C1552 1.391 . S
C1553 C1557 1.376 . S
C1554 C1552 1.394 . S
C1554 C1555 1.369 . S
C1554 C1558 1.531 . S
C1555 C1554 1.369 . S
C1555 C1556 1.410 . S
C1555 C1563 1.503 . S
C1556 C1555 1.410 . S
C1556 C1557 1.392 . S
C1556 C1559 1.511 . S
C1557 C1553 1.376 . S
C1557 C1556 1.392 . S
C1557 H1569 0.929 . S
C1558 C1554 1.531 . S
C1558 H1570 0.960 . S
C1558 H1571 0.962 . S
C1558 H1572 0.960 . S
C1559 C1556 1.511 . S
C1559 H1573 0.961 . S
C1559 H1574 0.961 . S
C1559 H1575 0.961 . S
C1560 C1561 1.370 . S
C1560 C1562 1.363 . S
C1560 H1576 0.931 . S
C1561 C1560 1.370 . S
C1561 C1565 1.408 . S
C1562 C1560 1.363 . S
C1562 C1563 1.370 . S
C1562 C1566 1.524 . S
C1563 C1555 1.503 . S
C1563 C1562 1.370 . S
C1563 C1564 1.403 . S
C1564 C1563 1.403 . S
C1564 C1565 1.404 . S
C1564 C1567 1.539 . S
C1565 C1561 1.408 . S
C1565 C1564 1.404 . S
C1565 H1577 0.930 . S
C1566 C1562 1.524 . S
C1566 H1578 0.956 . S
C1566 H1579 0.961 . S
C1566 H1580 0.961 . S
C1567 C1564 1.539 . S
C1567 H1581 0.958 . S
C1567 H1582 0.961 . S
C1567 H1583 0.960 . S
H1568 C1552 0.931 . S
H1569 C1557 0.929 . S
H1570 C1558 0.960 . S
H1571 C1558 0.962 . S
H1572 C1558 0.960 . S
H1573 C1559 0.961 . S
H1574 C1559 0.961 . S
H1575 C1559 0.961 . S
H1576 C1560 0.931 . S
H1577 C1565 0.930 . S
H1578 C1566 0.956 . S
H1579 C1566 0.961 . S
H1580 C1566 0.961 . S
H1581 C1567 0.958 . S
H1582 C1567 0.961 . S
H1583 C1567 0.960 . S
C1584 C1585 1.391 . S
C1584 C1586 1.394 1_565 S
C1584 H1600 0.931 1_565 S
C1585 C1584 1.391 . S
C1585 C1589 1.376 . S
C1586 C1584 1.394 1_545 S
C1586 C1587 1.369 1_545 S
C1586 C1590 1.531 . S
C1587 C1586 1.369 1_565 S
C1587 C1588 1.410 . S
C1587 C1595 1.503 . S
C1588 C1587 1.410 . S
C1588 C1589 1.392 . S
C1588 C1591 1.511 . S
C1589 C1585 1.376 . S
C1589 C1588 1.392 . S
C1589 H1601 0.929 . S
C1590 C1586 1.531 . S
C1590 H1602 0.960 . S
C1590 H1603 0.962 . S
C1590 H1604 0.960 . S
C1591 C1588 1.511 . S
C1591 H1605 0.961 . S
C1591 H1606 0.961 . S
C1591 H1607 0.961 . S
C1592 C1593 1.370 . S
C1592 C1594 1.363 . S
C1592 H1608 0.931 . S
C1593 C1592 1.370 . S
C1593 C1597 1.408 1_565 S
C1594 C1592 1.363 . S
C1594 C1595 1.370 . S
C1594 C1598 1.524 . S
C1595 C1587 1.503 . S
C1595 C1594 1.370 . S
C1595 C1596 1.403 1_565 S
C1596 C1595 1.403 1_545 S
C1596 C1597 1.404 . S
C1596 C1599 1.539 . S
C1597 C1593 1.408 1_545 S
C1597 C1596 1.404 . S
C1597 H1609 0.930 . S
C1598 C1594 1.524 . S
C1598 H1610 0.956 . S
C1598 H1611 0.961 . S
C1598 H1612 0.961 . S
C1599 C1596 1.539 . S
C1599 H1613 0.958 . S
C1599 H1614 0.961 . S
C1599 H1615 0.960 . S
H1600 C1584 0.931 1_545 S
H1601 C1589 0.929 . S
H1602 C1590 0.960 . S
H1603 C1590 0.962 . S
H1604 C1590 0.960 . S
H1605 C1591 0.961 . S
H1606 C1591 0.961 . S
H1607 C1591 0.961 . S
H1608 C1592 0.931 . S
H1609 C1597 0.930 . S
H1610 C1598 0.956 . S
H1611 C1598 0.961 . S
H1612 C1598 0.961 . S
H1613 C1599 0.958 . S
H1614 C1599 0.961 . S
H1615 C1599 0.960 . S
C1616 C1617 1.391 . S
C1616 C1618 1.394 . S
C1616 H1632 0.931 . S
C1617 C1616 1.391 . S
C1617 C1621 1.376 . S
C1618 C1616 1.394 . S
C1618 C1619 1.369 . S
C1618 C1622 1.531 . S
C1619 C1618 1.369 . S
C1619 C1620 1.410 . S
C1619 C1627 1.503 . S
C1620 C1619 1.410 . S
C1620 C1621 1.392 . S
C1620 C1623 1.511 . S
C1621 C1617 1.376 . S
C1621 C1620 1.392 . S
C1621 H1633 0.929 . S
C1622 C1618 1.531 . S
C1622 H1634 0.960 . S
C1622 H1635 0.962 . S
C1622 H1636 0.960 . S
C1623 C1620 1.511 . S
C1623 H1637 0.961 . S
C1623 H1638 0.961 . S
C1623 H1639 0.961 . S
C1624 C1625 1.370 . S
C1624 C1626 1.363 . S
C1624 H1640 0.931 . S
C1625 C1624 1.370 . S
C1625 C1629 1.408 . S
C1626 C1624 1.363 . S
C1626 C1627 1.370 . S
C1626 C1630 1.524 . S
C1627 C1619 1.503 . S
C1627 C1626 1.370 . S
C1627 C1628 1.403 . S
C1628 C1627 1.403 . S
C1628 C1629 1.404 . S
C1628 C1631 1.539 . S
C1629 C1625 1.408 . S
C1629 C1628 1.404 . S
C1629 H1641 0.930 . S
C1630 C1626 1.524 . S
C1630 H1642 0.956 . S
C1630 H1643 0.961 . S
C1630 H1644 0.961 . S
C1631 C1628 1.539 . S
C1631 H1645 0.958 . S
C1631 H1646 0.961 . S
C1631 H1647 0.960 . S
H1632 C1616 0.931 . S
H1633 C1621 0.929 . S
H1634 C1622 0.960 . S
H1635 C1622 0.962 . S
H1636 C1622 0.960 . S
H1637 C1623 0.961 . S
H1638 C1623 0.961 . S
H1639 C1623 0.961 . S
H1640 C1624 0.931 . S
H1641 C1629 0.930 . S
H1642 C1630 0.956 . S
H1643 C1630 0.961 . S
H1644 C1630 0.961 . S
H1645 C1631 0.958 . S
H1646 C1631 0.961 . S
H1647 C1631 0.960 . S
C1648 C1649 1.391 . S
C1648 C1650 1.394 . S
C1648 H1664 0.931 . S
C1649 C1648 1.391 . S
C1649 C1653 1.376 . S
C1650 C1648 1.394 . S
C1650 C1651 1.369 . S
C1650 C1654 1.531 . S
C1651 C1650 1.369 . S
C1651 C1652 1.410 . S
C1651 C1659 1.503 . S
C1652 C1651 1.410 . S
C1652 C1653 1.392 . S
C1652 C1655 1.511 . S
C1653 C1649 1.376 . S
C1653 C1652 1.392 . S
C1653 H1665 0.929 . S
C1654 C1650 1.531 . S
C1654 H1666 0.960 . S
C1654 H1667 0.962 . S
C1654 H1668 0.960 . S
C1655 C1652 1.511 . S
C1655 H1669 0.961 . S
C1655 H1670 0.961 . S
C1655 H1671 0.961 . S
C1656 C1657 1.370 . S
C1656 C1658 1.363 . S
C1656 H1672 0.931 . S
C1657 C1656 1.370 . S
C1657 C1661 1.408 . S
C1658 C1656 1.363 . S
C1658 C1659 1.370 . S
C1658 C1662 1.524 . S
C1659 C1651 1.503 . S
C1659 C1658 1.370 . S
C1659 C1660 1.403 . S
C1660 C1659 1.403 . S
C1660 C1661 1.404 . S
C1660 C1663 1.539 . S
C1661 C1657 1.408 . S
C1661 C1660 1.404 . S
C1661 H1673 0.930 . S
C1662 C1658 1.524 . S
C1662 H1674 0.956 . S
C1662 H1675 0.961 . S
C1662 H1676 0.961 . S
C1663 C1660 1.539 . S
C1663 H1677 0.958 . S
C1663 H1678 0.961 . S
C1663 H1679 0.960 . S
H1664 C1648 0.931 . S
H1665 C1653 0.929 . S
H1666 C1654 0.960 . S
H1667 C1654 0.962 . S
H1668 C1654 0.960 . S
H1669 C1655 0.961 . S
H1670 C1655 0.961 . S
H1671 C1655 0.961 . S
H1672 C1656 0.931 . S
H1673 C1661 0.930 . S
H1674 C1662 0.956 . S
H1675 C1662 0.961 . S
H1676 C1662 0.961 . S
H1677 C1663 0.958 . S
H1678 C1663 0.961 . S
H1679 C1663 0.960 . S
C1680 C1681 1.391 . S
C1680 C1682 1.394 . S
C1680 H1696 0.931 . S
C1681 C1680 1.391 . S
C1681 C1685 1.376 . S
C1682 C1680 1.394 . S
C1682 C1683 1.369 . S
C1682 C1686 1.531 . S
C1683 C1682 1.369 . S
C1683 C1684 1.410 . S
C1683 C1691 1.503 . S
C1684 C1683 1.410 . S
C1684 C1685 1.392 . S
C1684 C1687 1.511 . S
C1685 C1681 1.376 . S
C1685 C1684 1.392 . S
C1685 H1697 0.929 . S
C1686 C1682 1.531 . S
C1686 H1698 0.960 . S
C1686 H1699 0.962 . S
C1686 H1700 0.960 . S
C1687 C1684 1.511 . S
C1687 H1701 0.961 . S
C1687 H1702 0.961 . S
C1687 H1703 0.961 . S
C1688 C1689 1.370 . S
C1688 C1690 1.363 . S
C1688 H1704 0.931 . S
C1689 C1688 1.370 . S
C1689 C1693 1.408 . S
C1690 C1688 1.363 . S
C1690 C1691 1.370 . S
C1690 C1694 1.524 . S
C1691 C1683 1.503 . S
C1691 C1690 1.370 . S
C1691 C1692 1.403 . S
C1692 C1691 1.403 . S
C1692 C1693 1.404 . S
C1692 C1695 1.539 . S
C1693 C1689 1.408 . S
C1693 C1692 1.404 . S
C1693 H1705 0.930 . S
C1694 C1690 1.524 . S
C1694 H1706 0.956 . S
C1694 H1707 0.961 . S
C1694 H1708 0.961 . S
C1695 C1692 1.539 . S
C1695 H1709 0.958 . S
C1695 H1710 0.961 . S
C1695 H1711 0.960 . S
H1696 C1680 0.931 . S
H1697 C1685 0.929 . S
H1698 C1686 0.960 . S
H1699 C1686 0.962 . S
H1700 C1686 0.960 . S
H1701 C1687 0.961 . S
H1702 C1687 0.961 . S
H1703 C1687 0.961 . S
H1704 C1688 0.931 . S
H1705 C1693 0.930 . S
H1706 C1694 0.956 . S
H1707 C1694 0.961 . S
H1708 C1694 0.961 . S
H1709 C1695 0.958 . S
H1710 C1695 0.961 . S
H1711 C1695 0.960 . S
C1712 C1713 1.391 . S
C1712 C1714 1.394 . S
C1712 H1728 0.931 . S
C1713 C1712 1.391 . S
C1713 C1717 1.376 . S
C1714 C1712 1.394 . S
C1714 C1715 1.369 . S
C1714 C1718 1.531 . S
C1715 C1714 1.369 . S
C1715 C1716 1.410 . S
C1715 C1723 1.503 . S
C1716 C1715 1.410 . S
C1716 C1717 1.392 . S
C1716 C1719 1.511 . S
C1717 C1713 1.376 . S
C1717 C1716 1.392 . S
C1717 H1729 0.929 . S
C1718 C1714 1.531 . S
C1718 H1730 0.960 . S
C1718 H1731 0.962 . S
C1718 H1732 0.960 . S
C1719 C1716 1.511 . S
C1719 H1733 0.961 . S
C1719 H1734 0.961 . S
C1719 H1735 0.961 . S
C1720 C1721 1.370 . S
C1720 C1722 1.363 . S
C1720 H1736 0.931 . S
C1721 C1720 1.370 . S
C1721 C1725 1.408 . S
C1722 C1720 1.363 . S
C1722 C1723 1.370 . S
C1722 C1726 1.524 . S
C1723 C1715 1.503 . S
C1723 C1722 1.370 . S
C1723 C1724 1.403 . S
C1724 C1723 1.403 . S
C1724 C1725 1.404 . S
C1724 C1727 1.539 . S
C1725 C1721 1.408 . S
C1725 C1724 1.404 . S
C1725 H1737 0.930 . S
C1726 C1722 1.524 . S
C1726 H1738 0.956 . S
C1726 H1739 0.961 . S
C1726 H1740 0.961 . S
C1727 C1724 1.539 . S
C1727 H1741 0.958 . S
C1727 H1742 0.961 . S
C1727 H1743 0.960 . S
H1728 C1712 0.931 . S
H1729 C1717 0.929 . S
H1730 C1718 0.960 . S
H1731 C1718 0.962 . S
H1732 C1718 0.960 . S
H1733 C1719 0.961 . S
H1734 C1719 0.961 . S
H1735 C1719 0.961 . S
H1736 C1720 0.931 . S
H1737 C1725 0.930 . S
H1738 C1726 0.956 . S
H1739 C1726 0.961 . S
H1740 C1726 0.961 . S
H1741 C1727 0.958 . S
H1742 C1727 0.961 . S
H1743 C1727 0.960 . S
C1744 C1745 1.391 . S
C1744 C1746 1.394 . S
C1744 H1760 0.931 . S
C1745 C1744 1.391 . S
C1745 C1749 1.376 . S
C1746 C1744 1.394 . S
C1746 C1747 1.369 . S
C1746 C1750 1.531 . S
C1747 C1746 1.369 . S
C1747 C1748 1.410 . S
C1747 C1755 1.503 . S
C1748 C1747 1.410 . S
C1748 C1749 1.392 . S
C1748 C1751 1.511 . S
C1749 C1745 1.376 . S
C1749 C1748 1.392 . S
C1749 H1761 0.929 . S
C1750 C1746 1.531 . S
C1750 H1762 0.960 . S
C1750 H1763 0.962 . S
C1750 H1764 0.960 . S
C1751 C1748 1.511 . S
C1751 H1765 0.961 . S
C1751 H1766 0.961 . S
C1751 H1767 0.961 . S
C1752 C1753 1.370 . S
C1752 C1754 1.363 . S
C1752 H1768 0.931 . S
C1753 C1752 1.370 . S
C1753 C1757 1.408 . S
C1754 C1752 1.363 . S
C1754 C1755 1.370 . S
C1754 C1758 1.524 . S
C1755 C1747 1.503 . S
C1755 C1754 1.370 . S
C1755 C1756 1.403 . S
C1756 C1755 1.403 . S
C1756 C1757 1.404 . S
C1756 C1759 1.539 . S
C1757 C1753 1.408 . S
C1757 C1756 1.404 . S
C1757 H1769 0.930 . S
C1758 C1754 1.524 . S
C1758 H1770 0.956 . S
C1758 H1771 0.961 . S
C1758 H1772 0.961 . S
C1759 C1756 1.539 . S
C1759 H1773 0.958 . S
C1759 H1774 0.961 . S
C1759 H1775 0.960 . S
H1760 C1744 0.931 . S
H1761 C1749 0.929 . S
H1762 C1750 0.960 . S
H1763 C1750 0.962 . S
H1764 C1750 0.960 . S
H1765 C1751 0.961 . S
H1766 C1751 0.961 . S
H1767 C1751 0.961 . S
H1768 C1752 0.931 . S
H1769 C1757 0.930 . S
H1770 C1758 0.956 . S
H1771 C1758 0.961 . S
H1772 C1758 0.961 . S
H1773 C1759 0.958 . S
H1774 C1759 0.961 . S
H1775 C1759 0.960 . S
C1776 C1777 1.391 . S
C1776 C1778 1.394 . S
C1776 H1792 0.931 . S
C1777 C1776 1.391 . S
C1777 C1781 1.376 . S
C1778 C1776 1.394 . S
C1778 C1779 1.369 . S
C1778 C1782 1.531 . S
C1779 C1778 1.369 . S
C1779 C1780 1.410 . S
C1779 C1787 1.503 . S
C1780 C1779 1.410 . S
C1780 C1781 1.392 . S
C1780 C1783 1.511 . S
C1781 C1777 1.376 . S
C1781 C1780 1.392 . S
C1781 H1793 0.929 . S
C1782 C1778 1.531 . S
C1782 H1794 0.960 . S
C1782 H1795 0.962 . S
C1782 H1796 0.960 . S
C1783 C1780 1.511 . S
C1783 H1797 0.961 . S
C1783 H1798 0.961 . S
C1783 H1799 0.961 . S
C1784 C1785 1.370 . S
C1784 C1786 1.363 . S
C1784 H1800 0.931 . S
C1785 C1784 1.370 . S
C1785 C1789 1.408 . S
C1786 C1784 1.363 . S
C1786 C1787 1.370 . S
C1786 C1790 1.524 . S
C1787 C1779 1.503 . S
C1787 C1786 1.370 . S
C1787 C1788 1.403 . S
C1788 C1787 1.403 . S
C1788 C1789 1.404 . S
C1788 C1791 1.539 . S
C1789 C1785 1.408 . S
C1789 C1788 1.404 . S
C1789 H1801 0.930 . S
C1790 C1786 1.524 . S
C1790 H1802 0.956 . S
C1790 H1803 0.961 . S
C1790 H1804 0.961 . S
C1791 C1788 1.539 . S
C1791 H1805 0.958 . S
C1791 H1806 0.961 . S
C1791 H1807 0.960 . S
H1792 C1776 0.931 . S
H1793 C1781 0.929 . S
H1794 C1782 0.960 . S
H1795 C1782 0.962 . S
H1796 C1782 0.960 . S
H1797 C1783 0.961 . S
H1798 C1783 0.961 . S
H1799 C1783 0.961 . S
H1800 C1784 0.931 . S
H1801 C1789 0.930 . S
H1802 C1790 0.956 . S
H1803 C1790 0.961 . S
H1804 C1790 0.961 . S
H1805 C1791 0.958 . S
H1806 C1791 0.961 . S
H1807 C1791 0.960 . S
C1808 C1809 1.391 . S
C1808 C1810 1.394 . S
C1808 H1824 0.931 . S
C1809 C1808 1.391 . S
C1809 C1813 1.376 . S
C1810 C1808 1.394 . S
C1810 C1811 1.369 . S
C1810 C1814 1.531 . S
C1811 C1810 1.369 . S
C1811 C1812 1.410 . S
C1811 C1819 1.503 . S
C1812 C1811 1.410 . S
C1812 C1813 1.392 . S
C1812 C1815 1.511 . S
C1813 C1809 1.376 . S
C1813 C1812 1.392 . S
C1813 H1825 0.929 . S
C1814 C1810 1.531 . S
C1814 H1826 0.960 . S
C1814 H1827 0.962 . S
C1814 H1828 0.960 . S
C1815 C1812 1.511 . S
C1815 H1829 0.961 . S
C1815 H1830 0.961 . S
C1815 H1831 0.961 . S
C1816 C1817 1.370 . S
C1816 C1818 1.363 . S
C1816 H1832 0.931 . S
C1817 C1816 1.370 . S
C1817 C1821 1.408 . S
C1818 C1816 1.363 . S
C1818 C1819 1.370 . S
C1818 C1822 1.524 . S
C1819 C1811 1.503 . S
C1819 C1818 1.370 . S
C1819 C1820 1.403 . S
C1820 C1819 1.403 . S
C1820 C1821 1.404 . S
C1820 C1823 1.539 . S
C1821 C1817 1.408 . S
C1821 C1820 1.404 . S
C1821 H1833 0.930 . S
C1822 C1818 1.524 . S
C1822 H1834 0.956 . S
C1822 H1835 0.961 . S
C1822 H1836 0.961 . S
C1823 C1820 1.539 . S
C1823 H1837 0.958 . S
C1823 H1838 0.961 . S
C1823 H1839 0.960 . S
H1824 C1808 0.931 . S
H1825 C1813 0.929 . S
H1826 C1814 0.960 . S
H1827 C1814 0.962 . S
H1828 C1814 0.960 . S
H1829 C1815 0.961 . S
H1830 C1815 0.961 . S
H1831 C1815 0.961 . S
H1832 C1816 0.931 . S
H1833 C1821 0.930 . S
H1834 C1822 0.956 . S
H1835 C1822 0.961 . S
H1836 C1822 0.961 . S
H1837 C1823 0.958 . S
H1838 C1823 0.961 . S
H1839 C1823 0.960 . S
C1840 C1841 1.391 . S
C1840 C1842 1.394 . S
C1840 H1856 0.931 . S
C1841 C1840 1.391 . S
C1841 C1845 1.376 . S
C1842 C1840 1.394 . S
C1842 C1843 1.369 . S
C1842 C1846 1.531 . S
C1843 C1842 1.369 . S
C1843 C1844 1.410 . S
C1843 C1851 1.503 . S
C1844 C1843 1.410 . S
C1844 C1845 1.392 . S
C1844 C1847 1.511 . S
C1845 C1841 1.376 . S
C1845 C1844 1.392 . S
C1845 H1857 0.929 . S
C1846 C1842 1.531 . S
C1846 H1858 0.960 1_655 S
C1846 H1859 0.962 . S
C1846 H1860 0.960 1_655 S
C1847 C1844 1.511 . S
C1847 H1861 0.961 . S
C1847 H1862 0.961 . S
C1847 H1863 0.961 . S
C1848 C1849 1.370 . S
C1848 C1850 1.363 . S
C1848 H1864 0.931 . S
C1849 C1848 1.370 . S
C1849 C1853 1.408 . S
C1850 C1848 1.363 . S
C1850 C1851 1.370 . S
C1850 C1854 1.524 . S
C1851 C1843 1.503 . S
C1851 C1850 1.370 . S
C1851 C1852 1.403 . S
C1852 C1851 1.403 . S
C1852 C1853 1.404 . S
C1852 C1855 1.539 1_655 S
C1853 C1849 1.408 . S
C1853 C1852 1.404 . S
C1853 H1865 0.930 1_655 S
C1854 C1850 1.524 . S
C1854 H1866 0.956 . S
C1854 H1867 0.961 . S
C1854 H1868 0.961 . S
C1855 C1852 1.539 1_455 S
C1855 H1869 0.958 . S
C1855 H1870 0.961 . S
C1855 H1871 0.960 . S
H1856 C1840 0.931 . S
H1857 C1845 0.929 . S
H1858 C1846 0.960 1_455 S
H1859 C1846 0.962 . S
H1860 C1846 0.960 1_455 S
H1861 C1847 0.961 . S
H1862 C1847 0.961 . S
H1863 C1847 0.961 . S
H1864 C1848 0.931 . S
H1865 C1853 0.930 1_455 S
H1866 C1854 0.956 . S
H1867 C1854 0.961 . S
H1868 C1854 0.961 . S
H1869 C1855 0.958 . S
H1870 C1855 0.961 . S
H1871 C1855 0.960 . S
C1872 C1873 1.391 . S
C1872 C1874 1.394 . S
C1872 H1888 0.931 . S
C1873 C1872 1.391 . S
C1873 C1877 1.376 . S
C1874 C1872 1.394 . S
C1874 C1875 1.369 . S
C1874 C1878 1.531 . S
C1875 C1874 1.369 . S
C1875 C1876 1.410 . S
C1875 C1883 1.503 . S
C1876 C1875 1.410 . S
C1876 C1877 1.392 . S
C1876 C1879 1.511 . S
C1877 C1873 1.376 . S
C1877 C1876 1.392 . S
C1877 H1889 0.929 . S
C1878 C1874 1.531 . S
C1878 H1890 0.960 . S
C1878 H1891 0.962 . S
C1878 H1892 0.960 . S
C1879 C1876 1.511 . S
C1879 H1893 0.961 . S
C1879 H1894 0.961 . S
C1879 H1895 0.961 . S
C1880 C1881 1.370 . S
C1880 C1882 1.363 . S
C1880 H1896 0.931 . S
C1881 C1880 1.370 . S
C1881 C1885 1.408 . S
C1882 C1880 1.363 . S
C1882 C1883 1.370 . S
C1882 C1886 1.524 . S
C1883 C1875 1.503 . S
C1883 C1882 1.370 . S
C1883 C1884 1.403 . S
C1884 C1883 1.403 . S
C1884 C1885 1.404 . S
C1884 C1887 1.539 . S
C1885 C1881 1.408 . S
C1885 C1884 1.404 . S
C1885 H1897 0.930 . S
C1886 C1882 1.524 . S
C1886 H1898 0.956 . S
C1886 H1899 0.961 . S
C1886 H1900 0.961 . S
C1887 C1884 1.539 . S
C1887 H1901 0.958 . S
C1887 H1902 0.961 . S
C1887 H1903 0.960 . S
H1888 C1872 0.931 . S
H1889 C1877 0.929 . S
H1890 C1878 0.960 . S
H1891 C1878 0.962 . S
H1892 C1878 0.960 . S
H1893 C1879 0.961 . S
H1894 C1879 0.961 . S
H1895 C1879 0.961 . S
H1896 C1880 0.931 . S
H1897 C1885 0.930 . S
H1898 C1886 0.956 . S
H1899 C1886 0.961 . S
H1900 C1886 0.961 . S
H1901 C1887 0.958 . S
H1902 C1887 0.961 . S
H1903 C1887 0.960 . S
C1904 C1905 1.391 . S
C1904 C1906 1.394 . S
C1904 H1920 0.931 . S
C1905 C1904 1.391 . S
C1905 C1909 1.376 . S
C1906 C1904 1.394 . S
C1906 C1907 1.369 . S
C1906 C1910 1.531 . S
C1907 C1906 1.369 . S
C1907 C1908 1.410 . S
C1907 C1915 1.503 . S
C1908 C1907 1.410 . S
C1908 C1909 1.392 . S
C1908 C1911 1.511 . S
C1909 C1905 1.376 . S
C1909 C1908 1.392 . S
C1909 H1921 0.929 . S
C1910 C1906 1.531 . S
C1910 H1922 0.960 . S
C1910 H1923 0.962 . S
C1910 H1924 0.960 . S
C1911 C1908 1.511 . S
C1911 H1925 0.961 . S
C1911 H1926 0.961 . S
C1911 H1927 0.961 . S
C1912 C1913 1.370 . S
C1912 C1914 1.363 . S
C1912 H1928 0.931 . S
C1913 C1912 1.370 . S
C1913 C1917 1.408 . S
C1914 C1912 1.363 . S
C1914 C1915 1.370 . S
C1914 C1918 1.524 . S
C1915 C1907 1.503 . S
C1915 C1914 1.370 . S
C1915 C1916 1.403 . S
C1916 C1915 1.403 . S
C1916 C1917 1.404 . S
C1916 C1919 1.539 . S
C1917 C1913 1.408 . S
C1917 C1916 1.404 . S
C1917 H1929 0.930 . S
C1918 C1914 1.524 . S
C1918 H1930 0.956 . S
C1918 H1931 0.961 . S
C1918 H1932 0.961 . S
C1919 C1916 1.539 . S
C1919 H1933 0.958 . S
C1919 H1934 0.961 . S
C1919 H1935 0.960 . S
H1920 C1904 0.931 . S
H1921 C1909 0.929 . S
H1922 C1910 0.960 . S
H1923 C1910 0.962 . S
H1924 C1910 0.960 . S
H1925 C1911 0.961 . S
H1926 C1911 0.961 . S
H1927 C1911 0.961 . S
H1928 C1912 0.931 . S
H1929 C1917 0.930 . S
H1930 C1918 0.956 . S
H1931 C1918 0.961 . S
H1932 C1918 0.961 . S
H1933 C1919 0.958 . S
H1934 C1919 0.961 . S
H1935 C1919 0.960 . S
C1936 C1937 1.391 . S
C1936 C1938 1.394 1_556 S
C1936 H1952 0.931 1_556 S
C1937 C1936 1.391 . S
C1937 C1941 1.376 . S
C1938 C1936 1.394 1_554 S
C1938 C1939 1.369 1_544 S
C1938 C1942 1.531 1_545 S
C1939 C1938 1.369 1_566 S
C1939 C1940 1.410 1_565 S
C1939 C1947 1.503 1_556 S
C1940 C1939 1.410 1_545 S
C1940 C1941 1.392 . S
C1940 C1943 1.511 1_545 S
C1941 C1937 1.376 . S
C1941 C1940 1.392 . S
C1941 H1953 0.929 . S
C1942 C1938 1.531 1_565 S
C1942 H1954 0.960 . S
C1942 H1955 0.962 . S
C1942 H1956 0.960 1_565 S
C1943 C1940 1.511 1_565 S
C1943 H1957 0.961 . S
C1943 H1958 0.961 . S
C1943 H1959 0.961 1_565 S
C1944 C1945 1.370 . S
C1944 C1946 1.330 1_554 S
C1944 H1960 0.931 . S
C1945 C1944 1.370 . S
C1945 C1949 1.408 . S
C1946 C1944 1.330 1_556 S
C1946 C1947 1.365 1_556 S
C1946 C1950 1.565 . S
C1947 C1939 1.503 1_554 S
C1947 C1946 1.365 1_554 S
C1947 C1948 1.403 . S
C1948 C1947 1.403 . S
C1948 C1949 1.404 . S
C1948 C1951 1.539 1_565 S
C1949 C1945 1.408 . S
C1949 C1948 1.404 . S
C1949 H1961 0.930 . S
C1950 C1946 1.565 . S
C1950 H1962 0.956 . S
C1950 H1963 0.961 . S
C1950 H1964 0.961 . S
C1951 C1948 1.539 1_545 S
C1951 H1965 0.958 . S
C1951 H1966 0.961 . S
C1951 H1967 0.960 . S
H1952 C1936 0.931 1_554 S
H1953 C1941 0.929 . S
H1954 C1942 0.960 . S
H1955 C1942 0.962 . S
H1956 C1942 0.960 1_545 S
H1957 C1943 0.961 . S
H1958 C1943 0.961 . S
H1959 C1943 0.961 1_545 S
H1960 C1944 0.931 . S
H1961 C1949 0.930 . S
H1962 C1950 0.956 . S
H1963 C1950 0.961 . S
H1964 C1950 0.961 . S
H1965 C1951 0.958 . S
H1966 C1951 0.961 . S
H1967 C1951 0.960 . S
C1968 C1969 1.391 . S
C1968 C1970 1.394 . S
C1968 H1984 0.931 . S
C1969 C1968 1.391 . S
C1969 C1973 1.376 . S
C1970 C1968 1.394 . S
C1970 C1971 1.369 . S
C1970 C1974 1.531 . S
C1971 C1970 1.369 . S
C1971 C1972 1.410 . S
C1971 C1979 1.503 . S
C1972 C1971 1.410 . S
C1972 C1973 1.392 . S
C1972 C1975 1.511 . S
C1973 C1969 1.376 . S
C1973 C1972 1.392 . S
C1973 H1985 0.929 . S
C1974 C1970 1.531 . S
C1974 H1986 0.960 . S
C1974 H1987 0.962 . S
C1974 H1988 0.960 . S
C1975 C1972 1.511 . S
C1975 H1989 0.961 . S
C1975 H1990 0.961 . S
C1975 H1991 0.961 . S
C1976 C1977 1.370 . S
C1976 C1978 1.363 . S
C1976 H1992 0.931 . S
C1977 C1976 1.370 . S
C1977 C1981 1.408 . S
C1978 C1976 1.363 . S
C1978 C1979 1.370 . S
C1978 C1982 1.524 . S
C1979 C1971 1.503 . S
C1979 C1978 1.370 . S
C1979 C1980 1.403 . S
C1980 C1979 1.403 . S
C1980 C1981 1.404 . S
C1980 C1983 1.539 . S
C1981 C1977 1.408 . S
C1981 C1980 1.404 . S
C1981 H1993 0.930 . S
C1982 C1978 1.524 . S
C1982 H1994 0.956 . S
C1982 H1995 0.961 . S
C1982 H1996 0.961 . S
C1983 C1980 1.539 . S
C1983 H1997 0.958 . S
C1983 H1998 0.961 . S
C1983 H1999 0.960 . S
H1984 C1968 0.931 . S
H1985 C1973 0.929 . S
H1986 C1974 0.960 . S
H1987 C1974 0.962 . S
H1988 C1974 0.960 . S
H1989 C1975 0.961 . S
H1990 C1975 0.961 . S
H1991 C1975 0.961 . S
H1992 C1976 0.931 . S
H1993 C1981 0.930 . S
H1994 C1982 0.956 . S
H1995 C1982 0.961 . S
H1996 C1982 0.961 . S
H1997 C1983 0.958 . S
H1998 C1983 0.961 . S
H1999 C1983 0.960 . S
C2000 C2001 1.391 . S
C2000 C2002 1.394 . S
C2000 H2016 0.931 . S
C2001 C2000 1.391 . S
C2001 C2005 1.376 . S
C2002 C2000 1.394 . S
C2002 C2003 1.369 . S
C2002 C2006 1.531 . S
C2003 C2002 1.369 . S
C2003 C2004 1.410 . S
C2003 C2011 1.503 . S
C2004 C2003 1.410 . S
C2004 C2005 1.392 . S
C2004 C2007 1.511 . S
C2005 C2001 1.376 . S
C2005 C2004 1.392 . S
C2005 H2017 0.929 1_545 S
C2006 C2002 1.531 . S
C2006 H2018 0.960 . S
C2006 H2019 0.962 . S
C2006 H2020 0.960 . S
C2007 C2004 1.511 . S
C2007 H2021 0.961 . S
C2007 H2022 0.961 . S
C2007 H2023 0.961 . S
C2008 C2009 1.370 . S
C2008 C2010 1.363 . S
C2008 H2024 0.931 . S
C2009 C2008 1.370 . S
C2009 C2013 1.408 . S
C2010 C2008 1.363 . S
C2010 C2011 1.370 . S
C2010 C2014 1.524 . S
C2011 C2003 1.503 . S
C2011 C2010 1.370 . S
C2011 C2012 1.403 . S
C2012 C2011 1.403 . S
C2012 C2013 1.404 . S
C2012 C2015 1.539 . S
C2013 C2009 1.408 . S
C2013 C2012 1.404 . S
C2013 H2025 0.930 . S
C2014 C2010 1.524 . S
C2014 H2026 0.956 . S
C2014 H2027 0.961 . S
C2014 H2028 0.961 . S
C2015 C2012 1.539 . S
C2015 H2029 0.958 . S
C2015 H2030 0.961 . S
C2015 H2031 0.960 . S
H2016 C2000 0.931 . S
H2017 C2005 0.929 1_565 S
H2018 C2006 0.960 . S
H2019 C2006 0.962 . S
H2020 C2006 0.960 . S
H2021 C2007 0.961 . S
H2022 C2007 0.961 . S
H2023 C2007 0.961 . S
H2024 C2008 0.931 . S
H2025 C2013 0.930 . S
H2026 C2014 0.956 . S
H2027 C2014 0.961 . S
H2028 C2014 0.961 . S
H2029 C2015 0.958 . S
H2030 C2015 0.961 . S
H2031 C2015 0.960 . S
C2032 C2033 1.391 . S
C2032 C2034 1.394 . S
C2032 H2048 0.931 . S
C2033 C2032 1.391 . S
C2033 C2037 1.376 . S
C2034 C2032 1.394 . S
C2034 C2035 1.369 . S
C2034 C2038 1.531 . S
C2035 C2034 1.369 . S
C2035 C2036 1.410 . S
C2035 C2043 1.503 . S
C2036 C2035 1.410 . S
C2036 C2037 1.392 . S
C2036 C2039 1.511 . S
C2037 C2033 1.376 . S
C2037 C2036 1.392 . S
C2037 H2049 0.929 . S
C2038 C2034 1.531 . S
C2038 H2050 0.960 . S
C2038 H2051 0.962 . S
C2038 H2052 0.960 . S
C2039 C2036 1.511 . S
C2039 H2053 0.961 . S
C2039 H2054 0.961 . S
C2039 H2055 0.961 . S
C2040 C2041 1.370 . S
C2040 C2042 1.363 . S
C2040 H2056 0.931 . S
C2041 C2040 1.370 . S
C2041 C2045 1.408 . S
C2042 C2040 1.363 . S
C2042 C2043 1.370 . S
C2042 C2046 1.524 . S
C2043 C2035 1.503 . S
C2043 C2042 1.370 . S
C2043 C2044 1.403 . S
C2044 C2043 1.403 . S
C2044 C2045 1.404 . S
C2044 C2047 1.539 . S
C2045 C2041 1.408 . S
C2045 C2044 1.404 . S
C2045 H2057 0.930 . S
C2046 C2042 1.524 . S
C2046 H2058 0.956 . S
C2046 H2059 0.961 . S
C2046 H2060 0.961 . S
C2047 C2044 1.539 . S
C2047 H2061 0.958 . S
C2047 H2062 0.961 . S
C2047 H2063 0.960 . S
H2048 C2032 0.931 . S
H2049 C2037 0.929 . S
H2050 C2038 0.960 . S
H2051 C2038 0.962 . S
H2052 C2038 0.960 . S
H2053 C2039 0.961 . S
H2054 C2039 0.961 . S
H2055 C2039 0.961 . S
H2056 C2040 0.931 . S
H2057 C2045 0.930 . S
H2058 C2046 0.956 . S
H2059 C2046 0.961 . S
H2060 C2046 0.961 . S
H2061 C2047 0.958 . S
H2062 C2047 0.961 . S
H2063 C2047 0.960 . S
C2064 C2065 1.391 . S
C2064 C2066 1.394 . S
C2064 H2080 0.931 . S
C2065 C2064 1.391 . S
C2065 C2069 1.376 . S
C2066 C2064 1.394 . S
C2066 C2067 1.369 . S
C2066 C2070 1.531 . S
C2067 C2066 1.369 . S
C2067 C2068 1.410 . S
C2067 C2075 1.503 . S
C2068 C2067 1.410 . S
C2068 C2069 1.392 . S
C2068 C2071 1.511 . S
C2069 C2065 1.376 . S
C2069 C2068 1.392 . S
C2069 H2081 0.929 . S
C2070 C2066 1.531 . S
C2070 H2082 0.960 . S
C2070 H2083 0.962 . S
C2070 H2084 0.960 . S
C2071 C2068 1.511 . S
C2071 H2085 0.961 . S
C2071 H2086 0.961 . S
C2071 H2087 0.961 . S
C2072 C2073 1.370 . S
C2072 C2074 1.363 . S
C2072 H2088 0.931 . S
C2073 C2072 1.370 . S
C2073 C2077 1.408 . S
C2074 C2072 1.363 . S
C2074 C2075 1.370 . S
C2074 C2078 1.524 . S
C2075 C2067 1.503 . S
C2075 C2074 1.370 . S
C2075 C2076 1.403 . S
C2076 C2075 1.403 . S
C2076 C2077 1.404 . S
C2076 C2079 1.539 . S
C2077 C2073 1.408 . S
C2077 C2076 1.404 . S
C2077 H2089 0.930 . S
C2078 C2074 1.524 . S
C2078 H2090 0.956 . S
C2078 H2091 0.961 . S
C2078 H2092 0.961 . S
C2079 C2076 1.539 . S
C2079 H2093 0.958 . S
C2079 H2094 0.961 . S
C2079 H2095 0.960 . S
H2080 C2064 0.931 . S
H2081 C2069 0.929 . S
H2082 C2070 0.960 . S
H2083 C2070 0.962 . S
H2084 C2070 0.960 . S
H2085 C2071 0.961 . S
H2086 C2071 0.961 . S
H2087 C2071 0.961 . S
H2088 C2072 0.931 . S
H2089 C2077 0.930 . S
H2090 C2078 0.956 . S
H2091 C2078 0.961 . S
H2092 C2078 0.961 . S
H2093 C2079 0.958 . S
H2094 C2079 0.961 . S
H2095 C2079 0.960 . S
C2096 C2097 1.391 . S
C2096 C2098 1.394 . S
C2096 H2112 0.931 . S
C2097 C2096 1.391 . S
C2097 C2101 1.376 . S
C2098 C2096 1.394 . S
C2098 C2099 1.369 . S
C2098 C2102 1.531 . S
C2099 C2098 1.369 . S
C2099 C2100 1.410 . S
C2099 C2107 1.503 . S
C2100 C2099 1.410 . S
C2100 C2101 1.392 . S
C2100 C2103 1.511 . S
C2101 C2097 1.376 . S
C2101 C2100 1.392 . S
C2101 H2113 0.929 . S
C2102 C2098 1.531 . S
C2102 H2114 0.960 . S
C2102 H2115 0.962 . S
C2102 H2116 0.960 . S
C2103 C2100 1.511 . S
C2103 H2117 0.961 . S
C2103 H2118 0.961 . S
C2103 H2119 0.961 . S
C2104 C2105 1.370 . S
C2104 C2106 1.363 . S
C2104 H2120 0.931 . S
C2105 C2104 1.370 . S
C2105 C2109 1.408 . S
C2106 C2104 1.363 . S
C2106 C2107 1.370 . S
C2106 C2110 1.524 . S
C2107 C2099 1.503 . S
C2107 C2106 1.370 . S
C2107 C2108 1.403 . S
C2108 C2107 1.403 . S
C2108 C2109 1.404 . S
C2108 C2111 1.539 . S
C2109 C2105 1.408 . S
C2109 C2108 1.404 . S
C2109 H2121 0.930 . S
C2110 C2106 1.524 . S
C2110 H2122 0.956 . S
C2110 H2123 0.961 . S
C2110 H2124 0.961 . S
C2111 C2108 1.539 . S
C2111 H2125 0.958 . S
C2111 H2126 0.961 . S
C2111 H2127 0.960 . S
H2112 C2096 0.931 . S
H2113 C2101 0.929 . S
H2114 C2102 0.960 . S
H2115 C2102 0.962 . S
H2116 C2102 0.960 . S
H2117 C2103 0.961 . S
H2118 C2103 0.961 . S
H2119 C2103 0.961 . S
H2120 C2104 0.931 . S
H2121 C2109 0.930 . S
H2122 C2110 0.956 . S
H2123 C2110 0.961 . S
H2124 C2110 0.961 . S
H2125 C2111 0.958 . S
H2126 C2111 0.961 . S
H2127 C2111 0.960 . S
C2128 C2129 1.391 . S
C2128 C2130 1.394 . S
C2128 H2144 0.931 . S
C2129 C2128 1.391 . S
C2129 C2133 1.376 . S
C2130 C2128 1.394 . S
C2130 C2131 1.369 . S
C2130 C2134 1.531 . S
C2131 C2130 1.369 . S
C2131 C2132 1.410 . S
C2131 C2139 1.503 . S
C2132 C2131 1.410 . S
C2132 C2133 1.392 . S
C2132 C2135 1.511 . S
C2133 C2129 1.376 . S
C2133 C2132 1.392 . S
C2133 H2145 0.929 . S
C2134 C2130 1.531 . S
C2134 H2146 0.960 . S
C2134 H2147 0.962 . S
C2134 H2148 0.960 . S
C2135 C2132 1.511 . S
C2135 H2149 0.961 . S
C2135 H2150 0.961 . S
C2135 H2151 0.961 . S
C2136 C2137 1.370 . S
C2136 C2138 1.363 . S
C2136 H2152 0.931 . S
C2137 C2136 1.370 . S
C2137 C2141 1.408 . S
C2138 C2136 1.363 . S
C2138 C2139 1.370 . S
C2138 C2142 1.524 . S
C2139 C2131 1.503 . S
C2139 C2138 1.370 . S
C2139 C2140 1.403 . S
C2140 C2139 1.403 . S
C2140 C2141 1.404 . S
C2140 C2143 1.539 . S
C2141 C2137 1.408 . S
C2141 C2140 1.404 . S
C2141 H2153 0.930 . S
C2142 C2138 1.524 . S
C2142 H2154 0.956 . S
C2142 H2155 0.961 . S
C2142 H2156 0.961 . S
C2143 C2140 1.539 . S
C2143 H2157 0.958 . S
C2143 H2158 0.961 . S
C2143 H2159 0.960 . S
H2144 C2128 0.931 . S
H2145 C2133 0.929 . S
H2146 C2134 0.960 . S
H2147 C2134 0.962 . S
H2148 C2134 0.960 . S
H2149 C2135 0.961 . S
H2150 C2135 0.961 . S
H2151 C2135 0.961 . S
H2152 C2136 0.931 . S
H2153 C2141 0.930 . S
H2154 C2142 0.956 . S
H2155 C2142 0.961 . S
H2156 C2142 0.961 . S
H2157 C2143 0.958 . S
H2158 C2143 0.961 . S
H2159 C2143 0.960 . S
C2160 C2161 1.391 . S
C2160 C2162 1.394 . S
C2160 H2176 0.931 . S
C2161 C2160 1.391 . S
C2161 C2165 1.376 . S
C2162 C2160 1.394 . S
C2162 C2163 1.369 . S
C2162 C2166 1.531 . S
C2163 C2162 1.369 . S
C2163 C2164 1.410 . S
C2163 C2171 1.503 . S
C2164 C2163 1.410 . S
C2164 C2165 1.392 . S
C2164 C2167 1.511 . S
C2165 C2161 1.376 . S
C2165 C2164 1.392 . S
C2165 H2177 0.929 . S
C2166 C2162 1.531 . S
C2166 H2178 0.960 . S
C2166 H2179 0.962 . S
C2166 H2180 0.960 . S
C2167 C2164 1.511 . S
C2167 H2181 0.961 . S
C2167 H2182 0.961 . S
C2167 H2183 0.961 . S
C2168 C2169 1.370 . S
C2168 C2170 1.363 . S
C2168 H2184 0.931 . S
C2169 C2168 1.370 . S
C2169 C2173 1.408 . S
C2170 C2168 1.363 . S
C2170 C2171 1.370 . S
C2170 C2174 1.524 . S
C2171 C2163 1.503 . S
C2171 C2170 1.370 . S
C2171 C2172 1.403 . S
C2172 C2171 1.403 . S
C2172 C2173 1.404 . S
C2172 C2175 1.510 1_545 S
C2173 C2169 1.408 . S
C2173 C2172 1.404 . S
C2173 H2185 0.930 . S
C2174 C2170 1.524 . S
C2174 H2186 0.956 . S
C2174 H2187 0.961 . S
C2174 H2188 0.961 . S
C2175 C2172 1.510 1_565 S
C2175 H2189 0.962 . S
C2175 H2190 0.984 . S
C2175 H2191 0.963 . S
H2176 C2160 0.931 . S
H2177 C2165 0.929 . S
H2178 C2166 0.960 . S
H2179 C2166 0.962 . S
H2180 C2166 0.960 . S
H2181 C2167 0.961 . S
H2182 C2167 0.961 . S
H2183 C2167 0.961 . S
H2184 C2168 0.931 . S
H2185 C2173 0.930 . S
H2186 C2174 0.956 . S
H2187 C2174 0.961 . S
H2188 C2174 0.961 . S
H2189 C2175 0.962 . S
H2190 C2175 0.984 . S
H2191 C2175 0.963 . S
C2192 C2193 1.391 . S
C2192 C2194 1.394 . S
C2192 H2208 0.931 . S
C2193 C2192 1.391 . S
C2193 C2197 1.376 . S
C2194 C2192 1.394 . S
C2194 C2195 1.369 . S
C2194 C2198 1.531 . S
C2195 C2194 1.369 . S
C2195 C2196 1.410 . S
C2195 C2203 1.503 . S
C2196 C2195 1.410 . S
C2196 C2197 1.392 . S
C2196 C2199 1.511 . S
C2197 C2193 1.376 . S
C2197 C2196 1.392 . S
C2197 H2209 0.929 . S
C2198 C2194 1.531 . S
C2198 H2210 0.960 . S
C2198 H2211 0.962 . S
C2198 H2212 0.960 . S
C2199 C2196 1.511 . S
C2199 H2213 0.961 . S
C2199 H2214 0.961 . S
C2199 H2215 0.961 . S
C2200 C2201 1.370 . S
C2200 C2202 1.363 . S
C2200 H2216 0.931 . S
C2201 C2200 1.370 . S
C2201 C2205 1.408 . S
C2202 C2200 1.363 . S
C2202 C2203 1.370 . S
C2202 C2206 1.524 . S
C2203 C2195 1.503 . S
C2203 C2202 1.370 . S
C2203 C2204 1.403 . S
C2204 C2203 1.403 . S
C2204 C2205 1.404 . S
C2204 C2207 1.539 . S
C2205 C2201 1.408 . S
C2205 C2204 1.404 . S
C2205 H2217 0.930 . S
C2206 C2202 1.524 . S
C2206 H2218 0.956 . S
C2206 H2219 0.961 . S
C2206 H2220 0.961 . S
C2207 C2204 1.539 . S
C2207 H2221 0.958 . S
C2207 H2222 0.961 . S
C2207 H2223 0.960 . S
H2208 C2192 0.931 . S
H2209 C2197 0.929 . S
H2210 C2198 0.960 . S
H2211 C2198 0.962 . S
H2212 C2198 0.960 . S
H2213 C2199 0.961 . S
H2214 C2199 0.961 . S
H2215 C2199 0.961 . S
H2216 C2200 0.931 . S
H2217 C2205 0.930 . S
H2218 C2206 0.956 . S
H2219 C2206 0.961 . S
H2220 C2206 0.961 . S
H2221 C2207 0.958 . S
H2222 C2207 0.961 . S
H2223 C2207 0.960 . S
C2224 C2225 1.391 . S
C2224 C2226 1.394 . S
C2224 H2240 0.931 . S
C2225 C2224 1.391 . S
C2225 C2229 1.376 . S
C2226 C2224 1.394 . S
C2226 C2227 1.369 . S
C2226 C2230 1.531 . S
C2227 C2226 1.369 . S
C2227 C2228 1.410 . S
C2227 C2235 1.503 . S
C2228 C2227 1.410 . S
C2228 C2229 1.392 . S
C2228 C2231 1.511 . S
C2229 C2225 1.376 . S
C2229 C2228 1.392 . S
C2229 H2241 0.929 . S
C2230 C2226 1.531 . S
C2230 H2242 0.960 . S
C2230 H2243 0.962 . S
C2230 H2244 0.960 . S
C2231 C2228 1.511 . S
C2231 H2245 0.961 . S
C2231 H2246 0.961 . S
C2231 H2247 0.961 . S
C2232 C2233 1.370 . S
C2232 C2234 1.363 . S
C2232 H2248 0.931 . S
C2233 C2232 1.370 . S
C2233 C2237 1.408 . S
C2234 C2232 1.363 . S
C2234 C2235 1.370 . S
C2234 C2238 1.524 . S
C2235 C2227 1.503 . S
C2235 C2234 1.370 . S
C2235 C2236 1.403 . S
C2236 C2235 1.403 . S
C2236 C2237 1.404 . S
C2236 C2239 1.539 . S
C2237 C2233 1.408 . S
C2237 C2236 1.404 . S
C2237 H2249 0.930 . S
C2238 C2234 1.524 . S
C2238 H2250 0.956 . S
C2238 H2251 0.961 . S
C2238 H2252 0.961 . S
C2239 C2236 1.539 . S
C2239 H2253 0.958 . S
C2239 H2254 0.961 . S
C2239 H2255 0.960 . S
H2240 C2224 0.931 . S
H2241 C2229 0.929 . S
H2242 C2230 0.960 . S
H2243 C2230 0.962 . S
H2244 C2230 0.960 . S
H2245 C2231 0.961 . S
H2246 C2231 0.961 . S
H2247 C2231 0.961 . S
H2248 C2232 0.931 . S
H2249 C2237 0.930 . S
H2250 C2238 0.956 . S
H2251 C2238 0.961 . S
H2252 C2238 0.961 . S
H2253 C2239 0.958 . S
H2254 C2239 0.961 . S
H2255 C2239 0.960 . S
C2256 C2257 1.391 . S
C2256 C2258 1.394 . S
C2256 H2272 0.931 . S
C2257 C2256 1.391 . S
C2257 C2261 1.376 . S
C2258 C2256 1.394 . S
C2258 C2259 1.369 . S
C2258 C2262 1.531 . S
C2259 C2258 1.369 . S
C2259 C2260 1.410 . S
C2259 C2267 1.503 . S
C2260 C2259 1.410 . S
C2260 C2261 1.392 . S
C2260 C2263 1.511 . S
C2261 C2257 1.376 . S
C2261 C2260 1.392 . S
C2261 H2273 0.929 . S
C2262 C2258 1.531 . S
C2262 H2274 0.960 . S
C2262 H2275 0.962 . S
C2262 H2276 0.960 . S
C2263 C2260 1.511 . S
C2263 H2277 0.961 . S
C2263 H2278 0.961 . S
C2263 H2279 0.961 . S
C2264 C2265 1.370 . S
C2264 C2266 1.363 . S
C2264 H2280 0.931 . S
C2265 C2264 1.370 . S
C2265 C2269 1.408 . S
C2266 C2264 1.363 . S
C2266 C2267 1.370 . S
C2266 C2270 1.524 . S
C2267 C2259 1.503 . S
C2267 C2266 1.370 . S
C2267 C2268 1.403 . S
C2268 C2267 1.403 . S
C2268 C2269 1.404 . S
C2268 C2271 1.539 . S
C2269 C2265 1.408 . S
C2269 C2268 1.404 . S
C2269 H2281 0.930 . S
C2270 C2266 1.524 . S
C2270 H2282 0.956 . S
C2270 H2283 0.961 . S
C2270 H2284 0.961 . S
C2271 C2268 1.539 . S
C2271 H2285 0.958 . S
C2271 H2286 0.961 . S
C2271 H2287 0.960 . S
H2272 C2256 0.931 . S
H2273 C2261 0.929 . S
H2274 C2262 0.960 . S
H2275 C2262 0.962 . S
H2276 C2262 0.960 . S
H2277 C2263 0.961 . S
H2278 C2263 0.961 . S
H2279 C2263 0.961 . S
H2280 C2264 0.931 . S
H2281 C2269 0.930 . S
H2282 C2270 0.956 . S
H2283 C2270 0.961 . S
H2284 C2270 0.961 . S
H2285 C2271 0.958 . S
H2286 C2271 0.961 . S
H2287 C2271 0.960 . S
C2288 C2289 1.391 . S
C2288 C2290 1.394 . S
C2288 H2304 0.931 1_455 S
C2289 C2288 1.391 . S
C2289 C2293 1.376 . S
C2290 C2288 1.394 . S
C2290 C2291 1.369 . S
C2290 C2294 1.531 1_455 S
C2291 C2290 1.369 . S
C2291 C2292 1.410 . S
C2291 C2299 1.503 . S
C2292 C2291 1.410 . S
C2292 C2293 1.392 . S
C2292 C2295 1.511 . S
C2293 C2289 1.376 . S
C2293 C2292 1.392 . S
C2293 H2305 0.929 . S
C2294 C2290 1.531 1_655 S
C2294 H2306 0.960 . S
C2294 H2307 0.962 . S
C2294 H2308 0.960 . S
C2295 C2292 1.511 . S
C2295 H2309 0.961 . S
C2295 H2310 0.961 . S
C2295 H2311 0.961 . S
C2296 C2297 1.370 1_455 S
C2296 C2298 1.363 . S
C2296 H2312 0.929 1_455 S
C2297 C2296 1.370 1_655 S
C2297 C2301 1.399 1_655 S
C2298 C2296 1.363 . S
C2298 C2299 1.370 . S
C2298 C2302 1.524 . S
C2299 C2291 1.503 . S
C2299 C2298 1.370 . S
C2299 C2300 1.403 . S
C2300 C2299 1.403 . S
C2300 C2301 1.419 . S
C2300 C2303 1.539 1_545 S
C2301 C2297 1.399 1_455 S
C2301 C2300 1.419 . S
C2301 H2313 0.926 1_445 S
C2302 C2298 1.524 . S
C2302 H2314 0.956 . S
C2302 H2315 0.961 . S
C2302 H2316 0.961 . S
C2303 C2300 1.539 1_565 S
C2303 H2317 0.958 1_455 S
C2303 H2318 0.961 . S
C2303 H2319 0.960 . S
H2304 C2288 0.931 1_655 S
H2305 C2293 0.929 . S
H2306 C2294 0.960 . S
H2307 C2294 0.962 . S
H2308 C2294 0.960 . S
H2309 C2295 0.961 . S
H2310 C2295 0.961 . S
H2311 C2295 0.961 . S
H2312 C2296 0.929 1_655 S
H2313 C2301 0.926 1_665 S
H2314 C2302 0.956 . S
H2315 C2302 0.961 . S
H2316 C2302 0.961 . S
H2317 C2303 0.958 1_655 S
H2318 C2303 0.961 . S
H2319 C2303 0.960 . S
C2320 C2321 1.391 . S
C2320 C2322 1.394 . S
C2320 H2336 0.931 . S
C2321 C2320 1.391 . S
C2321 C2325 1.376 . S
C2322 C2320 1.394 . S
C2322 C2323 1.369 . S
C2322 C2326 1.531 . S
C2323 C2322 1.369 . S
C2323 C2324 1.410 . S
C2323 C2331 1.503 . S
C2324 C2323 1.410 . S
C2324 C2325 1.392 . S
C2324 C2327 1.511 . S
C2325 C2321 1.376 . S
C2325 C2324 1.392 . S
C2325 H2337 0.929 . S
C2326 C2322 1.531 . S
C2326 H2338 0.960 . S
C2326 H2339 0.962 . S
C2326 H2340 0.960 . S
C2327 C2324 1.511 . S
C2327 H2341 0.961 . S
C2327 H2342 0.961 . S
C2327 H2343 0.961 . S
C2328 C2329 1.370 . S
C2328 C2330 1.363 . S
C2328 H2344 0.931 . S
C2329 C2328 1.370 . S
C2329 C2333 1.408 . S
C2330 C2328 1.363 . S
C2330 C2331 1.370 . S
C2330 C2334 1.524 . S
C2331 C2323 1.503 . S
C2331 C2330 1.370 . S
C2331 C2332 1.403 . S
C2332 C2331 1.403 . S
C2332 C2333 1.404 . S
C2332 C2335 1.539 . S
C2333 C2329 1.408 . S
C2333 C2332 1.404 . S
C2333 H2345 0.930 . S
C2334 C2330 1.524 . S
C2334 H2346 0.956 . S
C2334 H2347 0.961 . S
C2334 H2348 0.961 . S
C2335 C2332 1.539 . S
C2335 H2349 0.958 . S
C2335 H2350 0.961 . S
C2335 H2351 0.960 . S
H2336 C2320 0.931 . S
H2337 C2325 0.929 . S
H2338 C2326 0.960 . S
H2339 C2326 0.962 . S
H2340 C2326 0.960 . S
H2341 C2327 0.961 . S
H2342 C2327 0.961 . S
H2343 C2327 0.961 . S
H2344 C2328 0.931 . S
H2345 C2333 0.930 . S
H2346 C2334 0.956 . S
H2347 C2334 0.961 . S
H2348 C2334 0.961 . S
H2349 C2335 0.958 . S
H2350 C2335 0.961 . S
H2351 C2335 0.960 . S
C2352 C2353 1.391 . S
C2352 C2354 1.394 . S
C2352 H2368 0.931 . S
C2353 C2352 1.391 . S
C2353 C2357 1.376 . S
C2354 C2352 1.394 . S
C2354 C2355 1.369 . S
C2354 C2358 1.531 . S
C2355 C2354 1.369 . S
C2355 C2356 1.410 . S
C2355 C2363 1.503 . S
C2356 C2355 1.410 . S
C2356 C2357 1.392 . S
C2356 C2359 1.511 . S
C2357 C2353 1.376 . S
C2357 C2356 1.392 . S
C2357 H2369 0.929 . S
C2358 C2354 1.531 . S
C2358 H2370 0.960 . S
C2358 H2371 0.962 . S
C2358 H2372 0.960 . S
C2359 C2356 1.511 . S
C2359 H2373 0.961 . S
C2359 H2374 0.961 . S
C2359 H2375 0.961 . S
C2360 C2361 1.370 . S
C2360 C2362 1.363 . S
C2360 H2376 0.931 . S
C2361 C2360 1.370 . S
C2361 C2365 1.408 . S
C2362 C2360 1.363 . S
C2362 C2363 1.370 . S
C2362 C2366 1.524 . S
C2363 C2355 1.503 . S
C2363 C2362 1.370 . S
C2363 C2364 1.403 . S
C2364 C2363 1.403 . S
C2364 C2365 1.404 . S
C2364 C2367 1.539 . S
C2365 C2361 1.408 . S
C2365 C2364 1.404 . S
C2365 H2377 0.930 . S
C2366 C2362 1.524 . S
C2366 H2378 0.956 . S
C2366 H2379 0.961 . S
C2366 H2380 0.961 . S
C2367 C2364 1.539 . S
C2367 H2381 0.958 . S
C2367 H2382 0.961 . S
C2367 H2383 0.960 . S
H2368 C2352 0.931 . S
H2369 C2357 0.929 . S
H2370 C2358 0.960 . S
H2371 C2358 0.962 . S
H2372 C2358 0.960 . S
H2373 C2359 0.961 . S
H2374 C2359 0.961 . S
H2375 C2359 0.961 . S
H2376 C2360 0.931 . S
H2377 C2365 0.930 . S
H2378 C2366 0.956 . S
H2379 C2366 0.961 . S
H2380 C2366 0.961 . S
H2381 C2367 0.958 . S
H2382 C2367 0.961 . S
H2383 C2367 0.960 . S
C2384 C2385 1.391 . S
C2384 C2386 1.394 . S
C2384 H2400 0.931 . S
C2385 C2384 1.391 . S
C2385 C2389 1.376 . S
C2386 C2384 1.394 . S
C2386 C2387 1.369 . S
C2386 C2390 1.531 . S
C2387 C2386 1.369 . S
C2387 C2388 1.410 . S
C2387 C2395 1.503 . S
C2388 C2387 1.410 . S
C2388 C2389 1.392 . S
C2388 C2391 1.511 . S
C2389 C2385 1.376 . S
C2389 C2388 1.392 . S
C2389 H2401 0.929 . S
C2390 C2386 1.531 . S
C2390 H2402 0.960 . S
C2390 H2403 0.962 . S
C2390 H2404 0.960 . S
C2391 C2388 1.511 . S
C2391 H2405 0.961 . S
C2391 H2406 0.961 . S
C2391 H2407 0.961 . S
C2392 C2393 1.370 . S
C2392 C2394 1.363 . S
C2392 H2408 0.931 . S
C2393 C2392 1.370 . S
C2393 C2397 1.408 . S
C2394 C2392 1.363 . S
C2394 C2395 1.370 . S
C2394 C2398 1.524 . S
C2395 C2387 1.503 . S
C2395 C2394 1.370 . S
C2395 C2396 1.403 . S
C2396 C2395 1.403 . S
C2396 C2397 1.404 . S
C2396 C2399 1.539 . S
C2397 C2393 1.408 . S
C2397 C2396 1.404 . S
C2397 H2409 0.930 . S
C2398 C2394 1.524 . S
C2398 H2410 0.956 . S
C2398 H2411 0.961 . S
C2398 H2412 0.961 . S
C2399 C2396 1.539 . S
C2399 H2413 0.958 . S
C2399 H2414 0.961 . S
C2399 H2415 0.960 . S
H2400 C2384 0.931 . S
H2401 C2389 0.929 . S
H2402 C2390 0.960 . S
H2403 C2390 0.962 . S
H2404 C2390 0.960 . S
H2405 C2391 0.961 . S
H2406 C2391 0.961 . S
H2407 C2391 0.961 . S
H2408 C2392 0.931 . S
H2409 C2397 0.930 . S
H2410 C2398 0.956 . S
H2411 C2398 0.961 . S
H2412 C2398 0.961 . S
H2413 C2399 0.958 . S
H2414 C2399 0.961 . S
H2415 C2399 0.960 . S
C2416 C2417 1.391 . S
C2416 C2418 1.394 . S
C2416 H2432 0.931 . S
C2417 C2416 1.391 . S
C2417 C2421 1.376 1_455 S
C2418 C2416 1.394 . S
C2418 C2419 1.369 . S
C2418 C2422 1.531 . S
C2419 C2418 1.369 . S
C2419 C2420 1.410 1_455 S
C2419 C2427 1.503 . S
C2420 C2419 1.410 1_655 S
C2420 C2421 1.392 . S
C2420 C2423 1.511 . S
C2421 C2417 1.376 1_655 S
C2421 C2420 1.392 . S
C2421 H2433 0.929 . S
C2422 C2418 1.531 . S
C2422 H2434 0.960 . S
C2422 H2435 0.962 . S
C2422 H2436 0.960 . S
C2423 C2420 1.511 . S
C2423 H2437 0.961 . S
C2423 H2438 0.961 . S
C2423 H2439 0.961 . S
C2424 C2425 1.370 . S
C2424 C2426 1.363 . S
C2424 H2440 0.931 . S
C2425 C2424 1.370 . S
C2425 C2429 1.408 1_455 S
C2426 C2424 1.363 . S
C2426 C2427 1.370 . S
C2426 C2430 1.524 . S
C2427 C2419 1.503 . S
C2427 C2426 1.370 . S
C2427 C2428 1.403 1_455 S
C2428 C2427 1.403 1_655 S
C2428 C2429 1.404 . S
C2428 C2431 1.539 . S
C2429 C2425 1.408 1_655 S
C2429 C2428 1.404 . S
C2429 H2441 0.930 . S
C2430 C2426 1.524 . S
C2430 H2442 0.956 . S
C2430 H2443 0.961 . S
C2430 H2444 0.961 . S
C2431 C2428 1.539 . S
C2431 H2445 0.958 . S
C2431 H2446 0.961 . S
C2431 H2447 0.960 . S
H2432 C2416 0.931 . S
H2433 C2421 0.929 . S
H2434 C2422 0.960 . S
H2435 C2422 0.962 . S
H2436 C2422 0.960 . S
H2437 C2423 0.961 . S
H2438 C2423 0.961 . S
H2439 C2423 0.961 . S
H2440 C2424 0.931 . S
H2441 C2429 0.930 . S
H2442 C2430 0.956 . S
H2443 C2430 0.961 . S
H2444 C2430 0.961 . S
H2445 C2431 0.958 . S
H2446 C2431 0.961 . S
H2447 C2431 0.960 . S
C2448 C2449 1.391 . S
C2448 C2450 1.394 . S
C2448 H2464 0.931 . S
C2449 C2448 1.391 . S
C2449 C2453 1.376 . S
C2450 C2448 1.394 . S
C2450 C2451 1.369 . S
C2450 C2454 1.531 . S
C2451 C2450 1.369 . S
C2451 C2452 1.410 . S
C2451 C2459 1.503 . S
C2452 C2451 1.410 . S
C2452 C2453 1.392 . S
C2452 C2455 1.511 . S
C2453 C2449 1.376 . S
C2453 C2452 1.392 . S
C2453 H2465 0.929 . S
C2454 C2450 1.531 . S
C2454 H2466 0.960 . S
C2454 H2467 0.962 . S
C2454 H2468 0.960 . S
C2455 C2452 1.511 . S
C2455 H2469 0.961 . S
C2455 H2470 0.961 . S
C2455 H2471 0.961 . S
C2456 C2457 1.370 . S
C2456 C2458 1.363 . S
C2456 H2472 0.931 . S
C2457 C2456 1.370 . S
C2457 C2461 1.408 . S
C2458 C2456 1.363 . S
C2458 C2459 1.370 . S
C2458 C2462 1.524 . S
C2459 C2451 1.503 . S
C2459 C2458 1.370 . S
C2459 C2460 1.403 . S
C2460 C2459 1.403 . S
C2460 C2461 1.404 . S
C2460 C2463 1.539 . S
C2461 C2457 1.408 . S
C2461 C2460 1.404 . S
C2461 H2473 0.930 . S
C2462 C2458 1.524 . S
C2462 H2474 0.956 . S
C2462 H2475 0.961 . S
C2462 H2476 0.961 . S
C2463 C2460 1.539 . S
C2463 H2477 0.958 . S
C2463 H2478 0.961 . S
C2463 H2479 0.960 . S
H2464 C2448 0.931 . S
H2465 C2453 0.929 . S
H2466 C2454 0.960 . S
H2467 C2454 0.962 . S
H2468 C2454 0.960 . S
H2469 C2455 0.961 . S
H2470 C2455 0.961 . S
H2471 C2455 0.961 . S
H2472 C2456 0.931 . S
H2473 C2461 0.930 . S
H2474 C2462 0.956 . S
H2475 C2462 0.961 . S
H2476 C2462 0.961 . S
H2477 C2463 0.958 . S
H2478 C2463 0.961 . S
H2479 C2463 0.960 . S
C2480 C2481 1.391 . S
C2480 C2482 1.394 . S
C2480 H2496 0.931 . S
C2481 C2480 1.391 . S
C2481 C2485 1.376 . S
C2482 C2480 1.394 . S
C2482 C2483 1.369 . S
C2482 C2486 1.531 . S
C2483 C2482 1.369 . S
C2483 C2484 1.410 . S
C2483 C2491 1.503 . S
C2484 C2483 1.410 . S
C2484 C2485 1.392 . S
C2484 C2487 1.511 1_455 S
C2485 C2481 1.376 . S
C2485 C2484 1.392 . S
C2485 H2497 0.952 . S
C2486 C2482 1.531 . S
C2486 H2498 0.960 . S
C2486 H2499 0.962 . S
C2486 H2500 0.960 . S
C2487 C2484 1.511 1_655 S
C2487 H2501 0.961 . S
C2487 H2502 0.961 . S
C2487 H2503 0.961 . S
C2488 C2489 1.370 . S
C2488 C2490 1.363 . S
C2488 H2504 0.931 . S
C2489 C2488 1.370 . S
C2489 C2493 1.408 . S
C2490 C2488 1.363 . S
C2490 C2491 1.370 . S
C2490 C2494 1.524 . S
C2491 C2483 1.503 . S
C2491 C2490 1.370 . S
C2491 C2492 1.403 . S
C2492 C2491 1.403 . S
C2492 C2493 1.404 . S
C2492 C2495 1.539 . S
C2493 C2489 1.408 . S
C2493 C2492 1.404 . S
C2493 H2505 0.930 . S
C2494 C2490 1.524 . S
C2494 H2506 0.956 . S
C2494 H2507 0.961 . S
C2494 H2508 0.961 . S
C2495 C2492 1.539 . S
C2495 H2509 0.958 . S
C2495 H2510 0.961 . S
C2495 H2511 0.960 . S
H2496 C2480 0.931 . S
H2497 C2485 0.952 . S
H2498 C2486 0.960 . S
H2499 C2486 0.962 . S
H2500 C2486 0.960 . S
H2501 C2487 0.961 . S
H2502 C2487 0.961 . S
H2503 C2487 0.961 . S
H2504 C2488 0.931 . S
H2505 C2493 0.930 . S
H2506 C2494 0.956 . S
H2507 C2494 0.961 . S
H2508 C2494 0.961 . S
H2509 C2495 0.958 . S
H2510 C2495 0.961 . S
H2511 C2495 0.960 . S
C2512 C2513 1.391 . S
C2512 C2514 1.394 . S
C2512 H2528 0.931 . S
C2513 C2512 1.391 . S
C2513 C2517 1.376 . S
C2514 C2512 1.394 . S
C2514 C2515 1.369 . S
C2514 C2518 1.531 . S
C2515 C2514 1.369 . S
C2515 C2516 1.410 . S
C2515 C2523 1.503 . S
C2516 C2515 1.410 . S
C2516 C2517 1.392 . S
C2516 C2519 1.511 . S
C2517 C2513 1.376 . S
C2517 C2516 1.392 . S
C2517 H2529 0.929 . S
C2518 C2514 1.531 . S
C2518 H2530 0.960 . S
C2518 H2531 0.962 . S
C2518 H2532 0.960 . S
C2519 C2516 1.511 . S
C2519 H2533 0.961 . S
C2519 H2534 0.961 . S
C2519 H2535 0.961 . S
C2520 C2521 1.370 . S
C2520 C2522 1.363 . S
C2520 H2536 0.931 . S
C2521 C2520 1.370 . S
C2521 C2525 1.408 . S
C2522 C2520 1.363 . S
C2522 C2523 1.370 . S
C2522 C2526 1.524 . S
C2523 C2515 1.503 . S
C2523 C2522 1.370 . S
C2523 C2524 1.403 . S
C2524 C2523 1.403 . S
C2524 C2525 1.404 . S
C2524 C2527 1.539 . S
C2525 C2521 1.408 . S
C2525 C2524 1.404 . S
C2525 H2537 0.930 . S
C2526 C2522 1.524 . S
C2526 H2538 0.956 . S
C2526 H2539 0.961 . S
C2526 H2540 0.961 . S
C2527 C2524 1.539 . S
C2527 H2541 0.958 . S
C2527 H2542 0.961 . S
C2527 H2543 0.960 . S
H2528 C2512 0.931 . S
H2529 C2517 0.929 . S
H2530 C2518 0.960 . S
H2531 C2518 0.962 . S
H2532 C2518 0.960 . S
H2533 C2519 0.961 . S
H2534 C2519 0.961 . S
H2535 C2519 0.961 . S
H2536 C2520 0.931 . S
H2537 C2525 0.930 . S
H2538 C2526 0.956 . S
H2539 C2526 0.961 . S
H2540 C2526 0.961 . S
H2541 C2527 0.958 . S
H2542 C2527 0.961 . S
H2543 C2527 0.960 . S
C2544 C2545 1.391 . S
C2544 C2546 1.394 . S
C2544 H2560 0.931 . S
C2545 C2544 1.391 . S
C2545 C2549 1.376 . S
C2546 C2544 1.394 . S
C2546 C2547 1.369 . S
C2546 C2550 1.531 . S
C2547 C2546 1.369 . S
C2547 C2548 1.410 . S
C2547 C2555 1.503 . S
C2548 C2547 1.410 . S
C2548 C2549 1.392 . S
C2548 C2551 1.511 . S
C2549 C2545 1.376 . S
C2549 C2548 1.392 . S
C2549 H2561 0.929 . S
C2550 C2546 1.531 . S
C2550 H2562 0.960 . S
C2550 H2563 0.962 . S
C2550 H2564 0.960 . S
C2551 C2548 1.511 . S
C2551 H2565 0.961 . S
C2551 H2566 0.961 . S
C2551 H2567 0.961 . S
C2552 C2553 1.370 . S
C2552 C2554 1.363 . S
C2552 H2568 0.931 . S
C2553 C2552 1.370 . S
C2553 C2557 1.408 . S
C2554 C2552 1.363 . S
C2554 C2555 1.370 . S
C2554 C2558 1.524 . S
C2555 C2547 1.503 . S
C2555 C2554 1.370 . S
C2555 C2556 1.403 . S
C2556 C2555 1.403 . S
C2556 C2557 1.404 . S
C2556 C2559 1.539 . S
C2557 C2553 1.408 . S
C2557 C2556 1.404 . S
C2557 H2569 0.930 . S
C2558 C2554 1.524 . S
C2558 H2570 0.956 . S
C2558 H2571 0.961 . S
C2558 H2572 0.961 . S
C2559 C2556 1.539 . S
C2559 H2573 0.958 . S
C2559 H2574 0.961 . S
C2559 H2575 0.960 . S
H2560 C2544 0.931 . S
H2561 C2549 0.929 . S
H2562 C2550 0.960 . S
H2563 C2550 0.962 . S
H2564 C2550 0.960 . S
H2565 C2551 0.961 . S
H2566 C2551 0.961 . S
H2567 C2551 0.961 . S
H2568 C2552 0.931 . S
H2569 C2557 0.930 . S
H2570 C2558 0.956 . S
H2571 C2558 0.961 . S
H2572 C2558 0.961 . S
H2573 C2559 0.958 . S
H2574 C2559 0.961 . S
H2575 C2559 0.960 . S
C2576 C2577 1.391 . S
C2576 C2578 1.394 . S
C2576 H2592 0.931 . S
C2577 C2576 1.391 . S
C2577 C2581 1.376 . S
C2578 C2576 1.394 . S
C2578 C2579 1.369 . S
C2578 C2582 1.531 . S
C2579 C2578 1.369 . S
C2579 C2580 1.410 . S
C2579 C2587 1.503 . S
C2580 C2579 1.410 . S
C2580 C2581 1.392 . S
C2580 C2583 1.511 . S
C2581 C2577 1.376 . S
C2581 C2580 1.392 . S
C2581 H2593 0.929 . S
C2582 C2578 1.531 . S
C2582 H2594 0.960 . S
C2582 H2595 0.962 . S
C2582 H2596 0.960 . S
C2583 C2580 1.511 . S
C2583 H2597 0.961 . S
C2583 H2598 0.961 . S
C2583 H2599 0.961 . S
C2584 C2585 1.370 . S
C2584 C2586 1.363 . S
C2584 H2600 0.931 . S
C2585 C2584 1.370 . S
C2585 C2589 1.408 . S
C2586 C2584 1.363 . S
C2586 C2587 1.370 . S
C2586 C2590 1.524 . S
C2587 C2579 1.503 . S
C2587 C2586 1.370 . S
C2587 C2588 1.403 . S
C2588 C2587 1.403 . S
C2588 C2589 1.404 . S
C2588 C2591 1.539 . S
C2589 C2585 1.408 . S
C2589 C2588 1.404 . S
C2589 H2601 0.930 . S
C2590 C2586 1.524 . S
C2590 H2602 0.956 . S
C2590 H2603 0.961 . S
C2590 H2604 0.961 . S
C2591 C2588 1.539 . S
C2591 H2605 0.958 . S
C2591 H2606 0.961 . S
C2591 H2607 0.960 . S
H2592 C2576 0.931 . S
H2593 C2581 0.929 . S
H2594 C2582 0.960 . S
H2595 C2582 0.962 . S
H2596 C2582 0.960 . S
H2597 C2583 0.961 . S
H2598 C2583 0.961 . S
H2599 C2583 0.961 . S
H2600 C2584 0.931 . S
H2601 C2589 0.930 . S
H2602 C2590 0.956 . S
H2603 C2590 0.961 . S
H2604 C2590 0.961 . S
H2605 C2591 0.958 . S
H2606 C2591 0.961 . S
H2607 C2591 0.960 . S
C2608 C2609 1.391 . S
C2608 C2610 1.394 1_556 S
C2608 H2624 0.931 . S
C2609 C2608 1.391 . S
C2609 C2613 1.376 1_556 S
C2610 C2608 1.394 1_554 S
C2610 C2611 1.369 . S
C2610 C2614 1.531 . S
C2611 C2610 1.369 . S
C2611 C2612 1.410 . S
C2611 C2619 1.503 . S
C2612 C2611 1.410 . S
C2612 C2613 1.392 . S
C2612 C2615 1.511 . S
C2613 C2609 1.376 1_554 S
C2613 C2612 1.392 . S
C2613 H2625 0.929 1_554 S
C2614 C2610 1.531 . S
C2614 H2626 0.960 . S
C2614 H2627 0.962 . S
C2614 H2628 0.960 . S
C2615 C2612 1.511 . S
C2615 H2629 0.961 . S
C2615 H2630 0.961 . S
C2615 H2631 0.961 . S
C2616 C2617 1.370 . S
C2616 C2618 1.363 . S
C2616 H2632 0.931 . S
C2617 C2616 1.370 . S
C2617 C2621 1.408 . S
C2618 C2616 1.363 . S
C2618 C2619 1.370 . S
C2618 C2622 1.524 . S
C2619 C2611 1.503 . S
C2619 C2618 1.370 . S
C2619 C2620 1.403 . S
C2620 C2619 1.403 . S
C2620 C2621 1.404 . S
C2620 C2623 1.539 . S
C2621 C2617 1.408 . S
C2621 C2620 1.404 . S
C2621 H2633 0.930 . S
C2622 C2618 1.524 . S
C2622 H2634 0.956 . S
C2622 H2635 0.961 . S
C2622 H2636 0.961 . S
C2623 C2620 1.539 . S
C2623 H2637 0.958 . S
C2623 H2638 0.961 . S
C2623 H2639 0.960 . S
H2624 C2608 0.931 . S
H2625 C2613 0.929 1_556 S
H2626 C2614 0.960 . S
H2627 C2614 0.962 . S
H2628 C2614 0.960 . S
H2629 C2615 0.961 . S
H2630 C2615 0.961 . S
H2631 C2615 0.961 . S
H2632 C2616 0.931 . S
H2633 C2621 0.930 . S
H2634 C2622 0.956 . S
H2635 C2622 0.961 . S
H2636 C2622 0.961 . S
H2637 C2623 0.958 . S
H2638 C2623 0.961 . S
H2639 C2623 0.960 . S
C2640 C2641 1.391 . S
C2640 C2642 1.394 . S
C2640 H2656 0.931 . S
C2641 C2640 1.391 . S
C2641 C2645 1.376 . S
C2642 C2640 1.394 . S
C2642 C2643 1.369 . S
C2642 C2646 1.531 . S
C2643 C2642 1.369 . S
C2643 C2644 1.410 . S
C2643 C2651 1.503 . S
C2644 C2643 1.410 . S
C2644 C2645 1.392 . S
C2644 C2647 1.511 . S
C2645 C2641 1.376 . S
C2645 C2644 1.392 . S
C2645 H2657 0.929 . S
C2646 C2642 1.531 . S
C2646 H2658 0.960 . S
C2646 H2659 0.962 . S
C2646 H2660 0.960 . S
C2647 C2644 1.511 . S
C2647 H2661 0.961 . S
C2647 H2662 0.961 . S
C2647 H2663 0.961 . S
C2648 C2649 1.370 . S
C2648 C2650 1.363 . S
C2648 H2664 0.931 . S
C2649 C2648 1.370 . S
C2649 C2653 1.408 . S
C2650 C2648 1.363 . S
C2650 C2651 1.370 . S
C2650 C2654 1.524 . S
C2651 C2643 1.503 . S
C2651 C2650 1.370 . S
C2651 C2652 1.403 . S
C2652 C2651 1.403 . S
C2652 C2653 1.404 . S
C2652 C2655 1.539 . S
C2653 C2649 1.408 . S
C2653 C2652 1.404 . S
C2653 H2665 0.930 . S
C2654 C2650 1.524 . S
C2654 H2666 0.956 . S
C2654 H2667 0.961 . S
C2654 H2668 0.961 . S
C2655 C2652 1.539 . S
C2655 H2669 0.958 . S
C2655 H2670 0.961 . S
C2655 H2671 0.960 . S
H2656 C2640 0.931 . S
H2657 C2645 0.929 . S
H2658 C2646 0.960 . S
H2659 C2646 0.962 . S
H2660 C2646 0.960 . S
H2661 C2647 0.961 . S
H2662 C2647 0.961 . S
H2663 C2647 0.961 . S
H2664 C2648 0.931 . S
H2665 C2653 0.930 . S
H2666 C2654 0.956 . S
H2667 C2654 0.961 . S
H2668 C2654 0.961 . S
H2669 C2655 0.958 . S
H2670 C2655 0.961 . S
H2671 C2655 0.960 . S
C2672 C2673 1.391 . S
C2672 C2674 1.394 . S
C2672 H2688 0.931 . S
C2673 C2672 1.391 . S
C2673 C2677 1.376 . S
C2674 C2672 1.394 . S
C2674 C2675 1.369 . S
C2674 C2678 1.531 . S
C2675 C2674 1.369 . S
C2675 C2676 1.410 . S
C2675 C2683 1.503 . S
C2676 C2675 1.410 . S
C2676 C2677 1.392 . S
C2676 C2679 1.511 . S
C2677 C2673 1.376 . S
C2677 C2676 1.392 . S
C2677 H2689 0.929 . S
C2678 C2674 1.531 . S
C2678 H2690 0.960 . S
C2678 H2691 0.962 . S
C2678 H2692 0.960 . S
C2679 C2676 1.511 . S
C2679 H2693 0.961 . S
C2679 H2694 0.961 . S
C2679 H2695 0.961 . S
C2680 C2681 1.370 . S
C2680 C2682 1.363 . S
C2680 H2696 0.931 . S
C2681 C2680 1.370 . S
C2681 C2685 1.408 . S
C2682 C2680 1.363 . S
C2682 C2683 1.370 . S
C2682 C2686 1.524 . S
C2683 C2675 1.503 . S
C2683 C2682 1.370 . S
C2683 C2684 1.403 . S
C2684 C2683 1.403 . S
C2684 C2685 1.404 . S
C2684 C2687 1.539 . S
C2685 C2681 1.408 . S
C2685 C2684 1.404 . S
C2685 H2697 0.930 . S
C2686 C2682 1.524 . S
C2686 H2698 0.956 . S
C2686 H2699 0.961 . S
C2686 H2700 0.961 . S
C2687 C2684 1.539 . S
C2687 H2701 0.958 . S
C2687 H2702 0.961 . S
C2687 H2703 0.960 . S
H2688 C2672 0.931 . S
H2689 C2677 0.929 . S
H2690 C2678 0.960 . S
H2691 C2678 0.962 . S
H2692 C2678 0.960 . S
H2693 C2679 0.961 . S
H2694 C2679 0.961 . S
H2695 C2679 0.961 . S
H2696 C2680 0.931 . S
H2697 C2685 0.930 . S
H2698 C2686 0.956 . S
H2699 C2686 0.961 . S
H2700 C2686 0.961 . S
H2701 C2687 0.958 . S
H2702 C2687 0.961 . S
H2703 C2687 0.960 . S
C2704 C2705 1.391 . S
C2704 C2706 1.394 . S
C2704 H2720 0.931 . S
C2705 C2704 1.391 . S
C2705 C2709 1.376 . S
C2706 C2704 1.394 . S
C2706 C2707 1.369 . S
C2706 C2710 1.531 . S
C2707 C2706 1.369 . S
C2707 C2708 1.410 . S
C2707 C2715 1.503 . S
C2708 C2707 1.410 . S
C2708 C2709 1.392 . S
C2708 C2711 1.511 . S
C2709 C2705 1.376 . S
C2709 C2708 1.392 . S
C2709 H2721 0.929 . S
C2710 C2706 1.531 . S
C2710 H2722 0.960 . S
C2710 H2723 0.962 . S
C2710 H2724 0.960 . S
C2711 C2708 1.511 . S
C2711 H2725 0.961 . S
C2711 H2726 0.961 . S
C2711 H2727 0.961 . S
C2712 C2713 1.370 . S
C2712 C2714 1.363 . S
C2712 H2728 0.931 . S
C2713 C2712 1.370 . S
C2713 C2717 1.408 . S
C2714 C2712 1.363 . S
C2714 C2715 1.370 . S
C2714 C2718 1.524 . S
C2715 C2707 1.503 . S
C2715 C2714 1.370 . S
C2715 C2716 1.403 . S
C2716 C2715 1.403 . S
C2716 C2717 1.404 . S
C2716 C2719 1.539 . S
C2717 C2713 1.408 . S
C2717 C2716 1.404 . S
C2717 H2729 0.930 . S
C2718 C2714 1.524 . S
C2718 H2730 0.956 . S
C2718 H2731 0.961 . S
C2718 H2732 0.961 . S
C2719 C2716 1.539 . S
C2719 H2733 0.958 . S
C2719 H2734 0.961 . S
C2719 H2735 0.960 . S
H2720 C2704 0.931 . S
H2721 C2709 0.929 . S
H2722 C2710 0.960 . S
H2723 C2710 0.962 . S
H2724 C2710 0.960 . S
H2725 C2711 0.961 . S
H2726 C2711 0.961 . S
H2727 C2711 0.961 . S
H2728 C2712 0.931 . S
H2729 C2717 0.930 . S
H2730 C2718 0.956 . S
H2731 C2718 0.961 . S
H2732 C2718 0.961 . S
H2733 C2719 0.958 . S
H2734 C2719 0.961 . S
H2735 C2719 0.960 . S
C2736 C2737 1.391 . S
C2736 C2738 1.394 . S
C2736 H2752 0.931 . S
C2737 C2736 1.391 . S
C2737 C2741 1.376 . S
C2738 C2736 1.394 . S
C2738 C2739 1.369 . S
C2738 C2742 1.531 . S
C2739 C2738 1.369 . S
C2739 C2740 1.410 . S
C2739 C2747 1.503 . S
C2740 C2739 1.410 . S
C2740 C2741 1.392 . S
C2740 C2743 1.511 . S
C2741 C2737 1.376 . S
C2741 C2740 1.392 . S
C2741 H2753 0.929 . S
C2742 C2738 1.531 . S
C2742 H2754 0.960 . S
C2742 H2755 0.962 . S
C2742 H2756 0.960 . S
C2743 C2740 1.511 . S
C2743 H2757 0.961 . S
C2743 H2758 0.961 . S
C2743 H2759 0.961 . S
C2744 C2745 1.370 . S
C2744 C2746 1.363 . S
C2744 H2760 0.931 . S
C2745 C2744 1.370 . S
C2745 C2749 1.408 . S
C2746 C2744 1.363 . S
C2746 C2747 1.370 . S
C2746 C2750 1.524 . S
C2747 C2739 1.503 . S
C2747 C2746 1.370 . S
C2747 C2748 1.403 . S
C2748 C2747 1.403 . S
C2748 C2749 1.404 . S
C2748 C2751 1.539 . S
C2749 C2745 1.408 . S
C2749 C2748 1.404 . S
C2749 H2761 0.930 . S
C2750 C2746 1.524 . S
C2750 H2762 0.956 . S
C2750 H2763 0.961 . S
C2750 H2764 0.961 . S
C2751 C2748 1.539 . S
C2751 H2765 0.958 . S
C2751 H2766 0.961 . S
C2751 H2767 0.960 . S
H2752 C2736 0.931 . S
H2753 C2741 0.929 . S
H2754 C2742 0.960 . S
H2755 C2742 0.962 . S
H2756 C2742 0.960 . S
H2757 C2743 0.961 . S
H2758 C2743 0.961 . S
H2759 C2743 0.961 . S
H2760 C2744 0.931 . S
H2761 C2749 0.930 . S
H2762 C2750 0.956 . S
H2763 C2750 0.961 . S
H2764 C2750 0.961 . S
H2765 C2751 0.958 . S
H2766 C2751 0.961 . S
H2767 C2751 0.960 . S
C2768 C2769 1.391 . S
C2768 C2770 1.394 . S
C2768 H2784 0.931 . S
C2769 C2768 1.391 . S
C2769 C2773 1.376 1_556 S
C2770 C2768 1.394 . S
C2770 C2771 1.369 . S
C2770 C2774 1.531 . S
C2771 C2770 1.369 . S
C2771 C2772 1.410 1_556 S
C2771 C2779 1.503 . S
C2772 C2771 1.410 1_554 S
C2772 C2773 1.392 . S
C2772 C2775 1.511 . S
C2773 C2769 1.376 1_554 S
C2773 C2772 1.392 . S
C2773 H2785 0.929 . S
C2774 C2770 1.531 . S
C2774 H2786 0.960 . S
C2774 H2787 0.962 . S
C2774 H2788 0.960 . S
C2775 C2772 1.511 . S
C2775 H2789 0.961 . S
C2775 H2790 0.961 . S
C2775 H2791 0.961 . S
C2776 C2777 1.370 . S
C2776 C2778 1.363 . S
C2776 H2792 0.931 1_556 S
C2777 C2776 1.370 . S
C2777 C2781 1.408 . S
C2778 C2776 1.363 . S
C2778 C2779 1.370 . S
C2778 C2782 1.524 1_556 S
C2779 C2771 1.503 . S
C2779 C2778 1.370 . S
C2779 C2780 1.403 . S
C2780 C2779 1.403 . S
C2780 C2781 1.404 . S
C2780 C2783 1.539 . S
C2781 C2777 1.408 . S
C2781 C2780 1.404 . S
C2781 H2793 0.930 . S
C2782 C2778 1.524 1_554 S
C2782 H2794 0.971 . S
C2782 H2795 0.961 . S
C2782 H2796 0.961 . S
C2783 C2780 1.539 . S
C2783 H2797 0.958 . S
C2783 H2798 0.961 . S
C2783 H2799 0.960 . S
H2784 C2768 0.931 . S
H2785 C2773 0.929 . S
H2786 C2774 0.960 . S
H2787 C2774 0.962 . S
H2788 C2774 0.960 . S
H2789 C2775 0.961 . S
H2790 C2775 0.961 . S
H2791 C2775 0.961 . S
H2792 C2776 0.931 1_554 S
H2793 C2781 0.930 . S
H2794 C2782 0.971 . S
H2795 C2782 0.961 . S
H2796 C2782 0.961 . S
H2797 C2783 0.958 . S
H2798 C2783 0.961 . S
H2799 C2783 0.960 . S
C2800 C2801 1.391 . S
C2800 C2802 1.394 . S
C2800 H2816 0.931 . S
C2801 C2800 1.391 . S
C2801 C2805 1.376 . S
C2802 C2800 1.394 . S
C2802 C2803 1.369 . S
C2802 C2806 1.531 . S
C2803 C2802 1.369 . S
C2803 C2804 1.410 . S
C2803 C2811 1.503 . S
C2804 C2803 1.410 . S
C2804 C2805 1.392 . S
C2804 C2807 1.511 . S
C2805 C2801 1.376 . S
C2805 C2804 1.392 . S
C2805 H2817 0.929 . S
C2806 C2802 1.531 . S
C2806 H2818 0.960 . S
C2806 H2819 0.962 . S
C2806 H2820 0.960 . S
C2807 C2804 1.511 . S
C2807 H2821 0.961 . S
C2807 H2822 0.961 . S
C2807 H2823 0.961 . S
C2808 C2809 1.370 . S
C2808 C2810 1.363 . S
C2808 H2824 0.931 . S
C2809 C2808 1.370 . S
C2809 C2813 1.408 . S
C2810 C2808 1.363 . S
C2810 C2811 1.370 . S
C2810 C2814 1.524 . S
C2811 C2803 1.503 . S
C2811 C2810 1.370 . S
C2811 C2812 1.403 . S
C2812 C2811 1.403 . S
C2812 C2813 1.404 . S
C2812 C2815 1.539 . S
C2813 C2809 1.408 . S
C2813 C2812 1.404 . S
C2813 H2825 0.930 . S
C2814 C2810 1.524 . S
C2814 H2826 0.956 . S
C2814 H2827 0.961 . S
C2814 H2828 0.961 . S
C2815 C2812 1.539 . S
C2815 H2829 0.958 . S
C2815 H2830 0.961 . S
C2815 H2831 0.960 . S
H2816 C2800 0.931 . S
H2817 C2805 0.929 . S
H2818 C2806 0.960 . S
H2819 C2806 0.962 . S
H2820 C2806 0.960 . S
H2821 C2807 0.961 . S
H2822 C2807 0.961 . S
H2823 C2807 0.961 . S
H2824 C2808 0.931 . S
H2825 C2813 0.930 . S
H2826 C2814 0.956 . S
H2827 C2814 0.961 . S
H2828 C2814 0.961 . S
H2829 C2815 0.958 . S
H2830 C2815 0.961 . S
H2831 C2815 0.960 . S
C2832 C2833 1.391 . S
C2832 C2834 1.394 . S
C2832 H2848 0.931 . S
C2833 C2832 1.391 . S
C2833 C2837 1.376 . S
C2834 C2832 1.394 . S
C2834 C2835 1.369 . S
C2834 C2838 1.531 . S
C2835 C2834 1.369 . S
C2835 C2836 1.410 . S
C2835 C2843 1.503 . S
C2836 C2835 1.410 . S
C2836 C2837 1.392 . S
C2836 C2839 1.511 . S
C2837 C2833 1.376 . S
C2837 C2836 1.392 . S
C2837 H2849 0.929 . S
C2838 C2834 1.531 . S
C2838 H2850 0.960 . S
C2838 H2851 0.962 . S
C2838 H2852 0.960 . S
C2839 C2836 1.511 . S
C2839 H2853 0.993 . S
C2839 H2854 0.994 . S
C2839 H2855 0.961 . S
C2840 C2841 1.370 1_556 S
C2840 C2842 1.363 . S
C2840 H2856 0.931 . S
C2841 C2840 1.370 1_554 S
C2841 C2845 1.408 . S
C2842 C2840 1.363 . S
C2842 C2843 1.370 1_556 S
C2842 C2846 1.524 . S
C2843 C2835 1.503 . S
C2843 C2842 1.370 1_554 S
C2843 C2844 1.403 . S
C2844 C2843 1.403 . S
C2844 C2845 1.404 . S
C2844 C2847 1.539 . S
C2845 C2841 1.408 . S
C2845 C2844 1.404 . S
C2845 H2857 0.930 . S
C2846 C2842 1.524 . S
C2846 H2858 0.956 . S
C2846 H2859 0.961 . S
C2846 H2860 0.961 . S
C2847 C2844 1.539 . S
C2847 H2861 0.958 . S
C2847 H2862 0.961 . S
C2847 H2863 0.960 . S
H2848 C2832 0.931 . S
H2849 C2837 0.929 . S
H2850 C2838 0.960 . S
H2851 C2838 0.962 . S
H2852 C2838 0.960 . S
H2853 C2839 0.993 . S
H2854 C2839 0.994 . S
H2855 C2839 0.961 . S
H2856 C2840 0.931 . S
H2857 C2845 0.930 . S
H2858 C2846 0.956 . S
H2859 C2846 0.961 . S
H2860 C2846 0.961 . S
H2861 C2847 0.958 . S
H2862 C2847 0.961 . S
H2863 C2847 0.960 . S
C2864 C2865 1.391 . S
C2864 C2866 1.394 . S
C2864 H2880 0.931 . S
C2865 C2864 1.391 . S
C2865 C2869 1.376 1_545 S
C2866 C2864 1.394 . S
C2866 C2867 1.369 1_545 S
C2866 C2870 1.531 . S
C2867 C2866 1.369 1_565 S
C2867 C2868 1.410 . S
C2867 C2875 1.503 . S
C2868 C2867 1.410 . S
C2868 C2869 1.392 . S
C2868 C2871 1.511 . S
C2869 C2865 1.376 1_565 S
C2869 C2868 1.392 . S
C2869 H2881 0.929 . S
C2870 C2866 1.531 . S
C2870 H2882 0.960 . S
C2870 H2883 0.962 . S
C2870 H2884 0.960 . S
C2871 C2868 1.511 . S
C2871 H2885 0.961 . S
C2871 H2886 0.961 . S
C2871 H2887 0.961 . S
C2872 C2873 1.370 . S
C2872 C2874 1.363 . S
C2872 H2888 0.931 . S
C2873 C2872 1.370 . S
C2873 C2877 1.408 . S
C2874 C2872 1.363 . S
C2874 C2875 1.370 . S
C2874 C2878 1.524 . S
C2875 C2867 1.503 . S
C2875 C2874 1.370 . S
C2875 C2876 1.403 . S
C2876 C2875 1.403 . S
C2876 C2877 1.404 . S
C2876 C2879 1.539 . S
C2877 C2873 1.408 . S
C2877 C2876 1.404 . S
C2877 H2889 0.930 . S
C2878 C2874 1.524 . S
C2878 H2890 0.956 . S
C2878 H2891 0.961 . S
C2878 H2892 0.961 . S
C2879 C2876 1.539 . S
C2879 H2893 0.958 . S
C2879 H2894 0.961 . S
C2879 H2895 0.960 . S
H2880 C2864 0.931 . S
H2881 C2869 0.929 . S
H2882 C2870 0.960 . S
H2883 C2870 0.962 . S
H2884 C2870 0.960 . S
H2885 C2871 0.961 . S
H2886 C2871 0.961 . S
H2887 C2871 0.961 . S
H2888 C2872 0.931 . S
H2889 C2877 0.930 . S
H2890 C2878 0.956 . S
H2891 C2878 0.961 . S
H2892 C2878 0.961 . S
H2893 C2879 0.958 . S
H2894 C2879 0.961 . S
H2895 C2879 0.960 . S
C1369 C353 1.881 . S
C1361 C101 1.882 . S
C1401 C412 1.019 . S
C1393 C125 0.951 . S
C1425 C139 2.107 . S
C1433 C529 2.118 . S
C1465 C597 1.863 1_455 S
C1457 C82 1.890 . S
C1497 C676 1.608 . S
C1489 C196 1.636 . S
C1529 C801 1.889 . S
C1521 C234 1.892 . S
C1553 C220 0.717 . S
C1561 C861 0.769 . S
C1593 C969 1.713 1_565 S
C1585 C173 1.689 . S
C1617 C211 1.223 . S
C1625 C1065 1.259 . S
C1657 C1125 1.068 . S
C1649 C182 1.065 . S
C1681 C201 1.310 . S
C1689 C1028 1.496 . S
C1721 C1145 1.334 . S
C1713 C239 1.219 . S
C1745 C135 1.673 . S
C1753 C1213 1.685 . S
C1777 C87 1.907 . S
C1785 C1204 2.053 . S
C1809 C106 1.019 . S
C1817 C1233 1.201 . S
C1841 C116 1.251 . S
C1849 C1241 1.238 . S
C1873 C59 1.987 . S
C1881 C625 1.996 . S
C1905 C268 2.337 . S
C1913 C588 2.341 . S
C1945 C324 1.160 . S
C1937 C291 1.165 . S
C1977 C421 1.457 . S
C1969 C163 1.377 . S
C2001 C78 2.137 1_545 S
C2009 C685 2.171 . S
C2041 C977 1.113 . S
C2033 C215 1.119 . S
C2073 C705 1.686 . S
C2065 C177 1.696 1_545 S
C2105 C889 1.888 . S
C2097 C230 1.879 . S
C2137 C881 1.901 . S
C2129 C272 1.898 . S
C2161 C296 0.974 . S
C2169 C949 1.030 . S
C2193 C158 2.104 . S
C2201 C713 2.116 . S
C2233 C764 1.849 . S
C2225 C253 1.857 . S
C2257 C63 1.613 . S
C2265 C509 1.607 . S
C2297 C617 1.889 . S
C2289 C6 1.907 . S
C2329 C333 0.760 . S
C2321 C30 0.758 . S
C2361 C449 1.721 . S
C2353 C40 1.720 . S
C2385 C21 1.283 . S
C2393 C1153 1.266 . S
C2417 C49 1.029 . S
C2425 C1037 1.041 . S
C2449 C68 1.381 . S
C2457 C1116 1.465 . S
C2481 C11 1.304 1_556 S
C2489 C1057 1.342 . S
C2521 C1301 1.643 . S
C2513 C154 1.625 . S
C2553 C1292 2.065 . S
C2545 C258 1.898 . S
C2585 C1321 1.257 . S
C2577 C277 1.187 . S
C2609 C287 1.201 . S
C2617 C1329 1.255 . S
C2641 C192 1.968 . S
C2649 C793 1.995 . S
C2681 C773 2.320 . S
C2673 C97 2.289 . S
C2713 C852 1.161 . S
C2705 C120 1.167 . S
C2745 C940 1.468 . S
C2737 C144 1.395 . S
C2769 C249 2.116 . S
C2777 C500 2.171 . S
C2809 C441 1.137 . S
C2801 C25 1.142 . S
C2833 C44 1.654 . S
C2841 C537 1.625 . S
C2873 C361 1.890 . S
C2865 C2 1.854 . S
