# Generated by pormake.
# Topology zzz, (3,6)-cn, num edge types: 1
# Building blocks:
#     Node 0, Type 0, BuildingBlock: BELTOD_clean_linker_0, # of connection points: 3
#     Node 1, Type 0, BuildingBlock: BELTOD_clean_linker_0, # of connection points: 3
#     Node 2, Type 0, BuildingBlock: BELTOD_clean_linker_0, # of connection points: 3
#     Node 3, Type 0, BuildingBlock: BELTOD_clean_linker_0, # of connection points: 3
#     Node 4, Type 0, BuildingBlock: BELTOD_clean_linker_0, # of connection points: 3
#     Node 5, Type 0, BuildingBlock: BELTOD_clean_linker_0, # of connection points: 3
#     Node 6, Type 0, BuildingBlock: BELTOD_clean_linker_0, # of connection points: 3
#     Node 7, Type 0, BuildingBlock: BELTOD_clean_linker_0, # of connection points: 3
#     Node 8, Type 1, BuildingBlock: BETDEL_clean_sbu_0, # of connection points: 6
#     Node 9, Type 1, BuildingBlock: BETDEL_clean_sbu_0, # of connection points: 6
#     Node 10, Type 1, BuildingBlock: BETDEL_clean_sbu_0, # of connection points: 6
#     Node 11, Type 1, BuildingBlock: BETDEL_clean_sbu_0, # of connection points: 6
#     Edge 12, Type (0, 1), BuildingBlock: XUDNAN_clean_linker_2, # of connection points: 2
#     Edge 13, Type (0, 1), BuildingBlock: XUDNAN_clean_linker_2, # of connection points: 2
#     Edge 14, Type (0, 1), BuildingBlock: XUDNAN_clean_linker_2, # of connection points: 2
#     Edge 15, Type (0, 1), BuildingBlock: XUDNAN_clean_linker_2, # of connection points: 2
#     Edge 16, Type (0, 1), BuildingBlock: XUDNAN_clean_linker_2, # of connection points: 2
#     Edge 17, Type (0, 1), BuildingBlock: XUDNAN_clean_linker_2, # of connection points: 2
#     Edge 18, Type (0, 1), BuildingBlock: XUDNAN_clean_linker_2, # of connection points: 2
#     Edge 19, Type (0, 1), BuildingBlock: XUDNAN_clean_linker_2, # of connection points: 2
#     Edge 20, Type (0, 1), BuildingBlock: XUDNAN_clean_linker_2, # of connection points: 2
#     Edge 21, Type (0, 1), BuildingBlock: XUDNAN_clean_linker_2, # of connection points: 2
#     Edge 22, Type (0, 1), BuildingBlock: XUDNAN_clean_linker_2, # of connection points: 2
#     Edge 23, Type (0, 1), BuildingBlock: XUDNAN_clean_linker_2, # of connection points: 2
#     Edge 24, Type (0, 1), BuildingBlock: XUDNAN_clean_linker_2, # of connection points: 2
#     Edge 25, Type (0, 1), BuildingBlock: XUDNAN_clean_linker_2, # of connection points: 2
#     Edge 26, Type (0, 1), BuildingBlock: XUDNAN_clean_linker_2, # of connection points: 2
#     Edge 27, Type (0, 1), BuildingBlock: XUDNAN_clean_linker_2, # of connection points: 2
#     Edge 28, Type (0, 1), BuildingBlock: XUDNAN_clean_linker_2, # of connection points: 2
#     Edge 29, Type (0, 1), BuildingBlock: XUDNAN_clean_linker_2, # of connection points: 2
#     Edge 30, Type (0, 1), BuildingBlock: XUDNAN_clean_linker_2, # of connection points: 2
#     Edge 31, Type (0, 1), BuildingBlock: XUDNAN_clean_linker_2, # of connection points: 2
#     Edge 32, Type (0, 1), BuildingBlock: XUDNAN_clean_linker_2, # of connection points: 2
#     Edge 33, Type (0, 1), BuildingBlock: XUDNAN_clean_linker_2, # of connection points: 2
#     Edge 34, Type (0, 1), BuildingBlock: XUDNAN_clean_linker_2, # of connection points: 2
#     Edge 35, Type (0, 1), BuildingBlock: XUDNAN_clean_linker_2, # of connection points: 2
# Relax obj value: 0.314
# Max RMSD: 0.214
# Mean RMSD: 0.200
data_MOF--net-zzz--node1-BETDEL_clean_sbu_0--node2-BELTOD_clean_linker_0--edge1-XUDNAN_clean_linker_2
_symmetry_space_group_name_H-M    P1
_symmetry_Int_Tables_number       1
_symmetry_cell_setting            triclinic
loop_
_symmetry_equiv_pos_as_xyz
'x, y, z'
_cell_length_a     53.06162
_cell_length_b     52.872206
_cell_length_c     18.434845
_cell_angle_alpha  91.185081
_cell_angle_beta   89.20383
_cell_angle_gamma 95.859163
loop_
_atom_site_label
_atom_site_type_symbol
_atom_site_fract_x
_atom_site_fract_y
_atom_site_fract_z
_atom_type_partial_charge
P0 P 0.73849 0.43651 0.10683 0.0
H1 H 0.74 0.4378 0.26562 0.0
H2 H 0.77148 0.45824 0.34826 0.0
H3 H 0.8055 0.5031 0.17235 0.0
H4 H 0.77436 0.48185 0.08935 0.0
H5 H 0.698 0.41237 0.01807 0.0
H6 H 0.66812 0.4284 0.93559 0.0
H7 H 0.70145 0.50518 0.9794 0.0
H8 H 0.73052 0.48896 0.06444 0.0
H9 H 0.77561 0.40277 0.14547 0.0
H10 H 0.75945 0.44688 0.96066 0.0
O11 O 0.72308 0.41225 0.15096 0.0
H12 H 0.81724 0.39656 0.09342 0.0
H13 H 0.8009 0.44058 0.90821 0.0
C14 C 0.75459 0.45842 0.17128 0.0
C15 C 0.75362 0.45268 0.24521 0.0
C16 C 0.77176 0.46443 0.29262 0.0
C17 C 0.7913 0.48213 0.26687 0.0
C18 C 0.79099 0.48927 0.19381 0.0
C19 C 0.77286 0.47744 0.14645 0.0
C20 C 0.71631 0.44944 0.04806 0.0
C21 C 0.69871 0.43269 0.01043 0.0
C22 C 0.68179 0.4419 0.96255 0.0
C23 C 0.68234 0.46814 0.95036 0.0
C24 C 0.70018 0.4849 0.9881 0.0
C25 C 0.71701 0.47562 0.03653 0.0
C26 C 0.76427 0.42491 0.05639 0.0
C27 C 0.7806 0.41023 0.0923 0.0
C28 C 0.80447 0.40692 0.06297 0.0
C29 C 0.81231 0.41818 0.99702 0.0
C30 C 0.79522 0.43142 0.95873 0.0
C31 C 0.77145 0.43496 0.98857 0.0
P32 P 0.03295 0.72855 0.15583 0.0
H33 H 0.04444 0.75214 0.29647 0.0
H34 H 0.0247 0.786 0.36021 0.0
H35 H 0.95947 0.77264 0.22277 0.0
H36 H 0.9795 0.73924 0.15723 0.0
H37 H 0.0555 0.69847 0.04619 0.0
H38 H 0.0397 0.66175 0.97168 0.0
H39 H 0.96731 0.65944 0.08256 0.0
H40 H 0.98361 0.69579 0.15937 0.0
H41 H 0.07444 0.76903 0.13696 0.0
H42 H 0.00234 0.74495 0.03992 0.0
O43 O 0.06031 0.72297 0.19294 0.0
H44 H 0.07653 0.80894 0.07223 0.0
H45 H 0.00288 0.78542 0.98072 0.0
C46 C 0.01332 0.74258 0.2228 0.0
C47 C 0.02535 0.75546 0.28215 0.0
C48 C 0.0142 0.77503 0.31818 0.0
C49 C 0.9907 0.78183 0.29591 0.0
C50 C 0.97751 0.76745 0.24121 0.0
C51 C 0.98886 0.74808 0.20439 0.0
C52 C 0.02065 0.70012 0.10753 0.0
C53 C 0.03633 0.68986 0.05531 0.0
C54 C 0.02733 0.6688 0.01299 0.0
C55 C 0.00229 0.65775 0.02145 0.0
C56 C 0.98665 0.66773 0.0748 0.0
C57 C 0.9959 0.68863 0.11828 0.0
C58 C 0.0384 0.7539 0.09242 0.0
C59 C 0.0593 0.77212 0.10042 0.0
C60 C 0.06015 0.79524 0.06449 0.0
C61 C 0.03966 0.8009 0.02189 0.0
C62 C 0.01929 0.78192 0.01172 0.0
C63 C 0.01886 0.75861 0.04593 0.0
P64 P 0.77257 0.0375 0.11217 0.0
H65 H 0.76851 0.03158 0.26948 0.0
H66 H 0.73108 0.02156 0.34582 0.0
H67 H 0.68858 0.99355 0.15788 0.0
H68 H 0.72624 0.00362 0.0812 0.0
H69 H 0.82575 0.05087 0.07745 0.0
H70 H 0.85397 0.03512 0.98639 0.0
H71 H 0.79724 0.97303 0.9346 0.0
H72 H 0.76867 0.9894 0.02614 0.0
H73 H 0.73253 0.06988 0.14181 0.0
H74 H 0.76997 0.04136 0.95218 0.0
O75 O 0.78868 0.05949 0.16453 0.0
H76 H 0.70124 0.08644 0.06422 0.0
H77 H 0.73874 0.05758 0.87499 0.0
C78 C 0.75017 0.01871 0.16931 0.0
C79 C 0.75154 0.02226 0.24479 0.0
C80 C 0.73003 0.01667 0.2885 0.0
C81 C 0.70677 0.00728 0.25757 0.0
C82 C 0.70623 0.00075 0.18325 0.0
C83 C 0.72784 0.00642 0.13938 0.0
C84 C 0.79517 0.02111 0.05966 0.0
C85 C 0.81957 0.03339 0.04836 0.0
C86 C 0.83582 0.0243 0.99591 0.0
C87 C 0.82798 0.00278 0.95271 0.0
C88 C 0.80386 0.98979 0.96638 0.0
C89 C 0.78758 0.99892 0.01937 0.0
C90 C 0.75339 0.05407 0.05306 0.0
C91 C 0.73432 0.0676 0.08348 0.0
C92 C 0.71639 0.07694 0.03921 0.0
C93 C 0.71743 0.07311 0.96364 0.0
C94 C 0.73755 0.06099 0.93301 0.0
C95 C 0.75536 0.0515 0.97738 0.0
P96 P 0.48291 0.76357 0.11882 0.0
H97 H 0.45628 0.73859 0.23861 0.0
H98 H 0.47133 0.7098 0.32579 0.0
H99 H 0.54857 0.73779 0.27481 0.0
H100 H 0.53338 0.76677 0.18635 0.0
H101 H 0.47635 0.81758 0.11406 0.0
H102 H 0.49339 0.85097 0.03244 0.0
H103 H 0.54618 0.80112 0.94367 0.0
H104 H 0.52862 0.76764 0.02426 0.0
H105 H 0.44427 0.73299 0.03195 0.0
H106 H 0.52192 0.72905 0.09321 0.0
O107 O 0.45301 0.77046 0.12822 0.0
H108 H 0.44291 0.69001 0.97945 0.0
H109 H 0.52027 0.68602 0.04578 0.0
C110 C 0.49369 0.75494 0.2061 0.0
C111 C 0.47642 0.73969 0.24882 0.0
C112 C 0.48501 0.72297 0.29806 0.0
C113 C 0.51103 0.72143 0.3059 0.0
C114 C 0.52839 0.73878 0.26961 0.0
C115 C 0.51972 0.75552 0.21971 0.0
C116 C 0.50073 0.78985 0.07416 0.0
C117 C 0.49197 0.81398 0.07817 0.0
C118 C 0.50186 0.83318 0.03159 0.0
C119 C 0.52085 0.8286 0.98036 0.0
C120 C 0.53115 0.80509 0.98126 0.0
C121 C 0.52117 0.78589 0.02776 0.0
C122 C 0.48316 0.73431 0.06684 0.0
C123 C 0.46109 0.72304 0.0336 0.0
C124 C 0.46024 0.69828 0.00454 0.0
C125 C 0.48138 0.68431 0.00903 0.0
C126 C 0.50368 0.69614 0.04024 0.0
C127 C 0.50461 0.7209 0.06803 0.0
P128 P 0.25994 0.47487 0.06365 0.0
H129 H 0.23006 0.43662 0.9774 0.0
H130 H 0.20173 0.44144 0.87719 0.0
H131 H 0.23553 0.51844 0.84907 0.0
H132 H 0.26425 0.51337 0.9497 0.0
H133 H 0.27997 0.50388 0.18954 0.0
H134 H 0.32213 0.51067 0.23914 0.0
H135 H 0.35265 0.47916 0.04242 0.0
H136 H 0.30971 0.47192 0.9933 0.0
H137 H 0.21307 0.4587 0.1413 0.0
H138 H 0.25479 0.52926 0.07814 0.0
O139 O 0.25679 0.44512 0.09363 0.0
H140 H 0.1777 0.48162 0.18139 0.0
H141 H 0.21898 0.55239 0.11602 0.0
C142 C 0.24957 0.47454 0.97088 0.0
C143 C 0.23233 0.45418 0.94773 0.0
C144 C 0.21574 0.45709 0.89106 0.0
C145 C 0.21598 0.4805 0.85628 0.0
C146 C 0.23487 0.50015 0.87481 0.0
C147 C 0.25149 0.49721 0.93193 0.0
C148 C 0.29163 0.48794 0.08674 0.0
C149 C 0.29574 0.4994 0.15546 0.0
C150 C 0.32008 0.50324 0.18413 0.0
C151 C 0.34098 0.49539 0.14516 0.0
C152 C 0.337 0.4852 0.0744 0.0
C153 C 0.31249 0.48136 0.04569 0.0
C154 C 0.23671 0.49235 0.10815 0.0
C155 C 0.21482 0.47921 0.13741 0.0
C156 C 0.19442 0.49232 0.15909 0.0
C157 C 0.19539 0.51879 0.15063 0.0
C158 C 0.21771 0.53204 0.12344 0.0
C159 C 0.23819 0.51886 0.10206 0.0
P160 P 0.09828 0.27008 0.00793 0.0
H161 H 0.11235 0.2494 0.86673 0.0
H162 H 0.09227 0.21243 0.80099 0.0
H163 H 0.02403 0.21677 0.92874 0.0
H164 H 0.04421 0.25373 0.9945 0.0
H165 H 0.11714 0.30071 0.13024 0.0
H166 H 0.10246 0.33702 0.19575 0.0
H167 H 0.03964 0.33631 0.04855 0.0
H168 H 0.05522 0.30045 0.9813 0.0
H169 H 0.12829 0.22726 0.02259 0.0
H170 H 0.06372 0.25596 0.1281 0.0
O171 O 0.12812 0.27756 0.98011 0.0
H172 H 0.11868 0.18673 0.08338 0.0
H173 H 0.05339 0.21543 0.18663 0.0
C174 C 0.0798 0.25454 0.93549 0.0
C175 C 0.09258 0.2434 0.87787 0.0
C176 C 0.08111 0.22207 0.84044 0.0
C177 C 0.05676 0.21143 0.86077 0.0
C178 C 0.04294 0.22443 0.91252 0.0
C179 C 0.05436 0.24586 0.94945 0.0
C180 C 0.08714 0.29773 0.05148 0.0
C181 C 0.10029 0.30849 0.11177 0.0
C182 C 0.09172 0.32914 0.1496 0.0
C183 C 0.06963 0.33945 0.12818 0.0
C184 C 0.05678 0.32895 0.06641 0.0
C185 C 0.06552 0.30828 0.02821 0.0
C186 C 0.09708 0.24483 0.07204 0.0
C187 C 0.11261 0.22517 0.06095 0.0
C188 C 0.10678 0.20183 0.09471 0.0
C189 C 0.08504 0.19763 0.1392 0.0
C190 C 0.07046 0.21799 0.15361 0.0
C191 C 0.07643 0.24133 0.12029 0.0
P192 P 0.24183 0.02836 0.0028 0.0
H193 H 0.24258 0.04301 0.85026 0.0
H194 H 0.27469 0.03876 0.7565 0.0
H195 H 0.30781 0.98389 0.88659 0.0
H196 H 0.27396 0.98638 0.97622 0.0
H197 H 0.19243 0.0482 0.01722 0.0
H198 H 0.15407 0.0328 0.08303 0.0
H199 H 0.18508 0.96154 0.11754 0.0
H200 H 0.22297 0.97681 0.04821 0.0
H201 H 0.29679 0.03737 0.0126 0.0
H202 H 0.23434 0.01719 0.15959 0.0
O203 O 0.23995 0.05929 0.9905 0.0
H204 H 0.32629 0.02658 0.10278 0.0
H205 H 0.26394 0.00814 0.2529 0.0
C206 C 0.2565 0.01589 0.92188 0.0
C207 C 0.25605 0.0292 0.85712 0.0
C208 C 0.27488 0.02708 0.804 0.0
C209 C 0.29502 0.01217 0.81557 0.0
C210 C 0.29311 0.99599 0.87569 0.0
C211 C 0.27364 0.99745 0.92754 0.0
C212 C 0.21071 0.01371 0.028 0.0
C213 C 0.19068 0.02894 0.03678 0.0
C214 C 0.1688 0.02021 0.07569 0.0
C215 C 0.16657 0.99614 0.10773 0.0
C216 C 0.18589 0.98015 0.09373 0.0
C217 C 0.20765 0.9888 0.05368 0.0
C218 C 0.26326 0.02629 0.07719 0.0
C219 C 0.2894 0.03076 0.06467 0.0
C220 C 0.30637 0.02495 0.11725 0.0
C221 C 0.29759 0.01578 0.18522 0.0
C222 C 0.2714 0.01405 0.20028 0.0
C223 C 0.25438 0.01929 0.14671 0.0
P224 P 0.44246 0.24833 0.99684 0.0
H225 H 0.43972 0.24456 0.83871 0.0
H226 H 0.46291 0.27145 0.74969 0.0
H227 H 0.5188 0.2965 0.91068 0.0
H228 H 0.49562 0.26904 0.99966 0.0
H229 H 0.4177 0.23592 0.13331 0.0
H230 H 0.42299 0.20425 0.22444 0.0
H231 H 0.48601 0.17906 0.10144 0.0
H232 H 0.48082 0.21152 0.01032 0.0
H233 H 0.42193 0.29309 0.94291 0.0
H234 H 0.46239 0.27301 0.13115 0.0
O235 O 0.41448 0.23834 0.96056 0.0
H236 H 0.43194 0.33816 0.97358 0.0
H237 H 0.47133 0.31771 0.16399 0.0
C238 C 0.46583 0.25485 0.92609 0.0
C239 C 0.45769 0.25468 0.85405 0.0
C240 C 0.47093 0.27029 0.80309 0.0
C241 C 0.49238 0.28653 0.82368 0.0
C242 C 0.50212 0.28445 0.89361 0.0
C243 C 0.48908 0.26844 0.9442 0.0
C244 C 0.44893 0.22614 0.06541 0.0
C245 C 0.43286 0.2238 0.12629 0.0
C246 C 0.43583 0.20557 0.17816 0.0
C247 C 0.45476 0.18894 0.16989 0.0
C248 C 0.47135 0.19171 0.10958 0.0
C249 C 0.46835 0.21014 0.05738 0.0
C250 C 0.44097 0.27964 0.03542 0.0
C251 C 0.4319 0.29834 0.99273 0.0
C252 C 0.43779 0.32411 0.01001 0.0
C253 C 0.45285 0.3315 0.07039 0.0
C254 C 0.46021 0.31263 0.11606 0.0
C255 C 0.45461 0.28695 0.0982 0.0
Dy256 Dy 0.01029 0.97927 0.62514 0.0
C257 C 0.00972 0.04447 0.38233 0.0
C258 C 0.01315 0.95274 0.74896 0.0
Dy259 Dy 1.00165 0.0121 0.49512 0.0
O260 O 0.0305 0.96996 0.72603 0.0
O261 O 0.99406 0.95044 0.70508 0.0
O262 O 0.03767 0.95869 0.55737 0.0
O263 O 0.03465 0.997 0.53911 0.0
C264 C 0.04477 0.97776 0.51655 0.0
C265 C 0.95975 0.99924 0.57534 0.0
O266 O 0.99505 0.97233 0.44853 0.0
O267 O 0.9835 0.95366 0.55809 0.0
O268 O 0.01707 0.02179 0.38371 0.0
O269 O 0.99719 0.04904 0.44139 0.0
O270 O 0.95931 0.00315 0.50585 0.0
O271 O 0.98193 0.00456 0.59852 0.0
O272 O 0.01785 0.01779 0.67752 0.0
O273 O 0.01906 0.04188 0.57321 0.0
C274 C 0.98458 0.95286 0.48643 0.0
C275 C 0.02177 0.03986 0.64421 0.0
Dy276 Dy 0.48703 0.99265 0.52345 0.0
C277 C 0.56312 0.05397 0.68666 0.0
C278 C 0.44539 0.97314 0.44897 0.0
Dy279 Dy 0.52206 0.0289 0.61976 0.0
O280 O 0.46615 0.98389 0.42024 0.0
O281 O 0.44791 0.97178 0.51873 0.0
O282 O 0.52096 0.97722 0.46907 0.0
O283 O 0.52337 0.01484 0.50856 0.0
C284 C 0.53592 0.99793 0.48132 0.0
C285 C 0.47296 0.02656 0.65625 0.0
O286 O 0.51136 0.05708 0.53883 0.0
O287 O 0.47633 0.03129 0.49713 0.0
O288 O 0.56041 0.05107 0.61719 0.0
O289 O 0.54325 0.04326 0.72019 0.0
O290 O 0.48888 0.04666 0.66709 0.0
O291 O 0.4846 0.00817 0.63354 0.0
O292 O 0.49774 0.9637 0.59888 0.0
O293 O 0.53042 0.98971 0.65452 0.0
C294 C 0.49012 0.05358 0.50118 0.0
C295 C 0.51722 0.96721 0.64323 0.0
Dy296 Dy 0.51091 0.51017 0.61036 0.0
C297 C 0.52628 0.47931 0.31541 0.0
C298 C 0.50253 0.52708 0.74853 0.0
Dy299 Dy 0.52954 0.49217 0.45919 0.0
O300 O 0.48548 0.51484 0.70751 0.0
O301 O 0.52426 0.52901 0.71484 0.0
O302 O 0.47567 0.52044 0.55455 0.0
O303 O 0.49388 0.48935 0.51733 0.0
C304 C 0.47613 0.50261 0.50519 0.0
C305 C 0.56559 0.49891 0.55893 0.0
O306 O 0.52951 0.53443 0.44279 0.0
O307 O 0.52392 0.54778 0.56271 0.0
O308 O 0.54222 0.47106 0.36017 0.0
O309 O 0.51305 0.49532 0.34901 0.0
O310 O 0.56718 0.48386 0.50251 0.0
O311 O 0.54707 0.51185 0.55263 0.0
O312 O 0.51739 0.46961 0.63219 0.0
O313 O 0.51645 0.45525 0.51205 0.0
C314 C 0.52816 0.55262 0.49316 0.0
C315 C 0.51671 0.45089 0.58278 0.0
Dy316 Dy 0.99563 0.48176 0.61634 0.0
C317 C 0.04094 0.54033 0.38294 0.0
C318 C 0.96809 0.45769 0.7253 0.0
Dy319 Dy 0.01484 0.51766 0.49675 0.0
O320 O 0.96657 0.45146 0.65703 0.0
O321 O 0.98512 0.47693 0.73465 0.0
O322 O 0.01531 0.45028 0.56429 0.0
O323 O 1.00106 0.47759 0.49937 0.0
C324 C 0.01392 0.45882 0.49901 0.0
C325 C 0.99581 0.54031 0.61307 0.0
O326 O 0.97497 0.50973 0.45987 0.0
O327 O 0.96015 0.49584 0.57254 0.0
O328 O 0.03825 0.55078 0.44652 0.0
O329 O 0.02892 0.51769 0.38141 0.0
O330 O 0.99389 0.54837 0.5474 0.0
O331 O 0.00929 0.52199 0.61369 0.0
O332 O 0.03567 0.48856 0.65321 0.0
O333 O 0.05088 0.50644 0.54519 0.0
C334 C 0.9561 0.50328 0.50574 0.0
C335 C 0.0547 0.49719 0.61016 0.0
H336 H 0.1432 0.02684 0.20549 0.0
H337 H 0.1418 0.94833 0.12987 0.0
H338 H 0.10958 0.9356 0.22346 0.0
H339 H 0.13666 0.01514 0.39135 0.0
H340 H 0.11612 0.03962 0.41074 0.0
H341 H 0.13821 0.04292 0.33572 0.0
H342 H 0.10148 0.04846 0.24833 0.0
H343 H 0.07926 0.04525 0.32317 0.0
H344 H 0.07475 0.02456 0.2444 0.0
H345 H 0.08026 0.93086 0.33178 0.0
H346 H 0.05366 0.93482 0.4417 0.0
H347 H 0.07144 0.01671 0.44167 0.0
C348 C 0.13574 0.00703 0.20702 0.0
C349 C 0.14529 0.98862 0.15978 0.0
C350 C 0.13525 0.96282 0.16572 0.0
C351 C 0.11676 0.9554 0.21851 0.0
C352 C 0.10816 0.974 0.26465 0.0
C353 C 0.11706 0.99933 0.25881 0.0
C354 C 0.10503 0.01548 0.31614 0.0
C355 C 0.12521 0.02908 0.36645 0.0
C356 C 0.08919 0.03457 0.28089 0.0
C357 C 0.0883 0.99519 0.35605 0.0
C358 C 0.09047 0.97138 0.32551 0.0
C359 C 0.0781 0.94944 0.35539 0.0
C360 C 0.06313 0.95187 0.41799 0.0
C361 C 0.06037 0.97606 0.44975 0.0
C362 C 0.07297 0.99801 0.41791 0.0
H363 H 0.49691 0.17197 0.23344 0.0
H364 H 0.41493 0.15811 0.22344 0.0
H365 H 0.41544 0.12417 0.31248 0.0
H366 H 0.50832 0.10606 0.24768 0.0
H367 H 0.53426 0.11236 0.30976 0.0
H368 H 0.52763 0.13616 0.24615 0.0
H369 H 0.5241 0.16853 0.3523 0.0
H370 H 0.5305 0.14474 0.41629 0.0
H371 H 0.50217 0.1607 0.42596 0.0
H372 H 0.42421 0.09138 0.39898 0.0
H373 H 0.44109 0.0599 0.47642 0.0
H374 H 0.51765 0.09414 0.43431 0.0
C375 C 0.47911 0.16171 0.24993 0.0
C376 C 0.45583 0.16796 0.22206 0.0
C377 C 0.43294 0.15408 0.24505 0.0
C378 C 0.43302 0.13468 0.29546 0.0
C379 C 0.45615 0.12929 0.32271 0.0
C380 C 0.47882 0.14223 0.30079 0.0
C381 C 0.50099 0.13205 0.33804 0.0
C382 C 0.51885 0.121 0.28206 0.0
C383 C 0.51528 0.15274 0.386 0.0
C384 C 0.48716 0.11128 0.38371 0.0
C385 C 0.46129 0.11018 0.37385 0.0
C386 C 0.44441 0.09211 0.40754 0.0
C387 C 0.45421 0.07431 0.45143 0.0
C388 C 0.48066 0.07469 0.46174 0.0
C389 C 0.49734 0.09372 0.42841 0.0
H390 H 0.36411 0.53072 0.24242 0.0
H391 H 0.37367 0.45844 0.13463 0.0
H392 H 0.41114 0.45419 0.20901 0.0
H393 H 0.43278 0.55111 0.26877 0.0
H394 H 0.4272 0.5652 0.35661 0.0
H395 H 0.40338 0.56443 0.2876 0.0
H396 H 0.37057 0.54151 0.37581 0.0
H397 H 0.3943 0.54192 0.4447 0.0
H398 H 0.37733 0.51219 0.41609 0.0
H399 H 0.44402 0.45488 0.30533 0.0
H400 H 0.47217 0.46217 0.41079 0.0
H401 H 0.44124 0.53361 0.45841 0.0
C402 C 0.37428 0.51417 0.23358 0.0
C403 C 0.36584 0.49498 0.18207 0.0
C404 C 0.37988 0.47369 0.17238 0.0
C405 C 0.40113 0.47098 0.21494 0.0
C406 C 0.40829 0.48975 0.26691 0.0
C407 C 0.39552 0.51112 0.27577 0.0
C408 C 0.40625 0.52777 0.33842 0.0
C409 C 0.4181 0.55366 0.31121 0.0
C410 C 0.3859 0.53103 0.39722 0.0
C411 C 0.42639 0.51194 0.36507 0.0
C412 C 0.42739 0.4902 0.32256 0.0
C413 C 0.44366 0.47203 0.33827 0.0
C414 C 0.45952 0.4763 0.39843 0.0
C415 C 0.45901 0.49854 0.44239 0.0
C416 C 0.44215 0.51653 0.42545 0.0
H417 H 0.069 0.34579 0.27637 0.0
H418 H 0.04826 0.38112 0.0783 0.0
H419 H 0.03242 0.41615 0.15113 0.0
H420 H 0.01657 0.36103 0.3844 0.0
H421 H 0.03475 0.36705 0.46594 0.0
H422 H 0.04452 0.34504 0.39793 0.0
H423 H 0.08878 0.37068 0.39037 0.0
H424 H 0.07914 0.39279 0.45841 0.0
H425 H 0.09108 0.40418 0.37177 0.0
H426 H 0.01812 0.44704 0.24711 0.0
H427 H 0.0063 0.47072 0.35756 0.0
H428 H 0.03829 0.4158 0.4912 0.0
C429 C 0.06145 0.36102 0.24796 0.0
C430 C 0.05997 0.36066 0.17137 0.0
C431 C 0.04937 0.38077 0.13685 0.0
C432 C 0.04049 0.40085 0.17777 0.0
C433 C 0.0424 0.4006 0.25314 0.0
C434 C 0.05266 0.38119 0.28779 0.0
C435 C 0.05237 0.38514 0.36935 0.0
C436 C 0.03608 0.36327 0.40657 0.0
C437 C 0.07945 0.38839 0.39921 0.0
C438 C 0.04013 0.40972 0.37546 0.0
C439 C 0.03454 0.41841 0.30789 0.0
C440 C 0.02259 0.44049 0.30018 0.0
C441 C 0.01605 0.45388 0.36316 0.0
C442 C 0.02162 0.44523 0.43278 0.0
C443 C 0.03393 0.42295 0.43866 0.0
H444 H 0.88013 0.00346 0.94488 0.0
H445 H 0.81227 0.98716 0.8163 0.0
H446 H 0.83872 0.98082 0.70773 0.0
H447 H 0.91503 0.04005 0.81569 0.0
H448 H 0.94513 0.02888 0.8353 0.0
H449 H 0.92104 0.0289 0.90495 0.0
H450 H 0.92324 0.98074 0.92363 0.0
H451 H 0.94747 0.98059 0.85413 0.0
H452 H 0.91901 0.959 0.84712 0.0
H453 H 0.87249 0.98103 0.61018 0.0
H454 H 0.91105 0.98618 0.53264 0.0
H455 H 0.95701 0.00239 0.72394 0.0
C456 C 0.87078 0.99821 0.89414 0.0
C457 C 0.844 0.99567 0.88961 0.0
C458 C 0.83265 0.98873 0.8219 0.0
C459 C 0.84756 0.98525 0.75963 0.0
C460 C 0.87386 0.98858 0.76572 0.0
C461 C 0.88539 0.99466 0.83143 0.0
C462 C 0.914 0.99858 0.82253 0.0
C463 C 0.9244 0.02571 0.84599 0.0
C464 C 0.92667 0.97853 0.86434 0.0
C465 C 0.9167 0.99451 0.74125 0.0
C466 C 0.89333 0.98858 0.70954 0.0
C467 C 0.8909 0.98532 0.63458 0.0
C468 C 0.91288 0.98836 0.59094 0.0
C469 C 0.93696 0.99459 0.62229 0.0
C470 C 0.93885 0.99737 0.69853 0.0
H471 H 0.52723 0.88124 0.98789 0.0
H472 H 0.52784 0.81717 0.83688 0.0
H473 H 0.53251 0.84657 0.7349 0.0
H474 H 0.48961 0.91617 0.88601 0.0
H475 H 0.50577 0.94702 0.90756 0.0
H476 H 0.5065 0.92144 0.97007 0.0
H477 H 0.55557 0.92725 0.9675 0.0
H478 H 0.555 0.95299 0.90508 0.0
H479 H 0.57226 0.92626 0.8818 0.0
H480 H 0.52973 0.88158 0.64889 0.0
H481 H 0.52279 0.92076 0.58443 0.0
H482 H 0.52584 0.96305 0.78852 0.0
C483 C 0.5289 0.87344 0.93347 0.0
C484 C 0.52741 0.84682 0.92073 0.0
C485 C 0.5295 0.83743 0.84852 0.0
C486 C 0.53202 0.854 0.78999 0.0
C487 C 0.53273 0.88002 0.80427 0.0
C488 C 0.5316 0.88979 0.87422 0.0
C489 C 0.53098 0.91844 0.87403 0.0
C490 C 0.50678 0.92621 0.91163 0.0
C491 C 0.55488 0.93203 0.90919 0.0
C492 C 0.53081 0.92304 0.79307 0.0
C493 C 0.53197 0.90058 0.75392 0.0
C494 C 0.52948 0.8994 0.67873 0.0
C495 C 0.52546 0.92167 0.64263 0.0
C496 C 0.52429 0.94485 0.68153 0.0
C497 C 0.52745 0.94565 0.75751 0.0
H498 H 0.66574 0.44639 0.82022 0.0
H499 H 0.65812 0.51176 0.96243 0.0
H500 H 0.62824 0.52742 0.87655 0.0
H501 H 0.66257 0.47782 0.65146 0.0
H502 H 0.64412 0.4515 0.60749 0.0
H503 H 0.66532 0.44575 0.67942 0.0
H504 H 0.62815 0.42135 0.75006 0.0
H505 H 0.60688 0.42694 0.67819 0.0
H506 H 0.59997 0.4367 0.76994 0.0
H507 H 0.5985 0.53567 0.77492 0.0
H508 H 0.5715 0.53551 0.66629 0.0
H509 H 0.59771 0.46409 0.59383 0.0
C510 C 0.65767 0.46389 0.83391 0.0
C511 C 0.66443 0.47782 0.89835 0.0
C512 C 0.65364 0.50089 0.91305 0.0
C513 C 0.63648 0.50987 0.86479 0.0
C514 C 0.6302 0.49557 0.80206 0.0
C515 C 0.64043 0.47304 0.78669 0.0
C516 C 0.63035 0.46103 0.71619 0.0
C517 C 0.65187 0.45891 0.66035 0.0
C518 C 0.61545 0.43497 0.72942 0.0
C519 C 0.61296 0.48041 0.69395 0.0
C520 C 0.61305 0.50019 0.7442 0.0
C521 C 0.59825 0.52023 0.7354 0.0
C522 C 0.58287 0.51993 0.67387 0.0
C523 C 0.58241 0.49972 0.62224 0.0
C524 C 0.59779 0.47985 0.63235 0.0
H525 H 0.02397 0.61449 0.98378 0.0
H526 H 0.9591 0.6554 0.94204 0.0
H527 H 0.94681 0.62544 0.84088 0.0
H528 H 0.04139 0.60468 0.80842 0.0
H529 H 0.05067 0.57308 0.81815 0.0
H530 H 0.0518 0.59463 0.89495 0.0
H531 H 0.02267 0.56192 0.96846 0.0
H532 H 0.02161 0.54008 0.89188 0.0
H533 H 0.99259 0.54918 0.93174 0.0
H534 H 0.94666 0.59686 0.73099 0.0
H535 H 0.95636 0.56901 0.62689 0.0
H536 H 0.01971 0.5447 0.74355 0.0
C537 C 0.00676 0.61661 0.95462 0.0
C538 C 0.99238 0.63713 0.9707 0.0
C539 C 0.97012 0.63957 0.93116 0.0
C540 C 0.96306 0.62269 0.87353 0.0
C541 C 0.97818 0.60319 0.85726 0.0
C542 C 0.99928 0.59972 0.89767 0.0
C543 C 0.01343 0.57856 0.8656 0.0
C544 C 0.04094 0.58834 0.84558 0.0
C545 C 0.01251 0.5561 0.91752 0.0
C546 C 0.99781 0.57161 0.79865 0.0
C547 C 0.97745 0.58592 0.79508 0.0
C548 C 0.96206 0.58502 0.73418 0.0
C549 C 0.96777 0.5693 0.67526 0.0
C550 C 0.98849 0.55456 0.67806 0.0
C551 C 0.00334 0.55531 0.74108 0.0
H552 H 0.0623 0.18424 0.27007 0.0
H553 H 0.08677 0.15226 0.06509 0.0
H554 H 0.06936 0.10957 0.10358 0.0
H555 H 0.07379 0.13173 0.38273 0.0
H556 H 0.04596 0.13438 0.43839 0.0
H557 H 0.06169 0.16216 0.39611 0.0
H558 H 0.01955 0.17041 0.33562 0.0
H559 H 0.00376 0.1425 0.37721 0.0
H560 H 0.00303 0.14575 0.28013 0.0
H561 H 0.04921 0.07012 0.1648 0.0
H562 H 0.02808 0.03719 0.24519 0.0
H563 H 0.01413 0.09562 0.40491 0.0
C564 C 0.06403 0.16831 0.23315 0.0
C565 C 0.07618 0.17169 0.16478 0.0
C566 C 0.07814 0.15018 0.11849 0.0
C567 C 0.06806 0.12584 0.13951 0.0
C568 C 0.05587 0.12331 0.20672 0.0
C569 C 0.05384 0.14396 0.25287 0.0
C570 C 0.03938 0.13622 0.32157 0.0
C571 C 0.05622 0.14142 0.38864 0.0
C572 C 0.01498 0.14951 0.32902 0.0
C573 C 0.03353 0.108 0.30673 0.0
C574 C 0.04334 0.10085 0.24043 0.0
C575 C 0.04123 0.07553 0.21649 0.0
C576 C 0.02917 0.057 0.26219 0.0
C577 C 0.01922 0.06401 0.33038 0.0
C578 C 0.02109 0.08985 0.35224 0.0
H579 H 0.34743 0.03409 0.20729 0.0
H580 H 0.28907 0.97634 0.28138 0.0
H581 H 0.32025 0.95893 0.35915 0.0
H582 H 0.39451 0.99203 0.18617 0.0
H583 H 0.42011 0.01517 0.21344 0.0
H584 H 0.39252 0.02538 0.17164 0.0
H585 H 0.38569 0.05531 0.28207 0.0
H586 H 0.41354 0.04546 0.32339 0.0
H587 H 0.38373 0.04248 0.37206 0.0
H588 H 0.35874 0.94785 0.42971 0.0
H589 H 0.40121 0.94338 0.48057 0.0
H590 H 0.43399 0.00386 0.34273 0.0
C591 C 0.34101 0.01772 0.2394 0.0
C592 C 0.31561 0.00673 0.2378 0.0
C593 C 0.30821 0.9856 0.28244 0.0
C594 C 0.32587 0.97535 0.32642 0.0
C595 C 0.35091 0.98617 0.32439 0.0
C596 C 0.35843 0.00683 0.28167 0.0
C597 C 0.38667 0.01398 0.28481 0.0
C598 C 0.39918 0.01148 0.20954 0.0
C599 C 0.39274 0.0409 0.31755 0.0
C600 C 0.39394 0.99395 0.33542 0.0
C601 C 0.3731 0.97837 0.35916 0.0
C602 C 0.37525 0.95964 0.41043 0.0
C603 C 0.39934 0.95708 0.4386 0.0
C604 C 0.42079 0.97267 0.41352 0.0
C605 C 0.41801 0.99102 0.36075 0.0
H606 H 0.50039 0.35002 0.11208 0.0
H607 H 0.42723 0.37396 0.05829 0.0
H608 H 0.44305 0.41843 0.08942 0.0
H609 H 0.50808 0.38519 0.26713 0.0
H610 H 0.5419 0.39253 0.2581 0.0
H611 H 0.5267 0.36429 0.21564 0.0
H612 H 0.54599 0.37895 0.09145 0.0
H613 H 0.561 0.40756 0.13374 0.0
H614 H 0.54033 0.4096 0.05774 0.0
H615 H 0.46419 0.4584 0.14537 0.0
H616 H 0.48678 0.48889 0.23088 0.0
H617 H 0.54556 0.43843 0.25215 0.0
C618 C 0.48775 0.36465 0.10595 0.0
C619 C 0.46253 0.35853 0.08322 0.0
C620 C 0.4467 0.37826 0.07504 0.0
C621 C 0.45558 0.40357 0.09227 0.0
C622 C 0.48039 0.40883 0.11661 0.0
C623 C 0.49624 0.38984 0.12332 0.0
C624 C 0.52069 0.39956 0.16028 0.0
C625 C 0.52454 0.38452 0.22936 0.0
C626 C 0.54334 0.39888 0.10764 0.0
C627 C 0.51549 0.4266 0.17791 0.0
C628 C 0.49254 0.43188 0.15001 0.0
C629 C 0.48243 0.45469 0.16599 0.0
C630 C 0.49543 0.47193 0.21459 0.0
C631 C 0.51791 0.46593 0.24781 0.0
C632 C 0.52867 0.44364 0.22636 0.0
H633 H 0.14595 0.50278 0.12227 0.0
H634 H 0.19403 0.56463 0.22262 0.0
H635 H 0.15607 0.58362 0.26783 0.0
H636 H 0.08969 0.54005 0.08433 0.0
H637 H 0.06783 0.51296 0.10732 0.0
H638 H 0.09798 0.50834 0.06537 0.0
H639 H 0.10818 0.47974 0.1716 0.0
H640 H 0.07819 0.48416 0.21317 0.0
H641 H 0.10693 0.49207 0.26338 0.0
H642 H 0.11458 0.5905 0.32409 0.0
H643 H 0.07424 0.5831 0.39214 0.0
H644 H 0.0529 0.51639 0.2577 0.0
C645 C 0.14846 0.52065 0.15238 0.0
C646 C 0.1729 0.53221 0.16919 0.0
C647 C 0.17547 0.5556 0.20839 0.0
C648 C 0.15399 0.56657 0.23404 0.0
C649 C 0.13012 0.55407 0.21917 0.0
C650 C 0.12727 0.53166 0.17871 0.0
C651 C 0.10013 0.51969 0.18018 0.0
C652 C 0.08821 0.52031 0.10481 0.0
C653 C 0.09827 0.49233 0.20885 0.0
C654 C 0.08858 0.53768 0.23281 0.0
C655 C 0.10591 0.55794 0.25253 0.0
C656 C 0.10064 0.57515 0.30766 0.0
C657 C 0.07767 0.57082 0.34606 0.0
C658 C 0.06056 0.54924 0.3297 0.0
C659 C 0.06551 0.5333 0.27014 0.0
H660 H 0.01657 0.81407 0.89658 0.0
H661 H 0.05979 0.84706 0.08024 0.0
H662 H 0.05693 0.88978 0.0326 0.0
H663 H 0.04012 0.85744 0.76273 0.0
H664 H 0.00986 0.85844 0.72019 0.0
H665 H 0.01655 0.83041 0.76704 0.0
H666 H 0.97639 0.83321 0.8474 0.0
H667 H 0.96966 0.86138 0.80103 0.0
H668 H 0.97261 0.86208 0.89837 0.0
H669 H 0.05125 0.92906 0.96016 0.0
H670 H 0.04073 0.96139 0.87273 0.0
H671 H 0.99607 0.9028 0.74899 0.0
C672 C 0.02522 0.83013 0.92777 0.0
C673 C 0.03867 0.82683 0.99206 0.0
C674 C 0.05001 0.84872 0.02972 0.0
C675 C 0.04822 0.87321 0.00362 0.0
C676 C 0.03455 0.87563 0.94068 0.0
C677 C 0.02298 0.85467 0.90385 0.0
C678 C 0.00871 0.86235 0.83876 0.0
C679 C 0.01946 0.85152 0.76802 0.0
C680 C 0.98015 0.85427 0.84692 0.0
C681 C 0.01438 0.89092 0.84401 0.0
C682 C 0.02955 0.89826 0.90269 0.0
C683 C 0.03895 0.92359 0.91493 0.0
C684 C 0.03289 0.94179 0.86531 0.0
C685 C 0.01715 0.93453 0.80563 0.0
C686 C 0.0075 0.90889 0.79564 0.0
H687 H 0.66687 0.06279 0.99127 0.0
H688 H 0.72032 0.09566 0.83059 0.0
H689 H 0.685 0.09963 0.74685 0.0
H690 H 0.63028 0.02484 0.8741 0.0
H691 H 0.60027 0.0284 0.9181 0.0
H692 H 0.62889 0.03227 0.96988 0.0
H693 H 0.61894 0.07725 0.01235 0.0
H694 H 0.59006 0.07345 0.96105 0.0
H695 H 0.61304 0.10041 0.94588 0.0
H696 H 0.64515 0.09423 0.67524 0.0
H697 H 0.60359 0.08026 0.62113 0.0
H698 H 0.57591 0.05153 0.82917 0.0
C699 C 0.67104 0.07174 0.93956 0.0
C700 C 0.69627 0.07917 0.91758 0.0
C701 C 0.70109 0.08988 0.8484 0.0
C702 C 0.68115 0.09234 0.80074 0.0
C703 C 0.65654 0.08414 0.82336 0.0
C704 C 0.65139 0.07425 0.89141 0.0
C705 C 0.62372 0.06438 0.89982 0.0
C706 C 0.62063 0.03579 0.91641 0.0
C707 C 0.61067 0.0798 0.95824 0.0
C708 C 0.61428 0.06935 0.82491 0.0
C709 C 0.63343 0.08109 0.78194 0.0
C710 C 0.62987 0.08556 0.70876 0.0
C711 C 0.60625 0.07752 0.67849 0.0
C712 C 0.58659 0.06512 0.72135 0.0
C713 C 0.59051 0.06146 0.79571 0.0
H714 H 0.51928 0.66027 0.9427 0.0
H715 H 0.44097 0.64719 0.01594 0.0
H716 H 0.4394 0.60271 0.97131 0.0
H717 H 0.51369 0.62461 0.78366 0.0
H718 H 0.54404 0.61234 0.78997 0.0
H719 H 0.53914 0.64239 0.83232 0.0
H720 H 0.55305 0.62587 0.9556 0.0
H721 H 0.55772 0.59559 0.91358 0.0
H722 H 0.53697 0.59704 0.99149 0.0
H723 H 0.44528 0.56103 0.90679 0.0
H724 H 0.45792 0.52658 0.82524 0.0
H725 H 0.53334 0.56608 0.80608 0.0
C726 C 0.50193 0.648 0.95115 0.0
C727 C 0.48025 0.65739 0.98292 0.0
C728 C 0.45774 0.64068 0.99071 0.0
C729 C 0.45676 0.61525 0.96647 0.0
C730 C 0.47856 0.60667 0.93575 0.0
C731 C 0.50076 0.62257 0.92852 0.0
C732 C 0.52118 0.60926 0.89014 0.0
C733 C 0.53 0.62296 0.81988 0.0
C734 C 0.54355 0.60679 0.94074 0.0
C735 C 0.50674 0.58365 0.8743 0.0
C736 C 0.48224 0.58237 0.90155 0.0
C737 C 0.46458 0.56157 0.88667 0.0
C738 C 0.47191 0.54206 0.84059 0.0
C739 C 0.49667 0.54357 0.81047 0.0
C740 C 0.51449 0.56412 0.82993 0.0
H741 H 0.83033 0.40891 0.85998 0.0
H742 H 0.85446 0.43043 0.0784 0.0
H743 H 0.89877 0.4379 0.03496 0.0
H744 H 0.88833 0.37798 0.80504 0.0
H745 H 0.8876 0.38974 0.71408 0.0
H746 H 0.85847 0.38256 0.76441 0.0
H747 H 0.84683 0.42831 0.74407 0.0
H748 H 0.8759 0.43565 0.69412 0.0
H749 H 0.86867 0.45503 0.77172 0.0
H750 H 0.93888 0.44997 0.96444 0.0
H751 H 0.97217 0.46275 0.87289 0.0
H752 H 0.92243 0.43113 0.70209 0.0
C753 C 0.84507 0.41458 0.89882 0.0
C754 C 0.83907 0.41889 0.97254 0.0
C755 C 0.85875 0.42656 0.02188 0.0
C756 C 0.88395 0.43094 0.99767 0.0
C757 C 0.88918 0.42715 0.92422 0.0
C758 C 0.87034 0.41874 0.87571 0.0
C759 C 0.88064 0.41785 0.79887 0.0
C760 C 0.87864 0.39039 0.76885 0.0
C761 C 0.86722 0.43525 0.74933 0.0
C762 C 0.90794 0.42808 0.81132 0.0
C763 C 0.91258 0.43324 0.884 0.0
C764 C 0.93571 0.44536 0.90762 0.0
C765 C 0.95446 0.45261 0.85544 0.0
C766 C 0.94993 0.44747 0.78095 0.0
C767 C 0.9266 0.43463 0.75899 0.0
H768 H 0.05647 0.18911 0.72354 0.0
H769 H 0.0386 0.17338 0.94968 0.0
H770 H 0.02835 0.128 0.91866 0.0
H771 H 0.00639 0.14337 0.64854 0.0
H772 H 0.0256 0.13434 0.5728 0.0
H773 H 0.03084 0.16591 0.61195 0.0
H774 H 0.07794 0.1595 0.63221 0.0
H775 H 0.07279 0.12788 0.59342 0.0
H776 H 0.08574 0.13268 0.68315 0.0
H777 H 0.02259 0.08423 0.86569 0.0
H778 H 0.01739 0.04483 0.79154 0.0
H779 H 0.03759 0.08832 0.59805 0.0
C780 C 0.05007 0.17611 0.76617 0.0
C781 C 0.04799 0.18483 0.83888 0.0
C782 C 0.03975 0.16724 0.89339 0.0
C783 C 0.03413 0.14138 0.87645 0.0
C784 C 0.03664 0.13334 0.80459 0.0
C785 C 0.04404 0.15015 0.75001 0.0
C786 C 0.04502 0.13633 0.67715 0.0
C787 C 0.02581 0.14553 0.62451 0.0
C788 C 0.07198 0.13927 0.6446 0.0
C789 C 0.03733 0.10916 0.69973 0.0
C790 C 0.03278 0.10792 0.77357 0.0
C791 C 0.02592 0.08494 0.80769 0.0
C792 C 0.02317 0.06262 0.76504 0.0
C793 C 0.02706 0.0634 0.68887 0.0
C794 C 0.03442 0.08704 0.65607 0.0
H795 H 0.33101 0.97835 0.78016 0.0
H796 H 0.31552 0.057 0.75721 0.0
H797 H 0.35704 0.06687 0.70031 0.0
H798 H 0.39356 0.99207 0.83356 0.0
H799 H 0.40615 0.96606 0.78532 0.0
H800 H 0.37338 0.96332 0.81339 0.0
H801 H 0.35972 0.95319 0.68064 0.0
H802 H 0.39253 0.95581 0.65222 0.0
H803 H 0.37076 0.97484 0.61004 0.0
H804 H 0.40166 0.07061 0.6619 0.0
H805 H 0.44715 0.06738 0.6413 0.0
H806 H 0.43618 0.98687 0.68754 0.0
C807 C 0.3361 0.99755 0.76207 0.0
C808 C 0.31929 0.01667 0.77248 0.0
C809 C 0.32719 0.04159 0.74812 0.0
C810 C 0.35104 0.04756 0.71602 0.0
C811 C 0.36716 0.02853 0.70812 0.0
C812 C 0.36009 0.00395 0.72975 0.0
C813 C 0.3821 0.98774 0.71978 0.0
C814 C 0.38921 0.97665 0.79233 0.0
C815 C 0.3759 0.96664 0.66226 0.0
C816 C 0.40284 0.00743 0.69265 0.0
C817 C 0.39353 0.03072 0.68545 0.0
C818 C 0.40911 0.0524 0.66622 0.0
C819 C 0.43497 0.0504 0.65502 0.0
C820 C 0.44514 0.02691 0.66264 0.0
C821 C 0.42878 0.00498 0.68031 0.0
H822 H 0.50238 0.33667 0.86295 0.0
H823 H 0.50209 0.28496 0.67716 0.0
H824 H 0.51094 0.32159 0.59613 0.0
H825 H 0.47018 0.38211 0.78246 0.0
H826 H 0.48773 0.40943 0.82437 0.0
H827 H 0.4849 0.37933 0.86913 0.0
H828 H 0.53371 0.38075 0.87561 0.0
H829 H 0.53678 0.41109 0.83176 0.0
H830 H 0.55253 0.38515 0.79377 0.0
H831 H 0.5156 0.36364 0.53477 0.0
H832 H 0.51725 0.40813 0.49675 0.0
H833 H 0.51431 0.43289 0.72266 0.0
C834 C 0.50509 0.33302 0.80549 0.0
C835 C 0.50189 0.30793 0.77634 0.0
C836 C 0.50461 0.30399 0.70055 0.0
C837 C 0.50966 0.32468 0.65422 0.0
C838 C 0.51196 0.34918 0.68451 0.0
C839 C 0.51001 0.35346 0.75848 0.0
C840 C 0.51147 0.3817 0.77666 0.0
C841 C 0.48712 0.38853 0.81542 0.0
C842 C 0.53503 0.39016 0.82213 0.0
C843 C 0.51391 0.39262 0.70117 0.0
C844 C 0.51438 0.37352 0.64894 0.0
C845 C 0.51554 0.37876 0.5752 0.0
C846 C 0.51636 0.40417 0.55416 0.0
C847 C 0.5159 0.42414 0.60659 0.0
C848 C 0.51478 0.41815 0.68113 0.0
H849 H 0.16517 0.46782 0.87789 0.0
H850 H 0.21925 0.50402 0.72411 0.0
H851 H 0.18391 0.51208 0.644 0.0
H852 H 0.12162 0.437 0.74785 0.0
H853 H 0.09388 0.44238 0.80124 0.0
H854 H 0.12344 0.43928 0.84539 0.0
H855 H 0.12103 0.48298 0.91004 0.0
H856 H 0.09148 0.48624 0.866 0.0
H857 H 0.11761 0.51059 0.85667 0.0
H858 H 0.1424 0.51566 0.58037 0.0
H859 H 0.09835 0.51581 0.53965 0.0
H860 H 0.07137 0.47776 0.73675 0.0
C861 C 0.16963 0.47715 0.82689 0.0
C862 C 0.19503 0.48502 0.80674 0.0
C863 C 0.19997 0.49781 0.74052 0.0
C864 C 0.18002 0.50239 0.69468 0.0
C865 C 0.15522 0.4943 0.7162 0.0
C866 C 0.14998 0.48206 0.78096 0.0
C867 C 0.12169 0.47579 0.79249 0.0
C868 C 0.11476 0.4469 0.79698 0.0
C869 C 0.11242 0.48973 0.86031 0.0
C870 C 0.11176 0.4862 0.7237 0.0
C871 C 0.13139 0.49677 0.68038 0.0
C872 C 0.1269 0.50747 0.61396 0.0
C873 C 0.10174 0.50743 0.59129 0.0
C874 C 0.08124 0.4968 0.63489 0.0
C875 C 0.08649 0.48607 0.70204 0.0
H876 H 0.01378 0.82882 0.27082 0.0
H877 H 0.94865 0.78929 0.37844 0.0
H878 H 0.93644 0.83055 0.42717 0.0
H879 H 0.03059 0.87331 0.40732 0.0
H880 H 0.03986 0.89913 0.34712 0.0
H881 H 0.04155 0.86689 0.3164 0.0
H882 H 0.01309 0.87479 0.20747 0.0
H883 H 0.01115 0.90703 0.23909 0.0
H884 H 0.98259 0.88615 0.22404 0.0
H885 H 0.93526 0.87506 0.4773 0.0
H886 H 0.9441 0.91948 0.52186 0.0
H887 H 0.00824 0.93047 0.37385 0.0
C888 C 0.99676 0.82901 0.30391 0.0
C889 C 0.98214 0.80614 0.32165 0.0
C890 C 0.95997 0.80679 0.36464 0.0
C891 C 0.95293 0.83007 0.39214 0.0
C892 C 0.96799 0.85238 0.3745 0.0
C893 C 0.98927 0.85204 0.33055 0.0
C894 C 0.00298 0.8784 0.32256 0.0
C895 C 0.03035 0.87947 0.35005 0.0
C896 C 0.00241 0.8871 0.24359 0.0
C897 C 0.98676 0.89358 0.37154 0.0
C898 C 0.96655 0.87825 0.40061 0.0
C899 C 0.95058 0.88738 0.45347 0.0
C900 C 0.95573 0.91258 0.47845 0.0
C901 C 0.97648 0.92841 0.45 0.0
C902 C 0.99174 0.91898 0.39455 0.0
H903 H 0.6658 0.97052 0.27567 0.0
H904 H 0.69329 0.04848 0.33189 0.0
H905 H 0.65303 0.05395 0.39535 0.0
H906 H 0.60122 0.98105 0.24493 0.0
H907 H 0.58764 0.95202 0.28578 0.0
H908 H 0.61883 0.95365 0.24523 0.0
H909 H 0.6371 0.93974 0.36594 0.0
H910 H 0.60593 0.93796 0.40679 0.0
H911 H 0.63182 0.95751 0.44832 0.0
H912 H 0.60915 0.05264 0.44285 0.0
H913 H 0.56504 0.04318 0.48424 0.0
H914 H 0.56582 0.96485 0.41039 0.0
C915 C 0.66332 0.98861 0.30198 0.0
C916 C 0.68279 0.00903 0.29944 0.0
C917 C 0.67884 0.03247 0.33419 0.0
C918 C 0.65597 0.03583 0.36997 0.0
C919 C 0.63717 0.01547 0.37146 0.0
C920 C 0.6406 0.99218 0.33947 0.0
C921 C 0.61716 0.97347 0.35048 0.0
C922 C 0.60553 0.96453 0.27724 0.0
C923 C 0.62338 0.95083 0.39558 0.0
C924 C 0.60002 0.99007 0.39263 0.0
C925 C 0.612 0.01428 0.4033 0.0
C926 C 0.5998 0.03357 0.4367 0.0
C927 C 0.57478 0.02793 0.46089 0.0
C928 C 0.5623 0.00306 0.45358 0.0
C929 C 0.57507 0.98391 0.4183 0.0
H930 H 0.50116 0.67228 0.26302 0.0
H931 H 0.53966 0.72045 0.42857 0.0
H932 H 0.55084 0.68204 0.49146 0.0
H933 H 0.47432 0.62398 0.37669 0.0
H934 H 0.4787 0.59822 0.31369 0.0
H935 H 0.47519 0.62941 0.28041 0.0
H936 H 0.51778 0.62936 0.20997 0.0
H937 H 0.52143 0.59811 0.24294 0.0
H938 H 0.54601 0.62376 0.25787 0.0
H939 H 0.55355 0.63825 0.54188 0.0
H940 H 0.55053 0.59268 0.57203 0.0
H941 H 0.51269 0.57324 0.36846 0.0
C942 C 0.51216 0.67465 0.31223 0.0
C943 C 0.5195 0.69911 0.34167 0.0
C944 C 0.53396 0.70175 0.40561 0.0
C945 C 0.54033 0.68009 0.44143 0.0
C946 C 0.53245 0.65613 0.41152 0.0
C947 C 0.51897 0.65333 0.34777 0.0
C948 C 0.51233 0.62557 0.32741 0.0
C949 C 0.48343 0.61892 0.32441 0.0
C950 C 0.52516 0.61881 0.25528 0.0
C951 C 0.52364 0.61305 0.39064 0.0
C952 C 0.53509 0.631 0.4387 0.0
C953 C 0.54509 0.62405 0.50398 0.0
C954 C 0.54322 0.59816 0.52072 0.0
C955 C 0.53174 0.57952 0.47199 0.0
C956 C 0.52214 0.58708 0.40575 0.0
H957 H 0.84169 0.48806 0.22816 0.0
H958 H 0.79084 0.49479 0.41254 0.0
H959 H 0.82773 0.50352 0.49281 0.0
H960 H 0.88631 0.45635 0.31512 0.0
H961 H 0.91361 0.47234 0.27004 0.0
H962 H 0.8834 0.46899 0.22587 0.0
H963 H 0.88591 0.51777 0.21046 0.0
H964 H 0.9163 0.52129 0.254 0.0
H965 H 0.89099 0.53853 0.28883 0.0
H966 H 0.86995 0.50699 0.55455 0.0
H967 H 0.91448 0.50751 0.5923 0.0
H968 H 0.93787 0.50059 0.36686 0.0
C969 C 0.83822 0.49216 0.28499 0.0
C970 C 0.81326 0.4908 0.31387 0.0
C971 C 0.80972 0.49552 0.38912 0.0
C972 C 0.83057 0.50062 0.43511 0.0
C973 C 0.85486 0.50122 0.40502 0.0
C974 C 0.85879 0.49744 0.33153 0.0
C975 C 0.88678 0.49789 0.31331 0.0
C976 C 0.89287 0.47238 0.27909 0.0
C977 C 0.89551 0.5202 0.26372 0.0
C978 C 0.89798 0.50194 0.38829 0.0
C979 C 0.87925 0.50384 0.44043 0.0
C980 C 0.8848 0.50596 0.51409 0.0
C981 C 0.91014 0.50611 0.53502 0.0
C982 C 0.92965 0.50432 0.48248 0.0
C983 C 0.92343 0.50247 0.40816 0.0
loop_
_geom_bond_atom_site_label_1
_geom_bond_atom_site_label_2
_geom_bond_distance
_geom_bond_site_symmetry_2
_ccdc_geom_bond_type
P0 O11 1.490 . S
P0 C14 1.812 . S
P0 C20 1.803 . S
P0 C26 1.819 1_554 S
H1 C15 0.941 . S
H2 C16 0.939 . S
H3 C18 0.940 . S
H4 C19 0.940 . S
H5 C21 0.939 . S
H6 C22 0.942 . S
H7 C24 0.940 . S
H8 C25 0.939 . S
H9 C27 0.941 . S
H10 C31 0.939 . S
O11 P0 1.490 . S
H12 C28 0.939 . S
H13 C30 0.940 . S
C14 P0 1.812 . S
C14 C15 1.389 . S
C14 C19 1.391 . S
C15 H1 0.941 . S
C15 C14 1.389 . S
C15 C16 1.397 . S
C16 H2 0.939 . S
C16 C15 1.397 . S
C16 C17 1.378 . S
C17 C16 1.378 . S
C17 C18 1.378 . S
C18 H3 0.940 . S
C18 C17 1.378 . S
C18 C19 1.396 . S
C19 H4 0.940 . S
C19 C14 1.391 . S
C19 C18 1.396 . S
C20 P0 1.803 . S
C20 C21 1.378 1_554 S
C20 C25 1.400 . S
C21 H5 0.939 . S
C21 C20 1.378 1_556 S
C21 C22 1.361 . S
C22 H6 0.942 . S
C22 C21 1.361 . S
C22 C23 1.369 . S
C23 C22 1.369 . S
C23 C24 1.404 1_556 S
C24 H7 0.940 . S
C24 C23 1.404 1_554 S
C24 C25 1.389 . S
C25 H8 0.939 . S
C25 C20 1.400 . S
C25 C24 1.389 . S
C26 P0 1.819 1_556 S
C26 C27 1.391 . S
C26 C31 1.391 . S
C27 H9 0.941 . S
C27 C26 1.391 . S
C27 C28 1.396 . S
C28 H12 0.939 . S
C28 C27 1.396 . S
C28 C29 1.397 . S
C29 C28 1.397 . S
C29 C30 1.385 . S
C30 H13 0.940 . S
C30 C29 1.385 . S
C30 C31 1.388 . S
C31 H10 0.939 . S
C31 C26 1.391 . S
C31 C30 1.388 . S
P32 O43 1.490 . S
P32 C46 1.812 . S
P32 C52 1.803 1_554 S
P32 C58 1.819 1_554 S
H33 C47 0.941 . S
H34 C48 0.939 . S
H35 C50 0.940 . S
H36 C51 0.940 . S
H37 C53 0.939 . S
H38 C54 0.942 . S
H39 C56 0.940 1_554 S
H40 C57 0.939 . S
H41 C59 0.941 . S
H42 C63 0.939 . S
O43 P32 1.490 . S
H44 C60 0.939 . S
H45 C62 0.940 . S
C46 P32 1.812 . S
C46 C47 1.389 . S
C46 C51 1.391 . S
C47 H33 0.941 . S
C47 C46 1.389 . S
C47 C48 1.397 . S
C48 H34 0.939 . S
C48 C47 1.397 . S
C48 C49 1.378 . S
C49 C48 1.378 . S
C49 C50 1.378 . S
C50 H35 0.940 . S
C50 C49 1.378 . S
C50 C51 1.396 . S
C51 H36 0.940 . S
C51 C46 1.391 . S
C51 C50 1.396 . S
C52 P32 1.803 1_556 S
C52 C53 1.378 . S
C52 C57 1.400 1_556 S
C53 H37 0.939 . S
C53 C52 1.378 . S
C53 C54 1.361 . S
C54 H38 0.942 . S
C54 C53 1.361 . S
C54 C55 1.369 . S
C55 C54 1.369 . S
C55 C56 1.404 . S
C56 H39 0.940 1_556 S
C56 C55 1.404 . S
C56 C57 1.389 1_556 S
C57 H40 0.939 . S
C57 C52 1.400 1_554 S
C57 C56 1.389 1_554 S
C58 P32 1.819 1_556 S
C58 C59 1.391 . S
C58 C63 1.391 . S
C59 H41 0.941 . S
C59 C58 1.391 . S
C59 C60 1.396 . S
C60 H44 0.939 . S
C60 C59 1.396 . S
C60 C61 1.397 . S
C61 C60 1.397 . S
C61 C62 1.385 . S
C62 H45 0.940 . S
C62 C61 1.385 . S
C62 C63 1.388 . S
C63 H42 0.939 . S
C63 C58 1.391 . S
C63 C62 1.388 . S
P64 O75 1.490 . S
P64 C78 1.812 . S
P64 C84 1.803 . S
P64 C90 1.819 1_554 S
H65 C79 0.941 . S
H66 C80 0.939 . S
H67 C82 0.940 . S
H68 C83 0.950 . S
H69 C85 0.939 . S
H70 C86 0.942 . S
H71 C88 0.940 . S
H72 C89 0.957 . S
H73 C91 0.941 1_554 S
H74 C95 0.926 1_565 S
O75 P64 1.490 . S
H76 C92 0.939 . S
H77 C94 0.940 . S
C78 P64 1.812 . S
C78 C79 1.389 . S
C78 C83 1.376 1_545 S
C79 H65 0.941 . S
C79 C78 1.389 . S
C79 C80 1.397 . S
C80 H66 0.939 . S
C80 C79 1.397 . S
C80 C81 1.378 . S
C81 C80 1.378 . S
C81 C82 1.378 1_545 S
C82 H67 0.940 . S
C82 C81 1.378 1_565 S
C82 C83 1.402 . S
C83 H68 0.950 . S
C83 C78 1.376 1_565 S
C83 C82 1.402 . S
C84 P64 1.803 . S
C84 C85 1.378 1_554 S
C84 C89 1.367 1_545 S
C85 H69 0.939 . S
C85 C84 1.378 1_556 S
C85 C86 1.361 . S
C86 H70 0.942 . S
C86 C85 1.361 . S
C86 C87 1.369 . S
C87 C86 1.369 . S
C87 C88 1.404 1_546 S
C88 H71 0.940 . S
C88 C87 1.404 1_564 S
C88 C89 1.405 . S
C89 H72 0.957 . S
C89 C84 1.367 1_565 S
C89 C88 1.405 . S
C90 P64 1.819 1_556 S
C90 C91 1.391 . S
C90 C95 1.391 . S
C91 H73 0.941 1_556 S
C91 C90 1.391 . S
C91 C92 1.396 . S
C92 H76 0.939 . S
C92 C91 1.396 . S
C92 C93 1.397 . S
C93 C92 1.397 . S
C93 C94 1.385 1_545 S
C94 H77 0.940 . S
C94 C93 1.385 1_565 S
C94 C95 1.388 1_565 S
C95 H74 0.926 1_545 S
C95 C90 1.391 . S
C95 C94 1.388 1_545 S
P96 O107 1.490 . S
P96 C110 1.812 . S
P96 C116 1.803 . S
P96 C122 1.827 . S
H97 C111 0.941 . S
H98 C112 0.939 . S
H99 C114 0.940 . S
H100 C115 0.940 . S
H101 C117 0.939 1_556 S
H102 C118 0.942 . S
H103 C120 0.940 . S
H104 C121 0.939 . S
H105 C123 0.941 1_554 S
H106 C127 0.939 . S
O107 P96 1.490 . S
H108 C124 0.939 . S
H109 C126 0.940 . S
C110 P96 1.812 . S
C110 C111 1.389 . S
C110 C115 1.391 . S
C111 H97 0.941 . S
C111 C110 1.389 . S
C111 C112 1.397 . S
C112 H98 0.939 . S
C112 C111 1.397 . S
C112 C113 1.378 . S
C113 C112 1.378 . S
C113 C114 1.378 . S
C114 H99 0.940 . S
C114 C113 1.378 . S
C114 C115 1.396 . S
C115 H100 0.940 . S
C115 C110 1.391 . S
C115 C114 1.396 . S
C116 P96 1.803 . S
C116 C117 1.378 . S
C116 C121 1.400 . S
C117 H101 0.939 1_554 S
C117 C116 1.378 . S
C117 C118 1.361 1_554 S
C118 H102 0.942 . S
C118 C117 1.361 1_556 S
C118 C119 1.369 1_556 S
C119 C118 1.369 1_554 S
C119 C120 1.404 . S
C120 H103 0.940 . S
C120 C119 1.404 . S
C120 C121 1.389 . S
C121 H104 0.939 . S
C121 C116 1.400 . S
C121 C120 1.389 . S
C122 P96 1.827 . S
C122 C123 1.391 1_554 S
C122 C127 1.383 1_554 S
C123 H105 0.941 1_556 S
C123 C122 1.391 1_556 S
C123 C124 1.396 . S
C124 H108 0.939 . S
C124 C123 1.396 . S
C124 C125 1.397 . S
C125 C124 1.397 . S
C125 C126 1.385 . S
C126 H109 0.940 . S
C126 C125 1.385 . S
C126 C127 1.388 . S
C127 H106 0.939 . S
C127 C122 1.383 1_556 S
C127 C126 1.388 . S
P128 O139 1.490 . S
P128 C142 1.812 1_554 S
P128 C148 1.803 . S
P128 C154 1.819 . S
H129 C143 0.941 . S
H130 C144 0.939 . S
H131 C146 0.940 . S
H132 C147 0.940 1_554 S
H133 C149 0.939 . S
H134 C150 0.942 . S
H135 C152 0.940 . S
H136 C153 0.939 . S
H137 C155 0.941 . S
H138 C159 0.939 . S
O139 P128 1.490 . S
H140 C156 0.939 . S
H141 C158 0.940 . S
C142 P128 1.812 1_556 S
C142 C143 1.388 . S
C142 C147 1.391 . S
C143 H129 0.941 . S
C143 C142 1.388 . S
C143 C144 1.397 . S
C144 H130 0.939 . S
C144 C143 1.397 . S
C144 C145 1.378 . S
C145 C144 1.378 . S
C145 C146 1.378 . S
C146 H131 0.940 . S
C146 C145 1.378 . S
C146 C147 1.396 . S
C147 H132 0.940 1_556 S
C147 C142 1.391 . S
C147 C146 1.396 . S
C148 P128 1.803 . S
C148 C149 1.378 . S
C148 C153 1.400 . S
C149 H133 0.939 . S
C149 C148 1.378 . S
C149 C150 1.361 . S
C150 H134 0.942 . S
C150 C149 1.361 . S
C150 C151 1.369 . S
C151 C150 1.369 . S
C151 C152 1.404 . S
C152 H135 0.940 . S
C152 C151 1.404 . S
C152 C153 1.389 . S
C153 H136 0.939 . S
C153 C148 1.400 . S
C153 C152 1.389 . S
C154 P128 1.819 . S
C154 C155 1.391 . S
C154 C159 1.391 . S
C155 H137 0.941 . S
C155 C154 1.391 . S
C155 C156 1.396 . S
C156 H140 0.939 . S
C156 C155 1.396 . S
C156 C157 1.397 . S
C157 C156 1.397 . S
C157 C158 1.385 . S
C158 H141 0.940 . S
C158 C157 1.385 . S
C158 C159 1.388 . S
C159 H138 0.939 . S
C159 C154 1.391 . S
C159 C158 1.388 . S
P160 O171 1.490 . S
P160 C174 1.812 . S
P160 C180 1.803 . S
P160 C186 1.819 . S
H161 C175 0.941 . S
H162 C176 0.939 . S
H163 C178 0.940 . S
H164 C179 0.940 . S
H165 C181 0.939 . S
H166 C182 0.942 . S
H167 C184 0.940 . S
H168 C185 0.939 . S
H169 C187 0.941 . S
H170 C191 0.939 . S
O171 P160 1.490 . S
H172 C188 0.939 . S
H173 C190 0.940 . S
C174 P160 1.812 . S
C174 C175 1.389 1_554 S
C174 C179 1.391 . S
C175 H161 0.941 . S
C175 C174 1.389 1_556 S
C175 C176 1.397 . S
C176 H162 0.939 . S
C176 C175 1.397 . S
C176 C177 1.378 . S
C177 C176 1.378 . S
C177 C178 1.378 . S
C178 H163 0.940 . S
C178 C177 1.378 . S
C178 C179 1.396 1_556 S
C179 H164 0.940 . S
C179 C174 1.391 . S
C179 C178 1.396 1_554 S
C180 P160 1.803 . S
C180 C181 1.378 . S
C180 C185 1.400 . S
C181 H165 0.939 . S
C181 C180 1.378 . S
C181 C182 1.361 . S
C182 H166 0.942 . S
C182 C181 1.361 . S
C182 C183 1.369 . S
C183 C182 1.369 . S
C183 C184 1.404 . S
C184 H167 0.940 . S
C184 C183 1.404 . S
C184 C185 1.389 . S
C185 H168 0.939 . S
C185 C180 1.400 . S
C185 C184 1.389 . S
C186 P160 1.819 . S
C186 C187 1.391 . S
C186 C191 1.391 . S
C187 H169 0.941 . S
C187 C186 1.391 . S
C187 C188 1.396 . S
C188 H172 0.939 . S
C188 C187 1.396 . S
C188 C189 1.397 . S
C189 C188 1.397 . S
C189 C190 1.385 . S
C190 H173 0.940 . S
C190 C189 1.385 . S
C190 C191 1.388 . S
C191 H170 0.939 . S
C191 C186 1.391 . S
C191 C190 1.388 . S
P192 O203 1.490 . S
P192 C206 1.812 1_554 S
P192 C212 1.803 . S
P192 C218 1.819 . S
H193 C207 0.941 . S
H194 C208 0.939 . S
H195 C210 0.940 . S
H196 C211 0.944 1_554 S
H197 C213 0.939 . S
H198 C214 0.942 . S
H199 C216 0.940 . S
H200 C217 0.954 . S
H201 C219 0.941 . S
H202 C223 0.934 1_565 S
O203 P192 1.490 . S
H204 C220 0.939 . S
H205 C222 0.940 . S
C206 P192 1.812 1_556 S
C206 C207 1.389 . S
C206 C211 1.384 1_545 S
C207 H193 0.941 . S
C207 C206 1.389 . S
C207 C208 1.397 . S
C208 H194 0.939 . S
C208 C207 1.397 . S
C208 C209 1.378 . S
C209 C208 1.378 . S
C209 C210 1.378 1_545 S
C210 H195 0.940 . S
C210 C209 1.378 1_565 S
C210 C211 1.399 . S
C211 H196 0.944 1_556 S
C211 C206 1.384 1_565 S
C211 C210 1.399 . S
C212 P192 1.803 . S
C212 C213 1.378 . S
C212 C217 1.379 1_545 S
C213 H197 0.939 . S
C213 C212 1.378 . S
C213 C214 1.361 . S
C214 H198 0.942 . S
C214 C213 1.361 . S
C214 C215 1.369 . S
C215 C214 1.369 . S
C215 C216 1.404 1_545 S
C216 H199 0.940 . S
C216 C215 1.404 1_565 S
C216 C217 1.396 . S
C217 H200 0.954 . S
C217 C212 1.379 1_565 S
C217 C216 1.396 . S
C218 P192 1.819 . S
C218 C219 1.391 . S
C218 C223 1.391 . S
C219 H201 0.941 . S
C219 C218 1.391 . S
C219 C220 1.396 . S
C220 H204 0.939 . S
C220 C219 1.396 . S
C220 C221 1.397 . S
C221 C220 1.397 . S
C221 C222 1.385 1_545 S
C222 H205 0.940 . S
C222 C221 1.385 1_565 S
C222 C223 1.388 1_565 S
C223 H202 0.934 1_545 S
C223 C218 1.391 . S
C223 C222 1.388 1_545 S
P224 O235 1.490 . S
P224 C238 1.812 1_554 S
P224 C244 1.803 . S
P224 C250 1.819 . S
H225 C239 0.941 . S
H226 C240 0.939 . S
H227 C242 0.940 . S
H228 C243 0.938 1_554 S
H229 C245 0.939 . S
H230 C246 0.942 . S
H231 C248 0.940 . S
H232 C249 0.939 . S
H233 C251 0.941 . S
H234 C255 0.939 . S
O235 P224 1.490 . S
H236 C252 0.939 . S
H237 C254 0.940 . S
C238 P224 1.812 1_556 S
C238 C239 1.389 . S
C238 C243 1.391 . S
C239 H225 0.941 . S
C239 C238 1.389 . S
C239 C240 1.397 . S
C240 H226 0.939 . S
C240 C239 1.397 . S
C240 C241 1.378 . S
C241 C240 1.378 . S
C241 C242 1.378 . S
C242 H227 0.940 . S
C242 C241 1.378 . S
C242 C243 1.396 . S
C243 H228 0.938 1_556 S
C243 C238 1.391 . S
C243 C242 1.396 . S
C244 P224 1.803 . S
C244 C245 1.378 . S
C244 C249 1.400 . S
C245 H229 0.939 . S
C245 C244 1.378 . S
C245 C246 1.361 . S
C246 H230 0.942 . S
C246 C245 1.361 . S
C246 C247 1.369 . S
C247 C246 1.369 . S
C247 C248 1.404 . S
C248 H231 0.940 . S
C248 C247 1.404 . S
C248 C249 1.389 . S
C249 H232 0.939 . S
C249 C244 1.400 . S
C249 C248 1.389 . S
C250 P224 1.819 . S
C250 C251 1.391 . S
C250 C255 1.391 . S
C251 H233 0.941 . S
C251 C250 1.391 . S
C251 C252 1.396 . S
C252 H236 0.939 . S
C252 C251 1.396 . S
C252 C253 1.397 . S
C253 C252 1.397 . S
C253 C254 1.385 . S
C254 H237 0.940 . S
C254 C253 1.385 . S
C254 C255 1.388 . S
C255 H234 0.939 . S
C255 C250 1.391 . S
C255 C254 1.388 . S
Dy256 O260 2.398 . S
Dy256 O261 2.491 1_455 S
Dy256 O262 2.403 . S
Dy256 O263 2.664 1_565 S
Dy256 O267 2.326 . S
Dy256 O271 2.310 1_455 S
Dy256 O272 2.351 1_565 S
C257 O268 1.185 1_455 S
C257 O269 1.355 . S
C258 O260 1.185 . S
C258 O261 1.355 1_455 S
Dy259 O263 2.310 1_655 S
Dy259 O266 2.351 1_545 S
Dy259 O268 2.398 . S
Dy259 O269 2.491 1_655 S
Dy259 O270 2.403 . S
Dy259 O271 2.664 1_545 S
Dy259 O273 2.326 1_655 S
O260 Dy256 2.398 . S
O260 C258 1.185 . S
O261 Dy256 2.491 1_655 S
O261 C258 1.355 1_655 S
O262 Dy256 2.403 . S
O262 C264 1.254 . S
O263 Dy256 2.664 1_545 S
O263 Dy259 2.310 1_455 S
O263 C264 1.268 1_545 S
C264 O262 1.254 . S
C264 O263 1.268 1_565 S
C265 O270 1.254 . S
C265 O271 1.268 1_545 S
O266 Dy259 2.351 1_565 S
O266 C274 1.249 . S
O267 Dy256 2.326 . S
O267 C274 1.267 1_455 S
O268 C257 1.185 1_655 S
O268 Dy259 2.398 . S
O269 C257 1.355 . S
O269 Dy259 2.491 1_455 S
O270 Dy259 2.403 . S
O270 C265 1.254 . S
O271 Dy256 2.310 1_655 S
O271 Dy259 2.664 1_565 S
O271 C265 1.268 1_565 S
O272 Dy256 2.351 1_545 S
O272 C275 1.249 . S
O273 Dy259 2.326 1_455 S
O273 C275 1.267 . S
C274 O266 1.249 . S
C274 O267 1.267 1_655 S
C275 O272 1.249 . S
C275 O273 1.267 . S
Dy276 O280 2.398 . S
Dy276 O281 2.491 . S
Dy276 O282 2.403 . S
Dy276 O283 2.664 . S
Dy276 O287 2.326 1_565 S
Dy276 O291 2.310 1_565 S
Dy276 O292 2.351 . S
C277 O288 1.185 . S
C277 O289 1.355 . S
C278 O280 1.185 . S
C278 O281 1.355 . S
Dy279 O283 2.310 1_545 S
Dy279 O286 2.351 . S
Dy279 O288 2.398 . S
Dy279 O289 2.491 . S
Dy279 O290 2.403 . S
Dy279 O291 2.664 . S
Dy279 O293 2.326 1_545 S
O280 Dy276 2.398 . S
O280 C278 1.185 . S
O281 Dy276 2.491 . S
O281 C278 1.355 . S
O282 Dy276 2.403 . S
O282 C284 1.254 . S
O283 Dy276 2.664 . S
O283 Dy279 2.310 1_565 S
O283 C284 1.268 . S
C284 O282 1.254 . S
C284 O283 1.268 . S
C285 O290 1.254 . S
C285 O291 1.268 . S
O286 Dy279 2.351 . S
O286 C294 1.249 . S
O287 Dy276 2.326 1_545 S
O287 C294 1.267 . S
O288 C277 1.185 . S
O288 Dy279 2.398 . S
O289 C277 1.355 . S
O289 Dy279 2.491 . S
O290 Dy279 2.403 . S
O290 C285 1.254 . S
O291 Dy276 2.310 1_545 S
O291 Dy279 2.664 . S
O291 C285 1.268 . S
O292 Dy276 2.351 . S
O292 C295 1.249 . S
O293 Dy279 2.326 1_565 S
O293 C295 1.267 . S
C294 O286 1.249 . S
C294 O287 1.267 . S
C295 O292 1.249 . S
C295 O293 1.267 . S
Dy296 O300 2.398 . S
Dy296 O301 2.491 . S
Dy296 O302 2.403 . S
Dy296 O303 2.664 . S
Dy296 O307 2.326 . S
Dy296 O311 2.310 . S
Dy296 O312 2.351 . S
C297 O308 1.185 . S
C297 O309 1.355 . S
C298 O300 1.185 . S
C298 O301 1.355 . S
Dy299 O303 2.310 . S
Dy299 O306 2.351 . S
Dy299 O308 2.398 . S
Dy299 O309 2.491 . S
Dy299 O310 2.403 . S
Dy299 O311 2.664 . S
Dy299 O313 2.326 . S
O300 Dy296 2.398 . S
O300 C298 1.185 . S
O301 Dy296 2.491 . S
O301 C298 1.355 . S
O302 Dy296 2.403 . S
O302 C304 1.254 . S
O303 Dy296 2.664 . S
O303 Dy299 2.310 . S
O303 C304 1.268 . S
C304 O302 1.254 . S
C304 O303 1.268 . S
C305 O310 1.254 . S
C305 O311 1.268 . S
O306 Dy299 2.351 . S
O306 C314 1.249 . S
O307 Dy296 2.326 . S
O307 C314 1.267 . S
O308 C297 1.185 . S
O308 Dy299 2.398 . S
O309 C297 1.355 . S
O309 Dy299 2.491 . S
O310 Dy299 2.403 . S
O310 C305 1.254 . S
O311 Dy296 2.310 . S
O311 Dy299 2.664 . S
O311 C305 1.268 . S
O312 Dy296 2.351 . S
O312 C315 1.249 . S
O313 Dy299 2.326 . S
O313 C315 1.267 . S
C314 O306 1.249 . S
C314 O307 1.267 . S
C315 O312 1.249 . S
C315 O313 1.267 . S
Dy316 O320 2.398 . S
Dy316 O321 2.491 . S
Dy316 O322 2.403 1_655 S
Dy316 O323 2.664 1_655 S
Dy316 O327 2.326 . S
Dy316 O331 2.310 . S
Dy316 O332 2.351 1_655 S
C317 O328 1.185 . S
C317 O329 1.355 . S
C318 O320 1.185 . S
C318 O321 1.355 . S
Dy319 O323 2.310 . S
Dy319 O326 2.351 1_455 S
Dy319 O328 2.398 . S
Dy319 O329 2.491 . S
Dy319 O330 2.403 . S
Dy319 O331 2.664 1_455 S
Dy319 O333 2.326 . S
O320 Dy316 2.398 . S
O320 C318 1.185 . S
O321 Dy316 2.491 . S
O321 C318 1.355 . S
O322 Dy316 2.403 1_455 S
O322 C324 1.254 . S
O323 Dy316 2.664 1_455 S
O323 Dy319 2.310 . S
O323 C324 1.268 . S
C324 O322 1.254 . S
C324 O323 1.268 . S
C325 O330 1.254 1_655 S
C325 O331 1.268 . S
O326 Dy319 2.351 1_655 S
O326 C334 1.249 . S
O327 Dy316 2.326 . S
O327 C334 1.267 . S
O328 C317 1.185 . S
O328 Dy319 2.398 . S
O329 C317 1.355 . S
O329 Dy319 2.491 . S
O330 Dy319 2.403 . S
O330 C325 1.254 1_455 S
O331 Dy316 2.310 . S
O331 Dy319 2.664 1_655 S
O331 C325 1.268 . S
O332 Dy316 2.351 1_455 S
O332 C335 1.249 . S
O333 Dy319 2.326 . S
O333 C335 1.267 . S
C334 O326 1.249 . S
C334 O327 1.267 . S
C335 O332 1.249 . S
C335 O333 1.267 . S
H336 C348 0.930 . S
H337 C350 0.930 . S
H338 C351 0.930 . S
H339 C355 0.959 . S
H340 C355 0.959 . S
H341 C355 0.961 . S
H342 C356 0.960 . S
H343 C356 0.961 . S
H344 C356 0.959 . S
H345 C359 0.929 . S
H346 C360 0.931 . S
H347 C362 0.930 . S
C348 H336 0.930 . S
C348 C349 1.399 1_545 S
C348 C353 1.399 . S
C349 C348 1.399 1_565 S
C349 C350 1.376 . S
C350 H337 0.930 . S
C350 C349 1.376 . S
C350 C351 1.388 . S
C351 H338 0.930 . S
C351 C350 1.388 . S
C351 C352 1.390 . S
C352 C351 1.390 . S
C352 C353 1.394 1_565 S
C352 C358 1.465 . S
C353 C348 1.399 . S
C353 C352 1.394 1_545 S
C353 C354 1.516 . S
C354 C353 1.516 . S
C354 C355 1.502 . S
C354 C356 1.561 . S
C354 C357 1.526 . S
C355 H339 0.959 . S
C355 H340 0.959 . S
C355 H341 0.961 . S
C355 C354 1.502 . S
C356 H342 0.960 . S
C356 H343 0.961 . S
C356 H344 0.959 . S
C356 C354 1.561 . S
C357 C354 1.526 . S
C357 C358 1.396 1_545 S
C357 C362 1.390 . S
C358 C352 1.465 . S
C358 C357 1.396 1_565 S
C358 C359 1.399 . S
C359 H345 0.929 . S
C359 C358 1.399 . S
C359 C360 1.385 . S
C360 H346 0.931 . S
C360 C359 1.385 . S
C360 C361 1.389 . S
C361 C360 1.389 . S
C361 C362 1.387 1_565 S
C362 H347 0.930 . S
C362 C357 1.390 . S
C362 C361 1.387 1_545 S
H363 C375 0.930 . S
H364 C377 0.930 . S
H365 C378 0.930 . S
H366 C382 0.959 . S
H367 C382 0.959 . S
H368 C382 0.961 . S
H369 C383 0.960 . S
H370 C383 0.961 . S
H371 C383 0.959 . S
H372 C386 0.929 . S
H373 C387 0.931 . S
H374 C389 0.930 . S
C375 H363 0.930 . S
C375 C376 1.399 . S
C375 C380 1.399 . S
C376 C375 1.399 . S
C376 C377 1.376 . S
C377 H364 0.930 . S
C377 C376 1.376 . S
C377 C378 1.388 . S
C378 H365 0.930 . S
C378 C377 1.388 . S
C378 C379 1.390 . S
C379 C378 1.390 . S
C379 C380 1.394 . S
C379 C385 1.465 . S
C380 C375 1.399 . S
C380 C379 1.394 . S
C380 C381 1.516 . S
C381 C380 1.516 . S
C381 C382 1.502 . S
C381 C383 1.561 . S
C381 C384 1.526 . S
C382 H366 0.959 . S
C382 H367 0.959 . S
C382 H368 0.961 . S
C382 C381 1.502 . S
C383 H369 0.960 . S
C383 H370 0.961 . S
C383 H371 0.959 . S
C383 C381 1.561 . S
C384 C381 1.526 . S
C384 C385 1.396 . S
C384 C389 1.390 . S
C385 C379 1.465 . S
C385 C384 1.396 . S
C385 C386 1.399 . S
C386 H372 0.929 . S
C386 C385 1.399 . S
C386 C387 1.385 . S
C387 H373 0.931 . S
C387 C386 1.385 . S
C387 C388 1.389 . S
C388 C387 1.389 . S
C388 C389 1.387 . S
C389 H374 0.930 . S
C389 C384 1.390 . S
C389 C388 1.387 . S
H390 C402 0.930 . S
H391 C404 0.930 . S
H392 C405 0.930 . S
H393 C409 0.959 . S
H394 C409 0.959 . S
H395 C409 0.961 . S
H396 C410 0.960 . S
H397 C410 0.961 . S
H398 C410 0.959 . S
H399 C413 0.929 . S
H400 C414 0.931 . S
H401 C416 0.930 . S
C402 H390 0.930 . S
C402 C403 1.399 . S
C402 C407 1.399 . S
C403 C402 1.399 . S
C403 C404 1.376 . S
C404 H391 0.930 . S
C404 C403 1.376 . S
C404 C405 1.388 . S
C405 H392 0.930 . S
C405 C404 1.388 . S
C405 C406 1.390 . S
C406 C405 1.390 . S
C406 C407 1.394 . S
C406 C412 1.465 . S
C407 C402 1.399 . S
C407 C406 1.394 . S
C407 C408 1.516 . S
C408 C407 1.516 . S
C408 C409 1.502 . S
C408 C410 1.561 . S
C408 C411 1.526 . S
C409 H393 0.959 . S
C409 H394 0.959 . S
C409 H395 0.961 . S
C409 C408 1.502 . S
C410 H396 0.960 . S
C410 H397 0.961 . S
C410 H398 0.959 . S
C410 C408 1.561 . S
C411 C408 1.526 . S
C411 C412 1.396 . S
C411 C416 1.390 . S
C412 C406 1.465 . S
C412 C411 1.396 . S
C412 C413 1.399 . S
C413 H399 0.929 . S
C413 C412 1.399 . S
C413 C414 1.385 . S
C414 H400 0.931 . S
C414 C413 1.385 . S
C414 C415 1.389 . S
C415 C414 1.389 . S
C415 C416 1.387 . S
C416 H401 0.930 . S
C416 C411 1.390 . S
C416 C415 1.387 . S
H417 C429 0.930 . S
H418 C431 0.930 . S
H419 C432 0.930 . S
H420 C436 0.959 . S
H421 C436 0.959 1_655 S
H422 C436 0.961 . S
H423 C437 0.960 . S
H424 C437 0.961 . S
H425 C437 0.959 . S
H426 C440 0.929 . S
H427 C441 0.931 . S
H428 C443 0.930 . S
C429 H417 0.930 . S
C429 C430 1.399 . S
C429 C434 1.399 . S
C430 C429 1.399 . S
C430 C431 1.376 . S
C431 H418 0.930 . S
C431 C430 1.376 . S
C431 C432 1.388 . S
C432 H419 0.930 . S
C432 C431 1.388 . S
C432 C433 1.390 . S
C433 C432 1.390 . S
C433 C434 1.394 . S
C433 C439 1.465 . S
C434 C429 1.399 . S
C434 C433 1.394 . S
C434 C435 1.516 . S
C435 C434 1.516 . S
C435 C436 1.502 . S
C435 C437 1.561 . S
C435 C438 1.526 . S
C436 H420 0.959 . S
C436 H421 0.959 1_455 S
C436 H422 0.961 . S
C436 C435 1.502 . S
C437 H423 0.960 . S
C437 H424 0.961 . S
C437 H425 0.959 . S
C437 C435 1.561 . S
C438 C435 1.526 . S
C438 C439 1.396 . S
C438 C443 1.390 . S
C439 C433 1.465 . S
C439 C438 1.396 . S
C439 C440 1.399 . S
C440 H426 0.929 . S
C440 C439 1.399 . S
C440 C441 1.385 . S
C441 H427 0.931 . S
C441 C440 1.385 . S
C441 C442 1.389 . S
C442 C441 1.389 . S
C442 C443 1.387 . S
C443 H428 0.930 . S
C443 C438 1.390 . S
C443 C442 1.387 . S
H444 C456 0.930 . S
H445 C458 0.930 . S
H446 C459 0.930 . S
H447 C463 0.959 . S
H448 C463 0.959 . S
H449 C463 0.961 . S
H450 C464 0.960 . S
H451 C464 0.961 . S
H452 C464 0.959 . S
H453 C467 0.929 . S
H454 C468 0.931 . S
H455 C470 0.930 . S
C456 H444 0.930 . S
C456 C457 1.399 1_565 S
C456 C461 1.399 . S
C457 C456 1.399 1_545 S
C457 C458 1.376 . S
C458 H445 0.930 . S
C458 C457 1.376 . S
C458 C459 1.388 . S
C459 H446 0.930 . S
C459 C458 1.388 . S
C459 C460 1.390 . S
C460 C459 1.390 . S
C460 C461 1.394 1_545 S
C460 C466 1.465 . S
C461 C456 1.399 . S
C461 C460 1.394 1_565 S
C461 C462 1.516 . S
C462 C461 1.516 . S
C462 C463 1.502 . S
C462 C464 1.561 . S
C462 C465 1.526 . S
C463 H447 0.959 . S
C463 H448 0.959 . S
C463 H449 0.961 . S
C463 C462 1.502 . S
C464 H450 0.960 . S
C464 H451 0.961 . S
C464 H452 0.959 . S
C464 C462 1.561 . S
C465 C462 1.526 . S
C465 C466 1.396 1_565 S
C465 C470 1.390 . S
C466 C460 1.465 . S
C466 C465 1.396 1_545 S
C466 C467 1.399 . S
C467 H453 0.929 . S
C467 C466 1.399 . S
C467 C468 1.385 . S
C468 H454 0.931 . S
C468 C467 1.385 . S
C468 C469 1.389 . S
C469 C468 1.389 . S
C469 C470 1.387 1_545 S
C470 H455 0.930 . S
C470 C465 1.390 . S
C470 C469 1.387 1_565 S
H471 C483 0.930 . S
H472 C485 0.930 . S
H473 C486 0.930 . S
H474 C490 0.959 . S
H475 C490 0.959 . S
H476 C490 0.961 . S
H477 C491 0.960 . S
H478 C491 0.961 . S
H479 C491 0.959 . S
H480 C494 0.929 . S
H481 C495 0.931 . S
H482 C497 0.930 . S
C483 H471 0.930 . S
C483 C484 1.399 . S
C483 C488 1.399 . S
C484 C483 1.399 . S
C484 C485 1.376 . S
C485 H472 0.930 . S
C485 C484 1.376 . S
C485 C486 1.388 . S
C486 H473 0.930 . S
C486 C485 1.388 . S
C486 C487 1.390 . S
C487 C486 1.390 . S
C487 C488 1.394 . S
C487 C493 1.465 . S
C488 C483 1.399 . S
C488 C487 1.394 . S
C488 C489 1.516 . S
C489 C488 1.516 . S
C489 C490 1.502 . S
C489 C491 1.561 . S
C489 C492 1.526 . S
C490 H474 0.959 . S
C490 H475 0.959 . S
C490 H476 0.961 . S
C490 C489 1.502 . S
C491 H477 0.960 . S
C491 H478 0.961 . S
C491 H479 0.959 . S
C491 C489 1.561 . S
C492 C489 1.526 . S
C492 C493 1.396 . S
C492 C497 1.390 . S
C493 C487 1.465 . S
C493 C492 1.396 . S
C493 C494 1.399 . S
C494 H480 0.929 . S
C494 C493 1.399 . S
C494 C495 1.385 . S
C495 H481 0.931 . S
C495 C494 1.385 . S
C495 C496 1.389 . S
C496 C495 1.389 . S
C496 C497 1.387 . S
C497 H482 0.930 . S
C497 C492 1.390 . S
C497 C496 1.387 . S
H498 C510 0.930 . S
H499 C512 0.930 . S
H500 C513 0.930 . S
H501 C517 0.959 . S
H502 C517 0.959 . S
H503 C517 0.961 . S
H504 C518 0.960 . S
H505 C518 0.961 . S
H506 C518 0.959 . S
H507 C521 0.929 . S
H508 C522 0.931 . S
H509 C524 0.930 . S
C510 H498 0.930 . S
C510 C511 1.399 . S
C510 C515 1.399 . S
C511 C510 1.399 . S
C511 C512 1.376 . S
C512 H499 0.930 . S
C512 C511 1.376 . S
C512 C513 1.388 . S
C513 H500 0.930 . S
C513 C512 1.388 . S
C513 C514 1.390 . S
C514 C513 1.390 . S
C514 C515 1.394 . S
C514 C520 1.465 . S
C515 C510 1.399 . S
C515 C514 1.394 . S
C515 C516 1.516 . S
C516 C515 1.516 . S
C516 C517 1.502 . S
C516 C518 1.561 . S
C516 C519 1.526 . S
C517 H501 0.959 . S
C517 H502 0.959 . S
C517 H503 0.961 . S
C517 C516 1.502 . S
C518 H504 0.960 . S
C518 H505 0.961 . S
C518 H506 0.959 . S
C518 C516 1.561 . S
C519 C516 1.526 . S
C519 C520 1.396 . S
C519 C524 1.390 . S
C520 C514 1.465 . S
C520 C519 1.396 . S
C520 C521 1.399 . S
C521 H507 0.929 . S
C521 C520 1.399 . S
C521 C522 1.385 . S
C522 H508 0.931 . S
C522 C521 1.385 . S
C522 C523 1.389 . S
C523 C522 1.389 . S
C523 C524 1.387 . S
C524 H509 0.930 . S
C524 C519 1.390 . S
C524 C523 1.387 . S
H525 C537 0.930 . S
H526 C539 0.930 . S
H527 C540 0.930 . S
H528 C544 0.959 . S
H529 C544 0.959 . S
H530 C544 0.961 . S
H531 C545 0.960 . S
H532 C545 0.961 1_455 S
H533 C545 0.959 . S
H534 C548 0.929 . S
H535 C549 0.931 . S
H536 C551 0.930 1_455 S
C537 H525 0.930 . S
C537 C538 1.399 . S
C537 C542 1.399 . S
C538 C537 1.399 . S
C538 C539 1.376 . S
C539 H526 0.930 . S
C539 C538 1.376 . S
C539 C540 1.388 . S
C540 H527 0.930 . S
C540 C539 1.388 . S
C540 C541 1.390 . S
C541 C540 1.390 . S
C541 C542 1.394 . S
C541 C547 1.465 . S
C542 C537 1.399 . S
C542 C541 1.394 . S
C542 C543 1.516 . S
C543 C542 1.516 . S
C543 C544 1.502 1_655 S
C543 C545 1.561 . S
C543 C546 1.526 . S
C544 H528 0.959 . S
C544 H529 0.959 . S
C544 H530 0.961 . S
C544 C543 1.502 1_455 S
C545 H531 0.960 . S
C545 H532 0.961 1_655 S
C545 H533 0.959 . S
C545 C543 1.561 . S
C546 C543 1.526 . S
C546 C547 1.396 . S
C546 C551 1.390 . S
C547 C541 1.465 . S
C547 C546 1.396 . S
C547 C548 1.399 . S
C548 H534 0.929 . S
C548 C547 1.399 . S
C548 C549 1.385 . S
C549 H535 0.931 . S
C549 C548 1.385 . S
C549 C550 1.389 . S
C550 C549 1.389 . S
C550 C551 1.387 . S
C551 H536 0.930 1_655 S
C551 C546 1.390 . S
C551 C550 1.387 . S
H552 C564 0.930 . S
H553 C566 0.930 . S
H554 C567 0.930 . S
H555 C571 0.959 . S
H556 C571 0.959 . S
H557 C571 0.961 . S
H558 C572 0.960 . S
H559 C572 0.961 1_655 S
H560 C572 0.959 . S
H561 C575 0.929 . S
H562 C576 0.931 . S
H563 C578 0.930 . S
C564 H552 0.930 . S
C564 C565 1.399 . S
C564 C569 1.399 . S
C565 C564 1.399 . S
C565 C566 1.376 . S
C566 H553 0.930 . S
C566 C565 1.376 . S
C566 C567 1.388 . S
C567 H554 0.930 . S
C567 C566 1.388 . S
C567 C568 1.390 . S
C568 C567 1.390 . S
C568 C569 1.394 . S
C568 C574 1.465 . S
C569 C564 1.399 . S
C569 C568 1.394 . S
C569 C570 1.516 . S
C570 C569 1.516 . S
C570 C571 1.502 . S
C570 C572 1.561 . S
C570 C573 1.526 . S
C571 H555 0.959 . S
C571 H556 0.959 . S
C571 H557 0.961 . S
C571 C570 1.502 . S
C572 H558 0.960 . S
C572 H559 0.961 1_455 S
C572 H560 0.959 . S
C572 C570 1.561 . S
C573 C570 1.526 . S
C573 C574 1.396 . S
C573 C578 1.390 . S
C574 C568 1.465 . S
C574 C573 1.396 . S
C574 C575 1.399 . S
C575 H561 0.929 . S
C575 C574 1.399 . S
C575 C576 1.385 . S
C576 H562 0.931 . S
C576 C575 1.385 . S
C576 C577 1.389 . S
C577 C576 1.389 . S
C577 C578 1.387 . S
C578 H563 0.930 . S
C578 C573 1.390 . S
C578 C577 1.387 . S
H579 C591 0.930 . S
H580 C593 0.930 . S
H581 C594 0.930 . S
H582 C598 0.959 . S
H583 C598 0.959 . S
H584 C598 0.961 . S
H585 C599 0.960 . S
H586 C599 0.961 . S
H587 C599 0.959 . S
H588 C602 0.929 . S
H589 C603 0.931 . S
H590 C605 0.930 . S
C591 H579 0.930 . S
C591 C592 1.399 1_545 S
C591 C596 1.399 . S
C592 C591 1.399 1_565 S
C592 C593 1.376 . S
C593 H580 0.930 . S
C593 C592 1.376 . S
C593 C594 1.388 . S
C594 H581 0.930 . S
C594 C593 1.388 . S
C594 C595 1.390 . S
C595 C594 1.390 . S
C595 C596 1.394 1_565 S
C595 C601 1.465 . S
C596 C591 1.399 . S
C596 C595 1.394 1_545 S
C596 C597 1.516 . S
C597 C596 1.516 . S
C597 C598 1.502 . S
C597 C599 1.561 . S
C597 C600 1.526 . S
C598 H582 0.959 . S
C598 H583 0.959 . S
C598 H584 0.961 . S
C598 C597 1.502 . S
C599 H585 0.960 . S
C599 H586 0.961 . S
C599 H587 0.959 . S
C599 C597 1.561 . S
C600 C597 1.526 . S
C600 C601 1.396 1_545 S
C600 C605 1.390 . S
C601 C595 1.465 . S
C601 C600 1.396 1_565 S
C601 C602 1.399 . S
C602 H588 0.929 . S
C602 C601 1.399 . S
C602 C603 1.385 . S
C603 H589 0.931 . S
C603 C602 1.385 . S
C603 C604 1.389 . S
C604 C603 1.389 . S
C604 C605 1.387 1_565 S
C605 H590 0.930 . S
C605 C600 1.390 . S
C605 C604 1.387 1_545 S
H606 C618 0.930 . S
H607 C620 0.930 . S
H608 C621 0.930 . S
H609 C625 0.959 . S
H610 C625 0.959 . S
H611 C625 0.961 . S
H612 C626 0.960 . S
H613 C626 0.961 . S
H614 C626 0.959 . S
H615 C629 0.929 . S
H616 C630 0.931 . S
H617 C632 0.930 . S
C618 H606 0.930 . S
C618 C619 1.399 . S
C618 C623 1.399 . S
C619 C618 1.399 . S
C619 C620 1.376 . S
C620 H607 0.930 . S
C620 C619 1.376 . S
C620 C621 1.388 . S
C621 H608 0.930 . S
C621 C620 1.388 . S
C621 C622 1.390 . S
C622 C621 1.390 . S
C622 C623 1.394 . S
C622 C628 1.465 . S
C623 C618 1.399 . S
C623 C622 1.394 . S
C623 C624 1.516 . S
C624 C623 1.516 . S
C624 C625 1.502 . S
C624 C626 1.561 . S
C624 C627 1.526 . S
C625 H609 0.959 . S
C625 H610 0.959 . S
C625 H611 0.961 . S
C625 C624 1.502 . S
C626 H612 0.960 . S
C626 H613 0.961 . S
C626 H614 0.959 . S
C626 C624 1.561 . S
C627 C624 1.526 . S
C627 C628 1.396 . S
C627 C632 1.390 . S
C628 C622 1.465 . S
C628 C627 1.396 . S
C628 C629 1.399 . S
C629 H615 0.929 . S
C629 C628 1.399 . S
C629 C630 1.385 . S
C630 H616 0.931 . S
C630 C629 1.385 . S
C630 C631 1.389 . S
C631 C630 1.389 . S
C631 C632 1.387 . S
C632 H617 0.930 . S
C632 C627 1.390 . S
C632 C631 1.387 . S
H633 C645 0.930 . S
H634 C647 0.930 . S
H635 C648 0.930 . S
H636 C652 0.959 . S
H637 C652 0.959 . S
H638 C652 0.961 . S
H639 C653 0.960 . S
H640 C653 0.961 . S
H641 C653 0.959 . S
H642 C656 0.929 . S
H643 C657 0.931 . S
H644 C659 0.930 . S
C645 H633 0.930 . S
C645 C646 1.399 . S
C645 C650 1.399 . S
C646 C645 1.399 . S
C646 C647 1.376 . S
C647 H634 0.930 . S
C647 C646 1.376 . S
C647 C648 1.388 . S
C648 H635 0.930 . S
C648 C647 1.388 . S
C648 C649 1.390 . S
C649 C648 1.390 . S
C649 C650 1.394 . S
C649 C655 1.465 . S
C650 C645 1.399 . S
C650 C649 1.394 . S
C650 C651 1.516 . S
C651 C650 1.516 . S
C651 C652 1.502 . S
C651 C653 1.561 . S
C651 C654 1.526 . S
C652 H636 0.959 . S
C652 H637 0.959 . S
C652 H638 0.961 . S
C652 C651 1.502 . S
C653 H639 0.960 . S
C653 H640 0.961 . S
C653 H641 0.959 . S
C653 C651 1.561 . S
C654 C651 1.526 . S
C654 C655 1.396 . S
C654 C659 1.390 . S
C655 C649 1.465 . S
C655 C654 1.396 . S
C655 C656 1.399 . S
C656 H642 0.929 . S
C656 C655 1.399 . S
C656 C657 1.385 . S
C657 H643 0.931 . S
C657 C656 1.385 . S
C657 C658 1.389 . S
C658 C657 1.389 . S
C658 C659 1.387 . S
C659 H644 0.930 . S
C659 C654 1.390 . S
C659 C658 1.387 . S
H660 C672 0.930 . S
H661 C674 0.930 . S
H662 C675 0.930 . S
H663 C679 0.959 . S
H664 C679 0.959 . S
H665 C679 0.961 . S
H666 C680 0.960 . S
H667 C680 0.961 . S
H668 C680 0.959 . S
H669 C683 0.929 . S
H670 C684 0.931 . S
H671 C686 0.930 . S
C672 H660 0.930 . S
C672 C673 1.399 . S
C672 C677 1.399 . S
C673 C672 1.399 . S
C673 C674 1.376 . S
C674 H661 0.930 . S
C674 C673 1.376 . S
C674 C675 1.388 . S
C675 H662 0.930 . S
C675 C674 1.388 . S
C675 C676 1.390 . S
C676 C675 1.390 . S
C676 C677 1.394 . S
C676 C682 1.465 . S
C677 C672 1.399 . S
C677 C676 1.394 . S
C677 C678 1.516 . S
C678 C677 1.516 . S
C678 C679 1.502 . S
C678 C680 1.561 . S
C678 C681 1.526 . S
C679 H663 0.959 . S
C679 H664 0.959 . S
C679 H665 0.961 . S
C679 C678 1.502 . S
C680 H666 0.960 . S
C680 H667 0.961 . S
C680 H668 0.959 . S
C680 C678 1.561 . S
C681 C678 1.526 . S
C681 C682 1.396 . S
C681 C686 1.390 . S
C682 C676 1.465 . S
C682 C681 1.396 . S
C682 C683 1.399 1_655 S
C683 H669 0.929 . S
C683 C682 1.399 1_455 S
C683 C684 1.385 . S
C684 H670 0.931 . S
C684 C683 1.385 . S
C684 C685 1.389 . S
C685 C684 1.389 . S
C685 C686 1.387 1_455 S
C686 H671 0.930 . S
C686 C681 1.390 . S
C686 C685 1.387 1_655 S
H687 C699 0.930 . S
H688 C701 0.940 . S
H689 C702 0.931 . S
H690 C706 0.959 . S
H691 C706 0.963 . S
H692 C706 0.961 . S
H693 C707 0.960 . S
H694 C707 0.961 . S
H695 C707 0.959 . S
H696 C710 0.929 . S
H697 C711 0.931 . S
H698 C713 0.930 . S
C699 H687 0.930 . S
C699 C700 1.400 1_545 S
C699 C704 1.399 . S
C700 C699 1.400 1_565 S
C700 C701 1.377 . S
C701 H688 0.940 . S
C701 C700 1.377 . S
C701 C702 1.381 1_565 S
C702 H689 0.931 . S
C702 C701 1.381 1_545 S
C702 C703 1.390 . S
C703 C702 1.390 . S
C703 C704 1.394 . S
C703 C709 1.465 . S
C704 C699 1.399 . S
C704 C703 1.394 . S
C704 C705 1.516 . S
C705 C704 1.516 . S
C705 C706 1.502 1_545 S
C705 C707 1.561 . S
C705 C708 1.526 . S
C706 H690 0.959 . S
C706 H691 0.963 . S
C706 H692 0.961 . S
C706 C705 1.502 1_565 S
C707 H693 0.960 . S
C707 H694 0.961 . S
C707 H695 0.959 . S
C707 C705 1.561 . S
C708 C705 1.526 . S
C708 C709 1.396 . S
C708 C713 1.390 . S
C709 C703 1.465 . S
C709 C708 1.396 . S
C709 C710 1.399 . S
C710 H696 0.929 . S
C710 C709 1.399 . S
C710 C711 1.385 . S
C711 H697 0.931 . S
C711 C710 1.385 . S
C711 C712 1.389 . S
C712 C711 1.389 . S
C712 C713 1.387 . S
C713 H698 0.930 . S
C713 C708 1.390 . S
C713 C712 1.387 . S
H714 C726 0.930 . S
H715 C728 0.930 . S
H716 C729 0.930 . S
H717 C733 0.959 . S
H718 C733 0.959 . S
H719 C733 0.961 . S
H720 C734 0.960 . S
H721 C734 0.961 . S
H722 C734 0.959 . S
H723 C737 0.929 . S
H724 C738 0.931 . S
H725 C740 0.930 . S
C726 H714 0.930 . S
C726 C727 1.399 . S
C726 C731 1.399 . S
C727 C726 1.399 . S
C727 C728 1.376 . S
C728 H715 0.930 . S
C728 C727 1.376 . S
C728 C729 1.388 . S
C729 H716 0.930 . S
C729 C728 1.388 . S
C729 C730 1.390 . S
C730 C729 1.390 . S
C730 C731 1.394 . S
C730 C736 1.465 . S
C731 C726 1.399 . S
C731 C730 1.394 . S
C731 C732 1.516 . S
C732 C731 1.516 . S
C732 C733 1.502 . S
C732 C734 1.561 . S
C732 C735 1.526 . S
C733 H717 0.959 . S
C733 H718 0.959 . S
C733 H719 0.961 . S
C733 C732 1.502 . S
C734 H720 0.960 . S
C734 H721 0.961 . S
C734 H722 0.959 . S
C734 C732 1.561 . S
C735 C732 1.526 . S
C735 C736 1.396 . S
C735 C740 1.390 . S
C736 C730 1.465 . S
C736 C735 1.396 . S
C736 C737 1.399 . S
C737 H723 0.929 . S
C737 C736 1.399 . S
C737 C738 1.385 . S
C738 H724 0.931 . S
C738 C737 1.385 . S
C738 C739 1.389 . S
C739 C738 1.389 . S
C739 C740 1.387 . S
C740 H725 0.930 . S
C740 C735 1.390 . S
C740 C739 1.387 . S
H741 C753 0.930 . S
H742 C755 0.930 . S
H743 C756 0.930 . S
H744 C760 0.959 . S
H745 C760 0.959 . S
H746 C760 0.961 . S
H747 C761 0.960 . S
H748 C761 0.961 . S
H749 C761 0.959 . S
H750 C764 0.929 . S
H751 C765 0.931 . S
H752 C767 0.930 . S
C753 H741 0.930 . S
C753 C754 1.399 . S
C753 C758 1.399 . S
C754 C753 1.399 . S
C754 C755 1.376 . S
C755 H742 0.930 . S
C755 C754 1.376 . S
C755 C756 1.388 . S
C756 H743 0.930 . S
C756 C755 1.388 . S
C756 C757 1.390 . S
C757 C756 1.390 . S
C757 C758 1.394 . S
C757 C763 1.465 . S
C758 C753 1.399 . S
C758 C757 1.394 . S
C758 C759 1.516 . S
C759 C758 1.516 . S
C759 C760 1.502 . S
C759 C761 1.561 . S
C759 C762 1.526 . S
C760 H744 0.959 . S
C760 H745 0.959 . S
C760 H746 0.961 . S
C760 C759 1.502 . S
C761 H747 0.960 . S
C761 H748 0.961 . S
C761 H749 0.959 . S
C761 C759 1.561 . S
C762 C759 1.526 . S
C762 C763 1.396 . S
C762 C767 1.390 . S
C763 C757 1.465 . S
C763 C762 1.396 . S
C763 C764 1.399 . S
C764 H750 0.929 . S
C764 C763 1.399 . S
C764 C765 1.385 . S
C765 H751 0.931 . S
C765 C764 1.385 . S
C765 C766 1.389 . S
C766 C765 1.389 . S
C766 C767 1.387 . S
C767 H752 0.930 . S
C767 C762 1.390 . S
C767 C766 1.387 . S
H768 C780 0.930 . S
H769 C782 0.930 . S
H770 C783 0.930 . S
H771 C787 0.959 . S
H772 C787 0.959 . S
H773 C787 0.961 . S
H774 C788 0.960 . S
H775 C788 0.961 . S
H776 C788 0.959 . S
H777 C791 0.929 . S
H778 C792 0.931 . S
H779 C794 0.930 . S
C780 H768 0.930 . S
C780 C781 1.399 . S
C780 C785 1.399 . S
C781 C780 1.399 . S
C781 C782 1.376 . S
C782 H769 0.930 . S
C782 C781 1.376 . S
C782 C783 1.388 . S
C783 H770 0.930 . S
C783 C782 1.388 . S
C783 C784 1.390 . S
C784 C783 1.390 . S
C784 C785 1.394 . S
C784 C790 1.465 . S
C785 C780 1.399 . S
C785 C784 1.394 . S
C785 C786 1.516 . S
C786 C785 1.516 . S
C786 C787 1.502 . S
C786 C788 1.561 . S
C786 C789 1.526 . S
C787 H771 0.959 . S
C787 H772 0.959 . S
C787 H773 0.961 . S
C787 C786 1.502 . S
C788 H774 0.960 . S
C788 H775 0.961 . S
C788 H776 0.959 . S
C788 C786 1.561 . S
C789 C786 1.526 . S
C789 C790 1.396 . S
C789 C794 1.390 . S
C790 C784 1.465 . S
C790 C789 1.396 . S
C790 C791 1.399 . S
C791 H777 0.929 . S
C791 C790 1.399 . S
C791 C792 1.385 . S
C792 H778 0.931 . S
C792 C791 1.385 . S
C792 C793 1.389 . S
C793 C792 1.389 . S
C793 C794 1.387 . S
C794 H779 0.930 . S
C794 C789 1.390 . S
C794 C793 1.387 . S
H795 C807 0.930 . S
H796 C809 0.930 . S
H797 C810 0.930 . S
H798 C814 0.959 . S
H799 C814 0.959 . S
H800 C814 0.961 . S
H801 C815 0.960 . S
H802 C815 0.961 . S
H803 C815 0.959 . S
H804 C818 0.929 . S
H805 C819 0.931 . S
H806 C821 0.930 . S
C807 H795 0.930 . S
C807 C808 1.399 1_565 S
C807 C812 1.399 . S
C808 C807 1.399 1_545 S
C808 C809 1.376 . S
C809 H796 0.930 . S
C809 C808 1.376 . S
C809 C810 1.388 . S
C810 H797 0.930 . S
C810 C809 1.388 . S
C810 C811 1.390 . S
C811 C810 1.390 . S
C811 C812 1.394 1_545 S
C811 C817 1.465 . S
C812 C807 1.399 . S
C812 C811 1.394 1_565 S
C812 C813 1.516 . S
C813 C812 1.516 . S
C813 C814 1.502 . S
C813 C815 1.561 . S
C813 C816 1.526 . S
C814 H798 0.959 . S
C814 H799 0.959 . S
C814 H800 0.961 . S
C814 C813 1.502 . S
C815 H801 0.960 . S
C815 H802 0.961 . S
C815 H803 0.959 . S
C815 C813 1.561 . S
C816 C813 1.526 . S
C816 C817 1.396 1_565 S
C816 C821 1.390 . S
C817 C811 1.465 . S
C817 C816 1.396 1_545 S
C817 C818 1.399 . S
C818 H804 0.929 . S
C818 C817 1.399 . S
C818 C819 1.385 . S
C819 H805 0.931 . S
C819 C818 1.385 . S
C819 C820 1.389 . S
C820 C819 1.389 . S
C820 C821 1.387 1_545 S
C821 H806 0.930 . S
C821 C816 1.390 . S
C821 C820 1.387 1_565 S
H822 C834 0.930 . S
H823 C836 0.930 . S
H824 C837 0.930 . S
H825 C841 0.959 . S
H826 C841 0.959 . S
H827 C841 0.961 . S
H828 C842 0.960 . S
H829 C842 0.961 . S
H830 C842 0.959 . S
H831 C845 0.929 . S
H832 C846 0.931 . S
H833 C848 0.930 . S
C834 H822 0.930 . S
C834 C835 1.399 . S
C834 C839 1.399 . S
C835 C834 1.399 . S
C835 C836 1.376 . S
C836 H823 0.930 . S
C836 C835 1.376 . S
C836 C837 1.388 . S
C837 H824 0.930 . S
C837 C836 1.388 . S
C837 C838 1.390 . S
C838 C837 1.390 . S
C838 C839 1.394 . S
C838 C844 1.465 . S
C839 C834 1.399 . S
C839 C838 1.394 . S
C839 C840 1.516 . S
C840 C839 1.516 . S
C840 C841 1.502 . S
C840 C842 1.561 . S
C840 C843 1.526 . S
C841 H825 0.959 . S
C841 H826 0.959 . S
C841 H827 0.961 . S
C841 C840 1.502 . S
C842 H828 0.960 . S
C842 H829 0.961 . S
C842 H830 0.959 . S
C842 C840 1.561 . S
C843 C840 1.526 . S
C843 C844 1.396 . S
C843 C848 1.390 . S
C844 C838 1.465 . S
C844 C843 1.396 . S
C844 C845 1.399 . S
C845 H831 0.929 . S
C845 C844 1.399 . S
C845 C846 1.385 . S
C846 H832 0.931 . S
C846 C845 1.385 . S
C846 C847 1.389 . S
C847 C846 1.389 . S
C847 C848 1.387 . S
C848 H833 0.930 . S
C848 C843 1.390 . S
C848 C847 1.387 . S
H849 C861 0.930 . S
H850 C863 0.930 . S
H851 C864 0.930 . S
H852 C868 0.959 . S
H853 C868 0.959 . S
H854 C868 0.961 . S
H855 C869 0.960 . S
H856 C869 0.961 . S
H857 C869 0.959 . S
H858 C872 0.929 . S
H859 C873 0.931 . S
H860 C875 0.930 . S
C861 H849 0.930 . S
C861 C862 1.399 . S
C861 C866 1.399 . S
C862 C861 1.399 . S
C862 C863 1.376 . S
C863 H850 0.930 . S
C863 C862 1.376 . S
C863 C864 1.388 . S
C864 H851 0.930 . S
C864 C863 1.388 . S
C864 C865 1.390 . S
C865 C864 1.390 . S
C865 C866 1.394 . S
C865 C871 1.465 . S
C866 C861 1.399 . S
C866 C865 1.394 . S
C866 C867 1.516 . S
C867 C866 1.516 . S
C867 C868 1.502 . S
C867 C869 1.561 . S
C867 C870 1.526 . S
C868 H852 0.959 . S
C868 H853 0.959 . S
C868 H854 0.961 . S
C868 C867 1.502 . S
C869 H855 0.960 . S
C869 H856 0.961 . S
C869 H857 0.959 . S
C869 C867 1.561 . S
C870 C867 1.526 . S
C870 C871 1.396 . S
C870 C875 1.390 . S
C871 C865 1.465 . S
C871 C870 1.396 . S
C871 C872 1.399 . S
C872 H858 0.929 . S
C872 C871 1.399 . S
C872 C873 1.385 . S
C873 H859 0.931 . S
C873 C872 1.385 . S
C873 C874 1.389 . S
C874 C873 1.389 . S
C874 C875 1.387 . S
C875 H860 0.930 . S
C875 C870 1.390 . S
C875 C874 1.387 . S
H876 C888 0.930 . S
H877 C890 0.930 . S
H878 C891 0.930 . S
H879 C895 0.959 1_455 S
H880 C895 0.959 . S
H881 C895 0.961 . S
H882 C896 0.960 . S
H883 C896 0.961 . S
H884 C896 0.959 . S
H885 C899 0.929 . S
H886 C900 0.931 . S
H887 C902 0.930 . S
C888 H876 0.930 . S
C888 C889 1.399 . S
C888 C893 1.399 . S
C889 C888 1.399 . S
C889 C890 1.376 . S
C890 H877 0.930 . S
C890 C889 1.376 . S
C890 C891 1.388 . S
C891 H878 0.930 . S
C891 C890 1.388 . S
C891 C892 1.390 . S
C892 C891 1.390 . S
C892 C893 1.394 . S
C892 C898 1.465 . S
C893 C888 1.399 . S
C893 C892 1.394 . S
C893 C894 1.516 . S
C894 C893 1.516 . S
C894 C895 1.502 . S
C894 C896 1.561 . S
C894 C897 1.526 . S
C895 H879 0.959 1_655 S
C895 H880 0.959 . S
C895 H881 0.961 . S
C895 C894 1.502 . S
C896 H882 0.960 . S
C896 H883 0.961 . S
C896 H884 0.959 . S
C896 C894 1.561 . S
C897 C894 1.526 . S
C897 C898 1.396 . S
C897 C902 1.390 . S
C898 C892 1.465 . S
C898 C897 1.396 . S
C898 C899 1.399 . S
C899 H885 0.929 . S
C899 C898 1.399 . S
C899 C900 1.385 . S
C900 H886 0.931 . S
C900 C899 1.385 . S
C900 C901 1.389 . S
C901 C900 1.389 . S
C901 C902 1.387 . S
C902 H887 0.930 . S
C902 C897 1.390 . S
C902 C901 1.387 . S
H903 C915 0.930 . S
H904 C917 0.930 . S
H905 C918 0.930 . S
H906 C922 0.959 . S
H907 C922 0.959 . S
H908 C922 0.961 . S
H909 C923 0.960 . S
H910 C923 0.961 . S
H911 C923 0.959 . S
H912 C926 0.929 . S
H913 C927 0.931 . S
H914 C929 0.930 . S
C915 H903 0.930 . S
C915 C916 1.399 1_565 S
C915 C920 1.399 . S
C916 C915 1.399 1_545 S
C916 C917 1.376 . S
C917 H904 0.930 . S
C917 C916 1.376 . S
C917 C918 1.388 . S
C918 H905 0.930 . S
C918 C917 1.388 . S
C918 C919 1.390 . S
C919 C918 1.390 . S
C919 C920 1.394 1_545 S
C919 C925 1.465 . S
C920 C915 1.399 . S
C920 C919 1.394 1_565 S
C920 C921 1.516 . S
C921 C920 1.516 . S
C921 C922 1.502 . S
C921 C923 1.561 . S
C921 C924 1.526 . S
C922 H906 0.959 . S
C922 H907 0.959 . S
C922 H908 0.961 . S
C922 C921 1.502 . S
C923 H909 0.960 . S
C923 H910 0.961 . S
C923 H911 0.959 . S
C923 C921 1.561 . S
C924 C921 1.526 . S
C924 C925 1.396 1_565 S
C924 C929 1.390 . S
C925 C919 1.465 . S
C925 C924 1.396 1_545 S
C925 C926 1.399 . S
C926 H912 0.929 . S
C926 C925 1.399 . S
C926 C927 1.385 . S
C927 H913 0.931 . S
C927 C926 1.385 . S
C927 C928 1.389 1_545 S
C928 C927 1.389 1_565 S
C928 C929 1.387 . S
C929 H914 0.930 . S
C929 C924 1.390 . S
C929 C928 1.387 . S
H930 C942 0.930 . S
H931 C944 0.930 . S
H932 C945 0.930 . S
H933 C949 0.959 . S
H934 C949 0.959 . S
H935 C949 0.961 . S
H936 C950 0.960 . S
H937 C950 0.961 . S
H938 C950 0.959 . S
H939 C953 0.929 . S
H940 C954 0.931 . S
H941 C956 0.930 . S
C942 H930 0.930 . S
C942 C943 1.399 . S
C942 C947 1.399 . S
C943 C942 1.399 . S
C943 C944 1.376 . S
C944 H931 0.930 . S
C944 C943 1.376 . S
C944 C945 1.388 . S
C945 H932 0.930 . S
C945 C944 1.388 . S
C945 C946 1.390 . S
C946 C945 1.390 . S
C946 C947 1.394 . S
C946 C952 1.465 . S
C947 C942 1.399 . S
C947 C946 1.394 . S
C947 C948 1.516 . S
C948 C947 1.516 . S
C948 C949 1.502 . S
C948 C950 1.561 . S
C948 C951 1.526 . S
C949 H933 0.959 . S
C949 H934 0.959 . S
C949 H935 0.961 . S
C949 C948 1.502 . S
C950 H936 0.960 . S
C950 H937 0.961 . S
C950 H938 0.959 . S
C950 C948 1.561 . S
C951 C948 1.526 . S
C951 C952 1.396 . S
C951 C956 1.390 . S
C952 C946 1.465 . S
C952 C951 1.396 . S
C952 C953 1.399 . S
C953 H939 0.929 . S
C953 C952 1.399 . S
C953 C954 1.385 . S
C954 H940 0.931 . S
C954 C953 1.385 . S
C954 C955 1.389 . S
C955 C954 1.389 . S
C955 C956 1.387 . S
C956 H941 0.930 . S
C956 C951 1.390 . S
C956 C955 1.387 . S
H957 C969 0.930 . S
H958 C971 0.930 . S
H959 C972 0.930 . S
H960 C976 0.959 . S
H961 C976 0.959 . S
H962 C976 0.961 . S
H963 C977 0.960 . S
H964 C977 0.961 . S
H965 C977 0.959 . S
H966 C980 0.929 . S
H967 C981 0.931 . S
H968 C983 0.930 . S
C969 H957 0.930 . S
C969 C970 1.399 . S
C969 C974 1.399 . S
C970 C969 1.399 . S
C970 C971 1.376 . S
C971 H958 0.930 . S
C971 C970 1.376 . S
C971 C972 1.388 . S
C972 H959 0.930 . S
C972 C971 1.388 . S
C972 C973 1.390 . S
C973 C972 1.390 . S
C973 C974 1.394 . S
C973 C979 1.465 . S
C974 C969 1.399 . S
C974 C973 1.394 . S
C974 C975 1.516 . S
C975 C974 1.516 . S
C975 C976 1.502 . S
C975 C977 1.561 . S
C975 C978 1.526 . S
C976 H960 0.959 . S
C976 H961 0.959 . S
C976 H962 0.961 . S
C976 C975 1.502 . S
C977 H963 0.960 . S
C977 H964 0.961 . S
C977 H965 0.959 . S
C977 C975 1.561 . S
C978 C975 1.526 . S
C978 C979 1.396 . S
C978 C983 1.390 . S
C979 C973 1.465 . S
C979 C978 1.396 . S
C979 C980 1.399 . S
C980 H966 0.929 . S
C980 C979 1.399 . S
C980 C981 1.385 . S
C981 H967 0.931 . S
C981 C980 1.385 . S
C981 C982 1.389 . S
C982 C981 1.389 . S
C982 C983 1.387 . S
C983 H968 0.930 . S
C983 C978 1.390 . S
C983 C982 1.387 . S
C349 C215 1.660 1_565 S
C361 C264 1.684 . S
C388 C294 2.193 . S
C376 C247 2.156 . S
C415 C304 1.754 . S
C403 C151 1.546 . S
C442 C324 1.625 . S
C430 C183 1.577 . S
C469 C265 1.684 . S
C457 C87 1.572 . S
C484 C119 1.983 1_556 S
C496 C295 2.212 . S
C511 C23 1.733 . S
C523 C305 1.745 . S
C538 C55 1.510 . S
C550 C325 1.625 . S
C577 C257 0.724 . S
C565 C189 0.750 . S
C604 C278 0.292 . S
C592 C221 0.503 1_565 S
C631 C297 1.030 . S
C619 C253 1.065 . S
C646 C157 0.611 . S
C658 C317 0.622 . S
C673 C61 0.690 . S
C685 C258 0.782 . S
C712 C277 0.206 . S
C700 C93 0.508 1_565 S
C739 C298 1.026 . S
C727 C125 0.888 . S
C754 C29 0.629 . S
C766 C318 0.569 . S
C781 C177 2.030 . S
C793 C275 2.157 . S
C808 C209 1.610 . S
C820 C285 1.741 . S
C847 C315 2.322 . S
C835 C241 2.229 . S
C874 C335 2.226 . S
C862 C145 2.048 . S
C889 C49 2.004 . S
C901 C274 2.177 . S
C928 C284 1.762 . S
C916 C81 1.617 . S
C955 C314 2.326 . S
C943 C113 2.110 . S
C970 C17 2.184 . S
C982 C334 2.236 . S
