# Generated by pormake.
# Topology zzz, (3,6)-cn, num edge types: 1
# Building blocks:
#     Node 0, Type 0, BuildingBlock: KAKCAD_clean_linker_0, # of connection points: 3
#     Node 1, Type 0, BuildingBlock: KAKCAD_clean_linker_0, # of connection points: 3
#     Node 2, Type 0, BuildingBlock: KAKCAD_clean_linker_0, # of connection points: 3
#     Node 3, Type 0, BuildingBlock: KAKCAD_clean_linker_0, # of connection points: 3
#     Node 4, Type 0, BuildingBlock: KAKCAD_clean_linker_0, # of connection points: 3
#     Node 5, Type 0, BuildingBlock: KAKCAD_clean_linker_0, # of connection points: 3
#     Node 6, Type 0, BuildingBlock: KAKCAD_clean_linker_0, # of connection points: 3
#     Node 7, Type 0, BuildingBlock: KAKCAD_clean_linker_0, # of connection points: 3
#     Node 8, Type 1, BuildingBlock: INOVEN_clean_sbu_0, # of connection points: 6
#     Node 9, Type 1, BuildingBlock: INOVEN_clean_sbu_0, # of connection points: 6
#     Node 10, Type 1, BuildingBlock: INOVEN_clean_sbu_0, # of connection points: 6
#     Node 11, Type 1, BuildingBlock: INOVEN_clean_sbu_0, # of connection points: 6
#     Edge 12, Type (0, 1), BuildingBlock: XUDNAN_clean_linker_2, # of connection points: 2
#     Edge 13, Type (0, 1), BuildingBlock: XUDNAN_clean_linker_2, # of connection points: 2
#     Edge 14, Type (0, 1), BuildingBlock: XUDNAN_clean_linker_2, # of connection points: 2
#     Edge 15, Type (0, 1), BuildingBlock: XUDNAN_clean_linker_2, # of connection points: 2
#     Edge 16, Type (0, 1), BuildingBlock: XUDNAN_clean_linker_2, # of connection points: 2
#     Edge 17, Type (0, 1), BuildingBlock: XUDNAN_clean_linker_2, # of connection points: 2
#     Edge 18, Type (0, 1), BuildingBlock: XUDNAN_clean_linker_2, # of connection points: 2
#     Edge 19, Type (0, 1), BuildingBlock: XUDNAN_clean_linker_2, # of connection points: 2
#     Edge 20, Type (0, 1), BuildingBlock: XUDNAN_clean_linker_2, # of connection points: 2
#     Edge 21, Type (0, 1), BuildingBlock: XUDNAN_clean_linker_2, # of connection points: 2
#     Edge 22, Type (0, 1), BuildingBlock: XUDNAN_clean_linker_2, # of connection points: 2
#     Edge 23, Type (0, 1), BuildingBlock: XUDNAN_clean_linker_2, # of connection points: 2
#     Edge 24, Type (0, 1), BuildingBlock: XUDNAN_clean_linker_2, # of connection points: 2
#     Edge 25, Type (0, 1), BuildingBlock: XUDNAN_clean_linker_2, # of connection points: 2
#     Edge 26, Type (0, 1), BuildingBlock: XUDNAN_clean_linker_2, # of connection points: 2
#     Edge 27, Type (0, 1), BuildingBlock: XUDNAN_clean_linker_2, # of connection points: 2
#     Edge 28, Type (0, 1), BuildingBlock: XUDNAN_clean_linker_2, # of connection points: 2
#     Edge 29, Type (0, 1), BuildingBlock: XUDNAN_clean_linker_2, # of connection points: 2
#     Edge 30, Type (0, 1), BuildingBlock: XUDNAN_clean_linker_2, # of connection points: 2
#     Edge 31, Type (0, 1), BuildingBlock: XUDNAN_clean_linker_2, # of connection points: 2
#     Edge 32, Type (0, 1), BuildingBlock: XUDNAN_clean_linker_2, # of connection points: 2
#     Edge 33, Type (0, 1), BuildingBlock: XUDNAN_clean_linker_2, # of connection points: 2
#     Edge 34, Type (0, 1), BuildingBlock: XUDNAN_clean_linker_2, # of connection points: 2
#     Edge 35, Type (0, 1), BuildingBlock: XUDNAN_clean_linker_2, # of connection points: 2
# Relax obj value: 0.427
# Max RMSD: 0.269
# Mean RMSD: 0.251
data_MOF--net-zzz--node1-INOVEN_clean_sbu_0--node2-KAKCAD_clean_linker_0--edge1-XUDNAN_clean_linker_2
_symmetry_space_group_name_H-M    P1
_symmetry_Int_Tables_number       1
_symmetry_cell_setting            triclinic
loop_
_symmetry_equiv_pos_as_xyz
'x, y, z'
_cell_length_a     59.194711
_cell_length_b     59.427339
_cell_length_c     18.23789
_cell_angle_alpha  89.921123
_cell_angle_beta   90.141279
_cell_angle_gamma 89.970342
loop_
_atom_site_label
_atom_site_type_symbol
_atom_site_fract_x
_atom_site_fract_y
_atom_site_fract_z
_atom_type_partial_charge
C0 C 0.74569 0.51593 1.00596 0.0
C1 C 0.75957 0.49743 0.99002 0.0
C2 C 0.73567 0.51783 0.07487 0.0
C3 C 0.73971 0.50142 0.12888 0.0
C4 C 0.75221 0.48217 0.11119 0.0
C5 C 0.76191 0.4801 0.04201 0.0
C6 C 0.73188 0.50499 0.20458 0.0
C7 C 0.70936 0.51015 0.21733 0.0
C8 C 0.70149 0.5143 0.28822 0.0
C9 C 0.7168 0.51341 0.34827 0.0
C10 C 0.73994 0.50806 0.33598 0.0
C11 C 0.74703 0.50396 0.26347 0.0
C12 C 0.75751 0.50705 0.39573 0.0
C13 C 0.75944 0.52396 0.44943 0.0
C14 C 0.77451 0.49041 0.39311 0.0
C15 C 0.79358 0.49153 0.43855 0.0
C16 C 0.79617 0.50905 0.48944 0.0
C17 C 0.67692 0.519 0.2935 0.0
C18 C 0.66899 0.53968 0.26603 0.0
C19 C 0.66197 0.50064 0.29488 0.0
C20 C 0.6405 0.50224 0.26226 0.0
C21 C 0.63358 0.52223 0.22713 0.0
C22 C 0.6476 0.54127 0.23312 0.0
C23 C 0.7785 0.52488 0.49601 0.0
H24 H 0.74394 0.52962 0.96706 0.0
H25 H 0.72596 0.53279 0.0875 0.0
H26 H 0.75524 0.46921 0.15187 0.0
H27 H 0.7729 0.46587 0.03161 0.0
H28 H 0.69769 0.51075 0.1713 0.0
H29 H 0.76469 0.50064 0.25205 0.0
H30 H 0.71078 0.5166 0.4033 0.0
H31 H 0.74682 0.53711 0.45298 0.0
H32 H 0.77346 0.4768 0.35381 0.0
H33 H 0.80652 0.47875 0.43311 0.0
H34 H 0.68031 0.55396 0.2625 0.0
H35 H 0.66783 0.48433 0.31354 0.0
H36 H 0.7799 0.53857 0.53488 0.0
H37 H 0.64269 0.55706 0.20797 0.0
H38 H 0.63026 0.48718 0.2587 0.0
C39 C 0.07792 0.76329 0.05108 0.0
C40 C 0.08996 0.78289 0.07014 0.0
C41 C 0.06295 0.75333 0.10046 0.0
C42 C 0.06057 0.76174 0.17226 0.0
C43 C 0.07546 0.77884 0.19479 0.0
C44 C 0.08945 0.78963 0.14432 0.0
C45 C 0.04123 0.75463 0.22004 0.0
C46 C 0.03019 0.73404 0.20885 0.0
C47 C 1.00965 0.7291 0.24359 0.0
C48 C 1.00087 0.74413 0.29606 0.0
C49 C 1.01241 0.76437 0.31159 0.0
C50 C 0.03206 0.76958 0.2718 0.0
C51 C 1.00379 0.78149 0.36449 0.0
C52 C 0.98134 0.78912 0.36157 0.0
C53 C 0.01909 0.79274 0.41086 0.0
C54 C 1.01273 0.81224 0.44829 0.0
C55 C 0.99074 0.82099 0.44121 0.0
C56 C 0.99726 0.70888 0.21813 0.0
C57 C 0.9914 0.70738 0.14364 0.0
C58 C 0.99553 0.68962 0.26227 0.0
C59 C 0.98969 0.66883 0.23094 0.0
C60 C 0.98564 0.66694 0.15483 0.0
C61 C 0.98569 0.68673 0.11234 0.0
C62 C 0.97488 0.80862 0.39964 0.0
H63 H 0.0788 0.75626 0.99654 0.0
H64 H 0.05234 0.73996 0.0798 0.0
H65 H 0.07548 0.78497 0.25061 0.0
H66 H 0.09851 0.80421 0.1638 0.0
H67 H 0.03704 0.72183 0.17094 0.0
H68 H 0.03943 0.78608 0.27896 0.0
H69 H 0.98509 0.74031 0.32333 0.0
H70 H 0.96914 0.78086 0.3264 0.0
H71 H 0.03647 0.78714 0.41499 0.0
H72 H 0.02555 0.82115 0.4791 0.0
H73 H 0.99282 0.722 0.10836 0.0
H74 H 1.00018 0.69034 0.31971 0.0
H75 H 0.95763 0.81445 0.3942 0.0
H76 H 0.983 0.68613 0.05366 0.0
H77 H 0.98939 0.65407 0.26577 0.0
C78 C 0.7496 0.02004 0.01393 0.0
C79 C 0.73155 0.03538 0.01264 0.0
C80 C 0.76113 0.01574 0.07931 0.0
C81 C 0.7548 0.02672 0.14434 0.0
C82 C 0.73792 0.04324 0.14182 0.0
C83 C 0.7264 0.04753 0.07668 0.0
C84 C 0.76494 0.02015 0.21529 0.0
C85 C 0.78817 0.0169 0.2209 0.0
C86 C 0.79815 1.01008 0.28695 0.0
C87 C 0.7844 1.00644 0.34936 0.0
C88 C 0.76072 1.00976 0.34405 0.0
C89 C 0.75132 0.01655 0.27689 0.0
C90 C 0.7448 1.00673 0.40632 0.0
C91 C 0.72974 0.98845 0.406 0.0
C92 C 0.74053 0.02473 0.45405 0.0
C93 C 0.72108 0.02493 0.49809 0.0
C94 C 0.70531 1.00711 0.49543 0.0
C95 C 0.82299 1.00686 0.28492 0.0
C96 C 0.83166 0.98558 0.26657 0.0
C97 C 0.83657 0.02591 0.27283 0.0
C98 C 0.85715 0.02403 0.23572 0.0
C99 C 0.86478 1.003 0.21069 0.0
C100 C 0.85247 0.98364 0.2302 0.0
C101 C 0.71036 0.98855 0.4503 0.0
H102 H 0.75395 1.01048 0.96544 0.0
H103 H 0.77416 1.00293 0.07977 0.0
H104 H 0.73303 0.05224 0.1909 0.0
H105 H 0.71236 0.05921 0.07815 0.0
H106 H 0.79872 0.01976 0.17316 0.0
H107 H 0.73318 0.01882 0.27249 0.0
H108 H 0.79193 1.00117 0.40076 0.0
H109 H 0.73233 0.9746 0.36838 0.0
H110 H 0.75143 0.03937 0.45361 0.0
H111 H 0.71782 0.03971 0.53104 0.0
H112 H 0.8213 0.9707 0.27329 0.0
H113 H 0.83007 0.04256 0.2848 0.0
H114 H 0.69901 0.9743 0.44742 0.0
H115 H 0.85788 0.96721 0.2115 0.0
H116 H 0.86637 0.03921 0.2222 0.0
C117 C 0.51546 0.71686 0.41423 0.0
C118 C 0.52917 0.71238 0.47581 0.0
C119 C 0.5189 0.73623 0.37152 0.0
C120 C 0.53606 0.75163 0.3894 0.0
C121 C 0.54917 0.74769 0.45232 0.0
C122 C 0.54568 0.7284 0.49531 0.0
C123 C 0.54411 0.76778 0.333 0.0
C124 C 0.53486 0.78955 0.32344 0.0
C125 C 0.54218 0.80313 0.26433 0.0
C126 C 0.55879 0.79489 0.21666 0.0
C127 C 0.56638 0.77266 0.22149 0.0
C128 C 0.55971 0.7596 0.2818 0.0
C129 C 0.57561 0.76132 0.15539 0.0
C130 C 0.56554 0.76575 0.08689 0.0
C131 C 0.59008 0.74266 0.16194 0.0
C132 C 0.59126 0.72681 0.10548 0.0
C133 C 0.57783 0.72938 0.04219 0.0
C134 C 0.53038 0.82399 0.2406 0.0
C135 C 0.51936 0.82374 0.17238 0.0
C136 C 0.53455 0.84478 0.2743 0.0
C137 C 0.52907 0.86499 0.2379 0.0
C138 C 0.51984 0.8648 0.1662 0.0
C139 C 0.51442 0.84372 0.13542 0.0
C140 C 0.56667 0.74996 0.03083 0.0
H141 H 0.50242 0.7051 0.39791 0.0
H142 H 0.509 0.73853 0.32203 0.0
H143 H 0.563 0.75888 0.46587 0.0
H144 H 0.55678 0.72549 0.54164 0.0
H145 H 0.52153 0.7954 0.35927 0.0
H146 H 0.56501 0.74216 0.28575 0.0
H147 H 0.56399 0.80516 0.17043 0.0
H148 H 0.55429 0.77993 0.07907 0.0
H149 H 0.59868 0.73916 0.2132 0.0
H150 H 0.6007 0.71145 0.11474 0.0
H151 H 0.51628 0.80791 0.14465 0.0
H152 H 0.54329 0.84545 0.3265 0.0
H153 H 0.55623 0.75274 0.98285 0.0
H154 H 0.50778 0.84228 0.08038 0.0
H155 H 0.53296 0.88069 0.26506 0.0
C156 C 0.25423 0.49202 0.39179 0.0
C157 C 0.23215 0.48339 0.39535 0.0
C158 C 0.2661 0.49177 0.32568 0.0
C159 C 0.25634 0.48233 0.26234 0.0
C160 C 0.2356 0.47116 0.26842 0.0
C161 C 0.22352 0.47191 0.33367 0.0
C162 C 0.26635 0.48645 0.18902 0.0
C163 C 0.28972 0.48682 0.17996 0.0
C164 C 0.2995 0.49354 0.11353 0.0
C165 C 0.28537 0.49939 0.05349 0.0
C166 C 0.26154 0.49849 0.06144 0.0
C167 C 0.25246 0.49208 0.12941 0.0
C168 C 0.2451 0.50449 1.00215 0.0
C169 C 0.22792 0.5202 0.0173 0.0
C170 C 0.24322 0.49142 0.93819 0.0
C171 C 0.22385 0.49302 0.89328 0.0
C172 C 0.20589 0.50755 0.91188 0.0
C173 C 0.3245 0.49588 0.11423 0.0
C174 C 0.33409 0.5173 0.12404 0.0
C175 C 0.33758 0.47684 0.13186 0.0
C176 C 0.35863 0.47916 0.1662 0.0
C177 C 0.36724 0.50059 0.18291 0.0
C178 C 0.35534 0.51964 0.15775 0.0
C179 C 0.20861 0.52165 0.9731 0.0
H180 H 0.26176 0.5004 0.43851 0.0
H181 H 0.28217 0.50043 0.32327 0.0
H182 H 0.22795 0.46308 0.22129 0.0
H183 H 0.20659 0.46506 0.33282 0.0
H184 H 0.30054 0.48253 0.22601 0.0
H185 H 0.23428 0.49213 0.13632 0.0
H186 H 0.29274 0.50488 1.0022 0.0
H187 H 0.22883 0.53047 0.06626 0.0
H188 H 0.25595 0.47892 0.92567 0.0
H189 H 0.22236 0.48192 0.84648 0.0
H190 H 0.32419 0.53226 0.11274 0.0
H191 H 0.33046 0.46014 0.12614 0.0
H192 H 0.19541 0.53337 0.9883 0.0
H193 H 0.3615 0.53639 0.16986 0.0
H194 H 0.36752 0.46417 0.18391 0.0
C195 C 0.09713 0.2472 0.33011 0.0
C196 C 0.10835 0.22916 0.29632 0.0
C197 C 0.0889 0.26502 0.28788 0.0
C198 C 0.09188 0.26504 0.21142 0.0
C199 C 0.10673 0.24921 0.18042 0.0
C200 C 0.11473 0.23122 0.22251 0.0
C201 C 0.07469 0.27637 0.16469 0.0
C202 C 0.06596 0.29755 0.18314 0.0
C203 C 0.04525 0.30497 0.15385 0.0
C204 C 0.03318 0.29096 0.10507 0.0
C205 C 0.04251 0.27025 0.08294 0.0
C206 C 0.06331 0.26341 0.11211 0.0
C207 C 0.02989 0.25336 0.03931 0.0
C208 C 1.01152 0.24215 0.07128 0.0
C209 C 0.04008 0.24397 0.97685 0.0
C210 C 0.03345 0.22279 0.95107 0.0
C211 C 0.01664 0.21047 0.98777 0.0
C212 C 0.03561 0.32627 0.18206 0.0
C213 C 0.01669 0.32583 0.22832 0.0
C214 C 0.04739 0.34657 0.17258 0.0
C215 C 0.04082 0.36595 0.21048 0.0
C216 C 0.02265 0.36526 0.25992 0.0
C217 C 1.01038 0.34512 0.26741 0.0
C218 C 1.00498 0.22087 0.04586 0.0
H219 H 0.09204 0.24611 0.38702 0.0
H220 H 0.07768 0.27699 0.31383 0.0
H221 H 0.10982 0.24914 0.12189 0.0
H222 H 0.12371 0.21768 0.1955 0.0
H223 H 0.07449 0.30762 0.22433 0.0
H224 H 0.06938 0.24663 0.09942 0.0
H225 H 0.01665 0.29599 0.0853 0.0
H226 H 1.00364 0.24883 0.1202 0.0
H227 H 0.05453 0.25213 0.952 0.0
H228 H 0.04284 0.2153 0.90645 0.0
H229 H 1.00758 0.31027 0.23735 0.0
H230 H 0.06222 0.34718 0.13792 0.0
H231 H 0.99172 0.21196 0.07461 0.0
H232 H 0.99626 0.34415 0.30496 0.0
H233 H 0.05068 0.38117 0.20406 0.0
C234 C 0.28163 0.08869 0.34847 0.0
C235 C 0.29794 0.10346 0.31977 0.0
C236 C 0.26356 0.08156 0.30512 0.0
C237 C 0.26151 0.0891 0.23242 0.0
C238 C 0.27597 0.10623 0.20749 0.0
C239 C 0.29406 0.11336 0.25087 0.0
C240 C 0.2479 0.07586 0.17954 0.0
C241 C 0.22652 0.06767 0.1981 0.0
C242 C 0.21548 0.05187 0.15347 0.0
C243 C 0.22612 0.04409 0.08888 0.0
C244 C 0.2476 0.05256 0.06903 0.0
C245 C 0.25805 0.06847 0.11467 0.0
C246 C 0.26095 0.04409 1.00547 0.0
C247 C 0.26641 0.02114 0.99909 0.0
C248 C 0.27238 0.05963 0.96059 0.0
C249 C 0.29022 0.05277 0.9158 0.0
C250 C 0.2969 0.03011 0.91367 0.0
C251 C 0.19333 0.04333 0.17911 0.0
C252 C 0.19253 0.02948 0.24151 0.0
C253 C 0.17323 0.05309 0.15329 0.0
C254 C 0.15292 0.05007 0.19168 0.0
C255 C 0.15234 0.03729 0.25687 0.0
C256 C 0.17228 0.02639 0.27971 0.0
C257 C 0.28418 0.01419 0.95326 0.0
H258 H 0.28411 0.08064 0.40119 0.0
H259 H 0.25272 0.06835 0.32595 0.0
H260 H 0.27445 0.11268 0.1521 0.0
H261 H 0.30615 0.12508 0.22792 0.0
H262 H 0.21863 0.07318 0.24862 0.0
H263 H 0.27509 0.07394 0.10214 0.0
H264 H 0.21795 0.03147 0.05518 0.0
H265 H 0.25812 1.0088 0.03355 0.0
H266 H 0.26851 0.07742 0.964 0.0
H267 H 0.29942 0.06537 0.88496 0.0
H268 H 0.20793 0.02222 0.26344 0.0
H269 H 0.17352 0.06421 0.10619 0.0
H270 H 0.28893 0.99659 0.95256 0.0
H271 H 0.17264 0.01665 0.32994 0.0
H272 H 0.13786 0.05848 0.17187 0.0
C273 C 0.48332 0.29763 0.97771 0.0
C274 C 0.49953 0.31325 0.95217 0.0
C275 C 0.48969 0.27918 0.02149 0.0
C276 C 0.51246 0.27568 0.04016 0.0
C277 C 0.52877 0.29008 1.00917 0.0
C278 C 0.52243 0.30866 0.96662 0.0
C279 C 0.51929 0.25931 0.09883 0.0
C280 C 0.50965 0.23761 0.1061 0.0
C281 C 0.51662 0.22332 0.16385 0.0
C282 C 0.53367 0.23045 0.21201 0.0
C283 C 0.54256 0.25227 0.20847 0.0
C284 C 0.53504 0.26651 0.15182 0.0
C285 C 0.55798 0.26094 0.26729 0.0
C286 C 0.55689 0.25247 0.33943 0.0
C287 C 0.57266 0.27906 0.25356 0.0
C288 C 0.58358 0.29009 0.31107 0.0
C289 C 0.58109 0.2827 0.38413 0.0
C290 C 0.5057 0.20141 0.18053 0.0
C291 C 0.49516 0.19875 0.24891 0.0
C292 C 0.5103 0.18221 0.13851 0.0
C293 C 0.50598 0.16064 0.16704 0.0
C294 C 0.49724 0.15788 0.23855 0.0
C295 C 0.49103 0.17733 0.27763 0.0
C296 C 0.56874 0.26281 0.39643 0.0
H297 H 0.46555 0.30002 0.96605 0.0
H298 H 0.47665 0.26842 0.0439 0.0
H299 H 0.54655 0.28765 0.02092 0.0
H300 H 0.53557 0.32005 0.94875 0.0
H301 H 0.49671 0.23203 0.0682 0.0
H302 H 0.54064 0.28383 0.15045 0.0
H303 H 0.53948 0.21887 0.2539 0.0
H304 H 0.54598 0.23856 0.3536 0.0
H305 H 0.57504 0.28553 0.19864 0.0
H306 H 0.59281 0.30521 0.29758 0.0
H307 H 0.49173 0.21331 0.28283 0.0
H308 H 0.51869 0.1838 0.08603 0.0
H309 H 0.56716 0.25571 0.45079 0.0
H310 H 0.48456 0.17621 0.33295 0.0
H311 H 0.51053 0.14614 0.13438 0.0
Gd312 Gd 0.02143 1.00185 0.77704 0.0
Gd313 Gd 0.99021 0.02771 0.66425 0.0
C314 C 0.99403 0.9728 0.65818 0.0
C315 C 0.04488 0.98416 0.88123 0.0
C316 C 0.06088 0.96529 0.88191 0.0
C317 C 0.07065 0.95783 0.81623 0.0
C318 C 0.06486 0.95337 0.94686 0.0
C319 C 0.08653 0.92542 0.87919 0.0
C320 C 0.07763 0.93358 0.94561 0.0
C321 C 0.08341 0.93809 0.81489 0.0
C322 C 0.04006 1.01262 0.64589 0.0
C323 C 1.01133 0.05524 0.79725 0.0
C324 C 0.98119 0.05085 0.54943 0.0
C325 C 0.99401 0.07024 0.52049 0.0
C326 C 0.99805 0.08916 0.5649 0.0
C327 C 1.0054 0.0684 0.45334 0.0
C328 C 0.02668 0.10253 0.47998 0.0
C329 C 0.02156 0.08441 0.43315 0.0
C330 C 1.01413 0.10512 0.54476 0.0
C331 C 0.96567 0.01368 0.78264 0.0
O332 O 1.00441 0.97243 0.72269 0.0
O333 O 0.98887 0.9918 0.62352 0.0
O334 O 0.0514 1.00207 0.84493 0.0
O335 O 0.02381 0.97859 0.86812 0.0
O336 O 0.04421 0.99414 0.68105 0.0
O337 O 0.02695 0.02479 0.6831 0.0
O338 O 1.0051 0.05627 0.72781 0.0
O339 O 0.01545 0.03579 0.83051 0.0
O340 O 0.97066 0.05399 0.61193 0.0
O341 O 0.99186 0.03148 0.5463 0.0
O342 O 0.95698 0.02493 0.72818 0.0
O343 O 0.98616 1.01059 0.76852 0.0
H344 H 0.06773 0.9668 0.76541 0.0
H345 H 0.05731 0.95882 0.9979 0.0
H346 H 0.07938 0.92402 0.9959 0.0
H347 H 0.09014 0.9323 0.76305 0.0
H348 H 0.98958 0.09119 0.61704 0.0
H349 H 1.00275 0.0539 0.41843 0.0
H350 H 0.03092 0.08185 0.38292 0.0
H351 H 0.01707 0.11924 0.58102 0.0
Gd352 Gd 0.50317 0.02838 0.76144 0.0
Gd353 Gd 0.49557 0.99396 0.63035 0.0
C354 C 0.54678 1.01009 0.67297 0.0
C355 C 0.51068 0.04825 0.8833 0.0
C356 C 0.53325 0.0552 0.90909 0.0
C357 C 0.54627 0.07001 0.86612 0.0
C358 C 0.54407 0.04206 0.96273 0.0
C359 C 0.58049 0.0534 0.91475 0.0
C360 C 0.56759 0.04097 0.96497 0.0
C361 C 0.56979 0.06909 0.869 0.0
C362 C 0.50097 0.04596 0.62557 0.0
C363 C 0.4521 1.01116 0.7255 0.0
C364 C 0.4851 0.98314 0.49961 0.0
C365 C 0.46629 0.994 0.45932 0.0
C366 C 0.44389 0.98953 0.48059 0.0
C367 C 0.47062 1.01301 0.41533 0.0
C368 C 0.43192 0.02548 0.4311 0.0
C369 C 0.45351 0.02868 0.40135 0.0
C370 C 0.42694 1.00527 0.4673 0.0
C371 C 0.50545 0.97183 0.75729 0.0
O372 O 0.53903 0.01866 0.7352 0.0
O373 O 0.53317 1.00142 0.62223 0.0
O374 O 0.50262 0.059 0.82596 0.0
O375 O 0.50808 0.02636 0.87862 0.0
O376 O 0.51392 0.05391 0.67692 0.0
O377 O 0.48902 0.02999 0.64955 0.0
O378 O 0.45958 1.0005 0.66642 0.0
O379 O 0.46569 0.02219 0.77075 0.0
O380 O 0.47928 0.97064 0.55606 0.0
O381 O 0.50227 0.99645 0.51405 0.0
O382 O 0.50108 0.96144 0.69607 0.0
O383 O 0.50436 0.99254 0.74485 0.0
H384 H 0.53849 0.08055 0.82467 0.0
H385 H 0.53445 0.03064 0.99693 0.0
H386 H 0.57562 0.02912 1.00195 0.0
H387 H 0.57947 0.079 0.8303 0.0
H388 H 0.43979 0.97494 0.5136 0.0
H389 H 0.48764 0.01687 0.39768 0.0
H390 H 0.45764 0.04403 0.37229 0.0
H391 H 0.41019 1.00223 0.48904 0.0
Gd392 Gd 0.48167 0.51931 0.74715 0.0
Gd393 Gd 0.51992 0.50608 0.66056 0.0
C394 C 0.5109 0.55735 0.66697 0.0
C395 C 0.45613 0.54104 0.83624 0.0
C396 C 0.46222 0.56184 0.87547 0.0
C397 C 0.45125 0.58209 0.85784 0.0
C398 C 0.48205 0.5625 0.918 0.0
C399 C 0.48197 0.6033 0.9133 0.0
C400 C 0.49182 0.58299 0.93655 0.0
C401 C 0.46107 0.6027 0.87654 0.0
C402 C 0.4697 0.50734 0.60863 0.0
C403 C 0.4913 0.4672 0.74976 0.0
C404 C 0.54809 0.48702 0.57242 0.0
C405 C 0.56174 0.46653 0.57913 0.0
C406 C 0.5661 0.45715 0.64841 0.0
C407 C 0.5688 0.45521 0.51606 0.0
C408 C 0.58278 0.42418 0.59105 0.0
C409 C 0.57923 0.43419 0.52187 0.0
C410 C 0.57666 0.4362 0.65435 0.0
C411 C 0.53208 0.51803 0.79906 0.0
O412 O 0.50167 0.55152 0.72993 0.0
O413 O 0.51611 0.54158 0.61934 0.0
O414 O 0.45456 0.54323 0.76509 0.0
O415 O 0.46718 0.52289 0.85548 0.0
O416 O 0.4585 0.50191 0.66697 0.0
O417 O 0.48662 0.51913 0.62611 0.0
O418 O 0.50704 0.47178 0.70034 0.0
O419 O 0.47944 0.4834 0.78016 0.0
O420 O 0.55368 0.50353 0.61611 0.0
O421 O 0.52626 0.48372 0.56916 0.0
O422 O 0.54347 0.52302 0.74078 0.0
O423 O 0.51506 0.50637 0.78164 0.0
H424 H 0.43598 0.58201 0.82492 0.0
H425 H 0.49109 0.54724 0.93219 0.0
H426 H 0.50803 0.58277 0.96422 0.0
H427 H 0.45289 0.61811 0.85904 0.0
H428 H 0.56062 0.46565 0.69781 0.0
H429 H 0.56539 0.46217 0.46221 0.0
H430 H 0.58326 0.42527 0.47186 0.0
H431 H 0.57928 0.42907 0.7084 0.0
Gd432 Gd 0.99602 0.49763 0.78681 0.0
Gd433 Gd 1.00246 0.53085 0.65135 0.0
C434 C 0.95268 0.51388 0.68517 0.0
C435 C 0.98292 0.4844 0.91349 0.0
C436 C 0.9596 0.4866 0.94022 0.0
C437 C 0.94641 0.46718 0.94864 0.0
C438 C 0.94886 0.50768 0.93655 0.0
C439 C 0.91235 0.48931 0.92896 0.0
C440 C 0.92547 0.50901 0.93082 0.0
C441 C 0.92293 0.46853 0.94317 0.0
C442 C 1.00151 0.47418 0.65964 0.0
C443 C 0.04665 0.50937 0.742 0.0
C444 C 0.01818 0.54997 0.5362 0.0
C445 C 0.03991 0.5446 0.50182 0.0
C446 C 0.05547 0.56173 0.48691 0.0
C447 C 0.04721 0.52218 0.50159 0.0
C448 C 0.08617 0.53428 0.48839 0.0
C449 C 0.06996 0.51706 0.49487 0.0
C450 C 0.07843 0.5566 0.47932 0.0
C451 C 0.9909 0.54976 0.78088 0.0
O452 O 0.9603 0.50785 0.75117 0.0
O453 O 0.96641 0.52071 0.63245 0.0
O454 O 0.98517 0.47057 0.85814 0.0
O455 O 0.99403 0.50322 0.90401 0.0
O456 O 0.99994 0.46465 0.72355 0.0
O457 O 1.0009 0.49507 0.66942 0.0
O458 O 0.03826 0.51898 0.68155 0.0
O459 O 0.03361 0.50096 0.79419 0.0
O460 O 0.02014 0.55883 0.60165 0.0
O461 O 1.00271 0.53418 0.533 0.0
O462 O 0.98409 0.55744 0.71779 0.0
O463 O 1.00414 0.53347 0.771 0.0
H464 H 0.95431 0.45076 0.95223 0.0
H465 H 0.95849 0.52306 0.93041 0.0
H466 H 0.91807 0.52539 0.92095 0.0
H467 H 0.91323 0.45311 0.94572 0.0
H468 H 0.05017 0.57919 0.48671 0.0
H469 H 0.03573 0.50858 0.51403 0.0
H470 H 0.07463 0.49964 0.5024 0.0
H471 H 0.09007 0.57033 0.47021 0.0
H472 H 0.1347 1.00182 0.3367 0.0
H473 H 0.12387 0.07253 0.28792 0.0
H474 H 0.09234 0.07342 0.37614 0.0
H475 H 0.07496 0.98707 0.36325 0.0
H476 H 0.08114 0.96788 0.43727 0.0
H477 H 0.1016 0.97236 0.36571 0.0
H478 H 0.13157 0.9833 0.46312 0.0
H479 H 0.11121 0.97891 0.53485 0.0
H480 H 0.12546 1.0056 0.52699 0.0
H481 H 0.06447 0.06752 0.47952 0.0
H482 H 0.04046 0.05454 0.58248 0.0
H483 H 0.06952 0.98781 0.56381 0.0
C484 C 0.12559 0.01746 0.34399 0.0
C485 C 0.13181 0.03707 0.3047 0.0
C486 C 0.11928 0.05714 0.31603 0.0
C487 C 0.1014 0.05787 0.36658 0.0
C488 C 0.09605 0.03836 0.40533 0.0
C489 C 0.10764 0.01846 0.39406 0.0
C490 C 0.09903 1.00004 0.44443 0.0
C491 C 0.08856 0.9807 0.4 0.0
C492 C 0.11794 0.99147 0.49536 0.0
C493 C 0.08114 1.01279 0.48688 0.0
C494 C 0.07961 0.03485 0.46342 0.0
C495 C 0.06504 0.05014 0.49701 0.0
C496 C 0.05154 0.04264 0.55557 0.0
C497 C 0.05294 0.02012 0.5806 0.0
C498 C 0.06788 1.00506 0.54533 0.0
H499 H 0.46734 0.14156 0.34326 0.0
H500 H 0.52784 0.12335 0.22261 0.0
H501 H 0.5315 0.08909 0.29722 0.0
H502 H 0.48854 0.1274 0.51415 0.0
H503 H 0.46232 0.11685 0.55069 0.0
H504 H 0.46196 0.13768 0.47913 0.0
H505 H 0.43691 0.11166 0.40121 0.0
H506 H 0.43772 0.0899 0.47012 0.0
H507 H 0.4467 0.08396 0.37766 0.0
H508 H 0.53275 0.06048 0.39785 0.0
H509 H 0.53067 0.03949 0.51501 0.0
H510 H 0.46968 0.07557 0.57205 0.0
C511 C 0.48119 0.13024 0.33147 0.0
C512 C 0.49719 0.13536 0.27604 0.0
C513 C 0.51495 0.11982 0.263 0.0
C514 C 0.5173 0.10026 0.30568 0.0
C515 C 0.50173 0.09623 0.36137 0.0
C516 C 0.48392 0.11072 0.37409 0.0
C517 C 0.47083 0.10371 0.44192 0.0
C518 C 0.47094 0.12253 0.49988 0.0
C519 C 0.44659 0.09689 0.42157 0.0
C520 C 0.48462 0.08354 0.46703 0.0
C521 C 0.50223 0.07936 0.41919 0.0
C522 C 0.51869 0.06319 0.43462 0.0
C523 C 0.51741 0.05135 0.50116 0.0
C524 C 0.49972 0.05556 0.5511 0.0
C525 C 0.48292 0.07156 0.5333 0.0
H526 H 0.37363 0.4793 0.3144 0.0
H527 H 0.40458 0.52801 0.1689 0.0
H528 H 0.43581 0.53321 0.25834 0.0
H529 H 0.38522 0.50871 0.47834 0.0
H530 H 0.39025 0.48379 0.53248 0.0
H531 H 0.37168 0.48256 0.4543 0.0
H532 H 0.39564 0.4502 0.3996 0.0
H533 H 0.41429 0.45133 0.47772 0.0
H534 H 0.42554 0.45417 0.38643 0.0
H535 H 0.46335 0.53358 0.36698 0.0
H536 H 0.48293 0.53118 0.48697 0.0
H537 H 0.43276 0.48341 0.56262 0.0
C538 C 0.38723 0.49072 0.30058 0.0
C539 C 0.38687 0.50298 0.23397 0.0
C540 C 0.4046 0.51833 0.21925 0.0
C541 C 0.42242 0.52132 0.26968 0.0
C542 C 0.42218 0.50902 0.33504 0.0
C543 C 0.40492 0.49412 0.35065 0.0
C544 C 0.40768 0.48404 0.42661 0.0
C545 C 0.38751 0.49015 0.47582 0.0
C546 C 0.41099 0.45841 0.4223 0.0
C547 C 0.4291 0.49569 0.45185 0.0
C548 C 0.43742 0.50982 0.39799 0.0
C549 C 0.45695 0.52253 0.40932 0.0
C550 C 0.46801 0.52102 0.47763 0.0
C551 C 0.45937 0.50713 0.53422 0.0
C552 C 0.4398 0.49415 0.52046 0.0
H553 H 0.0181 0.36559 0.40895 0.0
H554 H 0.01698 0.40936 0.21869 0.0
H555 H 1.01076 0.4423 0.29958 0.0
H556 H 0.9757 0.39478 0.5158 0.0
H557 H 0.99034 0.39035 0.60139 0.0
H558 H 0.99344 0.37038 0.52789 0.0
H559 H 0.03693 0.37532 0.53328 0.0
H560 H 0.03394 0.39538 0.6065 0.0
H561 H 0.0489 0.40307 0.52423 0.0
H562 H 1.00414 0.47048 0.40311 0.0
H563 H 0.99959 0.49131 0.5198 0.0
H564 H 1.00782 0.42919 0.6412 0.0
C565 C 0.01618 0.38207 0.38427 0.0
C566 C 0.01772 0.38494 0.30753 0.0
C567 C 0.01575 0.40683 0.27737 0.0
C568 C 1.01219 0.42559 0.32286 0.0
C569 C 1.01092 0.4222 0.39848 0.0
C570 C 1.01299 0.40097 0.42889 0.0
C571 C 1.01204 0.40187 0.5118 0.0
C572 C 0.99167 0.38856 0.54091 0.0
C573 C 0.03428 0.39341 0.54594 0.0
C574 C 1.00904 0.42691 0.5235 0.0
C575 C 1.00825 0.43839 0.45758 0.0
C576 C 1.00506 0.46166 0.45497 0.0
C577 C 1.00273 0.47343 0.52142 0.0
C578 C 1.00405 0.46202 0.58937 0.0
C579 C 1.00708 0.43844 0.59005 0.0
H580 H 0.86934 0.02747 0.08488 0.0
H581 H 0.90197 0.97499 0.21192 0.0
H582 H 0.93202 0.97218 0.11751 0.0
H583 H 0.87926 1.00265 0.91016 0.0
H584 H 0.88358 0.02913 0.86396 0.0
H585 H 0.86568 0.02779 0.94351 0.0
H586 H 0.88976 0.05858 1.00685 0.0
H587 H 0.90768 0.0601 0.92733 0.0
H588 H 0.91982 0.05459 0.01629 0.0
H589 H 0.95896 0.97583 1.00744 0.0
H590 H 0.9786 0.98388 0.89018 0.0
H591 H 0.9266 0.03222 0.83351 0.0
C592 C 0.88301 0.01563 0.09346 0.0
C593 C 0.88355 1.0017 0.15642 0.0
C594 C 0.90134 0.98593 0.16442 0.0
C595 C 0.91847 0.98427 0.1111 0.0
C596 C 0.91737 0.99825 0.0495 0.0
C597 C 0.89995 0.0135 0.04036 0.0
C598 C 0.90191 0.02588 0.96795 0.0
C599 C 0.88139 0.02106 0.91849 0.0
C600 C 0.90498 0.05129 0.98038 0.0
C601 C 0.9232 0.01531 0.9375 0.0
C602 C 0.93207 0.99956 0.98551 0.0
C603 C 0.95204 0.98804 0.96948 0.0
C604 C 0.96312 0.99272 0.90286 0.0
C605 C 0.95406 1.00854 0.85268 0.0
C606 C 0.93381 0.01986 0.87047 0.0
H607 H 0.49049 0.87373 0.04997 0.0
H608 H 0.54501 0.90419 0.1756 0.0
H609 H 0.54453 0.93668 0.0921 0.0
H610 H 0.51437 0.88661 0.87942 0.0
H611 H 0.4877 0.89118 0.83383 0.0
H612 H 0.48933 0.87233 0.91093 0.0
H613 H 0.45814 0.89508 0.97732 0.0
H614 H 0.45636 0.91401 0.90022 0.0
H615 H 0.46175 0.92492 0.99075 0.0
H616 H 0.53954 0.9655 0.98839 0.0
H617 H 0.53252 0.98558 0.87094 0.0
H618 H 0.48568 0.93329 0.80572 0.0
C619 C 0.50247 0.88705 0.06069 0.0
C620 C 0.51776 0.88595 0.12072 0.0
C621 C 0.53263 0.90444 0.13192 0.0
C622 C 0.53266 0.92305 0.08406 0.0
C623 C 0.51796 0.92302 0.02421 0.0
C624 C 0.50326 0.90536 0.01225 0.0
C625 C 0.49078 0.9081 0.9401 0.0
C626 C 0.49586 0.88839 0.88801 0.0
C627 C 0.46524 0.91068 0.95289 0.0
C628 C 0.50106 0.92984 0.91248 0.0
C629 C 0.51628 0.93857 0.96252 0.0
C630 C 0.52767 0.95875 0.94894 0.0
C631 C 0.52356 0.97008 0.8823 0.0
C632 C 0.50867 0.96088 0.82946 0.0
C633 C 0.49728 0.94058 0.84508 0.0
H634 H 0.63003 0.54144 0.09033 0.0
H635 H 0.59187 0.50239 0.24837 0.0
H636 H 0.56036 0.49939 0.15939 0.0
H637 H 0.58145 0.57193 1.00942 0.0
H638 H 0.59326 0.57084 0.91851 0.0
H639 H 0.61167 0.57172 0.99734 0.0
H640 H 0.63144 0.53527 0.95322 0.0
H641 H 0.61306 0.53421 0.87462 0.0
H642 H 0.61474 0.51046 0.93597 0.0
H643 H 0.53372 0.49875 0.04848 0.0
H644 H 0.51536 0.49962 0.92618 0.0
H645 H 0.5713 0.53878 0.84143 0.0
C646 C 0.61481 0.53279 0.10726 0.0
C647 C 0.61343 0.52237 0.17707 0.0
C648 C 0.59342 0.51054 0.19549 0.0
C649 C 0.57536 0.50884 0.14531 0.0
C650 C 0.57747 0.51903 0.07662 0.0
C651 C 0.59671 0.53085 0.05778 0.0
C652 C 0.59547 0.53906 0.97904 0.0
C653 C 0.59546 0.56493 0.97592 0.0
C654 C 0.61482 0.52915 0.93303 0.0
C655 C 0.57278 0.5296 0.95576 0.0
C656 C 0.56247 0.51834 0.01299 0.0
C657 C 0.54164 0.50765 1.00359 0.0
C658 C 0.53131 0.50823 0.9339 0.0
C659 C 0.54189 0.51922 0.87417 0.0
C660 C 0.56274 0.53028 0.88597 0.0
H661 H 0.96031 0.65475 0.03303 0.0
H662 H 1.00891 0.62841 0.19007 0.0
H663 H 1.0117 0.59352 0.11844 0.0
H664 H 0.93349 0.59975 0.98397 0.0
H665 H 0.93088 0.60759 0.88883 0.0
H666 H 0.92948 0.62885 0.95911 0.0
H667 H 0.96199 0.65062 0.89598 0.0
H668 H 0.96361 0.6294 0.82598 0.0
H669 H 0.9884 0.63646 0.87874 0.0
H670 H 1.01391 0.56411 0.02113 0.0
H671 H 1.01431 0.54185 0.90728 0.0
H672 H 0.96462 0.58677 0.81118 0.0
C673 C 0.97125 0.64152 0.05325 0.0
C674 C 0.98426 0.64448 0.11796 0.0
C675 C 0.99832 0.62657 0.142 0.0
C676 C 1.00016 0.60665 0.10124 0.0
C677 C 0.98778 0.60469 0.0365 0.0
C678 C 0.9734 0.62154 0.01292 0.0
C679 C 0.96354 0.61605 0.9381 0.0
C680 C 0.93782 0.61287 0.94281 0.0
C681 C 0.96977 0.63421 0.88138 0.0
C682 C 0.97533 0.59394 0.92201 0.0
C683 C 0.98898 0.58755 0.98004 0.0
C684 C 1.00284 0.56863 0.97615 0.0
C685 C 1.00286 0.55599 0.91126 0.0
C686 C 0.98907 0.56222 0.85097 0.0
C687 C 0.975 0.58136 0.85687 0.0
H688 H 0.09062 0.19169 0.23619 0.0
H689 H 0.12068 0.21699 0.4365 0.0
H690 H 0.10787 0.18284 0.50216 0.0
H691 H 0.04246 0.17585 0.31056 0.0
H692 H 0.03755 0.15089 0.25677 0.0
H693 H 0.05454 0.17323 0.22029 0.0
H694 H 0.08791 0.14573 0.20006 0.0
H695 H 0.07079 0.12304 0.23495 0.0
H696 H 0.098 0.12876 0.27535 0.0
H697 H 0.08589 0.15004 0.54984 0.0
H698 H 0.05696 0.12139 0.57623 0.0
H699 H 0.03894 0.11944 0.34542 0.0
C700 C 0.09569 0.18941 0.29283 0.0
C701 C 0.10714 0.20666 0.33099 0.0
C702 C 0.11234 0.20372 0.40613 0.0
C703 C 0.10511 0.18439 0.4437 0.0
C704 C 0.0927 0.16826 0.40523 0.0
C705 C 0.08824 0.17048 0.33111 0.0
C706 C 0.07152 0.15293 0.3049 0.0
C707 C 0.05028 0.16389 0.27123 0.0
C708 C 0.08274 0.13665 0.25061 0.0
C709 C 0.06626 0.14129 0.37657 0.0
C710 C 0.07909 0.14994 0.4334 0.0
C711 C 0.076 0.14294 0.50557 0.0
C712 C 0.05927 0.12688 0.52011 0.0
C713 C 0.04546 0.11829 0.46296 0.0
C714 C 0.0494 0.12536 0.39017 0.0
H715 H 0.33769 0.09857 0.24833 0.0
H716 H 0.30946 0.10668 0.46569 0.0
H717 H 0.34552 0.09398 0.51984 0.0
H718 H 0.36027 0.05015 0.27343 0.0
H719 H 0.38602 0.05346 0.222 0.0
H720 H 0.36188 0.07035 0.19969 0.0
H721 H 0.38501 0.10687 0.21813 0.0
H722 H 0.40965 0.09009 0.23862 0.0
H723 H 0.40029 0.1112 0.30258 0.0
H724 H 0.37932 0.07113 0.54792 0.0
H725 H 0.40974 0.0427 0.54849 0.0
H726 H 0.41616 0.04902 0.31279 0.0
C727 C 0.33955 0.0991 0.30736 0.0
C728 C 0.32084 0.10377 0.35286 0.0
C729 C 0.32362 0.10326 0.42992 0.0
C730 C 0.34409 0.09614 0.46108 0.0
C731 C 0.36165 0.08993 0.41441 0.0
C732 C 0.3598 0.0919 0.33904 0.0
C733 C 0.37947 0.08067 0.30052 0.0
C734 C 0.37141 0.06259 0.24579 0.0
C735 C 0.3945 0.09826 0.26273 0.0
C736 C 0.39149 0.07029 0.36542 0.0
C737 C 0.38137 0.0764 0.43079 0.0
C738 C 0.38779 0.06679 0.49737 0.0
C739 C 0.40485 0.05048 0.49706 0.0
C740 C 0.41514 0.04382 0.43055 0.0
C741 C 0.40871 0.05417 0.36428 0.0
H742 H 0.6151 0.31496 0.38773 0.0
H743 H 0.56284 0.28488 0.52358 0.0
H744 H 0.56807 0.31443 0.6137 0.0
H745 H 0.64772 0.34609 0.54094 0.0
H746 H 0.6509 0.37027 0.48208 0.0
H747 H 0.65093 0.34233 0.44345 0.0
H748 H 0.6184 0.35384 0.35573 0.0
H749 H 0.61821 0.38157 0.39407 0.0
H750 H 0.59265 0.36508 0.39364 0.0
H751 H 0.56978 0.35124 0.67069 0.0
H752 H 0.56613 0.39209 0.68336 0.0
H753 H 0.6141 0.4018 0.50697 0.0
C754 C 0.605 0.31418 0.43692 0.0
C755 C 0.58842 0.29727 0.44691 0.0
C756 C 0.5761 0.29698 0.51369 0.0
C757 C 0.57889 0.31395 0.56597 0.0
C758 C 0.59388 0.33138 0.55109 0.0
C759 C 0.60685 0.3316 0.48816 0.0
C760 C 0.61757 0.35449 0.47628 0.0
C761 C 0.64331 0.35321 0.48632 0.0
C762 C 0.6113 0.36431 0.40052 0.0
C763 C 0.60675 0.36762 0.53809 0.0
C764 C 0.5941 0.35368 0.58279 0.0
C765 C 0.58014 0.36223 0.63748 0.0
C766 C 0.57817 0.38558 0.64436 0.0
C767 C 0.58976 0.4002 0.596 0.0
C768 C 0.60506 0.39102 0.54473 0.0
H769 H 0.19558 0.46016 0.44868 0.0
H770 H 0.23237 0.52279 0.47513 0.0
H771 H 0.1994 0.53972 0.5332 0.0
H772 H 0.15427 0.48391 0.36734 0.0
H773 H 0.13115 0.46714 0.40114 0.0
H774 H 0.15902 0.45553 0.39899 0.0
H775 H 0.15745 0.44706 0.53849 0.0
H776 H 0.12908 0.45815 0.54078 0.0
H777 H 0.15032 0.46924 0.60172 0.0
H778 H 0.16045 0.55352 0.55438 0.0
H779 H 0.1203 0.56245 0.53851 0.0
H780 H 0.10841 0.49396 0.46338 0.0
C781 C 0.19698 0.4772 0.46892 0.0
C782 C 0.21652 0.49014 0.4554 0.0
C783 C 0.21782 0.51221 0.48481 0.0
C784 C 0.19896 0.52213 0.51786 0.0
C785 C 0.17892 0.50992 0.52051 0.0
C786 C 0.17787 0.48774 0.49747 0.0
C787 C 0.15367 0.48016 0.48723 0.0
C788 C 0.1493 0.4712 0.40907 0.0
C789 C 0.14726 0.46261 0.54555 0.0
C790 C 0.14152 0.5021 0.50062 0.0
C791 C 0.15613 0.51866 0.5241 0.0
C792 C 0.14881 0.54057 0.53669 0.0
C793 C 0.12592 0.54561 0.52551 0.0
C794 C 0.1107 0.52907 0.49851 0.0
C795 C 0.11896 0.50706 0.48587 0.0
H796 H 0.12171 0.81738 0.08451 0.0
H797 H 0.07927 0.78441 0.92152 0.0
H798 H 0.08573 0.81526 0.83777 0.0
H799 H 0.09453 0.86456 0.07351 0.0
H800 H 0.11775 0.88375 0.08692 0.0
H801 H 0.1196 0.85565 0.1219 0.0
H802 H 0.15656 0.84914 0.04913 0.0
H803 H 0.15491 0.8775 0.01413 0.0
H804 H 0.15705 0.85413 0.95164 0.0
H805 H 0.08546 0.85286 0.78663 0.0
H806 H 0.07751 0.89327 0.7769 0.0
H807 H 0.11575 0.90524 0.97608 0.0
C808 C 0.11396 0.81623 0.03102 0.0
C809 C 0.09952 0.79812 0.01199 0.0
C810 C 0.09069 0.79745 0.93938 0.0
C811 C 0.09422 0.81521 0.89038 0.0
C812 C 0.10641 0.83383 0.91416 0.0
C813 C 0.11634 0.83443 0.98281 0.0
C814 C 0.12371 0.85813 1.0023 0.0
C815 C 0.11325 0.86596 0.07538 0.0
C816 C 0.1496 0.85982 1.00439 0.0
C817 C 0.11415 0.871 0.93753 0.0
C818 C 0.10536 0.85652 0.88546 0.0
C819 C 0.09292 0.86437 0.8257 0.0
C820 C 0.08849 0.88744 0.82059 0.0
C821 C 0.09612 0.9024 0.87567 0.0
C822 C 0.10991 0.89414 0.933 0.0
H823 H 0.7099 0.07162 0.95249 0.0
H824 H 0.71509 0.99903 0.93947 0.0
H825 H 0.67808 0.99733 0.87996 0.0
H826 H 0.66158 0.07397 0.01901 0.0
H827 H 0.64922 0.09764 0.97171 0.0
H828 H 0.67929 0.09553 0.9797 0.0
H829 H 0.68399 0.0975 0.83889 0.0
H830 H 0.65379 0.10062 0.82992 0.0
H831 H 0.66823 0.07856 0.78105 0.0
H832 H 0.63749 1.00123 0.87357 0.0
H833 H 0.59769 1.01168 0.8927 0.0
H834 H 0.61672 0.08188 0.90908 0.0
C835 C 0.7037 0.05557 0.93305 0.0
C836 C 0.71518 0.0355 0.95122 0.0
C837 C 0.70674 0.01468 0.92556 0.0
C838 C 0.68556 0.01354 0.89186 0.0
C839 C 0.67331 0.03338 0.88316 0.0
C840 C 0.68238 0.05421 0.90019 0.0
C841 C 0.66437 0.07237 0.899 0.0
C842 C 0.66358 0.08561 0.97168 0.0
C843 C 0.6678 0.08819 0.83328 0.0
C844 C 0.64351 0.05806 0.88863 0.0
C845 C 0.6491 0.03572 0.87749 0.0
C846 C 0.63287 0.01876 0.87917 0.0
C847 C 0.61039 0.02479 0.89153 0.0
C848 C 0.60435 0.04757 0.90232 0.0
C849 C 0.62102 0.06442 0.89946 0.0
H850 H 0.56875 0.68767 0.0966 0.0
H851 H 0.56777 0.72634 0.89437 0.0
H852 H 0.54271 0.69784 0.83855 0.0
H853 H 0.56645 0.63054 1.00714 0.0
H854 H 0.54914 0.6199 0.08056 0.0
H855 H 0.56986 0.64139 0.09877 0.0
H856 H 0.53833 0.66617 0.15516 0.0
H857 H 0.51733 0.64527 0.13438 0.0
H858 H 0.51407 0.67356 0.10021 0.0
H859 H 0.51221 0.66915 0.81446 0.0
H860 H 0.48598 0.63692 0.81104 0.0
H861 H 0.50774 0.61742 0.02961 0.0
C862 C 0.56436 0.68971 0.03933 0.0
C863 C 0.57017 0.7094 1.00012 0.0
C864 C 0.56335 0.71151 0.92581 0.0
C865 C 0.54906 0.69546 0.89372 0.0
C866 C 0.54223 0.67721 0.93622 0.0
C867 C 0.55031 0.67383 1.00649 0.0
C868 C 0.53954 0.65352 0.04217 0.0
C869 C 0.5573 0.63526 0.05806 0.0
C870 C 0.52655 0.66004 0.11208 0.0
C871 C 0.5236 0.64641 0.98183 0.0
C872 C 0.52527 0.66032 0.92134 0.0
C873 C 0.51123 0.65776 0.86061 0.0
C874 C 0.49606 0.63964 0.85985 0.0
C875 C 0.495 0.62447 0.91978 0.0
C876 C 0.50853 0.6284 0.98225 0.0
H877 H 0.78876 0.53098 0.96949 0.0
H878 H 0.76946 0.46581 0.88538 0.0
H879 H 0.80689 0.46181 0.82783 0.0
H880 H 0.83627 0.54501 0.82261 0.0
H881 H 0.85303 0.55681 0.89565 0.0
H882 H 0.82272 0.56003 0.89617 0.0
H883 H 0.82183 0.54278 0.02646 0.0
H884 H 0.85172 0.53868 0.02571 0.0
H885 H 0.83331 0.51499 0.04117 0.0
H886 H 0.84813 0.45918 0.81609 0.0
H887 H 0.88855 0.45839 0.84734 0.0
H888 H 0.88158 0.52272 0.95751 0.0
C889 C 0.79193 0.51669 0.9342 0.0
C890 C 0.77633 0.49886 0.93066 0.0
C891 C 0.78118 0.47979 0.88734 0.0
C892 C 0.80243 0.47743 0.85459 0.0
C893 C 0.81853 0.49422 0.86634 0.0
C894 C 0.81336 0.51379 0.90414 0.0
C895 C 0.83452 0.52639 0.92648 0.0
C896 C 0.83676 0.54836 0.88258 0.0
C897 C 0.83537 0.53092 0.00982 0.0
C898 C 0.85223 0.5096 0.90341 0.0
C899 C 0.84286 0.49183 0.86522 0.0
C900 C 0.85569 0.47324 0.84471 0.0
C901 C 0.87856 0.47271 0.86434 0.0
C902 C 0.88826 0.49033 0.90627 0.0
C903 C 0.87488 0.50914 0.92459 0.0
H904 H 1.01444 0.189 0.85322 0.0
H905 H 1.01306 0.17642 0.08769 0.0
H906 H 1.01176 0.13559 0.06461 0.0
H907 H 0.97641 0.1432 0.80212 0.0
H908 H 0.99168 0.1366 0.71947 0.0
H909 H 0.99171 0.16495 0.75435 0.0
H910 H 0.03548 0.16458 0.7562 0.0
H911 H 0.03549 0.13618 0.72187 0.0
H912 H 0.0501 0.14274 0.806 0.0
H913 H 1.01273 0.09595 0.01668 0.0
H914 H 1.01273 0.06039 0.94661 0.0
H915 H 1.01281 0.09845 0.74318 0.0
C916 C 1.01366 0.17765 0.89963 0.0
C917 C 1.0136 0.18601 0.97233 0.0
C918 C 1.01262 0.17054 0.03153 0.0
C919 C 1.0121 0.14726 0.01901 0.0
C920 C 1.01245 0.13959 0.94689 0.0
C921 C 1.01295 0.15429 0.88809 0.0
C922 C 1.0132 0.14156 0.81597 0.0
C923 C 0.99198 0.1469 0.7703 0.0
C924 C 0.03486 0.14657 0.77247 0.0
C925 C 1.01292 0.11747 0.84357 0.0
C926 C 1.01264 0.1167 0.91925 0.0
C927 C 1.0128 0.09634 0.95735 0.0
C928 C 1.01292 0.07621 0.91707 0.0
C929 C 1.0127 0.07656 0.83941 0.0
C930 C 1.01283 0.09755 0.8025 0.0
H931 H 0.33847 0.04976 0.92695 0.0
H932 H 0.30351 0.99568 0.81502 0.0
H933 H 0.3391 0.98547 0.7514 0.0
H934 H 0.37528 0.06615 0.77872 0.0
H935 H 0.39904 0.07155 0.83812 0.0
H936 H 0.3707 0.07492 0.8721 0.0
H937 H 0.37945 0.04722 0.97833 0.0
H938 H 0.40781 0.04379 0.94469 0.0
H939 H 0.39002 0.0195 0.95753 0.0
H940 H 0.37891 0.98201 0.69767 0.0
H941 H 0.41958 0.98336 0.66709 0.0
H942 H 0.42855 0.03853 0.82009 0.0
C943 C 0.33825 0.03589 0.88849 0.0
C944 C 0.31815 0.02366 0.87517 0.0
C945 C 0.31869 1.00529 0.82584 0.0
C946 C 0.33881 0.99945 0.78932 0.0
C947 C 0.35832 1.01195 0.80351 0.0
C948 C 0.35821 0.02965 0.8526 0.0
C949 C 0.38155 0.03984 0.8608 0.0
C950 C 0.38164 0.06458 0.83593 0.0
C951 C 0.39021 0.03743 0.94003 0.0
C952 C 0.39491 0.02518 0.80859 0.0
C953 C 0.3812 1.00935 0.77534 0.0
C954 C 0.38977 0.99425 0.72387 0.0
C955 C 0.41293 0.99518 0.70671 0.0
C956 C 0.42741 1.01091 0.74155 0.0
C957 C 0.41809 0.02614 0.79289 0.0
H958 H 0.52254 0.33904 0.84783 0.0
H959 H 0.46123 0.33819 0.97878 0.0
H960 H 0.45124 0.37552 0.93132 0.0
H961 H 0.53576 0.39527 0.88436 0.0
H962 H 0.54655 0.4024 0.79516 0.0
H963 H 0.54835 0.37382 0.82775 0.0
H964 H 0.52709 0.35915 0.71506 0.0
H965 H 0.52488 0.38727 0.67837 0.0
H966 H 0.49982 0.37063 0.69155 0.0
H967 H 0.44912 0.41418 0.87944 0.0
H968 H 0.45512 0.4518 0.82684 0.0
H969 H 0.51852 0.42938 0.73231 0.0
C970 C 0.50691 0.34652 0.86643 0.0
C971 C 0.49261 0.33514 0.91695 0.0
C972 C 0.47229 0.34588 0.93883 0.0
C973 C 0.4665 0.36733 0.91256 0.0
C974 C 0.48115 0.37812 0.86436 0.0
C975 C 0.50094 0.36812 0.84127 0.0
C976 C 0.5144 0.38415 0.79296 0.0
C977 C 0.53764 0.38919 0.82707 0.0
C978 C 0.5167 0.37473 0.71487 0.0
C979 C 0.49929 0.40484 0.79393 0.0
C980 C 0.4801 0.40082 0.83495 0.0
C981 C 0.46398 0.41747 0.84671 0.0
C982 C 0.46761 0.43887 0.81662 0.0
C983 C 0.48728 0.44368 0.77514 0.0
C984 C 0.50318 0.42624 0.76293 0.0
H985 H 0.16296 0.50713 0.96916 0.0
H986 H 0.1988 0.50689 0.76207 0.0
H987 H 0.16218 0.50689 0.69564 0.0
H988 H 0.11786 0.4701 0.91259 0.0
H989 H 0.09662 0.48468 0.96491 0.0
H990 H 0.12559 0.48478 0.99537 0.0
H991 H 0.12539 0.52836 0.99668 0.0
H992 H 0.09642 0.52841 0.96629 0.0
H993 H 0.11751 0.5435 0.91479 0.0
H994 H 0.12097 0.50849 0.6524 0.0
H995 H 0.07945 0.50952 0.63618 0.0
H996 H 0.07073 0.50714 0.87156 0.0
C997 C 0.16316 0.50723 0.90979 0.0
C998 C 0.18388 0.50722 0.87092 0.0
C999 C 0.18324 0.50686 0.79318 0.0
C1000 C 0.16249 0.50694 0.75499 0.0
C1001 C 0.14241 0.5071 0.79521 0.0
C1002 C 0.14263 0.50704 0.87097 0.0
C1003 C 0.11878 0.50684 0.90151 0.0
C1004 C 0.11446 0.48532 0.94623 0.0
C1005 C 0.11427 0.52804 0.94753 0.0
C1006 C 0.105 0.50701 0.83125 0.0
C1007 C 0.11892 0.5073 0.77047 0.0
C1008 C 0.10999 0.50818 0.69966 0.0
C1009 C 0.08635 0.50884 0.69085 0.0
C1010 C 0.07171 0.50832 0.75214 0.0
C1011 C 0.08134 0.50727 0.82329 0.0
H1012 H 1.00637 0.84134 0.56891 0.0
H1013 H 0.9634 0.85324 0.3792 0.0
H1014 H 0.95741 0.89222 0.41967 0.0
H1015 H 0.97587 0.8779 0.69773 0.0
H1016 H 1.00145 0.88781 0.74069 0.0
H1017 H 1.00044 0.85999 0.7016 0.0
H1018 H 0.03519 0.86942 0.62124 0.0
H1019 H 0.03625 0.89724 0.65995 0.0
H1020 H 0.03433 0.89371 0.56198 0.0
H1021 H 0.95872 0.93093 0.47365 0.0
H1022 H 0.9665 0.96632 0.53925 0.0
H1023 H 1.00934 0.93009 0.69295 0.0
C1024 C 0.99554 0.85202 0.53598 0.0
C1025 C 0.98523 0.84387 0.47085 0.0
C1026 C 0.9711 0.85863 0.4301 0.0
C1027 C 0.96773 0.88098 0.45234 0.0
C1028 C 0.97855 0.88852 0.51562 0.0
C1029 C 0.99208 0.87448 0.55716 0.0
C1030 C 1.00271 0.88718 0.62076 0.0
C1031 C 0.99462 0.87765 0.69457 0.0
C1032 C 0.02866 0.88687 0.61563 0.0
C1033 C 0.99337 0.91064 0.60753 0.0
C1034 C 0.97936 0.91097 0.5468 0.0
C1035 C 0.96947 0.93083 0.52172 0.0
C1036 C 0.97407 0.9509 0.55936 0.0
C1037 C 0.98846 0.95109 0.62164 0.0
C1038 C 0.99804 0.93055 0.64617 0.0
H1039 H 0.66304 0.99147 0.45273 0.0
H1040 H 0.69715 0.02604 0.63115 0.0
H1041 H 0.66068 0.03048 0.6946 0.0
H1042 H 0.61254 0.02412 0.45276 0.0
H1043 H 0.59403 1.00069 0.43454 0.0
H1044 H 0.62282 1.00004 0.4029 0.0
H1045 H 0.62938 0.96243 0.47161 0.0
H1046 H 0.60057 0.96291 0.50321 0.0
H1047 H 0.62342 0.96072 0.56835 0.0
H1048 H 0.62006 0.03313 0.73526 0.0
H1049 H 0.57914 0.03029 0.75802 0.0
H1050 H 0.57112 0.99264 0.55574 0.0
C1051 C 0.66303 0.99967 0.50567 0.0
C1052 C 0.68327 1.00851 0.53629 0.0
C1053 C 0.68206 0.01945 0.60536 0.0
C1054 C 0.66135 0.02197 0.64219 0.0
C1055 C 0.64182 0.01333 0.60986 0.0
C1056 C 0.64249 1.00219 0.54353 0.0
C1057 C 0.619 0.99438 0.52099 0.0
C1058 C 0.61167 1.00547 0.4485 0.0
C1059 C 0.61804 0.96857 0.51575 0.0
C1060 C 0.60498 1.00294 0.58487 0.0
C1061 C 0.6185 0.01393 0.63523 0.0
C1062 C 0.60941 0.02398 0.69745 0.0
C1063 C 0.58604 0.02235 0.70962 0.0
C1064 C 0.57171 1.01095 0.65939 0.0
C1065 C 0.58148 1.00123 0.59588 0.0
H1066 H 0.52156 0.66942 0.42198 0.0
H1067 H 0.53209 0.70609 0.62495 0.0
H1068 H 0.53011 0.67046 0.6941 0.0
H1069 H 0.48133 0.62944 0.49332 0.0
H1070 H 0.49198 0.60621 0.44012 0.0
H1071 H 0.49465 0.63455 0.40608 0.0
H1072 H 0.53786 0.62906 0.39352 0.0
H1073 H 0.53534 0.60073 0.42782 0.0
H1074 H 0.55414 0.62031 0.47224 0.0
H1075 H 0.52626 0.63091 0.74196 0.0
H1076 H 0.51939 0.59058 0.76615 0.0
H1077 H 0.51239 0.57881 0.53245 0.0
C1078 C 0.52317 0.67004 0.48108 0.0
C1079 C 0.52698 0.69076 0.51779 0.0
C1080 C 0.5294 0.69056 0.59519 0.0
C1081 C 0.52817 0.67036 0.63514 0.0
C1082 C 0.52449 0.65032 0.59726 0.0
C1083 C 0.52202 0.64997 0.52195 0.0
C1084 C 0.51822 0.62607 0.49474 0.0
C1085 C 0.49517 0.62395 0.4563 0.0
C1086 C 0.53754 0.61861 0.44408 0.0
C1087 C 0.51864 0.6131 0.56663 0.0
C1088 C 0.52232 0.62746 0.62499 0.0
C1089 C 0.52299 0.61958 0.69696 0.0
C1090 C 0.51921 0.5966 0.71004 0.0
C1091 C 0.51545 0.58149 0.65124 0.0
C1092 C 0.51544 0.5899 0.57849 0.0
H1093 H 0.83993 0.50603 0.43982 0.0
H1094 H 0.80102 0.5164 0.63799 0.0
H1095 H 0.83656 0.5183 0.7101 0.0
H1096 H 0.88364 0.47155 0.51895 0.0
H1097 H 0.9059 0.48376 0.46467 0.0
H1098 H 0.87746 0.48295 0.42947 0.0
H1099 H 0.87832 0.52612 0.40994 0.0
H1100 H 0.90679 0.52705 0.44494 0.0
H1101 H 0.88516 0.54425 0.48601 0.0
H1102 H 0.87702 0.51839 0.76067 0.0
H1103 H 0.91822 0.51817 0.7843 0.0
H1104 H 0.93068 0.50928 0.55228 0.0
C1105 C 0.83886 0.50865 0.49846 0.0
C1106 C 0.81758 0.51096 0.53324 0.0
C1107 C 0.81704 0.5147 0.60998 0.0
C1108 C 0.83717 0.51572 0.65141 0.0
C1109 C 0.85784 0.51331 0.61531 0.0
C1110 C 0.85879 0.51005 0.54036 0.0
C1111 C 0.88311 0.50843 0.51433 0.0
C1112 C 0.8878 0.4853 0.47982 0.0
C1113 C 0.88867 0.52761 0.46063 0.0
C1114 C 0.89579 0.51119 0.58622 0.0
C1115 C 0.88092 0.51381 0.64398 0.0
C1116 C 0.88873 0.51626 0.7158 0.0
C1117 C 0.9122 0.51602 0.72884 0.0
C1118 C 0.92779 0.51365 0.67052 0.0
C1119 C 0.9193 0.51128 0.5982 0.0
loop_
_geom_bond_atom_site_label_1
_geom_bond_atom_site_label_2
_geom_bond_distance
_geom_bond_site_symmetry_2
_ccdc_geom_bond_type
C0 C1 1.386 . S
C0 C2 1.397 . S
C0 H24 0.931 . S
C1 C0 1.386 . S
C1 C5 1.397 . S
C2 C0 1.397 . S
C2 C3 1.384 . S
C2 H25 0.930 . S
C3 C2 1.384 . S
C3 C4 1.377 . S
C3 C6 1.481 . S
C4 C3 1.377 . S
C4 C5 1.389 . S
C4 H26 0.929 . S
C5 C1 1.397 . S
C5 C4 1.389 . S
C5 H27 0.931 . S
C6 C3 1.481 . S
C6 C7 1.387 . S
C6 C11 1.390 . S
C7 C6 1.387 . S
C7 C8 1.401 . S
C7 H28 0.930 . S
C8 C7 1.401 . S
C8 C9 1.376 . S
C8 C17 1.511 . S
C9 C8 1.376 . S
C9 C10 1.392 . S
C9 H30 0.931 . S
C10 C9 1.392 . S
C10 C11 1.361 . S
C10 C12 1.500 . S
C11 C6 1.390 . S
C11 C10 1.361 . S
C11 H29 0.931 . S
C12 C10 1.500 . S
C12 C13 1.371 . S
C12 C14 1.365 . S
C13 C12 1.371 . S
C13 C23 1.386 . S
C13 H31 0.931 . S
C14 C12 1.365 . S
C14 C15 1.409 . S
C14 H32 0.929 . S
C15 C14 1.409 . S
C15 C16 1.380 . S
C15 H33 0.930 . S
C16 C15 1.380 . S
C16 C23 1.357 . S
C17 C8 1.511 . S
C17 C18 1.341 . S
C17 C19 1.371 . S
C18 C17 1.341 . S
C18 C22 1.394 . S
C18 H34 0.930 . S
C19 C17 1.371 . S
C19 C20 1.392 . S
C19 H35 0.931 . S
C20 C19 1.392 . S
C20 C21 1.331 . S
C20 H38 0.932 . S
C21 C20 1.331 . S
C21 C22 1.336 . S
C22 C18 1.394 . S
C22 C21 1.336 . S
C22 H37 0.929 . S
C23 C13 1.386 . S
C23 C16 1.357 . S
C23 H36 0.928 . S
H24 C0 0.931 . S
H25 C2 0.930 . S
H26 C4 0.929 . S
H27 C5 0.931 . S
H28 C7 0.930 . S
H29 C11 0.931 . S
H30 C9 0.931 . S
H31 C13 0.931 . S
H32 C14 0.929 . S
H33 C15 0.930 . S
H34 C18 0.930 . S
H35 C19 0.931 . S
H36 C23 0.928 . S
H37 C22 0.929 . S
H38 C20 0.932 . S
C39 C40 1.386 . S
C39 C41 1.397 . S
C39 H63 0.931 . S
C40 C39 1.386 . S
C40 C44 1.397 1_655 S
C41 C39 1.397 . S
C41 C42 1.384 . S
C41 H64 0.930 . S
C42 C41 1.384 . S
C42 C43 1.377 1_655 S
C42 C45 1.481 . S
C43 C42 1.377 1_455 S
C43 C44 1.389 . S
C43 H65 0.929 . S
C44 C40 1.397 1_455 S
C44 C43 1.389 . S
C44 H66 0.931 . S
C45 C42 1.481 . S
C45 C46 1.387 . S
C45 C50 1.390 . S
C46 C45 1.387 . S
C46 C47 1.401 . S
C46 H67 0.930 . S
C47 C46 1.401 . S
C47 C48 1.376 . S
C47 C56 1.511 . S
C48 C47 1.376 . S
C48 C49 1.392 . S
C48 H69 0.931 . S
C49 C48 1.392 . S
C49 C50 1.361 . S
C49 C51 1.500 . S
C50 C45 1.390 . S
C50 C49 1.361 . S
C50 H68 0.931 . S
C51 C49 1.500 . S
C51 C52 1.371 . S
C51 C53 1.365 1_655 S
C52 C51 1.371 . S
C52 C62 1.386 . S
C52 H70 0.931 . S
C53 C51 1.365 1_455 S
C53 C54 1.409 . S
C53 H71 0.929 . S
C54 C53 1.409 . S
C54 C55 1.380 1_455 S
C54 H72 0.930 . S
C55 C54 1.380 1_655 S
C55 C62 1.357 . S
C56 C47 1.511 . S
C56 C57 1.341 . S
C56 C58 1.371 1_655 S
C57 C56 1.341 . S
C57 C61 1.394 . S
C57 H73 0.930 . S
C58 C56 1.371 1_455 S
C58 C59 1.392 . S
C58 H74 0.931 . S
C59 C58 1.392 . S
C59 C60 1.331 1_455 S
C59 H77 0.932 . S
C60 C59 1.331 1_655 S
C60 C61 1.336 . S
C61 C57 1.394 . S
C61 C60 1.336 . S
C61 H76 0.929 . S
C62 C52 1.386 . S
C62 C55 1.357 . S
C62 H75 0.928 . S
H63 C39 0.931 . S
H64 C41 0.930 . S
H65 C43 0.929 . S
H66 C44 0.931 . S
H67 C46 0.930 . S
H68 C50 0.931 . S
H69 C48 0.931 . S
H70 C52 0.931 . S
H71 C53 0.929 . S
H72 C54 0.930 . S
H73 C57 0.930 . S
H74 C58 0.931 . S
H75 C62 0.928 . S
H76 C61 0.929 . S
H77 C59 0.932 . S
C78 C79 1.386 . S
C78 C80 1.397 . S
C78 H102 0.931 . S
C79 C78 1.386 . S
C79 C83 1.397 1_565 S
C80 C78 1.397 . S
C80 C81 1.384 . S
C80 H103 0.930 . S
C81 C80 1.384 . S
C81 C82 1.377 1_565 S
C81 C84 1.481 . S
C82 C81 1.377 1_545 S
C82 C83 1.389 . S
C82 H104 0.929 . S
C83 C79 1.397 1_545 S
C83 C82 1.389 . S
C83 H105 0.931 . S
C84 C81 1.481 . S
C84 C85 1.387 . S
C84 C89 1.390 . S
C85 C84 1.387 . S
C85 C86 1.401 . S
C85 H106 0.930 . S
C86 C85 1.401 . S
C86 C87 1.376 . S
C86 C95 1.511 . S
C87 C86 1.376 . S
C87 C88 1.392 . S
C87 H108 0.931 . S
C88 C87 1.392 . S
C88 C89 1.361 . S
C88 C90 1.500 . S
C89 C84 1.390 . S
C89 C88 1.361 . S
C89 H107 0.931 . S
C90 C88 1.500 . S
C90 C91 1.371 . S
C90 C92 1.365 1_565 S
C91 C90 1.371 . S
C91 C101 1.386 . S
C91 H109 0.931 . S
C92 C90 1.365 1_545 S
C92 C93 1.409 . S
C92 H110 0.929 . S
C93 C92 1.409 . S
C93 C94 1.380 1_545 S
C93 H111 0.930 . S
C94 C93 1.380 1_565 S
C94 C101 1.357 . S
C95 C86 1.511 . S
C95 C96 1.341 . S
C95 C97 1.371 1_565 S
C96 C95 1.341 . S
C96 C100 1.394 . S
C96 H112 0.930 . S
C97 C95 1.371 1_545 S
C97 C98 1.392 . S
C97 H113 0.931 . S
C98 C97 1.392 . S
C98 C99 1.331 1_545 S
C98 H116 0.932 . S
C99 C98 1.331 1_565 S
C99 C100 1.336 . S
C100 C96 1.394 . S
C100 C99 1.336 . S
C100 H115 0.929 . S
C101 C91 1.386 . S
C101 C94 1.357 . S
C101 H114 0.928 . S
H102 C78 0.931 . S
H103 C80 0.930 . S
H104 C82 0.929 . S
H105 C83 0.931 . S
H106 C85 0.930 . S
H107 C89 0.931 . S
H108 C87 0.931 . S
H109 C91 0.931 . S
H110 C92 0.929 . S
H111 C93 0.930 . S
H112 C96 0.930 . S
H113 C97 0.931 . S
H114 C101 0.928 . S
H115 C100 0.929 . S
H116 C98 0.932 . S
C117 C118 1.386 . S
C117 C119 1.397 . S
C117 H141 0.931 . S
C118 C117 1.386 . S
C118 C122 1.397 . S
C119 C117 1.397 . S
C119 C120 1.384 . S
C119 H142 0.930 . S
C120 C119 1.384 . S
C120 C121 1.377 . S
C120 C123 1.481 . S
C121 C120 1.377 . S
C121 C122 1.389 . S
C121 H143 0.929 . S
C122 C118 1.397 . S
C122 C121 1.389 . S
C122 H144 0.931 . S
C123 C120 1.481 . S
C123 C124 1.387 . S
C123 C128 1.390 . S
C124 C123 1.387 . S
C124 C125 1.401 . S
C124 H145 0.930 . S
C125 C124 1.401 . S
C125 C126 1.376 . S
C125 C134 1.511 . S
C126 C125 1.376 . S
C126 C127 1.392 . S
C126 H147 0.931 . S
C127 C126 1.392 . S
C127 C128 1.361 . S
C127 C129 1.500 . S
C128 C123 1.390 . S
C128 C127 1.361 . S
C128 H146 0.931 . S
C129 C127 1.500 . S
C129 C130 1.371 . S
C129 C131 1.365 . S
C130 C129 1.371 . S
C130 C140 1.386 . S
C130 H148 0.931 . S
C131 C129 1.365 . S
C131 C132 1.409 . S
C131 H149 0.929 . S
C132 C131 1.409 . S
C132 C133 1.380 . S
C132 H150 0.930 . S
C133 C132 1.380 . S
C133 C140 1.357 . S
C134 C125 1.511 . S
C134 C135 1.341 . S
C134 C136 1.371 . S
C135 C134 1.341 . S
C135 C139 1.394 . S
C135 H151 0.930 . S
C136 C134 1.371 . S
C136 C137 1.392 . S
C136 H152 0.931 . S
C137 C136 1.392 . S
C137 C138 1.331 . S
C137 H155 0.932 . S
C138 C137 1.331 . S
C138 C139 1.336 . S
C139 C135 1.394 . S
C139 C138 1.336 . S
C139 H154 0.929 . S
C140 C130 1.386 . S
C140 C133 1.357 . S
C140 H153 0.928 . S
H141 C117 0.931 . S
H142 C119 0.930 . S
H143 C121 0.929 . S
H144 C122 0.931 . S
H145 C124 0.930 . S
H146 C128 0.931 . S
H147 C126 0.931 . S
H148 C130 0.931 . S
H149 C131 0.929 . S
H150 C132 0.930 . S
H151 C135 0.930 . S
H152 C136 0.931 . S
H153 C140 0.928 . S
H154 C139 0.929 . S
H155 C137 0.932 . S
C156 C157 1.386 . S
C156 C158 1.397 . S
C156 H180 0.931 . S
C157 C156 1.386 . S
C157 C161 1.397 . S
C158 C156 1.397 . S
C158 C159 1.384 . S
C158 H181 0.930 . S
C159 C158 1.384 . S
C159 C160 1.377 . S
C159 C162 1.481 . S
C160 C159 1.377 . S
C160 C161 1.389 . S
C160 H182 0.929 . S
C161 C157 1.397 . S
C161 C160 1.389 . S
C161 H183 0.931 . S
C162 C159 1.481 . S
C162 C163 1.387 . S
C162 C167 1.390 . S
C163 C162 1.387 . S
C163 C164 1.401 . S
C163 H184 0.930 . S
C164 C163 1.401 . S
C164 C165 1.376 1_554 S
C164 C173 1.511 . S
C165 C164 1.376 1_556 S
C165 C166 1.392 . S
C165 H186 0.931 . S
C166 C165 1.392 . S
C166 C167 1.361 1_556 S
C166 C168 1.500 . S
C167 C162 1.390 . S
C167 C166 1.361 1_554 S
C167 H185 0.931 . S
C168 C166 1.500 . S
C168 C169 1.371 . S
C168 C170 1.365 . S
C169 C168 1.371 . S
C169 C179 1.386 . S
C169 H187 0.931 . S
C170 C168 1.365 . S
C170 C171 1.409 . S
C170 H188 0.929 . S
C171 C170 1.409 . S
C171 C172 1.380 . S
C171 H189 0.930 . S
C172 C171 1.380 . S
C172 C179 1.357 . S
C173 C164 1.511 . S
C173 C174 1.341 . S
C173 C175 1.371 . S
C174 C173 1.341 . S
C174 C178 1.394 . S
C174 H190 0.930 . S
C175 C173 1.371 . S
C175 C176 1.392 . S
C175 H191 0.931 1_554 S
C176 C175 1.392 . S
C176 C177 1.331 . S
C176 H194 0.932 . S
C177 C176 1.331 . S
C177 C178 1.336 . S
C178 C174 1.394 . S
C178 C177 1.336 . S
C178 H193 0.929 . S
C179 C169 1.386 . S
C179 C172 1.357 . S
C179 H192 0.928 . S
H180 C156 0.931 . S
H181 C158 0.930 . S
H182 C160 0.929 . S
H183 C161 0.931 . S
H184 C163 0.930 . S
H185 C167 0.931 . S
H186 C165 0.931 . S
H187 C169 0.931 . S
H188 C170 0.929 . S
H189 C171 0.930 . S
H190 C174 0.930 . S
H191 C175 0.931 1_556 S
H192 C179 0.928 . S
H193 C178 0.929 . S
H194 C176 0.932 . S
C195 C196 1.386 1_655 S
C195 C197 1.397 . S
C195 H219 0.931 . S
C196 C195 1.386 1_455 S
C196 C200 1.397 . S
C197 C195 1.397 . S
C197 C198 1.384 1_655 S
C197 H220 0.930 . S
C198 C197 1.384 1_455 S
C198 C199 1.377 . S
C198 C201 1.481 . S
C199 C198 1.377 . S
C199 C200 1.389 . S
C199 H221 0.929 . S
C200 C196 1.397 . S
C200 C199 1.389 . S
C200 H222 0.931 . S
C201 C198 1.481 . S
C201 C202 1.387 . S
C201 C206 1.390 . S
C202 C201 1.387 . S
C202 C203 1.401 . S
C202 H223 0.931 . S
C203 C202 1.401 . S
C203 C204 1.376 1_554 S
C203 C212 1.514 . S
C204 C203 1.376 1_556 S
C204 C205 1.392 . S
C204 H225 0.931 . S
C205 C204 1.392 . S
C205 C206 1.361 1_556 S
C205 C207 1.500 . S
C206 C201 1.390 . S
C206 C205 1.361 1_554 S
C206 H224 0.931 . S
C207 C205 1.500 . S
C207 C208 1.371 1_455 S
C207 C209 1.365 . S
C208 C207 1.371 1_655 S
C208 C218 1.386 . S
C208 H226 0.931 . S
C209 C207 1.365 . S
C209 C210 1.409 . S
C209 H227 0.929 . S
C210 C209 1.409 . S
C210 C211 1.380 . S
C210 H228 0.930 . S
C211 C210 1.380 . S
C211 C218 1.357 1_455 S
C212 C203 1.514 . S
C212 C213 1.327 1_455 S
C212 C214 1.388 . S
C213 C212 1.327 1_655 S
C213 C217 1.394 . S
C213 H229 0.930 . S
C214 C212 1.388 . S
C214 C215 1.392 . S
C214 H230 0.931 1_554 S
C215 C214 1.392 . S
C215 C216 1.331 . S
C215 H233 0.932 . S
C216 C215 1.331 . S
C216 C217 1.336 1_455 S
C217 C213 1.394 . S
C217 C216 1.336 1_655 S
C217 H232 0.929 . S
C218 C208 1.386 . S
C218 C211 1.357 1_655 S
C218 H231 0.928 . S
H219 C195 0.931 . S
H220 C197 0.930 . S
H221 C199 0.929 . S
H222 C200 0.931 . S
H223 C202 0.931 . S
H224 C206 0.931 . S
H225 C204 0.931 . S
H226 C208 0.931 . S
H227 C209 0.929 . S
H228 C210 0.930 . S
H229 C213 0.930 . S
H230 C214 0.931 1_556 S
H231 C218 0.928 . S
H232 C217 0.929 . S
H233 C215 0.932 . S
C234 C235 1.386 1_565 S
C234 C236 1.397 . S
C234 H258 0.931 . S
C235 C234 1.386 1_545 S
C235 C239 1.397 . S
C236 C234 1.397 . S
C236 C237 1.384 1_565 S
C236 H259 0.930 . S
C237 C236 1.384 1_545 S
C237 C238 1.377 . S
C237 C240 1.481 . S
C238 C237 1.377 . S
C238 C239 1.389 . S
C238 H260 0.929 . S
C239 C235 1.397 . S
C239 C238 1.389 . S
C239 H261 0.931 . S
C240 C237 1.481 . S
C240 C241 1.387 . S
C240 C245 1.390 . S
C241 C240 1.387 . S
C241 C242 1.401 . S
C241 H262 0.930 . S
C242 C241 1.401 . S
C242 C243 1.376 1_554 S
C242 C251 1.511 . S
C243 C242 1.376 1_556 S
C243 C244 1.392 . S
C243 H264 0.931 . S
C244 C243 1.392 . S
C244 C245 1.361 1_556 S
C244 C246 1.500 . S
C245 C240 1.390 . S
C245 C244 1.361 1_554 S
C245 H263 0.931 . S
C246 C244 1.500 . S
C246 C247 1.371 1_545 S
C246 C248 1.365 . S
C247 C246 1.371 1_565 S
C247 C257 1.386 . S
C247 H265 0.931 . S
C248 C246 1.365 . S
C248 C249 1.409 . S
C248 H266 0.929 . S
C249 C248 1.409 . S
C249 C250 1.380 . S
C249 H267 0.930 . S
C250 C249 1.380 . S
C250 C257 1.357 1_545 S
C251 C242 1.511 . S
C251 C252 1.337 1_545 S
C251 C253 1.371 . S
C252 C251 1.337 1_565 S
C252 C256 1.393 1_565 S
C252 H268 0.935 . S
C253 C251 1.371 . S
C253 C254 1.392 . S
C253 H269 0.931 1_554 S
C254 C253 1.392 . S
C254 C255 1.331 . S
C254 H272 0.932 . S
C255 C254 1.331 . S
C255 C256 1.338 . S
C256 C252 1.393 1_545 S
C256 C255 1.338 . S
C256 H271 0.927 1_545 S
C257 C247 1.386 . S
C257 C250 1.357 1_565 S
C257 H270 0.928 . S
H258 C234 0.931 . S
H259 C236 0.930 . S
H260 C238 0.929 . S
H261 C239 0.931 . S
H262 C241 0.930 . S
H263 C245 0.931 . S
H264 C243 0.931 . S
H265 C247 0.931 . S
H266 C248 0.929 . S
H267 C249 0.930 . S
H268 C252 0.935 . S
H269 C253 0.931 1_556 S
H270 C257 0.928 . S
H271 C256 0.927 1_565 S
H272 C254 0.932 . S
C273 C274 1.386 . S
C273 C275 1.397 . S
C273 H297 0.931 . S
C274 C273 1.386 . S
C274 C278 1.397 . S
C275 C273 1.397 . S
C275 C276 1.384 . S
C275 H298 0.930 . S
C276 C275 1.384 . S
C276 C277 1.377 . S
C276 C279 1.481 . S
C277 C276 1.377 . S
C277 C278 1.389 . S
C277 H299 0.929 . S
C278 C274 1.397 . S
C278 C277 1.389 . S
C278 H300 0.931 . S
C279 C276 1.481 . S
C279 C280 1.387 . S
C279 C284 1.390 1_556 S
C280 C279 1.387 . S
C280 C281 1.401 1_556 S
C280 H301 0.930 . S
C281 C280 1.401 1_554 S
C281 C282 1.376 . S
C281 C290 1.511 . S
C282 C281 1.376 . S
C282 C283 1.392 . S
C282 H303 0.931 . S
C283 C282 1.392 . S
C283 C284 1.361 . S
C283 C285 1.500 . S
C284 C279 1.390 1_554 S
C284 C283 1.361 . S
C284 H302 0.931 . S
C285 C283 1.500 . S
C285 C286 1.371 . S
C285 C287 1.365 . S
C286 C285 1.371 . S
C286 C296 1.386 . S
C286 H304 0.931 . S
C287 C285 1.365 . S
C287 C288 1.409 . S
C287 H305 0.929 . S
C288 C287 1.409 . S
C288 C289 1.380 . S
C288 H306 0.930 . S
C289 C288 1.380 . S
C289 C296 1.357 . S
C290 C281 1.511 . S
C290 C291 1.341 . S
C290 C292 1.371 . S
C291 C290 1.341 . S
C291 C295 1.394 . S
C291 H307 0.930 1_554 S
C292 C290 1.371 . S
C292 C293 1.392 . S
C292 H308 0.931 . S
C293 C292 1.392 . S
C293 C294 1.331 . S
C293 H311 0.932 . S
C294 C293 1.331 . S
C294 C295 1.336 . S
C295 C291 1.394 . S
C295 C294 1.336 . S
C295 H310 0.929 . S
C296 C286 1.386 . S
C296 C289 1.357 . S
C296 H309 0.928 . S
H297 C273 0.931 . S
H298 C275 0.930 . S
H299 C277 0.929 . S
H300 C278 0.931 . S
H301 C280 0.930 . S
H302 C284 0.931 . S
H303 C282 0.931 . S
H304 C286 0.931 . S
H305 C287 0.929 . S
H306 C288 0.930 . S
H307 C291 0.930 1_556 S
H308 C292 0.931 . S
H309 C296 0.928 . S
H310 C295 0.929 . S
H311 C293 0.932 . S
Gd312 C315 2.818 . S
Gd312 O332 2.377 . S
Gd312 O334 2.448 . S
Gd312 O335 2.506 . S
Gd312 O336 2.435 . S
Gd312 O337 2.717 1_565 S
Gd312 O339 2.395 1_565 S
Gd312 O343 2.327 1_455 S
Gd313 C324 2.818 . S
Gd313 O333 2.395 1_545 S
Gd313 O337 2.327 1_655 S
Gd313 O338 2.377 . S
Gd313 O340 2.448 . S
Gd313 O341 2.506 . S
Gd313 O342 2.435 . S
Gd313 O343 2.717 1_545 S
C314 O332 1.240 1_655 S
C314 O333 1.240 . S
C315 Gd312 2.818 . S
C315 C316 1.510 . S
C315 O334 1.249 . S
C315 O335 1.252 . S
C316 C315 1.510 . S
C316 C317 1.404 . S
C316 C318 1.352 . S
C317 C316 1.404 . S
C317 C321 1.389 . S
C317 H344 0.930 . S
C318 C316 1.352 . S
C318 C320 1.374 . S
C318 H345 0.931 1_455 S
C319 C320 1.359 . S
C319 C321 1.364 . S
C320 C318 1.374 . S
C320 C319 1.359 . S
C320 H346 0.931 1_455 S
C321 C317 1.389 . S
C321 C319 1.364 . S
C321 H347 0.931 . S
C322 O336 1.256 1_545 S
C322 O337 1.257 . S
C323 O338 1.240 1_455 S
C323 O339 1.240 . S
C324 Gd313 2.818 . S
C324 C325 1.510 . S
C324 O340 1.249 . S
C324 O341 1.252 . S
C325 C324 1.510 . S
C325 C326 1.404 . S
C325 C327 1.352 . S
C326 C325 1.404 . S
C326 C330 1.389 . S
C326 H348 0.930 . S
C327 C325 1.352 . S
C327 C329 1.374 . S
C327 H349 0.931 1_655 S
C328 C329 1.359 . S
C328 C330 1.364 . S
C329 C327 1.374 . S
C329 C328 1.359 . S
C329 H350 0.931 1_655 S
C330 C326 1.389 . S
C330 C328 1.364 . S
C330 H351 0.931 . S
C331 O342 1.256 . S
C331 O343 1.257 1_545 S
O332 Gd312 2.377 . S
O332 C314 1.240 1_455 S
O333 Gd313 2.395 1_565 S
O333 C314 1.240 . S
O334 Gd312 2.448 . S
O334 C315 1.249 . S
O335 Gd312 2.506 . S
O335 C315 1.252 . S
O336 Gd312 2.435 . S
O336 C322 1.256 1_565 S
O337 Gd312 2.717 1_545 S
O337 Gd313 2.327 1_455 S
O337 C322 1.257 . S
O338 Gd313 2.377 . S
O338 C323 1.240 1_655 S
O339 Gd312 2.395 1_545 S
O339 C323 1.240 . S
O340 Gd313 2.448 . S
O340 C324 1.249 . S
O341 Gd313 2.506 . S
O341 C324 1.252 . S
O342 Gd313 2.435 . S
O342 C331 1.256 . S
O343 Gd312 2.327 1_655 S
O343 Gd313 2.717 1_565 S
O343 C331 1.257 1_565 S
H344 C317 0.930 . S
H345 C318 0.931 1_655 S
H346 C320 0.931 1_655 S
H347 C321 0.931 . S
H348 C326 0.930 . S
H349 C327 0.931 1_455 S
H350 C329 0.931 1_455 S
H351 C330 0.931 . S
Gd352 C355 2.818 . S
Gd352 O372 2.377 . S
Gd352 O374 2.448 . S
Gd352 O375 2.506 . S
Gd352 O376 2.435 . S
Gd352 O377 2.717 . S
Gd352 O379 2.395 . S
Gd352 O383 2.327 1_545 S
Gd353 C364 2.818 . S
Gd353 O373 2.395 . S
Gd353 O377 2.327 1_565 S
Gd353 O378 2.377 . S
Gd353 O380 2.448 . S
Gd353 O381 2.521 . S
Gd353 O382 2.435 . S
Gd353 O383 2.717 . S
C354 O372 1.240 1_565 S
C354 O373 1.240 . S
C355 Gd352 2.818 . S
C355 C356 1.510 . S
C355 O374 1.249 . S
C355 O375 1.252 . S
C356 C355 1.510 . S
C356 C357 1.404 . S
C356 C358 1.352 . S
C357 C356 1.404 . S
C357 C361 1.389 . S
C357 H384 0.930 . S
C358 C356 1.352 . S
C358 C360 1.374 . S
C358 H385 0.931 1_545 S
C359 C360 1.359 . S
C359 C361 1.364 . S
C360 C358 1.374 . S
C360 C359 1.359 . S
C360 H386 0.931 1_545 S
C361 C357 1.389 . S
C361 C359 1.364 . S
C361 H387 0.931 . S
C362 O376 1.256 . S
C362 O377 1.257 . S
C363 O378 1.240 1_545 S
C363 O379 1.240 . S
C364 Gd353 2.818 . S
C364 C365 1.510 . S
C364 O380 1.249 . S
C364 O381 1.288 . S
C365 C364 1.510 . S
C365 C366 1.404 . S
C365 C367 1.352 . S
C366 C365 1.404 . S
C366 C370 1.389 . S
C366 H388 0.930 . S
C367 C365 1.352 . S
C367 C369 1.374 . S
C367 H389 0.931 1_565 S
C368 C369 1.359 . S
C368 C370 1.364 . S
C369 C367 1.374 . S
C369 C368 1.359 . S
C369 H390 0.931 1_565 S
C370 C366 1.389 . S
C370 C368 1.364 . S
C370 H391 0.931 . S
C371 O382 1.256 . S
C371 O383 1.257 . S
O372 Gd352 2.377 . S
O372 C354 1.240 1_545 S
O373 Gd353 2.395 . S
O373 C354 1.240 . S
O374 Gd352 2.448 . S
O374 C355 1.249 . S
O375 Gd352 2.506 . S
O375 C355 1.252 . S
O376 Gd352 2.435 . S
O376 C362 1.256 . S
O377 Gd352 2.717 . S
O377 Gd353 2.327 1_545 S
O377 C362 1.257 . S
O378 Gd353 2.377 . S
O378 C363 1.240 1_565 S
O379 Gd352 2.395 . S
O379 C363 1.240 . S
O380 Gd353 2.448 . S
O380 C364 1.249 . S
O381 Gd353 2.521 . S
O381 C364 1.288 . S
O382 Gd353 2.435 . S
O382 C371 1.256 . S
O383 Gd352 2.327 1_565 S
O383 Gd353 2.717 . S
O383 C371 1.257 . S
H384 C357 0.930 . S
H385 C358 0.931 1_565 S
H386 C360 0.931 1_565 S
H387 C361 0.931 . S
H388 C366 0.930 . S
H389 C367 0.931 1_545 S
H390 C369 0.931 1_545 S
H391 C370 0.931 . S
Gd392 C395 2.818 . S
Gd392 O412 2.377 . S
Gd392 O414 2.448 . S
Gd392 O415 2.506 . S
Gd392 O416 2.435 . S
Gd392 O417 2.717 . S
Gd392 O419 2.395 . S
Gd392 O423 2.327 . S
Gd393 C404 2.818 . S
Gd393 O413 2.395 . S
Gd393 O417 2.327 . S
Gd393 O418 2.377 . S
Gd393 O420 2.448 . S
Gd393 O421 2.506 . S
Gd393 O422 2.435 . S
Gd393 O423 2.717 . S
C394 O412 1.240 . S
C394 O413 1.240 . S
C395 Gd392 2.818 . S
C395 C396 1.510 . S
C395 O414 1.249 . S
C395 O415 1.252 . S
C396 C395 1.510 . S
C396 C397 1.404 . S
C396 C398 1.352 . S
C397 C396 1.404 . S
C397 C401 1.389 . S
C397 H424 0.930 . S
C398 C396 1.352 . S
C398 C400 1.374 . S
C398 H425 0.931 . S
C399 C400 1.359 . S
C399 C401 1.364 . S
C400 C398 1.374 . S
C400 C399 1.359 . S
C400 H426 0.931 . S
C401 C397 1.389 . S
C401 C399 1.364 . S
C401 H427 0.931 . S
C402 O416 1.256 . S
C402 O417 1.257 . S
C403 O418 1.240 . S
C403 O419 1.240 . S
C404 Gd393 2.818 . S
C404 C405 1.510 . S
C404 O420 1.249 . S
C404 O421 1.252 . S
C405 C404 1.510 . S
C405 C406 1.404 . S
C405 C407 1.352 . S
C406 C405 1.404 . S
C406 C410 1.389 . S
C406 H428 0.930 . S
C407 C405 1.352 . S
C407 C409 1.374 . S
C407 H429 0.931 . S
C408 C409 1.359 . S
C408 C410 1.364 . S
C409 C407 1.374 . S
C409 C408 1.359 . S
C409 H430 0.931 . S
C410 C406 1.389 . S
C410 C408 1.364 . S
C410 H431 0.931 . S
C411 O422 1.256 . S
C411 O423 1.257 . S
O412 Gd392 2.377 . S
O412 C394 1.240 . S
O413 Gd393 2.395 . S
O413 C394 1.240 . S
O414 Gd392 2.448 . S
O414 C395 1.249 . S
O415 Gd392 2.506 . S
O415 C395 1.252 . S
O416 Gd392 2.435 . S
O416 C402 1.256 . S
O417 Gd392 2.717 . S
O417 Gd393 2.327 . S
O417 C402 1.257 . S
O418 Gd393 2.377 . S
O418 C403 1.240 . S
O419 Gd392 2.395 . S
O419 C403 1.240 . S
O420 Gd393 2.448 . S
O420 C404 1.249 . S
O421 Gd393 2.506 . S
O421 C404 1.252 . S
O422 Gd393 2.435 . S
O422 C411 1.256 . S
O423 Gd392 2.327 . S
O423 Gd393 2.717 . S
O423 C411 1.257 . S
H424 C397 0.930 . S
H425 C398 0.931 . S
H426 C400 0.931 . S
H427 C401 0.931 . S
H428 C406 0.930 . S
H429 C407 0.931 . S
H430 C409 0.931 . S
H431 C410 0.931 . S
Gd432 C435 2.818 . S
Gd432 O452 2.377 . S
Gd432 O454 2.448 . S
Gd432 O455 2.506 . S
Gd432 O456 2.435 . S
Gd432 O457 2.717 1_655 S
Gd432 O459 2.395 1_655 S
Gd432 O463 2.327 . S
Gd433 C444 2.818 . S
Gd433 O453 2.395 1_455 S
Gd433 O457 2.327 . S
Gd433 O458 2.377 . S
Gd433 O460 2.448 . S
Gd433 O461 2.506 . S
Gd433 O462 2.435 . S
Gd433 O463 2.717 1_455 S
C434 O452 1.240 . S
C434 O453 1.240 . S
C435 Gd432 2.818 . S
C435 C436 1.510 . S
C435 O454 1.249 . S
C435 O455 1.252 . S
C436 C435 1.510 . S
C436 C437 1.404 . S
C436 C438 1.352 . S
C437 C436 1.404 . S
C437 C441 1.389 . S
C437 H464 0.930 . S
C438 C436 1.352 . S
C438 C440 1.374 . S
C438 H465 0.931 . S
C439 C440 1.359 . S
C439 C441 1.364 . S
C440 C438 1.374 . S
C440 C439 1.359 . S
C440 H466 0.931 . S
C441 C437 1.389 . S
C441 C439 1.364 . S
C441 H467 0.931 . S
C442 O456 1.282 . S
C442 O457 1.244 1_655 S
C443 O458 1.240 . S
C443 O459 1.240 . S
C444 Gd433 2.818 . S
C444 C445 1.510 . S
C444 O460 1.249 . S
C444 O461 1.252 . S
C445 C444 1.510 . S
C445 C446 1.404 . S
C445 C447 1.352 . S
C446 C445 1.404 . S
C446 C450 1.389 . S
C446 H468 0.930 . S
C447 C445 1.352 . S
C447 C449 1.374 . S
C447 H469 0.931 . S
C448 C449 1.359 . S
C448 C450 1.364 . S
C449 C447 1.374 . S
C449 C448 1.359 . S
C449 H470 0.931 . S
C450 C446 1.389 . S
C450 C448 1.364 . S
C450 H471 0.931 . S
C451 O462 1.256 . S
C451 O463 1.257 1_455 S
O452 Gd432 2.377 . S
O452 C434 1.240 . S
O453 Gd433 2.395 1_655 S
O453 C434 1.240 . S
O454 Gd432 2.448 . S
O454 C435 1.249 . S
O455 Gd432 2.506 . S
O455 C435 1.252 . S
O456 Gd432 2.435 . S
O456 C442 1.282 . S
O457 Gd432 2.717 1_455 S
O457 Gd433 2.327 . S
O457 C442 1.244 1_455 S
O458 Gd433 2.377 . S
O458 C443 1.240 . S
O459 Gd432 2.395 1_455 S
O459 C443 1.240 . S
O460 Gd433 2.448 . S
O460 C444 1.249 . S
O461 Gd433 2.506 . S
O461 C444 1.252 . S
O462 Gd433 2.435 . S
O462 C451 1.256 . S
O463 Gd432 2.327 . S
O463 Gd433 2.717 1_655 S
O463 C451 1.257 1_655 S
H464 C437 0.930 . S
H465 C438 0.931 . S
H466 C440 0.931 . S
H467 C441 0.931 . S
H468 C446 0.930 . S
H469 C447 0.931 . S
H470 C449 0.931 . S
H471 C450 0.931 . S
H472 C484 0.930 . S
H473 C486 0.930 . S
H474 C487 0.930 . S
H475 C491 0.959 . S
H476 C491 0.959 . S
H477 C491 0.961 . S
H478 C492 0.960 . S
H479 C492 0.961 . S
H480 C492 0.959 . S
H481 C495 0.929 . S
H482 C496 0.931 . S
H483 C498 0.930 . S
C484 H472 0.930 . S
C484 C485 1.399 1_565 S
C484 C489 1.399 . S
C485 C484 1.399 1_545 S
C485 C486 1.376 . S
C486 H473 0.930 . S
C486 C485 1.376 . S
C486 C487 1.388 . S
C487 H474 0.930 . S
C487 C486 1.388 . S
C487 C488 1.390 . S
C488 C487 1.390 . S
C488 C489 1.394 1_545 S
C488 C494 1.465 . S
C489 C484 1.399 . S
C489 C488 1.394 1_565 S
C489 C490 1.516 . S
C490 C489 1.516 . S
C490 C491 1.502 . S
C490 C492 1.561 . S
C490 C493 1.526 . S
C491 H475 0.959 . S
C491 H476 0.959 . S
C491 H477 0.961 . S
C491 C490 1.502 . S
C492 H478 0.960 . S
C492 H479 0.961 . S
C492 H480 0.959 . S
C492 C490 1.561 . S
C493 C490 1.526 . S
C493 C494 1.396 1_565 S
C493 C498 1.390 . S
C494 C488 1.465 . S
C494 C493 1.396 1_545 S
C494 C495 1.399 . S
C495 H481 0.929 . S
C495 C494 1.399 . S
C495 C496 1.385 . S
C496 H482 0.931 . S
C496 C495 1.385 . S
C496 C497 1.389 . S
C497 C496 1.389 . S
C497 C498 1.387 1_545 S
C498 H483 0.930 . S
C498 C493 1.390 . S
C498 C497 1.387 1_565 S
H499 C511 0.930 . S
H500 C513 0.930 . S
H501 C514 0.930 . S
H502 C518 0.959 . S
H503 C518 0.959 . S
H504 C518 0.961 . S
H505 C519 0.960 . S
H506 C519 0.961 . S
H507 C519 0.959 . S
H508 C522 0.929 . S
H509 C523 0.931 . S
H510 C525 0.930 . S
C511 H499 0.930 . S
C511 C512 1.399 . S
C511 C516 1.399 . S
C512 C511 1.399 . S
C512 C513 1.376 . S
C513 H500 0.930 . S
C513 C512 1.376 . S
C513 C514 1.388 . S
C514 H501 0.930 . S
C514 C513 1.388 . S
C514 C515 1.390 . S
C515 C514 1.390 . S
C515 C516 1.394 . S
C515 C521 1.465 . S
C516 C511 1.399 . S
C516 C515 1.394 . S
C516 C517 1.516 . S
C517 C516 1.516 . S
C517 C518 1.502 . S
C517 C519 1.561 . S
C517 C520 1.526 . S
C518 H502 0.959 . S
C518 H503 0.959 . S
C518 H504 0.961 . S
C518 C517 1.502 . S
C519 H505 0.960 . S
C519 H506 0.961 . S
C519 H507 0.959 . S
C519 C517 1.561 . S
C520 C517 1.526 . S
C520 C521 1.396 . S
C520 C525 1.390 . S
C521 C515 1.465 . S
C521 C520 1.396 . S
C521 C522 1.399 . S
C522 H508 0.929 . S
C522 C521 1.399 . S
C522 C523 1.385 . S
C523 H509 0.931 . S
C523 C522 1.385 . S
C523 C524 1.389 . S
C524 C523 1.389 . S
C524 C525 1.387 . S
C525 H510 0.930 . S
C525 C520 1.390 . S
C525 C524 1.387 . S
H526 C538 0.930 . S
H527 C540 0.930 . S
H528 C541 0.930 . S
H529 C545 0.959 . S
H530 C545 0.959 . S
H531 C545 0.961 . S
H532 C546 0.960 . S
H533 C546 0.961 . S
H534 C546 0.959 . S
H535 C549 0.929 . S
H536 C550 0.931 . S
H537 C552 0.930 . S
C538 H526 0.930 . S
C538 C539 1.399 . S
C538 C543 1.399 . S
C539 C538 1.399 . S
C539 C540 1.376 . S
C540 H527 0.930 . S
C540 C539 1.376 . S
C540 C541 1.388 . S
C541 H528 0.930 . S
C541 C540 1.388 . S
C541 C542 1.390 . S
C542 C541 1.390 . S
C542 C543 1.394 . S
C542 C548 1.465 . S
C543 C538 1.399 . S
C543 C542 1.394 . S
C543 C544 1.516 . S
C544 C543 1.516 . S
C544 C545 1.502 . S
C544 C546 1.561 . S
C544 C547 1.526 . S
C545 H529 0.959 . S
C545 H530 0.959 . S
C545 H531 0.961 . S
C545 C544 1.502 . S
C546 H532 0.960 . S
C546 H533 0.961 . S
C546 H534 0.959 . S
C546 C544 1.561 . S
C547 C544 1.526 . S
C547 C548 1.396 . S
C547 C552 1.390 . S
C548 C542 1.465 . S
C548 C547 1.396 . S
C548 C549 1.399 . S
C549 H535 0.929 . S
C549 C548 1.399 . S
C549 C550 1.385 . S
C550 H536 0.931 . S
C550 C549 1.385 . S
C550 C551 1.389 . S
C551 C550 1.389 . S
C551 C552 1.387 . S
C552 H537 0.930 . S
C552 C547 1.390 . S
C552 C551 1.387 . S
H553 C565 0.930 . S
H554 C567 0.930 . S
H555 C568 0.930 . S
H556 C572 0.959 . S
H557 C572 0.959 . S
H558 C572 0.961 . S
H559 C573 0.960 . S
H560 C573 0.961 . S
H561 C573 0.959 1_455 S
H562 C576 0.929 . S
H563 C577 0.931 . S
H564 C579 0.930 . S
C565 H553 0.930 . S
C565 C566 1.399 1_655 S
C565 C570 1.399 . S
C566 C565 1.399 1_455 S
C566 C567 1.376 . S
C567 H554 0.930 . S
C567 C566 1.376 . S
C567 C568 1.388 . S
C568 H555 0.930 . S
C568 C567 1.388 . S
C568 C569 1.390 . S
C569 C568 1.390 . S
C569 C570 1.394 1_455 S
C569 C575 1.465 . S
C570 C565 1.399 . S
C570 C569 1.394 1_655 S
C570 C571 1.516 . S
C571 C570 1.516 . S
C571 C572 1.502 . S
C571 C573 1.561 . S
C571 C574 1.526 . S
C572 H556 0.959 . S
C572 H557 0.959 . S
C572 H558 0.961 . S
C572 C571 1.502 . S
C573 H559 0.960 . S
C573 H560 0.961 . S
C573 H561 0.959 1_655 S
C573 C571 1.561 . S
C574 C571 1.526 . S
C574 C575 1.396 1_655 S
C574 C579 1.390 . S
C575 C569 1.465 . S
C575 C574 1.396 1_455 S
C575 C576 1.399 . S
C576 H562 0.929 . S
C576 C575 1.399 . S
C576 C577 1.385 . S
C577 H563 0.931 . S
C577 C576 1.385 . S
C577 C578 1.389 . S
C578 C577 1.389 . S
C578 C579 1.387 1_455 S
C579 H564 0.930 . S
C579 C574 1.390 . S
C579 C578 1.387 1_655 S
H580 C592 0.930 . S
H581 C594 0.930 . S
H582 C595 0.930 . S
H583 C599 0.959 . S
H584 C599 0.959 . S
H585 C599 0.961 1_554 S
H586 C600 0.960 . S
H587 C600 0.961 . S
H588 C600 0.959 . S
H589 C603 0.929 . S
H590 C604 0.931 . S
H591 C606 0.930 . S
C592 H580 0.930 . S
C592 C593 1.399 1_545 S
C592 C597 1.399 . S
C593 C592 1.399 1_565 S
C593 C594 1.376 . S
C594 H581 0.930 . S
C594 C593 1.376 . S
C594 C595 1.388 . S
C595 H582 0.930 . S
C595 C594 1.388 . S
C595 C596 1.390 . S
C596 C595 1.390 . S
C596 C597 1.394 1_565 S
C596 C602 1.465 . S
C597 C592 1.399 . S
C597 C596 1.394 1_545 S
C597 C598 1.516 . S
C598 C597 1.516 . S
C598 C599 1.502 1_554 S
C598 C600 1.561 . S
C598 C601 1.526 1_554 S
C599 H583 0.959 . S
C599 H584 0.959 . S
C599 H585 0.961 1_556 S
C599 C598 1.502 1_556 S
C600 H586 0.960 . S
C600 H587 0.961 . S
C600 H588 0.959 . S
C600 C598 1.561 . S
C601 C598 1.526 1_556 S
C601 C602 1.396 1_546 S
C601 C606 1.390 . S
C602 C596 1.465 . S
C602 C601 1.396 1_564 S
C602 C603 1.399 1_554 S
C603 H589 0.929 . S
C603 C602 1.399 1_556 S
C603 C604 1.385 . S
C604 H590 0.931 . S
C604 C603 1.385 . S
C604 C605 1.389 . S
C605 C604 1.389 . S
C605 C606 1.387 1_565 S
C606 H591 0.930 . S
C606 C601 1.390 . S
C606 C605 1.387 1_545 S
H607 C619 0.930 . S
H608 C621 0.930 . S
H609 C622 0.930 . S
H610 C626 0.959 . S
H611 C626 0.959 . S
H612 C626 0.961 . S
H613 C627 0.960 . S
H614 C627 0.961 . S
H615 C627 0.959 . S
H616 C630 0.929 . S
H617 C631 0.931 . S
H618 C633 0.930 . S
C619 H607 0.930 . S
C619 C620 1.399 . S
C619 C624 1.399 . S
C620 C619 1.399 . S
C620 C621 1.376 . S
C621 H608 0.930 . S
C621 C620 1.376 . S
C621 C622 1.388 . S
C622 H609 0.930 . S
C622 C621 1.388 . S
C622 C623 1.390 . S
C623 C622 1.390 . S
C623 C624 1.394 . S
C623 C629 1.465 1_554 S
C624 C619 1.399 . S
C624 C623 1.394 . S
C624 C625 1.516 . S
C625 C624 1.516 . S
C625 C626 1.502 . S
C625 C627 1.561 . S
C625 C628 1.526 1_554 S
C626 H610 0.959 . S
C626 H611 0.959 . S
C626 H612 0.961 . S
C626 C625 1.502 . S
C627 H613 0.960 . S
C627 H614 0.961 . S
C627 H615 0.959 . S
C627 C625 1.561 . S
C628 C625 1.526 1_556 S
C628 C629 1.396 . S
C628 C633 1.390 . S
C629 C623 1.465 1_556 S
C629 C628 1.396 . S
C629 C630 1.399 . S
C630 H616 0.929 . S
C630 C629 1.399 . S
C630 C631 1.385 . S
C631 H617 0.931 . S
C631 C630 1.385 . S
C631 C632 1.389 . S
C632 C631 1.389 . S
C632 C633 1.387 . S
C633 H618 0.930 . S
C633 C628 1.390 . S
C633 C632 1.387 . S
H634 C646 0.930 . S
H635 C648 0.930 . S
H636 C649 0.930 . S
H637 C653 0.959 . S
H638 C653 0.959 . S
H639 C653 0.961 . S
H640 C654 0.960 . S
H641 C654 0.961 1_556 S
H642 C654 0.959 1_556 S
H643 C657 0.929 . S
H644 C658 0.931 . S
H645 C660 0.930 . S
C646 H634 0.930 . S
C646 C647 1.399 . S
C646 C651 1.399 . S
C647 C646 1.399 . S
C647 C648 1.376 . S
C648 H635 0.930 . S
C648 C647 1.376 . S
C648 C649 1.388 . S
C649 H636 0.930 . S
C649 C648 1.388 . S
C649 C650 1.390 . S
C650 C649 1.390 . S
C650 C651 1.394 . S
C650 C656 1.465 1_554 S
C651 C646 1.399 . S
C651 C650 1.394 . S
C651 C652 1.516 . S
C652 C651 1.516 . S
C652 C653 1.502 . S
C652 C654 1.561 . S
C652 C655 1.526 1_554 S
C653 H637 0.959 . S
C653 H638 0.959 . S
C653 H639 0.961 . S
C653 C652 1.502 . S
C654 H640 0.960 . S
C654 H641 0.961 1_554 S
C654 H642 0.959 1_554 S
C654 C652 1.561 . S
C655 C652 1.526 1_556 S
C655 C656 1.396 . S
C655 C660 1.390 . S
C656 C650 1.465 1_556 S
C656 C655 1.396 . S
C656 C657 1.399 . S
C657 H643 0.929 . S
C657 C656 1.399 . S
C657 C658 1.385 . S
C658 H644 0.931 . S
C658 C657 1.385 . S
C658 C659 1.389 . S
C659 C658 1.389 . S
C659 C660 1.387 . S
C660 H645 0.930 . S
C660 C655 1.390 . S
C660 C659 1.387 . S
H661 C673 0.930 . S
H662 C675 0.930 . S
H663 C676 0.930 . S
H664 C680 0.959 1_455 S
H665 C680 0.959 . S
H666 C680 0.961 . S
H667 C681 0.960 . S
H668 C681 0.961 . S
H669 C681 0.959 . S
H670 C684 0.929 . S
H671 C685 0.931 . S
H672 C687 0.930 . S
C673 H661 0.930 . S
C673 C674 1.399 . S
C673 C678 1.399 . S
C674 C673 1.399 . S
C674 C675 1.376 1_655 S
C675 H662 0.930 . S
C675 C674 1.376 1_455 S
C675 C676 1.388 . S
C676 H663 0.930 . S
C676 C675 1.388 . S
C676 C677 1.390 . S
C677 C676 1.390 . S
C677 C678 1.394 1_455 S
C677 C683 1.465 1_554 S
C678 C673 1.399 . S
C678 C677 1.394 1_655 S
C678 C679 1.516 . S
C679 C678 1.516 . S
C679 C680 1.502 . S
C679 C681 1.561 . S
C679 C682 1.526 1_554 S
C680 H664 0.959 1_655 S
C680 H665 0.959 . S
C680 H666 0.961 . S
C680 C679 1.502 . S
C681 H667 0.960 . S
C681 H668 0.961 . S
C681 H669 0.959 . S
C681 C679 1.561 . S
C682 C679 1.526 1_556 S
C682 C683 1.396 1_655 S
C682 C687 1.390 . S
C683 C677 1.465 1_556 S
C683 C682 1.396 1_455 S
C683 C684 1.399 . S
C684 H670 0.929 . S
C684 C683 1.399 . S
C684 C685 1.385 . S
C685 H671 0.931 . S
C685 C684 1.385 . S
C685 C686 1.366 1_455 S
C686 C685 1.366 1_655 S
C686 C687 1.408 . S
C687 H672 0.930 . S
C687 C682 1.390 . S
C687 C686 1.408 . S
H688 C700 0.930 . S
H689 C702 0.930 . S
H690 C703 0.930 . S
H691 C707 0.959 . S
H692 C707 0.959 . S
H693 C707 0.961 . S
H694 C708 0.960 . S
H695 C708 0.961 . S
H696 C708 0.959 . S
H697 C711 0.929 . S
H698 C712 0.931 . S
H699 C714 0.930 . S
C700 H688 0.930 . S
C700 C701 1.389 1_655 S
C700 C705 1.410 . S
C701 C700 1.389 1_455 S
C701 C702 1.376 . S
C702 H689 0.930 . S
C702 C701 1.376 . S
C702 C703 1.377 1_455 S
C703 H690 0.930 . S
C703 C702 1.377 1_655 S
C703 C704 1.402 . S
C704 C703 1.402 . S
C704 C705 1.394 . S
C704 C710 1.465 . S
C705 C700 1.410 . S
C705 C704 1.394 . S
C705 C706 1.516 . S
C706 C705 1.516 . S
C706 C707 1.502 . S
C706 C708 1.561 1_655 S
C706 C709 1.526 . S
C707 H691 0.959 . S
C707 H692 0.959 . S
C707 H693 0.961 . S
C707 C706 1.502 . S
C708 H694 0.960 . S
C708 H695 0.961 . S
C708 H696 0.959 . S
C708 C706 1.561 1_455 S
C709 C706 1.526 . S
C709 C710 1.396 . S
C709 C714 1.390 . S
C710 C704 1.465 . S
C710 C709 1.396 . S
C710 C711 1.399 . S
C711 H697 0.929 . S
C711 C710 1.399 . S
C711 C712 1.385 . S
C712 H698 0.931 . S
C712 C711 1.385 . S
C712 C713 1.389 . S
C713 C712 1.389 . S
C713 C714 1.387 . S
C714 H699 0.930 . S
C714 C709 1.390 . S
C714 C713 1.387 . S
H715 C727 0.930 . S
H716 C729 0.930 . S
H717 C730 0.927 1_565 S
H718 C734 0.959 . S
H719 C734 0.959 . S
H720 C734 0.961 . S
H721 C735 0.960 . S
H722 C735 0.961 . S
H723 C735 0.959 . S
H724 C738 0.929 . S
H725 C739 0.931 . S
H726 C741 0.930 . S
C727 H715 0.930 . S
C727 C728 1.399 . S
C727 C732 1.399 1_545 S
C728 C727 1.399 . S
C728 C729 1.376 . S
C729 H716 0.930 . S
C729 C728 1.376 . S
C729 C730 1.397 . S
C730 H717 0.927 1_545 S
C730 C729 1.397 . S
C730 C731 1.385 1_545 S
C731 C730 1.385 1_565 S
C731 C732 1.394 . S
C731 C737 1.465 . S
C732 C727 1.399 1_565 S
C732 C731 1.394 . S
C732 C733 1.516 . S
C733 C732 1.516 . S
C733 C734 1.502 . S
C733 C735 1.561 1_565 S
C733 C736 1.526 . S
C734 H718 0.959 . S
C734 H719 0.959 . S
C734 H720 0.961 . S
C734 C733 1.502 . S
C735 H721 0.960 . S
C735 H722 0.961 . S
C735 H723 0.959 . S
C735 C733 1.561 1_545 S
C736 C733 1.526 . S
C736 C737 1.396 . S
C736 C741 1.390 . S
C737 C731 1.465 . S
C737 C736 1.396 . S
C737 C738 1.399 . S
C738 H724 0.929 . S
C738 C737 1.399 . S
C738 C739 1.385 . S
C739 H725 0.931 . S
C739 C738 1.385 . S
C739 C740 1.389 . S
C740 C739 1.389 . S
C740 C741 1.387 . S
C741 H726 0.930 . S
C741 C736 1.390 . S
C741 C740 1.387 . S
H742 C754 0.930 . S
H743 C756 0.930 . S
H744 C757 0.930 . S
H745 C761 0.959 . S
H746 C761 0.959 . S
H747 C761 0.961 . S
H748 C762 0.960 . S
H749 C762 0.961 . S
H750 C762 0.959 . S
H751 C765 0.929 . S
H752 C766 0.931 . S
H753 C768 0.930 . S
C754 H742 0.930 . S
C754 C755 1.399 . S
C754 C759 1.399 . S
C755 C754 1.399 . S
C755 C756 1.376 . S
C756 H743 0.930 . S
C756 C755 1.376 . S
C756 C757 1.388 . S
C757 H744 0.930 . S
C757 C756 1.388 . S
C757 C758 1.390 . S
C758 C757 1.390 . S
C758 C759 1.394 . S
C758 C764 1.465 . S
C759 C754 1.399 . S
C759 C758 1.394 . S
C759 C760 1.516 . S
C760 C759 1.516 . S
C760 C761 1.502 . S
C760 C762 1.561 . S
C760 C763 1.526 . S
C761 H745 0.959 . S
C761 H746 0.959 . S
C761 H747 0.961 . S
C761 C760 1.502 . S
C762 H748 0.960 . S
C762 H749 0.961 . S
C762 H750 0.959 . S
C762 C760 1.561 . S
C763 C760 1.526 . S
C763 C764 1.396 . S
C763 C768 1.390 . S
C764 C758 1.465 . S
C764 C763 1.396 . S
C764 C765 1.399 . S
C765 H751 0.929 . S
C765 C764 1.399 . S
C765 C766 1.385 . S
C766 H752 0.931 . S
C766 C765 1.385 . S
C766 C767 1.389 . S
C767 C766 1.389 . S
C767 C768 1.387 . S
C768 H753 0.930 . S
C768 C763 1.390 . S
C768 C767 1.387 . S
H769 C781 0.930 . S
H770 C783 0.930 . S
H771 C784 0.930 . S
H772 C788 0.959 . S
H773 C788 0.959 . S
H774 C788 0.961 . S
H775 C789 0.960 . S
H776 C789 0.961 . S
H777 C789 0.959 . S
H778 C792 0.929 . S
H779 C793 0.931 . S
H780 C795 0.930 . S
C781 H769 0.930 . S
C781 C782 1.399 . S
C781 C786 1.399 . S
C782 C781 1.399 . S
C782 C783 1.376 . S
C783 H770 0.930 . S
C783 C782 1.376 . S
C783 C784 1.388 . S
C784 H771 0.930 . S
C784 C783 1.388 . S
C784 C785 1.390 . S
C785 C784 1.390 . S
C785 C786 1.394 . S
C785 C791 1.465 . S
C786 C781 1.399 . S
C786 C785 1.394 . S
C786 C787 1.516 . S
C787 C786 1.516 . S
C787 C788 1.502 . S
C787 C789 1.561 . S
C787 C790 1.526 . S
C788 H772 0.959 . S
C788 H773 0.959 . S
C788 H774 0.961 . S
C788 C787 1.502 . S
C789 H775 0.960 . S
C789 H776 0.961 . S
C789 H777 0.959 . S
C789 C787 1.561 . S
C790 C787 1.526 . S
C790 C791 1.396 . S
C790 C795 1.390 . S
C791 C785 1.465 . S
C791 C790 1.396 . S
C791 C792 1.399 . S
C792 H778 0.929 . S
C792 C791 1.399 . S
C792 C793 1.385 . S
C793 H779 0.931 . S
C793 C792 1.385 . S
C793 C794 1.389 . S
C794 C793 1.389 . S
C794 C795 1.387 . S
C795 H780 0.930 . S
C795 C790 1.390 . S
C795 C794 1.387 . S
H796 C808 0.930 . S
H797 C810 0.930 . S
H798 C811 0.930 . S
H799 C815 0.959 . S
H800 C815 0.959 . S
H801 C815 0.961 . S
H802 C816 0.960 . S
H803 C816 0.961 . S
H804 C816 0.959 . S
H805 C819 0.929 . S
H806 C820 0.931 . S
H807 C822 0.930 . S
C808 H796 0.930 . S
C808 C809 1.399 1_455 S
C808 C813 1.399 . S
C809 C808 1.399 1_655 S
C809 C810 1.376 . S
C810 H797 0.930 . S
C810 C809 1.376 . S
C810 C811 1.388 . S
C811 H798 0.930 . S
C811 C810 1.388 . S
C811 C812 1.388 . S
C812 C811 1.388 . S
C812 C813 1.395 1_655 S
C812 C818 1.466 1_655 S
C813 C808 1.399 . S
C813 C812 1.395 1_455 S
C813 C814 1.516 . S
C814 C813 1.516 . S
C814 C815 1.502 . S
C814 C816 1.561 1_554 S
C814 C817 1.526 1_554 S
C815 H799 0.959 . S
C815 H800 0.959 . S
C815 H801 0.961 . S
C815 C814 1.502 . S
C816 H802 0.960 . S
C816 H803 0.961 . S
C816 H804 0.959 . S
C816 C814 1.561 1_556 S
C817 C814 1.526 1_556 S
C817 C818 1.396 1_556 S
C817 C822 1.390 . S
C818 C812 1.466 1_455 S
C818 C817 1.396 1_554 S
C818 C819 1.399 1_454 S
C819 H805 0.929 . S
C819 C818 1.399 1_656 S
C819 C820 1.385 1_655 S
C820 H806 0.931 . S
C820 C819 1.385 1_455 S
C820 C821 1.389 . S
C821 C820 1.389 . S
C821 C822 1.387 . S
C822 H807 0.930 . S
C822 C817 1.390 . S
C822 C821 1.387 . S
H823 C835 0.930 . S
H824 C837 0.930 . S
H825 C838 0.935 . S
H826 C842 0.959 . S
H827 C842 0.959 . S
H828 C842 0.961 . S
H829 C843 0.960 . S
H830 C843 0.961 1_556 S
H831 C843 0.959 1_556 S
H832 C846 0.972 . S
H833 C847 0.931 . S
H834 C849 0.930 . S
C835 H823 0.930 . S
C835 C836 1.399 1_545 S
C835 C840 1.399 . S
C836 C835 1.399 1_565 S
C836 C837 1.376 . S
C837 H824 0.930 . S
C837 C836 1.376 . S
C837 C838 1.388 . S
C838 H825 0.935 . S
C838 C837 1.388 . S
C838 C839 1.390 1_565 S
C839 C838 1.390 1_545 S
C839 C840 1.394 . S
C839 C845 1.465 1_554 S
C840 C835 1.399 . S
C840 C839 1.394 . S
C840 C841 1.516 . S
C841 C840 1.516 . S
C841 C842 1.502 . S
C841 C843 1.561 . S
C841 C844 1.526 . S
C842 H826 0.959 . S
C842 H827 0.959 . S
C842 H828 0.961 . S
C842 C841 1.502 . S
C843 H829 0.960 . S
C843 H830 0.961 1_554 S
C843 H831 0.959 1_554 S
C843 C841 1.561 . S
C844 C841 1.526 . S
C844 C845 1.396 1_554 S
C844 C849 1.390 1_554 S
C845 C839 1.465 1_556 S
C845 C844 1.396 1_556 S
C845 C846 1.379 1_545 S
C846 H832 0.972 . S
C846 C845 1.379 1_565 S
C846 C847 1.362 1_565 S
C847 H833 0.931 . S
C847 C846 1.362 1_545 S
C847 C848 1.389 . S
C848 C847 1.389 . S
C848 C849 1.387 . S
C849 H834 0.930 . S
C849 C844 1.390 1_556 S
C849 C848 1.387 . S
H850 C862 0.930 . S
H851 C864 0.930 . S
H852 C865 0.930 . S
H853 C869 0.959 . S
H854 C869 0.959 . S
H855 C869 0.961 . S
H856 C870 0.960 . S
H857 C870 0.961 . S
H858 C870 0.959 . S
H859 C873 0.929 . S
H860 C874 0.931 . S
H861 C876 0.930 . S
C862 H850 0.930 . S
C862 C863 1.399 . S
C862 C867 1.399 . S
C863 C862 1.399 . S
C863 C864 1.376 . S
C864 H851 0.930 . S
C864 C863 1.376 . S
C864 C865 1.388 1_554 S
C865 H852 0.930 . S
C865 C864 1.388 1_556 S
C865 C866 1.390 1_556 S
C866 C865 1.390 1_554 S
C866 C867 1.394 . S
C866 C872 1.465 1_554 S
C867 C862 1.399 . S
C867 C866 1.394 . S
C867 C868 1.516 . S
C868 C867 1.516 . S
C868 C869 1.502 . S
C868 C870 1.561 . S
C868 C871 1.526 . S
C869 H853 0.959 . S
C869 H854 0.959 . S
C869 H855 0.961 . S
C869 C868 1.502 . S
C870 H856 0.960 . S
C870 H857 0.961 . S
C870 H858 0.959 . S
C870 C868 1.561 . S
C871 C868 1.526 . S
C871 C872 1.396 1_554 S
C871 C876 1.390 . S
C872 C866 1.465 1_556 S
C872 C871 1.396 1_556 S
C872 C873 1.399 . S
C873 H859 0.929 . S
C873 C872 1.399 . S
C873 C874 1.385 . S
C874 H860 0.931 . S
C874 C873 1.385 . S
C874 C875 1.389 . S
C875 C874 1.389 . S
C875 C876 1.387 1_556 S
C876 H861 0.930 . S
C876 C871 1.390 . S
C876 C875 1.387 1_554 S
H877 C889 0.930 . S
H878 C891 0.930 . S
H879 C892 0.930 . S
H880 C896 0.959 . S
H881 C896 0.959 . S
H882 C896 0.961 . S
H883 C897 0.960 . S
H884 C897 0.961 . S
H885 C897 0.959 . S
H886 C900 0.929 . S
H887 C901 0.931 . S
H888 C903 0.930 . S
C889 H877 0.930 . S
C889 C890 1.399 . S
C889 C894 1.399 . S
C890 C889 1.399 . S
C890 C891 1.376 . S
C891 H878 0.930 . S
C891 C890 1.376 . S
C891 C892 1.388 . S
C892 H879 0.930 . S
C892 C891 1.388 . S
C892 C893 1.390 . S
C893 C892 1.390 . S
C893 C894 1.394 . S
C893 C899 1.465 . S
C894 C889 1.399 . S
C894 C893 1.394 . S
C894 C895 1.516 . S
C895 C894 1.516 . S
C895 C896 1.502 1_554 S
C895 C897 1.561 . S
C895 C898 1.526 . S
C896 H880 0.959 . S
C896 H881 0.959 . S
C896 H882 0.961 . S
C896 C895 1.502 1_556 S
C897 H883 0.960 . S
C897 H884 0.961 . S
C897 H885 0.959 . S
C897 C895 1.561 . S
C898 C895 1.526 . S
C898 C899 1.396 . S
C898 C903 1.390 1_554 S
C899 C893 1.465 . S
C899 C898 1.396 . S
C899 C900 1.399 . S
C900 H886 0.929 . S
C900 C899 1.399 . S
C900 C901 1.385 1_554 S
C901 H887 0.931 . S
C901 C900 1.385 1_556 S
C901 C902 1.389 . S
C902 C901 1.389 . S
C902 C903 1.387 . S
C903 H888 0.930 . S
C903 C898 1.390 1_556 S
C903 C902 1.387 . S
H904 C916 0.926 1_655 S
H905 C918 0.930 . S
H906 C919 0.930 . S
H907 C923 0.959 . S
H908 C923 0.959 . S
H909 C923 0.961 . S
H910 C924 0.960 . S
H911 C924 0.961 . S
H912 C924 0.959 . S
H913 C927 0.929 . S
H914 C928 0.931 . S
H915 C930 0.917 1_655 S
C916 H904 0.926 1_455 S
C916 C917 1.402 . S
C916 C921 1.401 . S
C917 C916 1.402 . S
C917 C918 1.376 . S
C918 H905 0.930 . S
C918 C917 1.376 . S
C918 C919 1.388 . S
C919 H906 0.930 . S
C919 C918 1.388 . S
C919 C920 1.390 . S
C920 C919 1.390 . S
C920 C921 1.394 . S
C920 C926 1.465 . S
C921 C916 1.401 . S
C921 C920 1.394 . S
C921 C922 1.515 . S
C922 C921 1.515 . S
C922 C923 1.506 1_455 S
C922 C924 1.558 . S
C922 C925 1.525 . S
C923 H907 0.959 . S
C923 H908 0.959 . S
C923 H909 0.961 . S
C923 C922 1.506 1_655 S
C924 H910 0.960 . S
C924 H911 0.961 . S
C924 H912 0.959 . S
C924 C922 1.558 . S
C925 C922 1.525 . S
C925 C926 1.396 . S
C925 C930 1.390 . S
C926 C920 1.465 . S
C926 C925 1.396 . S
C926 C927 1.399 . S
C927 H913 0.929 . S
C927 C926 1.399 . S
C927 C928 1.385 . S
C928 H914 0.931 . S
C928 C927 1.385 . S
C928 C929 1.389 . S
C929 C928 1.389 . S
C929 C930 1.387 . S
C930 H915 0.917 1_455 S
C930 C925 1.390 . S
C930 C929 1.387 . S
H931 C943 0.930 . S
H932 C945 0.930 . S
H933 C946 0.930 . S
H934 C950 0.959 . S
H935 C950 0.959 . S
H936 C950 0.961 . S
H937 C951 0.960 . S
H938 C951 0.961 . S
H939 C951 0.959 . S
H940 C954 0.929 . S
H941 C955 0.931 . S
H942 C957 0.930 . S
C943 H931 0.930 . S
C943 C944 1.399 . S
C943 C948 1.399 . S
C944 C943 1.399 . S
C944 C945 1.376 . S
C945 H932 0.930 . S
C945 C944 1.376 . S
C945 C946 1.388 . S
C946 H933 0.930 . S
C946 C945 1.388 . S
C946 C947 1.390 . S
C947 C946 1.390 . S
C947 C948 1.394 . S
C947 C953 1.465 . S
C948 C943 1.399 . S
C948 C947 1.394 . S
C948 C949 1.516 . S
C949 C948 1.516 . S
C949 C950 1.502 1_545 S
C949 C951 1.561 . S
C949 C952 1.526 . S
C950 H934 0.959 . S
C950 H935 0.959 . S
C950 H936 0.961 . S
C950 C949 1.502 1_565 S
C951 H937 0.960 . S
C951 H938 0.961 . S
C951 H939 0.959 . S
C951 C949 1.561 . S
C952 C949 1.526 . S
C952 C953 1.396 . S
C952 C957 1.390 . S
C953 C947 1.465 . S
C953 C952 1.396 . S
C953 C954 1.399 . S
C954 H940 0.929 . S
C954 C953 1.399 . S
C954 C955 1.385 . S
C955 H941 0.931 . S
C955 C954 1.385 . S
C955 C956 1.389 . S
C956 C955 1.389 . S
C956 C957 1.387 . S
C957 H942 0.930 . S
C957 C952 1.390 . S
C957 C956 1.387 . S
H958 C970 0.930 . S
H959 C972 0.930 . S
H960 C973 0.930 . S
H961 C977 0.959 . S
H962 C977 0.959 . S
H963 C977 0.961 . S
H964 C978 0.960 . S
H965 C978 0.961 . S
H966 C978 0.959 . S
H967 C981 0.929 . S
H968 C982 0.931 . S
H969 C984 0.930 . S
C970 H958 0.930 . S
C970 C971 1.399 . S
C970 C975 1.399 . S
C971 C970 1.399 . S
C971 C972 1.376 . S
C972 H959 0.930 . S
C972 C971 1.376 . S
C972 C973 1.388 . S
C973 H960 0.930 . S
C973 C972 1.388 . S
C973 C974 1.390 . S
C974 C973 1.390 . S
C974 C975 1.394 . S
C974 C980 1.465 . S
C975 C970 1.399 . S
C975 C974 1.394 . S
C975 C976 1.516 . S
C976 C975 1.516 . S
C976 C977 1.502 . S
C976 C978 1.561 . S
C976 C979 1.526 . S
C977 H961 0.959 . S
C977 H962 0.959 . S
C977 H963 0.961 . S
C977 C976 1.502 . S
C978 H964 0.960 . S
C978 H965 0.961 . S
C978 H966 0.959 . S
C978 C976 1.561 . S
C979 C976 1.526 . S
C979 C980 1.396 . S
C979 C984 1.390 . S
C980 C974 1.465 . S
C980 C979 1.396 . S
C980 C981 1.399 . S
C981 H967 0.929 . S
C981 C980 1.399 . S
C981 C982 1.385 . S
C982 H968 0.931 . S
C982 C981 1.385 . S
C982 C983 1.389 . S
C983 C982 1.389 . S
C983 C984 1.387 . S
C984 H969 0.930 . S
C984 C979 1.390 . S
C984 C983 1.387 . S
H985 C997 0.930 . S
H986 C999 0.930 . S
H987 C1000 0.930 . S
H988 C1004 0.959 . S
H989 C1004 0.959 . S
H990 C1004 0.961 . S
H991 C1005 0.960 . S
H992 C1005 0.961 . S
H993 C1005 0.959 . S
H994 C1008 0.929 . S
H995 C1009 0.931 . S
H996 C1011 0.930 . S
C997 H985 0.930 . S
C997 C998 1.399 . S
C997 C1002 1.399 . S
C998 C997 1.399 . S
C998 C999 1.376 . S
C999 H986 0.930 . S
C999 C998 1.376 . S
C999 C1000 1.388 . S
C1000 H987 0.930 . S
C1000 C999 1.388 . S
C1000 C1001 1.390 . S
C1001 C1000 1.390 . S
C1001 C1002 1.394 . S
C1001 C1007 1.465 . S
C1002 C997 1.399 . S
C1002 C1001 1.394 . S
C1002 C1003 1.516 . S
C1003 C1002 1.516 . S
C1003 C1004 1.502 . S
C1003 C1005 1.561 . S
C1003 C1006 1.526 . S
C1004 H988 0.959 . S
C1004 H989 0.959 . S
C1004 H990 0.961 . S
C1004 C1003 1.502 . S
C1005 H991 0.960 . S
C1005 H992 0.961 . S
C1005 H993 0.959 . S
C1005 C1003 1.561 . S
C1006 C1003 1.526 . S
C1006 C1007 1.396 . S
C1006 C1011 1.390 . S
C1007 C1001 1.465 . S
C1007 C1006 1.396 . S
C1007 C1008 1.399 . S
C1008 H994 0.929 . S
C1008 C1007 1.399 . S
C1008 C1009 1.385 . S
C1009 H995 0.931 . S
C1009 C1008 1.385 . S
C1009 C1010 1.389 . S
C1010 C1009 1.389 . S
C1010 C1011 1.387 . S
C1011 H996 0.930 . S
C1011 C1006 1.390 . S
C1011 C1010 1.387 . S
H1012 C1024 0.930 . S
H1013 C1026 0.930 . S
H1014 C1027 0.930 . S
H1015 C1031 0.959 . S
H1016 C1031 0.959 . S
H1017 C1031 0.961 . S
H1018 C1032 0.960 . S
H1019 C1032 0.961 . S
H1020 C1032 0.959 1_455 S
H1021 C1035 0.929 . S
H1022 C1036 0.931 . S
H1023 C1038 0.930 . S
C1024 H1012 0.930 . S
C1024 C1025 1.399 . S
C1024 C1029 1.399 . S
C1025 C1024 1.399 . S
C1025 C1026 1.376 1_655 S
C1026 H1013 0.930 . S
C1026 C1025 1.376 1_455 S
C1026 C1027 1.388 . S
C1027 H1014 0.930 . S
C1027 C1026 1.388 . S
C1027 C1028 1.408 . S
C1028 C1027 1.408 . S
C1028 C1029 1.374 1_455 S
C1028 C1034 1.462 1_455 S
C1029 C1024 1.399 . S
C1029 C1028 1.374 1_655 S
C1029 C1030 1.516 . S
C1030 C1029 1.516 . S
C1030 C1031 1.502 . S
C1030 C1032 1.561 . S
C1030 C1033 1.526 . S
C1031 H1015 0.959 . S
C1031 H1016 0.959 . S
C1031 H1017 0.961 . S
C1031 C1030 1.502 . S
C1032 H1018 0.960 . S
C1032 H1019 0.961 . S
C1032 H1020 0.959 1_655 S
C1032 C1030 1.561 . S
C1033 C1030 1.526 . S
C1033 C1034 1.414 . S
C1033 C1038 1.390 . S
C1034 C1028 1.462 1_655 S
C1034 C1033 1.414 . S
C1034 C1035 1.387 1_655 S
C1035 H1021 0.929 . S
C1035 C1034 1.387 1_455 S
C1035 C1036 1.385 . S
C1036 H1022 0.931 . S
C1036 C1035 1.385 . S
C1036 C1037 1.389 1_455 S
C1037 C1036 1.389 1_655 S
C1037 C1038 1.387 . S
C1038 H1023 0.930 . S
C1038 C1033 1.390 . S
C1038 C1037 1.387 . S
H1039 C1051 0.930 . S
H1040 C1053 0.930 . S
H1041 C1054 0.930 . S
H1042 C1058 0.959 . S
H1043 C1058 0.959 . S
H1044 C1058 0.961 . S
H1045 C1059 0.960 . S
H1046 C1059 0.961 . S
H1047 C1059 0.959 . S
H1048 C1062 0.929 . S
H1049 C1063 0.931 . S
H1050 C1065 0.930 . S
C1051 H1039 0.930 . S
C1051 C1052 1.399 . S
C1051 C1056 1.399 . S
C1052 C1051 1.399 . S
C1052 C1053 1.376 1_565 S
C1053 H1040 0.930 . S
C1053 C1052 1.376 1_545 S
C1053 C1054 1.388 . S
C1054 H1041 0.930 . S
C1054 C1053 1.388 . S
C1054 C1055 1.390 . S
C1055 C1054 1.390 . S
C1055 C1056 1.394 1_545 S
C1055 C1061 1.465 . S
C1056 C1051 1.399 . S
C1056 C1055 1.394 1_565 S
C1056 C1057 1.516 . S
C1057 C1056 1.516 . S
C1057 C1058 1.502 . S
C1057 C1059 1.561 . S
C1057 C1060 1.526 . S
C1058 H1042 0.959 . S
C1058 H1043 0.959 . S
C1058 H1044 0.961 . S
C1058 C1057 1.502 . S
C1059 H1045 0.960 . S
C1059 H1046 0.961 . S
C1059 H1047 0.959 . S
C1059 C1057 1.561 . S
C1060 C1057 1.526 . S
C1060 C1061 1.396 1_565 S
C1060 C1065 1.390 . S
C1061 C1055 1.465 . S
C1061 C1060 1.396 1_545 S
C1061 C1062 1.399 . S
C1062 H1048 0.929 . S
C1062 C1061 1.399 . S
C1062 C1063 1.385 . S
C1063 H1049 0.931 . S
C1063 C1062 1.385 . S
C1063 C1064 1.389 1_545 S
C1064 C1063 1.389 1_565 S
C1064 C1065 1.387 . S
C1065 H1050 0.930 . S
C1065 C1060 1.390 . S
C1065 C1064 1.387 . S
H1066 C1078 0.930 . S
H1067 C1080 0.930 . S
H1068 C1081 0.930 . S
H1069 C1085 0.959 . S
H1070 C1085 0.959 . S
H1071 C1085 0.961 . S
H1072 C1086 0.960 . S
H1073 C1086 0.961 . S
H1074 C1086 0.959 . S
H1075 C1089 0.929 . S
H1076 C1090 0.931 . S
H1077 C1092 0.930 . S
C1078 H1066 0.930 . S
C1078 C1079 1.399 . S
C1078 C1083 1.399 . S
C1079 C1078 1.399 . S
C1079 C1080 1.376 . S
C1080 H1067 0.930 . S
C1080 C1079 1.376 . S
C1080 C1081 1.388 . S
C1081 H1068 0.930 . S
C1081 C1080 1.388 . S
C1081 C1082 1.390 . S
C1082 C1081 1.390 . S
C1082 C1083 1.394 . S
C1082 C1088 1.465 . S
C1083 C1078 1.399 . S
C1083 C1082 1.394 . S
C1083 C1084 1.516 . S
C1084 C1083 1.516 . S
C1084 C1085 1.502 . S
C1084 C1086 1.561 . S
C1084 C1087 1.526 . S
C1085 H1069 0.959 . S
C1085 H1070 0.959 . S
C1085 H1071 0.961 . S
C1085 C1084 1.502 . S
C1086 H1072 0.960 . S
C1086 H1073 0.961 . S
C1086 H1074 0.959 . S
C1086 C1084 1.561 . S
C1087 C1084 1.526 . S
C1087 C1088 1.396 . S
C1087 C1092 1.390 . S
C1088 C1082 1.465 . S
C1088 C1087 1.396 . S
C1088 C1089 1.399 . S
C1089 H1075 0.929 . S
C1089 C1088 1.399 . S
C1089 C1090 1.385 . S
C1090 H1076 0.931 . S
C1090 C1089 1.385 . S
C1090 C1091 1.389 . S
C1091 C1090 1.389 . S
C1091 C1092 1.387 . S
C1092 H1077 0.930 . S
C1092 C1087 1.390 . S
C1092 C1091 1.387 . S
H1093 C1105 0.930 . S
H1094 C1107 0.930 . S
H1095 C1108 0.930 . S
H1096 C1112 0.959 . S
H1097 C1112 0.959 . S
H1098 C1112 0.961 . S
H1099 C1113 0.960 . S
H1100 C1113 0.961 . S
H1101 C1113 0.959 . S
H1102 C1116 0.929 . S
H1103 C1117 0.931 . S
H1104 C1119 0.930 . S
C1105 H1093 0.930 . S
C1105 C1106 1.399 . S
C1105 C1110 1.399 . S
C1106 C1105 1.399 . S
C1106 C1107 1.376 . S
C1107 H1094 0.930 . S
C1107 C1106 1.376 . S
C1107 C1108 1.388 . S
C1108 H1095 0.930 . S
C1108 C1107 1.388 . S
C1108 C1109 1.390 . S
C1109 C1108 1.390 . S
C1109 C1110 1.394 . S
C1109 C1115 1.465 . S
C1110 C1105 1.399 . S
C1110 C1109 1.394 . S
C1110 C1111 1.516 . S
C1111 C1110 1.516 . S
C1111 C1112 1.502 . S
C1111 C1113 1.561 . S
C1111 C1114 1.526 . S
C1112 H1096 0.959 . S
C1112 H1097 0.959 . S
C1112 H1098 0.961 . S
C1112 C1111 1.502 . S
C1113 H1099 0.960 . S
C1113 H1100 0.961 . S
C1113 H1101 0.959 . S
C1113 C1111 1.561 . S
C1114 C1111 1.526 . S
C1114 C1115 1.396 . S
C1114 C1119 1.390 . S
C1115 C1109 1.465 . S
C1115 C1114 1.396 . S
C1115 C1116 1.399 . S
C1116 H1102 0.929 . S
C1116 C1115 1.399 . S
C1116 C1117 1.385 . S
C1117 H1103 0.931 . S
C1117 C1116 1.385 . S
C1117 C1118 1.389 . S
C1118 C1117 1.389 . S
C1118 C1119 1.387 . S
C1119 H1104 0.930 . S
C1119 C1114 1.390 . S
C1119 C1118 1.387 . S
C485 C255 2.143 . S
C497 C322 2.361 . S
C524 C362 2.363 . S
C512 C294 2.120 . S
C551 C402 2.337 . S
C539 C177 2.198 . S
C578 C442 2.354 1_455 S
C566 C216 2.191 . S
C605 C331 2.357 1_565 S
C593 C99 2.194 . S
C620 C138 2.131 . S
C632 C371 2.372 . S
C647 C21 2.140 . S
C659 C411 2.345 . S
C674 C60 2.135 . S
C686 C451 2.354 1_655 S
C713 C328 0.461 . S
C701 C196 0.562 . S
C740 C368 0.482 . S
C728 C235 0.565 . S
C767 C408 0.348 . S
C755 C289 0.522 . S
C782 C157 0.465 . S
C794 C448 0.589 . S
C809 C40 0.539 . S
C821 C319 0.351 . S
C848 C359 0.368 . S
C836 C79 0.561 . S
C875 C399 0.502 . S
C863 C133 0.492 . S
C890 C1 0.358 . S
C902 C439 0.602 . S
C917 C211 2.781 . S
C929 C323 3.225 . S
C944 C250 2.765 . S
C956 C363 3.215 . S
C983 C403 3.222 . S
C971 C274 2.779 . S
C1010 C443 3.212 . S
C998 C172 2.831 . S
C1025 C55 2.785 . S
C1037 C314 3.212 . S
C1064 C354 3.195 . S
C1052 C94 2.819 . S
C1091 C394 3.216 . S
C1079 C118 2.833 . S
C1106 C16 2.812 . S
C1118 C434 3.215 . S
