# Generated by pormake.
# Topology anh, (6,3)-cn, num edge types: 1
# Building blocks:
#     Node 0, Type 0, BuildingBlock: HISSIN_clean_sbu_0, # of connection points: 6
#     Node 1, Type 0, BuildingBlock: HISSIN_clean_sbu_0, # of connection points: 6
#     Node 2, Type 0, BuildingBlock: HISSIN_clean_sbu_0, # of connection points: 6
#     Node 3, Type 1, BuildingBlock: CUQRIR_clean_linker_1, # of connection points: 3
#     Node 4, Type 1, BuildingBlock: CUQRIR_clean_linker_1, # of connection points: 3
#     Node 5, Type 1, BuildingBlock: CUQRIR_clean_linker_1, # of connection points: 3
#     Node 6, Type 1, BuildingBlock: CUQRIR_clean_linker_1, # of connection points: 3
#     Node 7, Type 1, BuildingBlock: CUQRIR_clean_linker_1, # of connection points: 3
#     Node 8, Type 1, BuildingBlock: CUQRIR_clean_linker_1, # of connection points: 3
#     Edge 9, Type (0, 1), BuildingBlock: MIFKUJ_clean_linker_0, # of connection points: 2
#     Edge 10, Type (0, 1), BuildingBlock: MIFKUJ_clean_linker_0, # of connection points: 2
#     Edge 11, Type (0, 1), BuildingBlock: MIFKUJ_clean_linker_0, # of connection points: 2
#     Edge 12, Type (0, 1), BuildingBlock: MIFKUJ_clean_linker_0, # of connection points: 2
#     Edge 13, Type (0, 1), BuildingBlock: MIFKUJ_clean_linker_0, # of connection points: 2
#     Edge 14, Type (0, 1), BuildingBlock: MIFKUJ_clean_linker_0, # of connection points: 2
#     Edge 15, Type (0, 1), BuildingBlock: MIFKUJ_clean_linker_0, # of connection points: 2
#     Edge 16, Type (0, 1), BuildingBlock: MIFKUJ_clean_linker_0, # of connection points: 2
#     Edge 17, Type (0, 1), BuildingBlock: MIFKUJ_clean_linker_0, # of connection points: 2
#     Edge 18, Type (0, 1), BuildingBlock: MIFKUJ_clean_linker_0, # of connection points: 2
#     Edge 19, Type (0, 1), BuildingBlock: MIFKUJ_clean_linker_0, # of connection points: 2
#     Edge 20, Type (0, 1), BuildingBlock: MIFKUJ_clean_linker_0, # of connection points: 2
#     Edge 21, Type (0, 1), BuildingBlock: MIFKUJ_clean_linker_0, # of connection points: 2
#     Edge 22, Type (0, 1), BuildingBlock: MIFKUJ_clean_linker_0, # of connection points: 2
#     Edge 23, Type (0, 1), BuildingBlock: MIFKUJ_clean_linker_0, # of connection points: 2
#     Edge 24, Type (0, 1), BuildingBlock: MIFKUJ_clean_linker_0, # of connection points: 2
#     Edge 25, Type (0, 1), BuildingBlock: MIFKUJ_clean_linker_0, # of connection points: 2
#     Edge 26, Type (0, 1), BuildingBlock: MIFKUJ_clean_linker_0, # of connection points: 2
# Relax obj value: 0.224
# Max RMSD: 0.204
# Mean RMSD: 0.155
data_MOF--net-anh--node1-HISSIN_clean_sbu_0--node2-CUQRIR_clean_linker_1--edge1-MIFKUJ_clean_linker_0
_symmetry_space_group_name_H-M    P1
_symmetry_Int_Tables_number       1
_symmetry_cell_setting            triclinic
loop_
_symmetry_equiv_pos_as_xyz
'x, y, z'
_cell_length_a     36.919115
_cell_length_b     36.781349
_cell_length_c     61.819966
_cell_angle_alpha  89.74386
_cell_angle_beta   91.286088
_cell_angle_gamma 120.33854
loop_
_atom_site_label
_atom_site_type_symbol
_atom_site_fract_x
_atom_site_fract_y
_atom_site_fract_z
_atom_type_partial_charge
Eu0 Eu 1.07406 0.49213 0.15912 0.0
Eu1 Eu 0.11927 0.59344 0.15838 0.0
C2 C 1.09154 0.54308 0.20325 0.0
C3 C 1.01295 0.38445 0.18248 0.0
C4 C 1.0268 0.39612 0.20408 0.0
C5 C 0.94582 0.32939 0.19521 0.0
C6 C 0.99995 0.37526 0.22107 0.0
C7 C 0.97279 0.35008 0.17823 0.0
C8 C 0.95863 0.34267 0.2168 0.0
C9 C 1.03802 0.41093 0.16449 0.0
O10 O 0.17242 0.58179 0.14983 0.0
O11 O 0.14428 0.51618 0.16453 0.0
C12 C 0.17668 0.55005 0.15653 0.0
O13 O 1.09614 0.50691 0.12525 0.0
O14 O 0.1683 0.65585 0.16911 0.0
O15 O 0.11773 0.64937 0.14792 0.0
O16 O 1.10356 0.57266 0.12331 0.0
C17 C 1.10059 0.53912 0.11402 0.0
O18 O 1.02293 0.50679 0.14778 0.0
O19 O 1.05042 0.5701 0.16503 0.0
O20 O 0.12118 0.5763 0.19352 0.0
O21 O 1.02103 0.42855 0.15303 0.0
O22 O 1.07751 0.43705 0.16896 0.0
O23 O 1.06395 0.51032 0.19203 0.0
C24 C 0.1834 0.71279 0.14526 0.0
C25 C 0.16841 0.73404 0.13227 0.0
C26 C 0.25479 0.76926 0.13925 0.0
C27 C 0.19628 0.773 0.12326 0.0
C28 C 0.22693 0.73024 0.14817 0.0
C29 C 0.23972 0.79171 0.12726 0.0
C30 C 0.15346 0.67533 0.15749 0.0
C31 C 1.01834 0.53781 0.15523 0.0
H32 H 1.05764 0.4227 0.20789 0.0
H33 H 0.91396 0.30497 0.19123 0.0
H34 H 1.01089 0.38603 0.23749 0.0
H35 H 0.96141 0.34077 0.16171 0.0
H36 H 0.13499 0.72137 0.1298 0.0
H37 H 0.28799 0.78296 0.14293 0.0
H38 H 0.18371 0.78927 0.11391 0.0
H39 H 0.23954 0.71478 0.15817 0.0
Eu40 Eu 0.66603 1.05301 0.48876 0.0
Eu41 Eu 0.6212 0.10925 0.49323 0.0
C42 C 0.64534 0.07518 0.53647 0.0
C43 C 0.70783 0.97805 0.49715 0.0
C44 C 0.69202 0.96731 0.51809 0.0
C45 C 0.73659 0.93207 0.50055 0.0
C46 C 0.69878 0.93912 0.53032 0.0
C47 C 0.72986 0.96016 0.4884 0.0
C48 C 0.72127 0.92134 0.52165 0.0
C49 C 0.70324 1.0092 0.48456 0.0
O50 O 0.69094 0.15773 0.4966 0.0
O51 O 0.71777 0.12004 0.48122 0.0
C52 C 0.72248 0.1561 0.48806 0.0
O53 O 0.63976 1.05472 0.45563 0.0
O54 O 0.60891 0.15543 0.50823 0.0
O55 O 0.57879 0.12691 0.47754 0.0
O56 O 0.64905 0.11983 0.46038 0.0
C57 C 0.64363 0.08939 0.44756 0.0
O58 O 0.5996 1.00509 0.49809 0.0
O59 O 0.56761 1.04174 0.48699 0.0
O60 O 0.62157 0.08864 0.52759 0.0
O61 O 0.66581 0.99725 0.47668 0.0
O62 O 0.72137 1.04696 0.49293 0.0
O63 O 0.66769 1.06406 0.52485 0.0
C64 C 0.60954 0.19993 0.48107 0.0
C65 C 0.59353 0.22702 0.48298 0.0
C66 C 0.67207 0.25591 0.46475 0.0
C67 C 0.61726 0.2689 0.47612 0.0
C68 C 0.64801 0.2142 0.47106 0.0
C69 C 0.65794 0.28455 0.46792 0.0
C70 C 0.58928 0.1581 0.49099 0.0
C71 C 0.56545 1.00595 0.49244 0.0
H72 H 0.67496 0.98111 0.52502 0.0
H73 H 0.75478 0.91958 0.49359 0.0
H74 H 0.68651 0.93128 0.54648 0.0
H75 H 0.74248 0.96849 0.47231 0.0
H76 H 0.56351 0.21628 0.49039 0.0
H77 H 0.70301 0.26586 0.45881 0.0
H78 H 0.60429 0.28924 0.47811 0.0
H79 H 0.66077 0.19366 0.46925 0.0
Eu80 Eu 0.6424 0.632 0.82545 0.0
Eu81 Eu 0.74493 0.68839 0.8302 0.0
C82 C 0.68867 0.6574 0.8734 0.0
C83 C 0.52493 0.59584 0.828 0.0
C84 C 0.51129 0.58726 0.84945 0.0
C85 C 0.46642 0.60622 0.81888 0.0
C86 C 0.47513 0.58739 0.85544 0.0
C87 C 0.50247 0.60588 0.81287 0.0
C88 C 0.45186 0.59612 0.84013 0.0
C89 C 0.56075 0.59195 0.82089 0.0
O90 O 0.73096 0.62107 0.8228 0.0
O91 O 0.66021 0.58149 0.82882 0.0
C92 C 0.69645 0.58407 0.82515 0.0
O93 O 0.66707 0.62274 0.79416 0.0
O94 O 0.80603 0.69953 0.8419 0.0
O95 O 0.803 0.74167 0.81852 0.0
O96 O 0.72481 0.68772 0.79566 0.0
C97 C 0.69947 0.65349 0.78476 0.0
O98 O 0.65955 0.70068 0.82023 0.0
O99 O 0.72591 0.73759 0.83535 0.0
O100 O 0.72613 0.67478 0.865 0.0
O101 O 0.586 0.61978 0.80715 0.0
O102 O 0.58082 0.58291 0.8356 0.0
O103 O 0.65404 0.64321 0.86151 0.0
C104 C 0.84972 0.71789 0.81231 0.0
C105 C 0.82663 0.68646 0.79683 0.0
C106 C 0.91292 0.71856 0.80164 0.0
C107 C 0.84594 0.66977 0.78463 0.0
C108 C 0.8932 0.73486 0.81429 0.0
C109 C 0.88912 0.68455 0.78723 0.0
C110 C 0.82644 0.72845 0.82752 0.0
C111 C 0.69223 0.73658 0.82698 0.0
H112 H 0.5278 0.57926 0.86151 0.0
H113 H 0.44945 0.61354 0.80678 0.0
H114 H 0.46445 0.57884 0.87184 0.0
H115 H 0.51226 0.61254 0.79622 0.0
H116 H 0.79296 0.6728 0.79511 0.0
H117 H 0.94633 0.73118 0.80394 0.0
H118 H 0.82599 0.64288 0.77451 0.0
H119 H 0.9115 0.75929 0.82617 0.0
C120 C 0.54027 0.20518 0.21208 0.0
N121 N 0.55342 0.20711 0.23284 0.0
N122 N 0.49973 0.17407 0.2093 0.0
C123 C 0.56862 0.23034 0.19401 0.0
C124 C 0.48853 0.15792 0.22946 0.0
N125 N 0.52134 0.17742 0.24367 0.0
C126 C 0.44619 0.1211 0.23481 0.0
H127 H 0.55046 0.22683 0.17884 0.0
H128 H 0.59144 0.21972 0.1912 0.0
H129 H 0.58679 0.26413 0.19866 0.0
H130 H 0.44233 0.09213 0.22713 0.0
H131 H 0.42105 0.12632 0.22822 0.0
H132 H 0.44203 0.11648 0.2525 0.0
C133 C 0.93846 0.68843 0.56201 0.0
N134 N 0.92354 0.70043 0.57864 0.0
N135 N 0.93287 0.64952 0.56515 0.0
C136 C 0.95258 0.7116 0.54092 0.0
C137 C 0.9182 0.64039 0.58556 0.0
N138 N 0.91212 0.6709 0.59365 0.0
C139 C 0.90069 0.59747 0.59545 0.0
H140 H 0.92708 0.69631 0.52847 0.0
H141 H 0.97978 0.70972 0.53505 0.0
H142 H 0.96147 0.74511 0.54281 0.0
H143 H 0.91326 0.57928 0.58749 0.0
H144 H 0.86596 0.58009 0.59351 0.0
H145 H 0.90856 0.60051 0.61302 0.0
C146 C 1.00404 0.42081 0.85801 0.0
N147 N 1.02297 0.42579 0.87764 0.0
N148 N 0.9641 0.41255 0.86008 0.0
C149 C 1.02694 0.43252 0.83693 0.0
C150 C 0.9596 0.41232 0.8818 0.0
N151 N 0.99549 0.421 0.89245 0.0
C152 C 0.92063 0.40581 0.89255 0.0
H153 H 1.02949 0.46217 0.83089 0.0
H154 H 1.0089 0.40755 0.82466 0.0
H155 H 1.05887 0.43694 0.83861 0.0
H156 H 0.89258 0.38702 0.88193 0.0
H157 H 0.92332 0.43671 0.8958 0.0
H158 H 0.91672 0.38962 0.90826 0.0
C159 C 0.14045 0.57948 0.46586 0.0
N160 N 0.11062 0.55316 0.4511 0.0
N161 N 0.16962 0.61605 0.45641 0.0
C162 C 0.14028 0.57012 0.4895 0.0
C163 C 0.15653 0.61064 0.43542 0.0
N164 N 0.12081 0.57304 0.43225 0.0
C165 C 0.18057 0.64088 0.41761 0.0
H166 H 0.10761 0.55244 0.49532 0.0
H167 H 0.15875 0.59955 0.4991 0.0
H168 H 0.15456 0.55009 0.49192 0.0
H169 H 0.21445 0.66027 0.42195 0.0
H170 H 0.16785 0.6622 0.41487 0.0
H171 H 0.17713 0.62381 0.40225 0.0
C172 C 0.68954 0.15591 0.79666 0.0
N173 N 0.68987 0.12726 0.78274 0.0
N174 N 0.69292 0.18994 0.78583 0.0
C175 C 0.68762 0.15143 0.82078 0.0
C176 C 0.69501 0.18067 0.76488 0.0
N177 N 0.69354 0.14314 0.76297 0.0
C178 C 0.69567 0.20725 0.74609 0.0
H179 H 0.65463 0.12954 0.82525 0.0
H180 H 0.69866 0.18224 0.82889 0.0
H181 H 0.70682 0.13769 0.82651 0.0
H182 H 0.72866 0.22823 0.7413 0.0
H183 H 0.68224 0.22717 0.75048 0.0
H184 H 0.67772 0.18722 0.73197 0.0
C185 C 0.60579 0.55963 0.13249 0.0
N186 N 0.6358 0.5643 0.11813 0.0
N187 N 0.57535 0.56528 0.12268 0.0
C188 C 0.60766 0.55293 0.15635 0.0
C189 C 0.58776 0.57325 0.10191 0.0
N190 N 0.62399 0.57305 0.09916 0.0
C191 C 0.56367 0.58013 0.08391 0.0
H192 H 0.59183 0.51862 0.15951 0.0
H193 H 0.5911 0.56603 0.16535 0.0
H194 H 0.64069 0.56782 0.16234 0.0
H195 H 0.57694 0.61448 0.08171 0.0
H196 H 0.5299 0.56554 0.08761 0.0
H197 H 0.56656 0.56671 0.06846 0.0
H198 H 0.19736 0.48956 0.16751 0.0
H199 H 0.26453 0.49212 0.16413 0.0
H200 H 0.31959 0.61778 0.13864 0.0
H201 H 0.25213 0.61501 0.14158 0.0
H202 H 0.34734 0.57806 0.11623 0.0
H203 H 0.33981 0.59257 0.19264 0.0
H204 H 0.30799 0.57309 0.22859 0.0
H205 H 0.30648 0.45577 0.22511 0.0
H206 H 0.33776 0.47429 0.18899 0.0
H207 H 0.55967 0.62965 0.12213 0.0
H208 H 0.49386 0.62723 0.13042 0.0
H209 H 0.44062 0.49812 0.15041 0.0
H210 H 0.50716 0.50091 0.14217 0.0
H211 H 0.41182 0.53826 0.17613 0.0
H212 H 0.41909 0.52387 0.0999 0.0
H213 H 0.45168 0.54352 0.06429 0.0
H214 H 0.45367 0.66115 0.0676 0.0
H215 H 0.42167 0.64241 0.10355 0.0
C216 C 0.22371 0.51793 0.16126 0.0
C217 C 0.2187 0.55213 0.15493 0.0
C218 C 0.26257 0.51948 0.15943 0.0
C219 C 0.29824 0.55543 0.15139 0.0
C220 C 0.29318 0.58952 0.14494 0.0
C221 C 0.25427 0.58796 0.14672 0.0
C222 C 0.34027 0.55726 0.14927 0.0
C223 C 0.36149 0.56993 0.12954 0.0
C224 C 0.3592 0.54572 0.16623 0.0
C225 C 0.34074 0.53464 0.18801 0.0
C226 C 0.33243 0.56249 0.19948 0.0
C227 C 0.31452 0.55164 0.21989 0.0
C228 C 0.30511 0.51317 0.2291 0.0
C229 C 0.31372 0.48553 0.21794 0.0
C230 C 0.33157 0.4962 0.19751 0.0
C231 C 0.53421 0.60098 0.12869 0.0
C232 C 0.53896 0.56553 0.13149 0.0
C233 C 0.49621 0.59942 0.13328 0.0
C234 C 0.46119 0.56219 0.1407 0.0
C235 C 0.46663 0.52732 0.14465 0.0
C236 C 0.50488 0.52892 0.14004 0.0
C237 C 0.41883 0.55938 0.14318 0.0
C238 C 0.39758 0.54647 0.16289 0.0
C239 C 0.3998 0.57076 0.12624 0.0
C240 C 0.41833 0.58189 0.10449 0.0
C241 C 0.4267 0.55404 0.09309 0.0
C242 C 0.44509 0.56504 0.07283 0.0
C243 C 0.45485 0.60364 0.06365 0.0
C244 C 0.44614 0.63128 0.07473 0.0
C245 C 0.42786 0.62048 0.09506 0.0
H246 H 0.46903 0.61211 0.04793 0.0
H247 H 0.29121 0.50482 0.24489 0.0
H248 H 0.73675 0.23697 0.48475 0.0
H249 H 0.80214 0.30165 0.47654 0.0
H250 H 0.86754 0.23229 0.47614 0.0
H251 H 0.80138 0.16684 0.48301 0.0
H252 H 0.91238 0.3065 0.49951 0.0
H253 H 0.84411 0.26583 0.42996 0.0
H254 H 0.7862 0.24524 0.40333 0.0
H255 H 0.79274 0.36403 0.41244 0.0
H256 H 0.84973 0.38483 0.43978 0.0
H257 H 0.10513 0.4798 0.46383 0.0
H258 H 1.0411 0.41137 0.46882 0.0
H259 H 0.96591 0.46767 0.45277 0.0
H260 H 1.03025 0.53509 0.44634 0.0
H261 H 0.92619 0.39703 0.43694 0.0
H262 H 0.98373 0.43646 0.50819 0.0
H263 H 1.03705 0.45969 0.53768 0.0
H264 H 1.04593 0.34873 0.52885 0.0
H265 H 0.99303 0.32511 0.49909 0.0
C266 C 0.76492 0.23531 0.48285 0.0
C267 C 0.76338 0.19631 0.48449 0.0
C268 C 0.8026 0.27258 0.47819 0.0
C269 C 0.84041 0.27245 0.47578 0.0
C270 C 0.83914 0.23367 0.47793 0.0
C271 C 0.80113 0.1961 0.48187 0.0
C272 C 0.88108 0.31262 0.47119 0.0
C273 C 0.91563 0.32587 0.48558 0.0
C274 C 0.88531 0.33914 0.4535 0.0
C275 C 0.85097 0.32672 0.43711 0.0
C276 C 0.83288 0.28739 0.42651 0.0
C277 C 0.80018 0.27566 0.4113 0.0
C278 C 0.78565 0.30324 0.4063 0.0
C279 C 0.80388 0.34264 0.41646 0.0
C280 C 0.83632 0.35437 0.43185 0.0
C281 C 1.07484 0.47738 0.46146 0.0
C282 C 1.07272 0.51289 0.4549 0.0
C283 C 1.03796 0.43819 0.46449 0.0
C284 C 0.99769 0.43359 0.46176 0.0
C285 C 0.99594 0.46946 0.45507 0.0
C286 C 1.03282 0.50829 0.45151 0.0
C287 C 0.95766 0.39176 0.46556 0.0
C288 C 0.92326 0.37785 0.45089 0.0
C289 C 0.953 0.36526 0.48342 0.0
C290 C 0.98486 0.37931 0.50124 0.0
C291 C 0.99732 0.41719 0.51242 0.0
C292 C 1.02741 0.4304 0.5292 0.0
C293 C 1.04497 0.40578 0.53508 0.0
C294 C 1.03237 0.36782 0.52424 0.0
C295 C 1.00233 0.3545 0.50742 0.0
H296 H 1.06826 0.41605 0.54809 0.0
H297 H 0.76039 0.29414 0.39449 0.0
H298 H 0.75909 0.8184 0.82761 0.0
H299 H 0.75903 0.88371 0.82029 0.0
H300 H 0.62427 0.81345 0.81219 0.0
H301 H 0.62457 0.74777 0.81842 0.0
H302 H 0.64861 0.86994 0.78428 0.0
H303 H 0.68473 0.8813 0.85969 0.0
H304 H 0.72438 0.8816 0.89241 0.0
H305 H 0.8371 0.98494 0.86727 0.0
H306 H 0.79821 0.98492 0.83428 0.0
H307 H 0.62862 1.05641 0.80166 0.0
H308 H 0.62894 0.99062 0.80939 0.0
H309 H 0.7532 1.04544 0.78389 0.0
H310 H 0.75207 0.11048 0.77544 0.0
H311 H 0.73356 0.99823 0.82921 0.0
H312 H 0.69376 0.98419 0.75317 0.0
H313 H 0.65035 0.98531 0.72259 0.0
H314 H 0.53959 0.88682 0.7519 0.0
H315 H 0.58234 0.88562 0.78289 0.0
C316 C 0.7293 0.81671 0.82446 0.0
C317 C 0.6918 0.77728 0.82386 0.0
C318 C 0.72922 0.85449 0.82035 0.0
C319 C 0.69152 0.85463 0.81604 0.0
C320 C 0.65402 0.81513 0.81544 0.0
C321 C 0.65418 0.77724 0.81916 0.0
C322 C 0.6912 0.89544 0.81185 0.0
C323 C 0.66693 0.89759 0.79441 0.0
C324 C 0.71518 0.93265 0.82461 0.0
C325 C 0.73864 0.93282 0.84443 0.0
C326 C 0.71803 0.9039 0.86109 0.0
C327 C 0.74036 0.90405 0.87968 0.0
C328 C 0.78325 0.9332 0.88189 0.0
C329 C 0.80389 0.96234 0.86553 0.0
C330 C 0.78171 0.9623 0.84688 0.0
C331 C 0.65598 1.05436 0.79779 0.0
C332 C 0.69039 0.08876 0.78802 0.0
C333 C 0.65619 1.01671 0.80218 0.0
C334 C 0.6912 1.01272 0.79737 0.0
C335 C 0.72585 1.04743 0.78791 0.0
C336 C 0.72519 0.08464 0.78302 0.0
C337 C 0.69133 0.97225 0.80178 0.0
C338 C 0.7154 0.97032 0.81922 0.0
C339 C 0.66679 0.93517 0.78927 0.0
C340 C 0.64117 0.93515 0.77046 0.0
C341 C 0.6601 0.96304 0.7532 0.0
C342 C 0.63564 0.96366 0.73577 0.0
C343 C 0.59222 0.93628 0.73534 0.0
C344 C 0.57322 0.90807 0.75228 0.0
C345 C 0.59756 0.90739 0.76978 0.0
H346 H 0.57332 0.93683 0.72184 0.0
H347 H 0.80049 0.93326 0.8963 0.0
H348 H 0.951 0.48968 0.12703 0.0
H349 H 0.88686 0.49285 0.12094 0.0
H350 H 0.92674 0.58732 0.17115 0.0
H351 H 0.99169 0.58575 0.17636 0.0
H352 H 0.89397 0.6105 0.14461 0.0
H353 H 0.78998 0.44403 0.10857 0.0
H354 H 0.77473 0.37104 0.11394 0.0
H355 H 0.81401 0.39909 0.18063 0.0
H356 H 0.83107 0.47251 0.17543 0.0
H357 H 0.71577 0.6162 0.10387 0.0
H358 H 0.77723 0.60879 0.10887 0.0
H359 H 0.70624 0.50051 0.14917 0.0
H360 H 0.64314 0.50493 0.14178 0.0
H361 H 0.75415 0.48382 0.13183 0.0
H362 H 0.78919 0.61258 0.16715 0.0
H363 H 0.79937 0.68384 0.17135 0.0
H364 H 0.89092 0.72955 0.12147 0.0
H365 H 0.88093 0.65843 0.1168 0.0
C366 C 0.94604 0.51094 0.13692 0.0
C367 C 0.9771 0.53736 0.15228 0.0
C368 C 0.90875 0.51255 0.13354 0.0
C369 C 0.90043 0.53993 0.14572 0.0
C370 C 0.93144 0.56592 0.16124 0.0
C371 C 0.96895 0.56485 0.16434 0.0
C372 C 0.86072 0.5428 0.14195 0.0
C373 C 0.86353 0.58255 0.14183 0.0
C374 C 0.81994 0.50699 0.13874 0.0
C375 C 0.81222 0.46373 0.14153 0.0
C376 C 0.79582 0.43465 0.12429 0.0
C377 C 0.78712 0.3933 0.12729 0.0
C378 C 0.79396 0.38056 0.14756 0.0
C379 C 0.80966 0.40919 0.16484 0.0
C380 C 0.81913 0.45074 0.16184 0.0
C381 C 0.71261 0.59005 0.11332 0.0
C382 C 0.67358 0.56105 0.1222 0.0
C383 C 0.74865 0.58641 0.11674 0.0
C384 C 0.74794 0.55467 0.13002 0.0
C385 C 0.70881 0.5256 0.13891 0.0
C386 C 0.67241 0.52852 0.13494 0.0
C387 C 0.78738 0.55157 0.13446 0.0
C388 C 0.78457 0.51181 0.13459 0.0
C389 C 0.82788 0.58732 0.13875 0.0
C390 C 0.83398 0.6301 0.14148 0.0
C391 C 0.8113 0.63779 0.15699 0.0
C392 C 0.81706 0.67815 0.15946 0.0
C393 C 0.84569 0.71117 0.14664 0.0
C394 C 0.86871 0.70392 0.13136 0.0
C395 C 0.86303 0.6636 0.12881 0.0
H396 H 0.8501 0.7424 0.14858 0.0
H397 H 0.78681 0.34845 0.14992 0.0
H398 H 0.48703 0.99367 0.48138 0.0
H399 H 0.42011 0.92726 0.47818 0.0
H400 H 0.48172 0.85887 0.49759 0.0
H401 H 0.54882 0.92512 0.50056 0.0
H402 H 0.42927 0.81819 0.46504 0.0
H403 H 0.41579 0.87444 0.532 0.0
H404 H 0.41651 0.92781 0.5563 0.0
H405 H 0.31859 0.9284 0.51776 0.0
H406 H 0.31768 0.87543 0.49305 0.0
H407 H 0.23866 0.6208 0.47604 0.0
H408 H 0.30526 0.68549 0.48542 0.0
H409 H 0.25086 0.76038 0.46545 0.0
H410 H 0.18455 0.69581 0.45641 0.0
H411 H 0.30027 0.79651 0.49996 0.0
H412 H 0.31562 0.74253 0.43236 0.0
H413 H 0.31463 0.68919 0.40796 0.0
H414 H 0.40918 0.68463 0.44767 0.0
H415 H 0.41024 0.7375 0.47252 0.0
C416 C 0.48646 0.9646 0.48512 0.0
C417 C 0.52379 0.96527 0.49135 0.0
C418 C 0.44787 0.92637 0.48335 0.0
C419 C 0.44515 0.88744 0.48785 0.0
C420 C 0.48244 0.88807 0.494 0.0
C421 C 0.52102 0.92628 0.49581 0.0
C422 C 0.40383 0.84624 0.48579 0.0
C423 C 0.40132 0.81339 0.47301 0.0
C424 C 0.3666 0.83952 0.4957 0.0
C425 C 0.36695 0.87126 0.51056 0.0
C426 C 0.39462 0.88618 0.52862 0.0
C427 C 0.39503 0.91632 0.54248 0.0
C428 C 0.36768 0.93156 0.53855 0.0
C429 C 0.33979 0.9166 0.52077 0.0
C430 C 0.33929 0.88649 0.50684 0.0
C431 C 0.24075 0.65108 0.4742 0.0
C432 C 0.20623 0.65316 0.46562 0.0
C433 C 0.27903 0.68822 0.4793 0.0
C434 C 0.28385 0.72843 0.47586 0.0
C435 C 0.24853 0.7302 0.46828 0.0
C436 C 0.21046 0.6932 0.46315 0.0
C437 C 0.32573 0.76856 0.47919 0.0
C438 C 0.32831 0.80126 0.49213 0.0
C439 C 0.36303 0.77517 0.46941 0.0
C440 C 0.36267 0.74362 0.45443 0.0
C441 C 0.33598 0.72992 0.43598 0.0
C442 C 0.33543 0.6998 0.42205 0.0
C443 C 0.36175 0.68345 0.42629 0.0
C444 C 0.38875 0.69727 0.44443 0.0
C445 C 0.38935 0.72732 0.45844 0.0
H446 H 0.3613 0.66014 0.41549 0.0
H447 H 0.36804 0.95489 0.5493 0.0
H448 H 0.63169 0.50224 0.82955 0.0
H449 H 0.6318 0.4366 0.82429 0.0
H450 H 0.76307 0.50698 0.80914 0.0
H451 H 0.76294 0.57312 0.81398 0.0
H452 H 0.72609 0.44338 0.78262 0.0
H453 H 0.71932 0.45347 0.85958 0.0
H454 H 0.69073 0.45928 0.89414 0.0
H455 H 0.57577 0.34405 0.88005 0.0
H456 H 0.60356 0.33774 0.84525 0.0
H457 H 0.759 0.26914 0.78348 0.0
H458 H 0.76074 0.33515 0.79139 0.0
H459 H 0.63264 0.26473 0.81227 0.0
H460 H 0.63184 0.19853 0.80494 0.0
H461 H 0.66768 0.3286 0.83639 0.0
H462 H 0.67097 0.3174 0.7599 0.0
H463 H 0.69645 0.31033 0.72455 0.0
H464 H 0.8118 0.4269 0.73571 0.0
H465 H 0.7873 0.43432 0.77123 0.0
C466 C 0.66082 0.50406 0.82523 0.0
C467 C 0.69743 0.54363 0.82245 0.0
C468 C 0.66089 0.46609 0.82234 0.0
C469 C 0.69765 0.46599 0.81676 0.0
C470 C 0.7342 0.5055 0.81367 0.0
C471 C 0.73415 0.54362 0.81654 0.0
C472 C 0.69767 0.42496 0.81365 0.0
C473 C 0.71393 0.41864 0.79458 0.0
C474 C 0.6803 0.39135 0.82875 0.0
C475 C 0.66355 0.39526 0.84969 0.0
C476 C 0.68793 0.42943 0.86377 0.0
C477 C 0.67184 0.43282 0.88343 0.0
C478 C 0.63143 0.40208 0.88928 0.0
C479 C 0.60707 0.36785 0.87549 0.0
C480 C 0.62301 0.36434 0.85581 0.0
C481 C 0.73154 0.26785 0.7902 0.0
C482 C 0.69548 0.2285 0.79381 0.0
C483 C 0.73224 0.3058 0.79448 0.0
C484 C 0.69651 0.30594 0.80206 0.0
C485 C 0.66083 0.26635 0.8064 0.0
C486 C 0.66033 0.22825 0.80232 0.0
C487 C 0.69623 0.34693 0.80525 0.0
C488 C 0.67985 0.35325 0.82435 0.0
C489 C 0.71289 0.38037 0.78998 0.0
C490 C 0.72764 0.37594 0.76852 0.0
C491 C 0.70198 0.34128 0.75495 0.0
C492 C 0.7162 0.33726 0.73483 0.0
C493 C 0.75581 0.36801 0.72793 0.0
C494 C 0.78121 0.40295 0.74111 0.0
C495 C 0.7672 0.40703 0.76127 0.0
H496 H 0.76673 0.36486 0.71234 0.0
H497 H 0.61902 0.40476 0.90451 0.0
H498 H 0.7466 0.92964 0.56431 0.0
H499 H 0.7724 0.88845 0.58355 0.0
H500 H 0.74464 0.80963 0.52691 0.0
H501 H 0.71694 0.84896 0.50819 0.0
H502 H 0.73065 0.76442 0.56134 0.0
H503 H 0.84376 0.90253 0.53756 0.0
H504 H 0.88278 0.98028 0.53813 0.0
H505 H 0.90373 0.9801 0.60674 0.0
H506 H 0.86441 0.90228 0.60657 0.0
H507 H 0.87094 0.69571 0.54657 0.0
H508 H 0.83288 0.7333 0.54407 0.0
H509 H 0.89057 0.79711 0.60439 0.0
H510 H 0.93146 0.76117 0.60608 0.0
H511 H 0.88258 0.84763 0.58023 0.0
H512 H 0.78452 0.70112 0.59652 0.0
H513 H 0.74543 0.62394 0.59069 0.0
H514 H 0.69805 0.63938 0.52959 0.0
H515 H 0.73632 0.71626 0.53487 0.0
C516 C 0.7449 0.90273 0.55624 0.0
C517 C 0.73054 0.89295 0.5346 0.0
C518 C 0.75997 0.87948 0.56718 0.0
C519 C 0.76133 0.84659 0.5565 0.0
C520 C 0.74415 0.83502 0.53547 0.0
C521 C 0.72874 0.85782 0.52467 0.0
C522 C 0.78408 0.82648 0.56589 0.0
C523 C 0.76386 0.78243 0.56559 0.0
C524 C 0.82706 0.85013 0.57204 0.0
C525 C 0.85077 0.89676 0.5721 0.0
C526 C 0.85651 0.91913 0.55277 0.0
C527 C 0.87868 0.96317 0.55302 0.0
C528 C 0.8956 0.98512 0.57248 0.0
C529 C 0.8905 0.96306 0.5917 0.0
C530 C 0.86829 0.91901 0.59154 0.0
C531 C 0.87675 0.71892 0.5589 0.0
C532 C 0.90496 0.72649 0.57625 0.0
C533 C 0.85385 0.73939 0.55785 0.0
C534 C 0.85687 0.76617 0.57473 0.0
C535 C 0.8864 0.77523 0.59165 0.0
C536 C 0.91013 0.75528 0.59249 0.0
C537 C 0.82983 0.78527 0.57423 0.0
C538 C 0.84916 0.82917 0.57656 0.0
C539 C 0.78612 0.76132 0.56924 0.0
C540 C 0.76308 0.71471 0.56626 0.0
C541 C 0.76558 0.68814 0.58192 0.0
C542 C 0.74369 0.64445 0.57868 0.0
C543 C 0.71938 0.62692 0.55987 0.0
C544 C 0.71678 0.65297 0.54421 0.0
C545 C 0.73841 0.69659 0.54735 0.0
H546 H 0.7026 0.59312 0.55743 0.0
H547 H 0.91275 1.01921 0.57264 0.0
H548 H 0.94844 0.66917 0.80547 0.0
H549 H 0.95597 0.60888 0.79776 0.0
H550 H 0.87273 0.57752 0.74218 0.0
H551 H 0.86877 0.64113 0.74831 0.0
H552 H 0.84632 0.52493 0.7859 0.0
H553 H 0.93711 0.5653 0.72736 0.0
H554 H 0.99818 0.61212 0.70548 0.0
H555 H 1.08145 0.61424 0.75572 0.0
H556 H 1.02099 0.56804 0.77808 0.0
H557 H 0.9328 0.37594 0.82089 0.0
H558 H 0.90873 0.40499 0.79147 0.0
H559 H 0.92434 0.50424 0.83444 0.0
H560 H 0.94989 0.47677 0.86304 0.0
H561 H 0.96171 0.49469 0.77702 0.0
H562 H 0.84298 0.51924 0.8252 0.0
H563 H 0.79324 0.48288 0.85422 0.0
H564 H 0.77635 0.36436 0.8328 0.0
H565 H 0.82533 0.39991 0.80313 0.0
C566 C 0.93377 0.65136 0.79079 0.0
C567 C 0.90633 0.65906 0.77807 0.0
C568 C 0.93801 0.61656 0.78644 0.0
C569 C 0.9143 0.58847 0.76965 0.0
C570 C 0.8911 0.59879 0.75529 0.0
C571 C 0.88831 0.63473 0.75909 0.0
C572 C 0.90579 0.54487 0.77133 0.0
C573 C 0.87081 0.51738 0.78343 0.0
C574 C 0.9376 0.53521 0.76772 0.0
C575 C 0.97435 0.56304 0.7544 0.0
C576 C 0.96843 0.57593 0.73382 0.0
C577 C 1.00298 0.60236 0.72131 0.0
C578 C 1.04367 0.61611 0.72919 0.0
C579 C 1.0499 0.60347 0.74961 0.0
C580 C 1.01547 0.57705 0.76219 0.0
C581 C 0.9302 0.40347 0.82398 0.0
C582 C 0.94239 0.42377 0.84426 0.0
C583 C 0.91664 0.41998 0.80727 0.0
C584 C 0.91443 0.45641 0.81095 0.0
C585 C 0.92511 0.47562 0.83144 0.0
C586 C 0.93918 0.45964 0.84786 0.0
C587 C 0.90451 0.47754 0.79341 0.0
C588 C 0.93595 0.50068 0.77847 0.0
C589 C 0.87043 0.48459 0.79525 0.0
C590 C 0.83782 0.4623 0.81178 0.0
C591 C 0.82805 0.48529 0.82631 0.0
C592 C 0.80003 0.46481 0.84296 0.0
C593 C 0.78148 0.42127 0.84531 0.0
C594 C 0.79069 0.39808 0.83091 0.0
C595 C 0.81848 0.41837 0.81412 0.0
H596 H 0.75996 0.40549 0.8583 0.0
H597 H 1.07037 0.63658 0.71948 0.0
H598 H 0.22558 0.85738 0.13081 0.0
H599 H 0.2776 0.93197 0.13044 0.0
H600 H 0.37224 0.90297 0.11196 0.0
H601 H 0.3199 0.82773 0.11206 0.0
H602 H 0.39134 0.94396 0.14942 0.0
H603 H 0.35022 0.96598 0.07986 0.0
H604 H 0.30194 0.96057 0.05022 0.0
H605 H 0.25843 1.02708 0.08875 0.0
H606 H 0.30598 1.03236 0.11877 0.0
H607 H 0.53504 0.14478 0.18205 0.0
H608 H 0.499 0.09157 0.15389 0.0
H609 H 0.38457 0.09221 0.1657 0.0
H610 H 0.42206 0.14885 0.19256 0.0
H611 H 0.38557 1.06926 0.12423 0.0
H612 H 0.41122 1.02908 0.1957 0.0
H613 H 0.4563 1.03231 0.22663 0.0
H614 H 0.52524 0.99732 0.1849 0.0
H615 H 0.48068 0.99402 0.15371 0.0
C616 C 0.25698 0.86675 0.12574 0.0
C617 C 0.26872 0.83651 0.12175 0.0
C618 C 0.28679 0.90961 0.1255 0.0
C619 C 0.32886 0.9231 0.12119 0.0
C620 C 0.33993 0.89319 0.11536 0.0
C621 C 0.31008 0.85024 0.11557 0.0
C622 C 0.36176 0.96669 0.12705 0.0
C623 C 0.39089 0.97148 0.14336 0.0
C624 C 0.36035 1.00244 0.11965 0.0
C625 C 0.3316 0.99939 0.10164 0.0
C626 C 0.33014 0.97918 0.0821 0.0
C627 C 0.30293 0.97619 0.0652 0.0
C628 C 0.2771 0.99343 0.06761 0.0
C629 C 0.27847 1.01376 0.0869 0.0
C630 C 0.30562 1.01683 0.10386 0.0
C631 C 0.50282 0.13523 0.17785 0.0
C632 C 0.48109 0.1505 0.18963 0.0
C633 C 0.48209 0.10442 0.16192 0.0
C634 C 0.4388 0.08695 0.15822 0.0
C635 C 0.41792 0.10494 0.16847 0.0
C636 C 0.43912 0.13685 0.18397 0.0
C637 C 0.4143 1.04599 0.14674 0.0
C638 C 0.3867 1.04176 0.12966 0.0
C639 C 0.41658 1.01035 0.15355 0.0
C640 C 0.44297 1.01177 0.17236 0.0
C641 C 0.43612 1.02226 0.19312 0.0
C642 C 0.46156 1.02411 0.21069 0.0
C643 C 0.49375 1.01527 0.20771 0.0
C644 C 0.50038 1.00428 0.18717 0.0
C645 C 0.47502 1.00234 0.16956 0.0
H646 H 0.51345 1.01681 0.22132 0.0
H647 H 0.25606 0.99108 0.05451 0.0
H648 H 0.72654 0.32555 0.44116 0.0
H649 H 0.78609 0.39671 0.44667 0.0
H650 H 0.71637 0.42197 0.49311 0.0
H651 H 0.6588 0.35012 0.48993 0.0
H652 H 0.77194 0.49143 0.4612 0.0
H653 H 0.76309 0.38596 0.5121 0.0
H654 H 0.76615 0.32539 0.52682 0.0
H655 H 0.89166 0.37742 0.50428 0.0
H656 H 0.88781 0.43594 0.48734 0.0
H657 H 0.8526 0.6088 0.55289 0.0
H658 H 0.81987 0.55879 0.52311 0.0
H659 H 0.93991 0.57275 0.508 0.0
H660 H 0.97289 0.62345 0.53845 0.0
H661 H 0.87848 0.49152 0.51158 0.0
H662 H 0.8934 0.6063 0.4712 0.0
H663 H 0.89345 0.67231 0.4641 0.0
H664 H 0.76048 0.60895 0.47353 0.0
H665 H 0.75963 0.5427 0.48104 0.0
C666 C 0.72368 0.34587 0.45273 0.0
C667 C 0.68803 0.3308 0.46579 0.0
C668 C 0.75766 0.38677 0.45552 0.0
C669 C 0.75569 0.41392 0.47056 0.0
C670 C 0.71835 0.40112 0.48148 0.0
C671 C 0.68511 0.35977 0.47944 0.0
C672 C 0.7936 0.45358 0.47713 0.0
C673 C 0.79565 0.49172 0.472 0.0
C674 C 0.82517 0.45373 0.49065 0.0
C675 C 0.82452 0.41477 0.4977 0.0
C676 C 0.79048 0.38341 0.50918 0.0
C677 C 0.79245 0.34939 0.51803 0.0
C678 C 0.8289 0.34715 0.51621 0.0
C679 C 0.86306 0.37844 0.50514 0.0
C680 C 0.86077 0.41175 0.49565 0.0
C681 C 0.87185 0.60096 0.5432 0.0
C682 C 0.91485 0.61889 0.54802 0.0
C683 C 0.85342 0.57314 0.52596 0.0
C684 C 0.87765 0.56288 0.51299 0.0
C685 C 0.92087 0.58087 0.51767 0.0
C686 C 0.93954 0.60922 0.53506 0.0
C687 C 0.85572 0.52916 0.49657 0.0
C688 C 0.85636 0.49185 0.49983 0.0
C689 C 0.8265 0.52976 0.48155 0.0
C690 C 0.82648 0.56937 0.47664 0.0
C691 C 0.86416 0.60642 0.47183 0.0
C692 C 0.86433 0.64392 0.46774 0.0
C693 C 0.82699 0.64481 0.46834 0.0
C694 C 0.78937 0.60818 0.47301 0.0
C695 C 0.78901 0.57059 0.47712 0.0
H696 H 0.8272 0.67389 0.4652 0.0
H697 H 0.83078 0.32131 0.52348 0.0
H698 H 0.43066 0.6199 0.87765 0.0
H699 H 0.36013 0.60176 0.88863 0.0
H700 H 0.30972 0.542 0.82664 0.0
H701 H 0.37956 0.55941 0.81567 0.0
H702 H 0.27172 0.58436 0.84036 0.0
H703 H 0.31079 0.48488 0.86932 0.0
H704 H 0.35573 0.46604 0.89103 0.0
H705 H 0.3333 0.5176 0.94796 0.0
H706 H 0.28875 0.53734 0.92647 0.0
H707 H 1.07188 0.39144 0.87603 0.0
H708 H 0.149 0.4301 0.87527 0.0
H709 H 0.15049 0.54678 0.88596 0.0
H710 H 1.07341 0.50782 0.88649 0.0
H711 H 0.21516 0.48344 0.90108 0.0
H712 H 0.2219 0.61925 0.85149 0.0
H713 H 0.17569 0.63352 0.82791 0.0
H714 H 1.1045 0.50281 0.80972 0.0
H715 H 0.1505 0.48788 0.83301 0.0
C716 C 0.40456 0.60323 0.86631 0.0
C717 C 0.41066 0.59081 0.84585 0.0
C718 C 0.36439 0.59308 0.87257 0.0
C719 C 0.32975 0.57021 0.85851 0.0
C720 C 0.3361 0.55986 0.83768 0.0
C721 C 0.37612 0.56994 0.83142 0.0
C722 C 0.28636 0.55347 0.86589 0.0
C723 C 0.25953 0.563 0.85393 0.0
C724 C 0.27036 0.5251 0.88338 0.0
C725 C 0.29681 0.5129 0.89628 0.0
C726 C 0.31568 0.49242 0.88644 0.0
C727 C 0.34106 0.48158 0.8987 0.0
C728 C 0.34745 0.49071 0.92085 0.0
C729 C 0.32837 0.5106 0.93079 0.0
C730 C 0.30306 0.52161 0.91859 0.0
C731 C 1.08907 0.42517 0.87879 0.0
C732 C 1.06751 0.44701 0.88131 0.0
C733 C 0.13284 0.4472 0.87838 0.0
C734 C 0.15531 0.49132 0.88029 0.0
C735 C 0.13366 0.51279 0.88424 0.0
C736 C 1.08993 0.49071 0.88468 0.0
C737 C 0.20067 0.51485 0.87582 0.0
C738 C 0.22772 0.50624 0.88815 0.0
C739 C 0.21678 0.54374 0.85853 0.0
C740 C 0.18934 0.55243 0.84418 0.0
C741 C 0.19644 0.59361 0.84241 0.0
C742 C 0.17026 0.60179 0.82911 0.0
C743 C 0.13705 0.56905 0.81741 0.0
C744 C 0.13009 0.5281 0.81888 0.0
C745 C 0.15617 0.51975 0.83214 0.0
H746 H 0.1168 0.57544 0.80714 0.0
H747 H 0.36711 0.48229 0.93032 0.0
H748 H 0.8933 0.26235 0.22304 0.0
H749 H 0.82858 0.24482 0.24127 0.0
H750 H 0.88709 0.37047 0.26787 0.0
H751 H 0.95126 0.38899 0.24908 0.0
H752 H 0.79874 0.27214 0.28812 0.0
H753 H 0.85668 0.39774 0.23583 0.0
H754 H 0.90489 0.43 0.20542 0.0
H755 H 0.8414 0.31239 0.17066 0.0
H756 H 0.79342 0.27936 0.20108 0.0
H757 H 0.60854 0.29018 0.2379 0.0
H758 H 0.68347 0.32279 0.24842 0.0
H759 H 0.66933 0.19943 0.2541 0.0
H760 H 0.5952 0.16717 0.24307 0.0
H761 H 0.74094 0.3129 0.22529 0.0
H762 H 0.73535 0.20146 0.29532 0.0
H763 H 0.69471 0.16801 0.32794 0.0
H764 H 0.65258 0.25741 0.32915 0.0
H765 H 0.69352 0.29199 0.29681 0.0
C766 C 0.89293 0.28582 0.23341 0.0
C767 C 0.92687 0.32745 0.23396 0.0
C768 C 0.85614 0.27552 0.24411 0.0
C769 C 0.85313 0.30661 0.25559 0.0
C770 C 0.88905 0.3461 0.25909 0.0
C771 C 0.92576 0.35663 0.24822 0.0
C772 C 0.81147 0.3024 0.25718 0.0
C773 C 0.78588 0.28131 0.27463 0.0
C774 C 0.79559 0.31546 0.23969 0.0
C775 C 0.82151 0.33623 0.22061 0.0
C776 C 0.85287 0.37894 0.2216 0.0
C777 C 0.88037 0.39724 0.20447 0.0
C778 C 0.87631 0.37321 0.18615 0.0
C779 C 0.84454 0.33094 0.18486 0.0
C780 C 0.81721 0.31243 0.20203 0.0
C781 C 0.62172 0.27035 0.24156 0.0
C782 C 0.59663 0.22644 0.23985 0.0
C783 C 0.66412 0.28878 0.24769 0.0
C784 C 0.68152 0.26332 0.25246 0.0
C785 C 0.6561 0.21941 0.25105 0.0
C786 C 0.61406 0.20111 0.24466 0.0
C787 C 0.72715 0.28194 0.25627 0.0
C788 C 0.75364 0.30513 0.2394 0.0
C789 C 0.74367 0.27112 0.27451 0.0
C790 C 0.71757 0.24935 0.29352 0.0
C791 C 0.71759 0.21416 0.30256 0.0
C792 C 0.69453 0.19502 0.32104 0.0
C793 C 0.67129 0.21074 0.33064 0.0
C794 C 0.67063 0.2453 0.32167 0.0
C795 C 0.69369 0.26463 0.30323 0.0
H796 H 0.65394 0.19628 0.34509 0.0
H797 H 0.89764 0.38739 0.17291 0.0
H798 H 1.08842 0.5878 0.08431 0.0
H799 H 1.07673 0.5753 0.0452 0.0
H800 H 1.09666 0.46973 0.05095 0.0
H801 H 0.10873 0.48211 0.08981 0.0
H802 H 0.13232 0.51603 0.01472 0.0
H803 H 0.99931 0.45384 0.05091 0.0
H804 H 0.94762 0.45616 0.0746 0.0
H805 H 0.94127 0.54622 0.03263 0.0
H806 H 0.99347 0.54494 0.00887 0.0
H807 H 1.02641 0.39018 0.92242 0.0
H808 H 1.05018 0.41713 0.95946 0.0
H809 H 1.01617 0.51217 0.94831 0.0
H810 H 0.99227 0.48485 0.9115 0.0
H811 H 0.99054 0.47803 0.98648 0.0
H812 H 0.12027 0.53687 0.94877 0.0
H813 H 0.17602 0.53885 0.92662 0.0
H814 H 0.18952 0.45654 0.97126 0.0
H815 H 0.13399 0.45412 0.99373 0.0
C816 C 1.09102 0.56239 0.07718 0.0
C817 C 1.09897 0.53561 0.09018 0.0
C818 C 1.08418 0.55521 0.05487 0.0
C819 C 1.08526 0.52122 0.04529 0.0
C820 C 1.09557 0.49603 0.05806 0.0
C821 C 1.10222 0.50305 0.08029 0.0
C822 C 1.07284 0.50976 0.0223 0.0
C823 C 1.10127 0.50747 0.00851 0.0
C824 C 1.03261 0.49947 0.01421 0.0
C825 C 1.00062 0.49964 0.02825 0.0
C826 C 0.98708 0.47434 0.04681 0.0
C827 C 0.95769 0.47545 0.06025 0.0
C828 C 0.94126 0.50141 0.05516 0.0
C829 C 0.95408 0.52619 0.03658 0.0
C830 C 0.98356 0.52527 0.02312 0.0
C831 C 1.02369 0.41646 0.92814 0.0
C832 C 1.00657 0.43481 0.91456 0.0
C833 C 1.0376 0.43214 0.94911 0.0
C834 C 1.03526 0.46693 0.95659 0.0
C835 C 1.01804 0.48518 0.94294 0.0
C836 C 1.00399 0.46935 0.92206 0.0
C837 C 1.04992 0.4838 0.9788 0.0
C838 C 1.02181 0.487 0.99251 0.0
C839 C 1.0905 0.49496 0.9868 0.0
C840 C 0.12274 0.49507 0.97285 0.0
C841 C 0.1348 0.51882 0.95374 0.0
C842 C 0.16642 0.52009 0.94115 0.0
C843 C 0.18611 0.49768 0.94748 0.0
C844 C 0.17419 0.47384 0.96637 0.0
C845 C 0.14275 0.47261 0.97907 0.0
H846 H 0.21086 0.49902 0.93789 0.0
H847 H 0.91854 0.50226 0.0656 0.0
H848 H 0.67612 0.16197 0.42493 0.0
H849 H 0.65524 0.17131 0.38855 0.0
H850 H 0.57568 1.03668 0.38142 0.0
H851 H 0.59744 1.02699 0.41783 0.0
H852 H 0.61456 0.07823 0.34254 0.0
H853 H 0.53328 0.09107 0.39962 0.0
H854 H 0.52755 0.12044 0.43434 0.0
H855 H 0.59435 0.24537 0.40839 0.0
H856 H 0.60096 0.21677 0.37359 0.0
H857 H 0.49893 0.09797 0.25579 0.0
H858 H 0.51468 0.07653 0.29049 0.0
H859 H 0.5756 0.20559 0.313 0.0
H860 H 0.55525 0.22586 0.27918 0.0
H861 H 0.54195 0.16067 0.34478 0.0
H862 H 0.62562 0.1511 0.28827 0.0
H863 H 0.63807 0.1247 0.2542 0.0
H864 H 0.57374 0.99856 0.2785 0.0
H865 H 0.56063 1.02395 0.31264 0.0
C866 C 0.65496 0.13427 0.41542 0.0
C867 C 0.63789 0.09376 0.42424 0.0
C868 C 0.64302 0.13967 0.39467 0.0
C869 C 0.61312 0.10474 0.38258 0.0
C870 C 0.5986 1.06401 0.39061 0.0
C871 C 0.61105 1.05852 0.41136 0.0
C872 C 0.59391 0.11128 0.36278 0.0
C873 C 0.59813 0.09571 0.34295 0.0
C874 C 0.57321 0.13477 0.36343 0.0
C875 C 0.56764 0.15178 0.38403 0.0
C876 C 0.54674 0.1248 0.40133 0.0
C877 C 0.5434 0.14131 0.42102 0.0
C878 C 0.56054 0.18473 0.42354 0.0
C879 C 0.58101 0.21173 0.40638 0.0
C880 C 0.58449 0.19539 0.38666 0.0
C881 C 0.51391 0.12131 0.26854 0.0
C882 C 0.52522 0.16348 0.265 0.0
C883 C 0.52398 0.10928 0.28818 0.0
C884 C 0.54763 0.13961 0.3042 0.0
C885 C 0.5576 0.1815 0.30093 0.0
C886 C 0.54606 0.19317 0.28163 0.0
C887 C 0.56315 0.12837 0.3241 0.0
C888 C 0.55806 0.14291 0.34413 0.0
C889 C 0.58362 0.10444 0.32352 0.0
C890 C 0.59193 0.08943 0.30299 0.0
C891 C 0.6141 0.11774 0.28635 0.0
C892 C 0.62124 0.10298 0.26703 0.0
C893 C 0.60664 1.06007 0.26419 0.0
C894 C 0.58499 1.0318 0.28071 0.0
C895 C 0.57775 1.04635 0.30006 0.0
H896 H 0.61214 1.04874 0.2492 0.0
H897 H 0.55787 0.19744 0.43878 0.0
H898 H 0.66331 0.58305 0.75831 0.0
H899 H 0.68807 0.57585 0.7228 0.0
H900 H 0.7867 0.70616 0.72648 0.0
H901 H 0.76202 0.71379 0.76115 0.0
H902 H 0.75018 0.68781 0.68782 0.0
H903 H 0.79465 0.62043 0.74113 0.0
H904 H 0.78842 0.56606 0.76689 0.0
H905 H 0.73663 0.47294 0.71624 0.0
H906 H 0.74166 0.52654 0.6904 0.0
H907 H 0.93247 0.67622 0.63594 0.0
H908 H 0.88655 0.66575 0.66652 0.0
H909 H 0.78576 0.64209 0.6218 0.0
H910 H 0.83131 0.65148 0.59123 0.0
H911 H 0.81056 0.59573 0.67734 0.0
H912 H 0.73183 0.68331 0.64187 0.0
H913 H 0.74632 0.7468 0.62124 0.0
H914 H 0.87592 0.80744 0.64166 0.0
H915 H 0.86241 0.74391 0.66179 0.0
C916 C 0.68981 0.61026 0.75129 0.0
C917 C 0.71058 0.64905 0.7625 0.0
C918 C 0.70406 0.606 0.73112 0.0
C919 C 0.73932 0.64043 0.72205 0.0
C920 C 0.75929 0.6792 0.73308 0.0
C921 C 0.74511 0.6835 0.75299 0.0
C922 C 0.7569 0.63737 0.70128 0.0
C923 C 0.76263 0.66701 0.68537 0.0
C924 C 0.77317 0.61021 0.69808 0.0
C925 C 0.76802 0.57753 0.71394 0.0
C926 C 0.78127 0.58824 0.73563 0.0
C927 C 0.77806 0.5576 0.75021 0.0
C928 C 0.76213 0.51613 0.74319 0.0
C929 C 0.74893 0.5051 0.72166 0.0
C930 C 0.75186 0.5356 0.70707 0.0
C931 C 0.90049 0.66885 0.63279 0.0
C932 C 0.88539 0.66537 0.61146 0.0
C933 C 0.87434 0.66279 0.65012 0.0
C934 C 0.83286 0.65352 0.64628 0.0
C935 C 0.81778 0.64975 0.62493 0.0
C936 C 0.8437 0.65525 0.60762 0.0
C937 C 0.80517 0.64738 0.66458 0.0
C938 C 0.79701 0.61559 0.67964 0.0
C939 C 0.78696 0.67279 0.66728 0.0
C940 C 0.79624 0.70874 0.65302 0.0
C941 C 0.76353 0.70999 0.64162 0.0
C942 C 0.77155 0.74598 0.63006 0.0
C943 C 0.81205 0.78106 0.63007 0.0
C944 C 0.84467 0.78006 0.64144 0.0
C945 C 0.83697 0.74393 0.65273 0.0
H946 H 0.81809 0.80911 0.62137 0.0
H947 H 0.76029 0.49263 0.75439 0.0
H948 H 0.66961 1.02856 0.56117 0.0
H949 H 0.6741 1.0263 0.60068 0.0
H950 H 0.63388 0.11757 0.60555 0.0
H951 H 0.62731 0.11822 0.56624 0.0
H952 H 0.71862 0.0768 0.62997 0.0
H953 H 0.58501 0.11133 0.65067 0.0
H954 H 0.51559 0.09463 0.63596 0.0
H955 H 0.50267 0.98551 0.6036 0.0
H956 H 0.57173 1.00118 0.61835 0.0
H957 H 0.75062 0.17388 0.73165 0.0
H958 H 0.74012 0.14849 0.69429 0.0
H959 H 0.62143 1.04045 0.71106 0.0
H960 H 0.63158 1.06727 0.74842 0.0
H961 H 0.60938 0.07251 0.67692 0.0
H962 H 0.70739 1.03143 0.69487 0.0
H963 H 0.77176 1.03643 0.71049 0.0
H964 H 0.84659 0.13687 0.66701 0.0
H965 H 0.78268 0.13298 0.65136 0.0
C966 C 0.66136 1.04786 0.57069 0.0
C967 C 0.64774 0.0733 0.5605 0.0
C968 C 0.66406 1.04665 0.59334 0.0
C969 C 0.65368 1.07121 0.60636 0.0
C970 C 0.64083 0.09722 0.5961 0.0
C971 C 0.63732 0.09779 0.57351 0.0
C972 C 0.65747 1.0708 0.63057 0.0
C973 C 0.69458 0.07564 0.64019 0.0
C974 C 0.62559 1.0676 0.64421 0.0
C975 C 0.58374 1.05765 0.63549 0.0
C976 C 0.56727 0.08364 0.64051 0.0
C977 C 0.528 0.07438 0.63215 0.0
C978 C 0.50479 1.0391 0.61881 0.0
C979 C 0.52074 1.01291 0.61387 0.0
C980 C 0.55997 1.02199 0.62221 0.0
C981 C 0.72282 0.14421 0.7274 0.0
C982 C 0.69184 0.12261 0.74279 0.0
C983 C 0.71681 0.12953 0.70605 0.0
C984 C 0.67993 0.09237 0.69966 0.0
C985 C 0.65007 1.06929 0.71545 0.0
C986 C 0.65604 0.08425 0.73685 0.0
C987 C 0.67121 0.08028 0.6762 0.0
C988 C 0.63319 0.07312 0.66671 0.0
C989 C 0.7015 0.0796 0.66279 0.0
C990 C 0.74018 0.08207 0.67203 0.0
C991 C 0.73758 1.0548 0.68874 0.0
C992 C 0.774 1.05741 0.69759 0.0
C993 C 0.81325 0.08699 0.68977 0.0
C994 C 0.81615 0.11397 0.67305 0.0
C995 C 0.77982 0.11154 0.66416 0.0
H996 H 0.84142 0.08896 0.69664 0.0
H997 H 0.47441 1.03202 0.61233 0.0
H998 H 0.74542 0.70499 0.90552 0.0
H999 H 0.74025 0.69117 0.94444 0.0
H1000 H 0.62013 0.57831 0.93347 0.0
H1001 H 0.62399 0.5938 0.89492 0.0
H1002 H 0.61298 0.60938 0.96673 0.0
H1003 H 0.72088 0.5826 0.94542 0.0
H1004 H 0.78723 0.59736 0.92906 0.0
H1005 H 0.85654 0.70082 0.97326 0.0
H1006 H 0.79053 0.68701 0.98972 0.0
H1007 H 0.61386 0.51539 0.06935 0.0
H1008 H 0.63103 0.52957 0.03079 0.0
H1009 H 0.69443 0.66301 0.0439 0.0
H1010 H 0.6758 0.64858 0.08218 0.0
H1011 H 0.7321 0.61979 0.01057 0.0
H1012 H 0.61514 0.64537 0.02743 0.0
H1013 H 0.54526 0.62405 0.04165 0.0
H1014 H 0.49096 0.50984 0.00404 0.0
H1015 H 0.56056 0.53053 0.98965 0.0
C1016 C 0.71777 0.67746 0.9115 0.0
C1017 C 0.68502 0.65063 0.89715 0.0
C1018 C 0.71503 0.66921 0.93377 0.0
C1019 C 0.6802 0.63304 0.94212 0.0
C1020 C 0.64738 0.60647 0.92769 0.0
C1021 C 0.64956 0.61539 0.90556 0.0
C1022 C 0.67713 0.6232 0.96583 0.0
C1023 C 0.6391 0.61123 0.97606 0.0
C1024 C 0.71097 0.62565 0.97848 0.0
C1025 C 0.75072 0.63403 0.96865 0.0
C1026 C 0.75025 0.60868 0.95155 0.0
C1027 C 0.7878 0.61685 0.94227 0.0
C1028 C 0.82607 0.65007 0.95008 0.0
C1029 C 0.82687 0.67513 0.96721 0.0
C1030 C 0.7894 0.66713 0.97654 0.0
C1031 C 0.633 0.54762 0.06406 0.0
C1032 C 0.64469 0.58095 0.07873 0.0
C1033 C 0.64242 0.55574 0.04207 0.0
C1034 C 0.66413 0.59737 0.03452 0.0
C1035 C 0.67806 0.6307 0.04942 0.0
C1036 C 0.66782 0.62253 0.07126 0.0
C1037 C 0.66824 0.60613 0.01093 0.0
C1038 C 0.7063 0.61789 0.00091 0.0
C1039 C 0.63422 0.60238 -0.00175 0.0
C1040 C 0.59298 0.58924 0.00769 0.0
C1041 C 0.58836 0.6155 0.02242 0.0
C1042 C 0.54878 0.60366 0.03039 0.0
C1043 C 0.51373 0.5656 0.02375 0.0
C1044 C 0.51816 0.53926 0.00919 0.0
C1045 C 0.55761 0.55106 0.00109 0.0
H1046 H 0.48306 0.55659 0.02973 0.0
H1047 H 0.8551 0.65635 0.94287 0.0
H1048 H 0.14411 0.6033 0.23287 0.0
H1049 H 0.1409 0.59916 0.27238 0.0
H1050 H 1.03097 0.47526 0.26753 0.0
H1051 H 1.03361 0.47927 0.22814 0.0
H1052 H 1.02123 0.52041 0.29821 0.0
H1053 H 0.12562 0.48648 0.28014 0.0
H1054 H 0.18939 0.49645 0.26267 0.0
H1055 H 0.26417 0.61163 0.29837 0.0
H1056 H 0.20074 0.60267 0.31583 0.0
H1057 H 0.11802 0.50716 0.41197 0.0
H1058 H 1.10304 0.49026 0.37315 0.0
H1059 H 1.06891 0.58608 0.36656 0.0
H1060 H 1.08373 0.60246 0.40529 0.0
H1061 H 0.14592 0.5437 0.34163 0.0
H1062 H 1.00088 0.56306 0.32384 0.0
H1063 H 0.93498 0.54682 0.34129 0.0
H1064 H 0.93716 0.44818 0.37765 0.0
H1065 H 1.00267 0.46334 0.36018 0.0
C1066 C 0.11916 0.57524 0.24019 0.0
C1067 C 1.08924 0.54162 0.22726 0.0
C1068 C 0.11745 0.57283 0.26281 0.0
C1069 C 1.08593 0.5367 0.27299 0.0
C1070 C 1.05557 0.50346 0.26011 0.0
C1071 C 1.05726 0.50581 0.23753 0.0
C1072 C 1.08494 0.53338 0.29703 0.0
C1073 C 1.04848 0.52549 0.30771 0.0
C1074 C 0.12003 0.53874 0.30946 0.0
C1075 C 0.15835 0.54407 0.29916 0.0
C1076 C 0.15562 0.51408 0.28416 0.0
C1077 C 0.19171 0.51953 0.27427 0.0
C1078 C 0.2308 0.5547 0.27937 0.0
C1079 C 0.23387 0.58442 0.29442 0.0
C1080 C 0.19786 0.57916 0.30433 0.0
C1081 C 0.10572 0.52326 0.40228 0.0
C1082 C 1.10155 0.55572 0.41145 0.0
C1083 C 1.09768 0.51406 0.38012 0.0
C1084 C 1.08492 0.53695 0.36686 0.0
C1085 C 1.07822 0.56761 0.37641 0.0
C1086 C 1.08647 0.57688 0.39851 0.0
C1087 C 1.0826 0.53196 0.34287 0.0
C1088 C 0.11853 0.53837 0.33217 0.0
C1089 C 1.04672 0.52438 0.33044 0.0
C1090 C 1.00694 0.51462 0.34081 0.0
C1091 C 0.98719 0.53776 0.33547 0.0
C1092 C 0.94991 0.52876 0.34539 0.0
C1093 C 0.93196 0.49657 0.36061 0.0
C1094 C 0.95117 0.4732 0.36591 0.0
C1095 C 0.98842 0.48203 0.35602 0.0
H1096 H 0.90313 0.48968 0.36828 0.0
H1097 H 0.2587 0.55886 0.27169 0.0
loop_
_geom_bond_atom_site_label_1
_geom_bond_atom_site_label_2
_geom_bond_distance
_geom_bond_site_symmetry_2
_ccdc_geom_bond_type
Eu0 C9 2.828 . S
Eu0 O11 2.392 1_655 S
Eu0 O13 2.418 . S
Eu0 O18 2.373 . S
Eu0 O21 2.488 . S
Eu0 O22 2.471 . S
Eu0 O23 2.349 . S
Eu1 O10 2.373 . S
Eu1 O14 2.488 . S
Eu1 O15 2.471 . S
Eu1 O16 2.349 . S
Eu1 O19 2.392 1_455 S
Eu1 O20 2.418 . S
Eu1 C30 2.828 . S
C2 O20 1.244 . S
C2 O23 1.265 1_455 S
C3 C4 1.379 . S
C3 C7 1.373 . S
C3 C9 1.505 . S
C4 C3 1.379 . S
C4 C6 1.369 . S
C4 H32 0.930 . S
C5 C7 1.383 . S
C5 C8 1.382 . S
C5 H33 0.930 . S
C6 C4 1.369 . S
C6 C8 1.392 . S
C6 H34 0.930 . S
C7 C3 1.373 . S
C7 C5 1.383 . S
C7 H35 0.931 . S
C8 C5 1.382 . S
C8 C6 1.392 . S
C9 Eu0 2.828 . S
C9 C3 1.505 . S
C9 O21 1.249 . S
C9 O22 1.244 . S
O10 Eu1 2.373 . S
O10 C12 1.258 . S
O11 Eu0 2.392 1_455 S
O11 C12 1.242 . S
C12 O10 1.258 . S
C12 O11 1.242 . S
O13 Eu0 2.418 . S
O13 C17 1.244 . S
O14 Eu1 2.488 . S
O14 C30 1.249 . S
O15 Eu1 2.471 . S
O15 C30 1.244 . S
O16 Eu1 2.349 . S
O16 C17 1.265 1_455 S
C17 O13 1.244 . S
C17 O16 1.265 1_655 S
O18 Eu0 2.373 . S
O18 C31 1.258 . S
O19 Eu1 2.392 1_655 S
O19 C31 1.242 . S
O20 Eu1 2.418 . S
O20 C2 1.244 . S
O21 Eu0 2.488 . S
O21 C9 1.249 . S
O22 Eu0 2.471 . S
O22 C9 1.244 . S
O23 Eu0 2.349 . S
O23 C2 1.265 1_655 S
C24 C25 1.379 . S
C24 C28 1.373 . S
C24 C30 1.505 . S
C25 C24 1.379 . S
C25 C27 1.369 . S
C25 H36 0.930 . S
C26 C28 1.383 . S
C26 C29 1.382 . S
C26 H37 0.930 . S
C27 C25 1.369 . S
C27 C29 1.392 . S
C27 H38 0.930 . S
C28 C24 1.373 . S
C28 C26 1.383 . S
C28 H39 0.931 . S
C29 C26 1.382 . S
C29 C27 1.392 . S
C30 Eu1 2.828 . S
C30 O14 1.249 . S
C30 O15 1.244 . S
C30 C24 1.505 . S
C31 O18 1.258 . S
C31 O19 1.242 . S
H32 C4 0.930 . S
H33 C5 0.930 . S
H34 C6 0.930 . S
H35 C7 0.931 . S
H36 C25 0.930 . S
H37 C26 0.930 . S
H38 C27 0.930 . S
H39 C28 0.931 . S
Eu40 C49 2.828 . S
Eu40 O51 2.392 1_565 S
Eu40 O53 2.418 . S
Eu40 O58 2.373 . S
Eu40 O61 2.488 . S
Eu40 O62 2.471 . S
Eu40 O63 2.349 1_565 S
Eu41 O50 2.373 . S
Eu41 O54 2.488 . S
Eu41 O55 2.471 . S
Eu41 O56 2.349 . S
Eu41 O59 2.392 1_545 S
Eu41 O60 2.418 . S
Eu41 C70 2.828 . S
C42 O60 1.244 . S
C42 O63 1.265 . S
C43 C44 1.379 . S
C43 C47 1.373 . S
C43 C49 1.505 . S
C44 C43 1.379 . S
C44 C46 1.369 . S
C44 H72 0.930 . S
C45 C47 1.383 . S
C45 C48 1.382 . S
C45 H73 0.930 . S
C46 C44 1.369 . S
C46 C48 1.392 . S
C46 H74 0.930 . S
C47 C43 1.373 . S
C47 C45 1.383 . S
C47 H75 0.931 . S
C48 C45 1.382 . S
C48 C46 1.392 . S
C49 Eu40 2.828 . S
C49 C43 1.505 . S
C49 O61 1.249 . S
C49 O62 1.244 . S
O50 Eu41 2.373 . S
O50 C52 1.258 . S
O51 Eu40 2.392 1_545 S
O51 C52 1.242 . S
C52 O50 1.258 . S
C52 O51 1.242 . S
O53 Eu40 2.418 . S
O53 C57 1.244 1_565 S
O54 Eu41 2.488 . S
O54 C70 1.249 . S
O55 Eu41 2.471 . S
O55 C70 1.244 . S
O56 Eu41 2.349 . S
O56 C57 1.265 . S
C57 O53 1.244 1_545 S
C57 O56 1.265 . S
O58 Eu40 2.373 . S
O58 C71 1.258 . S
O59 Eu41 2.392 1_565 S
O59 C71 1.242 . S
O60 Eu41 2.418 . S
O60 C42 1.244 . S
O61 Eu40 2.488 . S
O61 C49 1.249 . S
O62 Eu40 2.471 . S
O62 C49 1.244 . S
O63 Eu40 2.349 1_545 S
O63 C42 1.265 . S
C64 C65 1.379 . S
C64 C68 1.373 . S
C64 C70 1.505 . S
C65 C64 1.379 . S
C65 C67 1.369 . S
C65 H76 0.930 . S
C66 C68 1.383 . S
C66 C69 1.382 . S
C66 H77 0.930 . S
C67 C65 1.369 . S
C67 C69 1.392 . S
C67 H78 0.930 . S
C68 C64 1.373 . S
C68 C66 1.383 . S
C68 H79 0.931 . S
C69 C66 1.382 . S
C69 C67 1.392 . S
C70 Eu41 2.828 . S
C70 O54 1.249 . S
C70 O55 1.244 . S
C70 C64 1.505 . S
C71 O58 1.258 . S
C71 O59 1.242 . S
H72 C44 0.930 . S
H73 C45 0.930 . S
H74 C46 0.930 . S
H75 C47 0.931 . S
H76 C65 0.930 . S
H77 C66 0.930 . S
H78 C67 0.930 . S
H79 C68 0.931 . S
Eu80 C89 2.828 . S
Eu80 O91 2.392 . S
Eu80 O93 2.418 . S
Eu80 O98 2.373 . S
Eu80 O101 2.488 . S
Eu80 O102 2.471 . S
Eu80 O103 2.349 . S
Eu81 O90 2.373 . S
Eu81 O94 2.488 . S
Eu81 O95 2.471 . S
Eu81 O96 2.349 . S
Eu81 O99 2.392 . S
Eu81 O100 2.418 . S
Eu81 C110 2.828 . S
C82 O100 1.244 . S
C82 O103 1.265 . S
C83 C84 1.379 . S
C83 C87 1.373 . S
C83 C89 1.505 . S
C84 C83 1.379 . S
C84 C86 1.369 . S
C84 H112 0.930 . S
C85 C87 1.383 . S
C85 C88 1.382 . S
C85 H113 0.930 . S
C86 C84 1.369 . S
C86 C88 1.392 . S
C86 H114 0.930 . S
C87 C83 1.373 . S
C87 C85 1.383 . S
C87 H115 0.931 . S
C88 C85 1.382 . S
C88 C86 1.392 . S
C89 Eu80 2.828 . S
C89 C83 1.505 . S
C89 O101 1.249 . S
C89 O102 1.244 . S
O90 Eu81 2.373 . S
O90 C92 1.258 . S
O91 Eu80 2.392 . S
O91 C92 1.242 . S
C92 O90 1.258 . S
C92 O91 1.242 . S
O93 Eu80 2.418 . S
O93 C97 1.244 . S
O94 Eu81 2.488 . S
O94 C110 1.249 . S
O95 Eu81 2.471 . S
O95 C110 1.244 . S
O96 Eu81 2.349 . S
O96 C97 1.265 . S
C97 O93 1.244 . S
C97 O96 1.265 . S
O98 Eu80 2.373 . S
O98 C111 1.258 . S
O99 Eu81 2.392 . S
O99 C111 1.242 . S
O100 Eu81 2.418 . S
O100 C82 1.244 . S
O101 Eu80 2.488 . S
O101 C89 1.249 . S
O102 Eu80 2.471 . S
O102 C89 1.244 . S
O103 Eu80 2.349 . S
O103 C82 1.265 . S
C104 C105 1.379 . S
C104 C108 1.373 . S
C104 C110 1.505 . S
C105 C104 1.379 . S
C105 C107 1.369 . S
C105 H116 0.930 . S
C106 C108 1.383 . S
C106 C109 1.382 . S
C106 H117 0.930 . S
C107 C105 1.369 . S
C107 C109 1.392 . S
C107 H118 0.930 . S
C108 C104 1.373 . S
C108 C106 1.383 . S
C108 H119 0.931 . S
C109 C106 1.382 . S
C109 C107 1.392 . S
C110 Eu81 2.828 . S
C110 O94 1.249 . S
C110 O95 1.244 . S
C110 C104 1.505 . S
C111 O98 1.258 . S
C111 O99 1.242 . S
H112 C84 0.930 . S
H113 C85 0.930 . S
H114 C86 0.930 . S
H115 C87 0.931 . S
H116 C105 0.930 . S
H117 C106 0.930 . S
H118 C107 0.930 . S
H119 C108 0.931 . S
C120 N121 1.316 . S
C120 N122 1.349 1_545 S
C120 C123 1.484 . S
N121 C120 1.316 . S
N121 N125 1.370 . S
N122 C120 1.349 1_565 S
N122 C124 1.346 . S
C123 C120 1.484 . S
C123 H127 0.960 . S
C123 H128 0.961 1_545 S
C123 H129 0.960 . S
C124 N122 1.346 . S
C124 N125 1.307 1_565 S
C124 C126 1.486 . S
N125 N121 1.370 . S
N125 C124 1.307 1_545 S
C126 C124 1.486 . S
C126 H130 0.960 . S
C126 H131 0.960 . S
C126 H132 0.959 . S
H127 C123 0.960 . S
H128 C123 0.961 1_565 S
H129 C123 0.960 . S
H130 C126 0.960 . S
H131 C126 0.960 . S
H132 C126 0.959 . S
C133 N134 1.317 . S
C133 N135 1.348 . S
C133 C136 1.485 . S
N134 C133 1.317 . S
N134 N138 1.370 . S
N135 C133 1.348 . S
N135 C137 1.346 . S
C136 C133 1.485 . S
C136 H140 0.960 . S
C136 H141 0.961 . S
C136 H142 0.960 . S
C137 N135 1.346 . S
C137 N138 1.307 . S
C137 C139 1.486 . S
N138 N134 1.370 . S
N138 C137 1.307 . S
C139 C137 1.486 . S
C139 H143 0.960 . S
C139 H144 0.960 . S
C139 H145 0.959 . S
H140 C136 0.960 . S
H141 C136 0.961 . S
H142 C136 0.960 . S
H143 C139 0.960 . S
H144 C139 0.960 . S
H145 C139 0.959 . S
C146 N147 1.317 . S
C146 N148 1.348 . S
C146 C149 1.485 . S
N147 C146 1.317 . S
N147 N151 1.370 . S
N148 C146 1.348 . S
N148 C150 1.346 . S
C149 C146 1.485 . S
C149 H153 0.960 . S
C149 H154 0.961 . S
C149 H155 0.960 . S
C150 N148 1.346 . S
C150 N151 1.307 . S
C150 C152 1.486 1_455 S
N151 N147 1.370 . S
N151 C150 1.307 . S
C152 C150 1.486 1_655 S
C152 H156 0.960 . S
C152 H157 0.960 . S
C152 H158 0.959 . S
H153 C149 0.960 . S
H154 C149 0.961 . S
H155 C149 0.960 . S
H156 C152 0.960 . S
H157 C152 0.960 . S
H158 C152 0.959 . S
C159 N160 1.317 . S
C159 N161 1.348 . S
C159 C162 1.485 . S
N160 C159 1.317 . S
N160 N164 1.370 . S
N161 C159 1.348 . S
N161 C163 1.346 . S
C162 C159 1.485 . S
C162 H166 0.960 . S
C162 H167 0.961 . S
C162 H168 0.960 . S
C163 N161 1.346 . S
C163 N164 1.307 . S
C163 C165 1.486 . S
N164 N160 1.370 . S
N164 C163 1.307 . S
C165 C163 1.486 . S
C165 H169 0.960 . S
C165 H170 0.960 . S
C165 H171 0.959 . S
H166 C162 0.960 . S
H167 C162 0.961 . S
H168 C162 0.960 . S
H169 C165 0.960 . S
H170 C165 0.960 . S
H171 C165 0.959 . S
C172 N173 1.317 . S
C172 N174 1.348 . S
C172 C175 1.485 . S
N173 C172 1.317 . S
N173 N177 1.370 . S
N174 C172 1.348 . S
N174 C176 1.346 . S
C175 C172 1.485 . S
C175 H179 0.960 . S
C175 H180 0.961 . S
C175 H181 0.960 . S
C176 N174 1.346 . S
C176 N177 1.307 . S
C176 C178 1.486 . S
N177 N173 1.370 . S
N177 C176 1.307 . S
C178 C176 1.486 . S
C178 H182 0.960 . S
C178 H183 0.960 . S
C178 H184 0.959 . S
H179 C175 0.960 . S
H180 C175 0.961 . S
H181 C175 0.960 . S
H182 C178 0.960 . S
H183 C178 0.960 . S
H184 C178 0.959 . S
C185 N186 1.317 . S
C185 N187 1.348 . S
C185 C188 1.485 . S
N186 C185 1.317 . S
N186 N190 1.370 . S
N187 C185 1.348 . S
N187 C189 1.346 . S
C188 C185 1.485 . S
C188 H192 0.960 . S
C188 H193 0.961 . S
C188 H194 0.960 . S
C189 N187 1.346 . S
C189 N190 1.307 . S
C189 C191 1.486 . S
N190 N186 1.370 . S
N190 C189 1.307 . S
C191 C189 1.486 . S
C191 H195 0.960 . S
C191 H196 0.960 . S
C191 H197 0.959 . S
H192 C188 0.960 . S
H193 C188 0.961 . S
H194 C188 0.960 . S
H195 C191 0.960 . S
H196 C191 0.960 . S
H197 C191 0.959 . S
H198 C216 0.951 . S
H199 C218 0.951 . S
H200 C220 0.950 . S
H201 C221 0.950 . S
H202 C223 0.950 . S
H203 C226 0.950 . S
H204 C227 0.950 . S
H205 C229 0.950 . S
H206 C230 0.950 . S
H207 C231 0.951 . S
H208 C233 0.951 . S
H209 C235 0.950 . S
H210 C236 0.950 . S
H211 C238 0.950 . S
H212 C241 0.950 . S
H213 C242 0.950 . S
H214 C244 0.950 . S
H215 C245 0.950 . S
C216 H198 0.951 . S
C216 C217 1.366 . S
C216 C218 1.388 . S
C217 C216 1.366 . S
C217 C221 1.385 . S
C218 H199 0.951 . S
C218 C216 1.388 . S
C218 C219 1.366 . S
C219 C218 1.366 . S
C219 C220 1.414 . S
C219 C222 1.499 . S
C220 H200 0.950 . S
C220 C219 1.414 . S
C220 C221 1.374 . S
C221 H201 0.950 . S
C221 C217 1.385 . S
C221 C220 1.374 . S
C222 C219 1.499 . S
C222 C223 1.373 . S
C222 C224 1.389 . S
C223 H202 0.950 . S
C223 C222 1.373 . S
C223 C239 1.377 . S
C224 C222 1.389 . S
C224 C225 1.524 . S
C224 C238 1.377 . S
C225 C224 1.524 . S
C225 C226 1.397 . S
C225 C230 1.363 . S
C226 H203 0.950 . S
C226 C225 1.397 . S
C226 C227 1.334 . S
C227 H204 0.950 . S
C227 C226 1.334 . S
C227 C228 1.287 . S
C228 C227 1.287 . S
C228 C229 1.524 . S
C228 H247 0.913 . S
C229 H205 0.950 . S
C229 C228 1.524 . S
C229 C230 1.415 . S
C230 H206 0.950 . S
C230 C225 1.363 . S
C230 C229 1.415 . S
C231 H207 0.951 . S
C231 C232 1.366 . S
C231 C233 1.388 . S
C232 C231 1.366 . S
C232 C236 1.385 . S
C233 H208 0.951 . S
C233 C231 1.388 . S
C233 C234 1.366 . S
C234 C233 1.366 . S
C234 C235 1.414 . S
C234 C237 1.499 . S
C235 H209 0.950 . S
C235 C234 1.414 . S
C235 C236 1.374 . S
C236 H210 0.950 . S
C236 C232 1.385 . S
C236 C235 1.374 . S
C237 C234 1.499 . S
C237 C238 1.373 . S
C237 C239 1.389 . S
C238 H211 0.950 . S
C238 C224 1.377 . S
C238 C237 1.373 . S
C239 C223 1.377 . S
C239 C237 1.389 . S
C239 C240 1.524 . S
C240 C239 1.524 . S
C240 C241 1.397 . S
C240 C245 1.363 . S
C241 H212 0.950 . S
C241 C240 1.397 . S
C241 C242 1.334 . S
C242 H213 0.950 . S
C242 C241 1.334 . S
C242 C243 1.287 . S
C243 C242 1.287 . S
C243 C244 1.524 . S
C243 H246 0.999 . S
C244 H214 0.950 . S
C244 C243 1.524 . S
C244 C245 1.415 . S
C245 H215 0.950 . S
C245 C240 1.363 . S
C245 C244 1.415 . S
H246 C243 0.999 . S
H247 C228 0.913 . S
H248 C266 0.951 . S
H249 C268 0.951 . S
H250 C270 0.950 . S
H251 C271 0.950 . S
H252 C273 0.950 . S
H253 C276 0.950 . S
H254 C277 0.950 . S
H255 C279 0.950 . S
H256 C280 0.950 . S
H257 C281 0.951 1_455 S
H258 C283 0.951 . S
H259 C285 0.950 . S
H260 C286 0.950 . S
H261 C288 0.950 . S
H262 C291 0.950 . S
H263 C292 0.950 . S
H264 C294 0.950 . S
H265 C295 0.950 . S
C266 H248 0.951 . S
C266 C267 1.366 . S
C266 C268 1.388 . S
C267 C266 1.366 . S
C267 C271 1.385 . S
C268 H249 0.951 . S
C268 C266 1.388 . S
C268 C269 1.366 . S
C269 C268 1.366 . S
C269 C270 1.414 . S
C269 C272 1.499 . S
C270 H250 0.950 . S
C270 C269 1.414 . S
C270 C271 1.374 . S
C271 H251 0.950 . S
C271 C267 1.385 . S
C271 C270 1.374 . S
C272 C269 1.499 . S
C272 C273 1.373 . S
C272 C274 1.389 . S
C273 H252 0.950 . S
C273 C272 1.373 . S
C273 C289 1.377 . S
C274 C272 1.389 . S
C274 C275 1.524 . S
C274 C288 1.377 . S
C275 C274 1.524 . S
C275 C276 1.397 . S
C275 C280 1.363 . S
C276 H253 0.950 . S
C276 C275 1.397 . S
C276 C277 1.334 . S
C277 H254 0.950 . S
C277 C276 1.334 . S
C277 C278 1.287 . S
C278 C277 1.287 . S
C278 C279 1.524 . S
C278 H297 0.913 . S
C279 H255 0.950 . S
C279 C278 1.524 . S
C279 C280 1.415 . S
C280 H256 0.950 . S
C280 C275 1.363 . S
C280 C279 1.415 . S
C281 H257 0.951 1_655 S
C281 C282 1.366 . S
C281 C283 1.388 . S
C282 C281 1.366 . S
C282 C286 1.385 . S
C283 H258 0.951 . S
C283 C281 1.388 . S
C283 C284 1.366 . S
C284 C283 1.366 . S
C284 C285 1.414 . S
C284 C287 1.499 . S
C285 H259 0.950 . S
C285 C284 1.414 . S
C285 C286 1.374 . S
C286 H260 0.950 . S
C286 C282 1.385 . S
C286 C285 1.374 . S
C287 C284 1.499 . S
C287 C288 1.373 . S
C287 C289 1.389 . S
C288 H261 0.950 . S
C288 C274 1.377 . S
C288 C287 1.373 . S
C289 C273 1.377 . S
C289 C287 1.389 . S
C289 C290 1.524 . S
C290 C289 1.524 . S
C290 C291 1.397 . S
C290 C295 1.363 . S
C291 H262 0.950 . S
C291 C290 1.397 . S
C291 C292 1.334 . S
C292 H263 0.950 . S
C292 C291 1.334 . S
C292 C293 1.287 . S
C293 C292 1.287 . S
C293 C294 1.524 . S
C293 H296 0.999 . S
C294 H264 0.950 . S
C294 C293 1.524 . S
C294 C295 1.415 . S
C295 H265 0.950 . S
C295 C290 1.363 . S
C295 C294 1.415 . S
H296 C293 0.999 . S
H297 C278 0.913 . S
H298 C316 0.951 . S
H299 C318 0.951 . S
H300 C320 0.950 . S
H301 C321 0.950 . S
H302 C323 0.950 . S
H303 C326 0.950 . S
H304 C327 0.950 . S
H305 C329 0.950 . S
H306 C330 0.950 . S
H307 C331 0.951 . S
H308 C333 0.951 . S
H309 C335 0.950 . S
H310 C336 0.950 . S
H311 C338 0.950 . S
H312 C341 0.950 . S
H313 C342 0.950 . S
H314 C344 0.950 . S
H315 C345 0.950 . S
C316 H298 0.951 . S
C316 C317 1.366 . S
C316 C318 1.388 . S
C317 C316 1.366 . S
C317 C321 1.385 . S
C318 H299 0.951 . S
C318 C316 1.388 . S
C318 C319 1.366 . S
C319 C318 1.366 . S
C319 C320 1.414 . S
C319 C322 1.499 . S
C320 H300 0.950 . S
C320 C319 1.414 . S
C320 C321 1.374 . S
C321 H301 0.950 . S
C321 C317 1.385 . S
C321 C320 1.374 . S
C322 C319 1.499 . S
C322 C323 1.373 . S
C322 C324 1.389 . S
C323 H302 0.950 . S
C323 C322 1.373 . S
C323 C339 1.377 . S
C324 C322 1.389 . S
C324 C325 1.524 . S
C324 C338 1.377 . S
C325 C324 1.524 . S
C325 C326 1.397 . S
C325 C330 1.363 . S
C326 H303 0.950 . S
C326 C325 1.397 . S
C326 C327 1.334 . S
C327 H304 0.950 . S
C327 C326 1.334 . S
C327 C328 1.287 . S
C328 C327 1.287 . S
C328 C329 1.524 . S
C328 H347 0.913 . S
C329 H305 0.950 . S
C329 C328 1.524 . S
C329 C330 1.415 . S
C330 H306 0.950 . S
C330 C325 1.363 . S
C330 C329 1.415 . S
C331 H307 0.951 . S
C331 C332 1.366 . S
C331 C333 1.388 . S
C332 C331 1.366 . S
C332 C336 1.385 . S
C333 H308 0.951 . S
C333 C331 1.388 . S
C333 C334 1.366 . S
C334 C333 1.366 . S
C334 C335 1.414 . S
C334 C337 1.499 . S
C335 H309 0.950 . S
C335 C334 1.414 . S
C335 C336 1.374 . S
C336 H310 0.950 . S
C336 C332 1.385 . S
C336 C335 1.374 . S
C337 C334 1.499 . S
C337 C338 1.373 . S
C337 C339 1.389 . S
C338 H311 0.950 . S
C338 C324 1.377 . S
C338 C337 1.373 . S
C339 C323 1.377 . S
C339 C337 1.389 . S
C339 C340 1.524 . S
C340 C339 1.524 . S
C340 C341 1.397 . S
C340 C345 1.363 . S
C341 H312 0.950 . S
C341 C340 1.397 . S
C341 C342 1.334 . S
C342 H313 0.950 . S
C342 C341 1.334 . S
C342 C343 1.287 . S
C343 C342 1.287 . S
C343 C344 1.524 . S
C343 H346 0.999 . S
C344 H314 0.950 . S
C344 C343 1.524 . S
C344 C345 1.415 . S
C345 H315 0.950 . S
C345 C340 1.363 . S
C345 C344 1.415 . S
H346 C343 0.999 . S
H347 C328 0.913 . S
H348 C366 0.951 . S
H349 C368 0.951 . S
H350 C370 0.950 . S
H351 C371 0.950 . S
H352 C373 0.950 . S
H353 C376 0.950 . S
H354 C377 0.950 . S
H355 C379 0.950 . S
H356 C380 0.950 . S
H357 C381 0.951 . S
H358 C383 0.951 . S
H359 C385 0.950 . S
H360 C386 0.950 . S
H361 C388 0.950 . S
H362 C391 0.950 . S
H363 C392 0.950 . S
H364 C394 0.950 . S
H365 C395 0.950 . S
C366 H348 0.951 . S
C366 C367 1.366 . S
C366 C368 1.388 . S
C367 C366 1.366 . S
C367 C371 1.385 . S
C368 H349 0.951 . S
C368 C366 1.388 . S
C368 C369 1.366 . S
C369 C368 1.366 . S
C369 C370 1.414 . S
C369 C372 1.499 . S
C370 H350 0.950 . S
C370 C369 1.414 . S
C370 C371 1.374 . S
C371 H351 0.950 . S
C371 C367 1.385 . S
C371 C370 1.374 . S
C372 C369 1.499 . S
C372 C373 1.373 . S
C372 C374 1.389 . S
C373 H352 0.950 . S
C373 C372 1.373 . S
C373 C389 1.377 . S
C374 C372 1.389 . S
C374 C375 1.524 . S
C374 C388 1.377 . S
C375 C374 1.524 . S
C375 C376 1.397 . S
C375 C380 1.363 . S
C376 H353 0.950 . S
C376 C375 1.397 . S
C376 C377 1.334 . S
C377 H354 0.950 . S
C377 C376 1.334 . S
C377 C378 1.287 . S
C378 C377 1.287 . S
C378 C379 1.524 . S
C378 H397 0.913 . S
C379 H355 0.950 . S
C379 C378 1.524 . S
C379 C380 1.415 . S
C380 H356 0.950 . S
C380 C375 1.363 . S
C380 C379 1.415 . S
C381 H357 0.951 . S
C381 C382 1.366 . S
C381 C383 1.388 . S
C382 C381 1.366 . S
C382 C386 1.385 . S
C383 H358 0.951 . S
C383 C381 1.388 . S
C383 C384 1.366 . S
C384 C383 1.366 . S
C384 C385 1.414 . S
C384 C387 1.499 . S
C385 H359 0.950 . S
C385 C384 1.414 . S
C385 C386 1.374 . S
C386 H360 0.950 . S
C386 C382 1.385 . S
C386 C385 1.374 . S
C387 C384 1.499 . S
C387 C388 1.373 . S
C387 C389 1.389 . S
C388 H361 0.950 . S
C388 C374 1.377 . S
C388 C387 1.373 . S
C389 C373 1.377 . S
C389 C387 1.389 . S
C389 C390 1.524 . S
C390 C389 1.524 . S
C390 C391 1.397 . S
C390 C395 1.363 . S
C391 H362 0.950 . S
C391 C390 1.397 . S
C391 C392 1.334 . S
C392 H363 0.950 . S
C392 C391 1.334 . S
C392 C393 1.287 . S
C393 C392 1.287 . S
C393 C394 1.524 . S
C393 H396 0.999 . S
C394 H364 0.950 . S
C394 C393 1.524 . S
C394 C395 1.415 . S
C395 H365 0.950 . S
C395 C390 1.363 . S
C395 C394 1.415 . S
H396 C393 0.999 . S
H397 C378 0.913 . S
H398 C416 0.951 . S
H399 C418 0.951 . S
H400 C420 0.950 . S
H401 C421 0.950 . S
H402 C423 0.950 . S
H403 C426 0.950 . S
H404 C427 0.950 . S
H405 C429 0.950 . S
H406 C430 0.950 . S
H407 C431 0.951 . S
H408 C433 0.951 . S
H409 C435 0.950 . S
H410 C436 0.950 . S
H411 C438 0.950 . S
H412 C441 0.950 . S
H413 C442 0.950 . S
H414 C444 0.950 . S
H415 C445 0.950 . S
C416 H398 0.951 . S
C416 C417 1.366 . S
C416 C418 1.388 . S
C417 C416 1.366 . S
C417 C421 1.385 . S
C418 H399 0.951 . S
C418 C416 1.388 . S
C418 C419 1.366 . S
C419 C418 1.366 . S
C419 C420 1.414 . S
C419 C422 1.499 . S
C420 H400 0.950 . S
C420 C419 1.414 . S
C420 C421 1.374 . S
C421 H401 0.950 . S
C421 C417 1.385 . S
C421 C420 1.374 . S
C422 C419 1.499 . S
C422 C423 1.373 . S
C422 C424 1.389 . S
C423 H402 0.950 . S
C423 C422 1.373 . S
C423 C439 1.377 . S
C424 C422 1.389 . S
C424 C425 1.524 . S
C424 C438 1.377 . S
C425 C424 1.524 . S
C425 C426 1.397 . S
C425 C430 1.363 . S
C426 H403 0.950 . S
C426 C425 1.397 . S
C426 C427 1.334 . S
C427 H404 0.950 . S
C427 C426 1.334 . S
C427 C428 1.287 . S
C428 C427 1.287 . S
C428 C429 1.524 . S
C428 H447 0.913 . S
C429 H405 0.950 . S
C429 C428 1.524 . S
C429 C430 1.415 . S
C430 H406 0.950 . S
C430 C425 1.363 . S
C430 C429 1.415 . S
C431 H407 0.951 . S
C431 C432 1.366 . S
C431 C433 1.388 . S
C432 C431 1.366 . S
C432 C436 1.385 . S
C433 H408 0.951 . S
C433 C431 1.388 . S
C433 C434 1.366 . S
C434 C433 1.366 . S
C434 C435 1.414 . S
C434 C437 1.499 . S
C435 H409 0.950 . S
C435 C434 1.414 . S
C435 C436 1.374 . S
C436 H410 0.950 . S
C436 C432 1.385 . S
C436 C435 1.374 . S
C437 C434 1.499 . S
C437 C438 1.373 . S
C437 C439 1.389 . S
C438 H411 0.950 . S
C438 C424 1.377 . S
C438 C437 1.373 . S
C439 C423 1.377 . S
C439 C437 1.389 . S
C439 C440 1.524 . S
C440 C439 1.524 . S
C440 C441 1.397 . S
C440 C445 1.363 . S
C441 H412 0.950 . S
C441 C440 1.397 . S
C441 C442 1.334 . S
C442 H413 0.950 . S
C442 C441 1.334 . S
C442 C443 1.287 . S
C443 C442 1.287 . S
C443 C444 1.524 . S
C443 H446 0.999 . S
C444 H414 0.950 . S
C444 C443 1.524 . S
C444 C445 1.415 . S
C445 H415 0.950 . S
C445 C440 1.363 . S
C445 C444 1.415 . S
H446 C443 0.999 . S
H447 C428 0.913 . S
H448 C466 0.951 . S
H449 C468 0.951 . S
H450 C470 0.950 . S
H451 C471 0.950 . S
H452 C473 0.950 . S
H453 C476 0.950 . S
H454 C477 0.950 . S
H455 C479 0.950 . S
H456 C480 0.950 . S
H457 C481 0.951 . S
H458 C483 0.951 . S
H459 C485 0.950 . S
H460 C486 0.950 . S
H461 C488 0.950 . S
H462 C491 0.950 . S
H463 C492 0.950 . S
H464 C494 0.950 . S
H465 C495 0.950 . S
C466 H448 0.951 . S
C466 C467 1.366 . S
C466 C468 1.388 . S
C467 C466 1.366 . S
C467 C471 1.385 . S
C468 H449 0.951 . S
C468 C466 1.388 . S
C468 C469 1.366 . S
C469 C468 1.366 . S
C469 C470 1.414 . S
C469 C472 1.499 . S
C470 H450 0.950 . S
C470 C469 1.414 . S
C470 C471 1.374 . S
C471 H451 0.950 . S
C471 C467 1.385 . S
C471 C470 1.374 . S
C472 C469 1.499 . S
C472 C473 1.373 . S
C472 C474 1.389 . S
C473 H452 0.950 . S
C473 C472 1.373 . S
C473 C489 1.377 . S
C474 C472 1.389 . S
C474 C475 1.524 . S
C474 C488 1.377 . S
C475 C474 1.524 . S
C475 C476 1.397 . S
C475 C480 1.363 . S
C476 H453 0.950 . S
C476 C475 1.397 . S
C476 C477 1.334 . S
C477 H454 0.950 . S
C477 C476 1.334 . S
C477 C478 1.287 . S
C478 C477 1.287 . S
C478 C479 1.524 . S
C478 H497 0.913 . S
C479 H455 0.950 . S
C479 C478 1.524 . S
C479 C480 1.415 . S
C480 H456 0.950 . S
C480 C475 1.363 . S
C480 C479 1.415 . S
C481 H457 0.951 . S
C481 C482 1.366 . S
C481 C483 1.388 . S
C482 C481 1.366 . S
C482 C486 1.385 . S
C483 H458 0.951 . S
C483 C481 1.388 . S
C483 C484 1.366 . S
C484 C483 1.366 . S
C484 C485 1.414 . S
C484 C487 1.499 . S
C485 H459 0.950 . S
C485 C484 1.414 . S
C485 C486 1.374 . S
C486 H460 0.950 . S
C486 C482 1.385 . S
C486 C485 1.374 . S
C487 C484 1.499 . S
C487 C488 1.373 . S
C487 C489 1.389 . S
C488 H461 0.950 . S
C488 C474 1.377 . S
C488 C487 1.373 . S
C489 C473 1.377 . S
C489 C487 1.389 . S
C489 C490 1.524 . S
C490 C489 1.524 . S
C490 C491 1.397 . S
C490 C495 1.363 . S
C491 H462 0.950 . S
C491 C490 1.397 . S
C491 C492 1.334 . S
C492 H463 0.950 . S
C492 C491 1.334 . S
C492 C493 1.287 . S
C493 C492 1.287 . S
C493 C494 1.524 . S
C493 H496 0.999 . S
C494 H464 0.950 . S
C494 C493 1.524 . S
C494 C495 1.415 . S
C495 H465 0.950 . S
C495 C490 1.363 . S
C495 C494 1.415 . S
H496 C493 0.999 . S
H497 C478 0.913 . S
H498 C516 0.951 . S
H499 C518 0.951 . S
H500 C520 0.950 . S
H501 C521 0.950 . S
H502 C523 0.950 . S
H503 C526 0.950 . S
H504 C527 0.950 . S
H505 C529 0.950 . S
H506 C530 0.950 . S
H507 C531 0.951 . S
H508 C533 0.951 . S
H509 C535 0.950 . S
H510 C536 0.950 . S
H511 C538 0.950 . S
H512 C541 0.950 . S
H513 C542 0.950 . S
H514 C544 0.950 . S
H515 C545 0.950 . S
C516 H498 0.951 . S
C516 C517 1.366 . S
C516 C518 1.388 . S
C517 C516 1.366 . S
C517 C521 1.385 . S
C518 H499 0.951 . S
C518 C516 1.388 . S
C518 C519 1.366 . S
C519 C518 1.366 . S
C519 C520 1.414 . S
C519 C522 1.499 . S
C520 H500 0.950 . S
C520 C519 1.414 . S
C520 C521 1.374 . S
C521 H501 0.950 . S
C521 C517 1.385 . S
C521 C520 1.374 . S
C522 C519 1.499 . S
C522 C523 1.373 . S
C522 C524 1.389 . S
C523 H502 0.950 . S
C523 C522 1.373 . S
C523 C539 1.377 . S
C524 C522 1.389 . S
C524 C525 1.524 . S
C524 C538 1.377 . S
C525 C524 1.524 . S
C525 C526 1.397 . S
C525 C530 1.363 . S
C526 H503 0.950 . S
C526 C525 1.397 . S
C526 C527 1.334 . S
C527 H504 0.950 . S
C527 C526 1.334 . S
C527 C528 1.287 . S
C528 C527 1.287 . S
C528 C529 1.524 . S
C528 H547 0.913 . S
C529 H505 0.950 . S
C529 C528 1.524 . S
C529 C530 1.415 . S
C530 H506 0.950 . S
C530 C525 1.363 . S
C530 C529 1.415 . S
C531 H507 0.951 . S
C531 C532 1.366 . S
C531 C533 1.388 . S
C532 C531 1.366 . S
C532 C536 1.385 . S
C533 H508 0.951 . S
C533 C531 1.388 . S
C533 C534 1.366 . S
C534 C533 1.366 . S
C534 C535 1.414 . S
C534 C537 1.499 . S
C535 H509 0.950 . S
C535 C534 1.414 . S
C535 C536 1.374 . S
C536 H510 0.950 . S
C536 C532 1.385 . S
C536 C535 1.374 . S
C537 C534 1.499 . S
C537 C538 1.373 . S
C537 C539 1.389 . S
C538 H511 0.950 . S
C538 C524 1.377 . S
C538 C537 1.373 . S
C539 C523 1.377 . S
C539 C537 1.389 . S
C539 C540 1.524 . S
C540 C539 1.524 . S
C540 C541 1.397 . S
C540 C545 1.363 . S
C541 H512 0.950 . S
C541 C540 1.397 . S
C541 C542 1.334 . S
C542 H513 0.950 . S
C542 C541 1.334 . S
C542 C543 1.287 . S
C543 C542 1.287 . S
C543 C544 1.524 . S
C543 H546 0.999 . S
C544 H514 0.950 . S
C544 C543 1.524 . S
C544 C545 1.415 . S
C545 H515 0.950 . S
C545 C540 1.363 . S
C545 C544 1.415 . S
H546 C543 0.999 . S
H547 C528 0.913 . S
H548 C566 0.951 . S
H549 C568 0.951 . S
H550 C570 0.950 . S
H551 C571 0.950 . S
H552 C573 0.950 . S
H553 C576 0.950 . S
H554 C577 0.950 . S
H555 C579 0.950 . S
H556 C580 0.950 . S
H557 C581 0.951 1_455 S
H558 C583 0.951 . S
H559 C585 0.950 . S
H560 C586 0.950 . S
H561 C588 0.950 . S
H562 C591 0.950 . S
H563 C592 0.950 . S
H564 C594 0.950 . S
H565 C595 0.950 . S
C566 H548 0.951 . S
C566 C567 1.366 . S
C566 C568 1.388 . S
C567 C566 1.366 . S
C567 C571 1.385 . S
C568 H549 0.951 . S
C568 C566 1.388 . S
C568 C569 1.366 . S
C569 C568 1.366 . S
C569 C570 1.414 . S
C569 C572 1.499 . S
C570 H550 0.950 . S
C570 C569 1.414 . S
C570 C571 1.374 . S
C571 H551 0.950 . S
C571 C567 1.385 . S
C571 C570 1.374 . S
C572 C569 1.499 . S
C572 C573 1.373 . S
C572 C574 1.389 . S
C573 H552 0.950 . S
C573 C572 1.373 . S
C573 C589 1.377 . S
C574 C572 1.389 . S
C574 C575 1.524 . S
C574 C588 1.377 . S
C575 C574 1.524 . S
C575 C576 1.397 . S
C575 C580 1.363 . S
C576 H553 0.950 . S
C576 C575 1.397 . S
C576 C577 1.334 . S
C577 H554 0.950 . S
C577 C576 1.334 . S
C577 C578 1.287 . S
C578 C577 1.287 . S
C578 C579 1.524 . S
C578 H597 0.913 . S
C579 H555 0.950 . S
C579 C578 1.524 . S
C579 C580 1.415 . S
C580 H556 0.950 . S
C580 C575 1.363 . S
C580 C579 1.415 . S
C581 H557 0.951 1_655 S
C581 C582 1.366 1_655 S
C581 C583 1.388 . S
C582 C581 1.366 1_455 S
C582 C586 1.385 1_455 S
C583 H558 0.951 . S
C583 C581 1.388 . S
C583 C584 1.366 . S
C584 C583 1.366 . S
C584 C585 1.414 . S
C584 C587 1.499 . S
C585 H559 0.950 . S
C585 C584 1.414 . S
C585 C586 1.374 . S
C586 H560 0.950 . S
C586 C582 1.385 1_655 S
C586 C585 1.374 . S
C587 C584 1.499 . S
C587 C588 1.373 . S
C587 C589 1.389 . S
C588 H561 0.950 . S
C588 C574 1.377 . S
C588 C587 1.373 . S
C589 C573 1.377 . S
C589 C587 1.389 . S
C589 C590 1.524 . S
C590 C589 1.524 . S
C590 C591 1.397 . S
C590 C595 1.363 . S
C591 H562 0.950 . S
C591 C590 1.397 . S
C591 C592 1.334 . S
C592 H563 0.950 . S
C592 C591 1.334 . S
C592 C593 1.287 . S
C593 C592 1.287 . S
C593 C594 1.524 . S
C593 H596 0.999 . S
C594 H564 0.950 . S
C594 C593 1.524 . S
C594 C595 1.415 . S
C595 H565 0.950 . S
C595 C590 1.363 . S
C595 C594 1.415 . S
H596 C593 0.999 . S
H597 C578 0.913 . S
H598 C616 0.951 . S
H599 C618 0.951 . S
H600 C620 0.950 . S
H601 C621 0.950 . S
H602 C623 0.950 . S
H603 C626 0.950 . S
H604 C627 0.950 . S
H605 C629 0.950 . S
H606 C630 0.950 . S
H607 C631 0.951 . S
H608 C633 0.951 . S
H609 C635 0.950 . S
H610 C636 0.950 . S
H611 C638 0.950 . S
H612 C641 0.950 . S
H613 C642 0.950 . S
H614 C644 0.950 . S
H615 C645 0.950 . S
C616 H598 0.951 . S
C616 C617 1.366 . S
C616 C618 1.388 . S
C617 C616 1.366 . S
C617 C621 1.385 . S
C618 H599 0.951 . S
C618 C616 1.388 . S
C618 C619 1.366 . S
C619 C618 1.366 . S
C619 C620 1.414 . S
C619 C622 1.499 . S
C620 H600 0.950 . S
C620 C619 1.414 . S
C620 C621 1.374 . S
C621 H601 0.950 . S
C621 C617 1.385 . S
C621 C620 1.374 . S
C622 C619 1.499 . S
C622 C623 1.373 . S
C622 C624 1.389 . S
C623 H602 0.950 . S
C623 C622 1.373 . S
C623 C639 1.377 . S
C624 C622 1.389 . S
C624 C625 1.524 . S
C624 C638 1.377 . S
C625 C624 1.524 . S
C625 C626 1.397 . S
C625 C630 1.363 . S
C626 H603 0.950 . S
C626 C625 1.397 . S
C626 C627 1.334 . S
C627 H604 0.950 . S
C627 C626 1.334 . S
C627 C628 1.287 . S
C628 C627 1.287 . S
C628 C629 1.524 . S
C628 H647 0.913 . S
C629 H605 0.950 . S
C629 C628 1.524 . S
C629 C630 1.415 . S
C630 H606 0.950 . S
C630 C625 1.363 . S
C630 C629 1.415 . S
C631 H607 0.951 . S
C631 C632 1.366 . S
C631 C633 1.388 . S
C632 C631 1.366 . S
C632 C636 1.385 . S
C633 H608 0.951 . S
C633 C631 1.388 . S
C633 C634 1.366 . S
C634 C633 1.366 . S
C634 C635 1.414 . S
C634 C637 1.499 . S
C635 H609 0.950 . S
C635 C634 1.414 . S
C635 C636 1.374 . S
C636 H610 0.950 . S
C636 C632 1.385 . S
C636 C635 1.374 . S
C637 C634 1.499 . S
C637 C638 1.373 . S
C637 C639 1.389 . S
C638 H611 0.950 . S
C638 C624 1.377 . S
C638 C637 1.373 . S
C639 C623 1.377 . S
C639 C637 1.389 . S
C639 C640 1.524 . S
C640 C639 1.524 . S
C640 C641 1.397 . S
C640 C645 1.363 . S
C641 H612 0.950 . S
C641 C640 1.397 . S
C641 C642 1.334 . S
C642 H613 0.950 . S
C642 C641 1.334 . S
C642 C643 1.287 . S
C643 C642 1.287 . S
C643 C644 1.524 . S
C643 H646 0.999 . S
C644 H614 0.950 . S
C644 C643 1.524 . S
C644 C645 1.415 . S
C645 H615 0.950 . S
C645 C640 1.363 . S
C645 C644 1.415 . S
H646 C643 0.999 . S
H647 C628 0.913 . S
H648 C666 0.951 . S
H649 C668 0.951 . S
H650 C670 0.950 . S
H651 C671 0.950 . S
H652 C673 0.950 . S
H653 C676 0.950 . S
H654 C677 0.950 . S
H655 C679 0.950 . S
H656 C680 0.950 . S
H657 C681 0.951 . S
H658 C683 0.951 . S
H659 C685 0.950 . S
H660 C686 0.950 . S
H661 C688 0.950 . S
H662 C691 0.950 . S
H663 C692 0.950 . S
H664 C694 0.950 . S
H665 C695 0.950 . S
C666 H648 0.951 . S
C666 C667 1.366 . S
C666 C668 1.388 . S
C667 C666 1.366 . S
C667 C671 1.385 . S
C668 H649 0.951 . S
C668 C666 1.388 . S
C668 C669 1.366 . S
C669 C668 1.366 . S
C669 C670 1.414 . S
C669 C672 1.499 . S
C670 H650 0.950 . S
C670 C669 1.414 . S
C670 C671 1.374 . S
C671 H651 0.950 . S
C671 C667 1.385 . S
C671 C670 1.374 . S
C672 C669 1.499 . S
C672 C673 1.373 . S
C672 C674 1.389 . S
C673 H652 0.950 . S
C673 C672 1.373 . S
C673 C689 1.377 . S
C674 C672 1.389 . S
C674 C675 1.524 . S
C674 C688 1.377 . S
C675 C674 1.524 . S
C675 C676 1.397 . S
C675 C680 1.363 . S
C676 H653 0.950 . S
C676 C675 1.397 . S
C676 C677 1.334 . S
C677 H654 0.950 . S
C677 C676 1.334 . S
C677 C678 1.287 . S
C678 C677 1.287 . S
C678 C679 1.524 . S
C678 H697 0.913 . S
C679 H655 0.950 . S
C679 C678 1.524 . S
C679 C680 1.415 . S
C680 H656 0.950 . S
C680 C675 1.363 . S
C680 C679 1.415 . S
C681 H657 0.951 . S
C681 C682 1.366 . S
C681 C683 1.388 . S
C682 C681 1.366 . S
C682 C686 1.385 . S
C683 H658 0.951 . S
C683 C681 1.388 . S
C683 C684 1.366 . S
C684 C683 1.366 . S
C684 C685 1.414 . S
C684 C687 1.499 . S
C685 H659 0.950 . S
C685 C684 1.414 . S
C685 C686 1.374 . S
C686 H660 0.950 . S
C686 C682 1.385 . S
C686 C685 1.374 . S
C687 C684 1.499 . S
C687 C688 1.373 . S
C687 C689 1.389 . S
C688 H661 0.950 . S
C688 C674 1.377 . S
C688 C687 1.373 . S
C689 C673 1.377 . S
C689 C687 1.389 . S
C689 C690 1.524 . S
C690 C689 1.524 . S
C690 C691 1.397 . S
C690 C695 1.363 . S
C691 H662 0.950 . S
C691 C690 1.397 . S
C691 C692 1.334 . S
C692 H663 0.950 . S
C692 C691 1.334 . S
C692 C693 1.287 . S
C693 C692 1.287 . S
C693 C694 1.524 . S
C693 H696 0.999 . S
C694 H664 0.950 . S
C694 C693 1.524 . S
C694 C695 1.415 . S
C695 H665 0.950 . S
C695 C690 1.363 . S
C695 C694 1.415 . S
H696 C693 0.999 . S
H697 C678 0.913 . S
H698 C716 0.951 . S
H699 C718 0.951 . S
H700 C720 0.950 . S
H701 C721 0.950 . S
H702 C723 0.950 . S
H703 C726 0.950 . S
H704 C727 0.950 . S
H705 C729 0.950 . S
H706 C730 0.950 . S
H707 C731 0.951 . S
H708 C733 0.951 . S
H709 C735 0.950 . S
H710 C736 0.950 . S
H711 C738 0.950 . S
H712 C741 0.950 . S
H713 C742 0.950 . S
H714 C744 0.950 . S
H715 C745 0.950 . S
C716 H698 0.951 . S
C716 C717 1.366 . S
C716 C718 1.388 . S
C717 C716 1.366 . S
C717 C721 1.385 . S
C718 H699 0.951 . S
C718 C716 1.388 . S
C718 C719 1.366 . S
C719 C718 1.366 . S
C719 C720 1.414 . S
C719 C722 1.499 . S
C720 H700 0.950 . S
C720 C719 1.414 . S
C720 C721 1.374 . S
C721 H701 0.950 . S
C721 C717 1.385 . S
C721 C720 1.374 . S
C722 C719 1.499 . S
C722 C723 1.373 . S
C722 C724 1.389 . S
C723 H702 0.950 . S
C723 C722 1.373 . S
C723 C739 1.377 . S
C724 C722 1.389 . S
C724 C725 1.524 . S
C724 C738 1.377 . S
C725 C724 1.524 . S
C725 C726 1.397 . S
C725 C730 1.363 . S
C726 H703 0.950 . S
C726 C725 1.397 . S
C726 C727 1.334 . S
C727 H704 0.950 . S
C727 C726 1.334 . S
C727 C728 1.287 . S
C728 C727 1.287 . S
C728 C729 1.524 . S
C728 H747 0.913 . S
C729 H705 0.950 . S
C729 C728 1.524 . S
C729 C730 1.415 . S
C730 H706 0.950 . S
C730 C725 1.363 . S
C730 C729 1.415 . S
C731 H707 0.951 . S
C731 C732 1.366 . S
C731 C733 1.388 . S
C732 C731 1.366 . S
C732 C736 1.385 . S
C733 H708 0.951 . S
C733 C731 1.388 . S
C733 C734 1.366 . S
C734 C733 1.366 . S
C734 C735 1.414 . S
C734 C737 1.499 . S
C735 H709 0.950 . S
C735 C734 1.414 . S
C735 C736 1.374 . S
C736 H710 0.950 . S
C736 C732 1.385 . S
C736 C735 1.374 . S
C737 C734 1.499 . S
C737 C738 1.373 . S
C737 C739 1.389 . S
C738 H711 0.950 . S
C738 C724 1.377 . S
C738 C737 1.373 . S
C739 C723 1.377 . S
C739 C737 1.389 . S
C739 C740 1.524 . S
C740 C739 1.524 . S
C740 C741 1.397 . S
C740 C745 1.363 . S
C741 H712 0.950 . S
C741 C740 1.397 . S
C741 C742 1.334 . S
C742 H713 0.950 . S
C742 C741 1.334 . S
C742 C743 1.287 . S
C743 C742 1.287 . S
C743 C744 1.524 . S
C743 H746 0.999 . S
C744 H714 0.950 . S
C744 C743 1.524 . S
C744 C745 1.415 . S
C745 H715 0.950 . S
C745 C740 1.363 . S
C745 C744 1.415 . S
H746 C743 0.999 . S
H747 C728 0.913 . S
H748 C766 0.951 . S
H749 C768 0.951 . S
H750 C770 0.950 . S
H751 C771 0.950 . S
H752 C773 0.950 . S
H753 C776 0.950 . S
H754 C777 0.950 . S
H755 C779 0.950 . S
H756 C780 0.950 . S
H757 C781 0.951 . S
H758 C783 0.951 . S
H759 C785 0.950 . S
H760 C786 0.950 1_565 S
H761 C788 0.950 . S
H762 C791 0.950 . S
H763 C792 0.950 . S
H764 C794 0.950 . S
H765 C795 0.950 . S
C766 H748 0.951 . S
C766 C767 1.366 . S
C766 C768 1.388 . S
C767 C766 1.366 . S
C767 C771 1.385 . S
C768 H749 0.951 . S
C768 C766 1.388 . S
C768 C769 1.366 . S
C769 C768 1.366 . S
C769 C770 1.414 . S
C769 C772 1.499 . S
C770 H750 0.950 . S
C770 C769 1.414 . S
C770 C771 1.374 . S
C771 H751 0.950 . S
C771 C767 1.385 . S
C771 C770 1.374 . S
C772 C769 1.499 . S
C772 C773 1.373 . S
C772 C774 1.389 . S
C773 H752 0.950 . S
C773 C772 1.373 . S
C773 C789 1.377 . S
C774 C772 1.389 . S
C774 C775 1.524 . S
C774 C788 1.377 . S
C775 C774 1.524 . S
C775 C776 1.397 . S
C775 C780 1.363 . S
C776 H753 0.950 . S
C776 C775 1.397 . S
C776 C777 1.334 . S
C777 H754 0.950 . S
C777 C776 1.334 . S
C777 C778 1.287 . S
C778 C777 1.287 . S
C778 C779 1.524 . S
C778 H797 0.913 . S
C779 H755 0.950 . S
C779 C778 1.524 . S
C779 C780 1.415 . S
C780 H756 0.950 . S
C780 C775 1.363 . S
C780 C779 1.415 . S
C781 H757 0.951 . S
C781 C782 1.366 . S
C781 C783 1.388 . S
C782 C781 1.366 . S
C782 C786 1.385 . S
C783 H758 0.951 . S
C783 C781 1.388 . S
C783 C784 1.366 . S
C784 C783 1.366 . S
C784 C785 1.414 . S
C784 C787 1.499 . S
C785 H759 0.950 . S
C785 C784 1.414 . S
C785 C786 1.374 . S
C786 H760 0.950 1_545 S
C786 C782 1.385 . S
C786 C785 1.374 . S
C787 C784 1.499 . S
C787 C788 1.373 . S
C787 C789 1.389 . S
C788 H761 0.950 . S
C788 C774 1.377 . S
C788 C787 1.373 . S
C789 C773 1.377 . S
C789 C787 1.389 . S
C789 C790 1.524 . S
C790 C789 1.524 . S
C790 C791 1.397 . S
C790 C795 1.363 . S
C791 H762 0.950 . S
C791 C790 1.397 . S
C791 C792 1.334 . S
C792 H763 0.950 . S
C792 C791 1.334 . S
C792 C793 1.287 . S
C793 C792 1.287 . S
C793 C794 1.524 . S
C793 H796 0.999 . S
C794 H764 0.950 . S
C794 C793 1.524 . S
C794 C795 1.415 . S
C795 H765 0.950 . S
C795 C790 1.363 . S
C795 C794 1.415 . S
H796 C793 0.999 . S
H797 C778 0.913 . S
H798 C816 0.951 . S
H799 C818 0.951 . S
H800 C820 0.950 . S
H801 C821 0.950 . S
H802 C823 0.950 . S
H803 C826 0.950 . S
H804 C827 0.950 . S
H805 C829 0.950 . S
H806 C830 0.950 . S
H807 C831 0.955 . S
H808 C833 0.951 1_655 S
H809 C835 0.950 . S
H810 C836 0.950 . S
H811 C838 0.949 1_556 S
H812 C841 0.950 . S
H813 C842 0.950 . S
H814 C844 0.950 . S
H815 C845 0.950 1_655 S
C816 H798 0.951 . S
C816 C817 1.366 . S
C816 C818 1.388 . S
C817 C816 1.366 . S
C817 C821 1.385 1_455 S
C818 H799 0.951 . S
C818 C816 1.388 . S
C818 C819 1.366 . S
C819 C818 1.366 . S
C819 C820 1.414 1_455 S
C819 C822 1.499 . S
C820 H800 0.950 . S
C820 C819 1.414 1_655 S
C820 C821 1.374 . S
C821 H801 0.950 . S
C821 C817 1.385 1_655 S
C821 C820 1.374 . S
C822 C819 1.499 . S
C822 C823 1.373 . S
C822 C824 1.389 . S
C823 H802 0.950 . S
C823 C822 1.373 . S
C823 C839 1.377 1_554 S
C824 C822 1.389 . S
C824 C825 1.524 . S
C824 C838 1.380 . S
C825 C824 1.524 . S
C825 C826 1.397 1_455 S
C825 C830 1.363 . S
C826 H803 0.950 . S
C826 C825 1.397 1_655 S
C826 C827 1.334 . S
C827 H804 0.950 . S
C827 C826 1.334 . S
C827 C828 1.287 . S
C828 C827 1.287 . S
C828 C829 1.524 1_655 S
C828 H847 0.913 . S
C829 H805 0.950 . S
C829 C828 1.524 1_455 S
C829 C830 1.415 . S
C830 H806 0.950 . S
C830 C825 1.363 . S
C830 C829 1.415 . S
C831 H807 0.955 . S
C831 C832 1.366 . S
C831 C833 1.388 . S
C832 C831 1.366 . S
C832 C836 1.385 . S
C833 H808 0.951 1_455 S
C833 C831 1.388 . S
C833 C834 1.366 . S
C834 C833 1.366 . S
C834 C835 1.414 . S
C834 C837 1.499 . S
C835 H809 0.950 . S
C835 C834 1.414 . S
C835 C836 1.374 . S
C836 H810 0.950 . S
C836 C832 1.385 . S
C836 C835 1.374 . S
C837 C834 1.499 . S
C837 C838 1.371 1_556 S
C837 C839 1.389 . S
C838 H811 0.949 1_554 S
C838 C824 1.380 . S
C838 C837 1.371 1_554 S
C839 C823 1.377 1_556 S
C839 C837 1.389 . S
C839 C840 1.524 . S
C840 C839 1.524 . S
C840 C841 1.397 . S
C840 C845 1.363 . S
C841 H812 0.950 . S
C841 C840 1.397 . S
C841 C842 1.334 . S
C842 H813 0.950 . S
C842 C841 1.334 . S
C842 C843 1.287 . S
C843 C842 1.287 . S
C843 C844 1.524 . S
C843 H846 0.999 . S
C844 H814 0.950 . S
C844 C843 1.524 . S
C844 C845 1.415 . S
C845 H815 0.950 1_455 S
C845 C840 1.363 . S
C845 C844 1.415 . S
H846 C843 0.999 . S
H847 C828 0.913 . S
H848 C866 0.951 . S
H849 C868 0.951 . S
H850 C870 0.950 . S
H851 C871 0.950 . S
H852 C873 0.950 . S
H853 C876 0.950 . S
H854 C877 0.950 . S
H855 C879 0.950 . S
H856 C880 0.950 . S
H857 C881 0.951 . S
H858 C883 0.951 . S
H859 C885 0.950 . S
H860 C886 0.950 . S
H861 C888 0.950 . S
H862 C891 0.950 1_545 S
H863 C892 0.950 . S
H864 C894 0.950 . S
H865 C895 0.950 . S
C866 H848 0.951 . S
C866 C867 1.366 . S
C866 C868 1.388 . S
C867 C866 1.366 . S
C867 C871 1.385 1_545 S
C868 H849 0.951 . S
C868 C866 1.388 . S
C868 C869 1.366 . S
C869 C868 1.366 . S
C869 C870 1.414 1_545 S
C869 C872 1.499 . S
C870 H850 0.950 . S
C870 C869 1.414 1_565 S
C870 C871 1.374 . S
C871 H851 0.950 . S
C871 C867 1.385 1_565 S
C871 C870 1.374 . S
C872 C869 1.499 . S
C872 C873 1.373 1_545 S
C872 C874 1.389 . S
C873 H852 0.950 . S
C873 C872 1.373 1_565 S
C873 C889 1.377 . S
C874 C872 1.389 . S
C874 C875 1.524 . S
C874 C888 1.377 . S
C875 C874 1.524 . S
C875 C876 1.397 . S
C875 C880 1.363 . S
C876 H853 0.950 . S
C876 C875 1.397 . S
C876 C877 1.334 . S
C877 H854 0.950 . S
C877 C876 1.334 . S
C877 C878 1.287 . S
C878 C877 1.287 . S
C878 C879 1.524 . S
C878 H897 0.913 . S
C879 H855 0.950 . S
C879 C878 1.524 . S
C879 C880 1.415 . S
C880 H856 0.950 . S
C880 C875 1.363 . S
C880 C879 1.415 . S
C881 H857 0.951 . S
C881 C882 1.366 1_565 S
C881 C883 1.388 . S
C882 C881 1.366 1_545 S
C882 C886 1.385 . S
C883 H858 0.951 . S
C883 C881 1.388 . S
C883 C884 1.366 1_565 S
C884 C883 1.366 1_545 S
C884 C885 1.414 . S
C884 C887 1.499 . S
C885 H859 0.950 . S
C885 C884 1.414 . S
C885 C886 1.374 . S
C886 H860 0.950 . S
C886 C882 1.385 . S
C886 C885 1.374 . S
C887 C884 1.499 . S
C887 C888 1.373 . S
C887 C889 1.389 1_545 S
C888 H861 0.950 . S
C888 C874 1.377 . S
C888 C887 1.373 . S
C889 C873 1.377 . S
C889 C887 1.389 1_565 S
C889 C890 1.524 . S
C890 C889 1.524 . S
C890 C891 1.397 . S
C890 C895 1.363 . S
C891 H862 0.950 1_565 S
C891 C890 1.397 . S
C891 C892 1.334 . S
C892 H863 0.950 . S
C892 C891 1.334 . S
C892 C893 1.287 . S
C893 C892 1.287 . S
C893 C894 1.524 . S
C893 H896 0.999 . S
C894 H864 0.950 . S
C894 C893 1.524 . S
C894 C895 1.415 . S
C895 H865 0.950 . S
C895 C890 1.363 . S
C895 C894 1.415 . S
H896 C893 0.999 . S
H897 C878 0.913 . S
H898 C916 0.951 . S
H899 C918 0.951 . S
H900 C920 0.950 . S
H901 C921 0.950 . S
H902 C923 0.950 . S
H903 C926 0.950 . S
H904 C927 0.950 . S
H905 C929 0.950 . S
H906 C930 0.950 . S
H907 C931 0.951 . S
H908 C933 0.951 . S
H909 C935 0.950 . S
H910 C936 0.950 . S
H911 C938 0.950 . S
H912 C941 0.950 . S
H913 C942 0.950 . S
H914 C944 0.950 . S
H915 C945 0.950 . S
C916 H898 0.951 . S
C916 C917 1.366 . S
C916 C918 1.388 . S
C917 C916 1.366 . S
C917 C921 1.385 . S
C918 H899 0.951 . S
C918 C916 1.388 . S
C918 C919 1.366 . S
C919 C918 1.366 . S
C919 C920 1.414 . S
C919 C922 1.499 . S
C920 H900 0.950 . S
C920 C919 1.414 . S
C920 C921 1.374 . S
C921 H901 0.950 . S
C921 C917 1.385 . S
C921 C920 1.374 . S
C922 C919 1.499 . S
C922 C923 1.373 . S
C922 C924 1.389 . S
C923 H902 0.950 . S
C923 C922 1.373 . S
C923 C939 1.377 . S
C924 C922 1.389 . S
C924 C925 1.524 . S
C924 C938 1.377 . S
C925 C924 1.524 . S
C925 C926 1.397 . S
C925 C930 1.363 . S
C926 H903 0.950 . S
C926 C925 1.397 . S
C926 C927 1.334 . S
C927 H904 0.950 . S
C927 C926 1.334 . S
C927 C928 1.287 . S
C928 C927 1.287 . S
C928 C929 1.524 . S
C928 H947 0.913 . S
C929 H905 0.950 . S
C929 C928 1.524 . S
C929 C930 1.415 . S
C930 H906 0.950 . S
C930 C925 1.363 . S
C930 C929 1.415 . S
C931 H907 0.951 . S
C931 C932 1.366 . S
C931 C933 1.388 . S
C932 C931 1.366 . S
C932 C936 1.385 . S
C933 H908 0.951 . S
C933 C931 1.388 . S
C933 C934 1.366 . S
C934 C933 1.366 . S
C934 C935 1.414 . S
C934 C937 1.499 . S
C935 H909 0.950 . S
C935 C934 1.414 . S
C935 C936 1.374 . S
C936 H910 0.950 . S
C936 C932 1.385 . S
C936 C935 1.374 . S
C937 C934 1.499 . S
C937 C938 1.373 . S
C937 C939 1.389 . S
C938 H911 0.950 . S
C938 C924 1.377 . S
C938 C937 1.373 . S
C939 C923 1.377 . S
C939 C937 1.389 . S
C939 C940 1.524 . S
C940 C939 1.524 . S
C940 C941 1.397 . S
C940 C945 1.363 . S
C941 H912 0.950 . S
C941 C940 1.397 . S
C941 C942 1.334 . S
C942 H913 0.950 . S
C942 C941 1.334 . S
C942 C943 1.287 . S
C943 C942 1.287 . S
C943 C944 1.524 . S
C943 H946 0.999 . S
C944 H914 0.950 . S
C944 C943 1.524 . S
C944 C945 1.415 . S
C945 H915 0.950 . S
C945 C940 1.363 . S
C945 C944 1.415 . S
H946 C943 0.999 . S
H947 C928 0.913 . S
H948 C966 0.951 . S
H949 C968 0.951 . S
H950 C970 0.950 . S
H951 C971 0.950 . S
H952 C973 0.950 . S
H953 C976 0.950 . S
H954 C977 0.950 . S
H955 C979 0.950 . S
H956 C980 0.950 . S
H957 C981 0.951 . S
H958 C983 0.951 . S
H959 C985 0.950 1_565 S
H960 C986 0.950 1_565 S
H961 C988 0.950 . S
H962 C991 0.950 . S
H963 C992 0.950 . S
H964 C994 0.950 . S
H965 C995 0.950 . S
C966 H948 0.951 . S
C966 C967 1.366 1_565 S
C966 C968 1.388 . S
C967 C966 1.366 1_545 S
C967 C971 1.385 . S
C968 H949 0.951 . S
C968 C966 1.388 . S
C968 C969 1.366 1_565 S
C969 C968 1.366 1_545 S
C969 C970 1.414 . S
C969 C972 1.499 . S
C970 H950 0.950 . S
C970 C969 1.414 . S
C970 C971 1.374 . S
C971 H951 0.950 . S
C971 C967 1.385 . S
C971 C970 1.374 . S
C972 C969 1.499 . S
C972 C973 1.373 . S
C972 C974 1.389 . S
C973 H952 0.950 . S
C973 C972 1.373 . S
C973 C989 1.377 . S
C974 C972 1.389 . S
C974 C975 1.524 . S
C974 C988 1.377 . S
C975 C974 1.524 . S
C975 C976 1.397 . S
C975 C980 1.363 1_545 S
C976 H953 0.950 . S
C976 C975 1.397 . S
C976 C977 1.334 . S
C977 H954 0.950 . S
C977 C976 1.334 . S
C977 C978 1.287 . S
C978 C977 1.287 . S
C978 C979 1.524 1_545 S
C978 H997 0.913 . S
C979 H955 0.950 . S
C979 C978 1.524 1_565 S
C979 C980 1.415 . S
C980 H956 0.950 . S
C980 C975 1.363 1_565 S
C980 C979 1.415 . S
C981 H957 0.951 . S
C981 C982 1.366 . S
C981 C983 1.388 . S
C982 C981 1.366 . S
C982 C986 1.385 . S
C983 H958 0.951 . S
C983 C981 1.388 . S
C983 C984 1.366 . S
C984 C983 1.366 . S
C984 C985 1.414 . S
C984 C987 1.499 . S
C985 H959 0.950 1_545 S
C985 C984 1.414 . S
C985 C986 1.374 . S
C986 H960 0.950 1_545 S
C986 C982 1.385 . S
C986 C985 1.374 . S
C987 C984 1.499 . S
C987 C988 1.373 . S
C987 C989 1.389 . S
C988 H961 0.950 . S
C988 C974 1.377 . S
C988 C987 1.373 . S
C989 C973 1.377 . S
C989 C987 1.389 . S
C989 C990 1.524 . S
C990 C989 1.524 . S
C990 C991 1.397 . S
C990 C995 1.363 . S
C991 H962 0.950 . S
C991 C990 1.397 . S
C991 C992 1.334 . S
C992 H963 0.950 . S
C992 C991 1.334 . S
C992 C993 1.287 . S
C993 C992 1.287 . S
C993 C994 1.524 . S
C993 H996 0.999 . S
C994 H964 0.950 . S
C994 C993 1.524 . S
C994 C995 1.415 . S
C995 H965 0.950 . S
C995 C990 1.363 . S
C995 C994 1.415 . S
H996 C993 0.999 . S
H997 C978 0.913 . S
H998 C1016 0.951 . S
H999 C1018 0.951 . S
H1000 C1020 0.950 . S
H1001 C1021 0.950 . S
H1002 C1023 0.950 . S
H1003 C1026 0.950 . S
H1004 C1027 0.950 . S
H1005 C1029 0.950 . S
H1006 C1030 0.950 . S
H1007 C1031 0.951 . S
H1008 C1033 0.951 . S
H1009 C1035 0.950 . S
H1010 C1036 0.950 . S
H1011 C1038 0.950 . S
H1012 C1041 0.950 . S
H1013 C1042 0.950 . S
H1014 C1044 0.950 . S
H1015 C1045 0.953 1_556 S
C1016 H998 0.951 . S
C1016 C1017 1.366 . S
C1016 C1018 1.388 . S
C1017 C1016 1.366 . S
C1017 C1021 1.385 . S
C1018 H999 0.951 . S
C1018 C1016 1.388 . S
C1018 C1019 1.366 . S
C1019 C1018 1.366 . S
C1019 C1020 1.414 . S
C1019 C1022 1.499 . S
C1020 H1000 0.950 . S
C1020 C1019 1.414 . S
C1020 C1021 1.374 . S
C1021 H1001 0.950 . S
C1021 C1017 1.385 . S
C1021 C1020 1.374 . S
C1022 C1019 1.499 . S
C1022 C1023 1.373 . S
C1022 C1024 1.389 . S
C1023 H1002 0.950 . S
C1023 C1022 1.373 . S
C1023 C1039 1.401 . S
C1024 C1022 1.389 . S
C1024 C1025 1.524 . S
C1024 C1038 1.377 1_556 S
C1025 C1024 1.524 . S
C1025 C1026 1.397 . S
C1025 C1030 1.363 . S
C1026 H1003 0.950 . S
C1026 C1025 1.397 . S
C1026 C1027 1.334 . S
C1027 H1004 0.950 . S
C1027 C1026 1.334 . S
C1027 C1028 1.287 . S
C1028 C1027 1.287 . S
C1028 C1029 1.524 . S
C1028 H1047 0.913 . S
C1029 H1005 0.950 . S
C1029 C1028 1.524 . S
C1029 C1030 1.415 . S
C1030 H1006 0.950 . S
C1030 C1025 1.363 . S
C1030 C1029 1.415 . S
C1031 H1007 0.951 . S
C1031 C1032 1.366 . S
C1031 C1033 1.388 . S
C1032 C1031 1.366 . S
C1032 C1036 1.385 . S
C1033 H1008 0.951 . S
C1033 C1031 1.388 . S
C1033 C1034 1.366 . S
C1034 C1033 1.366 . S
C1034 C1035 1.414 . S
C1034 C1037 1.499 . S
C1035 H1009 0.950 . S
C1035 C1034 1.414 . S
C1035 C1036 1.374 . S
C1036 H1010 0.950 . S
C1036 C1032 1.385 . S
C1036 C1035 1.374 . S
C1037 C1034 1.499 . S
C1037 C1038 1.373 . S
C1037 C1039 1.375 1_554 S
C1038 H1011 0.950 . S
C1038 C1024 1.377 1_554 S
C1038 C1037 1.373 . S
C1039 C1023 1.401 . S
C1039 C1037 1.375 1_556 S
C1039 C1040 1.516 1_556 S
C1040 C1039 1.516 1_554 S
C1040 C1041 1.397 . S
C1040 C1045 1.361 . S
C1041 H1012 0.950 . S
C1041 C1040 1.397 . S
C1041 C1042 1.334 . S
C1042 H1013 0.950 . S
C1042 C1041 1.334 . S
C1042 C1043 1.287 . S
C1043 C1042 1.287 . S
C1043 C1044 1.524 . S
C1043 H1046 0.999 . S
C1044 H1014 0.950 . S
C1044 C1043 1.524 . S
C1044 C1045 1.414 . S
C1045 H1015 0.953 1_554 S
C1045 C1040 1.361 . S
C1045 C1044 1.414 . S
H1046 C1043 0.999 . S
H1047 C1028 0.913 . S
H1048 C1066 0.951 . S
H1049 C1068 0.951 . S
H1050 C1070 0.950 . S
H1051 C1071 0.950 . S
H1052 C1073 0.950 . S
H1053 C1076 0.950 . S
H1054 C1077 0.950 . S
H1055 C1079 0.950 . S
H1056 C1080 0.950 . S
H1057 C1081 0.951 . S
H1058 C1083 0.951 1_655 S
H1059 C1085 0.950 . S
H1060 C1086 0.950 . S
H1061 C1088 0.950 . S
H1062 C1091 0.950 . S
H1063 C1092 0.950 . S
H1064 C1094 0.950 . S
H1065 C1095 0.950 . S
C1066 H1048 0.951 . S
C1066 C1067 1.366 . S
C1066 C1068 1.388 . S
C1067 C1066 1.366 . S
C1067 C1071 1.385 1_455 S
C1068 H1049 0.951 . S
C1068 C1066 1.388 . S
C1068 C1069 1.366 . S
C1069 C1068 1.366 . S
C1069 C1070 1.414 1_455 S
C1069 C1072 1.499 . S
C1070 H1050 0.950 . S
C1070 C1069 1.414 1_655 S
C1070 C1071 1.374 . S
C1071 H1051 0.950 . S
C1071 C1067 1.385 1_655 S
C1071 C1070 1.374 . S
C1072 C1069 1.499 . S
C1072 C1073 1.373 1_455 S
C1072 C1074 1.389 . S
C1073 H1052 0.950 . S
C1073 C1072 1.373 1_655 S
C1073 C1089 1.377 . S
C1074 C1072 1.389 . S
C1074 C1075 1.524 . S
C1074 C1088 1.377 . S
C1075 C1074 1.524 . S
C1075 C1076 1.397 . S
C1075 C1080 1.363 . S
C1076 H1053 0.950 . S
C1076 C1075 1.397 . S
C1076 C1077 1.334 . S
C1077 H1054 0.950 . S
C1077 C1076 1.334 . S
C1077 C1078 1.287 . S
C1078 C1077 1.287 . S
C1078 C1079 1.524 . S
C1078 H1097 0.913 . S
C1079 H1055 0.950 . S
C1079 C1078 1.524 . S
C1079 C1080 1.415 . S
C1080 H1056 0.950 . S
C1080 C1075 1.363 . S
C1080 C1079 1.415 . S
C1081 H1057 0.951 . S
C1081 C1082 1.366 . S
C1081 C1083 1.388 . S
C1082 C1081 1.366 . S
C1082 C1086 1.385 . S
C1083 H1058 0.951 1_455 S
C1083 C1081 1.388 . S
C1083 C1084 1.366 . S
C1084 C1083 1.366 . S
C1084 C1085 1.414 . S
C1084 C1087 1.499 . S
C1085 H1059 0.950 . S
C1085 C1084 1.414 . S
C1085 C1086 1.374 . S
C1086 H1060 0.950 . S
C1086 C1082 1.385 . S
C1086 C1085 1.374 . S
C1087 C1084 1.499 . S
C1087 C1088 1.373 . S
C1087 C1089 1.389 1_455 S
C1088 H1061 0.950 . S
C1088 C1074 1.377 . S
C1088 C1087 1.373 . S
C1089 C1073 1.377 . S
C1089 C1087 1.389 1_655 S
C1089 C1090 1.524 . S
C1090 C1089 1.524 . S
C1090 C1091 1.397 . S
C1090 C1095 1.363 . S
C1091 H1062 0.950 . S
C1091 C1090 1.397 . S
C1091 C1092 1.334 . S
C1092 H1063 0.950 . S
C1092 C1091 1.334 . S
C1092 C1093 1.287 . S
C1093 C1092 1.287 . S
C1093 C1094 1.524 . S
C1093 H1096 0.999 . S
C1094 H1064 0.950 . S
C1094 C1093 1.524 . S
C1094 C1095 1.415 . S
C1095 H1065 0.950 . S
C1095 C1090 1.363 . S
C1095 C1094 1.415 . S
H1096 C1093 0.999 . S
H1097 C1078 0.913 . S
C217 C12 2.561 . S
C232 N187 2.522 . S
C267 C52 2.782 . S
C282 N160 2.782 1_655 S
C317 C111 2.822 . S
C332 N173 2.823 1_565 S
C367 C31 3.394 . S
C382 N186 3.405 . S
C432 N161 3.110 . S
C417 C71 3.139 . S
C482 N174 3.067 . S
C467 C92 3.093 . S
C517 C48 0.221 . S
C532 N134 0.146 . S
C567 C109 0.399 . S
C582 N148 0.270 . S
C617 C29 0.484 . S
C632 N122 0.401 . S
C682 N135 0.280 . S
C667 C69 0.420 . S
C732 N147 0.546 . S
C717 C88 0.559 . S
C767 C8 0.165 . S
C782 N121 0.196 . S
C832 N151 1.258 . S
C817 C17 1.267 1_455 S
C867 C57 1.312 . S
C882 N125 1.311 . S
C917 C97 1.247 . S
C932 N138 1.273 . S
C982 N177 1.804 . S
C967 C42 1.720 . S
C1032 N190 1.729 . S
C1017 C82 1.714 . S
C1067 C2 1.695 . S
C1082 N164 1.758 . S
