# Generated by pormake.
# Topology pth, (4,4)-cn, num edge types: 1
# Building blocks:
#     Node 0, Type 0, BuildingBlock: GALJAG_clean_sbu_0, # of connection points: 4
#     Node 1, Type 0, BuildingBlock: GALJAG_clean_sbu_0, # of connection points: 4
#     Node 2, Type 0, BuildingBlock: GALJAG_clean_sbu_0, # of connection points: 4
#     Node 3, Type 1, BuildingBlock: NAWXER_clean_linker_0, # of connection points: 4
#     Node 4, Type 1, BuildingBlock: NAWXER_clean_linker_0, # of connection points: 4
#     Node 5, Type 1, BuildingBlock: NAWXER_clean_linker_0, # of connection points: 4
#     Edge 6, Type (0, 1), BuildingBlock: EZIPEK_clean_linker_0, # of connection points: 2
#     Edge 7, Type (0, 1), BuildingBlock: EZIPEK_clean_linker_0, # of connection points: 2
#     Edge 8, Type (0, 1), BuildingBlock: EZIPEK_clean_linker_0, # of connection points: 2
#     Edge 9, Type (0, 1), BuildingBlock: EZIPEK_clean_linker_0, # of connection points: 2
#     Edge 10, Type (0, 1), BuildingBlock: EZIPEK_clean_linker_0, # of connection points: 2
#     Edge 11, Type (0, 1), BuildingBlock: EZIPEK_clean_linker_0, # of connection points: 2
#     Edge 12, Type (0, 1), BuildingBlock: EZIPEK_clean_linker_0, # of connection points: 2
#     Edge 13, Type (0, 1), BuildingBlock: EZIPEK_clean_linker_0, # of connection points: 2
#     Edge 14, Type (0, 1), BuildingBlock: EZIPEK_clean_linker_0, # of connection points: 2
#     Edge 15, Type (0, 1), BuildingBlock: EZIPEK_clean_linker_0, # of connection points: 2
#     Edge 16, Type (0, 1), BuildingBlock: EZIPEK_clean_linker_0, # of connection points: 2
#     Edge 17, Type (0, 1), BuildingBlock: EZIPEK_clean_linker_0, # of connection points: 2
# Relax obj value: 0.002
# Max RMSD: 0.036
# Mean RMSD: 0.021
data_MOF--net-pth--node1-GALJAG_clean_sbu_0--node2-NAWXER_clean_linker_0--edge1-EZIPEK_clean_linker_0
_symmetry_space_group_name_H-M    P1
_symmetry_Int_Tables_number       1
_symmetry_cell_setting            triclinic
loop_
_symmetry_equiv_pos_as_xyz
'x, y, z'
_cell_length_a     22.894553
_cell_length_b     22.891895
_cell_length_c     49.57753
_cell_angle_alpha  90.189228
_cell_angle_beta   90.156443
_cell_angle_gamma 119.98437
loop_
_atom_site_label
_atom_site_type_symbol
_atom_site_fract_x
_atom_site_fract_y
_atom_site_fract_z
_atom_type_partial_charge
In0 In 0.00487 0.00124 0.04634 0.0
O1 O 0.95324 0.05651 0.06328 0.0
O2 O 0.05237 0.08549 0.07741 0.0
C3 C 0.90395 0.91495 0.01367 0.0
C4 C 0.10407 0.08608 0.01342 0.0
C5 C 0.009 0.91276 0.08104 0.0
O6 O 0.89684 0.95332 0.03001 0.0
O7 O 0.96159 0.92063 0.01365 0.0
O8 O 0.0427 0.93036 0.05953 0.0
O9 O 0.97403 0.94034 0.08517 0.0
C10 C 0.00239 0.09455 0.07838 0.0
O11 O 0.11382 0.05337 0.03159 0.0
O12 O 0.04461 0.07537 0.01157 0.0
In13 In 0.00367 0.00185 0.38056 0.0
O14 O 0.06062 0.10222 0.35843 0.0
O15 O 0.95644 0.0373 0.34887 0.0
C16 C 0.10812 0.02833 0.4135 0.0
C17 C 0.91181 0.99336 0.41714 0.0
C18 C 0.98708 0.90176 0.34688 0.0
O19 O 0.10733 0.07356 0.39927 0.0
O20 O 0.05661 0.97077 0.41128 0.0
O21 O 0.93923 0.89807 0.36075 0.0
O22 O 0.04241 0.95577 0.34967 0.0
C23 C 0.00979 0.09273 0.3448 0.0
O24 O 0.92656 0.94748 0.41447 0.0
O25 O 0.94309 0.0423 0.40148 0.0
In26 In 0.99962 0.99547 0.71363 0.0
O27 O 0.95691 0.89186 0.73312 0.0
O28 O 0.92211 0.95722 0.74715 0.0
C29 C 0.08825 0.99605 0.67788 0.0
C30 C 0.90592 0.99482 0.68056 0.0
C31 C 0.08685 0.09067 0.7478 0.0
O32 O 0.05054 0.94487 0.69188 0.0
O33 O 0.08034 0.0462 0.68156 0.0
O34 O 0.04347 0.09789 0.7347 0.0
O35 O 0.08567 0.03561 0.74396 0.0
C36 C 0.9184 0.90051 0.74878 0.0
O37 O 0.94565 0.04609 0.69433 0.0
O38 O 0.9138 0.94446 0.68321 0.0
C39 C 0.96743 0.27781 0.25287 0.0
C40 C 0.01366 0.29528 0.27419 0.0
C41 C 0.96586 0.32812 0.23753 0.0
C42 C 0.01157 0.3966 0.24293 0.0
C43 C 0.05879 0.36344 0.27984 0.0
C44 C 0.05768 0.41374 0.26434 0.0
C45 C 0.00968 0.45077 0.22736 0.0
C46 C 0.0579 0.33198 0.16763 0.0
C47 C 0.00748 0.29991 0.14793 0.0
C48 C 0.05821 0.38148 0.18433 0.0
C49 C 0.00777 0.39901 0.18158 0.0
C50 C 0.95772 0.318 0.14491 0.0
C51 C 0.95814 0.36756 0.16151 0.0
C52 C 0.00698 0.45126 0.1989 0.0
C53 C 0.04563 0.7277 0.17589 0.0
C54 C 0.00744 0.7113 0.15202 0.0
C55 C 0.04483 0.67685 0.1917 0.0
C56 C 0.0036 0.60856 0.18447 0.0
C57 C 0.96771 0.6434 0.14439 0.0
C58 C 0.96556 0.59254 0.16053 0.0
C59 C 0.0031 0.55352 0.20041 0.0
C60 C 0.93853 0.66241 0.25761 0.0
C61 C 0.98453 0.69528 0.27872 0.0
C62 C 0.94416 0.61525 0.2415 0.0
C63 C 0.99632 0.60088 0.24613 0.0
C64 C 0.03548 0.67968 0.28384 0.0
C65 C 0.04109 0.6325 0.26775 0.0
C66 C 0.00364 0.55195 0.22894 0.0
H67 H 0.93158 0.22534 0.24857 0.0
H68 H 0.92819 0.31346 0.22177 0.0
H69 H 0.09427 0.37761 0.29644 0.0
H70 H 0.09284 0.46614 0.26909 0.0
H71 H 0.09686 0.31868 0.17002 0.0
H72 H 0.09785 0.40618 0.19927 0.0
H73 H 0.91871 0.2938 0.12968 0.0
H74 H 0.91916 0.38079 0.15892 0.0
H75 H 0.07701 0.7799 0.18198 0.0
H76 H 0.07723 0.69121 0.2093 0.0
H77 H 0.93817 0.62983 0.12596 0.0
H78 H 0.93413 0.5405 0.15423 0.0
H79 H 0.89857 0.67352 0.25359 0.0
H80 H 0.90794 0.59015 0.22539 0.0
H81 H 0.07112 0.70441 0.30017 0.0
H82 H 0.08116 0.6216 0.27187 0.0
N83 N 0.00794 0.50122 0.24126 0.0
N84 N 0.00389 0.50255 0.18662 0.0
C85 C 0.72991 0.03409 0.51239 0.0
C86 C 0.71288 0.99943 0.48762 0.0
C87 C 0.68146 0.0403 0.52719 0.0
C88 C 0.61367 0.00777 0.51857 0.0
C89 C 0.64599 0.96938 0.47835 0.0
C90 C 0.59681 0.97276 0.49382 0.0
C91 C 0.56037 0.01238 0.53407 0.0
C92 C 0.65944 0.94397 0.59583 0.0
C93 C 0.69901 0.99644 0.61398 0.0
C94 C 0.61277 0.94863 0.57907 0.0
C95 C 0.60498 0.00562 0.58043 0.0
C96 C 0.69018 0.05271 0.61566 0.0
C97 C 0.64289 0.05688 0.59921 0.0
C98 C 0.55717 0.01233 0.5626 0.0
C99 C 0.28218 0.96807 0.58525 0.0
C100 C 0.29673 0.01096 0.6076 0.0
C101 C 0.33446 0.97229 0.56936 0.0
C102 C 0.40188 0.01977 0.57556 0.0
C103 C 0.36392 0.05854 0.61375 0.0
C104 C 0.41616 0.06259 0.59794 0.0
C105 C 0.45795 0.02125 0.5603 0.0
C106 C 0.34992 0.08682 0.50357 0.0
C107 C 0.3187 0.04211 0.48193 0.0
C108 C 0.39696 0.08113 0.51972 0.0
C109 C 0.41301 0.03032 0.51454 0.0
C110 C 0.33609 0.99268 0.47624 0.0
C111 C 0.3832 0.98707 0.49235 0.0
C112 C 0.46137 0.02249 0.53188 0.0
H113 H 0.78139 0.05842 0.5198 0.0
H114 H 0.6979 0.07175 0.54505 0.0
H115 H 0.6318 0.94305 0.45915 0.0
H116 H 0.54543 0.94809 0.4863 0.0
H117 H 0.66546 0.90004 0.59443 0.0
H118 H 0.58313 0.90817 0.56494 0.0
H119 H 0.7202 0.09348 0.62961 0.0
H120 H 0.63703 0.10093 0.60066 0.0
H121 H 0.23052 0.93079 0.58038 0.0
H122 H 0.3223 0.93741 0.55265 0.0
H123 H 0.37585 0.09183 0.63101 0.0
H124 H 0.46782 0.09898 0.60325 0.0
H125 H 0.3374 0.12561 0.50805 0.0
H126 H 0.42071 0.11635 0.53626 0.0
H127 H 0.31262 0.95803 0.4595 0.0
H128 H 0.39533 0.94801 0.48781 0.0
N129 N 0.512 0.01735 0.51989 0.0
N130 N 0.5064 0.01702 0.57451 0.0
C131 C 0.32177 0.27641 0.83677 0.0
C132 C 0.2913 0.29525 0.81667 0.0
C133 C 0.37338 0.32559 0.85279 0.0
C134 C 0.39422 0.39422 0.84928 0.0
C135 C 0.3127 0.36364 0.81277 0.0
C136 C 0.36388 0.41278 0.82894 0.0
C137 C 0.44933 0.44732 0.86581 0.0
C138 C 0.28459 0.31897 0.9247 0.0
C139 C 0.30467 0.28668 0.9435 0.0
C140 C 0.33248 0.36999 0.90836 0.0
C141 C 0.40092 0.3889 0.91055 0.0
C142 C 0.37293 0.30557 0.94573 0.0
C143 C 0.42078 0.35667 0.92949 0.0
C144 C 0.45277 0.44426 0.89421 0.0
C145 C 0.66872 0.72471 0.92316 0.0
C146 C 0.70191 0.71111 0.94391 0.0
C147 C 0.62161 0.67238 0.90683 0.0
C148 C 0.6071 0.60574 0.91103 0.0
C149 C 0.68716 0.64458 0.94826 0.0
C150 C 0.63967 0.59217 0.93207 0.0
C151 C 0.55544 0.5497 0.89452 0.0
C152 C 0.72874 0.6683 0.83911 0.0
C153 C 0.71475 0.70066 0.81821 0.0
C154 C 0.67642 0.6202 0.85488 0.0
C155 C 0.6094 0.60399 0.85002 0.0
C156 C 0.64787 0.68427 0.8132 0.0
C157 C 0.59549 0.63589 0.82888 0.0
C158 C 0.55356 0.55155 0.8661 0.0
H159 H 0.30629 0.22378 0.83974 0.0
H160 H 0.39747 0.30998 0.86767 0.0
H161 H 0.28994 0.37888 0.79716 0.0
H162 H 0.37961 0.46537 0.82565 0.0
H163 H 0.23205 0.30515 0.92292 0.0
H164 H 0.31626 0.39524 0.89431 0.0
H165 H 0.38912 0.28122 0.96025 0.0
H166 H 0.47338 0.37094 0.93163 0.0
H167 H 0.67919 0.77575 0.9197 0.0
H168 H 0.59579 0.68383 0.89119 0.0
H169 H 0.71221 0.6333 0.96429 0.0
H170 H 0.62868 0.54107 0.93583 0.0
H171 H 0.78003 0.67993 0.84304 0.0
H172 H 0.68824 0.59491 0.87059 0.0
H173 H 0.63631 0.70858 0.797 0.0
H174 H 0.54414 0.62365 0.82462 0.0
N175 N 0.50009 0.50084 0.85285 0.0
N176 N 0.50555 0.49567 0.90745 0.0
C177 C 0.96231 0.12773 0.11946 0.0
C178 C 0.00225 0.14693 0.09579 0.0
C179 C 0.04341 0.26637 0.1057 0.0
C180 C 0.00669 0.24731 0.13019 0.0
N181 N 0.93752 0.16205 0.16235 0.0
N182 N 0.0843 0.23305 0.06679 0.0
C183 C 0.96771 0.17851 0.1376 0.0
C184 C 0.04398 0.21593 0.08907 0.0
N185 N 0.91892 0.06092 0.12445 0.0
N186 N 0.07601 0.33257 0.09804 0.0
H187 H 0.08214 0.1976 0.05295 0.0
H188 H 0.12216 0.28197 0.06252 0.0
H189 H 0.0782 0.37111 0.11006 0.0
H190 H 0.09749 0.34928 0.07915 0.0
H191 H 0.88283 0.04357 0.13961 0.0
H192 H 0.91593 0.02217 0.11234 0.0
H193 H 0.9145 0.11368 0.17036 0.0
H194 H 0.93935 0.19786 0.17593 0.0
C195 C 0.80108 0.93213 0.44255 0.0
C196 C 0.86304 0.99206 0.43725 0.0
C197 C 0.82385 0.05716 0.46298 0.0
C198 C 0.76551 0.99665 0.47089 0.0
N199 N 0.70888 0.87513 0.47391 0.0
N200 N 0.94082 0.10739 0.45057 0.0
C201 C 0.75728 0.93358 0.46248 0.0
C202 C 0.87679 0.05335 0.44997 0.0
N203 N 0.78164 0.87489 0.4277 0.0
N204 N 0.82786 0.11824 0.46665 0.0
H205 H 0.98232 0.10521 0.44319 0.0
H206 H 0.95371 0.15123 0.4615 0.0
H207 H 0.78854 0.12342 0.47456 0.0
H208 H 0.86724 0.16291 0.45895 0.0
H209 H 0.73391 0.83233 0.42931 0.0
H210 H 0.8096 0.87203 0.41176 0.0
H211 H 0.70503 0.82851 0.47012 0.0
H212 H 0.67753 0.87426 0.48932 0.0
C213 C 0.87027 0.86162 0.79486 0.0
C214 C 0.86987 0.84734 0.76696 0.0
C215 C 0.77504 0.73319 0.77393 0.0
C216 C 0.76996 0.75052 0.80097 0.0
N217 N 0.80706 0.83386 0.83655 0.0
N218 N 0.81452 0.77357 0.7289 0.0
C219 C 0.81618 0.81545 0.81134 0.0
C220 C 0.82058 0.78403 0.75618 0.0
N221 N 0.92347 0.91825 0.80577 0.0
N222 N 0.73728 0.6678 0.76535 0.0
H223 H 0.8455 0.80987 0.71499 0.0
H224 H 0.77465 0.73115 0.71988 0.0
H225 H 0.70346 0.62902 0.77781 0.0
H226 H 0.74412 0.65091 0.74673 0.0
H227 H 0.92989 0.92802 0.82642 0.0
H228 H 0.96477 0.95239 0.79443 0.0
H229 H 0.8347 0.88289 0.84405 0.0
H230 H 0.76811 0.80142 0.84927 0.0
C231 C 0.94735 0.8099 0.11011 0.0
C232 C 0.00917 0.86238 0.09974 0.0
C233 C 0.06955 0.81247 0.12191 0.0
C234 C 0.00893 0.765 0.13476 0.0
N235 N 0.89338 0.72943 0.146 0.0
N236 N 0.13108 0.92252 0.10141 0.0
C237 C 0.94878 0.7671 0.13039 0.0
C238 C 0.07097 0.8663 0.10722 0.0
N239 N 0.88712 0.79816 0.09963 0.0
N240 N 0.12509 0.80494 0.12282 0.0
H241 H 0.13455 0.96468 0.09189 0.0
H242 H 0.17716 0.9303 0.10872 0.0
H243 H 0.12576 0.76522 0.13276 0.0
H244 H 0.16822 0.83433 0.11146 0.0
H245 H 0.84111 0.75641 0.10482 0.0
H246 H 0.88338 0.82528 0.08354 0.0
H247 H 0.85047 0.73423 0.14532 0.0
H248 H 0.89295 0.69866 0.16157 0.0
C249 C 0.15129 0.02418 0.45935 0.0
C250 C 0.16466 0.04077 0.43165 0.0
C251 C 0.28274 0.07184 0.43872 0.0
C252 C 0.26676 0.04598 0.4653 0.0
N253 N 0.18441 0.99102 0.50039 0.0
N254 N 0.24103 0.07335 0.39393 0.0
C255 C 0.20071 0.02075 0.47558 0.0
C256 C 0.23005 0.06349 0.42106 0.0
N257 N 0.09199 0.01352 0.47028 0.0
N258 N 0.34846 0.10519 0.43053 0.0
H259 H 0.20382 0.06727 0.3802 0.0
H260 H 0.28552 0.08225 0.3847 0.0
H261 H 0.38826 0.112 0.44296 0.0
H262 H 0.36414 0.13127 0.41239 0.0
H263 H 0.08204 0.00783 0.49088 0.0
H264 H 0.05523 0.01709 0.45908 0.0
H265 H 0.13524 0.96483 0.50763 0.0
H266 H 0.21923 0.98787 0.51303 0.0
C267 C 0.11948 0.16139 0.78986 0.0
C268 C 0.13846 0.14441 0.76513 0.0
C269 C 0.2577 0.22335 0.77498 0.0
C270 C 0.23847 0.24334 0.79892 0.0
N271 N 0.15194 0.23858 0.82795 0.0
N272 N 0.22324 0.16571 0.73177 0.0
C273 C 0.1695 0.21448 0.806 0.0
C274 C 0.20698 0.17707 0.75705 0.0
N275 N 0.05415 0.12486 0.7984 0.0
N276 N 0.32453 0.24777 0.76965 0.0
H277 H 0.18751 0.13229 0.71802 0.0
H278 H 0.27117 0.19329 0.72349 0.0
H279 H 0.36325 0.28368 0.78177 0.0
H280 H 0.34183 0.22926 0.7543 0.0
H281 H 0.03831 0.12944 0.81755 0.0
H282 H 0.01611 0.08608 0.78698 0.0
H283 H 0.10247 0.22518 0.83254 0.0
H284 H 0.18736 0.27573 0.84077 0.0
C285 C 0.79585 0.99258 0.67585 0.0
C286 C 0.85175 0.99263 0.66352 0.0
C287 C 0.80897 0.99806 0.61882 0.0
C288 C 0.75077 0.99331 0.63101 0.0
N289 N 0.68197 0.97262 0.6705 0.0
N290 N 0.90436 0.98061 0.62339 0.0
C291 C 0.74229 0.98692 0.6594 0.0
C292 C 0.85597 0.99054 0.63502 0.0
N293 N 0.79379 0.99768 0.70329 0.0
N294 N 0.82098 0.01282 0.59199 0.0
H295 H 0.93986 0.97522 0.63459 0.0
H296 H 0.90543 0.97149 0.60286 0.0
H297 H 0.78843 0.01992 0.57944 0.0
H298 H 0.86613 0.02416 0.58267 0.0
H299 H 0.7587 0.00623 0.7132 0.0
H300 H 0.82964 0.99733 0.7162 0.0
H301 H 0.67009 0.96043 0.69071 0.0
H302 H 0.64116 0.96688 0.65901 0.0
C303 C 0.78722 0.81623 0.0065 0.0
C304 C 0.84934 0.86672 0.99561 0.0
C305 C 0.81549 0.81437 0.95085 0.0
C306 C 0.75178 0.76647 0.96139 0.0
N307 N 0.67123 0.73069 0.99763 0.0
N308 N 0.91577 0.92372 0.95654 0.0
C309 C 0.73584 0.77017 0.98875 0.0
C310 C 0.86149 0.86871 0.96749 0.0
N311 N 0.77841 0.80981 0.03382 0.0
N312 N 0.83309 0.80667 0.92531 0.0
H313 H 0.94908 0.96564 0.968 0.0
H314 H 0.92372 0.93095 0.93585 0.0
H315 H 0.80094 0.76737 0.91247 0.0
H316 H 0.88155 0.83587 0.91765 0.0
H317 H 0.73726 0.76911 0.04287 0.0
H318 H 0.81485 0.84188 0.04763 0.0
H319 H 0.65509 0.73622 0.0166 0.0
H320 H 0.63213 0.6966 0.98516 0.0
C321 C 0.99688 0.86046 0.30126 0.0
C322 C 0.97998 0.84675 0.32892 0.0
C323 C 0.95477 0.73024 0.3222 0.0
C324 C 0.97987 0.74658 0.29553 0.0
N325 N 0.03245 0.82913 0.26034 0.0
N326 N 0.95193 0.77168 0.3669 0.0
C327 C 0.0028 0.81219 0.28516 0.0
C328 C 0.96077 0.78227 0.33971 0.0
N329 N 0.00515 0.91874 0.29018 0.0
N330 N 0.92419 0.66475 0.33063 0.0
H331 H 0.95676 0.80856 0.38056 0.0
H332 H 0.94555 0.7282 0.37624 0.0
H333 H 0.91922 0.62538 0.31836 0.0
H334 H 0.89853 0.64855 0.34883 0.0
H335 H 0.01088 0.92861 0.26957 0.0
H336 H 0.99972 0.95458 0.30124 0.0
H337 H 0.05704 0.87824 0.25301 0.0
H338 H 0.03726 0.79507 0.24782 0.0
C339 C 0.1879 0.98085 0.66946 0.0
C340 C 0.14062 0.99863 0.65957 0.0
C341 C 0.19903 0.02935 0.61603 0.0
C342 C 0.24172 0.0051 0.62513 0.0
N343 N 0.26881 0.94577 0.65851 0.0
N344 N 0.09442 0.02972 0.62204 0.0
C345 C 0.23369 0.97715 0.65126 0.0
C346 C 0.14434 0.02022 0.63246 0.0
N347 N 0.19196 0.97138 0.69647 0.0
N348 N 0.21201 0.06304 0.59209 0.0
H349 H 0.05366 0.0238 0.63336 0.0
H350 H 0.09027 0.03774 0.60163 0.0
H351 H 0.25136 0.07038 0.5794 0.0
H352 H 0.18737 0.08854 0.58584 0.0
H353 H 0.23022 0.96539 0.70504 0.0
H354 H 0.16164 0.97668 0.71079 0.0
H355 H 0.25958 0.9182 0.67622 0.0
H356 H 0.30282 0.94191 0.64569 0.0
C357 C 0.15876 0.12023 0.96815 0.0
C358 C 0.15848 0.13517 0.99594 0.0
C359 C 0.25163 0.25021 0.98902 0.0
C360 C 0.25441 0.23423 0.96154 0.0
N361 N 0.2188 0.15212 0.92561 0.0
N362 N 0.21078 0.20951 0.03402 0.0
C363 C 0.21014 0.16864 0.95125 0.0
C364 C 0.20706 0.19861 0.00677 0.0
N365 N 0.10961 0.05985 0.95794 0.0
N366 N 0.28949 0.31542 0.99785 0.0
H367 H 0.17774 0.17378 0.04766 0.0
H368 H 0.24974 0.25191 0.04341 0.0
H369 H 0.32263 0.35475 0.98545 0.0
H370 H 0.28413 0.33186 0.0168 0.0
H371 H 0.1017 0.04901 0.93741 0.0
H372 H 0.07421 0.02128 0.97005 0.0
H373 H 0.19296 0.10334 0.91778 0.0
H374 H 0.25577 0.18641 0.91263 0.0
C375 C 0.04979 0.16178 0.30257 0.0
C376 C 0.01126 0.14457 0.32659 0.0
C377 C 0.96949 0.22117 0.31471 0.0
C378 C 0.01203 0.24229 0.29182 0.0
N379 N 0.09811 0.23922 0.26503 0.0
N380 N 0.9437 0.16582 0.35807 0.0
C381 C 0.05384 0.21445 0.28605 0.0
C382 C 0.97334 0.17618 0.33331 0.0
N383 N 0.08038 0.12602 0.29507 0.0
N384 N 0.92468 0.24347 0.31849 0.0
H385 H 0.94622 0.13416 0.37246 0.0
H386 H 0.92188 0.19313 0.3654 0.0
H387 H 0.92195 0.27841 0.30587 0.0
H388 H 0.88668 0.22365 0.33289 0.0
H389 H 0.10306 0.13092 0.27641 0.0
H390 H 0.07876 0.08743 0.30676 0.0
H391 H 0.13529 0.22663 0.26152 0.0
H392 H 0.10063 0.27603 0.25196 0.0
loop_
_geom_bond_atom_site_label_1
_geom_bond_atom_site_label_2
_geom_bond_distance
_geom_bond_site_symmetry_2
_ccdc_geom_bond_type
In0 O1 2.294 1_455 S
In0 O2 2.326 . S
In0 O6 2.266 1_445 S
In0 O7 2.326 1_445 S
In0 O8 2.266 1_545 S
In0 O9 2.326 1_445 S
In0 O11 2.294 . S
In0 O12 2.326 . S
O1 In0 2.294 1_655 S
O1 C10 1.240 1_655 S
O2 In0 2.326 . S
O2 C10 1.252 . S
C3 O6 1.252 . S
C3 O7 1.260 . S
C4 O11 1.240 . S
C4 O12 1.252 . S
C5 O8 1.252 1_655 S
C5 O9 1.260 . S
O6 In0 2.266 1_665 S
O6 C3 1.252 . S
O7 In0 2.326 1_665 S
O7 C3 1.260 . S
O8 In0 2.266 1_565 S
O8 C5 1.252 1_455 S
O9 In0 2.326 1_665 S
O9 C5 1.260 . S
C10 O1 1.240 1_455 S
C10 O2 1.252 . S
O11 In0 2.294 . S
O11 C4 1.240 . S
O12 In0 2.326 . S
O12 C4 1.252 . S
In13 O14 2.294 . S
In13 O15 2.326 1_455 S
In13 O19 2.266 . S
In13 O20 2.326 1_545 S
In13 O21 2.266 1_445 S
In13 O22 2.326 1_545 S
In13 O24 2.294 1_445 S
In13 O25 2.326 1_455 S
O14 In13 2.294 . S
O14 C23 1.240 1_455 S
O15 In13 2.326 1_655 S
O15 C23 1.252 . S
C16 O19 1.252 1_565 S
C16 O20 1.260 . S
C17 O24 1.240 1_545 S
C17 O25 1.252 . S
C18 O21 1.252 1_455 S
C18 O22 1.260 . S
O19 In13 2.266 . S
O19 C16 1.252 1_545 S
O20 In13 2.326 1_565 S
O20 C16 1.260 . S
O21 In13 2.266 1_665 S
O21 C18 1.252 1_655 S
O22 In13 2.326 1_565 S
O22 C18 1.260 . S
C23 O14 1.240 1_655 S
C23 O15 1.252 . S
O24 In13 2.294 1_665 S
O24 C17 1.240 1_565 S
O25 In13 2.326 1_655 S
O25 C17 1.252 . S
In26 O27 2.294 1_445 S
In26 O28 2.326 1_445 S
In26 O32 2.266 1_545 S
In26 O33 2.326 . S
In26 O34 2.266 . S
In26 O35 2.326 . S
In26 O37 2.294 1_455 S
In26 O38 2.326 1_445 S
O27 In26 2.294 1_665 S
O27 C36 1.240 . S
O28 In26 2.326 1_665 S
O28 C36 1.252 . S
C29 O32 1.252 1_545 S
C29 O33 1.260 . S
C30 O37 1.240 1_565 S
C30 O38 1.252 . S
C31 O34 1.252 . S
C31 O35 1.260 . S
O32 In26 2.266 1_565 S
O32 C29 1.252 1_565 S
O33 In26 2.326 . S
O33 C29 1.260 . S
O34 In26 2.266 . S
O34 C31 1.252 . S
O35 In26 2.326 . S
O35 C31 1.260 . S
C36 O27 1.240 . S
C36 O28 1.252 . S
O37 In26 2.294 1_655 S
O37 C30 1.240 1_545 S
O38 In26 2.326 1_665 S
O38 C30 1.252 . S
C39 C40 1.384 1_655 S
C39 C41 1.384 . S
C39 H67 0.931 . S
C40 C39 1.384 1_455 S
C40 C43 1.382 . S
C41 C39 1.384 . S
C41 C42 1.381 1_655 S
C41 H68 0.930 . S
C42 C41 1.381 1_455 S
C42 C44 1.381 . S
C42 C45 1.487 . S
C43 C40 1.382 . S
C43 C44 1.387 . S
C43 H69 0.930 . S
C44 C42 1.381 . S
C44 C43 1.387 . S
C44 H70 0.931 . S
C45 C42 1.487 . S
C45 C52 1.399 . S
C45 N83 1.343 . S
C46 C47 1.384 . S
C46 C48 1.384 . S
C46 H71 0.931 . S
C47 C46 1.384 . S
C47 C50 1.382 1_455 S
C48 C46 1.384 . S
C48 C49 1.391 . S
C48 H72 0.930 . S
C49 C48 1.391 . S
C49 C51 1.376 1_455 S
C49 C52 1.483 . S
C50 C47 1.382 1_655 S
C50 C51 1.387 . S
C50 H73 0.930 . S
C51 C49 1.376 1_655 S
C51 C50 1.387 . S
C51 H74 0.931 . S
C52 C45 1.399 . S
C52 C49 1.483 . S
C52 N84 1.343 1_455 S
C53 C54 1.384 . S
C53 C55 1.384 . S
C53 H75 0.931 . S
C54 C53 1.384 . S
C54 C57 1.382 1_455 S
C55 C53 1.384 . S
C55 C56 1.383 . S
C55 H76 0.930 . S
C56 C55 1.383 . S
C56 C58 1.375 1_455 S
C56 C59 1.491 . S
C57 C54 1.382 1_655 S
C57 C58 1.387 . S
C57 H77 0.930 . S
C58 C56 1.375 1_655 S
C58 C57 1.387 . S
C58 H78 0.931 . S
C59 C56 1.491 . S
C59 C66 1.399 . S
C59 N84 1.343 1_455 S
C60 C61 1.384 1_655 S
C60 C62 1.384 . S
C60 H79 0.931 . S
C61 C60 1.384 1_455 S
C61 C64 1.382 . S
C62 C60 1.384 . S
C62 C63 1.381 1_655 S
C62 H80 0.930 . S
C63 C62 1.381 1_455 S
C63 C65 1.381 . S
C63 C66 1.487 . S
C64 C61 1.382 . S
C64 C65 1.387 . S
C64 H81 0.930 . S
C65 C63 1.381 . S
C65 C64 1.387 . S
C65 H82 0.931 . S
C66 C59 1.399 . S
C66 C63 1.487 . S
C66 N83 1.343 . S
H67 C39 0.931 . S
H68 C41 0.930 . S
H69 C43 0.930 . S
H70 C44 0.931 . S
H71 C46 0.931 . S
H72 C48 0.930 . S
H73 C50 0.930 . S
H74 C51 0.931 . S
H75 C53 0.931 . S
H76 C55 0.930 . S
H77 C57 0.930 . S
H78 C58 0.931 . S
H79 C60 0.931 . S
H80 C62 0.930 . S
H81 C64 0.930 . S
H82 C65 0.931 . S
N83 C45 1.343 . S
N83 C66 1.343 . S
N84 C52 1.343 1_655 S
N84 C59 1.343 1_655 S
C85 C86 1.384 . S
C85 C87 1.384 . S
C85 H113 0.931 . S
C86 C85 1.384 . S
C86 C89 1.382 1_545 S
C87 C85 1.384 . S
C87 C88 1.378 1_545 S
C87 H114 0.930 . S
C88 C87 1.378 1_565 S
C88 C90 1.392 . S
C88 C91 1.480 . S
C89 C86 1.382 1_565 S
C89 C90 1.387 . S
C89 H115 0.930 . S
C90 C88 1.392 . S
C90 C89 1.387 . S
C90 H116 0.931 . S
C91 C88 1.480 . S
C91 C98 1.399 1_565 S
C91 N129 1.343 . S
C92 C93 1.384 1_565 S
C92 C94 1.384 . S
C92 H117 0.931 . S
C93 C92 1.384 1_545 S
C93 C96 1.382 . S
C94 C92 1.384 . S
C94 C95 1.381 1_565 S
C94 H118 0.930 . S
C95 C94 1.381 1_545 S
C95 C97 1.381 . S
C95 C98 1.487 . S
C96 C93 1.382 . S
C96 C97 1.387 . S
C96 H119 0.930 . S
C97 C95 1.381 . S
C97 C96 1.387 . S
C97 H120 0.931 . S
C98 C91 1.399 1_545 S
C98 C95 1.487 . S
C98 N130 1.343 . S
C99 C100 1.384 1_565 S
C99 C101 1.384 . S
C99 H121 0.931 . S
C100 C99 1.384 1_545 S
C100 C103 1.382 . S
C101 C99 1.384 . S
C101 C102 1.381 1_565 S
C101 H122 0.930 . S
C102 C101 1.381 1_545 S
C102 C104 1.381 . S
C102 C105 1.487 . S
C103 C100 1.382 . S
C103 C104 1.387 . S
C103 H123 0.930 . S
C104 C102 1.381 . S
C104 C103 1.387 . S
C104 H124 0.931 . S
C105 C102 1.487 . S
C105 C112 1.399 1_545 S
C105 N130 1.343 . S
C106 C107 1.384 . S
C106 C108 1.384 . S
C106 H125 0.931 . S
C107 C106 1.384 . S
C107 C110 1.382 1_545 S
C108 C106 1.384 . S
C108 C109 1.364 1_545 S
C108 H126 0.930 . S
C109 C108 1.364 1_565 S
C109 C111 1.391 . S
C109 C112 1.494 . S
C110 C107 1.382 1_565 S
C110 C111 1.387 . S
C110 H127 0.930 . S
C111 C109 1.391 . S
C111 C110 1.387 . S
C111 H128 0.931 . S
C112 C105 1.399 1_565 S
C112 C109 1.494 . S
C112 N129 1.343 . S
H113 C85 0.931 . S
H114 C87 0.930 . S
H115 C89 0.930 . S
H116 C90 0.931 . S
H117 C92 0.931 . S
H118 C94 0.930 . S
H119 C96 0.930 . S
H120 C97 0.931 . S
H121 C99 0.931 . S
H122 C101 0.930 . S
H123 C103 0.930 . S
H124 C104 0.931 . S
H125 C106 0.931 . S
H126 C108 0.930 . S
H127 C110 0.930 . S
H128 C111 0.931 . S
N129 C91 1.343 . S
N129 C112 1.343 . S
N130 C98 1.343 . S
N130 C105 1.343 . S
C131 C132 1.384 . S
C131 C133 1.384 . S
C131 H159 0.931 . S
C132 C131 1.384 . S
C132 C135 1.382 . S
C133 C131 1.384 . S
C133 C134 1.381 . S
C133 H160 0.930 . S
C134 C133 1.381 . S
C134 C136 1.381 . S
C134 C137 1.487 . S
C135 C132 1.382 . S
C135 C136 1.387 . S
C135 H161 0.930 . S
C136 C134 1.381 . S
C136 C135 1.387 . S
C136 H162 0.931 . S
C137 C134 1.487 . S
C137 C144 1.399 . S
C137 N175 1.343 . S
C138 C139 1.384 . S
C138 C140 1.384 . S
C138 H163 0.931 . S
C139 C138 1.384 . S
C139 C142 1.382 . S
C140 C138 1.384 . S
C140 C141 1.381 . S
C140 H164 0.930 . S
C141 C140 1.381 . S
C141 C143 1.381 . S
C141 C144 1.487 . S
C142 C139 1.382 . S
C142 C143 1.387 . S
C142 H165 0.930 . S
C143 C141 1.381 . S
C143 C142 1.387 . S
C143 H166 0.931 . S
C144 C137 1.399 . S
C144 C141 1.487 . S
C144 N176 1.343 . S
C145 C146 1.384 . S
C145 C147 1.384 . S
C145 H167 0.931 . S
C146 C145 1.384 . S
C146 C149 1.382 . S
C147 C145 1.384 . S
C147 C148 1.381 . S
C147 H168 0.930 . S
C148 C147 1.381 . S
C148 C150 1.381 . S
C148 C151 1.487 . S
C149 C146 1.382 . S
C149 C150 1.387 . S
C149 H169 0.930 . S
C150 C148 1.381 . S
C150 C149 1.387 . S
C150 H170 0.931 . S
C151 C148 1.487 . S
C151 C158 1.399 . S
C151 N176 1.343 . S
C152 C153 1.384 . S
C152 C154 1.384 . S
C152 H171 0.931 . S
C153 C152 1.384 . S
C153 C156 1.382 . S
C154 C152 1.384 . S
C154 C155 1.381 . S
C154 H172 0.930 . S
C155 C154 1.381 . S
C155 C157 1.381 . S
C155 C158 1.487 . S
C156 C153 1.382 . S
C156 C157 1.387 . S
C156 H173 0.930 . S
C157 C155 1.381 . S
C157 C156 1.387 . S
C157 H174 0.931 . S
C158 C151 1.399 . S
C158 C155 1.487 . S
C158 N175 1.343 . S
H159 C131 0.931 . S
H160 C133 0.930 . S
H161 C135 0.930 . S
H162 C136 0.931 . S
H163 C138 0.931 . S
H164 C140 0.930 . S
H165 C142 0.930 . S
H166 C143 0.931 . S
H167 C145 0.931 . S
H168 C147 0.930 . S
H169 C149 0.930 . S
H170 C150 0.931 . S
H171 C152 0.931 . S
H172 C154 0.930 . S
H173 C156 0.930 . S
H174 C157 0.931 . S
N175 C137 1.343 . S
N175 C158 1.343 . S
N176 C144 1.343 . S
N176 C151 1.343 . S
C177 C178 1.363 1_655 S
C177 C183 1.379 . S
C177 N185 1.356 . S
C178 C177 1.363 1_455 S
C178 C184 1.363 . S
C179 C180 1.363 . S
C179 C184 1.379 . S
C179 N186 1.356 . S
C180 C179 1.363 . S
C180 C183 1.363 1_455 S
N181 C183 1.356 . S
N181 H193 0.984 . S
N181 H194 0.985 . S
N182 C184 1.356 . S
N182 H187 0.984 . S
N182 H188 0.985 . S
C183 C177 1.379 . S
C183 C180 1.363 1_655 S
C183 N181 1.356 . S
C184 C178 1.363 . S
C184 C179 1.379 . S
C184 N182 1.356 . S
N185 C177 1.356 . S
N185 H191 0.984 . S
N185 H192 0.984 . S
N186 C179 1.356 . S
N186 H189 0.984 . S
N186 H190 0.985 . S
H187 N182 0.984 . S
H188 N182 0.985 . S
H189 N186 0.984 . S
H190 N186 0.985 . S
H191 N185 0.984 . S
H192 N185 0.984 . S
H193 N181 0.984 . S
H194 N181 0.985 . S
C195 C196 1.363 1_565 S
C195 C201 1.379 . S
C195 N203 1.356 . S
C196 C195 1.363 1_545 S
C196 C202 1.363 . S
C197 C198 1.363 . S
C197 C202 1.379 . S
C197 N204 1.356 . S
C198 C197 1.363 . S
C198 C201 1.363 1_545 S
N199 C201 1.356 . S
N199 H211 0.984 . S
N199 H212 0.985 . S
N200 C202 1.356 . S
N200 H205 0.984 . S
N200 H206 0.985 . S
C201 C195 1.379 . S
C201 C198 1.363 1_565 S
C201 N199 1.356 . S
C202 C196 1.363 . S
C202 C197 1.379 . S
C202 N200 1.356 . S
N203 C195 1.356 . S
N203 H209 0.984 . S
N203 H210 0.984 . S
N204 C197 1.356 . S
N204 H207 0.984 . S
N204 H208 0.985 . S
H205 N200 0.984 . S
H206 N200 0.985 . S
H207 N204 0.984 . S
H208 N204 0.985 . S
H209 N203 0.984 . S
H210 N203 0.984 . S
H211 N199 0.984 . S
H212 N199 0.985 . S
C213 C214 1.363 . S
C213 C219 1.379 . S
C213 N221 1.356 . S
C214 C213 1.363 . S
C214 C220 1.363 . S
C215 C216 1.363 . S
C215 C220 1.379 . S
C215 N222 1.356 . S
C216 C215 1.363 . S
C216 C219 1.363 . S
N217 C219 1.356 . S
N217 H229 0.984 . S
N217 H230 0.985 . S
N218 C220 1.356 . S
N218 H223 0.984 . S
N218 H224 0.985 . S
C219 C213 1.379 . S
C219 C216 1.363 . S
C219 N217 1.356 . S
C220 C214 1.363 . S
C220 C215 1.379 . S
C220 N218 1.356 . S
N221 C213 1.356 . S
N221 H227 0.984 . S
N221 H228 0.984 . S
N222 C215 1.356 . S
N222 H225 0.984 . S
N222 H226 0.985 . S
H223 N218 0.984 . S
H224 N218 0.985 . S
H225 N222 0.984 . S
H226 N222 0.985 . S
H227 N221 0.984 . S
H228 N221 0.984 . S
H229 N217 0.984 . S
H230 N217 0.985 . S
C231 C232 1.364 1_655 S
C231 C237 1.379 . S
C231 N239 1.356 . S
C232 C231 1.364 1_455 S
C232 C238 1.362 . S
C233 C234 1.363 . S
C233 C238 1.379 . S
C233 N240 1.356 . S
C234 C233 1.363 . S
C234 C237 1.363 1_455 S
N235 C237 1.356 . S
N235 H247 0.984 . S
N235 H248 0.985 . S
N236 C238 1.356 . S
N236 H241 0.984 . S
N236 H242 0.985 . S
C237 C231 1.379 . S
C237 C234 1.363 1_655 S
C237 N235 1.356 . S
C238 C232 1.362 . S
C238 C233 1.379 . S
C238 N236 1.356 . S
N239 C231 1.356 . S
N239 H245 0.984 . S
N239 H246 0.984 . S
N240 C233 1.356 . S
N240 H243 0.984 . S
N240 H244 0.985 . S
H241 N236 0.984 . S
H242 N236 0.985 . S
H243 N240 0.984 . S
H244 N240 0.985 . S
H245 N239 0.984 . S
H246 N239 0.984 . S
H247 N235 0.984 . S
H248 N235 0.985 . S
C249 C250 1.363 . S
C249 C255 1.379 . S
C249 N257 1.356 . S
C250 C249 1.363 . S
C250 C256 1.363 1_565 S
C251 C252 1.363 . S
C251 C256 1.379 . S
C251 N258 1.356 . S
C252 C251 1.363 . S
C252 C255 1.363 1_545 S
N253 C255 1.356 . S
N253 H265 0.984 . S
N253 H266 0.985 . S
N254 C256 1.356 . S
N254 H259 0.984 . S
N254 H260 0.985 . S
C255 C249 1.379 . S
C255 C252 1.363 1_565 S
C255 N253 1.356 . S
C256 C250 1.363 1_545 S
C256 C251 1.379 . S
C256 N254 1.356 . S
N257 C249 1.356 . S
N257 H263 0.984 . S
N257 H264 0.984 . S
N258 C251 1.356 . S
N258 H261 0.984 . S
N258 H262 0.985 . S
H259 N254 0.984 . S
H260 N254 0.985 . S
H261 N258 0.984 . S
H262 N258 0.985 . S
H263 N257 0.984 . S
H264 N257 0.984 . S
H265 N253 0.984 . S
H266 N253 0.985 . S
C267 C268 1.363 . S
C267 C273 1.379 . S
C267 N275 1.356 . S
C268 C267 1.363 . S
C268 C274 1.363 . S
C269 C270 1.363 . S
C269 C274 1.379 . S
C269 N276 1.356 . S
C270 C269 1.363 . S
C270 C273 1.363 . S
N271 C273 1.356 . S
N271 H283 0.984 . S
N271 H284 0.985 . S
N272 C274 1.356 . S
N272 H277 0.984 . S
N272 H278 0.985 . S
C273 C267 1.379 . S
C273 C270 1.363 . S
C273 N271 1.356 . S
C274 C268 1.363 . S
C274 C269 1.379 . S
C274 N272 1.356 . S
N275 C267 1.356 . S
N275 H281 0.984 . S
N275 H282 0.984 . S
N276 C269 1.356 . S
N276 H279 0.984 . S
N276 H280 0.985 . S
H277 N272 0.984 . S
H278 N272 0.985 . S
H279 N276 0.984 . S
H280 N276 0.985 . S
H281 N275 0.984 . S
H282 N275 0.984 . S
H283 N271 0.984 . S
H284 N271 0.985 . S
C285 C286 1.363 1_545 S
C285 C291 1.379 . S
C285 N293 1.356 . S
C286 C285 1.363 1_565 S
C286 C292 1.363 . S
C287 C288 1.347 1_565 S
C287 C292 1.379 . S
C287 N294 1.356 . S
C288 C287 1.347 1_545 S
C288 C291 1.371 . S
N289 C291 1.356 . S
N289 H301 0.984 . S
N289 H302 0.985 . S
N290 C292 1.356 . S
N290 H295 0.984 . S
N290 H296 0.985 . S
C291 C285 1.379 . S
C291 C288 1.371 . S
C291 N289 1.356 . S
C292 C286 1.363 . S
C292 C287 1.379 . S
C292 N290 1.356 . S
N293 C285 1.356 . S
N293 H299 0.984 . S
N293 H300 0.984 . S
N294 C287 1.356 . S
N294 H297 0.984 . S
N294 H298 0.985 . S
H295 N290 0.984 . S
H296 N290 0.985 . S
H297 N294 0.984 . S
H298 N294 0.985 . S
H299 N293 0.984 . S
H300 N293 0.984 . S
H301 N289 0.984 . S
H302 N289 0.985 . S
C303 C304 1.363 1_554 S
C303 C309 1.379 1_554 S
C303 N311 1.356 . S
C304 C303 1.363 1_556 S
C304 C310 1.363 . S
C305 C306 1.363 . S
C305 C310 1.379 . S
C305 N312 1.356 . S
C306 C305 1.363 . S
C306 C309 1.363 . S
N307 C309 1.356 . S
N307 H319 0.984 1_556 S
N307 H320 0.985 . S
N308 C310 1.356 . S
N308 H313 0.984 . S
N308 H314 0.985 . S
C309 C303 1.379 1_556 S
C309 C306 1.363 . S
C309 N307 1.356 . S
C310 C304 1.363 . S
C310 C305 1.379 . S
C310 N308 1.356 . S
N311 C303 1.356 . S
N311 H317 0.984 . S
N311 H318 0.984 . S
N312 C305 1.356 . S
N312 H315 0.984 . S
N312 H316 0.985 . S
H313 N308 0.984 . S
H314 N308 0.985 . S
H315 N312 0.984 . S
H316 N312 0.985 . S
H317 N311 0.984 . S
H318 N311 0.984 . S
H319 N307 0.984 1_554 S
H320 N307 0.985 . S
C321 C322 1.363 1_655 S
C321 C327 1.379 . S
C321 N329 1.356 . S
C322 C321 1.363 1_455 S
C322 C328 1.363 . S
C323 C324 1.363 . S
C323 C328 1.379 . S
C323 N330 1.356 . S
C324 C323 1.363 . S
C324 C327 1.363 1_455 S
N325 C327 1.356 . S
N325 H337 0.984 . S
N325 H338 0.985 . S
N326 C328 1.356 . S
N326 H331 0.984 . S
N326 H332 0.985 . S
C327 C321 1.379 . S
C327 C324 1.363 1_655 S
C327 N325 1.356 . S
C328 C322 1.363 . S
C328 C323 1.379 . S
C328 N326 1.356 . S
N329 C321 1.356 . S
N329 H335 0.984 . S
N329 H336 0.984 . S
N330 C323 1.356 . S
N330 H333 0.984 . S
N330 H334 0.985 . S
H331 N326 0.984 . S
H332 N326 0.985 . S
H333 N330 0.984 . S
H334 N330 0.985 . S
H335 N329 0.984 . S
H336 N329 0.984 . S
H337 N325 0.984 . S
H338 N325 0.985 . S
C339 C340 1.363 1_565 S
C339 C345 1.379 . S
C339 N347 1.356 . S
C340 C339 1.363 1_545 S
C340 C346 1.363 . S
C341 C342 1.363 . S
C341 C346 1.379 . S
C341 N348 1.356 . S
C342 C341 1.363 . S
C342 C345 1.363 1_545 S
N343 C345 1.356 . S
N343 H355 0.984 . S
N343 H356 0.985 . S
N344 C346 1.356 . S
N344 H349 0.984 . S
N344 H350 0.985 . S
C345 C339 1.379 . S
C345 C342 1.363 1_565 S
C345 N343 1.356 . S
C346 C340 1.363 . S
C346 C341 1.379 . S
C346 N344 1.356 . S
N347 C339 1.356 . S
N347 H353 0.984 . S
N347 H354 0.984 . S
N348 C341 1.356 . S
N348 H351 0.984 . S
N348 H352 0.985 . S
H349 N344 0.984 . S
H350 N344 0.985 . S
H351 N348 0.984 . S
H352 N348 0.985 . S
H353 N347 0.984 . S
H354 N347 0.984 . S
H355 N343 0.984 . S
H356 N343 0.985 . S
C357 C358 1.363 . S
C357 C363 1.379 . S
C357 N365 1.356 . S
C358 C357 1.363 . S
C358 C364 1.363 1_556 S
C359 C360 1.363 . S
C359 C364 1.379 1_556 S
C359 N366 1.356 . S
C360 C359 1.363 . S
C360 C363 1.363 . S
N361 C363 1.356 . S
N361 H373 0.984 . S
N361 H374 0.985 . S
N362 C364 1.356 . S
N362 H367 0.984 . S
N362 H368 0.985 . S
C363 C357 1.379 . S
C363 C360 1.363 . S
C363 N361 1.356 . S
C364 C358 1.363 1_554 S
C364 C359 1.379 1_554 S
C364 N362 1.356 . S
N365 C357 1.356 . S
N365 H371 0.984 . S
N365 H372 0.984 . S
N366 C359 1.356 . S
N366 H369 0.984 . S
N366 H370 0.985 1_556 S
H367 N362 0.984 . S
H368 N362 0.985 . S
H369 N366 0.984 . S
H370 N366 0.985 1_554 S
H371 N365 0.984 . S
H372 N365 0.984 . S
H373 N361 0.984 . S
H374 N361 0.985 . S
C375 C376 1.363 1_455 S
C375 C381 1.379 . S
C375 N383 1.356 . S
C376 C375 1.363 1_655 S
C376 C382 1.363 . S
C377 C378 1.363 1_655 S
C377 C382 1.379 . S
C377 N384 1.356 . S
C378 C377 1.363 1_455 S
C378 C381 1.363 . S
N379 C381 1.356 . S
N379 H391 0.984 . S
N379 H392 0.985 . S
N380 C382 1.356 . S
N380 H385 0.984 . S
N380 H386 0.985 . S
C381 C375 1.379 . S
C381 C378 1.363 . S
C381 N379 1.356 . S
C382 C376 1.363 . S
C382 C377 1.379 . S
C382 N380 1.356 . S
N383 C375 1.356 . S
N383 H389 0.984 . S
N383 H390 0.984 . S
N384 C377 1.356 . S
N384 H387 0.984 . S
N384 H388 0.985 . S
H385 N380 0.984 . S
H386 N380 0.985 . S
H387 N384 0.984 . S
H388 N384 0.985 . S
H389 N383 0.984 . S
H390 N383 0.984 . S
H391 N379 0.984 . S
H392 N379 0.985 . S
C180 C47 1.516 . S
C178 C10 1.516 . S
C196 C17 1.516 . S
C198 C86 1.516 . S
C214 C36 1.517 . S
C216 C153 1.516 . S
C232 C5 1.519 1_455 S
C234 C54 1.516 . S
C252 C107 1.516 . S
C250 C16 1.518 . S
C268 C31 1.517 . S
C270 C132 1.516 . S
C288 C93 1.523 . S
C286 C30 1.516 . S
C304 C3 1.517 1_556 S
C306 C146 1.516 . S
C324 C61 1.516 . S
C322 C18 1.518 . S
C342 C100 1.516 . S
C340 C29 1.518 . S
C360 C139 1.517 . S
C358 C4 1.517 1_556 S
C376 C23 1.516 . S
C378 C40 1.516 . S
