# Generated by pormake.
# Topology pyr, (3,6)-cn, num edge types: 1
# Building blocks:
#     Node 0, Type 0, BuildingBlock: ESEHIV_clean_linker_0, # of connection points: 3
#     Node 1, Type 0, BuildingBlock: ESEHIV_clean_linker_0, # of connection points: 3
#     Node 2, Type 0, BuildingBlock: ESEHIV_clean_linker_0, # of connection points: 3
#     Node 3, Type 0, BuildingBlock: ESEHIV_clean_linker_0, # of connection points: 3
#     Node 4, Type 0, BuildingBlock: ESEHIV_clean_linker_0, # of connection points: 3
#     Node 5, Type 0, BuildingBlock: ESEHIV_clean_linker_0, # of connection points: 3
#     Node 6, Type 0, BuildingBlock: ESEHIV_clean_linker_0, # of connection points: 3
#     Node 7, Type 0, BuildingBlock: ESEHIV_clean_linker_0, # of connection points: 3
#     Node 8, Type 1, BuildingBlock: MIFKUJ_clean_sbu_0, # of connection points: 6
#     Node 9, Type 1, BuildingBlock: MIFKUJ_clean_sbu_0, # of connection points: 6
#     Node 10, Type 1, BuildingBlock: MIFKUJ_clean_sbu_0, # of connection points: 6
#     Node 11, Type 1, BuildingBlock: MIFKUJ_clean_sbu_0, # of connection points: 6
#     Edge 12, Type (0, 1), BuildingBlock: XIVTED_clean_linker_0, # of connection points: 2
#     Edge 13, Type (0, 1), BuildingBlock: XIVTED_clean_linker_0, # of connection points: 2
#     Edge 14, Type (0, 1), BuildingBlock: XIVTED_clean_linker_0, # of connection points: 2
#     Edge 15, Type (0, 1), BuildingBlock: XIVTED_clean_linker_0, # of connection points: 2
#     Edge 16, Type (0, 1), BuildingBlock: XIVTED_clean_linker_0, # of connection points: 2
#     Edge 17, Type (0, 1), BuildingBlock: XIVTED_clean_linker_0, # of connection points: 2
#     Edge 18, Type (0, 1), BuildingBlock: XIVTED_clean_linker_0, # of connection points: 2
#     Edge 19, Type (0, 1), BuildingBlock: XIVTED_clean_linker_0, # of connection points: 2
#     Edge 20, Type (0, 1), BuildingBlock: XIVTED_clean_linker_0, # of connection points: 2
#     Edge 21, Type (0, 1), BuildingBlock: XIVTED_clean_linker_0, # of connection points: 2
#     Edge 22, Type (0, 1), BuildingBlock: XIVTED_clean_linker_0, # of connection points: 2
#     Edge 23, Type (0, 1), BuildingBlock: XIVTED_clean_linker_0, # of connection points: 2
#     Edge 24, Type (0, 1), BuildingBlock: XIVTED_clean_linker_0, # of connection points: 2
#     Edge 25, Type (0, 1), BuildingBlock: XIVTED_clean_linker_0, # of connection points: 2
#     Edge 26, Type (0, 1), BuildingBlock: XIVTED_clean_linker_0, # of connection points: 2
#     Edge 27, Type (0, 1), BuildingBlock: XIVTED_clean_linker_0, # of connection points: 2
#     Edge 28, Type (0, 1), BuildingBlock: XIVTED_clean_linker_0, # of connection points: 2
#     Edge 29, Type (0, 1), BuildingBlock: XIVTED_clean_linker_0, # of connection points: 2
#     Edge 30, Type (0, 1), BuildingBlock: XIVTED_clean_linker_0, # of connection points: 2
#     Edge 31, Type (0, 1), BuildingBlock: XIVTED_clean_linker_0, # of connection points: 2
#     Edge 32, Type (0, 1), BuildingBlock: XIVTED_clean_linker_0, # of connection points: 2
#     Edge 33, Type (0, 1), BuildingBlock: XIVTED_clean_linker_0, # of connection points: 2
#     Edge 34, Type (0, 1), BuildingBlock: XIVTED_clean_linker_0, # of connection points: 2
#     Edge 35, Type (0, 1), BuildingBlock: XIVTED_clean_linker_0, # of connection points: 2
# Relax obj value: 0.030
# Max RMSD: 0.083
# Mean RMSD: 0.048
data_MOF--net-pyr--node1-MIFKUJ_clean_sbu_0--node2-ESEHIV_clean_linker_0--edge1-XIVTED_clean_linker_0
_symmetry_space_group_name_H-M    P1
_symmetry_Int_Tables_number       1
_symmetry_cell_setting            triclinic
loop_
_symmetry_equiv_pos_as_xyz
'x, y, z'
_cell_length_a     37.605519
_cell_length_b     33.924985
_cell_length_c     35.895539
_cell_angle_alpha  85.816212
_cell_angle_beta   88.424701
_cell_angle_gamma 97.290704
loop_
_atom_site_label
_atom_site_type_symbol
_atom_site_fract_x
_atom_site_fract_y
_atom_site_fract_z
_atom_type_partial_charge
H0 H 0.17161 0.21868 0.23503 0.0
H1 H 0.24699 0.13388 0.23949 0.0
H2 H 0.26148 0.2333 0.15648 0.0
C3 C 0.19636 0.20932 0.22483 0.0
C4 C 0.21513 0.23025 0.19371 0.0
C5 C 0.20807 0.17498 0.24179 0.0
C6 C 0.23914 0.16164 0.22764 0.0
C7 C 0.25824 0.18214 0.19637 0.0
C8 C 0.2466 0.21704 0.18028 0.0
H9 H 0.31778 0.88284 0.73041 0.0
H10 H 0.39692 0.80341 0.7177 0.0
H11 H 0.31729 0.81335 0.63495 0.0
C12 C 0.32921 0.86113 0.71466 0.0
C13 C 0.31385 0.84987 0.68123 0.0
C14 C 0.35925 0.84461 0.7279 0.0
C15 C 0.37386 0.81641 0.70741 0.0
C16 C 0.35896 0.80489 0.6738 0.0
C17 C 0.32899 0.82194 0.66087 0.0
H18 H 0.70064 0.32055 0.87781 0.0
H19 H 0.70859 0.41019 0.78555 0.0
H20 H 0.6165 0.32088 0.79948 0.0
C21 C 0.6897 0.33363 0.85301 0.0
C22 C 0.65678 0.31576 0.84051 0.0
C23 C 0.70865 0.36808 0.83393 0.0
C24 C 0.69395 0.38457 0.80141 0.0
C25 C 0.66093 0.36732 0.78843 0.0
C26 C 0.64251 0.33331 0.80851 0.0
H27 H 0.807 0.67306 0.36458 0.0
H28 H 0.89736 0.68487 0.28682 0.0
H29 H 0.81532 0.58368 0.28721 0.0
C30 C 0.8215 0.66163 0.34209 0.0
C31 C 0.80746 0.62569 0.32794 0.0
C32 C 0.8537 0.68336 0.32738 0.0
C33 C 0.87241 0.66832 0.29821 0.0
C34 C 0.85881 0.63223 0.28346 0.0
C35 C 0.82623 0.61121 0.29854 0.0
H36 H 0.78311 0.86783 0.75923 0.0
H37 H 0.85348 0.77747 0.76594 0.0
H38 H 0.76533 0.77185 0.84543 0.0
C39 C 0.78972 0.83976 0.77174 0.0
C40 C 0.77045 0.82158 0.80389 0.0
C41 C 0.81953 0.82368 0.75766 0.0
C42 C 0.82969 0.78901 0.77588 0.0
C43 C 0.81099 0.77083 0.80824 0.0
C44 C 0.78045 0.7863 0.82096 0.0
H45 H 0.63009 0.19484 0.29394 0.0
H46 H 0.71305 0.12033 0.28058 0.0
H47 H 0.70892 0.18689 0.37776 0.0
C48 C 0.65364 0.18289 0.30429 0.0
C49 C 0.66736 0.194 0.33852 0.0
C50 C 0.66994 0.15631 0.28331 0.0
C51 C 0.70051 0.14098 0.29666 0.0
C52 C 0.7149 0.15205 0.33063 0.0
C53 C 0.69806 0.17844 0.35143 0.0
H54 H 0.32016 0.68092 0.13969 0.0
H55 H 0.31354 0.58445 0.22507 0.0
H56 H 0.40373 0.67727 0.21874 0.0
C57 C 0.33148 0.66657 0.16375 0.0
C58 C 0.36432 0.68346 0.17705 0.0
C59 C 0.31327 0.6308 0.18065 0.0
C60 C 0.32807 0.61157 0.21151 0.0
C61 C 0.36056 0.62851 0.226 0.0
C62 C 0.37862 0.66415 0.2081 0.0
H63 H 0.10388 0.32438 0.73175 0.0
H64 H 0.18925 0.32703 0.64934 0.0
H65 H 0.19793 0.41106 0.73382 0.0
C66 C 0.13016 0.33719 0.72039 0.0
C67 C 0.14923 0.3695 0.73688 0.0
C68 C 0.14421 0.32227 0.6884 0.0
C69 C 0.17793 0.33942 0.67329 0.0
C70 C 0.19769 0.37133 0.68948 0.0
C71 C 0.18302 0.38631 0.72123 0.0
Zn72 Zn 0.05442 0.00452 0.53794 0.0
Zn73 Zn 0.97527 0.00151 0.47605 0.0
C74 C 0.04853 0.08692 0.55286 0.0
O75 O 0.04324 0.09102 0.51685 0.0
C76 C 0.93207 0.93014 0.45794 0.0
O77 O 0.90682 0.94889 0.47178 0.0
O78 O 0.09611 0.97926 0.55713 0.0
O79 O 0.01165 0.96327 0.54947 0.0
O80 O 0.96967 -0.00043 0.53197 0.0
C81 C 0.09731 0.9679 0.5915 0.0
O82 O 0.07062 0.9727 0.61443 0.0
O83 O 0.05207 0.0526 0.56794 0.0
C84 C 0.93292 0.03776 0.42146 0.0
O85 O 0.95543 0.0246 0.39816 0.0
O86 O 0.93671 0.03203 0.4564 0.0
O87 O 0.02112 0.02667 0.45015 0.0
O88 O 0.0686 0.0229 0.48492 0.0
O89 O 0.96453 0.94607 0.45827 0.0
C90 C 0.97944 0.97056 0.5516 0.0
C91 C 0.05477 0.03204 0.45416 0.0
Zn92 Zn 0.54227 0.97605 0.99272 0.0
Zn93 Zn 0.48806 0.01827 0.02005 0.0
C94 C 0.49649 0.92685 0.94992 0.0
O95 O 0.51226 0.90027 0.96954 0.0
C96 C 0.53397 0.06796 0.06279 0.0
O97 O 0.51801 0.09454 0.04337 0.0
O98 O 0.58362 0.95115 0.97308 0.0
O99 O 0.55916 0.03537 0.98803 0.0
O100 O 0.50592 0.04597 0.9698 0.0
C101 C 0.59181 0.96043 0.93868 0.0
O102 O 0.57433 0.98618 0.92007 0.0
O103 O 0.50436 0.96349 0.95529 0.0
C104 C 0.43885 0.03711 0.07285 0.0
O105 O 0.45548 0.01128 0.09245 0.0
O106 O 0.44734 0.04492 0.03835 0.0
O107 O 0.4704 0.9596 0.0267 0.0
O108 O 0.52377 0.94591 0.04191 0.0
O109 O 0.52613 0.03132 0.05736 0.0
C110 C 0.53955 0.05677 0.96932 0.0
C111 C 0.48982 0.93703 0.04426 0.0
Zn112 Zn 0.51564 0.45735 0.48842 0.0
Zn113 Zn 0.49361 0.52582 0.52924 0.0
C114 C 0.56708 0.4983 0.43571 0.0
O115 O 0.54512 0.47841 0.41381 0.0
C116 C 0.44261 0.48501 0.58286 0.0
O117 O 0.4656 0.50368 0.60459 0.0
O118 O 0.52627 0.40649 0.46766 0.0
O119 O 0.51644 0.4461 0.54469 0.0
O120 O 0.5373 0.50774 0.55403 0.0
C121 C 0.55637 0.39634 0.47708 0.0
O122 O 0.57561 0.41779 0.50017 0.0
O123 O 0.55932 0.49608 0.4706 0.0
C124 C 0.45467 0.58845 0.54111 0.0
O125 O 0.43405 0.5672 0.51899 0.0
O126 O 0.48457 0.57727 0.54979 0.0
O127 O 0.49251 0.53694 0.47307 0.0
O128 O 0.47226 0.47535 0.46271 0.0
O129 O 0.44952 0.48791 0.54777 0.0
C130 C 0.53542 0.47067 0.56349 0.0
C131 C 0.47424 0.51252 0.45354 0.0
Zn132 Zn 0.98942 0.53212 0.98252 0.0
Zn133 Zn 0.02927 0.47499 0.03881 0.0
C134 C 0.94044 0.49207 0.93607 0.0
O135 O 0.96219 0.51566 0.91243 0.0
C136 C 0.0763 0.52906 0.07802 0.0
O137 O 0.05084 0.51812 0.10385 0.0
O138 O 0.97607 0.58043 0.95387 0.0
O139 O 0.98765 0.54698 0.03635 0.0
O140 O 0.98498 0.48775 0.06626 0.0
C141 C 0.94652 0.59054 0.96531 0.0
O142 O 0.9304 0.57196 0.99577 0.0
O143 O 0.94757 0.49044 0.97067 0.0
C144 C 0.07493 0.41931 0.05367 0.0
O145 O 0.08855 0.43789 0.02209 0.0
O146 O 0.04594 0.4287 0.06739 0.0
O147 O 0.02626 0.45838 0.98569 0.0
O148 O 0.03512 0.51884 0.95817 0.0
O149 O 0.07206 0.51717 0.04536 0.0
C150 C 0.97822 0.52354 0.06512 0.0
C151 C 0.03854 0.4821 0.95801 0.0
H152 H 0.13578 0.15316 0.24407 0.0
H153 H 0.12811 0.04905 0.45155 0.0
H154 H 0.23004 0.14249 0.30804 0.0
H155 H 0.03533 0.05684 0.3843 0.0
H156 H 0.1663 0.0814 0.39909 0.0
H157 H 0.09891 0.11617 0.29504 0.0
C158 C 0.14867 0.14314 0.26902 0.0
C159 C 0.18591 0.1513 0.27216 0.0
C160 C 0.1376 0.07587 0.39582 0.0
C161 C 0.14394 0.10855 0.33049 0.0
C162 C 0.11575 0.05742 0.42575 0.0
C163 C 0.07841 0.05035 0.42239 0.0
C164 C 0.12198 0.08739 0.36236 0.0
C165 C 0.06394 0.06178 0.38826 0.0
C166 C 0.12765 0.12181 0.29802 0.0
C167 C 0.20137 0.1368 0.30464 0.0
N168 N 0.08575 0.07984 0.35964 0.0
N169 N 0.18025 0.11628 0.33274 0.0
H170 H 0.37304 0.92017 0.75067 0.0
H171 H 0.47287 0.85098 0.93325 0.0
H172 H 0.38285 0.79748 0.78476 0.0
H173 H 0.46432 0.97409 0.89936 0.0
H174 H 0.43597 0.83069 0.88148 0.0
H175 H 0.40243 0.94034 0.80741 0.0
C176 C 0.38108 0.89745 0.77028 0.0
C177 C 0.37569 0.8571 0.76291 0.0
C178 C 0.44198 0.86214 0.88544 0.0
C179 C 0.40964 0.87998 0.82764 0.0
C180 C 0.46306 0.87377 0.91503 0.0
C181 C 0.47192 0.91431 0.92044 0.0
C182 C 0.42975 0.89127 0.86096 0.0
C183 C 0.45825 0.9425 0.8961 0.0
C184 C 0.39801 0.90899 0.80256 0.0
C185 C 0.38701 0.82897 0.78905 0.0
N186 N 0.43802 0.93044 0.86724 0.0
N187 N 0.40356 0.84096 0.82019 0.0
H188 H 0.65864 0.44628 0.76464 0.0
H189 H 0.54084 0.39329 0.58753 0.0
H190 H 0.62753 0.32684 0.73298 0.0
H191 H 0.57504 0.51412 0.61365 0.0
H192 H 0.57302 0.36905 0.64076 0.0
H193 H 0.62962 0.47232 0.70929 0.0
C194 C 0.646 0.42553 0.74595 0.0
C195 C 0.64533 0.38422 0.7538 0.0
C196 C 0.57357 0.40089 0.63493 0.0
C197 C 0.61168 0.41386 0.69052 0.0
C198 C 0.55507 0.4148 0.60448 0.0
C199 C 0.55505 0.45588 0.59602 0.0
C200 C 0.59229 0.42812 0.65743 0.0
C201 C 0.57424 0.48221 0.61906 0.0
C202 C 0.62924 0.44043 0.71446 0.0
C203 C 0.62821 0.35884 0.72862 0.0
N204 N 0.59199 0.4679 0.64872 0.0
N205 N 0.61206 0.37402 0.69835 0.0
H206 H 0.89083 0.6741 0.22035 0.0
H207 H 0.95378 0.48258 0.13181 0.0
H208 H 0.87038 0.55509 0.27417 0.0
H209 H 0.96322 0.59948 0.07341 0.0
H210 H 0.92574 0.50894 0.18543 0.0
H211 H 0.92053 0.64782 0.16781 0.0
C212 C 0.89284 0.64248 0.22129 0.0
C213 C 0.87801 0.6168 0.25179 0.0
C214 C 0.93394 0.5288 0.16086 0.0
C215 C 0.91177 0.58635 0.19139 0.0
C216 C 0.94997 0.51376 0.1302 0.0
C217 C 0.9609 0.53878 0.09793 0.0
C218 C 0.92888 0.56924 0.1594 0.0
C219 C 0.95525 0.57899 0.0976 0.0
C220 C 0.90959 0.62743 0.19112 0.0
C221 C 0.88101 0.57597 0.25109 0.0
N222 N 0.93972 0.59291 0.12781 0.0
N223 N 0.89753 0.56204 0.22145 0.0
H224 H 0.27145 0.17899 0.12144 0.0
H225 H 0.42178 0.03472 0.14748 0.0
H226 H 0.31123 0.14422 0.2291 0.0
H227 H 0.39694 0.08936 0.0405 0.0
H228 H 0.37986 0.07258 0.17795 0.0
H229 H 0.31665 0.14553 0.09137 0.0
C230 C 0.29009 0.16491 0.1388 0.0
C231 C 0.28761 0.16459 0.17793 0.0
C232 C 0.38364 0.07633 0.14782 0.0
C233 C 0.33885 0.12514 0.14354 0.0
C234 C 0.40741 0.05457 0.13037 0.0
C235 C 0.41274 0.05883 0.09137 0.0
C236 C 0.36491 0.1023 0.12609 0.0
C237 C 0.39358 0.08513 0.07063 0.0
C238 C 0.31572 0.14548 0.12156 0.0
C239 C 0.31192 0.14486 0.19889 0.0
N240 N 0.3704 0.10581 0.08826 0.0
N241 N 0.33644 0.12571 0.18142 0.0
H242 H 0.30103 0.87695 0.60976 0.0
H243 H 0.10936 0.94073 0.66327 0.0
H244 H 0.25402 0.86226 0.72177 0.0
H245 H 0.15674 0.95425 0.55136 0.0
H246 H 0.16195 0.91174 0.68541 0.0
H247 H 0.248 0.90501 0.58788 0.0
C248 C 0.27944 0.87945 0.62971 0.0
C249 C 0.28192 0.86723 0.66763 0.0
C250 C 0.1608 0.92104 0.65601 0.0
C251 C 0.22127 0.89967 0.64288 0.0
C252 C 0.13078 0.93758 0.64335 0.0
C253 C 0.12866 0.94996 0.60541 0.0
C254 C 0.18887 0.91686 0.63054 0.0
C255 C 0.15722 0.94515 0.58086 0.0
C256 C 0.24925 0.89566 0.61725 0.0
C257 C 0.2534 0.87175 0.69236 0.0
N258 N 0.18613 0.929 0.59386 0.0
N259 N 0.22423 0.88757 0.67955 0.0
H260 H 0.73683 0.4477 0.83044 0.0
H261 H 0.89854 0.42311 0.96492 0.0
H262 H 0.76089 0.33111 0.87068 0.0
H263 H 0.90418 0.51696 0.87633 0.0
H264 H 0.84206 0.39221 0.93991 0.0
H265 H 0.793 0.4771 0.85554 0.0
C266 C 0.7538 0.4281 0.84424 0.0
C267 C 0.74355 0.38661 0.84832 0.0
C268 C 0.85583 0.41955 0.92605 0.0
C269 C 0.80759 0.42064 0.87844 0.0
C270 C 0.88789 0.4372 0.94036 0.0
C271 C 0.90622 0.47243 0.9225 0.0
C272 C 0.84164 0.43793 0.89438 0.0
C273 C 0.8912 0.48954 0.89075 0.0
C274 C 0.7858 0.44506 0.85886 0.0
C275 C 0.76677 0.36324 0.86746 0.0
N276 N 0.85973 0.47235 0.87792 0.0
N277 N 0.79744 0.38056 0.88202 0.0
H278 H 0.75092 0.59074 0.28987 0.0
H279 H 0.62278 0.53532 0.47356 0.0
H280 H 0.78428 0.61249 0.40143 0.0
H281 H 0.59107 0.50829 0.36263 0.0
H282 H 0.68166 0.56524 0.44747 0.0
H283 H 0.69219 0.56029 0.31594 0.0
C284 C 0.74605 0.58872 0.31987 0.0
C285 C 0.77257 0.60435 0.34346 0.0
C286 C 0.66178 0.55285 0.42882 0.0
C287 C 0.70515 0.57012 0.37349 0.0
C288 C 0.62808 0.53592 0.4437 0.0
C289 C 0.60192 0.51922 0.42028 0.0
C290 C 0.6694 0.55312 0.39022 0.0
C291 C 0.6104 0.52074 0.38179 0.0
C292 C 0.7124 0.57163 0.33473 0.0
C293 C 0.7645 0.60139 0.38211 0.0
N294 N 0.64337 0.53728 0.368 0.0
N295 N 0.73154 0.58476 0.39587 0.0
H296 H 0.21358 0.24505 0.11783 0.0
H297 H 0.06659 0.39254 0.12754 0.0
H298 H 0.17952 0.28841 0.22153 0.0
H299 H 0.13002 0.38314 0.02722 0.0
H300 H 0.10385 0.34949 0.1622 0.0
H301 H 0.18079 0.29257 0.08371 0.0
C302 C 0.19983 0.26507 0.13347 0.0
C303 C 0.19928 0.2626 0.17271 0.0
C304 C 0.10957 0.35695 0.13261 0.0
C305 C 0.16062 0.3161 0.13369 0.0
C306 C 0.08815 0.38114 0.11278 0.0
C307 C 0.09524 0.39124 0.07448 0.0
C308 C 0.13787 0.34245 0.11383 0.0
C309 C 0.12369 0.37605 0.05675 0.0
C310 C 0.1808 0.29194 0.11392 0.0
C311 C 0.18018 0.28877 0.19134 0.0
N312 N 0.14391 0.35224 0.07656 0.0
N313 N 0.16126 0.31417 0.17167 0.0
H314 H 0.65349 0.29271 0.91621 0.0
H315 H 0.51553 0.09641 0.90765 0.0
H316 H 0.61588 0.25297 0.81078 0.0
H317 H 0.59924 0.10482 0.98756 0.0
H318 H 0.54291 0.16035 0.87619 0.0
H319 H 0.62475 0.22993 0.94739 0.0
C320 C 0.63944 0.27093 0.89943 0.0
C321 C 0.63762 0.27843 0.86049 0.0
C322 C 0.55518 0.14807 0.90062 0.0
C323 C 0.60344 0.2069 0.89662 0.0
C324 C 0.53956 0.11178 0.9186 0.0
C325 C 0.55532 0.09526 0.95005 0.0
C326 C 0.58615 0.16838 0.91484 0.0
C327 C 0.58647 0.11634 0.96314 0.0
C328 C 0.62282 0.23517 0.91742 0.0
C329 C 0.61777 0.24915 0.84081 0.0
N330 N 0.60072 0.15198 0.94566 0.0
N331 N 0.60137 0.21482 0.85908 0.0
H332 H 0.81484 0.74294 0.34391 0.0
H333 H 0.97686 0.88158 0.4277 0.0
H334 H 0.92251 0.7117 0.34587 0.0
H335 H 0.86494 0.89454 0.4444 0.0
H336 H 0.9593 0.8225 0.3935 0.0
H337 H 0.83476 0.80265 0.37525 0.0
C338 C 0.84276 0.74866 0.35096 0.0
C339 C 0.86692 0.7219 0.34274 0.0
C340 C 0.93866 0.83828 0.40477 0.0
C341 C 0.89009 0.79072 0.3786 0.0
C342 C 0.94863 0.87194 0.42435 0.0
C343 C 0.92233 0.89308 0.43901 0.0
C344 C 0.90217 0.82592 0.39956 0.0
C345 C 0.88618 0.87924 0.43372 0.0
C346 C 0.85414 0.78284 0.36885 0.0
C347 C 0.90298 0.73151 0.35167 0.0
N348 N 0.87724 0.84673 0.41436 0.0
N349 N 0.91347 0.76506 0.36935 0.0
H350 H 0.43003 0.79628 0.66181 0.0
H351 H 0.3886 0.61293 0.53532 0.0
H352 H 0.3231 0.74456 0.63719 0.0
H353 H 0.49097 0.64187 0.58509 0.0
H354 H 0.36603 0.6671 0.56586 0.0
H355 H 0.45444 0.74514 0.62797 0.0
C356 C 0.41165 0.77413 0.64945 0.0
C357 C 0.37438 0.77473 0.65249 0.0
C358 C 0.39346 0.66168 0.57005 0.0
C359 C 0.40227 0.71665 0.61315 0.0
C360 C 0.40644 0.63084 0.5525 0.0
C361 C 0.44171 0.62275 0.5578 0.0
C362 C 0.41592 0.68486 0.59289 0.0
C363 C 0.46356 0.64699 0.58037 0.0
C364 C 0.42565 0.7451 0.62997 0.0
C365 C 0.35198 0.74572 0.63518 0.0
N366 N 0.45029 0.67699 0.59715 0.0
N367 N 0.36628 0.71791 0.61627 0.0
H368 H 0.8927 0.83657 0.75263 0.0
H369 H 0.90681 0.97115 0.56013 0.0
H370 H 0.79902 0.86089 0.69246 0.0
H371 H 0.99535 0.91842 0.60837 0.0
H372 H 0.86668 0.93493 0.60962 0.0
H373 H 0.93063 0.87081 0.7014 0.0
C374 C 0.88005 0.8487 0.72839 0.0
C375 C 0.84256 0.84521 0.72656 0.0
C376 C 0.89487 0.93125 0.60919 0.0
C377 C 0.88609 0.88548 0.66797 0.0
C378 C 0.91779 0.95196 0.58108 0.0
C379 C 0.95451 0.94797 0.58028 0.0
C380 C 0.90892 0.90677 0.63677 0.0
C381 C 0.96727 0.92248 0.60789 0.0
C382 C 0.90179 0.86849 0.6992 0.0
C383 C 0.8278 0.8629 0.69499 0.0
N384 N 0.94453 0.90306 0.6351 0.0
N385 N 0.84965 0.88233 0.66683 0.0
H386 H 0.64635 0.20369 0.22676 0.0
H387 H 0.5679 0.02082 0.11186 0.0
H388 H 0.65838 0.0812 0.25909 0.0
H389 H 0.55662 0.14377 0.08031 0.0
H390 H 0.60527 0.04252 0.16312 0.0
H391 H 0.61725 0.1825 0.17029 0.0
C392 C 0.64288 0.17232 0.22191 0.0
C393 C 0.6545 0.14411 0.24776 0.0
C394 C 0.5948 0.06475 0.14482 0.0
C395 C 0.62137 0.1196 0.18313 0.0
C396 C 0.5735 0.05238 0.11554 0.0
C397 C 0.55886 0.08051 0.09201 0.0
C398 C 0.60143 0.10551 0.1506 0.0
C399 C 0.56709 0.12101 0.09796 0.0
C400 C 0.62643 0.16023 0.18959 0.0
C401 C 0.64995 0.10394 0.23977 0.0
N402 N 0.58763 0.13226 0.1268 0.0
N403 N 0.63348 0.09282 0.20828 0.0
H404 H 0.39043 0.66679 0.2844 0.0
H405 H 0.43756 0.47 0.40058 0.0
H406 H 0.36389 0.54895 0.24705 0.0
H407 H 0.46906 0.59009 0.4304 0.0
H408 H 0.40826 0.49698 0.34575 0.0
H409 H 0.41694 0.63796 0.33938 0.0
C410 C 0.39035 0.63478 0.28759 0.0
C411 C 0.37525 0.61039 0.26059 0.0
C412 C 0.42158 0.51735 0.36435 0.0
C413 C 0.40541 0.57683 0.32437 0.0
C414 C 0.4383 0.50198 0.39569 0.0
C415 C 0.45595 0.52777 0.42021 0.0
C416 C 0.42237 0.55882 0.35752 0.0
C417 C 0.45599 0.56896 0.41234 0.0
C418 C 0.40538 0.61827 0.31924 0.0
C419 C 0.37513 0.56896 0.26707 0.0
N420 N 0.43953 0.58308 0.38183 0.0
N421 N 0.39012 0.5535 0.29818 0.0
H422 H 0.11436 0.32842 0.79883 0.0
H423 H 0.06895 0.52375 0.89389 0.0
H424 H 0.14839 0.448 0.75074 0.0
H425 H 0.04735 0.40468 0.94758 0.0
H426 H 0.09657 0.49675 0.84037 0.0
H427 H 0.08786 0.3559 0.85258 0.0
C428 C 0.11617 0.36048 0.79951 0.0
C429 C 0.13362 0.38591 0.77015 0.0
C430 C 0.08583 0.47656 0.86391 0.0
C431 C 0.1034 0.4177 0.83183 0.0
C432 C 0.07001 0.49196 0.89448 0.0
C433 C 0.05572 0.46649 0.92535 0.0
C434 C 0.08725 0.43534 0.86404 0.0
C435 C 0.05793 0.42551 0.92446 0.0
C436 C 0.10119 0.37618 0.83033 0.0
C437 C 0.13554 0.42725 0.77287 0.0
N438 N 0.07327 0.41126 0.89433 0.0
N439 N 0.12051 0.44183 0.80305 0.0
H440 H 0.71801 0.8614 0.77203 0.0
H441 H 0.63643 0.91012 0.96909 0.0
H442 H 0.76115 0.82887 0.87858 0.0
H443 H 0.60815 0.96539 0.8637 0.0
H444 H 0.67939 0.87597 0.93575 0.0
H445 H 0.67446 0.89607 0.80458 0.0
C446 C 0.71828 0.86147 0.80219 0.0
C447 C 0.74297 0.84178 0.82261 0.0
C448 C 0.66387 0.89568 0.91992 0.0
C449 C 0.69335 0.88109 0.85989 0.0
C450 C 0.63935 0.91517 0.93895 0.0
C451 C 0.61878 0.94069 0.91915 0.0
C452 C 0.66766 0.90154 0.88079 0.0
C453 C 0.62359 0.94608 0.88009 0.0
C454 C 0.69344 0.88118 0.82073 0.0
C455 C 0.74207 0.84272 0.86169 0.0
N456 N 0.64748 0.92654 0.86213 0.0
N457 N 0.71765 0.86194 0.879 0.0
H458 H 0.72843 0.1261 0.40236 0.0
H459 H 0.91786 0.05771 0.34876 0.0
H460 H 0.77556 0.14139 0.29035 0.0
H461 H 0.87775 0.06078 0.46226 0.0
H462 H 0.86525 0.08655 0.32637 0.0
H463 H 0.78234 0.10024 0.4245 0.0
C464 C 0.75021 0.12428 0.38244 0.0
C465 C 0.74746 0.13601 0.34443 0.0
C466 C 0.86806 0.08105 0.35618 0.0
C467 C 0.80913 0.10586 0.36954 0.0
C468 C 0.89808 0.06458 0.36897 0.0
C469 C 0.90218 0.05678 0.40743 0.0
C470 C 0.84189 0.08953 0.38203 0.0
C471 C 0.87572 0.06631 0.43236 0.0
C472 C 0.78094 0.10933 0.39508 0.0
C473 C 0.7763 0.13222 0.31981 0.0
N474 N 0.84664 0.08202 0.41921 0.0
N475 N 0.80591 0.11742 0.33279 0.0
H476 H 0.29514 0.5603 0.14884 0.0
H477 H 0.08859 0.58263 0.13061 0.0
H478 H 0.25209 0.66587 0.17895 0.0
H479 H 0.14362 0.51849 0.05254 0.0
H480 H 0.14654 0.60789 0.15535 0.0
H481 H 0.23771 0.53755 0.12079 0.0
C482 C 0.27342 0.57838 0.14987 0.0
C483 C 0.27811 0.61485 0.1663 0.0
C484 C 0.14596 0.58864 0.13253 0.0
C485 C 0.21274 0.5892 0.13457 0.0
C486 C 0.11295 0.57433 0.11835 0.0
C487 C 0.11137 0.54882 0.08922 0.0
C488 C 0.17759 0.57642 0.11828 0.0
C489 C 0.14373 0.53861 0.07461 0.0
C490 C 0.2409 0.56565 0.13362 0.0
C491 C 0.24939 0.63751 0.1666 0.0
N492 N 0.17551 0.55199 0.08965 0.0
N493 N 0.21784 0.6242 0.15124 0.0
H494 H 0.219 0.38609 0.61543 0.0
H495 H 0.42143 0.47105 0.6566 0.0
H496 H 0.25888 0.39517 0.7265 0.0
H497 H 0.38385 0.45372 0.54569 0.0
H498 H 0.36221 0.44304 0.68262 0.0
H499 H 0.27898 0.41109 0.58939 0.0
C500 C 0.24038 0.39321 0.63439 0.0
C501 C 0.23379 0.38835 0.6733 0.0
C502 C 0.36691 0.44516 0.6526 0.0
C503 C 0.30269 0.41741 0.64351 0.0
C504 C 0.4008 0.46111 0.63768 0.0
C505 C 0.40767 0.46485 0.59884 0.0
C506 C 0.33948 0.43298 0.62857 0.0
C507 C 0.37982 0.45137 0.57578 0.0
C508 C 0.27464 0.40761 0.61946 0.0
C509 C 0.26251 0.39882 0.69638 0.0
N510 N 0.34692 0.43624 0.59099 0.0
N511 N 0.29565 0.41278 0.68115 0.0
H512 H 0.8125 0.76274 0.88453 0.0
H513 H 0.95751 0.61241 0.89062 0.0
H514 H 0.84635 0.70954 0.78586 0.0
H515 H 0.8919 0.63008 0.98705 0.0
H516 H 0.92168 0.65346 0.8517 0.0
H517 H 0.84447 0.71786 0.92265 0.0
C518 C 0.82596 0.74107 0.87081 0.0
C519 C 0.82655 0.73997 0.83174 0.0
C520 C 0.91523 0.64832 0.88139 0.0
C521 C 0.86455 0.6895 0.87547 0.0
C522 C 0.93586 0.62534 0.90364 0.0
C523 C 0.92769 0.61812 0.94209 0.0
C524 C 0.88665 0.66451 0.89789 0.0
C525 C 0.89907 0.63501 0.95751 0.0
C526 C 0.84458 0.71573 0.89269 0.0
C527 C 0.84555 0.71192 0.81576 0.0
N528 N 0.87964 0.6576 0.93536 0.0
N529 N 0.86414 0.68803 0.83768 0.0
H530 H 0.33499 0.74971 0.1509 0.0
H531 H 0.52211 0.87602 0.07831 0.0
H532 H 0.43679 0.70463 0.16191 0.0
H533 H 0.41834 0.91373 0.05899 0.0
H534 H 0.49226 0.81461 0.11195 0.0
H535 H 0.3659 0.81136 0.11984 0.0
C536 C 0.36385 0.75263 0.14661 0.0
C537 C 0.38321 0.72166 0.15887 0.0
C538 C 0.47609 0.83639 0.10037 0.0
C539 C 0.41905 0.7928 0.12358 0.0
C540 C 0.49311 0.87149 0.08123 0.0
C541 C 0.47274 0.90009 0.06569 0.0
C542 C 0.43843 0.82993 0.10412 0.0
C543 C 0.43521 0.89254 0.07032 0.0
C544 C 0.38156 0.78803 0.12902 0.0
C545 C 0.42074 0.72774 0.15324 0.0
N546 N 0.41935 0.85831 0.08905 0.0
N547 N 0.4374 0.76253 0.13594 0.0
H548 H 0.11131 0.25093 0.72151 0.0
H549 H 0.05344 0.16532 0.52677 0.0
H550 H 0.13136 0.31734 0.61431 0.0
H551 H 0.05954 0.09001 0.62806 0.0
H552 H 0.07155 0.22367 0.56105 0.0
H553 H 0.08225 0.19409 0.69006 0.0
C554 C 0.10919 0.25367 0.69142 0.0
C555 C 0.12399 0.28872 0.67041 0.0
C556 C 0.06867 0.1944 0.57586 0.0
C557 C 0.09086 0.22409 0.63436 0.0
C558 C 0.05817 0.16102 0.55633 0.0
C559 C 0.05527 0.1226 0.57445 0.0
C560 C 0.07618 0.18948 0.6139 0.0
C561 C 0.06168 0.11902 0.61287 0.0
C562 C 0.09282 0.22122 0.6735 0.0
C563 C 0.12072 0.29066 0.63149 0.0
N564 N 0.07203 0.15202 0.63128 0.0
N565 N 0.10459 0.25882 0.61474 0.0
H566 H 0.5952 0.19748 0.34952 0.0
H567 H 0.62346 0.37502 0.48431 0.0
H568 H 0.69921 0.25435 0.37803 0.0
H569 H 0.52384 0.34341 0.43014 0.0
H570 H 0.64976 0.32415 0.45232 0.0
H571 H 0.56701 0.24489 0.38486 0.0
C572 C 0.61215 0.22 0.36304 0.0
C573 C 0.64972 0.22195 0.36063 0.0
C574 C 0.62212 0.32825 0.4475 0.0
C575 C 0.61749 0.27571 0.40173 0.0
C576 C 0.60699 0.35718 0.46588 0.0
C577 C 0.57141 0.36361 0.45976 0.0
C578 C 0.60149 0.30529 0.42297 0.0
C579 C 0.55141 0.33955 0.43555 0.0
C580 C 0.59599 0.24689 0.38336 0.0
C581 C 0.67019 0.25126 0.37947 0.0
N582 N 0.56676 0.31142 0.41797 0.0
N583 N 0.65382 0.27694 0.39922 0.0
loop_
_geom_bond_atom_site_label_1
_geom_bond_atom_site_label_2
_geom_bond_distance
_geom_bond_site_symmetry_2
_ccdc_geom_bond_type
H0 C3 0.931 . S
H1 C6 0.928 . S
H2 C8 0.930 . S
C3 H0 0.931 . S
C3 C4 1.413 . S
C3 C5 1.360 . S
C4 C3 1.413 . S
C4 C8 1.429 . S
C5 C3 1.360 . S
C5 C6 1.372 . S
C6 H1 0.928 . S
C6 C5 1.372 . S
C6 C7 1.404 . S
C7 C6 1.404 . S
C7 C8 1.391 . S
C8 H2 0.930 . S
C8 C4 1.429 . S
C8 C7 1.391 . S
H9 C12 0.931 . S
H10 C15 0.928 . S
H11 C17 0.930 . S
C12 H9 0.931 . S
C12 C13 1.413 . S
C12 C14 1.360 . S
C13 C12 1.413 . S
C13 C17 1.429 . S
C14 C12 1.360 . S
C14 C15 1.372 . S
C15 H10 0.928 . S
C15 C14 1.372 . S
C15 C16 1.404 . S
C16 C15 1.404 . S
C16 C17 1.391 . S
C17 H11 0.930 . S
C17 C13 1.429 . S
C17 C16 1.391 . S
H18 C21 0.931 . S
H19 C24 0.928 . S
H20 C26 0.930 . S
C21 H18 0.931 . S
C21 C22 1.413 . S
C21 C23 1.360 . S
C22 C21 1.413 . S
C22 C26 1.429 . S
C23 C21 1.360 . S
C23 C24 1.372 . S
C24 H19 0.928 . S
C24 C23 1.372 . S
C24 C25 1.404 . S
C25 C24 1.404 . S
C25 C26 1.391 . S
C26 H20 0.930 . S
C26 C22 1.429 . S
C26 C25 1.391 . S
H27 C30 0.931 . S
H28 C33 0.928 . S
H29 C35 0.930 . S
C30 H27 0.931 . S
C30 C31 1.413 . S
C30 C32 1.360 . S
C31 C30 1.413 . S
C31 C35 1.429 . S
C32 C30 1.360 . S
C32 C33 1.372 . S
C33 H28 0.928 . S
C33 C32 1.372 . S
C33 C34 1.404 . S
C34 C33 1.404 . S
C34 C35 1.391 . S
C35 H29 0.930 . S
C35 C31 1.429 . S
C35 C34 1.391 . S
H36 C39 0.931 . S
H37 C42 0.928 . S
H38 C44 0.930 . S
C39 H36 0.931 . S
C39 C40 1.413 . S
C39 C41 1.360 . S
C40 C39 1.413 . S
C40 C44 1.429 . S
C41 C39 1.360 . S
C41 C42 1.372 . S
C42 H37 0.928 . S
C42 C41 1.372 . S
C42 C43 1.404 . S
C43 C42 1.404 . S
C43 C44 1.391 . S
C44 H38 0.930 . S
C44 C40 1.429 . S
C44 C43 1.391 . S
H45 C48 0.931 . S
H46 C51 0.928 . S
H47 C53 0.930 . S
C48 H45 0.931 . S
C48 C49 1.413 . S
C48 C50 1.360 . S
C49 C48 1.413 . S
C49 C53 1.429 . S
C50 C48 1.360 . S
C50 C51 1.372 . S
C51 H46 0.928 . S
C51 C50 1.372 . S
C51 C52 1.404 . S
C52 C51 1.404 . S
C52 C53 1.391 . S
C53 H47 0.930 . S
C53 C49 1.429 . S
C53 C52 1.391 . S
H54 C57 0.931 . S
H55 C60 0.928 . S
H56 C62 0.930 . S
C57 H54 0.931 . S
C57 C58 1.413 . S
C57 C59 1.360 . S
C58 C57 1.413 . S
C58 C62 1.429 . S
C59 C57 1.360 . S
C59 C60 1.372 . S
C60 H55 0.928 . S
C60 C59 1.372 . S
C60 C61 1.404 . S
C61 C60 1.404 . S
C61 C62 1.391 . S
C62 H56 0.930 . S
C62 C58 1.429 . S
C62 C61 1.391 . S
H63 C66 0.931 . S
H64 C69 0.928 . S
H65 C71 0.930 . S
C66 H63 0.931 . S
C66 C67 1.413 . S
C66 C68 1.360 . S
C67 C66 1.413 . S
C67 C71 1.429 . S
C68 C66 1.360 . S
C68 C69 1.372 . S
C69 H64 0.928 . S
C69 C68 1.372 . S
C69 C70 1.404 . S
C70 C69 1.404 . S
C70 C71 1.391 . S
C71 H65 0.930 . S
C71 C67 1.429 . S
C71 C70 1.391 . S
Zn72 O78 1.969 1_545 S
Zn72 O79 1.965 1_545 S
Zn72 O83 2.024 . S
Zn72 O88 1.969 . S
Zn73 O80 1.969 . S
Zn73 O86 1.969 1_565 S
Zn73 O87 1.965 1_665 S
Zn73 O89 2.024 . S
C74 O75 1.229 . S
C74 O83 1.058 . S
O75 C74 1.229 . S
C76 O77 1.229 . S
C76 O89 1.058 . S
O77 C76 1.229 . S
O78 Zn72 1.969 1_565 S
O78 C81 1.267 . S
O79 Zn72 1.965 1_565 S
O79 C90 1.260 1_455 S
O80 Zn73 1.969 . S
O80 C90 1.258 . S
C81 O78 1.267 . S
C81 O82 1.228 . S
O82 C81 1.228 . S
O83 Zn72 2.024 . S
O83 C74 1.058 . S
C84 O85 1.228 . S
C84 O86 1.267 . S
O85 C84 1.228 . S
O86 Zn73 1.969 1_545 S
O86 C84 1.267 . S
O87 Zn73 1.965 1_445 S
O87 C91 1.260 . S
O88 Zn72 1.969 . S
O88 C91 1.258 . S
O89 Zn73 2.024 . S
O89 C76 1.058 . S
C90 O79 1.260 1_655 S
C90 O80 1.258 . S
C91 O87 1.260 . S
C91 O88 1.258 . S
Zn92 O98 1.969 . S
Zn92 O99 1.965 1_565 S
Zn92 O103 2.024 . S
Zn92 O108 1.969 1_556 S
Zn93 O100 1.969 . S
Zn93 O106 1.969 . S
Zn93 O107 1.965 1_545 S
Zn93 O109 2.024 . S
C94 O95 1.229 . S
C94 O103 1.058 . S
O95 C94 1.229 . S
C96 O97 1.229 . S
C96 O109 1.058 . S
O97 C96 1.229 . S
O98 Zn92 1.969 . S
O98 C101 1.267 . S
O99 Zn92 1.965 1_545 S
O99 C110 1.260 . S
O100 Zn93 1.969 . S
O100 C110 1.258 1_554 S
C101 O98 1.267 . S
C101 O102 1.228 . S
O102 C101 1.228 . S
O103 Zn92 2.024 . S
O103 C94 1.058 . S
C104 O105 1.228 . S
C104 O106 1.267 . S
O105 C104 1.228 . S
O106 Zn93 1.969 . S
O106 C104 1.267 . S
O107 Zn93 1.965 1_565 S
O107 C111 1.260 . S
O108 Zn92 1.969 1_554 S
O108 C111 1.258 . S
O109 Zn93 2.024 . S
O109 C96 1.058 . S
C110 O99 1.260 . S
C110 O100 1.258 1_556 S
C111 O107 1.260 . S
C111 O108 1.258 . S
Zn112 O118 1.969 . S
Zn112 O119 1.965 . S
Zn112 O123 2.024 . S
Zn112 O128 1.969 . S
Zn113 O120 1.969 . S
Zn113 O126 1.969 . S
Zn113 O127 1.965 . S
Zn113 O129 2.024 . S
C114 O115 1.229 . S
C114 O123 1.058 . S
O115 C114 1.229 . S
C116 O117 1.229 . S
C116 O129 1.058 . S
O117 C116 1.229 . S
O118 Zn112 1.969 . S
O118 C121 1.267 . S
O119 Zn112 1.965 . S
O119 C130 1.260 . S
O120 Zn113 1.969 . S
O120 C130 1.258 . S
C121 O118 1.267 . S
C121 O122 1.228 . S
O122 C121 1.228 . S
O123 Zn112 2.024 . S
O123 C114 1.058 . S
C124 O125 1.228 . S
C124 O126 1.267 . S
O125 C124 1.228 . S
O126 Zn113 1.969 . S
O126 C124 1.267 . S
O127 Zn113 1.965 . S
O127 C131 1.260 . S
O128 Zn112 1.969 . S
O128 C131 1.258 . S
O129 Zn113 2.024 . S
O129 C116 1.058 . S
C130 O119 1.260 . S
C130 O120 1.258 . S
C131 O127 1.260 . S
C131 O128 1.258 . S
Zn132 O138 1.969 . S
Zn132 O139 1.965 1_556 S
Zn132 O143 2.024 . S
Zn132 O148 1.969 1_655 S
Zn133 O140 1.969 . S
Zn133 O146 1.969 . S
Zn133 O147 1.965 1_554 S
Zn133 O149 2.024 . S
C134 O135 1.229 . S
C134 O143 1.058 . S
O135 C134 1.229 . S
C136 O137 1.229 . S
C136 O149 1.058 . S
O137 C136 1.229 . S
O138 Zn132 1.969 . S
O138 C141 1.267 . S
O139 Zn132 1.965 1_554 S
O139 C150 1.260 . S
O140 Zn133 1.969 . S
O140 C150 1.258 1_455 S
C141 O138 1.267 . S
C141 O142 1.228 . S
O142 C141 1.228 . S
O143 Zn132 2.024 . S
O143 C134 1.058 . S
C144 O145 1.228 . S
C144 O146 1.267 . S
O145 C144 1.228 . S
O146 Zn133 1.969 . S
O146 C144 1.267 . S
O147 Zn133 1.965 1_556 S
O147 C151 1.260 . S
O148 Zn132 1.969 1_455 S
O148 C151 1.258 . S
O149 Zn133 2.024 . S
O149 C136 1.058 . S
C150 O139 1.260 . S
C150 O140 1.258 1_655 S
C151 O147 1.260 . S
C151 O148 1.258 . S
H152 C158 0.930 . S
H153 C162 0.930 . S
H154 C167 0.929 . S
H155 C165 0.929 . S
H156 C160 0.929 . S
H157 C166 0.929 . S
C158 H152 0.930 . S
C158 C159 1.367 . S
C158 C166 1.378 . S
C159 C158 1.367 . S
C159 C167 1.433 . S
C160 H156 0.929 . S
C160 C162 1.378 . S
C160 C164 1.350 . S
C161 C164 1.463 . S
C161 C166 1.350 . S
C161 N169 1.427 . S
C162 H153 0.930 . S
C162 C160 1.378 . S
C162 C163 1.367 . S
C163 C162 1.367 . S
C163 C165 1.433 . S
C164 C160 1.350 . S
C164 C161 1.463 . S
C164 N168 1.427 . S
C165 H155 0.929 . S
C165 C163 1.433 . S
C165 N168 1.384 . S
C166 H157 0.929 . S
C166 C158 1.378 . S
C166 C161 1.350 . S
C167 H154 0.929 . S
C167 C159 1.433 . S
C167 N169 1.384 . S
N168 C164 1.427 . S
N168 C165 1.384 . S
N169 C161 1.427 . S
N169 C167 1.384 . S
H170 C176 0.930 . S
H171 C180 0.930 . S
H172 C185 0.929 . S
H173 C183 0.948 . S
H174 C178 0.929 . S
H175 C184 0.929 . S
C176 H170 0.930 . S
C176 C177 1.367 . S
C176 C184 1.378 . S
C177 C176 1.367 . S
C177 C185 1.433 . S
C178 H174 0.929 . S
C178 C180 1.378 . S
C178 C182 1.350 . S
C179 C182 1.463 . S
C179 C184 1.350 . S
C179 N187 1.427 . S
C180 H171 0.930 . S
C180 C178 1.378 . S
C180 C181 1.367 . S
C181 C180 1.367 . S
C181 C183 1.433 . S
C182 C178 1.350 . S
C182 C179 1.463 . S
C182 N186 1.427 . S
C183 H173 0.948 . S
C183 C181 1.433 . S
C183 N186 1.384 . S
C184 H175 0.929 . S
C184 C176 1.378 . S
C184 C179 1.350 . S
C185 H172 0.929 . S
C185 C177 1.433 . S
C185 N187 1.384 . S
N186 C182 1.427 . S
N186 C183 1.384 . S
N187 C179 1.427 . S
N187 C185 1.384 . S
H188 C194 0.930 . S
H189 C198 0.930 . S
H190 C203 0.929 . S
H191 C201 0.929 . S
H192 C196 0.929 . S
H193 C202 0.929 . S
C194 H188 0.930 . S
C194 C195 1.367 . S
C194 C202 1.378 . S
C195 C194 1.367 . S
C195 C203 1.433 . S
C196 H192 0.929 . S
C196 C198 1.378 . S
C196 C200 1.350 . S
C197 C200 1.463 . S
C197 C202 1.350 . S
C197 N205 1.427 . S
C198 H189 0.930 . S
C198 C196 1.378 . S
C198 C199 1.367 . S
C199 C198 1.367 . S
C199 C201 1.433 . S
C200 C196 1.350 . S
C200 C197 1.463 . S
C200 N204 1.427 . S
C201 H191 0.929 . S
C201 C199 1.433 . S
C201 N204 1.384 . S
C202 H193 0.929 . S
C202 C194 1.378 . S
C202 C197 1.350 . S
C203 H190 0.929 . S
C203 C195 1.433 . S
C203 N205 1.384 . S
N204 C200 1.427 . S
N204 C201 1.384 . S
N205 C197 1.427 . S
N205 C203 1.384 . S
H206 C212 0.930 . S
H207 C216 0.930 . S
H208 C221 0.929 . S
H209 C219 0.929 . S
H210 C214 0.929 . S
H211 C220 0.929 . S
C212 H206 0.930 . S
C212 C213 1.367 . S
C212 C220 1.378 . S
C213 C212 1.367 . S
C213 C221 1.433 . S
C214 H210 0.929 . S
C214 C216 1.378 . S
C214 C218 1.350 . S
C215 C218 1.463 . S
C215 C220 1.350 . S
C215 N223 1.427 . S
C216 H207 0.930 . S
C216 C214 1.378 . S
C216 C217 1.367 . S
C217 C216 1.367 . S
C217 C219 1.433 . S
C218 C214 1.350 . S
C218 C215 1.463 . S
C218 N222 1.427 . S
C219 H209 0.929 . S
C219 C217 1.433 . S
C219 N222 1.384 . S
C220 H211 0.929 . S
C220 C212 1.378 . S
C220 C215 1.350 . S
C221 H208 0.929 . S
C221 C213 1.433 . S
C221 N223 1.384 . S
N222 C218 1.427 . S
N222 C219 1.384 . S
N223 C215 1.427 . S
N223 C221 1.384 . S
H224 C230 0.930 . S
H225 C234 0.930 . S
H226 C239 0.929 . S
H227 C237 0.929 . S
H228 C232 0.929 . S
H229 C238 0.929 . S
C230 H224 0.930 . S
C230 C231 1.367 . S
C230 C238 1.378 . S
C231 C230 1.367 . S
C231 C239 1.433 . S
C232 H228 0.929 . S
C232 C234 1.378 . S
C232 C236 1.350 . S
C233 C236 1.463 . S
C233 C238 1.350 . S
C233 N241 1.427 . S
C234 H225 0.930 . S
C234 C232 1.378 . S
C234 C235 1.367 . S
C235 C234 1.367 . S
C235 C237 1.433 . S
C236 C232 1.350 . S
C236 C233 1.463 . S
C236 N240 1.427 . S
C237 H227 0.929 . S
C237 C235 1.433 . S
C237 N240 1.384 . S
C238 H229 0.929 . S
C238 C230 1.378 . S
C238 C233 1.350 . S
C239 H226 0.929 . S
C239 C231 1.433 . S
C239 N241 1.384 . S
N240 C236 1.427 . S
N240 C237 1.384 . S
N241 C233 1.427 . S
N241 C239 1.384 . S
H242 C248 0.930 . S
H243 C252 0.930 . S
H244 C257 0.929 . S
H245 C255 0.929 . S
H246 C250 0.929 . S
H247 C256 0.929 . S
C248 H242 0.930 . S
C248 C249 1.367 . S
C248 C256 1.378 . S
C249 C248 1.367 . S
C249 C257 1.433 . S
C250 H246 0.929 . S
C250 C252 1.378 . S
C250 C254 1.350 . S
C251 C254 1.463 . S
C251 C256 1.350 . S
C251 N259 1.427 . S
C252 H243 0.930 . S
C252 C250 1.378 . S
C252 C253 1.367 . S
C253 C252 1.367 . S
C253 C255 1.433 . S
C254 C250 1.350 . S
C254 C251 1.463 . S
C254 N258 1.427 . S
C255 H245 0.929 . S
C255 C253 1.433 . S
C255 N258 1.384 . S
C256 H247 0.929 . S
C256 C248 1.378 . S
C256 C251 1.350 . S
C257 H244 0.929 . S
C257 C249 1.433 . S
C257 N259 1.384 . S
N258 C254 1.427 . S
N258 C255 1.384 . S
N259 C251 1.427 . S
N259 C257 1.384 . S
H260 C266 0.930 . S
H261 C270 0.930 . S
H262 C275 0.929 . S
H263 C273 0.929 . S
H264 C268 0.929 . S
H265 C274 0.929 . S
C266 H260 0.930 . S
C266 C267 1.367 . S
C266 C274 1.378 . S
C267 C266 1.367 . S
C267 C275 1.433 . S
C268 H264 0.929 . S
C268 C270 1.378 . S
C268 C272 1.350 . S
C269 C272 1.463 . S
C269 C274 1.350 . S
C269 N277 1.427 . S
C270 H261 0.930 . S
C270 C268 1.378 . S
C270 C271 1.367 . S
C271 C270 1.367 . S
C271 C273 1.433 . S
C272 C268 1.350 . S
C272 C269 1.463 . S
C272 N276 1.427 . S
C273 H263 0.929 . S
C273 C271 1.433 . S
C273 N276 1.384 . S
C274 H265 0.929 . S
C274 C266 1.378 . S
C274 C269 1.350 . S
C275 H262 0.929 . S
C275 C267 1.433 . S
C275 N277 1.384 . S
N276 C272 1.427 . S
N276 C273 1.384 . S
N277 C269 1.427 . S
N277 C275 1.384 . S
H278 C284 0.930 . S
H279 C288 0.930 . S
H280 C293 0.929 . S
H281 C291 0.929 . S
H282 C286 0.929 . S
H283 C292 0.929 . S
C284 H278 0.930 . S
C284 C285 1.367 . S
C284 C292 1.378 . S
C285 C284 1.367 . S
C285 C293 1.433 . S
C286 H282 0.929 . S
C286 C288 1.378 . S
C286 C290 1.350 . S
C287 C290 1.463 . S
C287 C292 1.350 . S
C287 N295 1.427 . S
C288 H279 0.930 . S
C288 C286 1.378 . S
C288 C289 1.367 . S
C289 C288 1.367 . S
C289 C291 1.433 . S
C290 C286 1.350 . S
C290 C287 1.463 . S
C290 N294 1.427 . S
C291 H281 0.929 . S
C291 C289 1.433 . S
C291 N294 1.384 . S
C292 H283 0.929 . S
C292 C284 1.378 . S
C292 C287 1.350 . S
C293 H280 0.929 . S
C293 C285 1.433 . S
C293 N295 1.384 . S
N294 C290 1.427 . S
N294 C291 1.384 . S
N295 C287 1.427 . S
N295 C293 1.384 . S
H296 C302 0.930 . S
H297 C306 0.930 . S
H298 C311 0.929 . S
H299 C309 0.929 . S
H300 C304 0.929 . S
H301 C310 0.929 . S
C302 H296 0.930 . S
C302 C303 1.367 . S
C302 C310 1.378 . S
C303 C302 1.367 . S
C303 C311 1.433 . S
C304 H300 0.929 . S
C304 C306 1.378 . S
C304 C308 1.350 . S
C305 C308 1.463 . S
C305 C310 1.350 . S
C305 N313 1.427 . S
C306 H297 0.930 . S
C306 C304 1.378 . S
C306 C307 1.367 . S
C307 C306 1.367 . S
C307 C309 1.433 . S
C308 C304 1.350 . S
C308 C305 1.463 . S
C308 N312 1.427 . S
C309 H299 0.929 . S
C309 C307 1.433 . S
C309 N312 1.384 . S
C310 H301 0.929 . S
C310 C302 1.378 . S
C310 C305 1.350 . S
C311 H298 0.929 . S
C311 C303 1.433 . S
C311 N313 1.384 . S
N312 C308 1.427 . S
N312 C309 1.384 . S
N313 C305 1.427 . S
N313 C311 1.384 . S
H314 C320 0.930 . S
H315 C324 0.930 . S
H316 C329 0.929 . S
H317 C327 0.929 . S
H318 C322 0.929 . S
H319 C328 0.929 . S
C320 H314 0.930 . S
C320 C321 1.367 . S
C320 C328 1.378 . S
C321 C320 1.367 . S
C321 C329 1.433 . S
C322 H318 0.929 . S
C322 C324 1.378 . S
C322 C326 1.350 . S
C323 C326 1.463 . S
C323 C328 1.350 . S
C323 N331 1.427 . S
C324 H315 0.930 . S
C324 C322 1.378 . S
C324 C325 1.367 . S
C325 C324 1.367 . S
C325 C327 1.433 . S
C326 C322 1.350 . S
C326 C323 1.463 . S
C326 N330 1.427 . S
C327 H317 0.929 . S
C327 C325 1.433 . S
C327 N330 1.384 . S
C328 H319 0.929 . S
C328 C320 1.378 . S
C328 C323 1.350 . S
C329 H316 0.929 . S
C329 C321 1.433 . S
C329 N331 1.384 . S
N330 C326 1.427 . S
N330 C327 1.384 . S
N331 C323 1.427 . S
N331 C329 1.384 . S
H332 C338 0.930 . S
H333 C342 0.930 . S
H334 C347 0.929 . S
H335 C345 0.929 . S
H336 C340 0.929 . S
H337 C346 0.929 . S
C338 H332 0.930 . S
C338 C339 1.367 . S
C338 C346 1.378 . S
C339 C338 1.367 . S
C339 C347 1.433 . S
C340 H336 0.929 . S
C340 C342 1.378 . S
C340 C344 1.350 . S
C341 C344 1.463 . S
C341 C346 1.350 . S
C341 N349 1.427 . S
C342 H333 0.930 . S
C342 C340 1.378 . S
C342 C343 1.367 . S
C343 C342 1.367 . S
C343 C345 1.433 . S
C344 C340 1.350 . S
C344 C341 1.463 . S
C344 N348 1.427 . S
C345 H335 0.929 . S
C345 C343 1.433 . S
C345 N348 1.384 . S
C346 H337 0.929 . S
C346 C338 1.378 . S
C346 C341 1.350 . S
C347 H334 0.929 . S
C347 C339 1.433 . S
C347 N349 1.384 . S
N348 C344 1.427 . S
N348 C345 1.384 . S
N349 C341 1.427 . S
N349 C347 1.384 . S
H350 C356 0.930 . S
H351 C360 0.930 . S
H352 C365 0.929 . S
H353 C363 0.929 . S
H354 C358 0.929 . S
H355 C364 0.929 . S
C356 H350 0.930 . S
C356 C357 1.367 . S
C356 C364 1.378 . S
C357 C356 1.367 . S
C357 C365 1.433 . S
C358 H354 0.929 . S
C358 C360 1.378 . S
C358 C362 1.350 . S
C359 C362 1.463 . S
C359 C364 1.350 . S
C359 N367 1.427 . S
C360 H351 0.930 . S
C360 C358 1.378 . S
C360 C361 1.367 . S
C361 C360 1.367 . S
C361 C363 1.433 . S
C362 C358 1.350 . S
C362 C359 1.463 . S
C362 N366 1.427 . S
C363 H353 0.929 . S
C363 C361 1.433 . S
C363 N366 1.384 . S
C364 H355 0.929 . S
C364 C356 1.378 . S
C364 C359 1.350 . S
C365 H352 0.929 . S
C365 C357 1.433 . S
C365 N367 1.384 . S
N366 C362 1.427 . S
N366 C363 1.384 . S
N367 C359 1.427 . S
N367 C365 1.384 . S
H368 C374 0.930 . S
H369 C378 0.930 . S
H370 C383 0.929 . S
H371 C381 0.929 . S
H372 C376 0.929 . S
H373 C382 0.929 . S
C374 H368 0.930 . S
C374 C375 1.367 . S
C374 C382 1.378 . S
C375 C374 1.367 . S
C375 C383 1.433 . S
C376 H372 0.929 . S
C376 C378 1.378 . S
C376 C380 1.350 . S
C377 C380 1.463 . S
C377 C382 1.350 . S
C377 N385 1.427 . S
C378 H369 0.930 . S
C378 C376 1.378 . S
C378 C379 1.367 . S
C379 C378 1.367 . S
C379 C381 1.433 . S
C380 C376 1.350 . S
C380 C377 1.463 . S
C380 N384 1.427 . S
C381 H371 0.929 . S
C381 C379 1.433 . S
C381 N384 1.384 . S
C382 H373 0.929 . S
C382 C374 1.378 . S
C382 C377 1.350 . S
C383 H370 0.929 . S
C383 C375 1.433 . S
C383 N385 1.384 . S
N384 C380 1.427 . S
N384 C381 1.384 . S
N385 C377 1.427 . S
N385 C383 1.384 . S
H386 C392 0.930 . S
H387 C396 0.930 . S
H388 C401 0.929 . S
H389 C399 0.929 . S
H390 C394 0.929 . S
H391 C400 0.929 . S
C392 H386 0.930 . S
C392 C393 1.367 . S
C392 C400 1.378 . S
C393 C392 1.367 . S
C393 C401 1.433 . S
C394 H390 0.929 . S
C394 C396 1.378 . S
C394 C398 1.350 . S
C395 C398 1.463 . S
C395 C400 1.350 . S
C395 N403 1.427 . S
C396 H387 0.930 . S
C396 C394 1.378 . S
C396 C397 1.367 . S
C397 C396 1.367 . S
C397 C399 1.433 . S
C398 C394 1.350 . S
C398 C395 1.463 . S
C398 N402 1.427 . S
C399 H389 0.929 . S
C399 C397 1.433 . S
C399 N402 1.384 . S
C400 H391 0.929 . S
C400 C392 1.378 . S
C400 C395 1.350 . S
C401 H388 0.929 . S
C401 C393 1.433 . S
C401 N403 1.384 . S
N402 C398 1.427 . S
N402 C399 1.384 . S
N403 C395 1.427 . S
N403 C401 1.384 . S
H404 C410 0.930 . S
H405 C414 0.930 . S
H406 C419 0.929 . S
H407 C417 0.929 . S
H408 C412 0.929 . S
H409 C418 0.929 . S
C410 H404 0.930 . S
C410 C411 1.367 . S
C410 C418 1.378 . S
C411 C410 1.367 . S
C411 C419 1.433 . S
C412 H408 0.929 . S
C412 C414 1.378 . S
C412 C416 1.350 . S
C413 C416 1.463 . S
C413 C418 1.350 . S
C413 N421 1.427 . S
C414 H405 0.930 . S
C414 C412 1.378 . S
C414 C415 1.367 . S
C415 C414 1.367 . S
C415 C417 1.433 . S
C416 C412 1.350 . S
C416 C413 1.463 . S
C416 N420 1.427 . S
C417 H407 0.929 . S
C417 C415 1.433 . S
C417 N420 1.384 . S
C418 H409 0.929 . S
C418 C410 1.378 . S
C418 C413 1.350 . S
C419 H406 0.929 . S
C419 C411 1.433 . S
C419 N421 1.384 . S
N420 C416 1.427 . S
N420 C417 1.384 . S
N421 C413 1.427 . S
N421 C419 1.384 . S
H422 C428 0.930 . S
H423 C432 0.930 . S
H424 C437 0.929 . S
H425 C435 0.929 . S
H426 C430 0.929 . S
H427 C436 0.929 . S
C428 H422 0.930 . S
C428 C429 1.367 . S
C428 C436 1.378 . S
C429 C428 1.367 . S
C429 C437 1.433 . S
C430 H426 0.929 . S
C430 C432 1.378 . S
C430 C434 1.350 . S
C431 C434 1.463 . S
C431 C436 1.350 . S
C431 N439 1.427 . S
C432 H423 0.930 . S
C432 C430 1.378 . S
C432 C433 1.367 . S
C433 C432 1.367 . S
C433 C435 1.433 . S
C434 C430 1.350 . S
C434 C431 1.463 . S
C434 N438 1.427 . S
C435 H425 0.929 . S
C435 C433 1.433 . S
C435 N438 1.384 . S
C436 H427 0.929 . S
C436 C428 1.378 . S
C436 C431 1.350 . S
C437 H424 0.929 . S
C437 C429 1.433 . S
C437 N439 1.384 . S
N438 C434 1.427 . S
N438 C435 1.384 . S
N439 C431 1.427 . S
N439 C437 1.384 . S
H440 C446 0.930 . S
H441 C450 0.930 . S
H442 C455 0.929 . S
H443 C453 0.929 . S
H444 C448 0.929 . S
H445 C454 0.929 . S
C446 H440 0.930 . S
C446 C447 1.367 . S
C446 C454 1.378 . S
C447 C446 1.367 . S
C447 C455 1.433 . S
C448 H444 0.929 . S
C448 C450 1.378 . S
C448 C452 1.350 . S
C449 C452 1.463 . S
C449 C454 1.350 . S
C449 N457 1.427 . S
C450 H441 0.930 . S
C450 C448 1.378 . S
C450 C451 1.367 . S
C451 C450 1.367 . S
C451 C453 1.433 . S
C452 C448 1.350 . S
C452 C449 1.463 . S
C452 N456 1.427 . S
C453 H443 0.929 . S
C453 C451 1.433 . S
C453 N456 1.384 . S
C454 H445 0.929 . S
C454 C446 1.378 . S
C454 C449 1.350 . S
C455 H442 0.929 . S
C455 C447 1.433 . S
C455 N457 1.384 . S
N456 C452 1.427 . S
N456 C453 1.384 . S
N457 C449 1.427 . S
N457 C455 1.384 . S
H458 C464 0.930 . S
H459 C468 0.930 . S
H460 C473 0.929 . S
H461 C471 0.929 . S
H462 C466 0.929 . S
H463 C472 0.929 . S
C464 H458 0.930 . S
C464 C465 1.367 . S
C464 C472 1.378 . S
C465 C464 1.367 . S
C465 C473 1.433 . S
C466 H462 0.929 . S
C466 C468 1.378 . S
C466 C470 1.350 . S
C467 C470 1.463 . S
C467 C472 1.350 . S
C467 N475 1.427 . S
C468 H459 0.930 . S
C468 C466 1.378 . S
C468 C469 1.367 . S
C469 C468 1.367 . S
C469 C471 1.433 . S
C470 C466 1.350 . S
C470 C467 1.463 . S
C470 N474 1.427 . S
C471 H461 0.929 . S
C471 C469 1.433 . S
C471 N474 1.384 . S
C472 H463 0.929 . S
C472 C464 1.378 . S
C472 C467 1.350 . S
C473 H460 0.929 . S
C473 C465 1.433 . S
C473 N475 1.384 . S
N474 C470 1.427 . S
N474 C471 1.384 . S
N475 C467 1.427 . S
N475 C473 1.384 . S
H476 C482 0.930 . S
H477 C486 0.930 . S
H478 C491 0.929 . S
H479 C489 0.929 . S
H480 C484 0.929 . S
H481 C490 0.929 . S
C482 H476 0.930 . S
C482 C483 1.367 . S
C482 C490 1.378 . S
C483 C482 1.367 . S
C483 C491 1.433 . S
C484 H480 0.929 . S
C484 C486 1.378 . S
C484 C488 1.350 . S
C485 C488 1.463 . S
C485 C490 1.350 . S
C485 N493 1.427 . S
C486 H477 0.930 . S
C486 C484 1.378 . S
C486 C487 1.367 . S
C487 C486 1.367 . S
C487 C489 1.433 . S
C488 C484 1.350 . S
C488 C485 1.463 . S
C488 N492 1.427 . S
C489 H479 0.929 . S
C489 C487 1.433 . S
C489 N492 1.384 . S
C490 H481 0.929 . S
C490 C482 1.378 . S
C490 C485 1.350 . S
C491 H478 0.929 . S
C491 C483 1.433 . S
C491 N493 1.384 . S
N492 C488 1.427 . S
N492 C489 1.384 . S
N493 C485 1.427 . S
N493 C491 1.384 . S
H494 C500 0.930 . S
H495 C504 0.930 . S
H496 C509 0.929 . S
H497 C507 0.929 . S
H498 C502 0.929 . S
H499 C508 0.929 . S
C500 H494 0.930 . S
C500 C501 1.367 . S
C500 C508 1.378 . S
C501 C500 1.367 . S
C501 C509 1.433 . S
C502 H498 0.929 . S
C502 C504 1.378 . S
C502 C506 1.350 . S
C503 C506 1.463 . S
C503 C508 1.350 . S
C503 N511 1.427 . S
C504 H495 0.930 . S
C504 C502 1.378 . S
C504 C505 1.367 . S
C505 C504 1.367 . S
C505 C507 1.433 . S
C506 C502 1.350 . S
C506 C503 1.463 . S
C506 N510 1.427 . S
C507 H497 0.929 . S
C507 C505 1.433 . S
C507 N510 1.384 . S
C508 H499 0.929 . S
C508 C500 1.378 . S
C508 C503 1.350 . S
C509 H496 0.929 . S
C509 C501 1.433 . S
C509 N511 1.384 . S
N510 C506 1.427 . S
N510 C507 1.384 . S
N511 C503 1.427 . S
N511 C509 1.384 . S
H512 C518 0.930 . S
H513 C522 0.930 . S
H514 C527 0.929 . S
H515 C525 0.929 . S
H516 C520 0.929 . S
H517 C526 0.929 . S
C518 H512 0.930 . S
C518 C519 1.367 . S
C518 C526 1.378 . S
C519 C518 1.367 . S
C519 C527 1.433 . S
C520 H516 0.929 . S
C520 C522 1.378 . S
C520 C524 1.350 . S
C521 C524 1.463 . S
C521 C526 1.350 . S
C521 N529 1.427 . S
C522 H513 0.930 . S
C522 C520 1.378 . S
C522 C523 1.367 . S
C523 C522 1.367 . S
C523 C525 1.433 . S
C524 C520 1.350 . S
C524 C521 1.463 . S
C524 N528 1.427 . S
C525 H515 0.929 . S
C525 C523 1.433 . S
C525 N528 1.384 . S
C526 H517 0.929 . S
C526 C518 1.378 . S
C526 C521 1.350 . S
C527 H514 0.929 . S
C527 C519 1.433 . S
C527 N529 1.384 . S
N528 C524 1.427 . S
N528 C525 1.384 . S
N529 C521 1.427 . S
N529 C527 1.384 . S
H530 C536 0.930 . S
H531 C540 0.930 . S
H532 C545 0.929 . S
H533 C543 0.929 . S
H534 C538 0.929 . S
H535 C544 0.929 . S
C536 H530 0.930 . S
C536 C537 1.367 . S
C536 C544 1.378 . S
C537 C536 1.367 . S
C537 C545 1.433 . S
C538 H534 0.929 . S
C538 C540 1.378 . S
C538 C542 1.350 . S
C539 C542 1.463 . S
C539 C544 1.350 . S
C539 N547 1.427 . S
C540 H531 0.930 . S
C540 C538 1.378 . S
C540 C541 1.367 . S
C541 C540 1.367 . S
C541 C543 1.433 . S
C542 C538 1.350 . S
C542 C539 1.463 . S
C542 N546 1.427 . S
C543 H533 0.929 . S
C543 C541 1.433 . S
C543 N546 1.384 . S
C544 H535 0.929 . S
C544 C536 1.378 . S
C544 C539 1.350 . S
C545 H532 0.929 . S
C545 C537 1.433 . S
C545 N547 1.384 . S
N546 C542 1.427 . S
N546 C543 1.384 . S
N547 C539 1.427 . S
N547 C545 1.384 . S
H548 C554 0.930 . S
H549 C558 0.930 . S
H550 C563 0.929 . S
H551 C561 0.929 . S
H552 C556 0.929 . S
H553 C562 0.929 . S
C554 H548 0.930 . S
C554 C555 1.367 . S
C554 C562 1.378 . S
C555 C554 1.367 . S
C555 C563 1.433 . S
C556 H552 0.929 . S
C556 C558 1.378 . S
C556 C560 1.350 . S
C557 C560 1.463 . S
C557 C562 1.350 . S
C557 N565 1.427 . S
C558 H549 0.930 . S
C558 C556 1.378 . S
C558 C559 1.367 . S
C559 C558 1.367 . S
C559 C561 1.433 . S
C560 C556 1.350 . S
C560 C557 1.463 . S
C560 N564 1.427 . S
C561 H551 0.929 . S
C561 C559 1.433 . S
C561 N564 1.384 . S
C562 H553 0.929 . S
C562 C554 1.378 . S
C562 C557 1.350 . S
C563 H550 0.929 . S
C563 C555 1.433 . S
C563 N565 1.384 . S
N564 C560 1.427 . S
N564 C561 1.384 . S
N565 C557 1.427 . S
N565 C563 1.384 . S
H566 C572 0.930 . S
H567 C576 0.930 . S
H568 C581 0.929 . S
H569 C579 0.929 . S
H570 C574 0.929 . S
H571 C580 0.929 . S
C572 H566 0.930 . S
C572 C573 1.367 . S
C572 C580 1.378 . S
C573 C572 1.367 . S
C573 C581 1.433 . S
C574 H570 0.929 . S
C574 C576 1.378 . S
C574 C578 1.350 . S
C575 C578 1.463 . S
C575 C580 1.350 . S
C575 N583 1.427 . S
C576 H567 0.930 . S
C576 C574 1.378 . S
C576 C577 1.367 . S
C577 C576 1.367 . S
C577 C579 1.433 . S
C578 C574 1.350 . S
C578 C575 1.463 . S
C578 N582 1.427 . S
C579 H569 0.929 . S
C579 C577 1.433 . S
C579 N582 1.384 . S
C580 H571 0.929 . S
C580 C572 1.378 . S
C580 C575 1.350 . S
C581 H568 0.929 . S
C581 C573 1.433 . S
C581 N583 1.384 . S
N582 C578 1.427 . S
N582 C579 1.384 . S
N583 C575 1.427 . S
N583 C581 1.384 . S
C159 C5 1.452 . S
C163 C91 1.423 . S
C177 C14 1.271 . S
C181 C94 1.219 . S
C199 C130 1.760 . S
C195 C25 1.795 . S
C213 C34 1.672 . S
C217 C150 1.645 . S
C235 C104 1.612 . S
C231 C7 1.646 . S
C253 C81 1.484 . S
C249 C13 1.505 . S
C271 C134 1.560 . S
C267 C23 1.666 . S
C289 C114 1.349 . S
C285 C31 1.429 . S
C303 C4 1.340 . S
C307 C144 1.293 . S
C325 C110 1.638 . S
C321 C22 1.659 . S
C339 C32 1.626 . S
C343 C76 1.569 . S
C357 C16 1.327 . S
C361 C124 1.291 . S
C379 C90 1.410 . S
C375 C41 1.438 . S
C393 C50 1.278 . S
C397 C96 1.238 . S
C411 C61 1.794 . S
C415 C131 1.757 . S
C429 C67 1.683 . S
C433 C151 1.653 . S
C447 C40 1.662 . S
C451 C101 1.637 . S
C469 C84 1.460 . S
C465 C52 1.485 . S
C487 C136 1.564 . S
C483 C59 1.671 . S
C505 C116 1.350 . S
C501 C70 1.421 . S
C519 C43 1.338 . S
C523 C141 1.291 . S
C541 C111 1.644 . S
C537 C58 1.668 . S
C559 C74 1.552 . S
C555 C68 1.614 . S
C573 C49 1.335 . S
C577 C121 1.297 . S
