# Generated by pormake.
# Topology ssa, (4,4)-cn, num edge types: 1
# Building blocks:
#     Node 0, Type 0, BuildingBlock: KOZSID_clean_sbu_0, # of connection points: 4
#     Node 1, Type 0, BuildingBlock: KOZSID_clean_sbu_0, # of connection points: 4
#     Node 2, Type 0, BuildingBlock: KOZSID_clean_sbu_0, # of connection points: 4
#     Node 3, Type 0, BuildingBlock: KOZSID_clean_sbu_0, # of connection points: 4
#     Node 4, Type 0, BuildingBlock: KOZSID_clean_sbu_0, # of connection points: 4
#     Node 5, Type 0, BuildingBlock: KOZSID_clean_sbu_0, # of connection points: 4
#     Node 6, Type 1, BuildingBlock: NAHDIM_clean_linker_0, # of connection points: 4
#     Node 7, Type 1, BuildingBlock: NAHDIM_clean_linker_0, # of connection points: 4
#     Node 8, Type 1, BuildingBlock: NAHDIM_clean_linker_0, # of connection points: 4
#     Node 9, Type 1, BuildingBlock: NAHDIM_clean_linker_0, # of connection points: 4
#     Node 10, Type 1, BuildingBlock: NAHDIM_clean_linker_0, # of connection points: 4
#     Node 11, Type 1, BuildingBlock: NAHDIM_clean_linker_0, # of connection points: 4
#     Edge 12, Type (0, 1), BuildingBlock: MIFKUJ_clean_linker_0, # of connection points: 2
#     Edge 13, Type (0, 1), BuildingBlock: MIFKUJ_clean_linker_0, # of connection points: 2
#     Edge 14, Type (0, 1), BuildingBlock: MIFKUJ_clean_linker_0, # of connection points: 2
#     Edge 15, Type (0, 1), BuildingBlock: MIFKUJ_clean_linker_0, # of connection points: 2
#     Edge 16, Type (0, 1), BuildingBlock: MIFKUJ_clean_linker_0, # of connection points: 2
#     Edge 17, Type (0, 1), BuildingBlock: MIFKUJ_clean_linker_0, # of connection points: 2
#     Edge 18, Type (0, 1), BuildingBlock: MIFKUJ_clean_linker_0, # of connection points: 2
#     Edge 19, Type (0, 1), BuildingBlock: MIFKUJ_clean_linker_0, # of connection points: 2
#     Edge 20, Type (0, 1), BuildingBlock: MIFKUJ_clean_linker_0, # of connection points: 2
#     Edge 21, Type (0, 1), BuildingBlock: MIFKUJ_clean_linker_0, # of connection points: 2
#     Edge 22, Type (0, 1), BuildingBlock: MIFKUJ_clean_linker_0, # of connection points: 2
#     Edge 23, Type (0, 1), BuildingBlock: MIFKUJ_clean_linker_0, # of connection points: 2
#     Edge 24, Type (0, 1), BuildingBlock: MIFKUJ_clean_linker_0, # of connection points: 2
#     Edge 25, Type (0, 1), BuildingBlock: MIFKUJ_clean_linker_0, # of connection points: 2
#     Edge 26, Type (0, 1), BuildingBlock: MIFKUJ_clean_linker_0, # of connection points: 2
#     Edge 27, Type (0, 1), BuildingBlock: MIFKUJ_clean_linker_0, # of connection points: 2
#     Edge 28, Type (0, 1), BuildingBlock: MIFKUJ_clean_linker_0, # of connection points: 2
#     Edge 29, Type (0, 1), BuildingBlock: MIFKUJ_clean_linker_0, # of connection points: 2
#     Edge 30, Type (0, 1), BuildingBlock: MIFKUJ_clean_linker_0, # of connection points: 2
#     Edge 31, Type (0, 1), BuildingBlock: MIFKUJ_clean_linker_0, # of connection points: 2
#     Edge 32, Type (0, 1), BuildingBlock: MIFKUJ_clean_linker_0, # of connection points: 2
#     Edge 33, Type (0, 1), BuildingBlock: MIFKUJ_clean_linker_0, # of connection points: 2
#     Edge 34, Type (0, 1), BuildingBlock: MIFKUJ_clean_linker_0, # of connection points: 2
#     Edge 35, Type (0, 1), BuildingBlock: MIFKUJ_clean_linker_0, # of connection points: 2
# Relax obj value: 0.011
# Max RMSD: 0.050
# Mean RMSD: 0.032
data_MOF--net-ssa--node1-KOZSID_clean_sbu_0--node2-NAHDIM_clean_linker_0--edge1-MIFKUJ_clean_linker_0
_symmetry_space_group_name_H-M    P1
_symmetry_Int_Tables_number       1
_symmetry_cell_setting            triclinic
loop_
_symmetry_equiv_pos_as_xyz
'x, y, z'
_cell_length_a     79.15817
_cell_length_b     80.456555
_cell_length_c     69.361789
_cell_angle_alpha  88.115186
_cell_angle_beta   90.291127
_cell_angle_gamma 121.71432
loop_
_atom_site_label
_atom_site_type_symbol
_atom_site_fract_x
_atom_site_fract_y
_atom_site_fract_z
_atom_type_partial_charge
C0 C 0.98914 0.51921 0.99201 0.0
C1 C 0.97031 0.51447 0.99785 0.0
C2 C 0.96508 0.50182 0.01338 0.0
C3 C 0.98087 0.49948 0.01607 0.0
N4 N 0.99597 0.50994 0.00325 0.0
Co5 Co 0.02143 0.51023 0.00147 0.0
N6 N 0.01377 0.49178 0.02454 0.0
C7 C 0.99697 0.4841 0.0354 0.0
C8 C 0.99623 0.47263 0.05079 0.0
C9 C 0.01362 0.47303 0.04981 0.0
C10 C 0.02396 0.48466 0.03368 0.0
N11 N 0.04673 0.51025 0.99949 0.0
C12 C 0.05356 0.50097 0.01071 0.0
C13 C 0.07173 0.50457 0.004 0.0
C14 C 0.07668 0.51676 0.98811 0.0
C15 C 0.06129 0.51981 0.98597 0.0
N16 N 0.02927 0.52899 0.97865 0.0
C17 C 0.04637 0.53722 0.9682 0.0
C18 C 0.04771 0.54978 0.95363 0.0
C19 C 0.03042 0.54958 0.95478 0.0
C20 C 0.01945 0.53675 0.97 0.0
N21 N 0.03446 0.53267 0.01884 0.0
C22 C 0.05304 0.56409 0.0439 0.0
C23 C 0.06265 0.56413 0.02708 0.0
C24 C 0.05323 0.5483 0.01492 0.0
C25 C 0.03396 0.54819 0.04792 0.0
C26 C 0.02495 0.53285 0.03521 0.0
N27 N 0.00838 0.48776 0.98409 0.0
C28 C 0.00728 0.47301 0.95386 0.0
C29 C 0.98951 0.45601 0.9594 0.0
C30 C 0.98134 0.4551 0.97745 0.0
C31 C 0.99083 0.47106 0.98938 0.0
C32 C 0.0165 0.48851 0.96641 0.0
H33 H 0.9836 0.46951 0.00277 0.0
H34 H 0.03018 0.50093 0.96146 0.0
H35 H 0.06145 0.54901 0.0025 0.0
H36 H 0.01029 0.52133 0.03897 0.0
C37 C 0.98212 0.48791 0.03075 0.0
C38 C 0.99974 0.53235 0.97554 0.0
C39 C 0.04353 0.48877 0.02788 0.0
C40 C 0.06054 0.53226 0.97198 0.0
H41 H 0.96124 0.51957 0.9915 0.0
H42 H 0.95138 0.49512 0.02172 0.0
H43 H 0.9845 0.46501 0.06153 0.0
H44 H 0.0182 0.46569 0.05995 0.0
H45 H 0.08056 0.49906 0.01004 0.0
H46 H 0.09004 0.52288 0.97932 0.0
H47 H 0.05974 0.55796 0.94329 0.0
H48 H 0.0263 0.55786 0.94539 0.0
H49 H 0.07752 0.57617 0.02348 0.0
H50 H 0.02586 0.5477 0.06069 0.0
H51 H 0.01419 0.47423 0.94001 0.0
H52 H 0.96746 0.44224 0.98223 0.0
C53 C 0.53581 0.01232 0.54319 0.0
C54 C 0.53607 0.00199 0.55953 0.0
C55 C 0.51861 0.98437 0.55989 0.0
C56 C 0.50874 0.98493 0.54384 0.0
N57 N 0.51893 0.00173 0.53306 0.0
Co58 Co 0.50953 0.00898 0.50914 0.0
N59 N 0.48391 0.98295 0.50962 0.0
C60 C 0.47878 0.96764 0.52201 0.0
C61 C 0.46097 0.95118 0.51803 0.0
C62 C 0.45434 0.9562 0.50202 0.0
C63 C 0.46848 0.9756 0.49727 0.0
N64 N 0.49964 0.0167 0.48592 0.0
C65 C 0.48215 0.00667 0.47659 0.0
C66 C 0.4808 0.01801 0.46184 0.0
C67 C 0.49821 0.03568 0.4616 0.0
C68 C 0.50905 0.03423 0.47629 0.0
N69 N 0.53564 0.03454 0.50797 0.0
C70 C 0.54176 0.04896 0.49424 0.0
C71 C 0.56049 0.06467 0.49707 0.0
C72 C 0.56675 0.06002 0.5136 0.0
C73 C 0.55139 0.04165 0.51992 0.0
N74 N 0.52126 0.99784 0.49249 0.0
C75 C 0.53673 0.98125 0.4685 0.0
C76 C 0.5358 0.99735 0.46205 0.0
C77 C 0.52828 0.0055 0.47426 0.0
C78 C 0.52999 0.97368 0.48716 0.0
C79 C 0.52225 0.98203 0.49877 0.0
N80 N 0.4978 0.02008 0.52575 0.0
C81 C 0.49593 0.04762 0.53565 0.0
C82 C 0.48153 0.03597 0.54964 0.0
C83 C 0.47532 0.01624 0.55146 0.0
C84 C 0.48371 0.00868 0.53958 0.0
C85 C 0.50368 0.03942 0.52385 0.0
H86 H 0.47862 0.99359 0.54192 0.0
H87 H 0.51439 0.04904 0.51327 0.0
H88 H 0.52827 0.01796 0.46858 0.0
H89 H 0.51702 0.97529 0.5127 0.0
C90 C 0.49052 0.96949 0.53782 0.0
C91 C 0.55206 0.03203 0.53784 0.0
C92 C 0.46665 0.98632 0.48083 0.0
C93 C 0.5287 0.04834 0.48029 0.0
H94 H 0.54772 0.00666 0.57004 0.0
H95 H 0.51379 0.97249 0.57047 0.0
H96 H 0.45364 0.93722 0.52587 0.0
H97 H 0.44066 0.94659 0.49468 0.0
H98 H 0.46862 0.01388 0.45207 0.0
H99 H 0.50261 0.04798 0.45166 0.0
H100 H 0.56836 0.0782 0.48854 0.0
H101 H 0.58082 0.06935 0.52048 0.0
H102 H 0.54107 0.00378 0.44771 0.0
H103 H 0.53029 0.96109 0.49267 0.0
H104 H 0.50098 0.06297 0.53361 0.0
H105 H 0.46426 0.00672 0.56222 0.0
C106 C 0.5348 0.52643 0.97292 0.0
C107 C 0.53221 0.53138 0.95424 0.0
C108 C 0.51605 0.53327 0.9547 0.0
C109 C 0.50892 0.5281 0.97325 0.0
N110 N 0.51912 0.52232 0.98435 0.0
Co111 Co 0.51021 0.5074 0.00973 0.0
N112 N 0.48667 0.51042 0.01105 0.0
C113 C 0.48138 0.5195 0.99776 0.0
C114 C 0.46454 0.51931 0.00268 0.0
C115 C 0.45871 0.50955 0.02016 0.0
C116 C 0.47242 0.50435 0.02493 0.0
N117 N 0.50144 0.49249 0.03515 0.0
C118 C 0.4858 0.4881 0.04674 0.0
C119 C 0.48538 0.47787 0.06344 0.0
C120 C 0.50121 0.47554 0.06227 0.0
C121 C 0.51042 0.48452 0.04505 0.0
N122 N 0.53376 0.50446 0.0083 0.0
C123 C 0.5378 0.49342 0.02023 0.0
C124 C 0.55278 0.49128 0.01356 0.0
C125 C 0.55903 0.5021 0.99664 0.0
C126 C 0.54813 0.51104 0.99447 0.0
N127 N 0.52608 0.53202 0.02347 0.0
C128 C 0.54357 0.56494 0.04645 0.0
C129 C 0.54518 0.54886 0.05125 0.0
C130 C 0.53672 0.53279 0.0394 0.0
C131 C 0.53428 0.56489 0.02927 0.0
C132 C 0.52562 0.54832 0.01805 0.0
N133 N 0.49414 0.48246 0.99585 0.0
C134 C 0.48581 0.44945 0.98999 0.0
C135 C 0.4765 0.44931 0.97285 0.0
C136 C 0.47477 0.46531 0.96815 0.0
C137 C 0.48321 0.48138 0.97999 0.0
C138 C 0.49438 0.46601 0.00121 0.0
H139 H 0.4807 0.49268 0.97587 0.0
H140 H 0.50127 0.4651 0.014 0.0
H141 H 0.53855 0.52094 0.04358 0.0
H142 H 0.51819 0.54874 0.00531 0.0
C143 C 0.49196 0.5272 0.98038 0.0
C144 C 0.55244 0.52655 0.97994 0.0
C145 C 0.47089 0.4931 0.04249 0.0
C146 C 0.52707 0.4851 0.03744 0.0
H147 H 0.54075 0.53304 0.94143 0.0
H148 H 0.50985 0.53724 0.94277 0.0
H149 H 0.45718 0.52527 0.99439 0.0
H150 H 0.44567 0.50639 0.02833 0.0
H151 H 0.47466 0.47254 0.0752 0.0
H152 H 0.5054 0.46804 0.07264 0.0
H153 H 0.55845 0.48283 0.02016 0.0
H154 H 0.57073 0.5037 0.98727 0.0
H155 H 0.55273 0.5486 0.06423 0.0
H156 H 0.53295 0.57722 0.02495 0.0
H157 H 0.4871 0.43713 0.99441 0.0
H158 H 0.46695 0.46545 0.95533 0.0
C159 C 0.968 0.46102 0.52031 0.0
C160 C 0.94849 0.44706 0.51602 0.0
C161 C 0.94306 0.45486 0.50129 0.0
C162 C 0.95944 0.47307 0.49752 0.0
N163 N 0.9751 0.47736 0.50883 0.0
Co164 Co 0.00142 0.50267 0.50896 0.0
N165 N 0.99357 0.51395 0.48695 0.0
C166 C 0.97617 0.50495 0.47742 0.0
C167 C 0.97514 0.51622 0.46278 0.0
C168 C 0.99307 0.53336 0.46273 0.0
C169 C 0.00408 0.53151 0.47737 0.0
N170 N 0.02746 0.52824 0.50959 0.0
C171 C 0.03468 0.54458 0.49806 0.0
C172 C 0.05373 0.55894 0.50334 0.0
C173 C 0.0586 0.55151 0.51882 0.0
C174 C 0.04244 0.53308 0.52207 0.0
N175 N 0.00963 0.49111 0.53039 0.0
C176 C 0.0274 0.49972 0.53925 0.0
C177 C 0.02886 0.48802 0.5531 0.0
C178 C 0.01092 0.47089 0.55316 0.0
C179 C 0.9995 0.47321 0.53934 0.0
N180 N 0.01249 0.49278 0.49001 0.0
C181 C 0.02828 0.47863 0.46328 0.0
C182 C 0.03978 0.4903 0.47829 0.0
C183 C 0.03167 0.49712 0.49138 0.0
C184 C 0.00873 0.47417 0.46186 0.0
C185 C 0.00122 0.4814 0.47522 0.0
N186 N 0.9903 0.51254 0.52799 0.0
C187 C 0.99111 0.52523 0.55937 0.0
C188 C 0.97415 0.52593 0.55535 0.0
C189 C 0.9655 0.51982 0.53729 0.0
C190 C 0.97362 0.5131 0.52406 0.0
C191 C 0.99896 0.51877 0.54557 0.0
H192 H 0.96608 0.50845 0.51075 0.0
H193 H 0.01201 0.51888 0.54957 0.0
H194 H 0.0412 0.50584 0.50252 0.0
H195 H 0.98626 0.47764 0.47326 0.0
C196 C 0.96079 0.48621 0.48308 0.0
C197 C 0.97896 0.45821 0.53568 0.0
C198 C 0.02445 0.54682 0.48152 0.0
C199 C 0.04183 0.51928 0.53522 0.0
H200 H 0.93912 0.43275 0.52288 0.0
H201 H 0.92886 0.44806 0.49417 0.0
H202 H 0.96279 0.51245 0.45335 0.0
H203 H 0.99751 0.54583 0.45302 0.0
H204 H 0.0634 0.57315 0.49646 0.0
H205 H 0.07259 0.55843 0.52633 0.0
H206 H 0.04132 0.49167 0.56234 0.0
H207 H 0.00662 0.4582 0.56251 0.0
H208 H 0.05493 0.49394 0.48017 0.0
H209 H 0.9993 0.46533 0.45034 0.0
H210 H 0.99829 0.52945 0.5732 0.0
H211 H 0.95259 0.52038 0.53317 0.0
C212 C 0.48244 0.00786 0.04796 0.0
C213 C 0.48287 0.01881 0.06322 0.0
C214 C 0.50054 0.03622 0.0618 0.0
C215 C 0.50986 0.03491 0.04584 0.0
N216 N 0.4992 0.01772 0.03694 0.0
Co217 Co 0.50702 0.0098 0.01308 0.0
N218 N 0.53393 0.03453 0.01228 0.0
C219 C 0.54117 0.04909 0.02497 0.0
C220 C 0.56028 0.06396 0.02096 0.0
C221 C 0.56566 0.05856 0.00479 0.0
C222 C 0.54941 0.04064 0.99985 0.0
N223 N 0.51455 0.00217 0.98884 0.0
C224 C 0.53158 0.01174 0.97819 0.0
C225 C 0.53048 0.00151 0.96201 0.0
C226 C 0.51207 0.98493 0.9624 0.0
C227 C 0.50301 0.98596 0.97871 0.0
N228 N 0.48047 0.98466 0.0144 0.0
C229 C 0.47341 0.96987 0.00199 0.0
C230 C 0.45502 0.95419 0.00701 0.0
C231 C 0.45009 0.95913 0.02377 0.0
C232 C 0.46584 0.97763 0.02797 0.0
N233 N 0.49586 0.0227 0.99708 0.0
C234 C 0.48078 0.04114 0.97377 0.0
C235 C 0.47317 0.02118 0.97266 0.0
C236 C 0.48102 0.01236 0.98419 0.0
C237 C 0.49587 0.05176 0.98677 0.0
C238 C 0.50294 0.04228 0.9984 0.0
N239 N 0.51815 0.99699 0.02898 0.0
C240 C 0.52252 0.9698 0.03552 0.0
C241 C 0.53359 0.97866 0.05186 0.0
C242 C 0.5369 0.99687 0.05653 0.0
C243 C 0.52898 0.00565 0.04506 0.0
C244 C 0.51512 0.97922 0.02427 0.0
H245 H 0.53172 0.01938 0.04954 0.0
H246 H 0.50698 0.97186 0.01184 0.0
H247 H 0.47487 0.9972 0.98223 0.0
H248 H 0.51416 0.05119 0.00828 0.0
C249 C 0.52927 0.04878 0.03994 0.0
C250 C 0.46611 0.98794 0.04495 0.0
C251 C 0.54922 0.03031 0.98293 0.0
C252 C 0.48423 0.97138 0.98551 0.0
H253 H 0.47173 0.01454 0.07444 0.0
H254 H 0.50617 0.04817 0.07157 0.0
H255 H 0.56916 0.07725 0.02874 0.0
H256 H 0.57985 0.06696 0.99734 0.0
H257 H 0.54188 0.00554 0.95113 0.0
H258 H 0.50611 0.97335 0.95218 0.0
H259 H 0.44626 0.94077 0.9994 0.0
H260 H 0.43645 0.95014 0.03197 0.0
H261 H 0.4615 0.01248 0.96261 0.0
H262 H 0.50203 0.0673 0.98811 0.0
H263 H 0.51977 0.95574 0.03129 0.0
H264 H 0.54524 0.00416 0.06921 0.0
C265 C 0.51452 0.54282 0.49957 0.0
C266 C 0.5109 0.55722 0.50469 0.0
C267 C 0.5023 0.55196 0.52271 0.0
C268 C 0.50112 0.5347 0.52753 0.0
N269 N 0.50828 0.52866 0.51363 0.0
Co270 Co 0.5095 0.50459 0.51477 0.0
N271 N 0.49007 0.49313 0.53663 0.0
C272 C 0.48431 0.50281 0.54767 0.0
C273 C 0.4696 0.49084 0.56073 0.0
C274 C 0.46611 0.47254 0.558 0.0
C275 C 0.47924 0.47442 0.54362 0.0
N276 N 0.51084 0.48056 0.51593 0.0
C277 C 0.49912 0.46318 0.52553 0.0
C278 C 0.50651 0.451 0.52347 0.0
C279 C 0.52333 0.46109 0.51227 0.0
C280 C 0.52542 0.47886 0.50819 0.0
N281 N 0.52901 0.51609 0.493 0.0
C282 C 0.54155 0.51048 0.48768 0.0
C283 C 0.55353 0.52129 0.47226 0.0
C284 C 0.54833 0.53468 0.46767 0.0
C285 C 0.53342 0.53126 0.48064 0.0
N286 N 0.53127 0.51676 0.53302 0.0
C287 C 0.56326 0.53351 0.55802 0.0
C288 C 0.56259 0.5444 0.5423 0.0
C289 C 0.54648 0.53573 0.52991 0.0
C290 C 0.54759 0.51428 0.56131 0.0
C291 C 0.53163 0.50622 0.54873 0.0
N292 N 0.48779 0.49249 0.49648 0.0
C293 C 0.47414 0.47546 0.46713 0.0
C294 C 0.45706 0.47622 0.46985 0.0
C295 C 0.45562 0.48518 0.48617 0.0
C296 C 0.47118 0.49334 0.4992 0.0
C297 C 0.48926 0.4835 0.48073 0.0
H298 H 0.4698 0.5005 0.51138 0.0
H299 H 0.50219 0.48258 0.47843 0.0
H300 H 0.54648 0.54433 0.51768 0.0
H301 H 0.51973 0.49137 0.55162 0.0
C302 C 0.49049 0.52228 0.54323 0.0
C303 C 0.52535 0.54391 0.48202 0.0
C304 C 0.48252 0.45867 0.53858 0.0
C305 C 0.53961 0.49339 0.49563 0.0
H306 H 0.51425 0.57025 0.49636 0.0
H307 H 0.4969 0.55946 0.53097 0.0
H308 H 0.4618 0.49479 0.57056 0.0
H309 H 0.45529 0.45937 0.56593 0.0
H310 H 0.5008 0.43654 0.52985 0.0
H311 H 0.53282 0.45601 0.50756 0.0
H312 H 0.56435 0.51933 0.46489 0.0
H313 H 0.55497 0.54588 0.45629 0.0
H314 H 0.57458 0.55937 0.53945 0.0
H315 H 0.54772 0.50555 0.57348 0.0
H316 H 0.47572 0.46856 0.45469 0.0
H317 H 0.44274 0.48626 0.48865 0.0
C318 C 0.13766 0.39942 0.37375 0.0
C319 C 0.13734 0.4141 0.35935 0.0
C320 C 0.14557 0.40828 0.32776 0.0
C321 C 0.16131 0.42688 0.32183 0.0
C322 C 0.17604 0.42898 0.30902 0.0
C323 C 0.17495 0.4121 0.30207 0.0
C324 C 0.15854 0.39335 0.30734 0.0
C325 C 0.14388 0.3917 0.31996 0.0
C326 C 0.19303 0.44921 0.30331 0.0
C327 C 0.1569 0.37505 0.3002 0.0
C328 C 0.27714 0.43319 0.37071 0.0
C329 C 0.28515 0.42329 0.35833 0.0
C330 C 0.27264 0.42682 0.32728 0.0
C331 C 0.25584 0.40803 0.32546 0.0
C332 C 0.24027 0.40492 0.31333 0.0
C333 C 0.24144 0.421 0.30305 0.0
C334 C 0.25851 0.43994 0.30471 0.0
C335 C 0.2741 0.4425 0.31652 0.0
C336 C 0.22249 0.38448 0.3116 0.0
C337 C 0.26014 0.45754 0.29436 0.0
C338 C 0.27642 0.42466 0.17964 0.0
C339 C 0.26056 0.4058 0.18501 0.0
C340 C 0.24358 0.40314 0.19438 0.0
C341 C 0.24241 0.41962 0.19847 0.0
C342 C 0.2581 0.43855 0.19266 0.0
C343 C 0.27486 0.44078 0.18326 0.0
C344 C 0.22699 0.38275 0.20024 0.0
C345 C 0.2573 0.45644 0.19671 0.0
C346 C 0.09873 0.40491 0.18853 0.0
C347 C 0.1175 0.4174 0.17612 0.0
C348 C 0.1426 0.40862 0.1793 0.0
C349 C 0.14323 0.39192 0.1838 0.0
C350 C 0.15977 0.3933 0.19291 0.0
C351 C 0.17613 0.41191 0.19735 0.0
C352 C 0.17608 0.42895 0.19172 0.0
C353 C 0.15935 0.42714 0.18263 0.0
C354 C 0.15953 0.37487 0.19838 0.0
C355 C 0.19353 0.44904 0.19577 0.0
C356 C 0.19175 0.41404 0.29063 0.0
C357 C 0.20809 0.4163 0.30077 0.0
C358 C 0.22449 0.41813 0.29119 0.0
C359 C 0.22464 0.41753 0.27084 0.0
C360 C 0.2407 0.41887 0.26075 0.0
C361 C 0.24093 0.41876 0.2407 0.0
C362 C 0.22501 0.41709 0.22997 0.0
C363 C 0.2252 0.41718 0.20956 0.0
C364 C 0.20907 0.41534 0.19934 0.0
C365 C 0.19267 0.41352 0.20898 0.0
C366 C 0.19225 0.41353 0.22937 0.0
C367 C 0.17604 0.41188 0.23951 0.0
C368 C 0.17583 0.41205 0.25956 0.0
C369 C 0.19179 0.41382 0.27026 0.0
C370 C 0.20829 0.41553 0.26034 0.0
C371 C 0.20849 0.41533 0.23988 0.0
C372 C 0.30549 0.40962 0.18755 0.0
C373 C 0.29935 0.41483 0.16837 0.0
O374 O 0.13215 0.40603 0.34131 0.0
O375 O 0.12568 0.40637 0.17177 0.0
O376 O 0.29349 0.42809 0.17117 0.0
O377 O 0.28762 0.43033 0.33937 0.0
H378 H 0.15263 0.42729 0.35894 0.0
H379 H 0.14924 0.39641 0.36932 0.0
H380 H 0.12311 0.38538 0.37432 0.0
H381 H 0.14124 0.40548 0.38841 0.0
H382 H 0.16218 0.43973 0.32739 0.0
H383 H 0.13149 0.37742 0.32448 0.0
H384 H 0.20694 0.45157 0.30982 0.0
H385 H 0.19056 0.4608 0.30816 0.0
H386 H 0.19518 0.45067 0.2874 0.0
H387 H 0.14332 0.36155 0.30579 0.0
H388 H 0.17011 0.37453 0.3047 0.0
H389 H 0.15665 0.37526 0.28419 0.0
H390 H 0.27443 0.40723 0.35908 0.0
H391 H 0.27509 0.42772 0.38596 0.0
H392 H 0.26247 0.42987 0.36535 0.0
H393 H 0.28755 0.4493 0.37014 0.0
H394 H 0.25493 0.39572 0.33331 0.0
H395 H 0.28722 0.45692 0.31797 0.0
H396 H 0.20939 0.38345 0.31862 0.0
H397 H 0.22494 0.37328 0.31852 0.0
H398 H 0.21893 0.38108 0.29618 0.0
H399 H 0.27328 0.47147 0.29896 0.0
H400 H 0.24657 0.45798 0.29705 0.0
H401 H 0.2614 0.45647 0.27859 0.0
H402 H 0.28689 0.40134 0.16216 0.0
H403 H 0.26134 0.39309 0.18215 0.0
H404 H 0.28707 0.45525 0.17896 0.0
H405 H 0.22538 0.38136 0.2162 0.0
H406 H 0.22967 0.37135 0.19519 0.0
H407 H 0.21273 0.38001 0.19428 0.0
H408 H 0.27066 0.47013 0.19111 0.0
H409 H 0.25603 0.45745 0.21251 0.0
H410 H 0.24392 0.45516 0.19001 0.0
H411 H 0.12771 0.43005 0.18497 0.0
H412 H 0.09161 0.41332 0.19168 0.0
H413 H 0.1027 0.40067 0.20245 0.0
H414 H 0.08789 0.39134 0.18119 0.0
H415 H 0.1304 0.37772 0.18077 0.0
H416 H 0.15937 0.44018 0.1782 0.0
H417 H 0.15984 0.37339 0.21433 0.0
H418 H 0.17301 0.37576 0.19249 0.0
H419 H 0.14618 0.36158 0.19299 0.0
H420 H 0.19154 0.46087 0.18979 0.0
H421 H 0.20731 0.45087 0.18948 0.0
H422 H 0.19558 0.45064 0.21159 0.0
H423 H 0.20807 0.41672 0.3164 0.0
H424 H 0.25333 0.42013 0.26824 0.0
H425 H 0.25377 0.42002 0.23373 0.0
H426 H 0.20933 0.41547 0.1837 0.0
H427 H 0.16333 0.41048 0.23206 0.0
H428 H 0.16301 0.4108 0.26659 0.0
H429 H 0.31056 0.39931 0.1852 0.0
H430 H 0.29278 0.40246 0.1979 0.0
H431 H 0.31772 0.42298 0.19414 0.0
C432 C 0.8502 0.27015 0.87052 0.0
C433 C 0.86848 0.28013 0.85702 0.0
C434 C 0.8511 0.26654 0.82701 0.0
C435 C 0.85326 0.25037 0.82584 0.0
C436 C 0.84038 0.23447 0.8146 0.0
C437 C 0.82483 0.23463 0.80457 0.0
C438 C 0.82283 0.25107 0.80552 0.0
C439 C 0.8363 0.26701 0.81642 0.0
C440 C 0.84322 0.21737 0.81363 0.0
C441 C 0.80619 0.25163 0.79542 0.0
C442 C 0.70932 0.09171 0.83397 0.0
C443 C 0.71384 0.10729 0.84868 0.0
C444 C 0.73227 0.13837 0.82957 0.0
C445 C 0.73078 0.15357 0.82124 0.0
C446 C 0.74652 0.16883 0.81042 0.0
C447 C 0.76421 0.16882 0.80785 0.0
C448 C 0.76601 0.15364 0.81646 0.0
C449 C 0.75001 0.13854 0.82726 0.0
C450 C 0.74415 0.18487 0.80155 0.0
C451 C 0.78475 0.1533 0.81399 0.0
C452 C 0.7361 0.1304 0.6857 0.0
C453 C 0.73266 0.14494 0.69149 0.0
C454 C 0.74758 0.16161 0.70055 0.0
C455 C 0.76626 0.16371 0.70393 0.0
C456 C 0.76994 0.14938 0.69751 0.0
C457 C 0.75484 0.133 0.68825 0.0
C458 C 0.74334 0.17692 0.70664 0.0
C459 C 0.78972 0.15124 0.70071 0.0
C460 C 0.88177 0.30547 0.69215 0.0
C461 C 0.88271 0.29628 0.67342 0.0
C462 C 0.85125 0.26517 0.6782 0.0
C463 C 0.83133 0.25936 0.67995 0.0
C464 C 0.81796 0.24266 0.69104 0.0
C465 C 0.82463 0.23106 0.69993 0.0
C466 C 0.84458 0.23627 0.69724 0.0
C467 C 0.85781 0.2535 0.68665 0.0
C468 C 0.79681 0.23761 0.69347 0.0
C469 C 0.85198 0.22375 0.70568 0.0
C470 C 0.81015 0.21719 0.79393 0.0
C471 C 0.79507 0.20132 0.80467 0.0
C472 C 0.7806 0.18447 0.79572 0.0
C473 C 0.7812 0.18317 0.77549 0.0
C474 C 0.76704 0.16627 0.7661 0.0
C475 C 0.7674 0.16533 0.74613 0.0
C476 C 0.7818 0.18132 0.73476 0.0
C477 C 0.78182 0.18077 0.7144 0.0
C478 C 0.79634 0.19693 0.70354 0.0
C479 C 0.8108 0.21387 0.71243 0.0
C480 C 0.81105 0.21469 0.7328 0.0
C481 C 0.82534 0.2315 0.74226 0.0
C482 C 0.82539 0.23218 0.76228 0.0
C483 C 0.81075 0.21635 0.77361 0.0
C484 C 0.7962 0.19926 0.76438 0.0
C485 C 0.79645 0.19837 0.74397 0.0
C486 C 0.69698 0.08326 0.69112 0.0
C487 C 0.70188 0.10312 0.68264 0.0
O488 O 0.8628 0.28176 0.83842 0.0
O489 O 0.86366 0.28207 0.66817 0.0
O490 O 0.72182 0.11392 0.67731 0.0
O491 O 0.71615 0.12392 0.83946 0.0
H492 H 0.87551 0.27128 0.85714 0.0
H493 H 0.83937 0.2552 0.86571 0.0
H494 H 0.84282 0.2787 0.87055 0.0
H495 H 0.8545 0.26879 0.88549 0.0
H496 H 0.86505 0.25013 0.83354 0.0
H497 H 0.83485 0.27963 0.81734 0.0
H498 H 0.83082 0.20451 0.8215 0.0
H499 H 0.85743 0.22055 0.82014 0.0
H500 H 0.84293 0.21337 0.79841 0.0
H501 H 0.80537 0.26446 0.7994 0.0
H502 H 0.79173 0.23809 0.79903 0.0
H503 H 0.80846 0.25234 0.77958 0.0
H504 H 0.72763 0.11102 0.85652 0.0
H505 H 0.69566 0.08791 0.82587 0.0
H506 H 0.70719 0.07828 0.84142 0.0
H507 H 0.7218 0.09711 0.82347 0.0
H508 H 0.71707 0.15335 0.82315 0.0
H509 H 0.75148 0.12693 0.83365 0.0
H510 H 0.74525 0.18491 0.7856 0.0
H511 H 0.75633 0.19931 0.80632 0.0
H512 H 0.7297 0.18312 0.80548 0.0
H513 H 0.7839 0.14054 0.82168 0.0
H514 H 0.79759 0.16692 0.81951 0.0
H515 H 0.7876 0.15283 0.79842 0.0
H516 H 0.69858 0.11038 0.69414 0.0
H517 H 0.71842 0.14338 0.68875 0.0
H518 H 0.75743 0.12184 0.68341 0.0
H519 H 0.74332 0.1773 0.72262 0.0
H520 H 0.72877 0.17402 0.7014 0.0
H521 H 0.7552 0.1916 0.70106 0.0
H522 H 0.78996 0.13843 0.69556 0.0
H523 H 0.79323 0.15279 0.71632 0.0
H524 H 0.80159 0.16463 0.693 0.0
H525 H 0.89189 0.28967 0.67575 0.0
H526 H 0.89687 0.31674 0.69683 0.0
H527 H 0.87487 0.29413 0.70396 0.0
H528 H 0.87277 0.31231 0.69005 0.0
H529 H 0.82643 0.2684 0.67312 0.0
H530 H 0.87311 0.25763 0.68478 0.0
H531 H 0.79238 0.23485 0.70896 0.0
H532 H 0.78673 0.22401 0.68581 0.0
H533 H 0.79468 0.24938 0.6876 0.0
H534 H 0.86668 0.22789 0.69954 0.0
H535 H 0.84121 0.20808 0.70304 0.0
H536 H 0.85345 0.22543 0.72152 0.0
H537 H 0.79442 0.2022 0.8202 0.0
H538 H 0.75548 0.15358 0.77408 0.0
H539 H 0.75611 0.15195 0.73971 0.0
H540 H 0.7961 0.1965 0.68791 0.0
H541 H 0.83671 0.24434 0.73431 0.0
H542 H 0.83688 0.24543 0.76875 0.0
H543 H 0.6811 0.07434 0.69568 0.0
H544 H 0.70626 0.08538 0.70396 0.0
H545 H 0.69998 0.07516 0.68035 0.0
C546 C 0.63032 0.71641 0.3448 0.0
C547 C 0.61654 0.71798 0.35908 0.0
C548 C 0.60323 0.73484 0.33979 0.0
C549 C 0.58614 0.73221 0.33098 0.0
C550 C 0.58635 0.74752 0.3205 0.0
C551 C 0.60428 0.76589 0.31859 0.0
C552 C 0.62164 0.76879 0.32766 0.0
C553 C 0.62093 0.75326 0.33829 0.0
C554 C 0.56746 0.74399 0.31133 0.0
C555 C 0.64097 0.78824 0.32593 0.0
C556 C 0.59473 0.85295 0.38416 0.0
C557 C 0.59998 0.86922 0.36883 0.0
C558 C 0.59403 0.84979 0.34022 0.0
C559 C 0.61282 0.85206 0.33857 0.0
C560 C 0.61572 0.83973 0.32701 0.0
C561 C 0.59942 0.8246 0.3172 0.0
C562 C 0.5805 0.82239 0.31873 0.0
C563 C 0.57819 0.83531 0.32992 0.0
C564 C 0.63617 0.84276 0.32547 0.0
C565 C 0.56264 0.80614 0.30891 0.0
C566 C 0.59968 0.85637 0.19215 0.0
C567 C 0.61853 0.86125 0.19875 0.0
C568 C 0.62114 0.84732 0.20876 0.0
C569 C 0.60454 0.82827 0.21248 0.0
C570 C 0.58567 0.82321 0.20547 0.0
C571 C 0.58356 0.83732 0.19524 0.0
C572 C 0.64155 0.85302 0.21566 0.0
C573 C 0.56766 0.80302 0.20913 0.0
C574 C 0.62329 0.70661 0.20178 0.0
C575 C 0.60795 0.70927 0.19093 0.0
C576 C 0.61445 0.74219 0.19443 0.0
C577 C 0.63127 0.76069 0.19697 0.0
C578 C 0.63006 0.77494 0.20696 0.0
C579 C 0.61144 0.77064 0.21415 0.0
C580 C 0.5942 0.7522 0.21086 0.0
C581 C 0.5959 0.73815 0.20105 0.0
C582 C 0.64871 0.79448 0.21006 0.0
C583 C 0.57399 0.74736 0.21776 0.0
C584 C 0.60487 0.78192 0.30681 0.0
C585 C 0.60255 0.79567 0.31629 0.0
C586 C 0.60204 0.81064 0.30601 0.0
C587 C 0.60372 0.81188 0.28564 0.0
C588 C 0.6031 0.82662 0.2748 0.0
C589 C 0.60402 0.82727 0.25474 0.0
C590 C 0.60602 0.81345 0.24474 0.0
C591 C 0.6067 0.81382 0.22434 0.0
C592 C 0.60868 0.79986 0.21486 0.0
C593 C 0.60998 0.78537 0.2252 0.0
C594 C 0.60936 0.78477 0.24561 0.0
C595 C 0.61075 0.77048 0.25648 0.0
C596 C 0.60948 0.76963 0.27653 0.0
C597 C 0.60682 0.78306 0.28649 0.0
C598 C 0.60599 0.79795 0.27586 0.0
C599 C 0.60722 0.79878 0.25539 0.0
C600 C 0.60933 0.89812 0.20166 0.0
C601 C 0.60847 0.88966 0.18192 0.0
O602 O 0.60184 0.71912 0.34931 0.0
O603 O 0.61653 0.72877 0.18514 0.0
O604 O 0.59625 0.86946 0.18291 0.0
O605 O 0.59051 0.86107 0.35171 0.0
H606 H 0.62533 0.73118 0.36779 0.0
H607 H 0.63795 0.72958 0.33504 0.0
H608 H 0.62175 0.70339 0.33582 0.0
H609 H 0.64187 0.71516 0.35271 0.0
H610 H 0.57254 0.71799 0.3323 0.0
H611 H 0.63427 0.75563 0.34518 0.0
H612 H 0.56455 0.7555 0.3154 0.0
H613 H 0.5544 0.72946 0.31565 0.0
H614 H 0.56914 0.74481 0.29539 0.0
H615 H 0.65342 0.78786 0.33293 0.0
H616 H 0.63926 0.79957 0.33275 0.0
H617 H 0.64485 0.7927 0.31048 0.0
H618 H 0.61633 0.87795 0.36643 0.0
H619 H 0.57841 0.84408 0.38678 0.0
H620 H 0.5997 0.84316 0.37932 0.0
H621 H 0.60224 0.85921 0.39796 0.0
H622 H 0.62534 0.86346 0.34612 0.0
H623 H 0.56377 0.83373 0.33122 0.0
H624 H 0.63627 0.83056 0.33329 0.0
H625 H 0.64775 0.85673 0.3317 0.0
H626 H 0.6401 0.84268 0.31013 0.0
H627 H 0.54861 0.80501 0.31341 0.0
H628 H 0.56137 0.79192 0.31219 0.0
H629 H 0.56442 0.80882 0.29304 0.0
H630 H 0.62368 0.89387 0.17723 0.0
H631 H 0.63125 0.87585 0.19625 0.0
H632 H 0.56913 0.83366 0.18996 0.0
H633 H 0.64175 0.8531 0.23166 0.0
H634 H 0.65324 0.86772 0.20995 0.0
H635 H 0.6452 0.84212 0.2112 0.0
H636 H 0.55387 0.80167 0.20341 0.0
H637 H 0.56563 0.79941 0.22487 0.0
H638 H 0.56992 0.79207 0.20222 0.0
H639 H 0.59526 0.70461 0.20106 0.0
H640 H 0.61671 0.69107 0.20657 0.0
H641 H 0.62819 0.71568 0.21474 0.0
H642 H 0.63651 0.71118 0.19245 0.0
H643 H 0.64547 0.76377 0.19149 0.0
H644 H 0.58269 0.72413 0.19832 0.0
H645 H 0.65059 0.79744 0.2257 0.0
H646 H 0.64739 0.80623 0.20275 0.0
H647 H 0.66219 0.7952 0.20439 0.0
H648 H 0.56187 0.73304 0.21265 0.0
H649 H 0.57121 0.75893 0.21265 0.0
H650 H 0.57353 0.74688 0.23377 0.0
H651 H 0.60093 0.79459 0.33188 0.0
H652 H 0.60166 0.8377 0.2817 0.0
H653 H 0.60312 0.83877 0.24719 0.0
H654 H 0.60899 0.80014 0.1992 0.0
H655 H 0.6127 0.7597 0.24961 0.0
H656 H 0.61052 0.75823 0.28412 0.0
H657 H 0.61887 0.91433 0.20081 0.0
H658 H 0.61572 0.89265 0.21257 0.0
H659 H 0.59419 0.89385 0.2066 0.0
C660 C 0.72318 0.55827 0.88231 0.0
C661 C 0.73016 0.58005 0.88257 0.0
C662 C 0.74883 0.59173 0.85255 0.0
C663 C 0.7657 0.61055 0.85124 0.0
C664 C 0.78193 0.6147 0.83942 0.0
C665 C 0.78125 0.59954 0.82893 0.0
C666 C 0.76406 0.58047 0.83021 0.0
C667 C 0.74784 0.57696 0.84161 0.0
C668 C 0.79982 0.63524 0.83823 0.0
C669 C 0.76281 0.56371 0.81972 0.0
C670 C 0.92543 0.63178 0.84638 0.0
C671 C 0.91044 0.61863 0.86224 0.0
C672 C 0.87815 0.60532 0.84614 0.0
C673 C 0.8623 0.58841 0.83856 0.0
C674 C 0.84662 0.58864 0.82938 0.0
C675 C 0.84696 0.60637 0.82757 0.0
C676 C 0.8627 0.6235 0.8356 0.0
C677 C 0.87813 0.6228 0.84492 0.0
C678 C 0.82986 0.56999 0.8213 0.0
C679 C 0.86339 0.64259 0.83397 0.0
C680 C 0.87537 0.61045 0.698 0.0
C681 C 0.86211 0.59344 0.70864 0.0
C682 C 0.84792 0.59306 0.72104 0.0
C683 C 0.84737 0.61026 0.72303 0.0
C684 C 0.86109 0.62758 0.71249 0.0
C685 C 0.87477 0.62736 0.69985 0.0
C686 C 0.83316 0.57413 0.73153 0.0
C687 C 0.86105 0.64619 0.71426 0.0
C688 C 0.70759 0.58939 0.71752 0.0
C689 C 0.71826 0.59778 0.69797 0.0
C690 C 0.7473 0.59509 0.70395 0.0
C691 C 0.75135 0.5803 0.70685 0.0
C692 C 0.76802 0.58357 0.71719 0.0
C693 C 0.78135 0.6024 0.72415 0.0
C694 C 0.77783 0.61773 0.72045 0.0
C695 C 0.76064 0.61384 0.71062 0.0
C696 C 0.77124 0.56683 0.72082 0.0
C697 C 0.7922 0.63819 0.72689 0.0
C698 C 0.79869 0.60344 0.8171 0.0
C699 C 0.81478 0.60452 0.82673 0.0
C700 C 0.83122 0.60706 0.81656 0.0
C701 C 0.83187 0.60878 0.79619 0.0
C702 C 0.84831 0.61156 0.78554 0.0
C703 C 0.84839 0.61224 0.76547 0.0
C704 C 0.83199 0.61006 0.75528 0.0
C705 C 0.83148 0.60971 0.7349 0.0
C706 C 0.81504 0.6078 0.72525 0.0
C707 C 0.79886 0.60589 0.73536 0.0
C708 C 0.799 0.60601 0.75575 0.0
C709 C 0.78285 0.60389 0.7664 0.0
C710 C 0.78296 0.60362 0.78647 0.0
C711 C 0.79895 0.60488 0.79669 0.0
C712 C 0.81554 0.60738 0.78622 0.0
C713 C 0.81559 0.60799 0.76573 0.0
C714 C 0.922 0.63433 0.68804 0.0
C715 C 0.90596 0.61248 0.68949 0.0
O716 O 0.73326 0.58801 0.86391 0.0
O717 O 0.73053 0.59071 0.6944 0.0
O718 O 0.88783 0.61022 0.6849 0.0
O719 O 0.8931 0.60399 0.85419 0.0
H720 H 0.74436 0.58792 0.89057 0.0
H721 H 0.73526 0.55647 0.87688 0.0
H722 H 0.71 0.55033 0.87298 0.0
H723 H 0.71922 0.55147 0.89709 0.0
H724 H 0.76611 0.62194 0.85953 0.0
H725 H 0.73443 0.56258 0.84223 0.0
H726 H 0.8125 0.63556 0.84552 0.0
H727 H 0.79701 0.64582 0.8452 0.0
H728 H 0.80424 0.64004 0.82292 0.0
H729 H 0.75018 0.54934 0.82507 0.0
H730 H 0.77676 0.56369 0.82135 0.0
H731 H 0.76072 0.56537 0.8041 0.0
H732 H 0.90707 0.62761 0.87148 0.0
H733 H 0.9395 0.64317 0.85291 0.0
H734 H 0.91953 0.63928 0.8375 0.0
H735 H 0.92869 0.62304 0.8367 0.0
H736 H 0.86238 0.57497 0.8397 0.0
H737 H 0.89014 0.63599 0.85093 0.0
H738 H 0.83023 0.57141 0.80531 0.0
H739 H 0.81534 0.56737 0.82636 0.0
H740 H 0.83083 0.55708 0.82553 0.0
H741 H 0.8768 0.65471 0.84073 0.0
H742 H 0.84999 0.64089 0.84102 0.0
H743 H 0.86323 0.64662 0.81853 0.0
H744 H 0.90547 0.60693 0.70455 0.0
H745 H 0.86257 0.58036 0.70678 0.0
H746 H 0.88495 0.64035 0.69128 0.0
H747 H 0.83571 0.57569 0.74729 0.0
H748 H 0.83437 0.56168 0.72697 0.0
H749 H 0.81779 0.57063 0.72892 0.0
H750 H 0.87434 0.65898 0.70729 0.0
H751 H 0.86049 0.64917 0.7297 0.0
H752 H 0.84759 0.64449 0.70731 0.0
H753 H 0.72708 0.614 0.69824 0.0
H754 H 0.69789 0.59507 0.72091 0.0
H755 H 0.71862 0.5937 0.72921 0.0
H756 H 0.69841 0.57316 0.71741 0.0
H757 H 0.74104 0.56595 0.70142 0.0
H758 H 0.75794 0.62556 0.70791 0.0
H759 H 0.77402 0.5656 0.73636 0.0
H760 H 0.78455 0.56969 0.71258 0.0
H761 H 0.75834 0.55265 0.7164 0.0
H762 H 0.78876 0.64895 0.72065 0.0
H763 H 0.80763 0.6428 0.72267 0.0
H764 H 0.7916 0.63847 0.74285 0.0
H765 H 0.8143 0.60287 0.84235 0.0
H766 H 0.86126 0.6131 0.79261 0.0
H767 H 0.86137 0.61427 0.75803 0.0
H768 H 0.81462 0.60732 0.70963 0.0
H769 H 0.7699 0.60237 0.75936 0.0
H770 H 0.77018 0.60207 0.79388 0.0
H771 H 0.92314 0.64019 0.67306 0.0
H772 H 0.9367 0.63693 0.69237 0.0
H773 H 0.91823 0.64256 0.69788 0.0
C774 C 0.17301 0.72772 0.38087 0.0
C775 C 0.1535 0.72377 0.37197 0.0
C776 C 0.16586 0.73882 0.3403 0.0
C777 C 0.16348 0.75488 0.33976 0.0
C778 C 0.17582 0.77146 0.32795 0.0
C779 C 0.19106 0.77204 0.31678 0.0
C780 C 0.19337 0.7557 0.31728 0.0
C781 C 0.18039 0.7391 0.32874 0.0
C782 C 0.17268 0.78841 0.32756 0.0
C783 C 0.20974 0.75588 0.30603 0.0
C784 C 0.29933 0.91555 0.34216 0.0
C785 C 0.298 0.89918 0.35532 0.0
C786 C 0.2819 0.86987 0.33559 0.0
C787 C 0.28489 0.85635 0.32654 0.0
C788 C 0.26947 0.84065 0.31681 0.0
C789 C 0.25065 0.83868 0.31577 0.0
C790 C 0.24741 0.85219 0.32504 0.0
C791 C 0.26301 0.86757 0.33499 0.0
C792 C 0.27338 0.82628 0.30749 0.0
C793 C 0.2275 0.85049 0.32424 0.0
C794 C 0.28001 0.87759 0.19417 0.0
C795 C 0.28241 0.8619 0.19911 0.0
C796 C 0.26681 0.84464 0.20783 0.0
C797 C 0.24843 0.84303 0.21153 0.0
C798 C 0.24562 0.85836 0.20548 0.0
C799 C 0.26145 0.87542 0.1967 0.0
C800 C 0.27012 0.82832 0.2136 0.0
C801 C 0.22611 0.85697 0.20894 0.0
C802 C 0.11247 0.7173 0.18905 0.0
C803 C 0.12928 0.72289 0.1744 0.0
C804 C 0.15997 0.74312 0.19257 0.0
C805 C 0.17671 0.74387 0.20019 0.0
C806 C 0.19122 0.76028 0.20985 0.0
C807 C 0.18868 0.77624 0.21228 0.0
C808 C 0.17191 0.77575 0.20441 0.0
C809 C 0.1578 0.75928 0.19449 0.0
C810 C 0.20916 0.76047 0.21764 0.0
C811 C 0.16877 0.79252 0.20674 0.0
C812 C 0.20501 0.78992 0.30511 0.0
C813 C 0.22027 0.80574 0.31475 0.0
C814 C 0.2345 0.82272 0.30465 0.0
C815 C 0.23366 0.824 0.28432 0.0
C816 C 0.24773 0.84086 0.2737 0.0
C817 C 0.24734 0.84165 0.25366 0.0
C818 C 0.23281 0.82563 0.24344 0.0
C819 C 0.23276 0.82601 0.22304 0.0
C820 C 0.21813 0.80984 0.21332 0.0
C821 C 0.20333 0.79321 0.22346 0.0
C822 C 0.20304 0.79263 0.24389 0.0
C823 C 0.18818 0.77629 0.25457 0.0
C824 C 0.18856 0.77551 0.27463 0.0
C825 C 0.20386 0.79099 0.28479 0.0
C826 C 0.21845 0.80797 0.27435 0.0
C827 C 0.21803 0.80878 0.25388 0.0
C828 C 0.31867 0.92173 0.20524 0.0
C829 C 0.31465 0.90441 0.19325 0.0
O830 O 0.15449 0.72299 0.3521 0.0
O831 O 0.14634 0.72651 0.18377 0.0
O832 O 0.29521 0.89492 0.18689 0.0
O833 O 0.2977 0.88489 0.34443 0.0
H834 H 0.15118 0.73579 0.37571 0.0
H835 H 0.18561 0.742 0.3753 0.0
H836 H 0.17585 0.71605 0.37719 0.0
H837 H 0.17246 0.72835 0.39681 0.0
H838 H 0.15188 0.75438 0.34846 0.0
H839 H 0.18199 0.72652 0.32929 0.0
H840 H 0.18511 0.80083 0.33506 0.0
H841 H 0.15853 0.78459 0.33479 0.0
H842 H 0.17265 0.7934 0.31244 0.0
H843 H 0.21138 0.74338 0.31032 0.0
H844 H 0.22414 0.7697 0.30816 0.0
H845 H 0.20641 0.75503 0.29041 0.0
H846 H 0.28422 0.89265 0.36432 0.0
H847 H 0.30013 0.92722 0.35097 0.0
H848 H 0.28605 0.90983 0.33294 0.0
H849 H 0.31267 0.92204 0.33257 0.0
H850 H 0.29945 0.85817 0.32714 0.0
H851 H 0.26031 0.87778 0.34201 0.0
H852 H 0.27316 0.82798 0.29156 0.0
H853 H 0.26153 0.81106 0.31164 0.0
H854 H 0.28799 0.82847 0.31159 0.0
H855 H 0.22772 0.8629 0.33107 0.0
H856 H 0.21615 0.83669 0.33178 0.0
H857 H 0.22287 0.84988 0.30901 0.0
H858 H 0.31719 0.89468 0.20297 0.0
H859 H 0.29646 0.86312 0.19623 0.0
H860 H 0.25964 0.88747 0.19243 0.0
H861 H 0.26965 0.8266 0.22957 0.0
H862 H 0.28463 0.83112 0.20826 0.0
H863 H 0.25805 0.8143 0.20791 0.0
H864 H 0.22609 0.86991 0.20284 0.0
H865 H 0.22298 0.85567 0.22468 0.0
H866 H 0.21388 0.84362 0.20237 0.0
H867 H 0.1323 0.73621 0.16596 0.0
H868 H 0.09861 0.71361 0.18142 0.0
H869 H 0.10961 0.70457 0.19838 0.0
H870 H 0.11637 0.72964 0.19851 0.0
H871 H 0.17835 0.73143 0.19856 0.0
H872 H 0.14508 0.75913 0.18855 0.0
H873 H 0.20846 0.75971 0.23364 0.0
H874 H 0.22296 0.77433 0.21314 0.0
H875 H 0.21007 0.74799 0.21264 0.0
H876 H 0.15442 0.78947 0.20072 0.0
H877 H 0.18101 0.80587 0.19932 0.0
H878 H 0.16915 0.79566 0.22227 0.0
H879 H 0.22123 0.80472 0.33031 0.0
H880 H 0.25935 0.85359 0.28076 0.0
H881 H 0.25871 0.85494 0.24629 0.0
H882 H 0.21839 0.81013 0.19767 0.0
H883 H 0.17618 0.76383 0.24753 0.0
H884 H 0.17682 0.7625 0.28208 0.0
H885 H 0.3343 0.92976 0.21017 0.0
H886 H 0.30873 0.91634 0.21817 0.0
H887 H 0.31585 0.93197 0.19675 0.0
C888 C 0.39788 0.14543 0.63012 0.0
C889 C 0.41112 0.1432 0.64487 0.0
C890 C 0.40459 0.15064 0.67645 0.0
C891 C 0.42375 0.16467 0.68234 0.0
C892 C 0.42671 0.17907 0.69516 0.0
C893 C 0.41013 0.17937 0.7022 0.0
C894 C 0.39071 0.16455 0.69711 0.0
C895 C 0.38819 0.1502 0.68441 0.0
C896 C 0.44757 0.19426 0.70078 0.0
C897 C 0.37271 0.16429 0.70458 0.0
C898 C 0.43247 0.32201 0.65407 0.0
C899 C 0.42593 0.30638 0.66942 0.0
C900 C 0.43107 0.27986 0.6791 0.0
C901 C 0.41295 0.26827 0.68917 0.0
C902 C 0.40898 0.25147 0.69993 0.0
C903 C 0.42382 0.24669 0.70142 0.0
C904 C 0.44213 0.25844 0.69137 0.0
C905 C 0.44532 0.27465 0.68005 0.0
C906 C 0.38887 0.23885 0.70959 0.0
C907 C 0.45836 0.25392 0.69248 0.0
C908 C 0.42207 0.27466 0.82527 0.0
C909 C 0.40351 0.25825 0.82078 0.0
C910 C 0.40225 0.2426 0.8111 0.0
C911 C 0.41984 0.24314 0.80611 0.0
C912 C 0.4385 0.25931 0.81111 0.0
C913 C 0.43935 0.27493 0.82051 0.0
C914 C 0.38208 0.22557 0.80596 0.0
C915 C 0.45752 0.26023 0.80623 0.0
C916 C 0.38823 0.09347 0.82017 0.0
C917 C 0.40384 0.113 0.82851 0.0
C918 C 0.39981 0.14103 0.82534 0.0
C919 C 0.38463 0.14467 0.82201 0.0
C920 C 0.38854 0.16212 0.8127 0.0
C921 C 0.40826 0.17639 0.80699 0.0
C922 C 0.42388 0.17329 0.8114 0.0
C923 C 0.4195 0.15561 0.82057 0.0
C924 C 0.37157 0.16509 0.80852 0.0
C925 C 0.44513 0.18846 0.80602 0.0
C926 C 0.41324 0.19599 0.71369 0.0
C927 C 0.41651 0.21278 0.70359 0.0
C928 C 0.42015 0.22931 0.71324 0.0
C929 C 0.42034 0.22908 0.73366 0.0
C930 C 0.42414 0.24547 0.7439 0.0
C931 C 0.42349 0.24483 0.76396 0.0
C932 C 0.4196 0.22796 0.7746 0.0
C933 C 0.4186 0.22706 0.795 0.0
C934 C 0.41516 0.21023 0.80514 0.0
C935 C 0.41235 0.19402 0.79543 0.0
C936 C 0.41285 0.19448 0.77501 0.0
C937 C 0.40965 0.17827 0.76477 0.0
C938 C 0.40989 0.17876 0.74469 0.0
C939 C 0.41324 0.19543 0.73408 0.0
C940 C 0.41669 0.21201 0.74409 0.0
C941 C 0.41647 0.21152 0.76458 0.0
C942 C 0.40037 0.29878 0.82292 0.0
C943 C 0.409 0.29319 0.84006 0.0
O944 O 0.40166 0.13773 0.66277 0.0
O945 O 0.39494 0.12332 0.8331 0.0
O946 O 0.42405 0.29056 0.83388 0.0
O947 O 0.43526 0.29592 0.66812 0.0
H948 H 0.42505 0.15785 0.64525 0.0
H949 H 0.39632 0.15787 0.63393 0.0
H950 H 0.38279 0.13208 0.63 0.0
H951 H 0.40463 0.14849 0.61543 0.0
H952 H 0.4364 0.16449 0.67671 0.0
H953 H 0.37344 0.13907 0.67997 0.0
H954 H 0.45142 0.20878 0.69466 0.0
H955 H 0.45869 0.19096 0.69552 0.0
H956 H 0.44855 0.19527 0.71672 0.0
H957 H 0.3586 0.15154 0.69958 0.0
H958 H 0.37339 0.17791 0.69968 0.0
H959 H 0.37263 0.16388 0.72059 0.0
H960 H 0.4257 0.31092 0.6844 0.0
H961 H 0.40661 0.31313 0.63812 0.0
H962 H 0.44644 0.32406 0.64745 0.0
H963 H 0.44033 0.33611 0.66195 0.0
H964 H 0.40169 0.27203 0.68843 0.0
H965 H 0.45919 0.28359 0.67213 0.0
H966 H 0.3833 0.2231 0.70805 0.0
H967 H 0.37774 0.24194 0.70352 0.0
H968 H 0.39014 0.24176 0.72522 0.0
H969 H 0.47279 0.2663 0.6868 0.0
H970 H 0.45412 0.24098 0.68379 0.0
H971 H 0.46035 0.25035 0.7076 0.0
H972 H 0.39689 0.27942 0.8471 0.0
H973 H 0.38991 0.25755 0.8245 0.0
H974 H 0.4536 0.28755 0.8241 0.0
H975 H 0.38146 0.22328 0.79021 0.0
H976 H 0.36985 0.22777 0.81003 0.0
H977 H 0.37958 0.21205 0.81347 0.0
H978 H 0.47074 0.27313 0.81234 0.0
H979 H 0.45944 0.26096 0.79032 0.0
H980 H 0.45677 0.24674 0.81178 0.0
H981 H 0.41538 0.12087 0.81699 0.0
H982 H 0.39498 0.08481 0.81664 0.0
H983 H 0.38224 0.09617 0.80671 0.0
H984 H 0.3757 0.08482 0.83054 0.0
H985 H 0.36954 0.13347 0.82612 0.0
H986 H 0.43144 0.15321 0.82396 0.0
H987 H 0.37096 0.16773 0.79278 0.0
H988 H 0.37406 0.17822 0.81589 0.0
H989 H 0.35701 0.15233 0.81341 0.0
H990 H 0.45574 0.18456 0.81187 0.0
H991 H 0.44908 0.20288 0.81148 0.0
H992 H 0.4468 0.19004 0.79007 0.0
H993 H 0.41636 0.21303 0.68794 0.0
H994 H 0.42745 0.25894 0.73654 0.0
H995 H 0.42617 0.25779 0.77102 0.0
H996 H 0.41435 0.20961 0.82079 0.0
H997 H 0.40684 0.16497 0.77214 0.0
H998 H 0.40729 0.16585 0.73758 0.0
H999 H 0.38895 0.30172 0.82808 0.0
H1000 H 0.4122 0.31198 0.81492 0.0
H1001 H 0.39317 0.28673 0.81267 0.0
H1002 H 0.07577 0.50926 0.05038 0.0
H1003 H 0.09083 0.49622 0.07231 0.0
H1004 H 0.04842 0.43779 0.05457 0.0
H1005 H 0.03347 0.45092 0.03255 0.0
H1006 H 0.05036 0.44053 0.09373 0.0
H1007 H 0.09558 0.45879 0.04083 0.0
H1008 H 0.11885 0.48058 0.01515 0.0
H1009 H 0.15778 0.51986 0.0576 0.0
H1010 H 0.13456 0.49847 0.08355 0.0
H1011 H 0.09401 0.39588 0.1462 0.0
H1012 H 0.08375 0.40748 0.11804 0.0
H1013 H 0.12051 0.46684 0.13614 0.0
H1014 H 0.13054 0.45529 0.16453 0.0
H1015 H 0.12175 0.46215 0.09521 0.0
H1016 H 0.07507 0.44546 0.14749 0.0
H1017 H 0.05173 0.42393 0.17327 0.0
H1018 H 0.01547 0.38183 0.13152 0.0
H1019 H 0.03881 0.40299 0.1055 0.0
C1020 C 0.06993 0.49369 0.05104 0.0
C1021 C 0.05353 0.48101 0.03996 0.0
C1022 C 0.07851 0.48626 0.06347 0.0
C1023 C 0.07078 0.46604 0.06498 0.0
C1024 C 0.0546 0.45342 0.05359 0.0
C1025 C 0.04611 0.46087 0.04106 0.0
C1026 C 0.0788 0.45802 0.07935 0.0
C1027 C 0.06589 0.44497 0.09382 0.0
C1028 C 0.09916 0.4642 0.0797 0.0
C1029 C 0.11322 0.4771 0.06414 0.0
C1030 C 0.10901 0.47216 0.0447 0.0
C1031 C 0.12221 0.48443 0.03008 0.0
C1032 C 0.13976 0.50162 0.03474 0.0
C1033 C 0.14416 0.50655 0.05402 0.0
C1034 C 0.13099 0.49435 0.06869 0.0
C1035 C 0.09998 0.4114 0.14409 0.0
C1036 C 0.11281 0.42467 0.1577 0.0
C1037 C 0.09418 0.418 0.128 0.0
C1038 C 0.10128 0.43798 0.12515 0.0
C1039 C 0.1149 0.45136 0.13813 0.0
C1040 C 0.12053 0.44475 0.15435 0.0
C1041 C 0.09329 0.44473 0.1095 0.0
C1042 C 0.10619 0.45758 0.09491 0.0
C1043 C 0.07291 0.43841 0.109 0.0
C1044 C 0.05881 0.42569 0.12459 0.0
C1045 C 0.06222 0.43152 0.14383 0.0
C1046 C 0.04898 0.4194 0.15848 0.0
C1047 C 0.03216 0.40149 0.15405 0.0
C1048 C 0.02853 0.39568 0.13494 0.0
C1049 C 0.04176 0.40774 0.12023 0.0
H1050 H 0.02191 0.39213 0.16541 0.0
H1051 H 0.14997 0.51109 0.0234 0.0
H1052 H 0.55263 0.04675 0.57267 0.0
H1053 H 0.58035 0.06212 0.59517 0.0
H1054 H 0.61762 0.05572 0.55464 0.0
H1055 H 0.58965 0.03992 0.53236 0.0
H1056 H 0.62092 0.04396 0.58988 0.0
H1057 H 0.6236 0.10061 0.56238 0.0
H1058 H 0.61023 0.12111 0.55236 0.0
H1059 H 0.59498 0.12299 0.61124 0.0
H1060 H 0.608 0.10225 0.62158 0.0
H1061 H 0.70755 0.09718 0.64481 0.0
H1062 H 0.6845 0.08884 0.61802 0.0
H1063 H 0.64324 0.09262 0.65526 0.0
H1064 H 0.66649 0.10148 0.68195 0.0
H1065 H 0.64389 0.10751 0.61975 0.0
H1066 H 0.63842 0.04883 0.64675 0.0
H1067 H 0.65115 0.02784 0.65709 0.0
H1068 H 0.67102 0.02945 0.59918 0.0
H1069 H 0.65866 0.0507 0.58855 0.0
C1070 C 0.56683 0.04881 0.5686 0.0
C1071 C 0.5692 0.04233 0.55088 0.0
C1072 C 0.58266 0.05766 0.58136 0.0
C1073 C 0.60116 0.06031 0.57649 0.0
C1074 C 0.60351 0.05389 0.55867 0.0
C1075 C 0.58764 0.04496 0.54595 0.0
C1076 C 0.61773 0.06893 0.59039 0.0
C1077 C 0.6262 0.05803 0.59613 0.0
C1078 C 0.62431 0.08709 0.59889 0.0
C1079 C 0.61665 0.09974 0.59274 0.0
C1080 C 0.61728 0.10529 0.57318 0.0
C1081 C 0.60978 0.11697 0.56744 0.0
C1082 C 0.60173 0.12332 0.58115 0.0
C1083 C 0.60122 0.11805 0.60063 0.0
C1084 C 0.60868 0.10635 0.60644 0.0
C1085 C 0.69376 0.09668 0.64715 0.0
C1086 C 0.68892 0.10026 0.6654 0.0
C1087 C 0.68054 0.09176 0.63188 0.0
C1088 C 0.66204 0.08989 0.63469 0.0
C1089 C 0.65745 0.09404 0.65274 0.0
C1090 C 0.67072 0.09908 0.66797 0.0
C1091 C 0.64698 0.08247 0.61926 0.0
C1092 C 0.63875 0.09355 0.6133 0.0
C1093 C 0.64055 0.06444 0.61057 0.0
C1094 C 0.64781 0.05151 0.6169 0.0
C1095 C 0.64563 0.04481 0.63625 0.0
C1096 C 0.65276 0.03286 0.64216 0.0
C1097 C 0.66193 0.02736 0.62881 0.0
C1098 C 0.66394 0.03375 0.60951 0.0
C1099 C 0.65687 0.04574 0.60353 0.0
H1100 H 0.66745 0.0181 0.63341 0.0
H1101 H 0.59592 0.13236 0.57668 0.0
H1102 H 0.56989 0.60392 0.039 0.0
H1103 H 0.58127 0.63061 0.06165 0.0
H1104 H 0.54358 0.58904 0.10628 0.0
H1105 H 0.53265 0.56234 0.08392 0.0
H1106 H 0.54206 0.62569 0.09984 0.0
H1107 H 0.58653 0.60192 0.11117 0.0
H1108 H 0.61061 0.59324 0.10085 0.0
H1109 H 0.64981 0.65201 0.07895 0.0
H1110 H 0.62577 0.66095 0.08889 0.0
H1111 H 0.57405 0.67328 0.18808 0.0
H1112 H 0.56338 0.65113 0.16124 0.0
H1113 H 0.61517 0.69374 0.12817 0.0
H1114 H 0.62611 0.71579 0.15524 0.0
H1115 H 0.61036 0.65899 0.12575 0.0
H1116 H 0.56856 0.68438 0.11692 0.0
H1117 H 0.54481 0.69394 0.12587 0.0
H1118 H 0.50103 0.63413 0.14097 0.0
H1119 H 0.52463 0.62423 0.13238 0.0
C1120 C 0.56411 0.60056 0.05366 0.0
C1121 C 0.55054 0.58115 0.05984 0.0
C1122 C 0.57058 0.61575 0.06653 0.0
C1123 C 0.56321 0.61172 0.08557 0.0
C1124 C 0.54938 0.59239 0.09162 0.0
C1125 C 0.54327 0.57719 0.07892 0.0
C1126 C 0.57018 0.62758 0.09941 0.0
C1127 C 0.55693 0.63292 0.10565 0.0
C1128 C 0.58977 0.63735 0.10643 0.0
C1129 C 0.60425 0.63203 0.10053 0.0
C1130 C 0.60018 0.61294 0.10396 0.0
C1131 C 0.61384 0.60798 0.09823 0.0
C1132 C 0.6317 0.62205 0.08918 0.0
C1133 C 0.63595 0.64112 0.08591 0.0
C1134 C 0.62232 0.64614 0.0916 0.0
C1135 C 0.58298 0.67803 0.17497 0.0
C1136 C 0.60068 0.69642 0.1736 0.0
C1137 C 0.57687 0.66539 0.15961 0.0
C1138 C 0.58829 0.67089 0.14253 0.0
C1139 C 0.60603 0.68924 0.14114 0.0
C1140 C 0.6122 0.70187 0.15654 0.0
C1141 C 0.58213 0.65704 0.12656 0.0
C1142 C 0.59554 0.65202 0.11986 0.0
C1143 C 0.56272 0.64773 0.11894 0.0
C1144 C 0.54844 0.65359 0.12416 0.0
C1145 C 0.55393 0.67328 0.1223 0.0
C1146 C 0.54048 0.67876 0.12729 0.0
C1147 C 0.52144 0.66466 0.13403 0.0
C1148 C 0.5158 0.64504 0.13576 0.0
C1149 C 0.5292 0.63948 0.13082 0.0
H1150 H 0.51105 0.66893 0.13787 0.0
H1151 H 0.64226 0.61819 0.08476 0.0
H1152 H 0.99406 0.55446 0.5819 0.0
H1153 H 0.98007 0.56591 0.60552 0.0
H1154 H 0.92129 0.52627 0.58464 0.0
H1155 H 0.93487 0.51373 0.5617 0.0
H1156 H 0.93422 0.5686 0.58815 0.0
H1157 H 0.92857 0.51332 0.62374 0.0
H1158 H 0.94128 0.49328 0.63718 0.0
H1159 H 0.98401 0.54155 0.67012 0.0
H1160 H 0.97174 0.56199 0.65663 0.0
H1161 H 0.88471 0.58983 0.65823 0.0
H1162 H 0.8939 0.57246 0.63679 0.0
H1163 H 0.94798 0.59214 0.66833 0.0
H1164 H 0.93809 0.60828 0.69084 0.0
H1165 H 0.93566 0.55782 0.65883 0.0
H1166 H 0.94466 0.61409 0.62289 0.0
H1167 H 0.93484 0.6363 0.60885 0.0
H1168 H 0.88976 0.58958 0.57597 0.0
H1169 H 0.89916 0.56703 0.59 0.0
C1170 C 0.97811 0.54781 0.5825 0.0
C1171 C 0.96566 0.53307 0.56978 0.0
C1172 C 0.97018 0.55453 0.59595 0.0
C1173 C 0.94968 0.5469 0.59679 0.0
C1174 C 0.93717 0.53236 0.58412 0.0
C1175 C 0.94503 0.52535 0.5709 0.0
C1176 C 0.94144 0.55447 0.61069 0.0
C1177 C 0.93421 0.56603 0.60361 0.0
C1178 C 0.94205 0.55154 0.63081 0.0
C1179 C 0.94937 0.53924 0.63902 0.0
C1180 C 0.9408 0.51972 0.6337 0.0
C1181 C 0.9479 0.50828 0.64136 0.0
C1182 C 0.96348 0.51615 0.65446 0.0
C1183 C 0.97196 0.53548 0.65996 0.0
C1184 C 0.96492 0.54699 0.65232 0.0
C1185 C 0.89853 0.59045 0.66076 0.0
C1186 C 0.91094 0.60097 0.6761 0.0
C1187 C 0.90386 0.58058 0.64831 0.0
C1188 C 0.92197 0.58145 0.65049 0.0
C1189 C 0.93402 0.59136 0.66615 0.0
C1190 C 0.92845 0.60077 0.67892 0.0
C1191 C 0.92853 0.57229 0.63639 0.0
C1192 C 0.93551 0.5604 0.6434 0.0
C1193 C 0.92809 0.57528 0.61616 0.0
C1194 C 0.92247 0.58883 0.60765 0.0
C1195 C 0.93257 0.60853 0.61276 0.0
C1196 C 0.92709 0.62118 0.60479 0.0
C1197 C 0.91165 0.61434 0.59156 0.0
C1198 C 0.9017 0.59485 0.58624 0.0
C1199 C 0.9071 0.58213 0.59418 0.0
H1200 H 0.90743 0.62416 0.58541 0.0
H1201 H 0.96895 0.50727 0.66038 0.0
H1202 H 0.43503 0.99307 0.04857 0.0
H1203 H 0.4078 0.9773 0.0725 0.0
H1204 H 0.433 0.94517 0.09698 0.0
H1205 H 0.46005 0.96079 0.0728 0.0
H1206 H 0.39308 0.92215 0.09452 0.0
H1207 H 0.43993 0.98526 0.11803 0.0
H1208 H 0.46164 0.02117 0.11602 0.0
H1209 H 0.41085 0.02638 0.10727 0.0
H1210 H 0.38884 0.99045 0.10887 0.0
H1211 H 0.34496 0.89801 0.18693 0.0
H1212 H 0.36916 0.91069 0.16023 0.0
H1213 H 0.34079 0.93929 0.13466 0.0
H1214 H 0.31642 0.92649 0.16129 0.0
H1215 H 0.38168 0.96375 0.13718 0.0
H1216 H 0.33481 0.89986 0.11471 0.0
H1217 H 0.31378 0.8639 0.11697 0.0
H1218 H 0.36554 0.86015 0.12485 0.0
H1219 H 0.38686 0.89613 0.12293 0.0
C1220 C 0.43461 0.98259 0.05908 0.0
C1221 C 0.44951 0.97815 0.05914 0.0
C1222 C 0.41915 0.97363 0.07271 0.0
C1223 C 0.41852 0.96024 0.08666 0.0
C1224 C 0.43323 0.95547 0.08636 0.0
C1225 C 0.44865 0.9644 0.07269 0.0
C1226 C 0.40285 0.95165 0.1019 0.0
C1227 C 0.39072 0.93122 0.104 0.0
C1228 C 0.39959 0.96353 0.11405 0.0
C1229 C 0.41275 0.98515 0.11338 0.0
C1230 C 0.43339 0.99405 0.11554 0.0
C1231 C 0.44576 0.01441 0.11448 0.0
C1232 C 0.43763 0.02605 0.11148 0.0
C1233 C 0.41712 0.01734 0.10958 0.0
C1234 C 0.40469 0.99698 0.11056 0.0
C1235 C 0.34378 0.90684 0.17551 0.0
C1236 C 0.32882 0.91126 0.17616 0.0
C1237 C 0.35757 0.91404 0.16027 0.0
C1238 C 0.35669 0.92585 0.14544 0.0
C1239 C 0.3417 0.93019 0.14597 0.0
C1240 C 0.3278 0.92286 0.16113 0.0
C1241 C 0.37188 0.93425 0.12977 0.0
C1242 C 0.38397 0.95467 0.12764 0.0
C1243 C 0.37521 0.92236 0.11774 0.0
C1244 C 0.36242 0.90071 0.11886 0.0
C1245 C 0.34169 0.89138 0.1171 0.0
C1246 C 0.32972 0.87099 0.11829 0.0
C1247 C 0.33831 0.85975 0.12111 0.0
C1248 C 0.3589 0.86888 0.1227 0.0
C1249 C 0.37094 0.88927 0.12154 0.0
H1250 H 0.32902 0.84396 0.12202 0.0
H1251 H 0.44723 0.04181 0.11066 0.0
H1252 H 0.46136 0.42071 0.5275 0.0
H1253 H 0.44894 0.39106 0.54792 0.0
H1254 H 0.47003 0.42635 0.59835 0.0
H1255 H 0.48489 0.45578 0.57767 0.0
H1256 H 0.476 0.40075 0.60523 0.0
H1257 H 0.41676 0.39629 0.58093 0.0
H1258 H 0.39374 0.39537 0.55626 0.0
H1259 H 0.38912 0.34448 0.53264 0.0
H1260 H 0.41229 0.34523 0.55704 0.0
H1261 H 0.39671 0.3184 0.67827 0.0
H1262 H 0.41427 0.35152 0.65109 0.0
H1263 H 0.43359 0.31672 0.60618 0.0
H1264 H 0.41643 0.28245 0.63198 0.0
H1265 H 0.40911 0.34219 0.59593 0.0
H1266 H 0.47293 0.35182 0.62134 0.0
H1267 H 0.49352 0.35359 0.64903 0.0
H1268 H 0.48437 0.39621 0.67458 0.0
H1269 H 0.46369 0.39459 0.64706 0.0
C1270 C 0.46331 0.42199 0.54296 0.0
C1271 C 0.4736 0.44048 0.55106 0.0
C1272 C 0.45599 0.40505 0.5547 0.0
C1273 C 0.45787 0.40622 0.57491 0.0
C1274 C 0.46821 0.42481 0.5829 0.0
C1275 C 0.47641 0.4417 0.57109 0.0
C1276 C 0.4496 0.38829 0.58779 0.0
C1277 C 0.46125 0.38815 0.60314 0.0
C1278 C 0.43041 0.37148 0.58529 0.0
C1279 C 0.4164 0.37094 0.57069 0.0
C1280 C 0.41091 0.38497 0.57041 0.0
C1281 C 0.39783 0.38447 0.55648 0.0
C1282 C 0.39002 0.3699 0.54287 0.0
C1283 C 0.39521 0.35577 0.54318 0.0
C1284 C 0.40829 0.35621 0.55706 0.0
C1285 C 0.40265 0.31769 0.66452 0.0
C1286 C 0.40794 0.29824 0.65952 0.0
C1287 C 0.4146 0.33859 0.64806 0.0
C1288 C 0.427 0.33816 0.62653 0.0
C1289 C 0.42685 0.31664 0.61974 0.0
C1290 C 0.41538 0.29495 0.63517 0.0
C1291 C 0.43546 0.35514 0.613 0.0
C1292 C 0.42382 0.35499 0.59769 0.0
C1293 C 0.45425 0.37192 0.6159 0.0
C1294 C 0.46672 0.37298 0.6323 0.0
C1295 C 0.47533 0.36154 0.6329 0.0
C1296 C 0.487 0.36252 0.64854 0.0
C1297 C 0.49022 0.37497 0.66358 0.0
C1298 C 0.48184 0.38654 0.66296 0.0
C1299 C 0.47016 0.38561 0.64734 0.0
H1300 H 0.49923 0.37569 0.67569 0.0
H1301 H 0.3799 0.36955 0.53209 0.0
H1302 H 0.52622 0.96998 0.43146 0.0
H1303 H 0.53753 0.95306 0.41129 0.0
H1304 H 0.57588 0.95525 0.45682 0.0
H1305 H 0.56445 0.97193 0.47711 0.0
H1306 H 0.59347 0.96575 0.41776 0.0
H1307 H 0.53476 0.91531 0.45347 0.0
H1308 H 0.49956 0.89888 0.46351 0.0
H1309 H 0.48191 0.88868 0.40432 0.0
H1310 H 0.51705 0.90532 0.39392 0.0
H1311 H 0.6181 0.89631 0.39631 0.0
H1312 H 0.6078 0.91709 0.41027 0.0
H1313 H 0.5584 0.89459 0.37133 0.0
H1314 H 0.56781 0.87273 0.35833 0.0
H1315 H 0.54571 0.89624 0.40367 0.0
H1316 H 0.60219 0.94316 0.36683 0.0
H1317 H 0.63673 0.96081 0.35454 0.0
H1318 H 0.6581 0.97958 0.41158 0.0
H1319 H 0.6237 0.96182 0.42427 0.0
C1320 C 0.53721 0.96701 0.43705 0.0
C1321 C 0.54443 0.97216 0.45584 0.0
C1322 C 0.5436 0.95733 0.42556 0.0
C1323 C 0.55748 0.9529 0.43263 0.0
C1324 C 0.56518 0.95859 0.45114 0.0
C1325 C 0.55857 0.96798 0.46273 0.0
C1326 C 0.56338 0.94153 0.42113 0.0
C1327 C 0.58314 0.95051 0.41474 0.0
C1328 C 0.54963 0.92192 0.41662 0.0
C1329 C 0.52853 0.91174 0.42291 0.0
C1330 C 0.52338 0.90971 0.44259 0.0
C1331 C 0.50344 0.90033 0.44835 0.0
C1332 C 0.48851 0.89279 0.43456 0.0
C1333 C 0.49349 0.89456 0.41498 0.0
C1334 C 0.51341 0.90395 0.40915 0.0
C1335 C 0.6051 0.8959 0.39067 0.0
C1336 C 0.59398 0.88303 0.37606 0.0
C1337 C 0.59931 0.90793 0.39852 0.0
C1338 C 0.58256 0.90784 0.39157 0.0
C1339 C 0.57145 0.89507 0.37689 0.0
C1340 C 0.57696 0.88265 0.36934 0.0
C1341 C 0.57608 0.92028 0.40038 0.0
C1342 C 0.55615 0.91154 0.40635 0.0
C1343 C 0.58961 0.94027 0.40409 0.0
C1344 C 0.61035 0.95102 0.39652 0.0
C1345 C 0.61426 0.95094 0.37678 0.0
C1346 C 0.63381 0.96098 0.36973 0.0
C1347 C 0.6496 0.97128 0.38227 0.0
C1348 C 0.64586 0.97159 0.40188 0.0
C1349 C 0.62633 0.96156 0.40901 0.0
H1350 H 0.66473 0.97904 0.37679 0.0
H1351 H 0.47308 0.88554 0.43904 0.0
H1352 H 0.58876 0.53635 0.99705 0.0
H1353 H 0.621 0.55214 0.98124 0.0
H1354 H 0.59944 0.57278 0.93511 0.0
H1355 H 0.56764 0.55763 0.95097 0.0
H1356 H 0.61399 0.54943 0.92234 0.0
H1357 H 0.63414 0.60413 0.96211 0.0
H1358 H 0.6387 0.62062 0.99273 0.0
H1359 H 0.67678 0.60083 0.01289 0.0
H1360 H 0.67221 0.58396 0.98249 0.0
H1361 H 0.70138 0.58685 0.86773 0.0
H1362 H 0.67455 0.58639 0.88533 0.0
H1363 H 0.69598 0.57572 0.9388 0.0
H1364 H 0.72375 0.57765 0.92139 0.0
H1365 H 0.68129 0.59651 0.94628 0.0
H1366 H 0.6578 0.53804 0.91069 0.0
H1367 H 0.65237 0.51888 0.88176 0.0
H1368 H 0.6195 0.54235 0.85595 0.0
H1369 H 0.62497 0.56186 0.88464 0.0
C1370 C 0.59022 0.54308 0.98295 0.0
C1371 C 0.57369 0.54159 0.97329 0.0
C1372 C 0.60911 0.55288 0.97428 0.0
C1373 C 0.61226 0.56253 0.95629 0.0
C1374 C 0.59696 0.56426 0.94838 0.0
C1375 C 0.57817 0.55457 0.95718 0.0
C1376 C 0.63065 0.56906 0.94489 0.0
C1377 C 0.62871 0.56005 0.92737 0.0
C1378 C 0.64982 0.58239 0.95181 0.0
C1379 C 0.6527 0.59264 0.97006 0.0
C1380 C 0.64336 0.60315 0.97313 0.0
C1381 C 0.64597 0.6126 0.99044 0.0
C1382 C 0.65799 0.61174 0.00476 0.0
C1383 C 0.66747 0.60148 0.00178 0.0
C1384 C 0.66489 0.59199 0.9845 0.0
C1385 C 0.70073 0.58493 0.88329 0.0
C1386 C 0.71479 0.58232 0.89319 0.0
C1387 C 0.68521 0.58446 0.89334 0.0
C1388 C 0.68286 0.5805 0.91338 0.0
C1389 C 0.69736 0.57875 0.92337 0.0
C1390 C 0.7132 0.57977 0.9134 0.0
C1391 C 0.66465 0.57672 0.92374 0.0
C1392 C 0.66658 0.58612 0.94109 0.0
C1393 C 0.64537 0.56336 0.91692 0.0
C1394 C 0.64199 0.55157 0.8997 0.0
C1395 C 0.64953 0.53921 0.89879 0.0
C1396 C 0.64643 0.52828 0.88244 0.0
C1397 C 0.63565 0.52944 0.867 0.0
C1398 C 0.62788 0.5415 0.8679 0.0
C1399 C 0.63097 0.55249 0.8842 0.0
H1400 H 0.63326 0.52097 0.85436 0.0
H1401 H 0.65998 0.61906 0.01816 0.0
H1402 H 0.03778 0.58462 0.4899 0.0
H1403 H 0.05683 0.61381 0.46884 0.0
H1404 H 0.0526 0.57747 0.4223 0.0
H1405 H 0.0347 0.54843 0.44386 0.0
H1406 H 0.08806 0.60644 0.42322 0.0
H1407 H 0.02504 0.60136 0.42472 0.0
H1408 H 0.99533 0.59817 0.43994 0.0
H1409 H 0.0319 0.65242 0.468 0.0
H1410 H 0.06186 0.65581 0.45317 0.0
H1411 H 0.13363 0.68671 0.35657 0.0
H1412 H 0.108 0.65604 0.37213 0.0
H1413 H 0.11043 0.68687 0.42284 0.0
H1414 H 0.13525 0.71779 0.40686 0.0
H1415 H 0.07365 0.65936 0.41698 0.0
H1416 H 0.13666 0.66228 0.41761 0.0
H1417 H 0.16619 0.66521 0.40223 0.0
H1418 H 0.12875 0.61436 0.36958 0.0
H1419 H 0.09899 0.61128 0.38461 0.0
C1420 C 0.04099 0.58298 0.47516 0.0
C1421 C 0.035 0.56444 0.46845 0.0
C1422 C 0.05165 0.59959 0.46306 0.0
C1423 C 0.0559 0.59787 0.44382 0.0
C1424 C 0.04952 0.57921 0.43705 0.0
C1425 C 0.03924 0.56265 0.44929 0.0
C1426 C 0.06791 0.61557 0.4311 0.0
C1427 C 0.08465 0.61782 0.42159 0.0
C1428 C 0.06374 0.63065 0.42918 0.0
C1429 C 0.04571 0.62877 0.43792 0.0
C1430 C 0.02676 0.61256 0.43421 0.0
C1431 C 0.00987 0.61072 0.44277 0.0
C1432 C 0.01173 0.62507 0.45495 0.0
C1433 C 0.03048 0.64132 0.45856 0.0
C1434 C 0.04741 0.64322 0.45006 0.0
C1435 C 0.12841 0.68706 0.37086 0.0
C1436 C 0.13633 0.70476 0.38045 0.0
C1437 C 0.11387 0.66944 0.37983 0.0
C1438 C 0.10753 0.66907 0.39882 0.0
C1439 C 0.11505 0.68676 0.40819 0.0
C1440 C 0.12926 0.70441 0.39909 0.0
C1441 C 0.09385 0.65026 0.40936 0.0
C1442 C 0.07685 0.64783 0.41847 0.0
C1443 C 0.09771 0.63496 0.41087 0.0
C1444 C 0.11562 0.63666 0.4021 0.0
C1445 C 0.13474 0.65178 0.40709 0.0
C1446 C 0.15151 0.65346 0.39844 0.0
C1447 C 0.14935 0.64 0.38491 0.0
C1448 C 0.1304 0.62479 0.38005 0.0
C1449 C 0.11359 0.62305 0.38864 0.0
H1450 H 0.16235 0.64134 0.37821 0.0
H1451 H 0.99865 0.62361 0.46158 0.0
H1452 H 0.50161 0.0706 0.9472 0.0
H1453 H 0.48875 0.08536 0.92483 0.0
H1454 H 0.43019 0.04873 0.95029 0.0
H1455 H 0.44294 0.03318 0.97184 0.0
H1456 H 0.42636 0.04839 0.91439 0.0
H1457 H 0.46197 0.10063 0.95739 0.0
H1458 H 0.49059 0.12458 0.97614 0.0
H1459 H 0.52427 0.15087 0.92377 0.0
H1460 H 0.49594 0.12691 0.90471 0.0
H1461 H 0.38647 0.09789 0.86417 0.0
H1462 H 0.39999 0.0887 0.89153 0.0
H1463 H 0.4551 0.11115 0.86011 0.0
H1464 H 0.4416 0.1202 0.83265 0.0
H1465 H 0.45962 0.11979 0.9005 0.0
H1466 H 0.42316 0.06509 0.85846 0.0
H1467 H 0.39342 0.04159 0.84068 0.0
H1468 H 0.35983 0.02053 0.89374 0.0
H1469 H 0.38931 0.04415 0.9118 0.0
C1470 C 0.48604 0.06587 0.94803 0.0
C1471 C 0.47321 0.05085 0.96116 0.0
C1472 C 0.4787 0.07439 0.93538 0.0
C1473 C 0.45852 0.06846 0.93605 0.0
C1474 C 0.4458 0.05359 0.94945 0.0
C1475 C 0.45305 0.04474 0.96177 0.0
C1476 C 0.45045 0.07692 0.9221 0.0
C1477 C 0.43347 0.06404 0.91171 0.0
C1478 C 0.45984 0.09734 0.91822 0.0
C1479 C 0.47687 0.11186 0.92963 0.0
C1480 C 0.47552 0.11144 0.94988 0.0
C1481 C 0.49169 0.12503 0.96056 0.0
C1482 C 0.50925 0.13921 0.95116 0.0
C1483 C 0.51066 0.13987 0.93104 0.0
C1484 C 0.49454 0.1263 0.92029 0.0
C1485 C 0.40156 0.1011 0.86324 0.0
C1486 C 0.41296 0.10964 0.84627 0.0
C1487 C 0.40925 0.09587 0.87884 0.0
C1488 C 0.42847 0.09914 0.87774 0.0
C1489 C 0.44025 0.10856 0.86122 0.0
C1490 C 0.43251 0.11365 0.84555 0.0
C1491 C 0.43569 0.09124 0.89306 0.0
C1492 C 0.45249 0.10419 0.90353 0.0
C1493 C 0.426 0.07092 0.89727 0.0
C1494 C 0.40838 0.05652 0.88644 0.0
C1495 C 0.4094 0.05554 0.86631 0.0
C1496 C 0.39259 0.0422 0.85619 0.0
C1497 C 0.37473 0.02961 0.86607 0.0
C1498 C 0.37366 0.03031 0.8861 0.0
C1499 C 0.39041 0.04367 0.89629 0.0
H1500 H 0.36174 0.01929 0.8582 0.0
H1501 H 0.52175 0.14971 0.95945 0.0
H1502 H 0.46013 0.48333 0.43088 0.0
H1503 H 0.43283 0.47253 0.40794 0.0
H1504 H 0.39041 0.44029 0.45397 0.0
H1505 H 0.41757 0.4512 0.47693 0.0
H1506 H 0.38244 0.42013 0.41776 0.0
H1507 H 0.39903 0.48292 0.44307 0.0
H1508 H 0.42229 0.51782 0.44911 0.0
H1509 H 0.43423 0.53006 0.3883 0.0
H1510 H 0.41124 0.49516 0.38194 0.0
H1511 H 0.2905 0.40567 0.38988 0.0
H1512 H 0.32145 0.41314 0.40513 0.0
H1513 H 0.35481 0.45675 0.36015 0.0
H1514 H 0.32386 0.45023 0.3456 0.0
H1515 H 0.37049 0.47116 0.39162 0.0
H1516 H 0.35189 0.41059 0.36465 0.0
H1517 H 0.33015 0.37592 0.35682 0.0
H1518 H 0.32401 0.35927 0.41702 0.0
H1519 H 0.34549 0.39386 0.42525 0.0
C1520 C 0.44498 0.47368 0.43599 0.0
C1521 C 0.44088 0.46815 0.45564 0.0
C1522 C 0.42945 0.46759 0.42293 0.0
C1523 C 0.40966 0.45569 0.42933 0.0
C1524 C 0.4056 0.44944 0.44878 0.0
C1525 C 0.42108 0.45575 0.46187 0.0
C1526 C 0.39303 0.45083 0.41617 0.0
C1527 C 0.3797 0.4312 0.41205 0.0
C1528 C 0.38998 0.46543 0.40822 0.0
C1529 C 0.40361 0.48642 0.41206 0.0
C1530 C 0.40674 0.49303 0.43101 0.0
C1531 C 0.41985 0.51282 0.43449 0.0
C1532 C 0.42978 0.52614 0.4191 0.0
C1533 C 0.42656 0.51972 0.40021 0.0
C1534 C 0.41349 0.49995 0.39666 0.0
C1535 C 0.30446 0.4167 0.38316 0.0
C1536 C 0.30467 0.42707 0.36637 0.0
C1537 C 0.32218 0.42087 0.39178 0.0
C1538 C 0.34058 0.4352 0.38357 0.0
C1539 C 0.34084 0.44552 0.36671 0.0
C1540 C 0.32309 0.44166 0.35831 0.0
C1541 C 0.35941 0.44024 0.39332 0.0
C1542 C 0.37323 0.45997 0.39691 0.0
C1543 C 0.36311 0.42572 0.40043 0.0
C1544 C 0.35021 0.40486 0.39557 0.0
C1545 C 0.3458 0.39955 0.37623 0.0
C1546 C 0.33354 0.37991 0.37172 0.0
C1547 C 0.32567 0.36541 0.38642 0.0
C1548 C 0.3301 0.37052 0.40565 0.0
C1549 C 0.34235 0.39014 0.41024 0.0
H1550 H 0.31617 0.35021 0.38289 0.0
H1551 H 0.43992 0.54145 0.42182 0.0
H1552 H 0.97591 0.41775 0.9683 0.0
H1553 H 0.958 0.38983 0.94736 0.0
H1554 H 0.96204 0.42856 0.90067 0.0
H1555 H 0.98024 0.45663 0.92152 0.0
H1556 H 0.9226 0.3944 0.90894 0.0
H1557 H 0.98957 0.4115 0.89625 0.0
H1558 H 0.02316 0.4195 0.90519 0.0
H1559 H 0.99852 0.36333 0.93416 0.0
H1560 H 0.96474 0.3551 0.92565 0.0
H1561 H 0.87716 0.31708 0.84405 0.0
H1562 H 0.90039 0.34856 0.85783 0.0
H1563 H 0.91569 0.31954 0.90169 0.0
H1564 H 0.89344 0.28816 0.88715 0.0
H1565 H 0.9473 0.35139 0.8918 0.0
H1566 H 0.88121 0.33504 0.90872 0.0
H1567 H 0.84682 0.32626 0.90249 0.0
H1568 H 0.86847 0.37964 0.86895 0.0
H1569 H 0.903 0.38862 0.87478 0.0
C1570 C 0.97304 0.42029 0.95354 0.0
C1571 C 0.97942 0.43929 0.94648 0.0
C1572 C 0.96291 0.40439 0.9416 0.0
C1573 C 0.95879 0.4072 0.92248 0.0
C1574 C 0.96515 0.42615 0.91538 0.0
C1575 C 0.97559 0.44213 0.92723 0.0
C1576 C 0.94724 0.39015 0.91023 0.0
C1577 C 0.92809 0.38515 0.90484 0.0
C1578 C 0.95429 0.37789 0.90542 0.0
C1579 C 0.9746 0.38275 0.91044 0.0
C1580 C 0.99129 0.40091 0.90467 0.0
C1581 C 0.01037 0.40548 0.90963 0.0
C1582 C 0.01297 0.39195 0.92027 0.0
C1583 C 0.99649 0.3738 0.92593 0.0
C1584 C 0.97737 0.36917 0.92102 0.0
C1585 C 0.88573 0.31741 0.85641 0.0
C1586 C 0.8836 0.30009 0.86442 0.0
C1587 C 0.89888 0.33544 0.86442 0.0
C1588 C 0.90958 0.33646 0.88105 0.0
C1589 C 0.90767 0.31922 0.88886 0.0
C1590 C 0.8949 0.30127 0.8806 0.0
C1591 C 0.92236 0.3553 0.8907 0.0
C1592 C 0.94179 0.36068 0.89565 0.0
C1593 C 0.91541 0.36773 0.89546 0.0
C1594 C 0.89467 0.36239 0.89201 0.0
C1595 C 0.87863 0.34484 0.89991 0.0
C1596 C 0.85911 0.33984 0.89646 0.0
C1597 C 0.85546 0.35236 0.88528 0.0
C1598 C 0.87132 0.36994 0.87757 0.0
C1599 C 0.89086 0.375 0.88095 0.0
H1600 H 0.84034 0.34846 0.88263 0.0
H1601 H 0.02775 0.39551 0.9241 0.0
H1602 H 0.99463 0.56182 0.98546 0.0
H1603 H 0.97904 0.57631 0.96634 0.0
H1604 H 0.96801 0.53656 0.92085 0.0
H1605 H 0.98382 0.52228 0.93995 0.0
H1606 H 0.98255 0.57315 0.90662 0.0
H1607 H 0.931 0.52895 0.95077 0.0
H1608 H 0.91605 0.51426 0.98267 0.0
H1609 H 0.92522 0.56913 2e-05 0.0
H1610 H 0.94058 0.58427 0.96833 0.0
H1611 H 0.9146 0.58788 0.85363 0.0
H1612 H 0.92938 0.57308 0.87325 0.0
H1613 H 0.94162 0.61396 0.91786 0.0
H1614 H 0.92653 0.62865 0.89834 0.0
H1615 H 0.92627 0.5767 0.93261 0.0
H1616 H 0.97821 0.62069 0.88786 0.0
H1617 H 0.99272 0.63466 0.85564 0.0
H1618 H 0.98191 0.57897 0.83901 0.0
H1619 H 0.96706 0.56459 0.87105 0.0
C1620 C 0.98881 0.55625 0.97138 0.0
C1621 C 0.99024 0.541 0.96406 0.0
C1622 C 0.97989 0.56443 0.96052 0.0
C1623 C 0.97219 0.55736 0.94226 0.0
C1624 C 0.97383 0.5422 0.9349 0.0
C1625 C 0.98277 0.53404 0.94577 0.0
C1626 C 0.96255 0.56588 0.93076 0.0
C1627 C 0.97008 0.5737 0.91221 0.0
C1628 C 0.94652 0.5669 0.93821 0.0
C1629 C 0.93713 0.5578 0.95723 0.0
C1630 C 0.92998 0.53794 0.96144 0.0
C1631 C 0.92142 0.52952 0.97948 0.0
C1632 C 0.91973 0.54077 0.99338 0.0
C1633 C 0.92657 0.56045 0.98925 0.0
C1634 C 0.9352 0.56895 0.97125 0.0
C1635 C 0.92031 0.5936 0.86769 0.0
C1636 C 0.9192 0.60925 0.87459 0.0
C1637 C 0.92884 0.58522 0.87883 0.0
C1638 C 0.93672 0.59252 0.89695 0.0
C1639 C 0.93557 0.60809 0.90393 0.0
C1640 C 0.927 0.61647 0.89279 0.0
C1641 C 0.94631 0.58401 0.90851 0.0
C1642 C 0.93876 0.57616 0.92706 0.0
C1643 C 0.96225 0.58285 0.90102 0.0
C1644 C 0.97136 0.59153 0.8818 0.0
C1645 C 0.9788 0.61139 0.87729 0.0
C1646 C 0.98711 0.61938 0.85906 0.0
C1647 C 0.9882 0.6077 0.84527 0.0
C1648 C 0.98104 0.588 0.8497 0.0
C1649 C 0.97269 0.57992 0.8679 0.0
H1650 H 0.99463 0.61391 0.83117 0.0
H1651 H 0.91308 0.53422 0.00733 0.0
H1652 H 0.46617 0.97755 0.44322 0.0
H1653 H 0.43744 0.96202 0.42182 0.0
H1654 H 0.3992 0.9571 0.46862 0.0
H1655 H 0.42802 0.973 0.48992 0.0
H1656 H 0.38413 0.9225 0.44695 0.0
H1657 H 0.41185 0.99164 0.43712 0.0
H1658 H 0.43887 0.02562 0.42983 0.0
H1659 H 0.44721 0.00949 0.37388 0.0
H1660 H 0.42048 0.9753 0.38099 0.0
H1661 H 0.29895 0.90407 0.39447 0.0
H1662 H 0.32776 0.91792 0.41563 0.0
H1663 H 0.36583 0.92719 0.36696 0.0
H1664 H 0.33702 0.91324 0.34575 0.0
H1665 H 0.3814 0.95921 0.38932 0.0
H1666 H 0.35431 0.89074 0.39818 0.0
H1667 H 0.32846 0.85622 0.40507 0.0
H1668 H 0.31986 0.87031 0.46193 0.0
H1669 H 0.34547 0.90501 0.45527 0.0
C1670 C 0.4516 0.97313 0.44885 0.0
C1671 C 0.44916 0.97642 0.46809 0.0
C1672 C 0.43526 0.96428 0.43669 0.0
C1673 C 0.41625 0.95849 0.44367 0.0
C1674 C 0.41375 0.96143 0.46302 0.0
C1675 C 0.43014 0.9705 0.47511 0.0
C1676 C 0.39905 0.94983 0.43061 0.0
C1677 C 0.38337 0.93058 0.43448 0.0
C1678 C 0.39841 0.96025 0.41409 0.0
C1679 C 0.4143 0.98086 0.40967 0.0
C1680 C 0.41956 0.9953 0.42332 0.0
C1681 C 0.43481 0.0146 0.41922 0.0
C1682 C 0.44479 0.0197 0.40142 0.0
C1683 C 0.43949 0.00551 0.38767 0.0
C1684 C 0.42429 0.98617 0.39173 0.0
C1685 C 0.31345 0.90896 0.38832 0.0
C1686 C 0.31573 0.90745 0.36849 0.0
C1687 C 0.32988 0.91684 0.40041 0.0
C1688 C 0.3489 0.92343 0.39288 0.0
C1689 C 0.35127 0.92216 0.37306 0.0
C1690 C 0.33483 0.91416 0.36099 0.0
C1691 C 0.36635 0.93186 0.40568 0.0
C1692 C 0.38211 0.95109 0.40177 0.0
C1693 C 0.36713 0.92135 0.42209 0.0
C1694 C 0.35165 0.90052 0.42614 0.0
C1695 C 0.34677 0.88652 0.41209 0.0
C1696 C 0.33219 0.86692 0.41596 0.0
C1697 C 0.32248 0.86109 0.4339 0.0
C1698 C 0.32737 0.87486 0.44802 0.0
C1699 C 0.34192 0.8945 0.44421 0.0
H1700 H 0.31121 0.8459 0.43689 0.0
H1701 H 0.45659 0.03466 0.39827 0.0
H1702 H 0.48471 0.45164 0.93458 0.0
H1703 H 0.47378 0.42481 0.91263 0.0
H1704 H 0.44075 0.38324 0.95922 0.0
H1705 H 0.45248 0.41017 0.98143 0.0
H1706 H 0.45804 0.36986 0.93931 0.0
H1707 H 0.41814 0.39649 0.9225 0.0
H1708 H 0.41131 0.42224 0.91324 0.0
H1709 H 0.44542 0.43488 0.86097 0.0
H1710 H 0.45267 0.40938 0.87004 0.0
H1711 H 0.39584 0.29113 0.87721 0.0
H1712 H 0.40814 0.31733 0.90029 0.0
H1713 H 0.45253 0.35738 0.85883 0.0
H1714 H 0.44064 0.33111 0.83583 0.0
H1715 H 0.42887 0.37087 0.87612 0.0
H1716 H 0.46794 0.34293 0.89404 0.0
H1717 H 0.4729 0.31607 0.90381 0.0
H1718 H 0.43733 0.30436 0.95484 0.0
H1719 H 0.43191 0.33099 0.94522 0.0
C1720 C 0.47501 0.43677 0.94007 0.0
C1721 C 0.46927 0.43293 0.95961 0.0
C1722 C 0.46871 0.42143 0.92752 0.0
C1723 C 0.45607 0.40197 0.93414 0.0
C1724 C 0.45044 0.39812 0.95374 0.0
C1725 C 0.45708 0.41347 0.9664 0.0
C1726 C 0.44897 0.38567 0.92064 0.0
C1727 C 0.45139 0.36998 0.92563 0.0
C1728 C 0.44055 0.38588 0.90261 0.0
C1729 C 0.43609 0.40114 0.89703 0.0
C1730 C 0.42429 0.40485 0.90909 0.0
C1731 C 0.42033 0.41939 0.90386 0.0
C1732 C 0.42797 0.43022 0.88655 0.0
C1733 C 0.43953 0.42649 0.87439 0.0
C1734 C 0.44355 0.41198 0.87955 0.0
C1735 C 0.40834 0.30547 0.87309 0.0
C1736 C 0.41723 0.3091 0.85468 0.0
C1737 C 0.41534 0.32039 0.88627 0.0
C1738 C 0.43121 0.33924 0.88122 0.0
C1739 C 0.44022 0.34291 0.86294 0.0
C1740 C 0.43343 0.32793 0.84985 0.0
C1741 C 0.43804 0.35527 0.89483 0.0
C1742 C 0.4355 0.37084 0.88984 0.0
C1743 C 0.44603 0.35478 0.91295 0.0
C1744 C 0.44935 0.33882 0.9188 0.0
C1745 C 0.46102 0.33452 0.90725 0.0
C1746 C 0.46395 0.31936 0.91278 0.0
C1747 C 0.45539 0.30848 0.92991 0.0
C1748 C 0.44393 0.31278 0.94157 0.0
C1749 C 0.44094 0.32792 0.93609 0.0
H1750 H 0.45768 0.29675 0.93417 0.0
H1751 H 0.42489 0.44148 0.88253 0.0
H1752 H 0.01052 0.44184 0.44907 0.0
H1753 H 0.0252 0.42909 0.42756 0.0
H1754 H 0.07977 0.48543 0.42501 0.0
H1755 H 0.06506 0.49838 0.44611 0.0
H1756 H 0.07012 0.46924 0.38975 0.0
H1757 H 0.07503 0.44937 0.45497 0.0
H1758 H 0.06203 0.43341 0.48697 0.0
H1759 H 0.0252 0.37819 0.46062 0.0
H1760 H 0.0378 0.39391 0.42841 0.0
H1761 H 0.1457 0.45018 0.36987 0.0
H1762 H 0.12309 0.45904 0.38322 0.0
H1763 H 0.07397 0.39982 0.37754 0.0
H1764 H 0.09658 0.3909 0.36383 0.0
H1765 H 0.07649 0.41414 0.41416 0.0
H1766 H 0.07532 0.43372 0.34903 0.0
H1767 H 0.08923 0.44999 0.31735 0.0
H1768 H 0.11968 0.50589 0.34354 0.0
H1769 H 0.10619 0.48993 0.37546 0.0
C1770 C 0.02554 0.45158 0.44369 0.0
C1771 C 0.03669 0.47108 0.4494 0.0
C1772 C 0.03395 0.44424 0.43152 0.0
C1773 C 0.05365 0.45626 0.42485 0.0
C1774 C 0.06456 0.47589 0.43002 0.0
C1775 C 0.0562 0.48322 0.44221 0.0
C1776 C 0.06328 0.4483 0.41316 0.0
C1777 C 0.0716 0.45725 0.39511 0.0
C1778 C 0.06474 0.43232 0.41994 0.0
C1779 C 0.05716 0.42285 0.43928 0.0
C1780 C 0.06403 0.43386 0.45599 0.0
C1781 C 0.05676 0.42486 0.47417 0.0
C1782 C 0.04274 0.40481 0.47582 0.0
C1783 C 0.03601 0.39373 0.45931 0.0
C1784 C 0.04322 0.40267 0.44109 0.0
C1785 C 0.13004 0.4391 0.37121 0.0
C1786 C 0.12292 0.41981 0.36593 0.0
C1787 C 0.11713 0.44419 0.37879 0.0
C1788 C 0.09685 0.4301 0.38131 0.0
C1789 C 0.08958 0.4109 0.3757 0.0
C1790 C 0.10248 0.40584 0.36789 0.0
C1791 C 0.08365 0.43531 0.39091 0.0
C1792 C 0.0747 0.42588 0.40862 0.0
C1793 C 0.08169 0.4509 0.38384 0.0
C1794 C 0.08985 0.4606 0.36467 0.0
C1795 C 0.08511 0.44947 0.34807 0.0
C1796 C 0.0929 0.45864 0.33006 0.0
C1797 C 0.10536 0.47896 0.32844 0.0
C1798 C 0.11003 0.49015 0.34482 0.0
C1799 C 0.1023 0.48105 0.36288 0.0
H1800 H 0.11137 0.48604 0.31448 0.0
H1801 H 0.03714 0.39787 0.48991 0.0
H1802 H 0.55457 0.05022 0.94895 0.0
H1803 H 0.58324 0.06384 0.92675 0.0
H1804 H 0.61177 0.04343 0.9657 0.0
H1805 H 0.58313 0.03007 0.988 0.0
H1806 H 0.63773 0.08036 0.95111 0.0
H1807 H 0.58839 0.01816 0.9266 0.0
H1808 H 0.55491 0.99365 0.91559 0.0
H1809 H 0.55984 0.03309 0.86961 0.0
H1810 H 0.59321 0.05799 0.88057 0.0
H1811 H 0.7108 0.09035 0.88454 0.0
H1812 H 0.6832 0.07722 0.90787 0.0
H1813 H 0.65103 0.09296 0.86853 0.0
H1814 H 0.67827 0.10551 0.84499 0.0
H1815 H 0.62704 0.05798 0.88385 0.0
H1816 H 0.67534 0.12046 0.90834 0.0
H1817 H 0.70828 0.14597 0.91961 0.0
H1818 H 0.70508 0.10711 0.96538 0.0
H1819 H 0.67222 0.08127 0.95422 0.0
C1820 C 0.56706 0.04879 0.9527 0.0
C1821 C 0.56683 0.03912 0.96995 0.0
C1822 C 0.58334 0.05648 0.94007 0.0
C1823 C 0.5995 0.0544 0.94448 0.0
C1824 C 0.59944 0.04514 0.96203 0.0
C1825 C 0.58315 0.03749 0.97468 0.0
C1826 C 0.61623 0.06147 0.93056 0.0
C1827 C 0.63547 0.07529 0.93647 0.0
C1828 C 0.61315 0.05513 0.91137 0.0
C1829 C 0.59325 0.04 0.9045 0.0
C1830 C 0.58229 0.02165 0.91421 0.0
C1831 C 0.56333 0.00769 0.90798 0.0
C1832 C 0.55524 0.01182 0.89193 0.0
C1833 C 0.56612 0.02991 0.88205 0.0
C1834 C 0.58506 0.04395 0.88826 0.0
C1835 C 0.69787 0.09109 0.88097 0.0
C1836 C 0.69691 0.09943 0.86319 0.0
C1837 C 0.68214 0.08365 0.8943 0.0
C1838 C 0.66521 0.08447 0.89011 0.0
C1839 C 0.664 0.09231 0.87214 0.0
C1840 C 0.67963 0.0996 0.85877 0.0
C1841 C 0.64862 0.07701 0.90433 0.0
C1842 C 0.62937 0.06306 0.89849 0.0
C1843 C 0.65168 0.08333 0.92355 0.0
C1844 C 0.67141 0.09886 0.93032 0.0
C1845 C 0.68173 0.1173 0.92072 0.0
C1846 C 0.70037 0.13183 0.9271 0.0
C1847 C 0.70879 0.12815 0.94317 0.0
C1848 C 0.69855 0.10994 0.95292 0.0
C1849 C 0.67991 0.09535 0.94658 0.0
H1850 H 0.72323 0.13942 0.94809 0.0
H1851 H 0.54056 0.00099 0.88714 0.0
H1852 H 0.55761 0.57915 0.48958 0.0
H1853 H 0.57312 0.60898 0.46892 0.0
H1854 H 0.52857 0.57864 0.42585 0.0
H1855 H 0.51321 0.54866 0.44655 0.0
H1856 H 0.56591 0.60006 0.4102 0.0
H1857 H 0.52633 0.61051 0.45492 0.0
H1858 H 0.51483 0.61238 0.48729 0.0
H1859 H 0.57383 0.6585 0.50087 0.0
H1860 H 0.58578 0.65667 0.4687 0.0
H1861 H 0.58423 0.68152 0.35226 0.0
H1862 H 0.56891 0.65241 0.37367 0.0
H1863 H 0.61232 0.6845 0.41709 0.0
H1864 H 0.62743 0.71392 0.39581 0.0
H1865 H 0.576 0.66244 0.43302 0.0
H1866 H 0.61608 0.65234 0.38953 0.0
H1867 H 0.62888 0.65048 0.35785 0.0
H1868 H 0.5706 0.60402 0.34269 0.0
H1869 H 0.55739 0.60579 0.37419 0.0
C1870 C 0.55115 0.579 0.47573 0.0
C1871 C 0.5342 0.5619 0.46958 0.0
C1872 C 0.55994 0.59597 0.46399 0.0
C1873 C 0.55183 0.59609 0.44597 0.0
C1874 C 0.53499 0.57886 0.43974 0.0
C1875 C 0.5262 0.56184 0.45151 0.0
C1876 C 0.56112 0.61415 0.43356 0.0
C1877 C 0.56785 0.61363 0.41506 0.0
C1878 C 0.56423 0.632 0.4402 0.0
C1879 C 0.55698 0.63334 0.45944 0.0
C1880 C 0.53689 0.62096 0.46485 0.0
C1881 C 0.53028 0.62202 0.48316 0.0
C1882 C 0.5436 0.63553 0.49614 0.0
C1883 C 0.56354 0.64804 0.49081 0.0
C1884 C 0.57023 0.64701 0.47253 0.0
C1885 C 0.59038 0.68242 0.36645 0.0
C1886 C 0.60681 0.70008 0.37253 0.0
C1887 C 0.58171 0.66575 0.37861 0.0
C1888 C 0.58957 0.66624 0.39691 0.0
C1889 C 0.60598 0.68383 0.40304 0.0
C1890 C 0.6146 0.70059 0.3909 0.0
C1891 C 0.58065 0.64832 0.40957 0.0
C1892 C 0.57403 0.64887 0.42813 0.0
C1893 C 0.5778 0.63053 0.40307 0.0
C1894 C 0.58572 0.62932 0.38416 0.0
C1895 C 0.60597 0.64182 0.37939 0.0
C1896 C 0.6133 0.64077 0.36147 0.0
C1897 C 0.60055 0.62718 0.34825 0.0
C1898 C 0.58045 0.61456 0.35294 0.0
C1899 C 0.57304 0.61557 0.37083 0.0
H1900 H 0.60625 0.62639 0.33438 0.0
H1901 H 0.53845 0.63632 0.51031 0.0
H1902 H 0.44235 0.02179 0.55708 0.0
H1903 H 0.42819 0.03673 0.57634 0.0
H1904 H 0.48718 0.08391 0.58953 0.0
H1905 H 0.50141 0.06914 0.57014 0.0
H1906 H 0.45996 0.06863 0.62193 0.0
H1907 H 0.46519 0.09281 0.55647 0.0
H1908 H 0.45984 0.08992 0.52139 0.0
H1909 H 0.3967 0.05738 0.531 0.0
H1910 H 0.4017 0.05982 0.5662 0.0
H1911 H 0.44792 0.14789 0.64322 0.0
H1912 H 0.45712 0.12553 0.63086 0.0
H1913 H 0.39547 0.08293 0.6208 0.0
H1914 H 0.38606 0.10497 0.63374 0.0
H1915 H 0.42104 0.09266 0.58807 0.0
H1916 H 0.41609 0.07175 0.65379 0.0
H1917 H 0.42181 0.07515 0.68878 0.0
H1918 H 0.48451 0.10194 0.67891 0.0
H1919 H 0.4792 0.09899 0.6438 0.0
C1920 C 0.45227 0.03524 0.56426 0.0
C1921 C 0.47296 0.04439 0.56208 0.0
C1922 C 0.44418 0.04376 0.57519 0.0
C1923 C 0.45667 0.06142 0.58429 0.0
C1924 C 0.47733 0.07025 0.58264 0.0
C1925 C 0.48541 0.0619 0.57148 0.0
C1926 C 0.44821 0.07123 0.59471 0.0
C1927 C 0.45156 0.07402 0.61455 0.0
C1928 C 0.43687 0.07781 0.5851 0.0
C1929 C 0.43381 0.07626 0.56397 0.0
C1930 C 0.45016 0.08485 0.55111 0.0
C1931 C 0.4472 0.08334 0.53121 0.0
C1932 C 0.42794 0.07341 0.52397 0.0
C1933 C 0.41161 0.06502 0.53663 0.0
C1934 C 0.4145 0.06647 0.55656 0.0
C1935 C 0.4363 0.13368 0.63854 0.0
C1936 C 0.41633 0.12847 0.63884 0.0
C1937 C 0.44157 0.12091 0.63157 0.0
C1938 C 0.42697 0.10267 0.62479 0.0
C1939 C 0.40694 0.09703 0.62583 0.0
C1940 C 0.40162 0.10969 0.63312 0.0
C1941 C 0.4329 0.09024 0.61531 0.0
C1942 C 0.42917 0.08703 0.59557 0.0
C1943 C 0.44393 0.08335 0.62503 0.0
C1944 C 0.44725 0.08533 0.64613 0.0
C1945 C 0.43112 0.07857 0.65905 0.0
C1946 C 0.43429 0.08037 0.67892 0.0
C1947 C 0.45352 0.0888 0.68606 0.0
C1948 C 0.46962 0.09543 0.67335 0.0
C1949 C 0.46654 0.09368 0.65346 0.0
H1950 H 0.45594 0.09016 0.70145 0.0
H1951 H 0.42568 0.07227 0.50855 0.0
H1952 H 0.43938 0.45584 0.04574 0.0
H1953 H 0.41011 0.443 0.06701 0.0
H1954 H 0.43379 0.50048 0.08936 0.0
H1955 H 0.46319 0.51322 0.06818 0.0
H1956 H 0.41909 0.47208 0.11801 0.0
H1957 H 0.39714 0.48311 0.05695 0.0
H1958 H 0.39168 0.48007 0.02189 0.0
H1959 H 0.35401 0.41775 0.02959 0.0
H1960 H 0.35952 0.42039 0.06468 0.0
H1961 H 0.33127 0.45282 0.16553 0.0
H1962 H 0.36015 0.4665 0.14381 0.0
H1963 H 0.33627 0.41014 0.1188 0.0
H1964 H 0.30711 0.39651 0.14021 0.0
H1965 H 0.35112 0.43848 0.0913 0.0
H1966 H 0.3734 0.42694 0.15182 0.0
H1967 H 0.37916 0.42936 0.18687 0.0
H1968 H 0.41629 0.49182 0.18023 0.0
H1969 H 0.41052 0.4898 0.14516 0.0
C1970 C 0.43823 0.46564 0.05524 0.0
C1971 C 0.4533 0.48545 0.05541 0.0
C1972 C 0.42156 0.45836 0.06729 0.0
C1973 C 0.41968 0.47084 0.07961 0.0
C1974 C 0.43494 0.49063 0.07995 0.0
C1975 C 0.45162 0.4979 0.06787 0.0
C1976 C 0.40179 0.46322 0.09214 0.0
C1977 C 0.40424 0.46499 0.11216 0.0
C1978 C 0.3824 0.45354 0.08452 0.0
C1979 C 0.37889 0.45194 0.06343 0.0
C1980 C 0.38781 0.46874 0.05116 0.0
C1981 C 0.38469 0.46709 0.03128 0.0
C1982 C 0.37254 0.44872 0.02351 0.0
C1983 C 0.36344 0.43197 0.03562 0.0
C1984 C 0.36655 0.43353 0.05551 0.0
C1985 C 0.33206 0.44343 0.1552 0.0
C1986 C 0.31675 0.42368 0.15429 0.0
C1987 C 0.34864 0.45121 0.14292 0.0
C1988 C 0.35045 0.43931 0.12977 0.0
C1989 C 0.33515 0.41962 0.12877 0.0
C1990 C 0.31851 0.41185 0.14098 0.0
C1991 C 0.3684 0.44732 0.1172 0.0
C1992 C 0.36596 0.44562 0.09716 0.0
C1993 C 0.3878 0.45698 0.12481 0.0
C1994 C 0.39136 0.45823 0.14589 0.0
C1995 C 0.38267 0.44121 0.15786 0.0
C1996 C 0.38595 0.4425 0.17772 0.0
C1997 C 0.39804 0.46073 0.18578 0.0
C1998 C 0.40691 0.47771 0.17397 0.0
C1999 C 0.40365 0.4765 0.1541 0.0
H2000 H 0.40057 0.46171 0.20116 0.0
H2001 H 0.37014 0.44748 0.00812 0.0
H2002 H 0.97092 0.42169 0.52868 0.0
H2003 H 0.95406 0.39252 0.55041 0.0
H2004 H 0.94785 0.42658 0.59348 0.0
H2005 H 0.96453 0.45558 0.57167 0.0
H2006 H 0.96327 0.38487 0.58586 0.0
H2007 H 0.90314 0.39823 0.61629 0.0
H2008 H 0.88409 0.41303 0.60531 0.0
H2009 H 0.89151 0.40281 0.54646 0.0
H2010 H 0.91027 0.38765 0.55709 0.0
H2011 H 0.92136 0.32665 0.67109 0.0
H2012 H 0.93734 0.35312 0.64666 0.0
H2013 H 0.88293 0.32693 0.6145 0.0
H2014 H 0.86647 0.30147 0.63953 0.0
H2015 H 0.89681 0.36281 0.61371 0.0
H2016 H 0.92629 0.32517 0.60145 0.0
H2017 H 0.94397 0.30821 0.60953 0.0
H2018 H 0.99494 0.36235 0.62643 0.0
H2019 H 0.97747 0.37959 0.61868 0.0
C2020 C 0.96585 0.42278 0.54279 0.0
C2021 C 0.96876 0.4406 0.54863 0.0
C2022 C 0.95636 0.40624 0.55518 0.0
C2023 C 0.94957 0.40737 0.57347 0.0
C2024 C 0.95274 0.42534 0.57933 0.0
C2025 C 0.96224 0.44184 0.56697 0.0
C2026 C 0.93905 0.38979 0.58647 0.0
C2027 C 0.94871 0.37996 0.59193 0.0
C2028 C 0.91988 0.38317 0.594 0.0
C2029 C 0.9083 0.39198 0.5875 0.0
C2030 C 0.90062 0.39906 0.60102 0.0
C2031 C 0.88988 0.40752 0.59485 0.0
C2032 C 0.88665 0.40892 0.5752 0.0
C2033 C 0.89408 0.40178 0.56167 0.0
C2034 C 0.90478 0.39327 0.56776 0.0
C2035 C 0.91279 0.32661 0.65885 0.0
C2036 C 0.89262 0.31192 0.65742 0.0
C2037 C 0.92201 0.34163 0.64475 0.0
C2038 C 0.91148 0.3419 0.62849 0.0
C2039 C 0.89141 0.32711 0.62689 0.0
C2040 C 0.88203 0.31241 0.64124 0.0
C2041 C 0.92111 0.3579 0.61346 0.0
C2042 C 0.91131 0.36753 0.60761 0.0
C2043 C 0.9399 0.36394 0.60514 0.0
C2044 C 0.95051 0.35364 0.60961 0.0
C2045 C 0.94123 0.33344 0.60698 0.0
C2046 C 0.95122 0.32378 0.61149 0.0
C2047 C 0.97055 0.33419 0.61852 0.0
C2048 C 0.97996 0.3543 0.621 0.0
C2049 C 0.97004 0.36403 0.61652 0.0
H2050 H 0.97825 0.32668 0.62202 0.0
H2051 H 0.87835 0.41549 0.57045 0.0
H2052 H 0.57114 0.99448 0.06568 0.0
H2053 H 0.58382 0.97851 0.08675 0.0
H2054 H 0.52641 0.92504 0.08698 0.0
H2055 H 0.51367 0.9409 0.06582 0.0
H2056 H 0.54327 0.93718 0.12418 0.0
H2057 H 0.56106 0.92661 0.06146 0.0
H2058 H 0.57647 0.93664 0.02901 0.0
H2059 H 0.63364 0.97358 0.054 0.0
H2060 H 0.61852 0.96399 0.08662 0.0
H2061 H 0.56956 0.87509 0.17098 0.0
H2062 H 0.55713 0.88959 0.14795 0.0
H2063 H 0.61678 0.93875 0.13801 0.0
H2064 H 0.62943 0.92376 0.16042 0.0
H2065 H 0.59861 0.92875 0.10524 0.0
H2066 H 0.58221 0.94089 0.16736 0.0
H2067 H 0.56788 0.93266 0.20029 0.0
H2068 H 0.50968 0.8954 0.17746 0.0
H2069 H 0.5237 0.9032 0.14439 0.0
C2070 C 0.56125 0.97932 0.07022 0.0
C2071 C 0.54144 0.9689 0.06414 0.0
C2072 C 0.56852 0.97021 0.08215 0.0
C2073 C 0.55605 0.9506 0.08832 0.0
C2074 C 0.53625 0.94018 0.08232 0.0
C2075 C 0.52904 0.9492 0.07018 0.0
C2076 C 0.56356 0.94112 0.10143 0.0
C2077 C 0.55517 0.93506 0.12 0.0
C2078 C 0.5795 0.93898 0.09608 0.0
C2079 C 0.58862 0.94474 0.07648 0.0
C2080 C 0.57689 0.93701 0.06004 0.0
C2081 C 0.58558 0.94259 0.04161 0.0
C2082 C 0.60601 0.95578 0.03944 0.0
C2083 C 0.61781 0.96338 0.0557 0.0
C2084 C 0.60919 0.95787 0.07416 0.0
C2085 C 0.58009 0.88883 0.16365 0.0
C2086 C 0.60057 0.8981 0.16716 0.0
C2087 C 0.57293 0.89723 0.15065 0.0
C2088 C 0.58598 0.91539 0.14139 0.0
C2089 C 0.60642 0.92469 0.14491 0.0
C2090 C 0.61363 0.91615 0.1577 0.0
C2091 C 0.57832 0.92472 0.12813 0.0
C2092 C 0.58669 0.93082 0.1095 0.0
C2093 C 0.56253 0.92717 0.13353 0.0
C2094 C 0.55404 0.92248 0.15341 0.0
C2095 C 0.56638 0.93083 0.16937 0.0
C2096 C 0.55831 0.92626 0.18806 0.0
C2097 C 0.53789 0.91348 0.19097 0.0
C2098 C 0.52549 0.90528 0.17519 0.0
C2099 C 0.53349 0.90978 0.15646 0.0
H2100 H 0.53167 0.90996 0.20545 0.0
H2101 H 0.61271 0.96007 0.02516 0.0
H2102 H 0.59391 0.52771 0.55732 0.0
H2103 H 0.62191 0.54041 0.57955 0.0
H2104 H 0.59862 0.57031 0.60989 0.0
H2105 H 0.57096 0.55805 0.58719 0.0
H2106 H 0.63846 0.5928 0.60576 0.0
H2107 H 0.59075 0.52581 0.62662 0.0
H2108 H 0.56947 0.49039 0.62171 0.0
H2109 H 0.62075 0.48812 0.60665 0.0
H2110 H 0.64231 0.52358 0.61124 0.0
H2111 H 0.69224 0.61 0.69223 0.0
H2112 H 0.66673 0.60014 0.66773 0.0
H2113 H 0.68568 0.56418 0.64242 0.0
H2114 H 0.71002 0.57268 0.66762 0.0
H2115 H 0.6484 0.54504 0.64314 0.0
H2116 H 0.69654 0.61087 0.62219 0.0
H2117 H 0.71876 0.64645 0.6254 0.0
H2118 H 0.66867 0.65143 0.6385 0.0
H2119 H 0.64617 0.61584 0.6356 0.0
C2120 C 0.59497 0.53713 0.56868 0.0
C2121 C 0.58046 0.54194 0.57077 0.0
C2122 C 0.61084 0.5443 0.58137 0.0
C2123 C 0.61215 0.55603 0.59656 0.0
C2124 C 0.59786 0.56125 0.59829 0.0
C2125 C 0.5821 0.55425 0.58544 0.0
C2126 C 0.62803 0.56235 0.61102 0.0
C2127 C 0.64055 0.58238 0.6141 0.0
C2128 C 0.63105 0.54876 0.62149 0.0
C2129 C 0.61811 0.52736 0.61915 0.0
C2130 C 0.59747 0.51776 0.62219 0.0
C2131 C 0.58536 0.49768 0.61946 0.0
C2132 C 0.59375 0.48702 0.61384 0.0
C2133 C 0.61427 0.4964 0.611 0.0
C2134 C 0.62644 0.51648 0.61369 0.0
C2135 C 0.69088 0.59992 0.68147 0.0
C2136 C 0.7032 0.59218 0.682 0.0
C2137 C 0.67645 0.59447 0.66732 0.0
C2138 C 0.67448 0.58168 0.65295 0.0
C2139 C 0.68689 0.57408 0.65332 0.0
C2140 C 0.70095 0.57909 0.66775 0.0
C2141 C 0.65904 0.57561 0.63795 0.0
C2142 C 0.64649 0.55556 0.63478 0.0
C2143 C 0.6562 0.58923 0.62722 0.0
C2144 C 0.66969 0.61066 0.62883 0.0
C2145 C 0.69028 0.61954 0.62587 0.0
C2146 C 0.70292 0.63971 0.62761 0.0
C2147 C 0.69514 0.65119 0.63219 0.0
C2148 C 0.67468 0.64252 0.63497 0.0
C2149 C 0.66198 0.62236 0.63325 0.0
H2150 H 0.70495 0.6668 0.63355 0.0
H2151 H 0.58435 0.47148 0.61171 0.0
H2152 H 0.05655 0.56204 0.08287 0.0
H2153 H 0.07133 0.58902 0.10505 0.0
H2154 H 0.08548 0.63011 0.05716 0.0
H2155 H 0.07133 0.60313 0.03486 0.0
H2156 H 0.1148 0.64489 0.08098 0.0
H2157 H 0.04429 0.61439 0.0882 0.0
H2158 H 0.00982 0.58715 0.09408 0.0
H2159 H 0.02536 0.5767 0.15065 0.0
H2160 H 0.06001 0.60373 0.14501 0.0
H2161 H 0.12294 0.72293 0.13535 0.0
H2162 H 0.11198 0.69601 0.11334 0.0
H2163 H 0.11036 0.65884 0.16045 0.0
H2164 H 0.12175 0.68585 0.18248 0.0
H2165 H 0.0753 0.64216 0.13765 0.0
H2166 H 0.14616 0.67444 0.12984 0.0
H2167 H 0.17996 0.70267 0.12333 0.0
H2168 H 0.16256 0.71101 0.06686 0.0
H2169 H 0.12855 0.68298 0.07314 0.0
C2170 C 0.06285 0.57685 0.07711 0.0
C2171 C 0.06269 0.58053 0.0572 0.0
C2172 C 0.07124 0.59225 0.08979 0.0
C2173 C 0.07916 0.6116 0.08285 0.0
C2174 C 0.07943 0.61532 0.06288 0.0
C2175 C 0.07134 0.59992 0.05015 0.0
C2176 C 0.08689 0.6279 0.09642 0.0
C2177 C 0.10604 0.64436 0.09322 0.0
C2178 C 0.07564 0.62715 0.11263 0.0
C2179 C 0.05479 0.61096 0.1161 0.0
C2180 C 0.04039 0.6062 0.10184 0.0
C2181 C 0.02081 0.59081 0.10514 0.0
C2182 C 0.01541 0.58017 0.12271 0.0
C2183 C 0.02957 0.58494 0.13704 0.0
C2184 C 0.04918 0.6003 0.13381 0.0
C2185 C 0.12039 0.70907 0.14098 0.0
C2186 C 0.12312 0.70647 0.16065 0.0
C2187 C 0.11416 0.69373 0.12841 0.0
C2188 C 0.11041 0.67549 0.1353 0.0
C2189 C 0.11315 0.67282 0.15489 0.0
C2190 C 0.11964 0.68823 0.16743 0.0
C2191 C 0.10309 0.65902 0.12213 0.0
C2192 C 0.08402 0.64258 0.12541 0.0
C2193 C 0.11429 0.65992 0.10588 0.0
C2194 C 0.13475 0.67672 0.10204 0.0
C2195 C 0.14949 0.68239 0.1161 0.0
C2196 C 0.1687 0.69834 0.11244 0.0
C2197 C 0.1734 0.70866 0.09471 0.0
C2198 C 0.1589 0.70302 0.08059 0.0
C2199 C 0.13965 0.68709 0.08419 0.0
H2200 H 0.18828 0.721 0.0919 0.0
H2201 H 0.00025 0.56826 0.12524 0.0
loop_
_geom_bond_atom_site_label_1
_geom_bond_atom_site_label_2
_geom_bond_distance
_geom_bond_site_symmetry_2
_ccdc_geom_bond_type
C0 C1 1.443 . S
C0 N4 1.376 1_556 S
C0 C38 1.389 . S
C1 C0 1.443 . S
C1 C2 1.340 1_556 S
C1 H41 0.951 . S
C2 C1 1.340 1_554 S
C2 C3 1.439 . S
C2 H42 0.950 . S
C3 C2 1.439 . S
C3 N4 1.374 . S
C3 C37 1.395 . S
N4 C0 1.376 1_554 S
N4 C3 1.374 . S
N4 Co5 2.008 1_655 S
Co5 N4 2.008 1_455 S
Co5 N6 1.995 . S
Co5 N11 2.008 . S
Co5 N16 1.995 1_554 S
Co5 N21 2.282 . S
Co5 N27 2.282 1_554 S
N6 Co5 1.995 . S
N6 C7 1.376 1_455 S
N6 C10 1.383 . S
C7 N6 1.376 1_655 S
C7 C8 1.446 . S
C7 C37 1.391 . S
C8 C7 1.446 . S
C8 C9 1.339 1_655 S
C8 H43 0.949 . S
C9 C8 1.339 1_455 S
C9 C10 1.439 . S
C9 H44 0.950 . S
C10 N6 1.383 . S
C10 C9 1.439 . S
C10 C39 1.392 . S
N11 Co5 2.008 . S
N11 C12 1.376 . S
N11 C15 1.374 1_554 S
C12 N11 1.376 . S
C12 C13 1.443 . S
C12 C39 1.389 . S
C13 C12 1.443 . S
C13 C14 1.340 1_554 S
C13 H45 0.951 . S
C14 C13 1.340 1_556 S
C14 C15 1.439 . S
C14 H46 0.950 . S
C15 N11 1.374 1_556 S
C15 C14 1.439 . S
C15 C40 1.395 . S
N16 Co5 1.995 1_556 S
N16 C17 1.376 . S
N16 C20 1.383 . S
C17 N16 1.376 . S
C17 C18 1.446 . S
C17 C40 1.391 . S
C18 C17 1.446 . S
C18 C19 1.339 . S
C18 H47 0.949 . S
C19 C18 1.339 . S
C19 C20 1.439 . S
C19 H48 0.950 . S
C20 N16 1.383 . S
C20 C19 1.439 . S
C20 C38 1.392 1_455 S
N21 Co5 2.282 . S
N21 C24 1.332 . S
N21 C26 1.332 . S
C22 C23 1.386 . S
C22 C25 1.388 . S
C23 C22 1.386 . S
C23 C24 1.382 . S
C23 H49 0.950 . S
C24 N21 1.332 . S
C24 C23 1.382 . S
C24 H35 0.952 . S
C25 C22 1.388 . S
C25 C26 1.382 . S
C25 H50 0.950 . S
C26 N21 1.332 . S
C26 C25 1.382 . S
C26 H36 0.948 . S
N27 Co5 2.282 1_556 S
N27 C31 1.332 1_455 S
N27 C32 1.332 . S
C28 C29 1.388 1_455 S
C28 C32 1.382 . S
C28 H51 0.950 . S
C29 C28 1.388 1_655 S
C29 C30 1.386 . S
C30 C29 1.386 . S
C30 C31 1.382 . S
C30 H52 0.950 . S
C31 N27 1.332 1_655 S
C31 C30 1.382 . S
C31 H33 0.903 1_556 S
C32 N27 1.332 . S
C32 C28 1.382 . S
C32 H34 0.948 . S
H33 C31 0.903 1_554 S
H34 C32 0.948 . S
H35 C24 0.952 . S
H36 C26 0.948 . S
C37 C3 1.395 . S
C37 C7 1.391 . S
C38 C0 1.389 . S
C38 C20 1.392 1_655 S
C39 C10 1.392 . S
C39 C12 1.389 . S
C40 C15 1.395 . S
C40 C17 1.391 . S
H41 C1 0.951 . S
H42 C2 0.950 . S
H43 C8 0.949 . S
H44 C9 0.950 . S
H45 C13 0.951 . S
H46 C14 0.950 . S
H47 C18 0.949 . S
H48 C19 0.950 . S
H49 C23 0.950 . S
H50 C25 0.950 . S
H51 C28 0.950 . S
H52 C30 0.950 . S
C53 C54 1.443 . S
C53 N57 1.396 . S
C53 C91 1.389 . S
C54 C53 1.443 . S
C54 C55 1.340 1_545 S
C54 H94 0.951 . S
C55 C54 1.340 1_565 S
C55 C56 1.439 . S
C55 H95 0.950 . S
C56 C55 1.439 . S
C56 N57 1.338 1_565 S
C56 C90 1.395 . S
N57 C53 1.396 . S
N57 C56 1.338 1_545 S
N57 Co58 2.032 . S
Co58 N57 2.032 . S
Co58 N59 1.995 1_545 S
Co58 N64 2.008 . S
Co58 N69 1.995 . S
Co58 N74 2.282 1_545 S
Co58 N80 2.282 . S
N59 Co58 1.995 1_565 S
N59 C60 1.376 . S
N59 C63 1.383 . S
C60 N59 1.376 . S
C60 C61 1.446 . S
C60 C90 1.391 . S
C61 C60 1.446 . S
C61 C62 1.339 . S
C61 H96 0.949 . S
C62 C61 1.339 . S
C62 C63 1.439 . S
C62 H97 0.950 . S
C63 N59 1.383 . S
C63 C62 1.439 . S
C63 C92 1.392 . S
N64 Co58 2.008 . S
N64 C65 1.389 . S
N64 C68 1.374 . S
C65 N64 1.389 . S
C65 C66 1.461 . S
C65 C92 1.362 1_545 S
C66 C65 1.461 . S
C66 C67 1.340 . S
C66 H98 0.951 . S
C67 C66 1.340 . S
C67 C68 1.439 . S
C67 H99 0.950 . S
C68 N64 1.374 . S
C68 C67 1.439 . S
C68 C93 1.395 . S
N69 Co58 1.995 . S
N69 C70 1.376 . S
N69 C73 1.383 . S
C70 N69 1.376 . S
C70 C71 1.446 . S
C70 C93 1.391 . S
C71 C70 1.446 . S
C71 C72 1.339 . S
C71 H100 0.949 . S
C72 C71 1.339 . S
C72 C73 1.439 . S
C72 H101 0.950 . S
C73 N69 1.383 . S
C73 C72 1.439 . S
C73 C91 1.392 . S
N74 Co58 2.282 1_565 S
N74 C77 1.329 1_565 S
N74 C79 1.332 . S
C75 C76 1.386 . S
C75 C78 1.388 . S
C76 C75 1.386 . S
C76 C77 1.362 1_565 S
C76 H102 0.950 . S
C77 N74 1.329 1_545 S
C77 C76 1.362 1_545 S
C77 H88 0.977 . S
C78 C75 1.388 . S
C78 C79 1.382 . S
C78 H103 0.950 . S
C79 N74 1.332 . S
C79 C78 1.382 . S
C79 H89 0.948 . S
N80 Co58 2.282 . S
N80 C84 1.332 . S
N80 C85 1.332 . S
C81 C82 1.388 . S
C81 C85 1.382 . S
C81 H104 0.950 . S
C82 C81 1.388 . S
C82 C83 1.386 . S
C83 C82 1.386 . S
C83 C84 1.382 . S
C83 H105 0.950 . S
C84 N80 1.332 . S
C84 C83 1.382 . S
C84 H86 0.955 1_545 S
C85 N80 1.332 . S
C85 C81 1.382 . S
C85 H87 0.948 . S
H86 C84 0.955 1_565 S
H87 C85 0.948 . S
H88 C77 0.977 . S
H89 C79 0.948 . S
C90 C56 1.395 . S
C90 C60 1.391 . S
C91 C53 1.389 . S
C91 C73 1.392 . S
C92 C63 1.392 . S
C92 C65 1.362 1_565 S
C93 C68 1.395 . S
C93 C70 1.391 . S
H94 C54 0.951 . S
H95 C55 0.950 . S
H96 C61 0.949 . S
H97 C62 0.950 . S
H98 C66 0.951 . S
H99 C67 0.950 . S
H100 C71 0.949 . S
H101 C72 0.950 . S
H102 C76 0.950 . S
H103 C78 0.950 . S
H104 C81 0.950 . S
H105 C83 0.950 . S
C106 C107 1.443 . S
C106 N110 1.376 . S
C106 C144 1.389 . S
C107 C106 1.443 . S
C107 C108 1.340 . S
C107 H147 0.951 . S
C108 C107 1.340 . S
C108 C109 1.439 . S
C108 H148 0.950 . S
C109 C108 1.439 . S
C109 N110 1.374 . S
C109 C143 1.395 . S
N110 C106 1.376 . S
N110 C109 1.374 . S
N110 Co111 2.008 1_556 S
Co111 N110 2.008 1_554 S
Co111 N112 1.995 . S
Co111 N117 2.008 . S
Co111 N122 1.995 . S
Co111 N127 2.282 . S
Co111 N133 2.282 1_554 S
N112 Co111 1.995 . S
N112 C113 1.376 1_554 S
N112 C116 1.383 . S
C113 N112 1.376 1_556 S
C113 C114 1.446 1_556 S
C113 C143 1.391 . S
C114 C113 1.446 1_554 S
C114 C115 1.339 . S
C114 H149 0.949 1_554 S
C115 C114 1.339 . S
C115 C116 1.439 . S
C115 H150 0.950 . S
C116 N112 1.383 . S
C116 C115 1.439 . S
C116 C145 1.392 . S
N117 Co111 2.008 . S
N117 C118 1.376 . S
N117 C121 1.374 . S
C118 N117 1.376 . S
C118 C119 1.443 . S
C118 C145 1.389 . S
C119 C118 1.443 . S
C119 C120 1.340 . S
C119 H151 0.951 . S
C120 C119 1.340 . S
C120 C121 1.439 . S
C120 H152 0.950 . S
C121 N117 1.374 . S
C121 C120 1.439 . S
C121 C146 1.395 . S
N122 Co111 1.995 . S
N122 C123 1.376 . S
N122 C126 1.383 . S
C123 N122 1.376 . S
C123 C124 1.446 . S
C123 C146 1.391 . S
C124 C123 1.446 . S
C124 C125 1.339 . S
C124 H153 0.949 . S
C125 C124 1.339 . S
C125 C126 1.439 . S
C125 H154 0.950 . S
C126 N122 1.383 . S
C126 C125 1.439 . S
C126 C144 1.392 1_554 S
N127 Co111 2.282 . S
N127 C130 1.332 . S
N127 C132 1.332 . S
C128 C129 1.386 . S
C128 C131 1.388 . S
C129 C128 1.386 . S
C129 C130 1.382 . S
C129 H155 0.950 . S
C130 N127 1.332 . S
C130 C129 1.382 . S
C130 H141 0.952 . S
C131 C128 1.388 . S
C131 C132 1.382 . S
C131 H156 0.950 . S
C132 N127 1.332 . S
C132 C131 1.382 . S
C132 H142 0.948 . S
N133 Co111 2.282 1_556 S
N133 C137 1.332 . S
N133 C138 1.332 . S
C134 C135 1.388 . S
C134 C138 1.382 . S
C134 H157 0.950 . S
C135 C134 1.388 . S
C135 C136 1.386 . S
C136 C135 1.386 . S
C136 C137 1.382 . S
C136 H158 0.950 . S
C137 N133 1.332 . S
C137 C136 1.382 . S
C137 H139 0.952 . S
C138 N133 1.332 . S
C138 C134 1.382 . S
C138 H140 0.948 1_556 S
H139 C137 0.952 . S
H140 C138 0.948 1_554 S
H141 C130 0.952 . S
H142 C132 0.948 . S
C143 C109 1.395 . S
C143 C113 1.391 . S
C144 C106 1.389 . S
C144 C126 1.392 1_556 S
C145 C116 1.392 . S
C145 C118 1.389 . S
C146 C121 1.395 . S
C146 C123 1.391 . S
H147 C107 0.951 . S
H148 C108 0.950 . S
H149 C114 0.949 1_556 S
H150 C115 0.950 . S
H151 C119 0.951 . S
H152 C120 0.950 . S
H153 C124 0.949 . S
H154 C125 0.950 . S
H155 C129 0.950 . S
H156 C131 0.950 . S
H157 C134 0.950 . S
H158 C136 0.950 . S
C159 C160 1.443 . S
C159 N163 1.376 . S
C159 C197 1.389 . S
C160 C159 1.443 . S
C160 C161 1.340 . S
C160 H200 0.951 . S
C161 C160 1.340 . S
C161 C162 1.439 . S
C161 H201 0.950 . S
C162 C161 1.439 . S
C162 N163 1.374 . S
C162 C196 1.395 . S
N163 C159 1.376 . S
N163 C162 1.374 . S
N163 Co164 1.970 1_655 S
Co164 N163 1.970 1_455 S
Co164 N165 1.964 1_455 S
Co164 N170 2.048 . S
Co164 N175 2.026 . S
Co164 N180 2.328 . S
Co164 N186 2.238 1_455 S
N165 Co164 1.964 1_655 S
N165 C166 1.376 . S
N165 C169 1.383 1_655 S
C166 N165 1.376 . S
C166 C167 1.446 . S
C166 C196 1.391 . S
C167 C166 1.446 . S
C167 C168 1.339 . S
C167 H202 0.949 . S
C168 C167 1.339 . S
C168 C169 1.439 1_655 S
C168 H203 0.950 1_655 S
C169 N165 1.383 1_455 S
C169 C168 1.439 1_455 S
C169 C198 1.392 . S
N170 Co164 2.048 . S
N170 C171 1.376 . S
N170 C174 1.374 . S
C171 N170 1.376 . S
C171 C172 1.443 . S
C171 C198 1.389 . S
C172 C171 1.443 . S
C172 C173 1.340 . S
C172 H204 0.951 . S
C173 C172 1.340 . S
C173 C174 1.439 . S
C173 H205 0.950 . S
C174 N170 1.374 . S
C174 C173 1.439 . S
C174 C199 1.395 . S
N175 Co164 2.026 . S
N175 C176 1.376 . S
N175 C179 1.383 1_455 S
C176 N175 1.376 . S
C176 C177 1.446 . S
C176 C199 1.391 . S
C177 C176 1.446 . S
C177 C178 1.339 . S
C177 H206 0.949 . S
C178 C177 1.339 . S
C178 C179 1.439 1_455 S
C178 H207 0.950 1_455 S
C179 N175 1.383 1_655 S
C179 C178 1.439 1_655 S
C179 C197 1.392 . S
N180 Co164 2.328 . S
N180 C183 1.332 . S
N180 C185 1.332 . S
C181 C182 1.386 . S
C181 C184 1.388 . S
C182 C181 1.386 . S
C182 C183 1.382 . S
C182 H208 0.950 . S
C183 N180 1.332 . S
C183 C182 1.382 . S
C183 H194 0.952 . S
C184 C181 1.388 . S
C184 C185 1.382 . S
C184 H209 0.950 . S
C185 N180 1.332 . S
C185 C184 1.382 . S
C185 H195 0.948 1_455 S
N186 Co164 2.238 1_655 S
N186 C190 1.332 . S
N186 C191 1.332 . S
C187 C188 1.388 . S
C187 C191 1.382 . S
C187 H210 0.950 . S
C188 C187 1.388 . S
C188 C189 1.386 . S
C189 C188 1.386 . S
C189 C190 1.382 . S
C189 H211 0.950 . S
C190 N186 1.332 . S
C190 C189 1.382 . S
C190 H192 0.952 . S
C191 N186 1.332 . S
C191 C187 1.382 . S
C191 H193 0.948 1_655 S
H192 C190 0.952 . S
H193 C191 0.948 1_455 S
H194 C183 0.952 . S
H195 C185 0.948 1_655 S
C196 C162 1.395 . S
C196 C166 1.391 . S
C197 C159 1.389 . S
C197 C179 1.392 . S
C198 C169 1.392 . S
C198 C171 1.389 . S
C199 C174 1.395 . S
C199 C176 1.391 . S
H200 C160 0.951 . S
H201 C161 0.950 . S
H202 C167 0.949 . S
H203 C168 0.950 1_455 S
H204 C172 0.951 . S
H205 C173 0.950 . S
H206 C177 0.949 . S
H207 C178 0.950 1_655 S
H208 C182 0.950 . S
H209 C184 0.950 . S
H210 C187 0.950 . S
H211 C189 0.950 . S
C212 C213 1.443 . S
C212 N216 1.376 . S
C212 C250 1.389 1_545 S
C213 C212 1.443 . S
C213 C214 1.340 . S
C213 H253 0.951 . S
C214 C213 1.340 . S
C214 C215 1.439 . S
C214 H254 0.950 . S
C215 C214 1.439 . S
C215 N216 1.374 . S
C215 C249 1.395 . S
N216 C212 1.376 . S
N216 C215 1.374 . S
N216 Co217 2.008 . S
Co217 N216 2.008 . S
Co217 N218 1.995 . S
Co217 N223 2.008 1_554 S
Co217 N228 1.995 1_545 S
Co217 N233 2.282 1_554 S
Co217 N239 2.282 1_545 S
N218 Co217 1.995 . S
N218 C219 1.376 . S
N218 C222 1.361 1_554 S
C219 N218 1.376 . S
C219 C220 1.446 . S
C219 C249 1.391 . S
C220 C219 1.446 . S
C220 C221 1.339 . S
C220 H255 0.949 . S
C221 C220 1.339 . S
C221 C222 1.431 1_554 S
C221 H256 0.950 1_554 S
C222 N218 1.361 1_556 S
C222 C221 1.431 1_556 S
C222 C251 1.418 . S
N223 Co217 2.008 1_556 S
N223 C224 1.376 . S
N223 C227 1.374 1_545 S
C224 N223 1.376 . S
C224 C225 1.443 . S
C224 C251 1.389 . S
C225 C224 1.443 . S
C225 C226 1.340 1_545 S
C225 H257 0.951 . S
C226 C225 1.340 1_565 S
C226 C227 1.439 . S
C226 H258 0.950 . S
C227 N223 1.374 1_565 S
C227 C226 1.439 . S
C227 C252 1.395 . S
N228 Co217 1.995 1_565 S
N228 C229 1.380 1_554 S
N228 C232 1.383 . S
C229 N228 1.380 1_556 S
C229 C230 1.448 1_556 S
C229 C252 1.387 . S
C230 C229 1.448 1_554 S
C230 C231 1.339 . S
C230 H259 0.929 1_554 S
C231 C230 1.339 . S
C231 C232 1.439 . S
C231 H260 0.950 . S
C232 N228 1.383 . S
C232 C231 1.439 . S
C232 C250 1.392 . S
N233 Co217 2.282 1_556 S
N233 C236 1.332 . S
N233 C238 1.332 . S
C234 C235 1.386 . S
C234 C237 1.388 . S
C235 C234 1.386 . S
C235 C236 1.382 . S
C235 H261 0.950 . S
C236 N233 1.332 . S
C236 C235 1.382 . S
C236 H247 0.952 . S
C237 C234 1.388 . S
C237 C238 1.382 . S
C237 H262 0.950 . S
C238 N233 1.332 . S
C238 C237 1.382 . S
C238 H248 0.948 1_556 S
N239 Co217 2.282 1_565 S
N239 C243 1.332 1_565 S
N239 C244 1.332 . S
C240 C241 1.388 . S
C240 C244 1.382 . S
C240 H263 0.950 . S
C241 C240 1.388 . S
C241 C242 1.386 . S
C242 C241 1.386 . S
C242 C243 1.382 1_565 S
C242 H264 0.958 . S
C243 N239 1.332 1_545 S
C243 C242 1.382 1_545 S
C243 H245 0.952 . S
C244 N239 1.332 . S
C244 C240 1.382 . S
C244 H246 0.948 . S
H245 C243 0.952 . S
H246 C244 0.948 . S
H247 C236 0.952 . S
H248 C238 0.948 1_554 S
C249 C215 1.395 . S
C249 C219 1.391 . S
C250 C212 1.389 1_565 S
C250 C232 1.392 . S
C251 C222 1.418 . S
C251 C224 1.389 . S
C252 C227 1.395 . S
C252 C229 1.387 . S
H253 C213 0.951 . S
H254 C214 0.950 . S
H255 C220 0.949 . S
H256 C221 0.950 1_556 S
H257 C225 0.951 . S
H258 C226 0.950 . S
H259 C230 0.929 1_556 S
H260 C231 0.950 . S
H261 C235 0.950 . S
H262 C237 0.950 . S
H263 C240 0.950 . S
H264 C242 0.958 . S
C265 C266 1.443 . S
C265 N269 1.376 . S
C265 C303 1.389 . S
C266 C265 1.443 . S
C266 C267 1.340 . S
C266 H306 0.951 . S
C267 C266 1.340 . S
C267 C268 1.439 . S
C267 H307 0.950 . S
C268 C267 1.439 . S
C268 N269 1.374 . S
C268 C302 1.395 . S
N269 C265 1.376 . S
N269 C268 1.374 . S
N269 Co270 2.008 . S
Co270 N269 2.008 . S
Co270 N271 1.995 . S
Co270 N276 2.008 . S
Co270 N281 1.995 . S
Co270 N286 2.282 . S
Co270 N292 2.282 . S
N271 Co270 1.995 . S
N271 C272 1.376 . S
N271 C275 1.383 . S
C272 N271 1.376 . S
C272 C273 1.446 . S
C272 C302 1.391 . S
C273 C272 1.446 . S
C273 C274 1.339 . S
C273 H308 0.949 . S
C274 C273 1.339 . S
C274 C275 1.439 . S
C274 H309 0.950 . S
C275 N271 1.383 . S
C275 C274 1.439 . S
C275 C304 1.392 . S
N276 Co270 2.008 . S
N276 C277 1.376 . S
N276 C280 1.374 . S
C277 N276 1.376 . S
C277 C278 1.443 . S
C277 C304 1.389 . S
C278 C277 1.443 . S
C278 C279 1.340 . S
C278 H310 0.951 . S
C279 C278 1.340 . S
C279 C280 1.439 . S
C279 H311 0.950 . S
C280 N276 1.374 . S
C280 C279 1.439 . S
C280 C305 1.395 . S
N281 Co270 1.995 . S
N281 C282 1.376 . S
N281 C285 1.383 . S
C282 N281 1.376 . S
C282 C283 1.446 . S
C282 C305 1.391 . S
C283 C282 1.446 . S
C283 C284 1.339 . S
C283 H312 0.949 . S
C284 C283 1.339 . S
C284 C285 1.439 . S
C284 H313 0.950 . S
C285 N281 1.383 . S
C285 C284 1.439 . S
C285 C303 1.392 . S
N286 Co270 2.282 . S
N286 C289 1.332 . S
N286 C291 1.332 . S
C287 C288 1.386 . S
C287 C290 1.388 . S
C288 C287 1.386 . S
C288 C289 1.382 . S
C288 H314 0.950 . S
C289 N286 1.332 . S
C289 C288 1.382 . S
C289 H300 0.952 . S
C290 C287 1.388 . S
C290 C291 1.382 . S
C290 H315 0.950 . S
C291 N286 1.332 . S
C291 C290 1.382 . S
C291 H301 0.948 . S
N292 Co270 2.282 . S
N292 C296 1.332 . S
N292 C297 1.332 . S
C293 C294 1.388 . S
C293 C297 1.382 . S
C293 H316 0.950 . S
C294 C293 1.388 . S
C294 C295 1.386 . S
C295 C294 1.386 . S
C295 C296 1.382 . S
C295 H317 0.950 . S
C296 N292 1.332 . S
C296 C295 1.382 . S
C296 H298 0.952 . S
C297 N292 1.332 . S
C297 C293 1.382 . S
C297 H299 0.948 . S
H298 C296 0.952 . S
H299 C297 0.948 . S
H300 C289 0.952 . S
H301 C291 0.948 . S
C302 C268 1.395 . S
C302 C272 1.391 . S
C303 C265 1.389 . S
C303 C285 1.392 . S
C304 C275 1.392 . S
C304 C277 1.389 . S
C305 C280 1.395 . S
C305 C282 1.391 . S
H306 C266 0.951 . S
H307 C267 0.950 . S
H308 C273 0.949 . S
H309 C274 0.950 . S
H310 C278 0.951 . S
H311 C279 0.950 . S
H312 C283 0.949 . S
H313 C284 0.950 . S
H314 C288 0.950 . S
H315 C290 0.950 . S
H316 C293 0.950 . S
H317 C295 0.950 . S
C318 C319 1.560 . S
C318 H379 0.959 . S
C318 H380 0.959 . S
C318 H381 0.960 . S
C319 C318 1.560 . S
C319 O374 1.426 . S
C319 H378 0.980 . S
C320 C321 1.407 . S
C320 C325 1.418 . S
C320 O374 1.334 . S
C321 C320 1.407 . S
C321 C322 1.360 . S
C321 H382 0.929 . S
C322 C321 1.360 . S
C322 C323 1.401 . S
C322 C326 1.527 . S
C323 C322 1.401 . S
C323 C324 1.405 . S
C323 C356 1.587 . S
C324 C323 1.405 . S
C324 C325 1.332 . S
C324 C327 1.496 . S
C325 C320 1.418 . S
C325 C324 1.332 . S
C325 H383 0.929 . S
C326 C322 1.527 . S
C326 H384 0.959 . S
C326 H385 0.961 . S
C326 H386 0.961 . S
C327 C324 1.496 . S
C327 H387 0.960 . S
C327 H388 0.960 . S
C327 H389 0.961 . S
C328 C329 1.517 . S
C328 H391 0.961 . S
C328 H392 0.960 . S
C328 H393 0.959 . S
C329 C328 1.517 . S
C329 O377 1.468 . S
C329 H390 0.980 . S
C330 C331 1.349 . S
C330 C335 1.367 . S
C330 O377 1.408 . S
C331 C330 1.349 . S
C331 C332 1.407 . S
C331 H394 0.930 . S
C332 C331 1.407 . S
C332 C333 1.449 . S
C332 C336 1.535 . S
C333 C332 1.449 . S
C333 C334 1.384 . S
C333 C358 1.553 . S
C334 C333 1.384 . S
C334 C335 1.364 . S
C334 C337 1.450 . S
C335 C330 1.367 . S
C335 C334 1.364 . S
C335 H395 0.931 . S
C336 C332 1.535 . S
C336 H396 0.959 . S
C336 H397 0.961 . S
C336 H398 0.959 . S
C337 C334 1.450 . S
C337 H399 0.960 . S
C337 H400 0.960 . S
C337 H401 0.960 . S
C338 C339 1.309 . S
C338 C343 1.304 . S
C338 O376 1.435 . S
C339 C338 1.309 . S
C339 C340 1.476 . S
C339 H403 0.930 . S
C340 C339 1.476 . S
C340 C341 1.400 . S
C340 C344 1.567 . S
C341 C340 1.400 . S
C341 C342 1.373 . S
C341 C363 1.432 . S
C342 C341 1.373 . S
C342 C343 1.339 . S
C342 C345 1.530 . S
C343 C338 1.304 . S
C343 C342 1.339 . S
C343 H404 0.930 . S
C344 C340 1.567 . S
C344 H405 0.961 . S
C344 H406 0.960 . S
C344 H407 0.958 . S
C345 C342 1.530 . S
C345 H408 0.961 . S
C345 H409 0.960 . S
C345 H410 0.960 . S
C346 C347 1.530 . S
C346 H412 0.961 . S
C346 H413 0.961 . S
C346 H414 0.959 . S
C347 C346 1.530 . S
C347 O375 1.412 . S
C347 H411 0.980 . S
C348 C349 1.288 . S
C348 C353 1.377 . S
C348 O375 1.393 . S
C349 C348 1.288 . S
C349 C350 1.369 . S
C349 H415 0.932 . S
C350 C349 1.369 . S
C350 C351 1.398 . S
C350 C354 1.527 . S
C351 C350 1.398 . S
C351 C352 1.380 . S
C351 C365 1.497 . S
C352 C351 1.380 . S
C352 C353 1.383 . S
C352 C355 1.603 . S
C353 C348 1.377 . S
C353 C352 1.383 . S
C353 H416 0.929 . S
C354 C350 1.527 . S
C354 H417 0.961 . S
C354 H418 0.959 . S
C354 H419 0.959 . S
C355 C352 1.603 . S
C355 H420 0.960 . S
C355 H421 0.962 . S
C355 H422 0.961 . S
C356 C323 1.587 . S
C356 C357 1.360 . S
C356 C369 1.412 . S
C357 C356 1.360 . S
C357 C358 1.365 . S
C357 H423 0.929 . S
C358 C333 1.553 . S
C358 C357 1.365 . S
C358 C359 1.404 . S
C359 C358 1.404 . S
C359 C360 1.395 . S
C359 C370 1.451 . S
C360 C359 1.395 . S
C360 C361 1.322 . S
C360 H424 0.930 . S
C361 C360 1.322 . S
C361 C362 1.459 . S
C361 H425 0.929 . S
C362 C361 1.459 . S
C362 C363 1.445 . S
C362 C371 1.395 . S
C363 C341 1.432 . S
C363 C362 1.445 . S
C363 C364 1.370 . S
C364 C363 1.370 . S
C364 C365 1.438 . S
C364 H426 0.930 . S
C365 C351 1.497 . S
C365 C364 1.438 . S
C365 C366 1.360 . S
C366 C365 1.360 . S
C366 C367 1.401 . S
C366 C371 1.446 . S
C367 C366 1.401 . S
C367 C368 1.347 . S
C367 H427 0.929 . S
C368 C367 1.347 . S
C368 C369 1.455 . S
C368 H428 0.930 . S
C369 C356 1.412 . S
C369 C368 1.455 . S
C369 C370 1.331 . S
C370 C359 1.451 . S
C370 C369 1.331 . S
C370 C371 1.497 . S
C371 C362 1.395 . S
C371 C366 1.446 . S
C371 C370 1.497 . S
C372 C373 1.582 . S
C372 H429 0.962 . S
C372 H430 0.959 . S
C372 H431 0.958 . S
C373 C372 1.582 . S
C373 O376 1.458 . S
C373 H402 0.980 . S
O374 C319 1.426 . S
O374 C320 1.334 . S
O375 C347 1.412 . S
O375 C348 1.393 . S
O376 C338 1.435 . S
O376 C373 1.458 . S
O377 C329 1.468 . S
O377 C330 1.408 . S
H378 C319 0.980 . S
H379 C318 0.959 . S
H380 C318 0.959 . S
H381 C318 0.960 . S
H382 C321 0.929 . S
H383 C325 0.929 . S
H384 C326 0.959 . S
H385 C326 0.961 . S
H386 C326 0.961 . S
H387 C327 0.960 . S
H388 C327 0.960 . S
H389 C327 0.961 . S
H390 C329 0.980 . S
H391 C328 0.961 . S
H392 C328 0.960 . S
H393 C328 0.959 . S
H394 C331 0.930 . S
H395 C335 0.931 . S
H396 C336 0.959 . S
H397 C336 0.961 . S
H398 C336 0.959 . S
H399 C337 0.960 . S
H400 C337 0.960 . S
H401 C337 0.960 . S
H402 C373 0.980 . S
H403 C339 0.930 . S
H404 C343 0.930 . S
H405 C344 0.961 . S
H406 C344 0.960 . S
H407 C344 0.958 . S
H408 C345 0.961 . S
H409 C345 0.960 . S
H410 C345 0.960 . S
H411 C347 0.980 . S
H412 C346 0.961 . S
H413 C346 0.961 . S
H414 C346 0.959 . S
H415 C349 0.932 . S
H416 C353 0.929 . S
H417 C354 0.961 . S
H418 C354 0.959 . S
H419 C354 0.959 . S
H420 C355 0.960 . S
H421 C355 0.962 . S
H422 C355 0.961 . S
H423 C357 0.929 . S
H424 C360 0.930 . S
H425 C361 0.929 . S
H426 C364 0.930 . S
H427 C367 0.929 . S
H428 C368 0.930 . S
H429 C372 0.962 . S
H430 C372 0.959 . S
H431 C372 0.958 . S
C432 C433 1.560 . S
C432 H493 0.959 . S
C432 H494 0.959 . S
C432 H495 0.960 . S
C433 C432 1.560 . S
C433 O488 1.426 . S
C433 H492 0.980 . S
C434 C435 1.407 . S
C434 C439 1.418 . S
C434 O488 1.334 . S
C435 C434 1.407 . S
C435 C436 1.360 . S
C435 H496 0.929 . S
C436 C435 1.360 . S
C436 C437 1.401 . S
C436 C440 1.527 . S
C437 C436 1.401 . S
C437 C438 1.405 . S
C437 C470 1.587 . S
C438 C437 1.405 . S
C438 C439 1.332 . S
C438 C441 1.496 . S
C439 C434 1.418 . S
C439 C438 1.332 . S
C439 H497 0.929 . S
C440 C436 1.527 . S
C440 H498 0.959 . S
C440 H499 0.961 . S
C440 H500 0.961 . S
C441 C438 1.496 . S
C441 H501 0.960 . S
C441 H502 0.960 . S
C441 H503 0.961 . S
C442 C443 1.517 . S
C442 H505 0.961 . S
C442 H506 0.960 . S
C442 H507 0.959 . S
C443 C442 1.517 . S
C443 O491 1.468 . S
C443 H504 0.980 . S
C444 C445 1.349 . S
C444 C449 1.367 . S
C444 O491 1.408 . S
C445 C444 1.349 . S
C445 C446 1.407 . S
C445 H508 0.930 . S
C446 C445 1.407 . S
C446 C447 1.449 . S
C446 C450 1.535 . S
C447 C446 1.449 . S
C447 C448 1.384 . S
C447 C472 1.553 . S
C448 C447 1.384 . S
C448 C449 1.364 . S
C448 C451 1.450 . S
C449 C444 1.367 . S
C449 C448 1.364 . S
C449 H509 0.931 . S
C450 C446 1.535 . S
C450 H510 0.959 . S
C450 H511 0.961 . S
C450 H512 0.959 . S
C451 C448 1.450 . S
C451 H513 0.960 . S
C451 H514 0.960 . S
C451 H515 0.960 . S
C452 C453 1.309 . S
C452 C457 1.304 . S
C452 O490 1.435 . S
C453 C452 1.309 . S
C453 C454 1.476 . S
C453 H517 0.930 . S
C454 C453 1.476 . S
C454 C455 1.400 . S
C454 C458 1.567 . S
C455 C454 1.400 . S
C455 C456 1.373 . S
C455 C477 1.432 . S
C456 C455 1.373 . S
C456 C457 1.339 . S
C456 C459 1.530 . S
C457 C452 1.304 . S
C457 C456 1.339 . S
C457 H518 0.930 . S
C458 C454 1.567 . S
C458 H519 0.961 . S
C458 H520 0.960 . S
C458 H521 0.958 . S
C459 C456 1.530 . S
C459 H522 0.961 . S
C459 H523 0.960 . S
C459 H524 0.960 . S
C460 C461 1.530 . S
C460 H526 0.961 . S
C460 H527 0.961 . S
C460 H528 0.959 . S
C461 C460 1.530 . S
C461 O489 1.412 . S
C461 H525 0.980 . S
C462 C463 1.288 . S
C462 C467 1.377 . S
C462 O489 1.393 . S
C463 C462 1.288 . S
C463 C464 1.369 . S
C463 H529 0.932 . S
C464 C463 1.369 . S
C464 C465 1.398 . S
C464 C468 1.527 . S
C465 C464 1.398 . S
C465 C466 1.380 . S
C465 C479 1.497 . S
C466 C465 1.380 . S
C466 C467 1.383 . S
C466 C469 1.603 . S
C467 C462 1.377 . S
C467 C466 1.383 . S
C467 H530 0.929 . S
C468 C464 1.527 . S
C468 H531 0.961 . S
C468 H532 0.959 . S
C468 H533 0.959 . S
C469 C466 1.603 . S
C469 H534 0.960 . S
C469 H535 0.962 . S
C469 H536 0.961 . S
C470 C437 1.587 . S
C470 C471 1.360 . S
C470 C483 1.412 . S
C471 C470 1.360 . S
C471 C472 1.365 . S
C471 H537 0.929 . S
C472 C447 1.553 . S
C472 C471 1.365 . S
C472 C473 1.404 . S
C473 C472 1.404 . S
C473 C474 1.395 . S
C473 C484 1.451 . S
C474 C473 1.395 . S
C474 C475 1.322 . S
C474 H538 0.930 . S
C475 C474 1.322 . S
C475 C476 1.459 . S
C475 H539 0.929 . S
C476 C475 1.459 . S
C476 C477 1.445 . S
C476 C485 1.395 . S
C477 C455 1.432 . S
C477 C476 1.445 . S
C477 C478 1.370 . S
C478 C477 1.370 . S
C478 C479 1.438 . S
C478 H540 0.930 . S
C479 C465 1.497 . S
C479 C478 1.438 . S
C479 C480 1.360 . S
C480 C479 1.360 . S
C480 C481 1.401 . S
C480 C485 1.446 . S
C481 C480 1.401 . S
C481 C482 1.347 . S
C481 H541 0.929 . S
C482 C481 1.347 . S
C482 C483 1.455 . S
C482 H542 0.930 . S
C483 C470 1.412 . S
C483 C482 1.455 . S
C483 C484 1.331 . S
C484 C473 1.451 . S
C484 C483 1.331 . S
C484 C485 1.497 . S
C485 C476 1.395 . S
C485 C480 1.446 . S
C485 C484 1.497 . S
C486 C487 1.582 . S
C486 H543 0.962 . S
C486 H544 0.959 . S
C486 H545 0.958 . S
C487 C486 1.582 . S
C487 O490 1.458 . S
C487 H516 0.980 . S
O488 C433 1.426 . S
O488 C434 1.334 . S
O489 C461 1.412 . S
O489 C462 1.393 . S
O490 C452 1.435 . S
O490 C487 1.458 . S
O491 C443 1.468 . S
O491 C444 1.408 . S
H492 C433 0.980 . S
H493 C432 0.959 . S
H494 C432 0.959 . S
H495 C432 0.960 . S
H496 C435 0.929 . S
H497 C439 0.929 . S
H498 C440 0.959 . S
H499 C440 0.961 . S
H500 C440 0.961 . S
H501 C441 0.960 . S
H502 C441 0.960 . S
H503 C441 0.961 . S
H504 C443 0.980 . S
H505 C442 0.961 . S
H506 C442 0.960 . S
H507 C442 0.959 . S
H508 C445 0.930 . S
H509 C449 0.931 . S
H510 C450 0.959 . S
H511 C450 0.961 . S
H512 C450 0.959 . S
H513 C451 0.960 . S
H514 C451 0.960 . S
H515 C451 0.960 . S
H516 C487 0.980 . S
H517 C453 0.930 . S
H518 C457 0.930 . S
H519 C458 0.961 . S
H520 C458 0.960 . S
H521 C458 0.958 . S
H522 C459 0.961 . S
H523 C459 0.960 . S
H524 C459 0.960 . S
H525 C461 0.980 . S
H526 C460 0.961 . S
H527 C460 0.961 . S
H528 C460 0.959 . S
H529 C463 0.932 . S
H530 C467 0.929 . S
H531 C468 0.961 . S
H532 C468 0.959 . S
H533 C468 0.959 . S
H534 C469 0.960 . S
H535 C469 0.962 . S
H536 C469 0.961 . S
H537 C471 0.929 . S
H538 C474 0.930 . S
H539 C475 0.929 . S
H540 C478 0.930 . S
H541 C481 0.929 . S
H542 C482 0.930 . S
H543 C486 0.962 . S
H544 C486 0.959 . S
H545 C486 0.958 . S
C546 C547 1.560 . S
C546 H607 0.959 . S
C546 H608 0.959 . S
C546 H609 0.960 . S
C547 C546 1.560 . S
C547 O602 1.426 . S
C547 H606 0.980 . S
C548 C549 1.407 . S
C548 C553 1.418 . S
C548 O602 1.334 . S
C549 C548 1.407 . S
C549 C550 1.360 . S
C549 H610 0.929 . S
C550 C549 1.360 . S
C550 C551 1.401 . S
C550 C554 1.527 . S
C551 C550 1.401 . S
C551 C552 1.405 . S
C551 C584 1.587 . S
C552 C551 1.405 . S
C552 C553 1.332 . S
C552 C555 1.496 . S
C553 C548 1.418 . S
C553 C552 1.332 . S
C553 H611 0.929 . S
C554 C550 1.527 . S
C554 H612 0.959 . S
C554 H613 0.961 . S
C554 H614 0.961 . S
C555 C552 1.496 . S
C555 H615 0.960 . S
C555 H616 0.960 . S
C555 H617 0.961 . S
C556 C557 1.517 . S
C556 H619 0.961 . S
C556 H620 0.960 . S
C556 H621 0.959 . S
C557 C556 1.517 . S
C557 O605 1.468 . S
C557 H618 0.980 . S
C558 C559 1.349 . S
C558 C563 1.367 . S
C558 O605 1.408 . S
C559 C558 1.349 . S
C559 C560 1.407 . S
C559 H622 0.930 . S
C560 C559 1.407 . S
C560 C561 1.449 . S
C560 C564 1.535 . S
C561 C560 1.449 . S
C561 C562 1.384 . S
C561 C586 1.553 . S
C562 C561 1.384 . S
C562 C563 1.364 . S
C562 C565 1.450 . S
C563 C558 1.367 . S
C563 C562 1.364 . S
C563 H623 0.931 . S
C564 C560 1.535 . S
C564 H624 0.959 . S
C564 H625 0.961 . S
C564 H626 0.959 . S
C565 C562 1.450 . S
C565 H627 0.960 . S
C565 H628 0.960 . S
C565 H629 0.960 . S
C566 C567 1.309 . S
C566 C571 1.304 . S
C566 O604 1.435 . S
C567 C566 1.309 . S
C567 C568 1.476 . S
C567 H631 0.930 . S
C568 C567 1.476 . S
C568 C569 1.400 . S
C568 C572 1.567 . S
C569 C568 1.400 . S
C569 C570 1.373 . S
C569 C591 1.432 . S
C570 C569 1.373 . S
C570 C571 1.339 . S
C570 C573 1.530 . S
C571 C566 1.304 . S
C571 C570 1.339 . S
C571 H632 0.930 . S
C572 C568 1.567 . S
C572 H633 0.961 . S
C572 H634 0.960 . S
C572 H635 0.958 . S
C573 C570 1.530 . S
C573 H636 0.961 . S
C573 H637 0.960 . S
C573 H638 0.960 . S
C574 C575 1.530 . S
C574 H640 0.961 . S
C574 H641 0.961 . S
C574 H642 0.959 . S
C575 C574 1.530 . S
C575 O603 1.412 . S
C575 H639 0.980 . S
C576 C577 1.288 . S
C576 C581 1.377 . S
C576 O603 1.393 . S
C577 C576 1.288 . S
C577 C578 1.369 . S
C577 H643 0.932 . S
C578 C577 1.369 . S
C578 C579 1.398 . S
C578 C582 1.527 . S
C579 C578 1.398 . S
C579 C580 1.380 . S
C579 C593 1.497 . S
C580 C579 1.380 . S
C580 C581 1.383 . S
C580 C583 1.603 . S
C581 C576 1.377 . S
C581 C580 1.383 . S
C581 H644 0.929 . S
C582 C578 1.527 . S
C582 H645 0.961 . S
C582 H646 0.959 . S
C582 H647 0.959 . S
C583 C580 1.603 . S
C583 H648 0.960 . S
C583 H649 0.962 . S
C583 H650 0.961 . S
C584 C551 1.587 . S
C584 C585 1.360 . S
C584 C597 1.412 . S
C585 C584 1.360 . S
C585 C586 1.365 . S
C585 H651 0.929 . S
C586 C561 1.553 . S
C586 C585 1.365 . S
C586 C587 1.404 . S
C587 C586 1.404 . S
C587 C588 1.395 . S
C587 C598 1.451 . S
C588 C587 1.395 . S
C588 C589 1.322 . S
C588 H652 0.930 . S
C589 C588 1.322 . S
C589 C590 1.459 . S
C589 H653 0.929 . S
C590 C589 1.459 . S
C590 C591 1.445 . S
C590 C599 1.395 . S
C591 C569 1.432 . S
C591 C590 1.445 . S
C591 C592 1.370 . S
C592 C591 1.370 . S
C592 C593 1.438 . S
C592 H654 0.930 . S
C593 C579 1.497 . S
C593 C592 1.438 . S
C593 C594 1.360 . S
C594 C593 1.360 . S
C594 C595 1.401 . S
C594 C599 1.446 . S
C595 C594 1.401 . S
C595 C596 1.347 . S
C595 H655 0.929 . S
C596 C595 1.347 . S
C596 C597 1.455 . S
C596 H656 0.930 . S
C597 C584 1.412 . S
C597 C596 1.455 . S
C597 C598 1.331 . S
C598 C587 1.451 . S
C598 C597 1.331 . S
C598 C599 1.497 . S
C599 C590 1.395 . S
C599 C594 1.446 . S
C599 C598 1.497 . S
C600 C601 1.582 . S
C600 H657 0.962 . S
C600 H658 0.959 . S
C600 H659 0.958 . S
C601 C600 1.582 . S
C601 O604 1.458 . S
C601 H630 0.980 . S
O602 C547 1.426 . S
O602 C548 1.334 . S
O603 C575 1.412 . S
O603 C576 1.393 . S
O604 C566 1.435 . S
O604 C601 1.458 . S
O605 C557 1.468 . S
O605 C558 1.408 . S
H606 C547 0.980 . S
H607 C546 0.959 . S
H608 C546 0.959 . S
H609 C546 0.960 . S
H610 C549 0.929 . S
H611 C553 0.929 . S
H612 C554 0.959 . S
H613 C554 0.961 . S
H614 C554 0.961 . S
H615 C555 0.960 . S
H616 C555 0.960 . S
H617 C555 0.961 . S
H618 C557 0.980 . S
H619 C556 0.961 . S
H620 C556 0.960 . S
H621 C556 0.959 . S
H622 C559 0.930 . S
H623 C563 0.931 . S
H624 C564 0.959 . S
H625 C564 0.961 . S
H626 C564 0.959 . S
H627 C565 0.960 . S
H628 C565 0.960 . S
H629 C565 0.960 . S
H630 C601 0.980 . S
H631 C567 0.930 . S
H632 C571 0.930 . S
H633 C572 0.961 . S
H634 C572 0.960 . S
H635 C572 0.958 . S
H636 C573 0.961 . S
H637 C573 0.960 . S
H638 C573 0.960 . S
H639 C575 0.980 . S
H640 C574 0.961 . S
H641 C574 0.961 . S
H642 C574 0.959 . S
H643 C577 0.932 . S
H644 C581 0.929 . S
H645 C582 0.961 . S
H646 C582 0.959 . S
H647 C582 0.959 . S
H648 C583 0.960 . S
H649 C583 0.962 . S
H650 C583 0.961 . S
H651 C585 0.929 . S
H652 C588 0.930 . S
H653 C589 0.929 . S
H654 C592 0.930 . S
H655 C595 0.929 . S
H656 C596 0.930 . S
H657 C600 0.962 . S
H658 C600 0.959 . S
H659 C600 0.958 . S
C660 C661 1.560 . S
C660 H721 0.959 . S
C660 H722 0.959 . S
C660 H723 0.960 . S
C661 C660 1.560 . S
C661 O716 1.426 . S
C661 H720 0.980 . S
C662 C663 1.407 . S
C662 C667 1.418 . S
C662 O716 1.334 . S
C663 C662 1.407 . S
C663 C664 1.360 . S
C663 H724 0.929 . S
C664 C663 1.360 . S
C664 C665 1.401 . S
C664 C668 1.527 . S
C665 C664 1.401 . S
C665 C666 1.405 . S
C665 C698 1.587 . S
C666 C665 1.405 . S
C666 C667 1.332 . S
C666 C669 1.496 . S
C667 C662 1.418 . S
C667 C666 1.332 . S
C667 H725 0.929 . S
C668 C664 1.527 . S
C668 H726 0.959 . S
C668 H727 0.961 . S
C668 H728 0.961 . S
C669 C666 1.496 . S
C669 H729 0.960 . S
C669 H730 0.960 . S
C669 H731 0.961 . S
C670 C671 1.517 . S
C670 H733 0.961 . S
C670 H734 0.960 . S
C670 H735 0.959 . S
C671 C670 1.517 . S
C671 O719 1.468 . S
C671 H732 0.980 . S
C672 C673 1.349 . S
C672 C677 1.367 . S
C672 O719 1.408 . S
C673 C672 1.349 . S
C673 C674 1.407 . S
C673 H736 0.930 . S
C674 C673 1.407 . S
C674 C675 1.449 . S
C674 C678 1.535 . S
C675 C674 1.449 . S
C675 C676 1.384 . S
C675 C700 1.553 . S
C676 C675 1.384 . S
C676 C677 1.364 . S
C676 C679 1.450 . S
C677 C672 1.367 . S
C677 C676 1.364 . S
C677 H737 0.931 . S
C678 C674 1.535 . S
C678 H738 0.959 . S
C678 H739 0.961 . S
C678 H740 0.959 . S
C679 C676 1.450 . S
C679 H741 0.960 . S
C679 H742 0.960 . S
C679 H743 0.960 . S
C680 C681 1.309 . S
C680 C685 1.304 . S
C680 O718 1.435 . S
C681 C680 1.309 . S
C681 C682 1.476 . S
C681 H745 0.930 . S
C682 C681 1.476 . S
C682 C683 1.400 . S
C682 C686 1.567 . S
C683 C682 1.400 . S
C683 C684 1.373 . S
C683 C705 1.432 . S
C684 C683 1.373 . S
C684 C685 1.339 . S
C684 C687 1.530 . S
C685 C680 1.304 . S
C685 C684 1.339 . S
C685 H746 0.930 . S
C686 C682 1.567 . S
C686 H747 0.961 . S
C686 H748 0.960 . S
C686 H749 0.958 . S
C687 C684 1.530 . S
C687 H750 0.961 . S
C687 H751 0.960 . S
C687 H752 0.960 . S
C688 C689 1.530 . S
C688 H754 0.961 . S
C688 H755 0.961 . S
C688 H756 0.959 . S
C689 C688 1.530 . S
C689 O717 1.412 . S
C689 H753 0.980 . S
C690 C691 1.288 . S
C690 C695 1.377 . S
C690 O717 1.393 . S
C691 C690 1.288 . S
C691 C692 1.369 . S
C691 H757 0.932 . S
C692 C691 1.369 . S
C692 C693 1.398 . S
C692 C696 1.527 . S
C693 C692 1.398 . S
C693 C694 1.380 . S
C693 C707 1.497 . S
C694 C693 1.380 . S
C694 C695 1.383 . S
C694 C697 1.603 . S
C695 C690 1.377 . S
C695 C694 1.383 . S
C695 H758 0.929 . S
C696 C692 1.527 . S
C696 H759 0.961 . S
C696 H760 0.959 . S
C696 H761 0.959 . S
C697 C694 1.603 . S
C697 H762 0.960 . S
C697 H763 0.962 . S
C697 H764 0.961 . S
C698 C665 1.587 . S
C698 C699 1.360 . S
C698 C711 1.412 . S
C699 C698 1.360 . S
C699 C700 1.365 . S
C699 H765 0.929 . S
C700 C675 1.553 . S
C700 C699 1.365 . S
C700 C701 1.404 . S
C701 C700 1.404 . S
C701 C702 1.395 . S
C701 C712 1.451 . S
C702 C701 1.395 . S
C702 C703 1.322 . S
C702 H766 0.930 . S
C703 C702 1.322 . S
C703 C704 1.459 . S
C703 H767 0.929 . S
C704 C703 1.459 . S
C704 C705 1.445 . S
C704 C713 1.395 . S
C705 C683 1.432 . S
C705 C704 1.445 . S
C705 C706 1.370 . S
C706 C705 1.370 . S
C706 C707 1.438 . S
C706 H768 0.930 . S
C707 C693 1.497 . S
C707 C706 1.438 . S
C707 C708 1.360 . S
C708 C707 1.360 . S
C708 C709 1.401 . S
C708 C713 1.446 . S
C709 C708 1.401 . S
C709 C710 1.347 . S
C709 H769 0.929 . S
C710 C709 1.347 . S
C710 C711 1.455 . S
C710 H770 0.930 . S
C711 C698 1.412 . S
C711 C710 1.455 . S
C711 C712 1.331 . S
C712 C701 1.451 . S
C712 C711 1.331 . S
C712 C713 1.497 . S
C713 C704 1.395 . S
C713 C708 1.446 . S
C713 C712 1.497 . S
C714 C715 1.582 . S
C714 H771 0.962 . S
C714 H772 0.959 . S
C714 H773 0.958 . S
C715 C714 1.582 . S
C715 O718 1.458 . S
C715 H744 0.980 . S
O716 C661 1.426 . S
O716 C662 1.334 . S
O717 C689 1.412 . S
O717 C690 1.393 . S
O718 C680 1.435 . S
O718 C715 1.458 . S
O719 C671 1.468 . S
O719 C672 1.408 . S
H720 C661 0.980 . S
H721 C660 0.959 . S
H722 C660 0.959 . S
H723 C660 0.960 . S
H724 C663 0.929 . S
H725 C667 0.929 . S
H726 C668 0.959 . S
H727 C668 0.961 . S
H728 C668 0.961 . S
H729 C669 0.960 . S
H730 C669 0.960 . S
H731 C669 0.961 . S
H732 C671 0.980 . S
H733 C670 0.961 . S
H734 C670 0.960 . S
H735 C670 0.959 . S
H736 C673 0.930 . S
H737 C677 0.931 . S
H738 C678 0.959 . S
H739 C678 0.961 . S
H740 C678 0.959 . S
H741 C679 0.960 . S
H742 C679 0.960 . S
H743 C679 0.960 . S
H744 C715 0.980 . S
H745 C681 0.930 . S
H746 C685 0.930 . S
H747 C686 0.961 . S
H748 C686 0.960 . S
H749 C686 0.958 . S
H750 C687 0.961 . S
H751 C687 0.960 . S
H752 C687 0.960 . S
H753 C689 0.980 . S
H754 C688 0.961 . S
H755 C688 0.961 . S
H756 C688 0.959 . S
H757 C691 0.932 . S
H758 C695 0.929 . S
H759 C696 0.961 . S
H760 C696 0.959 . S
H761 C696 0.959 . S
H762 C697 0.960 . S
H763 C697 0.962 . S
H764 C697 0.961 . S
H765 C699 0.929 . S
H766 C702 0.930 . S
H767 C703 0.929 . S
H768 C706 0.930 . S
H769 C709 0.929 . S
H770 C710 0.930 . S
H771 C714 0.962 . S
H772 C714 0.959 . S
H773 C714 0.958 . S
C774 C775 1.560 . S
C774 H835 0.959 . S
C774 H836 0.959 . S
C774 H837 0.960 . S
C775 C774 1.560 . S
C775 O830 1.426 . S
C775 H834 0.980 . S
C776 C777 1.407 . S
C776 C781 1.418 . S
C776 O830 1.334 . S
C777 C776 1.407 . S
C777 C778 1.360 . S
C777 H838 0.929 . S
C778 C777 1.360 . S
C778 C779 1.401 . S
C778 C782 1.527 . S
C779 C778 1.401 . S
C779 C780 1.405 . S
C779 C812 1.587 . S
C780 C779 1.405 . S
C780 C781 1.332 . S
C780 C783 1.496 . S
C781 C776 1.418 . S
C781 C780 1.332 . S
C781 H839 0.929 . S
C782 C778 1.527 . S
C782 H840 0.959 . S
C782 H841 0.961 . S
C782 H842 0.961 . S
C783 C780 1.496 . S
C783 H843 0.960 . S
C783 H844 0.960 . S
C783 H845 0.961 . S
C784 C785 1.517 . S
C784 H847 0.961 . S
C784 H848 0.960 . S
C784 H849 0.959 . S
C785 C784 1.517 . S
C785 O833 1.468 . S
C785 H846 0.980 . S
C786 C787 1.349 . S
C786 C791 1.367 . S
C786 O833 1.408 . S
C787 C786 1.349 . S
C787 C788 1.407 . S
C787 H850 0.930 . S
C788 C787 1.407 . S
C788 C789 1.449 . S
C788 C792 1.535 . S
C789 C788 1.449 . S
C789 C790 1.384 . S
C789 C814 1.553 . S
C790 C789 1.384 . S
C790 C791 1.364 . S
C790 C793 1.450 . S
C791 C786 1.367 . S
C791 C790 1.364 . S
C791 H851 0.931 . S
C792 C788 1.535 . S
C792 H852 0.959 . S
C792 H853 0.961 . S
C792 H854 0.959 . S
C793 C790 1.450 . S
C793 H855 0.960 . S
C793 H856 0.960 . S
C793 H857 0.960 . S
C794 C795 1.309 . S
C794 C799 1.304 . S
C794 O832 1.435 . S
C795 C794 1.309 . S
C795 C796 1.476 . S
C795 H859 0.930 . S
C796 C795 1.476 . S
C796 C797 1.400 . S
C796 C800 1.567 . S
C797 C796 1.400 . S
C797 C798 1.373 . S
C797 C819 1.432 . S
C798 C797 1.373 . S
C798 C799 1.339 . S
C798 C801 1.530 . S
C799 C794 1.304 . S
C799 C798 1.339 . S
C799 H860 0.930 . S
C800 C796 1.567 . S
C800 H861 0.961 . S
C800 H862 0.960 . S
C800 H863 0.958 . S
C801 C798 1.530 . S
C801 H864 0.961 . S
C801 H865 0.960 . S
C801 H866 0.960 . S
C802 C803 1.530 . S
C802 H868 0.961 . S
C802 H869 0.961 . S
C802 H870 0.959 . S
C803 C802 1.530 . S
C803 O831 1.412 . S
C803 H867 0.980 . S
C804 C805 1.288 . S
C804 C809 1.377 . S
C804 O831 1.393 . S
C805 C804 1.288 . S
C805 C806 1.369 . S
C805 H871 0.932 . S
C806 C805 1.369 . S
C806 C807 1.398 . S
C806 C810 1.527 . S
C807 C806 1.398 . S
C807 C808 1.380 . S
C807 C821 1.497 . S
C808 C807 1.380 . S
C808 C809 1.383 . S
C808 C811 1.603 . S
C809 C804 1.377 . S
C809 C808 1.383 . S
C809 H872 0.929 . S
C810 C806 1.527 . S
C810 H873 0.961 . S
C810 H874 0.959 . S
C810 H875 0.959 . S
C811 C808 1.603 . S
C811 H876 0.960 . S
C811 H877 0.962 . S
C811 H878 0.961 . S
C812 C779 1.587 . S
C812 C813 1.360 . S
C812 C825 1.412 . S
C813 C812 1.360 . S
C813 C814 1.365 . S
C813 H879 0.929 . S
C814 C789 1.553 . S
C814 C813 1.365 . S
C814 C815 1.404 . S
C815 C814 1.404 . S
C815 C816 1.395 . S
C815 C826 1.451 . S
C816 C815 1.395 . S
C816 C817 1.322 . S
C816 H880 0.930 . S
C817 C816 1.322 . S
C817 C818 1.459 . S
C817 H881 0.929 . S
C818 C817 1.459 . S
C818 C819 1.445 . S
C818 C827 1.395 . S
C819 C797 1.432 . S
C819 C818 1.445 . S
C819 C820 1.370 . S
C820 C819 1.370 . S
C820 C821 1.438 . S
C820 H882 0.930 . S
C821 C807 1.497 . S
C821 C820 1.438 . S
C821 C822 1.360 . S
C822 C821 1.360 . S
C822 C823 1.401 . S
C822 C827 1.446 . S
C823 C822 1.401 . S
C823 C824 1.347 . S
C823 H883 0.929 . S
C824 C823 1.347 . S
C824 C825 1.455 . S
C824 H884 0.930 . S
C825 C812 1.412 . S
C825 C824 1.455 . S
C825 C826 1.331 . S
C826 C815 1.451 . S
C826 C825 1.331 . S
C826 C827 1.497 . S
C827 C818 1.395 . S
C827 C822 1.446 . S
C827 C826 1.497 . S
C828 C829 1.582 . S
C828 H885 0.962 . S
C828 H886 0.959 . S
C828 H887 0.958 . S
C829 C828 1.582 . S
C829 O832 1.458 . S
C829 H858 0.980 . S
O830 C775 1.426 . S
O830 C776 1.334 . S
O831 C803 1.412 . S
O831 C804 1.393 . S
O832 C794 1.435 . S
O832 C829 1.458 . S
O833 C785 1.468 . S
O833 C786 1.408 . S
H834 C775 0.980 . S
H835 C774 0.959 . S
H836 C774 0.959 . S
H837 C774 0.960 . S
H838 C777 0.929 . S
H839 C781 0.929 . S
H840 C782 0.959 . S
H841 C782 0.961 . S
H842 C782 0.961 . S
H843 C783 0.960 . S
H844 C783 0.960 . S
H845 C783 0.961 . S
H846 C785 0.980 . S
H847 C784 0.961 . S
H848 C784 0.960 . S
H849 C784 0.959 . S
H850 C787 0.930 . S
H851 C791 0.931 . S
H852 C792 0.959 . S
H853 C792 0.961 . S
H854 C792 0.959 . S
H855 C793 0.960 . S
H856 C793 0.960 . S
H857 C793 0.960 . S
H858 C829 0.980 . S
H859 C795 0.930 . S
H860 C799 0.930 . S
H861 C800 0.961 . S
H862 C800 0.960 . S
H863 C800 0.958 . S
H864 C801 0.961 . S
H865 C801 0.960 . S
H866 C801 0.960 . S
H867 C803 0.980 . S
H868 C802 0.961 . S
H869 C802 0.961 . S
H870 C802 0.959 . S
H871 C805 0.932 . S
H872 C809 0.929 . S
H873 C810 0.961 . S
H874 C810 0.959 . S
H875 C810 0.959 . S
H876 C811 0.960 . S
H877 C811 0.962 . S
H878 C811 0.961 . S
H879 C813 0.929 . S
H880 C816 0.930 . S
H881 C817 0.929 . S
H882 C820 0.930 . S
H883 C823 0.929 . S
H884 C824 0.930 . S
H885 C828 0.962 . S
H886 C828 0.959 . S
H887 C828 0.958 . S
C888 C889 1.560 . S
C888 H949 0.959 . S
C888 H950 0.959 . S
C888 H951 0.960 . S
C889 C888 1.560 . S
C889 O944 1.426 . S
C889 H948 0.980 . S
C890 C891 1.407 . S
C890 C895 1.418 . S
C890 O944 1.334 . S
C891 C890 1.407 . S
C891 C892 1.360 . S
C891 H952 0.929 . S
C892 C891 1.360 . S
C892 C893 1.401 . S
C892 C896 1.527 . S
C893 C892 1.401 . S
C893 C894 1.405 . S
C893 C926 1.587 . S
C894 C893 1.405 . S
C894 C895 1.332 . S
C894 C897 1.496 . S
C895 C890 1.418 . S
C895 C894 1.332 . S
C895 H953 0.929 . S
C896 C892 1.527 . S
C896 H954 0.959 . S
C896 H955 0.961 . S
C896 H956 0.961 . S
C897 C894 1.496 . S
C897 H957 0.960 . S
C897 H958 0.960 . S
C897 H959 0.961 . S
C898 C899 1.517 . S
C898 H961 0.961 . S
C898 H962 0.960 . S
C898 H963 0.959 . S
C899 C898 1.517 . S
C899 O947 1.468 . S
C899 H960 0.980 . S
C900 C901 1.349 . S
C900 C905 1.367 . S
C900 O947 1.408 . S
C901 C900 1.349 . S
C901 C902 1.407 . S
C901 H964 0.930 . S
C902 C901 1.407 . S
C902 C903 1.449 . S
C902 C906 1.535 . S
C903 C902 1.449 . S
C903 C904 1.384 . S
C903 C928 1.553 . S
C904 C903 1.384 . S
C904 C905 1.364 . S
C904 C907 1.450 . S
C905 C900 1.367 . S
C905 C904 1.364 . S
C905 H965 0.931 . S
C906 C902 1.535 . S
C906 H966 0.959 . S
C906 H967 0.961 . S
C906 H968 0.959 . S
C907 C904 1.450 . S
C907 H969 0.960 . S
C907 H970 0.960 . S
C907 H971 0.960 . S
C908 C909 1.309 . S
C908 C913 1.304 . S
C908 O946 1.435 . S
C909 C908 1.309 . S
C909 C910 1.476 . S
C909 H973 0.930 . S
C910 C909 1.476 . S
C910 C911 1.400 . S
C910 C914 1.567 . S
C911 C910 1.400 . S
C911 C912 1.373 . S
C911 C933 1.432 . S
C912 C911 1.373 . S
C912 C913 1.339 . S
C912 C915 1.530 . S
C913 C908 1.304 . S
C913 C912 1.339 . S
C913 H974 0.930 . S
C914 C910 1.567 . S
C914 H975 0.961 . S
C914 H976 0.960 . S
C914 H977 0.958 . S
C915 C912 1.530 . S
C915 H978 0.961 . S
C915 H979 0.960 . S
C915 H980 0.960 . S
C916 C917 1.530 . S
C916 H982 0.961 . S
C916 H983 0.961 . S
C916 H984 0.959 . S
C917 C916 1.530 . S
C917 O945 1.412 . S
C917 H981 0.980 . S
C918 C919 1.288 . S
C918 C923 1.377 . S
C918 O945 1.393 . S
C919 C918 1.288 . S
C919 C920 1.369 . S
C919 H985 0.932 . S
C920 C919 1.369 . S
C920 C921 1.398 . S
C920 C924 1.527 . S
C921 C920 1.398 . S
C921 C922 1.380 . S
C921 C935 1.497 . S
C922 C921 1.380 . S
C922 C923 1.383 . S
C922 C925 1.603 . S
C923 C918 1.377 . S
C923 C922 1.383 . S
C923 H986 0.929 . S
C924 C920 1.527 . S
C924 H987 0.961 . S
C924 H988 0.959 . S
C924 H989 0.959 . S
C925 C922 1.603 . S
C925 H990 0.960 . S
C925 H991 0.962 . S
C925 H992 0.961 . S
C926 C893 1.587 . S
C926 C927 1.360 . S
C926 C939 1.412 . S
C927 C926 1.360 . S
C927 C928 1.365 . S
C927 H993 0.929 . S
C928 C903 1.553 . S
C928 C927 1.365 . S
C928 C929 1.404 . S
C929 C928 1.404 . S
C929 C930 1.395 . S
C929 C940 1.451 . S
C930 C929 1.395 . S
C930 C931 1.322 . S
C930 H994 0.930 . S
C931 C930 1.322 . S
C931 C932 1.459 . S
C931 H995 0.929 . S
C932 C931 1.459 . S
C932 C933 1.445 . S
C932 C941 1.395 . S
C933 C911 1.432 . S
C933 C932 1.445 . S
C933 C934 1.370 . S
C934 C933 1.370 . S
C934 C935 1.438 . S
C934 H996 0.930 . S
C935 C921 1.497 . S
C935 C934 1.438 . S
C935 C936 1.360 . S
C936 C935 1.360 . S
C936 C937 1.401 . S
C936 C941 1.446 . S
C937 C936 1.401 . S
C937 C938 1.347 . S
C937 H997 0.929 . S
C938 C937 1.347 . S
C938 C939 1.455 . S
C938 H998 0.930 . S
C939 C926 1.412 . S
C939 C938 1.455 . S
C939 C940 1.331 . S
C940 C929 1.451 . S
C940 C939 1.331 . S
C940 C941 1.497 . S
C941 C932 1.395 . S
C941 C936 1.446 . S
C941 C940 1.497 . S
C942 C943 1.582 . S
C942 H999 0.962 . S
C942 H1000 0.959 . S
C942 H1001 0.958 . S
C943 C942 1.582 . S
C943 O946 1.458 . S
C943 H972 0.980 . S
O944 C889 1.426 . S
O944 C890 1.334 . S
O945 C917 1.412 . S
O945 C918 1.393 . S
O946 C908 1.435 . S
O946 C943 1.458 . S
O947 C899 1.468 . S
O947 C900 1.408 . S
H948 C889 0.980 . S
H949 C888 0.959 . S
H950 C888 0.959 . S
H951 C888 0.960 . S
H952 C891 0.929 . S
H953 C895 0.929 . S
H954 C896 0.959 . S
H955 C896 0.961 . S
H956 C896 0.961 . S
H957 C897 0.960 . S
H958 C897 0.960 . S
H959 C897 0.961 . S
H960 C899 0.980 . S
H961 C898 0.961 . S
H962 C898 0.960 . S
H963 C898 0.959 . S
H964 C901 0.930 . S
H965 C905 0.931 . S
H966 C906 0.959 . S
H967 C906 0.961 . S
H968 C906 0.959 . S
H969 C907 0.960 . S
H970 C907 0.960 . S
H971 C907 0.960 . S
H972 C943 0.980 . S
H973 C909 0.930 . S
H974 C913 0.930 . S
H975 C914 0.961 . S
H976 C914 0.960 . S
H977 C914 0.958 . S
H978 C915 0.961 . S
H979 C915 0.960 . S
H980 C915 0.960 . S
H981 C917 0.980 . S
H982 C916 0.961 . S
H983 C916 0.961 . S
H984 C916 0.959 . S
H985 C919 0.932 . S
H986 C923 0.929 . S
H987 C924 0.961 . S
H988 C924 0.959 . S
H989 C924 0.959 . S
H990 C925 0.960 . S
H991 C925 0.962 . S
H992 C925 0.961 . S
H993 C927 0.929 . S
H994 C930 0.930 . S
H995 C931 0.929 . S
H996 C934 0.930 . S
H997 C937 0.929 . S
H998 C938 0.930 . S
H999 C942 0.962 . S
H1000 C942 0.959 . S
H1001 C942 0.958 . S
H1002 C1020 0.951 . S
H1003 C1022 0.951 . S
H1004 C1024 0.950 . S
H1005 C1025 0.950 . S
H1006 C1027 0.950 . S
H1007 C1030 0.950 . S
H1008 C1031 0.950 . S
H1009 C1033 0.950 . S
H1010 C1034 0.950 . S
H1011 C1035 0.951 . S
H1012 C1037 0.951 . S
H1013 C1039 0.950 . S
H1014 C1040 0.950 . S
H1015 C1042 0.950 . S
H1016 C1045 0.950 . S
H1017 C1046 0.950 . S
H1018 C1048 0.950 . S
H1019 C1049 0.950 . S
C1020 H1002 0.951 . S
C1020 C1021 1.366 . S
C1020 C1022 1.388 . S
C1021 C1020 1.366 . S
C1021 C1025 1.385 . S
C1022 H1003 0.951 . S
C1022 C1020 1.388 . S
C1022 C1023 1.366 . S
C1023 C1022 1.366 . S
C1023 C1024 1.414 . S
C1023 C1026 1.499 . S
C1024 H1004 0.950 . S
C1024 C1023 1.414 . S
C1024 C1025 1.374 . S
C1025 H1005 0.950 . S
C1025 C1021 1.385 . S
C1025 C1024 1.374 . S
C1026 C1023 1.499 . S
C1026 C1027 1.373 . S
C1026 C1028 1.389 . S
C1027 H1006 0.950 . S
C1027 C1026 1.373 . S
C1027 C1043 1.377 . S
C1028 C1026 1.389 . S
C1028 C1029 1.524 . S
C1028 C1042 1.377 . S
C1029 C1028 1.524 . S
C1029 C1030 1.397 . S
C1029 C1034 1.363 . S
C1030 H1007 0.950 . S
C1030 C1029 1.397 . S
C1030 C1031 1.334 . S
C1031 H1008 0.950 . S
C1031 C1030 1.334 . S
C1031 C1032 1.287 . S
C1032 C1031 1.287 . S
C1032 C1033 1.524 . S
C1032 H1051 0.913 . S
C1033 H1009 0.950 . S
C1033 C1032 1.524 . S
C1033 C1034 1.415 . S
C1034 H1010 0.950 . S
C1034 C1029 1.363 . S
C1034 C1033 1.415 . S
C1035 H1011 0.951 . S
C1035 C1036 1.366 . S
C1035 C1037 1.388 . S
C1036 C1035 1.366 . S
C1036 C1040 1.385 . S
C1037 H1012 0.951 . S
C1037 C1035 1.388 . S
C1037 C1038 1.366 . S
C1038 C1037 1.366 . S
C1038 C1039 1.414 . S
C1038 C1041 1.499 . S
C1039 H1013 0.950 . S
C1039 C1038 1.414 . S
C1039 C1040 1.374 . S
C1040 H1014 0.950 . S
C1040 C1036 1.385 . S
C1040 C1039 1.374 . S
C1041 C1038 1.499 . S
C1041 C1042 1.373 . S
C1041 C1043 1.389 . S
C1042 H1015 0.950 . S
C1042 C1028 1.377 . S
C1042 C1041 1.373 . S
C1043 C1027 1.377 . S
C1043 C1041 1.389 . S
C1043 C1044 1.524 . S
C1044 C1043 1.524 . S
C1044 C1045 1.397 . S
C1044 C1049 1.363 . S
C1045 H1016 0.950 . S
C1045 C1044 1.397 . S
C1045 C1046 1.334 . S
C1046 H1017 0.950 . S
C1046 C1045 1.334 . S
C1046 C1047 1.287 . S
C1047 C1046 1.287 . S
C1047 C1048 1.524 . S
C1047 H1050 0.999 . S
C1048 H1018 0.950 . S
C1048 C1047 1.524 . S
C1048 C1049 1.415 . S
C1049 H1019 0.950 . S
C1049 C1044 1.363 . S
C1049 C1048 1.415 . S
H1050 C1047 0.999 . S
H1051 C1032 0.913 . S
H1052 C1070 0.951 . S
H1053 C1072 0.951 . S
H1054 C1074 0.950 . S
H1055 C1075 0.950 . S
H1056 C1077 0.950 . S
H1057 C1080 0.950 . S
H1058 C1081 0.950 . S
H1059 C1083 0.950 . S
H1060 C1084 0.950 . S
H1061 C1085 0.951 . S
H1062 C1087 0.951 . S
H1063 C1089 0.950 . S
H1064 C1090 0.950 . S
H1065 C1092 0.950 . S
H1066 C1095 0.950 . S
H1067 C1096 0.950 . S
H1068 C1098 0.950 . S
H1069 C1099 0.950 . S
C1070 H1052 0.951 . S
C1070 C1071 1.366 . S
C1070 C1072 1.388 . S
C1071 C1070 1.366 . S
C1071 C1075 1.385 . S
C1072 H1053 0.951 . S
C1072 C1070 1.388 . S
C1072 C1073 1.366 . S
C1073 C1072 1.366 . S
C1073 C1074 1.414 . S
C1073 C1076 1.499 . S
C1074 H1054 0.950 . S
C1074 C1073 1.414 . S
C1074 C1075 1.374 . S
C1075 H1055 0.950 . S
C1075 C1071 1.385 . S
C1075 C1074 1.374 . S
C1076 C1073 1.499 . S
C1076 C1077 1.373 . S
C1076 C1078 1.389 . S
C1077 H1056 0.950 . S
C1077 C1076 1.373 . S
C1077 C1093 1.377 . S
C1078 C1076 1.389 . S
C1078 C1079 1.524 . S
C1078 C1092 1.377 . S
C1079 C1078 1.524 . S
C1079 C1080 1.397 . S
C1079 C1084 1.363 . S
C1080 H1057 0.950 . S
C1080 C1079 1.397 . S
C1080 C1081 1.334 . S
C1081 H1058 0.950 . S
C1081 C1080 1.334 . S
C1081 C1082 1.287 . S
C1082 C1081 1.287 . S
C1082 C1083 1.524 . S
C1082 H1101 0.913 . S
C1083 H1059 0.950 . S
C1083 C1082 1.524 . S
C1083 C1084 1.415 . S
C1084 H1060 0.950 . S
C1084 C1079 1.363 . S
C1084 C1083 1.415 . S
C1085 H1061 0.951 . S
C1085 C1086 1.366 . S
C1085 C1087 1.388 . S
C1086 C1085 1.366 . S
C1086 C1090 1.385 . S
C1087 H1062 0.951 . S
C1087 C1085 1.388 . S
C1087 C1088 1.366 . S
C1088 C1087 1.366 . S
C1088 C1089 1.414 . S
C1088 C1091 1.499 . S
C1089 H1063 0.950 . S
C1089 C1088 1.414 . S
C1089 C1090 1.374 . S
C1090 H1064 0.950 . S
C1090 C1086 1.385 . S
C1090 C1089 1.374 . S
C1091 C1088 1.499 . S
C1091 C1092 1.373 . S
C1091 C1093 1.389 . S
C1092 H1065 0.950 . S
C1092 C1078 1.377 . S
C1092 C1091 1.373 . S
C1093 C1077 1.377 . S
C1093 C1091 1.389 . S
C1093 C1094 1.524 . S
C1094 C1093 1.524 . S
C1094 C1095 1.397 . S
C1094 C1099 1.363 . S
C1095 H1066 0.950 . S
C1095 C1094 1.397 . S
C1095 C1096 1.334 . S
C1096 H1067 0.950 . S
C1096 C1095 1.334 . S
C1096 C1097 1.287 . S
C1097 C1096 1.287 . S
C1097 C1098 1.524 . S
C1097 H1100 0.999 . S
C1098 H1068 0.950 . S
C1098 C1097 1.524 . S
C1098 C1099 1.415 . S
C1099 H1069 0.950 . S
C1099 C1094 1.363 . S
C1099 C1098 1.415 . S
H1100 C1097 0.999 . S
H1101 C1082 0.913 . S
H1102 C1120 0.951 . S
H1103 C1122 0.951 . S
H1104 C1124 0.950 . S
H1105 C1125 0.950 . S
H1106 C1127 0.950 . S
H1107 C1130 0.950 . S
H1108 C1131 0.950 . S
H1109 C1133 0.950 . S
H1110 C1134 0.950 . S
H1111 C1135 0.951 . S
H1112 C1137 0.951 . S
H1113 C1139 0.950 . S
H1114 C1140 0.950 . S
H1115 C1142 0.950 . S
H1116 C1145 0.950 . S
H1117 C1146 0.950 . S
H1118 C1148 0.950 . S
H1119 C1149 0.950 . S
C1120 H1102 0.951 . S
C1120 C1121 1.366 . S
C1120 C1122 1.388 . S
C1121 C1120 1.366 . S
C1121 C1125 1.385 . S
C1122 H1103 0.951 . S
C1122 C1120 1.388 . S
C1122 C1123 1.366 . S
C1123 C1122 1.366 . S
C1123 C1124 1.414 . S
C1123 C1126 1.499 . S
C1124 H1104 0.950 . S
C1124 C1123 1.414 . S
C1124 C1125 1.374 . S
C1125 H1105 0.950 . S
C1125 C1121 1.385 . S
C1125 C1124 1.374 . S
C1126 C1123 1.499 . S
C1126 C1127 1.373 . S
C1126 C1128 1.389 . S
C1127 H1106 0.950 . S
C1127 C1126 1.373 . S
C1127 C1143 1.377 . S
C1128 C1126 1.389 . S
C1128 C1129 1.524 . S
C1128 C1142 1.377 . S
C1129 C1128 1.524 . S
C1129 C1130 1.397 . S
C1129 C1134 1.363 . S
C1130 H1107 0.950 . S
C1130 C1129 1.397 . S
C1130 C1131 1.334 . S
C1131 H1108 0.950 . S
C1131 C1130 1.334 . S
C1131 C1132 1.287 . S
C1132 C1131 1.287 . S
C1132 C1133 1.524 . S
C1132 H1151 0.913 . S
C1133 H1109 0.950 . S
C1133 C1132 1.524 . S
C1133 C1134 1.415 . S
C1134 H1110 0.950 . S
C1134 C1129 1.363 . S
C1134 C1133 1.415 . S
C1135 H1111 0.951 . S
C1135 C1136 1.366 . S
C1135 C1137 1.388 . S
C1136 C1135 1.366 . S
C1136 C1140 1.385 . S
C1137 H1112 0.951 . S
C1137 C1135 1.388 . S
C1137 C1138 1.366 . S
C1138 C1137 1.366 . S
C1138 C1139 1.414 . S
C1138 C1141 1.499 . S
C1139 H1113 0.950 . S
C1139 C1138 1.414 . S
C1139 C1140 1.374 . S
C1140 H1114 0.950 . S
C1140 C1136 1.385 . S
C1140 C1139 1.374 . S
C1141 C1138 1.499 . S
C1141 C1142 1.373 . S
C1141 C1143 1.389 . S
C1142 H1115 0.950 . S
C1142 C1128 1.377 . S
C1142 C1141 1.373 . S
C1143 C1127 1.377 . S
C1143 C1141 1.389 . S
C1143 C1144 1.524 . S
C1144 C1143 1.524 . S
C1144 C1145 1.397 . S
C1144 C1149 1.363 . S
C1145 H1116 0.950 . S
C1145 C1144 1.397 . S
C1145 C1146 1.334 . S
C1146 H1117 0.950 . S
C1146 C1145 1.334 . S
C1146 C1147 1.287 . S
C1147 C1146 1.287 . S
C1147 C1148 1.524 . S
C1147 H1150 0.999 . S
C1148 H1118 0.950 . S
C1148 C1147 1.524 . S
C1148 C1149 1.415 . S
C1149 H1119 0.950 . S
C1149 C1144 1.363 . S
C1149 C1148 1.415 . S
H1150 C1147 0.999 . S
H1151 C1132 0.913 . S
H1152 C1170 0.951 . S
H1153 C1172 0.951 . S
H1154 C1174 0.950 . S
H1155 C1175 0.950 . S
H1156 C1177 0.950 . S
H1157 C1180 0.950 . S
H1158 C1181 0.950 . S
H1159 C1183 0.950 . S
H1160 C1184 0.950 . S
H1161 C1185 0.951 . S
H1162 C1187 0.951 . S
H1163 C1189 0.950 . S
H1164 C1190 0.950 . S
H1165 C1192 0.950 . S
H1166 C1195 0.950 . S
H1167 C1196 0.950 . S
H1168 C1198 0.950 . S
H1169 C1199 0.950 . S
C1170 H1152 0.951 . S
C1170 C1171 1.366 . S
C1170 C1172 1.388 . S
C1171 C1170 1.366 . S
C1171 C1175 1.385 . S
C1172 H1153 0.951 . S
C1172 C1170 1.388 . S
C1172 C1173 1.366 . S
C1173 C1172 1.366 . S
C1173 C1174 1.414 . S
C1173 C1176 1.499 . S
C1174 H1154 0.950 . S
C1174 C1173 1.414 . S
C1174 C1175 1.374 . S
C1175 H1155 0.950 . S
C1175 C1171 1.385 . S
C1175 C1174 1.374 . S
C1176 C1173 1.499 . S
C1176 C1177 1.373 . S
C1176 C1178 1.389 . S
C1177 H1156 0.950 . S
C1177 C1176 1.373 . S
C1177 C1193 1.377 . S
C1178 C1176 1.389 . S
C1178 C1179 1.524 . S
C1178 C1192 1.377 . S
C1179 C1178 1.524 . S
C1179 C1180 1.397 . S
C1179 C1184 1.363 . S
C1180 H1157 0.950 . S
C1180 C1179 1.397 . S
C1180 C1181 1.334 . S
C1181 H1158 0.950 . S
C1181 C1180 1.334 . S
C1181 C1182 1.287 . S
C1182 C1181 1.287 . S
C1182 C1183 1.524 . S
C1182 H1201 0.913 . S
C1183 H1159 0.950 . S
C1183 C1182 1.524 . S
C1183 C1184 1.415 . S
C1184 H1160 0.950 . S
C1184 C1179 1.363 . S
C1184 C1183 1.415 . S
C1185 H1161 0.951 . S
C1185 C1186 1.366 . S
C1185 C1187 1.388 . S
C1186 C1185 1.366 . S
C1186 C1190 1.385 . S
C1187 H1162 0.951 . S
C1187 C1185 1.388 . S
C1187 C1188 1.366 . S
C1188 C1187 1.366 . S
C1188 C1189 1.414 . S
C1188 C1191 1.499 . S
C1189 H1163 0.950 . S
C1189 C1188 1.414 . S
C1189 C1190 1.374 . S
C1190 H1164 0.950 . S
C1190 C1186 1.385 . S
C1190 C1189 1.374 . S
C1191 C1188 1.499 . S
C1191 C1192 1.373 . S
C1191 C1193 1.389 . S
C1192 H1165 0.950 . S
C1192 C1178 1.377 . S
C1192 C1191 1.373 . S
C1193 C1177 1.377 . S
C1193 C1191 1.389 . S
C1193 C1194 1.524 . S
C1194 C1193 1.524 . S
C1194 C1195 1.397 . S
C1194 C1199 1.363 . S
C1195 H1166 0.950 . S
C1195 C1194 1.397 . S
C1195 C1196 1.334 . S
C1196 H1167 0.950 . S
C1196 C1195 1.334 . S
C1196 C1197 1.287 . S
C1197 C1196 1.287 . S
C1197 C1198 1.524 . S
C1197 H1200 0.999 . S
C1198 H1168 0.950 . S
C1198 C1197 1.524 . S
C1198 C1199 1.415 . S
C1199 H1169 0.950 . S
C1199 C1194 1.363 . S
C1199 C1198 1.415 . S
H1200 C1197 0.999 . S
H1201 C1182 0.913 . S
H1202 C1220 0.951 . S
H1203 C1222 0.951 . S
H1204 C1224 0.950 . S
H1205 C1225 0.950 . S
H1206 C1227 0.950 . S
H1207 C1230 0.950 . S
H1208 C1231 0.950 . S
H1209 C1233 0.950 . S
H1210 C1234 0.950 . S
H1211 C1235 0.951 . S
H1212 C1237 0.951 . S
H1213 C1239 0.950 . S
H1214 C1240 0.950 . S
H1215 C1242 0.950 . S
H1216 C1245 0.950 . S
H1217 C1246 0.950 . S
H1218 C1248 0.950 . S
H1219 C1249 0.950 . S
C1220 H1202 0.951 . S
C1220 C1221 1.366 . S
C1220 C1222 1.388 . S
C1221 C1220 1.366 . S
C1221 C1225 1.385 . S
C1222 H1203 0.951 . S
C1222 C1220 1.388 . S
C1222 C1223 1.366 . S
C1223 C1222 1.366 . S
C1223 C1224 1.414 . S
C1223 C1226 1.499 . S
C1224 H1204 0.950 . S
C1224 C1223 1.414 . S
C1224 C1225 1.374 . S
C1225 H1205 0.950 . S
C1225 C1221 1.385 . S
C1225 C1224 1.374 . S
C1226 C1223 1.499 . S
C1226 C1227 1.373 . S
C1226 C1228 1.389 . S
C1227 H1206 0.950 . S
C1227 C1226 1.373 . S
C1227 C1243 1.377 . S
C1228 C1226 1.389 . S
C1228 C1229 1.524 . S
C1228 C1242 1.377 . S
C1229 C1228 1.524 . S
C1229 C1230 1.397 . S
C1229 C1234 1.363 . S
C1230 H1207 0.950 . S
C1230 C1229 1.397 . S
C1230 C1231 1.334 1_565 S
C1231 H1208 0.950 . S
C1231 C1230 1.334 1_545 S
C1231 C1232 1.287 . S
C1232 C1231 1.287 . S
C1232 C1233 1.524 . S
C1232 H1251 0.913 . S
C1233 H1209 0.950 . S
C1233 C1232 1.524 . S
C1233 C1234 1.415 1_545 S
C1234 H1210 0.950 . S
C1234 C1229 1.363 . S
C1234 C1233 1.415 1_565 S
C1235 H1211 0.951 . S
C1235 C1236 1.366 . S
C1235 C1237 1.388 . S
C1236 C1235 1.366 . S
C1236 C1240 1.385 . S
C1237 H1212 0.951 . S
C1237 C1235 1.388 . S
C1237 C1238 1.366 . S
C1238 C1237 1.366 . S
C1238 C1239 1.414 . S
C1238 C1241 1.499 . S
C1239 H1213 0.950 . S
C1239 C1238 1.414 . S
C1239 C1240 1.374 . S
C1240 H1214 0.950 . S
C1240 C1236 1.385 . S
C1240 C1239 1.374 . S
C1241 C1238 1.499 . S
C1241 C1242 1.373 . S
C1241 C1243 1.389 . S
C1242 H1215 0.950 . S
C1242 C1228 1.377 . S
C1242 C1241 1.373 . S
C1243 C1227 1.377 . S
C1243 C1241 1.389 . S
C1243 C1244 1.524 . S
C1244 C1243 1.524 . S
C1244 C1245 1.397 . S
C1244 C1249 1.363 . S
C1245 H1216 0.950 . S
C1245 C1244 1.397 . S
C1245 C1246 1.334 . S
C1246 H1217 0.950 . S
C1246 C1245 1.334 . S
C1246 C1247 1.287 . S
C1247 C1246 1.287 . S
C1247 C1248 1.524 . S
C1247 H1250 0.999 . S
C1248 H1218 0.950 . S
C1248 C1247 1.524 . S
C1248 C1249 1.415 . S
C1249 H1219 0.950 . S
C1249 C1244 1.363 . S
C1249 C1248 1.415 . S
H1250 C1247 0.999 . S
H1251 C1232 0.913 . S
H1252 C1270 0.951 . S
H1253 C1272 0.951 . S
H1254 C1274 0.950 . S
H1255 C1275 0.950 . S
H1256 C1277 0.950 . S
H1257 C1280 0.950 . S
H1258 C1281 0.950 . S
H1259 C1283 0.950 . S
H1260 C1284 0.950 . S
H1261 C1285 0.951 . S
H1262 C1287 0.951 . S
H1263 C1289 0.950 . S
H1264 C1290 0.950 . S
H1265 C1292 0.950 . S
H1266 C1295 0.950 . S
H1267 C1296 0.950 . S
H1268 C1298 0.950 . S
H1269 C1299 0.950 . S
C1270 H1252 0.951 . S
C1270 C1271 1.366 . S
C1270 C1272 1.388 . S
C1271 C1270 1.366 . S
C1271 C1275 1.385 . S
C1272 H1253 0.951 . S
C1272 C1270 1.388 . S
C1272 C1273 1.366 . S
C1273 C1272 1.366 . S
C1273 C1274 1.414 . S
C1273 C1276 1.499 . S
C1274 H1254 0.950 . S
C1274 C1273 1.414 . S
C1274 C1275 1.374 . S
C1275 H1255 0.950 . S
C1275 C1271 1.385 . S
C1275 C1274 1.374 . S
C1276 C1273 1.499 . S
C1276 C1277 1.373 . S
C1276 C1278 1.389 . S
C1277 H1256 0.950 . S
C1277 C1276 1.373 . S
C1277 C1293 1.377 . S
C1278 C1276 1.389 . S
C1278 C1279 1.524 . S
C1278 C1292 1.377 . S
C1279 C1278 1.524 . S
C1279 C1280 1.397 . S
C1279 C1284 1.363 . S
C1280 H1257 0.950 . S
C1280 C1279 1.397 . S
C1280 C1281 1.334 . S
C1281 H1258 0.950 . S
C1281 C1280 1.334 . S
C1281 C1282 1.287 . S
C1282 C1281 1.287 . S
C1282 C1283 1.524 . S
C1282 H1301 0.913 . S
C1283 H1259 0.950 . S
C1283 C1282 1.524 . S
C1283 C1284 1.415 . S
C1284 H1260 0.950 . S
C1284 C1279 1.363 . S
C1284 C1283 1.415 . S
C1285 H1261 0.951 . S
C1285 C1286 1.366 . S
C1285 C1287 1.388 . S
C1286 C1285 1.366 . S
C1286 C1290 1.385 . S
C1287 H1262 0.951 . S
C1287 C1285 1.388 . S
C1287 C1288 1.366 . S
C1288 C1287 1.366 . S
C1288 C1289 1.414 . S
C1288 C1291 1.499 . S
C1289 H1263 0.950 . S
C1289 C1288 1.414 . S
C1289 C1290 1.374 . S
C1290 H1264 0.950 . S
C1290 C1286 1.385 . S
C1290 C1289 1.374 . S
C1291 C1288 1.499 . S
C1291 C1292 1.373 . S
C1291 C1293 1.389 . S
C1292 H1265 0.950 . S
C1292 C1278 1.377 . S
C1292 C1291 1.373 . S
C1293 C1277 1.377 . S
C1293 C1291 1.389 . S
C1293 C1294 1.524 . S
C1294 C1293 1.524 . S
C1294 C1295 1.397 . S
C1294 C1299 1.363 . S
C1295 H1266 0.950 . S
C1295 C1294 1.397 . S
C1295 C1296 1.334 . S
C1296 H1267 0.950 . S
C1296 C1295 1.334 . S
C1296 C1297 1.287 . S
C1297 C1296 1.287 . S
C1297 C1298 1.524 . S
C1297 H1300 0.999 . S
C1298 H1268 0.950 . S
C1298 C1297 1.524 . S
C1298 C1299 1.415 . S
C1299 H1269 0.950 . S
C1299 C1294 1.363 . S
C1299 C1298 1.415 . S
H1300 C1297 0.999 . S
H1301 C1282 0.913 . S
H1302 C1320 0.951 . S
H1303 C1322 0.951 . S
H1304 C1324 0.950 . S
H1305 C1325 0.950 . S
H1306 C1327 0.950 . S
H1307 C1330 0.950 . S
H1308 C1331 0.950 . S
H1309 C1333 0.950 . S
H1310 C1334 0.950 . S
H1311 C1335 0.951 . S
H1312 C1337 0.951 . S
H1313 C1339 0.950 . S
H1314 C1340 0.950 . S
H1315 C1342 0.950 . S
H1316 C1345 0.950 . S
H1317 C1346 0.950 . S
H1318 C1348 0.950 . S
H1319 C1349 0.950 . S
C1320 H1302 0.951 . S
C1320 C1321 1.366 . S
C1320 C1322 1.388 . S
C1321 C1320 1.366 . S
C1321 C1325 1.385 . S
C1322 H1303 0.951 . S
C1322 C1320 1.388 . S
C1322 C1323 1.366 . S
C1323 C1322 1.366 . S
C1323 C1324 1.414 . S
C1323 C1326 1.499 . S
C1324 H1304 0.950 . S
C1324 C1323 1.414 . S
C1324 C1325 1.374 . S
C1325 H1305 0.950 . S
C1325 C1321 1.385 . S
C1325 C1324 1.374 . S
C1326 C1323 1.499 . S
C1326 C1327 1.373 . S
C1326 C1328 1.389 . S
C1327 H1306 0.950 . S
C1327 C1326 1.373 . S
C1327 C1343 1.377 . S
C1328 C1326 1.389 . S
C1328 C1329 1.524 . S
C1328 C1342 1.377 . S
C1329 C1328 1.524 . S
C1329 C1330 1.397 . S
C1329 C1334 1.363 . S
C1330 H1307 0.950 . S
C1330 C1329 1.397 . S
C1330 C1331 1.334 . S
C1331 H1308 0.950 . S
C1331 C1330 1.334 . S
C1331 C1332 1.287 . S
C1332 C1331 1.287 . S
C1332 C1333 1.524 . S
C1332 H1351 0.913 . S
C1333 H1309 0.950 . S
C1333 C1332 1.524 . S
C1333 C1334 1.415 . S
C1334 H1310 0.950 . S
C1334 C1329 1.363 . S
C1334 C1333 1.415 . S
C1335 H1311 0.951 . S
C1335 C1336 1.366 . S
C1335 C1337 1.388 . S
C1336 C1335 1.366 . S
C1336 C1340 1.385 . S
C1337 H1312 0.951 . S
C1337 C1335 1.388 . S
C1337 C1338 1.366 . S
C1338 C1337 1.366 . S
C1338 C1339 1.414 . S
C1338 C1341 1.499 . S
C1339 H1313 0.950 . S
C1339 C1338 1.414 . S
C1339 C1340 1.374 . S
C1340 H1314 0.950 . S
C1340 C1336 1.385 . S
C1340 C1339 1.374 . S
C1341 C1338 1.499 . S
C1341 C1342 1.373 . S
C1341 C1343 1.389 . S
C1342 H1315 0.950 . S
C1342 C1328 1.377 . S
C1342 C1341 1.373 . S
C1343 C1327 1.377 . S
C1343 C1341 1.389 . S
C1343 C1344 1.524 . S
C1344 C1343 1.524 . S
C1344 C1345 1.397 . S
C1344 C1349 1.363 . S
C1345 H1316 0.950 . S
C1345 C1344 1.397 . S
C1345 C1346 1.334 . S
C1346 H1317 0.950 . S
C1346 C1345 1.334 . S
C1346 C1347 1.287 . S
C1347 C1346 1.287 . S
C1347 C1348 1.524 . S
C1347 H1350 0.999 . S
C1348 H1318 0.950 . S
C1348 C1347 1.524 . S
C1348 C1349 1.415 . S
C1349 H1319 0.950 . S
C1349 C1344 1.363 . S
C1349 C1348 1.415 . S
H1350 C1347 0.999 . S
H1351 C1332 0.913 . S
H1352 C1370 0.951 . S
H1353 C1372 0.951 . S
H1354 C1374 0.950 . S
H1355 C1375 0.950 . S
H1356 C1377 0.950 . S
H1357 C1380 0.950 . S
H1358 C1381 0.950 . S
H1359 C1383 0.950 1_554 S
H1360 C1384 0.950 . S
H1361 C1385 0.951 . S
H1362 C1387 0.951 . S
H1363 C1389 0.950 . S
H1364 C1390 0.950 . S
H1365 C1392 0.950 . S
H1366 C1395 0.950 . S
H1367 C1396 0.950 . S
H1368 C1398 0.950 . S
H1369 C1399 0.950 . S
C1370 H1352 0.951 . S
C1370 C1371 1.366 . S
C1370 C1372 1.388 . S
C1371 C1370 1.366 . S
C1371 C1375 1.385 . S
C1372 H1353 0.951 . S
C1372 C1370 1.388 . S
C1372 C1373 1.366 . S
C1373 C1372 1.366 . S
C1373 C1374 1.414 . S
C1373 C1376 1.499 . S
C1374 H1354 0.950 . S
C1374 C1373 1.414 . S
C1374 C1375 1.374 . S
C1375 H1355 0.950 . S
C1375 C1371 1.385 . S
C1375 C1374 1.374 . S
C1376 C1373 1.499 . S
C1376 C1377 1.373 . S
C1376 C1378 1.389 . S
C1377 H1356 0.950 . S
C1377 C1376 1.373 . S
C1377 C1393 1.377 . S
C1378 C1376 1.389 . S
C1378 C1379 1.524 . S
C1378 C1392 1.377 . S
C1379 C1378 1.524 . S
C1379 C1380 1.397 . S
C1379 C1384 1.363 . S
C1380 H1357 0.950 . S
C1380 C1379 1.397 . S
C1380 C1381 1.334 . S
C1381 H1358 0.950 . S
C1381 C1380 1.334 . S
C1381 C1382 1.287 . S
C1382 C1381 1.287 . S
C1382 C1383 1.524 . S
C1382 H1401 0.913 1_556 S
C1383 H1359 0.950 1_556 S
C1383 C1382 1.524 . S
C1383 C1384 1.415 . S
C1384 H1360 0.950 . S
C1384 C1379 1.363 . S
C1384 C1383 1.415 . S
C1385 H1361 0.951 . S
C1385 C1386 1.366 . S
C1385 C1387 1.388 . S
C1386 C1385 1.366 . S
C1386 C1390 1.385 . S
C1387 H1362 0.951 . S
C1387 C1385 1.388 . S
C1387 C1388 1.366 . S
C1388 C1387 1.366 . S
C1388 C1389 1.414 . S
C1388 C1391 1.499 . S
C1389 H1363 0.950 . S
C1389 C1388 1.414 . S
C1389 C1390 1.374 . S
C1390 H1364 0.950 . S
C1390 C1386 1.385 . S
C1390 C1389 1.374 . S
C1391 C1388 1.499 . S
C1391 C1392 1.373 . S
C1391 C1393 1.389 . S
C1392 H1365 0.950 . S
C1392 C1378 1.377 . S
C1392 C1391 1.373 . S
C1393 C1377 1.377 . S
C1393 C1391 1.389 . S
C1393 C1394 1.524 . S
C1394 C1393 1.524 . S
C1394 C1395 1.397 . S
C1394 C1399 1.363 . S
C1395 H1366 0.950 . S
C1395 C1394 1.397 . S
C1395 C1396 1.334 . S
C1396 H1367 0.950 . S
C1396 C1395 1.334 . S
C1396 C1397 1.287 . S
C1397 C1396 1.287 . S
C1397 C1398 1.524 . S
C1397 H1400 0.999 . S
C1398 H1368 0.950 . S
C1398 C1397 1.524 . S
C1398 C1399 1.415 . S
C1399 H1369 0.950 . S
C1399 C1394 1.363 . S
C1399 C1398 1.415 . S
H1400 C1397 0.999 . S
H1401 C1382 0.913 1_554 S
H1402 C1420 0.951 . S
H1403 C1422 0.951 . S
H1404 C1424 0.950 . S
H1405 C1425 0.950 . S
H1406 C1427 0.950 . S
H1407 C1430 0.950 . S
H1408 C1431 0.950 . S
H1409 C1433 0.950 . S
H1410 C1434 0.950 . S
H1411 C1435 0.951 . S
H1412 C1437 0.951 . S
H1413 C1439 0.950 . S
H1414 C1440 0.950 . S
H1415 C1442 0.950 . S
H1416 C1445 0.950 . S
H1417 C1446 0.950 . S
H1418 C1448 0.950 . S
H1419 C1449 0.950 . S
C1420 H1402 0.951 . S
C1420 C1421 1.366 . S
C1420 C1422 1.388 . S
C1421 C1420 1.366 . S
C1421 C1425 1.385 . S
C1422 H1403 0.951 . S
C1422 C1420 1.388 . S
C1422 C1423 1.366 . S
C1423 C1422 1.366 . S
C1423 C1424 1.414 . S
C1423 C1426 1.499 . S
C1424 H1404 0.950 . S
C1424 C1423 1.414 . S
C1424 C1425 1.374 . S
C1425 H1405 0.950 . S
C1425 C1421 1.385 . S
C1425 C1424 1.374 . S
C1426 C1423 1.499 . S
C1426 C1427 1.373 . S
C1426 C1428 1.389 . S
C1427 H1406 0.950 . S
C1427 C1426 1.373 . S
C1427 C1443 1.377 . S
C1428 C1426 1.389 . S
C1428 C1429 1.524 . S
C1428 C1442 1.377 . S
C1429 C1428 1.524 . S
C1429 C1430 1.397 . S
C1429 C1434 1.363 . S
C1430 H1407 0.950 . S
C1430 C1429 1.397 . S
C1430 C1431 1.334 . S
C1431 H1408 0.950 . S
C1431 C1430 1.334 . S
C1431 C1432 1.287 . S
C1432 C1431 1.287 . S
C1432 C1433 1.524 . S
C1432 H1451 0.913 . S
C1433 H1409 0.950 . S
C1433 C1432 1.524 . S
C1433 C1434 1.415 . S
C1434 H1410 0.950 . S
C1434 C1429 1.363 . S
C1434 C1433 1.415 . S
C1435 H1411 0.951 . S
C1435 C1436 1.366 . S
C1435 C1437 1.388 . S
C1436 C1435 1.366 . S
C1436 C1440 1.385 . S
C1437 H1412 0.951 . S
C1437 C1435 1.388 . S
C1437 C1438 1.366 . S
C1438 C1437 1.366 . S
C1438 C1439 1.414 . S
C1438 C1441 1.499 . S
C1439 H1413 0.950 . S
C1439 C1438 1.414 . S
C1439 C1440 1.374 . S
C1440 H1414 0.950 . S
C1440 C1436 1.385 . S
C1440 C1439 1.374 . S
C1441 C1438 1.499 . S
C1441 C1442 1.373 . S
C1441 C1443 1.389 . S
C1442 H1415 0.950 . S
C1442 C1428 1.377 . S
C1442 C1441 1.373 . S
C1443 C1427 1.377 . S
C1443 C1441 1.389 . S
C1443 C1444 1.524 . S
C1444 C1443 1.524 . S
C1444 C1445 1.397 . S
C1444 C1449 1.363 . S
C1445 H1416 0.950 . S
C1445 C1444 1.397 . S
C1445 C1446 1.334 . S
C1446 H1417 0.950 . S
C1446 C1445 1.334 . S
C1446 C1447 1.287 . S
C1447 C1446 1.287 . S
C1447 C1448 1.524 . S
C1447 H1450 0.999 . S
C1448 H1418 0.950 . S
C1448 C1447 1.524 . S
C1448 C1449 1.415 . S
C1449 H1419 0.950 . S
C1449 C1444 1.363 . S
C1449 C1448 1.415 . S
H1450 C1447 0.999 . S
H1451 C1432 0.913 . S
H1452 C1470 0.951 . S
H1453 C1472 0.951 . S
H1454 C1474 0.950 . S
H1455 C1475 0.950 . S
H1456 C1477 0.950 . S
H1457 C1480 0.950 . S
H1458 C1481 0.950 . S
H1459 C1483 0.950 . S
H1460 C1484 0.950 . S
H1461 C1485 0.951 . S
H1462 C1487 0.951 . S
H1463 C1489 0.950 . S
H1464 C1490 0.950 . S
H1465 C1492 0.950 . S
H1466 C1495 0.950 . S
H1467 C1496 0.950 . S
H1468 C1498 0.950 . S
H1469 C1499 0.950 . S
C1470 H1452 0.951 . S
C1470 C1471 1.366 . S
C1470 C1472 1.388 . S
C1471 C1470 1.366 . S
C1471 C1475 1.385 . S
C1472 H1453 0.951 . S
C1472 C1470 1.388 . S
C1472 C1473 1.366 . S
C1473 C1472 1.366 . S
C1473 C1474 1.414 . S
C1473 C1476 1.499 . S
C1474 H1454 0.950 . S
C1474 C1473 1.414 . S
C1474 C1475 1.374 . S
C1475 H1455 0.950 . S
C1475 C1471 1.385 . S
C1475 C1474 1.374 . S
C1476 C1473 1.499 . S
C1476 C1477 1.373 . S
C1476 C1478 1.389 . S
C1477 H1456 0.950 . S
C1477 C1476 1.373 . S
C1477 C1493 1.377 . S
C1478 C1476 1.389 . S
C1478 C1479 1.524 . S
C1478 C1492 1.377 . S
C1479 C1478 1.524 . S
C1479 C1480 1.397 . S
C1479 C1484 1.363 . S
C1480 H1457 0.950 . S
C1480 C1479 1.397 . S
C1480 C1481 1.334 . S
C1481 H1458 0.950 . S
C1481 C1480 1.334 . S
C1481 C1482 1.287 . S
C1482 C1481 1.287 . S
C1482 C1483 1.524 . S
C1482 H1501 0.913 . S
C1483 H1459 0.950 . S
C1483 C1482 1.524 . S
C1483 C1484 1.415 . S
C1484 H1460 0.950 . S
C1484 C1479 1.363 . S
C1484 C1483 1.415 . S
C1485 H1461 0.951 . S
C1485 C1486 1.366 . S
C1485 C1487 1.388 . S
C1486 C1485 1.366 . S
C1486 C1490 1.385 . S
C1487 H1462 0.951 . S
C1487 C1485 1.388 . S
C1487 C1488 1.366 . S
C1488 C1487 1.366 . S
C1488 C1489 1.414 . S
C1488 C1491 1.499 . S
C1489 H1463 0.950 . S
C1489 C1488 1.414 . S
C1489 C1490 1.374 . S
C1490 H1464 0.950 . S
C1490 C1486 1.385 . S
C1490 C1489 1.374 . S
C1491 C1488 1.499 . S
C1491 C1492 1.373 . S
C1491 C1493 1.389 . S
C1492 H1465 0.950 . S
C1492 C1478 1.377 . S
C1492 C1491 1.373 . S
C1493 C1477 1.377 . S
C1493 C1491 1.389 . S
C1493 C1494 1.524 . S
C1494 C1493 1.524 . S
C1494 C1495 1.397 . S
C1494 C1499 1.363 . S
C1495 H1466 0.950 . S
C1495 C1494 1.397 . S
C1495 C1496 1.334 . S
C1496 H1467 0.950 . S
C1496 C1495 1.334 . S
C1496 C1497 1.287 . S
C1497 C1496 1.287 . S
C1497 C1498 1.524 . S
C1497 H1500 0.999 . S
C1498 H1468 0.950 . S
C1498 C1497 1.524 . S
C1498 C1499 1.415 . S
C1499 H1469 0.950 . S
C1499 C1494 1.363 . S
C1499 C1498 1.415 . S
H1500 C1497 0.999 . S
H1501 C1482 0.913 . S
H1502 C1520 0.951 . S
H1503 C1522 0.951 . S
H1504 C1524 0.950 . S
H1505 C1525 0.950 . S
H1506 C1527 0.950 . S
H1507 C1530 0.950 . S
H1508 C1531 0.950 . S
H1509 C1533 0.950 . S
H1510 C1534 0.950 . S
H1511 C1535 0.951 . S
H1512 C1537 0.951 . S
H1513 C1539 0.950 . S
H1514 C1540 0.950 . S
H1515 C1542 0.950 . S
H1516 C1545 0.950 . S
H1517 C1546 0.950 . S
H1518 C1548 0.950 . S
H1519 C1549 0.950 . S
C1520 H1502 0.951 . S
C1520 C1521 1.366 . S
C1520 C1522 1.388 . S
C1521 C1520 1.366 . S
C1521 C1525 1.385 . S
C1522 H1503 0.951 . S
C1522 C1520 1.388 . S
C1522 C1523 1.366 . S
C1523 C1522 1.366 . S
C1523 C1524 1.414 . S
C1523 C1526 1.499 . S
C1524 H1504 0.950 . S
C1524 C1523 1.414 . S
C1524 C1525 1.374 . S
C1525 H1505 0.950 . S
C1525 C1521 1.385 . S
C1525 C1524 1.374 . S
C1526 C1523 1.499 . S
C1526 C1527 1.373 . S
C1526 C1528 1.389 . S
C1527 H1506 0.950 . S
C1527 C1526 1.373 . S
C1527 C1543 1.377 . S
C1528 C1526 1.389 . S
C1528 C1529 1.524 . S
C1528 C1542 1.377 . S
C1529 C1528 1.524 . S
C1529 C1530 1.397 . S
C1529 C1534 1.363 . S
C1530 H1507 0.950 . S
C1530 C1529 1.397 . S
C1530 C1531 1.334 . S
C1531 H1508 0.950 . S
C1531 C1530 1.334 . S
C1531 C1532 1.287 . S
C1532 C1531 1.287 . S
C1532 C1533 1.524 . S
C1532 H1551 0.913 . S
C1533 H1509 0.950 . S
C1533 C1532 1.524 . S
C1533 C1534 1.415 . S
C1534 H1510 0.950 . S
C1534 C1529 1.363 . S
C1534 C1533 1.415 . S
C1535 H1511 0.951 . S
C1535 C1536 1.366 . S
C1535 C1537 1.388 . S
C1536 C1535 1.366 . S
C1536 C1540 1.385 . S
C1537 H1512 0.951 . S
C1537 C1535 1.388 . S
C1537 C1538 1.366 . S
C1538 C1537 1.366 . S
C1538 C1539 1.414 . S
C1538 C1541 1.499 . S
C1539 H1513 0.950 . S
C1539 C1538 1.414 . S
C1539 C1540 1.374 . S
C1540 H1514 0.950 . S
C1540 C1536 1.385 . S
C1540 C1539 1.374 . S
C1541 C1538 1.499 . S
C1541 C1542 1.373 . S
C1541 C1543 1.389 . S
C1542 H1515 0.950 . S
C1542 C1528 1.377 . S
C1542 C1541 1.373 . S
C1543 C1527 1.377 . S
C1543 C1541 1.389 . S
C1543 C1544 1.524 . S
C1544 C1543 1.524 . S
C1544 C1545 1.397 . S
C1544 C1549 1.363 . S
C1545 H1516 0.950 . S
C1545 C1544 1.397 . S
C1545 C1546 1.334 . S
C1546 H1517 0.950 . S
C1546 C1545 1.334 . S
C1546 C1547 1.287 . S
C1547 C1546 1.287 . S
C1547 C1548 1.524 . S
C1547 H1550 0.999 . S
C1548 H1518 0.950 . S
C1548 C1547 1.524 . S
C1548 C1549 1.415 . S
C1549 H1519 0.950 . S
C1549 C1544 1.363 . S
C1549 C1548 1.415 . S
H1550 C1547 0.999 . S
H1551 C1532 0.913 . S
H1552 C1570 0.951 . S
H1553 C1572 0.951 . S
H1554 C1574 0.950 . S
H1555 C1575 0.950 . S
H1556 C1577 0.950 . S
H1557 C1580 0.950 . S
H1558 C1581 0.950 . S
H1559 C1583 0.950 . S
H1560 C1584 0.950 . S
H1561 C1585 0.951 . S
H1562 C1587 0.951 . S
H1563 C1589 0.950 . S
H1564 C1590 0.950 . S
H1565 C1592 0.950 . S
H1566 C1595 0.950 . S
H1567 C1596 0.950 . S
H1568 C1598 0.950 . S
H1569 C1599 0.950 . S
C1570 H1552 0.951 . S
C1570 C1571 1.366 . S
C1570 C1572 1.388 . S
C1571 C1570 1.366 . S
C1571 C1575 1.385 . S
C1572 H1553 0.951 . S
C1572 C1570 1.388 . S
C1572 C1573 1.366 . S
C1573 C1572 1.366 . S
C1573 C1574 1.414 . S
C1573 C1576 1.499 . S
C1574 H1554 0.950 . S
C1574 C1573 1.414 . S
C1574 C1575 1.374 . S
C1575 H1555 0.950 . S
C1575 C1571 1.385 . S
C1575 C1574 1.374 . S
C1576 C1573 1.499 . S
C1576 C1577 1.373 . S
C1576 C1578 1.389 . S
C1577 H1556 0.950 . S
C1577 C1576 1.373 . S
C1577 C1593 1.377 . S
C1578 C1576 1.389 . S
C1578 C1579 1.524 . S
C1578 C1592 1.377 . S
C1579 C1578 1.524 . S
C1579 C1580 1.397 . S
C1579 C1584 1.363 . S
C1580 H1557 0.950 . S
C1580 C1579 1.397 . S
C1580 C1581 1.334 1_655 S
C1581 H1558 0.950 . S
C1581 C1580 1.334 1_455 S
C1581 C1582 1.287 . S
C1582 C1581 1.287 . S
C1582 C1583 1.524 1_455 S
C1582 H1601 0.913 . S
C1583 H1559 0.950 . S
C1583 C1582 1.524 1_655 S
C1583 C1584 1.415 . S
C1584 H1560 0.950 . S
C1584 C1579 1.363 . S
C1584 C1583 1.415 . S
C1585 H1561 0.951 . S
C1585 C1586 1.366 . S
C1585 C1587 1.388 . S
C1586 C1585 1.366 . S
C1586 C1590 1.385 . S
C1587 H1562 0.951 . S
C1587 C1585 1.388 . S
C1587 C1588 1.366 . S
C1588 C1587 1.366 . S
C1588 C1589 1.414 . S
C1588 C1591 1.499 . S
C1589 H1563 0.950 . S
C1589 C1588 1.414 . S
C1589 C1590 1.374 . S
C1590 H1564 0.950 . S
C1590 C1586 1.385 . S
C1590 C1589 1.374 . S
C1591 C1588 1.499 . S
C1591 C1592 1.373 . S
C1591 C1593 1.389 . S
C1592 H1565 0.950 . S
C1592 C1578 1.377 . S
C1592 C1591 1.373 . S
C1593 C1577 1.377 . S
C1593 C1591 1.389 . S
C1593 C1594 1.524 . S
C1594 C1593 1.524 . S
C1594 C1595 1.397 . S
C1594 C1599 1.363 . S
C1595 H1566 0.950 . S
C1595 C1594 1.397 . S
C1595 C1596 1.334 . S
C1596 H1567 0.950 . S
C1596 C1595 1.334 . S
C1596 C1597 1.287 . S
C1597 C1596 1.287 . S
C1597 C1598 1.524 . S
C1597 H1600 0.999 . S
C1598 H1568 0.950 . S
C1598 C1597 1.524 . S
C1598 C1599 1.415 . S
C1599 H1569 0.950 . S
C1599 C1594 1.363 . S
C1599 C1598 1.415 . S
H1600 C1597 0.999 . S
H1601 C1582 0.913 . S
H1602 C1620 0.951 . S
H1603 C1622 0.951 . S
H1604 C1624 0.950 . S
H1605 C1625 0.950 . S
H1606 C1627 0.950 . S
H1607 C1630 0.950 . S
H1608 C1631 0.950 . S
H1609 C1633 0.950 . S
H1610 C1634 0.950 . S
H1611 C1635 0.951 . S
H1612 C1637 0.951 . S
H1613 C1639 0.950 . S
H1614 C1640 0.950 . S
H1615 C1642 0.950 . S
H1616 C1645 0.950 . S
H1617 C1646 0.950 . S
H1618 C1648 0.950 . S
H1619 C1649 0.950 . S
C1620 H1602 0.951 . S
C1620 C1621 1.366 . S
C1620 C1622 1.388 . S
C1621 C1620 1.366 . S
C1621 C1625 1.385 . S
C1622 H1603 0.951 . S
C1622 C1620 1.388 . S
C1622 C1623 1.366 . S
C1623 C1622 1.366 . S
C1623 C1624 1.414 . S
C1623 C1626 1.499 . S
C1624 H1604 0.950 . S
C1624 C1623 1.414 . S
C1624 C1625 1.374 . S
C1625 H1605 0.950 . S
C1625 C1621 1.385 . S
C1625 C1624 1.374 . S
C1626 C1623 1.499 . S
C1626 C1627 1.373 . S
C1626 C1628 1.389 . S
C1627 H1606 0.950 . S
C1627 C1626 1.373 . S
C1627 C1643 1.377 . S
C1628 C1626 1.389 . S
C1628 C1629 1.524 . S
C1628 C1642 1.377 . S
C1629 C1628 1.524 . S
C1629 C1630 1.397 . S
C1629 C1634 1.363 . S
C1630 H1607 0.950 . S
C1630 C1629 1.397 . S
C1630 C1631 1.334 . S
C1631 H1608 0.950 . S
C1631 C1630 1.334 . S
C1631 C1632 1.287 . S
C1632 C1631 1.287 . S
C1632 C1633 1.524 . S
C1632 H1651 0.913 . S
C1633 H1609 0.950 . S
C1633 C1632 1.524 . S
C1633 C1634 1.415 . S
C1634 H1610 0.950 . S
C1634 C1629 1.363 . S
C1634 C1633 1.415 . S
C1635 H1611 0.951 . S
C1635 C1636 1.366 . S
C1635 C1637 1.388 . S
C1636 C1635 1.366 . S
C1636 C1640 1.385 . S
C1637 H1612 0.951 . S
C1637 C1635 1.388 . S
C1637 C1638 1.366 . S
C1638 C1637 1.366 . S
C1638 C1639 1.414 . S
C1638 C1641 1.499 . S
C1639 H1613 0.950 . S
C1639 C1638 1.414 . S
C1639 C1640 1.374 . S
C1640 H1614 0.950 . S
C1640 C1636 1.385 . S
C1640 C1639 1.374 . S
C1641 C1638 1.499 . S
C1641 C1642 1.373 . S
C1641 C1643 1.389 . S
C1642 H1615 0.950 . S
C1642 C1628 1.377 . S
C1642 C1641 1.373 . S
C1643 C1627 1.377 . S
C1643 C1641 1.389 . S
C1643 C1644 1.524 . S
C1644 C1643 1.524 . S
C1644 C1645 1.397 . S
C1644 C1649 1.363 . S
C1645 H1616 0.950 . S
C1645 C1644 1.397 . S
C1645 C1646 1.334 . S
C1646 H1617 0.950 . S
C1646 C1645 1.334 . S
C1646 C1647 1.287 . S
C1647 C1646 1.287 . S
C1647 C1648 1.524 . S
C1647 H1650 0.999 . S
C1648 H1618 0.950 . S
C1648 C1647 1.524 . S
C1648 C1649 1.415 . S
C1649 H1619 0.950 . S
C1649 C1644 1.363 . S
C1649 C1648 1.415 . S
H1650 C1647 0.999 . S
H1651 C1632 0.913 . S
H1652 C1670 0.951 . S
H1653 C1672 0.951 . S
H1654 C1674 0.950 . S
H1655 C1675 0.950 . S
H1656 C1677 0.950 . S
H1657 C1680 0.950 . S
H1658 C1681 0.950 . S
H1659 C1683 0.950 . S
H1660 C1684 0.950 . S
H1661 C1685 0.951 . S
H1662 C1687 0.951 . S
H1663 C1689 0.950 . S
H1664 C1690 0.950 . S
H1665 C1692 0.950 . S
H1666 C1695 0.950 . S
H1667 C1696 0.950 . S
H1668 C1698 0.950 . S
H1669 C1699 0.950 . S
C1670 H1652 0.951 . S
C1670 C1671 1.366 . S
C1670 C1672 1.388 . S
C1671 C1670 1.366 . S
C1671 C1675 1.385 . S
C1672 H1653 0.951 . S
C1672 C1670 1.388 . S
C1672 C1673 1.366 . S
C1673 C1672 1.366 . S
C1673 C1674 1.414 . S
C1673 C1676 1.499 . S
C1674 H1654 0.950 . S
C1674 C1673 1.414 . S
C1674 C1675 1.374 . S
C1675 H1655 0.950 . S
C1675 C1671 1.385 . S
C1675 C1674 1.374 . S
C1676 C1673 1.499 . S
C1676 C1677 1.373 . S
C1676 C1678 1.389 . S
C1677 H1656 0.950 . S
C1677 C1676 1.373 . S
C1677 C1693 1.377 . S
C1678 C1676 1.389 . S
C1678 C1679 1.524 . S
C1678 C1692 1.377 . S
C1679 C1678 1.524 . S
C1679 C1680 1.397 . S
C1679 C1684 1.363 . S
C1680 H1657 0.950 . S
C1680 C1679 1.397 . S
C1680 C1681 1.334 1_565 S
C1681 H1658 0.950 . S
C1681 C1680 1.334 1_545 S
C1681 C1682 1.287 . S
C1682 C1681 1.287 . S
C1682 C1683 1.524 . S
C1682 H1701 0.913 . S
C1683 H1659 0.950 . S
C1683 C1682 1.524 . S
C1683 C1684 1.415 1_545 S
C1684 H1660 0.950 . S
C1684 C1679 1.363 . S
C1684 C1683 1.415 1_565 S
C1685 H1661 0.951 . S
C1685 C1686 1.366 . S
C1685 C1687 1.388 . S
C1686 C1685 1.366 . S
C1686 C1690 1.385 . S
C1687 H1662 0.951 . S
C1687 C1685 1.388 . S
C1687 C1688 1.366 . S
C1688 C1687 1.366 . S
C1688 C1689 1.414 . S
C1688 C1691 1.499 . S
C1689 H1663 0.950 . S
C1689 C1688 1.414 . S
C1689 C1690 1.374 . S
C1690 H1664 0.950 . S
C1690 C1686 1.385 . S
C1690 C1689 1.374 . S
C1691 C1688 1.499 . S
C1691 C1692 1.373 . S
C1691 C1693 1.389 . S
C1692 H1665 0.950 . S
C1692 C1678 1.377 . S
C1692 C1691 1.373 . S
C1693 C1677 1.377 . S
C1693 C1691 1.389 . S
C1693 C1694 1.524 . S
C1694 C1693 1.524 . S
C1694 C1695 1.397 . S
C1694 C1699 1.363 . S
C1695 H1666 0.950 . S
C1695 C1694 1.397 . S
C1695 C1696 1.334 . S
C1696 H1667 0.950 . S
C1696 C1695 1.334 . S
C1696 C1697 1.287 . S
C1697 C1696 1.287 . S
C1697 C1698 1.524 . S
C1697 H1700 0.999 . S
C1698 H1668 0.950 . S
C1698 C1697 1.524 . S
C1698 C1699 1.415 . S
C1699 H1669 0.950 . S
C1699 C1694 1.363 . S
C1699 C1698 1.415 . S
H1700 C1697 0.999 . S
H1701 C1682 0.913 . S
H1702 C1720 0.951 . S
H1703 C1722 0.951 . S
H1704 C1724 0.950 . S
H1705 C1725 0.950 . S
H1706 C1727 0.950 . S
H1707 C1730 0.950 . S
H1708 C1731 0.950 . S
H1709 C1733 0.950 . S
H1710 C1734 0.950 . S
H1711 C1735 0.951 . S
H1712 C1737 0.951 . S
H1713 C1739 0.950 . S
H1714 C1740 0.950 . S
H1715 C1742 0.950 . S
H1716 C1745 0.950 . S
H1717 C1746 0.950 . S
H1718 C1748 0.950 . S
H1719 C1749 0.950 . S
C1720 H1702 0.951 . S
C1720 C1721 1.366 . S
C1720 C1722 1.388 . S
C1721 C1720 1.366 . S
C1721 C1725 1.385 . S
C1722 H1703 0.951 . S
C1722 C1720 1.388 . S
C1722 C1723 1.366 . S
C1723 C1722 1.366 . S
C1723 C1724 1.414 . S
C1723 C1726 1.499 . S
C1724 H1704 0.950 . S
C1724 C1723 1.414 . S
C1724 C1725 1.374 . S
C1725 H1705 0.950 . S
C1725 C1721 1.385 . S
C1725 C1724 1.374 . S
C1726 C1723 1.499 . S
C1726 C1727 1.373 . S
C1726 C1728 1.389 . S
C1727 H1706 0.950 . S
C1727 C1726 1.373 . S
C1727 C1743 1.377 . S
C1728 C1726 1.389 . S
C1728 C1729 1.524 . S
C1728 C1742 1.377 . S
C1729 C1728 1.524 . S
C1729 C1730 1.397 . S
C1729 C1734 1.363 . S
C1730 H1707 0.950 . S
C1730 C1729 1.397 . S
C1730 C1731 1.334 . S
C1731 H1708 0.950 . S
C1731 C1730 1.334 . S
C1731 C1732 1.287 . S
C1732 C1731 1.287 . S
C1732 C1733 1.524 . S
C1732 H1751 0.913 . S
C1733 H1709 0.950 . S
C1733 C1732 1.524 . S
C1733 C1734 1.415 . S
C1734 H1710 0.950 . S
C1734 C1729 1.363 . S
C1734 C1733 1.415 . S
C1735 H1711 0.951 . S
C1735 C1736 1.366 . S
C1735 C1737 1.388 . S
C1736 C1735 1.366 . S
C1736 C1740 1.385 . S
C1737 H1712 0.951 . S
C1737 C1735 1.388 . S
C1737 C1738 1.366 . S
C1738 C1737 1.366 . S
C1738 C1739 1.414 . S
C1738 C1741 1.499 . S
C1739 H1713 0.950 . S
C1739 C1738 1.414 . S
C1739 C1740 1.374 . S
C1740 H1714 0.950 . S
C1740 C1736 1.385 . S
C1740 C1739 1.374 . S
C1741 C1738 1.499 . S
C1741 C1742 1.373 . S
C1741 C1743 1.389 . S
C1742 H1715 0.950 . S
C1742 C1728 1.377 . S
C1742 C1741 1.373 . S
C1743 C1727 1.377 . S
C1743 C1741 1.389 . S
C1743 C1744 1.524 . S
C1744 C1743 1.524 . S
C1744 C1745 1.397 . S
C1744 C1749 1.363 . S
C1745 H1716 0.950 . S
C1745 C1744 1.397 . S
C1745 C1746 1.334 . S
C1746 H1717 0.950 . S
C1746 C1745 1.334 . S
C1746 C1747 1.287 . S
C1747 C1746 1.287 . S
C1747 C1748 1.524 . S
C1747 H1750 0.999 . S
C1748 H1718 0.950 . S
C1748 C1747 1.524 . S
C1748 C1749 1.415 . S
C1749 H1719 0.950 . S
C1749 C1744 1.363 . S
C1749 C1748 1.415 . S
H1750 C1747 0.999 . S
H1751 C1732 0.913 . S
H1752 C1770 0.951 . S
H1753 C1772 0.951 . S
H1754 C1774 0.950 . S
H1755 C1775 0.950 . S
H1756 C1777 0.950 . S
H1757 C1780 0.950 . S
H1758 C1781 0.950 . S
H1759 C1783 0.950 . S
H1760 C1784 0.950 . S
H1761 C1785 0.951 . S
H1762 C1787 0.951 . S
H1763 C1789 0.950 . S
H1764 C1790 0.950 . S
H1765 C1792 0.950 . S
H1766 C1795 0.950 . S
H1767 C1796 0.950 . S
H1768 C1798 0.950 . S
H1769 C1799 0.950 . S
C1770 H1752 0.951 . S
C1770 C1771 1.366 . S
C1770 C1772 1.388 . S
C1771 C1770 1.366 . S
C1771 C1775 1.385 . S
C1772 H1753 0.951 . S
C1772 C1770 1.388 . S
C1772 C1773 1.366 . S
C1773 C1772 1.366 . S
C1773 C1774 1.414 . S
C1773 C1776 1.499 . S
C1774 H1754 0.950 . S
C1774 C1773 1.414 . S
C1774 C1775 1.374 . S
C1775 H1755 0.950 . S
C1775 C1771 1.385 . S
C1775 C1774 1.374 . S
C1776 C1773 1.499 . S
C1776 C1777 1.373 . S
C1776 C1778 1.389 . S
C1777 H1756 0.950 . S
C1777 C1776 1.373 . S
C1777 C1793 1.377 . S
C1778 C1776 1.389 . S
C1778 C1779 1.524 . S
C1778 C1792 1.377 . S
C1779 C1778 1.524 . S
C1779 C1780 1.397 . S
C1779 C1784 1.363 . S
C1780 H1757 0.950 . S
C1780 C1779 1.397 . S
C1780 C1781 1.334 . S
C1781 H1758 0.950 . S
C1781 C1780 1.334 . S
C1781 C1782 1.287 . S
C1782 C1781 1.287 . S
C1782 C1783 1.524 . S
C1782 H1801 0.913 . S
C1783 H1759 0.950 . S
C1783 C1782 1.524 . S
C1783 C1784 1.415 . S
C1784 H1760 0.950 . S
C1784 C1779 1.363 . S
C1784 C1783 1.415 . S
C1785 H1761 0.951 . S
C1785 C1786 1.366 . S
C1785 C1787 1.388 . S
C1786 C1785 1.366 . S
C1786 C1790 1.385 . S
C1787 H1762 0.951 . S
C1787 C1785 1.388 . S
C1787 C1788 1.366 . S
C1788 C1787 1.366 . S
C1788 C1789 1.414 . S
C1788 C1791 1.499 . S
C1789 H1763 0.950 . S
C1789 C1788 1.414 . S
C1789 C1790 1.374 . S
C1790 H1764 0.950 . S
C1790 C1786 1.385 . S
C1790 C1789 1.374 . S
C1791 C1788 1.499 . S
C1791 C1792 1.373 . S
C1791 C1793 1.389 . S
C1792 H1765 0.950 . S
C1792 C1778 1.377 . S
C1792 C1791 1.373 . S
C1793 C1777 1.377 . S
C1793 C1791 1.389 . S
C1793 C1794 1.524 . S
C1794 C1793 1.524 . S
C1794 C1795 1.397 . S
C1794 C1799 1.363 . S
C1795 H1766 0.950 . S
C1795 C1794 1.397 . S
C1795 C1796 1.334 . S
C1796 H1767 0.950 . S
C1796 C1795 1.334 . S
C1796 C1797 1.287 . S
C1797 C1796 1.287 . S
C1797 C1798 1.524 . S
C1797 H1800 0.999 . S
C1798 H1768 0.950 . S
C1798 C1797 1.524 . S
C1798 C1799 1.415 . S
C1799 H1769 0.950 . S
C1799 C1794 1.363 . S
C1799 C1798 1.415 . S
H1800 C1797 0.999 . S
H1801 C1782 0.913 . S
H1802 C1820 0.951 . S
H1803 C1822 0.951 . S
H1804 C1824 0.950 . S
H1805 C1825 0.950 . S
H1806 C1827 0.950 . S
H1807 C1830 0.950 . S
H1808 C1831 0.950 . S
H1809 C1833 0.950 . S
H1810 C1834 0.950 . S
H1811 C1835 0.951 . S
H1812 C1837 0.951 . S
H1813 C1839 0.950 . S
H1814 C1840 0.950 . S
H1815 C1842 0.950 . S
H1816 C1845 0.950 . S
H1817 C1846 0.950 . S
H1818 C1848 0.950 . S
H1819 C1849 0.950 . S
C1820 H1802 0.951 . S
C1820 C1821 1.366 . S
C1820 C1822 1.388 . S
C1821 C1820 1.366 . S
C1821 C1825 1.385 . S
C1822 H1803 0.951 . S
C1822 C1820 1.388 . S
C1822 C1823 1.366 . S
C1823 C1822 1.366 . S
C1823 C1824 1.414 . S
C1823 C1826 1.499 . S
C1824 H1804 0.950 . S
C1824 C1823 1.414 . S
C1824 C1825 1.374 . S
C1825 H1805 0.950 . S
C1825 C1821 1.385 . S
C1825 C1824 1.374 . S
C1826 C1823 1.499 . S
C1826 C1827 1.373 . S
C1826 C1828 1.389 . S
C1827 H1806 0.950 . S
C1827 C1826 1.373 . S
C1827 C1843 1.377 . S
C1828 C1826 1.389 . S
C1828 C1829 1.524 . S
C1828 C1842 1.377 . S
C1829 C1828 1.524 . S
C1829 C1830 1.397 . S
C1829 C1834 1.363 . S
C1830 H1807 0.950 . S
C1830 C1829 1.397 . S
C1830 C1831 1.334 . S
C1831 H1808 0.950 . S
C1831 C1830 1.334 . S
C1831 C1832 1.287 . S
C1832 C1831 1.287 . S
C1832 C1833 1.524 . S
C1832 H1851 0.913 . S
C1833 H1809 0.950 . S
C1833 C1832 1.524 . S
C1833 C1834 1.415 . S
C1834 H1810 0.950 . S
C1834 C1829 1.363 . S
C1834 C1833 1.415 . S
C1835 H1811 0.951 . S
C1835 C1836 1.366 . S
C1835 C1837 1.388 . S
C1836 C1835 1.366 . S
C1836 C1840 1.385 . S
C1837 H1812 0.951 . S
C1837 C1835 1.388 . S
C1837 C1838 1.366 . S
C1838 C1837 1.366 . S
C1838 C1839 1.414 . S
C1838 C1841 1.499 . S
C1839 H1813 0.950 . S
C1839 C1838 1.414 . S
C1839 C1840 1.374 . S
C1840 H1814 0.950 . S
C1840 C1836 1.385 . S
C1840 C1839 1.374 . S
C1841 C1838 1.499 . S
C1841 C1842 1.373 . S
C1841 C1843 1.389 . S
C1842 H1815 0.950 . S
C1842 C1828 1.377 . S
C1842 C1841 1.373 . S
C1843 C1827 1.377 . S
C1843 C1841 1.389 . S
C1843 C1844 1.524 . S
C1844 C1843 1.524 . S
C1844 C1845 1.397 . S
C1844 C1849 1.363 . S
C1845 H1816 0.950 . S
C1845 C1844 1.397 . S
C1845 C1846 1.334 . S
C1846 H1817 0.950 . S
C1846 C1845 1.334 . S
C1846 C1847 1.287 . S
C1847 C1846 1.287 . S
C1847 C1848 1.524 . S
C1847 H1850 0.999 . S
C1848 H1818 0.950 . S
C1848 C1847 1.524 . S
C1848 C1849 1.415 . S
C1849 H1819 0.950 . S
C1849 C1844 1.363 . S
C1849 C1848 1.415 . S
H1850 C1847 0.999 . S
H1851 C1832 0.913 . S
H1852 C1870 0.951 . S
H1853 C1872 0.951 . S
H1854 C1874 0.950 . S
H1855 C1875 0.950 . S
H1856 C1877 0.950 . S
H1857 C1880 0.950 . S
H1858 C1881 0.950 . S
H1859 C1883 0.950 . S
H1860 C1884 0.950 . S
H1861 C1885 0.951 . S
H1862 C1887 0.951 . S
H1863 C1889 0.950 . S
H1864 C1890 0.950 . S
H1865 C1892 0.950 . S
H1866 C1895 0.950 . S
H1867 C1896 0.950 . S
H1868 C1898 0.950 . S
H1869 C1899 0.950 . S
C1870 H1852 0.951 . S
C1870 C1871 1.366 . S
C1870 C1872 1.388 . S
C1871 C1870 1.366 . S
C1871 C1875 1.385 . S
C1872 H1853 0.951 . S
C1872 C1870 1.388 . S
C1872 C1873 1.366 . S
C1873 C1872 1.366 . S
C1873 C1874 1.414 . S
C1873 C1876 1.499 . S
C1874 H1854 0.950 . S
C1874 C1873 1.414 . S
C1874 C1875 1.374 . S
C1875 H1855 0.950 . S
C1875 C1871 1.385 . S
C1875 C1874 1.374 . S
C1876 C1873 1.499 . S
C1876 C1877 1.373 . S
C1876 C1878 1.389 . S
C1877 H1856 0.950 . S
C1877 C1876 1.373 . S
C1877 C1893 1.377 . S
C1878 C1876 1.389 . S
C1878 C1879 1.524 . S
C1878 C1892 1.377 . S
C1879 C1878 1.524 . S
C1879 C1880 1.397 . S
C1879 C1884 1.363 . S
C1880 H1857 0.950 . S
C1880 C1879 1.397 . S
C1880 C1881 1.334 . S
C1881 H1858 0.950 . S
C1881 C1880 1.334 . S
C1881 C1882 1.287 . S
C1882 C1881 1.287 . S
C1882 C1883 1.524 . S
C1882 H1901 0.913 . S
C1883 H1859 0.950 . S
C1883 C1882 1.524 . S
C1883 C1884 1.415 . S
C1884 H1860 0.950 . S
C1884 C1879 1.363 . S
C1884 C1883 1.415 . S
C1885 H1861 0.951 . S
C1885 C1886 1.366 . S
C1885 C1887 1.388 . S
C1886 C1885 1.366 . S
C1886 C1890 1.385 . S
C1887 H1862 0.951 . S
C1887 C1885 1.388 . S
C1887 C1888 1.366 . S
C1888 C1887 1.366 . S
C1888 C1889 1.414 . S
C1888 C1891 1.499 . S
C1889 H1863 0.950 . S
C1889 C1888 1.414 . S
C1889 C1890 1.374 . S
C1890 H1864 0.950 . S
C1890 C1886 1.385 . S
C1890 C1889 1.374 . S
C1891 C1888 1.499 . S
C1891 C1892 1.373 . S
C1891 C1893 1.389 . S
C1892 H1865 0.950 . S
C1892 C1878 1.377 . S
C1892 C1891 1.373 . S
C1893 C1877 1.377 . S
C1893 C1891 1.389 . S
C1893 C1894 1.524 . S
C1894 C1893 1.524 . S
C1894 C1895 1.397 . S
C1894 C1899 1.363 . S
C1895 H1866 0.950 . S
C1895 C1894 1.397 . S
C1895 C1896 1.334 . S
C1896 H1867 0.950 . S
C1896 C1895 1.334 . S
C1896 C1897 1.287 . S
C1897 C1896 1.287 . S
C1897 C1898 1.524 . S
C1897 H1900 0.999 . S
C1898 H1868 0.950 . S
C1898 C1897 1.524 . S
C1898 C1899 1.415 . S
C1899 H1869 0.950 . S
C1899 C1894 1.363 . S
C1899 C1898 1.415 . S
H1900 C1897 0.999 . S
H1901 C1882 0.913 . S
H1902 C1920 0.951 . S
H1903 C1922 0.951 . S
H1904 C1924 0.950 . S
H1905 C1925 0.950 . S
H1906 C1927 0.950 . S
H1907 C1930 0.950 . S
H1908 C1931 0.950 . S
H1909 C1933 0.950 . S
H1910 C1934 0.950 . S
H1911 C1935 0.951 . S
H1912 C1937 0.951 . S
H1913 C1939 0.950 . S
H1914 C1940 0.950 . S
H1915 C1942 0.950 . S
H1916 C1945 0.950 . S
H1917 C1946 0.950 . S
H1918 C1948 0.950 . S
H1919 C1949 0.950 . S
C1920 H1902 0.951 . S
C1920 C1921 1.366 . S
C1920 C1922 1.388 . S
C1921 C1920 1.366 . S
C1921 C1925 1.385 . S
C1922 H1903 0.951 . S
C1922 C1920 1.388 . S
C1922 C1923 1.366 . S
C1923 C1922 1.366 . S
C1923 C1924 1.414 . S
C1923 C1926 1.499 . S
C1924 H1904 0.950 . S
C1924 C1923 1.414 . S
C1924 C1925 1.374 . S
C1925 H1905 0.950 . S
C1925 C1921 1.385 . S
C1925 C1924 1.374 . S
C1926 C1923 1.499 . S
C1926 C1927 1.373 . S
C1926 C1928 1.389 . S
C1927 H1906 0.950 . S
C1927 C1926 1.373 . S
C1927 C1943 1.377 . S
C1928 C1926 1.389 . S
C1928 C1929 1.524 . S
C1928 C1942 1.377 . S
C1929 C1928 1.524 . S
C1929 C1930 1.397 . S
C1929 C1934 1.363 . S
C1930 H1907 0.950 . S
C1930 C1929 1.397 . S
C1930 C1931 1.334 . S
C1931 H1908 0.950 . S
C1931 C1930 1.334 . S
C1931 C1932 1.287 . S
C1932 C1931 1.287 . S
C1932 C1933 1.524 . S
C1932 H1951 0.913 . S
C1933 H1909 0.950 . S
C1933 C1932 1.524 . S
C1933 C1934 1.415 . S
C1934 H1910 0.950 . S
C1934 C1929 1.363 . S
C1934 C1933 1.415 . S
C1935 H1911 0.951 . S
C1935 C1936 1.366 . S
C1935 C1937 1.388 . S
C1936 C1935 1.366 . S
C1936 C1940 1.385 . S
C1937 H1912 0.951 . S
C1937 C1935 1.388 . S
C1937 C1938 1.366 . S
C1938 C1937 1.366 . S
C1938 C1939 1.414 . S
C1938 C1941 1.499 . S
C1939 H1913 0.950 . S
C1939 C1938 1.414 . S
C1939 C1940 1.374 . S
C1940 H1914 0.950 . S
C1940 C1936 1.385 . S
C1940 C1939 1.374 . S
C1941 C1938 1.499 . S
C1941 C1942 1.373 . S
C1941 C1943 1.389 . S
C1942 H1915 0.950 . S
C1942 C1928 1.377 . S
C1942 C1941 1.373 . S
C1943 C1927 1.377 . S
C1943 C1941 1.389 . S
C1943 C1944 1.524 . S
C1944 C1943 1.524 . S
C1944 C1945 1.397 . S
C1944 C1949 1.363 . S
C1945 H1916 0.950 . S
C1945 C1944 1.397 . S
C1945 C1946 1.334 . S
C1946 H1917 0.950 . S
C1946 C1945 1.334 . S
C1946 C1947 1.287 . S
C1947 C1946 1.287 . S
C1947 C1948 1.524 . S
C1947 H1950 0.999 . S
C1948 H1918 0.950 . S
C1948 C1947 1.524 . S
C1948 C1949 1.415 . S
C1949 H1919 0.950 . S
C1949 C1944 1.363 . S
C1949 C1948 1.415 . S
H1950 C1947 0.999 . S
H1951 C1932 0.913 . S
H1952 C1970 0.951 . S
H1953 C1972 0.951 . S
H1954 C1974 0.950 . S
H1955 C1975 0.950 . S
H1956 C1977 0.950 . S
H1957 C1980 0.950 . S
H1958 C1981 0.950 . S
H1959 C1983 0.950 . S
H1960 C1984 0.950 . S
H1961 C1985 0.951 . S
H1962 C1987 0.951 . S
H1963 C1989 0.950 . S
H1964 C1990 0.950 . S
H1965 C1992 0.950 . S
H1966 C1995 0.950 . S
H1967 C1996 0.950 . S
H1968 C1998 0.950 . S
H1969 C1999 0.950 . S
C1970 H1952 0.951 . S
C1970 C1971 1.366 . S
C1970 C1972 1.388 . S
C1971 C1970 1.366 . S
C1971 C1975 1.385 . S
C1972 H1953 0.951 . S
C1972 C1970 1.388 . S
C1972 C1973 1.366 . S
C1973 C1972 1.366 . S
C1973 C1974 1.414 . S
C1973 C1976 1.499 . S
C1974 H1954 0.950 . S
C1974 C1973 1.414 . S
C1974 C1975 1.374 . S
C1975 H1955 0.950 . S
C1975 C1971 1.385 . S
C1975 C1974 1.374 . S
C1976 C1973 1.499 . S
C1976 C1977 1.373 . S
C1976 C1978 1.389 . S
C1977 H1956 0.950 . S
C1977 C1976 1.373 . S
C1977 C1993 1.377 . S
C1978 C1976 1.389 . S
C1978 C1979 1.524 . S
C1978 C1992 1.377 . S
C1979 C1978 1.524 . S
C1979 C1980 1.397 . S
C1979 C1984 1.363 . S
C1980 H1957 0.950 . S
C1980 C1979 1.397 . S
C1980 C1981 1.334 . S
C1981 H1958 0.950 . S
C1981 C1980 1.334 . S
C1981 C1982 1.287 . S
C1982 C1981 1.287 . S
C1982 C1983 1.524 . S
C1982 H2001 0.913 . S
C1983 H1959 0.950 . S
C1983 C1982 1.524 . S
C1983 C1984 1.415 . S
C1984 H1960 0.950 . S
C1984 C1979 1.363 . S
C1984 C1983 1.415 . S
C1985 H1961 0.951 . S
C1985 C1986 1.366 . S
C1985 C1987 1.388 . S
C1986 C1985 1.366 . S
C1986 C1990 1.385 . S
C1987 H1962 0.951 . S
C1987 C1985 1.388 . S
C1987 C1988 1.366 . S
C1988 C1987 1.366 . S
C1988 C1989 1.414 . S
C1988 C1991 1.499 . S
C1989 H1963 0.950 . S
C1989 C1988 1.414 . S
C1989 C1990 1.374 . S
C1990 H1964 0.950 . S
C1990 C1986 1.385 . S
C1990 C1989 1.374 . S
C1991 C1988 1.499 . S
C1991 C1992 1.373 . S
C1991 C1993 1.389 . S
C1992 H1965 0.950 . S
C1992 C1978 1.377 . S
C1992 C1991 1.373 . S
C1993 C1977 1.377 . S
C1993 C1991 1.389 . S
C1993 C1994 1.524 . S
C1994 C1993 1.524 . S
C1994 C1995 1.397 . S
C1994 C1999 1.363 . S
C1995 H1966 0.950 . S
C1995 C1994 1.397 . S
C1995 C1996 1.334 . S
C1996 H1967 0.950 . S
C1996 C1995 1.334 . S
C1996 C1997 1.287 . S
C1997 C1996 1.287 . S
C1997 C1998 1.524 . S
C1997 H2000 0.999 . S
C1998 H1968 0.950 . S
C1998 C1997 1.524 . S
C1998 C1999 1.415 . S
C1999 H1969 0.950 . S
C1999 C1994 1.363 . S
C1999 C1998 1.415 . S
H2000 C1997 0.999 . S
H2001 C1982 0.913 . S
H2002 C2020 0.951 . S
H2003 C2022 0.951 . S
H2004 C2024 0.950 . S
H2005 C2025 0.950 . S
H2006 C2027 0.950 . S
H2007 C2030 0.950 . S
H2008 C2031 0.950 . S
H2009 C2033 0.950 . S
H2010 C2034 0.950 . S
H2011 C2035 0.951 . S
H2012 C2037 0.951 . S
H2013 C2039 0.950 . S
H2014 C2040 0.950 . S
H2015 C2042 0.950 . S
H2016 C2045 0.950 . S
H2017 C2046 0.950 . S
H2018 C2048 0.950 . S
H2019 C2049 0.950 . S
C2020 H2002 0.951 . S
C2020 C2021 1.366 . S
C2020 C2022 1.388 . S
C2021 C2020 1.366 . S
C2021 C2025 1.385 . S
C2022 H2003 0.951 . S
C2022 C2020 1.388 . S
C2022 C2023 1.366 . S
C2023 C2022 1.366 . S
C2023 C2024 1.414 . S
C2023 C2026 1.499 . S
C2024 H2004 0.950 . S
C2024 C2023 1.414 . S
C2024 C2025 1.374 . S
C2025 H2005 0.950 . S
C2025 C2021 1.385 . S
C2025 C2024 1.374 . S
C2026 C2023 1.499 . S
C2026 C2027 1.373 . S
C2026 C2028 1.389 . S
C2027 H2006 0.950 . S
C2027 C2026 1.373 . S
C2027 C2043 1.377 . S
C2028 C2026 1.389 . S
C2028 C2029 1.524 . S
C2028 C2042 1.377 . S
C2029 C2028 1.524 . S
C2029 C2030 1.397 . S
C2029 C2034 1.363 . S
C2030 H2007 0.950 . S
C2030 C2029 1.397 . S
C2030 C2031 1.334 . S
C2031 H2008 0.950 . S
C2031 C2030 1.334 . S
C2031 C2032 1.287 . S
C2032 C2031 1.287 . S
C2032 C2033 1.524 . S
C2032 H2051 0.913 . S
C2033 H2009 0.950 . S
C2033 C2032 1.524 . S
C2033 C2034 1.415 . S
C2034 H2010 0.950 . S
C2034 C2029 1.363 . S
C2034 C2033 1.415 . S
C2035 H2011 0.951 . S
C2035 C2036 1.366 . S
C2035 C2037 1.388 . S
C2036 C2035 1.366 . S
C2036 C2040 1.385 . S
C2037 H2012 0.951 . S
C2037 C2035 1.388 . S
C2037 C2038 1.366 . S
C2038 C2037 1.366 . S
C2038 C2039 1.414 . S
C2038 C2041 1.499 . S
C2039 H2013 0.950 . S
C2039 C2038 1.414 . S
C2039 C2040 1.374 . S
C2040 H2014 0.950 . S
C2040 C2036 1.385 . S
C2040 C2039 1.374 . S
C2041 C2038 1.499 . S
C2041 C2042 1.373 . S
C2041 C2043 1.389 . S
C2042 H2015 0.950 . S
C2042 C2028 1.377 . S
C2042 C2041 1.373 . S
C2043 C2027 1.377 . S
C2043 C2041 1.389 . S
C2043 C2044 1.524 . S
C2044 C2043 1.524 . S
C2044 C2045 1.397 . S
C2044 C2049 1.363 . S
C2045 H2016 0.950 . S
C2045 C2044 1.397 . S
C2045 C2046 1.334 . S
C2046 H2017 0.950 . S
C2046 C2045 1.334 . S
C2046 C2047 1.287 . S
C2047 C2046 1.287 . S
C2047 C2048 1.524 . S
C2047 H2050 0.999 . S
C2048 H2018 0.950 . S
C2048 C2047 1.524 . S
C2048 C2049 1.415 . S
C2049 H2019 0.950 . S
C2049 C2044 1.363 . S
C2049 C2048 1.415 . S
H2050 C2047 0.999 . S
H2051 C2032 0.913 . S
H2052 C2070 0.951 . S
H2053 C2072 0.951 . S
H2054 C2074 0.950 . S
H2055 C2075 0.950 . S
H2056 C2077 0.950 . S
H2057 C2080 0.950 . S
H2058 C2081 0.950 . S
H2059 C2083 0.950 . S
H2060 C2084 0.950 . S
H2061 C2085 0.951 . S
H2062 C2087 0.951 . S
H2063 C2089 0.950 . S
H2064 C2090 0.950 . S
H2065 C2092 0.950 . S
H2066 C2095 0.950 . S
H2067 C2096 0.950 . S
H2068 C2098 0.950 . S
H2069 C2099 0.950 . S
C2070 H2052 0.951 . S
C2070 C2071 1.366 . S
C2070 C2072 1.388 . S
C2071 C2070 1.366 . S
C2071 C2075 1.385 . S
C2072 H2053 0.951 . S
C2072 C2070 1.388 . S
C2072 C2073 1.366 . S
C2073 C2072 1.366 . S
C2073 C2074 1.414 . S
C2073 C2076 1.499 . S
C2074 H2054 0.950 . S
C2074 C2073 1.414 . S
C2074 C2075 1.374 . S
C2075 H2055 0.950 . S
C2075 C2071 1.385 . S
C2075 C2074 1.374 . S
C2076 C2073 1.499 . S
C2076 C2077 1.373 . S
C2076 C2078 1.389 . S
C2077 H2056 0.950 . S
C2077 C2076 1.373 . S
C2077 C2093 1.377 . S
C2078 C2076 1.389 . S
C2078 C2079 1.524 . S
C2078 C2092 1.377 . S
C2079 C2078 1.524 . S
C2079 C2080 1.397 . S
C2079 C2084 1.363 . S
C2080 H2057 0.950 . S
C2080 C2079 1.397 . S
C2080 C2081 1.334 . S
C2081 H2058 0.950 . S
C2081 C2080 1.334 . S
C2081 C2082 1.287 . S
C2082 C2081 1.287 . S
C2082 C2083 1.524 . S
C2082 H2101 0.913 . S
C2083 H2059 0.950 . S
C2083 C2082 1.524 . S
C2083 C2084 1.415 . S
C2084 H2060 0.950 . S
C2084 C2079 1.363 . S
C2084 C2083 1.415 . S
C2085 H2061 0.951 . S
C2085 C2086 1.366 . S
C2085 C2087 1.388 . S
C2086 C2085 1.366 . S
C2086 C2090 1.385 . S
C2087 H2062 0.951 . S
C2087 C2085 1.388 . S
C2087 C2088 1.366 . S
C2088 C2087 1.366 . S
C2088 C2089 1.414 . S
C2088 C2091 1.499 . S
C2089 H2063 0.950 . S
C2089 C2088 1.414 . S
C2089 C2090 1.374 . S
C2090 H2064 0.950 . S
C2090 C2086 1.385 . S
C2090 C2089 1.374 . S
C2091 C2088 1.499 . S
C2091 C2092 1.373 . S
C2091 C2093 1.389 . S
C2092 H2065 0.950 . S
C2092 C2078 1.377 . S
C2092 C2091 1.373 . S
C2093 C2077 1.377 . S
C2093 C2091 1.389 . S
C2093 C2094 1.524 . S
C2094 C2093 1.524 . S
C2094 C2095 1.397 . S
C2094 C2099 1.363 . S
C2095 H2066 0.950 . S
C2095 C2094 1.397 . S
C2095 C2096 1.334 . S
C2096 H2067 0.950 . S
C2096 C2095 1.334 . S
C2096 C2097 1.287 . S
C2097 C2096 1.287 . S
C2097 C2098 1.524 . S
C2097 H2100 0.999 . S
C2098 H2068 0.950 . S
C2098 C2097 1.524 . S
C2098 C2099 1.415 . S
C2099 H2069 0.950 . S
C2099 C2094 1.363 . S
C2099 C2098 1.415 . S
H2100 C2097 0.999 . S
H2101 C2082 0.913 . S
H2102 C2120 0.951 . S
H2103 C2122 0.951 . S
H2104 C2124 0.950 . S
H2105 C2125 0.950 . S
H2106 C2127 0.950 . S
H2107 C2130 0.950 . S
H2108 C2131 0.950 . S
H2109 C2133 0.950 . S
H2110 C2134 0.950 . S
H2111 C2135 0.951 . S
H2112 C2137 0.951 . S
H2113 C2139 0.950 . S
H2114 C2140 0.950 . S
H2115 C2142 0.950 . S
H2116 C2145 0.950 . S
H2117 C2146 0.950 . S
H2118 C2148 0.950 . S
H2119 C2149 0.950 . S
C2120 H2102 0.951 . S
C2120 C2121 1.366 . S
C2120 C2122 1.388 . S
C2121 C2120 1.366 . S
C2121 C2125 1.385 . S
C2122 H2103 0.951 . S
C2122 C2120 1.388 . S
C2122 C2123 1.366 . S
C2123 C2122 1.366 . S
C2123 C2124 1.414 . S
C2123 C2126 1.499 . S
C2124 H2104 0.950 . S
C2124 C2123 1.414 . S
C2124 C2125 1.374 . S
C2125 H2105 0.950 . S
C2125 C2121 1.385 . S
C2125 C2124 1.374 . S
C2126 C2123 1.499 . S
C2126 C2127 1.373 . S
C2126 C2128 1.389 . S
C2127 H2106 0.950 . S
C2127 C2126 1.373 . S
C2127 C2143 1.377 . S
C2128 C2126 1.389 . S
C2128 C2129 1.524 . S
C2128 C2142 1.377 . S
C2129 C2128 1.524 . S
C2129 C2130 1.397 . S
C2129 C2134 1.363 . S
C2130 H2107 0.950 . S
C2130 C2129 1.397 . S
C2130 C2131 1.334 . S
C2131 H2108 0.950 . S
C2131 C2130 1.334 . S
C2131 C2132 1.287 . S
C2132 C2131 1.287 . S
C2132 C2133 1.524 . S
C2132 H2151 0.913 . S
C2133 H2109 0.950 . S
C2133 C2132 1.524 . S
C2133 C2134 1.415 . S
C2134 H2110 0.950 . S
C2134 C2129 1.363 . S
C2134 C2133 1.415 . S
C2135 H2111 0.951 . S
C2135 C2136 1.366 . S
C2135 C2137 1.388 . S
C2136 C2135 1.366 . S
C2136 C2140 1.385 . S
C2137 H2112 0.951 . S
C2137 C2135 1.388 . S
C2137 C2138 1.366 . S
C2138 C2137 1.366 . S
C2138 C2139 1.414 . S
C2138 C2141 1.499 . S
C2139 H2113 0.950 . S
C2139 C2138 1.414 . S
C2139 C2140 1.374 . S
C2140 H2114 0.950 . S
C2140 C2136 1.385 . S
C2140 C2139 1.374 . S
C2141 C2138 1.499 . S
C2141 C2142 1.373 . S
C2141 C2143 1.389 . S
C2142 H2115 0.950 . S
C2142 C2128 1.377 . S
C2142 C2141 1.373 . S
C2143 C2127 1.377 . S
C2143 C2141 1.389 . S
C2143 C2144 1.524 . S
C2144 C2143 1.524 . S
C2144 C2145 1.397 . S
C2144 C2149 1.363 . S
C2145 H2116 0.950 . S
C2145 C2144 1.397 . S
C2145 C2146 1.334 . S
C2146 H2117 0.950 . S
C2146 C2145 1.334 . S
C2146 C2147 1.287 . S
C2147 C2146 1.287 . S
C2147 C2148 1.524 . S
C2147 H2150 0.999 . S
C2148 H2118 0.950 . S
C2148 C2147 1.524 . S
C2148 C2149 1.415 . S
C2149 H2119 0.950 . S
C2149 C2144 1.363 . S
C2149 C2148 1.415 . S
H2150 C2147 0.999 . S
H2151 C2132 0.913 . S
H2152 C2170 0.951 . S
H2153 C2172 0.951 . S
H2154 C2174 0.950 . S
H2155 C2175 0.950 . S
H2156 C2177 0.950 . S
H2157 C2180 0.950 . S
H2158 C2181 0.950 . S
H2159 C2183 0.950 . S
H2160 C2184 0.950 . S
H2161 C2185 0.951 . S
H2162 C2187 0.951 . S
H2163 C2189 0.950 . S
H2164 C2190 0.950 . S
H2165 C2192 0.950 . S
H2166 C2195 0.950 . S
H2167 C2196 0.950 . S
H2168 C2198 0.950 . S
H2169 C2199 0.950 . S
C2170 H2152 0.951 . S
C2170 C2171 1.366 . S
C2170 C2172 1.388 . S
C2171 C2170 1.366 . S
C2171 C2175 1.385 . S
C2172 H2153 0.951 . S
C2172 C2170 1.388 . S
C2172 C2173 1.366 . S
C2173 C2172 1.366 . S
C2173 C2174 1.414 . S
C2173 C2176 1.499 . S
C2174 H2154 0.950 . S
C2174 C2173 1.414 . S
C2174 C2175 1.374 . S
C2175 H2155 0.950 . S
C2175 C2171 1.385 . S
C2175 C2174 1.374 . S
C2176 C2173 1.499 . S
C2176 C2177 1.373 . S
C2176 C2178 1.389 . S
C2177 H2156 0.950 . S
C2177 C2176 1.373 . S
C2177 C2193 1.377 . S
C2178 C2176 1.389 . S
C2178 C2179 1.524 . S
C2178 C2192 1.377 . S
C2179 C2178 1.524 . S
C2179 C2180 1.397 . S
C2179 C2184 1.363 . S
C2180 H2157 0.950 . S
C2180 C2179 1.397 . S
C2180 C2181 1.334 . S
C2181 H2158 0.950 . S
C2181 C2180 1.334 . S
C2181 C2182 1.287 . S
C2182 C2181 1.287 . S
C2182 C2183 1.524 . S
C2182 H2201 0.913 . S
C2183 H2159 0.950 . S
C2183 C2182 1.524 . S
C2183 C2184 1.415 . S
C2184 H2160 0.950 . S
C2184 C2179 1.363 . S
C2184 C2183 1.415 . S
C2185 H2161 0.951 . S
C2185 C2186 1.366 . S
C2185 C2187 1.388 . S
C2186 C2185 1.366 . S
C2186 C2190 1.385 . S
C2187 H2162 0.951 . S
C2187 C2185 1.388 . S
C2187 C2188 1.366 . S
C2188 C2187 1.366 . S
C2188 C2189 1.414 . S
C2188 C2191 1.499 . S
C2189 H2163 0.950 . S
C2189 C2188 1.414 . S
C2189 C2190 1.374 . S
C2190 H2164 0.950 . S
C2190 C2186 1.385 . S
C2190 C2189 1.374 . S
C2191 C2188 1.499 . S
C2191 C2192 1.373 . S
C2191 C2193 1.389 . S
C2192 H2165 0.950 . S
C2192 C2178 1.377 . S
C2192 C2191 1.373 . S
C2193 C2177 1.377 . S
C2193 C2191 1.389 . S
C2193 C2194 1.524 . S
C2194 C2193 1.524 . S
C2194 C2195 1.397 . S
C2194 C2199 1.363 . S
C2195 H2166 0.950 . S
C2195 C2194 1.397 . S
C2195 C2196 1.334 . S
C2196 H2167 0.950 . S
C2196 C2195 1.334 . S
C2196 C2197 1.287 . S
C2197 C2196 1.287 . S
C2197 C2198 1.524 . S
C2197 H2200 0.999 . S
C2198 H2168 0.950 . S
C2198 C2197 1.524 . S
C2198 C2199 1.415 . S
C2199 H2169 0.950 . S
C2199 C2194 1.363 . S
C2199 C2198 1.415 . S
H2200 C2197 0.999 . S
H2201 C2182 0.913 . S
C1021 C39 1.862 . S
C1036 C347 1.654 . S
C1071 C91 1.920 . S
C1086 C487 1.627 . S
C1136 C575 1.466 . S
C1121 C128 1.658 . S
C1186 C715 1.448 . S
C1171 C188 1.708 . S
C1236 C829 1.530 . S
C1221 C250 1.814 . S
C1286 C899 1.015 . S
C1271 C304 1.870 . S
C1321 C75 1.752 . S
C1336 C557 0.972 . S
C1371 C144 1.733 . S
C1386 C661 1.274 . S
C1436 C775 1.283 . S
C1421 C198 1.749 . S
C1486 C917 1.429 . S
C1471 C234 1.615 . S
C1521 C294 1.777 . S
C1536 C329 0.932 . S
C1586 C433 1.123 . S
C1571 C29 1.534 . S
C1636 C671 1.488 . S
C1621 C38 1.981 . S
C1671 C92 1.965 . S
C1686 C785 1.447 . S
C1736 C943 1.261 . S
C1721 C135 1.934 . S
C1771 C181 1.650 . S
C1786 C319 1.378 . S
C1821 C251 2.041 . S
C1836 C443 1.470 . S
C1871 C303 1.783 . S
C1886 C547 1.534 . S
C1921 C82 1.758 . S
C1936 C889 1.509 . S
C1986 C373 1.284 . S
C1971 C145 1.983 . S
C2021 C197 1.829 . S
C2036 C461 1.310 . S
C2071 C241 1.801 . S
C2086 C601 1.127 . S
C2121 C287 1.649 . S
C2136 C689 1.213 . S
C2171 C22 1.740 . S
C2186 C803 1.286 . S
