# Generated by pormake.
# Topology cml, (3,6)-cn, num edge types: 1
# Building blocks:
#     Node 0, Type 0, BuildingBlock: BELTOD_clean_linker_0, # of connection points: 3
#     Node 1, Type 0, BuildingBlock: BELTOD_clean_linker_0, # of connection points: 3
#     Node 2, Type 0, BuildingBlock: BELTOD_clean_linker_0, # of connection points: 3
#     Node 3, Type 0, BuildingBlock: BELTOD_clean_linker_0, # of connection points: 3
#     Node 4, Type 0, BuildingBlock: BELTOD_clean_linker_0, # of connection points: 3
#     Node 5, Type 0, BuildingBlock: BELTOD_clean_linker_0, # of connection points: 3
#     Node 6, Type 0, BuildingBlock: BELTOD_clean_linker_0, # of connection points: 3
#     Node 7, Type 0, BuildingBlock: BELTOD_clean_linker_0, # of connection points: 3
#     Node 8, Type 1, BuildingBlock: IZENUY_clean_sbu_0, # of connection points: 6
#     Node 9, Type 1, BuildingBlock: IZENUY_clean_sbu_0, # of connection points: 6
#     Node 10, Type 1, BuildingBlock: IZENUY_clean_sbu_0, # of connection points: 6
#     Node 11, Type 1, BuildingBlock: IZENUY_clean_sbu_0, # of connection points: 6
#     Edge 12, Type (0, 1), BuildingBlock: OJICUG_clean_linker_0, # of connection points: 2
#     Edge 13, Type (0, 1), BuildingBlock: OJICUG_clean_linker_0, # of connection points: 2
#     Edge 14, Type (0, 1), BuildingBlock: OJICUG_clean_linker_0, # of connection points: 2
#     Edge 15, Type (0, 1), BuildingBlock: OJICUG_clean_linker_0, # of connection points: 2
#     Edge 16, Type (0, 1), BuildingBlock: OJICUG_clean_linker_0, # of connection points: 2
#     Edge 17, Type (0, 1), BuildingBlock: OJICUG_clean_linker_0, # of connection points: 2
#     Edge 18, Type (0, 1), BuildingBlock: OJICUG_clean_linker_0, # of connection points: 2
#     Edge 19, Type (0, 1), BuildingBlock: OJICUG_clean_linker_0, # of connection points: 2
#     Edge 20, Type (0, 1), BuildingBlock: OJICUG_clean_linker_0, # of connection points: 2
#     Edge 21, Type (0, 1), BuildingBlock: OJICUG_clean_linker_0, # of connection points: 2
#     Edge 22, Type (0, 1), BuildingBlock: OJICUG_clean_linker_0, # of connection points: 2
#     Edge 23, Type (0, 1), BuildingBlock: OJICUG_clean_linker_0, # of connection points: 2
#     Edge 24, Type (0, 1), BuildingBlock: OJICUG_clean_linker_0, # of connection points: 2
#     Edge 25, Type (0, 1), BuildingBlock: OJICUG_clean_linker_0, # of connection points: 2
#     Edge 26, Type (0, 1), BuildingBlock: OJICUG_clean_linker_0, # of connection points: 2
#     Edge 27, Type (0, 1), BuildingBlock: OJICUG_clean_linker_0, # of connection points: 2
#     Edge 28, Type (0, 1), BuildingBlock: OJICUG_clean_linker_0, # of connection points: 2
#     Edge 29, Type (0, 1), BuildingBlock: OJICUG_clean_linker_0, # of connection points: 2
#     Edge 30, Type (0, 1), BuildingBlock: OJICUG_clean_linker_0, # of connection points: 2
#     Edge 31, Type (0, 1), BuildingBlock: OJICUG_clean_linker_0, # of connection points: 2
#     Edge 32, Type (0, 1), BuildingBlock: OJICUG_clean_linker_0, # of connection points: 2
#     Edge 33, Type (0, 1), BuildingBlock: OJICUG_clean_linker_0, # of connection points: 2
#     Edge 34, Type (0, 1), BuildingBlock: OJICUG_clean_linker_0, # of connection points: 2
#     Edge 35, Type (0, 1), BuildingBlock: OJICUG_clean_linker_0, # of connection points: 2
# Relax obj value: 0.048
# Max RMSD: 0.064
# Mean RMSD: 0.062
data_MOF--net-cml--node1-IZENUY_clean_sbu_0--node2-BELTOD_clean_linker_0--edge1-OJICUG_clean_linker_0
_symmetry_space_group_name_H-M    P1
_symmetry_Int_Tables_number       1
_symmetry_cell_setting            triclinic
loop_
_symmetry_equiv_pos_as_xyz
'x, y, z'
_cell_length_a     30.97858
_cell_length_b     35.870153
_cell_length_c     32.953298
_cell_angle_alpha  89.479122
_cell_angle_beta   89.605519
_cell_angle_gamma 90.331074
loop_
_atom_site_label
_atom_site_type_symbol
_atom_site_fract_x
_atom_site_fract_y
_atom_site_fract_z
_atom_type_partial_charge
P0 P 0.32618 0.33816 0.97732 0.0
H1 H 0.37394 0.2855 0.02795 0.0
H2 H 0.39165 0.2855 0.10002 0.0
H3 H 0.30859 0.38047 0.1177 0.0
H4 H 0.29126 0.38042 0.04532 0.0
H5 H 0.29846 0.31292 0.89818 0.0
H6 H 0.23374 0.2802 0.87507 0.0
H7 H 0.18112 0.2833 0.99673 0.0
H8 H 0.24571 0.3161 0.01963 0.0
H9 H 0.38177 0.39715 0.00653 0.0
H10 H 0.28109 0.3859 0.91754 0.0
O11 O 0.36732 0.31667 0.95466 0.0
H12 H 0.39415 0.46133 0.9848 0.0
H13 H 0.29387 0.45036 0.89518 0.0
C14 C 0.33224 0.33356 0.03131 0.0
C15 C 0.359 0.30592 0.04745 0.0
C16 C 0.3688 0.30578 0.08873 0.0
C17 C 0.35186 0.33328 0.11438 0.0
C18 C 0.32259 0.35931 0.0985 0.0
C19 C 0.31266 0.35929 0.05725 0.0
C20 C 0.27703 0.31661 0.96061 0.0
C21 C 0.27285 0.30674 0.91979 0.0
C22 C 0.23586 0.28821 0.90662 0.0
C23 C 0.2026 0.27904 0.93421 0.0
C24 C 0.20656 0.28961 0.97498 0.0
C25 C 0.24342 0.3085 0.98803 0.0
C26 C 0.33012 0.38683 0.96408 0.0
C27 C 0.36154 0.40878 0.98297 0.0
C28 C 0.36846 0.4456 0.97066 0.0
C29 C 0.34467 0.461 0.93856 0.0
C30 C 0.31252 0.43921 0.92013 0.0
C31 C 0.30526 0.40235 0.93287 0.0
P32 P 0.75639 0.59493 0.52524 0.0
H33 H 0.77305 0.52304 0.48689 0.0
H34 H 0.72729 0.4808 0.44816 0.0
H35 H 0.62482 0.562 0.45036 0.0
H36 H 0.67107 0.6043 0.48883 0.0
H37 H 0.83145 0.6388 0.54649 0.0
H38 H 0.87216 0.68784 0.51149 0.0
H39 H 0.78176 0.68452 0.41225 0.0
H40 H 0.74133 0.6348 0.44746 0.0
H41 H 0.68826 0.55683 0.56989 0.0
H42 H 0.75027 0.66475 0.57271 0.0
O43 O 0.79433 0.56807 0.54589 0.0
H44 H 0.64488 0.57299 0.6287 0.0
H45 H 0.70771 0.68076 0.63308 0.0
C46 C 0.72521 0.56659 0.49116 0.0
C47 C 0.74093 0.53196 0.47865 0.0
C48 C 0.71464 0.50773 0.45669 0.0
C49 C 0.67222 0.51783 0.44662 0.0
C50 C 0.65739 0.55342 0.45744 0.0
C51 C 0.68371 0.5776 0.47953 0.0
C52 C 0.7836 0.63295 0.49951 0.0
C53 C 0.82025 0.64871 0.51728 0.0
C54 C 0.84335 0.67695 0.49729 0.0
C55 C 0.8302 0.69019 0.45903 0.0
C56 C 0.79297 0.67468 0.44148 0.0
C57 C 0.7697 0.64638 0.4617 0.0
C58 C 0.722 0.60974 0.56636 0.0
C59 C 0.69229 0.58422 0.58296 0.0
C60 C 0.66787 0.59335 0.61706 0.0
C61 C 0.67322 0.62802 0.63608 0.0
C62 C 0.70266 0.65391 0.61908 0.0
C63 C 0.72706 0.64473 0.58457 0.0
P64 P 0.76439 0.40954 0.02234 0.0
H65 H 0.77928 0.41046 0.11001 0.0
H66 H 0.73354 0.39449 0.16831 0.0
H67 H 0.63255 0.35896 0.08728 0.0
H68 H 0.67891 0.37456 0.02896 0.0
H69 H 0.81231 0.40873 0.94649 0.0
H70 H 0.84873 0.35923 0.90932 0.0
H71 H 0.79809 0.278 0.99518 0.0
H72 H 0.76289 0.3278 0.03277 0.0
H73 H 0.74894 0.4892 0.02663 0.0
H74 H 0.70753 0.39734 0.95262 0.0
O75 O 0.80695 0.43347 0.03911 0.0
H76 H 0.70155 0.53109 0.98909 0.0
H77 H 0.65939 0.43909 0.91514 0.0
C78 C 0.73227 0.39409 0.06515 0.0
C79 C 0.74745 0.39896 0.10472 0.0
C80 C 0.72118 0.38996 0.13808 0.0
C81 C 0.67923 0.37578 0.13248 0.0
C82 C 0.66478 0.36958 0.09268 0.0
C83 C 0.69111 0.37871 0.05931 0.0
C84 C 0.78488 0.37193 0.99227 0.0
C85 C 0.80854 0.38016 0.95689 0.0
C86 C 0.82913 0.35179 0.93553 0.0
C87 C 0.82652 0.31464 0.94936 0.0
C88 C 0.80125 0.30639 0.98403 0.0
C89 C 0.78082 0.33484 0.00544 0.0
C90 C 0.7322 0.44038 0.99195 0.0
C91 C 0.73002 0.47816 0.00193 0.0
C92 C 0.70271 0.50201 0.98061 0.0
C93 C 0.6767 0.48837 0.94916 0.0
C94 C 0.67948 0.45051 0.9388 0.0
C95 C 0.70684 0.42662 0.96027 0.0
P96 P 0.333 0.6596 0.47303 0.0
H97 H 0.36849 0.63421 0.39591 0.0
H98 H 0.38161 0.57201 0.36937 0.0
H99 H 0.31213 0.52365 0.47132 0.0
H100 H 0.29914 0.58623 0.49776 0.0
H101 H 0.31543 0.73799 0.45731 0.0
H102 H 0.2498 0.7717 0.43997 0.0
H103 H 0.17668 0.6689 0.44877 0.0
H104 H 0.24283 0.63523 0.46548 0.0
H105 H 0.38967 0.61137 0.51915 0.0
H106 H 0.29536 0.69619 0.54479 0.0
O107 O 0.37473 0.68461 0.45525 0.0
H108 H 0.40518 0.60546 0.59128 0.0
H109 H 0.31118 0.69061 0.61737 0.0
C110 C 0.33392 0.61466 0.44929 0.0
C111 C 0.35536 0.61029 0.41214 0.0
C112 C 0.36256 0.57468 0.39687 0.0
C113 C 0.34833 0.5429 0.41856 0.0
C114 C 0.32401 0.54761 0.45429 0.0
C115 C 0.31653 0.58331 0.46936 0.0
C116 C 0.28407 0.68403 0.46168 0.0
C117 C 0.28529 0.72269 0.45539 0.0
C118 C 0.24766 0.74199 0.44588 0.0
C119 C 0.20806 0.72294 0.44278 0.0
C120 C 0.20682 0.68425 0.45028 0.0
C121 C 0.24455 0.66498 0.45988 0.0
C122 C 0.34073 0.65362 0.52668 0.0
C123 C 0.37161 0.62817 0.54041 0.0
C124 C 0.38033 0.62469 0.58168 0.0
C125 C 0.35898 0.64724 0.60997 0.0
C126 C 0.32792 0.67275 0.59619 0.0
C127 C 0.31883 0.6759 0.55476 0.0
P128 P 0.81227 0.84979 0.98983 0.0
H129 H 0.86551 0.79806 0.03609 0.0
H130 H 0.88739 0.79695 0.10678 0.0
H131 H 0.79836 0.88621 0.13269 0.0
H132 H 0.77727 0.88761 0.06113 0.0
H133 H 0.7833 0.82958 0.90961 0.0
H134 H 0.72022 0.79556 0.88521 0.0
H135 H 0.67122 0.78685 0.00802 0.0
H136 H 0.73447 0.82105 0.03228 0.0
H137 H 0.86773 0.90835 0.02009 0.0
H138 H 0.76506 0.89891 0.93286 0.0
O139 O 0.85334 0.83002 0.96522 0.0
H140 H 0.88154 0.97209 0.99785 0.0
H141 H 0.77914 0.96297 0.91009 0.0
C142 C 0.82048 0.8434 0.04336 0.0
C143 C 0.85012 0.81695 0.05707 0.0
C144 C 0.86237 0.81619 0.09769 0.0
C145 C 0.84492 0.84178 0.12538 0.0
C146 C 0.8129 0.86657 0.11198 0.0
C147 C 0.80066 0.86726 0.07123 0.0
C148 C 0.76358 0.82773 0.97268 0.0
C149 C 0.75875 0.82067 0.93123 0.0
C150 C 0.72266 0.80136 0.91732 0.0
C151 C 0.69089 0.78849 0.94476 0.0
C152 C 0.69546 0.79614 0.98629 0.0
C153 C 0.73148 0.81584 1.00014 0.0
C154 C 0.81514 0.89887 0.97843 0.0
C155 C 0.84721 0.92036 0.99699 0.0
C156 C 0.85497 0.95697 0.98437 0.0
C157 C 0.83131 0.97262 0.95231 0.0
C158 C 0.79787 0.95158 0.93487 0.0
C159 C 0.78985 0.91492 0.94785 0.0
P160 P 0.26127 0.09319 0.52967 0.0
H161 H 0.26444 0.01287 0.51525 0.0
H162 H 0.2205 0.97146 0.47396 0.0
H163 H 0.1526 0.06648 0.42523 0.0
H164 H 0.19704 0.10802 0.46673 0.0
H165 H 0.34817 0.09874 0.49732 0.0
H166 H 0.38702 0.14672 0.45898 0.0
H167 H 0.27374 0.21638 0.46113 0.0
H168 H 0.2347 0.16774 0.49988 0.0
H169 H 0.19089 0.05329 0.5686 0.0
H170 H 0.2488 0.16247 0.5772 0.0
O171 O 0.2984 0.0682 0.55409 0.0
H172 H 0.14167 0.06783 0.62347 0.0
H173 H 0.19756 0.17827 0.63141 0.0
C174 C 0.23416 0.06357 0.49391 0.0
C175 C 0.24077 0.02497 0.49511 0.0
C176 C 0.21546 0.00126 0.47161 0.0
C177 C 0.18294 0.01571 0.44651 0.0
C178 C 0.1777 0.05458 0.44396 0.0
C179 C 0.20298 0.07831 0.4677 0.0
C180 C 0.28895 0.13011 0.50248 0.0
C181 C 0.33167 0.12442 0.4899 0.0
C182 C 0.35376 0.15175 0.46755 0.0
C183 C 0.33348 0.18538 0.457 0.0
C184 C 0.29037 0.19092 0.46923 0.0
C185 C 0.26808 0.16324 0.49142 0.0
C186 C 0.22245 0.10726 0.56754 0.0
C187 C 0.1922 0.08091 0.58153 0.0
C188 C 0.16382 0.08939 0.61305 0.0
C189 C 0.16476 0.12461 0.63152 0.0
C190 C 0.19573 0.15091 0.61791 0.0
C191 C 0.22466 0.14213 0.58644 0.0
P192 P 0.25358 0.89885 0.01949 0.0
H193 H 0.26936 0.91162 0.10563 0.0
H194 H 0.22848 0.89611 0.16705 0.0
H195 H 0.13392 0.83797 0.09528 0.0
H196 H 0.17513 0.85384 0.03338 0.0
H197 H 0.29516 0.89828 0.94054 0.0
H198 H 0.33213 0.84966 0.90267 0.0
H199 H 0.28951 0.76798 0.99182 0.0
H200 H 0.25449 0.81706 0.03039 0.0
H201 H 0.24284 0.97923 0.02154 0.0
H202 H 0.18902 0.88677 0.95581 0.0
O203 O 0.2977 0.92251 0.03296 0.0
H204 H 0.19627 0.02215 0.98464 0.0
H205 H 0.14146 0.9297 0.919 0.0
C206 C 0.22533 0.88382 0.06488 0.0
C207 C 0.24015 0.89516 0.10295 0.0
C208 C 0.21673 0.88631 0.13813 0.0
C209 C 0.17804 0.86581 0.13598 0.0
C210 C 0.1639 0.85342 0.09789 0.0
C211 C 0.18723 0.86264 0.06255 0.0
C212 C 0.27196 0.86129 0.98815 0.0
C213 C 0.2931 0.86974 0.95145 0.0
C214 C 0.31403 0.84182 0.92968 0.0
C215 C 0.31417 0.80487 0.94432 0.0
C216 C 0.29073 0.79625 0.98002 0.0
C217 C 0.27023 0.82429 0.00198 0.0
C218 C 0.21974 0.92995 0.991 0.0
C219 C 0.22114 0.9682 0.99894 0.0
C220 C 0.19432 0.99268 0.97794 0.0
C221 C 0.16515 0.97933 0.94886 0.0
C222 C 0.16401 0.94089 0.94078 0.0
C223 C 0.19094 0.91634 0.96194 0.0
P224 P 0.82248 0.15356 0.48359 0.0
H225 H 0.87059 0.12987 0.41242 0.0
H226 H 0.88566 0.0687 0.38464 0.0
H227 H 0.79816 0.0182 0.47215 0.0
H228 H 0.78294 0.08018 0.49985 0.0
H229 H 0.81001 0.20806 0.41925 0.0
H230 H 0.74668 0.24065 0.39409 0.0
H231 H 0.66693 0.18215 0.48229 0.0
H232 H 0.73106 0.14971 0.50773 0.0
H233 H 0.86361 0.09814 0.53533 0.0
H234 H 0.789 0.19826 0.55089 0.0
O235 O 0.86567 0.17933 0.47104 0.0
H236 H 0.87652 0.09518 0.60776 0.0
H237 H 0.80225 0.19557 0.62411 0.0
C238 C 0.82667 0.1093 0.45885 0.0
C239 C 0.85409 0.10578 0.42526 0.0
C240 C 0.8624 0.07073 0.4092 0.0
C241 C 0.8433 0.03856 0.42644 0.0
C242 C 0.81367 0.04246 0.45859 0.0
C243 C 0.80494 0.07777 0.47433 0.0
C244 C 0.77524 0.17719 0.46592 0.0
C245 C 0.77898 0.20239 0.43339 0.0
C246 C 0.74267 0.22077 0.41879 0.0
C247 C 0.70184 0.21402 0.43628 0.0
C248 C 0.69809 0.18828 0.46862 0.0
C249 C 0.73458 0.16971 0.4831 0.0
C250 C 0.82401 0.14768 0.53777 0.0
C251 C 0.84847 0.1187 0.55449 0.0
C252 C 0.8559 0.11702 0.59609 0.0
C253 C 0.83997 0.1449 0.62172 0.0
C254 C 0.81466 0.17357 0.60507 0.0
C255 C 0.80688 0.17501 0.56332 0.0
Fe256 Fe 0.00307 0.81234 0.31969 0.0
Fe257 Fe -0.00118 0.85954 0.39724 0.0
O258 O 0.0008 0.8566 0.34347 0.0
Fe259 Fe 0.00054 0.89813 0.31378 0.0
O260 O 0.95141 0.88422 0.28817 0.0
O261 O 0.97078 0.82639 0.27601 0.0
O262 O 0.95287 0.79702 0.34379 0.0
C263 C 0.94559 0.79697 0.38149 0.0
C264 C 0.05937 0.85247 0.27117 0.0
O265 O 0.96887 0.81597 0.40499 0.0
C266 C 0.05482 0.91873 0.37503 0.0
O267 O 0.03585 0.79063 0.35948 0.0
O268 O 0.05026 0.83613 0.40177 0.0
O269 O 0.03423 0.87998 0.27303 0.0
O270 O 0.05337 0.82387 0.29317 0.0
C271 C 0.94037 0.91299 0.37628 0.0
O272 O 0.02865 0.90357 0.39981 0.0
O273 O 0.04992 0.91512 0.33727 0.0
C274 C 0.05912 0.80478 0.38688 0.0
O275 O 0.94715 0.88343 0.39628 0.0
O276 O 0.96652 0.9239 0.34899 0.0
C277 C 0.94582 0.85369 0.27014 0.0
Fe278 Fe 0.99159 0.14325 0.89579 0.0
Fe279 Fe 0.98737 0.10126 0.81537 0.0
O280 O 0.99152 0.14381 0.842 0.0
Fe281 Fe 0.99553 0.18674 0.81504 0.0
O282 O 0.03097 0.20901 0.85215 0.0
O283 O 0.04453 0.16482 0.89698 0.0
O284 O 0.01857 0.09828 0.90035 0.0
C285 C 0.04268 0.08098 0.8759 0.0
C286 C 0.94135 0.20654 0.8773 0.0
O287 O 0.03691 0.08362 0.83805 0.0
C288 C 0.93378 0.14539 0.77043 0.0
O289 O 0.93853 0.12146 0.89823 0.0
O290 O 0.9537 0.07806 0.85383 0.0
O291 O 0.94709 0.20466 0.83944 0.0
O292 O 0.96484 0.18816 0.90133 0.0
C293 C 0.04634 0.14333 0.76667 0.0
O294 O 0.93784 0.11587 0.79114 0.0
O295 O 0.9608 0.17187 0.77334 0.0
C296 C 0.92945 0.09104 0.88126 0.0
O297 O 0.0197 0.11682 0.77165 0.0
O298 O 0.04426 0.17216 0.78824 0.0
C299 C 0.05447 0.19524 0.87973 0.0
Fe300 Fe 0.50139 0.31061 0.31183 0.0
Fe301 Fe 0.49666 0.35418 0.39141 0.0
O302 O 0.49846 0.35357 0.33771 0.0
Fe303 Fe 0.49759 0.39588 0.30985 0.0
O304 O 0.46798 0.37644 0.26674 0.0
O305 O 0.45116 0.31932 0.28587 0.0
O306 O 0.46972 0.28431 0.35013 0.0
C307 C 0.44338 0.29503 0.37721 0.0
C308 C 0.55724 0.35793 0.26555 0.0
O309 O 0.44724 0.32687 0.39272 0.0
C310 C 0.55148 0.41279 0.37657 0.0
O311 O 0.55178 0.2993 0.33608 0.0
O312 O 0.53045 0.31248 0.39803 0.0
O313 O 0.54939 0.38624 0.28665 0.0
O314 O 0.53366 0.32901 0.26869 0.0
C315 C 0.43869 0.41191 0.36858 0.0
O316 O 0.546 0.38149 0.39365 0.0
O317 O 0.52707 0.4231 0.34794 0.0
C318 C 0.55709 0.29741 0.37392 0.0
O319 O 0.46282 0.39615 0.39445 0.0
O320 O 0.44582 0.40831 0.33116 0.0
C321 C 0.44456 0.34751 0.26373 0.0
Fe322 Fe 0.49193 0.64259 0.89371 0.0
Fe323 Fe 0.49589 0.60247 0.81203 0.0
O324 O 0.49495 0.64448 0.83992 0.0
Fe325 Fe 0.49706 0.68832 0.81434 0.0
O326 O 0.52805 0.71169 0.85411 0.0
O327 O 0.54288 0.66719 0.89817 0.0
O328 O 0.52209 0.59922 0.89888 0.0
C329 C 0.54864 0.58375 0.87524 0.0
C330 C 0.43772 0.70308 0.87409 0.0
O331 O 0.54473 0.58688 0.8373 0.0
C332 C 0.44259 0.64467 0.76444 0.0
O333 O 0.44073 0.61764 0.89293 0.0
O334 O 0.46112 0.57667 0.84754 0.0
O335 O 0.4457 0.7025 0.8365 0.0
O336 O 0.46136 0.68563 0.89879 0.0
C337 C 0.55575 0.6485 0.76962 0.0
O338 O 0.44743 0.6149 0.78456 0.0
O339 O 0.46673 0.67267 0.77019 0.0
C340 C 0.43487 0.58732 0.87457 0.0
O341 O 0.53065 0.62066 0.77157 0.0
O342 O 0.54846 0.67756 0.78986 0.0
C343 C 0.55107 0.69868 0.88249 0.0
C344 C 0.14909 0.22702 0.94315 0.0
C345 C 0.16431 0.25786 0.92059 0.0
H346 H 0.10271 0.18272 0.94776 0.0
C347 C 0.14324 0.26794 0.88459 0.0
H348 H 0.1651 0.21842 0.97079 0.0
C349 C 0.10748 0.24765 0.87144 0.0
C350 C 0.09231 0.21665 0.89386 0.0
H351 H 0.15418 0.29175 0.86677 0.0
H352 H 0.09191 0.25616 0.84355 0.0
C353 C 0.11357 0.20647 0.9298 0.0
C354 C 0.86554 0.71701 0.39593 0.0
C355 C 0.85607 0.71953 0.43765 0.0
H356 H 0.90129 0.7395 0.34521 0.0
C357 C 0.87365 0.74931 0.4596 0.0
H358 H 0.85266 0.6943 0.37819 0.0
C359 C 0.9016 0.77488 0.4409 0.0
C360 C 0.91267 0.77152 0.39964 0.0
H361 H 0.86627 0.75258 0.49155 0.0
H362 H 0.91514 0.797 0.45911 0.0
C363 C 0.89355 0.7428 0.37707 0.0
C364 C 0.85897 0.28416 0.88757 0.0
C365 C 0.85313 0.28529 0.92996 0.0
H366 H 0.8912 0.25824 0.83743 0.0
C367 C 0.87515 0.25941 0.9543 0.0
H368 H 0.84215 0.30352 0.86795 0.0
C369 C 0.90297 0.23358 0.93692 0.0
C370 C 0.90972 0.23293 0.89468 0.0
H371 H 0.87205 0.25983 0.98705 0.0
H372 H 0.91978 0.21449 0.95688 0.0
C373 C 0.88692 0.25815 0.87008 0.0
C374 C 0.1597 0.77887 0.44546 0.0
C375 C 0.16864 0.74321 0.43026 0.0
H376 H 0.11808 0.82628 0.44386 0.0
C377 C 0.14055 0.72758 0.4017 0.0
H378 H 0.18051 0.79149 0.46783 0.0
C379 C 0.10475 0.7474 0.38807 0.0
C380 C 0.09612 0.78331 0.40275 0.0
H381 H 0.14686 0.70039 0.38901 0.0
H382 H 0.08416 0.73469 0.36558 0.0
C383 C 0.1238 0.79871 0.43187 0.0
C384 C 0.63182 0.77732 0.8948 0.0
C385 C 0.65386 0.76625 0.92995 0.0
H386 H 0.58209 0.76479 0.85236 0.0
C387 C 0.6414 0.73308 0.94991 0.0
H388 H 0.64053 0.80292 0.87899 0.0
C389 C 0.608 0.71107 0.9346 0.0
C390 C 0.58614 0.72201 0.89921 0.0
H391 H 0.65818 0.72369 0.97683 0.0
H392 H 0.59946 0.68544 0.95041 0.0
C393 C 0.59825 0.75551 0.87966 0.0
C394 C 0.38478 0.20433 0.40121 0.0
C395 C 0.35796 0.21442 0.43385 0.0
H396 H 0.43226 0.22172 0.35754 0.0
C397 C 0.35695 0.25195 0.4457 0.0
H398 H 0.38575 0.17574 0.39093 0.0
C399 C 0.38372 0.27844 0.42654 0.0
C400 C 0.4119 0.26799 0.39498 0.0
H401 H 0.33676 0.26055 0.47085 0.0
H402 H 0.38311 0.30691 0.43721 0.0
C403 C 0.41133 0.23077 0.38196 0.0
C404 C 0.36612 0.75203 0.94982 0.0
C405 C 0.34251 0.77655 0.92516 0.0
H406 H 0.41398 0.7098 0.95318 0.0
C407 C 0.34887 0.77546 0.8828 0.0
H408 H 0.36285 0.75247 0.98255 0.0
C409 C 0.37906 0.75107 0.86574 0.0
C410 C 0.40347 0.72738 0.89075 0.0
H411 H 0.33089 0.79373 0.86288 0.0
H412 H 0.38382 0.75129 0.83315 0.0
C413 C 0.39598 0.72774 0.93289 0.0
C414 C 0.65789 0.23849 0.37856 0.0
C415 C 0.66355 0.23395 0.42057 0.0
H416 H 0.62004 0.26195 0.33095 0.0
C417 C 0.63329 0.24966 0.44726 0.0
H418 H 0.68038 0.22628 0.35723 0.0
C419 C 0.59852 0.27015 0.43221 0.0
C420 C 0.59323 0.27512 0.39015 0.0
H421 H 0.63706 0.24689 0.4798 0.0
H422 H 0.57603 0.28232 0.45355 0.0
C423 C 0.62316 0.25881 0.36352 0.0
C424 C 0.36597 0.50085 0.87932 0.0
C425 C 0.35792 0.49758 0.92118 0.0
H426 H 0.39653 0.53236 0.83173 0.0
C427 C 0.36896 0.52743 0.94657 0.0
H428 H 0.35809 0.47825 0.85903 0.0
C429 C 0.3909 0.55862 0.93085 0.0
C430 C 0.40258 0.56008 0.88961 0.0
H431 H 0.36272 0.52572 0.97892 0.0
H432 H 0.40148 0.58012 0.95146 0.0
C433 C 0.38827 0.53173 0.86374 0.0
C434 C 0.61464 0.50185 0.39602 0.0
C435 C 0.64279 0.49059 0.42701 0.0
H436 H 0.56409 0.48617 0.35552 0.0
C437 C 0.64157 0.45323 0.44033 0.0
H438 H 0.61508 0.53034 0.38483 0.0
C439 C 0.61237 0.4279 0.42361 0.0
C440 C 0.58374 0.43927 0.39304 0.0
H441 H 0.66243 0.44374 0.46451 0.0
H442 H 0.61195 0.39948 0.43502 0.0
C443 C 0.58557 0.47646 0.37911 0.0
C444 C 0.61961 0.53701 0.95312 0.0
C445 C 0.6448 0.51313 0.92931 0.0
H446 H 0.56996 0.57781 0.9548 0.0
C447 C 0.63857 0.51278 0.88705 0.0
H448 H 0.62314 0.53754 0.98579 0.0
C449 C 0.60775 0.53601 0.86905 0.0
C450 C 0.58232 0.55964 0.8931 0.0
H451 H 0.65774 0.49477 0.86794 0.0
H452 H 0.60357 0.5352 0.83646 0.0
C453 C 0.58882 0.55991 0.93529 0.0
C454 C 0.36514 0.49558 0.36525 0.0
C455 C 0.36348 0.50547 0.40636 0.0
H456 H 0.38946 0.45776 0.32103 0.0
C457 C 0.38147 0.4813 0.43541 0.0
H458 H 0.35101 0.51342 0.34227 0.0
C459 C 0.4036 0.4494 0.42332 0.0
C460 C 0.40814 0.44103 0.38193 0.0
H461 H 0.38095 0.48828 0.46732 0.0
H462 H 0.41911 0.43248 0.44631 0.0
C463 C 0.38709 0.46361 0.35316 0.0
C464 C 0.86091 0.0378 0.95722 0.0
C465 C 0.84655 0.00795 0.93329 0.0
H466 H 0.89811 0.08835 0.95926 0.0
C467 C 0.85352 0.00946 0.89117 0.0
H468 H 0.85559 0.03747 0.98975 0.0
C469 C 0.87793 0.0383 0.87387 0.0
C470 C 0.89555 0.06637 0.89827 0.0
H471 H 0.84316 0.98682 0.87193 0.0
H472 H 0.88517 0.03743 0.84167 0.0
C473 C 0.88504 0.06697 0.93978 0.0
C474 C 0.13926 0.99545 0.38598 0.0
C475 C 0.15198 0.99008 0.42653 0.0
H476 H 0.09896 0.97658 0.33729 0.0
C477 C 0.13357 0.96054 0.44903 0.0
H478 H 0.15305 0.01797 0.36791 0.0
C479 C 0.10263 0.93732 0.43181 0.0
C480 C 0.08943 0.94277 0.39148 0.0
H481 H 0.14224 0.95592 0.48046 0.0
H482 H 0.0888 0.91511 0.45034 0.0
C483 C 0.10853 0.97172 0.36843 0.0
C484 C 0.1255 0.00351 0.8873 0.0
C485 C 0.13446 0.00535 0.92907 0.0
H486 H 0.0898 0.02633 0.83725 0.0
C487 C 0.11354 0.03237 0.9525 0.0
H488 H 0.14137 0.98308 0.86844 0.0
C489 C 0.08437 0.05689 0.93483 0.0
C490 C 0.07513 0.05518 0.89315 0.0
H491 H 0.11917 0.03421 0.98483 0.0
H492 H 0.06888 0.0772 0.95413 0.0
C493 C 0.09624 0.02838 0.86941 0.0
C494 C 0.86582 0.99484 0.37179 0.0
C495 C 0.85811 0.00136 0.41313 0.0
H496 H 0.89766 0.96112 0.3278 0.0
C497 C 0.87095 0.97438 0.44184 0.0
H498 H 0.85552 0.01474 0.34895 0.0
C499 C 0.89482 0.94332 0.42964 0.0
C500 C 0.9063 0.93912 0.38867 0.0
H501 H 0.86556 0.97873 0.47395 0.0
H502 H 0.90714 0.92441 0.45255 0.0
C503 C 0.88984 0.96413 0.35971 0.0
C504 C 0.37615 0.30601 0.18073 0.0
C505 C 0.36886 0.3374 0.15599 0.0
H506 H 0.40527 0.28458 0.23473 0.0
C507 C 0.3824 0.37263 0.16938 0.0
H508 H 0.36565 0.27858 0.17131 0.0
C509 C 0.40516 0.37611 0.20552 0.0
C510 C 0.41473 0.34445 0.22911 0.0
H511 H 0.3776 0.39731 0.1508 0.0
H512 H 0.41674 0.40346 0.21411 0.0
C513 C 0.39868 0.30951 0.2171 0.0
C514 C 0.62904 0.67114 0.68017 0.0
C515 C 0.64836 0.63618 0.6738 0.0
H516 H 0.58453 0.70288 0.71634 0.0
C517 C 0.64144 0.60769 0.70273 0.0
H518 H 0.63377 0.69368 0.65849 0.0
C519 C 0.61317 0.61284 0.7352 0.0
C520 C 0.59168 0.64683 0.74012 0.0
H521 H 0.65683 0.58082 0.69957 0.0
H522 H 0.60692 0.58967 0.7558 0.0
C523 C 0.60097 0.67648 0.71327 0.0
C524 C 0.64788 0.39602 0.19905 0.0
C525 C 0.64987 0.36957 0.16788 0.0
H526 H 0.61742 0.41303 0.2542 0.0
C527 C 0.62255 0.33816 0.17016 0.0
H528 H 0.66809 0.42075 0.19802 0.0
C529 C 0.59334 0.3337 0.2025 0.0
C530 C 0.59056 0.36074 0.23306 0.0
H531 H 0.62361 0.3171 0.14683 0.0
H532 H 0.57227 0.30949 0.20302 0.0
C533 C 0.61858 0.39169 0.23117 0.0
C534 C 0.38035 0.61238 0.67293 0.0
C535 C 0.37259 0.64646 0.65295 0.0
H536 H 0.40799 0.58499 0.72449 0.0
C537 C 0.3828 0.67989 0.6726 0.0
H538 H 0.37234 0.58621 0.65857 0.0
C539 C 0.40334 0.67923 0.71013 0.0
C540 C 0.4138 0.64513 0.72889 0.0
H541 H 0.3774 0.70655 0.65784 0.0
H542 H 0.41276 0.70546 0.7236 0.0
C543 C 0.40055 0.61171 0.71072 0.0
C544 C 0.87313 0.88007 0.1829 0.0
C545 C 0.86359 0.84485 0.16659 0.0
H546 H 0.90646 0.91058 0.22879 0.0
C547 C 0.87669 0.81275 0.18778 0.0
H548 H 0.86381 0.90538 0.16718 0.0
C549 C 0.90165 0.81576 0.22266 0.0
C550 C 0.91372 0.85095 0.23735 0.0
H551 H 0.86906 0.78523 0.17653 0.0
H552 H 0.91275 0.79046 0.23734 0.0
C553 C 0.8978 0.88308 0.21809 0.0
C554 C 0.09165 0.11794 0.66408 0.0
C555 C 0.13366 0.13297 0.66504 0.0
H556 H 0.03179 0.10923 0.69528 0.0
C557 C 0.14581 0.15414 0.69903 0.0
H558 H 0.08043 0.10257 0.63802 0.0
C559 C 0.11713 0.15877 0.73182 0.0
C560 C 0.07614 0.14181 0.73142 0.0
H561 H 0.17792 0.16603 0.70097 0.0
H562 H 0.12757 0.17436 0.75802 0.0
C563 C 0.06356 0.12192 0.69692 0.0
C564 C 0.13203 0.82588 0.18297 0.0
C565 C 0.15068 0.86065 0.17283 0.0
H566 H 0.08916 0.79557 0.22318 0.0
C567 C 0.14157 0.8915 0.1973 0.0
H568 H 0.13867 0.80163 0.16466 0.0
C569 C 0.11321 0.88814 0.23016 0.0
C570 C 0.09372 0.85372 0.23984 0.0
H571 H 0.15512 0.9187 0.19008 0.0
H572 H 0.10575 0.91279 0.24759 0.0
C573 C 0.1041 0.82234 0.21657 0.0
C574 C 0.87255 0.17986 0.67911 0.0
C575 C 0.8552 0.14649 0.66417 0.0
H576 H 0.91081 0.20571 0.72475 0.0
C577 C 0.85847 0.11377 0.68773 0.0
H578 H 0.8708 0.20548 0.66155 0.0
C579 C 0.88161 0.11383 0.72397 0.0
C580 C 0.90217 0.14657 0.73707 0.0
H581 H 0.84492 0.08775 0.67711 0.0
H582 H 0.88548 0.08776 0.74035 0.0
C583 C 0.89585 0.1799 0.71518 0.0
loop_
_geom_bond_atom_site_label_1
_geom_bond_atom_site_label_2
_geom_bond_distance
_geom_bond_site_symmetry_2
_ccdc_geom_bond_type
P0 O11 1.490 . S
P0 C14 1.812 1_556 S
P0 C20 1.803 . S
P0 C26 1.819 . S
H1 C15 0.941 . S
H2 C16 0.939 . S
H3 C18 0.940 . S
H4 C19 0.940 . S
H5 C21 0.939 . S
H6 C22 0.942 . S
H7 C24 0.940 1_554 S
H8 C25 0.939 1_554 S
H9 C27 0.941 . S
H10 C31 0.939 . S
O11 P0 1.490 . S
H12 C28 0.939 . S
H13 C30 0.940 . S
C14 P0 1.812 1_554 S
C14 C15 1.389 . S
C14 C19 1.391 . S
C15 H1 0.941 . S
C15 C14 1.389 . S
C15 C16 1.397 . S
C16 H2 0.939 . S
C16 C15 1.397 . S
C16 C17 1.378 . S
C17 C16 1.378 . S
C17 C18 1.378 . S
C18 H3 0.940 . S
C18 C17 1.378 . S
C18 C19 1.396 . S
C19 H4 0.940 . S
C19 C14 1.391 . S
C19 C18 1.396 . S
C20 P0 1.803 . S
C20 C21 1.378 . S
C20 C25 1.400 . S
C21 H5 0.939 . S
C21 C20 1.378 . S
C21 C22 1.361 . S
C22 H6 0.942 . S
C22 C21 1.361 . S
C22 C23 1.369 . S
C23 C22 1.369 . S
C23 C24 1.404 . S
C24 H7 0.940 1_556 S
C24 C23 1.404 . S
C24 C25 1.389 . S
C25 H8 0.939 1_556 S
C25 C20 1.400 . S
C25 C24 1.389 . S
C26 P0 1.819 . S
C26 C27 1.391 . S
C26 C31 1.391 . S
C27 H9 0.941 . S
C27 C26 1.391 . S
C27 C28 1.396 . S
C28 H12 0.939 . S
C28 C27 1.396 . S
C28 C29 1.397 . S
C29 C28 1.397 . S
C29 C30 1.385 . S
C30 H13 0.940 . S
C30 C29 1.385 . S
C30 C31 1.388 . S
C31 H10 0.939 . S
C31 C26 1.391 . S
C31 C30 1.388 . S
P32 O43 1.490 . S
P32 C46 1.812 . S
P32 C52 1.803 . S
P32 C58 1.819 . S
H33 C47 0.941 . S
H34 C48 0.939 . S
H35 C50 0.940 . S
H36 C51 0.940 . S
H37 C53 0.939 . S
H38 C54 0.942 . S
H39 C56 0.940 . S
H40 C57 0.939 . S
H41 C59 0.941 . S
H42 C63 0.939 . S
O43 P32 1.490 . S
H44 C60 0.939 . S
H45 C62 0.940 . S
C46 P32 1.812 . S
C46 C47 1.389 . S
C46 C51 1.391 . S
C47 H33 0.941 . S
C47 C46 1.389 . S
C47 C48 1.397 . S
C48 H34 0.939 . S
C48 C47 1.397 . S
C48 C49 1.378 . S
C49 C48 1.378 . S
C49 C50 1.378 . S
C50 H35 0.940 . S
C50 C49 1.378 . S
C50 C51 1.396 . S
C51 H36 0.940 . S
C51 C46 1.391 . S
C51 C50 1.396 . S
C52 P32 1.803 . S
C52 C53 1.378 . S
C52 C57 1.400 . S
C53 H37 0.939 . S
C53 C52 1.378 . S
C53 C54 1.361 . S
C54 H38 0.942 . S
C54 C53 1.361 . S
C54 C55 1.369 . S
C55 C54 1.369 . S
C55 C56 1.404 . S
C56 H39 0.940 . S
C56 C55 1.404 . S
C56 C57 1.389 . S
C57 H40 0.939 . S
C57 C52 1.400 . S
C57 C56 1.389 . S
C58 P32 1.819 . S
C58 C59 1.391 . S
C58 C63 1.391 . S
C59 H41 0.941 . S
C59 C58 1.391 . S
C59 C60 1.396 . S
C60 H44 0.939 . S
C60 C59 1.396 . S
C60 C61 1.397 . S
C61 C60 1.397 . S
C61 C62 1.385 . S
C62 H45 0.940 . S
C62 C61 1.385 . S
C62 C63 1.388 . S
C63 H42 0.939 . S
C63 C58 1.391 . S
C63 C62 1.388 . S
P64 O75 1.490 . S
P64 C78 1.812 . S
P64 C84 1.803 . S
P64 C90 1.819 1_554 S
H65 C79 0.941 . S
H66 C80 0.939 . S
H67 C82 0.940 . S
H68 C83 0.940 . S
H69 C85 0.939 . S
H70 C86 0.942 . S
H71 C88 0.940 . S
H72 C89 0.939 1_554 S
H73 C91 0.941 . S
H74 C95 0.939 . S
O75 P64 1.490 . S
H76 C92 0.939 . S
H77 C94 0.940 . S
C78 P64 1.812 . S
C78 C79 1.389 . S
C78 C83 1.391 . S
C79 H65 0.941 . S
C79 C78 1.389 . S
C79 C80 1.397 . S
C80 H66 0.939 . S
C80 C79 1.397 . S
C80 C81 1.378 . S
C81 C80 1.378 . S
C81 C82 1.378 . S
C82 H67 0.940 . S
C82 C81 1.378 . S
C82 C83 1.396 . S
C83 H68 0.940 . S
C83 C78 1.391 . S
C83 C82 1.396 . S
C84 P64 1.803 . S
C84 C85 1.378 1_554 S
C84 C89 1.400 1_554 S
C85 H69 0.939 . S
C85 C84 1.378 1_556 S
C85 C86 1.361 . S
C86 H70 0.942 . S
C86 C85 1.361 . S
C86 C87 1.369 . S
C87 C86 1.369 . S
C87 C88 1.404 . S
C88 H71 0.940 . S
C88 C87 1.404 . S
C88 C89 1.389 . S
C89 H72 0.939 1_556 S
C89 C84 1.400 1_556 S
C89 C88 1.389 . S
C90 P64 1.819 1_556 S
C90 C91 1.391 1_556 S
C90 C95 1.391 . S
C91 H73 0.941 . S
C91 C90 1.391 1_554 S
C91 C92 1.396 1_554 S
C92 H76 0.939 . S
C92 C91 1.396 1_556 S
C92 C93 1.397 . S
C93 C92 1.397 . S
C93 C94 1.385 . S
C94 H77 0.940 . S
C94 C93 1.385 . S
C94 C95 1.388 . S
C95 H74 0.939 . S
C95 C90 1.391 . S
C95 C94 1.388 . S
P96 O107 1.490 . S
P96 C110 1.812 . S
P96 C116 1.803 . S
P96 C122 1.819 . S
H97 C111 0.941 . S
H98 C112 0.939 . S
H99 C114 0.940 . S
H100 C115 0.940 . S
H101 C117 0.939 . S
H102 C118 0.942 . S
H103 C120 0.940 . S
H104 C121 0.939 . S
H105 C123 0.941 . S
H106 C127 0.939 . S
O107 P96 1.490 . S
H108 C124 0.939 . S
H109 C126 0.940 . S
C110 P96 1.812 . S
C110 C111 1.389 . S
C110 C115 1.391 . S
C111 H97 0.941 . S
C111 C110 1.389 . S
C111 C112 1.397 . S
C112 H98 0.939 . S
C112 C111 1.397 . S
C112 C113 1.378 . S
C113 C112 1.378 . S
C113 C114 1.378 . S
C114 H99 0.940 . S
C114 C113 1.378 . S
C114 C115 1.396 . S
C115 H100 0.940 . S
C115 C110 1.391 . S
C115 C114 1.396 . S
C116 P96 1.803 . S
C116 C117 1.378 . S
C116 C121 1.400 . S
C117 H101 0.939 . S
C117 C116 1.378 . S
C117 C118 1.361 . S
C118 H102 0.942 . S
C118 C117 1.361 . S
C118 C119 1.369 . S
C119 C118 1.369 . S
C119 C120 1.404 . S
C120 H103 0.940 . S
C120 C119 1.404 . S
C120 C121 1.389 . S
C121 H104 0.939 . S
C121 C116 1.400 . S
C121 C120 1.389 . S
C122 P96 1.819 . S
C122 C123 1.391 . S
C122 C127 1.391 . S
C123 H105 0.941 . S
C123 C122 1.391 . S
C123 C124 1.396 . S
C124 H108 0.939 . S
C124 C123 1.396 . S
C124 C125 1.397 . S
C125 C124 1.397 . S
C125 C126 1.385 . S
C126 H109 0.940 . S
C126 C125 1.385 . S
C126 C127 1.388 . S
C127 H106 0.939 . S
C127 C122 1.391 . S
C127 C126 1.388 . S
P128 O139 1.490 . S
P128 C142 1.812 1_556 S
P128 C148 1.803 . S
P128 C154 1.819 . S
H129 C143 0.941 . S
H130 C144 0.939 . S
H131 C146 0.940 . S
H132 C147 0.940 . S
H133 C149 0.939 . S
H134 C150 0.942 . S
H135 C152 0.940 1_554 S
H136 C153 0.939 1_554 S
H137 C155 0.941 . S
H138 C159 0.939 . S
O139 P128 1.490 . S
H140 C156 0.939 . S
H141 C158 0.940 . S
C142 P128 1.812 1_554 S
C142 C143 1.389 . S
C142 C147 1.391 . S
C143 H129 0.941 . S
C143 C142 1.389 . S
C143 C144 1.397 . S
C144 H130 0.939 . S
C144 C143 1.397 . S
C144 C145 1.378 . S
C145 C144 1.378 . S
C145 C146 1.378 . S
C146 H131 0.940 . S
C146 C145 1.378 . S
C146 C147 1.396 . S
C147 H132 0.940 . S
C147 C142 1.391 . S
C147 C146 1.396 . S
C148 P128 1.803 . S
C148 C149 1.378 . S
C148 C153 1.400 . S
C149 H133 0.939 . S
C149 C148 1.378 . S
C149 C150 1.361 . S
C150 H134 0.942 . S
C150 C149 1.361 . S
C150 C151 1.369 . S
C151 C150 1.369 . S
C151 C152 1.404 . S
C152 H135 0.940 1_556 S
C152 C151 1.404 . S
C152 C153 1.389 . S
C153 H136 0.939 1_556 S
C153 C148 1.400 . S
C153 C152 1.389 . S
C154 P128 1.819 . S
C154 C155 1.391 . S
C154 C159 1.391 . S
C155 H137 0.941 . S
C155 C154 1.391 . S
C155 C156 1.396 . S
C156 H140 0.939 . S
C156 C155 1.396 . S
C156 C157 1.397 . S
C157 C156 1.397 . S
C157 C158 1.385 . S
C158 H141 0.940 . S
C158 C157 1.385 . S
C158 C159 1.388 . S
C159 H138 0.939 . S
C159 C154 1.391 . S
C159 C158 1.388 . S
P160 O171 1.490 . S
P160 C174 1.812 . S
P160 C180 1.803 . S
P160 C186 1.819 . S
H161 C175 0.941 . S
H162 C176 0.939 . S
H163 C178 0.940 . S
H164 C179 0.940 . S
H165 C181 0.939 . S
H166 C182 0.942 . S
H167 C184 0.940 . S
H168 C185 0.939 . S
H169 C187 0.941 . S
H170 C191 0.939 . S
O171 P160 1.490 . S
H172 C188 0.939 . S
H173 C190 0.940 . S
C174 P160 1.812 . S
C174 C175 1.389 . S
C174 C179 1.391 . S
C175 H161 0.941 . S
C175 C174 1.389 . S
C175 C176 1.397 1_545 S
C176 H162 0.939 . S
C176 C175 1.397 1_565 S
C176 C177 1.378 1_565 S
C177 C176 1.378 1_545 S
C177 C178 1.378 . S
C178 H163 0.940 . S
C178 C177 1.378 . S
C178 C179 1.396 . S
C179 H164 0.940 . S
C179 C174 1.391 . S
C179 C178 1.396 . S
C180 P160 1.803 . S
C180 C181 1.378 . S
C180 C185 1.400 . S
C181 H165 0.939 . S
C181 C180 1.378 . S
C181 C182 1.361 . S
C182 H166 0.942 . S
C182 C181 1.361 . S
C182 C183 1.369 . S
C183 C182 1.369 . S
C183 C184 1.404 . S
C184 H167 0.940 . S
C184 C183 1.404 . S
C184 C185 1.389 . S
C185 H168 0.939 . S
C185 C180 1.400 . S
C185 C184 1.389 . S
C186 P160 1.819 . S
C186 C187 1.391 . S
C186 C191 1.391 . S
C187 H169 0.941 . S
C187 C186 1.391 . S
C187 C188 1.396 . S
C188 H172 0.939 . S
C188 C187 1.396 . S
C188 C189 1.397 . S
C189 C188 1.397 . S
C189 C190 1.385 . S
C190 H173 0.940 . S
C190 C189 1.385 . S
C190 C191 1.388 . S
C191 H170 0.939 . S
C191 C186 1.391 . S
C191 C190 1.388 . S
P192 O203 1.490 . S
P192 C206 1.812 . S
P192 C212 1.803 . S
P192 C218 1.819 1_554 S
H193 C207 0.941 . S
H194 C208 0.939 . S
H195 C210 0.940 . S
H196 C211 0.940 . S
H197 C213 0.939 . S
H198 C214 0.942 . S
H199 C216 0.940 . S
H200 C217 0.939 1_554 S
H201 C219 0.941 . S
H202 C223 0.939 . S
O203 P192 1.490 . S
H204 C220 0.939 . S
H205 C222 0.940 . S
C206 P192 1.812 . S
C206 C207 1.389 . S
C206 C211 1.391 . S
C207 H193 0.941 . S
C207 C206 1.389 . S
C207 C208 1.397 . S
C208 H194 0.939 . S
C208 C207 1.397 . S
C208 C209 1.378 . S
C209 C208 1.378 . S
C209 C210 1.378 . S
C210 H195 0.940 . S
C210 C209 1.378 . S
C210 C211 1.396 . S
C211 H196 0.940 . S
C211 C206 1.391 . S
C211 C210 1.396 . S
C212 P192 1.803 . S
C212 C213 1.378 1_554 S
C212 C217 1.400 1_554 S
C213 H197 0.939 . S
C213 C212 1.378 1_556 S
C213 C214 1.361 . S
C214 H198 0.942 . S
C214 C213 1.361 . S
C214 C215 1.369 . S
C215 C214 1.369 . S
C215 C216 1.404 . S
C216 H199 0.940 . S
C216 C215 1.404 . S
C216 C217 1.389 . S
C217 H200 0.939 1_556 S
C217 C212 1.400 1_556 S
C217 C216 1.389 . S
C218 P192 1.819 1_556 S
C218 C219 1.391 1_556 S
C218 C223 1.391 . S
C219 H201 0.941 . S
C219 C218 1.391 1_554 S
C219 C220 1.396 1_564 S
C220 H204 0.939 . S
C220 C219 1.396 1_546 S
C220 C221 1.397 1_545 S
C221 C220 1.397 1_565 S
C221 C222 1.385 . S
C222 H205 0.940 . S
C222 C221 1.385 . S
C222 C223 1.388 . S
C223 H202 0.939 . S
C223 C218 1.391 . S
C223 C222 1.388 . S
P224 O235 1.490 . S
P224 C238 1.812 . S
P224 C244 1.803 . S
P224 C250 1.819 . S
H225 C239 0.941 . S
H226 C240 0.939 . S
H227 C242 0.940 1_565 S
H228 C243 0.940 . S
H229 C245 0.939 . S
H230 C246 0.942 . S
H231 C248 0.940 . S
H232 C249 0.939 . S
H233 C251 0.941 . S
H234 C255 0.939 . S
O235 P224 1.490 . S
H236 C252 0.939 . S
H237 C254 0.940 . S
C238 P224 1.812 . S
C238 C239 1.389 . S
C238 C243 1.391 . S
C239 H225 0.941 . S
C239 C238 1.389 . S
C239 C240 1.397 . S
C240 H226 0.939 . S
C240 C239 1.397 . S
C240 C241 1.378 . S
C241 C240 1.378 . S
C241 C242 1.378 . S
C242 H227 0.940 1_545 S
C242 C241 1.378 . S
C242 C243 1.396 . S
C243 H228 0.940 . S
C243 C238 1.391 . S
C243 C242 1.396 . S
C244 P224 1.803 . S
C244 C245 1.378 . S
C244 C249 1.400 . S
C245 H229 0.939 . S
C245 C244 1.378 . S
C245 C246 1.361 . S
C246 H230 0.942 . S
C246 C245 1.361 . S
C246 C247 1.369 . S
C247 C246 1.369 . S
C247 C248 1.404 . S
C248 H231 0.940 . S
C248 C247 1.404 . S
C248 C249 1.389 . S
C249 H232 0.939 . S
C249 C244 1.400 . S
C249 C248 1.389 . S
C250 P224 1.819 . S
C250 C251 1.391 . S
C250 C255 1.391 . S
C251 H233 0.941 . S
C251 C250 1.391 . S
C251 C252 1.396 . S
C252 H236 0.939 . S
C252 C251 1.396 . S
C252 C253 1.397 . S
C253 C252 1.397 . S
C253 C254 1.385 . S
C254 H237 0.940 . S
C254 C253 1.385 . S
C254 C255 1.388 . S
C255 H234 0.939 . S
C255 C250 1.391 . S
C255 C254 1.388 . S
Fe256 O258 1.918 . S
Fe256 O261 1.997 1_455 S
Fe256 O262 2.002 1_455 S
Fe256 O267 1.976 . S
Fe256 O270 1.996 . S
Fe257 O258 1.918 . S
Fe257 O265 1.997 1_455 S
Fe257 O268 1.996 . S
Fe257 O272 1.976 . S
Fe257 O275 2.002 1_455 S
O258 Fe256 1.918 . S
O258 Fe257 1.918 . S
O258 Fe259 1.918 . S
Fe259 O258 1.918 . S
Fe259 O260 2.002 1_455 S
Fe259 O269 1.976 . S
Fe259 O273 1.996 . S
Fe259 O276 1.997 1_455 S
O260 Fe259 2.002 1_655 S
O260 C277 1.295 . S
O261 Fe256 1.997 1_655 S
O261 C277 1.235 . S
O262 Fe256 2.002 1_655 S
O262 C263 1.295 . S
C263 O262 1.295 . S
C263 O265 1.235 . S
C264 O269 1.287 . S
C264 O270 1.255 . S
O265 Fe257 1.997 1_655 S
O265 C263 1.235 . S
C266 O272 1.287 . S
C266 O273 1.255 . S
O267 Fe256 1.976 . S
O267 C274 1.287 . S
O268 Fe257 1.996 . S
O268 C274 1.255 . S
O269 Fe259 1.976 . S
O269 C264 1.287 . S
O270 Fe256 1.996 . S
O270 C264 1.255 . S
C271 O275 1.295 . S
C271 O276 1.235 . S
O272 Fe257 1.976 . S
O272 C266 1.287 . S
O273 Fe259 1.996 . S
O273 C266 1.255 . S
C274 O267 1.287 . S
C274 O268 1.255 . S
O275 Fe257 2.002 1_655 S
O275 C271 1.295 . S
O276 Fe259 1.997 1_655 S
O276 C271 1.235 . S
C277 O260 1.295 . S
C277 O261 1.235 . S
Fe278 O280 1.919 . S
Fe278 O283 1.978 1_655 S
Fe278 O284 1.983 1_655 S
Fe278 O289 1.995 . S
Fe278 O292 2.015 . S
Fe279 O280 1.919 . S
Fe279 O287 1.978 1_655 S
Fe279 O290 2.014 . S
Fe279 O294 1.995 . S
Fe279 O297 1.983 1_655 S
O280 Fe278 1.919 . S
O280 Fe279 1.919 . S
O280 Fe281 1.919 . S
Fe281 O280 1.919 . S
Fe281 O282 1.983 1_655 S
Fe281 O291 1.995 . S
Fe281 O295 2.014 . S
Fe281 O298 1.978 1_655 S
O282 Fe281 1.983 1_455 S
O282 C299 1.295 . S
O283 Fe278 1.978 1_455 S
O283 C299 1.235 . S
O284 Fe278 1.983 1_455 S
O284 C285 1.295 . S
C285 O284 1.295 . S
C285 O287 1.235 . S
C286 O291 1.287 . S
C286 O292 1.255 . S
O287 Fe279 1.978 1_455 S
O287 C285 1.235 . S
C288 O294 1.287 . S
C288 O295 1.255 . S
O289 Fe278 1.995 . S
O289 C296 1.287 . S
O290 Fe279 2.014 . S
O290 C296 1.255 . S
O291 Fe281 1.995 . S
O291 C286 1.287 . S
O292 Fe278 2.015 . S
O292 C286 1.255 . S
C293 O297 1.295 . S
C293 O298 1.235 . S
O294 Fe279 1.995 . S
O294 C288 1.287 . S
O295 Fe281 2.014 . S
O295 C288 1.255 . S
C296 O289 1.287 . S
C296 O290 1.255 . S
O297 Fe279 1.983 1_455 S
O297 C293 1.295 . S
O298 Fe281 1.978 1_455 S
O298 C293 1.235 . S
C299 O282 1.295 . S
C299 O283 1.235 . S
Fe300 O302 1.918 . S
Fe300 O305 1.997 . S
Fe300 O306 2.002 . S
Fe300 O311 1.976 . S
Fe300 O314 1.996 . S
Fe301 O302 1.918 . S
Fe301 O309 1.997 . S
Fe301 O312 1.996 . S
Fe301 O316 1.976 . S
Fe301 O319 2.002 . S
O302 Fe300 1.918 . S
O302 Fe301 1.918 . S
O302 Fe303 1.918 . S
Fe303 O302 1.918 . S
Fe303 O304 2.002 . S
Fe303 O313 1.976 . S
Fe303 O317 1.996 . S
Fe303 O320 1.997 . S
O304 Fe303 2.002 . S
O304 C321 1.295 . S
O305 Fe300 1.997 . S
O305 C321 1.235 . S
O306 Fe300 2.002 . S
O306 C307 1.295 . S
C307 O306 1.295 . S
C307 O309 1.235 . S
C308 O313 1.287 . S
C308 O314 1.255 . S
O309 Fe301 1.997 . S
O309 C307 1.235 . S
C310 O316 1.287 . S
C310 O317 1.255 . S
O311 Fe300 1.976 . S
O311 C318 1.287 . S
O312 Fe301 1.996 . S
O312 C318 1.255 . S
O313 Fe303 1.976 . S
O313 C308 1.287 . S
O314 Fe300 1.996 . S
O314 C308 1.255 . S
C315 O319 1.295 . S
C315 O320 1.235 . S
O316 Fe301 1.976 . S
O316 C310 1.287 . S
O317 Fe303 1.996 . S
O317 C310 1.255 . S
C318 O311 1.287 . S
C318 O312 1.255 . S
O319 Fe301 2.002 . S
O319 C315 1.295 . S
O320 Fe303 1.997 . S
O320 C315 1.235 . S
C321 O304 1.295 . S
C321 O305 1.235 . S
Fe322 O324 1.918 . S
Fe322 O327 1.997 . S
Fe322 O328 2.002 . S
Fe322 O333 1.976 . S
Fe322 O336 1.996 . S
Fe323 O324 1.918 . S
Fe323 O331 1.997 . S
Fe323 O334 1.996 . S
Fe323 O338 1.976 . S
Fe323 O341 2.002 . S
O324 Fe322 1.918 . S
O324 Fe323 1.918 . S
O324 Fe325 1.918 . S
Fe325 O324 1.918 . S
Fe325 O326 2.002 . S
Fe325 O335 1.976 . S
Fe325 O339 1.996 . S
Fe325 O342 1.997 . S
O326 Fe325 2.002 . S
O326 C343 1.295 . S
O327 Fe322 1.997 . S
O327 C343 1.235 . S
O328 Fe322 2.002 . S
O328 C329 1.295 . S
C329 O328 1.295 . S
C329 O331 1.235 . S
C330 O335 1.287 . S
C330 O336 1.255 . S
O331 Fe323 1.997 . S
O331 C329 1.235 . S
C332 O338 1.287 . S
C332 O339 1.255 . S
O333 Fe322 1.976 . S
O333 C340 1.287 . S
O334 Fe323 1.996 . S
O334 C340 1.255 . S
O335 Fe325 1.976 . S
O335 C330 1.287 . S
O336 Fe322 1.996 . S
O336 C330 1.255 . S
C337 O341 1.295 . S
C337 O342 1.235 . S
O338 Fe323 1.976 . S
O338 C332 1.287 . S
O339 Fe325 1.996 . S
O339 C332 1.255 . S
C340 O333 1.287 . S
C340 O334 1.255 . S
O341 Fe323 2.002 . S
O341 C337 1.295 . S
O342 Fe325 1.997 . S
O342 C337 1.235 . S
C343 O326 1.295 . S
C343 O327 1.235 . S
C344 C345 1.387 . S
C344 H348 0.950 . S
C344 C353 1.390 . S
C345 C344 1.387 . S
C345 C347 1.387 . S
H346 C353 0.950 . S
C347 C345 1.387 . S
C347 C349 1.390 . S
C347 H351 0.950 . S
H348 C344 0.950 . S
C349 C347 1.390 . S
C349 C350 1.387 . S
C349 H352 0.950 . S
C350 C349 1.387 . S
C350 C353 1.387 . S
H351 C347 0.950 . S
H352 C349 0.950 . S
C353 C344 1.390 . S
C353 H346 0.950 . S
C353 C350 1.387 . S
C354 C355 1.387 . S
C354 H358 0.950 . S
C354 C363 1.390 . S
C355 C354 1.387 . S
C355 C357 1.387 . S
H356 C363 0.950 . S
C357 C355 1.387 . S
C357 C359 1.390 . S
C357 H361 0.950 . S
H358 C354 0.950 . S
C359 C357 1.390 . S
C359 C360 1.387 . S
C359 H362 0.950 . S
C360 C359 1.387 . S
C360 C363 1.387 . S
H361 C357 0.950 . S
H362 C359 0.950 . S
C363 C354 1.390 . S
C363 H356 0.950 . S
C363 C360 1.387 . S
C364 C365 1.387 . S
C364 H368 0.950 . S
C364 C373 1.390 . S
C365 C364 1.387 . S
C365 C367 1.387 . S
H366 C373 0.950 . S
C367 C365 1.387 . S
C367 C369 1.390 . S
C367 H371 0.950 . S
H368 C364 0.950 . S
C369 C367 1.390 . S
C369 C370 1.387 . S
C369 H372 0.950 . S
C370 C369 1.387 . S
C370 C373 1.387 . S
H371 C367 0.950 . S
H372 C369 0.950 . S
C373 C364 1.390 . S
C373 H366 0.950 . S
C373 C370 1.387 . S
C374 C375 1.387 . S
C374 H378 0.950 . S
C374 C383 1.390 . S
C375 C374 1.387 . S
C375 C377 1.387 . S
H376 C383 0.950 . S
C377 C375 1.387 . S
C377 C379 1.390 . S
C377 H381 0.950 . S
H378 C374 0.950 . S
C379 C377 1.390 . S
C379 C380 1.387 . S
C379 H382 0.950 . S
C380 C379 1.387 . S
C380 C383 1.387 . S
H381 C377 0.950 . S
H382 C379 0.950 . S
C383 C374 1.390 . S
C383 H376 0.950 . S
C383 C380 1.387 . S
C384 C385 1.387 . S
C384 H388 0.950 . S
C384 C393 1.390 . S
C385 C384 1.387 . S
C385 C387 1.387 . S
H386 C393 0.950 . S
C387 C385 1.387 . S
C387 C389 1.390 . S
C387 H391 0.950 . S
H388 C384 0.950 . S
C389 C387 1.390 . S
C389 C390 1.387 . S
C389 H392 0.950 . S
C390 C389 1.387 . S
C390 C393 1.387 . S
H391 C387 0.950 . S
H392 C389 0.950 . S
C393 C384 1.390 . S
C393 H386 0.950 . S
C393 C390 1.387 . S
C394 C395 1.387 . S
C394 H398 0.950 . S
C394 C403 1.390 . S
C395 C394 1.387 . S
C395 C397 1.387 . S
H396 C403 0.950 . S
C397 C395 1.387 . S
C397 C399 1.390 . S
C397 H401 0.950 . S
H398 C394 0.950 . S
C399 C397 1.390 . S
C399 C400 1.387 . S
C399 H402 0.950 . S
C400 C399 1.387 . S
C400 C403 1.387 . S
H401 C397 0.950 . S
H402 C399 0.950 . S
C403 C394 1.390 . S
C403 H396 0.950 . S
C403 C400 1.387 . S
C404 C405 1.387 . S
C404 H408 0.950 . S
C404 C413 1.390 . S
C405 C404 1.387 . S
C405 C407 1.387 . S
H406 C413 0.950 . S
C407 C405 1.387 . S
C407 C409 1.390 . S
C407 H411 0.950 . S
H408 C404 0.950 . S
C409 C407 1.390 . S
C409 C410 1.387 . S
C409 H412 0.950 . S
C410 C409 1.387 . S
C410 C413 1.387 . S
H411 C407 0.950 . S
H412 C409 0.950 . S
C413 C404 1.390 . S
C413 H406 0.950 . S
C413 C410 1.387 . S
C414 C415 1.387 . S
C414 H418 0.950 . S
C414 C423 1.390 . S
C415 C414 1.387 . S
C415 C417 1.387 . S
H416 C423 0.950 . S
C417 C415 1.387 . S
C417 C419 1.390 . S
C417 H421 0.950 . S
H418 C414 0.950 . S
C419 C417 1.390 . S
C419 C420 1.387 . S
C419 H422 0.950 . S
C420 C419 1.387 . S
C420 C423 1.387 . S
H421 C417 0.950 . S
H422 C419 0.950 . S
C423 C414 1.390 . S
C423 H416 0.950 . S
C423 C420 1.387 . S
C424 C425 1.387 . S
C424 H428 0.950 . S
C424 C433 1.390 . S
C425 C424 1.387 . S
C425 C427 1.387 . S
H426 C433 0.950 . S
C427 C425 1.387 . S
C427 C429 1.390 . S
C427 H431 0.950 . S
H428 C424 0.950 . S
C429 C427 1.390 . S
C429 C430 1.387 . S
C429 H432 0.950 . S
C430 C429 1.387 . S
C430 C433 1.387 . S
H431 C427 0.950 . S
H432 C429 0.950 . S
C433 C424 1.390 . S
C433 H426 0.950 . S
C433 C430 1.387 . S
C434 C435 1.387 . S
C434 H438 0.950 . S
C434 C443 1.390 . S
C435 C434 1.387 . S
C435 C437 1.387 . S
H436 C443 0.950 . S
C437 C435 1.387 . S
C437 C439 1.390 . S
C437 H441 0.950 . S
H438 C434 0.950 . S
C439 C437 1.390 . S
C439 C440 1.387 . S
C439 H442 0.950 . S
C440 C439 1.387 . S
C440 C443 1.387 . S
H441 C437 0.950 . S
H442 C439 0.950 . S
C443 C434 1.390 . S
C443 H436 0.950 . S
C443 C440 1.387 . S
C444 C445 1.387 . S
C444 H448 0.950 . S
C444 C453 1.390 . S
C445 C444 1.387 . S
C445 C447 1.387 . S
H446 C453 0.950 . S
C447 C445 1.387 . S
C447 C449 1.390 . S
C447 H451 0.950 . S
H448 C444 0.950 . S
C449 C447 1.390 . S
C449 C450 1.387 . S
C449 H452 0.950 . S
C450 C449 1.387 . S
C450 C453 1.387 . S
H451 C447 0.950 . S
H452 C449 0.950 . S
C453 C444 1.390 . S
C453 H446 0.950 . S
C453 C450 1.387 . S
C454 C455 1.387 . S
C454 H458 0.950 . S
C454 C463 1.390 . S
C455 C454 1.387 . S
C455 C457 1.387 . S
H456 C463 0.950 . S
C457 C455 1.387 . S
C457 C459 1.390 . S
C457 H461 0.950 . S
H458 C454 0.950 . S
C459 C457 1.390 . S
C459 C460 1.387 . S
C459 H462 0.950 . S
C460 C459 1.387 . S
C460 C463 1.387 . S
H461 C457 0.950 . S
H462 C459 0.950 . S
C463 C454 1.390 . S
C463 H456 0.950 . S
C463 C460 1.387 . S
C464 C465 1.387 . S
C464 H468 0.950 . S
C464 C473 1.390 . S
C465 C464 1.387 . S
C465 C467 1.387 . S
H466 C473 0.950 . S
C467 C465 1.387 . S
C467 C469 1.390 . S
C467 H471 0.950 1_545 S
H468 C464 0.950 . S
C469 C467 1.390 . S
C469 C470 1.387 . S
C469 H472 0.950 . S
C470 C469 1.387 . S
C470 C473 1.387 . S
H471 C467 0.950 1_565 S
H472 C469 0.950 . S
C473 C464 1.390 . S
C473 H466 0.950 . S
C473 C470 1.387 . S
C474 C475 1.387 . S
C474 H478 0.950 1_565 S
C474 C483 1.390 . S
C475 C474 1.387 . S
C475 C477 1.387 . S
H476 C483 0.950 . S
C477 C475 1.387 . S
C477 C479 1.390 . S
C477 H481 0.950 . S
H478 C474 0.950 1_545 S
C479 C477 1.390 . S
C479 C480 1.387 . S
C479 H482 0.950 . S
C480 C479 1.387 . S
C480 C483 1.387 . S
H481 C477 0.950 . S
H482 C479 0.950 . S
C483 C474 1.390 . S
C483 H476 0.950 . S
C483 C480 1.387 . S
C484 C485 1.387 . S
C484 H488 0.950 . S
C484 C493 1.390 . S
C485 C484 1.387 . S
C485 C487 1.387 . S
H486 C493 0.950 . S
C487 C485 1.387 . S
C487 C489 1.390 . S
C487 H491 0.950 . S
H488 C484 0.950 . S
C489 C487 1.390 . S
C489 C490 1.387 . S
C489 H492 0.950 . S
C490 C489 1.387 . S
C490 C493 1.387 . S
H491 C487 0.950 . S
H492 C489 0.950 . S
C493 C484 1.390 . S
C493 H486 0.950 . S
C493 C490 1.387 . S
C494 C495 1.387 . S
C494 H498 0.950 1_565 S
C494 C503 1.390 . S
C495 C494 1.387 . S
C495 C497 1.387 . S
H496 C503 0.950 . S
C497 C495 1.387 . S
C497 C499 1.390 . S
C497 H501 0.950 . S
H498 C494 0.950 1_545 S
C499 C497 1.390 . S
C499 C500 1.387 . S
C499 H502 0.950 . S
C500 C499 1.387 . S
C500 C503 1.387 . S
H501 C497 0.950 . S
H502 C499 0.950 . S
C503 C494 1.390 . S
C503 H496 0.950 . S
C503 C500 1.387 . S
C504 C505 1.387 . S
C504 H508 0.950 . S
C504 C513 1.390 . S
C505 C504 1.387 . S
C505 C507 1.387 . S
H506 C513 0.950 . S
C507 C505 1.387 . S
C507 C509 1.390 . S
C507 H511 0.950 . S
H508 C504 0.950 . S
C509 C507 1.390 . S
C509 C510 1.387 . S
C509 H512 0.950 . S
C510 C509 1.387 . S
C510 C513 1.387 . S
H511 C507 0.950 . S
H512 C509 0.950 . S
C513 C504 1.390 . S
C513 H506 0.950 . S
C513 C510 1.387 . S
C514 C515 1.387 . S
C514 H518 0.950 . S
C514 C523 1.390 . S
C515 C514 1.387 . S
C515 C517 1.387 . S
H516 C523 0.950 . S
C517 C515 1.387 . S
C517 C519 1.390 . S
C517 H521 0.950 . S
H518 C514 0.950 . S
C519 C517 1.390 . S
C519 C520 1.387 . S
C519 H522 0.950 . S
C520 C519 1.387 . S
C520 C523 1.387 . S
H521 C517 0.950 . S
H522 C519 0.950 . S
C523 C514 1.390 . S
C523 H516 0.950 . S
C523 C520 1.387 . S
C524 C525 1.387 . S
C524 H528 0.950 . S
C524 C533 1.390 . S
C525 C524 1.387 . S
C525 C527 1.387 . S
H526 C533 0.950 . S
C527 C525 1.387 . S
C527 C529 1.390 . S
C527 H531 0.950 . S
H528 C524 0.950 . S
C529 C527 1.390 . S
C529 C530 1.387 . S
C529 H532 0.950 . S
C530 C529 1.387 . S
C530 C533 1.387 . S
H531 C527 0.950 . S
H532 C529 0.950 . S
C533 C524 1.390 . S
C533 H526 0.950 . S
C533 C530 1.387 . S
C534 C535 1.387 . S
C534 H538 0.950 . S
C534 C543 1.390 . S
C535 C534 1.387 . S
C535 C537 1.387 . S
H536 C543 0.950 . S
C537 C535 1.387 . S
C537 C539 1.390 . S
C537 H541 0.950 . S
H538 C534 0.950 . S
C539 C537 1.390 . S
C539 C540 1.387 . S
C539 H542 0.950 . S
C540 C539 1.387 . S
C540 C543 1.387 . S
H541 C537 0.950 . S
H542 C539 0.950 . S
C543 C534 1.390 . S
C543 H536 0.950 . S
C543 C540 1.387 . S
C544 C545 1.387 . S
C544 H548 0.950 . S
C544 C553 1.390 . S
C545 C544 1.387 . S
C545 C547 1.387 . S
H546 C553 0.950 . S
C547 C545 1.387 . S
C547 C549 1.390 . S
C547 H551 0.950 . S
H548 C544 0.950 . S
C549 C547 1.390 . S
C549 C550 1.387 . S
C549 H552 0.950 . S
C550 C549 1.387 . S
C550 C553 1.387 . S
H551 C547 0.950 . S
H552 C549 0.950 . S
C553 C544 1.390 . S
C553 H546 0.950 . S
C553 C550 1.387 . S
C554 C555 1.387 . S
C554 H558 0.950 . S
C554 C563 1.390 . S
C555 C554 1.387 . S
C555 C557 1.387 . S
H556 C563 0.950 . S
C557 C555 1.387 . S
C557 C559 1.390 . S
C557 H561 0.950 . S
H558 C554 0.950 . S
C559 C557 1.390 . S
C559 C560 1.387 . S
C559 H562 0.950 . S
C560 C559 1.387 . S
C560 C563 1.387 . S
H561 C557 0.950 . S
H562 C559 0.950 . S
C563 C554 1.390 . S
C563 H556 0.950 . S
C563 C560 1.387 . S
C564 C565 1.387 . S
C564 H568 0.950 . S
C564 C573 1.390 . S
C565 C564 1.387 . S
C565 C567 1.387 . S
H566 C573 0.950 . S
C567 C565 1.387 . S
C567 C569 1.390 . S
C567 H571 0.950 . S
H568 C564 0.950 . S
C569 C567 1.390 . S
C569 C570 1.387 . S
C569 H572 0.950 . S
C570 C569 1.387 . S
C570 C573 1.387 . S
H571 C567 0.950 . S
H572 C569 0.950 . S
C573 C564 1.390 . S
C573 H566 0.950 . S
C573 C570 1.387 . S
C574 C575 1.387 . S
C574 H578 0.950 . S
C574 C583 1.390 . S
C575 C574 1.387 . S
C575 C577 1.387 . S
H576 C583 0.950 . S
C577 C575 1.387 . S
C577 C579 1.390 . S
C577 H581 0.950 . S
H578 C574 0.950 . S
C579 C577 1.390 . S
C579 C580 1.387 . S
C579 H582 0.950 . S
C580 C579 1.387 . S
C580 C583 1.387 . S
H581 C577 0.950 . S
H582 C579 0.950 . S
C583 C574 1.390 . S
C583 H576 0.950 . S
C583 C580 1.387 . S
C345 C23 1.502 . S
C350 C299 1.556 . S
C360 C263 1.520 . S
C355 C55 1.551 . S
C370 C286 1.554 . S
C365 C87 1.576 . S
C380 C274 1.516 . S
C375 C119 1.443 . S
C390 C343 1.558 . S
C385 C151 1.505 . S
C400 C307 1.521 . S
C395 C183 1.551 . S
C405 C215 1.576 . S
C410 C330 1.556 . S
C420 C318 1.516 . S
C415 C247 1.441 . S
C425 C29 1.472 . S
C430 C340 1.567 . S
C440 C310 1.504 . S
C435 C49 1.498 . S
C445 C93 1.581 . S
C450 C329 1.590 . S
C455 C113 1.452 . S
C460 C315 1.526 . S
C470 C296 1.567 . S
C465 C157 1.475 1_545 S
C475 C177 1.498 1_565 S
C480 C266 1.504 . S
C490 C285 1.589 . S
C485 C221 1.581 1_545 S
C500 C271 1.526 . S
C495 C241 1.452 1_565 S
C510 C321 1.541 . S
C505 C17 1.467 . S
C520 C337 1.545 . S
C515 C61 1.550 . S
C525 C81 1.528 . S
C530 C308 1.525 . S
C540 C332 1.529 . S
C535 C125 1.423 . S
C550 C277 1.541 . S
C545 C145 1.464 . S
C555 C189 1.549 . S
C560 C293 1.546 . S
C565 C209 1.528 . S
C570 C264 1.525 . S
C575 C253 1.419 . S
C580 C288 1.530 . S
