# Generated by pormake.
# Topology zzz, (3,6)-cn, num edge types: 1
# Building blocks:
#     Node 0, Type 0, BuildingBlock: INOVEN_clean_linker_0, # of connection points: 3
#     Node 1, Type 0, BuildingBlock: INOVEN_clean_linker_0, # of connection points: 3
#     Node 2, Type 0, BuildingBlock: INOVEN_clean_linker_0, # of connection points: 3
#     Node 3, Type 0, BuildingBlock: INOVEN_clean_linker_0, # of connection points: 3
#     Node 4, Type 0, BuildingBlock: INOVEN_clean_linker_0, # of connection points: 3
#     Node 5, Type 0, BuildingBlock: INOVEN_clean_linker_0, # of connection points: 3
#     Node 6, Type 0, BuildingBlock: INOVEN_clean_linker_0, # of connection points: 3
#     Node 7, Type 0, BuildingBlock: INOVEN_clean_linker_0, # of connection points: 3
#     Node 8, Type 1, BuildingBlock: MIFKUJ_clean_sbu_0, # of connection points: 6
#     Node 9, Type 1, BuildingBlock: MIFKUJ_clean_sbu_0, # of connection points: 6
#     Node 10, Type 1, BuildingBlock: MIFKUJ_clean_sbu_0, # of connection points: 6
#     Node 11, Type 1, BuildingBlock: MIFKUJ_clean_sbu_0, # of connection points: 6
#     Edge 12, Type (0, 1), BuildingBlock: KIFKEQ_clean_linker_1, # of connection points: 2
#     Edge 13, Type (0, 1), BuildingBlock: KIFKEQ_clean_linker_1, # of connection points: 2
#     Edge 14, Type (0, 1), BuildingBlock: KIFKEQ_clean_linker_1, # of connection points: 2
#     Edge 15, Type (0, 1), BuildingBlock: KIFKEQ_clean_linker_1, # of connection points: 2
#     Edge 16, Type (0, 1), BuildingBlock: KIFKEQ_clean_linker_1, # of connection points: 2
#     Edge 17, Type (0, 1), BuildingBlock: KIFKEQ_clean_linker_1, # of connection points: 2
#     Edge 18, Type (0, 1), BuildingBlock: KIFKEQ_clean_linker_1, # of connection points: 2
#     Edge 19, Type (0, 1), BuildingBlock: KIFKEQ_clean_linker_1, # of connection points: 2
#     Edge 20, Type (0, 1), BuildingBlock: KIFKEQ_clean_linker_1, # of connection points: 2
#     Edge 21, Type (0, 1), BuildingBlock: KIFKEQ_clean_linker_1, # of connection points: 2
#     Edge 22, Type (0, 1), BuildingBlock: KIFKEQ_clean_linker_1, # of connection points: 2
#     Edge 23, Type (0, 1), BuildingBlock: KIFKEQ_clean_linker_1, # of connection points: 2
#     Edge 24, Type (0, 1), BuildingBlock: KIFKEQ_clean_linker_1, # of connection points: 2
#     Edge 25, Type (0, 1), BuildingBlock: KIFKEQ_clean_linker_1, # of connection points: 2
#     Edge 26, Type (0, 1), BuildingBlock: KIFKEQ_clean_linker_1, # of connection points: 2
#     Edge 27, Type (0, 1), BuildingBlock: KIFKEQ_clean_linker_1, # of connection points: 2
#     Edge 28, Type (0, 1), BuildingBlock: KIFKEQ_clean_linker_1, # of connection points: 2
#     Edge 29, Type (0, 1), BuildingBlock: KIFKEQ_clean_linker_1, # of connection points: 2
#     Edge 30, Type (0, 1), BuildingBlock: KIFKEQ_clean_linker_1, # of connection points: 2
#     Edge 31, Type (0, 1), BuildingBlock: KIFKEQ_clean_linker_1, # of connection points: 2
#     Edge 32, Type (0, 1), BuildingBlock: KIFKEQ_clean_linker_1, # of connection points: 2
#     Edge 33, Type (0, 1), BuildingBlock: KIFKEQ_clean_linker_1, # of connection points: 2
#     Edge 34, Type (0, 1), BuildingBlock: KIFKEQ_clean_linker_1, # of connection points: 2
#     Edge 35, Type (0, 1), BuildingBlock: KIFKEQ_clean_linker_1, # of connection points: 2
# Relax obj value: 0.120
# Max RMSD: 0.121
# Mean RMSD: 0.087
data_MOF--net-zzz--node1-MIFKUJ_clean_sbu_0--node2-INOVEN_clean_linker_0--edge1-KIFKEQ_clean_linker_1
_symmetry_space_group_name_H-M    P1
_symmetry_Int_Tables_number       1
_symmetry_cell_setting            triclinic
loop_
_symmetry_equiv_pos_as_xyz
'x, y, z'
_cell_length_a     51.533496
_cell_length_b     51.06232
_cell_length_c     16.399098
_cell_angle_alpha  89.786301
_cell_angle_beta   89.814322
_cell_angle_gamma 89.908492
loop_
_atom_site_label
_atom_site_type_symbol
_atom_site_fract_x
_atom_site_fract_y
_atom_site_fract_z
_atom_type_partial_charge
H0 H 0.73112 0.47806 0.23917 0.0
H1 H 0.8083 0.45637 0.16332 0.0
H2 H 0.74832 0.46424 0.98518 0.0
N3 N 0.71032 0.47723 0.088 0.0
N4 N 0.70589 0.48739 0.02006 0.0
C5 C 0.74459 0.47226 0.19169 0.0
C6 C 0.77065 0.46661 0.21095 0.0
C7 C 0.73635 0.47124 0.10985 0.0
C8 C 0.75434 0.46467 0.04845 0.0
C9 C 0.78014 0.45904 0.06759 0.0
C10 C 0.788 0.45958 0.14881 0.0
H11 H 0.97258 0.71896 0.26719 0.0
H12 H 0.95688 0.79959 0.2096 0.0
H13 H 0.95306 0.74203 0.02121 0.0
N14 N 0.966 0.70081 0.11387 0.0
N15 N 0.95715 0.69414 0.04621 0.0
C16 C 0.96666 0.73379 0.22362 0.0
C17 C 0.96371 0.76004 0.24841 0.0
C18 C 0.96213 0.72697 0.14154 0.0
C19 C 0.95567 0.74679 0.08498 0.0
C20 C 0.95396 0.77299 0.10888 0.0
C21 C 0.95732 0.77923 0.19085 0.0
H22 H 0.76834 0.01057 0.20349 0.0
H23 H 0.69595 0.04494 0.13005 0.0
H24 H 0.76216 0.05001 0.97151 0.0
N25 N 0.79375 0.0212 0.06202 0.0
N26 N 0.79817 0.0162 0.98871 0.0
C27 C 0.7572 0.02198 0.16015 0.0
C28 C 0.73102 0.02818 0.17655 0.0
C29 C 0.76835 0.02947 0.0849 0.0
C30 C 0.75344 0.04394 0.0287 0.0
C31 C 0.72724 0.04945 0.0435 0.0
C32 C 0.71644 0.04183 0.11833 0.0
H33 H 0.52166 0.77841 0.259 0.0
H34 H 0.53417 0.70213 0.15398 0.0
H35 H 0.52984 0.76918 -0.00171 0.0
N36 N 0.52409 0.80484 0.11444 0.0
N37 N 0.53636 0.81502 0.05665 0.0
C38 C 0.52503 0.76613 0.20631 0.0
C39 C 0.52857 0.73883 0.21603 0.0
C40 C 0.52655 0.77738 0.12747 0.0
C41 C 0.52987 0.76099 0.05937 0.0
C42 C 0.53272 0.73405 0.06915 0.0
C43 C 0.53254 0.72323 0.14712 0.0
H44 H 0.28992 0.50187 0.98679 0.0
H45 H 0.20792 0.51536 0.01244 0.0
H46 H 0.25787 0.5288 0.21585 0.0
N47 N 0.30234 0.51479 0.14016 0.0
N48 N 0.30689 0.52589 0.20632 0.0
C49 C 0.27349 0.508 0.02344 0.0
C50 C 0.24836 0.50773 0.99035 0.0
C51 C 0.27719 0.51601 0.10486 0.0
C52 C 0.2555 0.52352 0.15238 0.0
C53 C 0.2305 0.52271 0.11954 0.0
C54 C 0.22728 0.51542 0.03843 0.0
H55 H 0.05488 0.28594 0.9681 0.0
H56 H 0.04224 0.20572 0.03909 0.0
H57 H 0.04206 0.26546 0.2211 0.0
N58 N 0.05087 0.30576 0.12021 0.0
N59 N 0.05814 0.31168 0.19033 0.0
C60 C 0.05145 0.27137 0.01508 0.0
C61 C 0.04956 0.24468 0.99446 0.0
C62 C 0.04941 0.27895 0.09758 0.0
C63 C 0.04445 0.25981 0.15788 0.0
C64 C 0.04123 0.23359 0.13648 0.0
C65 C 0.04422 0.22621 0.05534 0.0
H66 H 0.23333 0.0087 0.04559 0.0
H67 H 0.30865 0.97297 0.06286 0.0
H68 H 0.25164 0.95744 0.24761 0.0
N69 N 0.21422 0.98804 0.18431 0.0
N70 N 0.20501 0.9727 0.23634 0.0
C71 C 0.24671 0.99574 0.07677 0.0
C72 C 0.27182 0.99172 0.04522 0.0
C73 C 0.23912 0.9831 0.14962 0.0
C74 C 0.25698 0.96666 0.19038 0.0
C75 C 0.28207 0.96285 0.15941 0.0
C76 C 0.28908 0.97523 0.08648 0.0
H77 H 0.46763 0.22328 0.94367 0.0
H78 H 0.47158 0.30359 0.02242 0.0
H79 H 0.4894 0.24219 0.19105 0.0
N80 N 0.47988 0.20218 0.09044 0.0
N81 N 0.49534 0.19479 0.14436 0.0
C82 C 0.47098 0.23758 0.99111 0.0
C83 C 0.46854 0.26458 0.97388 0.0
C84 C 0.4784 0.22927 0.07001 0.0
C85 C 0.48366 0.24816 0.13022 0.0
C86 C 0.48076 0.27476 0.11311 0.0
C87 C 0.473 0.28278 0.03571 0.0
Zn88 Zn 0.00771 0.04355 0.60572 0.0
Zn89 Zn 0.00254 0.96092 0.64931 0.0
C90 C 0.00792 0.09206 0.68205 0.0
O91 O 0.98414 0.09027 0.65403 0.0
C92 C 0.00587 0.91326 0.57407 0.0
O93 O 0.02645 0.91507 0.62081 0.0
O94 O 0.00401 0.06191 0.49936 0.0
O95 O 0.03206 0.01256 0.59299 0.0
O96 O 0.03894 0.97051 0.61495 0.0
C97 C 0.02536 0.07248 0.4788 0.0
O98 O 0.0464 0.0664 0.51982 0.0
O99 O 0.02307 0.07247 0.67472 0.0
C100 C 0.97823 0.93044 0.75703 0.0
O101 O 0.961 0.93749 0.70243 0.0
O102 O 1.00077 0.94053 0.75384 0.0
O103 O 0.97913 0.99244 0.66557 0.0
O104 O 0.97264 0.03476 0.65316 0.0
O105 O 0.99098 0.93317 0.56781 0.0
C106 C 0.04654 0.99245 0.58692 0.0
C107 C 0.9646 0.01235 0.67541 0.0
Zn108 Zn 0.46115 0.99214 0.58327 0.0
Zn109 Zn 0.53246 0.0169 0.61747 0.0
C110 C 0.41539 0.9898 0.674 0.0
O111 O 0.42256 0.96519 0.66724 0.0
C112 C 0.56982 0.02638 0.49669 0.0
O113 O 0.56283 0.05007 0.51897 0.0
O114 O 0.44365 0.96557 0.51224 0.0
O115 O 0.4768 0.01994 0.50738 0.0
O116 O 0.5046 0.04223 0.58235 0.0
C117 C 0.44434 0.96413 0.43505 0.0
O118 O 0.46018 0.97945 0.39402 0.0
O119 O 0.43021 0.00745 0.64463 0.0
C120 C 0.57632 0.02172 0.70704 0.0
O121 O 0.57606 0.99724 0.68258 0.0
O122 O 0.55707 0.03629 0.68988 0.0
O123 O 0.52221 0.98582 0.68544 0.0
O124 O 0.48214 0.9716 0.66632 0.0
O125 O 0.55688 0.00701 0.52418 0.0
C126 C 0.49158 0.03962 0.51726 0.0
C127 C 0.50395 0.97002 0.70197 0.0
Zn128 Zn 0.50903 0.46459 0.56977 0.0
Zn129 Zn 0.50207 0.53624 0.63242 0.0
C130 C 0.50002 0.41419 0.62974 0.0
O131 O 0.52418 0.41344 0.6041 0.0
C132 C 0.4942 0.57481 0.51271 0.0
O133 O 0.47058 0.57177 0.54153 0.0
O134 O 0.52319 0.44477 0.47366 0.0
O135 O 0.48697 0.4937 0.51878 0.0
O136 O 0.46829 0.51745 0.61346 0.0
C137 C 0.50586 0.43912 0.42177 0.0
O138 O 0.48273 0.44967 0.42939 0.0
O139 O 0.48777 0.43593 0.62692 0.0
C140 C 0.51883 0.57814 0.71444 0.0
O141 O 0.53873 0.56966 0.67172 0.0
O142 O 0.49781 0.56509 0.71344 0.0
O143 O 0.53186 0.51543 0.67792 0.0
O144 O 0.53863 0.47401 0.64474 0.0
O145 O 0.51169 0.55849 0.5338 0.0
C146 C 0.46658 0.5037 0.54941 0.0
C147 C 0.54496 0.49446 0.68384 0.0
Zn148 Zn 0.05089 0.51668 0.5983 0.0
Zn149 Zn 0.97213 0.4946 0.61472 0.0
C150 C 0.09908 0.52239 0.67393 0.0
O151 O 0.09227 0.54686 0.66091 0.0
C152 C 0.92726 0.48272 0.53278 0.0
O153 O 0.93683 0.4601 0.55674 0.0
O154 O 0.06705 0.53839 0.50993 0.0
O155 O 0.0342 0.48532 0.5465 0.0
O156 O 0.99414 0.46987 0.54897 0.0
C157 C 0.06609 0.53284 0.43471 0.0
O158 O 0.04965 0.51496 0.40982 0.0
O159 O 0.08292 0.50435 0.65781 0.0
C160 C 0.93666 0.48987 0.73474 0.0
O161 O 0.93508 0.51415 0.70866 0.0
O162 O 0.95474 0.47537 0.70745 0.0
O163 O 0.98887 0.5261 0.66819 0.0
O164 O 0.02951 0.5403 0.67066 0.0
O165 O 0.94069 0.50335 0.54395 0.0
C166 C 0.01758 0.46835 0.52538 0.0
C167 C 0.00581 0.54256 0.69143 0.0
H168 H 0.17845 0.01879 0.25272 0.0
H169 H 0.17896 0.93705 0.31833 0.0
H170 H 0.14074 0.0259 0.3415 0.0
H171 H 0.14072 0.94349 0.40373 0.0
H172 H 0.09051 0.96438 0.615 0.0
H173 H 0.12899 0.96152 0.52899 0.0
H174 H 0.09568 0.01829 0.36318 0.0
H175 H 0.05754 0.02158 0.45118 0.0
C176 C 0.1701 0.00226 0.28488 0.0
C177 C 0.18139 0.97726 0.27885 0.0
C178 C 0.1485 0.00628 0.33581 0.0
C179 C 0.13777 0.98536 0.38109 0.0
C180 C 0.14876 0.96027 0.37205 0.0
C181 C 0.17043 0.95641 0.32228 0.0
C182 C 0.09167 0.9766 0.56096 0.0
C183 C 0.07122 0.99352 0.54059 0.0
C184 C 0.1136 0.97476 0.51092 0.0
C185 C 0.11542 0.98938 0.43807 0.0
C186 C 0.09521 0.00695 0.41908 0.0
C187 C 0.07338 0.00901 0.46988 0.0
H188 H 0.45625 0.15885 0.1478 0.0
H189 H 0.53508 0.17365 0.22037 0.0
H190 H 0.45551 0.11932 0.23314 0.0
H191 H 0.53509 0.13373 0.30246 0.0
H192 H 0.51536 0.08719 0.52843 0.0
H193 H 0.51645 0.12223 0.42857 0.0
H194 H 0.47067 0.07556 0.26352 0.0
H195 H 0.46885 0.04051 0.36546 0.0
C196 C 0.4737 0.15308 0.17978 0.0
C197 C 0.49586 0.1691 0.17759 0.0
C198 C 0.47332 0.13048 0.22889 0.0
C199 C 0.4951 0.12351 0.27616 0.0
C200 C 0.51771 0.13878 0.26895 0.0
C201 C 0.51791 0.16143 0.22106 0.0
C202 C 0.50548 0.08429 0.47096 0.0
C203 C 0.492 0.06096 0.45527 0.0
C204 C 0.50632 0.10438 0.41306 0.0
C205 C 0.49393 0.10171 0.33714 0.0
C206 C 0.4803 0.07841 0.32138 0.0
C207 C 0.47934 0.05827 0.37979 0.0
H208 H 0.34602 0.49107 0.17765 0.0
H209 H 0.32143 0.555 0.33035 0.0
H210 H 0.38477 0.48528 0.26132 0.0
H211 H 0.36065 0.55022 0.41245 0.0
H212 H 0.41733 0.51681 0.59684 0.0
H213 H 0.37912 0.52208 0.5109 0.0
H214 H 0.42526 0.5034 0.29821 0.0
H215 H 0.46307 0.49736 0.3843 0.0
C216 C 0.34923 0.50422 0.22825 0.0
C217 C 0.33091 0.52363 0.24781 0.0
C218 C 0.37145 0.50097 0.27626 0.0
C219 C 0.37585 0.51717 0.34427 0.0
C220 C 0.35771 0.537 0.36186 0.0
C221 C 0.33543 0.54 0.31446 0.0
C222 C 0.41924 0.51375 0.53176 0.0
C223 C 0.4432 0.50651 0.49765 0.0
C224 C 0.39738 0.51695 0.48226 0.0
C225 C 0.39903 0.51327 0.39726 0.0
C226 C 0.42306 0.50598 0.36337 0.0
C227 C 0.44482 0.50255 0.41292 0.0
H228 H 0.0828 0.32798 0.32097 0.0
H229 H 0.02914 0.35265 0.13482 0.0
H230 H 0.0751 0.36871 0.3954 0.0
H231 H 0.02108 0.39344 0.20951 0.0
H232 H 0.98592 0.43561 0.4396 0.0
H233 H 0.99857 0.4007 0.34646 0.0
H234 H 0.07933 0.41823 0.38859 0.0
H235 H 0.06677 0.45337 0.48169 0.0
C236 C 0.06992 0.34257 0.2951 0.0
C237 C 0.05681 0.3374 0.22231 0.0
C238 C 0.06547 0.36581 0.33752 0.0
C239 C 0.04739 0.38418 0.30844 0.0
C240 C 0.03501 0.37952 0.2335 0.0
C241 C 0.03978 0.35635 0.1904 0.0
C242 C 0.00639 0.43209 0.42902 0.0
C243 C 0.02534 0.44714 0.46876 0.0
C244 C 0.01361 0.41227 0.37491 0.0
C245 C 0.03993 0.40683 0.35999 0.0
C246 C 0.0589 0.42197 0.39913 0.0
C247 C 0.05169 0.44205 0.45247 0.0
H248 H 0.84574 0.02566 0.05587 0.0
H249 H 0.80643 0.99538 0.845 0.0
H250 H 0.88746 0.02209 0.9836 0.0
H251 H 0.84771 0.9918 0.77244 0.0
H252 H 0.92842 0.97296 0.67854 0.0
H253 H 0.88982 0.96981 0.76543 0.0
H254 H 0.90705 0.04578 0.86665 0.0
H255 H 0.94603 0.04832 0.78226 0.0
C256 C 0.84616 0.01762 0.99488 0.0
C257 C 0.82303 0.01049 0.95574 0.0
C258 C 0.86993 0.01583 0.95312 0.0
C259 C 0.87092 0.00671 0.87204 0.0
C260 C 0.84778 0.99856 0.83497 0.0
C261 C 0.82416 1.0006 0.87631 0.0
C262 C 0.92428 0.9886 0.72088 0.0
C263 C 0.94051 0.01058 0.72468 0.0
C264 C 0.902 0.98701 0.7699 0.0
C265 C 0.89548 0.00743 0.82378 0.0
C266 C 0.91175 0.02946 0.82721 0.0
C267 C 0.9339 0.03107 0.77797 0.0
H268 H 0.56942 0.84053 0.96439 0.0
H269 H 0.49454 0.84713 0.0798 0.0
H270 H 0.56138 0.88069 0.88776 0.0
H271 H 0.48619 0.88775 0.00312 0.0
H272 H 0.46992 0.93227 0.75619 0.0
H273 H 0.47787 0.89791 0.85714 0.0
H274 H 0.55526 0.92771 0.89475 0.0
H275 H 0.54759 0.96169 0.7933 0.0
C276 C 0.55156 0.85122 0.97512 0.0
C277 C 0.53286 0.84108 0.02847 0.0
C278 C 0.54688 0.87418 0.93123 0.0
C279 C 0.52309 0.88746 0.93903 0.0
C280 C 0.50463 0.87786 0.9953 0.0
C281 C 0.50951 0.85486 0.04002 0.0
C282 C 0.48861 0.93156 0.78617 0.0
C283 C 0.50821 0.9496 0.76556 0.0
C284 C 0.49306 0.91201 0.84474 0.0
C285 C 0.51723 0.91 0.88398 0.0
C286 C 0.53654 0.92849 0.86501 0.0
C287 C 0.5321 0.948 0.80667 0.0
H288 H 0.69421 0.5204 0.9024 0.0
H289 H 0.66141 0.46159 0.0609 0.0
H290 H 0.65343 0.523 0.82689 0.0
H291 H 0.62045 0.46375 0.98446 0.0
H292 H 0.57165 0.45164 0.74162 0.0
H293 H 0.60865 0.45132 0.835 0.0
H294 H 0.60606 0.53569 0.84676 0.0
H295 H 0.56919 0.53614 0.75439 0.0
C296 C 0.67793 0.50852 0.92201 0.0
C297 C 0.68069 0.49119 0.9877 0.0
C298 C 0.65468 0.50991 0.87889 0.0
C299 C 0.63381 0.49352 0.89969 0.0
C300 C 0.6363 0.47652 0.96699 0.0
C301 C 0.65955 0.47548 0.01121 0.0
C302 C 0.57897 0.47011 0.76413 0.0
C303 C 0.56756 0.49392 0.7398 0.0
C304 C 0.59996 0.46989 0.81826 0.0
C305 C 0.61017 0.49348 0.84822 0.0
C306 C 0.59866 0.51723 0.82438 0.0
C307 C 0.57753 0.51744 0.77129 0.0
H308 H 0.934 0.67756 0.91426 0.0
H309 H 0.99233 0.65643 0.09028 0.0
H310 H 0.94514 0.63935 0.83252 0.0
H311 H 0.00351 0.61763 0.00908 0.0
H312 H 0.95673 0.5587 0.73127 0.0
H313 H 0.94389 0.59232 0.82791 0.0
H314 H 0.02453 0.6088 0.8768 0.0
H315 H 0.03741 0.57436 0.78198 0.0
C316 C 0.94882 0.66423 0.93612 0.0
C317 C 0.96208 0.66969 0.00835 0.0
C318 C 0.95522 0.64235 0.88956 0.0
C319 C 0.97524 0.62537 0.91413 0.0
C320 C 0.98815 0.63046 0.98809 0.0
C321 C 0.9816 0.65246 0.03504 0.0
C322 C 0.97175 0.56919 0.76328 0.0
C323 C 0.99809 0.56366 0.74887 0.0
C324 C 0.96439 0.58867 0.81836 0.0
C325 C 0.98317 0.60329 0.86029 0.0
C326 C 0.00954 0.59767 0.84648 0.0
C327 C 0.01692 0.57812 0.79129 0.0
H328 H 0.00249 0.19791 0.12843 0.0
H329 H 0.06577 0.22348 0.28035 0.0
H330 H 0.99698 0.15912 0.21349 0.0
H331 H 0.05983 0.1849 0.36748 0.0
H332 H 0.06775 0.09704 0.41674 0.0
H333 H 0.069 0.13837 0.34265 0.0
H334 H 0.98521 0.14192 0.34738 0.0
H335 H 0.98391 0.10021 0.42044 0.0
C336 C 0.01485 0.19541 0.18124 0.0
C337 C 0.03479 0.21335 0.19748 0.0
C338 C 0.01161 0.17332 0.23014 0.0
C339 C 0.02825 0.1688 0.29624 0.0
C340 C 0.04707 0.18769 0.3158 0.0
C341 C 0.05029 0.20987 0.26676 0.0
C342 C 0.04958 0.10649 0.40121 0.0
C343 C 0.02574 0.09538 0.42416 0.0
C344 C 0.05031 0.13033 0.3598 0.0
C345 C 0.02722 0.14358 0.34061 0.0
C346 C 0.00331 0.1321 0.36138 0.0
C347 C 0.00257 0.10817 0.40273 0.0
H348 H 0.31887 0.92841 0.10376 0.0
H349 H 0.29179 0.96693 0.32221 0.0
H350 H 0.3595 0.9173 0.17213 0.0
H351 H 0.33196 0.95544 0.3906 0.0
H352 H 0.40544 0.93519 0.50425 0.0
H353 H 0.36458 0.92306 0.44067 0.0
H354 H 0.39356 0.95026 0.20799 0.0
H355 H 0.43445 0.96238 0.27121 0.0
C356 C 0.32127 0.93379 0.16712 0.0
C357 C 0.3024 0.94907 0.20707 0.0
C358 C 0.34449 0.9274 0.20614 0.0
C359 C 0.34907 0.93588 0.28612 0.0
C360 C 0.32897 0.94849 0.32902 0.0
C361 C 0.30585 0.95507 0.2898 0.0
C362 C 0.40343 0.9379 0.43903 0.0
C363 C 0.42298 0.95037 0.39305 0.0
C364 C 0.37997 0.93095 0.40277 0.0
C365 C 0.37572 0.93609 0.31978 0.0
C366 C 0.39628 0.94594 0.27212 0.0
C367 C 0.41971 0.95305 0.30846 0.0
H368 H 0.44632 0.30704 0.18495 0.0
H369 H 0.52788 0.28843 0.17321 0.0
H370 H 0.45607 0.34696 0.26 0.0
H371 H 0.53798 0.32896 0.24665 0.0
H372 H 0.53746 0.39657 0.44351 0.0
H373 H 0.533 0.35422 0.37581 0.0
H374 H 0.47599 0.38775 0.21322 0.0
H375 H 0.47985 0.42964 0.28224 0.0
C376 C 0.4663 0.31134 0.20029 0.0
C377 C 0.48639 0.29492 0.17401 0.0
C378 C 0.47196 0.33428 0.24204 0.0
C379 C 0.49785 0.34139 0.25702 0.0
C380 C 0.51788 0.32399 0.23557 0.0
C381 C 0.51215 0.30083 0.19413 0.0
C382 C 0.52451 0.39501 0.39187 0.0
C383 C 0.50876 0.41623 0.36848 0.0
C384 C 0.52187 0.37075 0.35348 0.0
C385 C 0.50359 0.36755 0.29095 0.0
C386 C 0.4896 0.38945 0.26311 0.0
C387 C 0.49204 0.4135 0.30183 0.0
H388 H 0.18893 0.49103 0.13369 0.0
H389 H 0.21944 0.5648 0.21774 0.0
H390 H 0.14834 0.49952 0.20398 0.0
H391 H 0.17821 0.57365 0.28847 0.0
H392 H 0.11153 0.55595 0.48078 0.0
H393 H 0.1517 0.5572 0.40282 0.0
H394 H 0.11109 0.52832 0.19141 0.0
H395 H 0.07099 0.52613 0.27027 0.0
C396 C 0.18682 0.50917 0.16718 0.0
C397 C 0.20712 0.52742 0.16969 0.0
C398 C 0.16348 0.51418 0.20677 0.0
C399 C 0.15979 0.5376 0.24988 0.0
C400 C 0.18045 0.55553 0.2551 0.0
C401 C 0.20402 0.55045 0.2152 0.0
C402 C 0.11096 0.5505 0.41703 0.0
C403 C 0.08816 0.5404 0.38203 0.0
C404 C 0.13405 0.55129 0.37234 0.0
C405 C 0.13468 0.54224 0.29168 0.0
C406 C 0.11131 0.53472 0.25432 0.0
C407 C 0.08829 0.53366 0.29921 0.0
H408 H 0.92604 0.81854 0.11887 0.0
H409 H 0.97931 0.77624 0.96278 0.0
H410 H 0.93128 0.85748 0.03284 0.0
H411 H 0.98342 0.81492 0.87551 0.0
H412 H 0.94429 0.89161 0.72536 0.0
H413 H 0.93586 0.85239 0.8066 0.0
H414 H 0.9911 0.87822 0.98602 0.0
H415 H 1.00017 0.9176 0.90372 0.0
C416 C 0.93845 0.8174 0.06558 0.0
C417 C 0.95244 0.7944 0.04802 0.0
C418 C 0.94141 0.8396 0.01678 0.0
C419 C 0.95799 0.83891 0.94917 0.0
C420 C 0.97066 0.81563 0.92813 0.0
C421 C 0.968 0.7935 0.97743 0.0
C422 C 0.95447 0.88913 0.78257 0.0
C423 C 0.97272 0.90769 0.80899 0.0
C424 C 0.94969 0.86668 0.82845 0.0
C425 C 0.96277 0.86272 0.90188 0.0
C426 C 0.98082 0.88124 0.92921 0.0
C427 C 0.98598 0.90358 0.88247 0.0
H428 H 0.68387 0.0811 0.05351 0.0
H429 H 0.73087 0.03803 0.88055 0.0
H430 H 0.64797 0.08076 0.95738 0.0
H431 H 0.69598 0.03993 0.78289 0.0
H432 H 0.62037 0.99512 0.74091 0.0
H433 H 0.6593 0.0111 0.80458 0.0
H434 H 0.6251 0.08813 0.82622 0.0
H435 H 0.58529 0.07179 0.76221 0.0
C436 C 0.68691 0.07238 0.99414 0.0
C437 C 0.70988 0.05846 0.97662 0.0
C438 C 0.66643 0.07256 0.93857 0.0
C439 C 0.66891 0.05936 0.86401 0.0
C440 C 0.6933 0.04946 0.84124 0.0
C441 C 0.71351 0.0487 0.89729 0.0
C442 C 0.62103 0.01552 0.75867 0.0
C443 C 0.59969 0.03216 0.74686 0.0
C444 C 0.64359 0.02482 0.7942 0.0
C445 C 0.64551 0.05106 0.8189 0.0
C446 C 0.62419 0.06786 0.8072 0.0
C447 C 0.60145 0.0585 0.771 0.0
H448 H 0.56992 0.69837 0.03351 0.0
H449 H 0.49674 0.72945 0.94983 0.0
H450 H 0.56662 0.66264 0.93568 0.0
H451 H 0.49331 0.6936 0.85144 0.0
H452 H 0.56049 0.61053 0.71668 0.0
H453 H 0.56474 0.6521 0.78679 0.0
H454 H 0.48633 0.64478 0.8777 0.0
H455 H 0.48182 0.60301 0.8065 0.0
C456 C 0.55351 0.69785 0.99237 0.0
C457 C 0.53358 0.71644 -0.00137 0.0
C458 C 0.55159 0.6775 0.93652 0.0
C459 C 0.52956 0.67531 0.88682 0.0
C460 C 0.51033 0.69479 0.88983 0.0
C461 C 0.51241 0.71537 0.94518 0.0
C462 C 0.54408 0.61773 0.75146 0.0
C463 C 0.52089 0.60335 0.75706 0.0
C464 C 0.54655 0.64158 0.79131 0.0
C465 C 0.52589 0.65157 0.83743 0.0
C466 C 0.50244 0.63758 0.84154 0.0
C467 C 0.49995 0.6136 0.80165 0.0
H468 H 0.78766 0.49211 0.94111 0.0
H469 H 0.8178 0.42154 0.0514 0.0
H470 H 0.82498 0.49432 0.85193 0.0
H471 H 0.85505 0.4228 0.95856 0.0
H472 H 0.93346 0.4603 0.87419 0.0
H473 H 0.89343 0.44728 0.9444 0.0
H474 H 0.8485 0.47876 0.74386 0.0
H475 H 0.88813 0.49395 0.67966 0.0
C476 C 0.80188 0.47647 0.94388 0.0
C477 C 0.79993 0.45668 0.00289 0.0
C478 C 0.82336 0.47763 0.89251 0.0
C479 C 0.84323 0.45873 0.89792 0.0
C480 C 0.8404 0.43794 0.95373 0.0
C481 C 0.81901 0.43704 0.00627 0.0
C482 C 0.91492 0.46412 0.84555 0.0
C483 C 0.91361 0.4783 0.77251 0.0
C484 C 0.89199 0.45649 0.88504 0.0
C485 C 0.86759 0.46239 0.85053 0.0
C486 C 0.86677 0.47466 0.77378 0.0
C487 C 0.88948 0.4831 0.73635 0.0
H488 H 0.01453 0.24945 0.87159 0.0
H489 H 0.08788 0.21435 0.93392 0.0
H490 H 0.00693 0.21487 0.77224 0.0
H491 H 0.07984 0.17886 0.83988 0.0
H492 H 0.97895 0.13027 0.75163 0.0
H493 H 0.99297 0.17277 0.79938 0.0
H494 H 0.07159 0.15499 0.72389 0.0
H495 H 0.05745 0.11158 0.6803 0.0
C496 C 0.02964 0.23508 0.86089 0.0
C497 C 0.05168 0.2344 0.91067 0.0
C498 C 0.02502 0.21476 0.80566 0.0
C499 C 0.04212 0.1932 0.80075 0.0
C500 C 0.06599 0.1948 0.84188 0.0
C501 C 0.07082 0.21538 0.89559 0.0
C502 C 0.99925 0.13543 0.74554 0.0
C503 C 0.01716 0.11748 0.71346 0.0
C504 C 0.00731 0.16009 0.77163 0.0
C505 C 0.03348 0.16778 0.76481 0.0
C506 C 0.05135 0.14983 0.73117 0.0
C507 C 0.04331 0.12487 0.70645 0.0
H508 H 0.30548 0.03213 0.03523 0.0
H509 H 0.26269 0.9774 0.88871 0.0
H510 H 0.33731 0.0373 0.92632 0.0
H511 H 0.29404 0.98307 0.77792 0.0
H512 H 0.3773 0.95554 0.71416 0.0
H513 H 0.33676 0.96398 0.78359 0.0
H514 H 0.35445 0.04664 0.78995 0.0
H515 H 0.39583 0.03799 0.72021 0.0
C516 C 0.30202 0.02252 0.97747 0.0
C517 C 0.28169 0.00437 0.97019 0.0
C518 C 0.32038 0.02532 0.91505 0.0
C519 C 0.31868 0.01 0.84422 0.0
C520 C 0.29627 0.99467 0.83262 0.0
C521 C 0.278 0.99176 0.89537 0.0
C522 C 0.3726 0.9756 0.72961 0.0
C523 C 0.39002 0.99605 0.71243 0.0
C524 C 0.34902 0.98052 0.76853 0.0
C525 C 0.34208 0.00606 0.79182 0.0
C526 C 0.35919 0.02673 0.77286 0.0
C527 C 0.38288 0.02179 0.73305 0.0
H528 H 0.42644 0.29107 0.91734 0.0
H529 H 0.50322 0.2655 0.85022 0.0
H530 H 0.42832 0.32544 0.81349 0.0
H531 H 0.50582 0.3002 0.74893 0.0
H532 H 0.50939 0.36533 0.574 0.0
H533 H 0.4951 0.32387 0.63213 0.0
H534 H 0.45035 0.36592 0.81294 0.0
H535 H 0.46378 0.40744 0.7514 0.0
C536 C 0.44319 0.29201 0.87735 0.0
C537 C 0.46461 0.27551 0.8912 0.0
C538 C 0.44457 0.3121 0.81912 0.0
C539 C 0.46751 0.31625 0.77411 0.0
C540 C 0.48774 0.29775 0.78179 0.0
C541 C 0.48623 0.27754 0.83951 0.0
C542 C 0.49613 0.36566 0.62541 0.0
C543 C 0.48797 0.38959 0.65904 0.0
C544 C 0.488 0.34186 0.65901 0.0
C545 C 0.47189 0.34131 0.72836 0.0
C546 C 0.46252 0.36537 0.75907 0.0
C547 C 0.47031 0.38927 0.72426 0.0
H548 H 0.25471 0.53619 0.85152 0.0
H549 H 0.22549 0.46278 0.94309 0.0
H550 H 0.22208 0.53583 0.74419 0.0
H551 H 0.19192 0.46296 0.84006 0.0
H552 H 0.12383 0.4746 0.676 0.0
H553 H 0.16848 0.46542 0.71766 0.0
H554 H 0.17903 0.54747 0.77305 0.0
H555 H 0.13524 0.55655 0.72899 0.0
C556 C 0.24231 0.51919 0.84565 0.0
C557 C 0.24225 0.49976 0.90623 0.0
C558 C 0.22311 0.51926 0.78547 0.0
C559 C 0.20339 0.50014 0.78629 0.0
C560 C 0.20641 0.47827 0.83783 0.0
C561 C 0.22593 0.47797 0.89676 0.0
C562 C 0.13583 0.49062 0.69681 0.0
C563 C 0.12589 0.51626 0.70017 0.0
C564 C 0.16148 0.4854 0.7203 0.0
C565 C 0.17766 0.50568 0.74821 0.0
C566 C 0.16764 0.53135 0.74986 0.0
C567 C 0.14223 0.53656 0.72585 0.0
H568 H 0.01149 0.76812 0.3105 0.0
H569 H 0.93009 0.77712 0.36387 0.0
H570 H 0.02153 0.80384 0.40318 0.0
H571 H 0.93994 0.81261 0.45827 0.0
H572 H 0.96354 0.90011 0.48075 0.0
H573 H 0.9531 0.85711 0.42474 0.0
H574 H 0.02241 0.8249 0.53387 0.0
H575 H 0.03314 0.86777 0.58768 0.0
C576 C 0.99591 0.77662 0.34625 0.0
C577 C 0.97007 0.76977 0.33057 0.0
C578 C 1.00157 0.79742 0.39861 0.0
C579 C 0.98144 0.81165 0.43635 0.0
C580 C 0.95584 0.80253 0.42845 0.0
C581 C 0.95022 0.78177 0.37603 0.0
C582 C 0.97654 0.88386 0.49252 0.0
C583 C 0.99929 0.88751 0.53793 0.0
C584 C 0.97042 0.8591 0.46142 0.0
C585 C 0.98686 0.83742 0.47526 0.0
C586 C 0.00943 0.84112 0.52145 0.0
C587 C 0.01556 0.8658 0.55225 0.0
H588 H 0.72568 0.05348 0.32068 0.0
H589 H 0.70166 0.98453 0.19095 0.0
H590 H 0.68784 0.04963 0.41009 0.0
H591 H 0.66339 0.9809 0.27842 0.0
H592 H 0.60051 0.06419 0.43059 0.0
H593 H 0.64355 0.05971 0.3723 0.0
H594 H 0.64035 0.97598 0.40921 0.0
H595 H 0.59668 0.98048 0.46758 0.0
C596 C 0.71301 0.03672 0.31415 0.0
C597 C 0.71674 0.01913 0.24971 0.0
C598 C 0.691 0.03479 0.3641 0.0
C599 C 0.67212 0.0154 0.34988 0.0
C600 C 0.67744 0.99607 0.29122 0.0
C601 C 0.69954 0.99796 0.24155 0.0
C602 C 0.60883 0.04475 0.42617 0.0
C603 C 0.59501 0.02269 0.45369 0.0
C604 C 0.63377 0.04222 0.39367 0.0
C605 C 0.64577 0.01754 0.38758 0.0
C606 C 0.63176 0.9953 0.41331 0.0
C607 C 0.60667 0.99786 0.44629 0.0
H608 H 0.48549 0.73205 0.31047 0.0
H609 H 0.56633 0.71137 0.29201 0.0
H610 H 0.47781 0.69373 0.39674 0.0
H611 H 0.55875 0.67234 0.37298 0.0
H612 H 0.53967 0.60185 0.52732 0.0
H613 H 0.54859 0.64649 0.48259 0.0
H614 H 0.47318 0.64979 0.36757 0.0
H615 H 0.46386 0.60586 0.41737 0.0
C616 C 0.50183 0.71994 0.32803 0.0
C617 C 0.52648 0.72466 0.29472 0.0
C618 C 0.49737 0.69748 0.37554 0.0
C619 C 0.5174 0.6791 0.38943 0.0
C620 C 0.54269 0.6857 0.364 0.0
C621 C 0.54718 0.70833 0.3179 0.0
C622 C 0.52517 0.61207 0.49159 0.0
C623 C 0.5012 0.60022 0.47481 0.0
C624 C 0.53021 0.6378 0.46613 0.0
C625 C 0.51159 0.65219 0.42167 0.0
C626 C 0.48781 0.63991 0.40359 0.0
C627 C 0.48259 0.61444 0.4307 0.0
H628 H 0.7896 0.42936 0.3115 0.0
H629 H 0.77977 0.5128 0.28743 0.0
H630 H 0.82473 0.43597 0.40674 0.0
H631 H 0.81454 0.51986 0.38619 0.0
H632 H 0.88865 0.44953 0.57449 0.0
H633 H 0.84432 0.44876 0.52576 0.0
H634 H 0.8601 0.51667 0.37513 0.0
H635 H 0.90425 0.51842 0.4294 0.0
C636 C 0.794 0.44915 0.33069 0.0
C637 C 0.78194 0.47054 0.2926 0.0
C638 C 0.81437 0.45308 0.38511 0.0
C639 C 0.82307 0.47856 0.40318 0.0
C640 C 0.80888 0.49998 0.37214 0.0
C641 C 0.78853 0.49598 0.31705 0.0
C642 C 0.8826 0.46444 0.53135 0.0
C643 C 0.90006 0.48376 0.50443 0.0
C644 C 0.8571 0.46399 0.50327 0.0
C645 C 0.84853 0.4823 0.44507 0.0
C646 C 0.86577 0.50234 0.42054 0.0
C647 C 0.89121 0.50323 0.45074 0.0
loop_
_geom_bond_atom_site_label_1
_geom_bond_atom_site_label_2
_geom_bond_distance
_geom_bond_site_symmetry_2
_ccdc_geom_bond_type
H0 C5 0.929 . S
H1 C10 0.931 . S
H2 C8 0.930 . S
N3 N4 1.234 1_554 S
N3 C7 1.453 . S
N4 N3 1.234 1_556 S
C5 H0 0.929 . S
C5 C6 1.373 . S
C5 C7 1.368 . S
C6 C5 1.373 . S
C6 C10 1.397 . S
C7 N3 1.453 . S
C7 C5 1.368 . S
C7 C8 1.373 1_554 S
C8 H2 0.930 . S
C8 C7 1.373 1_556 S
C8 C9 1.371 . S
C9 C8 1.371 . S
C9 C10 1.383 1_556 S
C10 H1 0.931 . S
C10 C6 1.397 . S
C10 C9 1.383 1_554 S
H11 C16 0.929 . S
H12 C21 0.931 . S
H13 C19 0.930 . S
N14 N15 1.234 1_554 S
N14 C18 1.453 . S
N15 N14 1.234 1_556 S
C16 H11 0.929 . S
C16 C17 1.373 . S
C16 C18 1.368 . S
C17 C16 1.373 . S
C17 C21 1.397 . S
C18 N14 1.453 . S
C18 C16 1.368 . S
C18 C19 1.373 1_554 S
C19 H13 0.930 . S
C19 C18 1.373 1_556 S
C19 C20 1.371 . S
C20 C19 1.371 . S
C20 C21 1.383 1_556 S
C21 H12 0.931 . S
C21 C17 1.397 . S
C21 C20 1.383 1_554 S
H22 C27 0.929 . S
H23 C32 0.931 . S
H24 C30 0.930 . S
N25 N26 1.224 1_544 S
N25 C29 1.453 . S
N26 N25 1.224 1_566 S
C27 H22 0.929 . S
C27 C28 1.373 . S
C27 C29 1.368 . S
C28 C27 1.373 . S
C28 C32 1.397 1_545 S
C29 N25 1.453 . S
C29 C27 1.368 . S
C29 C30 1.373 1_554 S
C30 H24 0.930 . S
C30 C29 1.373 1_556 S
C30 C31 1.374 . S
C31 C30 1.374 . S
C31 C32 1.382 1_546 S
C32 H23 0.931 . S
C32 C28 1.397 1_565 S
C32 C31 1.382 1_564 S
H33 C38 0.929 . S
H34 C43 0.931 . S
H35 C41 0.930 . S
N36 N37 1.234 1_554 S
N36 C40 1.453 . S
N37 N36 1.234 1_556 S
C38 H33 0.929 . S
C38 C39 1.373 . S
C38 C40 1.368 . S
C39 C38 1.373 . S
C39 C43 1.397 . S
C40 N36 1.453 . S
C40 C38 1.368 . S
C40 C41 1.373 1_554 S
C41 H35 0.930 . S
C41 C40 1.373 1_556 S
C41 C42 1.371 . S
C42 C41 1.371 . S
C42 C43 1.383 1_556 S
C43 H34 0.931 . S
C43 C39 1.397 . S
C43 C42 1.383 1_554 S
H44 C49 0.929 . S
H45 C54 0.931 . S
H46 C52 0.930 . S
N47 N48 1.234 . S
N47 C51 1.453 . S
N48 N47 1.234 . S
C49 H44 0.929 . S
C49 C50 1.373 . S
C49 C51 1.368 . S
C50 C49 1.373 . S
C50 C54 1.397 . S
C51 N47 1.453 . S
C51 C49 1.368 . S
C51 C52 1.373 . S
C52 H46 0.930 . S
C52 C51 1.373 . S
C52 C53 1.371 . S
C53 C52 1.371 . S
C53 C54 1.383 . S
C54 H45 0.931 . S
C54 C50 1.397 . S
C54 C53 1.383 . S
H55 C60 0.929 . S
H56 C65 0.931 . S
H57 C63 0.930 . S
N58 N59 1.234 . S
N58 C62 1.453 . S
N59 N58 1.234 . S
C60 H55 0.929 . S
C60 C61 1.373 . S
C60 C62 1.368 . S
C61 C60 1.373 . S
C61 C65 1.397 . S
C62 N58 1.453 . S
C62 C60 1.368 . S
C62 C63 1.373 . S
C63 H57 0.930 . S
C63 C62 1.373 . S
C63 C64 1.371 . S
C64 C63 1.371 . S
C64 C65 1.383 . S
C65 H56 0.931 . S
C65 C61 1.397 . S
C65 C64 1.383 . S
H66 C71 0.929 . S
H67 C76 0.931 . S
H68 C74 0.930 . S
N69 N70 1.227 1_545 S
N69 C73 1.453 . S
N70 N69 1.227 1_565 S
C71 H66 0.929 . S
C71 C72 1.373 . S
C71 C73 1.368 . S
C72 C71 1.373 . S
C72 C76 1.397 1_545 S
C73 N69 1.453 . S
C73 C71 1.368 . S
C73 C74 1.373 . S
C74 H68 0.930 . S
C74 C73 1.373 . S
C74 C75 1.375 . S
C75 C74 1.375 . S
C75 C76 1.381 1_545 S
C76 H67 0.931 . S
C76 C72 1.397 1_565 S
C76 C75 1.381 1_565 S
H77 C82 0.929 . S
H78 C87 0.931 . S
H79 C85 0.930 . S
N80 N81 1.234 . S
N80 C84 1.453 . S
N81 N80 1.234 . S
C82 H77 0.929 . S
C82 C83 1.373 . S
C82 C84 1.368 . S
C83 C82 1.373 . S
C83 C87 1.397 . S
C84 N80 1.453 . S
C84 C82 1.368 . S
C84 C85 1.373 . S
C85 H79 0.930 . S
C85 C84 1.373 . S
C85 C86 1.371 . S
C86 C85 1.371 . S
C86 C87 1.383 . S
C87 H78 0.931 . S
C87 C83 1.397 . S
C87 C86 1.383 . S
Zn88 O94 1.969 1_455 S
Zn88 O95 1.965 . S
Zn88 O99 2.024 . S
Zn88 O104 1.969 1_455 S
Zn89 O96 1.972 1_655 S
Zn89 O102 1.970 1_655 S
Zn89 O103 1.963 . S
Zn89 O105 2.022 . S
C90 O91 1.229 . S
C90 O99 1.058 . S
O91 C90 1.229 . S
C92 O93 1.229 1_655 S
C92 O105 1.058 . S
O93 C92 1.229 1_455 S
O94 Zn88 1.969 1_655 S
O94 C97 1.267 1_655 S
O95 Zn88 1.965 . S
O95 C106 1.260 1_545 S
O96 Zn89 1.972 1_455 S
O96 C106 1.258 . S
C97 O94 1.267 1_455 S
C97 O98 1.228 . S
O98 C97 1.228 . S
O99 Zn88 2.024 . S
O99 C90 1.058 . S
C100 O101 1.228 . S
C100 O102 1.267 1_655 S
O101 C100 1.228 . S
O102 Zn89 1.970 1_455 S
O102 C100 1.267 1_455 S
O103 Zn89 1.963 . S
O103 C107 1.260 1_565 S
O104 Zn88 1.969 1_655 S
O104 C107 1.258 . S
O105 Zn89 2.022 . S
O105 C92 1.058 . S
C106 O95 1.260 1_565 S
C106 O96 1.258 . S
C107 O103 1.260 1_545 S
C107 O104 1.258 . S
Zn108 O114 1.969 . S
Zn108 O115 1.965 1_565 S
Zn108 O119 2.024 1_565 S
Zn108 O124 1.969 . S
Zn109 O116 1.969 . S
Zn109 O122 1.969 . S
Zn109 O123 1.965 1_545 S
Zn109 O125 2.024 1_545 S
C110 O111 1.229 1_545 S
C110 O119 1.058 . S
O111 C110 1.229 1_565 S
C112 O113 1.229 1_565 S
C112 O125 1.058 . S
O113 C112 1.229 1_545 S
O114 Zn108 1.969 . S
O114 C117 1.267 . S
O115 Zn108 1.965 1_545 S
O115 C126 1.260 . S
O116 Zn109 1.969 . S
O116 C126 1.258 . S
C117 O114 1.267 . S
C117 O118 1.228 1_565 S
O118 C117 1.228 1_545 S
O119 Zn108 2.024 1_545 S
O119 C110 1.058 . S
C120 O121 1.228 1_545 S
C120 O122 1.267 . S
O121 C120 1.228 1_565 S
O122 Zn109 1.969 . S
O122 C120 1.267 . S
O123 Zn109 1.965 1_565 S
O123 C127 1.260 . S
O124 Zn108 1.969 . S
O124 C127 1.258 . S
O125 Zn109 2.024 1_565 S
O125 C112 1.058 . S
C126 O115 1.260 . S
C126 O116 1.258 . S
C127 O123 1.260 . S
C127 O124 1.258 . S
Zn128 O134 1.969 . S
Zn128 O135 1.965 . S
Zn128 O139 2.024 . S
Zn128 O144 1.969 . S
Zn129 O136 1.969 . S
Zn129 O142 1.969 . S
Zn129 O143 1.965 . S
Zn129 O145 2.024 . S
C130 O131 1.229 . S
C130 O139 1.058 . S
O131 C130 1.229 . S
C132 O133 1.229 . S
C132 O145 1.058 . S
O133 C132 1.229 . S
O134 Zn128 1.969 . S
O134 C137 1.267 . S
O135 Zn128 1.965 . S
O135 C146 1.260 . S
O136 Zn129 1.969 . S
O136 C146 1.258 . S
C137 O134 1.267 . S
C137 O138 1.228 . S
O138 C137 1.228 . S
O139 Zn128 2.024 . S
O139 C130 1.058 . S
C140 O141 1.228 . S
C140 O142 1.267 . S
O141 C140 1.228 . S
O142 Zn129 1.969 . S
O142 C140 1.267 . S
O143 Zn129 1.965 . S
O143 C147 1.260 . S
O144 Zn128 1.969 . S
O144 C147 1.258 . S
O145 Zn129 2.024 . S
O145 C132 1.058 . S
C146 O135 1.260 . S
C146 O136 1.258 . S
C147 O143 1.260 . S
C147 O144 1.258 . S
Zn148 O154 1.969 . S
Zn148 O155 1.965 . S
Zn148 O159 2.024 . S
Zn148 O164 1.969 . S
Zn149 O156 1.969 . S
Zn149 O162 1.969 . S
Zn149 O163 1.965 . S
Zn149 O165 2.024 . S
C150 O151 1.229 . S
C150 O159 1.058 . S
O151 C150 1.229 . S
C152 O153 1.229 . S
C152 O165 1.058 . S
O153 C152 1.229 . S
O154 Zn148 1.969 . S
O154 C157 1.267 . S
O155 Zn148 1.965 . S
O155 C166 1.260 . S
O156 Zn149 1.969 . S
O156 C166 1.258 1_655 S
C157 O154 1.267 . S
C157 O158 1.228 . S
O158 C157 1.228 . S
O159 Zn148 2.024 . S
O159 C150 1.058 . S
C160 O161 1.228 . S
C160 O162 1.267 . S
O161 C160 1.228 . S
O162 Zn149 1.969 . S
O162 C160 1.267 . S
O163 Zn149 1.965 . S
O163 C167 1.260 1_655 S
O164 Zn148 1.969 . S
O164 C167 1.258 . S
O165 Zn149 2.024 . S
O165 C152 1.058 . S
C166 O155 1.260 . S
C166 O156 1.258 1_455 S
C167 O163 1.260 1_455 S
C167 O164 1.258 . S
H168 C176 0.950 . S
H169 C181 0.950 . S
H170 C178 0.950 . S
H171 C180 0.950 . S
H172 C182 0.950 . S
H173 C184 0.950 . S
H174 C186 0.950 . S
H175 C187 0.950 . S
C176 H168 0.950 . S
C176 C177 1.369 1_545 S
C176 C178 1.391 . S
C177 C176 1.369 1_565 S
C177 C181 1.410 . S
C178 H170 0.950 . S
C178 C176 1.391 . S
C178 C179 1.370 1_545 S
C179 C178 1.370 1_565 S
C179 C180 1.430 . S
C179 C185 1.491 . S
C180 H171 0.950 . S
C180 C179 1.430 . S
C180 C181 1.391 . S
C181 H169 0.950 . S
C181 C177 1.410 . S
C181 C180 1.391 . S
C182 H172 0.950 . S
C182 C183 1.386 . S
C182 C184 1.391 . S
C183 C182 1.386 . S
C183 C187 1.393 1_565 S
C184 H173 0.950 . S
C184 C182 1.391 . S
C184 C185 1.425 . S
C185 C179 1.491 . S
C185 C184 1.425 . S
C185 C186 1.374 1_565 S
C186 H174 0.950 . S
C186 C185 1.374 1_545 S
C186 C187 1.391 . S
C187 H175 0.950 . S
C187 C183 1.393 1_545 S
C187 C186 1.391 . S
H188 C196 0.950 . S
H189 C201 0.950 . S
H190 C198 0.950 . S
H191 C200 0.950 . S
H192 C202 0.950 . S
H193 C204 0.950 . S
H194 C206 0.950 . S
H195 C207 0.950 . S
C196 H188 0.950 . S
C196 C197 1.386 . S
C196 C198 1.391 . S
C197 C196 1.386 . S
C197 C201 1.393 . S
C198 H190 0.950 . S
C198 C196 1.391 . S
C198 C199 1.400 . S
C199 C198 1.400 . S
C199 C200 1.398 . S
C199 C205 1.491 . S
C200 H191 0.950 . S
C200 C199 1.398 . S
C200 C201 1.391 . S
C201 H189 0.950 . S
C201 C197 1.393 . S
C201 C200 1.391 . S
C202 H192 0.950 . S
C202 C203 1.386 . S
C202 C204 1.391 . S
C203 C202 1.386 . S
C203 C207 1.393 . S
C204 H193 0.950 . S
C204 C202 1.391 . S
C204 C205 1.400 . S
C205 C199 1.491 . S
C205 C204 1.400 . S
C205 C206 1.398 . S
C206 H194 0.950 . S
C206 C205 1.398 . S
C206 C207 1.391 . S
C207 H195 0.950 . S
C207 C203 1.393 . S
C207 C206 1.391 . S
H208 C216 0.950 . S
H209 C221 0.950 . S
H210 C218 0.950 . S
H211 C220 0.950 . S
H212 C222 0.950 . S
H213 C224 0.950 . S
H214 C226 0.950 . S
H215 C227 0.950 . S
C216 H208 0.950 . S
C216 C217 1.386 . S
C216 C218 1.391 . S
C217 C216 1.386 . S
C217 C221 1.393 . S
C218 H210 0.950 . S
C218 C216 1.391 . S
C218 C219 1.400 . S
C219 C218 1.400 . S
C219 C220 1.398 . S
C219 C225 1.491 . S
C220 H211 0.950 . S
C220 C219 1.398 . S
C220 C221 1.391 . S
C221 H209 0.950 . S
C221 C217 1.393 . S
C221 C220 1.391 . S
C222 H212 0.950 . S
C222 C223 1.386 . S
C222 C224 1.391 . S
C223 C222 1.386 . S
C223 C227 1.393 . S
C224 H213 0.950 . S
C224 C222 1.391 . S
C224 C225 1.400 . S
C225 C219 1.491 . S
C225 C224 1.400 . S
C225 C226 1.398 . S
C226 H214 0.950 . S
C226 C225 1.398 . S
C226 C227 1.391 . S
C227 H215 0.950 . S
C227 C223 1.393 . S
C227 C226 1.391 . S
H228 C236 0.950 . S
H229 C241 0.950 . S
H230 C238 0.950 . S
H231 C240 0.950 1_655 S
H232 C242 0.950 . S
H233 C244 0.950 1_655 S
H234 C246 0.950 . S
H235 C247 0.950 . S
C236 H228 0.950 . S
C236 C237 1.386 . S
C236 C238 1.391 . S
C237 C236 1.386 . S
C237 C241 1.393 . S
C238 H230 0.950 . S
C238 C236 1.391 . S
C238 C239 1.400 . S
C239 C238 1.400 . S
C239 C240 1.398 . S
C239 C245 1.491 . S
C240 H231 0.950 1_455 S
C240 C239 1.398 . S
C240 C241 1.391 . S
C241 H229 0.950 . S
C241 C237 1.393 . S
C241 C240 1.391 . S
C242 H232 0.950 . S
C242 C243 1.386 1_655 S
C242 C244 1.391 1_655 S
C243 C242 1.386 1_455 S
C243 C247 1.393 . S
C244 H233 0.950 1_455 S
C244 C242 1.391 1_455 S
C244 C245 1.400 . S
C245 C239 1.491 . S
C245 C244 1.400 . S
C245 C246 1.398 . S
C246 H234 0.950 . S
C246 C245 1.398 . S
C246 C247 1.391 . S
C247 H235 0.950 . S
C247 C243 1.393 . S
C247 C246 1.391 . S
H248 C256 0.950 . S
H249 C261 0.950 . S
H250 C258 0.950 . S
H251 C260 0.950 . S
H252 C262 0.950 . S
H253 C264 0.950 . S
H254 C266 0.950 . S
H255 C267 0.950 . S
C256 H248 0.950 . S
C256 C257 1.381 1_545 S
C256 C258 1.391 . S
C257 C256 1.381 1_565 S
C257 C261 1.397 . S
C258 H250 0.950 . S
C258 C256 1.391 . S
C258 C259 1.420 . S
C259 C258 1.420 . S
C259 C260 1.378 1_545 S
C259 C265 1.492 . S
C260 H251 0.950 . S
C260 C259 1.378 1_565 S
C260 C261 1.391 . S
C261 H249 0.950 . S
C261 C257 1.397 . S
C261 C260 1.391 . S
C262 H252 0.950 . S
C262 C263 1.386 1_565 S
C262 C264 1.391 . S
C263 C262 1.386 1_545 S
C263 C267 1.393 . S
C264 H253 0.950 . S
C264 C262 1.391 . S
C264 C265 1.400 1_565 S
C265 C259 1.492 . S
C265 C264 1.400 1_545 S
C265 C266 1.398 . S
C266 H254 0.950 . S
C266 C265 1.398 . S
C266 C267 1.391 . S
C267 H255 0.950 . S
C267 C263 1.393 . S
C267 C266 1.391 . S
H268 C276 0.950 . S
H269 C281 0.950 . S
H270 C278 0.950 . S
H271 C280 0.950 . S
H272 C282 0.950 . S
H273 C284 0.950 . S
H274 C286 0.950 . S
H275 C287 0.950 . S
C276 H268 0.950 . S
C276 C277 1.386 . S
C276 C278 1.391 . S
C277 C276 1.386 . S
C277 C281 1.393 . S
C278 H270 0.950 . S
C278 C276 1.391 . S
C278 C279 1.400 . S
C279 C278 1.400 . S
C279 C280 1.398 . S
C279 C285 1.491 . S
C280 H271 0.950 . S
C280 C279 1.398 . S
C280 C281 1.391 . S
C281 H269 0.950 . S
C281 C277 1.393 . S
C281 C280 1.391 . S
C282 H272 0.950 . S
C282 C283 1.386 . S
C282 C284 1.391 . S
C283 C282 1.386 . S
C283 C287 1.393 . S
C284 H273 0.950 . S
C284 C282 1.391 . S
C284 C285 1.400 . S
C285 C279 1.491 . S
C285 C284 1.400 . S
C285 C286 1.398 . S
C286 H274 0.950 . S
C286 C285 1.398 . S
C286 C287 1.391 . S
C287 H275 0.950 . S
C287 C283 1.393 . S
C287 C286 1.391 . S
H288 C296 0.950 1_554 S
H289 C301 0.950 . S
H290 C298 0.950 . S
H291 C300 0.950 . S
H292 C302 0.950 . S
H293 C304 0.950 . S
H294 C306 0.950 . S
H295 C307 0.950 . S
C296 H288 0.950 1_556 S
C296 C297 1.386 . S
C296 C298 1.391 . S
C297 C296 1.386 . S
C297 C301 1.393 . S
C298 H290 0.950 . S
C298 C296 1.391 . S
C298 C299 1.400 . S
C299 C298 1.400 . S
C299 C300 1.398 . S
C299 C305 1.491 . S
C300 H291 0.950 . S
C300 C299 1.398 . S
C300 C301 1.391 . S
C301 H289 0.950 . S
C301 C297 1.393 . S
C301 C300 1.391 . S
C302 H292 0.950 . S
C302 C303 1.386 . S
C302 C304 1.391 . S
C303 C302 1.386 . S
C303 C307 1.393 . S
C304 H293 0.950 . S
C304 C302 1.391 . S
C304 C305 1.400 . S
C305 C299 1.491 . S
C305 C304 1.400 . S
C305 C306 1.398 . S
C306 H294 0.950 . S
C306 C305 1.398 . S
C306 C307 1.391 . S
C307 H295 0.950 . S
C307 C303 1.393 . S
C307 C306 1.391 . S
H308 C316 0.950 . S
H309 C321 0.950 1_554 S
H310 C318 0.950 . S
H311 C320 0.950 . S
H312 C322 0.950 . S
H313 C324 0.950 . S
H314 C326 0.950 . S
H315 C327 0.950 1_455 S
C316 H308 0.950 . S
C316 C317 1.386 . S
C316 C318 1.391 . S
C317 C316 1.386 . S
C317 C321 1.393 . S
C318 H310 0.950 . S
C318 C316 1.391 . S
C318 C319 1.400 . S
C319 C318 1.400 . S
C319 C320 1.398 . S
C319 C325 1.491 . S
C320 H311 0.950 . S
C320 C319 1.398 . S
C320 C321 1.391 . S
C321 H309 0.950 1_556 S
C321 C317 1.393 . S
C321 C320 1.391 . S
C322 H312 0.950 . S
C322 C323 1.386 . S
C322 C324 1.391 . S
C323 C322 1.386 . S
C323 C327 1.393 . S
C324 H313 0.950 . S
C324 C322 1.391 . S
C324 C325 1.400 . S
C325 C319 1.491 . S
C325 C324 1.400 . S
C325 C326 1.398 . S
C326 H314 0.950 . S
C326 C325 1.398 . S
C326 C327 1.391 . S
C327 H315 0.950 1_655 S
C327 C323 1.393 . S
C327 C326 1.391 . S
H328 C336 0.950 . S
H329 C341 0.950 . S
H330 C338 0.950 . S
H331 C340 0.950 . S
H332 C342 0.950 . S
H333 C344 0.950 . S
H334 C346 0.950 1_655 S
H335 C347 0.950 . S
C336 H328 0.950 . S
C336 C337 1.386 . S
C336 C338 1.391 . S
C337 C336 1.386 . S
C337 C341 1.393 . S
C338 H330 0.950 . S
C338 C336 1.391 . S
C338 C339 1.400 . S
C339 C338 1.400 . S
C339 C340 1.398 . S
C339 C345 1.491 . S
C340 H331 0.950 . S
C340 C339 1.398 . S
C340 C341 1.391 . S
C341 H329 0.950 . S
C341 C337 1.393 . S
C341 C340 1.391 . S
C342 H332 0.950 . S
C342 C343 1.386 . S
C342 C344 1.391 . S
C343 C342 1.386 . S
C343 C347 1.393 1_455 S
C344 H333 0.950 . S
C344 C342 1.391 . S
C344 C345 1.400 . S
C345 C339 1.491 . S
C345 C344 1.400 . S
C345 C346 1.398 . S
C346 H334 0.950 1_455 S
C346 C345 1.398 . S
C346 C347 1.391 1_455 S
C347 H335 0.950 . S
C347 C343 1.393 1_655 S
C347 C346 1.391 1_655 S
H348 C356 0.950 . S
H349 C361 0.950 . S
H350 C358 0.950 . S
H351 C360 0.950 . S
H352 C362 0.956 . S
H353 C364 0.950 1_545 S
H354 C366 0.950 . S
H355 C367 0.950 . S
C356 H348 0.950 . S
C356 C357 1.374 1_565 S
C356 C358 1.391 . S
C357 C356 1.374 1_545 S
C357 C361 1.403 . S
C358 H350 0.950 . S
C358 C356 1.391 . S
C358 C359 1.400 . S
C359 C358 1.400 . S
C359 C360 1.398 1_565 S
C359 C365 1.491 . S
C360 H351 0.950 . S
C360 C359 1.398 1_545 S
C360 C361 1.391 . S
C361 H349 0.950 . S
C361 C357 1.403 . S
C361 C360 1.391 . S
C362 H352 0.956 . S
C362 C363 1.386 . S
C362 C364 1.391 . S
C363 C362 1.386 . S
C363 C367 1.393 . S
C364 H353 0.950 1_565 S
C364 C362 1.391 . S
C364 C365 1.400 . S
C365 C359 1.491 . S
C365 C364 1.400 . S
C365 C366 1.398 . S
C366 H354 0.950 . S
C366 C365 1.398 . S
C366 C367 1.391 . S
C367 H355 0.950 . S
C367 C363 1.393 . S
C367 C366 1.391 . S
H368 C376 0.950 . S
H369 C381 0.950 . S
H370 C378 0.950 . S
H371 C380 0.950 . S
H372 C382 0.950 . S
H373 C384 0.950 . S
H374 C386 0.950 . S
H375 C387 0.950 . S
C376 H368 0.950 . S
C376 C377 1.386 . S
C376 C378 1.391 . S
C377 C376 1.386 . S
C377 C381 1.393 . S
C378 H370 0.950 . S
C378 C376 1.391 . S
C378 C379 1.400 . S
C379 C378 1.400 . S
C379 C380 1.398 . S
C379 C385 1.491 . S
C380 H371 0.950 . S
C380 C379 1.398 . S
C380 C381 1.391 . S
C381 H369 0.950 . S
C381 C377 1.393 . S
C381 C380 1.391 . S
C382 H372 0.950 . S
C382 C383 1.386 . S
C382 C384 1.391 . S
C383 C382 1.386 . S
C383 C387 1.393 . S
C384 H373 0.950 . S
C384 C382 1.391 . S
C384 C385 1.400 . S
C385 C379 1.491 . S
C385 C384 1.400 . S
C385 C386 1.398 . S
C386 H374 0.950 . S
C386 C385 1.398 . S
C386 C387 1.391 . S
C387 H375 0.950 . S
C387 C383 1.393 . S
C387 C386 1.391 . S
H388 C396 0.950 . S
H389 C401 0.950 . S
H390 C398 0.950 . S
H391 C400 0.950 . S
H392 C402 0.950 . S
H393 C404 0.950 . S
H394 C406 0.950 . S
H395 C407 0.950 . S
C396 H388 0.950 . S
C396 C397 1.386 . S
C396 C398 1.391 . S
C397 C396 1.386 . S
C397 C401 1.393 . S
C398 H390 0.950 . S
C398 C396 1.391 . S
C398 C399 1.400 . S
C399 C398 1.400 . S
C399 C400 1.398 . S
C399 C405 1.491 . S
C400 H391 0.950 . S
C400 C399 1.398 . S
C400 C401 1.391 . S
C401 H389 0.950 . S
C401 C397 1.393 . S
C401 C400 1.391 . S
C402 H392 0.950 . S
C402 C403 1.386 . S
C402 C404 1.391 . S
C403 C402 1.386 . S
C403 C407 1.393 . S
C404 H393 0.950 . S
C404 C402 1.391 . S
C404 C405 1.400 . S
C405 C399 1.491 . S
C405 C404 1.400 . S
C405 C406 1.398 . S
C406 H394 0.950 . S
C406 C405 1.398 . S
C406 C407 1.391 . S
C407 H395 0.950 . S
C407 C403 1.393 . S
C407 C406 1.391 . S
H408 C416 0.950 1_554 S
H409 C421 0.950 . S
H410 C418 0.950 . S
H411 C420 0.950 . S
H412 C422 0.950 . S
H413 C424 0.950 . S
H414 C426 0.950 . S
H415 C427 0.950 . S
C416 H408 0.950 1_556 S
C416 C417 1.386 . S
C416 C418 1.391 . S
C417 C416 1.386 . S
C417 C421 1.393 . S
C418 H410 0.950 . S
C418 C416 1.391 . S
C418 C419 1.400 . S
C419 C418 1.400 . S
C419 C420 1.398 . S
C419 C425 1.491 . S
C420 H411 0.950 . S
C420 C419 1.398 . S
C420 C421 1.391 . S
C421 H409 0.950 . S
C421 C417 1.393 . S
C421 C420 1.391 . S
C422 H412 0.950 . S
C422 C423 1.386 1_455 S
C422 C424 1.391 1_455 S
C423 C422 1.386 1_655 S
C423 C427 1.393 . S
C424 H413 0.950 . S
C424 C422 1.391 1_655 S
C424 C425 1.400 . S
C425 C419 1.491 . S
C425 C424 1.400 . S
C425 C426 1.398 . S
C426 H414 0.950 . S
C426 C425 1.398 . S
C426 C427 1.391 . S
C427 H415 0.950 . S
C427 C423 1.393 . S
C427 C426 1.391 . S
H428 C436 0.950 . S
H429 C441 0.950 1_554 S
H430 C438 0.950 . S
H431 C440 0.951 . S
H432 C442 0.950 . S
H433 C444 0.950 . S
H434 C446 0.950 . S
H435 C447 0.950 . S
C436 H428 0.950 . S
C436 C437 1.382 1_545 S
C436 C438 1.391 . S
C437 C436 1.382 1_565 S
C437 C441 1.395 . S
C438 H430 0.950 . S
C438 C436 1.391 . S
C438 C439 1.400 . S
C439 C438 1.400 . S
C439 C440 1.396 1_545 S
C439 C445 1.491 . S
C440 H431 0.951 . S
C440 C439 1.396 1_565 S
C440 C441 1.391 . S
C441 H429 0.950 1_556 S
C441 C437 1.395 . S
C441 C440 1.391 . S
C442 H432 0.950 . S
C442 C443 1.386 . S
C442 C444 1.391 . S
C443 C442 1.386 . S
C443 C447 1.393 . S
C444 H433 0.950 . S
C444 C442 1.391 . S
C444 C445 1.400 . S
C445 C439 1.491 . S
C445 C444 1.400 . S
C445 C446 1.398 . S
C446 H434 0.950 . S
C446 C445 1.398 . S
C446 C447 1.391 . S
C447 H435 0.950 . S
C447 C443 1.393 . S
C447 C446 1.391 . S
H448 C456 0.950 1_554 S
H449 C461 0.950 . S
H450 C458 0.950 . S
H451 C460 0.950 . S
H452 C462 0.950 . S
H453 C464 0.950 . S
H454 C466 0.950 . S
H455 C467 0.950 . S
C456 H448 0.950 1_556 S
C456 C457 1.386 . S
C456 C458 1.391 . S
C457 C456 1.386 . S
C457 C461 1.393 . S
C458 H450 0.950 . S
C458 C456 1.391 . S
C458 C459 1.400 . S
C459 C458 1.400 . S
C459 C460 1.398 . S
C459 C465 1.491 . S
C460 H451 0.950 . S
C460 C459 1.398 . S
C460 C461 1.391 . S
C461 H449 0.950 . S
C461 C457 1.393 . S
C461 C460 1.391 . S
C462 H452 0.950 . S
C462 C463 1.386 . S
C462 C464 1.391 . S
C463 C462 1.386 . S
C463 C467 1.393 . S
C464 H453 0.950 . S
C464 C462 1.391 . S
C464 C465 1.400 . S
C465 C459 1.491 . S
C465 C464 1.400 . S
C465 C466 1.398 . S
C466 H454 0.950 . S
C466 C465 1.398 . S
C466 C467 1.391 . S
C467 H455 0.950 . S
C467 C463 1.393 . S
C467 C466 1.391 . S
H468 C476 0.950 . S
H469 C481 0.950 1_554 S
H470 C478 0.950 . S
H471 C480 0.950 . S
H472 C482 0.950 . S
H473 C484 0.950 . S
H474 C486 0.950 . S
H475 C487 0.950 . S
C476 H468 0.950 . S
C476 C477 1.386 . S
C476 C478 1.391 . S
C477 C476 1.386 . S
C477 C481 1.393 . S
C478 H470 0.950 . S
C478 C476 1.391 . S
C478 C479 1.400 . S
C479 C478 1.400 . S
C479 C480 1.398 . S
C479 C485 1.491 . S
C480 H471 0.950 . S
C480 C479 1.398 . S
C480 C481 1.391 . S
C481 H469 0.950 1_556 S
C481 C477 1.393 . S
C481 C480 1.391 . S
C482 H472 0.950 . S
C482 C483 1.386 . S
C482 C484 1.391 . S
C483 C482 1.386 . S
C483 C487 1.393 . S
C484 H473 0.950 . S
C484 C482 1.391 . S
C484 C485 1.400 . S
C485 C479 1.491 . S
C485 C484 1.400 . S
C485 C486 1.398 . S
C486 H474 0.950 . S
C486 C485 1.398 . S
C486 C487 1.391 . S
C487 H475 0.950 . S
C487 C483 1.393 . S
C487 C486 1.391 . S
H488 C496 0.950 . S
H489 C501 0.950 . S
H490 C498 0.950 . S
H491 C500 0.950 . S
H492 C502 0.950 . S
H493 C504 0.950 . S
H494 C506 0.950 . S
H495 C507 0.950 . S
C496 H488 0.950 . S
C496 C497 1.386 1_556 S
C496 C498 1.391 . S
C497 C496 1.386 1_554 S
C497 C501 1.393 . S
C498 H490 0.950 . S
C498 C496 1.391 . S
C498 C499 1.400 . S
C499 C498 1.400 . S
C499 C500 1.398 1_556 S
C499 C505 1.491 . S
C500 H491 0.950 . S
C500 C499 1.398 1_554 S
C500 C501 1.391 . S
C501 H489 0.950 . S
C501 C497 1.393 . S
C501 C500 1.391 . S
C502 H492 0.950 . S
C502 C503 1.386 . S
C502 C504 1.391 . S
C503 C502 1.386 . S
C503 C507 1.393 . S
C504 H493 0.950 . S
C504 C502 1.391 . S
C504 C505 1.400 . S
C505 C499 1.491 . S
C505 C504 1.400 . S
C505 C506 1.398 . S
C506 H494 0.950 . S
C506 C505 1.398 . S
C506 C507 1.391 . S
C507 H495 0.950 . S
C507 C503 1.393 . S
C507 C506 1.391 . S
H508 C516 0.950 . S
H509 C521 0.950 . S
H510 C518 0.950 . S
H511 C520 0.950 1_554 S
H512 C522 0.950 . S
H513 C524 0.950 . S
H514 C526 0.950 . S
H515 C527 0.950 . S
C516 H508 0.950 . S
C516 C517 1.386 1_556 S
C516 C518 1.391 . S
C517 C516 1.386 1_554 S
C517 C521 1.393 1_545 S
C518 H510 0.950 . S
C518 C516 1.391 . S
C518 C519 1.400 . S
C519 C518 1.400 . S
C519 C520 1.398 1_545 S
C519 C525 1.491 . S
C520 H511 0.950 1_556 S
C520 C519 1.398 1_565 S
C520 C521 1.391 1_556 S
C521 H509 0.950 . S
C521 C517 1.393 1_565 S
C521 C520 1.391 1_554 S
C522 H512 0.950 . S
C522 C523 1.386 1_565 S
C522 C524 1.391 . S
C523 C522 1.386 1_545 S
C523 C527 1.393 . S
C524 H513 0.950 . S
C524 C522 1.391 . S
C524 C525 1.400 1_565 S
C525 C519 1.491 . S
C525 C524 1.400 1_545 S
C525 C526 1.398 . S
C526 H514 0.950 . S
C526 C525 1.398 . S
C526 C527 1.391 . S
C527 H515 0.950 . S
C527 C523 1.393 . S
C527 C526 1.391 . S
H528 C536 0.950 . S
H529 C541 0.950 . S
H530 C538 0.950 1_554 S
H531 C540 0.950 . S
H532 C542 0.950 . S
H533 C544 0.950 . S
H534 C546 0.950 . S
H535 C547 0.950 . S
C536 H528 0.950 . S
C536 C537 1.386 . S
C536 C538 1.391 1_554 S
C537 C536 1.386 . S
C537 C541 1.393 1_554 S
C538 H530 0.950 1_556 S
C538 C536 1.391 1_556 S
C538 C539 1.400 . S
C539 C538 1.400 . S
C539 C540 1.398 . S
C539 C545 1.491 . S
C540 H531 0.950 . S
C540 C539 1.398 . S
C540 C541 1.391 . S
C541 H529 0.950 . S
C541 C537 1.393 1_556 S
C541 C540 1.391 . S
C542 H532 0.950 . S
C542 C543 1.386 . S
C542 C544 1.391 . S
C543 C542 1.386 . S
C543 C547 1.393 . S
C544 H533 0.950 . S
C544 C542 1.391 . S
C544 C545 1.400 . S
C545 C539 1.491 . S
C545 C544 1.400 . S
C545 C546 1.398 . S
C546 H534 0.950 . S
C546 C545 1.398 . S
C546 C547 1.391 . S
C547 H535 0.950 . S
C547 C543 1.393 . S
C547 C546 1.391 . S
H548 C556 0.950 . S
H549 C561 0.950 . S
H550 C558 0.950 1_554 S
H551 C560 0.950 . S
H552 C562 0.950 . S
H553 C564 0.950 . S
H554 C566 0.950 . S
H555 C567 0.950 . S
C556 H548 0.950 . S
C556 C557 1.386 . S
C556 C558 1.391 1_554 S
C557 C556 1.386 . S
C557 C561 1.393 1_554 S
C558 H550 0.950 1_556 S
C558 C556 1.391 1_556 S
C558 C559 1.400 . S
C559 C558 1.400 . S
C559 C560 1.398 . S
C559 C565 1.491 . S
C560 H551 0.950 . S
C560 C559 1.398 . S
C560 C561 1.391 . S
C561 H549 0.950 . S
C561 C557 1.393 1_556 S
C561 C560 1.391 . S
C562 H552 0.950 . S
C562 C563 1.386 . S
C562 C564 1.391 . S
C563 C562 1.386 . S
C563 C567 1.393 . S
C564 H553 0.950 . S
C564 C562 1.391 . S
C564 C565 1.400 . S
C565 C559 1.491 . S
C565 C564 1.400 . S
C565 C566 1.398 . S
C566 H554 0.950 . S
C566 C565 1.398 . S
C566 C567 1.391 . S
C567 H555 0.950 . S
C567 C563 1.393 . S
C567 C566 1.391 . S
H568 C576 0.950 . S
H569 C581 0.950 . S
H570 C578 0.954 1_455 S
H571 C580 0.950 . S
H572 C582 0.950 . S
H573 C584 0.950 . S
H574 C586 0.950 1_455 S
H575 C587 0.950 1_455 S
C576 H568 0.950 . S
C576 C577 1.386 . S
C576 C578 1.391 . S
C577 C576 1.386 . S
C577 C581 1.393 . S
C578 H570 0.954 1_655 S
C578 C576 1.391 . S
C578 C579 1.400 . S
C579 C578 1.400 . S
C579 C580 1.398 . S
C579 C585 1.491 . S
C580 H571 0.950 . S
C580 C579 1.398 . S
C580 C581 1.391 . S
C581 H569 0.950 . S
C581 C577 1.393 . S
C581 C580 1.391 . S
C582 H572 0.950 . S
C582 C583 1.386 . S
C582 C584 1.391 . S
C583 C582 1.386 . S
C583 C587 1.393 . S
C584 H573 0.950 . S
C584 C582 1.391 . S
C584 C585 1.400 . S
C585 C579 1.491 . S
C585 C584 1.400 . S
C585 C586 1.398 . S
C586 H574 0.950 1_655 S
C586 C585 1.398 . S
C586 C587 1.391 . S
C587 H575 0.950 1_655 S
C587 C583 1.393 . S
C587 C586 1.391 . S
H588 C596 0.950 . S
H589 C601 0.950 . S
H590 C598 0.950 . S
H591 C600 0.950 . S
H592 C602 0.950 . S
H593 C604 0.950 . S
H594 C606 0.950 1_545 S
H595 C607 0.950 1_545 S
C596 H588 0.950 . S
C596 C597 1.386 . S
C596 C598 1.391 . S
C597 C596 1.386 . S
C597 C601 1.393 1_545 S
C598 H590 0.950 . S
C598 C596 1.391 . S
C598 C599 1.400 1_545 S
C599 C598 1.400 1_565 S
C599 C600 1.398 . S
C599 C605 1.491 . S
C600 H591 0.950 . S
C600 C599 1.398 . S
C600 C601 1.391 . S
C601 H589 0.950 . S
C601 C597 1.393 1_565 S
C601 C600 1.391 . S
C602 H592 0.950 . S
C602 C603 1.386 . S
C602 C604 1.391 . S
C603 C602 1.386 . S
C603 C607 1.393 . S
C604 H593 0.950 . S
C604 C602 1.391 . S
C604 C605 1.400 . S
C605 C599 1.491 . S
C605 C604 1.400 . S
C605 C606 1.398 . S
C606 H594 0.950 1_565 S
C606 C605 1.398 . S
C606 C607 1.391 . S
C607 H595 0.950 1_565 S
C607 C603 1.393 . S
C607 C606 1.391 . S
H608 C616 0.950 . S
H609 C621 0.950 . S
H610 C618 0.950 . S
H611 C620 0.950 . S
H612 C622 0.950 . S
H613 C624 0.950 . S
H614 C626 0.950 . S
H615 C627 0.950 . S
C616 H608 0.950 . S
C616 C617 1.386 . S
C616 C618 1.391 . S
C617 C616 1.386 . S
C617 C621 1.393 . S
C618 H610 0.950 . S
C618 C616 1.391 . S
C618 C619 1.400 . S
C619 C618 1.400 . S
C619 C620 1.398 . S
C619 C625 1.491 . S
C620 H611 0.950 . S
C620 C619 1.398 . S
C620 C621 1.391 . S
C621 H609 0.950 . S
C621 C617 1.393 . S
C621 C620 1.391 . S
C622 H612 0.950 . S
C622 C623 1.386 . S
C622 C624 1.391 . S
C623 C622 1.386 . S
C623 C627 1.393 . S
C624 H613 0.950 . S
C624 C622 1.391 . S
C624 C625 1.400 . S
C625 C619 1.491 . S
C625 C624 1.400 . S
C625 C626 1.398 . S
C626 H614 0.950 . S
C626 C625 1.398 . S
C626 C627 1.391 . S
C627 H615 0.950 . S
C627 C623 1.393 . S
C627 C626 1.391 . S
H628 C636 0.950 . S
H629 C641 0.950 . S
H630 C638 0.950 . S
H631 C640 0.950 . S
H632 C642 0.950 . S
H633 C644 0.950 . S
H634 C646 0.950 . S
H635 C647 0.950 . S
C636 H628 0.950 . S
C636 C637 1.386 . S
C636 C638 1.391 . S
C637 C636 1.386 . S
C637 C641 1.393 . S
C638 H630 0.950 . S
C638 C636 1.391 . S
C638 C639 1.400 . S
C639 C638 1.400 . S
C639 C640 1.398 . S
C639 C645 1.491 . S
C640 H631 0.950 . S
C640 C639 1.398 . S
C640 C641 1.391 . S
C641 H629 0.950 . S
C641 C637 1.393 . S
C641 C640 1.391 . S
C642 H632 0.950 . S
C642 C643 1.386 . S
C642 C644 1.391 . S
C643 C642 1.386 . S
C643 C647 1.393 . S
C644 H633 0.950 . S
C644 C642 1.391 . S
C644 C645 1.400 . S
C645 C639 1.491 . S
C645 C644 1.400 . S
C645 C646 1.398 . S
C646 H634 0.950 . S
C646 C645 1.398 . S
C646 C647 1.391 . S
C647 H635 0.950 . S
C647 C643 1.393 . S
C647 C646 1.391 . S
C177 N70 1.461 . S
C183 C106 1.473 . S
C203 C126 1.557 . S
C197 N81 1.515 . S
C223 C146 1.468 . S
C217 N48 1.453 . S
C243 C166 1.555 . S
C237 N59 1.525 . S
C263 C107 1.468 . S
C257 N26 1.461 . S
C277 N37 1.514 . S
C283 C127 1.541 . S
C297 N4 1.436 . S
C303 C147 1.445 . S
C317 N15 1.525 . S
C323 C167 1.553 1_655 S
C343 C97 0.823 . S
C337 C64 0.833 . S
C363 C117 0.848 . S
C357 C75 0.837 . S
C383 C137 0.869 . S
C377 C86 0.884 . S
C397 C53 0.859 . S
C403 C157 0.863 . S
C417 C20 0.837 . S
C423 C100 0.826 . S
C443 C120 0.851 . S
C437 C31 0.841 1_565 S
C463 C140 0.832 . S
C457 C42 0.847 . S
C477 C9 0.833 . S
C483 C160 0.838 . S
C497 C61 1.556 . S
C503 C90 1.485 . S
C517 C72 1.495 . S
C523 C110 1.432 . S
C543 C130 1.492 . S
C537 C83 1.544 . S
C563 C150 1.462 . S
C557 C50 1.511 . S
C577 C17 1.535 . S
C583 C92 1.491 . S
C603 C112 1.455 . S
C597 C28 1.504 . S
C623 C132 1.474 . S
C617 C39 1.532 . S
C637 C6 1.507 . S
C643 C152 1.437 . S
