# Generated by pormake.
# Topology the, (3,8)-cn, num edge types: 1
# Building blocks:
#     Node 0, Type 0, BuildingBlock: PAMTOO_clean_linker_0, # of connection points: 3
#     Node 1, Type 0, BuildingBlock: PAMTOO_clean_linker_0, # of connection points: 3
#     Node 2, Type 0, BuildingBlock: PAMTOO_clean_linker_0, # of connection points: 3
#     Node 3, Type 0, BuildingBlock: PAMTOO_clean_linker_0, # of connection points: 3
#     Node 4, Type 0, BuildingBlock: PAMTOO_clean_linker_0, # of connection points: 3
#     Node 5, Type 0, BuildingBlock: PAMTOO_clean_linker_0, # of connection points: 3
#     Node 6, Type 0, BuildingBlock: PAMTOO_clean_linker_0, # of connection points: 3
#     Node 7, Type 0, BuildingBlock: PAMTOO_clean_linker_0, # of connection points: 3
#     Node 8, Type 1, BuildingBlock: GIZVER_clean_sbu_0, # of connection points: 8
#     Node 9, Type 1, BuildingBlock: GIZVER_clean_sbu_0, # of connection points: 8
#     Node 10, Type 1, BuildingBlock: GIZVER_clean_sbu_0, # of connection points: 8
#     Edge 11, Type (0, 1), BuildingBlock: KIFKEQ_clean_linker_1, # of connection points: 2
#     Edge 12, Type (0, 1), BuildingBlock: KIFKEQ_clean_linker_1, # of connection points: 2
#     Edge 13, Type (0, 1), BuildingBlock: KIFKEQ_clean_linker_1, # of connection points: 2
#     Edge 14, Type (0, 1), BuildingBlock: KIFKEQ_clean_linker_1, # of connection points: 2
#     Edge 15, Type (0, 1), BuildingBlock: KIFKEQ_clean_linker_1, # of connection points: 2
#     Edge 16, Type (0, 1), BuildingBlock: KIFKEQ_clean_linker_1, # of connection points: 2
#     Edge 17, Type (0, 1), BuildingBlock: KIFKEQ_clean_linker_1, # of connection points: 2
#     Edge 18, Type (0, 1), BuildingBlock: KIFKEQ_clean_linker_1, # of connection points: 2
#     Edge 19, Type (0, 1), BuildingBlock: KIFKEQ_clean_linker_1, # of connection points: 2
#     Edge 20, Type (0, 1), BuildingBlock: KIFKEQ_clean_linker_1, # of connection points: 2
#     Edge 21, Type (0, 1), BuildingBlock: KIFKEQ_clean_linker_1, # of connection points: 2
#     Edge 22, Type (0, 1), BuildingBlock: KIFKEQ_clean_linker_1, # of connection points: 2
#     Edge 23, Type (0, 1), BuildingBlock: KIFKEQ_clean_linker_1, # of connection points: 2
#     Edge 24, Type (0, 1), BuildingBlock: KIFKEQ_clean_linker_1, # of connection points: 2
#     Edge 25, Type (0, 1), BuildingBlock: KIFKEQ_clean_linker_1, # of connection points: 2
#     Edge 26, Type (0, 1), BuildingBlock: KIFKEQ_clean_linker_1, # of connection points: 2
#     Edge 27, Type (0, 1), BuildingBlock: KIFKEQ_clean_linker_1, # of connection points: 2
#     Edge 28, Type (0, 1), BuildingBlock: KIFKEQ_clean_linker_1, # of connection points: 2
#     Edge 29, Type (0, 1), BuildingBlock: KIFKEQ_clean_linker_1, # of connection points: 2
#     Edge 30, Type (0, 1), BuildingBlock: KIFKEQ_clean_linker_1, # of connection points: 2
#     Edge 31, Type (0, 1), BuildingBlock: KIFKEQ_clean_linker_1, # of connection points: 2
#     Edge 32, Type (0, 1), BuildingBlock: KIFKEQ_clean_linker_1, # of connection points: 2
#     Edge 33, Type (0, 1), BuildingBlock: KIFKEQ_clean_linker_1, # of connection points: 2
#     Edge 34, Type (0, 1), BuildingBlock: KIFKEQ_clean_linker_1, # of connection points: 2
# Relax obj value: 0.075
# Max RMSD: 0.227
# Mean RMSD: 0.144
data_MOF--net-the--node1-GIZVER_clean_sbu_0--node2-PAMTOO_clean_linker_0--edge1-KIFKEQ_clean_linker_1
_symmetry_space_group_name_H-M    P1
_symmetry_Int_Tables_number       1
_symmetry_cell_setting            triclinic
loop_
_symmetry_equiv_pos_as_xyz
'x, y, z'
_cell_length_a     41.693665
_cell_length_b     38.973194
_cell_length_c     35.893784
_cell_angle_alpha  88.026039
_cell_angle_beta   94.794659
_cell_angle_gamma 107.83588
loop_
_atom_site_label
_atom_site_type_symbol
_atom_site_fract_x
_atom_site_fract_y
_atom_site_fract_z
_atom_type_partial_charge
H0 H 0.27194 0.42399 0.38099 0.0
H1 H 0.27039 0.35379 0.47668 0.0
H2 H 0.33584 0.35505 0.39073 0.0
H3 H 0.2787 0.28426 0.42399 0.0
C4 C 0.29313 0.28981 0.45185 0.0
O5 O 0.31365 0.32511 0.45374 0.0
H6 H 0.27443 0.28512 0.47328 0.0
C7 C 0.28119 0.40409 0.39639 0.0
C8 C 0.30632 0.3922 0.38202 0.0
C9 C 0.26767 0.39007 0.43033 0.0
C10 C 0.28012 0.36465 0.45026 0.0
C11 C 0.30423 0.35185 0.4357 0.0
C12 C 0.31737 0.36557 0.40179 0.0
H13 H 0.71822 0.30463 0.40359 0.0
H14 H 0.64363 0.30932 0.31449 0.0
H15 H 0.73486 0.39714 0.32979 0.0
H16 H 0.68017 0.42439 0.30271 0.0
C17 C 0.6609 0.39803 0.29614 0.0
O18 O 0.6771 0.37283 0.29017 0.0
H19 H 0.64546 0.39004 0.32072 0.0
C20 C 0.71008 0.31852 0.37975 0.0
C21 C 0.73095 0.35275 0.36912 0.0
C22 C 0.67835 0.30249 0.36053 0.0
C23 C 0.66783 0.321 0.32989 0.0
C24 C 0.68829 0.35486 0.31883 0.0
C25 C 0.71981 0.37049 0.33815 0.0
H26 H 0.62622 0.76683 0.32731 0.0
H27 H 0.69358 0.70203 0.34109 0.0
H28 H 0.70023 0.78236 0.42206 0.0
H29 H 0.76665 0.77713 0.41219 0.0
C30 C 0.75928 0.75043 0.39843 0.0
O31 O 0.72555 0.73284 0.40271 0.0
H32 H 0.76335 0.75477 0.36812 0.0
C33 C 0.64696 0.76022 0.34291 0.0
C34 C 0.66194 0.77878 0.37624 0.0
C35 C 0.65802 0.73224 0.3302 0.0
C36 C 0.68486 0.72357 0.3504 0.0
C37 C 0.70037 0.74219 0.38294 0.0
C38 C 0.68875 0.76935 0.39595 0.0
H39 H 0.2494 0.76577 0.40451 0.0
H40 H 0.2419 0.67719 0.33211 0.0
H41 H 0.33382 0.76448 0.34354 0.0
H42 H 0.30886 0.73378 0.26415 0.0
C43 C 0.29915 0.70503 0.27302 0.0
O44 O 0.30314 0.70279 0.3115 0.0
H45 H 0.2719 0.69439 0.26345 0.0
C46 C 0.26043 0.75285 0.38503 0.0
C47 C 0.29401 0.7694 0.37619 0.0
C48 C 0.24111 0.71964 0.36916 0.0
C49 C 0.25572 0.70333 0.34376 0.0
C50 C 0.2888 0.71987 0.33418 0.0
C51 C 0.30781 0.75281 0.35018 0.0
H52 H 0.28403 0.77489 0.70006 0.0
H53 H 0.27918 0.68643 0.77706 0.0
H54 H 0.36635 0.77972 0.78305 0.0
H55 H 0.37896 0.71005 0.78599 0.0
C56 C 0.35837 0.69463 0.80345 0.0
O57 O 0.33871 0.71592 0.81125 0.0
H58 H 0.34248 0.67081 0.78713 0.0
C59 C 0.29501 0.76313 0.72365 0.0
C60 C 0.32719 0.78217 0.7402 0.0
C61 C 0.27743 0.72842 0.73647 0.0
C62 C 0.29213 0.71314 0.76678 0.0
C63 C 0.32402 0.73176 0.78351 0.0
C64 C 0.3413 0.76618 0.77043 0.0
H65 H 0.2783 0.39649 0.7748 0.0
H66 H 0.24947 0.31764 0.68727 0.0
H67 H 0.33363 0.32035 0.76546 0.0
H68 H 0.33809 0.32328 0.67794 0.0
C69 C 0.31626 0.29838 0.67342 0.0
O70 O 0.29846 0.29 0.70502 0.0
H71 H 0.2994 0.30381 0.64978 0.0
C72 C 0.28172 0.37346 0.76145 0.0
C73 C 0.30814 0.35979 0.77506 0.0
C74 C 0.26034 0.35838 0.72985 0.0
C75 C 0.26522 0.32903 0.71212 0.0
C76 C 0.29201 0.31593 0.72457 0.0
C77 C 0.31316 0.33101 0.75608 0.0
H78 H 0.63589 0.3221 0.77105 0.0
H79 H 0.73405 0.39739 0.80207 0.0
H80 H 0.7245 0.31714 0.7205 0.0
H81 H 0.78589 0.33282 0.76702 0.0
C82 C 0.79114 0.36221 0.77145 0.0
O83 O 0.76531 0.37361 0.75426 0.0
H84 H 0.79318 0.36714 0.80203 0.0
C85 C 0.66298 0.33176 0.76919 0.0
C86 C 0.67771 0.31512 0.74396 0.0
C87 C 0.68285 0.36201 0.79022 0.0
C88 C 0.71788 0.37461 0.78617 0.0
C89 C 0.73251 0.35862 0.76086 0.0
C90 C 0.71259 0.32906 0.74 0.0
H91 H 0.64571 0.74888 0.72297 0.0
H92 H 0.71803 0.69283 0.70721 0.0
H93 H 0.70418 0.77161 0.62664 0.0
H94 H 0.72231 0.70917 0.59184 0.0
C95 C 0.73174 0.69968 0.61893 0.0
O96 O 0.73763 0.72647 0.64503 0.0
H97 H 0.71242 0.67474 0.62793 0.0
C98 C 0.66474 0.74409 0.70683 0.0
C99 C 0.67289 0.76338 0.67332 0.0
C100 C 0.68055 0.71817 0.71922 0.0
C101 C 0.70491 0.71203 0.69782 0.0
C102 C 0.71305 0.73117 0.66445 0.0
C103 C 0.69698 0.7565 0.65213 0.0
Co104 Co 0.0696 0.50835 0.57367 0.0
Co105 Co 0.0337 0.489 0.51015 0.0
Co106 Co 1.004 0.54141 0.55279 0.0
O107 O 0.02299 0.49993 0.55683 0.0
H108 H 1.00814 0.47885 0.56823 0.0
O109 O 0.98509 0.58277 0.54865 0.0
Co110 Co 0.93817 0.57509 0.53373 0.0
Co111 Co 0.97697 0.59462 0.59654 0.0
H112 H 0.9997 0.60361 0.53663 0.0
O113 O 0.04235 0.44591 0.50019 0.0
O114 O 0.07937 0.49665 0.52375 0.0
O115 O 0.03241 0.52308 0.47022 0.0
O116 O 0.03109 0.56535 0.50959 0.0
O117 O 0.96646 0.51192 0.51721 0.0
O118 O 0.89576 0.57254 0.51853 0.0
O119 O 0.94218 0.62098 0.51884 0.0
O120 O 0.9279 0.52589 0.54616 0.0
O121 O 0.97702 0.51764 0.59623 0.0
O122 O 0.98059 0.56114 0.63628 0.0
O123 O 0.93094 0.58535 0.58504 0.0
O124 O 0.96678 0.63712 0.60725 0.0
C125 C 0.09778 0.47882 0.60039 0.0
C126 C 0.07238 0.57687 0.58201 0.0
C127 C 0.03758 0.55595 0.47797 0.0
C128 C 0.07321 0.46458 0.51035 0.0
C129 C 0.90969 0.60657 0.51123 0.0
C130 C 0.93551 0.50606 0.52332 0.0
C131 C 0.97356 0.52796 0.62872 0.0
C132 C 0.93613 0.61743 0.59777 0.0
O133 O 0.11148 0.51247 0.59155 0.0
O134 O 0.06587 0.46298 0.59061 0.0
O135 O 0.04152 0.57108 0.58838 0.0
O136 O 0.07953 0.55681 0.55914 0.0
Co137 Co 0.53316 0.97194 0.52982 0.0
Co138 Co 0.55082 1.00429 0.59451 0.0
Co139 Co 0.50202 0.04041 0.54713 0.0
O140 O 0.541 0.0206 0.54686 0.0
H141 H 0.56082 0.03764 0.53743 0.0
O142 O 0.46252 0.05917 0.54702 0.0
Co143 Co 0.46791 0.10653 0.56436 0.0
Co144 Co 0.45263 0.075 0.49934 0.0
H145 H 0.44277 0.04145 0.55579 0.0
O146 O 0.59207 0.9969 0.60847 0.0
O147 O 0.54568 0.95725 0.58088 0.0
O148 O 0.51862 1.00039 0.6312 0.0
O149 O 0.47928 1.00671 0.58816 0.0
O150 O 0.52882 0.07744 0.58494 0.0
O151 O 0.4696 0.14897 0.58193 0.0
O152 O 0.42506 0.09854 0.57734 0.0
O153 O 0.51368 0.12066 0.55443 0.0
O154 O 0.52485 0.07436 0.50625 0.0
O155 O 0.48543 0.08057 0.46322 0.0
O156 O 0.4549 0.12111 0.51324 0.0
O157 O 0.41046 0.07923 0.48493 0.0
C158 C 0.56074 0.94366 0.50628 0.0
C159 C 0.46818 0.97039 0.51672 0.0
C160 C 0.48787 0.99596 0.62047 0.0
C161 C 0.57613 0.96448 0.59691 0.0
C162 C 0.43818 0.13219 0.58735 0.0
C163 C 0.53303 0.11102 0.579 0.0
C164 C 0.5162 0.08528 0.47402 0.0
C165 C 0.42425 0.11177 0.49736 0.0
O166 O 0.52934 0.92868 0.51298 0.0
O167 O 0.57557 0.97734 0.51559 0.0
O168 O 0.4749 1.00398 0.50948 0.0
O169 O 0.48746 0.95948 0.54029 0.0
Co170 Co 0.46247 0.5487 0.12085 0.0
Co171 Co 0.44563 0.48306 0.09594 0.0
Co172 Co 0.50315 0.53569 0.04723 0.0
O173 O 0.46093 0.52816 0.073 0.0
H174 H 0.44301 0.53197 0.05611 0.0
O175 O 0.54563 0.54255 0.02147 0.0
Co176 Co 0.54235 0.52244 0.97294 0.0
Co177 Co 0.56081 0.58684 0.99852 0.0
H178 H 0.56347 0.53804 0.03795 0.0
O179 O 0.40119 0.46292 0.11001 0.0
O180 O 0.445 0.50033 0.14342 0.0
O181 O 0.47722 0.4558 0.10108 0.0
O182 O 0.51994 0.50033 0.08036 0.0
O183 O 0.47641 0.49642 1.01141 0.0
O184 O 0.5419 0.50194 0.92955 0.0
O185 O 0.58294 0.51379 0.97654 0.0
O186 O 0.49935 0.52753 0.96314 0.0
O187 O 0.48652 0.57151 1.01453 0.0
O188 O 0.53027 0.61526 0.99464 0.0
O189 O 0.56222 0.57083 0.95067 0.0
O190 O 0.60526 0.60671 0.98708 0.0
C191 C 0.43052 0.5684 0.14771 0.0
C192 C 0.53043 0.57098 0.11803 0.0
C193 C 0.50854 0.47008 0.09735 0.0
C194 C 0.41403 0.4793 0.14115 0.0
C195 C 0.57071 0.49934 0.944 0.0
C196 C 0.47559 0.50254 0.97619 0.0
C197 C 0.49884 0.60204 0.99835 0.0
C198 C 0.59309 0.59232 0.95478 0.0
O199 O 0.45982 0.56887 0.16383 0.0
O200 O 0.42094 0.55387 0.11482 0.0
O201 O 0.52938 0.57544 0.08261 0.0
O202 O 0.50694 0.54693 0.13272 0.0
H203 H 0.26043 0.45753 0.43192 0.0
H204 H 0.21122 0.34613 0.46014 0.0
H205 H 0.21336 0.4741 0.45386 0.0
H206 H 0.16496 0.36288 0.48346 0.0
H207 H 0.07059 0.40208 0.476 0.0
H208 H 0.11808 0.38365 0.45847 0.0
H209 H 0.1877 0.47836 0.5115 0.0
H210 H 0.14037 0.49727 0.52819 0.0
C211 C 0.23962 0.43664 0.44288 0.0
C212 C 0.23957 0.40057 0.44434 0.0
C213 C 0.21287 0.44615 0.45587 0.0
C214 C 0.1855 0.41979 0.47052 0.0
C215 C 0.18553 0.38376 0.47207 0.0
C216 C 0.21224 0.37425 0.45909 0.0
C217 C 0.09602 0.41879 0.48421 0.0
C218 C 0.10169 0.45127 0.50321 0.0
C219 C 0.12324 0.40817 0.47429 0.0
C220 C 0.15665 0.42976 0.48329 0.0
C221 C 0.16226 0.46152 0.50353 0.0
C222 C 0.13509 0.47218 0.51335 0.0
H223 H 0.69512 0.24231 0.38617 0.0
H224 H 0.60986 0.28307 0.36486 0.0
H225 H 0.65772 0.18583 0.40968 0.0
H226 H 0.57268 0.22679 0.3879 0.0
H227 H 0.50792 0.11366 0.40428 0.0
H228 H 0.54827 0.16303 0.3736 0.0
H229 H 0.62411 0.16421 0.46358 0.0
H230 H 0.58394 0.1144 0.49411 0.0
C231 C 0.66845 0.23929 0.3865 0.0
C232 C 0.65556 0.26733 0.37351 0.0
C233 C 0.64701 0.20687 0.39991 0.0
C234 C 0.61214 0.20163 0.40049 0.0
C235 C 0.59926 0.22952 0.38713 0.0
C236 C 0.62065 0.2619 0.37389 0.0
C237 C 0.53338 0.12391 0.41724 0.0
C238 C 0.54249 0.11017 0.45192 0.0
C239 C 0.55646 0.15247 0.39975 0.0
C240 C 0.58927 0.16805 0.41642 0.0
C241 C 0.5991 0.1528 0.44986 0.0
C242 C 0.57599 0.12419 0.4674 0.0
H243 H 0.81859 0.74586 0.37521 0.0
H244 H 0.75083 0.70864 0.46275 0.0
H245 H 0.85554 0.71266 0.40401 0.0
H246 H 0.78761 0.67529 0.4915 0.0
H247 H 0.8408 0.58674 0.50297 0.0
H248 H 0.80505 0.62227 0.47752 0.0
H249 H 0.89371 0.71242 0.46069 0.0
H250 H 0.92971 0.67672 0.48617 0.0
C251 C 0.81151 0.73033 0.40047 0.0
C252 C 0.78133 0.72894 0.41607 0.0
C253 C 0.83281 0.71162 0.41718 0.0
C254 C 0.82447 0.69117 0.44999 0.0
C255 C 0.79455 0.69035 0.46598 0.0
C256 C 0.77342 0.70936 0.44946 0.0
C257 C 0.85277 0.61413 0.49382 0.0
C258 C 0.88819 0.62876 0.49625 0.0
C259 C 0.8322 0.6346 0.4795 0.0
C260 C 0.8465 0.67013 0.46691 0.0
C261 C 0.88192 0.68495 0.46972 0.0
C262 C 0.90254 0.66456 0.48443 0.0
H263 H 0.33974 0.82901 0.34743 0.0
H264 H 0.29725 0.784 0.45056 0.0
H265 H 0.37892 0.8799 0.38191 0.0
H266 H 0.3356 0.83523 0.48469 0.0
H267 H 0.44164 0.89953 0.53479 0.0
H268 H 0.39678 0.85381 0.50072 0.0
H269 H 0.38352 0.93409 0.42 0.0
H270 H 0.42899 0.98025 0.45422 0.0
C271 C 0.33852 0.83017 0.37737 0.0
C272 C 0.31547 0.80232 0.39624 0.0
C273 C 0.36071 0.8595 0.39705 0.0
C274 C 0.36049 0.86149 0.43607 0.0
C275 C 0.33665 0.83429 0.4547 0.0
C276 C 0.31442 0.80509 0.43505 0.0
C277 C 0.42907 0.90761 0.50993 0.0
C278 C 0.43904 0.94354 0.49712 0.0
C279 C 0.40314 0.88138 0.49052 0.0
C280 C 0.38655 0.89029 0.45765 0.0
C281 C 0.39603 0.92636 0.4451 0.0
C282 C 0.4219 0.9528 0.46479 0.0
H283 H 0.25927 0.65802 0.71575 0.0
H284 H 0.22258 0.75049 0.71142 0.0
H285 H 0.20806 0.62344 0.67987 0.0
H286 H 0.17111 0.71565 0.67489 0.0
H287 H 0.06977 0.62024 0.64054 0.0
H288 H 0.11797 0.65834 0.67969 0.0
H289 H 0.18674 0.62926 0.61271 0.0
H290 H 0.13948 0.59198 0.57387 0.0
C291 C 0.24006 0.67085 0.70756 0.0
C292 C 0.24505 0.70704 0.71646 0.0
C293 C 0.21083 0.6511 0.68672 0.0
C294 C 0.18566 0.66691 0.67435 0.0
C295 C 0.19002 0.70275 0.68416 0.0
C296 C 0.21957 0.72272 0.70478 0.0
C297 C 0.09521 0.62233 0.63404 0.0
C298 C 0.10065 0.60269 0.60429 0.0
C299 C 0.12275 0.64413 0.6564 0.0
C300 C 0.15609 0.64629 0.64959 0.0
C301 C 0.16137 0.6276 0.61914 0.0
C302 C 0.13413 0.60629 0.59675 0.0
H303 H 0.36306 0.27398 0.71441 0.0
H304 H 0.30009 0.25564 0.61093 0.0
H305 H 0.38985 0.22985 0.69642 0.0
H306 H 0.3271 0.2119 0.59253 0.0
H307 H 0.36895 0.11594 0.58365 0.0
H308 H 0.33621 0.15225 0.60702 0.0
H309 H 0.42893 0.23081 0.6487 0.0
H310 H 0.4613 0.19478 0.62581 0.0
C311 C 0.35472 0.26009 0.68805 0.0
C312 C 0.32967 0.2682 0.66404 0.0
C313 C 0.37012 0.23504 0.67761 0.0
C314 C 0.36078 0.21757 0.64289 0.0
C315 C 0.33466 0.22462 0.61956 0.0
C316 C 0.3193 0.24976 0.63001 0.0
C317 C 0.3822 0.14072 0.59826 0.0
C318 C 0.41768 0.15239 0.60308 0.0
C319 C 0.36351 0.16163 0.61138 0.0
C320 C 0.37997 0.19428 0.62998 0.0
C321 C 0.41541 0.20553 0.63511 0.0
C322 C 0.43399 0.18494 0.62173 0.0
H323 H 0.80655 0.35855 0.69983 0.0
H324 H 0.84774 0.41169 0.80433 0.0
H325 H 0.85563 0.39581 0.66922 0.0
H326 H 0.89771 0.44818 0.77433 0.0
H327 H 0.95028 0.54036 0.69444 0.0
H328 H 0.91046 0.49731 0.73174 0.0
H329 H 0.91442 0.41081 0.6618 0.0
H330 H 0.95349 0.45428 0.62346 0.0
C331 C 0.82659 0.37776 0.71634 0.0
C332 C 0.82343 0.38237 0.7543 0.0
C333 C 0.85485 0.39896 0.69895 0.0
C334 C 0.88075 0.42516 0.71924 0.0
C335 C 0.87808 0.42869 0.75769 0.0
C336 C 0.84961 0.40766 0.77498 0.0
C337 C 0.9432 0.5121 0.68732 0.0
C338 C 0.9548 0.50091 0.65557 0.0
C339 C 0.92038 0.48727 0.70893 0.0
C340 C 0.90879 0.45052 0.69958 0.0
C341 C 0.92218 0.439 0.66933 0.0
C342 C 0.94484 0.46391 0.64751 0.0
H343 H 0.64659 0.77474 0.60335 0.0
H344 H 0.66478 0.81631 0.71573 0.0
H345 H 0.62395 0.82381 0.58266 0.0
H346 H 0.64175 0.86497 0.6952 0.0
H347 H 0.63619 0.9687 0.63616 0.0
H348 H 0.65932 0.9195 0.65335 0.0
H349 H 0.57377 0.84473 0.59326 0.0
H350 H 0.55037 0.8938 0.57621 0.0
C351 C 0.64564 0.79432 0.62359 0.0
C352 C 0.65741 0.79179 0.66113 0.0
C353 C 0.63254 0.82221 0.61182 0.0
C354 C 0.63132 0.84825 0.6373 0.0
C355 C 0.64279 0.84548 0.67489 0.0
C356 C 0.65559 0.81745 0.68672 0.0
C357 C 0.62237 0.94184 0.6264 0.0
C358 C 0.59137 0.93516 0.60493 0.0
C359 C 0.63555 0.91366 0.63642 0.0
C360 C 0.61817 0.87831 0.6249 0.0
C361 C 0.58775 0.87177 0.60239 0.0
C362 C 0.57436 0.89989 0.5927 0.0
H363 H 0.30545 0.24383 0.40298 0.0
H364 H 0.32768 0.27972 0.51732 0.0
H365 H 0.33754 0.20121 0.41569 0.0
H366 H 0.36003 0.23694 0.53021 0.0
H367 H 0.44487 0.18236 0.51947 0.0
H368 H 0.41353 0.22605 0.51021 0.0
H369 H 0.32972 0.14487 0.45505 0.0
H370 H 0.36062 0.10109 0.46462 0.0
C371 C 0.31728 0.24255 0.43081 0.0
C372 C 0.314 0.26472 0.4593 0.0
C373 C 0.33549 0.21812 0.43814 0.0
C374 C 0.35098 0.21563 0.474 0.0
C375 C 0.3484 0.23845 0.50231 0.0
C376 C 0.32992 0.26275 0.49501 0.0
C377 C 0.41966 0.17374 0.50562 0.0
C378 C 0.40528 0.13825 0.49268 0.0
C379 C 0.40173 0.19875 0.50044 0.0
C380 C 0.36937 0.18886 0.48165 0.0
C381 C 0.35485 0.15331 0.46917 0.0
C382 C 0.37255 0.12824 0.47475 0.0
H383 H 0.79154 0.39497 0.34438 0.0
H384 H 0.74358 0.35204 0.44533 0.0
H385 H 0.84236 0.42853 0.38199 0.0
H386 H 0.79473 0.38389 0.48256 0.0
H387 H 0.86892 0.48472 0.53597 0.0
H388 H 0.82185 0.44527 0.49883 0.0
H389 H 0.89073 0.42584 0.42464 0.0
H390 H 0.93848 0.46654 0.46185 0.0
C391 C 0.79187 0.3924 0.37453 0.0
C392 C 0.7632 0.37087 0.39169 0.0
C393 C 0.82123 0.4113 0.3961 0.0
C394 C 0.82267 0.40917 0.43539 0.0
C395 C 0.79443 0.38665 0.45242 0.0
C396 C 0.76513 0.36793 0.43094 0.0
C397 C 0.87427 0.47192 0.51193 0.0
C398 C 0.90761 0.47897 0.5019 0.0
C399 C 0.84713 0.44896 0.49069 0.0
C400 C 0.85235 0.43215 0.45871 0.0
C401 C 0.88576 0.43858 0.44893 0.0
C402 C 0.91314 0.46166 0.47039 0.0
H403 H 0.59582 0.77772 0.37662 0.0
H404 H 0.69741 0.84208 0.41211 0.0
H405 H 0.57352 0.81958 0.40665 0.0
H406 H 0.67491 0.88303 0.44394 0.0
H407 H 0.6204 0.96616 0.47126 0.0
H408 H 0.64585 0.92853 0.43758 0.0
H409 H 0.56702 0.83353 0.46905 0.0
H410 H 0.54148 0.87077 0.50144 0.0
C411 C 0.6135 0.80097 0.39048 0.0
C412 C 0.64848 0.80623 0.392 0.0
C413 C 0.60065 0.82478 0.40828 0.0
C414 C 0.62234 0.85449 0.42836 0.0
C415 C 0.6574 0.86055 0.42875 0.0
C416 C 0.67029 0.83676 0.4108 0.0
C417 C 0.60872 0.93722 0.47108 0.0
C418 C 0.57867 0.92159 0.48864 0.0
C419 C 0.62328 0.91561 0.45181 0.0
C420 C 0.60815 0.87794 0.4499 0.0
C421 C 0.57886 0.86244 0.46881 0.0
C422 C 0.56431 0.8839 0.48771 0.0
H423 H 0.21934 0.71435 0.43954 0.0
H424 H 0.18494 0.68163 0.32558 0.0
H425 H 0.16471 0.67921 0.45997 0.0
H426 H 0.13009 0.64604 0.34623 0.0
H427 H 0.06451 0.54666 0.41327 0.0
H428 H 0.10988 0.59054 0.38304 0.0
H429 H 0.10446 0.67297 0.45749 0.0
H430 H 0.05941 0.629 0.48827 0.0
C431 C 0.19988 0.70031 0.41867 0.0
C432 C 0.20663 0.70077 0.38091 0.0
C433 C 0.16847 0.68014 0.43041 0.0
C434 C 0.14298 0.65981 0.40472 0.0
C435 C 0.14931 0.6611 0.36676 0.0
C436 C 0.18076 0.68142 0.35497 0.0
C437 C 0.07234 0.57432 0.42266 0.0
C438 C 0.05864 0.58407 0.45369 0.0
C439 C 0.09837 0.59956 0.4052 0.0
C440 C 0.11122 0.63511 0.41832 0.0
C441 C 0.0956 0.64558 0.44726 0.0
C442 C 0.06956 0.62038 0.46471 0.0
H443 H 0.36695 0.8422 0.77824 0.0
H444 H 0.33304 0.8021 0.6665 0.0
H445 H 0.40296 0.89815 0.75229 0.0
H446 H 0.36881 0.85788 0.64066 0.0
H447 H 0.4197 0.97028 0.60156 0.0
H448 H 0.37808 0.92222 0.63247 0.0
H449 H 0.45438 0.9169 0.71965 0.0
H450 H 0.49587 0.96534 0.68923 0.0
C451 C 0.36708 0.84533 0.74815 0.0
C452 C 0.34708 0.81753 0.72451 0.0
C453 C 0.38772 0.87744 0.73327 0.0
C454 C 0.38885 0.88259 0.69436 0.0
C455 C 0.36817 0.85517 0.67074 0.0
C456 C 0.34759 0.82309 0.6856 0.0
C457 C 0.4275 0.95946 0.62775 0.0
C458 C 0.46131 0.97163 0.6427 0.0
C459 C 0.40365 0.93161 0.6453 0.0
C460 C 0.41293 0.9153 0.6783 0.0
C461 C 0.44623 0.92892 0.69441 0.0
C462 C 0.47011 0.95671 0.67684 0.0
H463 H 0.27081 0.42856 0.71012 0.0
H464 H 0.19306 0.32588 0.71097 0.0
H465 H 0.23079 0.45613 0.67886 0.0
H466 H 0.15198 0.3537 0.68152 0.0
H467 H 0.09488 0.40783 0.59475 0.0
H468 H 0.13348 0.37796 0.62655 0.0
H469 H 0.18573 0.47638 0.68636 0.0
H470 H 0.14873 0.50627 0.65283 0.0
C471 C 0.24484 0.41209 0.70429 0.0
C472 C 0.23494 0.37521 0.71323 0.0
C473 C 0.22171 0.42787 0.68646 0.0
C474 C 0.18778 0.40737 0.67778 0.0
C475 C 0.17787 0.37038 0.68715 0.0
C476 C 0.20129 0.35443 0.70435 0.0
C477 C 0.11461 0.42281 0.61486 0.0
C478 C 0.11899 0.45933 0.62124 0.0
C479 C 0.1367 0.40573 0.63326 0.0
C480 C 0.16317 0.42471 0.65898 0.0
C481 C 0.1665 0.46099 0.66606 0.0
C482 C 0.14504 0.47815 0.64707 0.0
H483 H 0.68086 0.30557 0.66951 0.0
H484 H 0.62746 0.25495 0.76472 0.0
H485 H 0.64856 0.25476 0.63072 0.0
H486 H 0.5943 0.2041 0.72537 0.0
H487 H 0.56458 0.10355 0.64822 0.0
H488 H 0.60014 0.15209 0.6891 0.0
H489 H 0.59019 0.23074 0.60484 0.0
H490 H 0.55532 0.18283 0.56431 0.0
C491 C 0.66227 0.2835 0.68223 0.0
C492 C 0.65684 0.28432 0.7203 0.0
C493 C 0.64355 0.25445 0.65988 0.0
C494 C 0.61882 0.22531 0.6749 0.0
C495 C 0.6134 0.22595 0.71303 0.0
C496 C 0.63208 0.25525 0.73544 0.0
C497 C 0.57039 0.1312 0.63835 0.0
C498 C 0.55713 0.13928 0.60299 0.0
C499 C 0.59046 0.159 0.66188 0.0
C500 C 0.59798 0.19532 0.65026 0.0
C501 C 0.58524 0.20312 0.61458 0.0
C502 C 0.56509 0.17556 0.59135 0.0
H503 H 0.74697 0.66782 0.55933 0.0
H504 H 0.78773 0.70902 0.66928 0.0
H505 H 0.79741 0.64938 0.55271 0.0
H506 H 0.83819 0.69164 0.66205 0.0
H507 H 0.93716 0.6853 0.61687 0.0
H508 H 0.8885 0.70747 0.62016 0.0
H509 H 0.82131 0.60296 0.58708 0.0
H510 H 0.86942 0.58054 0.58457 0.0
C511 C 0.76693 0.67347 0.5817 0.0
C512 C 0.76378 0.69064 0.61433 0.0
C513 C 0.79564 0.66295 0.57794 0.0
C514 C 0.82175 0.66966 0.60664 0.0
C515 C 0.81868 0.68688 0.63922 0.0
C516 C 0.78976 0.6968 0.64329 0.0
C517 C 0.912 0.66708 0.61042 0.0
C518 C 0.90716 0.63125 0.60031 0.0
C519 C 0.88424 0.67977 0.61225 0.0
C520 C 0.8513 0.65692 0.60361 0.0
C521 C 0.8465 0.62122 0.59337 0.0
C522 C 0.8741 0.60842 0.59209 0.0
H523 H 0.37255 0.41261 0.36659 0.0
H524 H 0.27286 0.40577 0.31678 0.0
H525 H 0.39653 0.43611 0.3079 0.0
H526 H 0.29703 0.43034 0.2582 0.0
H527 H 0.35164 0.43053 0.1494 0.0
H528 H 0.32434 0.41165 0.20749 0.0
H529 H 0.40669 0.49005 0.26821 0.0
H530 H 0.43425 0.50843 0.21052 0.0
C531 C 0.35576 0.41616 0.34309 0.0
C532 C 0.3208 0.40724 0.34633 0.0
C533 C 0.36954 0.43004 0.30957 0.0
C534 C 0.3487 0.43528 0.27841 0.0
C535 C 0.31373 0.42644 0.28163 0.0
C536 C 0.29993 0.41268 0.31528 0.0
C537 C 0.36374 0.44401 0.17508 0.0
C538 C 0.39532 0.47071 0.17533 0.0
C539 C 0.34802 0.43328 0.20836 0.0
C540 C 0.36356 0.44903 0.24255 0.0
C541 C 0.39439 0.47686 0.24246 0.0
C542 C 0.41008 0.48756 0.20928 0.0
H543 H 0.40324 0.73685 0.85597 0.0
H544 H 0.3499 0.62577 0.83008 0.0
H545 H 0.43414 0.71757 0.90956 0.0
H546 H 0.38115 0.60627 0.88272 0.0
H547 H 0.42941 0.57822 0.99057 0.0
H548 H 0.39213 0.60278 0.94932 0.0
H549 H 0.47831 0.68993 0.91781 0.0
H550 H 0.51533 0.66606 0.95957 0.0
C551 C 0.39787 0.70833 0.86214 0.0
C552 C 0.37424 0.68282 0.83896 0.0
C553 C 0.41569 0.69722 0.8926 0.0
C554 C 0.41035 0.6603 0.90046 0.0
C555 C 0.38567 0.63489 0.87797 0.0
C556 C 0.36786 0.64603 0.84761 0.0
C557 C 0.44034 0.60304 0.97545 0.0
C558 C 0.4755 0.61992 0.97825 0.0
C559 C 0.41896 0.61697 0.95151 0.0
C560 C 0.43217 0.64815 0.92981 0.0
C561 C 0.46709 0.66609 0.93425 0.0
C562 C 0.48843 0.65221 0.95815 0.0
H563 H 0.2926 0.38295 0.84085 0.0
H564 H 0.37696 0.3759 0.78273 0.0
H565 H 0.33185 0.41505 0.89195 0.0
H566 H 0.41584 0.40704 0.83391 0.0
H567 H 0.47333 0.50709 0.90046 0.0
H568 H 0.43232 0.47022 0.85504 0.0
H569 H 0.3763 0.40907 0.94394 0.0
H570 H 0.41802 0.44656 0.9904 0.0
C571 C 0.31946 0.38802 0.83908 0.0
C572 C 0.33161 0.377 0.80754 0.0
C573 C 0.34189 0.40605 0.86853 0.0
C574 C 0.37695 0.41378 0.86689 0.0
C575 C 0.38897 0.40183 0.83587 0.0
C576 C 0.36663 0.38367 0.80664 0.0
C577 C 0.45239 0.48583 0.9107 0.0
C578 C 0.44919 0.47974 0.9493 0.0
C579 C 0.42891 0.46448 0.88445 0.0
C580 C 0.40127 0.43639 0.8958 0.0
C581 C 0.39741 0.43054 0.93436 0.0
C582 C 0.4213 0.4519 0.96093 0.0
H583 H 0.62829 0.33418 0.83272 0.0
H584 H 0.7014 0.43494 0.80362 0.0
H585 H 0.60218 0.36702 0.87133 0.0
H586 H 0.67627 0.46704 0.84371 0.0
H587 H 0.63828 0.50409 0.95041 0.0
H588 H 0.66639 0.47022 0.91492 0.0
H589 H 0.57081 0.4148 0.85625 0.0
H590 H 0.54299 0.44876 0.89084 0.0
C591 C 0.6389 0.36319 0.83446 0.0
C592 C 0.66718 0.38165 0.81491 0.0
C593 C 0.62405 0.38196 0.85684 0.0
C594 C 0.63738 0.41955 0.86074 0.0
C595 C 0.66582 0.438 0.84176 0.0
C596 C 0.6803 0.4194 0.81886 0.0
C597 C 0.62336 0.48465 0.92996 0.0
C598 C 0.58847 0.47921 0.92335 0.0
C599 C 0.63941 0.46536 0.90962 0.0
C600 C 0.6207 0.43973 0.88299 0.0
C601 C 0.5858 0.43407 0.87684 0.0
C602 C 0.56996 0.45377 0.8965 0.0
H603 H 0.67314 0.74474 0.78622 0.0
H604 H 0.66832 0.64585 0.73203 0.0
H605 H 0.6564 0.71122 0.84368 0.0
H606 H 0.65212 0.61228 0.78991 0.0
H607 H 0.57631 0.56766 0.88317 0.0
H608 H 0.60139 0.59636 0.82664 0.0
H609 H 0.67706 0.67606 0.89377 0.0
H610 H 0.65187 0.64766 0.95034 0.0
C611 C 0.6686 0.71583 0.78666 0.0
C612 C 0.67183 0.69788 0.75459 0.0
C613 C 0.65942 0.69669 0.81969 0.0
C614 C 0.65307 0.65912 0.82135 0.0
C615 C 0.65672 0.64119 0.78941 0.0
C616 C 0.66618 0.66041 0.7564 0.0
C617 C 0.59863 0.59095 0.88594 0.0
C618 C 0.61177 0.60569 0.92125 0.0
C619 C 0.61309 0.6073 0.85353 0.0
C620 C 0.6409 0.63877 0.85576 0.0
C621 C 0.65527 0.6522 0.89117 0.0
C622 C 0.64095 0.63575 0.92359 0.0
H623 H 0.62639 0.66032 0.32862 0.0
H624 H 0.65025 0.75477 0.25771 0.0
H625 H 0.59832 0.6232 0.27535 0.0
H626 H 0.6241 0.71746 0.20324 0.0
H627 H 0.54378 0.64395 0.11992 0.0
H628 H 0.57534 0.6842 0.1701 0.0
H629 H 0.60509 0.59594 0.22297 0.0
H630 H 0.57133 0.55566 0.17427 0.0
C631 C 0.62588 0.67301 0.30133 0.0
C632 C 0.64046 0.71034 0.29723 0.0
C633 C 0.61012 0.65168 0.2705 0.0
C634 C 0.6092 0.66691 0.23435 0.0
C635 C 0.62381 0.70453 0.23042 0.0
C636 C 0.63896 0.72602 0.26159 0.0
C637 C 0.55769 0.63355 0.14201 0.0
C638 C 0.55532 0.59684 0.14328 0.0
C639 C 0.57584 0.65659 0.17092 0.0
C640 C 0.59253 0.6435 0.20141 0.0
C641 C 0.59174 0.60705 0.20099 0.0
C642 C 0.57288 0.58394 0.1727 0.0
H643 H 0.3261 0.71663 0.20537 0.0
H644 H 0.31232 0.64269 0.29928 0.0
H645 H 0.35549 0.68101 0.17496 0.0
H646 H 0.342 0.60731 0.2691 0.0
H647 H 0.43515 0.58576 0.2214 0.0
H648 H 0.4018 0.61684 0.25173 0.0
H649 H 0.34307 0.6191 0.14725 0.0
H650 H 0.3764 0.5879 0.11682 0.0
C651 C 0.32962 0.69292 0.21959 0.0
C652 C 0.31788 0.68312 0.25516 0.0
C653 C 0.34615 0.67238 0.20209 0.0
C654 C 0.35122 0.64151 0.21979 0.0
C655 C 0.33889 0.63127 0.25507 0.0
C656 C 0.32201 0.65159 0.27237 0.0
C657 C 0.41498 0.59267 0.20494 0.0
C658 C 0.40853 0.5846 0.16666 0.0
C659 C 0.39577 0.61029 0.22238 0.0
C660 C 0.36998 0.62059 0.2018 0.0
C661 C 0.36305 0.61183 0.16369 0.0
C662 C 0.38198 0.59377 0.14635 0.0
H663 H 0.68046 0.42649 0.22772 0.0
H664 H 0.59171 0.38006 0.28782 0.0
H665 H 0.64511 0.43918 0.17425 0.0
H666 H 0.55645 0.3936 0.23534 0.0
H667 H 0.49563 0.40288 0.12967 0.0
H668 H 0.53322 0.3808 0.17293 0.0
H669 H 0.61355 0.48007 0.1584 0.0
H670 H 0.57634 0.50161 0.1143 0.0
C671 C 0.65333 0.41874 0.22925 0.0
C672 C 0.63882 0.40247 0.26188 0.0
C673 C 0.63308 0.42623 0.19882 0.0
C674 C 0.59783 0.41764 0.20038 0.0
C675 C 0.58335 0.40018 0.23271 0.0
C676 C 0.60358 0.39261 0.26299 0.0
C677 C 0.52151 0.41972 0.13514 0.0
C678 C 0.53282 0.45413 0.11857 0.0
C679 C 0.54303 0.40717 0.16025 0.0
C680 C 0.57638 0.42879 0.16974 0.0
C681 C 0.5882 0.46243 0.15163 0.0
C682 C 0.56675 0.47487 0.12628 0.0
loop_
_geom_bond_atom_site_label_1
_geom_bond_atom_site_label_2
_geom_bond_distance
_geom_bond_site_symmetry_2
_ccdc_geom_bond_type
H0 C7 0.929 . S
H1 C10 0.930 . S
H2 C12 0.929 . S
H3 C4 0.969 . S
C4 H3 0.969 . S
C4 O5 1.550 . S
C4 H6 0.973 . S
O5 C4 1.550 . S
O5 C11 1.412 . S
H6 C4 0.973 . S
C7 H0 0.929 . S
C7 C8 1.400 . S
C7 C9 1.364 . S
C8 C7 1.400 . S
C8 C12 1.377 . S
C9 C7 1.364 . S
C9 C10 1.374 . S
C10 H1 0.930 . S
C10 C9 1.374 . S
C10 C11 1.383 . S
C11 O5 1.412 . S
C11 C10 1.383 . S
C11 C12 1.394 . S
C12 H2 0.929 . S
C12 C8 1.377 . S
C12 C11 1.394 . S
H13 C20 0.929 . S
H14 C23 0.930 . S
H15 C25 0.929 . S
H16 C17 0.969 . S
C17 H16 0.969 . S
C17 O18 1.550 . S
C17 H19 0.973 . S
O18 C17 1.550 . S
O18 C24 1.412 . S
H19 C17 0.973 . S
C20 H13 0.929 . S
C20 C21 1.400 . S
C20 C22 1.364 . S
C21 C20 1.400 . S
C21 C25 1.377 . S
C22 C20 1.364 . S
C22 C23 1.374 . S
C23 H14 0.930 . S
C23 C22 1.374 . S
C23 C24 1.383 . S
C24 O18 1.412 . S
C24 C23 1.383 . S
C24 C25 1.394 . S
C25 H15 0.929 . S
C25 C21 1.377 . S
C25 C24 1.394 . S
H26 C33 0.929 . S
H27 C36 0.930 . S
H28 C38 0.929 . S
H29 C30 0.969 . S
C30 H29 0.969 . S
C30 O31 1.550 . S
C30 H32 0.973 . S
O31 C30 1.550 . S
O31 C37 1.412 . S
H32 C30 0.973 . S
C33 H26 0.929 . S
C33 C34 1.400 . S
C33 C35 1.364 . S
C34 C33 1.400 . S
C34 C38 1.377 . S
C35 C33 1.364 . S
C35 C36 1.374 . S
C36 H27 0.930 . S
C36 C35 1.374 . S
C36 C37 1.383 . S
C37 O31 1.412 . S
C37 C36 1.383 . S
C37 C38 1.394 . S
C38 H28 0.929 . S
C38 C34 1.377 . S
C38 C37 1.394 . S
H39 C46 0.929 . S
H40 C49 0.930 . S
H41 C51 0.929 . S
H42 C43 0.969 . S
C43 H42 0.969 . S
C43 O44 1.550 . S
C43 H45 0.973 . S
O44 C43 1.550 . S
O44 C50 1.412 . S
H45 C43 0.973 . S
C46 H39 0.929 . S
C46 C47 1.400 . S
C46 C48 1.364 . S
C47 C46 1.400 . S
C47 C51 1.377 . S
C48 C46 1.364 . S
C48 C49 1.374 . S
C49 H40 0.930 . S
C49 C48 1.374 . S
C49 C50 1.383 . S
C50 O44 1.412 . S
C50 C49 1.383 . S
C50 C51 1.394 . S
C51 H41 0.929 . S
C51 C47 1.377 . S
C51 C50 1.394 . S
H52 C59 0.929 . S
H53 C62 0.930 . S
H54 C64 0.929 . S
H55 C56 0.969 . S
C56 H55 0.969 . S
C56 O57 1.550 . S
C56 H58 0.973 . S
O57 C56 1.550 . S
O57 C63 1.412 . S
H58 C56 0.973 . S
C59 H52 0.929 . S
C59 C60 1.400 . S
C59 C61 1.364 . S
C60 C59 1.400 . S
C60 C64 1.377 . S
C61 C59 1.364 . S
C61 C62 1.374 . S
C62 H53 0.930 . S
C62 C61 1.374 . S
C62 C63 1.383 . S
C63 O57 1.412 . S
C63 C62 1.383 . S
C63 C64 1.394 . S
C64 H54 0.929 . S
C64 C60 1.377 . S
C64 C63 1.394 . S
H65 C72 0.929 . S
H66 C75 0.930 . S
H67 C77 0.929 . S
H68 C69 0.969 . S
C69 H68 0.969 . S
C69 O70 1.550 . S
C69 H71 0.973 . S
O70 C69 1.550 . S
O70 C76 1.412 . S
H71 C69 0.973 . S
C72 H65 0.929 . S
C72 C73 1.400 . S
C72 C74 1.364 . S
C73 C72 1.400 . S
C73 C77 1.377 . S
C74 C72 1.364 . S
C74 C75 1.374 . S
C75 H66 0.930 . S
C75 C74 1.374 . S
C75 C76 1.383 . S
C76 O70 1.412 . S
C76 C75 1.383 . S
C76 C77 1.394 . S
C77 H67 0.929 . S
C77 C73 1.377 . S
C77 C76 1.394 . S
H78 C85 0.929 . S
H79 C88 0.930 . S
H80 C90 0.929 . S
H81 C82 0.969 . S
C82 H81 0.969 . S
C82 O83 1.550 . S
C82 H84 0.973 . S
O83 C82 1.550 . S
O83 C89 1.412 . S
H84 C82 0.973 . S
C85 H78 0.929 . S
C85 C86 1.400 . S
C85 C87 1.364 . S
C86 C85 1.400 . S
C86 C90 1.377 . S
C87 C85 1.364 . S
C87 C88 1.374 . S
C88 H79 0.930 . S
C88 C87 1.374 . S
C88 C89 1.383 . S
C89 O83 1.412 . S
C89 C88 1.383 . S
C89 C90 1.394 . S
C90 H80 0.929 . S
C90 C86 1.377 . S
C90 C89 1.394 . S
H91 C98 0.929 . S
H92 C101 0.930 . S
H93 C103 0.929 . S
H94 C95 0.969 . S
C95 H94 0.969 . S
C95 O96 1.550 . S
C95 H97 0.973 . S
O96 C95 1.550 . S
O96 C102 1.412 . S
H97 C95 0.973 . S
C98 H91 0.929 . S
C98 C99 1.400 . S
C98 C100 1.364 . S
C99 C98 1.400 . S
C99 C103 1.377 . S
C100 C98 1.364 . S
C100 C101 1.374 . S
C101 H92 0.930 . S
C101 C100 1.374 . S
C101 C102 1.383 . S
C102 O96 1.412 . S
C102 C101 1.383 . S
C102 C103 1.394 . S
C103 H93 0.929 . S
C103 C99 1.377 . S
C103 C102 1.394 . S
Co104 O107 2.042 . S
Co104 O114 2.264 . S
Co104 O133 2.286 . S
Co104 O134 2.069 . S
Co104 O136 2.015 . S
Co105 O107 2.122 . S
Co105 O113 2.073 . S
Co105 O114 2.327 . S
Co105 O115 1.976 . S
Co106 O107 2.087 . S
Co106 O109 2.087 1_455 S
Co106 O116 2.111 . S
Co106 O117 2.143 1_455 S
Co106 O121 2.111 1_455 S
Co106 O135 2.143 . S
O107 Co104 2.042 . S
O107 Co105 2.122 . S
O107 Co106 2.087 . S
O107 H108 0.980 . S
H108 O107 0.980 . S
O109 Co106 2.087 1_655 S
O109 Co110 2.042 . S
O109 Co111 2.122 . S
O109 H112 0.980 1_655 S
Co110 O109 2.042 . S
Co110 O118 2.286 . S
Co110 O119 2.069 . S
Co110 O120 2.015 . S
Co110 O123 2.264 . S
Co111 O109 2.122 . S
Co111 O122 1.976 . S
Co111 O123 2.327 . S
Co111 O124 2.073 . S
H112 O109 0.980 1_455 S
O113 Co105 2.073 . S
O113 C128 1.245 . S
O114 Co104 2.264 . S
O114 Co105 2.327 . S
O114 C128 1.257 . S
O115 Co105 1.976 . S
O115 C127 1.251 . S
O116 Co106 2.111 . S
O116 C127 1.274 . S
O117 Co106 2.143 1_655 S
O117 C130 1.246 . S
O118 Co110 2.286 . S
O118 C129 1.259 . S
O119 Co110 2.069 . S
O119 C129 1.289 . S
O120 Co110 2.015 . S
O120 C130 1.257 . S
O121 Co106 2.111 1_655 S
O121 C131 1.274 . S
O122 Co111 1.976 . S
O122 C131 1.251 . S
O123 Co110 2.264 . S
O123 Co111 2.327 . S
O123 C132 1.257 . S
O124 Co111 2.073 . S
O124 C132 1.245 . S
C125 O133 1.259 . S
C125 O134 1.289 . S
C126 O135 1.246 . S
C126 O136 1.257 . S
C127 O115 1.251 . S
C127 O116 1.274 . S
C128 O113 1.245 . S
C128 O114 1.257 . S
C129 O118 1.259 . S
C129 O119 1.289 . S
C130 O117 1.246 . S
C130 O120 1.257 . S
C131 O121 1.274 . S
C131 O122 1.251 . S
C132 O123 1.257 . S
C132 O124 1.245 . S
O133 Co104 2.286 . S
O133 C125 1.259 . S
O134 Co104 2.069 . S
O134 C125 1.289 . S
O135 Co106 2.143 . S
O135 C126 1.246 . S
O136 Co104 2.015 . S
O136 C126 1.257 . S
Co137 O140 2.042 . S
Co137 O147 2.264 . S
Co137 O166 2.286 . S
Co137 O167 2.069 . S
Co137 O169 2.015 . S
Co138 O140 2.122 . S
Co138 O146 2.073 . S
Co138 O147 2.327 . S
Co138 O148 1.976 . S
Co139 O140 2.087 1_545 S
Co139 O142 2.087 . S
Co139 O149 2.111 1_545 S
Co139 O150 2.143 . S
Co139 O154 2.111 . S
Co139 O168 2.143 1_545 S
O140 Co137 2.042 . S
O140 Co138 2.122 . S
O140 Co139 2.087 1_565 S
O140 H141 0.980 1_565 S
H141 O140 0.980 1_545 S
O142 Co139 2.087 . S
O142 Co143 2.042 . S
O142 Co144 2.122 . S
O142 H145 0.980 . S
Co143 O142 2.042 . S
Co143 O151 2.286 . S
Co143 O152 2.069 . S
Co143 O153 2.015 . S
Co143 O156 2.264 . S
Co144 O142 2.122 . S
Co144 O155 1.976 . S
Co144 O156 2.327 . S
Co144 O157 2.073 . S
H145 O142 0.980 . S
O146 Co138 2.073 . S
O146 C161 1.245 . S
O147 Co137 2.264 . S
O147 Co138 2.327 . S
O147 C161 1.257 . S
O148 Co138 1.976 . S
O148 C160 1.251 . S
O149 Co139 2.111 1_565 S
O149 C160 1.274 . S
O150 Co139 2.143 . S
O150 C163 1.246 . S
O151 Co143 2.286 . S
O151 C162 1.259 . S
O152 Co143 2.069 . S
O152 C162 1.289 . S
O153 Co143 2.015 . S
O153 C163 1.257 . S
O154 Co139 2.111 . S
O154 C164 1.274 . S
O155 Co144 1.976 . S
O155 C164 1.251 . S
O156 Co143 2.264 . S
O156 Co144 2.327 . S
O156 C165 1.257 . S
O157 Co144 2.073 . S
O157 C165 1.245 . S
C158 O166 1.259 . S
C158 O167 1.289 . S
C159 O168 1.246 . S
C159 O169 1.257 . S
C160 O148 1.251 . S
C160 O149 1.274 . S
C161 O146 1.245 . S
C161 O147 1.257 . S
C162 O151 1.259 . S
C162 O152 1.289 . S
C163 O150 1.246 . S
C163 O153 1.257 . S
C164 O154 1.274 . S
C164 O155 1.251 . S
C165 O156 1.257 . S
C165 O157 1.245 . S
O166 Co137 2.286 . S
O166 C158 1.259 . S
O167 Co137 2.069 . S
O167 C158 1.289 . S
O168 Co139 2.143 1_565 S
O168 C159 1.246 . S
O169 Co137 2.015 . S
O169 C159 1.257 . S
Co170 O173 2.042 . S
Co170 O180 2.264 . S
Co170 O199 2.286 . S
Co170 O200 2.069 . S
Co170 O202 2.015 . S
Co171 O173 2.122 . S
Co171 O179 2.073 . S
Co171 O180 2.327 . S
Co171 O181 1.976 . S
Co172 O173 2.087 . S
Co172 O175 2.087 1_554 S
Co172 O182 2.111 . S
Co172 O183 2.143 1_554 S
Co172 O187 2.111 . S
Co172 O201 2.143 . S
O173 Co170 2.042 . S
O173 Co171 2.122 . S
O173 Co172 2.087 . S
O173 H174 0.980 . S
H174 O173 0.980 . S
O175 Co172 2.087 1_556 S
O175 Co176 2.042 . S
O175 Co177 2.122 . S
O175 H178 0.980 . S
Co176 O175 2.042 . S
Co176 O184 2.286 . S
Co176 O185 2.069 . S
Co176 O186 2.015 . S
Co176 O189 2.264 . S
Co177 O175 2.122 . S
Co177 O188 1.976 . S
Co177 O189 2.327 . S
Co177 O190 2.073 . S
H178 O175 0.980 . S
O179 Co171 2.073 . S
O179 C194 1.245 . S
O180 Co170 2.264 . S
O180 Co171 2.327 . S
O180 C194 1.257 . S
O181 Co171 1.976 . S
O181 C193 1.251 . S
O182 Co172 2.111 . S
O182 C193 1.274 . S
O183 Co172 2.143 1_556 S
O183 C196 1.246 . S
O184 Co176 2.286 . S
O184 C195 1.259 . S
O185 Co176 2.069 . S
O185 C195 1.289 . S
O186 Co176 2.015 . S
O186 C196 1.257 . S
O187 Co172 2.111 . S
O187 C197 1.274 1_554 S
O188 Co177 1.976 . S
O188 C197 1.251 . S
O189 Co176 2.264 . S
O189 Co177 2.327 . S
O189 C198 1.257 . S
O190 Co177 2.073 . S
O190 C198 1.245 . S
C191 O199 1.259 . S
C191 O200 1.289 . S
C192 O201 1.246 . S
C192 O202 1.257 . S
C193 O181 1.251 . S
C193 O182 1.274 . S
C194 O179 1.245 . S
C194 O180 1.257 . S
C195 O184 1.259 . S
C195 O185 1.289 . S
C196 O183 1.246 . S
C196 O186 1.257 . S
C197 O187 1.274 1_556 S
C197 O188 1.251 . S
C198 O189 1.257 . S
C198 O190 1.245 . S
O199 Co170 2.286 . S
O199 C191 1.259 . S
O200 Co170 2.069 . S
O200 C191 1.289 . S
O201 Co172 2.143 . S
O201 C192 1.246 . S
O202 Co170 2.015 . S
O202 C192 1.257 . S
H203 C211 0.950 . S
H204 C216 0.950 . S
H205 C213 0.950 . S
H206 C215 0.950 . S
H207 C217 0.950 . S
H208 C219 0.950 . S
H209 C221 0.950 . S
H210 C222 0.950 . S
C211 H203 0.950 . S
C211 C212 1.386 . S
C211 C213 1.391 . S
C212 C211 1.386 . S
C212 C216 1.393 . S
C213 H205 0.950 . S
C213 C211 1.391 . S
C213 C214 1.400 . S
C214 C213 1.400 . S
C214 C215 1.398 . S
C214 C220 1.491 . S
C215 H206 0.950 . S
C215 C214 1.398 . S
C215 C216 1.391 . S
C216 H204 0.950 . S
C216 C212 1.393 . S
C216 C215 1.391 . S
C217 H207 0.950 . S
C217 C218 1.386 . S
C217 C219 1.391 . S
C218 C217 1.386 . S
C218 C222 1.393 . S
C219 H208 0.950 . S
C219 C217 1.391 . S
C219 C220 1.400 . S
C220 C214 1.491 . S
C220 C219 1.400 . S
C220 C221 1.398 . S
C221 H209 0.950 . S
C221 C220 1.398 . S
C221 C222 1.391 . S
C222 H210 0.950 . S
C222 C218 1.393 . S
C222 C221 1.391 . S
H223 C231 0.950 . S
H224 C236 0.950 . S
H225 C233 0.950 . S
H226 C235 0.950 . S
H227 C237 0.950 . S
H228 C239 0.950 . S
H229 C241 0.950 . S
H230 C242 0.950 . S
C231 H223 0.950 . S
C231 C232 1.386 . S
C231 C233 1.391 . S
C232 C231 1.386 . S
C232 C236 1.393 . S
C233 H225 0.950 . S
C233 C231 1.391 . S
C233 C234 1.400 . S
C234 C233 1.400 . S
C234 C235 1.398 . S
C234 C240 1.491 . S
C235 H226 0.950 . S
C235 C234 1.398 . S
C235 C236 1.391 . S
C236 H224 0.950 . S
C236 C232 1.393 . S
C236 C235 1.391 . S
C237 H227 0.950 . S
C237 C238 1.386 . S
C237 C239 1.391 . S
C238 C237 1.386 . S
C238 C242 1.393 . S
C239 H228 0.950 . S
C239 C237 1.391 . S
C239 C240 1.400 . S
C240 C234 1.491 . S
C240 C239 1.400 . S
C240 C241 1.398 . S
C241 H229 0.950 . S
C241 C240 1.398 . S
C241 C242 1.391 . S
C242 H230 0.950 . S
C242 C238 1.393 . S
C242 C241 1.391 . S
H243 C251 0.950 . S
H244 C256 0.950 . S
H245 C253 0.950 . S
H246 C255 0.950 . S
H247 C257 0.950 . S
H248 C259 0.950 . S
H249 C261 0.950 . S
H250 C262 0.950 . S
C251 H243 0.950 . S
C251 C252 1.386 . S
C251 C253 1.391 . S
C252 C251 1.386 . S
C252 C256 1.393 . S
C253 H245 0.950 . S
C253 C251 1.391 . S
C253 C254 1.400 . S
C254 C253 1.400 . S
C254 C255 1.398 . S
C254 C260 1.491 . S
C255 H246 0.950 . S
C255 C254 1.398 . S
C255 C256 1.391 . S
C256 H244 0.950 . S
C256 C252 1.393 . S
C256 C255 1.391 . S
C257 H247 0.950 . S
C257 C258 1.386 . S
C257 C259 1.391 . S
C258 C257 1.386 . S
C258 C262 1.393 . S
C259 H248 0.950 . S
C259 C257 1.391 . S
C259 C260 1.400 . S
C260 C254 1.491 . S
C260 C259 1.400 . S
C260 C261 1.398 . S
C261 H249 0.950 . S
C261 C260 1.398 . S
C261 C262 1.391 . S
C262 H250 0.950 . S
C262 C258 1.393 . S
C262 C261 1.391 . S
H263 C271 0.950 . S
H264 C276 0.950 . S
H265 C273 0.950 . S
H266 C275 0.950 . S
H267 C277 0.950 . S
H268 C279 0.950 . S
H269 C281 0.950 . S
H270 C282 0.950 . S
C271 H263 0.950 . S
C271 C272 1.386 . S
C271 C273 1.391 . S
C272 C271 1.386 . S
C272 C276 1.393 . S
C273 H265 0.950 . S
C273 C271 1.391 . S
C273 C274 1.400 . S
C274 C273 1.400 . S
C274 C275 1.398 . S
C274 C280 1.491 . S
C275 H266 0.950 . S
C275 C274 1.398 . S
C275 C276 1.391 . S
C276 H264 0.950 . S
C276 C272 1.393 . S
C276 C275 1.391 . S
C277 H267 0.950 . S
C277 C278 1.386 . S
C277 C279 1.391 . S
C278 C277 1.386 . S
C278 C282 1.393 . S
C279 H268 0.950 . S
C279 C277 1.391 . S
C279 C280 1.400 . S
C280 C274 1.491 . S
C280 C279 1.400 . S
C280 C281 1.398 . S
C281 H269 0.950 . S
C281 C280 1.398 . S
C281 C282 1.391 . S
C282 H270 0.950 . S
C282 C278 1.393 . S
C282 C281 1.391 . S
H283 C291 0.950 . S
H284 C296 0.950 . S
H285 C293 0.950 . S
H286 C295 0.950 . S
H287 C297 0.950 . S
H288 C299 0.950 . S
H289 C301 0.950 . S
H290 C302 0.950 . S
C291 H283 0.950 . S
C291 C292 1.386 . S
C291 C293 1.391 . S
C292 C291 1.386 . S
C292 C296 1.393 . S
C293 H285 0.950 . S
C293 C291 1.391 . S
C293 C294 1.400 . S
C294 C293 1.400 . S
C294 C295 1.398 . S
C294 C300 1.491 . S
C295 H286 0.950 . S
C295 C294 1.398 . S
C295 C296 1.391 . S
C296 H284 0.950 . S
C296 C292 1.393 . S
C296 C295 1.391 . S
C297 H287 0.950 . S
C297 C298 1.386 . S
C297 C299 1.391 . S
C298 C297 1.386 . S
C298 C302 1.393 . S
C299 H288 0.950 . S
C299 C297 1.391 . S
C299 C300 1.400 . S
C300 C294 1.491 . S
C300 C299 1.400 . S
C300 C301 1.398 . S
C301 H289 0.950 . S
C301 C300 1.398 . S
C301 C302 1.391 . S
C302 H290 0.950 . S
C302 C298 1.393 . S
C302 C301 1.391 . S
H303 C311 0.950 . S
H304 C316 0.950 . S
H305 C313 0.950 . S
H306 C315 0.950 . S
H307 C317 0.950 . S
H308 C319 0.950 . S
H309 C321 0.950 . S
H310 C322 0.950 . S
C311 H303 0.950 . S
C311 C312 1.386 . S
C311 C313 1.391 . S
C312 C311 1.386 . S
C312 C316 1.393 . S
C313 H305 0.950 . S
C313 C311 1.391 . S
C313 C314 1.400 . S
C314 C313 1.400 . S
C314 C315 1.398 . S
C314 C320 1.491 . S
C315 H306 0.950 . S
C315 C314 1.398 . S
C315 C316 1.391 . S
C316 H304 0.950 . S
C316 C312 1.393 . S
C316 C315 1.391 . S
C317 H307 0.950 . S
C317 C318 1.386 . S
C317 C319 1.391 . S
C318 C317 1.386 . S
C318 C322 1.393 . S
C319 H308 0.950 . S
C319 C317 1.391 . S
C319 C320 1.400 . S
C320 C314 1.491 . S
C320 C319 1.400 . S
C320 C321 1.398 . S
C321 H309 0.950 . S
C321 C320 1.398 . S
C321 C322 1.391 . S
C322 H310 0.950 . S
C322 C318 1.393 . S
C322 C321 1.391 . S
H323 C331 0.950 . S
H324 C336 0.950 . S
H325 C333 0.950 . S
H326 C335 0.950 . S
H327 C337 0.950 . S
H328 C339 0.950 . S
H329 C341 0.950 . S
H330 C342 0.950 . S
C331 H323 0.950 . S
C331 C332 1.386 . S
C331 C333 1.391 . S
C332 C331 1.386 . S
C332 C336 1.393 . S
C333 H325 0.950 . S
C333 C331 1.391 . S
C333 C334 1.400 . S
C334 C333 1.400 . S
C334 C335 1.398 . S
C334 C340 1.491 . S
C335 H326 0.950 . S
C335 C334 1.398 . S
C335 C336 1.391 . S
C336 H324 0.950 . S
C336 C332 1.393 . S
C336 C335 1.391 . S
C337 H327 0.950 . S
C337 C338 1.386 . S
C337 C339 1.391 . S
C338 C337 1.386 . S
C338 C342 1.393 . S
C339 H328 0.950 . S
C339 C337 1.391 . S
C339 C340 1.400 . S
C340 C334 1.491 . S
C340 C339 1.400 . S
C340 C341 1.398 . S
C341 H329 0.950 . S
C341 C340 1.398 . S
C341 C342 1.391 . S
C342 H330 0.950 . S
C342 C338 1.393 . S
C342 C341 1.391 . S
H343 C351 0.950 . S
H344 C356 0.950 . S
H345 C353 0.950 . S
H346 C355 0.950 . S
H347 C357 0.950 . S
H348 C359 0.950 . S
H349 C361 0.950 . S
H350 C362 0.950 . S
C351 H343 0.950 . S
C351 C352 1.386 . S
C351 C353 1.391 . S
C352 C351 1.386 . S
C352 C356 1.393 . S
C353 H345 0.950 . S
C353 C351 1.391 . S
C353 C354 1.400 . S
C354 C353 1.400 . S
C354 C355 1.398 . S
C354 C360 1.491 . S
C355 H346 0.950 . S
C355 C354 1.398 . S
C355 C356 1.391 . S
C356 H344 0.950 . S
C356 C352 1.393 . S
C356 C355 1.391 . S
C357 H347 0.950 . S
C357 C358 1.386 . S
C357 C359 1.391 . S
C358 C357 1.386 . S
C358 C362 1.393 . S
C359 H348 0.950 . S
C359 C357 1.391 . S
C359 C360 1.400 . S
C360 C354 1.491 . S
C360 C359 1.400 . S
C360 C361 1.398 . S
C361 H349 0.950 . S
C361 C360 1.398 . S
C361 C362 1.391 . S
C362 H350 0.950 . S
C362 C358 1.393 . S
C362 C361 1.391 . S
H363 C371 0.950 . S
H364 C376 0.950 . S
H365 C373 0.950 . S
H366 C375 0.950 . S
H367 C377 0.950 . S
H368 C379 0.950 . S
H369 C381 0.950 . S
H370 C382 0.950 . S
C371 H363 0.950 . S
C371 C372 1.386 . S
C371 C373 1.391 . S
C372 C371 1.386 . S
C372 C376 1.393 . S
C373 H365 0.950 . S
C373 C371 1.391 . S
C373 C374 1.400 . S
C374 C373 1.400 . S
C374 C375 1.398 . S
C374 C380 1.491 . S
C375 H366 0.950 . S
C375 C374 1.398 . S
C375 C376 1.391 . S
C376 H364 0.950 . S
C376 C372 1.393 . S
C376 C375 1.391 . S
C377 H367 0.950 . S
C377 C378 1.386 . S
C377 C379 1.391 . S
C378 C377 1.386 . S
C378 C382 1.393 . S
C379 H368 0.950 . S
C379 C377 1.391 . S
C379 C380 1.400 . S
C380 C374 1.491 . S
C380 C379 1.400 . S
C380 C381 1.398 . S
C381 H369 0.950 . S
C381 C380 1.398 . S
C381 C382 1.391 . S
C382 H370 0.950 . S
C382 C378 1.393 . S
C382 C381 1.391 . S
H383 C391 0.950 . S
H384 C396 0.950 . S
H385 C393 0.950 . S
H386 C395 0.950 . S
H387 C397 0.950 . S
H388 C399 0.950 . S
H389 C401 0.950 . S
H390 C402 0.950 . S
C391 H383 0.950 . S
C391 C392 1.386 . S
C391 C393 1.391 . S
C392 C391 1.386 . S
C392 C396 1.393 . S
C393 H385 0.950 . S
C393 C391 1.391 . S
C393 C394 1.400 . S
C394 C393 1.400 . S
C394 C395 1.398 . S
C394 C400 1.491 . S
C395 H386 0.950 . S
C395 C394 1.398 . S
C395 C396 1.391 . S
C396 H384 0.950 . S
C396 C392 1.393 . S
C396 C395 1.391 . S
C397 H387 0.950 . S
C397 C398 1.386 . S
C397 C399 1.391 . S
C398 C397 1.386 . S
C398 C402 1.393 . S
C399 H388 0.950 . S
C399 C397 1.391 . S
C399 C400 1.400 . S
C400 C394 1.491 . S
C400 C399 1.400 . S
C400 C401 1.398 . S
C401 H389 0.950 . S
C401 C400 1.398 . S
C401 C402 1.391 . S
C402 H390 0.950 . S
C402 C398 1.393 . S
C402 C401 1.391 . S
H403 C411 0.950 . S
H404 C416 0.950 . S
H405 C413 0.950 . S
H406 C415 0.950 . S
H407 C417 0.950 . S
H408 C419 0.950 . S
H409 C421 0.950 . S
H410 C422 0.950 . S
C411 H403 0.950 . S
C411 C412 1.386 . S
C411 C413 1.391 . S
C412 C411 1.386 . S
C412 C416 1.393 . S
C413 H405 0.950 . S
C413 C411 1.391 . S
C413 C414 1.400 . S
C414 C413 1.400 . S
C414 C415 1.398 . S
C414 C420 1.491 . S
C415 H406 0.950 . S
C415 C414 1.398 . S
C415 C416 1.391 . S
C416 H404 0.950 . S
C416 C412 1.393 . S
C416 C415 1.391 . S
C417 H407 0.950 . S
C417 C418 1.386 . S
C417 C419 1.391 . S
C418 C417 1.386 . S
C418 C422 1.393 . S
C419 H408 0.950 . S
C419 C417 1.391 . S
C419 C420 1.400 . S
C420 C414 1.491 . S
C420 C419 1.400 . S
C420 C421 1.398 . S
C421 H409 0.950 . S
C421 C420 1.398 . S
C421 C422 1.391 . S
C422 H410 0.950 . S
C422 C418 1.393 . S
C422 C421 1.391 . S
H423 C431 0.950 . S
H424 C436 0.950 . S
H425 C433 0.950 . S
H426 C435 0.950 . S
H427 C437 0.950 . S
H428 C439 0.950 . S
H429 C441 0.950 . S
H430 C442 0.950 . S
C431 H423 0.950 . S
C431 C432 1.386 . S
C431 C433 1.391 . S
C432 C431 1.386 . S
C432 C436 1.393 . S
C433 H425 0.950 . S
C433 C431 1.391 . S
C433 C434 1.400 . S
C434 C433 1.400 . S
C434 C435 1.398 . S
C434 C440 1.491 . S
C435 H426 0.950 . S
C435 C434 1.398 . S
C435 C436 1.391 . S
C436 H424 0.950 . S
C436 C432 1.393 . S
C436 C435 1.391 . S
C437 H427 0.950 . S
C437 C438 1.386 . S
C437 C439 1.391 . S
C438 C437 1.386 . S
C438 C442 1.393 . S
C439 H428 0.950 . S
C439 C437 1.391 . S
C439 C440 1.400 . S
C440 C434 1.491 . S
C440 C439 1.400 . S
C440 C441 1.398 . S
C441 H429 0.950 . S
C441 C440 1.398 . S
C441 C442 1.391 . S
C442 H430 0.950 . S
C442 C438 1.393 . S
C442 C441 1.391 . S
H443 C451 0.950 . S
H444 C456 0.950 . S
H445 C453 0.950 . S
H446 C455 0.950 . S
H447 C457 0.950 . S
H448 C459 0.950 . S
H449 C461 0.950 . S
H450 C462 0.950 . S
C451 H443 0.950 . S
C451 C452 1.386 . S
C451 C453 1.391 . S
C452 C451 1.386 . S
C452 C456 1.393 . S
C453 H445 0.950 . S
C453 C451 1.391 . S
C453 C454 1.400 . S
C454 C453 1.400 . S
C454 C455 1.398 . S
C454 C460 1.491 . S
C455 H446 0.950 . S
C455 C454 1.398 . S
C455 C456 1.391 . S
C456 H444 0.950 . S
C456 C452 1.393 . S
C456 C455 1.391 . S
C457 H447 0.950 . S
C457 C458 1.386 . S
C457 C459 1.391 . S
C458 C457 1.386 . S
C458 C462 1.393 . S
C459 H448 0.950 . S
C459 C457 1.391 . S
C459 C460 1.400 . S
C460 C454 1.491 . S
C460 C459 1.400 . S
C460 C461 1.398 . S
C461 H449 0.950 . S
C461 C460 1.398 . S
C461 C462 1.391 . S
C462 H450 0.950 . S
C462 C458 1.393 . S
C462 C461 1.391 . S
H463 C471 0.950 . S
H464 C476 0.950 . S
H465 C473 0.950 . S
H466 C475 0.950 . S
H467 C477 0.950 . S
H468 C479 0.950 . S
H469 C481 0.950 . S
H470 C482 0.950 . S
C471 H463 0.950 . S
C471 C472 1.386 . S
C471 C473 1.391 . S
C472 C471 1.386 . S
C472 C476 1.393 . S
C473 H465 0.950 . S
C473 C471 1.391 . S
C473 C474 1.400 . S
C474 C473 1.400 . S
C474 C475 1.398 . S
C474 C480 1.491 . S
C475 H466 0.950 . S
C475 C474 1.398 . S
C475 C476 1.391 . S
C476 H464 0.950 . S
C476 C472 1.393 . S
C476 C475 1.391 . S
C477 H467 0.950 . S
C477 C478 1.386 . S
C477 C479 1.391 . S
C478 C477 1.386 . S
C478 C482 1.393 . S
C479 H468 0.950 . S
C479 C477 1.391 . S
C479 C480 1.400 . S
C480 C474 1.491 . S
C480 C479 1.400 . S
C480 C481 1.398 . S
C481 H469 0.950 . S
C481 C480 1.398 . S
C481 C482 1.391 . S
C482 H470 0.950 . S
C482 C478 1.393 . S
C482 C481 1.391 . S
H483 C491 0.950 . S
H484 C496 0.950 . S
H485 C493 0.950 . S
H486 C495 0.950 . S
H487 C497 0.950 . S
H488 C499 0.950 . S
H489 C501 0.950 . S
H490 C502 0.950 . S
C491 H483 0.950 . S
C491 C492 1.386 . S
C491 C493 1.391 . S
C492 C491 1.386 . S
C492 C496 1.393 . S
C493 H485 0.950 . S
C493 C491 1.391 . S
C493 C494 1.400 . S
C494 C493 1.400 . S
C494 C495 1.398 . S
C494 C500 1.491 . S
C495 H486 0.950 . S
C495 C494 1.398 . S
C495 C496 1.391 . S
C496 H484 0.950 . S
C496 C492 1.393 . S
C496 C495 1.391 . S
C497 H487 0.950 . S
C497 C498 1.386 . S
C497 C499 1.391 . S
C498 C497 1.386 . S
C498 C502 1.393 . S
C499 H488 0.950 . S
C499 C497 1.391 . S
C499 C500 1.400 . S
C500 C494 1.491 . S
C500 C499 1.400 . S
C500 C501 1.398 . S
C501 H489 0.950 . S
C501 C500 1.398 . S
C501 C502 1.391 . S
C502 H490 0.950 . S
C502 C498 1.393 . S
C502 C501 1.391 . S
H503 C511 0.950 . S
H504 C516 0.950 . S
H505 C513 0.950 . S
H506 C515 0.950 . S
H507 C517 0.950 . S
H508 C519 0.950 . S
H509 C521 0.950 . S
H510 C522 0.950 . S
C511 H503 0.950 . S
C511 C512 1.386 . S
C511 C513 1.391 . S
C512 C511 1.386 . S
C512 C516 1.393 . S
C513 H505 0.950 . S
C513 C511 1.391 . S
C513 C514 1.400 . S
C514 C513 1.400 . S
C514 C515 1.398 . S
C514 C520 1.491 . S
C515 H506 0.950 . S
C515 C514 1.398 . S
C515 C516 1.391 . S
C516 H504 0.950 . S
C516 C512 1.393 . S
C516 C515 1.391 . S
C517 H507 0.950 . S
C517 C518 1.386 . S
C517 C519 1.391 . S
C518 C517 1.386 . S
C518 C522 1.393 . S
C519 H508 0.950 . S
C519 C517 1.391 . S
C519 C520 1.400 . S
C520 C514 1.491 . S
C520 C519 1.400 . S
C520 C521 1.398 . S
C521 H509 0.950 . S
C521 C520 1.398 . S
C521 C522 1.391 . S
C522 H510 0.950 . S
C522 C518 1.393 . S
C522 C521 1.391 . S
H523 C531 0.950 . S
H524 C536 0.950 . S
H525 C533 0.950 . S
H526 C535 0.950 . S
H527 C537 0.950 . S
H528 C539 0.950 . S
H529 C541 0.950 . S
H530 C542 0.950 . S
C531 H523 0.950 . S
C531 C532 1.386 . S
C531 C533 1.391 . S
C532 C531 1.386 . S
C532 C536 1.393 . S
C533 H525 0.950 . S
C533 C531 1.391 . S
C533 C534 1.400 . S
C534 C533 1.400 . S
C534 C535 1.398 . S
C534 C540 1.491 . S
C535 H526 0.950 . S
C535 C534 1.398 . S
C535 C536 1.391 . S
C536 H524 0.950 . S
C536 C532 1.393 . S
C536 C535 1.391 . S
C537 H527 0.950 . S
C537 C538 1.386 . S
C537 C539 1.391 . S
C538 C537 1.386 . S
C538 C542 1.393 . S
C539 H528 0.950 . S
C539 C537 1.391 . S
C539 C540 1.400 . S
C540 C534 1.491 . S
C540 C539 1.400 . S
C540 C541 1.398 . S
C541 H529 0.950 . S
C541 C540 1.398 . S
C541 C542 1.391 . S
C542 H530 0.950 . S
C542 C538 1.393 . S
C542 C541 1.391 . S
H543 C551 0.950 . S
H544 C556 0.950 . S
H545 C553 0.950 . S
H546 C555 0.950 . S
H547 C557 0.950 . S
H548 C559 0.950 . S
H549 C561 0.950 . S
H550 C562 0.950 . S
C551 H543 0.950 . S
C551 C552 1.386 . S
C551 C553 1.391 . S
C552 C551 1.386 . S
C552 C556 1.393 . S
C553 H545 0.950 . S
C553 C551 1.391 . S
C553 C554 1.400 . S
C554 C553 1.400 . S
C554 C555 1.398 . S
C554 C560 1.491 . S
C555 H546 0.950 . S
C555 C554 1.398 . S
C555 C556 1.391 . S
C556 H544 0.950 . S
C556 C552 1.393 . S
C556 C555 1.391 . S
C557 H547 0.950 . S
C557 C558 1.386 . S
C557 C559 1.391 . S
C558 C557 1.386 . S
C558 C562 1.393 . S
C559 H548 0.950 . S
C559 C557 1.391 . S
C559 C560 1.400 . S
C560 C554 1.491 . S
C560 C559 1.400 . S
C560 C561 1.398 . S
C561 H549 0.950 . S
C561 C560 1.398 . S
C561 C562 1.391 . S
C562 H550 0.950 . S
C562 C558 1.393 . S
C562 C561 1.391 . S
H563 C571 0.950 . S
H564 C576 0.950 . S
H565 C573 0.950 . S
H566 C575 0.950 . S
H567 C577 0.950 . S
H568 C579 0.950 . S
H569 C581 0.950 . S
H570 C582 0.950 . S
C571 H563 0.950 . S
C571 C572 1.386 . S
C571 C573 1.391 . S
C572 C571 1.386 . S
C572 C576 1.393 . S
C573 H565 0.950 . S
C573 C571 1.391 . S
C573 C574 1.400 . S
C574 C573 1.400 . S
C574 C575 1.398 . S
C574 C580 1.491 . S
C575 H566 0.950 . S
C575 C574 1.398 . S
C575 C576 1.391 . S
C576 H564 0.950 . S
C576 C572 1.393 . S
C576 C575 1.391 . S
C577 H567 0.950 . S
C577 C578 1.386 . S
C577 C579 1.391 . S
C578 C577 1.386 . S
C578 C582 1.393 . S
C579 H568 0.950 . S
C579 C577 1.391 . S
C579 C580 1.400 . S
C580 C574 1.491 . S
C580 C579 1.400 . S
C580 C581 1.398 . S
C581 H569 0.950 . S
C581 C580 1.398 . S
C581 C582 1.391 . S
C582 H570 0.950 . S
C582 C578 1.393 . S
C582 C581 1.391 . S
H583 C591 0.950 . S
H584 C596 0.950 . S
H585 C593 0.950 . S
H586 C595 0.950 . S
H587 C597 0.950 . S
H588 C599 0.950 . S
H589 C601 0.950 . S
H590 C602 0.950 . S
C591 H583 0.950 . S
C591 C592 1.386 . S
C591 C593 1.391 . S
C592 C591 1.386 . S
C592 C596 1.393 . S
C593 H585 0.950 . S
C593 C591 1.391 . S
C593 C594 1.400 . S
C594 C593 1.400 . S
C594 C595 1.398 . S
C594 C600 1.491 . S
C595 H586 0.950 . S
C595 C594 1.398 . S
C595 C596 1.391 . S
C596 H584 0.950 . S
C596 C592 1.393 . S
C596 C595 1.391 . S
C597 H587 0.950 . S
C597 C598 1.386 . S
C597 C599 1.391 . S
C598 C597 1.386 . S
C598 C602 1.393 . S
C599 H588 0.950 . S
C599 C597 1.391 . S
C599 C600 1.400 . S
C600 C594 1.491 . S
C600 C599 1.400 . S
C600 C601 1.398 . S
C601 H589 0.950 . S
C601 C600 1.398 . S
C601 C602 1.391 . S
C602 H590 0.950 . S
C602 C598 1.393 . S
C602 C601 1.391 . S
H603 C611 0.950 . S
H604 C616 0.950 . S
H605 C613 0.950 . S
H606 C615 0.950 . S
H607 C617 0.950 . S
H608 C619 0.950 . S
H609 C621 0.950 . S
H610 C622 0.950 . S
C611 H603 0.950 . S
C611 C612 1.386 . S
C611 C613 1.391 . S
C612 C611 1.386 . S
C612 C616 1.393 . S
C613 H605 0.950 . S
C613 C611 1.391 . S
C613 C614 1.400 . S
C614 C613 1.400 . S
C614 C615 1.398 . S
C614 C620 1.491 . S
C615 H606 0.950 . S
C615 C614 1.398 . S
C615 C616 1.391 . S
C616 H604 0.950 . S
C616 C612 1.393 . S
C616 C615 1.391 . S
C617 H607 0.950 . S
C617 C618 1.386 . S
C617 C619 1.391 . S
C618 C617 1.386 . S
C618 C622 1.393 . S
C619 H608 0.950 . S
C619 C617 1.391 . S
C619 C620 1.400 . S
C620 C614 1.491 . S
C620 C619 1.400 . S
C620 C621 1.398 . S
C621 H609 0.950 . S
C621 C620 1.398 . S
C621 C622 1.391 . S
C622 H610 0.950 . S
C622 C618 1.393 . S
C622 C621 1.391 . S
H623 C631 0.950 . S
H624 C636 0.950 . S
H625 C633 0.950 . S
H626 C635 0.950 . S
H627 C637 0.950 . S
H628 C639 0.950 . S
H629 C641 0.950 . S
H630 C642 0.950 . S
C631 H623 0.950 . S
C631 C632 1.386 . S
C631 C633 1.391 . S
C632 C631 1.386 . S
C632 C636 1.393 . S
C633 H625 0.950 . S
C633 C631 1.391 . S
C633 C634 1.400 . S
C634 C633 1.400 . S
C634 C635 1.398 . S
C634 C640 1.491 . S
C635 H626 0.950 . S
C635 C634 1.398 . S
C635 C636 1.391 . S
C636 H624 0.950 . S
C636 C632 1.393 . S
C636 C635 1.391 . S
C637 H627 0.950 . S
C637 C638 1.386 . S
C637 C639 1.391 . S
C638 C637 1.386 . S
C638 C642 1.393 . S
C639 H628 0.950 . S
C639 C637 1.391 . S
C639 C640 1.400 . S
C640 C634 1.491 . S
C640 C639 1.400 . S
C640 C641 1.398 . S
C641 H629 0.950 . S
C641 C640 1.398 . S
C641 C642 1.391 . S
C642 H630 0.950 . S
C642 C638 1.393 . S
C642 C641 1.391 . S
H643 C651 0.950 . S
H644 C656 0.950 . S
H645 C653 0.950 . S
H646 C655 0.950 . S
H647 C657 0.950 . S
H648 C659 0.950 . S
H649 C661 0.950 . S
H650 C662 0.950 . S
C651 H643 0.950 . S
C651 C652 1.386 . S
C651 C653 1.391 . S
C652 C651 1.386 . S
C652 C656 1.393 . S
C653 H645 0.950 . S
C653 C651 1.391 . S
C653 C654 1.400 . S
C654 C653 1.400 . S
C654 C655 1.398 . S
C654 C660 1.491 . S
C655 H646 0.950 . S
C655 C654 1.398 . S
C655 C656 1.391 . S
C656 H644 0.950 . S
C656 C652 1.393 . S
C656 C655 1.391 . S
C657 H647 0.950 . S
C657 C658 1.386 . S
C657 C659 1.391 . S
C658 C657 1.386 . S
C658 C662 1.393 . S
C659 H648 0.950 . S
C659 C657 1.391 . S
C659 C660 1.400 . S
C660 C654 1.491 . S
C660 C659 1.400 . S
C660 C661 1.398 . S
C661 H649 0.950 . S
C661 C660 1.398 . S
C661 C662 1.391 . S
C662 H650 0.950 . S
C662 C658 1.393 . S
C662 C661 1.391 . S
H663 C671 0.950 . S
H664 C676 0.950 . S
H665 C673 0.950 . S
H666 C675 0.950 . S
H667 C677 0.950 . S
H668 C679 0.950 . S
H669 C681 0.950 . S
H670 C682 0.950 . S
C671 H663 0.950 . S
C671 C672 1.386 . S
C671 C673 1.391 . S
C672 C671 1.386 . S
C672 C676 1.393 . S
C673 H665 0.950 . S
C673 C671 1.391 . S
C673 C674 1.400 . S
C674 C673 1.400 . S
C674 C675 1.398 . S
C674 C680 1.491 . S
C675 H666 0.950 . S
C675 C674 1.398 . S
C675 C676 1.391 . S
C676 H664 0.950 . S
C676 C672 1.393 . S
C676 C675 1.391 . S
C677 H667 0.950 . S
C677 C678 1.386 . S
C677 C679 1.391 . S
C678 C677 1.386 . S
C678 C682 1.393 . S
C679 H668 0.950 . S
C679 C677 1.391 . S
C679 C680 1.400 . S
C680 C674 1.491 . S
C680 C679 1.400 . S
C680 C681 1.398 . S
C681 H669 0.950 . S
C681 C680 1.398 . S
C681 C682 1.391 . S
C682 H670 0.950 . S
C682 C678 1.393 . S
C682 C681 1.391 . S
C218 C128 1.450 . S
C212 C9 1.509 . S
C238 C164 2.022 . S
C232 C22 2.138 . S
C258 C129 1.359 . S
C252 C30 1.349 . S
C278 C159 1.109 . S
C272 C47 1.166 . S
C298 C126 1.136 . S
C292 C61 1.174 . S
C312 C69 1.312 . S
C318 C162 1.348 . S
C332 C82 0.960 . S
C338 C131 0.859 . S
C358 C161 1.679 . S
C352 C99 1.715 . S
C378 C165 1.410 . S
C372 C4 1.458 . S
C398 C130 1.705 . S
C392 C21 1.756 . S
C418 C158 1.930 . S
C412 C34 1.935 . S
C438 C127 0.723 . S
C432 C48 0.755 . S
C458 C160 1.288 . S
C452 C60 1.353 . S
C472 C74 1.562 . S
C478 C125 1.560 . S
C492 C86 1.525 . S
C498 C163 1.440 . S
C518 C132 1.220 . S
C512 C95 1.260 . S
C538 C194 1.867 . S
C532 C8 1.983 . S
C552 C56 1.261 . S
C558 C197 1.237 . S
C578 C196 1.618 . S
C572 C73 1.656 . S
C592 C87 2.272 . S
C598 C195 2.245 . S
C618 C198 1.907 . S
C612 C100 2.000 . S
C632 C35 2.094 . S
C638 C192 2.037 . S
C658 C191 1.319 . S
C652 C43 1.312 . S
C672 C17 1.941 . S
C678 C193 1.865 . S
