# Generated by pormake.
# Topology pth, (4,4)-cn, num edge types: 1
# Building blocks:
#     Node 0, Type 0, BuildingBlock: CEKHIL_clean_sbu_0, # of connection points: 4
#     Node 1, Type 0, BuildingBlock: CEKHIL_clean_sbu_0, # of connection points: 4
#     Node 2, Type 0, BuildingBlock: CEKHIL_clean_sbu_0, # of connection points: 4
#     Node 3, Type 1, BuildingBlock: AZAVOO_clean_linker_0, # of connection points: 4
#     Node 4, Type 1, BuildingBlock: AZAVOO_clean_linker_0, # of connection points: 4
#     Node 5, Type 1, BuildingBlock: AZAVOO_clean_linker_0, # of connection points: 4
#     Edge 6, Type (0, 1), BuildingBlock: EZIPEK_clean_linker_0, # of connection points: 2
#     Edge 7, Type (0, 1), BuildingBlock: EZIPEK_clean_linker_0, # of connection points: 2
#     Edge 8, Type (0, 1), BuildingBlock: EZIPEK_clean_linker_0, # of connection points: 2
#     Edge 9, Type (0, 1), BuildingBlock: EZIPEK_clean_linker_0, # of connection points: 2
#     Edge 10, Type (0, 1), BuildingBlock: EZIPEK_clean_linker_0, # of connection points: 2
#     Edge 11, Type (0, 1), BuildingBlock: EZIPEK_clean_linker_0, # of connection points: 2
#     Edge 12, Type (0, 1), BuildingBlock: EZIPEK_clean_linker_0, # of connection points: 2
#     Edge 13, Type (0, 1), BuildingBlock: EZIPEK_clean_linker_0, # of connection points: 2
#     Edge 14, Type (0, 1), BuildingBlock: EZIPEK_clean_linker_0, # of connection points: 2
#     Edge 15, Type (0, 1), BuildingBlock: EZIPEK_clean_linker_0, # of connection points: 2
#     Edge 16, Type (0, 1), BuildingBlock: EZIPEK_clean_linker_0, # of connection points: 2
#     Edge 17, Type (0, 1), BuildingBlock: EZIPEK_clean_linker_0, # of connection points: 2
# Relax obj value: 0.122
# Max RMSD: 0.225
# Mean RMSD: 0.145
data_MOF--net-pth--node1-CEKHIL_clean_sbu_0--node2-AZAVOO_clean_linker_0--edge1-EZIPEK_clean_linker_0
_symmetry_space_group_name_H-M    P1
_symmetry_Int_Tables_number       1
_symmetry_cell_setting            triclinic
loop_
_symmetry_equiv_pos_as_xyz
'x, y, z'
_cell_length_a     19.996869
_cell_length_b     20.337749
_cell_length_c     55.319448
_cell_angle_alpha  94.09139
_cell_angle_beta   88.393514
_cell_angle_gamma 120.30023
loop_
_atom_site_label
_atom_site_type_symbol
_atom_site_fract_x
_atom_site_fract_y
_atom_site_fract_z
_atom_type_partial_charge
Co0 Co 0.14775 0.08158 0.09996 0.0
O1 O 0.09235 0.98689 0.1151 0.0
O2 O 0.19906 0.02338 0.09338 0.0
C3 C 0.14733 0.15227 0.13306 0.0
O4 O 0.22229 0.17535 0.08237 0.0
Co5 Co 0.0734 0.1802 0.09307 0.0
O6 O 0.17325 0.25222 0.07842 0.0
C7 C 0.03502 0.04804 0.05876 0.0
C8 C 0.14665 0.97414 0.10721 0.0
C9 C 0.22619 0.23548 0.07482 0.0
O10 O 0.08326 0.03564 0.06959 0.0
O11 O 0.01839 0.09906 0.06627 0.0
O12 O 0.19917 0.13201 0.13061 0.0
O13 O 0.09429 0.12567 0.11636 0.0
Co14 Co 0.09323 0.09707 0.40923 0.0
O15 O 0.03635 0.11536 0.38553 0.0
O16 O 0.14382 0.20503 0.40417 0.0
C17 C 0.09153 0.99719 0.38782 0.0
O18 O 0.1687 0.10147 0.43404 0.0
Co19 Co 0.02142 0.94261 0.43394 0.0
O20 O 0.12701 0.98503 0.44739 0.0
C21 C 0.98829 0.06335 0.45292 0.0
C22 C 0.08947 0.18685 0.3883 0.0
C23 C 0.17716 0.05566 0.44676 0.0
O24 O 0.03052 0.10863 0.43668 0.0
O25 O 0.97413 0.99479 0.45381 0.0
O26 O 0.14281 0.06666 0.38329 0.0
O27 O 0.03992 0.98992 0.40359 0.0
Co28 Co 0.11469 0.11391 0.75162 0.0
O29 O 0.19721 0.16747 0.72931 0.0
O30 O 0.17896 0.06775 0.74851 0.0
C31 C 0.02025 0.10771 0.72802 0.0
O32 O 0.03543 0.04225 0.77536 0.0
Co33 Co 0.0223 0.18676 0.77499 0.0
O34 O 0.95837 0.08729 0.78946 0.0
C35 C 0.18514 0.2467 0.78881 0.0
C36 C 0.2196 0.11939 0.73337 0.0
C37 C 0.97809 0.0366 0.78815 0.0
O38 O 0.18229 0.18648 0.77871 0.0
O39 O 0.12988 0.26097 0.78771 0.0
O40 O 0.0433 0.05837 0.72446 0.0
O41 O 0.05788 0.16083 0.74477 0.0
H42 H 0.01314 0.37919 0.09501 0.0
H43 H 0.18038 0.05296 0.25875 0.0
H44 H 0.96761 0.36887 0.2224 0.0
H45 H 0.99148 0.2757 0.19948 0.0
H46 H 0.21362 0.37161 0.23507 0.0
H47 H 0.1934 0.47084 0.25592 0.0
H48 H 0.96282 0.47639 0.19262 0.0
H49 H 0.96082 0.42824 0.15063 0.0
H50 H 0.20223 0.49541 0.15731 0.0
H51 H 0.20264 0.54091 0.19957 0.0
H52 H 0.98646 0.64669 0.20914 0.0
H53 H 0.00714 0.72813 0.17565 0.0
H54 H 0.23576 0.75954 0.16495 0.0
H55 H 0.21662 0.68155 0.19919 0.0
H56 H 0.97489 0.67381 0.2622 0.0
H57 H 0.98076 0.79733 0.26529 0.0
H58 H 0.22613 0.90986 0.25044 0.0
H59 H 0.21894 0.78575 0.24677 0.0
H60 H 0.97318 0.56529 0.30514 0.0
H61 H 0.96911 0.65008 0.33851 0.0
H62 H 0.20693 0.81734 0.32474 0.0
H63 H 0.21252 0.73074 0.29283 0.0
H64 H 0.96498 0.39543 0.28124 0.0
H65 H 0.96768 0.31634 0.31234 0.0
H66 H 0.19755 0.49478 0.33392 0.0
H67 H 0.19537 0.57376 0.30258 0.0
O68 O 0.01505 0.3984 0.11165 0.0
O69 O 0.13827 0.43091 0.11643 0.0
O70 O 0.05048 0.9428 0.26559 0.0
O71 O 0.17631 0.00336 0.25732 0.0
C72 C 0.08008 0.50136 0.24462 0.0
C73 C 0.08392 0.54218 0.22439 0.0
C74 C 0.0905 0.61425 0.22787 0.0
C75 C 0.09184 0.64567 0.25145 0.0
C76 C 0.08879 0.60578 0.27185 0.0
C77 C 0.08254 0.53312 0.2685 0.0
C78 C 0.08002 0.42847 0.24002 0.0
C79 C 0.02071 0.36881 0.22573 0.0
C80 C 0.03441 0.31576 0.21262 0.0
C81 C 0.10591 0.31921 0.21477 0.0
C82 C 0.15917 0.36983 0.23261 0.0
C83 C 0.14722 0.42578 0.24473 0.0
C84 C 0.08249 0.51076 0.19919 0.0
C85 C 0.0149 0.47968 0.18504 0.0
C86 C 0.01403 0.45249 0.16106 0.0
C87 C 0.08118 0.45706 0.15072 0.0
C88 C 0.14919 0.48967 0.16489 0.0
C89 C 0.14963 0.5157 0.18898 0.0
C90 C 0.10026 0.65881 0.20663 0.0
C91 C 0.04086 0.67106 0.19953 0.0
C92 C 0.05235 0.7167 0.18037 0.0
C93 C 0.12288 0.74945 0.16792 0.0
C94 C 0.18092 0.73432 0.17433 0.0
C95 C 0.17005 0.69013 0.1938 0.0
C96 C 0.09661 0.7211 0.25454 0.0
C97 C 0.02987 0.72529 0.25975 0.0
C98 C 0.03341 0.79586 0.26144 0.0
C99 C 0.10411 0.86358 0.25836 0.0
C100 C 0.17088 0.85895 0.25309 0.0
C101 C 0.16703 0.78823 0.25105 0.0
C102 C 0.09282 0.64247 0.29636 0.0
C103 C 0.02542 0.61857 0.31015 0.0
C104 C 0.02289 0.66719 0.32896 0.0
C105 C 0.08692 0.74098 0.33346 0.0
C106 C 0.1565 0.76125 0.32128 0.0
C107 C 0.1598 0.71174 0.30317 0.0
C108 C 0.07997 0.49045 0.2896 0.0
C109 C 0.01543 0.4181 0.29294 0.0
C110 C 0.01688 0.3731 0.31065 0.0
C111 C 0.08275 0.39991 0.32538 0.0
C112 C 0.14608 0.47348 0.32279 0.0
C113 C 0.1447 0.51848 0.30501 0.0
C114 C 0.08022 0.42815 0.12525 0.0
C115 C 0.10835 0.93876 0.26065 0.0
H116 H 0.63802 0.06498 0.42907 0.0
H117 H 0.19992 0.18738 0.60008 0.0
H118 H 0.70198 0.01092 0.57555 0.0
H119 H 0.79179 0.00038 0.54643 0.0
H120 H 0.90235 0.24165 0.53696 0.0
H121 H 0.81702 0.25305 0.56746 0.0
H122 H 0.56951 0.01349 0.53173 0.0
H123 H 0.58128 0.01264 0.48758 0.0
H124 H 0.74434 0.25539 0.49349 0.0
H125 H 0.72808 0.25617 0.53749 0.0
H126 H 0.43592 0.01098 0.55253 0.0
H127 H 0.34906 0.00586 0.52105 0.0
H128 H 0.49134 0.24919 0.51586 0.0
H129 H 0.57877 0.25421 0.54743 0.0
H130 H 0.40221 0.00911 0.60373 0.0
H131 H 0.27775 0.0047 0.60573 0.0
H132 H 0.39576 0.24843 0.59886 0.0
H133 H 0.52014 0.25236 0.5978 0.0
H134 H 0.48519 0.0047 0.63648 0.0
H135 H 0.40717 0.00683 0.67107 0.0
H136 H 0.55627 0.25045 0.68203 0.0
H137 H 0.63348 0.24857 0.64686 0.0
H138 H 0.61884 0.02097 0.63998 0.0
H139 H 0.69953 0.01643 0.67148 0.0
H140 H 0.89816 0.21526 0.64483 0.0
H141 H 0.81513 0.22676 0.6159 0.0
O142 O 0.63329 0.06686 0.44654 0.0
O143 O 0.71571 0.19195 0.4505 0.0
O144 O 0.19081 0.06301 0.60434 0.0
O145 O 0.24856 0.18787 0.60015 0.0
C146 C 0.682 0.13409 0.58199 0.0
C147 C 0.63345 0.13602 0.56423 0.0
C148 C 0.56507 0.13504 0.57109 0.0
C149 C 0.54361 0.13182 0.59552 0.0
C150 C 0.59061 0.12858 0.61355 0.0
C151 C 0.66045 0.12939 0.60688 0.0
C152 C 0.75214 0.13254 0.57327 0.0
C153 C 0.74853 0.06219 0.56831 0.0
C154 C 0.79923 0.05611 0.55153 0.0
C155 C 0.85168 0.11981 0.53894 0.0
C156 C 0.8614 0.19164 0.54616 0.0
C157 C 0.81293 0.19815 0.56362 0.0
C158 C 0.6502 0.13439 0.53788 0.0
C159 C 0.60848 0.06622 0.52345 0.0
C160 C 0.61474 0.06606 0.49823 0.0
C161 C 0.66455 0.13379 0.48702 0.0
C162 C 0.70629 0.20204 0.50156 0.0
C163 C 0.69814 0.20247 0.52673 0.0
C164 C 0.51296 0.13296 0.55221 0.0
C165 C 0.44827 0.06309 0.54459 0.0
C166 C 0.39932 0.06015 0.52664 0.0
C167 C 0.41462 0.12707 0.51617 0.0
C168 C 0.47947 0.19711 0.52371 0.0
C169 C 0.52875 0.19998 0.54165 0.0
C170 C 0.47044 0.13142 0.60148 0.0
C171 C 0.40133 0.06189 0.60363 0.0
C172 C 0.33017 0.05935 0.60429 0.0
C173 C 0.32676 0.1262 0.60234 0.0
C174 C 0.39627 0.19591 0.60039 0.0
C175 C 0.46747 0.1985 0.60011 0.0
C176 C 0.56503 0.12649 0.6391 0.0
C177 C 0.50347 0.05809 0.64702 0.0
C178 C 0.45885 0.05928 0.66673 0.0
C179 C 0.47576 0.1288 0.67896 0.0
C180 C 0.5428 0.19621 0.6729 0.0
C181 C 0.58693 0.19511 0.65289 0.0
C182 C 0.7102 0.12486 0.6256 0.0
C183 C 0.67906 0.06531 0.64142 0.0
C184 C 0.72553 0.0618 0.65915 0.0
C185 C 0.80531 0.11505 0.66049 0.0
C186 C 0.83686 0.17338 0.64424 0.0
C187 C 0.78952 0.17941 0.62747 0.0
C188 C 0.67286 0.13296 0.46027 0.0
C189 C 0.25118 0.12347 0.60235 0.0
H190 H 0.72865 0.75318 0.08629 0.0
H191 H 0.21953 0.13526 0.91177 0.0
H192 H 0.69563 0.80622 0.95194 0.0
H193 H 0.79571 0.90494 0.97911 0.0
H194 H 0.9498 0.82083 0.95821 0.0
H195 H 0.84662 0.71747 0.93251 0.0
H196 H 0.62479 0.72014 0.9861 0.0
H197 H 0.65866 0.74753 0.02922 0.0
H198 H 0.77002 0.61201 0.02198 0.0
H199 H 0.73878 0.58804 0.9786 0.0
H200 H 0.47857 0.57586 0.97497 0.0
H201 H 0.39866 0.49732 0.0076 0.0
H202 H 0.51515 0.36707 0.00074 0.0
H203 H 0.59413 0.44494 0.96769 0.0
H204 H 0.41478 0.51526 0.92851 0.0
H205 H 0.29144 0.39449 0.92684 0.0
H206 H 0.4143 0.27223 0.91125 0.0
H207 H 0.53738 0.39325 0.91405 0.0
H208 H 0.52239 0.63106 0.87981 0.0
H209 H 0.42922 0.55718 0.84678 0.0
H210 H 0.50347 0.39126 0.84423 0.0
H211 H 0.59938 0.46721 0.87626 0.0
H212 H 0.67732 0.78715 0.90079 0.0
H213 H 0.75334 0.87337 0.86916 0.0
H214 H 0.82974 0.71741 0.84311 0.0
H215 H 0.7534 0.63085 0.87479 0.0
O216 O 0.7166 0.74237 0.06913 0.0
O217 O 0.76962 0.66893 0.06469 0.0
O218 O 0.20718 0.24943 0.92063 0.0
O219 O 0.26752 0.18376 0.91269 0.0
C220 C 0.69447 0.67831 0.93443 0.0
C221 C 0.65428 0.63122 0.95355 0.0
C222 C 0.58666 0.56084 0.94867 0.0
C223 C 0.55939 0.53559 0.92477 0.0
C224 C 0.60036 0.58108 0.90535 0.0
C225 C 0.66789 0.65326 0.91017 0.0
C226 C 0.76334 0.75376 0.94076 0.0
C227 C 0.75189 0.81066 0.95251 0.0
C228 C 0.80875 0.86662 0.96811 0.0
C229 C 0.87884 0.86811 0.97131 0.0
C230 C 0.89525 0.81928 0.95633 0.0
C231 C 0.83684 0.76095 0.94149 0.0
C232 C 0.68174 0.65438 0.97909 0.0
C233 C 0.65853 0.69838 0.99372 0.0
C234 C 0.67705 0.71305 0.01842 0.0
C235 C 0.71727 0.68216 0.02905 0.0
C236 C 0.73923 0.63691 0.01436 0.0
C237 C 0.72215 0.62372 0.98955 0.0
C238 C 0.54133 0.51533 0.969 0.0
C239 C 0.48698 0.53058 0.98062 0.0
C240 C 0.44194 0.48629 0.9992 0.0
C241 C 0.45144 0.42684 0.00647 0.0
C242 C 0.50749 0.41301 0.99532 0.0
C243 C 0.55201 0.45689 0.97652 0.0
C244 C 0.48471 0.46301 0.92075 0.0
C245 C 0.41476 0.46234 0.92448 0.0
C246 C 0.34451 0.39326 0.92371 0.0
C247 C 0.34295 0.32369 0.91869 0.0
C248 C 0.41334 0.32476 0.91491 0.0
C249 C 0.48367 0.39381 0.91622 0.0
C250 C 0.56698 0.55398 0.88058 0.0
C251 C 0.52151 0.58105 0.87123 0.0
C252 C 0.46809 0.53869 0.85255 0.0
C253 C 0.45861 0.46812 0.84351 0.0
C254 C 0.50967 0.44528 0.85113 0.0
C255 C 0.56442 0.48867 0.86932 0.0
C256 C 0.71008 0.70289 0.89014 0.0
C257 C 0.71007 0.77132 0.88819 0.0
C258 C 0.75316 0.82028 0.87017 0.0
C259 C 0.79701 0.8016 0.85388 0.0
C260 C 0.79607 0.73256 0.85553 0.0
C261 C 0.75262 0.68336 0.87352 0.0
C262 C 0.7361 0.69713 0.05534 0.0
C263 C 0.26835 0.25026 0.91743 0.0
C264 C 0.19956 0.27073 0.16057 0.0
C265 C 0.14264 0.19327 0.15557 0.0
C266 C 0.0783 0.19468 0.19381 0.0
C267 C 0.12643 0.27513 0.19645 0.0
N268 N 0.22969 0.39165 0.18073 0.0
N269 N 0.02754 0.07943 0.16727 0.0
C270 C 0.18706 0.31373 0.17963 0.0
C271 C 0.08189 0.15451 0.17218 0.0
N272 N 0.26548 0.30349 0.14706 0.0
N273 N 0.03075 0.15677 0.21235 0.0
H274 H 0.03114 0.04642 0.15254 0.0
H275 H 0.97675 0.05076 0.1771 0.0
H276 H 0.02873 0.18482 0.22867 0.0
H277 H -0.00073 0.09756 0.2126 0.0
H278 H 0.31304 0.35708 0.15166 0.0
H279 H 0.27573 0.27459 0.13244 0.0
H280 H 0.26778 0.42235 0.1672 0.0
H281 H 0.22299 0.42666 0.19398 0.0
C282 C 0.00425 0.13545 0.49288 0.0
C283 C 0.95627 0.09145 0.47276 0.0
C284 C 0.84099 0.07199 0.49508 0.0
C285 C 0.88818 0.11026 0.51608 0.0
N286 N 0.01299 0.172 0.53594 0.0
N287 N 0.83347 0.03125 0.45223 0.0
C288 C 0.9696 0.14126 0.51515 0.0
C289 C 0.87572 0.06349 0.47318 0.0
N290 N 0.08299 0.17251 0.4905 0.0
N291 N 0.76269 0.04222 0.49634 0.0
H292 H 0.85853 0.02633 0.4359 0.0
H293 H 0.7753 0.01416 0.45024 0.0
H294 H 0.73568 0.05104 0.5115 0.0
H295 H 0.72337 0.00666 0.48286 0.0
H296 H 0.12168 0.21145 0.5036 0.0
H297 H 0.11004 0.16917 0.47445 0.0
H298 H 0.07113 0.18796 0.53722 0.0
H299 H 0.9894 0.17618 0.55263 0.0
C300 C 0.96998 0.96719 0.82487 0.0
C301 C 0.93498 0.9704 0.80331 0.0
C302 C 0.8139 0.85466 0.81303 0.0
C303 C 0.84628 0.85636 0.83572 0.0
N304 N 0.95253 0.91551 0.86433 0.0
N305 N 0.82345 0.92059 0.77702 0.0
C306 C 0.92395 0.91256 0.84184 0.0
C307 C 0.8569 0.91477 0.79737 0.0
N308 N 0.04718 0.01679 0.82919 0.0
N309 N 0.74239 0.79482 0.80637 0.0
H310 H 0.85422 0.96148 0.76455 0.0
H311 H 0.76455 0.88773 0.773 0.0
H312 H 0.70899 0.75069 0.8176 0.0
H313 H 0.71829 0.78555 0.78916 0.0
H314 H 0.07838 0.01224 0.84307 0.0
H315 H 0.082 0.0602 0.81793 0.0
H316 H 0.00501 0.96017 0.87121 0.0
H317 H 0.92152 0.87513 0.87693 0.0
C318 C 0.10077 0.83678 0.11239 0.0
C319 C 0.15549 0.91474 0.11796 0.0
C320 C 0.19202 0.88383 0.15543 0.0
C321 C 0.13844 0.80542 0.14974 0.0
N322 N 0.05479 0.70497 0.12056 0.0
N323 N 0.26787 0.0101 0.14086 0.0
C324 C 0.09696 0.78107 0.12741 0.0
C325 C 0.20655 0.93724 0.13805 0.0
N326 N 0.05113 0.81659 0.0932 0.0
N327 N 0.22477 0.90823 0.17808 0.0
H328 H 0.28011 0.05133 0.12864 0.0
H329 H 0.31112 0.02739 0.15392 0.0
H330 H 0.21393 0.87164 0.19181 0.0
H331 H 0.25696 0.9656 0.18407 0.0
H332 H 0.00378 0.76198 0.08981 0.0
H333 H 0.05575 0.85596 0.08117 0.0
H334 H 0.02863 0.68382 0.10357 0.0
H335 H 0.05145 0.66302 0.13117 0.0
C336 C 0.31875 0.11338 0.4562 0.0
C337 C 0.24207 0.08756 0.4643 0.0
C338 C 0.28653 0.11115 0.50649 0.0
C339 C 0.35923 0.12312 0.49826 0.0
N340 N 0.44518 0.13203 0.46556 0.0
N341 N 0.15132 0.06122 0.49714 0.0
C342 C 0.37604 0.12424 0.47317 0.0
C343 C 0.22558 0.08682 0.48948 0.0
N344 N 0.33686 0.12782 0.43244 0.0
N345 N 0.2764 0.1241 0.53057 0.0
H346 H 0.10546 0.04707 0.4854 0.0
H347 H 0.1341 0.05025 0.51504 0.0
H348 H 0.32033 0.14228 0.5435 0.0
H349 H 0.22727 0.12379 0.53746 0.0
H350 H 0.39325 0.15306 0.42593 0.0
H351 H 0.29657 0.12178 0.41965 0.0
H352 H 0.45719 0.12428 0.44749 0.0
H353 H 0.48897 0.14113 0.47749 0.0
C354 C 0.32534 0.34897 0.79017 0.0
C355 C 0.25575 0.30234 0.80263 0.0
C356 C 0.31728 0.36933 0.84127 0.0
C357 C 0.38849 0.4128 0.82909 0.0
N358 N 0.46385 0.43869 0.79261 0.0
N359 N 0.18851 0.25769 0.84006 0.0
C360 C 0.39362 0.40087 0.8037 0.0
C361 C 0.25249 0.30973 0.8282 0.0
N362 N 0.32526 0.34566 0.76538 0.0
N363 N 0.31116 0.38575 0.86533 0.0
H364 H 0.13984 0.21318 0.83105 0.0
H365 H 0.18605 0.25431 0.85878 0.0
H366 H 0.35778 0.42692 0.87583 0.0
H367 H 0.25876 0.36271 0.87451 0.0
H368 H 0.37157 0.38352 0.75517 0.0
H369 H 0.27644 0.30833 0.75489 0.0
H370 H 0.47346 0.42621 0.77472 0.0
H371 H 0.51416 0.47985 0.80178 0.0
C372 C 0.96669 0.17864 0.70686 0.0
C373 C 0.96182 0.10855 0.71187 0.0
C374 C 0.85858 0.04295 0.68115 0.0
C375 C 0.85611 0.11093 0.67901 0.0
N376 N 0.8929 0.23702 0.6966 0.0
N377 N 0.88429 0.97037 0.70829 0.0
C378 C 0.90517 0.17666 0.6941 0.0
C379 C 0.90202 0.03943 0.70042 0.0
N380 N 0.03181 0.24734 0.71237 0.0
N381 N 0.82296 0.98292 0.66429 0.0
H382 H 0.91 0.96477 0.72353 0.0
H383 H 0.83706 0.91921 0.70152 0.0
H384 H 0.79488 0.98465 0.64897 0.0
H385 H 0.82921 0.935 0.66417 0.0
H386 H 0.03832 0.2987 0.70732 0.0
H387 H 0.08324 0.25287 0.71848 0.0
H388 H 0.92418 0.2836 0.70894 0.0
H389 H 0.84593 0.23628 0.68856 0.0
C390 C 0.95489 0.92171 0.03595 0.0
C391 C 0.99868 0.0023 0.03591 0.0
C392 C 0.97061 0.9951 0.99252 0.0
C393 C 0.92917 0.91433 0.99242 0.0
N394 N 0.89663 0.80048 0.01272 0.0
N395 N 0.06153 0.11573 0.01345 0.0
C396 C 0.92638 0.8776 0.01368 0.0
C397 C 0.01032 0.03914 0.01399 0.0
N398 N 0.93648 0.88732 0.05745 0.0
N399 N 0.97108 0.02965 0.97215 0.0
H400 H 0.09149 0.15029 0.02873 0.0
H401 H 0.07935 0.14422 0.99755 0.0
H402 H 0.94754 0.99925 0.95563 0.0
H403 H 0.99138 0.08786 0.97186 0.0
H404 H 0.89765 0.8294 0.05886 0.0
H405 H 0.95422 0.91755 0.07428 0.0
H406 H 0.90261 0.77239 0.02679 0.0
H407 H 0.8717 0.76484 0.99722 0.0
C408 C 0.03174 0.88939 0.35599 0.0
C409 C 0.08835 0.92986 0.37447 0.0
C410 C 0.13015 0.83523 0.36957 0.0
C411 C 0.0806 0.80039 0.34908 0.0
N412 N 0.99205 0.80176 0.32044 0.0
N413 N 0.19968 0.94856 0.39643 0.0
C414 C 0.03285 0.82894 0.34175 0.0
C415 C 0.13996 0.90485 0.38059 0.0
N416 N 0.97708 0.90895 0.35186 0.0
N417 N 0.16649 0.80073 0.3788 0.0
H418 H 0.20889 0.00016 0.40453 0.0
H419 H 0.24386 0.93735 0.39977 0.0
H420 H 0.1591 0.74878 0.37141 0.0
H421 H 0.19752 0.81943 0.39508 0.0
H422 H 0.92868 0.87562 0.34076 0.0
H423 H 0.97692 0.95577 0.36081 0.0
H424 H 0.9646 0.82718 0.31267 0.0
H425 H 0.99047 0.75751 0.30935 0.0
C426 C 0.28945 0.12656 0.69465 0.0
C427 C 0.28617 0.12152 0.72011 0.0
C428 C 0.40824 0.11955 0.71903 0.0
C429 C 0.41456 0.13214 0.69399 0.0
N430 N 0.37063 0.16699 0.65954 0.0
N431 N 0.35016 0.12808 0.75737 0.0
C432 C 0.35821 0.14186 0.68234 0.0
C433 C 0.3476 0.12183 0.73261 0.0
N434 N 0.22537 0.11221 0.68186 0.0
N435 N 0.45968 0.10495 0.72974 0.0
H436 H 0.30841 0.1325 0.76792 0.0
H437 H 0.39727 0.13604 0.7674 0.0
H438 H 0.5063 0.10595 0.72045 0.0
H439 H 0.45319 0.08713 0.74728 0.0
H440 H 0.22287 0.10766 0.66298 0.0
H441 H 0.17188 0.096 0.68986 0.0
H442 H 0.33608 0.18472 0.65169 0.0
H443 H 0.41965 0.17778 0.64958 0.0
C444 C 0.34495 0.35918 0.06559 0.0
C445 C 0.2899 0.28226 0.05843 0.0
C446 C 0.34019 0.30083 0.01706 0.0
C447 C 0.39862 0.37587 0.02467 0.0
N448 N 0.4666 0.47227 0.05683 0.0
N449 N 0.24419 0.17523 0.02851 0.0
C450 C 0.40406 0.40382 0.04918 0.0
C451 C 0.29085 0.25145 0.0346 0.0
N452 N 0.33983 0.39 0.08785 0.0
N453 N 0.32863 0.27811 0.9929 0.0
H454 H 0.2038 0.13689 0.04015 0.0
H455 H 0.24952 0.14867 0.01236 0.0
H456 H 0.36258 0.31277 0.97931 0.0
H457 H 0.28092 0.22752 0.9861 0.0
H458 H 0.3727 0.44795 0.09305 0.0
H459 H 0.29877 0.3584 0.10061 0.0
H460 H 0.47787 0.49233 0.07496 0.0
H461 H 0.51111 0.50614 0.04526 0.0
C462 C 0.07674 0.30193 0.38261 0.0
C463 C 0.09093 0.24387 0.37258 0.0
C464 C 0.10839 0.29411 0.33232 0.0
C465 C 0.08779 0.34798 0.34195 0.0
N466 N 0.04569 0.40021 0.37539 0.0
N467 N 0.11486 0.18021 0.33776 0.0
C468 C 0.07057 0.35141 0.36692 0.0
C469 C 0.1051 0.23866 0.34738 0.0
N470 N 0.06913 0.30965 0.40714 0.0
N471 N 0.13355 0.29765 0.30892 0.0
H472 H 0.11886 0.14176 0.34826 0.0
H473 H 0.11493 0.16698 0.31924 0.0
H474 H 0.13581 0.33672 0.29721 0.0
H475 H 0.15787 0.26609 0.30152 0.0
H476 H 0.06729 0.3556 0.41598 0.0
H477 H 0.06914 0.27208 0.41902 0.0
H478 H 0.024 0.40017 0.3927 0.0
H479 H 0.04205 0.43813 0.36449 0.0
loop_
_geom_bond_atom_site_label_1
_geom_bond_atom_site_label_2
_geom_bond_distance
_geom_bond_site_symmetry_2
_ccdc_geom_bond_type
Co0 O1 2.216 . S
Co0 O2 2.091 . S
Co0 O4 2.004 . S
Co0 O10 2.021 . S
Co0 O12 2.137 . S
Co0 O13 2.244 . S
O1 Co0 2.216 . S
O1 C8 1.247 1_545 S
O2 Co0 2.091 . S
O2 C8 1.261 1_545 S
C3 O12 1.247 . S
C3 O13 1.272 . S
O4 Co0 2.004 . S
O4 C9 1.259 . S
Co5 O6 2.061 . S
Co5 O11 2.053 1_455 S
Co5 O13 2.135 . S
O6 Co5 2.061 . S
O6 C9 1.235 . S
C7 O10 1.238 . S
C7 O11 1.233 1_455 S
C8 O1 1.247 1_565 S
C8 O2 1.261 1_565 S
C9 O4 1.259 . S
C9 O6 1.235 . S
O10 Co0 2.021 . S
O10 C7 1.238 . S
O11 Co5 2.053 1_655 S
O11 C7 1.233 1_655 S
O12 Co0 2.137 . S
O12 C3 1.247 . S
O13 Co0 2.244 . S
O13 C3 1.272 . S
O13 Co5 2.135 . S
Co14 O15 2.216 . S
Co14 O16 2.091 . S
Co14 O18 2.004 . S
Co14 O24 2.021 . S
Co14 O26 2.137 . S
Co14 O27 2.244 1_545 S
O15 Co14 2.216 . S
O15 C22 1.247 . S
O16 Co14 2.091 . S
O16 C22 1.261 . S
C17 O26 1.247 1_565 S
C17 O27 1.272 . S
O18 Co14 2.004 . S
O18 C23 1.259 . S
Co19 O20 2.061 1_565 S
Co19 O25 2.052 1_455 S
Co19 O27 2.135 . S
O20 Co19 2.061 1_545 S
O20 C23 1.235 . S
C21 O24 1.238 . S
C21 O25 1.241 1_445 S
C22 O15 1.247 . S
C22 O16 1.261 . S
C23 O18 1.259 . S
C23 O20 1.235 . S
O24 Co14 2.021 . S
O24 C21 1.238 . S
O25 Co19 2.052 1_655 S
O25 C21 1.241 1_665 S
O26 Co14 2.137 . S
O26 C17 1.247 1_545 S
O27 Co14 2.244 1_565 S
O27 C17 1.272 . S
O27 Co19 2.135 . S
Co28 O29 2.216 . S
Co28 O30 2.091 . S
Co28 O32 2.004 . S
Co28 O38 2.021 . S
Co28 O40 2.137 . S
Co28 O41 2.244 . S
O29 Co28 2.216 . S
O29 C36 1.247 . S
O30 Co28 2.091 . S
O30 C36 1.261 . S
C31 O40 1.247 . S
C31 O41 1.272 . S
O32 Co28 2.004 . S
O32 C37 1.259 . S
Co33 O34 2.061 . S
Co33 O39 2.052 . S
Co33 O41 2.135 . S
O34 Co33 2.061 . S
O34 C37 1.235 . S
C35 O38 1.238 . S
C35 O39 1.241 . S
C36 O29 1.247 . S
C36 O30 1.261 . S
C37 O32 1.259 . S
C37 O34 1.235 . S
O38 Co28 2.021 . S
O38 C35 1.238 . S
O39 Co33 2.052 . S
O39 C35 1.241 . S
O40 Co28 2.137 . S
O40 C31 1.247 . S
O41 Co28 2.244 . S
O41 C31 1.272 . S
O41 Co33 2.135 . S
H42 O68 0.856 . S
H43 O71 0.854 . S
H44 C79 0.930 1_655 S
H45 C80 0.930 . S
H46 C82 0.930 . S
H47 C83 0.930 . S
H48 C85 0.931 1_655 S
H49 C86 0.930 . S
H50 C88 0.930 . S
H51 C89 0.929 . S
H52 C91 0.930 1_655 S
H53 C92 0.931 . S
H54 C94 0.930 . S
H55 C95 0.929 . S
H56 C97 0.931 1_655 S
H57 C98 0.930 1_655 S
H58 C100 0.930 . S
H59 C101 0.932 . S
H60 C103 0.929 1_655 S
H61 C104 0.929 . S
H62 C106 0.931 . S
H63 C107 0.930 . S
H64 C109 0.929 1_655 S
H65 C110 0.931 1_655 S
H66 C112 0.930 . S
H67 C113 0.929 . S
O68 H42 0.856 . S
O68 C114 1.300 . S
O69 C114 1.209 . S
O70 C115 1.199 . S
O71 H43 0.854 . S
O71 C115 1.297 1_545 S
C72 C73 1.404 . S
C72 C77 1.397 . S
C72 C78 1.492 . S
C73 C72 1.404 . S
C73 C74 1.396 . S
C73 C84 1.492 . S
C74 C73 1.396 . S
C74 C75 1.397 . S
C74 C90 1.509 . S
C75 C74 1.397 . S
C75 C76 1.412 . S
C75 C96 1.485 . S
C76 C75 1.412 . S
C76 C77 1.388 . S
C76 C102 1.490 . S
C77 C72 1.397 . S
C77 C76 1.388 . S
C77 C108 1.519 . S
C78 C72 1.492 . S
C78 C79 1.363 . S
C78 C83 1.390 . S
C79 H44 0.930 1_455 S
C79 C78 1.363 . S
C79 C80 1.372 1_455 S
C80 H45 0.930 . S
C80 C79 1.372 1_655 S
C80 C81 1.383 1_655 S
C81 C80 1.383 1_455 S
C81 C82 1.395 . S
C82 H46 0.930 . S
C82 C81 1.395 . S
C82 C83 1.362 . S
C83 H47 0.930 . S
C83 C78 1.390 . S
C83 C82 1.362 . S
C84 C73 1.492 . S
C84 C85 1.377 . S
C84 C89 1.397 . S
C85 H48 0.931 1_455 S
C85 C84 1.377 . S
C85 C86 1.376 . S
C86 H49 0.930 . S
C86 C85 1.376 . S
C86 C87 1.376 . S
C87 C86 1.376 . S
C87 C88 1.378 . S
C87 C114 1.486 . S
C88 H50 0.930 . S
C88 C87 1.378 . S
C88 C89 1.376 . S
C89 H51 0.929 . S
C89 C84 1.397 . S
C89 C88 1.376 . S
C90 C74 1.509 . S
C90 C91 1.391 . S
C90 C95 1.386 . S
C91 H52 0.930 1_455 S
C91 C90 1.391 . S
C91 C92 1.375 . S
C92 H53 0.931 . S
C92 C91 1.375 . S
C92 C93 1.375 . S
C93 C92 1.375 . S
C93 C94 1.361 . S
C94 H54 0.930 . S
C94 C93 1.361 . S
C94 C95 1.399 . S
C95 H55 0.929 . S
C95 C90 1.386 . S
C95 C94 1.399 . S
C96 C75 1.485 . S
C96 C97 1.394 . S
C96 C101 1.360 . S
C97 H56 0.931 1_455 S
C97 C96 1.394 . S
C97 C98 1.372 . S
C98 H57 0.930 1_455 S
C98 C97 1.372 . S
C98 C99 1.397 . S
C99 C98 1.397 . S
C99 C100 1.390 . S
C99 C115 1.476 . S
C100 H58 0.930 . S
C100 C99 1.390 . S
C100 C101 1.366 . S
C101 H59 0.932 . S
C101 C96 1.360 . S
C101 C100 1.366 . S
C102 C76 1.490 . S
C102 C103 1.382 . S
C102 C107 1.386 . S
C103 H60 0.929 1_455 S
C103 C102 1.382 . S
C103 C104 1.380 1_455 S
C104 H61 0.929 . S
C104 C103 1.380 1_655 S
C104 C105 1.371 1_655 S
C105 C104 1.371 1_455 S
C105 C106 1.380 . S
C106 H62 0.931 . S
C106 C105 1.380 . S
C106 C107 1.387 . S
C107 H63 0.930 . S
C107 C102 1.386 . S
C107 C106 1.387 . S
C108 C77 1.519 . S
C108 C109 1.377 . S
C108 C113 1.361 . S
C109 H64 0.929 1_455 S
C109 C108 1.377 . S
C109 C110 1.386 . S
C110 H65 0.931 1_455 S
C110 C109 1.386 . S
C110 C111 1.363 . S
C111 C110 1.363 . S
C111 C112 1.385 . S
C112 H66 0.930 . S
C112 C111 1.385 . S
C112 C113 1.396 . S
C113 H67 0.929 . S
C113 C108 1.361 . S
C113 C112 1.396 . S
C114 O68 1.300 . S
C114 O69 1.209 . S
C114 C87 1.486 . S
C115 O70 1.199 . S
C115 O71 1.297 1_565 S
C115 C99 1.476 . S
H116 O142 0.856 . S
H117 O145 0.854 . S
H118 C153 0.930 1_565 S
H119 C154 0.930 1_565 S
H120 C156 0.930 . S
H121 C157 0.930 . S
H122 C159 0.931 . S
H123 C160 0.930 . S
H124 C162 0.930 . S
H125 C163 0.929 . S
H126 C165 0.930 . S
H127 C166 0.931 . S
H128 C168 0.930 . S
H129 C169 0.929 . S
H130 C171 0.931 . S
H131 C172 0.930 . S
H132 C174 0.930 . S
H133 C175 0.932 . S
H134 C177 0.930 . S
H135 C178 0.929 1_565 S
H136 C180 0.931 . S
H137 C181 0.930 . S
H138 C183 0.929 . S
H139 C184 0.931 . S
H140 C186 0.930 . S
H141 C187 0.929 . S
O142 H116 0.856 . S
O142 C188 1.300 . S
O143 C188 1.209 . S
O144 C189 1.199 . S
O145 H117 0.854 . S
O145 C189 1.297 . S
C146 C147 1.404 . S
C146 C151 1.397 . S
C146 C152 1.492 . S
C147 C146 1.404 . S
C147 C148 1.396 . S
C147 C158 1.492 . S
C148 C147 1.396 . S
C148 C149 1.397 . S
C148 C164 1.509 . S
C149 C148 1.397 . S
C149 C150 1.412 . S
C149 C170 1.485 . S
C150 C149 1.412 . S
C150 C151 1.388 . S
C150 C176 1.490 . S
C151 C146 1.397 . S
C151 C150 1.388 . S
C151 C182 1.519 . S
C152 C146 1.492 . S
C152 C153 1.363 . S
C152 C157 1.390 . S
C153 H118 0.930 1_545 S
C153 C152 1.363 . S
C153 C154 1.372 . S
C154 H119 0.930 1_545 S
C154 C153 1.372 . S
C154 C155 1.383 . S
C155 C154 1.383 . S
C155 C156 1.395 . S
C156 H120 0.930 . S
C156 C155 1.395 . S
C156 C157 1.362 . S
C157 H121 0.930 . S
C157 C152 1.390 . S
C157 C156 1.362 . S
C158 C147 1.492 . S
C158 C159 1.377 . S
C158 C163 1.397 . S
C159 H122 0.931 . S
C159 C158 1.377 . S
C159 C160 1.376 . S
C160 H123 0.930 . S
C160 C159 1.376 . S
C160 C161 1.376 . S
C161 C160 1.376 . S
C161 C162 1.378 . S
C161 C188 1.486 . S
C162 H124 0.930 . S
C162 C161 1.378 . S
C162 C163 1.376 . S
C163 H125 0.929 . S
C163 C158 1.397 . S
C163 C162 1.376 . S
C164 C148 1.509 . S
C164 C165 1.391 . S
C164 C169 1.386 . S
C165 H126 0.930 . S
C165 C164 1.391 . S
C165 C166 1.375 . S
C166 H127 0.931 . S
C166 C165 1.375 . S
C166 C167 1.375 . S
C167 C166 1.375 . S
C167 C168 1.361 . S
C168 H128 0.930 . S
C168 C167 1.361 . S
C168 C169 1.399 . S
C169 H129 0.929 . S
C169 C164 1.386 . S
C169 C168 1.399 . S
C170 C149 1.485 . S
C170 C171 1.394 . S
C170 C175 1.360 . S
C171 H130 0.931 . S
C171 C170 1.394 . S
C171 C172 1.372 . S
C172 H131 0.930 . S
C172 C171 1.372 . S
C172 C173 1.397 . S
C173 C172 1.397 . S
C173 C174 1.390 . S
C173 C189 1.476 . S
C174 H132 0.930 . S
C174 C173 1.390 . S
C174 C175 1.366 . S
C175 H133 0.932 . S
C175 C170 1.360 . S
C175 C174 1.366 . S
C176 C150 1.490 . S
C176 C177 1.380 . S
C176 C181 1.386 . S
C177 H134 0.930 . S
C177 C176 1.380 . S
C177 C178 1.381 . S
C178 H135 0.929 1_545 S
C178 C177 1.381 . S
C178 C179 1.371 . S
C179 C178 1.371 . S
C179 C180 1.380 . S
C180 H136 0.931 . S
C180 C179 1.380 . S
C180 C181 1.387 . S
C181 H137 0.930 . S
C181 C176 1.386 . S
C181 C180 1.387 . S
C182 C151 1.519 . S
C182 C183 1.377 . S
C182 C187 1.361 . S
C183 H138 0.929 . S
C183 C182 1.377 . S
C183 C184 1.386 . S
C184 H139 0.931 . S
C184 C183 1.386 . S
C184 C185 1.363 . S
C185 C184 1.363 . S
C185 C186 1.385 . S
C186 H140 0.930 . S
C186 C185 1.385 . S
C186 C187 1.396 . S
C187 H141 0.929 . S
C187 C182 1.361 . S
C187 C186 1.396 . S
C188 O142 1.300 . S
C188 O143 1.209 . S
C188 C161 1.486 . S
C189 O144 1.199 . S
C189 O145 1.297 . S
C189 C173 1.476 . S
H190 O216 0.856 . S
H191 O219 0.854 . S
H192 C227 0.930 . S
H193 C228 0.930 . S
H194 C230 0.930 . S
H195 C231 0.930 . S
H196 C233 0.931 . S
H197 C234 0.930 . S
H198 C236 0.930 . S
H199 C237 0.929 . S
H200 C239 0.930 . S
H201 C240 0.931 1_554 S
H202 C242 0.930 . S
H203 C243 0.929 . S
H204 C245 0.931 . S
H205 C246 0.930 . S
H206 C248 0.930 . S
H207 C249 0.932 . S
H208 C251 0.930 . S
H209 C252 0.929 . S
H210 C254 0.931 . S
H211 C255 0.930 . S
H212 C257 0.929 . S
H213 C258 0.931 . S
H214 C260 0.930 . S
H215 C261 0.929 . S
O216 H190 0.856 . S
O216 C262 1.300 . S
O217 C262 1.209 . S
O218 C263 1.199 . S
O219 H191 0.854 . S
O219 C263 1.297 . S
C220 C221 1.404 . S
C220 C225 1.397 . S
C220 C226 1.492 . S
C221 C220 1.404 . S
C221 C222 1.396 . S
C221 C232 1.492 . S
C222 C221 1.396 . S
C222 C223 1.397 . S
C222 C238 1.509 . S
C223 C222 1.397 . S
C223 C224 1.412 . S
C223 C244 1.485 . S
C224 C223 1.412 . S
C224 C225 1.388 . S
C224 C250 1.490 . S
C225 C220 1.397 . S
C225 C224 1.388 . S
C225 C256 1.519 . S
C226 C220 1.492 . S
C226 C227 1.363 . S
C226 C231 1.390 . S
C227 H192 0.930 . S
C227 C226 1.363 . S
C227 C228 1.372 . S
C228 H193 0.930 . S
C228 C227 1.372 . S
C228 C229 1.383 . S
C229 C228 1.383 . S
C229 C230 1.395 . S
C230 H194 0.930 . S
C230 C229 1.395 . S
C230 C231 1.362 . S
C231 H195 0.930 . S
C231 C226 1.390 . S
C231 C230 1.362 . S
C232 C221 1.492 . S
C232 C233 1.377 1_556 S
C232 C237 1.397 . S
C233 H196 0.931 . S
C233 C232 1.377 1_554 S
C233 C234 1.376 . S
C234 H197 0.930 . S
C234 C233 1.376 . S
C234 C235 1.376 . S
C235 C234 1.376 . S
C235 C236 1.378 . S
C235 C262 1.486 . S
C236 H198 0.930 . S
C236 C235 1.378 . S
C236 C237 1.376 1_554 S
C237 H199 0.929 . S
C237 C232 1.397 . S
C237 C236 1.376 1_556 S
C238 C222 1.509 . S
C238 C239 1.391 . S
C238 C243 1.386 . S
C239 H200 0.930 . S
C239 C238 1.391 . S
C239 C240 1.375 . S
C240 H201 0.931 1_556 S
C240 C239 1.375 . S
C240 C241 1.375 1_556 S
C241 C240 1.375 1_554 S
C241 C242 1.361 . S
C242 H202 0.930 . S
C242 C241 1.361 . S
C242 C243 1.399 1_554 S
C243 H203 0.929 . S
C243 C238 1.386 . S
C243 C242 1.399 1_556 S
C244 C223 1.485 . S
C244 C245 1.394 . S
C244 C249 1.360 . S
C245 H204 0.931 . S
C245 C244 1.394 . S
C245 C246 1.372 . S
C246 H205 0.930 . S
C246 C245 1.372 . S
C246 C247 1.397 . S
C247 C246 1.397 . S
C247 C248 1.390 . S
C247 C263 1.476 . S
C248 H206 0.930 . S
C248 C247 1.390 . S
C248 C249 1.366 . S
C249 H207 0.932 . S
C249 C244 1.360 . S
C249 C248 1.366 . S
C250 C224 1.490 . S
C250 C251 1.380 . S
C250 C255 1.386 . S
C251 H208 0.930 . S
C251 C250 1.380 . S
C251 C252 1.381 . S
C252 H209 0.929 . S
C252 C251 1.381 . S
C252 C253 1.371 . S
C253 C252 1.371 . S
C253 C254 1.380 . S
C254 H210 0.931 . S
C254 C253 1.380 . S
C254 C255 1.387 . S
C255 H211 0.930 . S
C255 C250 1.386 . S
C255 C254 1.387 . S
C256 C225 1.519 . S
C256 C257 1.377 . S
C256 C261 1.361 . S
C257 H212 0.929 . S
C257 C256 1.377 . S
C257 C258 1.386 . S
C258 H213 0.931 . S
C258 C257 1.386 . S
C258 C259 1.363 . S
C259 C258 1.363 . S
C259 C260 1.385 . S
C260 H214 0.930 . S
C260 C259 1.385 . S
C260 C261 1.396 . S
C261 H215 0.929 . S
C261 C256 1.361 . S
C261 C260 1.396 . S
C262 O216 1.300 . S
C262 O217 1.209 . S
C262 C235 1.486 . S
C263 O218 1.199 . S
C263 O219 1.297 . S
C263 C247 1.476 . S
C264 C265 1.363 . S
C264 C270 1.379 . S
C264 N272 1.356 . S
C265 C264 1.363 . S
C265 C271 1.363 . S
C266 C267 1.363 . S
C266 C271 1.379 . S
C266 N273 1.356 1_455 S
C267 C266 1.363 . S
C267 C270 1.363 . S
N268 C270 1.356 . S
N268 H280 0.984 . S
N268 H281 0.985 . S
N269 C271 1.356 1_655 S
N269 H274 0.984 1_655 S
N269 H275 0.985 . S
C270 C264 1.379 . S
C270 C267 1.363 . S
C270 N268 1.356 . S
C271 C265 1.363 . S
C271 C266 1.379 . S
C271 N269 1.356 1_455 S
N272 C264 1.356 . S
N272 H278 0.984 . S
N272 H279 0.984 . S
N273 C266 1.356 1_655 S
N273 H276 0.984 . S
N273 H277 0.985 . S
H274 N269 0.984 1_455 S
H275 N269 0.985 . S
H276 N273 0.984 . S
H277 N273 0.985 . S
H278 N272 0.984 . S
H279 N272 0.984 . S
H280 N268 0.984 . S
H281 N268 0.985 . S
C282 C283 1.363 1_455 S
C282 C288 1.379 1_455 S
C282 N290 1.356 . S
C283 C282 1.363 1_655 S
C283 C289 1.363 . S
C284 C285 1.363 . S
C284 C289 1.379 . S
C284 N291 1.356 1_545 S
C285 C284 1.363 . S
C285 C288 1.363 . S
N286 C288 1.356 1_455 S
N286 H298 0.984 . S
N286 H299 0.985 1_455 S
N287 C289 1.356 1_565 S
N287 H292 0.984 . S
N287 H293 0.985 . S
C288 C282 1.379 1_655 S
C288 C285 1.363 . S
C288 N286 1.356 1_655 S
C289 C283 1.363 . S
C289 C284 1.379 . S
C289 N287 1.356 1_545 S
N290 C282 1.356 . S
N290 H296 0.984 . S
N290 H297 0.984 . S
N291 C284 1.356 1_565 S
N291 H294 0.984 . S
N291 H295 0.985 . S
H292 N287 0.984 . S
H293 N287 0.985 . S
H294 N291 0.984 . S
H295 N291 0.985 . S
H296 N290 0.984 . S
H297 N290 0.984 . S
H298 N286 0.984 . S
H299 N286 0.985 1_655 S
C300 C301 1.363 1_455 S
C300 C306 1.378 1_455 S
C300 N308 1.357 1_565 S
C301 C300 1.363 1_655 S
C301 C307 1.363 . S
C302 C303 1.363 . S
C302 C307 1.379 . S
C302 N309 1.356 . S
C303 C302 1.363 . S
C303 C306 1.363 . S
N304 C306 1.356 . S
N304 H316 0.984 . S
N304 H317 0.985 . S
N305 C307 1.356 . S
N305 H310 0.984 . S
N305 H311 0.985 . S
C306 C300 1.378 1_655 S
C306 C303 1.363 . S
C306 N304 1.356 . S
C307 C301 1.363 . S
C307 C302 1.379 . S
C307 N305 1.356 . S
N308 C300 1.357 1_545 S
N308 H314 0.984 . S
N308 H315 0.984 . S
N309 C302 1.356 . S
N309 H312 0.984 . S
N309 H313 0.985 . S
H310 N305 0.984 . S
H311 N305 0.985 . S
H312 N309 0.984 . S
H313 N309 0.985 . S
H314 N308 0.984 . S
H315 N308 0.984 . S
H316 N304 0.984 . S
H317 N304 0.985 . S
C318 C319 1.363 . S
C318 C324 1.379 . S
C318 N326 1.356 . S
C319 C318 1.363 . S
C319 C325 1.363 . S
C320 C321 1.363 . S
C320 C325 1.379 . S
C320 N327 1.356 . S
C321 C320 1.363 . S
C321 C324 1.363 . S
N322 C324 1.356 . S
N322 H334 0.984 . S
N322 H335 0.985 . S
N323 C325 1.356 1_545 S
N323 H328 0.984 . S
N323 H329 0.985 . S
C324 C318 1.379 . S
C324 C321 1.363 . S
C324 N322 1.356 . S
C325 C319 1.363 . S
C325 C320 1.379 . S
C325 N323 1.356 1_565 S
N326 C318 1.356 . S
N326 H332 0.988 . S
N326 H333 0.984 . S
N327 C320 1.356 . S
N327 H330 0.984 . S
N327 H331 0.985 . S
H328 N323 0.984 . S
H329 N323 0.985 . S
H330 N327 0.984 . S
H331 N327 0.985 . S
H332 N326 0.988 . S
H333 N326 0.984 . S
H334 N322 0.984 . S
H335 N322 0.985 . S
C336 C337 1.363 . S
C336 C342 1.379 . S
C336 N344 1.356 . S
C337 C336 1.363 . S
C337 C343 1.363 . S
C338 C339 1.363 . S
C338 C343 1.379 . S
C338 N345 1.356 . S
C339 C338 1.363 . S
C339 C342 1.363 . S
N340 C342 1.356 . S
N340 H352 0.984 . S
N340 H353 0.985 . S
N341 C343 1.356 . S
N341 H346 0.984 . S
N341 H347 0.985 . S
C342 C336 1.379 . S
C342 C339 1.363 . S
C342 N340 1.356 . S
C343 C337 1.363 . S
C343 C338 1.379 . S
C343 N341 1.356 . S
N344 C336 1.356 . S
N344 H350 0.984 . S
N344 H351 0.984 . S
N345 C338 1.356 . S
N345 H348 0.984 . S
N345 H349 0.985 . S
H346 N341 0.984 . S
H347 N341 0.985 . S
H348 N345 0.984 . S
H349 N345 0.985 . S
H350 N344 0.984 . S
H351 N344 0.984 . S
H352 N340 0.984 . S
H353 N340 0.985 . S
C354 C355 1.363 . S
C354 C360 1.379 . S
C354 N362 1.356 . S
C355 C354 1.363 . S
C355 C361 1.363 . S
C356 C357 1.363 . S
C356 C361 1.379 . S
C356 N363 1.356 . S
C357 C356 1.363 . S
C357 C360 1.363 . S
N358 C360 1.356 . S
N358 H370 0.984 . S
N358 H371 0.985 . S
N359 C361 1.356 . S
N359 H364 0.984 . S
N359 H365 0.985 . S
C360 C354 1.379 . S
C360 C357 1.363 . S
C360 N358 1.356 . S
C361 C355 1.363 . S
C361 C356 1.379 . S
C361 N359 1.356 . S
N362 C354 1.356 . S
N362 H368 0.984 . S
N362 H369 0.984 . S
N363 C356 1.356 . S
N363 H366 0.984 . S
N363 H367 0.985 . S
H364 N359 0.984 . S
H365 N359 0.985 . S
H366 N363 0.984 . S
H367 N363 0.985 . S
H368 N362 0.984 . S
H369 N362 0.984 . S
H370 N358 0.984 . S
H371 N358 0.985 . S
C372 C373 1.367 . S
C372 C378 1.379 . S
C372 N380 1.356 1_655 S
C373 C372 1.367 . S
C373 C379 1.364 . S
C374 C375 1.363 . S
C374 C379 1.379 . S
C374 N381 1.356 . S
C375 C374 1.363 . S
C375 C378 1.363 . S
N376 C378 1.356 . S
N376 H388 0.984 . S
N376 H389 0.985 . S
N377 C379 1.356 . S
N377 H382 0.984 1_655 S
N377 H383 0.985 1_545 S
C378 C372 1.379 . S
C378 C375 1.363 . S
C378 N376 1.356 . S
C379 C373 1.364 . S
C379 C374 1.379 . S
C379 N377 1.356 . S
N380 C372 1.356 1_455 S
N380 H386 0.984 . S
N380 H387 0.984 . S
N381 C374 1.356 . S
N381 H384 0.984 . S
N381 H385 0.985 1_545 S
H382 N377 0.984 1_455 S
H383 N377 0.985 1_565 S
H384 N381 0.984 . S
H385 N381 0.985 1_565 S
H386 N380 0.984 . S
H387 N380 0.984 . S
H388 N376 0.984 . S
H389 N376 0.985 . S
C390 C391 1.363 . S
C390 C396 1.357 1_554 S
C390 N398 1.356 . S
C391 C390 1.363 . S
C391 C397 1.363 1_565 S
C392 C393 1.363 1_544 S
C392 C397 1.379 . S
C392 N399 1.356 1_554 S
C393 C392 1.363 1_566 S
C393 C396 1.375 . S
N394 C396 1.373 . S
N394 H406 0.984 . S
N394 H407 0.985 . S
N395 C397 1.356 . S
N395 H400 0.984 1_655 S
N395 H401 0.985 . S
C396 C390 1.357 1_556 S
C396 C393 1.375 . S
C396 N394 1.373 . S
C397 C391 1.363 1_545 S
C397 C392 1.379 . S
C397 N395 1.356 . S
N398 C390 1.356 . S
N398 H404 0.984 . S
N398 H405 0.984 . S
N399 C392 1.356 1_556 S
N399 H402 0.984 . S
N399 H403 0.985 . S
H400 N395 0.984 1_455 S
H401 N395 0.985 . S
H402 N399 0.984 . S
H403 N399 0.985 . S
H404 N398 0.984 . S
H405 N398 0.984 . S
H406 N394 0.984 . S
H407 N394 0.985 . S
C408 C409 1.363 . S
C408 C414 1.379 . S
C408 N416 1.356 . S
C409 C408 1.363 . S
C409 C415 1.363 . S
C410 C411 1.363 . S
C410 C415 1.379 . S
C410 N417 1.356 . S
C411 C410 1.363 . S
C411 C414 1.363 . S
N412 C414 1.356 1_655 S
N412 H424 0.984 . S
N412 H425 0.985 . S
N413 C415 1.356 . S
N413 H418 0.984 . S
N413 H419 0.985 . S
C414 C408 1.379 . S
C414 C411 1.363 . S
C414 N412 1.356 1_455 S
C415 C409 1.363 . S
C415 C410 1.379 . S
C415 N413 1.356 . S
N416 C408 1.356 . S
N416 H422 0.984 . S
N416 H423 0.984 . S
N417 C410 1.356 . S
N417 H420 0.984 . S
N417 H421 0.985 . S
H418 N413 0.984 . S
H419 N413 0.985 . S
H420 N417 0.984 . S
H421 N417 0.985 . S
H422 N416 0.984 . S
H423 N416 0.984 . S
H424 N412 0.984 . S
H425 N412 0.985 . S
C426 C427 1.363 . S
C426 C432 1.379 . S
C426 N434 1.356 . S
C427 C426 1.363 . S
C427 C433 1.363 . S
C428 C429 1.363 . S
C428 C433 1.379 . S
C428 N435 1.356 . S
C429 C428 1.363 . S
C429 C432 1.363 . S
N430 C432 1.356 . S
N430 H442 0.984 . S
N430 H443 0.985 . S
N431 C433 1.356 . S
N431 H436 0.984 . S
N431 H437 0.985 1_545 S
C432 C426 1.379 . S
C432 C429 1.363 . S
C432 N430 1.356 . S
C433 C427 1.363 . S
C433 C428 1.379 . S
C433 N431 1.356 . S
N434 C426 1.356 . S
N434 H440 0.984 . S
N434 H441 0.984 . S
N435 C428 1.356 . S
N435 H438 0.984 . S
N435 H439 0.985 1_545 S
H436 N431 0.984 . S
H437 N431 0.985 1_565 S
H438 N435 0.984 . S
H439 N435 0.985 1_565 S
H440 N434 0.984 . S
H441 N434 0.984 . S
H442 N430 0.984 . S
H443 N430 0.985 . S
C444 C445 1.363 . S
C444 C450 1.379 . S
C444 N452 1.356 . S
C445 C444 1.363 . S
C445 C451 1.363 . S
C446 C447 1.363 . S
C446 C451 1.379 . S
C446 N453 1.356 1_554 S
C447 C446 1.363 . S
C447 C450 1.363 . S
N448 C450 1.356 . S
N448 H460 0.984 . S
N448 H461 0.985 . S
N449 C451 1.356 . S
N449 H454 0.984 . S
N449 H455 0.985 . S
C450 C444 1.379 . S
C450 C447 1.363 . S
C450 N448 1.356 . S
C451 C445 1.363 . S
C451 C446 1.379 . S
C451 N449 1.356 . S
N452 C444 1.356 . S
N452 H458 0.984 . S
N452 H459 0.984 . S
N453 C446 1.356 1_556 S
N453 H456 0.984 . S
N453 H457 0.985 . S
H454 N449 0.984 . S
H455 N449 0.985 . S
H456 N453 0.984 . S
H457 N453 0.985 . S
H458 N452 0.984 . S
H459 N452 0.984 . S
H460 N448 0.984 . S
H461 N448 0.985 . S
C462 C463 1.363 . S
C462 C468 1.379 . S
C462 N470 1.356 . S
C463 C462 1.363 . S
C463 C469 1.363 . S
C464 C465 1.363 . S
C464 C469 1.379 . S
C464 N471 1.356 . S
C465 C464 1.363 . S
C465 C468 1.363 . S
N466 C468 1.356 . S
N466 H478 0.984 . S
N466 H479 0.985 . S
N467 C469 1.356 . S
N467 H472 0.984 . S
N467 H473 0.985 . S
C468 C462 1.379 . S
C468 C465 1.363 . S
C468 N466 1.356 . S
C469 C463 1.363 . S
C469 C464 1.379 . S
C469 N467 1.356 . S
N470 C462 1.356 . S
N470 H476 0.984 . S
N470 H477 0.984 . S
N471 C464 1.356 . S
N471 H474 0.984 . S
N471 H475 0.985 . S
H472 N467 0.984 . S
H473 N467 0.985 . S
H474 N471 0.984 . S
H475 N471 0.985 . S
H476 N470 0.984 . S
H477 N470 0.984 . S
H478 N466 0.984 . S
H479 N466 0.985 . S
C267 C81 1.521 . S
C265 C3 1.658 . S
C283 C21 1.569 1_655 S
C285 C155 1.501 . S
C301 C37 2.028 1_665 S
C303 C259 2.049 . S
C319 C8 0.962 . S
C321 C93 0.961 . S
C339 C167 0.959 . S
C337 C23 0.970 . S
C355 C35 1.761 . S
C357 C253 1.585 . S
C375 C185 2.046 . S
C373 C31 2.046 1_655 S
C391 C7 1.592 1_665 S
C393 C229 1.528 . S
C411 C105 1.594 . S
C409 C17 1.804 . S
C429 C179 1.503 . S
C427 C36 1.682 . S
C447 C241 0.952 . S
C445 C9 0.945 . S
C463 C22 2.072 . S
C465 C111 2.072 . S
