# Generated by pormake.
# Topology ssb, (4,4)-cn, num edge types: 1
# Building blocks:
#     Node 0, Type 0, BuildingBlock: GIZVER_clean_linker_0, # of connection points: 4
#     Node 1, Type 0, BuildingBlock: GIZVER_clean_linker_0, # of connection points: 4
#     Node 2, Type 0, BuildingBlock: GIZVER_clean_linker_0, # of connection points: 4
#     Node 3, Type 0, BuildingBlock: GIZVER_clean_linker_0, # of connection points: 4
#     Node 4, Type 0, BuildingBlock: GIZVER_clean_linker_0, # of connection points: 4
#     Node 5, Type 0, BuildingBlock: GIZVER_clean_linker_0, # of connection points: 4
#     Node 6, Type 0, BuildingBlock: GIZVER_clean_linker_0, # of connection points: 4
#     Node 7, Type 0, BuildingBlock: GIZVER_clean_linker_0, # of connection points: 4
#     Node 8, Type 1, BuildingBlock: NAWXER_clean_sbu_0, # of connection points: 4
#     Node 9, Type 1, BuildingBlock: NAWXER_clean_sbu_0, # of connection points: 4
#     Node 10, Type 1, BuildingBlock: NAWXER_clean_sbu_0, # of connection points: 4
#     Node 11, Type 1, BuildingBlock: NAWXER_clean_sbu_0, # of connection points: 4
#     Node 12, Type 1, BuildingBlock: NAWXER_clean_sbu_0, # of connection points: 4
#     Node 13, Type 1, BuildingBlock: NAWXER_clean_sbu_0, # of connection points: 4
#     Node 14, Type 1, BuildingBlock: NAWXER_clean_sbu_0, # of connection points: 4
#     Node 15, Type 1, BuildingBlock: NAWXER_clean_sbu_0, # of connection points: 4
#     Edge 16, Type (0, 1), BuildingBlock: XIVTED_clean_linker_0, # of connection points: 2
#     Edge 17, Type (0, 1), BuildingBlock: XIVTED_clean_linker_0, # of connection points: 2
#     Edge 18, Type (0, 1), BuildingBlock: XIVTED_clean_linker_0, # of connection points: 2
#     Edge 19, Type (0, 1), BuildingBlock: XIVTED_clean_linker_0, # of connection points: 2
#     Edge 20, Type (0, 1), BuildingBlock: XIVTED_clean_linker_0, # of connection points: 2
#     Edge 21, Type (0, 1), BuildingBlock: XIVTED_clean_linker_0, # of connection points: 2
#     Edge 22, Type (0, 1), BuildingBlock: XIVTED_clean_linker_0, # of connection points: 2
#     Edge 23, Type (0, 1), BuildingBlock: XIVTED_clean_linker_0, # of connection points: 2
#     Edge 24, Type (0, 1), BuildingBlock: XIVTED_clean_linker_0, # of connection points: 2
#     Edge 25, Type (0, 1), BuildingBlock: XIVTED_clean_linker_0, # of connection points: 2
#     Edge 26, Type (0, 1), BuildingBlock: XIVTED_clean_linker_0, # of connection points: 2
#     Edge 27, Type (0, 1), BuildingBlock: XIVTED_clean_linker_0, # of connection points: 2
#     Edge 28, Type (0, 1), BuildingBlock: XIVTED_clean_linker_0, # of connection points: 2
#     Edge 29, Type (0, 1), BuildingBlock: XIVTED_clean_linker_0, # of connection points: 2
#     Edge 30, Type (0, 1), BuildingBlock: XIVTED_clean_linker_0, # of connection points: 2
#     Edge 31, Type (0, 1), BuildingBlock: XIVTED_clean_linker_0, # of connection points: 2
#     Edge 32, Type (0, 1), BuildingBlock: XIVTED_clean_linker_0, # of connection points: 2
#     Edge 33, Type (0, 1), BuildingBlock: XIVTED_clean_linker_0, # of connection points: 2
#     Edge 34, Type (0, 1), BuildingBlock: XIVTED_clean_linker_0, # of connection points: 2
#     Edge 35, Type (0, 1), BuildingBlock: XIVTED_clean_linker_0, # of connection points: 2
#     Edge 36, Type (0, 1), BuildingBlock: XIVTED_clean_linker_0, # of connection points: 2
#     Edge 37, Type (0, 1), BuildingBlock: XIVTED_clean_linker_0, # of connection points: 2
#     Edge 38, Type (0, 1), BuildingBlock: XIVTED_clean_linker_0, # of connection points: 2
#     Edge 39, Type (0, 1), BuildingBlock: XIVTED_clean_linker_0, # of connection points: 2
#     Edge 40, Type (0, 1), BuildingBlock: XIVTED_clean_linker_0, # of connection points: 2
#     Edge 41, Type (0, 1), BuildingBlock: XIVTED_clean_linker_0, # of connection points: 2
#     Edge 42, Type (0, 1), BuildingBlock: XIVTED_clean_linker_0, # of connection points: 2
#     Edge 43, Type (0, 1), BuildingBlock: XIVTED_clean_linker_0, # of connection points: 2
#     Edge 44, Type (0, 1), BuildingBlock: XIVTED_clean_linker_0, # of connection points: 2
#     Edge 45, Type (0, 1), BuildingBlock: XIVTED_clean_linker_0, # of connection points: 2
#     Edge 46, Type (0, 1), BuildingBlock: XIVTED_clean_linker_0, # of connection points: 2
#     Edge 47, Type (0, 1), BuildingBlock: XIVTED_clean_linker_0, # of connection points: 2
# Relax obj value: 0.000
# Max RMSD: 0.030
# Mean RMSD: 0.015
data_MOF--net-ssb--node1-NAWXER_clean_sbu_0--node2-GIZVER_clean_linker_0--edge1-XIVTED_clean_linker_0
_symmetry_space_group_name_H-M    P1
_symmetry_Int_Tables_number       1
_symmetry_cell_setting            triclinic
loop_
_symmetry_equiv_pos_as_xyz
'x, y, z'
_cell_length_a     46.677036
_cell_length_b     46.387382
_cell_length_c     39.579642
_cell_angle_alpha  90.075853
_cell_angle_beta   89.460898
_cell_angle_gamma 90.002354
loop_
_atom_site_label
_atom_site_type_symbol
_atom_site_fract_x
_atom_site_fract_y
_atom_site_fract_z
_atom_type_partial_charge
H0 H 0.24892 0.19863 0.28418 0.0
H1 H 0.19993 0.27722 0.28471 0.0
H2 H 0.21962 0.23473 0.37823 0.0
H3 H 0.2298 0.21569 0.23258 0.0
H4 H 0.2 0.23949 0.23543 0.0
H5 H 0.27878 0.23499 0.22247 0.0
H6 H 0.28201 0.31637 0.17039 0.0
H7 H 0.2047 0.29033 0.22118 0.0
C8 C 0.23866 0.21603 0.29804 0.0
C9 C 0.23651 0.21445 0.33342 0.0
C10 C 0.22542 0.23863 0.28029 0.0
C11 C 0.21073 0.26026 0.29841 0.0
C12 C 0.20869 0.25926 0.33388 0.0
C13 C 0.22197 0.23642 0.35104 0.0
C14 C 0.22296 0.23718 0.24224 0.0
C15 C 0.24012 0.26037 0.22452 0.0
C16 C 0.26884 0.25514 0.21526 0.0
C17 C 0.28425 0.2752 0.1956 0.0
C18 C 0.27084 0.30114 0.18655 0.0
C19 C 0.24232 0.30686 0.19584 0.0
C20 C 0.22697 0.28635 0.21472 0.0
H21 H 0.83163 0.24169 0.25034 0.0
H22 H 0.75966 0.18722 0.27522 0.0
H23 H 0.81867 0.21385 0.35231 0.0
H24 H 0.80614 0.21729 0.20591 0.0
H25 H 0.78124 0.18947 0.21649 0.0
H26 H 0.78761 0.27098 0.2185 0.0
H27 H 0.7054 0.28211 0.17233 0.0
H28 H 0.73418 0.19724 0.19803 0.0
C29 C 0.81859 0.23049 0.26894 0.0
C30 C 0.82687 0.23051 0.30286 0.0
C31 C 0.79407 0.21511 0.25888 0.0
C32 C 0.7781 0.19958 0.28317 0.0
C33 C 0.78665 0.19902 0.3172 0.0
C34 C 0.81086 0.21497 0.32664 0.0
C35 C 0.78702 0.21229 0.22185 0.0
C36 C 0.76292 0.23205 0.21141 0.0
C37 C 0.76744 0.26209 0.21002 0.0
C38 C 0.74659 0.28042 0.19624 0.0
C39 C 0.72116 0.26832 0.18413 0.0
C40 C 0.71666 0.23844 0.18416 0.0
C41 C 0.73727 0.22039 0.19867 0.0
H42 H 0.78063 0.73734 0.32124 0.0
H43 H 0.7057 0.79154 0.32291 0.0
H44 H 0.78388 0.8215 0.36693 0.0
H45 H 0.73025 0.71718 0.31913 0.0
H46 H 0.70098 0.74067 0.31124 0.0
H47 H 0.76243 0.70153 0.27332 0.0
H48 H 0.72965 0.71079 0.17321 0.0
H49 H 0.69398 0.76138 0.25474 0.0
C50 C 0.7706 0.7578 0.32726 0.0
C51 C 0.78617 0.77913 0.34451 0.0
C52 C 0.74162 0.76211 0.31914 0.0
C53 C 0.72824 0.78833 0.32807 0.0
C54 C 0.74371 0.81006 0.34463 0.0
C55 C 0.77257 0.80531 0.35246 0.0
C56 C 0.72414 0.73725 0.30562 0.0
C57 C 0.7282 0.73258 0.268 0.0
C58 C 0.74836 0.71238 0.25582 0.0
C59 C 0.74946 0.70518 0.22132 0.0
C60 C 0.73005 0.71816 0.19918 0.0
C61 C 0.7096 0.73828 0.2107 0.0
C62 C 0.70948 0.74596 0.24517 0.0
H63 H 0.187 0.73727 0.25863 0.0
H64 H 0.24797 0.80581 0.27193 0.0
H65 H 0.20039 0.7727 0.35721 0.0
H66 H 0.20271 0.76651 0.2105 0.0
H67 H 0.22487 0.79728 0.21675 0.0
H68 H 0.22392 0.71821 0.20409 0.0
H69 H 0.31062 0.71665 0.16631 0.0
H70 H 0.2772 0.79363 0.2123 0.0
C71 C 0.19863 0.75172 0.27511 0.0
C72 C 0.19278 0.75163 0.30999 0.0
C73 C 0.2187 0.77124 0.26133 0.0
C74 C 0.23284 0.79064 0.28277 0.0
C75 C 0.22639 0.79159 0.31755 0.0
C76 C 0.20672 0.77154 0.33084 0.0
C77 C 0.22234 0.77414 0.22352 0.0
C78 C 0.24791 0.75749 0.21034 0.0
C79 C 0.24452 0.7286 0.20044 0.0
C80 C 0.26701 0.71362 0.18435 0.0
C81 C 0.29348 0.72752 0.1799 0.0
C82 C 0.29748 0.75622 0.1901 0.0
C83 C 0.27455 0.77121 0.20525 0.0
H84 H 0.32581 0.7387 0.76705 0.0
H85 H 0.25044 0.68726 0.75044 0.0
H86 H 0.28424 0.69608 0.85051 0.0
H87 H 0.31484 0.71998 0.71086 0.0
H88 H 0.28358 0.69893 0.70374 0.0
H89 H 0.31419 0.77119 0.70081 0.0
H90 H 0.23853 0.80823 0.65811 0.0
H91 H 0.23529 0.72319 0.70161 0.0
C92 C 0.30809 0.72612 0.77706 0.0
C93 C 0.30727 0.71905 0.81157 0.0
C94 C 0.28754 0.7149 0.75481 0.0
C95 C 0.26563 0.69696 0.7676 0.0
C96 C 0.26411 0.6904 0.80224 0.0
C97 C 0.28473 0.70193 0.82399 0.0
C98 C 0.29159 0.71842 0.71709 0.0
C99 C 0.27619 0.74455 0.70351 0.0
C100 C 0.29149 0.76984 0.69553 0.0
C101 C 0.27772 0.79304 0.67978 0.0
C102 C 0.24855 0.79083 0.67192 0.0
C103 C 0.23293 0.76564 0.67921 0.0
C104 C 0.24689 0.74282 0.69577 0.0
H105 H 0.26332 0.18122 0.83741 0.0
H106 H 0.21763 0.26173 0.8411 0.0
H107 H 0.30845 0.2595 0.85891 0.0
H108 H 0.20979 0.18333 0.84134 0.0
H109 H 0.19151 0.21709 0.8389 0.0
H110 H 0.23871 0.16637 0.78813 0.0
H111 H 0.19352 0.18213 0.69634 0.0
H112 H 0.17104 0.22993 0.78582 0.0
C113 C 0.26335 0.20447 0.84001 0.0
C114 C 0.28894 0.2187 0.8479 0.0
C115 C 0.23775 0.22015 0.83607 0.0
C116 C 0.23771 0.25007 0.84203 0.0
C117 C 0.26302 0.26446 0.85129 0.0
C118 C 0.28866 0.24867 0.8525 0.0
C119 C 0.21001 0.20468 0.82855 0.0
C120 C 0.20634 0.19982 0.79106 0.0
C121 C 0.22299 0.17874 0.77438 0.0
C122 C 0.21871 0.17289 0.74012 0.0
C123 C 0.19741 0.18756 0.7226 0.0
C124 C 0.17985 0.20775 0.73892 0.0
C125 C 0.1848 0.2145 0.77301 0.0
H126 H 0.68554 0.28119 0.76864 0.0
H127 H 0.75897 0.33724 0.76998 0.0
H128 H 0.71768 0.3124 0.86319 0.0
H129 H 0.70029 0.30714 0.71784 0.0
H130 H 0.7304 0.33075 0.71825 0.0
H131 H 0.7086 0.25244 0.71811 0.0
H132 H 0.78462 0.22653 0.66419 0.0
H133 H 0.77544 0.31428 0.69791 0.0
C134 C 0.70155 0.29306 0.78265 0.0
C135 C 0.69962 0.29435 0.81802 0.0
C136 C 0.72315 0.30809 0.76513 0.0
C137 C 0.74296 0.32469 0.78344 0.0
C138 C 0.74134 0.32615 0.81896 0.0
C139 C 0.71997 0.31035 0.836 0.0
C140 C 0.72267 0.3093 0.72697 0.0
C141 C 0.7406 0.28572 0.711 0.0
C142 C 0.72963 0.25752 0.70793 0.0
C143 C 0.74559 0.23604 0.69123 0.0
C144 C 0.77249 0.24306 0.6774 0.0
C145 C 0.78335 0.2713 0.67904 0.0
C146 C 0.76754 0.29234 0.69672 0.0
H147 H 0.74499 0.69308 0.79023 0.0
H148 H 0.699 0.77203 0.77237 0.0
H149 H 0.70028 0.73522 0.87188 0.0
H150 H 0.73226 0.70678 0.73326 0.0
H151 H 0.71118 0.73802 0.72563 0.0
H152 H 0.78424 0.70893 0.7304 0.0
H153 H 0.82267 0.78618 0.69134 0.0
H154 H 0.73351 0.7858 0.71992 0.0
C155 C 0.73283 0.71127 0.79985 0.0
C156 C 0.72386 0.71163 0.83387 0.0
C157 C 0.72419 0.73315 0.77749 0.0
C158 C 0.7068 0.7558 0.78969 0.0
C159 C 0.69843 0.75683 0.82388 0.0
C160 C 0.70746 0.73494 0.84574 0.0
C161 C 0.72994 0.72998 0.73998 0.0
C162 C 0.75641 0.74619 0.72849 0.0
C163 C 0.78271 0.73163 0.72423 0.0
C164 C 0.80667 0.74601 0.71063 0.0
C165 C 0.8042 0.77521 0.70197 0.0
C166 C 0.77785 0.78977 0.70424 0.0
C167 C 0.75418 0.77524 0.71849 0.0
C168 C 0.96639 0.303 0.54904 0.0
C169 C 0.05373 0.31766 0.48148 0.0
O170 O 0.97902 0.32698 0.54411 0.0
Zn171 Zn 0.01053 0.31161 0.51645 0.0
O172 O 0.97733 0.27982 0.53694 0.0
Zn173 Zn 0.0137 0.26631 0.50802 0.0
O174 O 0.03418 0.24256 0.53934 0.0
O175 O 0.03527 0.28855 0.55345 0.0
O176 O 0.04655 0.29119 0.48463 0.0
O177 O 0.0388 0.33731 0.49553 0.0
O178 O 0.9879 0.29529 0.47286 0.0
O179 O 0.99596 0.24846 0.46957 0.0
C180 C 0.04236 0.26231 0.55932 0.0
C181 C 0.98421 0.27102 0.45786 0.0
C182 C 0.70636 0.05014 0.58155 0.0
C183 C 0.70476 0.97617 0.49188 0.0
O184 O 0.73108 0.04169 0.57144 0.0
Zn185 Zn 0.74956 0.01316 0.5355 0.0
O186 O 0.68401 0.03922 0.5685 0.0
Zn187 Zn 0.70376 0.01231 0.53746 0.0
O188 O 0.72469 0.98228 0.5707 0.0
O189 O 0.77132 0.98696 0.56279 0.0
O190 O 0.68284 0.98578 0.50768 0.0
O191 O 0.72977 0.98489 0.50011 0.0
O192 O 0.76947 0.03976 0.50627 0.0
O193 O 0.72236 0.04171 0.50118 0.0
C194 C 0.7504 0.97461 0.57758 0.0
C195 C 0.74744 0.05021 0.49216 0.0
C196 C 0.97209 0.70806 0.56516 0.0
C197 C 0.03738 0.7072 0.46697 0.0
O198 O 0.97983 0.73316 0.55513 0.0
Zn199 Zn 0.00601 0.75236 0.51672 0.0
O200 O 0.98155 0.68585 0.54977 0.0
Zn201 Zn 0.00526 0.70622 0.51644 0.0
O202 O 0.03824 0.72522 0.54664 0.0
O203 O 0.03485 0.7725 0.54271 0.0
O204 O 0.02806 0.68518 0.48276 0.0
O205 O 0.03056 0.7325 0.47722 0.0
O206 O 0.97836 0.774 0.49089 0.0
O207 O 0.97319 0.72687 0.48606 0.0
C208 C 0.04736 0.7504 0.55452 0.0
C209 C 0.9652 0.75251 0.47844 0.0
C210 C 0.2608 0.02696 0.56596 0.0
C211 C 0.25881 0.95619 0.47539 0.0
O212 O 0.28497 0.02502 0.55033 0.0
Zn213 Zn 0.30316 0.00071 0.5086 0.0
O214 O 0.23966 0.01184 0.55633 0.0
Zn215 Zn 0.25903 0.99243 0.52007 0.0
O216 O 0.28858 0.96746 0.5477 0.0
O217 O 0.33282 0.97774 0.53145 0.0
O218 O 0.23861 0.96347 0.49536 0.0
O219 O 0.28328 0.9686 0.47744 0.0
O220 O 0.31282 0.03128 0.47621 0.0
O221 O 0.26633 0.02629 0.48463 0.0
C222 C 0.31556 0.96351 0.55012 0.0
C223 C 0.28729 0.03924 0.47003 0.0
C224 C 0.46925 0.80382 0.05736 0.0
C225 C 0.53875 0.81206 0.96402 0.0
O226 O 0.47719 0.82701 0.04288 0.0
Zn227 Zn 0.5042 0.80921 1.01114 0.0
O228 O 0.47963 0.77963 0.04742 0.0
Zn229 Zn 0.50879 0.76357 1.00978 0.0
O230 O 0.53819 0.74496 0.03578 0.0
O231 O 0.53647 0.79201 0.04427 0.0
O232 O 0.53325 0.78607 0.97266 0.0
O233 O 0.52724 0.83287 0.98011 0.0
O234 O 0.47527 0.78677 0.97768 0.0
O235 O 0.48416 0.74021 0.98232 0.0
C236 C 0.54745 0.76729 0.05075 0.0
C237 C 0.46981 0.7606 0.96929 0.0
C238 C 0.24402 0.54078 0.03579 0.0
C239 C 0.24613 0.45927 0.95775 0.0
O240 O 0.26603 0.52842 0.02332 0.0
Zn241 Zn 0.2459 0.50047 0.99621 0.0
O242 O 0.21897 0.53225 0.02724 0.0
Zn243 Zn 0.19999 0.50014 0.99531 0.0
O244 O 0.17886 0.47619 0.02803 0.0
O245 O 0.22581 0.47498 0.03424 0.0
O246 O 0.22057 0.46783 0.96454 0.0
O247 O 0.26732 0.47207 0.97102 0.0
O248 O 0.22734 0.52617 0.95752 0.0
O249 O 0.18018 0.52423 0.96241 0.0
C250 C 0.20072 0.46728 0.04394 0.0
C251 C 0.20247 0.53369 0.94736 0.0
C252 C 0.53288 0.241 0.96494 0.0
C253 C 0.45854 0.24148 0.0523 0.0
O254 O 0.51803 0.26221 0.9755 0.0
Zn255 Zn 0.49545 0.24126 1.00781 0.0
O256 O 0.5282 0.21565 0.9769 0.0
Zn257 Zn 0.49948 0.19588 0.01403 0.0
O258 O 0.4758 0.17006 0.98685 0.0
O259 O 0.46931 0.21617 0.97538 0.0
O260 O 0.46809 0.21597 0.04664 0.0
O261 O 0.46869 0.2625 0.03555 0.0
O262 O 0.52745 0.22768 0.04248 0.0
O263 O 0.52708 0.18022 0.0461 0.0
C264 C 0.46361 0.18962 0.96969 0.0
C265 C 0.53769 0.20436 0.05481 0.0
C266 C 0.80203 0.5427 0.07847 0.0
C267 C 0.79807 0.47403 0.9837 0.0
O268 O 0.8234 0.5336 0.06132 0.0
Zn269 Zn 0.80183 0.5081 0.03113 0.0
O270 O 0.77676 0.53418 0.07112 0.0
Zn271 Zn 0.75596 0.50713 0.0355 0.0
O272 O 0.73776 0.47887 0.0647 0.0
O273 O 0.78494 0.47599 0.06481 0.0
O274 O 0.77354 0.48127 0.99573 0.0
O275 O 0.82081 0.48389 0.99696 0.0
O276 O 0.7796 0.53891 1.00057 0.0
O277 O 0.73318 0.53455 1.01033 0.0
C278 C 0.76049 0.46696 0.07539 0.0
C279 C 0.7538 0.54695 0.99491 0.0
H280 H 0.2178 0.28411 0.39604 0.0
H281 H 0.05423 0.33247 0.41527 0.0
H282 H 0.15591 0.28021 0.31579 0.0
H283 H 0.1096 0.31445 0.499 0.0
H284 H 0.09538 0.32777 0.37655 0.0
H285 H 0.18239 0.30895 0.43151 0.0
C286 C 0.19692 0.28882 0.38567 0.0
C287 C 0.18972 0.2795 0.35302 0.0
C288 C 0.09872 0.32568 0.40348 0.0
C289 C 0.14916 0.30821 0.39349 0.0
C290 C 0.07535 0.32872 0.42554 0.0
C291 C 0.07882 0.32425 0.46024 0.0
C292 C 0.12561 0.31788 0.41633 0.0
C293 C 0.1063 0.31848 0.47237 0.0
C294 C 0.17676 0.30309 0.40592 0.0
C295 C 0.16254 0.28691 0.34072 0.0
N296 N 0.12864 0.31516 0.45041 0.0
N297 N 0.14315 0.30045 0.36111 0.0
H298 H 0.77761 0.20852 0.38506 0.0
H299 H 0.71517 0.05634 0.43557 0.0
H300 H 0.76492 0.14433 0.3074 0.0
H301 H 0.78598 0.0943 0.4889 0.0
H302 H 0.71996 0.09393 0.39196 0.0
H303 H 0.76602 0.1723 0.42781 0.0
C304 C 0.77209 0.18696 0.37687 0.0
C305 C 0.77304 0.17936 0.34245 0.0
C306 C 0.73431 0.09394 0.41332 0.0
C307 C 0.75882 0.13825 0.39137 0.0
C308 C 0.73162 0.07266 0.4381 0.0
C309 C 0.75035 0.07227 0.46564 0.0
C310 C 0.75519 0.11539 0.41688 0.0
C311 C 0.77133 0.09377 0.46786 0.0
C312 C 0.76544 0.1664 0.40133 0.0
C313 C 0.76455 0.15128 0.3335 0.0
N314 N 0.773 0.11471 0.44394 0.0
N315 N 0.75794 0.13163 0.35787 0.0
H316 H 0.80671 0.72886 0.3718 0.0
H317 H 0.94513 0.80288 0.45057 0.0
H318 H 0.8321 0.81622 0.34878 0.0
H319 H 0.92923 0.71123 0.45375 0.0
H320 H 0.90375 0.80851 0.41349 0.0
H321 H 0.85195 0.72181 0.40093 0.0
C322 C 0.82198 0.74642 0.37223 0.0
C323 C 0.81536 0.77327 0.35791 0.0
C324 C 0.90946 0.78715 0.42217 0.0
C325 C 0.86705 0.76554 0.39228 0.0
C326 C 0.933 0.78395 0.44346 0.0
C327 C 0.94062 0.75656 0.45545 0.0
C328 C 0.89326 0.76284 0.41307 0.0
C329 C 0.92417 0.73278 0.44523 0.0
C330 C 0.84777 0.74245 0.38922 0.0
C331 C 0.83597 0.79533 0.35998 0.0
N332 N 0.90122 0.7365 0.42485 0.0
N333 N 0.8607 0.79108 0.37716 0.0
H334 H 0.23762 0.8481 0.29999 0.0
H335 H 0.22522 0.90861 0.48316 0.0
H336 H 0.23917 0.79016 0.38548 0.0
H337 H 0.28401 0.94938 0.41333 0.0
H338 H 0.22137 0.86757 0.44428 0.0
H339 H 0.2482 0.88813 0.33798 0.0
C340 C 0.24069 0.84352 0.32651 0.0
C341 C 0.2371 0.81547 0.33941 0.0
C342 C 0.23507 0.88556 0.43758 0.0
C343 C 0.2479 0.86164 0.38301 0.0
C344 C 0.23706 0.90902 0.45948 0.0
C345 C 0.2549 0.93233 0.45129 0.0
C346 C 0.2504 0.88585 0.40693 0.0
C347 C 0.27006 0.93172 0.42049 0.0
C348 C 0.24646 0.86653 0.34817 0.0
C349 C 0.24082 0.81138 0.37433 0.0
N350 N 0.26722 0.90893 0.39914 0.0
N351 N 0.24545 0.83427 0.39498 0.0
H352 H 0.20789 0.71718 0.65251 0.0
H353 H 0.07151 0.79978 0.58065 0.0
H354 H 0.19008 0.80652 0.67533 0.0
H355 H 0.08138 0.70725 0.57843 0.0
H356 H 0.11485 0.80321 0.61501 0.0
H357 H 0.16129 0.71333 0.62584 0.0
C358 C 0.19405 0.73591 0.65252 0.0
C359 C 0.20317 0.76227 0.66624 0.0
C360 C 0.10738 0.78216 0.60715 0.0
C361 C 0.14977 0.75815 0.63459 0.0
C362 C 0.08268 0.7802 0.58746 0.0
C363 C 0.07281 0.7532 0.57646 0.0
C364 C 0.12243 0.75698 0.61564 0.0
C365 C 0.08815 0.72855 0.5862 0.0
C366 C 0.16744 0.73374 0.63693 0.0
C367 C 0.18429 0.78588 0.66461 0.0
N368 N 0.11222 0.73106 0.60498 0.0
N369 N 0.15864 0.78333 0.64881 0.0
H370 H 0.2608 0.1769 0.6925 0.0
H371 H 0.21918 0.02652 0.61506 0.0
H372 H 0.20802 0.11582 0.74626 0.0
H373 H 0.29606 0.07134 0.58399 0.0
H374 H 0.21452 0.0594 0.66312 0.0
H375 H 0.27529 0.13864 0.65303 0.0
C376 C 0.2531 0.15513 0.69654 0.0
C377 C 0.23358 0.14918 0.72267 0.0
C378 C 0.23256 0.06186 0.64596 0.0
C379 C 0.24883 0.10588 0.67713 0.0
C380 C 0.23508 0.04327 0.61836 0.0
C381 C 0.2579 0.04638 0.59536 0.0
C382 C 0.25272 0.08401 0.65024 0.0
C383 C 0.27808 0.06826 0.60107 0.0
C384 C 0.26113 0.1334 0.67396 0.0
C385 C 0.22347 0.12096 0.72658 0.0
N386 N 0.27482 0.08649 0.62773 0.0
N387 N 0.23083 0.10038 0.70365 0.0
H388 H 0.82721 0.30829 0.69735 0.0
H389 H 0.92656 0.26108 0.54282 0.0
H390 H 0.79994 0.25241 0.61644 0.0
H391 H 0.94317 0.34002 0.59704 0.0
H392 H 0.88188 0.25558 0.57397 0.0
H393 H 0.87122 0.31894 0.66497 0.0
C394 C 0.83036 0.29835 0.67282 0.0
C395 C 0.80999 0.27895 0.65996 0.0
C396 C 0.89513 0.27423 0.57906 0.0
C397 C 0.86025 0.29086 0.62313 0.0
C398 C 0.92078 0.27733 0.56135 0.0
C399 C 0.9387 0.30102 0.5674 0.0
C400 C 0.88725 0.29472 0.60353 0.0
C401 C 0.9299 0.32149 0.59156 0.0
C402 C 0.85547 0.30443 0.65443 0.0
C403 C 0.8153 0.26674 0.62802 0.0
N404 N 0.90482 0.31774 0.60906 0.0
N405 N 0.8399 0.27271 0.61095 0.0
H406 H 0.8043 0.80987 0.64667 0.0
H407 H 0.71297 0.95091 0.62364 0.0
H408 H 0.74334 0.83576 0.72382 0.0
H409 H 0.79903 0.94232 0.58405 0.0
H410 H 0.72039 0.90744 0.65777 0.0
H411 H 0.79934 0.85662 0.62023 0.0
C412 C 0.79024 0.82548 0.6586 0.0
C413 C 0.7747 0.81877 0.68821 0.0
C414 C 0.7377 0.91533 0.64189 0.0
C415 C 0.76804 0.87242 0.65664 0.0
C416 C 0.73349 0.94004 0.62234 0.0
C417 C 0.75539 0.95017 0.60082 0.0
C418 C 0.76374 0.90036 0.63932 0.0
C419 C 0.78156 0.93531 0.60025 0.0
C420 C 0.78727 0.85221 0.64315 0.0
C421 C 0.75574 0.83977 0.70108 0.0
N422 N 0.78486 0.91095 0.61883 0.0
N423 N 0.75279 0.86561 0.68508 0.0
H424 H 0.81123 0.69634 0.67348 0.0
H425 H 0.93553 0.6632 0.58155 0.0
H426 H 0.86231 0.7612 0.72248 0.0
H427 H 0.96121 0.7482 0.6136 0.0
H428 H 0.89721 0.66393 0.62449 0.0
H429 H 0.85388 0.67952 0.64316 0.0
C430 C 0.83168 0.7063 0.67885 0.0
C431 C 0.83318 0.73038 0.70031 0.0
C432 C 0.91118 0.68243 0.62213 0.0
C433 C 0.88226 0.71147 0.66541 0.0
C434 C 0.93328 0.68187 0.59783 0.0
C435 C 0.95127 0.70588 0.59357 0.0
C436 C 0.90724 0.70718 0.64232 0.0
C437 C 0.94753 0.72941 0.61551 0.0
C438 C 0.85614 0.69674 0.66137 0.0
C439 C 0.86014 0.74278 0.70587 0.0
N440 N 0.92593 0.7295 0.63869 0.0
N441 N 0.88343 0.73356 0.68807 0.0
H442 H 0.32377 0.79561 0.63654 0.0
H443 H 0.30618 0.9659 0.61713 0.0
H444 H 0.2673 0.84903 0.69634 0.0
H445 H 0.34364 0.91232 0.53958 0.0
H446 H 0.30585 0.92482 0.65563 0.0
H447 H 0.34365 0.83923 0.6098 0.0
C448 C 0.31616 0.81659 0.64466 0.0
C449 C 0.29383 0.81887 0.66851 0.0
C450 C 0.31488 0.92211 0.63052 0.0
C451 C 0.31628 0.86857 0.6382 0.0
C452 C 0.31539 0.94565 0.6087 0.0
C453 C 0.32513 0.94242 0.57533 0.0
C454 C 0.32364 0.89494 0.61867 0.0
C455 C 0.33632 0.91567 0.56532 0.0
C456 C 0.32736 0.84139 0.6293 0.0
C457 C 0.28441 0.84643 0.67794 0.0
N458 N 0.33477 0.8927 0.58675 0.0
N459 N 0.29554 0.87016 0.66261 0.0
H460 H 0.16738 0.26357 0.72058 0.0
H461 H 0.05363 0.209 0.58532 0.0
H462 H 0.1363 0.17632 0.71387 0.0
H463 H 0.07099 0.29935 0.60147 0.0
H464 H 0.08324 0.1974 0.63379 0.0
H465 H 0.13085 0.27842 0.6795 0.0
C466 C 0.15239 0.24777 0.71108 0.0
C467 C 0.15477 0.21873 0.72037 0.0
C468 C 0.0805 0.21981 0.62693 0.0
C469 C 0.11366 0.23518 0.67319 0.0
C470 C 0.06366 0.22643 0.59909 0.0
C471 C 0.05991 0.25517 0.58917 0.0
C472 C 0.09404 0.24203 0.64494 0.0
C473 C 0.07333 0.27686 0.6082 0.0
C474 C 0.13174 0.25613 0.6875 0.0
C475 C 0.13515 0.19891 0.70714 0.0
N476 N 0.08999 0.26985 0.63502 0.0
N477 N 0.11568 0.20743 0.684 0.0
H478 H 0.77104 0.18474 0.70562 0.0
H479 H 0.66561 0.09299 0.58909 0.0
H480 H 0.69434 0.22054 0.66282 0.0
H481 H 0.74493 0.06181 0.63037 0.0
H482 H 0.67036 0.13699 0.62355 0.0
H483 H 0.75644 0.13697 0.68649 0.0
C484 C 0.75083 0.18238 0.69265 0.0
C485 C 0.73398 0.2066 0.68559 0.0
C486 C 0.68643 0.12025 0.62547 0.0
C487 C 0.71727 0.15193 0.66279 0.0
C488 C 0.6836 0.09508 0.606 0.0
C489 C 0.70506 0.07387 0.60663 0.0
C490 C 0.71077 0.12401 0.64576 0.0
C491 C 0.72805 0.07776 0.62877 0.0
C492 C 0.74249 0.15511 0.6816 0.0
C493 C 0.70791 0.20235 0.66882 0.0
N494 N 0.7304 0.10235 0.64712 0.0
N495 N 0.70055 0.1756 0.65748 0.0
H496 H 0.88068 0.20997 0.29254 0.0
H497 H 0.94674 0.31186 0.43527 0.0
H498 H 0.83384 0.27872 0.34105 0.0
H499 H 0.97784 0.22618 0.41317 0.0
H500 H 0.91196 0.30691 0.3898 0.0
H501 H 0.92332 0.22337 0.32495 0.0
C502 C 0.87978 0.22858 0.3091 0.0
C503 C 0.854 0.24353 0.31403 0.0
C504 C 0.92663 0.28935 0.39469 0.0
C505 C 0.90212 0.25849 0.35156 0.0
C506 C 0.94652 0.29213 0.4206 0.0
C507 C 0.96503 0.26924 0.42832 0.0
C508 C 0.9254 0.26362 0.37608 0.0
C509 C 0.96377 0.24424 0.40836 0.0
C510 C 0.90392 0.23597 0.32786 0.0
C511 C 0.85353 0.26696 0.33638 0.0
N512 N 0.94418 0.24203 0.38325 0.0
N513 N 0.8772 0.27362 0.35455 0.0
H514 H 0.7605 0.86521 0.33251 0.0
H515 H 0.66615 0.93142 0.48386 0.0
H516 H 0.69648 0.81582 0.38605 0.0
H517 H 0.73904 0.97256 0.43671 0.0
H518 H 0.66937 0.89254 0.44135 0.0
H519 H 0.74476 0.90843 0.36259 0.0
C520 C 0.74268 0.86366 0.35016 0.0
C521 C 0.72987 0.83695 0.35697 0.0
C522 C 0.68433 0.91036 0.44008 0.0
C523 C 0.71214 0.88624 0.39237 0.0
C524 C 0.68239 0.93257 0.46418 0.0
C525 C 0.70257 0.95501 0.46398 0.0
C526 C 0.70637 0.91095 0.41554 0.0
C527 C 0.7233 0.95544 0.43809 0.0
C528 C 0.73377 0.88829 0.36751 0.0
C529 C 0.70684 0.83608 0.38005 0.0
N530 N 0.72475 0.93373 0.41516 0.0
N531 N 0.69898 0.8603 0.3974 0.0
H532 H 0.19587 0.71436 0.3632 0.0
H533 H 0.03504 0.73826 0.40929 0.0
H534 H 0.13648 0.75039 0.29209 0.0
H535 H 0.08373 0.67137 0.45774 0.0
H536 H 0.07124 0.74074 0.36443 0.0
H537 H 0.1554 0.69541 0.39632 0.0
C538 C 0.17428 0.71753 0.3541 0.0
C539 C 0.16943 0.73395 0.32494 0.0
C540 C 0.07382 0.72508 0.38444 0.0
C541 C 0.1231 0.71317 0.36313 0.0
C542 C 0.05318 0.72371 0.41008 0.0
C543 C 0.05651 0.70464 0.4372 0.0
C544 C 0.09848 0.70787 0.38642 0.0
C545 C 0.08038 0.68626 0.43711 0.0
C546 C 0.15121 0.70678 0.37301 0.0
C547 C 0.14111 0.73769 0.31431 0.0
N548 N 0.10084 0.68877 0.41246 0.0
N549 N 0.11898 0.72793 0.33379 0.0
H550 H 0.28822 0.18543 0.32933 0.0
H551 H 0.23498 0.06155 0.45557 0.0
H552 H 0.20562 0.18328 0.37901 0.0
H553 H 0.32486 0.07345 0.43278 0.0
H554 H 0.22382 0.10307 0.42107 0.0
H555 H 0.30205 0.14184 0.361 0.0
C556 C 0.27306 0.1758 0.34685 0.0
C557 C 0.24585 0.18818 0.35186 0.0
C558 C 0.24603 0.09671 0.42351 0.0
C559 C 0.26131 0.13844 0.38764 0.0
C560 C 0.25248 0.07282 0.44322 0.0
C561 C 0.28099 0.06394 0.44736 0.0
C562 C 0.26814 0.1121 0.40743 0.0
C563 C 0.30259 0.07957 0.43042 0.0
C564 C 0.28097 0.15107 0.36495 0.0
C565 C 0.22698 0.17484 0.37478 0.0
N566 N 0.29573 0.10296 0.41118 0.0
N567 N 0.23503 0.15078 0.39164 0.0
H568 H 0.70167 0.79174 0.8795 0.0
H569 H 0.5359 0.79011 0.90092 0.0
H570 H 0.6456 0.76815 0.79814 0.0
H571 H 0.58898 0.84246 0.96488 0.0
H572 H 0.57515 0.78683 0.85981 0.0
H573 H 0.66141 0.81564 0.90814 0.0
C574 C 0.68102 0.79235 0.86724 0.0
C575 C 0.67686 0.77782 0.83654 0.0
C576 C 0.57809 0.79971 0.88235 0.0
C577 C 0.63057 0.8044 0.86951 0.0
C578 C 0.55565 0.80164 0.90575 0.0
C579 C 0.55929 0.81669 0.93611 0.0
C580 C 0.60475 0.81208 0.88992 0.0
C581 C 0.58534 0.83091 0.94152 0.0
C582 C 0.65804 0.80595 0.88359 0.0
C583 C 0.64972 0.77916 0.82173 0.0
N584 N 0.60738 0.82771 0.91899 0.0
N585 N 0.62745 0.79161 0.83871 0.0
H586 H 0.25556 0.636 0.77811 0.0
H587 H 0.17074 0.58329 0.94366 0.0
H588 H 0.22844 0.69381 0.85755 0.0
H589 H 0.23172 0.53156 0.88808 0.0
H590 H 0.17741 0.62221 0.90195 0.0
H591 H 0.23181 0.59618 0.80787 0.0
C592 C 0.24382 0.64047 0.80127 0.0
C593 C 0.24412 0.66816 0.81555 0.0
C594 C 0.18874 0.60203 0.89853 0.0
C595 C 0.21718 0.62276 0.8498 0.0
C596 C 0.18478 0.57982 0.92209 0.0
C597 C 0.20078 0.55434 0.91918 0.0
C598 C 0.2084 0.59835 0.87173 0.0
C599 C 0.21908 0.55098 0.89117 0.0
C600 C 0.2305 0.61772 0.81836 0.0
C601 C 0.22888 0.67269 0.84588 0.0
N602 N 0.2225 0.57277 0.86861 0.0
N603 N 0.21625 0.65016 0.86221 0.0
H604 H 0.29617 0.17393 0.892 0.0
H605 H 0.45989 0.21349 0.9078 0.0
H606 H 0.34248 0.22818 0.82208 0.0
H607 H 0.41847 0.15163 0.97302 0.0
H608 H 0.41933 0.21113 0.86964 0.0
H609 H 0.34189 0.15741 0.91517 0.0
C610 C 0.316 0.18161 0.8808 0.0
C611 C 0.31563 0.20272 0.85542 0.0
C612 C 0.41916 0.19759 0.8919 0.0
C613 C 0.36785 0.18445 0.88214 0.0
C614 C 0.44238 0.19892 0.91365 0.0
C615 C 0.44232 0.18289 0.9436 0.0
C616 C 0.39521 0.18073 0.90063 0.0
C617 C 0.41924 0.16428 0.95007 0.0
C618 C 0.34209 0.17236 0.89419 0.0
C619 C 0.34187 0.21218 0.84197 0.0
N620 N 0.39623 0.16418 0.9291 0.0
N621 N 0.36686 0.20335 0.85584 0.0
H622 H 0.7711 0.31728 0.87762 0.0
H623 H 0.77077 0.48141 0.92457 0.0
H624 H 0.75048 0.3831 0.80498 0.0
H625 H 0.8254 0.42188 0.97701 0.0
H626 H 0.76401 0.44562 0.87994 0.0
H627 H 0.79225 0.35434 0.91406 0.0
C628 C 0.77152 0.33946 0.86908 0.0
C629 C 0.75893 0.34714 0.83827 0.0
C630 C 0.77797 0.4405 0.90079 0.0
C631 C 0.78257 0.38963 0.88004 0.0
C632 C 0.78184 0.46093 0.92621 0.0
C633 C 0.79883 0.45457 0.95423 0.0
C634 C 0.79041 0.41308 0.90391 0.0
C635 C 0.81242 0.42764 0.95551 0.0
C636 C 0.78364 0.36056 0.88983 0.0
C637 C 0.76009 0.37617 0.82839 0.0
N638 N 0.80748 0.40759 0.93099 0.0
N639 N 0.77118 0.3964 0.84946 0.0
H640 H 0.67594 0.19808 0.20381 0.0
H641 H 0.57103 0.25136 0.06398 0.0
H642 H 0.70174 0.25222 0.12038 0.0
H643 H 0.56332 0.16226 0.09441 0.0
H644 H 0.61504 0.25512 0.09551 0.0
H645 H 0.63168 0.18578 0.17288 0.0
C646 C 0.6725 0.20699 0.17889 0.0
C647 C 0.69208 0.22678 0.16494 0.0
C648 C 0.60374 0.23471 0.09537 0.0
C649 C 0.64203 0.21322 0.13014 0.0
C650 C 0.57842 0.23254 0.07754 0.0
C651 C 0.56341 0.20637 0.07635 0.0
C652 C 0.61426 0.21072 0.11272 0.0
C653 C 0.57433 0.18279 0.09453 0.0
C654 C 0.64736 0.2 0.16138 0.0
C655 C 0.6868 0.23757 0.13251 0.0
N656 N 0.5992 0.18552 0.11221 0.0
N657 N 0.66215 0.23104 0.11654 0.0
H658 H 0.75414 0.65027 0.24574 0.0
H659 H 0.83492 0.59182 0.07963 0.0
H660 H 0.78552 0.70576 0.16635 0.0
H661 H 0.77469 0.54245 0.13906 0.0
H662 H 0.83033 0.63165 0.12062 0.0
H663 H 0.77551 0.60883 0.21637 0.0
C664 C 0.76628 0.65384 0.22267 0.0
C665 C 0.76789 0.68142 0.2083 0.0
C666 C 0.81866 0.61181 0.12502 0.0
C667 C 0.7921 0.63416 0.17441 0.0
C668 C 0.82146 0.58906 0.10183 0.0
C669 C 0.80504 0.56398 0.106 0.0
C670 C 0.7997 0.6091 0.15269 0.0
C671 C 0.78758 0.56156 0.1349 0.0
C672 C 0.77825 0.63017 0.20576 0.0
C673 C 0.7836 0.68477 0.17808 0.0
N674 N 0.78524 0.58387 0.15701 0.0
N675 N 0.79485 0.66139 0.16194 0.0
H676 H 0.35138 0.73768 0.20413 0.0
H677 H 0.42566 0.84285 0.06921 0.0
H678 H 0.306 0.80658 0.15503 0.0
H679 H 0.4625 0.76411 0.10703 0.0
H680 H 0.38547 0.83706 0.1094 0.0
H681 H 0.39604 0.75487 0.17867 0.0
C682 C 0.35099 0.75684 0.18849 0.0
C683 C 0.32499 0.77057 0.18139 0.0
C684 C 0.40262 0.82134 0.10918 0.0
C685 C 0.37595 0.79008 0.15144 0.0
C686 C 0.42558 0.8247 0.08639 0.0
C687 C 0.44723 0.80373 0.08453 0.0
C688 C 0.4016 0.79703 0.13039 0.0
C689 C 0.44606 0.78058 0.10727 0.0
C690 C 0.37644 0.76658 0.17381 0.0
C691 C 0.32564 0.79541 0.16114 0.0
N692 N 0.4236 0.77778 0.12902 0.0
N693 N 0.35068 0.80412 0.14636 0.0
H694 H 0.26055 0.36205 0.20373 0.0
H695 H 0.16233 0.42296 0.05566 0.0
H696 H 0.19366 0.31182 0.15789 0.0
H697 H 0.23471 0.467 0.09869 0.0
H698 H 0.16624 0.38588 0.09998 0.0
H699 H 0.24388 0.40449 0.17335 0.0
C700 C 0.24197 0.36017 0.18767 0.0
C701 C 0.22858 0.33346 0.18307 0.0
C702 C 0.1809 0.40397 0.1 0.0
C703 C 0.2097 0.38177 0.14737 0.0
C704 C 0.17855 0.42516 0.07488 0.0
C705 C 0.19845 0.4478 0.07336 0.0
C706 C 0.20313 0.40575 0.12373 0.0
C707 C 0.21918 0.44964 0.09868 0.0
C708 C 0.23248 0.38435 0.17019 0.0
C709 C 0.20451 0.33212 0.16209 0.0
N710 N 0.22111 0.42883 0.12255 0.0
N711 N 0.19611 0.35586 0.1445 0.0
H712 H 0.30382 0.22326 0.171 0.0
H713 H 0.43881 0.29277 0.07798 0.0
H714 H 0.33046 0.31136 0.1868 0.0
H715 H 0.42534 0.20085 0.08414 0.0
H716 H 0.39906 0.3 0.11775 0.0
H717 H 0.34849 0.2142 0.14021 0.0
C718 C 0.31925 0.24059 0.16863 0.0
C719 C 0.31312 0.26823 0.18133 0.0
C720 C 0.40494 0.27823 0.11061 0.0
C721 C 0.36409 0.25813 0.14518 0.0
C722 C 0.42757 0.27409 0.08778 0.0
C723 C 0.43535 0.24616 0.07755 0.0
C724 C 0.38969 0.2543 0.12303 0.0
C725 C 0.42008 0.22277 0.09127 0.0
C726 C 0.3447 0.23543 0.15075 0.0
C727 C 0.33391 0.28988 0.17687 0.0
N728 N 0.39783 0.22738 0.11304 0.0
N729 N 0.35825 0.28446 0.15884 0.0
H730 H 0.7959 0.30506 0.17138 0.0
H731 H 0.71347 0.44464 0.10871 0.0
H732 H 0.70998 0.32634 0.20397 0.0
H733 H 0.80477 0.4331 0.09649 0.0
H734 H 0.71216 0.40239 0.14572 0.0
H735 H 0.80076 0.35336 0.14747 0.0
C736 C 0.77832 0.32012 0.17435 0.0
C737 C 0.75234 0.31144 0.18932 0.0
C738 C 0.73252 0.40929 0.13519 0.0
C739 C 0.75743 0.36654 0.16099 0.0
C740 C 0.73325 0.43334 0.11391 0.0
C741 C 0.75921 0.44234 0.09921 0.0
C742 C 0.75788 0.39392 0.14152 0.0
C743 C 0.78421 0.42692 0.10708 0.0
C744 C 0.78099 0.34765 0.16034 0.0
C745 C 0.7302 0.3319 0.19202 0.0
N746 N 0.78287 0.40335 0.12739 0.0
N747 N 0.73305 0.35828 0.17747 0.0
H748 H 0.71328 0.74829 0.14196 0.0
H749 H 0.55459 0.79779 0.10911 0.0
H750 H 0.65292 0.75108 0.22549 0.0
H751 H 0.59421 0.73211 0.04722 0.0
H752 H 0.59468 0.79404 0.14891 0.0
H753 H 0.67371 0.75623 0.10312 0.0
C754 C 0.69187 0.75067 0.15233 0.0
C755 C 0.68662 0.74831 0.18731 0.0
C756 C 0.59448 0.78057 0.12654 0.0
C757 C 0.64148 0.75868 0.14273 0.0
C758 C 0.57178 0.78269 0.10389 0.0
C759 C 0.57112 0.76508 0.07504 0.0
C760 C 0.61705 0.76146 0.11955 0.0
C761 C 0.59384 0.74585 0.06936 0.0
C762 C 0.66937 0.75535 0.13004 0.0
C763 C 0.65835 0.75286 0.19895 0.0
N764 N 0.61611 0.74477 0.09124 0.0
N765 N 0.63684 0.75781 0.17671 0.0
H766 H 0.30397 0.6674 0.1804 0.0
H767 H 0.20154 0.57551 0.06048 0.0
H768 H 0.21929 0.69463 0.15107 0.0
H769 H 0.2926 0.56046 0.06725 0.0
H770 H 0.20598 0.61504 0.1007 0.0
H771 H 0.29815 0.62373 0.14642 0.0
C772 C 0.28407 0.66413 0.16708 0.0
C773 C 0.26219 0.68495 0.16843 0.0
C774 C 0.22499 0.60308 0.09345 0.0
C775 C 0.25537 0.63488 0.12975 0.0
C776 C 0.22251 0.58047 0.07046 0.0
C777 C 0.24679 0.56473 0.06028 0.0
C778 C 0.25193 0.60997 0.10663 0.0
C779 C 0.27335 0.57215 0.0742 0.0
C780 C 0.28079 0.63919 0.14771 0.0
C781 C 0.23666 0.67918 0.15117 0.0
N782 N 0.27523 0.59427 0.09668 0.0
N783 N 0.23405 0.6548 0.13241 0.0
H784 H 0.33534 0.77097 0.81872 0.0
H785 H 0.44811 0.70795 0.95125 0.0
H786 H 0.33508 0.68327 0.85485 0.0
H787 H 0.43874 0.799 0.93177 0.0
H788 H 0.40919 0.69824 0.91206 0.0
H789 H 0.37576 0.78149 0.85619 0.0
C790 C 0.34378 0.75398 0.83452 0.0
C791 C 0.33161 0.72632 0.83399 0.0
C792 C 0.41564 0.72036 0.91633 0.0
C793 C 0.3778 0.73805 0.87658 0.0
C794 C 0.43794 0.72591 0.93867 0.0
C795 C 0.44668 0.75434 0.94494 0.0
C796 C 0.40202 0.74336 0.89988 0.0
C797 C 0.43264 0.77674 0.92784 0.0
C798 C 0.36674 0.75999 0.85594 0.0
C799 C 0.34339 0.70505 0.85493 0.0
N800 N 0.41103 0.77078 0.90608 0.0
N801 N 0.36579 0.71135 0.87527 0.0
H802 H 0.29458 0.28895 0.90196 0.0
H803 H 0.20793 0.4341 0.91476 0.0
H804 H 0.22967 0.30993 0.82876 0.0
H805 H 0.29394 0.42532 0.95252 0.0
H806 H 0.21361 0.38829 0.88458 0.0
H807 H 0.29293 0.33812 0.92251 0.0
C808 C 0.28032 0.30393 0.88962 0.0
C809 C 0.26251 0.29506 0.86306 0.0
C810 C 0.23133 0.39661 0.89913 0.0
C811 C 0.2598 0.35163 0.88783 0.0
C812 C 0.2281 0.42268 0.91645 0.0
C813 C 0.25044 0.43342 0.93641 0.0
C814 C 0.25686 0.38095 0.90233 0.0
C815 C 0.27615 0.41783 0.9375 0.0
C816 C 0.27928 0.33208 0.90168 0.0
C817 C 0.24365 0.31554 0.8494 0.0
N818 N 0.27851 0.39218 0.9211 0.0
N819 N 0.24261 0.34282 0.86215 0.0
H820 H 0.64336 0.30343 0.80393 0.0
H821 H 0.58096 0.20823 0.95525 0.0
H822 H 0.69845 0.25891 0.87343 0.0
H823 H 0.5385 0.28463 0.91893 0.0
H824 H 0.62135 0.21833 0.9169 0.0
H825 H 0.60164 0.28799 0.83736 0.0
C826 C 0.64659 0.28996 0.82591 0.0
C827 C 0.67432 0.28235 0.83598 0.0
C828 C 0.60307 0.23272 0.91725 0.0
C829 C 0.62683 0.26472 0.8742 0.0
C830 C 0.57999 0.22693 0.93893 0.0
C831 C 0.55642 0.24571 0.94032 0.0
C832 C 0.60225 0.2571 0.89633 0.0
C833 C 0.55635 0.26972 0.9188 0.0
C834 C 0.62285 0.28139 0.84507 0.0
C835 C 0.67739 0.26524 0.86494 0.0
N836 N 0.57888 0.27468 0.89757 0.0
N837 N 0.6539 0.25692 0.88305 0.0
H838 H 0.77345 0.68043 0.84264 0.0
H839 H 0.7028 0.57328 0.97923 0.0
H840 H 0.68528 0.68518 0.87585 0.0
H841 H 0.79308 0.5743 0.95452 0.0
H842 H 0.69545 0.61258 0.93899 0.0
H843 H 0.78062 0.63949 0.88087 0.0
C844 C 0.75562 0.67283 0.8579 0.0
C845 C 0.72886 0.68648 0.85636 0.0
C846 C 0.71687 0.60417 0.94238 0.0
C847 C 0.7368 0.63971 0.90008 0.0
C848 C 0.72106 0.58171 0.96534 0.0
C849 C 0.7486 0.5705 0.97039 0.0
C850 C 0.74036 0.61546 0.9242 0.0
C851 C 0.77147 0.5823 0.9516 0.0
C852 C 0.75972 0.64955 0.87981 0.0
C853 C 0.70646 0.67573 0.87673 0.0
N854 N 0.76684 0.60409 0.92939 0.0
N855 N 0.71094 0.65306 0.8977 0.0
loop_
_geom_bond_atom_site_label_1
_geom_bond_atom_site_label_2
_geom_bond_distance
_geom_bond_site_symmetry_2
_ccdc_geom_bond_type
H0 C8 0.930 . S
H1 C11 0.930 . S
H2 C13 0.930 . S
H3 C14 0.970 . S
H4 C14 0.970 . S
H5 C16 0.930 . S
H6 C18 0.930 . S
H7 C20 0.930 . S
C8 H0 0.930 . S
C8 C9 1.382 . S
C8 C10 1.426 . S
C9 C8 1.382 . S
C9 C13 1.389 . S
C10 C8 1.426 . S
C10 C11 1.375 . S
C10 C14 1.532 . S
C11 H1 0.930 . S
C11 C10 1.375 . S
C11 C12 1.416 . S
C12 C11 1.416 . S
C12 C13 1.371 . S
C13 H2 0.930 . S
C13 C9 1.389 . S
C13 C12 1.371 . S
C14 H3 0.970 . S
C14 H4 0.970 . S
C14 C10 1.532 . S
C14 C15 1.499 . S
C15 C14 1.499 . S
C15 C16 1.370 . S
C15 C20 1.415 . S
C16 H5 0.930 . S
C16 C15 1.370 . S
C16 C17 1.407 . S
C17 C16 1.407 . S
C17 C18 1.365 . S
C18 H6 0.930 . S
C18 C17 1.365 . S
C18 C19 1.393 . S
C19 C18 1.393 . S
C19 C20 1.387 . S
C20 H7 0.930 . S
C20 C15 1.415 . S
C20 C19 1.387 . S
H21 C29 0.930 . S
H22 C32 0.930 . S
H23 C34 0.930 . S
H24 C35 0.970 . S
H25 C35 0.970 . S
H26 C37 0.930 . S
H27 C39 0.930 . S
H28 C41 0.930 . S
C29 H21 0.930 . S
C29 C30 1.382 . S
C29 C31 1.426 . S
C30 C29 1.382 . S
C30 C34 1.389 . S
C31 C29 1.426 . S
C31 C32 1.375 . S
C31 C35 1.532 . S
C32 H22 0.930 . S
C32 C31 1.375 . S
C32 C33 1.416 . S
C33 C32 1.416 . S
C33 C34 1.371 . S
C34 H23 0.930 . S
C34 C30 1.389 . S
C34 C33 1.371 . S
C35 H24 0.970 . S
C35 H25 0.970 . S
C35 C31 1.532 . S
C35 C36 1.499 . S
C36 C35 1.499 . S
C36 C37 1.370 . S
C36 C41 1.415 . S
C37 H26 0.930 . S
C37 C36 1.370 . S
C37 C38 1.407 . S
C38 C37 1.407 . S
C38 C39 1.365 . S
C39 H27 0.930 . S
C39 C38 1.365 . S
C39 C40 1.393 . S
C40 C39 1.393 . S
C40 C41 1.387 . S
C41 H28 0.930 . S
C41 C36 1.415 . S
C41 C40 1.387 . S
H42 C50 0.930 . S
H43 C53 0.930 . S
H44 C55 0.930 . S
H45 C56 0.970 . S
H46 C56 0.970 . S
H47 C58 0.930 . S
H48 C60 0.930 . S
H49 C62 0.930 . S
C50 H42 0.930 . S
C50 C51 1.382 . S
C50 C52 1.426 . S
C51 C50 1.382 . S
C51 C55 1.389 . S
C52 C50 1.426 . S
C52 C53 1.375 . S
C52 C56 1.532 . S
C53 H43 0.930 . S
C53 C52 1.375 . S
C53 C54 1.416 . S
C54 C53 1.416 . S
C54 C55 1.371 . S
C55 H44 0.930 . S
C55 C51 1.389 . S
C55 C54 1.371 . S
C56 H45 0.970 . S
C56 H46 0.970 . S
C56 C52 1.532 . S
C56 C57 1.499 . S
C57 C56 1.499 . S
C57 C58 1.370 . S
C57 C62 1.415 . S
C58 H47 0.930 . S
C58 C57 1.370 . S
C58 C59 1.407 . S
C59 C58 1.407 . S
C59 C60 1.365 . S
C60 H48 0.930 . S
C60 C59 1.365 . S
C60 C61 1.393 . S
C61 C60 1.393 . S
C61 C62 1.387 . S
C62 H49 0.930 . S
C62 C57 1.415 . S
C62 C61 1.387 . S
H63 C71 0.930 . S
H64 C74 0.930 . S
H65 C76 0.930 . S
H66 C77 0.970 . S
H67 C77 0.970 . S
H68 C79 0.930 . S
H69 C81 0.930 . S
H70 C83 0.930 . S
C71 H63 0.930 . S
C71 C72 1.382 . S
C71 C73 1.426 . S
C72 C71 1.382 . S
C72 C76 1.389 . S
C73 C71 1.426 . S
C73 C74 1.375 . S
C73 C77 1.532 . S
C74 H64 0.930 . S
C74 C73 1.375 . S
C74 C75 1.416 . S
C75 C74 1.416 . S
C75 C76 1.371 . S
C76 H65 0.930 . S
C76 C72 1.389 . S
C76 C75 1.371 . S
C77 H66 0.970 . S
C77 H67 0.970 . S
C77 C73 1.532 . S
C77 C78 1.499 . S
C78 C77 1.499 . S
C78 C79 1.370 . S
C78 C83 1.415 . S
C79 H68 0.930 . S
C79 C78 1.370 . S
C79 C80 1.407 . S
C80 C79 1.407 . S
C80 C81 1.365 . S
C81 H69 0.930 . S
C81 C80 1.365 . S
C81 C82 1.393 . S
C82 C81 1.393 . S
C82 C83 1.387 . S
C83 H70 0.930 . S
C83 C78 1.415 . S
C83 C82 1.387 . S
H84 C92 0.930 . S
H85 C95 0.930 . S
H86 C97 0.930 . S
H87 C98 0.970 . S
H88 C98 0.970 . S
H89 C100 0.930 . S
H90 C102 0.930 . S
H91 C104 0.930 . S
C92 H84 0.930 . S
C92 C93 1.382 . S
C92 C94 1.426 . S
C93 C92 1.382 . S
C93 C97 1.389 . S
C94 C92 1.426 . S
C94 C95 1.375 . S
C94 C98 1.532 . S
C95 H85 0.930 . S
C95 C94 1.375 . S
C95 C96 1.416 . S
C96 C95 1.416 . S
C96 C97 1.371 . S
C97 H86 0.930 . S
C97 C93 1.389 . S
C97 C96 1.371 . S
C98 H87 0.970 . S
C98 H88 0.970 . S
C98 C94 1.532 . S
C98 C99 1.499 . S
C99 C98 1.499 . S
C99 C100 1.370 . S
C99 C104 1.415 . S
C100 H89 0.930 . S
C100 C99 1.370 . S
C100 C101 1.407 . S
C101 C100 1.407 . S
C101 C102 1.365 . S
C102 H90 0.930 . S
C102 C101 1.365 . S
C102 C103 1.393 . S
C103 C102 1.393 . S
C103 C104 1.387 . S
C104 H91 0.930 . S
C104 C99 1.415 . S
C104 C103 1.387 . S
H105 C113 0.930 . S
H106 C116 0.930 . S
H107 C118 0.930 . S
H108 C119 0.970 . S
H109 C119 0.970 . S
H110 C121 0.930 . S
H111 C123 0.930 . S
H112 C125 0.930 . S
C113 H105 0.930 . S
C113 C114 1.382 . S
C113 C115 1.426 . S
C114 C113 1.382 . S
C114 C118 1.389 . S
C115 C113 1.426 . S
C115 C116 1.375 . S
C115 C119 1.532 . S
C116 H106 0.930 . S
C116 C115 1.375 . S
C116 C117 1.416 . S
C117 C116 1.416 . S
C117 C118 1.371 . S
C118 H107 0.930 . S
C118 C114 1.389 . S
C118 C117 1.371 . S
C119 H108 0.970 . S
C119 H109 0.970 . S
C119 C115 1.532 . S
C119 C120 1.499 . S
C120 C119 1.499 . S
C120 C121 1.370 . S
C120 C125 1.415 . S
C121 H110 0.930 . S
C121 C120 1.370 . S
C121 C122 1.407 . S
C122 C121 1.407 . S
C122 C123 1.365 . S
C123 H111 0.930 . S
C123 C122 1.365 . S
C123 C124 1.393 . S
C124 C123 1.393 . S
C124 C125 1.387 . S
C125 H112 0.930 . S
C125 C120 1.415 . S
C125 C124 1.387 . S
H126 C134 0.930 . S
H127 C137 0.930 . S
H128 C139 0.930 . S
H129 C140 0.970 . S
H130 C140 0.970 . S
H131 C142 0.930 . S
H132 C144 0.930 . S
H133 C146 0.930 . S
C134 H126 0.930 . S
C134 C135 1.382 . S
C134 C136 1.426 . S
C135 C134 1.382 . S
C135 C139 1.389 . S
C136 C134 1.426 . S
C136 C137 1.375 . S
C136 C140 1.532 . S
C137 H127 0.930 . S
C137 C136 1.375 . S
C137 C138 1.416 . S
C138 C137 1.416 . S
C138 C139 1.371 . S
C139 H128 0.930 . S
C139 C135 1.389 . S
C139 C138 1.371 . S
C140 H129 0.970 . S
C140 H130 0.970 . S
C140 C136 1.532 . S
C140 C141 1.499 . S
C141 C140 1.499 . S
C141 C142 1.370 . S
C141 C146 1.415 . S
C142 H131 0.930 . S
C142 C141 1.370 . S
C142 C143 1.407 . S
C143 C142 1.407 . S
C143 C144 1.365 . S
C144 H132 0.930 . S
C144 C143 1.365 . S
C144 C145 1.393 . S
C145 C144 1.393 . S
C145 C146 1.387 . S
C146 H133 0.930 . S
C146 C141 1.415 . S
C146 C145 1.387 . S
H147 C155 0.930 . S
H148 C158 0.930 . S
H149 C160 0.930 . S
H150 C161 0.970 . S
H151 C161 0.970 . S
H152 C163 0.930 . S
H153 C165 0.930 . S
H154 C167 0.930 . S
C155 H147 0.930 . S
C155 C156 1.382 . S
C155 C157 1.426 . S
C156 C155 1.382 . S
C156 C160 1.389 . S
C157 C155 1.426 . S
C157 C158 1.375 . S
C157 C161 1.532 . S
C158 H148 0.930 . S
C158 C157 1.375 . S
C158 C159 1.416 . S
C159 C158 1.416 . S
C159 C160 1.371 . S
C160 H149 0.930 . S
C160 C156 1.389 . S
C160 C159 1.371 . S
C161 H150 0.970 . S
C161 H151 0.970 . S
C161 C157 1.532 . S
C161 C162 1.499 . S
C162 C161 1.499 . S
C162 C163 1.370 . S
C162 C167 1.415 . S
C163 H152 0.930 . S
C163 C162 1.370 . S
C163 C164 1.407 . S
C164 C163 1.407 . S
C164 C165 1.365 . S
C165 H153 0.930 . S
C165 C164 1.365 . S
C165 C166 1.393 . S
C166 C165 1.393 . S
C166 C167 1.387 . S
C167 H154 0.930 . S
C167 C162 1.415 . S
C167 C166 1.387 . S
C168 O170 1.247 . S
C168 O172 1.258 . S
C169 O176 1.247 . S
C169 O177 1.258 . S
O170 C168 1.247 . S
O170 Zn171 2.028 1_655 S
Zn171 O170 2.028 1_455 S
Zn171 O175 2.035 . S
Zn171 O177 2.035 . S
Zn171 O178 2.028 1_455 S
O172 C168 1.258 . S
O172 Zn173 2.035 1_655 S
Zn173 O172 2.035 1_455 S
Zn173 O174 2.028 . S
Zn173 O176 2.028 . S
Zn173 O179 2.035 1_455 S
O174 Zn173 2.028 . S
O174 C180 1.247 . S
O175 Zn171 2.035 . S
O175 C180 1.258 . S
O176 C169 1.247 . S
O176 Zn173 2.028 . S
O177 C169 1.258 . S
O177 Zn171 2.035 . S
O178 Zn171 2.028 1_655 S
O178 C181 1.247 . S
O179 Zn173 2.035 1_655 S
O179 C181 1.258 . S
C180 O174 1.247 . S
C180 O175 1.258 . S
C181 O178 1.247 . S
C181 O179 1.258 . S
C182 O184 1.247 . S
C182 O186 1.258 . S
C183 O190 1.247 . S
C183 O191 1.258 . S
O184 C182 1.247 . S
O184 Zn185 2.028 . S
Zn185 O184 2.028 . S
Zn185 O189 2.035 1_545 S
Zn185 O191 2.035 1_545 S
Zn185 O192 2.028 . S
O186 C182 1.258 . S
O186 Zn187 2.035 . S
Zn187 O186 2.035 . S
Zn187 O188 2.028 1_545 S
Zn187 O190 2.028 1_545 S
Zn187 O193 2.035 . S
O188 Zn187 2.028 1_565 S
O188 C194 1.247 . S
O189 Zn185 2.035 1_565 S
O189 C194 1.258 . S
O190 C183 1.247 . S
O190 Zn187 2.028 1_565 S
O191 C183 1.258 . S
O191 Zn185 2.035 1_565 S
O192 Zn185 2.028 . S
O192 C195 1.247 . S
O193 Zn187 2.035 . S
O193 C195 1.258 . S
C194 O188 1.247 . S
C194 O189 1.258 . S
C195 O192 1.247 . S
C195 O193 1.258 . S
C196 O198 1.247 . S
C196 O200 1.258 . S
C197 O204 1.247 . S
C197 O205 1.258 . S
O198 C196 1.247 . S
O198 Zn199 2.028 1_655 S
Zn199 O198 2.028 1_455 S
Zn199 O203 2.035 . S
Zn199 O205 2.035 . S
Zn199 O206 2.028 1_455 S
O200 C196 1.258 . S
O200 Zn201 2.035 1_655 S
Zn201 O200 2.035 1_455 S
Zn201 O202 2.028 . S
Zn201 O204 2.028 . S
Zn201 O207 2.035 1_455 S
O202 Zn201 2.028 . S
O202 C208 1.247 . S
O203 Zn199 2.035 . S
O203 C208 1.258 . S
O204 C197 1.247 . S
O204 Zn201 2.028 . S
O205 C197 1.258 . S
O205 Zn199 2.035 . S
O206 Zn199 2.028 1_655 S
O206 C209 1.247 . S
O207 Zn201 2.035 1_655 S
O207 C209 1.258 . S
C208 O202 1.247 . S
C208 O203 1.258 . S
C209 O206 1.247 . S
C209 O207 1.258 . S
C210 O212 1.247 . S
C210 O214 1.258 . S
C211 O218 1.247 . S
C211 O219 1.258 . S
O212 C210 1.247 . S
O212 Zn213 2.028 . S
Zn213 O212 2.028 . S
Zn213 O217 2.035 1_545 S
Zn213 O219 2.035 1_545 S
Zn213 O220 2.028 . S
O214 C210 1.258 . S
O214 Zn215 2.035 . S
Zn215 O214 2.035 . S
Zn215 O216 2.028 1_545 S
Zn215 O218 2.028 1_545 S
Zn215 O221 2.035 . S
O216 Zn215 2.028 1_565 S
O216 C222 1.247 . S
O217 Zn213 2.035 1_565 S
O217 C222 1.258 . S
O218 C211 1.247 . S
O218 Zn215 2.028 1_565 S
O219 C211 1.258 . S
O219 Zn213 2.035 1_565 S
O220 Zn213 2.028 . S
O220 C223 1.247 . S
O221 Zn215 2.035 . S
O221 C223 1.258 . S
C222 O216 1.247 . S
C222 O217 1.258 . S
C223 O220 1.247 . S
C223 O221 1.258 . S
C224 O226 1.247 . S
C224 O228 1.258 . S
C225 O232 1.247 . S
C225 O233 1.258 . S
O226 C224 1.247 . S
O226 Zn227 2.037 . S
Zn227 O226 2.037 . S
Zn227 O231 2.044 . S
Zn227 O233 2.026 1_554 S
Zn227 O234 2.019 1_554 S
O228 C224 1.258 . S
O228 Zn229 2.035 . S
Zn229 O228 2.035 . S
Zn229 O230 2.028 . S
Zn229 O232 2.028 1_554 S
Zn229 O235 2.035 1_554 S
O230 Zn229 2.028 . S
O230 C236 1.247 . S
O231 Zn227 2.044 . S
O231 C236 1.258 . S
O232 C225 1.247 . S
O232 Zn229 2.028 1_556 S
O233 C225 1.258 . S
O233 Zn227 2.026 1_556 S
O234 Zn227 2.019 1_556 S
O234 C237 1.247 . S
O235 Zn229 2.035 1_556 S
O235 C237 1.258 . S
C236 O230 1.247 . S
C236 O231 1.258 . S
C237 O234 1.247 . S
C237 O235 1.258 . S
C238 O240 1.247 . S
C238 O242 1.258 . S
C239 O246 1.247 . S
C239 O247 1.258 . S
O240 C238 1.247 . S
O240 Zn241 2.043 . S
Zn241 O240 2.043 . S
Zn241 O245 2.050 . S
Zn241 O247 2.021 1_554 S
Zn241 O248 2.013 1_554 S
O242 C238 1.258 . S
O242 Zn243 2.059 . S
Zn243 O242 2.059 . S
Zn243 O244 2.052 . S
Zn243 O246 2.004 1_554 S
Zn243 O249 2.012 1_554 S
O244 Zn243 2.052 . S
O244 C250 1.247 . S
O245 Zn241 2.050 . S
O245 C250 1.258 . S
O246 C239 1.247 . S
O246 Zn243 2.004 1_556 S
O247 C239 1.258 . S
O247 Zn241 2.021 1_556 S
O248 Zn241 2.013 1_556 S
O248 C251 1.247 . S
O249 Zn243 2.012 1_556 S
O249 C251 1.258 . S
C250 O244 1.247 . S
C250 O245 1.258 . S
C251 O248 1.247 . S
C251 O249 1.258 . S
C252 O254 1.247 . S
C252 O256 1.258 . S
C253 O260 1.247 . S
C253 O261 1.258 . S
O254 C252 1.247 . S
O254 Zn255 2.028 1_556 S
Zn255 O254 2.028 1_554 S
Zn255 O259 2.035 1_554 S
Zn255 O261 2.035 . S
Zn255 O262 2.028 . S
O256 C252 1.258 . S
O256 Zn257 2.035 1_556 S
Zn257 O256 2.035 1_554 S
Zn257 O258 2.028 1_554 S
Zn257 O260 2.028 . S
Zn257 O263 2.035 . S
O258 Zn257 2.028 1_556 S
O258 C264 1.247 . S
O259 Zn255 2.035 1_556 S
O259 C264 1.258 . S
O260 C253 1.247 . S
O260 Zn257 2.028 . S
O261 C253 1.258 . S
O261 Zn255 2.035 . S
O262 Zn255 2.028 . S
O262 C265 1.247 . S
O263 Zn257 2.035 . S
O263 C265 1.258 . S
C264 O258 1.247 . S
C264 O259 1.258 . S
C265 O262 1.247 . S
C265 O263 1.258 . S
C266 O268 1.247 . S
C266 O270 1.258 . S
C267 O274 1.247 . S
C267 O275 1.258 . S
O268 C266 1.247 . S
O268 Zn269 2.028 . S
Zn269 O268 2.028 . S
Zn269 O273 2.035 . S
Zn269 O275 2.035 1_554 S
Zn269 O276 2.028 1_554 S
O270 C266 1.258 . S
O270 Zn271 2.035 . S
Zn271 O270 2.035 . S
Zn271 O272 2.028 . S
Zn271 O274 2.028 1_554 S
Zn271 O277 2.035 1_554 S
O272 Zn271 2.028 . S
O272 C278 1.247 . S
O273 Zn269 2.035 . S
O273 C278 1.258 . S
O274 C267 1.247 . S
O274 Zn271 2.028 1_556 S
O275 C267 1.258 . S
O275 Zn269 2.035 1_556 S
O276 Zn269 2.028 1_556 S
O276 C279 1.247 . S
O277 Zn271 2.035 1_556 S
O277 C279 1.258 . S
C278 O272 1.247 . S
C278 O273 1.258 . S
C279 O276 1.247 . S
C279 O277 1.258 . S
H280 C286 0.930 . S
H281 C290 0.930 . S
H282 C295 0.929 . S
H283 C293 0.929 . S
H284 C288 0.929 . S
H285 C294 0.929 . S
C286 H280 0.930 . S
C286 C287 1.367 . S
C286 C294 1.378 . S
C287 C286 1.367 . S
C287 C295 1.433 . S
C288 H284 0.929 . S
C288 C290 1.378 . S
C288 C292 1.350 . S
C289 C292 1.463 . S
C289 C294 1.350 . S
C289 N297 1.427 . S
C290 H281 0.930 . S
C290 C288 1.378 . S
C290 C291 1.367 . S
C291 C290 1.367 . S
C291 C293 1.433 . S
C292 C288 1.350 . S
C292 C289 1.463 . S
C292 N296 1.427 . S
C293 H283 0.929 . S
C293 C291 1.433 . S
C293 N296 1.384 . S
C294 H285 0.929 . S
C294 C286 1.378 . S
C294 C289 1.350 . S
C295 H282 0.929 . S
C295 C287 1.433 . S
C295 N297 1.384 . S
N296 C292 1.427 . S
N296 C293 1.384 . S
N297 C289 1.427 . S
N297 C295 1.384 . S
H298 C304 0.930 . S
H299 C308 0.930 . S
H300 C313 0.929 . S
H301 C311 0.929 . S
H302 C306 0.929 . S
H303 C312 0.929 . S
C304 H298 0.930 . S
C304 C305 1.367 . S
C304 C312 1.378 . S
C305 C304 1.367 . S
C305 C313 1.433 . S
C306 H302 0.929 . S
C306 C308 1.378 . S
C306 C310 1.350 . S
C307 C310 1.463 . S
C307 C312 1.350 . S
C307 N315 1.427 . S
C308 H299 0.930 . S
C308 C306 1.378 . S
C308 C309 1.367 . S
C309 C308 1.367 . S
C309 C311 1.433 . S
C310 C306 1.350 . S
C310 C307 1.463 . S
C310 N314 1.427 . S
C311 H301 0.929 . S
C311 C309 1.433 . S
C311 N314 1.384 . S
C312 H303 0.929 . S
C312 C304 1.378 . S
C312 C307 1.350 . S
C313 H300 0.929 . S
C313 C305 1.433 . S
C313 N315 1.384 . S
N314 C310 1.427 . S
N314 C311 1.384 . S
N315 C307 1.427 . S
N315 C313 1.384 . S
H316 C322 0.930 . S
H317 C326 0.930 . S
H318 C331 0.929 . S
H319 C329 0.929 . S
H320 C324 0.929 . S
H321 C330 0.929 . S
C322 H316 0.930 . S
C322 C323 1.367 . S
C322 C330 1.378 . S
C323 C322 1.367 . S
C323 C331 1.433 . S
C324 H320 0.929 . S
C324 C326 1.378 . S
C324 C328 1.350 . S
C325 C328 1.463 . S
C325 C330 1.350 . S
C325 N333 1.427 . S
C326 H317 0.930 . S
C326 C324 1.378 . S
C326 C327 1.367 . S
C327 C326 1.367 . S
C327 C329 1.433 . S
C328 C324 1.350 . S
C328 C325 1.463 . S
C328 N332 1.427 . S
C329 H319 0.929 . S
C329 C327 1.433 . S
C329 N332 1.384 . S
C330 H321 0.929 . S
C330 C322 1.378 . S
C330 C325 1.350 . S
C331 H318 0.929 . S
C331 C323 1.433 . S
C331 N333 1.384 . S
N332 C328 1.427 . S
N332 C329 1.384 . S
N333 C325 1.427 . S
N333 C331 1.384 . S
H334 C340 0.930 . S
H335 C344 0.930 . S
H336 C349 0.929 . S
H337 C347 0.929 . S
H338 C342 0.929 . S
H339 C348 0.929 . S
C340 H334 0.930 . S
C340 C341 1.367 . S
C340 C348 1.378 . S
C341 C340 1.367 . S
C341 C349 1.433 . S
C342 H338 0.929 . S
C342 C344 1.378 . S
C342 C346 1.350 . S
C343 C346 1.463 . S
C343 C348 1.350 . S
C343 N351 1.427 . S
C344 H335 0.930 . S
C344 C342 1.378 . S
C344 C345 1.367 . S
C345 C344 1.367 . S
C345 C347 1.433 . S
C346 C342 1.350 . S
C346 C343 1.463 . S
C346 N350 1.427 . S
C347 H337 0.929 . S
C347 C345 1.433 . S
C347 N350 1.384 . S
C348 H339 0.929 . S
C348 C340 1.378 . S
C348 C343 1.350 . S
C349 H336 0.929 . S
C349 C341 1.433 . S
C349 N351 1.384 . S
N350 C346 1.427 . S
N350 C347 1.384 . S
N351 C343 1.427 . S
N351 C349 1.384 . S
H352 C358 0.930 . S
H353 C362 0.930 . S
H354 C367 0.929 . S
H355 C365 0.929 . S
H356 C360 0.929 . S
H357 C366 0.929 . S
C358 H352 0.930 . S
C358 C359 1.367 . S
C358 C366 1.378 . S
C359 C358 1.367 . S
C359 C367 1.433 . S
C360 H356 0.929 . S
C360 C362 1.378 . S
C360 C364 1.350 . S
C361 C364 1.463 . S
C361 C366 1.350 . S
C361 N369 1.427 . S
C362 H353 0.930 . S
C362 C360 1.378 . S
C362 C363 1.367 . S
C363 C362 1.367 . S
C363 C365 1.433 . S
C364 C360 1.350 . S
C364 C361 1.463 . S
C364 N368 1.427 . S
C365 H355 0.929 . S
C365 C363 1.433 . S
C365 N368 1.384 . S
C366 H357 0.929 . S
C366 C358 1.378 . S
C366 C361 1.350 . S
C367 H354 0.929 . S
C367 C359 1.433 . S
C367 N369 1.384 . S
N368 C364 1.427 . S
N368 C365 1.384 . S
N369 C361 1.427 . S
N369 C367 1.384 . S
H370 C376 0.930 . S
H371 C380 0.930 . S
H372 C385 0.929 . S
H373 C383 0.929 . S
H374 C378 0.929 . S
H375 C384 0.929 . S
C376 H370 0.930 . S
C376 C377 1.367 . S
C376 C384 1.378 . S
C377 C376 1.367 . S
C377 C385 1.433 . S
C378 H374 0.929 . S
C378 C380 1.378 . S
C378 C382 1.350 . S
C379 C382 1.463 . S
C379 C384 1.350 . S
C379 N387 1.427 . S
C380 H371 0.930 . S
C380 C378 1.378 . S
C380 C381 1.367 . S
C381 C380 1.367 . S
C381 C383 1.433 . S
C382 C378 1.350 . S
C382 C379 1.463 . S
C382 N386 1.427 . S
C383 H373 0.929 . S
C383 C381 1.433 . S
C383 N386 1.384 . S
C384 H375 0.929 . S
C384 C376 1.378 . S
C384 C379 1.350 . S
C385 H372 0.929 . S
C385 C377 1.433 . S
C385 N387 1.384 . S
N386 C382 1.427 . S
N386 C383 1.384 . S
N387 C379 1.427 . S
N387 C385 1.384 . S
H388 C394 0.930 . S
H389 C398 0.930 . S
H390 C403 0.929 . S
H391 C401 0.929 . S
H392 C396 0.929 . S
H393 C402 0.929 . S
C394 H388 0.930 . S
C394 C395 1.367 . S
C394 C402 1.378 . S
C395 C394 1.367 . S
C395 C403 1.433 . S
C396 H392 0.929 . S
C396 C398 1.378 . S
C396 C400 1.350 . S
C397 C400 1.463 . S
C397 C402 1.350 . S
C397 N405 1.427 . S
C398 H389 0.930 . S
C398 C396 1.378 . S
C398 C399 1.367 . S
C399 C398 1.367 . S
C399 C401 1.433 . S
C400 C396 1.350 . S
C400 C397 1.463 . S
C400 N404 1.427 . S
C401 H391 0.929 . S
C401 C399 1.433 . S
C401 N404 1.384 . S
C402 H393 0.929 . S
C402 C394 1.378 . S
C402 C397 1.350 . S
C403 H390 0.929 . S
C403 C395 1.433 . S
C403 N405 1.384 . S
N404 C400 1.427 . S
N404 C401 1.384 . S
N405 C397 1.427 . S
N405 C403 1.384 . S
H406 C412 0.930 . S
H407 C416 0.930 . S
H408 C421 0.929 . S
H409 C419 0.929 . S
H410 C414 0.929 . S
H411 C420 0.929 . S
C412 H406 0.930 . S
C412 C413 1.367 . S
C412 C420 1.378 . S
C413 C412 1.367 . S
C413 C421 1.433 . S
C414 H410 0.929 . S
C414 C416 1.378 . S
C414 C418 1.350 . S
C415 C418 1.463 . S
C415 C420 1.350 . S
C415 N423 1.427 . S
C416 H407 0.930 . S
C416 C414 1.378 . S
C416 C417 1.367 . S
C417 C416 1.367 . S
C417 C419 1.433 . S
C418 C414 1.350 . S
C418 C415 1.463 . S
C418 N422 1.427 . S
C419 H409 0.929 . S
C419 C417 1.433 . S
C419 N422 1.384 . S
C420 H411 0.929 . S
C420 C412 1.378 . S
C420 C415 1.350 . S
C421 H408 0.929 . S
C421 C413 1.433 . S
C421 N423 1.384 . S
N422 C418 1.427 . S
N422 C419 1.384 . S
N423 C415 1.427 . S
N423 C421 1.384 . S
H424 C430 0.930 . S
H425 C434 0.930 . S
H426 C439 0.929 . S
H427 C437 0.929 . S
H428 C432 0.929 . S
H429 C438 0.929 . S
C430 H424 0.930 . S
C430 C431 1.367 . S
C430 C438 1.378 . S
C431 C430 1.367 . S
C431 C439 1.433 . S
C432 H428 0.929 . S
C432 C434 1.378 . S
C432 C436 1.350 . S
C433 C436 1.463 . S
C433 C438 1.350 . S
C433 N441 1.427 . S
C434 H425 0.930 . S
C434 C432 1.378 . S
C434 C435 1.367 . S
C435 C434 1.367 . S
C435 C437 1.433 . S
C436 C432 1.350 . S
C436 C433 1.463 . S
C436 N440 1.427 . S
C437 H427 0.929 . S
C437 C435 1.433 . S
C437 N440 1.384 . S
C438 H429 0.929 . S
C438 C430 1.378 . S
C438 C433 1.350 . S
C439 H426 0.929 . S
C439 C431 1.433 . S
C439 N441 1.384 . S
N440 C436 1.427 . S
N440 C437 1.384 . S
N441 C433 1.427 . S
N441 C439 1.384 . S
H442 C448 0.930 . S
H443 C452 0.930 . S
H444 C457 0.929 . S
H445 C455 0.929 . S
H446 C450 0.929 . S
H447 C456 0.929 . S
C448 H442 0.930 . S
C448 C449 1.367 . S
C448 C456 1.378 . S
C449 C448 1.367 . S
C449 C457 1.433 . S
C450 H446 0.929 . S
C450 C452 1.378 . S
C450 C454 1.350 . S
C451 C454 1.463 . S
C451 C456 1.350 . S
C451 N459 1.427 . S
C452 H443 0.930 . S
C452 C450 1.378 . S
C452 C453 1.367 . S
C453 C452 1.367 . S
C453 C455 1.433 . S
C454 C450 1.350 . S
C454 C451 1.463 . S
C454 N458 1.427 . S
C455 H445 0.929 . S
C455 C453 1.433 . S
C455 N458 1.384 . S
C456 H447 0.929 . S
C456 C448 1.378 . S
C456 C451 1.350 . S
C457 H444 0.929 . S
C457 C449 1.433 . S
C457 N459 1.384 . S
N458 C454 1.427 . S
N458 C455 1.384 . S
N459 C451 1.427 . S
N459 C457 1.384 . S
H460 C466 0.930 . S
H461 C470 0.930 . S
H462 C475 0.929 . S
H463 C473 0.929 . S
H464 C468 0.929 . S
H465 C474 0.929 . S
C466 H460 0.930 . S
C466 C467 1.367 . S
C466 C474 1.378 . S
C467 C466 1.367 . S
C467 C475 1.433 . S
C468 H464 0.929 . S
C468 C470 1.378 . S
C468 C472 1.350 . S
C469 C472 1.463 . S
C469 C474 1.350 . S
C469 N477 1.427 . S
C470 H461 0.930 . S
C470 C468 1.378 . S
C470 C471 1.367 . S
C471 C470 1.367 . S
C471 C473 1.433 . S
C472 C468 1.350 . S
C472 C469 1.463 . S
C472 N476 1.427 . S
C473 H463 0.929 . S
C473 C471 1.433 . S
C473 N476 1.384 . S
C474 H465 0.929 . S
C474 C466 1.378 . S
C474 C469 1.350 . S
C475 H462 0.929 . S
C475 C467 1.433 . S
C475 N477 1.384 . S
N476 C472 1.427 . S
N476 C473 1.384 . S
N477 C469 1.427 . S
N477 C475 1.384 . S
H478 C484 0.930 . S
H479 C488 0.930 . S
H480 C493 0.929 . S
H481 C491 0.929 . S
H482 C486 0.929 . S
H483 C492 0.929 . S
C484 H478 0.930 . S
C484 C485 1.367 . S
C484 C492 1.378 . S
C485 C484 1.367 . S
C485 C493 1.433 . S
C486 H482 0.929 . S
C486 C488 1.378 . S
C486 C490 1.350 . S
C487 C490 1.463 . S
C487 C492 1.350 . S
C487 N495 1.427 . S
C488 H479 0.930 . S
C488 C486 1.378 . S
C488 C489 1.367 . S
C489 C488 1.367 . S
C489 C491 1.433 . S
C490 C486 1.350 . S
C490 C487 1.463 . S
C490 N494 1.427 . S
C491 H481 0.929 . S
C491 C489 1.433 . S
C491 N494 1.384 . S
C492 H483 0.929 . S
C492 C484 1.378 . S
C492 C487 1.350 . S
C493 H480 0.929 . S
C493 C485 1.433 . S
C493 N495 1.384 . S
N494 C490 1.427 . S
N494 C491 1.384 . S
N495 C487 1.427 . S
N495 C493 1.384 . S
H496 C502 0.930 . S
H497 C506 0.930 . S
H498 C511 0.929 . S
H499 C509 0.929 . S
H500 C504 0.929 . S
H501 C510 0.929 . S
C502 H496 0.930 . S
C502 C503 1.367 . S
C502 C510 1.378 . S
C503 C502 1.367 . S
C503 C511 1.433 . S
C504 H500 0.929 . S
C504 C506 1.378 . S
C504 C508 1.350 . S
C505 C508 1.463 . S
C505 C510 1.350 . S
C505 N513 1.427 . S
C506 H497 0.930 . S
C506 C504 1.378 . S
C506 C507 1.367 . S
C507 C506 1.367 . S
C507 C509 1.433 . S
C508 C504 1.350 . S
C508 C505 1.463 . S
C508 N512 1.427 . S
C509 H499 0.929 . S
C509 C507 1.433 . S
C509 N512 1.384 . S
C510 H501 0.929 . S
C510 C502 1.378 . S
C510 C505 1.350 . S
C511 H498 0.929 . S
C511 C503 1.433 . S
C511 N513 1.384 . S
N512 C508 1.427 . S
N512 C509 1.384 . S
N513 C505 1.427 . S
N513 C511 1.384 . S
H514 C520 0.930 . S
H515 C524 0.930 . S
H516 C529 0.929 . S
H517 C527 0.929 . S
H518 C522 0.929 . S
H519 C528 0.929 . S
C520 H514 0.930 . S
C520 C521 1.367 . S
C520 C528 1.378 . S
C521 C520 1.367 . S
C521 C529 1.433 . S
C522 H518 0.929 . S
C522 C524 1.378 . S
C522 C526 1.350 . S
C523 C526 1.463 . S
C523 C528 1.350 . S
C523 N531 1.427 . S
C524 H515 0.930 . S
C524 C522 1.378 . S
C524 C525 1.367 . S
C525 C524 1.367 . S
C525 C527 1.433 . S
C526 C522 1.350 . S
C526 C523 1.463 . S
C526 N530 1.427 . S
C527 H517 0.929 . S
C527 C525 1.433 . S
C527 N530 1.384 . S
C528 H519 0.929 . S
C528 C520 1.378 . S
C528 C523 1.350 . S
C529 H516 0.929 . S
C529 C521 1.433 . S
C529 N531 1.384 . S
N530 C526 1.427 . S
N530 C527 1.384 . S
N531 C523 1.427 . S
N531 C529 1.384 . S
H532 C538 0.930 . S
H533 C542 0.930 . S
H534 C547 0.929 . S
H535 C545 0.929 . S
H536 C540 0.929 . S
H537 C546 0.929 . S
C538 H532 0.930 . S
C538 C539 1.367 . S
C538 C546 1.378 . S
C539 C538 1.367 . S
C539 C547 1.433 . S
C540 H536 0.929 . S
C540 C542 1.378 . S
C540 C544 1.350 . S
C541 C544 1.463 . S
C541 C546 1.350 . S
C541 N549 1.427 . S
C542 H533 0.930 . S
C542 C540 1.378 . S
C542 C543 1.367 . S
C543 C542 1.367 . S
C543 C545 1.433 . S
C544 C540 1.350 . S
C544 C541 1.463 . S
C544 N548 1.427 . S
C545 H535 0.929 . S
C545 C543 1.433 . S
C545 N548 1.384 . S
C546 H537 0.929 . S
C546 C538 1.378 . S
C546 C541 1.350 . S
C547 H534 0.929 . S
C547 C539 1.433 . S
C547 N549 1.384 . S
N548 C544 1.427 . S
N548 C545 1.384 . S
N549 C541 1.427 . S
N549 C547 1.384 . S
H550 C556 0.930 . S
H551 C560 0.930 . S
H552 C565 0.929 . S
H553 C563 0.929 . S
H554 C558 0.929 . S
H555 C564 0.929 . S
C556 H550 0.930 . S
C556 C557 1.367 . S
C556 C564 1.378 . S
C557 C556 1.367 . S
C557 C565 1.433 . S
C558 H554 0.929 . S
C558 C560 1.378 . S
C558 C562 1.350 . S
C559 C562 1.463 . S
C559 C564 1.350 . S
C559 N567 1.427 . S
C560 H551 0.930 . S
C560 C558 1.378 . S
C560 C561 1.367 . S
C561 C560 1.367 . S
C561 C563 1.433 . S
C562 C558 1.350 . S
C562 C559 1.463 . S
C562 N566 1.427 . S
C563 H553 0.929 . S
C563 C561 1.433 . S
C563 N566 1.384 . S
C564 H555 0.929 . S
C564 C556 1.378 . S
C564 C559 1.350 . S
C565 H552 0.929 . S
C565 C557 1.433 . S
C565 N567 1.384 . S
N566 C562 1.427 . S
N566 C563 1.384 . S
N567 C559 1.427 . S
N567 C565 1.384 . S
H568 C574 0.930 . S
H569 C578 0.930 . S
H570 C583 0.929 . S
H571 C581 0.929 . S
H572 C576 0.929 . S
H573 C582 0.929 . S
C574 H568 0.930 . S
C574 C575 1.367 . S
C574 C582 1.378 . S
C575 C574 1.367 . S
C575 C583 1.433 . S
C576 H572 0.929 . S
C576 C578 1.378 . S
C576 C580 1.350 . S
C577 C580 1.463 . S
C577 C582 1.350 . S
C577 N585 1.427 . S
C578 H569 0.930 . S
C578 C576 1.378 . S
C578 C579 1.367 . S
C579 C578 1.367 . S
C579 C581 1.433 . S
C580 C576 1.350 . S
C580 C577 1.463 . S
C580 N584 1.427 . S
C581 H571 0.929 . S
C581 C579 1.433 . S
C581 N584 1.384 . S
C582 H573 0.929 . S
C582 C574 1.378 . S
C582 C577 1.350 . S
C583 H570 0.929 . S
C583 C575 1.433 . S
C583 N585 1.384 . S
N584 C580 1.427 . S
N584 C581 1.384 . S
N585 C577 1.427 . S
N585 C583 1.384 . S
H586 C592 0.930 . S
H587 C596 0.930 . S
H588 C601 0.929 . S
H589 C599 0.929 . S
H590 C594 0.929 . S
H591 C600 0.929 . S
C592 H586 0.930 . S
C592 C593 1.367 . S
C592 C600 1.378 . S
C593 C592 1.367 . S
C593 C601 1.433 . S
C594 H590 0.929 . S
C594 C596 1.378 . S
C594 C598 1.350 . S
C595 C598 1.463 . S
C595 C600 1.350 . S
C595 N603 1.427 . S
C596 H587 0.930 . S
C596 C594 1.378 . S
C596 C597 1.367 . S
C597 C596 1.367 . S
C597 C599 1.433 . S
C598 C594 1.350 . S
C598 C595 1.463 . S
C598 N602 1.427 . S
C599 H589 0.929 . S
C599 C597 1.433 . S
C599 N602 1.384 . S
C600 H591 0.929 . S
C600 C592 1.378 . S
C600 C595 1.350 . S
C601 H588 0.929 . S
C601 C593 1.433 . S
C601 N603 1.384 . S
N602 C598 1.427 . S
N602 C599 1.384 . S
N603 C595 1.427 . S
N603 C601 1.384 . S
H604 C610 0.930 . S
H605 C614 0.930 . S
H606 C619 0.929 . S
H607 C617 0.929 . S
H608 C612 0.929 . S
H609 C618 0.929 . S
C610 H604 0.930 . S
C610 C611 1.367 . S
C610 C618 1.378 . S
C611 C610 1.367 . S
C611 C619 1.433 . S
C612 H608 0.929 . S
C612 C614 1.378 . S
C612 C616 1.350 . S
C613 C616 1.463 . S
C613 C618 1.350 . S
C613 N621 1.427 . S
C614 H605 0.930 . S
C614 C612 1.378 . S
C614 C615 1.367 . S
C615 C614 1.367 . S
C615 C617 1.433 . S
C616 C612 1.350 . S
C616 C613 1.463 . S
C616 N620 1.427 . S
C617 H607 0.929 . S
C617 C615 1.433 . S
C617 N620 1.384 . S
C618 H609 0.929 . S
C618 C610 1.378 . S
C618 C613 1.350 . S
C619 H606 0.929 . S
C619 C611 1.433 . S
C619 N621 1.384 . S
N620 C616 1.427 . S
N620 C617 1.384 . S
N621 C613 1.427 . S
N621 C619 1.384 . S
H622 C628 0.930 . S
H623 C632 0.930 . S
H624 C637 0.929 . S
H625 C635 0.929 . S
H626 C630 0.929 . S
H627 C636 0.929 . S
C628 H622 0.930 . S
C628 C629 1.367 . S
C628 C636 1.378 . S
C629 C628 1.367 . S
C629 C637 1.433 . S
C630 H626 0.929 . S
C630 C632 1.378 . S
C630 C634 1.350 . S
C631 C634 1.463 . S
C631 C636 1.350 . S
C631 N639 1.427 . S
C632 H623 0.930 . S
C632 C630 1.378 . S
C632 C633 1.367 . S
C633 C632 1.367 . S
C633 C635 1.433 . S
C634 C630 1.350 . S
C634 C631 1.463 . S
C634 N638 1.427 . S
C635 H625 0.929 . S
C635 C633 1.433 . S
C635 N638 1.384 . S
C636 H627 0.929 . S
C636 C628 1.378 . S
C636 C631 1.350 . S
C637 H624 0.929 . S
C637 C629 1.433 . S
C637 N639 1.384 . S
N638 C634 1.427 . S
N638 C635 1.384 . S
N639 C631 1.427 . S
N639 C637 1.384 . S
H640 C646 0.930 . S
H641 C650 0.930 . S
H642 C655 0.929 . S
H643 C653 0.929 . S
H644 C648 0.929 . S
H645 C654 0.929 . S
C646 H640 0.930 . S
C646 C647 1.367 . S
C646 C654 1.378 . S
C647 C646 1.367 . S
C647 C655 1.433 . S
C648 H644 0.929 . S
C648 C650 1.378 . S
C648 C652 1.350 . S
C649 C652 1.463 . S
C649 C654 1.350 . S
C649 N657 1.427 . S
C650 H641 0.930 . S
C650 C648 1.378 . S
C650 C651 1.367 . S
C651 C650 1.367 . S
C651 C653 1.433 . S
C652 C648 1.350 . S
C652 C649 1.463 . S
C652 N656 1.427 . S
C653 H643 0.929 . S
C653 C651 1.433 . S
C653 N656 1.384 . S
C654 H645 0.929 . S
C654 C646 1.378 . S
C654 C649 1.350 . S
C655 H642 0.929 . S
C655 C647 1.433 . S
C655 N657 1.384 . S
N656 C652 1.427 . S
N656 C653 1.384 . S
N657 C649 1.427 . S
N657 C655 1.384 . S
H658 C664 0.930 . S
H659 C668 0.930 . S
H660 C673 0.929 . S
H661 C671 0.929 . S
H662 C666 0.929 . S
H663 C672 0.929 . S
C664 H658 0.930 . S
C664 C665 1.367 . S
C664 C672 1.378 . S
C665 C664 1.367 . S
C665 C673 1.433 . S
C666 H662 0.929 . S
C666 C668 1.378 . S
C666 C670 1.350 . S
C667 C670 1.463 . S
C667 C672 1.350 . S
C667 N675 1.427 . S
C668 H659 0.930 . S
C668 C666 1.378 . S
C668 C669 1.367 . S
C669 C668 1.367 . S
C669 C671 1.433 . S
C670 C666 1.350 . S
C670 C667 1.463 . S
C670 N674 1.427 . S
C671 H661 0.929 . S
C671 C669 1.433 . S
C671 N674 1.384 . S
C672 H663 0.929 . S
C672 C664 1.378 . S
C672 C667 1.350 . S
C673 H660 0.929 . S
C673 C665 1.433 . S
C673 N675 1.384 . S
N674 C670 1.427 . S
N674 C671 1.384 . S
N675 C667 1.427 . S
N675 C673 1.384 . S
H676 C682 0.930 . S
H677 C686 0.930 . S
H678 C691 0.929 . S
H679 C689 0.929 . S
H680 C684 0.929 . S
H681 C690 0.929 . S
C682 H676 0.930 . S
C682 C683 1.367 . S
C682 C690 1.378 . S
C683 C682 1.367 . S
C683 C691 1.433 . S
C684 H680 0.929 . S
C684 C686 1.378 . S
C684 C688 1.350 . S
C685 C688 1.463 . S
C685 C690 1.350 . S
C685 N693 1.427 . S
C686 H677 0.930 . S
C686 C684 1.378 . S
C686 C687 1.367 . S
C687 C686 1.367 . S
C687 C689 1.433 . S
C688 C684 1.350 . S
C688 C685 1.463 . S
C688 N692 1.427 . S
C689 H679 0.929 . S
C689 C687 1.433 . S
C689 N692 1.384 . S
C690 H681 0.929 . S
C690 C682 1.378 . S
C690 C685 1.350 . S
C691 H678 0.929 . S
C691 C683 1.433 . S
C691 N693 1.384 . S
N692 C688 1.427 . S
N692 C689 1.384 . S
N693 C685 1.427 . S
N693 C691 1.384 . S
H694 C700 0.930 . S
H695 C704 0.930 . S
H696 C709 0.929 . S
H697 C707 0.929 . S
H698 C702 0.929 . S
H699 C708 0.929 . S
C700 H694 0.930 . S
C700 C701 1.367 . S
C700 C708 1.378 . S
C701 C700 1.367 . S
C701 C709 1.433 . S
C702 H698 0.929 . S
C702 C704 1.378 . S
C702 C706 1.350 . S
C703 C706 1.463 . S
C703 C708 1.350 . S
C703 N711 1.427 . S
C704 H695 0.930 . S
C704 C702 1.378 . S
C704 C705 1.367 . S
C705 C704 1.367 . S
C705 C707 1.433 . S
C706 C702 1.350 . S
C706 C703 1.463 . S
C706 N710 1.427 . S
C707 H697 0.929 . S
C707 C705 1.433 . S
C707 N710 1.384 . S
C708 H699 0.929 . S
C708 C700 1.378 . S
C708 C703 1.350 . S
C709 H696 0.929 . S
C709 C701 1.433 . S
C709 N711 1.384 . S
N710 C706 1.427 . S
N710 C707 1.384 . S
N711 C703 1.427 . S
N711 C709 1.384 . S
H712 C718 0.930 . S
H713 C722 0.930 . S
H714 C727 0.929 . S
H715 C725 0.929 . S
H716 C720 0.929 . S
H717 C726 0.929 . S
C718 H712 0.930 . S
C718 C719 1.367 . S
C718 C726 1.378 . S
C719 C718 1.367 . S
C719 C727 1.433 . S
C720 H716 0.929 . S
C720 C722 1.378 . S
C720 C724 1.350 . S
C721 C724 1.463 . S
C721 C726 1.350 . S
C721 N729 1.427 . S
C722 H713 0.930 . S
C722 C720 1.378 . S
C722 C723 1.367 . S
C723 C722 1.367 . S
C723 C725 1.433 . S
C724 C720 1.350 . S
C724 C721 1.463 . S
C724 N728 1.427 . S
C725 H715 0.929 . S
C725 C723 1.433 . S
C725 N728 1.384 . S
C726 H717 0.929 . S
C726 C718 1.378 . S
C726 C721 1.350 . S
C727 H714 0.929 . S
C727 C719 1.433 . S
C727 N729 1.384 . S
N728 C724 1.427 . S
N728 C725 1.384 . S
N729 C721 1.427 . S
N729 C727 1.384 . S
H730 C736 0.930 . S
H731 C740 0.930 . S
H732 C745 0.929 . S
H733 C743 0.929 . S
H734 C738 0.929 . S
H735 C744 0.929 . S
C736 H730 0.930 . S
C736 C737 1.367 . S
C736 C744 1.378 . S
C737 C736 1.367 . S
C737 C745 1.433 . S
C738 H734 0.929 . S
C738 C740 1.378 . S
C738 C742 1.350 . S
C739 C742 1.463 . S
C739 C744 1.350 . S
C739 N747 1.427 . S
C740 H731 0.930 . S
C740 C738 1.378 . S
C740 C741 1.367 . S
C741 C740 1.367 . S
C741 C743 1.433 . S
C742 C738 1.350 . S
C742 C739 1.463 . S
C742 N746 1.427 . S
C743 H733 0.929 . S
C743 C741 1.433 . S
C743 N746 1.384 . S
C744 H735 0.929 . S
C744 C736 1.378 . S
C744 C739 1.350 . S
C745 H732 0.929 . S
C745 C737 1.433 . S
C745 N747 1.384 . S
N746 C742 1.427 . S
N746 C743 1.384 . S
N747 C739 1.427 . S
N747 C745 1.384 . S
H748 C754 0.930 . S
H749 C758 0.930 . S
H750 C763 0.929 . S
H751 C761 0.929 . S
H752 C756 0.929 . S
H753 C762 0.929 . S
C754 H748 0.930 . S
C754 C755 1.367 . S
C754 C762 1.378 . S
C755 C754 1.367 . S
C755 C763 1.433 . S
C756 H752 0.929 . S
C756 C758 1.378 . S
C756 C760 1.350 . S
C757 C760 1.463 . S
C757 C762 1.350 . S
C757 N765 1.427 . S
C758 H749 0.930 . S
C758 C756 1.378 . S
C758 C759 1.367 . S
C759 C758 1.367 . S
C759 C761 1.433 . S
C760 C756 1.350 . S
C760 C757 1.463 . S
C760 N764 1.427 . S
C761 H751 0.929 . S
C761 C759 1.433 . S
C761 N764 1.384 . S
C762 H753 0.929 . S
C762 C754 1.378 . S
C762 C757 1.350 . S
C763 H750 0.929 . S
C763 C755 1.433 . S
C763 N765 1.384 . S
N764 C760 1.427 . S
N764 C761 1.384 . S
N765 C757 1.427 . S
N765 C763 1.384 . S
H766 C772 0.930 . S
H767 C776 0.930 . S
H768 C781 0.929 . S
H769 C779 0.929 . S
H770 C774 0.929 . S
H771 C780 0.929 . S
C772 H766 0.930 . S
C772 C773 1.367 . S
C772 C780 1.378 . S
C773 C772 1.367 . S
C773 C781 1.433 . S
C774 H770 0.929 . S
C774 C776 1.378 . S
C774 C778 1.350 . S
C775 C778 1.463 . S
C775 C780 1.350 . S
C775 N783 1.427 . S
C776 H767 0.930 . S
C776 C774 1.378 . S
C776 C777 1.367 . S
C777 C776 1.367 . S
C777 C779 1.433 . S
C778 C774 1.350 . S
C778 C775 1.463 . S
C778 N782 1.427 . S
C779 H769 0.929 . S
C779 C777 1.433 . S
C779 N782 1.384 . S
C780 H771 0.929 . S
C780 C772 1.378 . S
C780 C775 1.350 . S
C781 H768 0.929 . S
C781 C773 1.433 . S
C781 N783 1.384 . S
N782 C778 1.427 . S
N782 C779 1.384 . S
N783 C775 1.427 . S
N783 C781 1.384 . S
H784 C790 0.930 . S
H785 C794 0.930 . S
H786 C799 0.929 . S
H787 C797 0.929 . S
H788 C792 0.929 . S
H789 C798 0.929 . S
C790 H784 0.930 . S
C790 C791 1.367 . S
C790 C798 1.378 . S
C791 C790 1.367 . S
C791 C799 1.433 . S
C792 H788 0.929 . S
C792 C794 1.378 . S
C792 C796 1.350 . S
C793 C796 1.463 . S
C793 C798 1.350 . S
C793 N801 1.427 . S
C794 H785 0.930 . S
C794 C792 1.378 . S
C794 C795 1.367 . S
C795 C794 1.367 . S
C795 C797 1.433 . S
C796 C792 1.350 . S
C796 C793 1.463 . S
C796 N800 1.427 . S
C797 H787 0.929 . S
C797 C795 1.433 . S
C797 N800 1.384 . S
C798 H789 0.929 . S
C798 C790 1.378 . S
C798 C793 1.350 . S
C799 H786 0.929 . S
C799 C791 1.433 . S
C799 N801 1.384 . S
N800 C796 1.427 . S
N800 C797 1.384 . S
N801 C793 1.427 . S
N801 C799 1.384 . S
H802 C808 0.930 . S
H803 C812 0.930 . S
H804 C817 0.929 . S
H805 C815 0.929 . S
H806 C810 0.929 . S
H807 C816 0.929 . S
C808 H802 0.930 . S
C808 C809 1.367 . S
C808 C816 1.378 . S
C809 C808 1.367 . S
C809 C817 1.433 . S
C810 H806 0.929 . S
C810 C812 1.378 . S
C810 C814 1.350 . S
C811 C814 1.463 . S
C811 C816 1.350 . S
C811 N819 1.427 . S
C812 H803 0.930 . S
C812 C810 1.378 . S
C812 C813 1.367 . S
C813 C812 1.367 . S
C813 C815 1.433 . S
C814 C810 1.350 . S
C814 C811 1.463 . S
C814 N818 1.427 . S
C815 H805 0.929 . S
C815 C813 1.433 . S
C815 N818 1.384 . S
C816 H807 0.929 . S
C816 C808 1.378 . S
C816 C811 1.350 . S
C817 H804 0.929 . S
C817 C809 1.433 . S
C817 N819 1.384 . S
N818 C814 1.427 . S
N818 C815 1.384 . S
N819 C811 1.427 . S
N819 C817 1.384 . S
H820 C826 0.930 . S
H821 C830 0.930 . S
H822 C835 0.929 . S
H823 C833 0.929 . S
H824 C828 0.929 . S
H825 C834 0.929 . S
C826 H820 0.930 . S
C826 C827 1.367 . S
C826 C834 1.378 . S
C827 C826 1.367 . S
C827 C835 1.433 . S
C828 H824 0.929 . S
C828 C830 1.378 . S
C828 C832 1.350 . S
C829 C832 1.463 . S
C829 C834 1.350 . S
C829 N837 1.427 . S
C830 H821 0.930 . S
C830 C828 1.378 . S
C830 C831 1.367 . S
C831 C830 1.367 . S
C831 C833 1.433 . S
C832 C828 1.350 . S
C832 C829 1.463 . S
C832 N836 1.427 . S
C833 H823 0.929 . S
C833 C831 1.433 . S
C833 N836 1.384 . S
C834 H825 0.929 . S
C834 C826 1.378 . S
C834 C829 1.350 . S
C835 H822 0.929 . S
C835 C827 1.433 . S
C835 N837 1.384 . S
N836 C832 1.427 . S
N836 C833 1.384 . S
N837 C829 1.427 . S
N837 C835 1.384 . S
H838 C844 0.930 . S
H839 C848 0.930 . S
H840 C853 0.929 . S
H841 C851 0.929 . S
H842 C846 0.929 . S
H843 C852 0.929 . S
C844 H838 0.930 . S
C844 C845 1.367 . S
C844 C852 1.378 . S
C845 C844 1.367 . S
C845 C853 1.433 . S
C846 H842 0.929 . S
C846 C848 1.378 . S
C846 C850 1.350 . S
C847 C850 1.463 . S
C847 C852 1.350 . S
C847 N855 1.427 . S
C848 H839 0.930 . S
C848 C846 1.378 . S
C848 C849 1.367 . S
C849 C848 1.367 . S
C849 C851 1.433 . S
C850 C846 1.350 . S
C850 C847 1.463 . S
C850 N854 1.427 . S
C851 H841 0.929 . S
C851 C849 1.433 . S
C851 N854 1.384 . S
C852 H843 0.929 . S
C852 C844 1.378 . S
C852 C847 1.350 . S
C853 H840 0.929 . S
C853 C845 1.433 . S
C853 N855 1.384 . S
N854 C850 1.427 . S
N854 C851 1.384 . S
N855 C847 1.427 . S
N855 C853 1.384 . S
C291 C169 1.508 . S
C287 C12 1.402 . S
C309 C195 1.511 . S
C305 C33 1.394 . S
C327 C209 1.503 . S
C323 C51 1.410 . S
C345 C211 1.511 . S
C341 C75 1.398 . S
C359 C103 1.436 . S
C363 C208 1.504 . S
C381 C210 1.508 . S
C377 C122 1.408 . S
C399 C168 1.497 . S
C395 C145 1.430 . S
C417 C194 1.497 . S
C413 C166 1.417 . S
C435 C196 1.510 . S
C431 C164 1.402 . S
C453 C222 1.514 . S
C449 C101 1.406 . S
C471 C180 1.499 . S
C467 C124 1.424 . S
C489 C182 1.509 . S
C485 C143 1.415 . S
C507 C181 1.504 . S
C503 C30 1.408 . S
C525 C183 1.511 . S
C521 C54 1.411 . S
C543 C197 1.502 . S
C539 C72 1.422 . S
C561 C223 1.509 . S
C557 C9 1.427 . S
C579 C225 1.510 . S
C575 C159 1.402 . S
C593 C96 1.397 . S
C597 C251 1.514 . S
C611 C114 1.423 . S
C615 C264 1.506 . S
C629 C138 1.406 . S
C633 C267 1.512 . S
C647 C40 1.435 . S
C651 C265 1.504 . S
C665 C59 1.397 . S
C669 C266 1.508 . S
C683 C82 1.430 . S
C687 C224 1.497 . S
C705 C250 1.500 . S
C701 C19 1.433 . S
C723 C253 1.511 . S
C719 C17 1.409 . S
C737 C38 1.406 . S
C741 C278 1.514 . S
C755 C61 1.421 . S
C759 C236 1.499 . S
C773 C80 1.414 . S
C777 C238 1.509 . S
C795 C237 1.505 . S
C791 C93 1.424 . S
C813 C239 1.508 . S
C809 C117 1.391 . S
C827 C135 1.405 . S
C831 C252 1.501 . S
C849 C279 1.508 . S
C845 C156 1.429 . S
