# Generated by pormake.
# Topology apo, (3,6)-cn, num edge types: 1
# Building blocks:
#     Node 0, Type 0, BuildingBlock: ESEHIV_clean_linker_0, # of connection points: 3
#     Node 1, Type 0, BuildingBlock: ESEHIV_clean_linker_0, # of connection points: 3
#     Node 2, Type 0, BuildingBlock: ESEHIV_clean_linker_0, # of connection points: 3
#     Node 3, Type 0, BuildingBlock: ESEHIV_clean_linker_0, # of connection points: 3
#     Node 4, Type 0, BuildingBlock: ESEHIV_clean_linker_0, # of connection points: 3
#     Node 5, Type 0, BuildingBlock: ESEHIV_clean_linker_0, # of connection points: 3
#     Node 6, Type 0, BuildingBlock: ESEHIV_clean_linker_0, # of connection points: 3
#     Node 7, Type 0, BuildingBlock: ESEHIV_clean_linker_0, # of connection points: 3
#     Node 8, Type 1, BuildingBlock: KUMBOL_clean_sbu_1, # of connection points: 6
#     Node 9, Type 1, BuildingBlock: KUMBOL_clean_sbu_1, # of connection points: 6
#     Node 10, Type 1, BuildingBlock: KUMBOL_clean_sbu_1, # of connection points: 6
#     Node 11, Type 1, BuildingBlock: KUMBOL_clean_sbu_1, # of connection points: 6
#     Edge 12, Type (0, 1), BuildingBlock: UVAHIK_clean_linker_0, # of connection points: 2
#     Edge 13, Type (0, 1), BuildingBlock: UVAHIK_clean_linker_0, # of connection points: 2
#     Edge 14, Type (0, 1), BuildingBlock: UVAHIK_clean_linker_0, # of connection points: 2
#     Edge 15, Type (0, 1), BuildingBlock: UVAHIK_clean_linker_0, # of connection points: 2
#     Edge 16, Type (0, 1), BuildingBlock: UVAHIK_clean_linker_0, # of connection points: 2
#     Edge 17, Type (0, 1), BuildingBlock: UVAHIK_clean_linker_0, # of connection points: 2
#     Edge 18, Type (0, 1), BuildingBlock: UVAHIK_clean_linker_0, # of connection points: 2
#     Edge 19, Type (0, 1), BuildingBlock: UVAHIK_clean_linker_0, # of connection points: 2
#     Edge 20, Type (0, 1), BuildingBlock: UVAHIK_clean_linker_0, # of connection points: 2
#     Edge 21, Type (0, 1), BuildingBlock: UVAHIK_clean_linker_0, # of connection points: 2
#     Edge 22, Type (0, 1), BuildingBlock: UVAHIK_clean_linker_0, # of connection points: 2
#     Edge 23, Type (0, 1), BuildingBlock: UVAHIK_clean_linker_0, # of connection points: 2
#     Edge 24, Type (0, 1), BuildingBlock: UVAHIK_clean_linker_0, # of connection points: 2
#     Edge 25, Type (0, 1), BuildingBlock: UVAHIK_clean_linker_0, # of connection points: 2
#     Edge 26, Type (0, 1), BuildingBlock: UVAHIK_clean_linker_0, # of connection points: 2
#     Edge 27, Type (0, 1), BuildingBlock: UVAHIK_clean_linker_0, # of connection points: 2
#     Edge 28, Type (0, 1), BuildingBlock: UVAHIK_clean_linker_0, # of connection points: 2
#     Edge 29, Type (0, 1), BuildingBlock: UVAHIK_clean_linker_0, # of connection points: 2
#     Edge 30, Type (0, 1), BuildingBlock: UVAHIK_clean_linker_0, # of connection points: 2
#     Edge 31, Type (0, 1), BuildingBlock: UVAHIK_clean_linker_0, # of connection points: 2
#     Edge 32, Type (0, 1), BuildingBlock: UVAHIK_clean_linker_0, # of connection points: 2
#     Edge 33, Type (0, 1), BuildingBlock: UVAHIK_clean_linker_0, # of connection points: 2
#     Edge 34, Type (0, 1), BuildingBlock: UVAHIK_clean_linker_0, # of connection points: 2
#     Edge 35, Type (0, 1), BuildingBlock: UVAHIK_clean_linker_0, # of connection points: 2
# Relax obj value: 0.010
# Max RMSD: 0.098
# Mean RMSD: 0.076
data_MOF--net-apo--node1-KUMBOL_clean_sbu_1--node2-ESEHIV_clean_linker_0--edge1-UVAHIK_clean_linker_0
_symmetry_space_group_name_H-M    P1
_symmetry_Int_Tables_number       1
_symmetry_cell_setting            triclinic
loop_
_symmetry_equiv_pos_as_xyz
'x, y, z'
_cell_length_a     29.566312
_cell_length_b     52.819678
_cell_length_c     64.563354
_cell_angle_alpha  89.967356
_cell_angle_beta   90.026969
_cell_angle_gamma 90.514473
loop_
_atom_site_label
_atom_site_type_symbol
_atom_site_fract_x
_atom_site_fract_y
_atom_site_fract_z
_atom_type_partial_charge
H0 H 0.32098 0.41708 0.42843 0.0
H1 H 0.27078 0.38161 0.37304 0.0
H2 H 0.25055 0.34523 0.43177 0.0
C3 C 0.30268 0.40166 0.42106 0.0
C4 C 0.28692 0.38102 0.43293 0.0
C5 C 0.29688 0.40199 0.39949 0.0
C6 C 0.27535 0.3815 0.38971 0.0
C7 C 0.25846 0.36116 0.40134 0.0
C8 C 0.26382 0.36106 0.42291 0.0
H9 H 0.16958 0.0853 0.9294 0.0
H10 H 0.22747 0.11623 0.87368 0.0
H11 H 0.25194 0.15303 0.9318 0.0
C12 C 0.19071 0.09933 0.92178 0.0
C13 C 0.21024 0.11914 0.93343 0.0
C14 C 0.19687 0.09795 0.90023 0.0
C15 C 0.22207 0.11704 0.89027 0.0
C16 C 0.24155 0.13695 0.90159 0.0
C17 C 0.23625 0.13773 0.92315 0.0
H18 H 0.8283 0.08774 0.57839 0.0
H19 H 0.76643 0.11396 0.63442 0.0
H20 H 0.76218 0.16017 0.57961 0.0
C21 C 0.80935 0.10208 0.58657 0.0
C22 C 0.79598 0.12426 0.57621 0.0
C23 C 0.7985 0.09827 0.6075 0.0
C24 C 0.77466 0.11695 0.61823 0.0
C25 C 0.76203 0.13955 0.60843 0.0
C26 C 0.77233 0.14292 0.58733 0.0
H27 H 0.66537 0.40545 0.07695 0.0
H28 H 0.72211 0.37804 0.13407 0.0
H29 H 0.74431 0.33722 0.07773 0.0
C30 C 0.68572 0.39186 0.08527 0.0
C31 C 0.70434 0.37119 0.07455 0.0
C32 C 0.69181 0.39461 0.10679 0.0
C33 C 0.71639 0.37612 0.11756 0.0
C34 C 0.7349 0.35535 0.10719 0.0
C35 C 0.72941 0.35316 0.08569 0.0
H36 H 0.67516 0.58452 0.5761 0.0
H37 H 0.7448 0.65663 0.57405 0.0
H38 H 0.73567 0.61528 0.63123 0.0
C39 C 0.69397 0.59955 0.58374 0.0
C40 C 0.70323 0.59758 0.60502 0.0
C41 C 0.70875 0.62083 0.57236 0.0
C42 C 0.73336 0.64009 0.58257 0.0
C43 C 0.74357 0.63804 0.60375 0.0
C44 C 0.72821 0.61681 0.61483 0.0
H45 H 0.82326 0.91703 0.07727 0.0
H46 H 0.7608 0.88293 0.13052 0.0
H47 H 0.75757 0.84406 0.072 0.0
C48 C 0.80452 0.90143 0.08417 0.0
C49 C 0.7919 0.88042 0.072 0.0
C50 C 0.79364 0.90233 0.10529 0.0
C51 C 0.76918 0.88228 0.11418 0.0
C52 C 0.75568 0.86132 0.10227 0.0
C53 C 0.76738 0.86038 0.08118 0.0
H54 H 0.17509 0.90809 0.43178 0.0
H55 H 0.24572 0.83719 0.42972 0.0
H56 H 0.23212 0.88233 0.37462 0.0
C57 C 0.19333 0.89379 0.42324 0.0
C58 C 0.20216 0.8977 0.40213 0.0
C59 C 0.20881 0.87195 0.43342 0.0
C60 C 0.23368 0.85406 0.42206 0.0
C61 C 0.24291 0.85765 0.40086 0.0
C62 C 0.22678 0.87959 0.39107 0.0
H63 H 0.3346 0.58945 0.93309 0.0
H64 H 0.27823 0.61604 0.87582 0.0
H65 H 0.25547 0.65738 0.93215 0.0
C66 C 0.31478 0.60317 0.92462 0.0
C67 C 0.29588 0.62378 0.9352 0.0
C68 C 0.30841 0.60017 0.90319 0.0
C69 C 0.28291 0.61818 0.89236 0.0
C70 C 0.26358 0.63893 0.90258 0.0
C71 C 0.27016 0.64149 0.92406 0.0
C72 C 0.85866 0.10566 0.25618 0.0
C73 C 0.8646 0.06291 0.26959 0.0
C74 C 0.88128 0.08798 0.26824 0.0
C75 C 0.82642 0.05568 0.25799 0.0
C76 C 0.81982 0.09861 0.24483 0.0
C77 C 0.80409 0.07347 0.24565 0.0
N78 N 0.87562 0.12964 0.25502 0.0
C79 C 0.85432 0.14781 0.24368 0.0
C80 C 0.79825 0.11699 0.2328 0.0
C81 C 0.81542 0.14173 0.23234 0.0
Gd82 Gd 0.05397 0.13364 0.23842 0.0
Gd83 Gd 0.94157 0.13787 0.27403 0.0
N84 N 0.91869 0.09541 0.27907 0.0
C85 C 0.8861 0.04602 0.28298 0.0
C86 C 0.93663 0.07973 0.29368 0.0
C87 C 0.92164 0.05464 0.29542 0.0
H88 H 0.96156 0.08655 0.30453 0.0
H89 H 0.93691 0.04211 0.30665 0.0
H90 H 0.04422 0.19546 0.22578 0.0
H91 H 0.86765 0.16692 0.24331 0.0
H92 H 0.08922 0.23463 0.22875 0.0
H93 H 0.87433 0.02662 0.28447 0.0
H94 H 0.81346 0.03644 0.25869 0.0
H95 H 0.11901 0.08726 0.2568 0.0
H96 H 0.76832 0.1123 0.22386 0.0
H97 H 0.79881 0.15609 0.22318 0.0
H98 H 0.22839 0.20807 0.25984 0.0
H99 H 0.77452 0.06763 0.23689 0.0
H100 H 0.24494 0.12011 0.27628 0.0
H101 H 0.19495 0.0826 0.27228 0.0
N102 N 0.1255 0.12705 0.25287 0.0
C103 C 0.15253 0.14789 0.25472 0.0
C104 C 0.14023 0.1038 0.25891 0.0
C105 C 0.21151 0.1223 0.26967 0.0
C106 C 0.18336 0.10108 0.26748 0.0
C107 C 0.19631 0.14606 0.2632 0.0
H108 H 0.25714 0.16689 0.2715 0.0
N109 N 0.09333 0.17242 0.24048 0.0
C110 C 0.13617 0.17121 0.24818 0.0
C111 C 0.14596 0.21623 0.24305 0.0
C112 C 0.16341 0.19315 0.24988 0.0
C113 C 0.07686 0.19469 0.23306 0.0
C114 C 0.10264 0.21695 0.23446 0.0
O115 O 0.93878 0.12249 0.24117 0.0
O116 O 0.00486 0.1009 0.23856 0.0
O117 O 0.0526 0.13874 0.205 0.0
O118 O 0.09973 0.11255 0.21871 0.0
O119 O 0.00451 0.11955 0.28756 0.0
O120 O 0.03703 0.10061 0.25912 0.0
O121 O 0.06127 0.154 0.26917 0.0
O122 O 0.99117 0.17023 0.27718 0.0
O123 O 0.92496 0.13797 0.30725 0.0
O124 O 0.88784 0.16162 0.28541 0.0
O125 O 0.99516 0.15673 0.22622 0.0
O126 O 0.95564 0.17235 0.25446 0.0
C127 C 0.96181 0.10318 0.23433 0.0
C128 C 0.03105 0.10237 0.27924 0.0
C129 C 0.12296 0.13406 0.18835 0.0
C130 C 0.15291 0.14187 0.15369 0.0
C131 C 0.19347 0.15738 0.18391 0.0
C132 C 0.16044 0.14687 0.19678 0.0
C133 C 0.1897 0.15503 0.16248 0.0
C134 C 0.11952 0.13138 0.16675 0.0
C135 C 0.08692 0.12391 0.20184 0.0
C136 C 0.20704 0.19139 0.25835 0.0
C137 C 0.22342 0.16793 0.265 0.0
H138 H 0.16581 0.23352 0.24411 0.0
C139 C 0.03529 0.16973 0.27939 0.0
C140 C 0.96683 0.17285 0.23473 0.0
C141 C 0.86433 0.16455 0.32127 0.0
C142 C 0.84527 0.16896 0.35794 0.0
C143 C 0.8044 0.19293 0.33195 0.0
C144 C 0.83046 0.1821 0.31638 0.0
C145 C 0.81187 0.18655 0.35259 0.0
C146 C 0.87126 0.15774 0.34216 0.0
C147 C 0.89303 0.15446 0.30449 0.0
H148 H 0.22217 0.16729 0.19058 0.0
H149 H 0.16441 0.14869 0.21327 0.0
H150 H 0.21601 0.16309 0.15276 0.0
H151 H 0.09072 0.12143 0.16012 0.0
H152 H 0.77849 0.20646 0.328 0.0
H153 H 0.82426 0.18767 0.30049 0.0
H154 H 0.79122 0.19525 0.36443 0.0
H155 H 0.89737 0.14434 0.34621 0.0
C156 C 0.6395 0.399 0.75422 0.0
C157 C 0.62749 0.44131 0.76758 0.0
C158 C 0.61505 0.41549 0.76663 0.0
C159 C 0.66314 0.45046 0.75521 0.0
C160 C 0.67614 0.40795 0.74224 0.0
C161 C 0.68742 0.43382 0.74259 0.0
N162 N 0.62681 0.37422 0.75355 0.0
C163 C 0.65081 0.35705 0.74235 0.0
C164 C 0.70015 0.39062 0.73017 0.0
C165 C 0.68766 0.36502 0.73036 0.0
Gd166 Gd 0.44883 0.36303 0.73812 0.0
Gd167 Gd 0.56428 0.3627 0.77373 0.0
N168 N 0.58033 0.40614 0.7783 0.0
C169 C 0.60456 0.45705 0.78139 0.0
C170 C 0.5613 0.42086 0.79327 0.0
C171 C 0.57202 0.44664 0.79462 0.0
H172 H 0.53884 0.41275 0.80465 0.0
H173 H 0.55582 0.45834 0.80615 0.0
H174 H 0.45083 0.30136 0.72628 0.0
H175 H 0.64089 0.33732 0.74245 0.0
H176 H 0.40117 0.26369 0.72981 0.0
H177 H 0.61309 0.47699 0.7826 0.0
H178 H 0.67278 0.47029 0.75558 0.0
H179 H 0.3877 0.41263 0.75364 0.0
H180 H 0.7285 0.39676 0.72074 0.0
H181 H 0.70626 0.35147 0.72122 0.0
H182 H 0.26665 0.29576 0.76178 0.0
H183 H 0.71514 0.44112 0.73331 0.0
H184 H 0.25972 0.38491 0.77535 0.0
H185 H 0.31279 0.42061 0.76913 0.0
N186 N 0.37827 0.37274 0.75248 0.0
C187 C 0.34917 0.35295 0.75521 0.0
C188 C 0.3654 0.39686 0.75697 0.0
C189 C 0.29286 0.38126 0.7689 0.0
C190 C 0.32275 0.40146 0.76546 0.0
C191 C 0.30569 0.35666 0.76356 0.0
H192 H 0.24279 0.3383 0.77251 0.0
N193 N 0.40471 0.32605 0.74114 0.0
C194 C 0.36253 0.32893 0.74916 0.0
C195 C 0.34737 0.28428 0.7445 0.0
C196 C 0.33289 0.30805 0.75127 0.0
C197 C 0.41818 0.3032 0.73354 0.0
C198 C 0.39003 0.2819 0.73543 0.0
O199 O 0.5624 0.37516 0.73998 0.0
O200 O 0.49621 0.39643 0.73887 0.0
O201 O 0.45644 0.35803 0.70483 0.0
O202 O 0.40273 0.38129 0.71678 0.0
O203 O 0.49963 0.37788 0.78789 0.0
O204 O 0.46521 0.39544 0.75952 0.0
O205 O 0.44788 0.33511 0.76465 0.0
O206 O 0.51131 0.33619 0.78627 0.0
O207 O 0.59501 0.36713 0.80432 0.0
O208 O 0.61539 0.33607 0.78404 0.0
O209 O 0.50715 0.33907 0.72709 0.0
O210 O 0.55214 0.32712 0.75509 0.0
C211 C 0.53843 0.39422 0.73328 0.0
C212 C 0.46984 0.39329 0.77967 0.0
C213 C 0.38778 0.35854 0.68614 0.0
C214 C 0.36002 0.35141 0.65103 0.0
C215 C 0.32397 0.3302 0.68011 0.0
C216 C 0.35398 0.34215 0.69366 0.0
C217 C 0.327 0.33469 0.6589 0.0
C218 C 0.39045 0.36334 0.66477 0.0
C219 C 0.42008 0.37074 0.70045 0.0
C220 C 0.28984 0.3116 0.75992 0.0
C221 C 0.27628 0.33583 0.76605 0.0
H222 H 0.32565 0.26774 0.74592 0.0
C223 C 0.47106 0.32765 0.78092 0.0
C224 C 0.53681 0.32403 0.73604 0.0
C225 C 0.65218 0.33841 0.81776 0.0
C226 C 0.67458 0.33392 0.85404 0.0
C227 C 0.71695 0.31277 0.82692 0.0
C228 C 0.688 0.32266 0.81197 0.0
C229 C 0.71016 0.31818 0.84782 0.0
C230 C 0.64598 0.34436 0.83887 0.0
C231 C 0.62015 0.34729 0.80185 0.0
H232 H 0.29808 0.31756 0.6861 0.0
H233 H 0.35039 0.33873 0.70997 0.0
H234 H 0.30294 0.32547 0.64866 0.0
H235 H 0.41627 0.37612 0.65885 0.0
H236 H 0.74449 0.30065 0.82231 0.0
H237 H 0.69352 0.31787 0.79586 0.0
H238 H 0.73289 0.31012 0.85916 0.0
H239 H 0.61807 0.35623 0.84356 0.0
C240 C 0.86982 0.81548 0.76114 0.0
C241 C 0.88639 0.77605 0.77854 0.0
C242 C 0.89685 0.80164 0.77437 0.0
C243 C 0.84983 0.76434 0.76829 0.0
C244 C 0.83181 0.80425 0.75158 0.0
C245 C 0.82256 0.77843 0.75485 0.0
N246 N 0.88011 0.84027 0.75808 0.0
C247 C 0.85192 0.85554 0.74705 0.0
C248 C 0.80385 0.81947 0.73935 0.0
C249 C 0.81359 0.84532 0.73733 0.0
Gd250 Gd 0.05343 0.85852 0.73457 0.0
Gd251 Gd 0.94615 0.8558 0.77381 0.0
N252 N 0.93153 0.81368 0.78419 0.0
C253 C 0.91195 0.76328 0.79344 0.0
C254 C 0.95375 0.80197 0.80002 0.0
C255 C 0.9452 0.77646 0.80451 0.0
H256 H 0.97789 0.81227 0.8094 0.0
H257 H 0.96384 0.7671 0.8167 0.0
H258 H 0.04959 0.91657 0.71478 0.0
H259 H 0.85982 0.87547 0.74537 0.0
H260 H 0.09045 0.95759 0.71845 0.0
H261 H 0.90506 0.7436 0.79709 0.0
H262 H 0.84159 0.74461 0.77112 0.0
H263 H 0.12508 0.81424 0.75339 0.0
H264 H 0.77428 0.81156 0.73174 0.0
H265 H 0.79177 0.85731 0.72821 0.0
H266 H 0.20998 0.93951 0.76662 0.0
H267 H 0.79382 0.76933 0.74744 0.0
H268 H 0.23118 0.85278 0.78593 0.0
H269 H 0.19295 0.81293 0.77548 0.0
N270 N 0.12137 0.8545 0.75342 0.0
C271 C 0.14391 0.87646 0.75759 0.0
C272 C 0.14003 0.83182 0.75866 0.0
C273 C 0.20061 0.8535 0.77669 0.0
C274 C 0.17911 0.83097 0.77085 0.0
C275 C 0.18386 0.87661 0.76954 0.0
H276 H 0.23715 0.90013 0.7826 0.0
N277 N 0.0913 0.89762 0.73651 0.0
C278 C 0.12887 0.89864 0.74856 0.0
C279 C 0.13835 0.94306 0.74058 0.0
C280 C 0.15296 0.92153 0.75127 0.0
C281 C 0.07843 0.91806 0.72502 0.0
C282 C 0.10139 0.9412 0.72712 0.0
O283 O 0.94041 0.84111 0.74089 0.0
O284 O 0.00953 0.82342 0.73519 0.0
O285 O 0.04528 0.86069 0.70117 0.0
O286 O 0.10756 0.84679 0.71412 0.0
O287 O 0.0137 0.84044 0.78452 0.0
O288 O 0.0455 0.82373 0.75504 0.0
O289 O 0.03666 0.89149 0.75563 0.0
O290 O 0.01312 0.87117 0.78477 0.0
O291 O 0.91235 0.85601 0.80384 0.0
O292 O 0.91024 0.88901 0.7842 0.0
O293 O 0.98938 0.8768 0.72299 0.0
O294 O 0.94785 0.88945 0.75187 0.0
C295 C 0.96565 0.82373 0.73229 0.0
C296 C 0.03904 0.82354 0.77521 0.0
C297 C 0.08451 0.83024 0.68193 0.0
C298 C 0.09695 0.81679 0.64631 0.0
C299 C 0.07626 0.78594 0.67271 0.0
C300 C 0.0747 0.80513 0.68757 0.0
C301 C 0.08769 0.79165 0.65221 0.0
C302 C 0.09508 0.83603 0.66129 0.0
C303 C 0.08431 0.85062 0.69734 0.0
C304 C 0.19131 0.92203 0.76411 0.0
C305 C 0.20671 0.89961 0.77324 0.0
H306 H 0.15597 0.96102 0.74223 0.0
C307 C 0.03328 0.89037 0.77582 0.0
C308 C 0.95934 0.89138 0.73213 0.0
C309 C 0.9174 0.89595 0.82029 0.0
C310 C 0.91961 0.90411 0.8576 0.0
C311 C 0.95978 0.93201 0.83374 0.0
C312 C 0.94508 0.91739 0.81704 0.0
C313 C 0.94724 0.92547 0.85386 0.0
C314 C 0.90461 0.88947 0.84063 0.0
C315 C 0.90281 0.87995 0.80265 0.0
H316 H 0.06876 0.76657 0.67711 0.0
H317 H 0.06616 0.80041 0.70343 0.0
H318 H 0.08877 0.77652 0.64091 0.0
H319 H 0.10267 0.85546 0.65696 0.0
H320 H 0.98099 0.9485 0.83107 0.0
H321 H 0.9556 0.92289 0.80161 0.0
H322 H 0.95874 0.93738 0.86649 0.0
H323 H 0.88371 0.87281 0.84324 0.0
C324 C 0.64772 0.66645 0.25091 0.0
C325 C 0.646 0.70957 0.26378 0.0
C326 C 0.6268 0.68504 0.2627 0.0
C327 C 0.68503 0.71536 0.25225 0.0
C328 C 0.68727 0.67209 0.23956 0.0
C329 C 0.70561 0.69668 0.24019 0.0
N330 N 0.62836 0.64302 0.24996 0.0
C331 C 0.64753 0.62412 0.23866 0.0
C332 C 0.70689 0.65289 0.22771 0.0
C333 C 0.68703 0.62878 0.22733 0.0
Gd334 Gd 0.44666 0.64222 0.23561 0.0
Gd335 Gd 0.56223 0.63695 0.2693 0.0
N336 N 0.58859 0.67898 0.27352 0.0
C337 C 0.62607 0.7274 0.27682 0.0
C338 C 0.57196 0.69561 0.28776 0.0
C339 C 0.58948 0.72022 0.28918 0.0
H340 H 0.54624 0.68995 0.29865 0.0
H341 H 0.57534 0.73346 0.30016 0.0
H342 H 0.45863 0.58952 0.20567 0.0
H343 H 0.63219 0.60548 0.23838 0.0
H344 H 0.42719 0.54646 0.20398 0.0
H345 H 0.63981 0.74643 0.2781 0.0
H346 H 0.69996 0.73416 0.25279 0.0
H347 H 0.37834 0.67478 0.26665 0.0
H348 H 0.7373 0.65649 0.21878 0.0
H349 H 0.70205 0.61382 0.21827 0.0
H350 H 0.30429 0.54718 0.25232 0.0
H351 H 0.73581 0.70143 0.23146 0.0
H352 H 0.27225 0.62505 0.28721 0.0
H353 H 0.30932 0.66725 0.2875 0.0
N354 N 0.38053 0.63716 0.25518 0.0
C355 C 0.35993 0.61405 0.25423 0.0
C356 C 0.36253 0.65628 0.26663 0.0
C357 C 0.30244 0.62827 0.27804 0.0
C358 C 0.32335 0.6521 0.2783 0.0
C359 C 0.32061 0.6089 0.26589 0.0
H360 H 0.27098 0.58022 0.2742 0.0
N361 N 0.41742 0.60086 0.23103 0.0
C362 C 0.37934 0.59529 0.24209 0.0
C363 C 0.37749 0.55307 0.22768 0.0
C364 C 0.35892 0.57107 0.24101 0.0
C365 C 0.43283 0.58413 0.2166 0.0
C366 C 0.41403 0.55982 0.21512 0.0
O367 O 0.56527 0.65299 0.23673 0.0
O368 O 0.49816 0.67385 0.23351 0.0
O369 O 0.43104 0.64378 0.20229 0.0
O370 O 0.39429 0.66704 0.22456 0.0
O371 O 0.50191 0.65674 0.28374 0.0
O372 O 0.46659 0.67531 0.25573 0.0
O373 O 0.44412 0.62487 0.2677 0.0
O374 O 0.51201 0.60471 0.2716 0.0
O375 O 0.57909 0.63637 0.30253 0.0
O376 O 0.6152 0.61256 0.28051 0.0
O377 O 0.50576 0.62099 0.22138 0.0
O378 O 0.54449 0.60348 0.24913 0.0
C379 C 0.5411 0.6714 0.22902 0.0
C380 C 0.47522 0.67405 0.27567 0.0
C381 C 0.37174 0.67171 0.18873 0.0
C382 C 0.35073 0.67601 0.15227 0.0
C383 C 0.31464 0.70204 0.17841 0.0
C384 C 0.34043 0.69061 0.19379 0.0
C385 C 0.31977 0.6949 0.1578 0.0
C386 C 0.37651 0.66426 0.16788 0.0
C387 C 0.3996 0.66051 0.20534 0.0
C388 C 0.32013 0.56575 0.25285 0.0
C389 C 0.30103 0.5846 0.26524 0.0
H390 H 0.3628 0.53427 0.22639 0.0
C391 C 0.46818 0.6059 0.27448 0.0
C392 C 0.53245 0.60365 0.22947 0.0
C393 C 0.63951 0.60928 0.31623 0.0
C394 C 0.6644 0.60757 0.35234 0.0
C395 C 0.70169 0.58204 0.32624 0.0
C396 C 0.67299 0.59162 0.31108 0.0
C397 C 0.69763 0.59001 0.3467 0.0
C398 C 0.63497 0.61703 0.33703 0.0
C399 C 0.61075 0.61976 0.2996 0.0
H400 H 0.29061 0.71656 0.18248 0.0
H401 H 0.33594 0.69671 0.20966 0.0
H402 H 0.29909 0.70397 0.14615 0.0
H403 H 0.40064 0.64979 0.16375 0.0
H404 H 0.72733 0.56846 0.32209 0.0
H405 H 0.67729 0.58525 0.29526 0.0
H406 H 0.72031 0.58226 0.35822 0.0
H407 H 0.60945 0.6307 0.34124 0.0
C408 C 0.21387 0.9351 0.37879 0.0
C409 C 0.185 0.92049 0.3914 0.0
C410 C 0.19732 0.95603 0.36802 0.0
C411 C 0.09423 0.98029 0.34493 0.0
H412 H 0.15716 0.04507 0.34427 0.0
C413 C 0.0577 0.05818 0.28478 0.0
C414 C 0.05036 0.08258 0.29267 0.0
C415 C 0.074 0.03903 0.29761 0.0
C416 C 0.1392 0.02711 0.34441 0.0
H417 H 0.11638 0.91629 0.40272 0.0
H418 H 0.0872 0.95272 0.38357 0.0
H419 H 0.18585 0.01052 0.36584 0.0
H420 H 0.05498 0.10627 0.31997 0.0
H421 H 0.08457 0.07276 0.3424 0.0
H422 H 0.04809 0.99667 0.32322 0.0
C423 C 0.12265 0.94803 0.38215 0.0
C424 C 0.15571 0.00734 0.35662 0.0
C425 C 0.13937 0.92734 0.39319 0.0
C426 C 0.06033 0.0876 0.31354 0.0
C427 C 0.07736 0.06851 0.32631 0.0
C428 C 0.07815 -0.0001 0.33249 0.0
C429 C 0.15144 0.9625 0.36939 0.0
C430 C 0.13338 0.98374 0.35697 0.0
C431 C 0.0839 0.04399 0.3185 0.0
C432 C 0.10053 0.02346 0.33207 0.0
H433 H 0.24925 0.93029 0.37725 0.0
H434 H 0.22014 0.96676 0.35818 0.0
H435 H 0.07658 0.96222 0.3448 0.0
H436 H 0.04999 0.05374 0.26878 0.0
H437 H 0.07907 0.02034 0.29117 0.0
C438 C 0.34673 0.5815 0.87212 0.0
C439 C 0.32817 0.57828 0.892 0.0
C440 C 0.36318 0.56083 0.86109 0.0
C441 C 0.35579 0.49078 0.85856 0.0
H442 H 0.45881 0.49924 0.82197 0.0
C443 C 0.44175 0.40836 0.81404 0.0
C444 C 0.45044 0.4131 0.79301 0.0
C445 C 0.42659 0.42779 0.82694 0.0
C446 C 0.42986 0.49666 0.83205 0.0
H447 H 0.31314 0.5507 0.91599 0.0
H448 H 0.34351 0.51474 0.89707 0.0
H449 H 0.43498 0.53447 0.84357 0.0
H450 H 0.45025 0.44178 0.76894 0.0
H451 H 0.42392 0.47562 0.79145 0.0
H452 H 0.35139 0.45271 0.84711 0.0
C453 C 0.34437 0.53321 0.8898 0.0
C454 C 0.41606 0.51685 0.84439 0.0
C455 C 0.32752 0.55391 0.90078 0.0
C456 C 0.44327 0.43749 0.78504 0.0
C457 C 0.42869 0.45693 0.79796 0.0
C458 C 0.36997 0.47046 0.84636 0.0
C459 C 0.36206 0.53638 0.86973 0.0
C460 C 0.37843 0.51432 0.85759 0.0
C461 C 0.42057 0.45234 0.81906 0.0
C462 C 0.40673 0.47334 0.83279 0.0
H463 H 0.34848 0.60005 0.86499 0.0
H464 H 0.37596 0.56401 0.84558 0.0
H465 H 0.32632 0.4882 0.86831 0.0
H466 H 0.44718 0.38971 0.82054 0.0
H467 H 0.42075 0.4238 0.84319 0.0
C468 C 0.66353 0.57963 0.63592 0.0
C469 C 0.6868 0.57563 0.61729 0.0
C470 C 0.65001 0.55918 0.64822 0.0
C471 C 0.63223 0.48927 0.64751 0.0
H472 H 0.63324 0.49812 0.70716 0.0
C473 C 0.59325 0.40814 0.70595 0.0
C474 C 0.55953 0.4141 0.7204 0.0
C475 C 0.61236 0.4271 0.69348 0.0
C476 C 0.63278 0.49542 0.69053 0.0
H477 H 0.71403 0.5472 0.59677 0.0
H478 H 0.69159 0.51131 0.61853 0.0
H479 H 0.65977 0.53241 0.68488 0.0
H480 H 0.52013 0.44442 0.73368 0.0
H481 H 0.55398 0.47762 0.71214 0.0
H482 H 0.60585 0.45199 0.65342 0.0
C483 C 0.68281 0.53022 0.62348 0.0
C484 C 0.64766 0.51511 0.67771 0.0
C485 C 0.69578 0.55074 0.61101 0.0
C486 C 0.5458 0.43933 0.72249 0.0
C487 C 0.56542 0.45832 0.71032 0.0
C488 C 0.61795 0.46943 0.66039 0.0
C489 C 0.66004 0.53418 0.64236 0.0
C490 C 0.64679 0.51252 0.65599 0.0
C491 C 0.59853 0.45236 0.69555 0.0
C492 C 0.61738 0.47249 0.68199 0.0
H493 H 0.65568 0.59865 0.64097 0.0
H494 H 0.63147 0.56304 0.66231 0.0
H495 H 0.63055 0.4866 0.63091 0.0
H496 H 0.60436 0.38878 0.7041 0.0
H497 H 0.63806 0.42207 0.68231 0.0
C498 C 0.79869 0.94889 0.11259 0.0
C499 C 0.80845 0.9239 0.11832 0.0
C500 C 0.81118 0.96908 0.12547 0.0
C501 C 0.84801 0.98299 0.17969 0.0
H502 H 0.88836 0.04669 0.15586 0.0
C503 C 0.95325 0.05815 0.2236 0.0
C504 C 0.93902 0.08335 0.22207 0.0
C505 C 0.93251 0.03929 0.21171 0.0
C506 C 0.87664 0.02908 0.1627 0.0
H507 H 0.84008 0.90033 0.14152 0.0
H508 H 0.86357 0.93541 0.16357 0.0
H509 H 0.86295 0.01252 0.13313 0.0
H510 H 0.89195 0.10874 0.20717 0.0
H511 H 0.85624 0.07568 0.18586 0.0
H512 H 0.86386 -0.00063 0.20922 0.0
C513 C 0.84478 0.93958 0.1496 0.0
C514 C 0.86194 0.00949 0.14971 0.0
C515 C 0.83167 0.91944 0.1369 0.0
C516 C 0.90344 0.08939 0.20859 0.0
C517 C 0.88319 0.07057 0.1964 0.0
C518 C 0.8634 0.00242 0.19262 0.0
C519 C 0.83431 0.96468 0.1442 0.0
C520 C 0.84787 0.98606 0.15801 0.0
C521 C 0.89774 0.04538 0.1978 0.0
C522 C 0.87821 0.02554 0.18423 0.0
H523 H 0.78048 0.95274 0.09839 0.0
H524 H 0.80197 0.98806 0.12088 0.0
H525 H 0.83635 0.96551 0.18674 0.0
H526 H 0.98036 0.05301 0.23405 0.0
H527 H 0.94447 0.02002 0.21298 0.0
C528 C 0.7818 0.06109 0.63036 0.0
C529 C 0.81298 0.07515 0.61855 0.0
C530 C 0.79593 0.04028 0.64197 0.0
C531 C 0.89236 0.99603 0.64895 0.0
H532 H 0.83544 0.98424 0.70222 0.0
C533 C 0.93618 0.90857 0.69778 0.0
C534 C 0.93836 0.9113 0.71939 0.0
C535 C 0.91875 0.92786 0.68544 0.0
C536 C 0.8521 0.98738 0.6875 0.0
H537 H 0.88323 0.07854 0.60949 0.0
H538 H 0.90842 0.04271 0.63022 0.0
H539 H 0.81072 0.01931 0.6808 0.0
H540 H 0.92373 0.93627 0.74509 0.0
H541 H 0.8947 0.97042 0.72352 0.0
H542 H 0.93536 0.96498 0.6561 0.0
C543 C 0.87277 0.04721 0.63015 0.0
C544 C 0.83736 0.0073 0.67501 0.0
C545 C 0.85846 0.06781 0.6183 0.0
C546 C 0.92213 0.93358 0.72847 0.0
C547 C 0.90532 0.95311 0.71607 0.0
C548 C 0.9075 0.97634 0.66156 0.0
C549 C 0.84175 0.03327 0.64229 0.0
C550 C 0.85722 0.01188 0.65553 0.0
C551 C 0.90376 0.95059 0.69435 0.0
C552 C 0.88749 0.97166 0.68098 0.0
H553 H 0.74643 0.06627 0.63064 0.0
H554 H 0.77083 0.02971 0.65069 0.0
H555 H 0.90815 0.99869 0.63397 0.0
H556 H 0.94795 0.89146 0.69035 0.0
H557 H 0.91705 0.92489 0.66887 0.0
C558 C 0.6726 0.44099 0.10915 0.0
C559 C 0.6728 0.41669 0.11814 0.0
C560 C 0.65687 0.46186 0.1203 0.0
C561 C 0.6442 0.48477 0.17318 0.0
H562 H 0.55581 0.53118 0.15085 0.0
C563 C 0.56033 0.55957 0.22473 0.0
C564 C 0.54927 0.5831 0.21608 0.0
C565 C 0.57564 0.5399 0.21221 0.0
C566 C 0.58109 0.5187 0.15722 0.0
H567 H 0.65448 0.39532 0.1457 0.0
H568 H 0.62864 0.43182 0.16527 0.0
H569 H 0.58205 0.49589 0.12972 0.0
H570 H 0.5462 0.60469 0.1876 0.0
H571 H 0.5745 0.57063 0.16572 0.0
H572 H 0.64449 0.50764 0.20043 0.0
C573 C 0.64097 0.43466 0.14963 0.0
C574 C 0.59591 0.49841 0.14512 0.0
C575 C 0.65601 0.41378 0.13841 0.0
C576 C 0.55419 0.58666 0.19464 0.0
C577 C 0.57016 0.56706 0.18211 0.0
C578 C 0.62997 0.50521 0.18515 0.0
C579 C 0.64158 0.45892 0.14076 0.0
C580 C 0.62715 0.48108 0.1531 0.0
C581 C 0.58104 0.54337 0.19072 0.0
C582 C 0.59773 0.52228 0.17747 0.0
H583 H 0.68574 0.44406 0.09369 0.0
H584 H 0.65789 0.48042 0.11316 0.0
H585 H 0.66888 0.47189 0.17958 0.0
H586 H 0.55635 0.55618 0.24119 0.0
H587 H 0.58258 0.52183 0.21939 0.0
C588 C 0.34019 0.41949 0.36944 0.0
C589 C 0.3134 0.42365 0.38701 0.0
C590 C 0.35431 0.43979 0.35712 0.0
C591 C 0.36657 0.50996 0.35692 0.0
H592 H 0.37711 0.49958 0.29764 0.0
C593 C 0.40839 0.59061 0.29892 0.0
C594 C 0.44581 0.5855 0.28626 0.0
C595 C 0.38845 0.57128 0.31066 0.0
C596 C 0.37426 0.5027 0.31417 0.0
H597 H 0.28019 0.45208 0.40557 0.0
H598 H 0.30354 0.48759 0.38371 0.0
H599 H 0.34952 0.46517 0.31956 0.0
H600 H 0.49089 0.5563 0.2753 0.0
H601 H 0.45566 0.52243 0.29565 0.0
H602 H 0.39067 0.54774 0.35127 0.0
C603 C 0.31474 0.46878 0.37966 0.0
C604 C 0.35881 0.48296 0.32678 0.0
C605 C 0.30121 0.44847 0.39217 0.0
C606 C 0.46229 0.56072 0.28511 0.0
C607 C 0.44195 0.54135 0.29658 0.0
C608 C 0.38135 0.52981 0.34423 0.0
C609 C 0.3413 0.46468 0.3619 0.0
C610 C 0.35548 0.48618 0.34838 0.0
C611 C 0.40525 0.54652 0.30966 0.0
C612 C 0.38596 0.52622 0.32281 0.0
H613 H 0.35044 0.40052 0.3653 0.0
H614 H 0.37569 0.43591 0.34391 0.0
H615 H 0.36507 0.51309 0.37347 0.0
H616 H 0.39522 0.60962 0.30009 0.0
H617 H 0.36001 0.57566 0.32056 0.0
C618 C 0.15906 0.08072 0.86826 0.0
C619 C 0.17733 0.07657 0.88808 0.0
C620 C 0.14282 0.06048 0.85642 0.0
C621 C 0.1003 0.9951 0.85973 0.0
H622 H 0.13761 0.99122 0.80224 0.0
C623 C 0.06294 0.90718 0.80933 0.0
C624 C 0.05049 0.9114 0.78864 0.0
C625 C 0.07873 0.92717 0.82159 0.0
C626 C 0.12636 0.99218 0.81818 0.0
H627 H 0.19233 0.0478 0.91104 0.0
H628 H 0.16312 0.01252 0.89045 0.0
H629 H 0.16315 0.02664 0.82355 0.0
H630 H 0.04348 0.93979 0.76468 0.0
H631 H 0.07068 0.97476 0.78604 0.0
H632 H 0.0629 0.96087 0.85432 0.0
C633 C 0.16135 0.0315 0.88416 0.0
C634 C 0.14108 0.01245 0.83039 0.0
C635 C 0.17795 0.05173 0.89596 0.0
C636 C 0.05382 0.93594 0.78045 0.0
C637 C 0.06939 0.95595 0.79271 0.0
C638 C 0.08524 0.97492 0.84747 0.0
C639 C 0.14409 0.03565 0.86418 0.0
C640 C 0.12822 0.01412 0.85128 0.0
C641 C 0.082 0.95182 0.81344 0.0
C642 C 0.09813 0.9732 0.82655 0.0
H643 H 0.15717 0.09964 0.86188 0.0
H644 H 0.12902 0.06427 0.84119 0.0
H645 H 0.08948 0.99607 0.87573 0.0
H646 H 0.06077 0.88838 0.816 0.0
H647 H 0.08869 0.92324 0.8374 0.0
C648 C 0.20046 0.09865 0.9684 0.0
C649 C 0.20234 0.1207 0.95618 0.0
C650 C 0.1915 0.10007 0.98961 0.0
C651 C 0.14525 0.14341 0.02968 0.0
H652 H 0.20648 0.09824 0.06763 0.0
C653 C 0.15687 0.15988 0.11791 0.0
C654 C 0.15029 0.13886 0.13092 0.0
C655 C 0.15844 0.15685 0.09645 0.0
C656 C 0.18871 0.11075 0.05718 0.0
H657 H 0.19617 0.16161 0.95691 0.0
H658 H 0.18283 0.16419 0.99396 0.0
H659 H 0.22045 0.09478 0.03054 0.0
H660 H 0.13929 0.09827 0.13178 0.0
H661 H 0.14257 0.09288 0.09409 0.0
H662 H 0.11485 0.15992 0.05654 0.0
C663 C 0.18713 0.14568 0.98707 0.0
C664 C 0.19662 0.10877 0.0359 0.0
C665 C 0.1956 0.14424 0.96582 0.0
C666 C 0.14417 0.11479 0.12205 0.0
C667 C 0.14639 0.1117 0.10056 0.0
C668 C 0.13779 0.14557 0.05098 0.0
C669 C 0.18466 0.12361 0.99924 0.0
C670 C 0.17523 0.12519 0.02187 0.0
C671 C 0.15404 0.13268 0.08758 0.0
C672 C 0.15964 0.12937 0.06493 0.0
H673 H 0.20607 0.08021 0.96159 0.0
H674 H 0.18939 0.08263 0.9984 0.0
H675 H 0.12738 0.15601 0.01936 0.0
H676 H 0.16144 0.17865 0.12438 0.0
H677 H 0.16467 0.17332 0.08682 0.0
C678 C 0.30847 0.35663 0.46475 0.0
C679 C 0.29648 0.37974 0.45553 0.0
C680 C 0.31899 0.3554 0.48579 0.0
C681 C 0.30591 0.38993 0.5353 0.0
H682 H 0.39996 0.34414 0.55332 0.0
C683 C 0.36147 0.38151 0.62102 0.0
C684 C 0.36164 0.35655 0.62852 0.0
C685 C 0.35812 0.38619 0.59974 0.0
C686 C 0.37361 0.357 0.5485 0.0
H687 H 0.28563 0.41967 0.46141 0.0
H688 H 0.30547 0.41768 0.49801 0.0
H689 H 0.38446 0.34899 0.51646 0.0
H690 H 0.36049 0.31695 0.61979 0.0
H691 H 0.35512 0.32507 0.58266 0.0
H692 H 0.29527 0.39787 0.56747 0.0
C693 C 0.30605 0.4004 0.489 0.0
C694 C 0.36451 0.35969 0.5274 0.0
C695 C 0.29517 0.4016 0.46794 0.0
C696 C 0.36019 0.33637 0.61438 0.0
C697 C 0.35741 0.34103 0.59315 0.0
C698 C 0.31533 0.38739 0.55642 0.0
C699 C 0.31828 0.37729 0.49817 0.0
C700 C 0.32997 0.37583 0.52055 0.0
C701 C 0.35557 0.36596 0.58564 0.0
C702 C 0.34874 0.37057 0.56323 0.0
H703 H 0.31053 0.33946 0.45565 0.0
H704 H 0.32745 0.33718 0.49237 0.0
H705 H 0.27875 0.40231 0.53063 0.0
H706 H 0.36227 0.39738 0.63164 0.0
H707 H 0.35704 0.40559 0.59432 0.0
C708 C 0.68861 0.34404 0.0433 0.0
C709 C 0.69687 0.36815 0.05183 0.0
C710 C 0.68229 0.34103 0.02199 0.0
C711 C 0.65208 0.37491 0.97393 0.0
H712 H 0.71552 0.31982 0.94743 0.0
C713 C 0.6655 0.36341 0.88434 0.0
C714 C 0.66744 0.33867 0.87646 0.0
C715 C 0.66479 0.36759 0.9058 0.0
C716 C 0.69686 0.33505 0.95456 0.0
H717 H 0.70465 0.40804 0.04444 0.0
H718 H 0.69313 0.40275 0.00722 0.0
H719 H 0.72281 0.32596 0.98455 0.0
H720 H 0.66662 0.29891 0.88464 0.0
H721 H 0.66385 0.30604 0.92186 0.0
H722 H 0.62595 0.38391 0.94385 0.0
C723 C 0.69127 0.38622 0.01713 0.0
C724 C 0.70121 0.33861 0.97589 0.0
C725 C 0.69786 0.38923 0.03847 0.0
C726 C 0.66596 0.3182 0.89033 0.0
C727 C 0.66469 0.32233 0.91167 0.0
C728 C 0.64745 0.37124 0.95252 0.0
C729 C 0.6838 0.36204 0.00863 0.0
C730 C 0.67885 0.35852 0.98586 0.0
C731 C 0.66554 0.34707 0.91975 0.0
C732 C 0.66969 0.35118 0.94256 0.0
H733 H 0.68658 0.32745 0.05313 0.0
H734 H 0.67586 0.3222 0.01598 0.0
H735 H 0.63413 0.39032 0.9812 0.0
H736 H 0.66669 0.37952 0.87395 0.0
H737 H 0.66561 0.3869 0.91141 0.0
C738 C 0.80324 0.10767 0.53979 0.0
C739 C 0.80684 0.12794 0.55386 0.0
C740 C 0.81244 0.11129 0.51872 0.0
C741 C 0.81524 0.16125 0.47907 0.0
H742 H 0.88218 0.11259 0.4465 0.0
C743 C 0.85832 0.18251 0.39447 0.0
C744 C 0.85237 0.16283 0.3801 0.0
C745 C 0.85831 0.1775 0.41569 0.0
C746 C 0.86308 0.12625 0.45533 0.0
H747 H 0.82455 0.16772 0.5568 0.0
H748 H 0.84001 0.17407 0.52008 0.0
H749 H 0.87068 0.10523 0.48355 0.0
H750 H 0.84381 0.12235 0.37651 0.0
H751 H 0.84278 0.11347 0.41377 0.0
H752 H 0.80659 0.18203 0.45102 0.0
C753 C 0.82949 0.15544 0.52532 0.0
C754 C 0.85654 0.12204 0.47656 0.0
C755 C 0.82049 0.15182 0.54637 0.0
C756 C 0.84867 0.13782 0.38731 0.0
C757 C 0.84813 0.13279 0.40865 0.0
C758 C 0.82153 0.16539 0.45791 0.0
C759 C 0.82524 0.13528 0.51121 0.0
C760 C 0.83266 0.13956 0.48868 0.0
C761 C 0.85168 0.15269 0.42311 0.0
C762 C 0.84573 0.14804 0.44574 0.0
H763 H 0.79227 0.0891 0.54495 0.0
H764 H 0.80833 0.09544 0.50823 0.0
H765 H 0.79588 0.17486 0.48785 0.0
H766 H 0.86182 0.20194 0.38926 0.0
H767 H 0.86248 0.19321 0.4263 0.0
C768 C 0.77343 0.87239 0.03451 0.0
C769 C 0.80493 0.8795 0.04979 0.0
C770 C 0.78533 0.87301 0.01351 0.0
C771 C 0.86895 0.90287 0.97819 0.0
H772 H 0.82659 0.85257 0.9388 0.0
C773 C 0.93826 0.89985 0.89535 0.0
C774 C 0.90657 0.89746 0.87921 0.0
C775 C 0.92545 0.89575 0.91589 0.0
C776 C 0.83838 0.86685 0.94961 0.0
H777 H 0.87419 0.89158 0.05516 0.0
H778 H 0.89518 0.89229 0.01872 0.0
H779 H 0.8051 0.84891 0.97528 0.0
H780 H 0.83679 0.88797 0.87202 0.0
H781 H 0.81444 0.88062 0.90803 0.0
H782 H 0.90236 0.92075 0.95266 0.0
C783 C 0.86088 0.88694 0.0228 0.0
C784 C 0.82602 0.86479 0.9705 0.0
C785 C 0.84891 0.88647 0.04371 0.0
C786 C 0.8621 0.88983 0.88407 0.0
C787 C 0.84928 0.88564 0.90469 0.0
C788 C 0.88144 0.90484 0.95741 0.0
C789 C 0.82907 0.88062 0.00739 0.0
C790 C 0.84142 0.88272 0.98508 0.0
C791 C 0.88064 0.88907 0.92085 0.0
C792 C 0.86657 0.8868 0.94289 0.0
H793 H 0.73919 0.86708 0.03874 0.0
H794 H 0.75986 0.86823 1.00208 0.0
H795 H 0.88052 0.91739 0.98884 0.0
H796 H 0.97305 0.90511 0.89213 0.0
H797 H 0.95065 0.898 0.92795 0.0
C798 C 0.65601 0.61623 0.54195 0.0
C799 C 0.69888 0.62283 0.54981 0.0
C800 C 0.64703 0.61781 0.5207 0.0
C801 C 0.69078 0.64623 0.47173 0.0
H802 H 0.62208 0.59207 0.44569 0.0
C803 C 0.70069 0.62369 0.38473 0.0
C804 C 0.66142 0.6157 0.37427 0.0
C805 C 0.69995 0.62814 0.40603 0.0
C806 C 0.64064 0.60759 0.45276 0.0
H807 H 0.76605 0.63603 0.54144 0.0
H808 H 0.75069 0.6385 0.50445 0.0
H809 H 0.63155 0.59233 0.4832 0.0
H810 H 0.59013 0.607 0.37771 0.0
H811 H 0.58874 0.6147 0.41522 0.0
H812 H 0.7011 0.66098 0.44116 0.0
C813 C 0.72358 0.63264 0.5147 0.0
C814 C 0.64613 0.60774 0.47429 0.0
C815 C 0.73247 0.63116 0.53594 0.0
C816 C 0.62081 0.61326 0.38541 0.0
C817 C 0.62015 0.61744 0.40686 0.0
C818 C 0.6855 0.64599 0.45021 0.0
C819 C 0.68076 0.62595 0.50678 0.0
C820 C 0.67194 0.62683 0.48403 0.0
C821 C 0.65995 0.62451 0.41745 0.0
C822 C 0.66102 0.62643 0.44043 0.0
H823 H 0.62919 0.61007 0.55226 0.0
H824 H 0.61349 0.61284 0.51521 0.0
H825 H 0.71002 0.66154 0.47871 0.0
H826 H 0.7324 0.62581 0.37647 0.0
H827 H 0.73126 0.63334 0.4137 0.0
C828 C 0.34643 0.623 0.96653 0.0
C829 C 0.30345 0.627 0.95783 0.0
C830 C 0.35384 0.62674 0.98772 0.0
C831 C 0.30703 0.66098 0.03248 0.0
H832 H 0.38407 0.61686 0.06477 0.0
C833 C 0.35853 0.68786 0.11498 0.0
C834 C 0.35521 0.66887 0.13015 0.0
C835 C 0.3564 0.68174 0.09399 0.0
C836 C 0.3623 0.62927 0.05598 0.0
H837 H 0.23423 0.63723 0.96471 0.0
H838 H 0.24708 0.64373 1.00163 0.0
H839 H 0.36982 0.60741 0.02824 0.0
H840 H 0.3494 0.62845 0.13527 0.0
H841 H 0.3452 0.61765 0.0984 0.0
H842 H 0.29862 0.68255 0.06014 0.0
C843 C 0.2753 0.63814 0.99202 0.0
C844 C 0.35447 0.624 0.03501 0.0
C845 C 0.26791 0.63443 0.97086 0.0
C846 C 0.35218 0.64345 0.12387 0.0
C847 C 0.34978 0.63729 0.10278 0.0
C848 C 0.31487 0.66624 0.05335 0.0
C849 C 0.31844 0.63457 1.00069 0.0
C850 C 0.32669 0.63981 0.02302 0.0
C851 C 0.35059 0.65647 0.08762 0.0
C852 C 0.34274 0.65055 0.06536 0.0
H853 H 0.37467 0.61757 0.95688 0.0
H854 H 0.3876 0.62414 0.99382 0.0
H855 H 0.28593 0.67373 0.02368 0.0
H856 H 0.3617 0.70759 0.11938 0.0
H857 H 0.35838 0.69692 0.08273 0.0
C858 C 0.23004 0.85559 0.4688 0.0
C859 C 0.19858 0.86764 0.45579 0.0
C860 C 0.21968 0.85065 0.48954 0.0
C861 C 0.15143 0.87141 0.53301 0.0
H862 H 0.1617 0.80243 0.5529 0.0
C863 C 0.086 0.84205 0.61391 0.0
C864 C 0.10899 0.82296 0.62462 0.0
C865 C 0.09724 0.84781 0.59339 0.0
C866 C 0.1594 0.8219 0.5478 0.0
H867 H 0.13145 0.88403 0.45475 0.0
H868 H 0.11443 0.87632 0.49119 0.0
H869 H 0.18207 0.81245 0.51726 0.0
H870 H 0.16244 0.79536 0.62264 0.0
H871 H 0.18357 0.80602 0.58719 0.0
H872 H 0.13027 0.88122 0.56358 0.0
C873 C 0.14696 0.87061 0.48514 0.0
C874 C 0.17084 0.82756 0.52731 0.0
C875 C 0.15691 0.87513 0.46428 0.0
C876 C 0.14382 0.80994 0.61458 0.0
C877 C 0.15568 0.816 0.59421 0.0
C878 C 0.14079 0.86588 0.55364 0.0
C879 C 0.17805 0.85809 0.49787 0.0
C880 C 0.16673 0.85232 0.51971 0.0
C881 C 0.13236 0.83491 0.58324 0.0
C882 C 0.14438 0.84099 0.56132 0.0
H883 H 0.26287 0.85006 0.46304 0.0
H884 H 0.24442 0.84121 0.49914 0.0
H885 H 0.14837 0.89071 0.52752 0.0
H886 H 0.05877 0.85224 0.6213 0.0
H887 H 0.07783 0.86213 0.58544 0.0
C888 C 0.18965 0.33495 0.39402 0.0
C889 C 0.23572 0.33989 0.39073 0.0
C890 C 0.16744 0.31599 0.38272 0.0
C891 C 0.18099 0.27698 0.33494 0.0
H892 H 0.08015 0.23904 0.35814 0.0
C893 C 0.10375 0.18729 0.29746 0.0
C894 C 0.05716 0.18856 0.29323 0.0
C895 C 0.12493 0.20565 0.30968 0.0
C896 C 0.10816 0.24963 0.3515 0.0
H897 H 0.29544 0.32865 0.37389 0.0
H898 H 0.25766 0.2946 0.35495 0.0
H899 H 0.11955 0.27046 0.37941 0.0
H900 H 0.99582 0.20951 0.29959 0.0
H901 H 0.03283 0.24107 0.32172 0.0
H902 H 0.1704 0.25523 0.30731 0.0
C903 C 0.23784 0.30588 0.36553 0.0
C904 C 0.13064 0.26773 0.3636 0.0
C905 C 0.25971 0.32518 0.37651 0.0
C906 C 0.03184 0.20805 0.30234 0.0
C907 C 0.0529 0.2261 0.31502 0.0
C908 C 0.15912 0.25852 0.32304 0.0
C909 C 0.19118 0.3013 0.36818 0.0
C910 C 0.16735 0.28172 0.35547 0.0
C911 C 0.0997 0.22521 0.31853 0.0
C912 C 0.12249 0.24477 0.3312 0.0
H913 H 0.17057 0.34629 0.40486 0.0
H914 H 0.13144 0.31338 0.38501 0.0
H915 H 0.20824 0.28773 0.32787 0.0
H916 H 0.12404 0.17207 0.29142 0.0
H917 H 0.161 0.20441 0.31243 0.0
C918 C 0.31222 0.16211 0.89484 0.0
C919 C 0.26647 0.15723 0.89058 0.0
C920 C 0.33615 0.18033 0.8834 0.0
C921 C 0.32883 0.21712 0.83407 0.0
H922 H 0.42461 0.25742 0.85904 0.0
C923 C 0.40257 0.30726 0.79652 0.0
C924 C 0.44979 0.30831 0.79439 0.0
C925 C 0.38197 0.28833 0.80836 0.0
C926 C 0.39815 0.24613 0.85188 0.0
H927 H 0.20914 0.16793 0.87181 0.0
H928 H 0.24986 0.20057 0.85256 0.0
H929 H 0.38432 0.22592 0.87991 0.0
H930 H 0.51279 0.2911 0.8039 0.0
H931 H 0.47661 0.25828 0.82531 0.0
H932 H 0.34165 0.23819 0.80629 0.0
C933 C 0.26817 0.18978 0.86403 0.0
C934 C 0.37513 0.22799 0.86377 0.0
C935 C 0.24461 0.17126 0.87517 0.0
C936 C 0.47626 0.29067 0.80517 0.0
C937 C 0.45564 0.27192 0.81737 0.0
C938 C 0.35126 0.23554 0.82234 0.0
C939 C 0.3145 0.19431 0.86772 0.0
C940 C 0.33993 0.21332 0.85506 0.0
C941 C 0.40828 0.27041 0.81882 0.0
C942 C 0.38596 0.25027 0.83115 0.0
H943 H 0.32972 0.15134 0.90662 0.0
H944 H 0.37184 0.18297 0.88655 0.0
H945 H 0.3029 0.2058 0.82658 0.0
H946 H 0.38149 0.32136 0.78937 0.0
H947 H 0.34543 0.28792 0.80961 0.0
C948 C 0.75328 0.16526 0.64082 0.0
C949 C 0.739 0.15966 0.62054 0.0
C950 C 0.73104 0.18343 0.65263 0.0
C951 C 0.62248 0.21728 0.6569 0.0
H952 H 0.6914 0.26092 0.69374 0.0
C953 C 0.54293 0.30028 0.70248 0.0
C954 C 0.55732 0.30395 0.72306 0.0
C955 C 0.5641 0.28258 0.68974 0.0
C956 C 0.67161 0.24869 0.6837 0.0
H957 H 0.69033 0.16912 0.5967 0.0
H958 H 0.65201 0.20137 0.6172 0.0
H959 H 0.73079 0.2313 0.67135 0.0
H960 H 0.60471 0.29121 0.74646 0.0
H961 H 0.64149 0.26032 0.72423 0.0
H962 H 0.56328 0.23487 0.66923 0.0
C963 C 0.68007 0.19134 0.62406 0.0
C964 C 0.6942 0.2317 0.67084 0.0
C965 C 0.70235 0.17307 0.61222 0.0
C966 C 0.5928 0.28903 0.73069 0.0
C967 C 0.61413 0.27142 0.7179 0.0
C968 C 0.59988 0.23437 0.66972 0.0
C969 C 0.69403 0.19666 0.64446 0.0
C970 C 0.66993 0.2156 0.6574 0.0
C971 C 0.60032 0.26815 0.69722 0.0
C972 C 0.62418 0.25013 0.68339 0.0
H973 H 0.78182 0.15558 0.64762 0.0
H974 H 0.74245 0.18677 0.66834 0.0
H975 H 0.60265 0.20495 0.64696 0.0
H976 H 0.51568 0.31135 0.69601 0.0
H977 H 0.55285 0.28067 0.67385 0.0
C978 C 0.73771 0.32359 0.13579 0.0
C979 C 0.75921 0.33577 0.11913 0.0
C980 C 0.76075 0.30575 0.14767 0.0
C981 C 0.86512 0.26611 0.14851 0.0
H982 H 0.83478 0.26094 0.20674 0.0
C983 C 0.93845 0.18703 0.20018 0.0
C984 C 0.9456 0.19203 0.22129 0.0
C985 C 0.91662 0.20467 0.18759 0.0
C986 C 0.84437 0.26231 0.1906 0.0
H987 H 0.82146 0.33901 0.10173 0.0
H988 H 0.86273 0.30869 0.123 0.0
H989 H 0.7967 0.29168 0.18532 0.0
H990 H 0.93674 0.21964 0.24569 0.0
H991 H 0.90081 0.25099 0.22362 0.0
H992 H 0.91472 0.23774 0.1541 0.0
C993 C 0.82759 0.31219 0.1266 0.0
C994 C 0.8217 0.27971 0.17813 0.0
C995 C 0.80413 0.32968 0.11444 0.0
C996 C 0.93129 0.2152 0.22949 0.0
C997 C 0.91033 0.23309 0.21682 0.0
C998 C 0.88844 0.24903 0.16109 0.0
C999 C 0.80629 0.30002 0.14348 0.0
C1000 C 0.83138 0.28174 0.15684 0.0
C1001 C 0.9022 0.22801 0.1957 0.0
C1002 C 0.8782 0.24672 0.18232 0.0
H1003 H 0.70287 0.32781 0.13955 0.0
H1004 H 0.74259 0.29639 0.16009 0.0
H1005 H 0.87332 0.26677 0.13218 0.0
H1006 H 0.94866 0.16917 0.19349 0.0
H1007 H 0.91026 0.19969 0.17159 0.0
C1008 C 0.75725 0.68342 0.61359 0.0
C1009 C 0.77013 0.65794 0.61458 0.0
C1010 C 0.7801 0.70175 0.62536 0.0
C1011 C 0.85503 0.70741 0.67153 0.0
H1012 H 0.87096 0.77646 0.65229 0.0
C1013 C 0.96479 0.78144 0.71493 0.0
C1014 C 0.94472 0.8051 0.71813 0.0
C1015 C 0.94446 0.76364 0.70178 0.0
C1016 C 0.8665 0.75725 0.65788 0.0
H1017 H 0.81824 0.63176 0.62771 0.0
H1018 H 0.85918 0.66372 0.64763 0.0
H1019 H 0.83492 0.74518 0.6297 0.0
H1020 H 0.88859 0.82907 0.70962 0.0
H1021 H 0.85296 0.79796 0.68671 0.0
H1022 H 0.88739 0.7195 0.69957 0.0
C1023 C 0.83049 0.66958 0.63843 0.0
C1024 C 0.8457 0.73933 0.64499 0.0
C1025 C 0.80727 0.65125 0.62691 0.0
C1026 C 0.9044 0.81082 0.70769 0.0
C1027 C 0.88428 0.79314 0.69441 0.0
C1028 C 0.87629 0.72524 0.68429 0.0
C1029 C 0.8167 0.69501 0.63816 0.0
C1030 C 0.83957 0.71415 0.65166 0.0
C1031 C 0.90399 0.76932 0.6914 0.0
C1032 C 0.88211 0.75036 0.67764 0.0
H1033 H 0.72848 0.689 0.60431 0.0
H1034 H 0.7681 0.72105 0.62491 0.0
H1035 H 0.85004 0.68841 0.67745 0.0
H1036 H 0.9959 0.77654 0.72279 0.0
H1037 H 0.96057 0.7455 0.6996 0.0
C1038 C 0.74484 0.81533 0.11087 0.0
C1039 C 0.73008 0.84045 0.11232 0.0
C1040 C 0.72374 0.79622 0.12252 0.0
C1041 C 0.6534 0.78841 0.16966 0.0
H1042 H 0.63633 0.7198 0.14965 0.0
C1043 C 0.54506 0.71454 0.21325 0.0
C1044 C 0.56297 0.69013 0.21524 0.0
C1045 C 0.56603 0.73242 0.20043 0.0
C1046 C 0.64128 0.73884 0.15549 0.0
H1047 H 0.68021 0.86514 0.12598 0.0
H1048 H 0.64256 0.83185 0.14579 0.0
H1049 H 0.67037 0.75172 0.12695 0.0
H1050 H 0.61614 0.66507 0.20505 0.0
H1051 H 0.65306 0.69642 0.18273 0.0
H1052 H 0.6238 0.77561 0.19808 0.0
C1053 C 0.6713 0.82689 0.13627 0.0
C1054 C 0.66081 0.75713 0.14251 0.0
C1055 C 0.69261 0.84595 0.12482 0.0
C1056 C 0.60196 0.68385 0.204 0.0
C1057 C 0.62281 0.7017 0.19108 0.0
C1058 C 0.63362 0.77021 0.18255 0.0
C1059 C 0.68726 0.8019 0.1357 0.0
C1060 C 0.66686 0.7822 0.1494 0.0
C1061 C 0.6051 0.72619 0.1892 0.0
C1062 C 0.62715 0.74527 0.17558 0.0
H1063 H 0.7739 0.81066 0.10144 0.0
H1064 H 0.73714 0.77723 0.12179 0.0
H1065 H 0.65855 0.80734 0.17571 0.0
H1066 H 0.51507 0.71991 0.22176 0.0
H1067 H 0.55135 0.75107 0.19913 0.0
C1068 C 0.26395 0.81238 0.39313 0.0
C1069 C 0.26876 0.83844 0.38885 0.0
C1070 C 0.28775 0.79445 0.38164 0.0
C1071 C 0.33473 0.78321 0.331 0.0
H1072 H 0.41283 0.73413 0.35727 0.0
C1073 C 0.44586 0.71741 0.2821 0.0
C1074 C 0.45412 0.69287 0.28939 0.0
C1075 C 0.42456 0.73513 0.29473 0.0
C1076 C 0.39058 0.74736 0.34965 0.0
H1077 H 0.30362 0.86582 0.36926 0.0
H1078 H 0.34321 0.83436 0.34864 0.0
H1079 H 0.37221 0.76467 0.37849 0.0
H1080 H 0.44638 0.66737 0.31541 0.0
H1081 H 0.40718 0.69783 0.33722 0.0
H1082 H 0.35105 0.76556 0.30228 0.0
C1083 C 0.32111 0.82801 0.36102 0.0
C1084 C 0.36759 0.76495 0.36184 0.0
C1085 C 0.29811 0.84598 0.37276 0.0
C1086 C 0.44079 0.68631 0.30954 0.0
C1087 C 0.41851 0.70386 0.32205 0.0
C1088 C 0.3569 0.76533 0.31883 0.0
C1089 C 0.31612 0.80211 0.36535 0.0
C1090 C 0.33981 0.78314 0.35259 0.0
C1091 C 0.40995 0.72854 0.31481 0.0
C1092 C 0.38554 0.74727 0.32794 0.0
H1093 H 0.24109 0.8057 0.40507 0.0
H1094 H 0.2831 0.77453 0.38512 0.0
H1095 H 0.313 0.79689 0.32355 0.0
H1096 H 0.45629 0.72301 0.26666 0.0
H1097 H 0.41982 0.75405 0.28871 0.0
C1098 C 0.21 0.65058 0.87384 0.0
C1099 C 0.23745 0.65805 0.89061 0.0
C1100 C 0.18796 0.66855 0.8617 0.0
C1101 C 0.19041 0.7374 0.84895 0.0
H1102 H 0.07496 0.72167 0.82323 0.0
C1103 C 0.07811 0.81139 0.8079 0.0
C1104 C 0.06282 0.80478 0.78802 0.0
C1105 C 0.09998 0.79361 0.8203 0.0
C1106 C 0.10735 0.72621 0.83022 0.0
H1107 H 0.26206 0.69056 0.90796 0.0
H1108 H 0.22159 0.72173 0.88759 0.0
H1109 H 0.11001 0.69076 0.84609 0.0
H1110 H 0.05803 0.77459 0.76544 0.0
H1111 H 0.09543 0.74313 0.78742 0.0
H1112 H 0.18658 0.77327 0.83351 0.0
C1113 C 0.2183 0.70197 0.88335 0.0
C1114 C 0.12762 0.70848 0.84327 0.0
C1115 C 0.24096 0.684 0.89531 0.0
C1116 C 0.06971 0.7801 0.78071 0.0
C1117 C 0.0908 0.76214 0.79328 0.0
C1118 C 0.16971 0.75527 0.83619 0.0
C1119 C 0.19199 0.69454 0.86617 0.0
C1120 C 0.16961 0.71375 0.85274 0.0
C1121 C 0.10616 0.76877 0.81318 0.0
C1122 C 0.12814 0.74978 0.82663 0.0
H1123 H 0.20567 0.63077 0.86996 0.0
H1124 H 0.16853 0.66198 0.84851 0.0
H1125 H 0.22311 0.74203 0.85555 0.0
H1126 H 0.07336 0.83037 0.81383 0.0
H1127 H 0.11132 0.79913 0.83561 0.0
loop_
_geom_bond_atom_site_label_1
_geom_bond_atom_site_label_2
_geom_bond_distance
_geom_bond_site_symmetry_2
_ccdc_geom_bond_type
H0 C3 0.931 . S
H1 C6 0.928 . S
H2 C8 0.930 . S
C3 H0 0.931 . S
C3 C4 1.413 . S
C3 C5 1.360 . S
C4 C3 1.413 . S
C4 C8 1.429 . S
C5 C3 1.360 . S
C5 C6 1.372 . S
C6 H1 0.928 . S
C6 C5 1.372 . S
C6 C7 1.404 . S
C7 C6 1.404 . S
C7 C8 1.391 . S
C8 H2 0.930 . S
C8 C4 1.429 . S
C8 C7 1.391 . S
H9 C12 0.931 . S
H10 C15 0.928 . S
H11 C17 0.930 . S
C12 H9 0.931 . S
C12 C13 1.413 . S
C12 C14 1.360 . S
C13 C12 1.413 . S
C13 C17 1.429 . S
C14 C12 1.360 . S
C14 C15 1.372 . S
C15 H10 0.928 . S
C15 C14 1.372 . S
C15 C16 1.404 . S
C16 C15 1.404 . S
C16 C17 1.391 . S
C17 H11 0.930 . S
C17 C13 1.429 . S
C17 C16 1.391 . S
H18 C21 0.931 . S
H19 C24 0.928 . S
H20 C26 0.930 . S
C21 H18 0.931 . S
C21 C22 1.413 . S
C21 C23 1.360 . S
C22 C21 1.413 . S
C22 C26 1.429 . S
C23 C21 1.360 . S
C23 C24 1.372 . S
C24 H19 0.928 . S
C24 C23 1.372 . S
C24 C25 1.404 . S
C25 C24 1.404 . S
C25 C26 1.391 . S
C26 H20 0.930 . S
C26 C22 1.429 . S
C26 C25 1.391 . S
H27 C30 0.931 . S
H28 C33 0.928 . S
H29 C35 0.930 . S
C30 H27 0.931 . S
C30 C31 1.413 . S
C30 C32 1.360 . S
C31 C30 1.413 . S
C31 C35 1.429 . S
C32 C30 1.360 . S
C32 C33 1.372 . S
C33 H28 0.928 . S
C33 C32 1.372 . S
C33 C34 1.404 . S
C34 C33 1.404 . S
C34 C35 1.391 . S
C35 H29 0.930 . S
C35 C31 1.429 . S
C35 C34 1.391 . S
H36 C39 0.931 . S
H37 C42 0.928 . S
H38 C44 0.930 . S
C39 H36 0.931 . S
C39 C40 1.413 . S
C39 C41 1.360 . S
C40 C39 1.413 . S
C40 C44 1.429 . S
C41 C39 1.360 . S
C41 C42 1.372 . S
C42 H37 0.928 . S
C42 C41 1.372 . S
C42 C43 1.404 . S
C43 C42 1.404 . S
C43 C44 1.391 . S
C44 H38 0.930 . S
C44 C40 1.429 . S
C44 C43 1.391 . S
H45 C48 0.931 . S
H46 C51 0.928 . S
H47 C53 0.930 . S
C48 H45 0.931 . S
C48 C49 1.413 . S
C48 C50 1.360 . S
C49 C48 1.413 . S
C49 C53 1.429 . S
C50 C48 1.360 . S
C50 C51 1.372 . S
C51 H46 0.928 . S
C51 C50 1.372 . S
C51 C52 1.404 . S
C52 C51 1.404 . S
C52 C53 1.391 . S
C53 H47 0.930 . S
C53 C49 1.429 . S
C53 C52 1.391 . S
H54 C57 0.931 . S
H55 C60 0.928 . S
H56 C62 0.930 . S
C57 H54 0.931 . S
C57 C58 1.413 . S
C57 C59 1.360 . S
C58 C57 1.413 . S
C58 C62 1.429 . S
C59 C57 1.360 . S
C59 C60 1.372 . S
C60 H55 0.928 . S
C60 C59 1.372 . S
C60 C61 1.404 . S
C61 C60 1.404 . S
C61 C62 1.391 . S
C62 H56 0.930 . S
C62 C58 1.429 . S
C62 C61 1.391 . S
H63 C66 0.931 . S
H64 C69 0.928 . S
H65 C71 0.930 . S
C66 H63 0.931 . S
C66 C67 1.413 . S
C66 C68 1.360 . S
C67 C66 1.413 . S
C67 C71 1.429 . S
C68 C66 1.360 . S
C68 C69 1.372 . S
C69 H64 0.928 . S
C69 C68 1.372 . S
C69 C70 1.404 . S
C70 C69 1.404 . S
C70 C71 1.391 . S
C71 H65 0.930 . S
C71 C67 1.429 . S
C71 C70 1.391 . S
C72 C74 1.422 . S
C72 C76 1.415 . S
C72 N78 1.369 . S
C73 C74 1.421 . S
C73 C75 1.417 . S
C73 C85 1.422 . S
C74 C72 1.422 . S
C74 C73 1.421 . S
C74 N84 1.359 . S
C75 C73 1.417 . S
C75 C77 1.329 . S
C75 H94 0.930 . S
C76 C72 1.415 . S
C76 C77 1.437 . S
C76 C80 1.413 . S
C77 C75 1.329 . S
C77 C76 1.437 . S
C77 H99 0.929 . S
N78 C72 1.369 . S
N78 C79 1.338 . S
N78 Gd83 2.622 . S
C79 N78 1.338 . S
C79 C81 1.378 . S
C79 H91 0.929 . S
C80 C76 1.413 . S
C80 C81 1.348 . S
C80 H96 0.931 . S
C81 C79 1.378 . S
C81 C80 1.348 . S
C81 H97 0.930 . S
Gd82 N102 2.622 . S
Gd82 N109 2.570 . S
Gd82 O116 2.353 . S
Gd82 O117 2.468 . S
Gd82 O118 2.427 . S
Gd82 O120 2.388 . S
Gd82 O121 2.386 . S
Gd82 O125 2.311 . S
Gd82 C135 2.805 . S
Gd83 N78 2.622 . S
Gd83 N84 2.570 . S
Gd83 O115 2.386 . S
Gd83 O119 2.307 1_655 S
Gd83 O122 2.342 1_655 S
Gd83 O123 2.468 . S
Gd83 O124 2.427 . S
Gd83 O126 2.388 . S
Gd83 C147 2.805 . S
N84 C74 1.359 . S
N84 Gd83 2.570 . S
N84 C86 1.343 . S
C85 C73 1.422 . S
C85 C87 1.321 . S
C85 H93 0.931 . S
C86 N84 1.343 . S
C86 C87 1.390 . S
C86 H88 0.931 . S
C87 C85 1.321 . S
C87 C86 1.390 . S
C87 H89 0.930 . S
H88 C86 0.931 . S
H89 C87 0.930 . S
H90 C113 0.931 . S
H91 C79 0.929 . S
H92 C114 0.930 . S
H93 C85 0.931 . S
H94 C75 0.930 . S
H95 C104 0.929 . S
H96 C80 0.931 . S
H97 C81 0.930 . S
H98 C136 0.930 . S
H99 C77 0.929 . S
H100 C105 0.931 . S
H101 C106 0.930 . S
N102 Gd82 2.622 . S
N102 C103 1.369 . S
N102 C104 1.338 . S
C103 N102 1.369 . S
C103 C107 1.415 . S
C103 C110 1.422 . S
C104 H95 0.929 . S
C104 N102 1.338 . S
C104 C106 1.378 . S
C105 H100 0.931 . S
C105 C106 1.348 . S
C105 C107 1.413 . S
C106 H101 0.930 . S
C106 C104 1.378 . S
C106 C105 1.348 . S
C107 C103 1.415 . S
C107 C105 1.413 . S
C107 C137 1.437 . S
H108 C137 0.929 . S
N109 Gd82 2.570 . S
N109 C110 1.359 . S
N109 C113 1.343 . S
C110 C103 1.422 . S
C110 N109 1.359 . S
C110 C112 1.421 . S
C111 C112 1.422 . S
C111 C114 1.321 . S
C111 H138 0.931 . S
C112 C110 1.421 . S
C112 C111 1.422 . S
C112 C136 1.417 . S
C113 H90 0.931 . S
C113 N109 1.343 . S
C113 C114 1.390 . S
C114 H92 0.930 . S
C114 C111 1.321 . S
C114 C113 1.390 . S
O115 Gd83 2.386 . S
O115 C127 1.265 . S
O116 Gd82 2.353 . S
O116 C127 1.242 1_455 S
O117 Gd82 2.468 . S
O117 C135 1.263 . S
O118 Gd82 2.427 . S
O118 C135 1.252 . S
O119 Gd83 2.307 1_455 S
O119 C128 1.261 . S
O120 Gd82 2.388 . S
O120 C128 1.252 . S
O121 Gd82 2.386 . S
O121 C139 1.265 . S
O122 Gd83 2.342 1_455 S
O122 C139 1.255 . S
O123 Gd83 2.468 . S
O123 C147 1.263 . S
O124 Gd83 2.427 . S
O124 C147 1.252 . S
O125 Gd82 2.311 . S
O125 C140 1.256 1_455 S
O126 Gd83 2.388 . S
O126 C140 1.252 . S
C127 O115 1.265 . S
C127 O116 1.242 1_655 S
C128 O119 1.261 . S
C128 O120 1.252 . S
C129 C132 1.394 . S
C129 C134 1.370 . S
C129 C135 1.500 . S
C130 C133 1.383 . S
C130 C134 1.395 . S
C131 C132 1.396 . S
C131 C133 1.365 . S
C131 H148 0.929 . S
C132 C129 1.394 . S
C132 C131 1.396 . S
C132 H149 0.930 . S
C133 C130 1.383 . S
C133 C131 1.365 . S
C133 H150 0.931 . S
C134 C129 1.370 . S
C134 C130 1.395 . S
C134 H151 0.930 . S
C135 Gd82 2.805 . S
C135 O117 1.263 . S
C135 O118 1.252 . S
C135 C129 1.500 . S
C136 H98 0.930 . S
C136 C112 1.417 . S
C136 C137 1.329 . S
C137 C107 1.437 . S
C137 H108 0.929 . S
C137 C136 1.329 . S
H138 C111 0.931 . S
C139 O121 1.265 . S
C139 O122 1.255 . S
C140 O125 1.256 1_655 S
C140 O126 1.252 . S
C141 C144 1.394 . S
C141 C146 1.370 . S
C141 C147 1.500 . S
C142 C145 1.383 . S
C142 C146 1.395 . S
C143 C144 1.396 . S
C143 C145 1.365 . S
C143 H152 0.929 . S
C144 C141 1.394 . S
C144 C143 1.396 . S
C144 H153 0.930 . S
C145 C142 1.383 . S
C145 C143 1.365 . S
C145 H154 0.931 . S
C146 C141 1.370 . S
C146 C142 1.395 . S
C146 H155 0.930 . S
C147 Gd83 2.805 . S
C147 O123 1.263 . S
C147 O124 1.252 . S
C147 C141 1.500 . S
H148 C131 0.929 . S
H149 C132 0.930 . S
H150 C133 0.931 . S
H151 C134 0.930 . S
H152 C143 0.929 . S
H153 C144 0.930 . S
H154 C145 0.931 . S
H155 C146 0.930 . S
C156 C158 1.422 . S
C156 C160 1.415 . S
C156 N162 1.369 . S
C157 C158 1.421 . S
C157 C159 1.417 . S
C157 C169 1.422 . S
C158 C156 1.422 . S
C158 C157 1.421 . S
C158 N168 1.359 . S
C159 C157 1.417 . S
C159 C161 1.329 . S
C159 H178 0.930 . S
C160 C156 1.415 . S
C160 C161 1.437 . S
C160 C164 1.413 . S
C161 C159 1.329 . S
C161 C160 1.437 . S
C161 H183 0.929 . S
N162 C156 1.369 . S
N162 C163 1.338 . S
N162 Gd167 2.622 . S
C163 N162 1.338 . S
C163 C165 1.378 . S
C163 H175 0.929 . S
C164 C160 1.413 . S
C164 C165 1.348 . S
C164 H180 0.931 . S
C165 C163 1.378 . S
C165 C164 1.348 . S
C165 H181 0.930 . S
Gd166 N186 2.622 . S
Gd166 N193 2.570 . S
Gd166 O200 2.353 . S
Gd166 O201 2.468 . S
Gd166 O202 2.427 . S
Gd166 O204 2.388 . S
Gd166 O205 2.386 . S
Gd166 O209 2.307 . S
Gd166 C219 2.805 . S
Gd167 N162 2.622 . S
Gd167 N168 2.570 . S
Gd167 O199 2.386 . S
Gd167 O203 2.307 . S
Gd167 O206 2.353 . S
Gd167 O207 2.468 . S
Gd167 O208 2.427 . S
Gd167 O210 2.388 . S
Gd167 C231 2.805 . S
N168 C158 1.359 . S
N168 Gd167 2.570 . S
N168 C170 1.343 . S
C169 C157 1.422 . S
C169 C171 1.321 . S
C169 H177 0.931 . S
C170 N168 1.343 . S
C170 C171 1.390 . S
C170 H172 0.931 . S
C171 C169 1.321 . S
C171 C170 1.390 . S
C171 H173 0.930 . S
H172 C170 0.931 . S
H173 C171 0.930 . S
H174 C197 0.931 . S
H175 C163 0.929 . S
H176 C198 0.930 . S
H177 C169 0.931 . S
H178 C159 0.930 . S
H179 C188 0.929 . S
H180 C164 0.931 . S
H181 C165 0.930 . S
H182 C220 0.930 . S
H183 C161 0.929 . S
H184 C189 0.931 . S
H185 C190 0.930 . S
N186 Gd166 2.622 . S
N186 C187 1.369 . S
N186 C188 1.338 . S
C187 N186 1.369 . S
C187 C191 1.415 . S
C187 C194 1.422 . S
C188 H179 0.929 . S
C188 N186 1.338 . S
C188 C190 1.378 . S
C189 H184 0.931 . S
C189 C190 1.348 . S
C189 C191 1.413 . S
C190 H185 0.930 . S
C190 C188 1.378 . S
C190 C189 1.348 . S
C191 C187 1.415 . S
C191 C189 1.413 . S
C191 C221 1.437 . S
H192 C221 0.929 . S
N193 Gd166 2.570 . S
N193 C194 1.359 . S
N193 C197 1.343 . S
C194 C187 1.422 . S
C194 N193 1.359 . S
C194 C196 1.421 . S
C195 C196 1.422 . S
C195 C198 1.321 . S
C195 H222 0.931 . S
C196 C194 1.421 . S
C196 C195 1.422 . S
C196 C220 1.417 . S
C197 H174 0.931 . S
C197 N193 1.343 . S
C197 C198 1.390 . S
C198 H176 0.930 . S
C198 C195 1.321 . S
C198 C197 1.390 . S
O199 Gd167 2.386 . S
O199 C211 1.265 . S
O200 Gd166 2.353 . S
O200 C211 1.242 . S
O201 Gd166 2.468 . S
O201 C219 1.263 . S
O202 Gd166 2.427 . S
O202 C219 1.252 . S
O203 Gd167 2.307 . S
O203 C212 1.261 . S
O204 Gd166 2.388 . S
O204 C212 1.252 . S
O205 Gd166 2.386 . S
O205 C223 1.265 . S
O206 Gd167 2.353 . S
O206 C223 1.242 . S
O207 Gd167 2.468 . S
O207 C231 1.263 . S
O208 Gd167 2.427 . S
O208 C231 1.252 . S
O209 Gd166 2.307 . S
O209 C224 1.261 . S
O210 Gd167 2.388 . S
O210 C224 1.252 . S
C211 O199 1.265 . S
C211 O200 1.242 . S
C212 O203 1.261 . S
C212 O204 1.252 . S
C213 C216 1.394 . S
C213 C218 1.370 . S
C213 C219 1.500 . S
C214 C217 1.383 . S
C214 C218 1.395 . S
C215 C216 1.396 . S
C215 C217 1.365 . S
C215 H232 0.929 . S
C216 C213 1.394 . S
C216 C215 1.396 . S
C216 H233 0.930 . S
C217 C214 1.383 . S
C217 C215 1.365 . S
C217 H234 0.931 . S
C218 C213 1.370 . S
C218 C214 1.395 . S
C218 H235 0.930 . S
C219 Gd166 2.805 . S
C219 O201 1.263 . S
C219 O202 1.252 . S
C219 C213 1.500 . S
C220 H182 0.930 . S
C220 C196 1.417 . S
C220 C221 1.329 . S
C221 C191 1.437 . S
C221 H192 0.929 . S
C221 C220 1.329 . S
H222 C195 0.931 . S
C223 O205 1.265 . S
C223 O206 1.242 . S
C224 O209 1.261 . S
C224 O210 1.252 . S
C225 C228 1.394 . S
C225 C230 1.370 . S
C225 C231 1.500 . S
C226 C229 1.383 . S
C226 C230 1.395 . S
C227 C228 1.396 . S
C227 C229 1.365 . S
C227 H236 0.929 . S
C228 C225 1.394 . S
C228 C227 1.396 . S
C228 H237 0.930 . S
C229 C226 1.383 . S
C229 C227 1.365 . S
C229 H238 0.931 . S
C230 C225 1.370 . S
C230 C226 1.395 . S
C230 H239 0.930 . S
C231 Gd167 2.805 . S
C231 O207 1.263 . S
C231 O208 1.252 . S
C231 C225 1.500 . S
H232 C215 0.929 . S
H233 C216 0.930 . S
H234 C217 0.931 . S
H235 C218 0.930 . S
H236 C227 0.929 . S
H237 C228 0.930 . S
H238 C229 0.931 . S
H239 C230 0.930 . S
C240 C242 1.422 . S
C240 C244 1.415 . S
C240 N246 1.369 . S
C241 C242 1.421 . S
C241 C243 1.417 . S
C241 C253 1.422 . S
C242 C240 1.422 . S
C242 C241 1.421 . S
C242 N252 1.359 . S
C243 C241 1.417 . S
C243 C245 1.329 . S
C243 H262 0.930 . S
C244 C240 1.415 . S
C244 C245 1.437 . S
C244 C248 1.413 . S
C245 C243 1.329 . S
C245 C244 1.437 . S
C245 H267 0.929 . S
N246 C240 1.369 . S
N246 C247 1.338 . S
N246 Gd251 2.622 . S
C247 N246 1.338 . S
C247 C249 1.378 . S
C247 H259 0.929 . S
C248 C244 1.413 . S
C248 C249 1.348 . S
C248 H264 0.931 . S
C249 C247 1.378 . S
C249 C248 1.348 . S
C249 H265 0.930 . S
Gd250 N270 2.622 . S
Gd250 N277 2.570 . S
Gd250 O284 2.353 . S
Gd250 O285 2.468 . S
Gd250 O286 2.427 . S
Gd250 O288 2.388 . S
Gd250 O289 2.386 . S
Gd250 O293 2.307 . S
Gd250 C303 2.805 . S
Gd251 N246 2.622 . S
Gd251 N252 2.570 . S
Gd251 O283 2.386 . S
Gd251 O287 2.307 1_655 S
Gd251 O290 2.353 1_655 S
Gd251 O291 2.468 . S
Gd251 O292 2.427 . S
Gd251 O294 2.388 . S
Gd251 C315 2.805 . S
N252 C242 1.359 . S
N252 Gd251 2.570 . S
N252 C254 1.343 . S
C253 C241 1.422 . S
C253 C255 1.321 . S
C253 H261 0.931 . S
C254 N252 1.343 . S
C254 C255 1.390 . S
C254 H256 0.931 . S
C255 C253 1.321 . S
C255 C254 1.390 . S
C255 H257 0.930 . S
H256 C254 0.931 . S
H257 C255 0.930 . S
H258 C281 0.931 . S
H259 C247 0.929 . S
H260 C282 0.930 . S
H261 C253 0.931 . S
H262 C243 0.930 . S
H263 C272 0.929 . S
H264 C248 0.931 . S
H265 C249 0.930 . S
H266 C304 0.930 . S
H267 C245 0.929 . S
H268 C273 0.931 . S
H269 C274 0.930 . S
N270 Gd250 2.622 . S
N270 C271 1.369 . S
N270 C272 1.338 . S
C271 N270 1.369 . S
C271 C275 1.415 . S
C271 C278 1.422 . S
C272 H263 0.929 . S
C272 N270 1.338 . S
C272 C274 1.378 . S
C273 H268 0.931 . S
C273 C274 1.348 . S
C273 C275 1.413 . S
C274 H269 0.930 . S
C274 C272 1.378 . S
C274 C273 1.348 . S
C275 C271 1.415 . S
C275 C273 1.413 . S
C275 C305 1.437 . S
H276 C305 0.929 . S
N277 Gd250 2.570 . S
N277 C278 1.359 . S
N277 C281 1.343 . S
C278 C271 1.422 . S
C278 N277 1.359 . S
C278 C280 1.421 . S
C279 C280 1.422 . S
C279 C282 1.321 . S
C279 H306 0.931 . S
C280 C278 1.421 . S
C280 C279 1.422 . S
C280 C304 1.417 . S
C281 H258 0.931 . S
C281 N277 1.343 . S
C281 C282 1.390 . S
C282 H260 0.930 . S
C282 C279 1.321 . S
C282 C281 1.390 . S
O283 Gd251 2.386 . S
O283 C295 1.265 . S
O284 Gd250 2.353 . S
O284 C295 1.242 1_455 S
O285 Gd250 2.468 . S
O285 C303 1.263 . S
O286 Gd250 2.427 . S
O286 C303 1.252 . S
O287 Gd251 2.307 1_455 S
O287 C296 1.261 . S
O288 Gd250 2.388 . S
O288 C296 1.252 . S
O289 Gd250 2.386 . S
O289 C307 1.265 . S
O290 Gd251 2.353 1_455 S
O290 C307 1.242 . S
O291 Gd251 2.468 . S
O291 C315 1.263 . S
O292 Gd251 2.427 . S
O292 C315 1.252 . S
O293 Gd250 2.307 . S
O293 C308 1.261 1_455 S
O294 Gd251 2.388 . S
O294 C308 1.252 . S
C295 O283 1.265 . S
C295 O284 1.242 1_655 S
C296 O287 1.261 . S
C296 O288 1.252 . S
C297 C300 1.394 . S
C297 C302 1.370 . S
C297 C303 1.500 . S
C298 C301 1.383 . S
C298 C302 1.395 . S
C299 C300 1.396 . S
C299 C301 1.365 . S
C299 H316 0.929 . S
C300 C297 1.394 . S
C300 C299 1.396 . S
C300 H317 0.930 . S
C301 C298 1.383 . S
C301 C299 1.365 . S
C301 H318 0.931 . S
C302 C297 1.370 . S
C302 C298 1.395 . S
C302 H319 0.930 . S
C303 Gd250 2.805 . S
C303 O285 1.263 . S
C303 O286 1.252 . S
C303 C297 1.500 . S
C304 H266 0.930 . S
C304 C280 1.417 . S
C304 C305 1.329 . S
C305 C275 1.437 . S
C305 H276 0.929 . S
C305 C304 1.329 . S
H306 C279 0.931 . S
C307 O289 1.265 . S
C307 O290 1.242 . S
C308 O293 1.261 1_655 S
C308 O294 1.252 . S
C309 C312 1.394 . S
C309 C314 1.370 . S
C309 C315 1.500 . S
C310 C313 1.383 . S
C310 C314 1.395 . S
C311 C312 1.396 . S
C311 C313 1.365 . S
C311 H320 0.929 . S
C312 C309 1.394 . S
C312 C311 1.396 . S
C312 H321 0.930 . S
C313 C310 1.383 . S
C313 C311 1.365 . S
C313 H322 0.931 . S
C314 C309 1.370 . S
C314 C310 1.395 . S
C314 H323 0.930 . S
C315 Gd251 2.805 . S
C315 O291 1.263 . S
C315 O292 1.252 . S
C315 C309 1.500 . S
H316 C299 0.929 . S
H317 C300 0.930 . S
H318 C301 0.931 . S
H319 C302 0.930 . S
H320 C311 0.929 . S
H321 C312 0.930 . S
H322 C313 0.931 . S
H323 C314 0.930 . S
C324 C326 1.422 . S
C324 C328 1.415 . S
C324 N330 1.369 . S
C325 C326 1.421 . S
C325 C327 1.417 . S
C325 C337 1.422 . S
C326 C324 1.422 . S
C326 C325 1.421 . S
C326 N336 1.359 . S
C327 C325 1.417 . S
C327 C329 1.329 . S
C327 H346 0.930 . S
C328 C324 1.415 . S
C328 C329 1.437 . S
C328 C332 1.413 . S
C329 C327 1.329 . S
C329 C328 1.437 . S
C329 H351 0.929 . S
N330 C324 1.369 . S
N330 C331 1.338 . S
N330 Gd335 2.622 . S
C331 N330 1.338 . S
C331 C333 1.378 . S
C331 H343 0.929 . S
C332 C328 1.413 . S
C332 C333 1.348 . S
C332 H348 0.931 . S
C333 C331 1.378 . S
C333 C332 1.348 . S
C333 H349 0.930 . S
Gd334 N354 2.622 . S
Gd334 N361 2.570 . S
Gd334 O368 2.353 . S
Gd334 O369 2.468 . S
Gd334 O370 2.427 . S
Gd334 O372 2.388 . S
Gd334 O373 2.386 . S
Gd334 O377 2.307 . S
Gd334 C387 2.805 . S
Gd335 N330 2.622 . S
Gd335 N336 2.570 . S
Gd335 O367 2.386 . S
Gd335 O371 2.307 . S
Gd335 O374 2.353 . S
Gd335 O375 2.468 . S
Gd335 O376 2.427 . S
Gd335 O378 2.388 . S
Gd335 C399 2.805 . S
N336 C326 1.359 . S
N336 Gd335 2.570 . S
N336 C338 1.343 . S
C337 C325 1.422 . S
C337 C339 1.321 . S
C337 H345 0.931 . S
C338 N336 1.343 . S
C338 C339 1.390 . S
C338 H340 0.931 . S
C339 C337 1.321 . S
C339 C338 1.390 . S
C339 H341 0.930 . S
H340 C338 0.931 . S
H341 C339 0.930 . S
H342 C365 0.931 . S
H343 C331 0.929 . S
H344 C366 0.930 . S
H345 C337 0.931 . S
H346 C327 0.930 . S
H347 C356 0.929 . S
H348 C332 0.931 . S
H349 C333 0.930 . S
H350 C388 0.930 . S
H351 C329 0.929 . S
H352 C357 0.931 . S
H353 C358 0.930 . S
N354 Gd334 2.622 . S
N354 C355 1.369 . S
N354 C356 1.338 . S
C355 N354 1.369 . S
C355 C359 1.415 . S
C355 C362 1.422 . S
C356 H347 0.929 . S
C356 N354 1.338 . S
C356 C358 1.378 . S
C357 H352 0.931 . S
C357 C358 1.348 . S
C357 C359 1.413 . S
C358 H353 0.930 . S
C358 C356 1.378 . S
C358 C357 1.348 . S
C359 C355 1.415 . S
C359 C357 1.413 . S
C359 C389 1.437 . S
H360 C389 0.929 . S
N361 Gd334 2.570 . S
N361 C362 1.359 . S
N361 C365 1.343 . S
C362 C355 1.422 . S
C362 N361 1.359 . S
C362 C364 1.421 . S
C363 C364 1.422 . S
C363 C366 1.321 . S
C363 H390 0.931 . S
C364 C362 1.421 . S
C364 C363 1.422 . S
C364 C388 1.417 . S
C365 H342 0.931 . S
C365 N361 1.343 . S
C365 C366 1.390 . S
C366 H344 0.930 . S
C366 C363 1.321 . S
C366 C365 1.390 . S
O367 Gd335 2.386 . S
O367 C379 1.265 . S
O368 Gd334 2.353 . S
O368 C379 1.242 . S
O369 Gd334 2.468 . S
O369 C387 1.263 . S
O370 Gd334 2.427 . S
O370 C387 1.252 . S
O371 Gd335 2.307 . S
O371 C380 1.261 . S
O372 Gd334 2.388 . S
O372 C380 1.252 . S
O373 Gd334 2.386 . S
O373 C391 1.265 . S
O374 Gd335 2.353 . S
O374 C391 1.242 . S
O375 Gd335 2.468 . S
O375 C399 1.263 . S
O376 Gd335 2.427 . S
O376 C399 1.252 . S
O377 Gd334 2.307 . S
O377 C392 1.261 . S
O378 Gd335 2.388 . S
O378 C392 1.252 . S
C379 O367 1.265 . S
C379 O368 1.242 . S
C380 O371 1.261 . S
C380 O372 1.252 . S
C381 C384 1.394 . S
C381 C386 1.370 . S
C381 C387 1.500 . S
C382 C385 1.383 . S
C382 C386 1.395 . S
C383 C384 1.396 . S
C383 C385 1.365 . S
C383 H400 0.929 . S
C384 C381 1.394 . S
C384 C383 1.396 . S
C384 H401 0.930 . S
C385 C382 1.383 . S
C385 C383 1.365 . S
C385 H402 0.931 . S
C386 C381 1.370 . S
C386 C382 1.395 . S
C386 H403 0.930 . S
C387 Gd334 2.805 . S
C387 O369 1.263 . S
C387 O370 1.252 . S
C387 C381 1.500 . S
C388 H350 0.930 . S
C388 C364 1.417 . S
C388 C389 1.329 . S
C389 C359 1.437 . S
C389 H360 0.929 . S
C389 C388 1.329 . S
H390 C363 0.931 . S
C391 O373 1.265 . S
C391 O374 1.242 . S
C392 O377 1.261 . S
C392 O378 1.252 . S
C393 C396 1.394 . S
C393 C398 1.370 . S
C393 C399 1.500 . S
C394 C397 1.383 . S
C394 C398 1.395 . S
C395 C396 1.396 . S
C395 C397 1.365 . S
C395 H404 0.929 . S
C396 C393 1.394 . S
C396 C395 1.396 . S
C396 H405 0.930 . S
C397 C394 1.383 . S
C397 C395 1.365 . S
C397 H406 0.931 . S
C398 C393 1.370 . S
C398 C394 1.395 . S
C398 H407 0.930 . S
C399 Gd335 2.805 . S
C399 O375 1.263 . S
C399 O376 1.252 . S
C399 C393 1.500 . S
H400 C383 0.929 . S
H401 C384 0.930 . S
H402 C385 0.931 . S
H403 C386 0.930 . S
H404 C395 0.929 . S
H405 C396 0.930 . S
H406 C397 0.931 . S
H407 C398 0.930 . S
C408 C409 1.349 . S
C408 C410 1.327 . S
C408 H433 0.950 . S
C409 C408 1.349 . S
C409 C425 1.349 . S
C410 C408 1.327 . S
C410 C429 1.429 . S
C410 H434 0.950 . S
C411 C428 1.601 . S
C411 C430 1.368 . S
C411 H435 0.949 . S
H412 C416 0.949 . S
C413 C414 1.349 . S
C413 C415 1.327 . S
C413 H436 0.950 . S
C414 C413 1.349 . S
C414 C426 1.349 . S
C415 C413 1.327 . S
C415 C431 1.429 . S
C415 H437 0.950 . S
C416 H412 0.949 . S
C416 C424 1.574 . S
C416 C432 1.368 . S
H417 C425 0.950 . S
H418 C423 0.950 . S
H419 C424 0.949 . S
H420 C426 0.950 . S
H421 C427 0.950 . S
H422 C428 0.955 . S
C423 H418 0.950 . S
C423 C425 1.327 . S
C423 C429 1.429 . S
C424 C416 1.574 . S
C424 H419 0.949 . S
C424 C430 1.368 1_545 S
C425 C409 1.349 . S
C425 H417 0.950 . S
C425 C423 1.327 . S
C426 C414 1.349 . S
C426 H420 0.950 . S
C426 C427 1.327 . S
C427 H421 0.950 . S
C427 C426 1.327 . S
C427 C431 1.429 . S
C428 C411 1.601 . S
C428 H422 0.955 . S
C428 C432 1.335 1_565 S
C429 C410 1.429 . S
C429 C423 1.429 . S
C429 C430 1.523 . S
C430 C411 1.368 . S
C430 C424 1.368 1_565 S
C430 C429 1.523 . S
C431 C415 1.429 . S
C431 C427 1.429 . S
C431 C432 1.523 . S
C432 C416 1.368 . S
C432 C428 1.335 1_545 S
C432 C431 1.523 . S
H433 C408 0.950 . S
H434 C410 0.950 . S
H435 C411 0.949 . S
H436 C413 0.950 . S
H437 C415 0.950 . S
C438 C439 1.349 . S
C438 C440 1.327 . S
C438 H463 0.950 . S
C439 C438 1.349 . S
C439 C455 1.349 . S
C440 C438 1.327 . S
C440 C459 1.429 . S
C440 H464 0.950 . S
C441 C458 1.574 . S
C441 C460 1.368 . S
C441 H465 0.949 . S
H442 C446 0.949 . S
C443 C444 1.349 . S
C443 C445 1.327 . S
C443 H466 0.950 . S
C444 C443 1.349 . S
C444 C456 1.349 . S
C445 C443 1.327 . S
C445 C461 1.429 . S
C445 H467 0.950 . S
C446 H442 0.949 . S
C446 C454 1.574 . S
C446 C462 1.368 . S
H447 C455 0.950 . S
H448 C453 0.950 . S
H449 C454 0.949 . S
H450 C456 0.950 . S
H451 C457 0.950 . S
H452 C458 0.949 . S
C453 H448 0.950 . S
C453 C455 1.327 . S
C453 C459 1.429 . S
C454 C446 1.574 . S
C454 H449 0.949 . S
C454 C460 1.368 . S
C455 C439 1.349 . S
C455 H447 0.950 . S
C455 C453 1.327 . S
C456 C444 1.349 . S
C456 H450 0.950 . S
C456 C457 1.327 . S
C457 H451 0.950 . S
C457 C456 1.327 . S
C457 C461 1.429 . S
C458 C441 1.574 . S
C458 H452 0.949 . S
C458 C462 1.368 . S
C459 C440 1.429 . S
C459 C453 1.429 . S
C459 C460 1.523 . S
C460 C441 1.368 . S
C460 C454 1.368 . S
C460 C459 1.523 . S
C461 C445 1.429 . S
C461 C457 1.429 . S
C461 C462 1.523 . S
C462 C446 1.368 . S
C462 C458 1.368 . S
C462 C461 1.523 . S
H463 C438 0.950 . S
H464 C440 0.950 . S
H465 C441 0.949 . S
H466 C443 0.950 . S
H467 C445 0.950 . S
C468 C469 1.349 . S
C468 C470 1.327 . S
C468 H493 0.950 . S
C469 C468 1.349 . S
C469 C485 1.349 . S
C470 C468 1.327 . S
C470 C489 1.429 . S
C470 H494 0.950 . S
C471 C488 1.574 . S
C471 C490 1.368 . S
C471 H495 0.949 . S
H472 C476 0.949 . S
C473 C474 1.349 . S
C473 C475 1.327 . S
C473 H496 0.950 . S
C474 C473 1.349 . S
C474 C486 1.349 . S
C475 C473 1.327 . S
C475 C491 1.429 . S
C475 H497 0.950 . S
C476 H472 0.949 . S
C476 C484 1.574 . S
C476 C492 1.368 . S
H477 C485 0.950 . S
H478 C483 0.950 . S
H479 C484 0.949 . S
H480 C486 0.950 . S
H481 C487 0.950 . S
H482 C488 0.949 . S
C483 H478 0.950 . S
C483 C485 1.327 . S
C483 C489 1.429 . S
C484 C476 1.574 . S
C484 H479 0.949 . S
C484 C490 1.368 . S
C485 C469 1.349 . S
C485 H477 0.950 . S
C485 C483 1.327 . S
C486 C474 1.349 . S
C486 H480 0.950 . S
C486 C487 1.327 . S
C487 H481 0.950 . S
C487 C486 1.327 . S
C487 C491 1.429 . S
C488 C471 1.574 . S
C488 H482 0.949 . S
C488 C492 1.368 . S
C489 C470 1.429 . S
C489 C483 1.429 . S
C489 C490 1.523 . S
C490 C471 1.368 . S
C490 C484 1.368 . S
C490 C489 1.523 . S
C491 C475 1.429 . S
C491 C487 1.429 . S
C491 C492 1.523 . S
C492 C476 1.368 . S
C492 C488 1.368 . S
C492 C491 1.523 . S
H493 C468 0.950 . S
H494 C470 0.950 . S
H495 C471 0.949 . S
H496 C473 0.950 . S
H497 C475 0.950 . S
C498 C499 1.349 . S
C498 C500 1.327 . S
C498 H523 0.950 . S
C499 C498 1.349 . S
C499 C515 1.349 . S
C500 C498 1.327 . S
C500 C519 1.429 . S
C500 H524 0.950 . S
C501 C518 1.589 . S
C501 C520 1.368 . S
C501 H525 0.949 . S
H502 C506 0.949 . S
C503 C504 1.349 . S
C503 C505 1.327 . S
C503 H526 0.950 . S
C504 C503 1.349 . S
C504 C516 1.349 . S
C505 C503 1.327 . S
C505 C521 1.429 . S
C505 H527 0.950 . S
C506 H502 0.949 . S
C506 C514 1.574 . S
C506 C522 1.368 . S
H507 C515 0.950 . S
H508 C513 0.950 . S
H509 C514 0.949 . S
H510 C516 0.950 . S
H511 C517 0.950 . S
H512 C518 0.953 . S
C513 H508 0.950 . S
C513 C515 1.327 . S
C513 C519 1.429 . S
C514 C506 1.574 . S
C514 H509 0.949 . S
C514 C520 1.368 1_545 S
C515 C499 1.349 . S
C515 H507 0.950 . S
C515 C513 1.327 . S
C516 C504 1.349 . S
C516 H510 0.950 . S
C516 C517 1.327 . S
C517 H511 0.950 . S
C517 C516 1.327 . S
C517 C521 1.429 . S
C518 C501 1.589 . S
C518 H512 0.953 . S
C518 C522 1.348 1_565 S
C519 C500 1.429 . S
C519 C513 1.429 . S
C519 C520 1.523 . S
C520 C501 1.368 . S
C520 C514 1.368 1_565 S
C520 C519 1.523 . S
C521 C505 1.429 . S
C521 C517 1.429 . S
C521 C522 1.523 . S
C522 C506 1.368 . S
C522 C518 1.348 1_545 S
C522 C521 1.523 . S
H523 C498 0.950 . S
H524 C500 0.950 . S
H525 C501 0.949 . S
H526 C503 0.950 . S
H527 C505 0.950 . S
C528 C529 1.349 . S
C528 C530 1.327 . S
C528 H553 0.950 . S
C529 C528 1.349 . S
C529 C545 1.349 . S
C530 C528 1.327 . S
C530 C549 1.429 . S
C530 H554 0.950 . S
C531 C548 1.563 1_545 S
C531 C550 1.376 . S
C531 H555 0.952 . S
H532 C536 0.949 . S
C533 C534 1.349 . S
C533 C535 1.327 . S
C533 H556 0.950 . S
C534 C533 1.349 . S
C534 C546 1.349 . S
C535 C533 1.327 . S
C535 C551 1.429 . S
C535 H557 0.950 . S
C536 H532 0.949 . S
C536 C544 1.574 1_565 S
C536 C552 1.368 . S
H537 C545 0.950 . S
H538 C543 0.950 . S
H539 C544 0.949 . S
H540 C546 0.950 . S
H541 C547 0.950 . S
H542 C548 0.949 . S
C543 H538 0.950 . S
C543 C545 1.327 . S
C543 C549 1.429 . S
C544 C536 1.574 1_545 S
C544 H539 0.949 . S
C544 C550 1.368 . S
C545 C529 1.349 . S
C545 H537 0.950 . S
C545 C543 1.327 . S
C546 C534 1.349 . S
C546 H540 0.950 . S
C546 C547 1.327 . S
C547 H541 0.950 . S
C547 C546 1.327 . S
C547 C551 1.429 . S
C548 C531 1.563 1_565 S
C548 H542 0.949 . S
C548 C552 1.368 . S
C549 C530 1.429 . S
C549 C543 1.429 . S
C549 C550 1.523 . S
C550 C531 1.376 . S
C550 C544 1.368 . S
C550 C549 1.523 . S
C551 C535 1.429 . S
C551 C547 1.429 . S
C551 C552 1.523 . S
C552 C536 1.368 . S
C552 C548 1.368 . S
C552 C551 1.523 . S
H553 C528 0.950 . S
H554 C530 0.950 . S
H555 C531 0.952 . S
H556 C533 0.950 . S
H557 C535 0.950 . S
C558 C559 1.349 . S
C558 C560 1.327 . S
C558 H583 0.950 . S
C559 C558 1.349 . S
C559 C575 1.349 . S
C560 C558 1.327 . S
C560 C579 1.429 . S
C560 H584 0.950 . S
C561 C578 1.574 . S
C561 C580 1.368 . S
C561 H585 0.949 . S
H562 C566 0.949 . S
C563 C564 1.349 . S
C563 C565 1.327 . S
C563 H586 0.950 . S
C564 C563 1.349 . S
C564 C576 1.349 . S
C565 C563 1.327 . S
C565 C581 1.429 . S
C565 H587 0.950 . S
C566 H562 0.949 . S
C566 C574 1.574 . S
C566 C582 1.368 . S
H567 C575 0.950 . S
H568 C573 0.950 . S
H569 C574 0.949 . S
H570 C576 0.950 . S
H571 C577 0.950 . S
H572 C578 0.949 . S
C573 H568 0.950 . S
C573 C575 1.327 . S
C573 C579 1.429 . S
C574 C566 1.574 . S
C574 H569 0.949 . S
C574 C580 1.368 . S
C575 C559 1.349 . S
C575 H567 0.950 . S
C575 C573 1.327 . S
C576 C564 1.349 . S
C576 H570 0.950 . S
C576 C577 1.327 . S
C577 H571 0.950 . S
C577 C576 1.327 . S
C577 C581 1.429 . S
C578 C561 1.574 . S
C578 H572 0.949 . S
C578 C582 1.368 . S
C579 C560 1.429 . S
C579 C573 1.429 . S
C579 C580 1.523 . S
C580 C561 1.368 . S
C580 C574 1.368 . S
C580 C579 1.523 . S
C581 C565 1.429 . S
C581 C577 1.429 . S
C581 C582 1.523 . S
C582 C566 1.368 . S
C582 C578 1.368 . S
C582 C581 1.523 . S
H583 C558 0.950 . S
H584 C560 0.950 . S
H585 C561 0.949 . S
H586 C563 0.950 . S
H587 C565 0.950 . S
C588 C589 1.349 . S
C588 C590 1.327 . S
C588 H613 0.950 . S
C589 C588 1.349 . S
C589 C605 1.349 . S
C590 C588 1.327 . S
C590 C609 1.429 . S
C590 H614 0.950 . S
C591 C608 1.574 . S
C591 C610 1.368 . S
C591 H615 0.949 . S
H592 C596 0.949 . S
C593 C594 1.349 . S
C593 C595 1.327 . S
C593 H616 0.950 . S
C594 C593 1.349 . S
C594 C606 1.349 . S
C595 C593 1.327 . S
C595 C611 1.429 . S
C595 H617 0.950 . S
C596 H592 0.949 . S
C596 C604 1.574 . S
C596 C612 1.368 . S
H597 C605 0.950 . S
H598 C603 0.950 . S
H599 C604 0.949 . S
H600 C606 0.950 . S
H601 C607 0.950 . S
H602 C608 0.949 . S
C603 H598 0.950 . S
C603 C605 1.327 . S
C603 C609 1.429 . S
C604 C596 1.574 . S
C604 H599 0.949 . S
C604 C610 1.368 . S
C605 C589 1.349 . S
C605 H597 0.950 . S
C605 C603 1.327 . S
C606 C594 1.349 . S
C606 H600 0.950 . S
C606 C607 1.327 . S
C607 H601 0.950 . S
C607 C606 1.327 . S
C607 C611 1.429 . S
C608 C591 1.574 . S
C608 H602 0.949 . S
C608 C612 1.368 . S
C609 C590 1.429 . S
C609 C603 1.429 . S
C609 C610 1.523 . S
C610 C591 1.368 . S
C610 C604 1.368 . S
C610 C609 1.523 . S
C611 C595 1.429 . S
C611 C607 1.429 . S
C611 C612 1.523 . S
C612 C596 1.368 . S
C612 C608 1.368 . S
C612 C611 1.523 . S
H613 C588 0.950 . S
H614 C590 0.950 . S
H615 C591 0.949 . S
H616 C593 0.950 . S
H617 C595 0.950 . S
C618 C619 1.349 . S
C618 C620 1.327 . S
C618 H643 0.950 . S
C619 C618 1.349 . S
C619 C635 1.349 . S
C620 C618 1.327 . S
C620 C639 1.429 . S
C620 H644 0.950 . S
C621 C638 1.574 . S
C621 C640 1.368 1_565 S
C621 H645 0.949 . S
H622 C626 0.949 . S
C623 C624 1.349 . S
C623 C625 1.327 . S
C623 H646 0.950 . S
C624 C623 1.349 . S
C624 C636 1.349 . S
C625 C623 1.327 . S
C625 C641 1.429 . S
C625 H647 0.950 . S
C626 H622 0.949 . S
C626 C634 1.574 1_565 S
C626 C642 1.368 . S
H627 C635 0.950 . S
H628 C633 0.950 . S
H629 C634 0.949 . S
H630 C636 0.950 . S
H631 C637 0.950 . S
H632 C638 0.949 . S
C633 H628 0.950 . S
C633 C635 1.327 . S
C633 C639 1.429 . S
C634 C626 1.574 1_545 S
C634 H629 0.949 . S
C634 C640 1.368 . S
C635 C619 1.349 . S
C635 H627 0.950 . S
C635 C633 1.327 . S
C636 C624 1.349 . S
C636 H630 0.950 . S
C636 C637 1.327 . S
C637 H631 0.950 . S
C637 C636 1.327 . S
C637 C641 1.429 . S
C638 C621 1.574 . S
C638 H632 0.949 . S
C638 C642 1.368 . S
C639 C620 1.429 . S
C639 C633 1.429 . S
C639 C640 1.523 . S
C640 C621 1.368 1_545 S
C640 C634 1.368 . S
C640 C639 1.523 . S
C641 C625 1.429 . S
C641 C637 1.429 . S
C641 C642 1.523 . S
C642 C626 1.368 . S
C642 C638 1.368 . S
C642 C641 1.523 . S
H643 C618 0.950 . S
H644 C620 0.950 . S
H645 C621 0.949 . S
H646 C623 0.950 . S
H647 C625 0.950 . S
C648 C649 1.349 . S
C648 C650 1.327 . S
C648 H673 0.950 . S
C649 C648 1.349 . S
C649 C665 1.349 . S
C650 C648 1.327 . S
C650 C669 1.429 . S
C650 H674 0.950 . S
C651 C668 1.574 . S
C651 C670 1.368 . S
C651 H675 0.949 . S
H652 C656 0.949 . S
C653 C654 1.349 . S
C653 C655 1.327 . S
C653 H676 0.950 . S
C654 C653 1.349 . S
C654 C666 1.349 . S
C655 C653 1.327 . S
C655 C671 1.429 . S
C655 H677 0.950 . S
C656 H652 0.949 . S
C656 C664 1.574 . S
C656 C672 1.368 . S
H657 C665 0.950 . S
H658 C663 0.950 . S
H659 C664 0.949 . S
H660 C666 0.950 . S
H661 C667 0.950 . S
H662 C668 0.949 . S
C663 H658 0.950 . S
C663 C665 1.327 . S
C663 C669 1.429 . S
C664 C656 1.574 . S
C664 H659 0.949 . S
C664 C670 1.368 . S
C665 C649 1.349 . S
C665 H657 0.950 . S
C665 C663 1.327 . S
C666 C654 1.349 . S
C666 H660 0.950 . S
C666 C667 1.327 . S
C667 H661 0.950 . S
C667 C666 1.327 . S
C667 C671 1.429 . S
C668 C651 1.574 . S
C668 H662 0.949 . S
C668 C672 1.368 . S
C669 C650 1.429 . S
C669 C663 1.429 . S
C669 C670 1.523 1_556 S
C670 C651 1.368 . S
C670 C664 1.368 . S
C670 C669 1.523 1_554 S
C671 C655 1.429 . S
C671 C667 1.429 . S
C671 C672 1.523 . S
C672 C656 1.368 . S
C672 C668 1.368 . S
C672 C671 1.523 . S
H673 C648 0.950 . S
H674 C650 0.950 . S
H675 C651 0.949 . S
H676 C653 0.950 . S
H677 C655 0.950 . S
C678 C679 1.349 . S
C678 C680 1.327 . S
C678 H703 0.950 . S
C679 C678 1.349 . S
C679 C695 1.349 . S
C680 C678 1.327 . S
C680 C699 1.429 . S
C680 H704 0.950 . S
C681 C698 1.574 . S
C681 C700 1.368 . S
C681 H705 0.949 . S
H682 C686 0.949 . S
C683 C684 1.349 . S
C683 C685 1.327 . S
C683 H706 0.950 . S
C684 C683 1.349 . S
C684 C696 1.349 . S
C685 C683 1.327 . S
C685 C701 1.429 . S
C685 H707 0.950 . S
C686 H682 0.949 . S
C686 C694 1.574 . S
C686 C702 1.368 . S
H687 C695 0.950 . S
H688 C693 0.950 . S
H689 C694 0.949 . S
H690 C696 0.950 . S
H691 C697 0.950 . S
H692 C698 0.949 . S
C693 H688 0.950 . S
C693 C695 1.327 . S
C693 C699 1.429 . S
C694 C686 1.574 . S
C694 H689 0.949 . S
C694 C700 1.368 . S
C695 C679 1.349 . S
C695 H687 0.950 . S
C695 C693 1.327 . S
C696 C684 1.349 . S
C696 H690 0.950 . S
C696 C697 1.327 . S
C697 H691 0.950 . S
C697 C696 1.327 . S
C697 C701 1.429 . S
C698 C681 1.574 . S
C698 H692 0.949 . S
C698 C702 1.368 . S
C699 C680 1.429 . S
C699 C693 1.429 . S
C699 C700 1.523 . S
C700 C681 1.368 . S
C700 C694 1.368 . S
C700 C699 1.523 . S
C701 C685 1.429 . S
C701 C697 1.429 . S
C701 C702 1.523 . S
C702 C686 1.368 . S
C702 C698 1.368 . S
C702 C701 1.523 . S
H703 C678 0.950 . S
H704 C680 0.950 . S
H705 C681 0.949 . S
H706 C683 0.950 . S
H707 C685 0.950 . S
C708 C709 1.349 . S
C708 C710 1.327 . S
C708 H733 0.950 . S
C709 C708 1.349 . S
C709 C725 1.349 . S
C710 C708 1.327 . S
C710 C729 1.429 . S
C710 H734 0.950 . S
C711 C728 1.574 . S
C711 C730 1.368 . S
C711 H735 0.949 . S
H712 C716 0.949 . S
C713 C714 1.349 . S
C713 C715 1.327 . S
C713 H736 0.950 . S
C714 C713 1.349 . S
C714 C726 1.349 . S
C715 C713 1.327 . S
C715 C731 1.429 . S
C715 H737 0.950 . S
C716 H712 0.949 . S
C716 C724 1.574 . S
C716 C732 1.368 . S
H717 C725 0.950 . S
H718 C723 0.950 . S
H719 C724 0.949 . S
H720 C726 0.950 . S
H721 C727 0.950 . S
H722 C728 0.949 . S
C723 H718 0.950 . S
C723 C725 1.327 . S
C723 C729 1.429 . S
C724 C716 1.574 . S
C724 H719 0.949 . S
C724 C730 1.368 . S
C725 C709 1.349 . S
C725 H717 0.950 . S
C725 C723 1.327 . S
C726 C714 1.349 . S
C726 H720 0.950 . S
C726 C727 1.327 . S
C727 H721 0.950 . S
C727 C726 1.327 . S
C727 C731 1.429 . S
C728 C711 1.574 . S
C728 H722 0.949 . S
C728 C732 1.368 . S
C729 C710 1.429 . S
C729 C723 1.429 . S
C729 C730 1.523 1_554 S
C730 C711 1.368 . S
C730 C724 1.368 . S
C730 C729 1.523 1_556 S
C731 C715 1.429 . S
C731 C727 1.429 . S
C731 C732 1.523 . S
C732 C716 1.368 . S
C732 C728 1.368 . S
C732 C731 1.523 . S
H733 C708 0.950 . S
H734 C710 0.950 . S
H735 C711 0.949 . S
H736 C713 0.950 . S
H737 C715 0.950 . S
C738 C739 1.349 . S
C738 C740 1.327 . S
C738 H763 0.950 . S
C739 C738 1.349 . S
C739 C755 1.349 . S
C740 C738 1.327 . S
C740 C759 1.429 . S
C740 H764 0.950 . S
C741 C758 1.574 . S
C741 C760 1.368 . S
C741 H765 0.949 . S
H742 C746 0.949 . S
C743 C744 1.349 . S
C743 C745 1.327 . S
C743 H766 0.950 . S
C744 C743 1.349 . S
C744 C756 1.349 . S
C745 C743 1.327 . S
C745 C761 1.429 . S
C745 H767 0.950 . S
C746 H742 0.949 . S
C746 C754 1.574 . S
C746 C762 1.368 . S
H747 C755 0.950 . S
H748 C753 0.950 . S
H749 C754 0.949 . S
H750 C756 0.950 . S
H751 C757 0.950 . S
H752 C758 0.949 . S
C753 H748 0.950 . S
C753 C755 1.327 . S
C753 C759 1.429 . S
C754 C746 1.574 . S
C754 H749 0.949 . S
C754 C760 1.368 . S
C755 C739 1.349 . S
C755 H747 0.950 . S
C755 C753 1.327 . S
C756 C744 1.349 . S
C756 H750 0.950 . S
C756 C757 1.327 . S
C757 H751 0.950 . S
C757 C756 1.327 . S
C757 C761 1.429 . S
C758 C741 1.574 . S
C758 H752 0.949 . S
C758 C762 1.368 . S
C759 C740 1.429 . S
C759 C753 1.429 . S
C759 C760 1.523 . S
C760 C741 1.368 . S
C760 C754 1.368 . S
C760 C759 1.523 . S
C761 C745 1.429 . S
C761 C757 1.429 . S
C761 C762 1.523 . S
C762 C746 1.368 . S
C762 C758 1.368 . S
C762 C761 1.523 . S
H763 C738 0.950 . S
H764 C740 0.950 . S
H765 C741 0.949 . S
H766 C743 0.950 . S
H767 C745 0.950 . S
C768 C769 1.349 . S
C768 C770 1.327 . S
C768 H793 0.950 . S
C769 C768 1.349 . S
C769 C785 1.349 . S
C770 C768 1.327 . S
C770 C789 1.429 . S
C770 H794 0.950 . S
C771 C788 1.574 . S
C771 C790 1.368 . S
C771 H795 0.949 . S
H772 C776 0.949 . S
C773 C774 1.349 . S
C773 C775 1.327 . S
C773 H796 0.950 . S
C774 C773 1.349 . S
C774 C786 1.349 . S
C775 C773 1.327 . S
C775 C791 1.429 . S
C775 H797 0.950 . S
C776 H772 0.949 . S
C776 C784 1.574 . S
C776 C792 1.368 . S
H777 C785 0.950 . S
H778 C783 0.950 . S
H779 C784 0.949 . S
H780 C786 0.950 . S
H781 C787 0.950 . S
H782 C788 0.949 . S
C783 H778 0.950 . S
C783 C785 1.327 . S
C783 C789 1.429 . S
C784 C776 1.574 . S
C784 H779 0.949 . S
C784 C790 1.368 . S
C785 C769 1.349 . S
C785 H777 0.950 . S
C785 C783 1.327 . S
C786 C774 1.349 . S
C786 H780 0.950 . S
C786 C787 1.327 . S
C787 H781 0.950 . S
C787 C786 1.327 . S
C787 C791 1.429 . S
C788 C771 1.574 . S
C788 H782 0.949 . S
C788 C792 1.368 . S
C789 C770 1.429 . S
C789 C783 1.429 . S
C789 C790 1.523 1_554 S
C790 C771 1.368 . S
C790 C784 1.368 . S
C790 C789 1.523 1_556 S
C791 C775 1.429 . S
C791 C787 1.429 . S
C791 C792 1.523 . S
C792 C776 1.368 . S
C792 C788 1.368 . S
C792 C791 1.523 . S
H793 C768 0.950 . S
H794 C770 0.950 . S
H795 C771 0.949 . S
H796 C773 0.950 . S
H797 C775 0.950 . S
C798 C799 1.349 . S
C798 C800 1.327 . S
C798 H823 0.950 . S
C799 C798 1.349 . S
C799 C815 1.349 . S
C800 C798 1.327 . S
C800 C819 1.429 . S
C800 H824 0.950 . S
C801 C818 1.574 . S
C801 C820 1.368 . S
C801 H825 0.949 . S
H802 C806 0.949 . S
C803 C804 1.349 . S
C803 C805 1.327 . S
C803 H826 0.950 . S
C804 C803 1.349 . S
C804 C816 1.349 . S
C805 C803 1.327 . S
C805 C821 1.429 . S
C805 H827 0.950 . S
C806 H802 0.949 . S
C806 C814 1.574 . S
C806 C822 1.368 . S
H807 C815 0.950 . S
H808 C813 0.950 . S
H809 C814 0.949 . S
H810 C816 0.950 . S
H811 C817 0.950 . S
H812 C818 0.949 . S
C813 H808 0.950 . S
C813 C815 1.327 . S
C813 C819 1.429 . S
C814 C806 1.574 . S
C814 H809 0.949 . S
C814 C820 1.368 . S
C815 C799 1.349 . S
C815 H807 0.950 . S
C815 C813 1.327 . S
C816 C804 1.349 . S
C816 H810 0.950 . S
C816 C817 1.327 . S
C817 H811 0.950 . S
C817 C816 1.327 . S
C817 C821 1.429 . S
C818 C801 1.574 . S
C818 H812 0.949 . S
C818 C822 1.368 . S
C819 C800 1.429 . S
C819 C813 1.429 . S
C819 C820 1.523 . S
C820 C801 1.368 . S
C820 C814 1.368 . S
C820 C819 1.523 . S
C821 C805 1.429 . S
C821 C817 1.429 . S
C821 C822 1.523 . S
C822 C806 1.368 . S
C822 C818 1.368 . S
C822 C821 1.523 . S
H823 C798 0.950 . S
H824 C800 0.950 . S
H825 C801 0.949 . S
H826 C803 0.950 . S
H827 C805 0.950 . S
C828 C829 1.349 . S
C828 C830 1.327 . S
C828 H853 0.950 . S
C829 C828 1.349 . S
C829 C845 1.349 . S
C830 C828 1.327 . S
C830 C849 1.429 . S
C830 H854 0.950 . S
C831 C848 1.574 . S
C831 C850 1.368 . S
C831 H855 0.949 . S
H832 C836 0.949 . S
C833 C834 1.349 . S
C833 C835 1.327 . S
C833 H856 0.950 . S
C834 C833 1.349 . S
C834 C846 1.349 . S
C835 C833 1.327 . S
C835 C851 1.429 . S
C835 H857 0.950 . S
C836 H832 0.949 . S
C836 C844 1.574 . S
C836 C852 1.368 . S
H837 C845 0.950 . S
H838 C843 0.950 . S
H839 C844 0.949 . S
H840 C846 0.950 . S
H841 C847 0.950 . S
H842 C848 0.949 . S
C843 H838 0.950 . S
C843 C845 1.327 . S
C843 C849 1.429 . S
C844 C836 1.574 . S
C844 H839 0.949 . S
C844 C850 1.368 . S
C845 C829 1.349 . S
C845 H837 0.950 . S
C845 C843 1.327 . S
C846 C834 1.349 . S
C846 H840 0.950 . S
C846 C847 1.327 . S
C847 H841 0.950 . S
C847 C846 1.327 . S
C847 C851 1.429 . S
C848 C831 1.574 . S
C848 H842 0.949 . S
C848 C852 1.368 . S
C849 C830 1.429 . S
C849 C843 1.429 . S
C849 C850 1.523 1_556 S
C850 C831 1.368 . S
C850 C844 1.368 . S
C850 C849 1.523 1_554 S
C851 C835 1.429 . S
C851 C847 1.429 . S
C851 C852 1.523 . S
C852 C836 1.368 . S
C852 C848 1.368 . S
C852 C851 1.523 . S
H853 C828 0.950 . S
H854 C830 0.950 . S
H855 C831 0.949 . S
H856 C833 0.950 . S
H857 C835 0.950 . S
C858 C859 1.349 . S
C858 C860 1.327 . S
C858 H883 0.950 . S
C859 C858 1.349 . S
C859 C875 1.349 . S
C860 C858 1.327 . S
C860 C879 1.429 . S
C860 H884 0.950 . S
C861 C878 1.574 . S
C861 C880 1.368 . S
C861 H885 0.949 . S
H862 C866 0.949 . S
C863 C864 1.349 . S
C863 C865 1.327 . S
C863 H886 0.950 . S
C864 C863 1.349 . S
C864 C876 1.349 . S
C865 C863 1.327 . S
C865 C881 1.429 . S
C865 H887 0.950 . S
C866 H862 0.949 . S
C866 C874 1.574 . S
C866 C882 1.368 . S
H867 C875 0.950 . S
H868 C873 0.950 . S
H869 C874 0.949 . S
H870 C876 0.950 . S
H871 C877 0.950 . S
H872 C878 0.949 . S
C873 H868 0.950 . S
C873 C875 1.327 . S
C873 C879 1.429 . S
C874 C866 1.574 . S
C874 H869 0.949 . S
C874 C880 1.368 . S
C875 C859 1.349 . S
C875 H867 0.950 . S
C875 C873 1.327 . S
C876 C864 1.349 . S
C876 H870 0.950 . S
C876 C877 1.327 . S
C877 H871 0.950 . S
C877 C876 1.327 . S
C877 C881 1.429 . S
C878 C861 1.574 . S
C878 H872 0.949 . S
C878 C882 1.368 . S
C879 C860 1.429 . S
C879 C873 1.429 . S
C879 C880 1.523 . S
C880 C861 1.368 . S
C880 C874 1.368 . S
C880 C879 1.523 . S
C881 C865 1.429 . S
C881 C877 1.429 . S
C881 C882 1.523 . S
C882 C866 1.368 . S
C882 C878 1.368 . S
C882 C881 1.523 . S
H883 C858 0.950 . S
H884 C860 0.950 . S
H885 C861 0.949 . S
H886 C863 0.950 . S
H887 C865 0.950 . S
C888 C889 1.349 . S
C888 C890 1.327 . S
C888 H913 0.950 . S
C889 C888 1.349 . S
C889 C905 1.349 . S
C890 C888 1.327 . S
C890 C909 1.429 . S
C890 H914 0.950 . S
C891 C908 1.574 . S
C891 C910 1.368 . S
C891 H915 0.949 . S
H892 C896 0.949 . S
C893 C894 1.349 . S
C893 C895 1.327 . S
C893 H916 0.950 . S
C894 C893 1.349 . S
C894 C906 1.349 . S
C895 C893 1.327 . S
C895 C911 1.429 . S
C895 H917 0.950 . S
C896 H892 0.949 . S
C896 C904 1.574 . S
C896 C912 1.368 . S
H897 C905 0.950 . S
H898 C903 0.950 . S
H899 C904 0.949 . S
H900 C906 0.950 . S
H901 C907 0.950 . S
H902 C908 0.949 . S
C903 H898 0.950 . S
C903 C905 1.327 . S
C903 C909 1.429 . S
C904 C896 1.574 . S
C904 H899 0.949 . S
C904 C910 1.368 . S
C905 C889 1.349 . S
C905 H897 0.950 . S
C905 C903 1.327 . S
C906 C894 1.349 . S
C906 H900 0.950 . S
C906 C907 1.327 . S
C907 H901 0.950 . S
C907 C906 1.327 . S
C907 C911 1.429 . S
C908 C891 1.574 . S
C908 H902 0.949 . S
C908 C912 1.368 . S
C909 C890 1.429 . S
C909 C903 1.429 . S
C909 C910 1.523 . S
C910 C891 1.368 . S
C910 C904 1.368 . S
C910 C909 1.523 . S
C911 C895 1.429 . S
C911 C907 1.429 . S
C911 C912 1.523 . S
C912 C896 1.368 . S
C912 C908 1.368 . S
C912 C911 1.523 . S
H913 C888 0.950 . S
H914 C890 0.950 . S
H915 C891 0.949 . S
H916 C893 0.950 . S
H917 C895 0.950 . S
C918 C919 1.349 . S
C918 C920 1.327 . S
C918 H943 0.950 . S
C919 C918 1.349 . S
C919 C935 1.349 . S
C920 C918 1.327 . S
C920 C939 1.429 . S
C920 H944 0.950 . S
C921 C938 1.574 . S
C921 C940 1.368 . S
C921 H945 0.949 . S
H922 C926 0.949 . S
C923 C924 1.349 . S
C923 C925 1.327 . S
C923 H946 0.950 . S
C924 C923 1.349 . S
C924 C936 1.349 . S
C925 C923 1.327 . S
C925 C941 1.429 . S
C925 H947 0.950 . S
C926 H922 0.949 . S
C926 C934 1.574 . S
C926 C942 1.368 . S
H927 C935 0.950 . S
H928 C933 0.950 . S
H929 C934 0.949 . S
H930 C936 0.950 . S
H931 C937 0.950 . S
H932 C938 0.949 . S
C933 H928 0.950 . S
C933 C935 1.327 . S
C933 C939 1.429 . S
C934 C926 1.574 . S
C934 H929 0.949 . S
C934 C940 1.368 . S
C935 C919 1.349 . S
C935 H927 0.950 . S
C935 C933 1.327 . S
C936 C924 1.349 . S
C936 H930 0.950 . S
C936 C937 1.327 . S
C937 H931 0.950 . S
C937 C936 1.327 . S
C937 C941 1.429 . S
C938 C921 1.574 . S
C938 H932 0.949 . S
C938 C942 1.368 . S
C939 C920 1.429 . S
C939 C933 1.429 . S
C939 C940 1.523 . S
C940 C921 1.368 . S
C940 C934 1.368 . S
C940 C939 1.523 . S
C941 C925 1.429 . S
C941 C937 1.429 . S
C941 C942 1.523 . S
C942 C926 1.368 . S
C942 C938 1.368 . S
C942 C941 1.523 . S
H943 C918 0.950 . S
H944 C920 0.950 . S
H945 C921 0.949 . S
H946 C923 0.950 . S
H947 C925 0.950 . S
C948 C949 1.349 . S
C948 C950 1.327 . S
C948 H973 0.950 . S
C949 C948 1.349 . S
C949 C965 1.349 . S
C950 C948 1.327 . S
C950 C969 1.429 . S
C950 H974 0.950 . S
C951 C968 1.574 . S
C951 C970 1.368 . S
C951 H975 0.949 . S
H952 C956 0.949 . S
C953 C954 1.349 . S
C953 C955 1.327 . S
C953 H976 0.950 . S
C954 C953 1.349 . S
C954 C966 1.349 . S
C955 C953 1.327 . S
C955 C971 1.429 . S
C955 H977 0.950 . S
C956 H952 0.949 . S
C956 C964 1.574 . S
C956 C972 1.368 . S
H957 C965 0.950 . S
H958 C963 0.950 . S
H959 C964 0.949 . S
H960 C966 0.950 . S
H961 C967 0.950 . S
H962 C968 0.949 . S
C963 H958 0.950 . S
C963 C965 1.327 . S
C963 C969 1.429 . S
C964 C956 1.574 . S
C964 H959 0.949 . S
C964 C970 1.368 . S
C965 C949 1.349 . S
C965 H957 0.950 . S
C965 C963 1.327 . S
C966 C954 1.349 . S
C966 H960 0.950 . S
C966 C967 1.327 . S
C967 H961 0.950 . S
C967 C966 1.327 . S
C967 C971 1.429 . S
C968 C951 1.574 . S
C968 H962 0.949 . S
C968 C972 1.368 . S
C969 C950 1.429 . S
C969 C963 1.429 . S
C969 C970 1.523 . S
C970 C951 1.368 . S
C970 C964 1.368 . S
C970 C969 1.523 . S
C971 C955 1.429 . S
C971 C967 1.429 . S
C971 C972 1.523 . S
C972 C956 1.368 . S
C972 C968 1.368 . S
C972 C971 1.523 . S
H973 C948 0.950 . S
H974 C950 0.950 . S
H975 C951 0.949 . S
H976 C953 0.950 . S
H977 C955 0.950 . S
C978 C979 1.349 . S
C978 C980 1.327 . S
C978 H1003 0.950 . S
C979 C978 1.349 . S
C979 C995 1.349 . S
C980 C978 1.327 . S
C980 C999 1.429 . S
C980 H1004 0.950 . S
C981 C998 1.574 . S
C981 C1000 1.368 . S
C981 H1005 0.949 . S
H982 C986 0.949 . S
C983 C984 1.349 . S
C983 C985 1.327 . S
C983 H1006 0.950 . S
C984 C983 1.349 . S
C984 C996 1.349 . S
C985 C983 1.327 . S
C985 C1001 1.429 . S
C985 H1007 0.950 . S
C986 H982 0.949 . S
C986 C994 1.574 . S
C986 C1002 1.368 . S
H987 C995 0.950 . S
H988 C993 0.950 . S
H989 C994 0.949 . S
H990 C996 0.950 . S
H991 C997 0.950 . S
H992 C998 0.949 . S
C993 H988 0.950 . S
C993 C995 1.327 . S
C993 C999 1.429 . S
C994 C986 1.574 . S
C994 H989 0.949 . S
C994 C1000 1.368 . S
C995 C979 1.349 . S
C995 H987 0.950 . S
C995 C993 1.327 . S
C996 C984 1.349 . S
C996 H990 0.950 . S
C996 C997 1.327 . S
C997 H991 0.950 . S
C997 C996 1.327 . S
C997 C1001 1.429 . S
C998 C981 1.574 . S
C998 H992 0.949 . S
C998 C1002 1.368 . S
C999 C980 1.429 . S
C999 C993 1.429 . S
C999 C1000 1.523 . S
C1000 C981 1.368 . S
C1000 C994 1.368 . S
C1000 C999 1.523 . S
C1001 C985 1.429 . S
C1001 C997 1.429 . S
C1001 C1002 1.523 . S
C1002 C986 1.368 . S
C1002 C998 1.368 . S
C1002 C1001 1.523 . S
H1003 C978 0.950 . S
H1004 C980 0.950 . S
H1005 C981 0.949 . S
H1006 C983 0.950 . S
H1007 C985 0.950 . S
C1008 C1009 1.349 . S
C1008 C1010 1.327 . S
C1008 H1033 0.950 . S
C1009 C1008 1.349 . S
C1009 C1025 1.349 . S
C1010 C1008 1.327 . S
C1010 C1029 1.429 . S
C1010 H1034 0.950 . S
C1011 C1028 1.574 . S
C1011 C1030 1.368 . S
C1011 H1035 0.949 . S
H1012 C1016 0.949 . S
C1013 C1014 1.349 . S
C1013 C1015 1.327 . S
C1013 H1036 0.950 . S
C1014 C1013 1.349 . S
C1014 C1026 1.349 . S
C1015 C1013 1.327 . S
C1015 C1031 1.429 . S
C1015 H1037 0.950 . S
C1016 H1012 0.949 . S
C1016 C1024 1.574 . S
C1016 C1032 1.368 . S
H1017 C1025 0.950 . S
H1018 C1023 0.950 . S
H1019 C1024 0.949 . S
H1020 C1026 0.950 . S
H1021 C1027 0.950 . S
H1022 C1028 0.949 . S
C1023 H1018 0.950 . S
C1023 C1025 1.327 . S
C1023 C1029 1.429 . S
C1024 C1016 1.574 . S
C1024 H1019 0.949 . S
C1024 C1030 1.368 . S
C1025 C1009 1.349 . S
C1025 H1017 0.950 . S
C1025 C1023 1.327 . S
C1026 C1014 1.349 . S
C1026 H1020 0.950 . S
C1026 C1027 1.327 . S
C1027 H1021 0.950 . S
C1027 C1026 1.327 . S
C1027 C1031 1.429 . S
C1028 C1011 1.574 . S
C1028 H1022 0.949 . S
C1028 C1032 1.368 . S
C1029 C1010 1.429 . S
C1029 C1023 1.429 . S
C1029 C1030 1.523 . S
C1030 C1011 1.368 . S
C1030 C1024 1.368 . S
C1030 C1029 1.523 . S
C1031 C1015 1.429 . S
C1031 C1027 1.429 . S
C1031 C1032 1.523 . S
C1032 C1016 1.368 . S
C1032 C1028 1.368 . S
C1032 C1031 1.523 . S
H1033 C1008 0.950 . S
H1034 C1010 0.950 . S
H1035 C1011 0.949 . S
H1036 C1013 0.950 . S
H1037 C1015 0.950 . S
C1038 C1039 1.349 . S
C1038 C1040 1.327 . S
C1038 H1063 0.950 . S
C1039 C1038 1.349 . S
C1039 C1055 1.349 . S
C1040 C1038 1.327 . S
C1040 C1059 1.429 . S
C1040 H1064 0.950 . S
C1041 C1058 1.574 . S
C1041 C1060 1.368 . S
C1041 H1065 0.949 . S
H1042 C1046 0.949 . S
C1043 C1044 1.349 . S
C1043 C1045 1.327 . S
C1043 H1066 0.950 . S
C1044 C1043 1.349 . S
C1044 C1056 1.349 . S
C1045 C1043 1.327 . S
C1045 C1061 1.429 . S
C1045 H1067 0.950 . S
C1046 H1042 0.949 . S
C1046 C1054 1.574 . S
C1046 C1062 1.368 . S
H1047 C1055 0.950 . S
H1048 C1053 0.950 . S
H1049 C1054 0.949 . S
H1050 C1056 0.950 . S
H1051 C1057 0.950 . S
H1052 C1058 0.949 . S
C1053 H1048 0.950 . S
C1053 C1055 1.327 . S
C1053 C1059 1.429 . S
C1054 C1046 1.574 . S
C1054 H1049 0.949 . S
C1054 C1060 1.368 . S
C1055 C1039 1.349 . S
C1055 H1047 0.950 . S
C1055 C1053 1.327 . S
C1056 C1044 1.349 . S
C1056 H1050 0.950 . S
C1056 C1057 1.327 . S
C1057 H1051 0.950 . S
C1057 C1056 1.327 . S
C1057 C1061 1.429 . S
C1058 C1041 1.574 . S
C1058 H1052 0.949 . S
C1058 C1062 1.368 . S
C1059 C1040 1.429 . S
C1059 C1053 1.429 . S
C1059 C1060 1.523 . S
C1060 C1041 1.368 . S
C1060 C1054 1.368 . S
C1060 C1059 1.523 . S
C1061 C1045 1.429 . S
C1061 C1057 1.429 . S
C1061 C1062 1.523 . S
C1062 C1046 1.368 . S
C1062 C1058 1.368 . S
C1062 C1061 1.523 . S
H1063 C1038 0.950 . S
H1064 C1040 0.950 . S
H1065 C1041 0.949 . S
H1066 C1043 0.950 . S
H1067 C1045 0.950 . S
C1068 C1069 1.349 . S
C1068 C1070 1.327 . S
C1068 H1093 0.950 . S
C1069 C1068 1.349 . S
C1069 C1085 1.349 . S
C1070 C1068 1.327 . S
C1070 C1089 1.429 . S
C1070 H1094 0.950 . S
C1071 C1088 1.574 . S
C1071 C1090 1.368 . S
C1071 H1095 0.949 . S
H1072 C1076 0.949 . S
C1073 C1074 1.349 . S
C1073 C1075 1.327 . S
C1073 H1096 0.950 . S
C1074 C1073 1.349 . S
C1074 C1086 1.349 . S
C1075 C1073 1.327 . S
C1075 C1091 1.429 . S
C1075 H1097 0.950 . S
C1076 H1072 0.949 . S
C1076 C1084 1.574 . S
C1076 C1092 1.368 . S
H1077 C1085 0.950 . S
H1078 C1083 0.950 . S
H1079 C1084 0.949 . S
H1080 C1086 0.950 . S
H1081 C1087 0.950 . S
H1082 C1088 0.949 . S
C1083 H1078 0.950 . S
C1083 C1085 1.327 . S
C1083 C1089 1.429 . S
C1084 C1076 1.574 . S
C1084 H1079 0.949 . S
C1084 C1090 1.368 . S
C1085 C1069 1.349 . S
C1085 H1077 0.950 . S
C1085 C1083 1.327 . S
C1086 C1074 1.349 . S
C1086 H1080 0.950 . S
C1086 C1087 1.327 . S
C1087 H1081 0.950 . S
C1087 C1086 1.327 . S
C1087 C1091 1.429 . S
C1088 C1071 1.574 . S
C1088 H1082 0.949 . S
C1088 C1092 1.368 . S
C1089 C1070 1.429 . S
C1089 C1083 1.429 . S
C1089 C1090 1.523 . S
C1090 C1071 1.368 . S
C1090 C1084 1.368 . S
C1090 C1089 1.523 . S
C1091 C1075 1.429 . S
C1091 C1087 1.429 . S
C1091 C1092 1.523 . S
C1092 C1076 1.368 . S
C1092 C1088 1.368 . S
C1092 C1091 1.523 . S
H1093 C1068 0.950 . S
H1094 C1070 0.950 . S
H1095 C1071 0.949 . S
H1096 C1073 0.950 . S
H1097 C1075 0.950 . S
C1098 C1099 1.349 . S
C1098 C1100 1.327 . S
C1098 H1123 0.950 . S
C1099 C1098 1.349 . S
C1099 C1115 1.349 . S
C1100 C1098 1.327 . S
C1100 C1119 1.429 . S
C1100 H1124 0.950 . S
C1101 C1118 1.574 . S
C1101 C1120 1.368 . S
C1101 H1125 0.949 . S
H1102 C1106 0.949 . S
C1103 C1104 1.349 . S
C1103 C1105 1.327 . S
C1103 H1126 0.950 . S
C1104 C1103 1.349 . S
C1104 C1116 1.349 . S
C1105 C1103 1.327 . S
C1105 C1121 1.429 . S
C1105 H1127 0.950 . S
C1106 H1102 0.949 . S
C1106 C1114 1.574 . S
C1106 C1122 1.368 . S
H1107 C1115 0.950 . S
H1108 C1113 0.950 . S
H1109 C1114 0.949 . S
H1110 C1116 0.950 . S
H1111 C1117 0.950 . S
H1112 C1118 0.949 . S
C1113 H1108 0.950 . S
C1113 C1115 1.327 . S
C1113 C1119 1.429 . S
C1114 C1106 1.574 . S
C1114 H1109 0.949 . S
C1114 C1120 1.368 . S
C1115 C1099 1.349 . S
C1115 H1107 0.950 . S
C1115 C1113 1.327 . S
C1116 C1104 1.349 . S
C1116 H1110 0.950 . S
C1116 C1117 1.327 . S
C1117 H1111 0.950 . S
C1117 C1116 1.327 . S
C1117 C1121 1.429 . S
C1118 C1101 1.574 . S
C1118 H1112 0.949 . S
C1118 C1122 1.368 . S
C1119 C1100 1.429 . S
C1119 C1113 1.429 . S
C1119 C1120 1.523 . S
C1120 C1101 1.368 . S
C1120 C1114 1.368 . S
C1120 C1119 1.523 . S
C1121 C1105 1.429 . S
C1121 C1117 1.429 . S
C1121 C1122 1.523 . S
C1122 C1106 1.368 . S
C1122 C1118 1.368 . S
C1122 C1121 1.523 . S
H1123 C1098 0.950 . S
H1124 C1100 0.950 . S
H1125 C1101 0.949 . S
H1126 C1103 0.950 . S
H1127 C1105 0.950 . S
C409 C58 1.466 . S
C414 C128 1.445 . S
C444 C212 1.446 . S
C439 C68 1.466 . S
C474 C211 1.451 . S
C469 C40 1.452 . S
C499 C50 1.451 . S
C504 C127 1.453 . S
C534 C308 1.448 . S
C529 C23 1.469 . S
C564 C392 1.446 . S
C559 C32 1.467 . S
C589 C5 1.455 . S
C594 C391 1.454 . S
C619 C14 1.453 . S
C624 C307 1.452 . S
C654 C130 1.333 . S
C649 C13 1.499 . S
C684 C214 1.333 . S
C679 C4 1.499 . S
C714 C226 1.398 . S
C709 C31 1.527 . S
C744 C142 1.398 . S
C739 C22 1.527 . S
C774 C310 1.334 . S
C769 C49 1.499 . S
C799 C41 1.501 . S
C804 C394 1.334 . S
C834 C382 1.399 . S
C829 C67 1.528 . S
C859 C59 1.529 . S
C864 C298 1.400 . S
C894 C139 1.548 . S
C889 C7 1.545 . S
C924 C223 1.545 . S
C919 C16 1.543 . S
C949 C25 1.539 . S
C954 C224 1.522 . S
C984 C140 1.519 . S
C979 C34 1.537 . S
C1014 C295 1.548 . S
C1009 C43 1.547 . S
C1039 C52 1.545 . S
C1044 C379 1.549 . S
C1069 C61 1.541 . S
C1074 C380 1.522 . S
C1099 C70 1.539 . S
C1104 C296 1.523 . S
