# Generated by pormake.
# Topology ptr, (4,4)-cn, num edge types: 1
# Building blocks:
#     Node 0, Type 0, BuildingBlock: GALJAG_clean_sbu_0, # of connection points: 4
#     Node 1, Type 0, BuildingBlock: GALJAG_clean_sbu_0, # of connection points: 4
#     Node 2, Type 0, BuildingBlock: GALJAG_clean_sbu_0, # of connection points: 4
#     Node 3, Type 0, BuildingBlock: GALJAG_clean_sbu_0, # of connection points: 4
#     Node 4, Type 0, BuildingBlock: GALJAG_clean_sbu_0, # of connection points: 4
#     Node 5, Type 0, BuildingBlock: GALJAG_clean_sbu_0, # of connection points: 4
#     Node 6, Type 0, BuildingBlock: GALJAG_clean_sbu_0, # of connection points: 4
#     Node 7, Type 0, BuildingBlock: GALJAG_clean_sbu_0, # of connection points: 4
#     Node 8, Type 0, BuildingBlock: GALJAG_clean_sbu_0, # of connection points: 4
#     Node 9, Type 0, BuildingBlock: GALJAG_clean_sbu_0, # of connection points: 4
#     Node 10, Type 0, BuildingBlock: GALJAG_clean_sbu_0, # of connection points: 4
#     Node 11, Type 0, BuildingBlock: GALJAG_clean_sbu_0, # of connection points: 4
#     Node 12, Type 0, BuildingBlock: GALJAG_clean_sbu_0, # of connection points: 4
#     Node 13, Type 0, BuildingBlock: GALJAG_clean_sbu_0, # of connection points: 4
#     Node 14, Type 0, BuildingBlock: GALJAG_clean_sbu_0, # of connection points: 4
#     Node 15, Type 0, BuildingBlock: GALJAG_clean_sbu_0, # of connection points: 4
#     Node 16, Type 0, BuildingBlock: GALJAG_clean_sbu_0, # of connection points: 4
#     Node 17, Type 0, BuildingBlock: GALJAG_clean_sbu_0, # of connection points: 4
#     Node 18, Type 1, BuildingBlock: NAHDIM_clean_linker_0, # of connection points: 4
#     Node 19, Type 1, BuildingBlock: NAHDIM_clean_linker_0, # of connection points: 4
#     Node 20, Type 1, BuildingBlock: NAHDIM_clean_linker_0, # of connection points: 4
#     Node 21, Type 1, BuildingBlock: NAHDIM_clean_linker_0, # of connection points: 4
#     Node 22, Type 1, BuildingBlock: NAHDIM_clean_linker_0, # of connection points: 4
#     Node 23, Type 1, BuildingBlock: NAHDIM_clean_linker_0, # of connection points: 4
#     Node 24, Type 1, BuildingBlock: NAHDIM_clean_linker_0, # of connection points: 4
#     Node 25, Type 1, BuildingBlock: NAHDIM_clean_linker_0, # of connection points: 4
#     Node 26, Type 1, BuildingBlock: NAHDIM_clean_linker_0, # of connection points: 4
#     Node 27, Type 1, BuildingBlock: NAHDIM_clean_linker_0, # of connection points: 4
#     Node 28, Type 1, BuildingBlock: NAHDIM_clean_linker_0, # of connection points: 4
#     Node 29, Type 1, BuildingBlock: NAHDIM_clean_linker_0, # of connection points: 4
#     Node 30, Type 1, BuildingBlock: NAHDIM_clean_linker_0, # of connection points: 4
#     Node 31, Type 1, BuildingBlock: NAHDIM_clean_linker_0, # of connection points: 4
#     Node 32, Type 1, BuildingBlock: NAHDIM_clean_linker_0, # of connection points: 4
#     Node 33, Type 1, BuildingBlock: NAHDIM_clean_linker_0, # of connection points: 4
#     Node 34, Type 1, BuildingBlock: NAHDIM_clean_linker_0, # of connection points: 4
#     Node 35, Type 1, BuildingBlock: NAHDIM_clean_linker_0, # of connection points: 4
#     Edge 36, Type (0, 1), BuildingBlock: XIVTED_clean_linker_0, # of connection points: 2
#     Edge 37, Type (0, 1), BuildingBlock: XIVTED_clean_linker_0, # of connection points: 2
#     Edge 38, Type (0, 1), BuildingBlock: XIVTED_clean_linker_0, # of connection points: 2
#     Edge 39, Type (0, 1), BuildingBlock: XIVTED_clean_linker_0, # of connection points: 2
#     Edge 40, Type (0, 1), BuildingBlock: XIVTED_clean_linker_0, # of connection points: 2
#     Edge 41, Type (0, 1), BuildingBlock: XIVTED_clean_linker_0, # of connection points: 2
#     Edge 42, Type (0, 1), BuildingBlock: XIVTED_clean_linker_0, # of connection points: 2
#     Edge 43, Type (0, 1), BuildingBlock: XIVTED_clean_linker_0, # of connection points: 2
#     Edge 44, Type (0, 1), BuildingBlock: XIVTED_clean_linker_0, # of connection points: 2
#     Edge 45, Type (0, 1), BuildingBlock: XIVTED_clean_linker_0, # of connection points: 2
#     Edge 46, Type (0, 1), BuildingBlock: XIVTED_clean_linker_0, # of connection points: 2
#     Edge 47, Type (0, 1), BuildingBlock: XIVTED_clean_linker_0, # of connection points: 2
#     Edge 48, Type (0, 1), BuildingBlock: XIVTED_clean_linker_0, # of connection points: 2
#     Edge 49, Type (0, 1), BuildingBlock: XIVTED_clean_linker_0, # of connection points: 2
#     Edge 50, Type (0, 1), BuildingBlock: XIVTED_clean_linker_0, # of connection points: 2
#     Edge 51, Type (0, 1), BuildingBlock: XIVTED_clean_linker_0, # of connection points: 2
#     Edge 52, Type (0, 1), BuildingBlock: XIVTED_clean_linker_0, # of connection points: 2
#     Edge 53, Type (0, 1), BuildingBlock: XIVTED_clean_linker_0, # of connection points: 2
#     Edge 54, Type (0, 1), BuildingBlock: XIVTED_clean_linker_0, # of connection points: 2
#     Edge 55, Type (0, 1), BuildingBlock: XIVTED_clean_linker_0, # of connection points: 2
#     Edge 56, Type (0, 1), BuildingBlock: XIVTED_clean_linker_0, # of connection points: 2
#     Edge 57, Type (0, 1), BuildingBlock: XIVTED_clean_linker_0, # of connection points: 2
#     Edge 58, Type (0, 1), BuildingBlock: XIVTED_clean_linker_0, # of connection points: 2
#     Edge 59, Type (0, 1), BuildingBlock: XIVTED_clean_linker_0, # of connection points: 2
#     Edge 60, Type (0, 1), BuildingBlock: XIVTED_clean_linker_0, # of connection points: 2
#     Edge 61, Type (0, 1), BuildingBlock: XIVTED_clean_linker_0, # of connection points: 2
#     Edge 62, Type (0, 1), BuildingBlock: XIVTED_clean_linker_0, # of connection points: 2
#     Edge 63, Type (0, 1), BuildingBlock: XIVTED_clean_linker_0, # of connection points: 2
#     Edge 64, Type (0, 1), BuildingBlock: XIVTED_clean_linker_0, # of connection points: 2
#     Edge 65, Type (0, 1), BuildingBlock: XIVTED_clean_linker_0, # of connection points: 2
#     Edge 66, Type (0, 1), BuildingBlock: XIVTED_clean_linker_0, # of connection points: 2
#     Edge 67, Type (0, 1), BuildingBlock: XIVTED_clean_linker_0, # of connection points: 2
#     Edge 68, Type (0, 1), BuildingBlock: XIVTED_clean_linker_0, # of connection points: 2
#     Edge 69, Type (0, 1), BuildingBlock: XIVTED_clean_linker_0, # of connection points: 2
#     Edge 70, Type (0, 1), BuildingBlock: XIVTED_clean_linker_0, # of connection points: 2
#     Edge 71, Type (0, 1), BuildingBlock: XIVTED_clean_linker_0, # of connection points: 2
#     Edge 72, Type (0, 1), BuildingBlock: XIVTED_clean_linker_0, # of connection points: 2
#     Edge 73, Type (0, 1), BuildingBlock: XIVTED_clean_linker_0, # of connection points: 2
#     Edge 74, Type (0, 1), BuildingBlock: XIVTED_clean_linker_0, # of connection points: 2
#     Edge 75, Type (0, 1), BuildingBlock: XIVTED_clean_linker_0, # of connection points: 2
#     Edge 76, Type (0, 1), BuildingBlock: XIVTED_clean_linker_0, # of connection points: 2
#     Edge 77, Type (0, 1), BuildingBlock: XIVTED_clean_linker_0, # of connection points: 2
#     Edge 78, Type (0, 1), BuildingBlock: XIVTED_clean_linker_0, # of connection points: 2
#     Edge 79, Type (0, 1), BuildingBlock: XIVTED_clean_linker_0, # of connection points: 2
#     Edge 80, Type (0, 1), BuildingBlock: XIVTED_clean_linker_0, # of connection points: 2
#     Edge 81, Type (0, 1), BuildingBlock: XIVTED_clean_linker_0, # of connection points: 2
#     Edge 82, Type (0, 1), BuildingBlock: XIVTED_clean_linker_0, # of connection points: 2
#     Edge 83, Type (0, 1), BuildingBlock: XIVTED_clean_linker_0, # of connection points: 2
#     Edge 84, Type (0, 1), BuildingBlock: XIVTED_clean_linker_0, # of connection points: 2
#     Edge 85, Type (0, 1), BuildingBlock: XIVTED_clean_linker_0, # of connection points: 2
#     Edge 86, Type (0, 1), BuildingBlock: XIVTED_clean_linker_0, # of connection points: 2
#     Edge 87, Type (0, 1), BuildingBlock: XIVTED_clean_linker_0, # of connection points: 2
#     Edge 88, Type (0, 1), BuildingBlock: XIVTED_clean_linker_0, # of connection points: 2
#     Edge 89, Type (0, 1), BuildingBlock: XIVTED_clean_linker_0, # of connection points: 2
#     Edge 90, Type (0, 1), BuildingBlock: XIVTED_clean_linker_0, # of connection points: 2
#     Edge 91, Type (0, 1), BuildingBlock: XIVTED_clean_linker_0, # of connection points: 2
#     Edge 92, Type (0, 1), BuildingBlock: XIVTED_clean_linker_0, # of connection points: 2
#     Edge 93, Type (0, 1), BuildingBlock: XIVTED_clean_linker_0, # of connection points: 2
#     Edge 94, Type (0, 1), BuildingBlock: XIVTED_clean_linker_0, # of connection points: 2
#     Edge 95, Type (0, 1), BuildingBlock: XIVTED_clean_linker_0, # of connection points: 2
#     Edge 96, Type (0, 1), BuildingBlock: XIVTED_clean_linker_0, # of connection points: 2
#     Edge 97, Type (0, 1), BuildingBlock: XIVTED_clean_linker_0, # of connection points: 2
#     Edge 98, Type (0, 1), BuildingBlock: XIVTED_clean_linker_0, # of connection points: 2
#     Edge 99, Type (0, 1), BuildingBlock: XIVTED_clean_linker_0, # of connection points: 2
#     Edge 100, Type (0, 1), BuildingBlock: XIVTED_clean_linker_0, # of connection points: 2
#     Edge 101, Type (0, 1), BuildingBlock: XIVTED_clean_linker_0, # of connection points: 2
#     Edge 102, Type (0, 1), BuildingBlock: XIVTED_clean_linker_0, # of connection points: 2
#     Edge 103, Type (0, 1), BuildingBlock: XIVTED_clean_linker_0, # of connection points: 2
#     Edge 104, Type (0, 1), BuildingBlock: XIVTED_clean_linker_0, # of connection points: 2
#     Edge 105, Type (0, 1), BuildingBlock: XIVTED_clean_linker_0, # of connection points: 2
#     Edge 106, Type (0, 1), BuildingBlock: XIVTED_clean_linker_0, # of connection points: 2
#     Edge 107, Type (0, 1), BuildingBlock: XIVTED_clean_linker_0, # of connection points: 2
# Relax obj value: 0.026
# Max RMSD: 0.104
# Mean RMSD: 0.052
data_MOF--net-ptr--node1-GALJAG_clean_sbu_0--node2-NAHDIM_clean_linker_0--edge1-XIVTED_clean_linker_0
_symmetry_space_group_name_H-M    P1
_symmetry_Int_Tables_number       1
_symmetry_cell_setting            triclinic
loop_
_symmetry_equiv_pos_as_xyz
'x, y, z'
_cell_length_a     92.993833
_cell_length_b     92.643478
_cell_length_c     84.494288
_cell_angle_alpha  90.816945
_cell_angle_beta   90.437417
_cell_angle_gamma 120.02621
loop_
_atom_site_label
_atom_site_type_symbol
_atom_site_fract_x
_atom_site_fract_y
_atom_site_fract_z
_atom_type_partial_charge
In0 In 0.00097 0.34354 0.00833 0.0
O1 O 0.9871 0.34729 0.02883 0.0
O2 O 0.01148 0.36687 0.02367 0.0
C3 C 0.98021 0.31334 0.99546 0.0
C4 C 0.02232 0.3357 0.02194 0.0
C5 C 0.00271 0.36199 0.98338 0.0
O6 O 0.97535 0.31996 0.00574 0.0
O7 O 0.99526 0.32203 0.99175 0.0
O8 O 0.01497 0.36063 0.98792 0.0
O9 O 0.9898 0.35417 0.99149 0.0
C10 C 0.99894 0.36175 0.03235 0.0
O11 O 0.02672 0.34608 0.01088 0.0
O12 O 0.00743 0.32966 0.0261 0.0
In13 In 0.65393 0.64814 0.01275 0.0
O14 O 0.65555 0.63144 0.03168 0.0
O15 O 0.63287 0.63146 0.02894 0.0
C16 C 0.68329 0.65224 0.00283 0.0
C17 C 0.65925 0.67794 0.0239 0.0
C18 C 0.63284 0.63773 0.98751 0.0
O19 O 0.68203 0.65903 0.01539 0.0
O20 O 0.66973 0.64306 0.99558 0.0
O21 O 0.6389 0.65219 0.99351 0.0
O22 O 0.63728 0.62854 0.99432 0.0
C23 C 0.64086 0.6259 0.03627 0.0
O24 O 0.66596 0.67649 0.01152 0.0
O25 O 0.64975 0.66438 0.03053 0.0
In26 In 0.35058 0.00146 0.00506 0.0
O27 O 0.35275 0.02701 0.00218 0.0
O28 O 0.336 0.00688 0.98699 0.0
C29 C 0.36998 0.00493 0.03014 0.0
C30 C 0.36816 0.99873 0.98128 0.0
C31 C 0.32142 0.98122 0.01871 0.0
O32 O 0.3681 0.01679 0.02542 0.0
O33 O 0.36231 0.99156 0.02204 0.0
O34 O 0.32734 0.97577 0.00829 0.0
O35 O 0.3302 0.99657 0.02201 0.0
C36 C 0.34209 0.02203 0.991 0.0
O37 O 0.3537 0.98703 0.98434 0.0
O38 O 0.37359 0.01138 0.99034 0.0
In39 In 0.99745 0.65293 0.01002 0.0
O40 O 0.01504 0.64943 0.99367 0.0
O41 O 0.98906 0.63289 0.99074 0.0
C42 C 0.01793 0.68231 0.02475 0.0
C43 C 0.97854 0.66336 0.99533 0.0
C44 C 0.98975 0.63106 0.03362 0.0
O45 O 0.0228 0.6765 0.01372 0.0
O46 O 0.00295 0.67314 0.02847 0.0
O47 O 0.97881 0.63245 0.02594 0.0
O48 O 0.00445 0.64057 0.0293 0.0
C49 C 0.00349 0.63722 0.98609 0.0
O50 O 0.97306 0.65304 0.00643 0.0
O51 O 0.99333 0.66811 0.99158 0.0
In52 In 0.3545 0.35819 0.00146 0.0
O53 O 0.34979 0.37242 0.98226 0.0
O54 O 0.37486 0.37927 0.98709 0.0
C55 C 0.32605 0.34784 0.01748 0.0
C56 C 0.34764 0.33004 0.98517 0.0
C57 C 0.37715 0.37127 0.02529 0.0
O58 O 0.3329 0.36134 0.01006 0.0
O59 O 0.33365 0.33977 0.01696 0.0
O60 O 0.37757 0.36171 0.01472 0.0
O61 O 0.36557 0.37452 0.02358 0.0
C62 C 0.36485 0.38164 0.97892 0.0
O63 O 0.35723 0.33516 0.99714 0.0
O64 O 0.34208 0.33938 0.98119 0.0
In65 In 0.6508 0.99963 0.00807 0.0
O66 O 0.64812 0.01783 0.02462 0.0
O67 O 0.63242 0.9918 0.02814 0.0
C68 C 0.67882 0.02105 0.99301 0.0
C69 C 0.66086 0.98049 0.02286 0.0
C70 C 0.62784 0.99032 0.98455 0.0
O71 O 0.67354 0.02557 0.00471 0.0
O72 O 0.66984 0.00597 0.98886 0.0
O73 O 0.63503 0.9822 0.98774 0.0
O74 O 0.63202 0.00295 0.99334 0.0
C75 C 0.63676 0.0065 0.03264 0.0
O76 O 0.64812 0.97434 0.01392 0.0
O77 O 0.66834 0.99616 0.02435 0.0
In78 In 0.66585 0.68015 0.34129 0.0
O79 O 0.64529 0.67793 0.3577 0.0
O80 O 0.6692 0.69955 0.35987 0.0
C81 C 0.64327 0.65051 0.32789 0.0
C82 C 0.68966 0.67454 0.35324 0.0
C83 C 0.67644 0.70407 0.3193 0.0
O84 O 0.64838 0.65181 0.342 0.0
O85 O 0.64918 0.66412 0.32079 0.0
O86 O 0.68593 0.69949 0.32535 0.0
O87 O 0.66184 0.69672 0.32445 0.0
C88 C 0.6545 0.69172 0.36474 0.0
O89 O 0.68546 0.67217 0.33878 0.0
O90 O 0.68214 0.68004 0.36148 0.0
In91 In 0.31264 0.98014 0.34853 0.0
O92 O 0.31282 0.96174 0.3661 0.0
O93 O 0.2924 0.96596 0.36653 0.0
C94 C 0.33903 0.98358 0.33249 0.0
C95 C 0.32415 0.00898 0.36529 0.0
C96 C 0.29056 0.96985 0.32407 0.0
O97 O 0.3304 0.97121 0.34106 0.0
O98 O 0.3343 0.99419 0.33197 0.0
O99 O 0.29696 0.98437 0.33005 0.0
O100 O 0.2951 0.96061 0.33057 0.0
C101 C 0.29926 0.95841 0.37234 0.0
O102 O 0.30974 0.00145 0.35915 0.0
O103 O 0.33265 0.00205 0.36288 0.0
In104 In 0.02011 0.33599 0.33871 0.0
O105 O 0.0196 0.36028 0.33933 0.0
O106 O 0.01687 0.34845 0.31686 0.0
C107 C 0.04077 0.34493 0.36425 0.0
C108 C 0.03355 0.32561 0.31619 0.0
C109 C 0.98911 0.31548 0.34933 0.0
O110 O 0.04141 0.35522 0.3543 0.0
O111 O 0.02971 0.33003 0.36134 0.0
O112 O 0.99888 0.31024 0.3458 0.0
O113 O 0.99489 0.33083 0.34727 0.0
C114 C 0.01773 0.36065 0.32456 0.0
O115 O 0.01814 0.31803 0.31875 0.0
O116 O 0.04205 0.33817 0.32509 0.0
In117 In 0.6689 0.97907 0.34854 0.0
O118 O 0.69104 0.98037 0.33549 0.0
O119 O 0.66665 0.96142 0.32859 0.0
C120 C 0.6877 0.01025 0.36073 0.0
C121 C 0.64567 0.97963 0.32966 0.0
C122 C 0.65927 0.95928 0.3742 0.0
O123 O 0.69409 0.00214 0.35495 0.0
O124 O 0.67206 0.0026 0.36038 0.0
O125 O 0.65543 0.97032 0.37193 0.0
O126 O 0.66809 0.95815 0.36358 0.0
C127 C 0.68204 0.96823 0.32622 0.0
O128 O 0.64222 0.96826 0.33949 0.0
O129 O 0.66077 0.99083 0.32954 0.0
In130 In 0.02704 0.69428 0.33698 0.0
O131 O 0.02881 0.71673 0.32423 0.0
O132 O 0.04405 0.70724 0.31619 0.0
C133 C 0.9974 0.6834 0.35086 0.0
C134 C 0.01904 0.66537 0.32166 0.0
C135 C 0.04917 0.70716 0.36143 0.0
O136 O 0.00263 0.69421 0.3402 0.0
O137 O 0.00714 0.67818 0.35455 0.0
O138 O 0.04922 0.69697 0.35141 0.0
O139 O 0.03832 0.71123 0.35885 0.0
C140 C 0.03941 0.71778 0.31441 0.0
O141 O 0.03021 0.67171 0.33231 0.0
O142 O 0.01206 0.67372 0.3186 0.0
In143 In 0.30987 0.33423 0.34433 0.0
O144 O 0.30802 0.30918 0.34944 0.0
O145 O 0.3257 0.3305 0.3627 0.0
C146 C 0.28699 0.32405 0.32056 0.0
C147 C 0.29769 0.34568 0.36722 0.0
C148 C 0.33867 0.35266 0.3291 0.0
O149 O 0.28783 0.31399 0.3299 0.0
O150 O 0.29734 0.33918 0.32349 0.0
O151 O 0.33374 0.35873 0.33981 0.0
O152 O 0.32903 0.33738 0.32603 0.0
C153 C 0.3194 0.31507 0.35992 0.0
O154 O 0.30865 0.35517 0.35774 0.0
O155 O 0.29262 0.33037 0.36498 0.0
In156 In 0.333 0.01798 0.67357 0.0
O157 O 0.35956 0.03231 0.68333 0.0
O158 O 0.34614 0.00616 0.68654 0.0
C159 C 0.33938 0.03634 0.64728 0.0
C160 C 0.3215 0.0291 0.69733 0.0
C161 C 0.3134 0.98729 0.6607 0.0
O162 O 0.35001 0.0337 0.65392 0.0
O163 O 0.32539 0.02957 0.65379 0.0
O164 O 0.30758 0.99486 0.66856 0.0
O165 O 0.32897 0.99523 0.65933 0.0
C166 C 0.35956 0.01971 0.68873 0.0
O167 O 0.31739 0.01395 0.69573 0.0
O168 O 0.33098 0.03841 0.68681 0.0
In169 In 0.98337 0.31592 0.67562 0.0
O170 O 0.98461 0.34118 0.67398 0.0
O171 O 0.99169 0.33517 0.69574 0.0
C172 C 0.96015 0.30167 0.65241 0.0
C173 C 0.96899 0.29236 0.69782 0.0
C174 C 0.01335 0.32375 0.66374 0.0
O175 O 0.96262 0.31458 0.65999 0.0
O176 O 0.96927 0.29586 0.65666 0.0
O177 O 0.01041 0.32199 0.67833 0.0
O178 O 0.00126 0.32162 0.6552 0.0
C179 C 0.98968 0.34561 0.68807 0.0
O180 O 0.98122 0.29413 0.68992 0.0
O181 O 0.96398 0.30232 0.6944 0.0
In182 In 0.68406 0.6664 0.67246 0.0
O183 O 0.68562 0.69123 0.66699 0.0
O184 O 0.66767 0.66955 0.65432 0.0
C185 C 0.7072 0.67651 0.6959 0.0
C186 C 0.69781 0.65784 0.64869 0.0
C187 C 0.65603 0.64695 0.68846 0.0
O188 O 0.70425 0.68649 0.68848 0.0
O189 O 0.69858 0.66146 0.69141 0.0
O190 O 0.66174 0.64101 0.67838 0.0
O191 O 0.6645 0.66256 0.69048 0.0
C192 C 0.67408 0.68506 0.65668 0.0
O193 O 0.68511 0.64719 0.65584 0.0
O194 O 0.70361 0.67264 0.65367 0.0
In195 In 0.32904 0.30857 0.67412 0.0
O196 O 0.34957 0.30628 0.66171 0.0
O197 O 0.32479 0.29135 0.65296 0.0
C198 C 0.34737 0.337 0.69115 0.0
C199 C 0.31153 0.32002 0.65841 0.0
C200 C 0.31765 0.28446 0.69586 0.0
O201 O 0.35292 0.33351 0.67897 0.0
O202 O 0.33292 0.32601 0.69486 0.0
O203 O 0.30807 0.28605 0.68626 0.0
O204 O 0.33289 0.29472 0.69417 0.0
C205 C 0.33991 0.29569 0.65149 0.0
O206 O 0.30536 0.30993 0.66962 0.0
O207 O 0.32615 0.3238 0.65496 0.0
In208 In 0.69192 0.02717 0.66879 0.0
O209 O 0.69485 0.04971 0.65538 0.0
O210 O 0.70856 0.03847 0.64737 0.0
C211 C 0.66369 0.01971 0.68401 0.0
C212 C 0.68049 0.99717 0.65422 0.0
C213 C 0.71526 0.03943 0.69226 0.0
O214 O 0.6694 0.03026 0.67315 0.0
O215 O 0.67222 0.01295 0.68719 0.0
O216 O 0.71397 0.02848 0.68241 0.0
O217 O 0.70515 0.04452 0.68998 0.0
C218 C 0.70479 0.04964 0.64538 0.0
O219 O 0.69205 0.00283 0.66451 0.0
O220 O 0.67486 0.00672 0.65115 0.0
In221 In 0.97345 0.66855 0.67293 0.0
O222 O 0.96534 0.64212 0.6808 0.0
O223 O 0.98894 0.66161 0.6888 0.0
C224 C 0.95231 0.65781 0.6476 0.0
C225 C 0.96165 0.67992 0.69609 0.0
C226 C 0.00324 0.68979 0.6603 0.0
O227 O 0.96292 0.65345 0.65011 0.0
O228 O 0.95202 0.66753 0.65802 0.0
O229 O 0.99719 0.69421 0.67141 0.0
O230 O 0.99422 0.67493 0.65556 0.0
C231 C 0.97845 0.64623 0.6887 0.0
O232 O 0.97126 0.68934 0.6856 0.0
O233 O 0.9577 0.66479 0.69459 0.0
C234 C 0.20055 0.28318 0.04612 0.0
C235 C 0.21023 0.29707 0.05844 0.0
C236 C 0.20054 0.29398 0.08542 0.0
C237 C 0.20532 0.31054 0.08937 0.0
C238 C 0.19699 0.31421 0.10114 0.0
C239 C 0.18346 0.301 0.10891 0.0
C240 C 0.17903 0.28427 0.10529 0.0
C241 C 0.18793 0.28102 0.09381 0.0
C242 C 0.20232 0.33218 0.10491 0.0
C243 C 0.16447 0.26978 0.11302 0.0
C244 C 0.07565 0.31061 0.07386 0.0
C245 C 0.08528 0.30525 0.08368 0.0
C246 C 0.11268 0.31571 0.09577 0.0
C247 C 0.10995 0.29981 0.09964 0.0
C248 C 0.12207 0.29799 0.10786 0.0
C249 C 0.13727 0.31231 0.11228 0.0
C250 C 0.14019 0.32831 0.10825 0.0
C251 C 0.12781 0.32979 0.10004 0.0
C252 C 0.11863 0.28071 0.11184 0.0
C253 C 0.15634 0.34379 0.11268 0.0
C254 C 0.111 0.30512 0.21515 0.0
C255 C 0.10701 0.29064 0.20619 0.0
C256 C 0.11918 0.28954 0.19738 0.0
C257 C 0.13558 0.30328 0.19728 0.0
C258 C 0.13966 0.3178 0.20638 0.0
C259 C 0.12731 0.31845 0.21529 0.0
C260 C 0.11445 0.27372 0.18804 0.0
C261 C 0.15699 0.33269 0.20652 0.0
C262 C 0.23486 0.27131 0.21042 0.0
C263 C 0.22879 0.28318 0.21575 0.0
C264 C 0.20197 0.28054 0.20869 0.0
C265 C 0.18613 0.2689 0.20301 0.0
C266 C 0.17587 0.27399 0.19567 0.0
C267 C 0.18156 0.29121 0.19422 0.0
C268 C 0.19732 0.30309 0.20054 0.0
C269 C 0.20737 0.29765 0.20776 0.0
C270 C 0.15903 0.26097 0.18925 0.0
C271 C 0.20355 0.32153 0.19952 0.0
C272 C 0.17285 0.30457 0.11943 0.0
C273 C 0.16145 0.30811 0.11215 0.0
C274 C 0.1501 0.31039 0.12101 0.0
C275 C 0.15013 0.30928 0.13766 0.0
C276 C 0.13885 0.31148 0.14692 0.0
C277 C 0.13846 0.30962 0.16324 0.0
C278 C 0.14924 0.30533 0.17092 0.0
C279 C 0.14835 0.30257 0.18739 0.0
C280 C 0.15927 0.29835 0.19466 0.0
C281 C 0.17108 0.29671 0.18589 0.0
C282 C 0.17214 0.2994 0.16939 0.0
C283 C 0.18386 0.29783 0.16018 0.0
C284 C 0.18438 0.2999 0.14386 0.0
C285 C 0.17308 0.3034 0.1361 0.0
C286 C 0.16154 0.30557 0.14522 0.0
C287 C 0.16106 0.30357 0.16187 0.0
C288 C 0.07458 0.29855 0.20888 0.0
C289 C 0.08256 0.29635 0.22392 0.0
O290 O 0.20762 0.29015 0.07333 0.0
O291 O 0.21159 0.27478 0.21498 0.0
O292 O 0.09964 0.30687 0.22377 0.0
O293 O 0.10107 0.31792 0.088 0.0
H294 H 0.20528 0.3058 0.05769 0.0
H295 H 0.18707 0.27685 0.04869 0.0
H296 H 0.20461 0.27376 0.04635 0.0
H297 H 0.20243 0.28843 0.03407 0.0
H298 H 0.21544 0.32057 0.08312 0.0
H299 H 0.1845 0.26829 0.09073 0.0
H300 H 0.19305 0.33512 0.09984 0.0
H301 H 0.21465 0.3409 0.09994 0.0
H302 H 0.20284 0.33432 0.11792 0.0
H303 H 0.16151 0.25761 0.10756 0.0
H304 H 0.15328 0.27112 0.11216 0.0
H305 H 0.16733 0.26964 0.12577 0.0
H306 H 0.0783 0.29679 0.09351 0.0
H307 H 0.07314 0.29783 0.05045 0.0
H308 H 0.08187 0.32464 0.07512 0.0
H309 H 0.06465 0.30819 0.08127 0.0
H310 H 0.09841 0.28874 0.09628 0.0
H311 H 0.12987 0.34199 0.09696 0.0
H312 H 0.12821 0.27845 0.1065 0.0
H313 H 0.10619 0.27081 0.10752 0.0
H314 H 0.11937 0.2797 0.12486 0.0
H315 H 0.15668 0.35535 0.10874 0.0
H316 H 0.16683 0.3431 0.10727 0.0
H317 H 0.15825 0.34454 0.12572 0.0
H318 H 0.0796 0.28317 0.22467 0.0
H319 H 0.09448 0.28015 0.20594 0.0
H320 H 0.1303 0.32954 0.22226 0.0
H321 H 0.11485 0.2762 0.17519 0.0
H322 H 0.10179 0.2635 0.19083 0.0
H323 H 0.12348 0.26947 0.19049 0.0
H324 H 0.15795 0.34337 0.21354 0.0
H325 H 0.16087 0.33675 0.19421 0.0
H326 H 0.16582 0.32916 0.2116 0.0
H327 H 0.23409 0.29361 0.20725 0.0
H328 H 0.24865 0.27773 0.21108 0.0
H329 H 0.23085 0.26717 0.19795 0.0
H330 H 0.22965 0.2601 0.21791 0.0
H331 H 0.18198 0.25574 0.204 0.0
H332 H 0.21937 0.30677 0.2127 0.0
H333 H 0.15825 0.26263 0.17635 0.0
H334 H 0.14921 0.26258 0.19499 0.0
H335 H 0.15647 0.24807 0.19126 0.0
H336 H 0.21587 0.32921 0.20544 0.0
H337 H 0.19452 0.32451 0.20506 0.0
H338 H 0.20457 0.32506 0.1869 0.0
H339 H 0.16104 0.30858 0.09933 0.0
H340 H 0.13011 0.31457 0.14163 0.0
H341 H 0.12946 0.31139 0.16973 0.0
H342 H 0.15836 0.29602 0.20726 0.0
H343 H 0.19268 0.29487 0.16548 0.0
H344 H 0.19361 0.29848 0.13735 0.0
H345 H 0.07743 0.31168 0.20798 0.0
H346 H 0.06088 0.29021 0.20899 0.0
H347 H 0.07936 0.29532 0.19821 0.0
C348 C 0.72433 0.91843 0.05592 0.0
C349 C 0.71057 0.9151 0.06759 0.0
C350 C 0.71373 0.90901 0.09477 0.0
C351 C 0.69724 0.89771 0.09858 0.0
C352 C 0.69357 0.88578 0.11024 0.0
C353 C 0.70671 0.88499 0.11801 0.0
C354 C 0.7234 0.89686 0.11458 0.0
C355 C 0.72667 0.90897 0.1032 0.0
C356 C 0.67565 0.87364 0.11384 0.0
C357 C 0.73778 0.89625 0.1223 0.0
C358 C 0.6768 0.79602 0.06188 0.0
C359 C 0.68444 0.78814 0.07234 0.0
C360 C 0.68307 0.79908 0.09832 0.0
C361 C 0.69979 0.81115 0.10102 0.0
C362 C 0.70419 0.82465 0.11152 0.0
C363 C 0.69159 0.82612 0.11937 0.0
C364 C 0.67476 0.8136 0.11714 0.0
C365 C 0.67075 0.80006 0.1068 0.0
C366 C 0.72229 0.83754 0.11395 0.0
C367 C 0.66099 0.81483 0.12524 0.0
C368 C 0.7019 0.80577 0.22182 0.0
C369 C 0.71672 0.81676 0.21419 0.0
C370 C 0.71807 0.83032 0.20576 0.0
C371 C 0.70429 0.83285 0.20478 0.0
C372 C 0.68944 0.82193 0.21258 0.0
C373 C 0.68849 0.80857 0.22105 0.0
C374 C 0.73417 0.84186 0.19773 0.0
C375 C 0.67452 0.82427 0.21177 0.0
C376 C 0.73652 0.96432 0.2192 0.0
C377 C 0.72433 0.94684 0.22498 0.0
C378 C 0.72683 0.92225 0.21909 0.0
C379 C 0.7386 0.91803 0.21426 0.0
C380 C 0.73378 0.90275 0.20652 0.0
C381 C 0.71669 0.8913 0.20381 0.0
C382 C 0.70466 0.89515 0.20935 0.0
C383 C 0.70984 0.9106 0.21698 0.0
C384 C 0.74693 0.89895 0.20095 0.0
C385 C 0.68634 0.88302 0.20704 0.0
C386 C 0.70302 0.87058 0.12811 0.0
C387 C 0.69855 0.85546 0.12037 0.0
C388 C 0.69593 0.84149 0.12873 0.0
C389 C 0.69793 0.84256 0.14538 0.0
C390 C 0.69587 0.82888 0.15413 0.0
C391 C 0.69812 0.83015 0.1705 0.0
C392 C 0.70259 0.84517 0.17873 0.0
C393 C 0.70532 0.8467 0.19531 0.0
C394 C 0.70964 0.86176 0.20314 0.0
C395 C 0.71148 0.87551 0.19482 0.0
C396 C 0.70894 0.87427 0.1782 0.0
C397 C 0.71082 0.8879 0.16943 0.0
C398 C 0.70866 0.88666 0.15304 0.0
C399 C 0.70465 0.8718 0.1448 0.0
C400 C 0.70228 0.85778 0.15344 0.0
C401 C 0.70452 0.85905 0.17014 0.0
C402 C 0.71028 0.77688 0.21582 0.0
C403 C 0.71078 0.78623 0.23112 0.0
O404 O 0.71746 0.91974 0.08271 0.0
O405 O 0.73232 0.93762 0.22573 0.0
O406 O 0.69988 0.7923 0.22992 0.0
O407 O 0.67842 0.78641 0.08759 0.0
H408 H 0.70148 0.90145 0.06685 0.0
H409 H 0.73029 0.91103 0.05914 0.0
H410 H 0.73399 0.93185 0.05615 0.0
H411 H 0.7191 0.9147 0.0437 0.0
H412 H 0.68726 0.89811 0.09226 0.0
H413 H 0.73936 0.91792 0.10023 0.0
H414 H 0.67206 0.86131 0.10834 0.0
H415 H 0.66717 0.87782 0.10915 0.0
H416 H 0.67394 0.87196 0.12681 0.0
H417 H 0.74989 0.90533 0.11717 0.0
H418 H 0.7361 0.88355 0.12098 0.0
H419 H 0.73824 0.89911 0.13515 0.0
H420 H 0.69816 0.79633 0.07243 0.0
H421 H 0.6814 0.79728 0.04959 0.0
H422 H 0.68035 0.80866 0.06656 0.0
H423 H 0.66302 0.78826 0.06165 0.0
H424 H 0.70946 0.81006 0.09502 0.0
H425 H 0.65789 0.79053 0.10478 0.0
H426 H 0.72482 0.84937 0.10842 0.0
H427 H 0.73065 0.83351 0.10865 0.0
H428 H 0.72531 0.84017 0.12679 0.0
H429 H 0.64851 0.80418 0.12205 0.0
H430 H 0.66143 0.82661 0.12195 0.0
H431 H 0.66277 0.8152 0.13827 0.0
H432 H 0.72362 0.79673 0.23338 0.0
H433 H 0.72728 0.81487 0.21466 0.0
H434 H 0.67713 0.80008 0.227 0.0
H435 H 0.73213 0.84077 0.1847 0.0
H436 H 0.74414 0.839 0.20062 0.0
H437 H 0.73845 0.85499 0.2013 0.0
H438 H 0.66372 0.81441 0.21811 0.0
H439 H 0.67085 0.82417 0.19921 0.0
H440 H 0.67777 0.83659 0.21706 0.0
H441 H 0.71405 0.94135 0.21598 0.0
H442 H 0.73046 0.97205 0.21882 0.0
H443 H 0.74056 0.96345 0.20705 0.0
H444 H 0.74773 0.9706 0.22703 0.0
H445 H 0.75166 0.927 0.21619 0.0
H446 H 0.70062 0.91348 0.22129 0.0
H447 H 0.74571 0.89666 0.18794 0.0
H448 H 0.74513 0.88741 0.20656 0.0
H449 H 0.7597 0.90925 0.20381 0.0
H450 H 0.67852 0.88749 0.21274 0.0
H451 H 0.68319 0.87076 0.212 0.0
H452 H 0.68324 0.88102 0.19419 0.0
H453 H 0.69736 0.85462 0.10754 0.0
H454 H 0.69257 0.81707 0.1484 0.0
H455 H 0.69639 0.81921 0.17661 0.0
H456 H 0.71182 0.86287 0.21585 0.0
H457 H 0.71407 0.89971 0.17512 0.0
H458 H 0.71028 0.89754 0.14688 0.0
H459 H 0.69749 0.7664 0.21334 0.0
H460 H 0.71887 0.77186 0.21684 0.0
H461 H 0.7142 0.78539 0.20563 0.0
C462 C 0.19734 0.9097 0.05699 0.0
C463 C 0.21041 0.91623 0.07043 0.0
C464 C 0.197 0.89431 0.09019 0.0
C465 C 0.18526 0.89873 0.09511 0.0
C466 C 0.17267 0.88875 0.10559 0.0
C467 C 0.1717 0.874 0.11123 0.0
C468 C 0.18376 0.86977 0.10673 0.0
C469 C 0.19633 0.88006 0.09633 0.0
C470 C 0.16007 0.8937 0.11029 0.0
C471 C 0.18305 0.8541 0.11254 0.0
C472 C 0.07195 0.80925 0.0479 0.0
C473 C 0.07902 0.80213 0.0599 0.0
C474 C 0.08783 0.81285 0.08677 0.0
C475 C 0.09954 0.80778 0.08932 0.0
C476 C 0.11221 0.81587 0.10081 0.0
C477 C 0.11333 0.8295 0.10966 0.0
C478 C 0.10115 0.83425 0.10743 0.0
C479 C 0.0883 0.82554 0.09624 0.0
C480 C 0.1247 0.81018 0.1031 0.0
C481 C 0.10208 0.84898 0.11628 0.0
C482 C 0.08119 0.81039 0.21057 0.0
C483 C 0.09291 0.80528 0.20803 0.0
C484 C 0.10797 0.81579 0.20058 0.0
C485 C 0.11136 0.83171 0.19564 0.0
C486 C 0.09989 0.83714 0.19881 0.0
C487 C 0.08498 0.82642 0.20636 0.0
C488 C 0.12016 0.80983 0.19775 0.0
C489 C 0.10322 0.85413 0.1939 0.0
C490 C 0.22548 0.94008 0.2133 0.0
C491 C 0.21574 0.92972 0.22744 0.0
C492 C 0.19675 0.90193 0.21552 0.0
C493 C 0.19401 0.88574 0.21367 0.0
C494 C 0.18059 0.87366 0.20454 0.0
C495 C 0.16955 0.8779 0.19716 0.0
C496 C 0.17212 0.89423 0.19908 0.0
C497 C 0.18575 0.90613 0.20815 0.0
C498 C 0.17825 0.85638 0.2027 0.0
C499 C 0.16046 0.89912 0.19149 0.0
C500 C 0.15715 0.86226 0.12054 0.0
C501 C 0.14285 0.85096 0.11207 0.0
C502 C 0.12825 0.84 0.11977 0.0
C503 C 0.12791 0.84007 0.1365 0.0
C504 C 0.11358 0.82896 0.14468 0.0
C505 C 0.11315 0.82965 0.16112 0.0
C506 C 0.1271 0.84139 0.17002 0.0
C507 C 0.12665 0.84249 0.18671 0.0
C508 C 0.14069 0.85437 0.19518 0.0
C509 C 0.15531 0.86527 0.18743 0.0
C510 C 0.15606 0.8643 0.17076 0.0
C511 C 0.1706 0.875 0.16259 0.0
C512 C 0.17105 0.87427 0.14614 0.0
C513 C 0.15699 0.86279 0.13726 0.0
C514 C 0.14228 0.85167 0.14526 0.0
C515 C 0.14184 0.85239 0.16203 0.0
C516 C 0.0394 0.77732 0.21077 0.0
C517 C 0.05728 0.783 0.21598 0.0
O518 O 0.20892 0.90315 0.07941 0.0
O519 O 0.21013 0.91296 0.22443 0.0
O520 O 0.06614 0.80027 0.21702 0.0
O521 O 0.07617 0.80599 0.07504 0.0
H522 H 0.2086 0.92505 0.07806 0.0
H523 H 0.18463 0.90362 0.06186 0.0
H524 H 0.19845 0.9004 0.04943 0.0
H525 H 0.19892 0.92017 0.04954 0.0
H526 H 0.18556 0.90975 0.09067 0.0
H527 H 0.20547 0.87677 0.09259 0.0
H528 H 0.1477 0.8845 0.10523 0.0
H529 H 0.16338 0.90628 0.10607 0.0
H530 H 0.15895 0.89358 0.12337 0.0
H531 H 0.19374 0.85289 0.10846 0.0
H532 H 0.17136 0.84304 0.10821 0.0
H533 H 0.18291 0.85404 0.12568 0.0
H534 H 0.09263 0.80822 0.05777 0.0
H535 H 0.07427 0.80653 0.03563 0.0
H536 H 0.07807 0.82299 0.0496 0.0
H537 H 0.05836 0.80381 0.04945 0.0
H538 H 0.09886 0.79761 0.08224 0.0
H539 H 0.07904 0.82919 0.09425 0.0
H540 H 0.12729 0.80984 0.1159 0.0
H541 H 0.13655 0.81917 0.0975 0.0
H542 H 0.12035 0.79764 0.09768 0.0
H543 H 0.09292 0.85231 0.11166 0.0
H544 H 0.11471 0.86003 0.11548 0.0
H545 H 0.09955 0.846 0.12898 0.0
H546 H 0.06238 0.77834 0.20661 0.0
H547 H 0.09036 0.79314 0.21187 0.0
H548 H 0.07598 0.83034 0.20862 0.0
H549 H 0.1217 0.8089 0.18482 0.0
H550 H 0.11608 0.79746 0.203 0.0
H551 H 0.13251 0.819 0.20287 0.0
H552 H 0.09303 0.85649 0.19723 0.0
H553 H 0.1048 0.85527 0.18088 0.0
H554 H 0.11497 0.86392 0.19954 0.0
H555 H 0.20502 0.93162 0.22968 0.0
H556 H 0.23003 0.95352 0.21568 0.0
H557 H 0.21743 0.93621 0.20252 0.0
H558 H 0.23628 0.93836 0.21094 0.0
H559 H 0.20254 0.8826 0.21938 0.0
H560 H 0.18767 0.91861 0.20937 0.0
H561 H 0.17775 0.85309 0.18994 0.0
H562 H 0.16623 0.84717 0.20788 0.0
H563 H 0.18838 0.85529 0.20857 0.0
H564 H 0.1635 0.91196 0.19497 0.0
H565 H 0.14747 0.89027 0.19485 0.0
H566 H 0.16111 0.8984 0.17841 0.0
H567 H 0.14296 0.85098 0.09923 0.0
H568 H 0.10248 0.81971 0.13842 0.0
H569 H 0.1017 0.82092 0.16676 0.0
H570 H 0.14018 0.85526 0.20796 0.0
H571 H 0.18178 0.88413 0.16881 0.0
H572 H 0.18252 0.88289 0.14046 0.0
H573 H 0.03199 0.76348 0.20998 0.0
H574 H 0.03934 0.7823 0.19891 0.0
H575 H 0.03342 0.78192 0.21922 0.0
C576 C 0.28825 0.09429 0.957 0.0
C577 C 0.2957 0.08927 0.94331 0.0
C578 C 0.30499 0.11274 0.92514 0.0
C579 C 0.28906 0.10874 0.91966 0.0
C580 C 0.28694 0.1192 0.90923 0.0
C581 C 0.301 0.13399 0.90421 0.0
C582 C 0.31706 0.13791 0.90942 0.0
C583 C 0.31883 0.12717 0.91978 0.0
C584 C 0.26963 0.11463 0.90383 0.0
C585 C 0.33228 0.15362 0.9043 0.0
C586 C 0.27105 0.20454 0.96466 0.0
C587 C 0.28477 0.21014 0.95244 0.0
C588 C 0.28156 0.19815 0.92601 0.0
C589 C 0.2981 0.20252 0.92329 0.0
C590 C 0.30189 0.19358 0.91218 0.0
C591 C 0.28884 0.17978 0.90389 0.0
C592 C 0.27217 0.17571 0.90628 0.0
C593 C 0.26881 0.18526 0.91707 0.0
C594 C 0.31983 0.19854 0.90971 0.0
C595 C 0.25784 0.16085 0.89802 0.0
C596 C 0.27307 0.19466 0.80204 0.0
C597 C 0.29003 0.2003 0.80464 0.0
C598 C 0.29515 0.19036 0.81255 0.0
C599 C 0.28308 0.17448 0.81788 0.0
C600 C 0.26604 0.16849 0.81464 0.0
C601 C 0.26128 0.17864 0.80663 0.0
C602 C 0.31344 0.19689 0.81545 0.0
C603 C 0.25285 0.15151 0.81995 0.0
C604 C 0.29934 0.07099 0.80775 0.0
C605 C 0.29527 0.07744 0.79275 0.0
C606 C 0.3014 0.10563 0.80121 0.0
C607 C 0.31391 0.12236 0.80178 0.0
C608 C 0.31199 0.13433 0.81037 0.0
C609 C 0.29694 0.12948 0.81827 0.0
C610 C 0.28401 0.11263 0.81743 0.0
C611 C 0.28646 0.10081 0.80913 0.0
C612 C 0.32609 0.15215 0.81109 0.0
C613 C 0.26758 0.10707 0.82531 0.0
C614 C 0.2987 0.14591 0.89448 0.0
C615 C 0.29583 0.15749 0.90247 0.0
C616 C 0.2925 0.1685 0.89427 0.0
C617 C 0.29201 0.168 0.87753 0.0
C618 C 0.2887 0.17888 0.86885 0.0
C619 C 0.28748 0.17774 0.8524 0.0
C620 C 0.2898 0.16586 0.84398 0.0
C621 C 0.28816 0.16431 0.82729 0.0
C622 C 0.29068 0.15247 0.8193 0.0
C623 C 0.29478 0.142 0.82753 0.0
C624 C 0.29637 0.14328 0.84423 0.0
C625 C 0.30044 0.13292 0.8529 0.0
C626 C 0.30127 0.13378 0.86936 0.0
C627 C 0.29834 0.14524 0.87777 0.0
C628 C 0.2948 0.15621 0.86926 0.0
C629 C 0.29374 0.15518 0.85247 0.0
C630 C 0.26293 0.22667 0.80134 0.0
C631 C 0.27543 0.2215 0.79601 0.0
O632 O 0.30761 0.1033 0.93571 0.0
O633 O 0.30433 0.09473 0.79284 0.0
O634 O 0.2676 0.20425 0.79519 0.0
O635 O 0.27754 0.20586 0.93744 0.0
H636 H 0.28559 0.08111 0.93478 0.0
H637 H 0.28179 0.10076 0.95247 0.0
H638 H 0.29813 0.10283 0.96553 0.0
H639 H 0.27904 0.08304 0.96333 0.0
H640 H 0.27814 0.09765 0.92358 0.0
H641 H 0.33107 0.13016 0.92399 0.0
H642 H 0.26663 0.12408 0.90844 0.0
H643 H 0.26007 0.10217 0.90796 0.0
H644 H 0.26897 0.11469 0.89071 0.0
H645 H 0.34395 0.15464 0.909 0.0
H646 H 0.33157 0.16467 0.90848 0.0
H647 H 0.33274 0.15394 0.89117 0.0
H648 H 0.29158 0.20334 0.95496 0.0
H649 H 0.27648 0.20756 0.97684 0.0
H650 H 0.26263 0.19083 0.96359 0.0
H651 H 0.26361 0.21076 0.96276 0.0
H652 H 0.308 0.21282 0.92997 0.0
H653 H 0.2561 0.18213 0.91919 0.0
H654 H 0.32229 0.19826 0.8969 0.0
H655 H 0.32247 0.18948 0.91565 0.0
H656 H 0.32848 0.21119 0.91469 0.0
H657 H 0.24562 0.1583 0.90255 0.0
H658 H 0.25893 0.14954 0.89958 0.0
H659 H 0.25812 0.16312 0.88515 0.0
H660 H 0.28547 0.22662 0.80525 0.0
H661 H 0.29929 0.21241 0.80051 0.0
H662 H 0.24825 0.1743 0.80432 0.0
H663 H 0.31611 0.19824 0.82838 0.0
H664 H 0.32132 0.20916 0.80992 0.0
H665 H 0.3169 0.18784 0.81067 0.0
H666 H 0.24014 0.14864 0.81641 0.0
H667 H 0.25347 0.15086 0.83303 0.0
H668 H 0.25516 0.14178 0.81478 0.0
H669 H 0.28175 0.07302 0.79216 0.0
H670 H 0.2921 0.05715 0.80788 0.0
H671 H 0.29608 0.07581 0.81843 0.0
H672 H 0.31281 0.07516 0.8084 0.0
H673 H 0.32537 0.12597 0.79562 0.0
H674 H 0.27659 0.08795 0.80886 0.0
H675 H 0.32908 0.15661 0.82361 0.0
H676 H 0.32228 0.16025 0.80496 0.0
H677 H 0.33749 0.15361 0.80546 0.0
H678 H 0.25804 0.09418 0.82166 0.0
H679 H 0.26286 0.11564 0.82243 0.0
H680 H 0.26932 0.10747 0.83835 0.0
H681 H 0.29587 0.15771 0.91532 0.0
H682 H 0.28682 0.18826 0.87472 0.0
H683 H 0.28464 0.18627 0.84637 0.0
H684 H 0.28926 0.15127 0.80651 0.0
H685 H 0.30284 0.12388 0.84707 0.0
H686 H 0.3042 0.12534 0.87543 0.0
H687 H 0.25199 0.22149 0.79317 0.0
H688 H 0.26888 0.24048 0.80182 0.0
H689 H 0.25852 0.2219 0.81337 0.0
C690 C 0.80452 0.08468 0.9673 0.0
C691 C 0.79532 0.08917 0.95502 0.0
C692 C 0.80498 0.09555 0.92798 0.0
C693 C 0.80031 0.10741 0.92453 0.0
C694 C 0.80833 0.1191 0.91266 0.0
C695 C 0.82143 0.11904 0.90426 0.0
C696 C 0.8257 0.10664 0.90736 0.0
C697 C 0.81711 0.09481 0.91897 0.0
C698 C 0.80316 0.13185 0.90944 0.0
C699 C 0.83981 0.10631 0.89896 0.0
C700 C 0.92911 0.235 0.94192 0.0
C701 C 0.91979 0.22031 0.93132 0.0
C702 C 0.89291 0.2042 0.91787 0.0
C703 C 0.89534 0.19082 0.91364 0.0
C704 C 0.8831 0.17694 0.90512 0.0
C705 C 0.86809 0.17633 0.90079 0.0
C706 C 0.86553 0.18968 0.90507 0.0
C707 C 0.87804 0.20349 0.91354 0.0
C708 C 0.88618 0.16285 0.90079 0.0
C709 C 0.84959 0.1893 0.90073 0.0
C710 C 0.89158 0.19406 0.79766 0.0
C711 C 0.89514 0.18266 0.80504 0.0
C712 C 0.88305 0.16952 0.81386 0.0
C713 C 0.86713 0.1678 0.81544 0.0
C714 C 0.86344 0.17909 0.80787 0.0
C715 C 0.87572 0.19205 0.79903 0.0
C716 C 0.88736 0.15759 0.82169 0.0
C717 C 0.84659 0.17761 0.80933 0.0
C718 C 0.76585 0.03645 0.80144 0.0
C719 C 0.77229 0.05459 0.79696 0.0
C720 C 0.79947 0.0786 0.80397 0.0
C721 C 0.81538 0.08269 0.80915 0.0
C722 C 0.82603 0.09814 0.81654 0.0
C723 C 0.82065 0.10988 0.81857 0.0
C724 C 0.80481 0.1061 0.81277 0.0
C725 C 0.79437 0.0905 0.80549 0.0
C726 C 0.84294 0.10186 0.82238 0.0
C727 C 0.79888 0.11852 0.81444 0.0
C728 C 0.8319 0.13303 0.89371 0.0
C729 C 0.84368 0.14804 0.90099 0.0
C730 C 0.85496 0.16148 0.8921 0.0
C731 C 0.8545 0.16008 0.87541 0.0
C732 C 0.86576 0.17335 0.86612 0.0
C733 C 0.86564 0.17164 0.84974 0.0
C734 C 0.8543 0.15656 0.84201 0.0
C735 C 0.85455 0.15448 0.82542 0.0
C736 C 0.8432 0.13929 0.81812 0.0
C737 C 0.83155 0.12598 0.82697 0.0
C738 C 0.83104 0.12784 0.84358 0.0
C739 C 0.81946 0.11473 0.85286 0.0
C740 C 0.81945 0.1165 0.86925 0.0
C741 C 0.83117 0.13137 0.87701 0.0
C742 C 0.84264 0.14491 0.86785 0.0
C743 C 0.84257 0.14315 0.85112 0.0
C744 C 0.92967 0.2215 0.80226 0.0
C745 C 0.91963 0.21231 0.78729 0.0
O746 O 0.79819 0.08485 0.94007 0.0
O747 O 0.7895 0.06311 0.7976 0.0
O748 O 0.90297 0.2072 0.78926 0.0
O749 O 0.90455 0.21787 0.9261 0.0
H750 H 0.80044 0.1029 0.95612 0.0
H751 H 0.81805 0.09155 0.96492 0.0
H752 H 0.80007 0.07109 0.9668 0.0
H753 H 0.80262 0.08821 0.9794 0.0
H754 H 0.79051 0.1076 0.93122 0.0
H755 H 0.82043 0.08542 0.92164 0.0
H756 H 0.81271 0.14414 0.91446 0.0
H757 H 0.79104 0.12846 0.91483 0.0
H758 H 0.80228 0.13325 0.89649 0.0
H759 H 0.84271 0.09703 0.90401 0.0
H760 H 0.85118 0.1188 0.89968 0.0
H761 H 0.83649 0.1031 0.88625 0.0
H762 H 0.92725 0.21876 0.92187 0.0
H763 H 0.92942 0.22392 0.96522 0.0
H764 H 0.92348 0.24326 0.94043 0.0
H765 H 0.94077 0.24351 0.93531 0.0
H766 H 0.90672 0.19108 0.91697 0.0
H767 H 0.87624 0.21381 0.91687 0.0
H768 H 0.87664 0.15117 0.90627 0.0
H769 H 0.89866 0.16537 0.90475 0.0
H770 H 0.88506 0.16074 0.88776 0.0
H771 H 0.84954 0.20072 0.90485 0.0
H772 H 0.83893 0.17826 0.90603 0.0
H773 H 0.8477 0.18801 0.88768 0.0
H774 H 0.92108 0.20129 0.78479 0.0
H775 H 0.9073 0.18393 0.8041 0.0
H776 H 0.87305 0.20086 0.79328 0.0
H777 H 0.88696 0.1588 0.83474 0.0
H778 H 0.8999 0.15993 0.81848 0.0
H779 H 0.87805 0.14455 0.81825 0.0
H780 H 0.84573 0.18751 0.80286 0.0
H781 H 0.84393 0.17838 0.82201 0.0
H782 H 0.83686 0.16526 0.80461 0.0
H783 H 0.7673 0.05974 0.80599 0.0
H784 H 0.75206 0.0293 0.80086 0.0
H785 H 0.7699 0.03599 0.81374 0.0
H786 H 0.77077 0.0304 0.79341 0.0
H787 H 0.81929 0.07352 0.80771 0.0
H788 H 0.7823 0.0877 0.80096 0.0
H789 H 0.84415 0.10455 0.83533 0.0
H790 H 0.85271 0.11314 0.81654 0.0
H791 H 0.84521 0.09135 0.82 0.0
H792 H 0.78643 0.1139 0.8089 0.0
H793 H 0.80787 0.13042 0.80888 0.0
H794 H 0.7983 0.12126 0.82718 0.0
H795 H 0.84443 0.14912 0.91382 0.0
H796 H 0.87489 0.18518 0.87144 0.0
H797 H 0.87467 0.18226 0.84322 0.0
H798 H 0.84365 0.1377 0.80542 0.0
H799 H 0.81031 0.10291 0.84755 0.0
H800 H 0.81029 0.106 0.87582 0.0
H801 H 0.94305 0.2258 0.80059 0.0
H802 H 0.92537 0.21313 0.81254 0.0
H803 H 0.92824 0.23248 0.80504 0.0
C804 C 0.80057 0.67648 0.95869 0.0
C805 C 0.79165 0.68449 0.95042 0.0
C806 C 0.80151 0.68585 0.92364 0.0
C807 C 0.81279 0.70295 0.92232 0.0
C808 C 0.82612 0.70865 0.91187 0.0
C809 C 0.82827 0.69697 0.90272 0.0
C810 C 0.81645 0.67976 0.90353 0.0
C811 C 0.80302 0.67446 0.91381 0.0
C812 C 0.83819 0.72713 0.91098 0.0
C813 C 0.81841 0.66691 0.8941 0.0
C814 C 0.92439 0.73532 0.96916 0.0
C815 C 0.91856 0.72114 0.95687 0.0
C816 C 0.91194 0.72347 0.92956 0.0
C817 C 0.90078 0.70671 0.92572 0.0
C818 C 0.88877 0.70237 0.91365 0.0
C819 C 0.88769 0.7151 0.90558 0.0
C820 C 0.89938 0.73206 0.9091 0.0
C821 C 0.91164 0.73598 0.92082 0.0
C822 C 0.87687 0.68417 0.90997 0.0
C823 C 0.89845 0.74606 0.90113 0.0
C824 C 0.92221 0.73076 0.80409 0.0
C825 C 0.91047 0.71389 0.80638 0.0
C826 C 0.89555 0.70935 0.81417 0.0
C827 C 0.89229 0.7219 0.8197 0.0
C828 C 0.90384 0.73886 0.81692 0.0
C829 C 0.91861 0.74304 0.80902 0.0
C830 C 0.88329 0.69114 0.81659 0.0
C831 C 0.90066 0.75254 0.82248 0.0
C832 C 0.77844 0.71543 0.80272 0.0
C833 C 0.78778 0.71451 0.78823 0.0
C834 C 0.80681 0.70583 0.79944 0.0
C835 C 0.80954 0.69239 0.80094 0.0
C836 C 0.82297 0.69386 0.80993 0.0
C837 C 0.834 0.70923 0.81756 0.0
C838 C 0.83148 0.72299 0.81596 0.0
C839 C 0.81788 0.72115 0.80697 0.0
C840 C 0.82531 0.67894 0.81141 0.0
C841 C 0.84311 0.73961 0.82385 0.0
C842 C 0.84381 0.70256 0.89378 0.0
C843 C 0.858 0.70587 0.90247 0.0
C844 C 0.87311 0.71076 0.89511 0.0
C845 C 0.87408 0.71205 0.87845 0.0
C846 C 0.88884 0.71614 0.87054 0.0
C847 C 0.88977 0.7178 0.85416 0.0
C848 C 0.87597 0.71542 0.84509 0.0
C849 C 0.87685 0.71733 0.82847 0.0
C850 C 0.86297 0.71511 0.81987 0.0
C851 C 0.84807 0.7109 0.82738 0.0
C852 C 0.84685 0.70866 0.84394 0.0
C853 C 0.83196 0.70418 0.85184 0.0
C854 C 0.83091 0.70214 0.86816 0.0
C855 C 0.84471 0.70455 0.8772 0.0
C856 C 0.85989 0.70918 0.8695 0.0
C857 C 0.86089 0.71105 0.85283 0.0
C858 C 0.96384 0.73942 0.80243 0.0
C859 C 0.94586 0.72724 0.79736 0.0
O860 O 0.78925 0.67998 0.93447 0.0
O861 O 0.79335 0.70335 0.79074 0.0
O862 O 0.93705 0.73567 0.79714 0.0
O863 O 0.92279 0.7279 0.94193 0.0
H864 H 0.79943 0.69826 0.95186 0.0
H865 H 0.81302 0.68104 0.95352 0.0
H866 H 0.7933 0.66268 0.95724 0.0
H867 H 0.80231 0.67982 0.97152 0.0
H868 H 0.81126 0.71186 0.92947 0.0
H869 H 0.79408 0.66129 0.9148 0.0
H870 H 0.85001 0.73009 0.91706 0.0
H871 H 0.83332 0.73465 0.9167 0.0
H872 H 0.84104 0.73086 0.89845 0.0
H873 H 0.80851 0.65397 0.89659 0.0
H874 H 0.83067 0.66813 0.89684 0.0
H875 H 0.81803 0.66908 0.88126 0.0
H876 H 0.90479 0.71344 0.95785 0.0
H877 H 0.92096 0.73024 0.98124 0.0
H878 H 0.91836 0.74283 0.96671 0.0
H879 H 0.93808 0.74365 0.96875 0.0
H880 H 0.90136 0.69704 0.93229 0.0
H881 H 0.92047 0.74889 0.92384 0.0
H882 H 0.87477 0.68194 0.89699 0.0
H883 H 0.86472 0.68047 0.91544 0.0
H884 H 0.88148 0.67607 0.91468 0.0
H885 H 0.9072 0.75843 0.90658 0.0
H886 H 0.88566 0.74406 0.90174 0.0
H887 H 0.90154 0.7463 0.88845 0.0
H888 H 0.9409 0.71739 0.80645 0.0
H889 H 0.91285 0.70426 0.80201 0.0
H890 H 0.92763 0.756 0.80699 0.0
H891 H 0.88156 0.68867 0.82946 0.0
H892 H 0.88741 0.68284 0.81117 0.0
H893 H 0.87102 0.68793 0.81138 0.0
H894 H 0.91098 0.76514 0.81957 0.0
H895 H 0.89895 0.75191 0.8355 0.0
H896 H 0.88901 0.75075 0.81691 0.0
H897 H 0.79851 0.72709 0.78594 0.0
H898 H 0.77384 0.72426 0.80065 0.0
H899 H 0.78677 0.71992 0.81331 0.0
H900 H 0.7677 0.70294 0.80524 0.0
H901 H 0.80098 0.68064 0.79509 0.0
H902 H 0.81601 0.73173 0.806 0.0
H903 H 0.82534 0.67598 0.82409 0.0
H904 H 0.83753 0.68191 0.80656 0.0
H905 H 0.81541 0.66774 0.80504 0.0
H906 H 0.83994 0.74933 0.82084 0.0
H907 H 0.85608 0.74391 0.82027 0.0
H908 H 0.84262 0.73822 0.8369 0.0
H909 H 0.85729 0.70474 0.91525 0.0
H910 H 0.89983 0.71813 0.87694 0.0
H911 H 0.90149 0.72106 0.84872 0.0
H912 H 0.8638 0.71677 0.80716 0.0
H913 H 0.82094 0.70218 0.84549 0.0
H914 H 0.81917 0.69874 0.87363 0.0
H915 H 0.97121 0.73298 0.80258 0.0
H916 H 0.96415 0.74439 0.81455 0.0
H917 H 0.96971 0.7501 0.79428 0.0
C918 C 0.87183 0.61786 0.38351 0.0
C919 C 0.88231 0.63283 0.39453 0.0
C920 C 0.87157 0.63015 0.42086 0.0
C921 C 0.87573 0.64637 0.42544 0.0
C922 C 0.86565 0.64914 0.43587 0.0
C923 C 0.85096 0.63537 0.44153 0.0
C924 C 0.847 0.61893 0.43718 0.0
C925 C 0.8576 0.61654 0.42711 0.0
C926 C 0.87044 0.66681 0.44045 0.0
C927 C 0.83125 0.60393 0.44261 0.0
C928 C 0.75642 0.65345 0.3875 0.0
C929 C 0.76733 0.64789 0.39474 0.0
C930 C 0.78602 0.65425 0.41755 0.0
C931 C 0.7835 0.63804 0.41884 0.0
C932 C 0.79289 0.63461 0.42962 0.0
C933 C 0.80543 0.64774 0.43899 0.0
C934 C 0.80807 0.66411 0.43766 0.0
C935 C 0.79808 0.66706 0.42715 0.0
C936 C 0.78956 0.61695 0.4308 0.0
C937 C 0.82165 0.67853 0.44706 0.0
C938 C 0.76975 0.63856 0.54145 0.0
C939 C 0.766 0.62381 0.53307 0.0
C940 C 0.77825 0.62265 0.52447 0.0
C941 C 0.79453 0.63655 0.52408 0.0
C942 C 0.7983 0.65146 0.5323 0.0
C943 C 0.78585 0.65224 0.54091 0.0
C944 C 0.77383 0.60653 0.51587 0.0
C945 C 0.8155 0.66655 0.53204 0.0
C946 C 0.88104 0.59156 0.54896 0.0
C947 C 0.88037 0.60767 0.5508 0.0
C948 C 0.85608 0.61001 0.54414 0.0
C949 C 0.83965 0.59942 0.53931 0.0
C950 C 0.83107 0.6053 0.53019 0.0
C951 C 0.839 0.62239 0.52634 0.0
C952 C 0.85544 0.63336 0.53187 0.0
C953 C 0.86391 0.62699 0.54054 0.0
C954 C 0.81354 0.59318 0.52463 0.0
C955 C 0.86403 0.65178 0.52864 0.0
C956 C 0.83892 0.6382 0.45058 0.0
C957 C 0.82874 0.64244 0.44198 0.0
C958 C 0.81642 0.64443 0.44932 0.0
C959 C 0.81427 0.64238 0.46585 0.0
C960 C 0.8019 0.64411 0.47364 0.0
C961 C 0.79989 0.64205 0.48991 0.0
C962 C 0.80996 0.63785 0.49897 0.0
C963 C 0.80774 0.63531 0.51544 0.0
C964 C 0.81778 0.63088 0.52405 0.0
C965 C 0.82995 0.62867 0.51665 0.0
C966 C 0.8325 0.63131 0.5002 0.0
C967 C 0.84464 0.62922 0.49234 0.0
C968 C 0.847 0.63181 0.47616 0.0
C969 C 0.83701 0.63611 0.46712 0.0
C970 C 0.82465 0.63824 0.47478 0.0
C971 C 0.82245 0.63591 0.49135 0.0
C972 C 0.73118 0.62794 0.53843 0.0
C973 C 0.74189 0.62841 0.55251 0.0
O974 O 0.88063 0.62745 0.40999 0.0
O975 O 0.86393 0.60348 0.55245 0.0
O976 O 0.7584 0.64024 0.55016 0.0
O977 O 0.77715 0.65802 0.40721 0.0
H978 H 0.87754 0.64168 0.39324 0.0
H979 H 0.85857 0.61186 0.38684 0.0
H980 H 0.87592 0.60848 0.38437 0.0
H981 H 0.8729 0.62191 0.37105 0.0
H982 H 0.88676 0.65681 0.42067 0.0
H983 H 0.85461 0.60407 0.42348 0.0
H984 H 0.86199 0.67021 0.43433 0.0
H985 H 0.88341 0.67587 0.43718 0.0
H986 H 0.8691 0.66788 0.4534 0.0
H987 H 0.82926 0.59214 0.43699 0.0
H988 H 0.82035 0.60538 0.43982 0.0
H989 H 0.83182 0.60288 0.45563 0.0
H990 H 0.77406 0.64405 0.38635 0.0
H991 H 0.73078 0.63322 0.39345 0.0
H992 H 0.76085 0.65661 0.37495 0.0
H993 H 0.76135 0.66687 0.39139 0.0
H994 H 0.77422 0.62796 0.41151 0.0
H995 H 0.79995 0.67953 0.42609 0.0
H996 H 0.78904 0.61347 0.44339 0.0
H997 H 0.79985 0.61602 0.42523 0.0
H998 H 0.77774 0.60781 0.42475 0.0
H999 H 0.82317 0.6907 0.4435 0.0
H1000 H 0.83366 0.67884 0.4455 0.0
H1001 H 0.81873 0.67688 0.45984 0.0
H1002 H 0.74061 0.6159 0.55388 0.0
H1003 H 0.75359 0.61313 0.53316 0.0
H1004 H 0.78864 0.66358 0.54734 0.0
H1005 H 0.77554 0.6087 0.50296 0.0
H1006 H 0.76081 0.59662 0.51789 0.0
H1007 H 0.78228 0.60201 0.51981 0.0
H1008 H 0.81618 0.67752 0.53827 0.0
H1009 H 0.81942 0.66988 0.51962 0.0
H1010 H 0.82446 0.66357 0.53779 0.0
H1011 H 0.88557 0.61489 0.53982 0.0
H1012 H 0.89399 0.59439 0.547 0.0
H1013 H 0.87331 0.5842 0.53857 0.0
H1014 H 0.8762 0.58387 0.55969 0.0
H1015 H 0.83369 0.58637 0.54236 0.0
H1016 H 0.87652 0.63528 0.54472 0.0
H1017 H 0.81203 0.59467 0.51181 0.0
H1018 H 0.80477 0.59585 0.53113 0.0
H1019 H 0.81006 0.58002 0.5267 0.0
H1020 H 0.87583 0.65891 0.53554 0.0
H1021 H 0.85575 0.65683 0.53157 0.0
H1022 H 0.86687 0.6538 0.51587 0.0
H1023 H 0.83017 0.64385 0.42926 0.0
H1024 H 0.79364 0.64712 0.46723 0.0
H1025 H 0.79023 0.64365 0.49528 0.0
H1026 H 0.81582 0.62872 0.53664 0.0
H1027 H 0.85251 0.62563 0.49862 0.0
H1028 H 0.85665 0.63019 0.47077 0.0
H1029 H 0.73226 0.64034 0.53689 0.0
H1030 H 0.71794 0.6185 0.5403 0.0
H1031 H 0.73521 0.6245 0.52737 0.0
C1032 C 0.3871 0.25653 0.38554 0.0
C1033 C 0.37294 0.25073 0.39731 0.0
C1034 C 0.37613 0.24249 0.42361 0.0
C1035 C 0.35976 0.23014 0.42664 0.0
C1036 C 0.35647 0.21746 0.43736 0.0
C1037 C 0.36986 0.21699 0.44495 0.0
C1038 C 0.38639 0.22978 0.44222 0.0
C1039 C 0.38926 0.24259 0.43181 0.0
C1040 C 0.33869 0.20429 0.44022 0.0
C1041 C 0.40105 0.22958 0.4498 0.0
C1042 C 0.35474 0.09624 0.40617 0.0
C1043 C 0.36214 0.11285 0.41403 0.0
C1044 C 0.35374 0.13173 0.42568 0.0
C1045 C 0.36933 0.14269 0.43269 0.0
C1046 C 0.3717 0.15636 0.44205 0.0
C1047 C 0.35815 0.15896 0.44474 0.0
C1048 C 0.34242 0.14786 0.43785 0.0
C1049 C 0.34047 0.13445 0.4283 0.0
C1050 C 0.38875 0.16813 0.44896 0.0
C1051 C 0.32768 0.15019 0.44054 0.0
C1052 C 0.36116 0.13382 0.54667 0.0
C1053 C 0.37614 0.14489 0.5393 0.0
C1054 C 0.37782 0.15882 0.5313 0.0
C1055 C 0.3642 0.1616 0.5304 0.0
C1056 C 0.34918 0.15058 0.53788 0.0
C1057 C 0.34791 0.13688 0.546 0.0
C1058 C 0.39414 0.17049 0.52366 0.0
C1059 C 0.3344 0.15314 0.5371 0.0
C1060 C 0.39924 0.29403 0.54793 0.0
C1061 C 0.3864 0.27624 0.5524 0.0
C1062 C 0.38822 0.25131 0.54633 0.0
C1063 C 0.39972 0.2466 0.5418 0.0
C1064 C 0.39461 0.23132 0.53393 0.0
C1065 C 0.37749 0.22037 0.5308 0.0
C1066 C 0.3657 0.22466 0.5361 0.0
C1067 C 0.37118 0.24012 0.54382 0.0
C1068 C 0.40751 0.22703 0.52866 0.0
C1069 C 0.34734 0.21304 0.53335 0.0
C1070 C 0.36665 0.20238 0.45453 0.0
C1071 C 0.36335 0.1878 0.44634 0.0
C1072 C 0.36062 0.17359 0.45435 0.0
C1073 C 0.36111 0.1738 0.47108 0.0
C1074 C 0.35817 0.15964 0.47954 0.0
C1075 C 0.35937 0.16018 0.49598 0.0
C1076 C 0.36359 0.17491 0.5046 0.0
C1077 C 0.36558 0.1758 0.52127 0.0
C1078 C 0.36974 0.19063 0.52948 0.0
C1079 C 0.37205 0.20473 0.52148 0.0
C1080 C 0.3701 0.20408 0.50481 0.0
C1081 C 0.37229 0.21801 0.49637 0.0
C1082 C 0.3708 0.21738 0.47993 0.0
C1083 C 0.36739 0.20291 0.47128 0.0
C1084 C 0.36475 0.1886 0.47956 0.0
C1085 C 0.36603 0.18916 0.49634 0.0
C1086 C 0.36904 0.10453 0.54023 0.0
C1087 C 0.3697 0.11391 0.55555 0.0
O1088 O 0.37956 0.2542 0.41257 0.0
O1089 O 0.39405 0.2667 0.55302 0.0
O1090 O 0.35886 0.12006 0.55444 0.0
O1091 O 0.35103 0.11851 0.41633 0.0
H1092 H 0.36483 0.23701 0.39532 0.0
H1093 H 0.39406 0.24985 0.38761 0.0
H1094 H 0.39586 0.27015 0.38697 0.0
H1095 H 0.3821 0.25376 0.3732 0.0
H1096 H 0.3496 0.23038 0.42052 0.0
H1097 H 0.40184 0.25232 0.42944 0.0
H1098 H 0.33602 0.19251 0.43411 0.0
H1099 H 0.32976 0.20799 0.4357 0.0
H1100 H 0.33664 0.20179 0.45307 0.0
H1101 H 0.41307 0.2394 0.44511 0.0
H1102 H 0.40008 0.21725 0.44779 0.0
H1103 H 0.40109 0.23163 0.46277 0.0
H1104 H 0.37444 0.12242 0.40949 0.0
H1105 H 0.3617 0.09827 0.39476 0.0
H1106 H 0.34287 0.09396 0.40015 0.0
H1107 H 0.35548 0.07991 0.42507 0.0
H1108 H 0.37974 0.14076 0.43079 0.0
H1109 H 0.32849 0.12594 0.42288 0.0
H1110 H 0.39257 0.18119 0.44598 0.0
H1111 H 0.3983 0.16525 0.44459 0.0
H1112 H 0.38841 0.16731 0.46205 0.0
H1113 H 0.31595 0.13957 0.4357 0.0
H1114 H 0.32982 0.16177 0.43475 0.0
H1115 H 0.32625 0.15166 0.45341 0.0
H1116 H 0.38258 0.12437 0.55771 0.0
H1117 H 0.38657 0.1428 0.53962 0.0
H1118 H 0.33642 0.12832 0.55172 0.0
H1119 H 0.39243 0.16958 0.51059 0.0
H1120 H 0.40402 0.16757 0.52675 0.0
H1121 H 0.39836 0.18358 0.52734 0.0
H1122 H 0.3234 0.14311 0.54307 0.0
H1123 H 0.33103 0.15357 0.52455 0.0
H1124 H 0.33767 0.1653 0.5428 0.0
H1125 H 0.37672 0.27151 0.54281 0.0
H1126 H 0.39341 0.30197 0.54749 0.0
H1127 H 0.40422 0.29391 0.53605 0.0
H1128 H 0.40977 0.2996 0.5566 0.0
H1129 H 0.41282 0.25521 0.54404 0.0
H1130 H 0.36214 0.24339 0.54788 0.0
H1131 H 0.40656 0.22488 0.51563 0.0
H1132 H 0.40518 0.21529 0.53424 0.0
H1133 H 0.42035 0.23701 0.5318 0.0
H1134 H 0.33969 0.2177 0.53908 0.0
H1135 H 0.34369 0.20053 0.53799 0.0
H1136 H 0.34453 0.21151 0.52044 0.0
H1137 H 0.36314 0.18758 0.43349 0.0
H1138 H 0.35503 0.14801 0.47352 0.0
H1139 H 0.3571 0.14893 0.50183 0.0
H1140 H 0.3715 0.1913 0.54223 0.0
H1141 H 0.37523 0.22959 0.50238 0.0
H1142 H 0.3726 0.22847 0.47407 0.0
H1143 H 0.37764 0.0995 0.54115 0.0
H1144 H 0.37289 0.11304 0.53005 0.0
H1145 H 0.35624 0.09405 0.53783 0.0
C1146 C 0.86483 0.23654 0.38594 0.0
C1147 C 0.87772 0.24569 0.39924 0.0
C1148 C 0.86553 0.22534 0.4205 0.0
C1149 C 0.8531 0.22907 0.42463 0.0
C1150 C 0.8404 0.21889 0.43494 0.0
C1151 C 0.83996 0.20457 0.44111 0.0
C1152 C 0.85269 0.20103 0.43737 0.0
C1153 C 0.86543 0.21161 0.42725 0.0
C1154 C 0.82715 0.22319 0.43887 0.0
C1155 C 0.85252 0.18579 0.44365 0.0
C1156 C 0.74059 0.13874 0.37605 0.0
C1157 C 0.7476 0.13217 0.38866 0.0
C1158 C 0.75645 0.14356 0.41538 0.0
C1159 C 0.76802 0.13832 0.41809 0.0
C1160 C 0.78056 0.14626 0.42971 0.0
C1161 C 0.78168 0.15987 0.4386 0.0
C1162 C 0.76961 0.16474 0.43627 0.0
C1163 C 0.75691 0.15623 0.42489 0.0
C1164 C 0.79292 0.14042 0.43215 0.0
C1165 C 0.77051 0.17939 0.44524 0.0
C1166 C 0.74816 0.13816 0.53867 0.0
C1167 C 0.76009 0.13326 0.53649 0.0
C1168 C 0.77532 0.14396 0.52941 0.0
C1169 C 0.77869 0.15988 0.52451 0.0
C1170 C 0.76701 0.16512 0.52736 0.0
C1171 C 0.75192 0.15419 0.53451 0.0
C1172 C 0.78771 0.1382 0.52689 0.0
C1173 C 0.77033 0.18212 0.52253 0.0
C1174 C 0.8925 0.26803 0.54387 0.0
C1175 C 0.88252 0.25766 0.55791 0.0
C1176 C 0.86376 0.22994 0.54588 0.0
C1177 C 0.861 0.21373 0.54399 0.0
C1178 C 0.84773 0.20175 0.53463 0.0
C1179 C 0.83683 0.20609 0.52709 0.0
C1180 C 0.83939 0.22241 0.52908 0.0
C1181 C 0.85289 0.23421 0.53834 0.0
C1182 C 0.84539 0.18448 0.53273 0.0
C1183 C 0.82786 0.22739 0.52138 0.0
C1184 C 0.82532 0.19252 0.45016 0.0
C1185 C 0.81113 0.18137 0.44146 0.0
C1186 C 0.79647 0.17018 0.44891 0.0
C1187 C 0.79594 0.1698 0.46563 0.0
C1188 C 0.78153 0.15845 0.47354 0.0
C1189 C 0.78093 0.15867 0.48999 0.0
C1190 C 0.79477 0.17018 0.49915 0.0
C1191 C 0.79412 0.17083 0.51586 0.0
C1192 C 0.80807 0.18247 0.52459 0.0
C1193 C 0.82277 0.1936 0.51709 0.0
C1194 C 0.82369 0.19312 0.5004 0.0
C1195 C 0.8383 0.20412 0.49247 0.0
C1196 C 0.8389 0.20391 0.47602 0.0
C1197 C 0.82498 0.19261 0.46688 0.0
C1198 C 0.81021 0.1812 0.47463 0.0
C1199 C 0.80959 0.18143 0.49141 0.0
C1200 C 0.70652 0.10445 0.53833 0.0
C1201 C 0.72439 0.11057 0.54386 0.0
O1202 O 0.87759 0.23437 0.4099 0.0
O1203 O 0.877 0.24091 0.55499 0.0
O1204 O 0.73294 0.12785 0.54468 0.0
O1205 O 0.74494 0.13692 0.40349 0.0
H1206 H 0.87481 0.25455 0.40547 0.0
H1207 H 0.85212 0.22978 0.39082 0.0
H1208 H 0.8673 0.22737 0.37974 0.0
H1209 H 0.86518 0.24559 0.37723 0.0
H1210 H 0.85301 0.23974 0.41976 0.0
H1211 H 0.87511 0.20887 0.42411 0.0
H1212 H 0.81526 0.21396 0.433 0.0
H1213 H 0.83041 0.23583 0.4349 0.0
H1214 H 0.82509 0.22252 0.45184 0.0
H1215 H 0.86334 0.18477 0.43963 0.0
H1216 H 0.84093 0.1744 0.43967 0.0
H1217 H 0.85261 0.18617 0.45679 0.0
H1218 H 0.76118 0.13804 0.38648 0.0
H1219 H 0.74266 0.13519 0.36402 0.0
H1220 H 0.74695 0.15257 0.37697 0.0
H1221 H 0.72705 0.13368 0.37764 0.0
H1222 H 0.76735 0.12815 0.41102 0.0
H1223 H 0.74777 0.16001 0.4228 0.0
H1224 H 0.79513 0.13974 0.44498 0.0
H1225 H 0.80495 0.14953 0.42692 0.0
H1226 H 0.78867 0.12801 0.42648 0.0
H1227 H 0.76122 0.18264 0.44082 0.0
H1228 H 0.7831 0.1905 0.44431 0.0
H1229 H 0.76821 0.17641 0.45797 0.0
H1230 H 0.72981 0.10597 0.53475 0.0
H1231 H 0.75758 0.12112 0.54031 0.0
H1232 H 0.74275 0.15796 0.5365 0.0
H1233 H 0.78974 0.13762 0.51401 0.0
H1234 H 0.78353 0.12572 0.53191 0.0
H1235 H 0.79984 0.14731 0.53244 0.0
H1236 H 0.76012 0.18445 0.52587 0.0
H1237 H 0.77191 0.18331 0.50951 0.0
H1238 H 0.78207 0.19192 0.52819 0.0
H1239 H 0.87174 0.25952 0.55987 0.0
H1240 H 0.89703 0.28147 0.54624 0.0
H1241 H 0.8846 0.2642 0.53297 0.0
H1242 H 0.90332 0.2663 0.54169 0.0
H1243 H 0.86942 0.21053 0.54983 0.0
H1244 H 0.8548 0.24668 0.53954 0.0
H1245 H 0.84495 0.18125 0.51996 0.0
H1246 H 0.83334 0.17525 0.53785 0.0
H1247 H 0.85548 0.18335 0.53864 0.0
H1248 H 0.83065 0.24008 0.5252 0.0
H1249 H 0.81477 0.21833 0.52427 0.0
H1250 H 0.82898 0.22717 0.50833 0.0
H1251 H 0.81139 0.18169 0.42862 0.0
H1252 H 0.7705 0.14936 0.46708 0.0
H1253 H 0.76942 0.14975 0.49543 0.0
H1254 H 0.80739 0.18303 0.53738 0.0
H1255 H 0.8494 0.21311 0.4989 0.0
H1256 H 0.8504 0.21278 0.47053 0.0
H1257 H 0.70023 0.10894 0.54652 0.0
H1258 H 0.69937 0.0906 0.53768 0.0
H1259 H 0.70652 0.10924 0.52635 0.0
C1260 C 0.04271 0.47772 0.28674 0.0
C1261 C 0.02675 0.46402 0.27881 0.0
C1262 C 0.02114 0.47092 0.25283 0.0
C1263 C 0.00386 0.46395 0.25255 0.0
C1264 C 0.99629 0.47047 0.24278 0.0
C1265 C 0.00632 0.48443 0.23338 0.0
C1266 C 0.02379 0.49131 0.23354 0.0
C1267 C 0.03093 0.48418 0.24304 0.0
C1268 C 0.97763 0.46255 0.24265 0.0
C1269 C 0.03499 0.50645 0.22403 0.0
C1270 C 0.95814 0.53838 0.29395 0.0
C1271 C 0.97233 0.54755 0.2824 0.0
C1272 C 0.97135 0.5369 0.25584 0.0
C1273 C 0.9883 0.54359 0.25294 0.0
C1274 C 0.9937 0.53583 0.24201 0.0
C1275 C 0.98188 0.52088 0.23415 0.0
C1276 C 0.96471 0.51439 0.2368 0.0
C1277 C 0.95967 0.52277 0.24736 0.0
C1278 C 0.01207 0.5434 0.2392 0.0
C1279 C 0.95169 0.49828 0.22899 0.0
C1280 C 0.96419 0.53564 0.13387 0.0
C1281 C 0.98134 0.54222 0.13626 0.0
C1282 C 0.98743 0.53272 0.14343 0.0
C1283 C 0.97615 0.5163 0.14817 0.0
C1284 C 0.95897 0.50933 0.14493 0.0
C1285 C 0.95323 0.51908 0.13769 0.0
C1286 C 0.00588 0.54034 0.14629 0.0
C1287 C 0.94664 0.49175 0.14956 0.0
C1288 C 0.015 0.42447 0.14192 0.0
C1289 C 0.0034 0.42655 0.13042 0.0
C1290 C 0.00497 0.45369 0.13376 0.0
C1291 C 0.017 0.47035 0.13662 0.0
C1292 C 0.01286 0.48152 0.14377 0.0
C1293 C 0.99621 0.47583 0.14799 0.0
C1294 C 0.9838 0.45921 0.14432 0.0
C1295 C 0.98829 0.44832 0.13712 0.0
C1296 C 0.02635 0.49925 0.14725 0.0
C1297 C 0.96586 0.45289 0.14833 0.0
C1298 C 0.99868 0.49244 0.22409 0.0
C1299 C 0.99383 0.50245 0.2323 0.0
C1300 C 0.9875 0.51125 0.22435 0.0
C1301 C 0.98633 0.51041 0.20763 0.0
C1302 C 0.98088 0.51979 0.19917 0.0
C1303 C 0.97951 0.51864 0.18272 0.0
C1304 C 0.98361 0.50812 0.1741 0.0
C1305 C 0.98219 0.5068 0.15738 0.0
C1306 C 0.98641 0.49626 0.14918 0.0
C1307 C 0.99199 0.48688 0.15727 0.0
C1308 C 0.99347 0.48801 0.17398 0.0
C1309 C 0.99898 0.47867 0.18247 0.0
C1310 C 0.0006 0.48002 0.19888 0.0
C1311 C 0.99675 0.49073 0.20744 0.0
C1312 C 0.99078 0.49994 0.19917 0.0
C1313 C 0.9893 0.4987 0.1824 0.0
C1314 C 0.95082 0.56397 0.13965 0.0
C1315 C 0.9639 0.56169 0.13086 0.0
O1316 O 0.02861 0.46505 0.26253 0.0
O1317 O 0.00993 0.44336 0.12744 0.0
O1318 O 0.95781 0.54483 0.12792 0.0
O1319 O 0.96599 0.54363 0.26706 0.0
H1320 H 0.01642 0.46614 0.28242 0.0
H1321 H 0.04524 0.49013 0.2827 0.0
H1322 H 0.05343 0.47613 0.28363 0.0
H1323 H 0.04145 0.47742 0.29982 0.0
H1324 H 0.99634 0.45341 0.25994 0.0
H1325 H 0.04428 0.48934 0.24333 0.0
H1326 H 0.97415 0.47098 0.24887 0.0
H1327 H 0.97153 0.45034 0.24863 0.0
H1328 H 0.97276 0.4607 0.2303 0.0
H1329 H 0.04832 0.51159 0.22717 0.0
H1330 H 0.03177 0.51638 0.22593 0.0
H1331 H 0.03322 0.50303 0.21124 0.0
H1332 H 0.9813 0.54307 0.28452 0.0
H1333 H 0.96293 0.54119 0.30636 0.0
H1334 H 0.95221 0.52471 0.29179 0.0
H1335 H 0.94856 0.54209 0.29238 0.0
H1336 H 0.99728 0.5548 0.25931 0.0
H1337 H 0.94659 0.51783 0.24966 0.0
H1338 H 0.01445 0.54319 0.22636 0.0
H1339 H 0.01669 0.53594 0.2453 0.0
H1340 H 0.01926 0.55647 0.24379 0.0
H1341 H 0.93914 0.49386 0.23389 0.0
H1342 H 0.95498 0.48838 0.23051 0.0
H1343 H 0.95111 0.5001 0.21611 0.0
H1344 H 0.97499 0.56704 0.1389 0.0
H1345 H 0.98998 0.55476 0.13257 0.0
H1346 H 0.94005 0.51401 0.13548 0.0
H1347 H 0.00853 0.54145 0.15922 0.0
H1348 H 0.01311 0.55289 0.14109 0.0
H1349 H 0.01019 0.53209 0.14115 0.0
H1350 H 0.93375 0.48797 0.14575 0.0
H1351 H 0.94697 0.49068 0.16261 0.0
H1352 H 0.95011 0.48293 0.1442 0.0
H1353 H 0.99112 0.42115 0.13615 0.0
H1354 H 0.01007 0.41106 0.14436 0.0
H1355 H 0.01592 0.43107 0.15329 0.0
H1356 H 0.02765 0.42977 0.13698 0.0
H1357 H 0.02978 0.47447 0.13364 0.0
H1358 H 0.9787 0.43573 0.13407 0.0
H1359 H 0.0281 0.50139 0.16026 0.0
H1360 H 0.02264 0.50807 0.14256 0.0
H1361 H 0.0384 0.50211 0.14204 0.0
H1362 H 0.95765 0.43969 0.14452 0.0
H1363 H 0.96146 0.4607 0.14254 0.0
H1364 H 0.96474 0.45397 0.16131 0.0
H1365 H 0.99504 0.50343 0.24512 0.0
H1366 H 0.97761 0.52812 0.20518 0.0
H1367 H 0.97519 0.52612 0.17686 0.0
H1368 H 0.98528 0.4953 0.13637 0.0
H1369 H 0.00216 0.47024 0.17654 0.0
H1370 H 0.0049 0.47254 0.20478 0.0
H1371 H 0.93892 0.55831 0.13282 0.0
H1372 H 0.9553 0.57743 0.14179 0.0
H1373 H 0.94843 0.55781 0.15129 0.0
C1374 C 0.46348 0.41308 0.29578 0.0
C1375 C 0.45321 0.41757 0.28481 0.0
C1376 C 0.46319 0.4247 0.25813 0.0
C1377 C 0.45952 0.43722 0.25454 0.0
C1378 C 0.46916 0.44964 0.24375 0.0
C1379 C 0.48292 0.44964 0.23668 0.0
C1380 C 0.48629 0.43664 0.23996 0.0
C1381 C 0.47611 0.42411 0.25043 0.0
C1382 C 0.46495 0.46304 0.24029 0.0
C1383 C 0.50106 0.43636 0.23298 0.0
C1384 C 0.58137 0.56245 0.28887 0.0
C1385 C 0.57118 0.54614 0.28066 0.0
C1386 C 0.55071 0.5333 0.25914 0.0
C1387 C 0.55347 0.51986 0.25655 0.0
C1388 C 0.54336 0.5068 0.24594 0.0
C1389 C 0.53004 0.50702 0.23796 0.0
C1390 C 0.52734 0.52061 0.24039 0.0
C1391 C 0.53787 0.53369 0.25083 0.0
C1392 C 0.54674 0.4926 0.24347 0.0
C1393 C 0.5131 0.52112 0.23227 0.0
C1394 C 0.56332 0.52966 0.13631 0.0
C1395 C 0.56614 0.51786 0.14389 0.0
C1396 C 0.55332 0.50453 0.15195 0.0
C1397 C 0.53745 0.50308 0.15261 0.0
C1398 C 0.53456 0.51489 0.14495 0.0
C1399 C 0.54754 0.52798 0.13684 0.0
C1400 C 0.55675 0.49202 0.15985 0.0
C1401 C 0.51781 0.51374 0.14546 0.0
C1402 C 0.4345 0.37451 0.13267 0.0
C1403 C 0.44046 0.39233 0.12739 0.0
C1404 C 0.46782 0.41592 0.13454 0.0
C1405 C 0.48342 0.41915 0.13987 0.0
C1406 C 0.49414 0.43392 0.14828 0.0
C1407 C 0.48919 0.44589 0.15113 0.0
C1408 C 0.47373 0.44305 0.14511 0.0
C1409 C 0.46318 0.42808 0.13685 0.0
C1410 C 0.51063 0.43663 0.15435 0.0
C1411 C 0.46831 0.45577 0.14756 0.0
C1412 C 0.49478 0.4641 0.22729 0.0
C1413 C 0.50598 0.47859 0.23568 0.0
C1414 C 0.5183 0.49245 0.22797 0.0
C1415 C 0.5196 0.49193 0.21134 0.0
C1416 C 0.53208 0.50551 0.20322 0.0
C1417 C 0.53342 0.50476 0.18687 0.0
C1418 C 0.5224 0.49036 0.17803 0.0
C1419 C 0.52393 0.48932 0.16146 0.0
C1420 C 0.51277 0.47482 0.15303 0.0
C1421 C 0.50008 0.46117 0.16071 0.0
C1422 C 0.49835 0.46196 0.17728 0.0
C1423 C 0.48576 0.44844 0.1854 0.0
C1424 C 0.48438 0.4492 0.20175 0.0
C1425 C 0.49565 0.46344 0.21062 0.0
C1426 C 0.50822 0.47736 0.20264 0.0
C1427 C 0.5096 0.47659 0.18596 0.0
C1428 C 0.60146 0.55675 0.14239 0.0
C1429 C 0.59199 0.54768 0.12716 0.0
O1430 O 0.45472 0.41335 0.26934 0.0
O1431 O 0.45767 0.40101 0.12719 0.0
O1432 O 0.57532 0.54285 0.12844 0.0
O1433 O 0.56002 0.54599 0.26958 0.0
H1434 H 0.45831 0.43129 0.28615 0.0
H1435 H 0.47675 0.4201 0.29241 0.0
H1436 H 0.45912 0.39952 0.2949 0.0
H1437 H 0.46253 0.41645 0.30825 0.0
H1438 H 0.44923 0.43735 0.26034 0.0
H1439 H 0.47869 0.41425 0.25326 0.0
H1440 H 0.47417 0.47485 0.24634 0.0
H1441 H 0.45238 0.45971 0.24447 0.0
H1442 H 0.46557 0.46534 0.22738 0.0
H1443 H 0.50293 0.42641 0.23805 0.0
H1444 H 0.51253 0.44857 0.23509 0.0
H1445 H 0.49922 0.4342 0.22 0.0
H1446 H 0.56585 0.53499 0.28832 0.0
H1447 H 0.60712 0.57091 0.28045 0.0
H1448 H 0.5778 0.56001 0.30171 0.0
H1449 H 0.57505 0.57001 0.28692 0.0
H1450 H 0.56345 0.51944 0.26279 0.0
H1451 H 0.53586 0.54413 0.25284 0.0
H1452 H 0.53657 0.48112 0.24869 0.0
H1453 H 0.55869 0.49523 0.24904 0.0
H1454 H 0.547 0.49006 0.23062 0.0
H1455 H 0.51237 0.53233 0.2358 0.0
H1456 H 0.5012 0.50981 0.23515 0.0
H1457 H 0.51454 0.52109 0.21924 0.0
H1458 H 0.59332 0.53654 0.12497 0.0
H1459 H 0.57825 0.51891 0.14366 0.0
H1460 H 0.54547 0.53712 0.13096 0.0
H1461 H 0.55552 0.49272 0.17286 0.0
H1462 H 0.56939 0.49421 0.15736 0.0
H1463 H 0.54747 0.47919 0.15578 0.0
H1464 H 0.51774 0.52426 0.13937 0.0
H1465 H 0.51415 0.51367 0.15795 0.0
H1466 H 0.50831 0.50185 0.13973 0.0
H1467 H 0.43579 0.39788 0.13633 0.0
H1468 H 0.4207 0.36725 0.13284 0.0
H1469 H 0.4393 0.37477 0.14482 0.0
H1470 H 0.43903 0.36812 0.12461 0.0
H1471 H 0.48699 0.4098 0.13778 0.0
H1472 H 0.4514 0.42596 0.13216 0.0
H1473 H 0.51152 0.43863 0.16739 0.0
H1474 H 0.52087 0.44803 0.14909 0.0
H1475 H 0.51246 0.42593 0.15147 0.0
H1476 H 0.45636 0.45215 0.14137 0.0
H1477 H 0.47799 0.46807 0.14322 0.0
H1478 H 0.46687 0.4573 0.16041 0.0
H1479 H 0.5053 0.47898 0.24849 0.0
H1480 H 0.541 0.51684 0.20943 0.0
H1481 H 0.54328 0.5156 0.18126 0.0
H1482 H 0.51413 0.47406 0.14035 0.0
H1483 H 0.47685 0.43708 0.17922 0.0
H1484 H 0.47446 0.43844 0.20738 0.0
H1485 H 0.61483 0.5607 0.14137 0.0
H1486 H 0.59647 0.5484 0.15265 0.0
H1487 H 0.60026 0.56794 0.14474 0.0
C1488 C 0.45426 0.99859 0.29567 0.0
C1489 C 0.44529 0.00347 0.28341 0.0
C1490 C 0.4546 0.9972 0.25856 0.0
C1491 C 0.46771 0.01326 0.25532 0.0
C1492 C 0.48015 0.01553 0.2447 0.0
C1493 C 0.47947 0.00149 0.23715 0.0
C1494 C 0.46592 0.98536 0.23984 0.0
C1495 C 0.45355 0.98346 0.25042 0.0
C1496 C 0.49422 0.03294 0.24175 0.0
C1497 C 0.46479 0.97015 0.23188 0.0
C1498 C 0.57473 0.97908 0.27863 0.0
C1499 C 0.56152 0.9786 0.26845 0.0
C1500 C 0.55418 0.99691 0.25456 0.0
C1501 C 0.54177 0.9841 0.24501 0.0
C1502 C 0.53121 0.98709 0.23544 0.0
C1503 C 0.53306 0.0032 0.2354 0.0
C1504 C 0.54588 0.01626 0.24456 0.0
C1505 C 0.55635 0.01295 0.25398 0.0
C1506 C 0.51774 0.9729 0.22569 0.0
C1507 C 0.54821 0.03359 0.24465 0.0
C1508 C 0.57018 0.03235 0.13759 0.0
C1509 C 0.55813 0.0154 0.13861 0.0
C1510 C 0.54282 0.01051 0.14576 0.0
C1511 C 0.53953 0.02283 0.15191 0.0
C1512 C 0.55131 0.03991 0.15012 0.0
C1513 C 0.56646 0.04444 0.14283 0.0
C1514 C 0.53029 0.9922 0.14705 0.0
C1515 C 0.54807 0.05337 0.15629 0.0
C1516 C 0.41336 0.99789 0.14464 0.0
C1517 C 0.42684 0.00667 0.13232 0.0
C1518 C 0.45062 0.00243 0.1373 0.0
C1519 C 0.45379 0.98948 0.14022 0.0
C1520 C 0.46869 0.99258 0.14748 0.0
C1521 C 0.48077 0.00913 0.1518 0.0
C1522 C 0.47803 0.02242 0.14818 0.0
C1523 C 0.463 0.01896 0.14086 0.0
C1524 C 0.47134 0.97813 0.15092 0.0
C1525 C 0.49087 0.04023 0.15233 0.0
C1526 C 0.49353 0.00366 0.22734 0.0
C1527 C 0.50671 0.00336 0.23502 0.0
C1528 C 0.52069 0.00586 0.22676 0.0
C1529 C 0.52191 0.00934 0.21045 0.0
C1530 C 0.53619 0.01282 0.20196 0.0
C1531 C 0.53713 0.01596 0.18583 0.0
C1532 C 0.52362 0.01526 0.1775 0.0
C1533 C 0.52423 0.01794 0.16101 0.0
C1534 C 0.51022 0.01618 0.15296 0.0
C1535 C 0.49571 0.01229 0.16106 0.0
C1536 C 0.49521 0.01058 0.17768 0.0
C1537 C 0.48112 0.00761 0.18629 0.0
C1538 C 0.48063 0.00563 0.2026 0.0
C1539 C 0.49406 0.00615 0.21085 0.0
C1540 C 0.50839 0.00915 0.20241 0.0
C1541 C 0.5091 0.01173 0.18586 0.0
C1542 C 0.61041 0.04119 0.14336 0.0
C1543 C 0.59478 0.02972 0.13354 0.0
O1544 O 0.44282 0.99445 0.26942 0.0
O1545 O 0.43569 0.99835 0.13064 0.0
O1546 O 0.58545 0.03749 0.13156 0.0
O1547 O 0.56403 0.99418 0.26459 0.0
H1548 H 0.45314 0.01703 0.28144 0.0
H1549 H 0.46684 0.00204 0.29145 0.0
H1550 H 0.44728 0.98494 0.29764 0.0
H1551 H 0.45569 0.0053 0.30711 0.0
H1552 H 0.46835 0.02413 0.2609 0.0
H1553 H 0.44326 0.97114 0.2528 0.0
H1554 H 0.50611 0.03412 0.24598 0.0
H1555 H 0.49249 0.04266 0.24785 0.0
H1556 H 0.49531 0.03531 0.22885 0.0
H1557 H 0.45313 0.95854 0.23472 0.0
H1558 H 0.47552 0.96881 0.23569 0.0
H1559 H 0.46546 0.97164 0.21884 0.0
H1560 H 0.54855 0.96956 0.27192 0.0
H1561 H 0.56835 0.97309 0.28999 0.0
H1562 H 0.58197 0.99206 0.28406 0.0
H1563 H 0.58666 0.96851 0.26295 0.0
H1564 H 0.54011 0.97168 0.24509 0.0
H1565 H 0.56604 0.02278 0.26126 0.0
H1566 H 0.51904 0.97629 0.21302 0.0
H1567 H 0.50537 0.97058 0.2295 0.0
H1568 H 0.51813 0.96116 0.2268 0.0
H1569 H 0.55949 0.04267 0.25148 0.0
H1570 H 0.5372 0.03333 0.24996 0.0
H1571 H 0.54916 0.03795 0.23233 0.0
H1572 H 0.5879 0.0181 0.1404 0.0
H1573 H 0.56063 0.00598 0.13383 0.0
H1574 H 0.57572 0.05748 0.14167 0.0
H1575 H 0.52847 0.98879 0.15972 0.0
H1576 H 0.53425 0.98418 0.14078 0.0
H1577 H 0.51811 0.98957 0.14208 0.0
H1578 H 0.55835 0.06609 0.15366 0.0
H1579 H 0.54642 0.05231 0.1693 0.0
H1580 H 0.53638 0.0517 0.15093 0.0
H1581 H 0.43488 0.01972 0.13657 0.0
H1582 H 0.40597 0.00424 0.146 0.0
H1583 H 0.4192 0.99828 0.15628 0.0
H1584 H 0.40489 0.98462 0.14112 0.0
H1585 H 0.44431 0.97681 0.13711 0.0
H1586 H 0.46119 0.02924 0.13784 0.0
H1587 H 0.47156 0.97665 0.16392 0.0
H1588 H 0.48352 0.98064 0.14634 0.0
H1589 H 0.46141 0.96622 0.14556 0.0
H1590 H 0.48695 0.04921 0.14858 0.0
H1591 H 0.50278 0.04346 0.14658 0.0
H1592 H 0.4932 0.04161 0.16532 0.0
H1593 H 0.50597 0.0009 0.2476 0.0
H1594 H 0.54685 0.01327 0.20775 0.0
H1595 H 0.54848 0.01868 0.17994 0.0
H1596 H 0.51059 0.01775 0.14024 0.0
H1597 H 0.47032 0.00687 0.18053 0.0
H1598 H 0.4695 0.00342 0.20863 0.0
H1599 H 0.61821 0.03531 0.14487 0.0
H1600 H 0.60684 0.04343 0.15527 0.0
H1601 H 0.61785 0.05342 0.13761 0.0
C1602 C 0.54091 0.97209 0.72226 0.0
C1603 C 0.55349 0.9864 0.73294 0.0
C1604 C 0.54447 0.98497 0.75978 0.0
C1605 C 0.55083 0.00159 0.76465 0.0
C1606 C 0.54219 0.00597 0.77543 0.0
C1607 C 0.52672 0.99344 0.78116 0.0
C1608 C 0.52059 0.97654 0.77665 0.0
C1609 C 0.52976 0.97249 0.76618 0.0
C1610 C 0.54927 0.02406 0.78019 0.0
C1611 C 0.504 0.96288 0.78222 0.0
C1612 C 0.47777 0.03852 0.71772 0.0
C1613 C 0.46473 0.02733 0.72959 0.0
C1614 C 0.47523 0.02796 0.75622 0.0
C1615 C 0.46735 0.01081 0.75909 0.0
C1616 C 0.47396 0.00454 0.77025 0.0
C1617 C 0.48868 0.01569 0.77873 0.0
C1618 C 0.4961 0.03307 0.77647 0.0
C1619 C 0.48912 0.03899 0.76534 0.0
C1620 C 0.46548 0.98599 0.77272 0.0
C1621 C 0.51173 0.04531 0.7854 0.0
C1622 C 0.45531 0.01673 0.87577 0.0
C1623 C 0.45013 0.99981 0.87301 0.0
C1624 C 0.46112 0.99502 0.86678 0.0
C1625 C 0.47769 0.00736 0.86367 0.0
C1626 C 0.48322 0.02427 0.86749 0.0
C1627 C 0.47191 0.02872 0.87346 0.0
C1628 C 0.45492 0.97682 0.86321 0.0
C1629 C 0.50093 0.03771 0.86477 0.0
C1630 C 0.54824 0.94614 0.88227 0.0
C1631 C 0.55263 0.96328 0.88914 0.0
C1632 C 0.53102 0.97025 0.88424 0.0
C1633 C 0.51426 0.96083 0.87992 0.0
C1634 C 0.50659 0.96772 0.87084 0.0
C1635 C 0.51583 0.98465 0.8665 0.0
C1636 C 0.53266 0.99446 0.87148 0.0
C1637 C 0.54015 0.98707 0.88018 0.0
C1638 C 0.48863 0.95685 0.86582 0.0
C1639 C 0.54273 0.0127 0.8676 0.0
C1640 C 0.51608 0.99826 0.79018 0.0
C1641 C 0.50753 0.00443 0.78153 0.0
C1642 C 0.49706 0.0091 0.7889 0.0
C1643 C 0.49487 0.00748 0.80543 0.0
C1644 C 0.48416 0.01174 0.81317 0.0
C1645 C 0.48212 0.01016 0.82946 0.0
C1646 C 0.49077 0.00432 0.83865 0.0
C1647 C 0.48884 0.00277 0.85524 0.0
C1648 C 0.4974 0.99667 0.86399 0.0
C1649 C 0.50788 0.99195 0.85661 0.0
C1650 C 0.51011 0.99357 0.84003 0.0
C1651 C 0.52058 0.989 0.83218 0.0
C1652 C 0.52274 0.99072 0.81589 0.0
C1653 C 0.51424 0.99674 0.80677 0.0
C1654 C 0.50356 0.00135 0.81441 0.0
C1655 C 0.50152 0.9998 0.83105 0.0
C1656 C 0.42236 0.02495 0.87125 0.0
C1657 C 0.42767 0.01378 0.87958 0.0
O1658 O 0.55201 0.98091 0.74834 0.0
O1659 O 0.53793 0.96292 0.89275 0.0
O1660 O 0.44488 0.02212 0.88068 0.0
O1661 O 0.46978 0.0342 0.74469 0.0
H1662 H 0.55057 0.99669 0.73226 0.0
H1663 H 0.52812 0.9679 0.72637 0.0
H1664 H 0.54307 0.96134 0.72257 0.0
H1665 H 0.54185 0.97627 0.70986 0.0
H1666 H 0.56239 0.01112 0.75975 0.0
H1667 H 0.52505 0.95968 0.76231 0.0
H1668 H 0.54219 0.0291 0.77404 0.0
H1669 H 0.56256 0.03173 0.77705 0.0
H1670 H 0.54806 0.02532 0.79314 0.0
H1671 H 0.50061 0.95052 0.7769 0.0
H1672 H 0.49413 0.96583 0.77916 0.0
H1673 H 0.50432 0.96203 0.79529 0.0
H1674 H 0.46392 0.01495 0.72857 0.0
H1675 H 0.47381 0.03337 0.70549 0.0
H1676 H 0.48978 0.03914 0.72045 0.0
H1677 H 0.47977 0.05139 0.71829 0.0
H1678 H 0.45612 0.00231 0.75254 0.0
H1679 H 0.4949 0.05224 0.76322 0.0
H1680 H 0.47353 0.98116 0.76834 0.0
H1681 H 0.45327 0.97915 0.76642 0.0
H1682 H 0.46358 0.98332 0.78555 0.0
H1683 H 0.51589 0.05844 0.78238 0.0
H1684 H 0.52185 0.04265 0.78268 0.0
H1685 H 0.50959 0.04385 0.79833 0.0
H1686 H 0.42275 0.00222 0.87216 0.0
H1687 H 0.43758 0.99027 0.87563 0.0
H1688 H 0.4759 0.0417 0.87597 0.0
H1689 H 0.4572 0.97507 0.85063 0.0
H1690 H 0.44145 0.96885 0.86551 0.0
H1691 H 0.4619 0.97255 0.87065 0.0
H1692 H 0.50381 0.04985 0.87025 0.0
H1693 H 0.50308 0.0394 0.85185 0.0
H1694 H 0.50968 0.03397 0.86967 0.0
H1695 H 0.55957 0.97272 0.87999 0.0
H1696 H 0.5595 0.94608 0.87811 0.0
H1697 H 0.53962 0.94297 0.87195 0.0
H1698 H 0.54206 0.93638 0.89129 0.0
H1699 H 0.5073 0.94791 0.88337 0.0
H1700 H 0.55301 0.99446 0.88402 0.0
H1701 H 0.48706 0.95799 0.85294 0.0
H1702 H 0.48096 0.96107 0.87219 0.0
H1703 H 0.48384 0.9435 0.86845 0.0
H1704 H 0.55493 0.01903 0.87394 0.0
H1705 H 0.53576 0.01915 0.87074 0.0
H1706 H 0.54496 0.014 0.85468 0.0
H1707 H 0.50904 0.0056 0.7688 0.0
H1708 H 0.47721 0.01633 0.80671 0.0
H1709 H 0.47365 0.01359 0.83473 0.0
H1710 H 0.49574 0.9954 0.87669 0.0
H1711 H 0.5273 0.9841 0.83855 0.0
H1712 H 0.53108 0.98717 0.81051 0.0
H1713 H 0.4086 0.01858 0.87013 0.0
H1714 H 0.4276 0.02774 0.85917 0.0
H1715 H 0.42692 0.03692 0.87793 0.0
C1716 C 0.0146 0.55982 0.72139 0.0
C1717 C 0.00264 0.56058 0.73326 0.0
C1718 C 0.00704 0.55337 0.75961 0.0
C1719 C 0.99079 0.54189 0.76401 0.0
C1720 C 0.9878 0.5296 0.7751 0.0
C1721 C 0.00136 0.5288 0.78181 0.0
C1722 C 0.01781 0.54084 0.77786 0.0
C1723 C 0.02043 0.55318 0.76696 0.0
C1724 C 0.97014 0.51722 0.77933 0.0
C1725 C 0.03258 0.54031 0.78467 0.0
C1726 C 0.98665 0.41974 0.72929 0.0
C1727 C 0.9862 0.43375 0.73743 0.0
C1728 C 0.9861 0.4445 0.76337 0.0
C1729 C 0.00205 0.45737 0.76753 0.0
C1730 C 0.00429 0.4707 0.77732 0.0
C1731 C 0.99022 0.47112 0.78299 0.0
C1732 C 0.97407 0.45792 0.77907 0.0
C1733 C 0.97221 0.44463 0.76937 0.0
C1734 C 0.02169 0.48446 0.78142 0.0
C1735 C 0.95884 0.45804 0.7849 0.0
C1736 C 0.99681 0.44906 0.88429 0.0
C1737 C 0.01187 0.46074 0.87749 0.0
C1738 C 0.01324 0.47459 0.86961 0.0
C1739 C 0.99928 0.47679 0.86845 0.0
C1740 C 0.98425 0.46534 0.87568 0.0
C1741 C 0.98328 0.45171 0.88366 0.0
C1742 C 0.0296 0.48683 0.86239 0.0
C1743 C 0.96914 0.46735 0.87466 0.0
C1744 C 0.03656 0.60925 0.87572 0.0
C1745 C 0.02486 0.59367 0.8849 0.0
C1746 C 0.02546 0.5678 0.88069 0.0
C1747 C 0.0364 0.56262 0.87551 0.0
C1748 C 0.03049 0.54675 0.86859 0.0
C1749 C 0.01315 0.53571 0.86711 0.0
C1750 C 0.002 0.54052 0.87318 0.0
C1751 C 0.00827 0.55653 0.87997 0.0
C1752 C 0.04275 0.54192 0.86251 0.0
C1753 C 0.98347 0.52886 0.87216 0.0
C1754 C 0.9983 0.5145 0.79176 0.0
C1755 C 0.99465 0.49964 0.78395 0.0
C1756 C 0.99252 0.48583 0.79232 0.0
C1757 C 0.9938 0.4867 0.80902 0.0
C1758 C 0.99169 0.47303 0.8178 0.0
C1759 C 0.99348 0.47417 0.83421 0.0
C1760 C 0.99766 0.48912 0.84244 0.0
C1761 C 0.00023 0.49063 0.85904 0.0
C1762 C 0.00475 0.50577 0.86683 0.0
C1763 C 0.0068 0.51956 0.85843 0.0
C1764 C 0.004 0.5182 0.84186 0.0
C1765 C 0.00575 0.53177 0.83307 0.0
C1766 C 0.00355 0.53049 0.81669 0.0
C1767 C -0.00024 0.51569 0.80846 0.0
C1768 C 0.99757 0.50174 0.8171 0.0
C1769 C 0.99959 0.50297 0.83383 0.0
C1770 C 0.99386 0.41429 0.8744 0.0
C1771 C 0.00271 0.4263 0.8884 0.0
O1772 O 0.0101 0.56461 0.74817 0.0
O1773 O 0.03196 0.58368 0.88634 0.0
O1774 O 0.99486 0.43533 0.89182 0.0
O1775 O 0.98402 0.43186 0.75362 0.0
H1776 H 0.99125 0.54802 0.73312 0.0
H1777 H 0.0175 0.55001 0.72485 0.0
H1778 H 0.02641 0.57195 0.72111 0.0
H1779 H 0.00886 0.55667 0.70933 0.0
H1780 H 0.98046 0.54248 0.75869 0.0
H1781 H 0.03293 0.5623 0.7636 0.0
H1782 H 0.96674 0.50477 0.77428 0.0
H1783 H 0.96117 0.52082 0.77473 0.0
H1784 H 0.96898 0.51607 0.79239 0.0
H1785 H 0.0445 0.55006 0.77973 0.0
H1786 H 0.03129 0.5279 0.78224 0.0
H1787 H 0.0331 0.54215 0.79772 0.0
H1788 H 0.97852 0.43838 0.7316 0.0
H1789 H 0.01278 0.43122 0.72074 0.0
H1790 H 0.97546 0.41409 0.72105 0.0
H1791 H 0.98127 0.40887 0.73759 0.0
H1792 H 0.01275 0.45702 0.76306 0.0
H1793 H 0.95993 0.43449 0.76615 0.0
H1794 H 0.02321 0.4865 0.79446 0.0
H1795 H 0.02385 0.49626 0.77612 0.0
H1796 H 0.03129 0.48166 0.77705 0.0
H1797 H 0.94715 0.44679 0.78086 0.0
H1798 H 0.95882 0.4693 0.78061 0.0
H1799 H 0.95913 0.45869 0.79804 0.0
H1800 H 0.01583 0.43466 0.88516 0.0
H1801 H 0.02271 0.45938 0.87842 0.0
H1802 H 0.97178 0.44277 0.88913 0.0
H1803 H 0.02804 0.48681 0.84935 0.0
H1804 H 0.03954 0.48386 0.86502 0.0
H1805 H 0.03364 0.49963 0.86692 0.0
H1806 H 0.9584 0.45744 0.88103 0.0
H1807 H 0.96549 0.46699 0.86206 0.0
H1808 H 0.97214 0.47968 0.87974 0.0
H1809 H 0.0131 0.58726 0.87778 0.0
H1810 H 0.03124 0.6176 0.87467 0.0
H1811 H 0.03824 0.60556 0.8636 0.0
H1812 H 0.04895 0.61621 0.88166 0.0
H1813 H 0.04965 0.57129 0.87643 0.0
H1814 H -0.00026 0.56018 0.88468 0.0
H1815 H 0.04073 0.53916 0.84959 0.0
H1816 H 0.04072 0.53041 0.86836 0.0
H1817 H 0.05584 0.55189 0.86467 0.0
H1818 H 0.97646 0.53408 0.87821 0.0
H1819 H 0.98027 0.51677 0.87754 0.0
H1820 H 0.97942 0.5263 0.85953 0.0
H1821 H 0.99388 0.49893 0.77111 0.0
H1822 H 0.98868 0.46129 0.81208 0.0
H1823 H 0.99173 0.46324 0.84033 0.0
H1824 H 0.00712 0.50696 0.87951 0.0
H1825 H 0.00891 0.54357 0.83874 0.0
H1826 H 0.00508 0.54133 0.81054 0.0
H1827 H -0.00013 0.40678 0.87175 0.0
H1828 H 0.99459 0.42146 0.86371 0.0
H1829 H 0.98055 0.40576 0.87703 0.0
C1830 C 0.53212 0.57284 0.72409 0.0
C1831 C 0.54445 0.57845 0.73811 0.0
C1832 C 0.53012 0.55561 0.75687 0.0
C1833 C 0.51801 0.55969 0.76137 0.0
C1834 C 0.50542 0.54968 0.77185 0.0
C1835 C 0.50484 0.53527 0.77797 0.0
C1836 C 0.51707 0.53121 0.77364 0.0
C1837 C 0.52959 0.54149 0.76318 0.0
C1838 C 0.49256 0.55438 0.77625 0.0
C1839 C 0.5168 0.51594 0.77999 0.0
C1840 C 0.38269 0.45198 0.75059 0.0
C1841 C 0.39685 0.44865 0.74662 0.0
C1842 C 0.41905 0.46193 0.76687 0.0
C1843 C 0.42875 0.45848 0.77708 0.0
C1844 C 0.44318 0.47133 0.78436 0.0
C1845 C 0.44752 0.48813 0.78197 0.0
C1846 C 0.43764 0.49174 0.77173 0.0
C1847 C 0.42366 0.4786 0.76406 0.0
C1848 C 0.4537 0.46685 0.7946 0.0
C1849 C 0.44173 0.50945 0.76896 0.0
C1850 C 0.42143 0.48649 0.88535 0.0
C1851 C 0.42971 0.47838 0.87964 0.0
C1852 C 0.44405 0.48696 0.87052 0.0
C1853 C 0.44985 0.50382 0.86669 0.0
C1854 C 0.44156 0.51203 0.87266 0.0
C1855 C 0.42763 0.5033 0.88219 0.0
C1856 C 0.45296 0.47799 0.86504 0.0
C1857 C 0.44732 0.52997 0.86889 0.0
C1858 C 0.56959 0.60717 0.87546 0.0
C1859 C 0.55947 0.59811 0.88994 0.0
C1860 C 0.53836 0.57024 0.87975 0.0
C1861 C 0.53403 0.55347 0.87899 0.0
C1862 C 0.51962 0.54156 0.87089 0.0
C1863 C 0.50917 0.54657 0.86351 0.0
C1864 C 0.51337 0.56351 0.86431 0.0
C1865 C 0.52801 0.57522 0.87227 0.0
C1866 C 0.51558 0.52363 0.87017 0.0
C1867 C 0.50237 0.56922 0.85673 0.0
C1868 C 0.49105 0.52424 0.78845 0.0
C1869 C 0.47648 0.51157 0.78132 0.0
C1870 C 0.46234 0.50184 0.79022 0.0
C1871 C 0.46262 0.50498 0.80668 0.0
C1872 C 0.44828 0.49635 0.81582 0.0
C1873 C 0.44883 0.49912 0.83209 0.0
C1874 C 0.46377 0.51049 0.8399 0.0
C1875 C 0.4646 0.51297 0.85653 0.0
C1876 C 0.47961 0.52464 0.86382 0.0
C1877 C 0.49385 0.5341 0.85496 0.0
C1878 C 0.49329 0.53173 0.83835 0.0
C1879 C 0.5074 0.54104 0.82909 0.0
C1880 C 0.50667 0.53873 0.81272 0.0
C1881 C 0.49191 0.52678 0.80505 0.0
C1882 C 0.4776 0.51716 0.81418 0.0
C1883 C 0.47823 0.51977 0.83083 0.0
C1884 C 0.3788 0.46477 0.8887 0.0
C1885 C 0.39414 0.46289 0.89077 0.0
O1886 O 0.54235 0.56475 0.74645 0.0
O1887 O 0.55256 0.58103 0.88779 0.0
O1888 O 0.40765 0.4785 0.89425 0.0
O1889 O 0.40524 0.44881 0.7603 0.0
H1890 H 0.54237 0.58688 0.74605 0.0
H1891 H 0.51914 0.56637 0.72831 0.0
H1892 H 0.5337 0.56412 0.7161 0.0
H1893 H 0.53405 0.58381 0.71725 0.0
H1894 H 0.51813 0.57055 0.75672 0.0
H1895 H 0.53895 0.53842 0.75971 0.0
H1896 H 0.48004 0.54427 0.77241 0.0
H1897 H 0.49492 0.56619 0.77077 0.0
H1898 H 0.49242 0.55581 0.78931 0.0
H1899 H 0.52739 0.51466 0.77573 0.0
H1900 H 0.50501 0.50462 0.77631 0.0
H1901 H 0.51722 0.51655 0.79313 0.0
H1902 H 0.40551 0.45846 0.73848 0.0
H1903 H 0.37563 0.45124 0.73964 0.0
H1904 H 0.38766 0.46461 0.75596 0.0
H1905 H 0.37404 0.44279 0.75913 0.0
H1906 H 0.42511 0.44557 0.77913 0.0
H1907 H 0.41627 0.48147 0.75618 0.0
H1908 H 0.45128 0.46804 0.80725 0.0
H1909 H 0.46712 0.47539 0.79256 0.0
H1910 H 0.45082 0.45382 0.79231 0.0
H1911 H 0.43137 0.51002 0.76293 0.0
H1912 H 0.45286 0.51571 0.76144 0.0
H1913 H 0.44467 0.51657 0.78036 0.0
H1914 H 0.39592 0.45782 0.87938 0.0
H1915 H 0.42513 0.46546 0.88254 0.0
H1916 H 0.42121 0.50945 0.88687 0.0
H1917 H 0.45066 0.47515 0.85216 0.0
H1918 H 0.44866 0.46607 0.87127 0.0
H1919 H 0.46658 0.48599 0.86698 0.0
H1920 H 0.43825 0.53378 0.87263 0.0
H1921 H 0.44938 0.53199 0.85599 0.0
H1922 H 0.45933 0.5382 0.87511 0.0
H1923 H 0.54951 0.60125 0.89176 0.0
H1924 H 0.57518 0.62087 0.87713 0.0
H1925 H 0.56147 0.60327 0.86471 0.0
H1926 H 0.57967 0.60423 0.87351 0.0
H1927 H 0.54209 0.54975 0.88475 0.0
H1928 H 0.5312 0.58815 0.87253 0.0
H1929 H 0.51374 0.51914 0.85766 0.0
H1930 H 0.50378 0.51572 0.8764 0.0
H1931 H 0.52551 0.52193 0.87568 0.0
H1932 H 0.50661 0.58252 0.85954 0.0
H1933 H 0.48939 0.56147 0.86076 0.0
H1934 H 0.50227 0.56761 0.84368 0.0
H1935 H 0.47609 0.50937 0.76863 0.0
H1936 H 0.43646 0.48736 0.81047 0.0
H1937 H 0.43739 0.49211 0.83848 0.0
H1938 H 0.48018 0.52652 0.87657 0.0
H1939 H 0.51916 0.55026 0.83437 0.0
H1940 H 0.51788 0.5463 0.80618 0.0
H1941 H 0.37611 0.46934 0.89991 0.0
H1942 H 0.36777 0.45269 0.8851 0.0
H1943 H 0.38102 0.4739 0.8793 0.0
C1944 C 0.62172 0.75736 0.62001 0.0
C1945 C 0.62927 0.75248 0.60629 0.0
C1946 C 0.63839 0.7763 0.58856 0.0
C1947 C 0.62242 0.77237 0.58329 0.0
C1948 C 0.6202 0.78312 0.57335 0.0
C1949 C 0.6342 0.79806 0.5685 0.0
C1950 C 0.6503 0.80188 0.57346 0.0
C1951 C 0.65217 0.7909 0.58341 0.0
C1952 C 0.60285 0.77867 0.56822 0.0
C1953 C 0.66548 0.81769 0.56843 0.0
C1954 C 0.60849 0.86977 0.62841 0.0
C1955 C 0.62245 0.87785 0.61644 0.0
C1956 C 0.61847 0.86544 0.59018 0.0
C1957 C 0.63465 0.86915 0.58668 0.0
C1958 C 0.63742 0.85917 0.57588 0.0
C1959 C 0.62367 0.84505 0.56869 0.0
C1960 C 0.60732 0.84158 0.57193 0.0
C1961 C 0.60498 0.8521 0.5824 0.0
C1962 C 0.65501 0.86347 0.57249 0.0
C1963 C 0.59231 0.82644 0.56482 0.0
C1964 C 0.60293 0.85722 0.46722 0.0
C1965 C 0.61974 0.86437 0.47163 0.0
C1966 C 0.62559 0.85486 0.47922 0.0
C1967 C 0.61427 0.83805 0.48287 0.0
C1968 C 0.59739 0.83075 0.47805 0.0
C1969 C 0.59204 0.84039 0.47001 0.0
C1970 C 0.64381 0.86283 0.48348 0.0
C1971 C 0.58494 0.81284 0.48154 0.0
C1972 C 0.61836 0.72883 0.47018 0.0
C1973 C 0.61968 0.7386 0.45525 0.0
C1974 C 0.62922 0.76705 0.46578 0.0
C1975 C 0.643 0.78307 0.4674 0.0
C1976 C 0.64208 0.79573 0.47585 0.0
C1977 C 0.62692 0.79224 0.48279 0.0
C1978 C 0.61283 0.77611 0.48105 0.0
C1979 C 0.61412 0.76365 0.4726 0.0
C1980 C 0.65735 0.81277 0.47753 0.0
C1981 C 0.59644 0.772 0.48826 0.0
C1982 C 0.63185 0.81005 0.55894 0.0
C1983 C 0.62968 0.82204 0.56706 0.0
C1984 C 0.62635 0.83313 0.55899 0.0
C1985 C 0.62513 0.83229 0.54227 0.0
C1986 C 0.62157 0.84308 0.53375 0.0
C1987 C 0.61971 0.84168 0.51735 0.0
C1988 C 0.62184 0.82976 0.50876 0.0
C1989 C 0.61984 0.82814 0.49209 0.0
C1990 C 0.62199 0.8161 0.48398 0.0
C1991 C 0.62583 0.80538 0.49208 0.0
C1992 C 0.62785 0.80678 0.50874 0.0
C1993 C 0.63165 0.79615 0.51726 0.0
C1994 C 0.63308 0.79726 0.53369 0.0
C1995 C 0.63086 0.80911 0.54223 0.0
C1996 C 0.62737 0.82021 0.53387 0.0
C1997 C 0.62582 0.81901 0.5171 0.0
C1998 C 0.58625 0.88432 0.46448 0.0
C1999 C 0.60178 0.88267 0.46337 0.0
O2000 O 0.6411 0.76658 0.59872 0.0
O2001 O 0.63119 0.75537 0.45767 0.0
O2002 O 0.59681 0.86611 0.46014 0.0
O2003 O 0.61558 0.87434 0.60128 0.0
H2004 H 0.61924 0.74426 0.59772 0.0
H2005 H 0.61518 0.76377 0.61556 0.0
H2006 H 0.63156 0.76589 0.62857 0.0
H2007 H 0.61256 0.74605 0.6263 0.0
H2008 H 0.61156 0.76108 0.58699 0.0
H2009 H 0.66444 0.79382 0.58744 0.0
H2010 H 0.60011 0.78837 0.57263 0.0
H2011 H 0.59325 0.76639 0.57267 0.0
H2012 H 0.60193 0.77836 0.55509 0.0
H2013 H 0.67719 0.81854 0.57278 0.0
H2014 H 0.66489 0.82866 0.57306 0.0
H2015 H 0.66574 0.81832 0.55532 0.0
H2016 H 0.63054 0.87227 0.61817 0.0
H2017 H 0.6137 0.87228 0.64067 0.0
H2018 H 0.60141 0.85606 0.6263 0.0
H2019 H 0.59979 0.87465 0.62724 0.0
H2020 H 0.64508 0.87978 0.59249 0.0
H2021 H 0.59254 0.84948 0.58514 0.0
H2022 H 0.65666 0.8627 0.55956 0.0
H2023 H 0.65763 0.85433 0.57828 0.0
H2024 H 0.66424 0.87616 0.57697 0.0
H2025 H 0.58051 0.82458 0.56985 0.0
H2026 H 0.59317 0.81508 0.56686 0.0
H2027 H 0.59187 0.82786 0.55184 0.0
H2028 H 0.6083 0.88663 0.47511 0.0
H2029 H 0.62829 0.8773 0.46901 0.0
H2030 H 0.57914 0.83497 0.46631 0.0
H2031 H 0.64554 0.86504 0.49647 0.0
H2032 H 0.65133 0.87496 0.47758 0.0
H2033 H 0.6486 0.8544 0.48011 0.0
H2034 H 0.57198 0.80973 0.4788 0.0
H2035 H 0.58582 0.81023 0.49419 0.0
H2036 H 0.58773 0.80448 0.4743 0.0
H2037 H 0.60732 0.73706 0.45222 0.0
H2038 H 0.60927 0.71537 0.4682 0.0
H2039 H 0.61408 0.73339 0.48029 0.0
H2040 H 0.63064 0.73028 0.47341 0.0
H2041 H 0.65459 0.78559 0.4621 0.0
H2042 H 0.60329 0.75135 0.47149 0.0
H2043 H 0.6604 0.81614 0.49026 0.0
H2044 H 0.65483 0.82221 0.47225 0.0
H2045 H 0.6683 0.8134 0.47167 0.0
H2046 H 0.58642 0.75913 0.48516 0.0
H2047 H 0.5926 0.78093 0.48418 0.0
H2048 H 0.59785 0.7733 0.50134 0.0
H2049 H 0.6303 0.82254 0.5799 0.0
H2050 H 0.61994 0.85258 0.53971 0.0
H2051 H 0.6166 0.85009 0.51149 0.0
H2052 H 0.62025 0.81479 0.47122 0.0
H2053 H 0.63345 0.78675 0.51132 0.0
H2054 H 0.6359 0.78867 0.53964 0.0
H2055 H 0.57928 0.88074 0.453 0.0
H2056 H 0.58965 0.89733 0.4677 0.0
H2057 H 0.57799 0.87599 0.47377 0.0
C2058 C 0.13041 0.75035 0.63941 0.0
C2059 C 0.12184 0.75508 0.62667 0.0
C2060 C 0.13301 0.76179 0.60013 0.0
C2061 C 0.12889 0.77397 0.59628 0.0
C2062 C 0.13766 0.78571 0.58464 0.0
C2063 C 0.15094 0.78536 0.5769 0.0
C2064 C 0.15472 0.77271 0.58044 0.0
C2065 C 0.14542 0.76085 0.5918 0.0
C2066 C 0.13299 0.79873 0.58091 0.0
C2067 C 0.16898 0.77206 0.57271 0.0
C2068 C 0.25787 0.90576 0.61121 0.0
C2069 C 0.24898 0.89024 0.60153 0.0
C2070 C 0.22188 0.87208 0.58902 0.0
C2071 C 0.22493 0.85892 0.58577 0.0
C2072 C 0.21298 0.84433 0.57786 0.0
C2073 C 0.19766 0.84283 0.57314 0.0
C2074 C 0.19446 0.85594 0.57654 0.0
C2075 C 0.20665 0.87042 0.58443 0.0
C2076 C 0.21674 0.83052 0.57447 0.0
C2077 C 0.17819 0.85465 0.57174 0.0
C2078 C 0.22289 0.85943 0.47097 0.0
C2079 C 0.22638 0.84809 0.47858 0.0
C2080 C 0.21406 0.83476 0.48703 0.0
C2081 C 0.19802 0.83284 0.48807 0.0
C2082 C 0.19438 0.84402 0.48018 0.0
C2083 C 0.20688 0.85713 0.47166 0.0
C2084 C 0.21827 0.82288 0.49512 0.0
C2085 C 0.1774 0.84232 0.48104 0.0
C2086 C 0.09405 0.70303 0.47283 0.0
C2087 C 0.10144 0.72134 0.46844 0.0
C2088 C 0.1289 0.74446 0.47631 0.0
C2089 C 0.14446 0.74782 0.48191 0.0
C2090 C 0.15542 0.76308 0.48946 0.0
C2091 C 0.15071 0.77535 0.49127 0.0
C2092 C 0.13523 0.7723 0.48509 0.0
C2093 C 0.12448 0.75689 0.47762 0.0
C2094 C 0.17196 0.76604 0.49566 0.0
C2095 C 0.13004 0.78529 0.4865 0.0
C2096 C 0.16187 0.79913 0.56632 0.0
C2097 C 0.17363 0.81422 0.57353 0.0
C2098 C 0.18503 0.82753 0.56457 0.0
C2099 C 0.18483 0.82585 0.54791 0.0
C2100 C 0.19625 0.83896 0.53858 0.0
C2101 C 0.1963 0.83704 0.52224 0.0
C2102 C 0.18497 0.8219 0.5146 0.0
C2103 C 0.18532 0.81964 0.49805 0.0
C2104 C 0.17386 0.80447 0.4908 0.0
C2105 C 0.16199 0.79134 0.49967 0.0
C2106 C 0.16145 0.79334 0.51626 0.0
C2107 C 0.14968 0.7804 0.52557 0.0
C2108 C 0.14958 0.78235 0.54194 0.0
C2109 C 0.16135 0.79724 0.54964 0.0
C2110 C 0.17302 0.81061 0.54044 0.0
C2111 C 0.17308 0.80864 0.52374 0.0
C2112 C 0.26028 0.88764 0.47748 0.0
C2113 C 0.25138 0.8785 0.46206 0.0
O2114 O 0.12535 0.75091 0.61193 0.0
O2115 O 0.1186 0.72916 0.46973 0.0
O2116 O 0.23449 0.8728 0.46299 0.0
O2117 O 0.23325 0.88649 0.59648 0.0
H2118 H 0.12699 0.76881 0.62785 0.0
H2119 H 0.14404 0.75715 0.63757 0.0
H2120 H 0.12586 0.73673 0.63886 0.0
H2121 H 0.12803 0.75377 0.65136 0.0
H2122 H 0.11889 0.77432 0.60243 0.0
H2123 H 0.14831 0.75123 0.59476 0.0
H2124 H 0.14258 0.81096 0.586 0.0
H2125 H 0.12078 0.79564 0.58589 0.0
H2126 H 0.13255 0.80009 0.5679 0.0
H2127 H 0.17143 0.76261 0.57808 0.0
H2128 H 0.18048 0.78444 0.57369 0.0
H2129 H 0.16612 0.76891 0.55993 0.0
H2130 H 0.2565 0.88861 0.59219 0.0
H2131 H 0.25971 0.89677 0.63519 0.0
H2132 H 0.25144 0.91315 0.6089 0.0
H2133 H 0.26929 0.9143 0.60432 0.0
H2134 H 0.2366 0.85992 0.58935 0.0
H2135 H 0.20437 0.88059 0.58703 0.0
H2136 H 0.20723 0.81884 0.57999 0.0
H2137 H 0.2292 0.83355 0.579 0.0
H2138 H 0.21612 0.8281 0.56151 0.0
H2139 H 0.17756 0.8659 0.57535 0.0
H2140 H 0.16776 0.84355 0.5772 0.0
H2141 H 0.17646 0.85292 0.5587 0.0
H2142 H 0.25345 0.86783 0.45986 0.0
H2143 H 0.23865 0.84956 0.47813 0.0
H2144 H 0.20427 0.86587 0.4657 0.0
H2145 H 0.21795 0.82437 0.50815 0.0
H2146 H 0.23078 0.82509 0.49195 0.0
H2147 H 0.20889 0.8098 0.4919 0.0
H2148 H 0.17662 0.85218 0.47441 0.0
H2149 H 0.17429 0.84297 0.4936 0.0
H2150 H 0.16792 0.82994 0.47613 0.0
H2151 H 0.0965 0.72681 0.47718 0.0
H2152 H 0.08027 0.69645 0.47181 0.0
H2153 H 0.09751 0.70222 0.48526 0.0
H2154 H 0.09878 0.69664 0.46501 0.0
H2155 H 0.14785 0.73825 0.48063 0.0
H2156 H 0.11272 0.75466 0.47277 0.0
H2157 H 0.17289 0.76849 0.50864 0.0
H2158 H 0.18216 0.77726 0.49013 0.0
H2159 H 0.1738 0.75526 0.49325 0.0
H2160 H 0.11767 0.7811 0.48092 0.0
H2161 H 0.13937 0.79695 0.48081 0.0
H2162 H 0.1296 0.78832 0.49919 0.0
H2163 H 0.17411 0.81552 0.58634 0.0
H2164 H 0.20536 0.85085 0.54381 0.0
H2165 H 0.20544 0.84755 0.51568 0.0
H2166 H 0.17434 0.80278 0.47812 0.0
H2167 H 0.14046 0.76858 0.52031 0.0
H2168 H 0.14028 0.77197 0.54853 0.0
H2169 H 0.27385 0.89241 0.47664 0.0
H2170 H 0.25557 0.87905 0.4876 0.0
H2171 H 0.25823 0.89828 0.47994 0.0
C2172 C 0.12749 0.33651 0.62573 0.0
C2173 C 0.12234 0.34789 0.61747 0.0
C2174 C 0.13455 0.3509 0.59155 0.0
C2175 C 0.14639 0.36792 0.59131 0.0
C2176 C 0.16021 0.3738 0.58146 0.0
C2177 C 0.16229 0.36235 0.57184 0.0
C2178 C 0.15013 0.3452 0.57184 0.0
C2179 C 0.13622 0.33975 0.58151 0.0
C2180 C 0.1727 0.39222 0.5815 0.0
C2181 C 0.15199 0.33257 0.56193 0.0
C2182 C 0.28016 0.40774 0.61595 0.0
C2183 C 0.26686 0.38949 0.61282 0.0
C2184 C 0.24981 0.38386 0.58909 0.0
C2185 C 0.24107 0.36963 0.57946 0.0
C2186 C 0.22669 0.3666 0.57114 0.0
C2187 C 0.22154 0.37863 0.57183 0.0
C2188 C 0.23055 0.39321 0.5814 0.0
C2189 C 0.24446 0.39553 0.59015 0.0
C2190 C 0.21707 0.35058 0.56161 0.0
C2191 C 0.22561 0.40643 0.58229 0.0
C2192 C 0.25312 0.39588 0.47174 0.0
C2193 C 0.24101 0.37918 0.47423 0.0
C2194 C 0.22609 0.3752 0.48174 0.0
C2195 C 0.2232 0.38816 0.48674 0.0
C2196 C 0.235 0.40491 0.48351 0.0
C2197 C 0.24978 0.40854 0.47592 0.0
C2198 C 0.21356 0.35716 0.48463 0.0
C2199 C 0.2322 0.419 0.4885 0.0
C2200 C 0.10773 0.38053 0.47424 0.0
C2201 C 0.11701 0.37954 0.45974 0.0
C2202 C 0.13654 0.37124 0.47035 0.0
C2203 C 0.1397 0.35805 0.47142 0.0
C2204 C 0.15368 0.3599 0.4797 0.0
C2205 C 0.16482 0.37542 0.48703 0.0
C2206 C 0.16183 0.38892 0.48588 0.0
C2207 C 0.14768 0.38668 0.47764 0.0
C2208 C 0.15647 0.34524 0.48077 0.0
C2209 C 0.17355 0.40568 0.49349 0.0
C2210 C 0.1776 0.36818 0.56247 0.0
C2211 C 0.19196 0.37081 0.57047 0.0
C2212 C 0.20681 0.37603 0.56249 0.0
C2213 C 0.20741 0.37855 0.54598 0.0
C2214 C 0.22215 0.38382 0.53756 0.0
C2215 C 0.22246 0.38565 0.52124 0.0
C2216 C 0.20814 0.38263 0.51274 0.0
C2217 C 0.20827 0.38422 0.4961 0.0
C2218 C 0.19398 0.38172 0.48808 0.0
C2219 C 0.1794 0.37748 0.49622 0.0
C2220 C 0.17887 0.37535 0.5128 0.0
C2221 C 0.16429 0.3707 0.5213 0.0
C2222 C 0.16387 0.36849 0.53759 0.0
C2223 C 0.17799 0.37076 0.54599 0.0
C2224 C 0.1929 0.37576 0.53769 0.0
C2225 C 0.19331 0.37794 0.52107 0.0
C2226 C 0.29433 0.40357 0.47278 0.0
C2227 C 0.27662 0.39158 0.4668 0.0
O2228 O 0.12132 0.34491 0.60125 0.0
O2229 O 0.1226 0.3684 0.46229 0.0
O2230 O 0.26811 0.40025 0.46541 0.0
O2231 O 0.26375 0.38638 0.59672 0.0
H2232 H 0.13181 0.36107 0.62033 0.0
H2233 H 0.13982 0.3391 0.6215 0.0
H2234 H 0.11828 0.32319 0.62314 0.0
H2235 H 0.12846 0.33877 0.63875 0.0
H2236 H 0.14477 0.37663 0.5987 0.0
H2237 H 0.12685 0.32665 0.58168 0.0
H2238 H 0.18422 0.39448 0.58771 0.0
H2239 H 0.16799 0.39971 0.58759 0.0
H2240 H 0.17599 0.39663 0.56919 0.0
H2241 H 0.14222 0.31956 0.56437 0.0
H2242 H 0.16435 0.33383 0.56419 0.0
H2243 H 0.15123 0.33491 0.54919 0.0
H2244 H 0.25535 0.3871 0.61902 0.0
H2245 H 0.28321 0.41002 0.62881 0.0
H2246 H 0.27561 0.41617 0.61212 0.0
H2247 H 0.29167 0.41098 0.6094 0.0
H2248 H 0.2454 0.36074 0.57874 0.0
H2249 H 0.25138 0.40664 0.59747 0.0
H2250 H 0.20354 0.34488 0.5637 0.0
H2251 H 0.22097 0.34138 0.56456 0.0
H2252 H 0.21913 0.35325 0.54881 0.0
H2253 H 0.23526 0.41805 0.58833 0.0
H2254 H 0.21392 0.40159 0.58897 0.0
H2255 H 0.22328 0.40951 0.57023 0.0
H2256 H 0.27093 0.3818 0.47592 0.0
H2257 H 0.24318 0.36925 0.47037 0.0
H2258 H 0.25907 0.42136 0.47369 0.0
H2259 H 0.21228 0.35502 0.49757 0.0
H2260 H 0.21716 0.34849 0.47913 0.0
H2261 H 0.2012 0.35417 0.47983 0.0
H2262 H 0.24242 0.43134 0.48483 0.0
H2263 H 0.23111 0.41917 0.50157 0.0
H2264 H 0.22033 0.41699 0.48326 0.0
H2265 H 0.12771 0.39214 0.45743 0.0
H2266 H 0.10308 0.38931 0.47212 0.0
H2267 H 0.11615 0.38513 0.48478 0.0
H2268 H 0.09704 0.36805 0.47687 0.0
H2269 H 0.13107 0.34619 0.46578 0.0
H2270 H 0.14544 0.39704 0.47709 0.0
H2271 H 0.15724 0.34245 0.49339 0.0
H2272 H 0.16849 0.34841 0.4753 0.0
H2273 H 0.14642 0.33387 0.47476 0.0
H2274 H 0.17006 0.41522 0.49071 0.0
H2275 H 0.18641 0.41014 0.48945 0.0
H2276 H 0.17357 0.40442 0.50654 0.0
H2277 H 0.19155 0.36872 0.58311 0.0
H2278 H 0.2336 0.38643 0.54347 0.0
H2279 H 0.23412 0.38951 0.51539 0.0
H2280 H 0.19422 0.38311 0.47534 0.0
H2281 H 0.153 0.36865 0.51546 0.0
H2282 H 0.15231 0.36491 0.54351 0.0
H2283 H 0.30146 0.39693 0.47383 0.0
H2284 H 0.29395 0.40866 0.48465 0.0
H2285 H 0.30088 0.41416 0.46464 0.0
H2286 H 0.02244 0.39343 0.04077 0.0
H2287 H 0.97761 0.39603 0.1204 0.0
H2288 H 0.97491 0.35296 0.05482 0.0
H2289 H 0.02547 0.43552 0.10597 0.0
H2290 H 0.97556 0.38047 0.09596 0.0
H2291 H 0.02286 0.40954 0.06398 0.0
C2292 C 0.01203 0.38795 0.04873 0.0
C2293 C 0.99864 0.3718 0.04591 0.0
C2294 C 0.98645 0.3926 0.09809 0.0
C2295 C 0.99908 0.39018 0.07262 0.0
C2296 C 0.9876 0.40147 0.11199 0.0
C2297 C 0.00162 0.41718 0.11507 0.0
C2298 C 0.99948 0.39943 0.08725 0.0
C2299 C 0.01435 0.42356 0.10394 0.0
C2300 C 0.01229 0.39716 0.062 0.0
C2301 C 0.98548 0.36537 0.05658 0.0
N2302 N 0.01297 0.41467 0.09054 0.0
N2303 N 0.98606 0.37456 0.06953 0.0
H2304 H 0.61152 0.61642 0.05083 0.0
H2305 H 0.61722 0.5514 0.10791 0.0
H2306 H 0.65368 0.60885 0.05166 0.0
H2307 H 0.584 0.5706 0.11544 0.0
H2308 H 0.62941 0.57036 0.08571 0.0
H2309 H 0.59971 0.59742 0.07286 0.0
C2310 C 0.61828 0.61072 0.05564 0.0
C2311 C 0.63361 0.61421 0.04943 0.0
C2312 C 0.6194 0.57035 0.09219 0.0
C2313 C 0.62013 0.5924 0.07463 0.0
C2314 C 0.61241 0.5595 0.10477 0.0
C2315 C 0.59929 0.5591 0.11324 0.0
C2316 C 0.61324 0.58089 0.08805 0.0
C2317 C 0.5938 0.57017 0.10899 0.0
C2318 C 0.61155 0.59992 0.06825 0.0
C2319 C 0.64184 0.6065 0.05613 0.0
N2320 N 0.6007 0.5805 0.09662 0.0
N2321 N 0.63496 0.59589 0.06835 0.0
H2322 H 0.3865 0.0316 0.05069 0.0
H2323 H 0.41103 0.98085 0.11059 0.0
H2324 H 0.37537 0.98094 0.0423 0.0
H2325 H 0.42458 0.03224 0.11857 0.0
H2326 H 0.39819 0.9809 0.08529 0.0
H2327 H 0.40106 0.03249 0.0753 0.0
C2328 C 0.38722 0.02071 0.05398 0.0
C2329 C 0.37969 0.00616 0.04449 0.0
C2330 C 0.40404 0.99222 0.0925 0.0
C2331 C 0.39619 0.00704 0.07259 0.0
C2332 C 0.41139 0.99219 0.10692 0.0
C2333 C 0.4191 0.00665 0.11654 0.0
C2334 C 0.40423 0.00677 0.08771 0.0
C2335 C 0.41894 0.02091 0.11139 0.0
C2336 C 0.39549 0.02121 0.06803 0.0
C2337 C 0.38096 0.9924 0.0493 0.0
N2338 N 0.41163 0.02062 0.09731 0.0
N2339 N 0.38899 0.99316 0.06303 0.0
H2340 H 0.35801 0.97562 0.95682 0.0
H2341 H 0.43951 0.03253 0.90716 0.0
H2342 H 0.40006 0.02141 0.97438 0.0
H2343 H 0.39869 0.98632 0.88879 0.0
H2344 H 0.42606 0.02707 0.93276 0.0
H2345 H 0.37347 0.97761 0.93274 0.0
C2346 C 0.37055 0.98596 0.95569 0.0
C2347 C 0.37772 0.99845 0.96752 0.0
C2348 C 0.4201 0.01798 0.92323 0.0
C2349 C 0.39539 0.00086 0.9401 0.0
C2350 C 0.42783 0.02107 0.90862 0.0
C2351 C 0.42032 0.00971 0.89591 0.0
C2352 C 0.40457 0.00357 0.92513 0.0
C2353 C 0.40497 0.99527 0.89837 0.0
C2354 C 0.37935 0.98712 0.94195 0.0
C2355 C 0.39399 0.01158 0.96549 0.0
N2356 N 0.39754 0.99264 0.91268 0.0
N2357 N 0.40221 0.01249 0.95202 0.0
H2358 H 0.02869 0.37981 0.96356 0.0
H2359 H 0.97685 0.40802 0.9085 0.0
H2360 H 0.97771 0.3662 0.97164 0.0
H2361 H 0.02802 0.42237 0.90058 0.0
H2362 H 0.9769 0.39245 0.93164 0.0
H2363 H 0.02878 0.39547 0.94041 0.0
C2364 C 0.01754 0.38015 0.96047 0.0
C2365 C 0.00318 0.37172 0.96951 0.0
C2366 C 0.98814 0.39905 0.92489 0.0
C2367 C 0.00315 0.38953 0.94308 0.0
C2368 C 0.98811 0.40795 0.91172 0.0
C2369 C 0.00254 0.41673 0.90281 0.0
C2370 C 0.00267 0.3988 0.92912 0.0
C2371 C 0.01671 0.41598 0.90728 0.0
C2372 C 0.01758 0.38907 0.94726 0.0
C2373 C 0.98905 0.37253 0.96499 0.0
N2374 N 0.01644 0.40722 0.92015 0.0
N2375 N 0.9894 0.38127 0.9521 0.0
H2376 H 0.61924 0.65404 0.97224 0.0
H2377 H 0.57888 0.58585 0.90218 0.0
H2378 H 0.62158 0.60869 0.97054 0.0
H2379 H 0.56587 0.62393 0.91047 0.0
H2380 H 0.59661 0.59551 0.92594 0.0
H2381 H 0.60148 0.64457 0.9484 0.0
C2382 C 0.61599 0.64209 0.96686 0.0
C2383 C 0.62185 0.63211 0.97336 0.0
C2384 C 0.58979 0.60168 0.92263 0.0
C2385 C 0.6017 0.62129 0.94609 0.0
C2386 C 0.57964 0.59615 0.90909 0.0
C2387 C 0.57051 0.60381 0.90461 0.0
C2388 C 0.59112 0.6152 0.93159 0.0
C2389 C 0.57242 0.61747 0.91373 0.0
C2390 C 0.60585 0.63669 0.95328 0.0
C2391 C 0.61729 0.61674 0.96593 0.0
N2392 N 0.58248 0.62271 0.9268 0.0
N2393 N 0.60754 0.61183 0.95265 0.0
H2394 H 0.98034 0.61329 0.96622 0.0
H2395 H 0.04674 0.6083 0.91012 0.0
H2396 H 0.03328 0.64278 0.97452 0.0
H2397 H 0.9956 0.58984 0.89642 0.0
H2398 H 0.04156 0.61768 0.93563 0.0
H2399 H 0.9853 0.60119 0.94247 0.0
C2400 C 0.99301 0.61714 0.9631 0.0
C2401 C 0.00643 0.62912 0.9723 0.0
C2402 C 0.03147 0.61152 0.92706 0.0
C2403 C 0.01218 0.61532 0.94512 0.0
C2404 C 0.03441 0.60615 0.91255 0.0
C2405 C 0.0216 0.59841 0.90113 0.0
C2406 C 0.01558 0.60898 0.93023 0.0
C2407 C 0.00582 0.59582 0.90487 0.0
C2408 C 0.99583 0.61026 0.94951 0.0
C2409 C 0.02259 0.63363 0.9677 0.0
N2410 N 0.00326 0.60112 0.91909 0.0
N2411 N 0.02503 0.62674 0.9544 0.0
H2412 H 0.39545 0.40922 0.97477 0.0
H2413 H 0.37367 0.42917 0.88969 0.0
H2414 H 0.34631 0.38155 0.95383 0.0
H2415 H 0.408 0.46864 0.92138 0.0
H2416 H 0.36704 0.40925 0.911 0.0
H2417 H 0.40371 0.42917 0.9531 0.0
C2418 C 0.38645 0.40734 0.9656 0.0
C2419 C 0.37017 0.3938 0.96608 0.0
C2420 C 0.37609 0.42227 0.91321 0.0
C2421 C 0.37958 0.41622 0.94128 0.0
C2422 C 0.37991 0.43361 0.90108 0.0
C2423 C 0.39135 0.4506 0.90372 0.0
C2424 C 0.384 0.42788 0.92804 0.0
C2425 C 0.39912 0.45569 0.91873 0.0
C2426 C 0.39114 0.41871 0.95331 0.0
C2427 C 0.35895 0.39189 0.95394 0.0
N2428 N 0.39535 0.44434 0.93032 0.0
N2429 N 0.3639 0.40291 0.94195 0.0
H2430 H 0.60443 0.99952 0.98008 0.0
H2431 H 0.58404 0.96782 0.89089 0.0
H2432 H 0.62475 0.97132 0.95839 0.0
H2433 H 0.54704 0.96911 0.92055 0.0
H2434 H 0.60197 0.9738 0.91429 0.0
H2435 H 0.58579 0.99292 0.95701 0.0
C2436 C 0.60493 0.99191 0.97047 0.0
C2437 C 0.61608 0.98589 0.97111 0.0
C2438 C 0.58988 0.97269 0.91561 0.0
C2439 C 0.59515 0.97865 0.94471 0.0
C2440 C 0.57965 0.96928 0.9023 0.0
C2441 C 0.56385 0.96762 0.9037 0.0
C2442 C 0.58452 0.97495 0.93042 0.0
C2443 C 0.559 0.97008 0.91879 0.0
C2444 C 0.59429 0.98814 0.95738 0.0
C2445 C 0.61625 0.9761 0.95838 0.0
N2446 N 0.56934 0.9737 0.93154 0.0
N2447 N 0.60606 0.97292 0.9456 0.0
H2448 H 0.64241 0.03685 0.04377 0.0
H2449 H 0.59028 0.99971 0.12234 0.0
H2450 H 0.61455 0.98423 0.05325 0.0
H2451 H 0.60978 0.05074 0.10864 0.0
H2452 H 0.59935 0.99386 0.09717 0.0
H2453 H 0.63098 0.04239 0.06761 0.0
C2454 C 0.63383 0.02647 0.05083 0.0
C2455 C 0.62945 0.01006 0.04657 0.0
C2456 C 0.60156 0.00632 0.0996 0.0
C2457 C 0.61641 0.01629 0.07386 0.0
C2458 C 0.59639 0.00965 0.11396 0.0
C2459 C 0.59933 0.02573 0.11757 0.0
C2460 C 0.60991 0.01921 0.08881 0.0
C2461 C 0.60732 0.03818 0.10631 0.0
C2462 C 0.62729 0.02962 0.06442 0.0
C2463 C 0.61827 0.99707 0.05612 0.0
N2464 N 0.61243 0.03469 0.09248 0.0
N2465 N 0.61222 0.00047 0.06936 0.0
H2466 H 0.95911 0.60694 0.04334 0.0
H2467 H 0.99392 0.58812 0.12222 0.0
H2468 H 0.01143 0.6293 0.05437 0.0
H2469 H 0.94392 0.55623 0.10454 0.0
H2470 H 0.00042 0.60408 0.09789 0.0
H2471 H 0.95296 0.58898 0.06625 0.0
C2472 C 0.96929 0.60802 0.05055 0.0
C2473 C 0.98579 0.61964 0.04699 0.0
C2474 C 0.98804 0.59355 0.09929 0.0
C2475 C 0.97887 0.59926 0.07323 0.0
C2476 C 0.98433 0.58445 0.11317 0.0
C2477 C 0.96831 0.57095 0.11544 0.0
C2478 C 0.9756 0.58922 0.08766 0.0
C2479 C 0.95637 0.56667 0.1033 0.0
C2480 C 0.96579 0.59774 0.06359 0.0
C2481 C 0.99852 0.62051 0.0567 0.0
N2482 N 0.96021 0.57587 0.08999 0.0
N2483 N 0.99479 0.61054 0.06944 0.0
H2484 H 0.37683 0.38976 0.0506 0.0
H2485 H 0.44863 0.38438 0.09851 0.0
H2486 H 0.40317 0.36617 0.03178 0.0
H2487 H 0.41597 0.39945 0.11955 0.0
H2488 H 0.43498 0.38146 0.07277 0.0
H2489 H 0.39398 0.39727 0.07469 0.0
C2490 C 0.38634 0.3863 0.05148 0.0
C2491 C 0.38851 0.37722 0.03922 0.0
C2492 C 0.43089 0.38554 0.08299 0.0
C2493 C 0.40815 0.38574 0.0668 0.0
C2494 C 0.43871 0.38726 0.09764 0.0
C2495 C 0.4334 0.39216 0.11115 0.0
C2496 C 0.41768 0.38877 0.08184 0.0
C2497 C 0.42045 0.39567 0.10942 0.0
C2498 C 0.39609 0.39055 0.06525 0.0
C2499 C 0.40103 0.3731 0.04099 0.0
N2500 N 0.413 0.39385 0.09506 0.0
N2501 N 0.41033 0.37731 0.05456 0.0
H2502 H 0.62288 0.67911 0.37593 0.0
H2503 H 0.65141 0.74647 0.44688 0.0
H2504 H 0.6733 0.71911 0.38349 0.0
H2505 H 0.60004 0.71457 0.43307 0.0
H2506 H 0.65962 0.73489 0.42491 0.0
H2507 H 0.61415 0.69032 0.398 0.0
C2508 C 0.63209 0.69024 0.38223 0.0
C2509 C 0.64882 0.69821 0.37788 0.0
C2510 C 0.64655 0.7305 0.42659 0.0
C2511 C 0.63899 0.711 0.4031 0.0
C2512 C 0.64187 0.73715 0.4391 0.0
C2513 C 0.62503 0.73181 0.44152 0.0
C2514 C 0.63432 0.71818 0.41656 0.0
C2515 C 0.61316 0.71929 0.43138 0.0
C2516 C 0.62711 0.69664 0.39478 0.0
C2517 C 0.66026 0.71258 0.38642 0.0
N2518 N 0.61802 0.71291 0.41932 0.0
N2519 N 0.65514 0.71848 0.39864 0.0
H2520 H 0.27176 0.95143 0.38938 0.0
H2521 H 0.27613 0.8825 0.44199 0.0
H2522 H 0.31039 0.93879 0.38517 0.0
H2523 H 0.24331 0.90176 0.45163 0.0
H2524 H 0.28793 0.90194 0.42016 0.0
H2525 H 0.26009 0.93206 0.41122 0.0
C2526 C 0.27777 0.94455 0.39305 0.0
C2527 C 0.29205 0.94669 0.38547 0.0
C2528 C 0.27809 0.90186 0.427 0.0
C2529 C 0.27877 0.9245 0.41041 0.0
C2530 C 0.27132 0.89073 0.43939 0.0
C2531 C 0.25845 0.89023 0.44835 0.0
C2532 C 0.27199 0.91263 0.42358 0.0
C2533 C 0.25295 0.90146 0.44478 0.0
C2534 C 0.27113 0.93353 0.40554 0.0
C2535 C 0.29936 0.93751 0.39071 0.0
N2536 N 0.25968 0.91212 0.4326 0.0
N2537 N 0.29262 0.92678 0.40284 0.0
H2538 H 0.06539 0.37627 0.37261 0.0
H2539 H 0.09212 0.34776 0.45132 0.0
H2540 H 0.04181 0.32519 0.38754 0.0
H2541 H 0.11562 0.39862 0.43584 0.0
H2542 H 0.07353 0.33912 0.42809 0.0
H2543 H 0.08392 0.38461 0.39574 0.0
C2544 C 0.06412 0.3668 0.38077 0.0
C2545 C 0.05206 0.35002 0.37817 0.0
C2546 C 0.0828 0.35216 0.42973 0.0
C2547 C 0.07322 0.35946 0.4047 0.0
C2548 C 0.09343 0.35707 0.44294 0.0
C2549 C 0.10562 0.37388 0.44532 0.0
C2550 C 0.08428 0.36416 0.41888 0.0
C2551 C 0.10656 0.3855 0.43431 0.0
C2552 C 0.07471 0.37157 0.39398 0.0
C2553 C 0.05096 0.33827 0.38911 0.0
N2554 N 0.09607 0.38042 0.42155 0.0
N2555 N 0.06141 0.34322 0.40191 0.0
H2556 H 0.06538 0.3429 0.30588 0.0
H2557 H 0.05449 0.27523 0.24006 0.0
H2558 H 0.0188 0.29751 0.29713 0.0
H2559 H 0.09391 0.32657 0.23993 0.0
H2560 H 0.04244 0.28175 0.26289 0.0
H2561 H 0.07744 0.33555 0.2838 0.0
C2562 C 0.05771 0.33133 0.29936 0.0
C2563 C 0.04105 0.3208 0.30331 0.0
C2564 C 0.05379 0.29154 0.25791 0.0
C2565 C 0.0548 0.31232 0.27803 0.0
C2566 C 0.06069 0.28782 0.24496 0.0
C2567 C 0.07545 0.30026 0.23835 0.0
C2568 C 0.06171 0.30783 0.2643 0.0
C2569 C 0.08276 0.31648 0.24488 0.0
C2570 C 0.06459 0.32718 0.28672 0.0
C2571 C 0.03169 0.30598 0.29444 0.0
N2572 N 0.07589 0.31976 0.25756 0.0
N2573 N 0.03871 0.30215 0.28221 0.0
H2574 H 0.65721 0.71365 0.30323 0.0
H2575 H 0.73122 0.7812 0.25113 0.0
H2576 H 0.70749 0.72301 0.30693 0.0
H2577 H 0.67941 0.76403 0.2418 0.0
H2578 H 0.72327 0.76156 0.27291 0.0
H2579 H 0.66565 0.73387 0.28212 0.0
C2580 C 0.67006 0.72001 0.29962 0.0
C2581 C 0.68168 0.71664 0.30682 0.0
C2582 C 0.71366 0.76217 0.26615 0.0
C2583 C 0.69143 0.73982 0.28263 0.0
C2584 C 0.71819 0.77341 0.2538 0.0
C2585 C 0.70598 0.77454 0.24492 0.0
C2586 C 0.69679 0.75194 0.26962 0.0
C2587 C 0.68924 0.76386 0.24857 0.0
C2588 C 0.67486 0.73152 0.28753 0.0
C2589 C 0.69814 0.72524 0.30167 0.0
N2590 N 0.68516 0.75309 0.26069 0.0
N2591 N 0.70255 0.73646 0.28988 0.0
H2592 H 0.276 0.98582 0.30969 0.0
H2593 H 0.2368 0.91897 0.23856 0.0
H2594 H 0.27931 0.94103 0.30685 0.0
H2595 H 0.22055 0.95422 0.24908 0.0
H2596 H 0.25471 0.92878 0.26218 0.0
H2597 H 0.25766 0.97619 0.28617 0.0
C2598 C 0.27284 0.97396 0.30414 0.0
C2599 C 0.27915 0.96419 0.31021 0.0
C2600 C 0.24712 0.93428 0.25941 0.0
C2601 C 0.2584 0.95322 0.28334 0.0
C2602 C 0.23687 0.92865 0.24595 0.0
C2603 C 0.22679 0.93546 0.24212 0.0
C2604 C 0.24763 0.94707 0.26894 0.0
C2605 C 0.22785 0.9484 0.25183 0.0
C2606 C 0.26237 0.96847 0.29076 0.0
C2607 C 0.27468 0.94894 0.30258 0.0
N2608 N 0.23807 0.95379 0.26481 0.0
N2609 N 0.26466 0.94397 0.2895 0.0
H2610 H 0.71466 0.97961 0.31883 0.0
H2611 H 0.69218 0.93711 0.23288 0.0
H2612 H 0.66448 0.9454 0.30286 0.0
H2613 H 0.74137 0.95846 0.25351 0.0
H2614 H 0.6819 0.9405 0.25841 0.0
H2615 H 0.725 0.97259 0.295 0.0
C2616 C 0.70584 0.97052 0.31039 0.0
C2617 C 0.68869 0.96313 0.31278 0.0
C2618 C 0.69493 0.94435 0.2574 0.0
C2619 C 0.70039 0.9552 0.28549 0.0
C2620 C 0.70079 0.94243 0.24283 0.0
C2621 C 0.71768 0.94769 0.24105 0.0
C2622 C 0.70606 0.95177 0.27027 0.0
C2623 C 0.72829 0.95443 0.25436 0.0
C2624 C 0.71174 0.9665 0.29682 0.0
C2625 C 0.6778 0.95142 0.30148 0.0
N2626 N 0.72235 0.95645 0.26837 0.0
N2627 N 0.68382 0.94795 0.28827 0.0
H2628 H 0.05877 0.71935 0.28959 0.0
H2629 H 0.04978 0.79045 0.24542 0.0
H2630 H 0.03245 0.74271 0.30897 0.0
H2631 H 0.06511 0.75868 0.22228 0.0
H2632 H 0.04766 0.77637 0.27036 0.0
H2633 H 0.06554 0.73703 0.26644 0.0
C2634 C 0.05457 0.72833 0.28905 0.0
C2635 C 0.04494 0.7295 0.30115 0.0
C2636 C 0.05162 0.77257 0.25986 0.0
C2637 C 0.05261 0.74973 0.2747 0.0
C2638 C 0.05286 0.78062 0.24566 0.0
C2639 C 0.05756 0.77566 0.23178 0.0
C2640 C 0.05516 0.75952 0.2602 0.0
C2641 C 0.06142 0.76286 0.23271 0.0
C2642 C 0.05839 0.73837 0.27581 0.0
C2643 C 0.03983 0.74135 0.29985 0.0
N2644 N 0.06009 0.7552 0.24666 0.0
N2645 N 0.04367 0.75097 0.28682 0.0
H2646 H 0.28589 0.34337 0.29702 0.0
H2647 H 0.21955 0.26601 0.24369 0.0
H2648 H 0.26305 0.29229 0.31184 0.0
H2649 H 0.252 0.31495 0.22556 0.0
H2650 H 0.23165 0.27621 0.27021 0.0
H2651 H 0.2697 0.33388 0.27231 0.0
C2652 C 0.27732 0.33016 0.29515 0.0
C2653 C 0.2759 0.31858 0.30644 0.0
C2654 C 0.23602 0.28474 0.26045 0.0
C2655 C 0.25737 0.30764 0.27817 0.0
C2656 C 0.22911 0.27894 0.24536 0.0
C2657 C 0.23487 0.28964 0.23243 0.0
C2658 C 0.24871 0.30139 0.26264 0.0
C2659 C 0.24724 0.30629 0.2352 0.0
C2660 C 0.26813 0.32476 0.28102 0.0
C2661 C 0.26458 0.30163 0.30341 0.0
N2662 N 0.25379 0.31164 0.24999 0.0
N2663 N 0.25581 0.29665 0.28951 0.0
H2664 H 0.30509 0.37777 0.37315 0.0
H2665 H 0.26813 0.35911 0.46008 0.0
H2666 H 0.27789 0.32817 0.39175 0.0
H2667 H 0.28601 0.40654 0.43781 0.0
H2668 H 0.27108 0.34736 0.435 0.0
H2669 H 0.29779 0.38849 0.39651 0.0
C2670 C 0.29746 0.36912 0.3821 0.0
C2671 C 0.29215 0.35207 0.38056 0.0
C2672 C 0.27421 0.36029 0.43554 0.0
C2673 C 0.28388 0.36425 0.40739 0.0
C2674 C 0.27252 0.36699 0.44984 0.0
C2675 C 0.27688 0.38382 0.451 0.0
C2676 C 0.2805 0.37056 0.42234 0.0
C2677 C 0.28255 0.39351 0.4374 0.0
C2678 C 0.29328 0.37523 0.39542 0.0
C2679 C 0.28227 0.34141 0.39248 0.0
N2680 N 0.28434 0.38678 0.42367 0.0
N2681 N 0.27858 0.3477 0.40547 0.0
H2682 H 0.65608 0.92843 0.37724 0.0
H2683 H 0.6225 0.9163 0.46545 0.0
H2684 H 0.64877 0.96511 0.40227 0.0
H2685 H 0.60625 0.87489 0.4324 0.0
H2686 H 0.63856 0.93537 0.44439 0.0
H2687 H 0.64396 0.90955 0.3996 0.0
C2688 C 0.65211 0.93256 0.38751 0.0
C2689 C 0.6533 0.94827 0.38793 0.0
C2690 C 0.63162 0.92208 0.44184 0.0
C2691 C 0.63975 0.92698 0.41343 0.0
C2692 C 0.62254 0.91122 0.45383 0.0
C2693 C 0.6131 0.894 0.45072 0.0
C2694 C 0.63143 0.91567 0.42666 0.0
C2695 C 0.61343 0.88805 0.4354 0.0
C2696 C 0.64516 0.92179 0.40018 0.0
C2697 C 0.64794 0.95304 0.40146 0.0
N2698 N 0.62249 0.89889 0.42393 0.0
N2699 N 0.64143 0.94245 0.4137 0.0
H2700 H 0.07395 0.70069 0.36936 0.0
H2701 H 0.07936 0.73117 0.45902 0.0
H2702 H 0.04823 0.72556 0.38654 0.0
H2703 H 0.11133 0.7141 0.44016 0.0
H2704 H 0.06885 0.73053 0.43224 0.0
H2705 H 0.08892 0.70682 0.39473 0.0
C2706 C 0.0716 0.70761 0.37841 0.0
C2707 C 0.05976 0.71253 0.37589 0.0
C2708 C 0.0783 0.7271 0.4339 0.0
C2709 C 0.07668 0.71942 0.40501 0.0
C2710 C 0.08429 0.72747 0.44918 0.0
C2711 C 0.09619 0.72265 0.45178 0.0
C2712 C 0.08408 0.72165 0.42112 0.0
C2713 C 0.10213 0.71789 0.43864 0.0
C2714 C 0.08014 0.71111 0.3929 0.0
C2715 C 0.05722 0.72149 0.38801 0.0
N2716 N 0.0959 0.71736 0.42389 0.0
N2717 N 0.06547 0.72449 0.4021 0.0
H2718 H 0.29885 0.01164 0.7202 0.0
H2719 H 0.32331 0.09225 0.77389 0.0
H2720 H 0.3332 0.06167 0.70554 0.0
H2721 H 0.27677 0.04642 0.779 0.0
H2722 H 0.32899 0.0803 0.75049 0.0
H2723 H 0.29219 0.02327 0.74345 0.0
C2724 C 0.30491 0.02505 0.72183 0.0
C2725 C 0.31657 0.03572 0.71094 0.0
C2726 C 0.31748 0.0729 0.75667 0.0
C2727 C 0.30922 0.04903 0.7375 0.0
C2728 C 0.3142 0.07972 0.77003 0.0
C2729 C 0.29929 0.07045 0.7782 0.0
C2730 C 0.30601 0.05655 0.75164 0.0
C2731 C 0.28824 0.05407 0.77287 0.0
C2732 C 0.3011 0.03167 0.73507 0.0
C2733 C 0.3241 0.053 0.71362 0.0
N2734 N 0.29182 0.04762 0.75993 0.0
N2735 N 0.32039 0.05911 0.72669 0.0
H2736 H 0.97695 0.26894 0.70694 0.0
H2737 H 0.91283 0.23687 0.7784 0.0
H2738 H 0.94382 0.28767 0.71734 0.0
H2739 H 0.94198 0.21437 0.76508 0.0
H2740 H 0.92442 0.25592 0.75631 0.0
H2741 H 0.96462 0.24907 0.72836 0.0
C2742 C 0.96705 0.26883 0.71371 0.0
C2743 C 0.9614 0.27996 0.71038 0.0
C2744 C 0.92819 0.24673 0.75812 0.0
C2745 C 0.94729 0.25734 0.73492 0.0
C2746 C 0.92153 0.23583 0.77069 0.0
C2747 C 0.92616 0.22377 0.77333 0.0
C2748 C 0.93977 0.24575 0.74823 0.0
C2749 C 0.93785 0.22327 0.76326 0.0
C2750 C 0.96002 0.25749 0.72593 0.0
C2751 C 0.94855 0.2793 0.71951 0.0
N2752 N 0.94424 0.23409 0.75114 0.0
N2753 N 0.94197 0.26822 0.73138 0.0
H2754 H 0.71383 0.65699 0.71509 0.0
H2755 H 0.78451 0.73392 0.76583 0.0
H2756 H 0.72842 0.70832 0.70666 0.0
H2757 H 0.76449 0.68249 0.77845 0.0
H2758 H 0.76531 0.72485 0.74305 0.0
H2759 H 0.73372 0.66615 0.73726 0.0
C2760 C 0.72126 0.6702 0.71788 0.0
C2761 C 0.71947 0.68192 0.70905 0.0
C2762 C 0.76519 0.71554 0.75074 0.0
C2763 C 0.74224 0.69249 0.73439 0.0
C2764 C 0.77618 0.72071 0.76369 0.0
C2765 C 0.77636 0.70892 0.77381 0.0
C2766 C 0.75421 0.69845 0.74794 0.0
C2767 C 0.76502 0.69197 0.77074 0.0
C2768 C 0.73258 0.67542 0.73056 0.0
C2769 C 0.72939 0.69887 0.71319 0.0
N2770 N 0.75446 0.68724 0.75804 0.0
N2771 N 0.74036 0.70365 0.72556 0.0
H2772 H 0.72381 0.67904 0.63056 0.0
H2773 H 0.71975 0.60695 0.57396 0.0
H2774 H 0.68818 0.62685 0.63601 0.0
H2775 H 0.74979 0.65943 0.56474 0.0
H2776 H 0.70936 0.61382 0.5978 0.0
H2777 H 0.73499 0.67192 0.60759 0.0
C2778 C 0.71838 0.66606 0.62695 0.0
C2779 C 0.70503 0.65351 0.63518 0.0
C2780 C 0.71831 0.62383 0.59062 0.0
C2781 C 0.71774 0.64526 0.60886 0.0
C2782 C 0.72428 0.61992 0.57707 0.0
C2783 C 0.73593 0.63264 0.56757 0.0
C2784 C 0.72396 0.64061 0.59467 0.0
C2785 C 0.74109 0.64925 0.57191 0.0
C2786 C 0.72474 0.66201 0.61381 0.0
C2787 C 0.69847 0.63691 0.62998 0.0
N2788 N 0.73513 0.65274 0.58517 0.0
N2789 N 0.70489 0.63326 0.61713 0.0
H2790 H 0.31819 0.0423 0.62953 0.0
H2791 H 0.39045 0.10957 0.57563 0.0
H2792 H 0.36945 0.05477 0.6334 0.0
H2793 H 0.33842 0.09127 0.5663 0.0
H2794 H 0.383 0.09031 0.59758 0.0
H2795 H 0.32529 0.06088 0.60698 0.0
C2796 C 0.33092 0.04891 0.6256 0.0
C2797 C 0.34326 0.04702 0.63333 0.0
C2798 C 0.3732 0.09054 0.59078 0.0
C2799 C 0.35149 0.06833 0.60766 0.0
C2800 C 0.37746 0.10158 0.57832 0.0
C2801 C 0.36506 0.10231 0.5694 0.0
C2802 C 0.35639 0.08005 0.59434 0.0
C2803 C 0.34838 0.09138 0.57312 0.0
C2804 C 0.33497 0.0595 0.61273 0.0
C2805 C 0.35955 0.05586 0.62776 0.0
N2806 N 0.34453 0.08077 0.58537 0.0
N2807 N 0.3632 0.06618 0.61532 0.0
H2808 H 0.95434 0.27538 0.633 0.0
H2809 H 0.88478 0.28023 0.58058 0.0
H2810 H 0.93845 0.31126 0.64161 0.0
H2811 H 0.90535 0.24896 0.56845 0.0
H2812 H 0.90301 0.29045 0.60405 0.0
H2813 H 0.93498 0.26408 0.61043 0.0
C2814 C 0.94672 0.28083 0.63018 0.0
C2815 C 0.94801 0.29429 0.63916 0.0
C2816 C 0.90346 0.28126 0.59632 0.0
C2817 C 0.92587 0.28146 0.61334 0.0
C2818 C 0.89302 0.27539 0.58298 0.0
C2819 C 0.89329 0.26346 0.57276 0.0
C2820 C 0.91437 0.27525 0.59944 0.0
C2821 C 0.9045 0.2579 0.57619 0.0
C2822 C 0.9357 0.2744 0.61727 0.0
C2823 C 0.93786 0.30088 0.63498 0.0
N2824 N 0.91454 0.26379 0.58927 0.0
N2825 N 0.92722 0.29441 0.62236 0.0
H2826 H 0.32201 0.27638 0.62604 0.0
H2827 H 0.40113 0.28324 0.5821 0.0
H2828 H 0.37156 0.30197 0.64633 0.0
H2829 H 0.35463 0.26944 0.55844 0.0
H2830 H 0.38935 0.28572 0.60717 0.0
H2831 H 0.33267 0.26921 0.60267 0.0
C2832 C 0.33511 0.28033 0.62565 0.0
C2833 C 0.34595 0.28988 0.63809 0.0
C2834 C 0.38169 0.28203 0.59651 0.0
C2835 C 0.35822 0.28176 0.61136 0.0
C2836 C 0.38839 0.28058 0.58224 0.0
C2837 C 0.37885 0.27622 0.5682 0.0
C2838 C 0.36531 0.279 0.59674 0.0
C2839 C 0.3624 0.27288 0.569 0.0
C2840 C 0.34119 0.27629 0.61228 0.0
C2841 C 0.36279 0.29467 0.63696 0.0
N2842 N 0.35617 0.27438 0.58302 0.0
N2843 N 0.36844 0.29062 0.62379 0.0
H2844 H 0.69971 0.0757 0.63954 0.0
H2845 H 0.73202 0.08628 0.55094 0.0
H2846 H 0.72259 0.0489 0.62007 0.0
H2847 H 0.7168 0.11865 0.57294 0.0
H2848 H 0.7297 0.07315 0.57645 0.0
H2849 H 0.70688 0.09234 0.61564 0.0
C2850 C 0.70638 0.07343 0.63029 0.0
C2851 C 0.71048 0.06085 0.63174 0.0
C2852 C 0.72703 0.08324 0.57576 0.0
C2853 C 0.71858 0.07972 0.60429 0.0
C2854 C 0.72837 0.09073 0.56121 0.0
C2855 C 0.72459 0.10355 0.55986 0.0
C2856 C 0.72166 0.08847 0.58903 0.0
C2857 C 0.71983 0.1088 0.57351 0.0
C2858 C 0.71048 0.08294 0.61665 0.0
C2859 C 0.71916 0.05846 0.61941 0.0
N2860 N 0.71837 0.10115 0.58749 0.0
N2861 N 0.72278 0.0677 0.60614 0.0
H2862 H 0.92215 0.65598 0.64297 0.0
H2863 H 0.91402 0.62725 0.55239 0.0
H2864 H 0.9581 0.64688 0.61976 0.0
H2865 H 0.87077 0.61046 0.58144 0.0
H2866 H 0.9317 0.64111 0.5757 0.0
H2867 H 0.90427 0.64542 0.61902 0.0
C2868 C 0.9263 0.65188 0.63281 0.0
C2869 C 0.94153 0.65217 0.63332 0.0
C2870 C 0.91833 0.63455 0.5769 0.0
C2871 C 0.92148 0.64051 0.60605 0.0
C2872 C 0.90826 0.62673 0.56362 0.0
C2873 C 0.89093 0.61779 0.56493 0.0
C2874 C 0.91102 0.63358 0.5916 0.0
C2875 C 0.88407 0.61733 0.57983 0.0
C2876 C 0.91612 0.64584 0.61924 0.0
C2877 C 0.94638 0.64672 0.61989 0.0
N2878 N 0.89416 0.62516 0.59261 0.0
N2879 N 0.93643 0.64119 0.60677 0.0
H2880 H 0.94319 0.66227 0.72115 0.0
H2881 H 0.95299 0.74241 0.76833 0.0
H2882 H 0.96841 0.71187 0.70235 0.0
H2883 H 0.93769 0.69505 0.78979 0.0
H2884 H 0.95466 0.73055 0.74273 0.0
H2885 H 0.93694 0.67322 0.74497 0.0
C2886 C 0.94727 0.67545 0.72196 0.0
C2887 C 0.95643 0.68621 0.70979 0.0
C2888 C 0.9508 0.72272 0.75301 0.0
C2889 C 0.94937 0.69884 0.73708 0.0
C2890 C 0.94981 0.72946 0.76758 0.0
C2891 C 0.94525 0.7197 0.78118 0.0
C2892 C 0.94714 0.70607 0.75202 0.0
C2893 C 0.94127 0.703 0.7796 0.0
C2894 C 0.94375 0.6817 0.73559 0.0
C2895 C 0.96138 0.70316 0.71149 0.0
N2896 N 0.94235 0.69673 0.76531 0.0
N2897 N 0.95786 0.70898 0.72492 0.0
H2898 H 0.28557 0.26045 0.70183 0.0
H2899 H 0.30748 0.24501 0.78894 0.0
H2900 H 0.33577 0.28178 0.72 0.0
H2901 H 0.25925 0.21445 0.76697 0.0
H2902 H 0.31813 0.25835 0.76359 0.0
H2903 H 0.27557 0.24312 0.72531 0.0
C2904 C 0.2945 0.26134 0.71067 0.0
C2905 C 0.31151 0.27262 0.70902 0.0
C2906 C 0.30525 0.24863 0.76426 0.0
C2907 C 0.30017 0.25302 0.73595 0.0
C2908 C 0.29918 0.24104 0.77873 0.0
C2909 C 0.28244 0.22873 0.78007 0.0
C2910 C 0.29446 0.24405 0.75105 0.0
C2911 C 0.27221 0.224 0.76645 0.0
C2912 C 0.28879 0.25146 0.72406 0.0
C2913 C 0.32254 0.27328 0.72082 0.0
N2914 N 0.27833 0.23179 0.75254 0.0
N2915 N 0.31666 0.26376 0.73386 0.0
H2916 H 0.73899 0.03117 0.69939 0.0
H2917 H 0.74978 0.06424 0.78859 0.0
H2918 H 0.71679 0.05929 0.71715 0.0
H2919 H 0.78075 0.04669 0.76819 0.0
H2920 H 0.73808 0.06316 0.76229 0.0
H2921 H 0.75505 0.03735 0.72414 0.0
C2922 C 0.73765 0.03881 0.70842 0.0
C2923 C 0.72648 0.04465 0.70626 0.0
C2924 C 0.74755 0.0597 0.76351 0.0
C2925 C 0.74462 0.05158 0.73466 0.0
C2926 C 0.75421 0.0603 0.77852 0.0
C2927 C 0.76617 0.05546 0.78055 0.0
C2928 C 0.7527 0.05398 0.75045 0.0
C2929 C 0.77148 0.05045 0.76711 0.0
C2930 C 0.74681 0.04233 0.72255 0.0
C2931 C 0.72523 0.0545 0.71834 0.0
N2932 N 0.76459 0.04967 0.75265 0.0
N2933 N 0.73405 0.0575 0.73208 0.0
H2934 H 0.05586 0.34847 0.01779 0.0
H2935 H 0.05601 0.27177 0.07492 0.0
H2936 H 0.01367 0.31047 0.04246 0.0
H2937 H 0.10873 0.32377 0.05553 0.0
H2938 H 0.03781 0.2851 0.05897 0.0
H2939 H 0.07325 0.3382 0.02964 0.0
C2940 C 0.05029 0.33803 0.02571 0.0
C2941 C 0.03332 0.3303 0.02916 0.0
C2942 C 0.05123 0.2916 0.05868 0.0
C2943 C 0.05294 0.31851 0.04249 0.0
C2944 C 0.06221 0.28267 0.06764 0.0
C2945 C 0.08485 0.29771 0.06917 0.0
C2946 C 0.06252 0.31144 0.0495 0.0
C2947 C 0.09541 0.31556 0.05553 0.0
C2948 C 0.06019 0.33222 0.03245 0.0
C2949 C 0.0267 0.31683 0.03949 0.0
N2950 N 0.0828 0.32129 0.04823 0.0
N2951 N 0.03651 0.3113 0.0457 0.0
H2952 H 0.68233 0.70901 0.01422 0.0
H2953 H 0.65663 0.75723 0.07701 0.0
H2954 H 0.64375 0.68386 0.04839 0.0
H2955 H 0.7024 0.78107 0.05124 0.0
H2956 H 0.65013 0.73043 0.0649 0.0
H2957 H 0.68825 0.73583 0.02582 0.0
C2958 C 0.67506 0.70915 0.02412 0.0
C2959 C 0.66256 0.69422 0.03039 0.0
C2960 C 0.66166 0.74151 0.06199 0.0
C2961 C 0.66923 0.7248 0.04368 0.0
C2962 C 0.6654 0.75678 0.06895 0.0
C2963 C 0.68032 0.77131 0.06546 0.0
C2964 C 0.67274 0.74081 0.05122 0.0
C2965 C 0.69096 0.7701 0.05451 0.0
C2966 C 0.67848 0.72444 0.03076 0.0
C2967 C 0.65353 0.69509 0.04323 0.0
N2968 N 0.68698 0.75512 0.0478 0.0
N2969 N 0.65702 0.71013 0.04944 0.0
H2970 H 0.29988 0.94738 0.01526 0.0
H2971 H 0.2321 0.94995 0.07123 0.0
H2972 H 0.30652 0.99144 0.04 0.0
H2973 H 0.22758 0.90384 0.05382 0.0
H2974 H 0.25924 0.96524 0.05907 0.0
H2975 H 0.27311 0.93096 0.02843 0.0
C2976 C 0.29572 0.95357 0.02346 0.0
C2977 C 0.30539 0.97079 0.02651 0.0
C2978 C 0.2524 0.95177 0.05796 0.0
C2979 C 0.27494 0.95221 0.04151 0.0
C2980 C 0.23691 0.94304 0.06494 0.0
C2981 C 0.22765 0.9256 0.06364 0.0
C2982 C 0.25868 0.94305 0.04942 0.0
C2983 C 0.23441 0.91729 0.05517 0.0
C2984 C 0.28049 0.94422 0.03098 0.0
C2985 C 0.29947 0.97821 0.03726 0.0
N2986 N 0.24951 0.9261 0.04832 0.0
N2987 N 0.28464 0.9689 0.0443 0.0
H2988 H 0.35343 0.05534 0.99657 0.0
H2989 H 0.28435 0.05574 0.93989 0.0
H2990 H 0.31809 0.01297 0.96827 0.0
H2991 H 0.32451 0.1006 0.96116 0.0
H2992 H 0.29638 0.03984 0.95086 0.0
H2993 H 0.34295 0.07225 0.98436 0.0
C2994 C 0.34353 0.04963 0.98775 0.0
C2995 C 0.33658 0.03274 0.98345 0.0
C2996 C 0.30266 0.05318 0.95306 0.0
C2997 C 0.32452 0.05189 0.96954 0.0
C2998 C 0.29579 0.06225 0.94678 0.0
C2999 C 0.30353 0.07952 0.94951 0.0
C3000 C 0.31729 0.06138 0.96232 0.0
C3001 C 0.31823 0.08731 0.95871 0.0
C3002 C 0.33757 0.05927 0.98079 0.0
C3003 C 0.32379 0.02594 0.97196 0.0
N3004 N 0.32462 0.07817 0.96484 0.0
N3005 N 0.31814 0.03551 0.96548 0.0
H3006 H 0.94636 0.293 0.99788 0.0
H3007 H 0.94764 0.21476 0.94168 0.0
H3008 H 0.98977 0.29551 0.97703 0.0
H3009 H 0.89459 0.21547 0.95789 0.0
H3010 H 0.96551 0.24591 0.95914 0.0
H3011 H 0.92926 0.26506 0.98572 0.0
C3012 C 0.95227 0.28768 0.99078 0.0
C3013 C 0.96948 0.29657 0.98841 0.0
C3014 C 0.95208 0.2393 0.95858 0.0
C3015 C 0.95018 0.26485 0.97472 0.0
C3016 C 0.94122 0.2196 0.94867 0.0
C3017 C 0.91889 0.21272 0.94567 0.0
C3018 C 0.9407 0.24823 0.96719 0.0
C3019 C 0.90783 0.22021 0.95876 0.0
C3020 C 0.94253 0.2718 0.98385 0.0
C3021 C 0.97654 0.28913 0.97912 0.0
N3022 N 0.92034 0.23829 0.96708 0.0
N3023 N 0.96687 0.27368 0.97266 0.0
H3024 H 0.71442 0.67496 0.01384 0.0
H3025 H 0.76118 0.65619 0.94424 0.0
H3026 H 0.68882 0.63767 0.97704 0.0
H3027 H 0.78495 0.69979 0.97492 0.0
H3028 H 0.73495 0.64741 0.95776 0.0
H3029 H 0.74089 0.68224 0.00156 0.0
C3030 C 0.71439 0.6682 0.00326 0.0
C3031 C 0.69942 0.65574 0.99641 0.0
C3032 C 0.74588 0.65895 0.96147 0.0
C3033 C 0.72961 0.66404 0.98226 0.0
C3034 C 0.76082 0.664 0.9537 0.0
C3035 C 0.77513 0.679 0.95817 0.0
C3036 C 0.74533 0.6688 0.97398 0.0
C3037 C 0.7741 0.68835 0.97088 0.0
C3038 C 0.72949 0.67241 0.99621 0.0
C3039 C 0.70008 0.6474 0.98268 0.0
N3040 N 0.75945 0.68313 0.97831 0.0
N3041 N 0.71493 0.65172 0.97603 0.0
H3042 H 0.98852 0.68652 0.97221 0.0
H3043 H 0.90536 0.6921 0.97333 0.0
H3044 H 0.94662 0.65582 0.00143 0.0
H3045 H 0.94975 0.72677 0.94912 0.0
H3046 H 0.91901 0.67652 0.98131 0.0
H3047 H 0.97322 0.6992 0.96118 0.0
C3048 C 0.97604 0.68236 0.97623 0.0
C3049 C 0.96885 0.67016 0.98782 0.0
C3050 C 0.92571 0.68743 0.97411 0.0
C3051 C 0.95127 0.68468 0.97527 0.0
C3052 C 0.9179 0.69626 0.9695 0.0
C3053 C 0.92636 0.71058 0.96037 0.0
C3054 C 0.94216 0.69303 0.96965 0.0
C3055 C 0.94271 0.71565 0.95596 0.0
C3056 C 0.96732 0.68963 0.96994 0.0
C3057 C 0.95264 0.66523 0.99256 0.0
N3058 N 0.95008 0.70689 0.96066 0.0
N3059 N 0.94441 0.67257 0.98631 0.0
H3060 H 0.35565 0.30625 0.99294 0.0
H3061 H 0.28165 0.23588 0.93996 0.0
H3062 H 0.32578 0.31608 0.96033 0.0
H3063 H 0.31401 0.22647 0.96941 0.0
H3064 H 0.29931 0.26576 0.94545 0.0
H3065 H 0.34244 0.27754 0.98261 0.0
C3066 C 0.3465 0.30244 0.98344 0.0
C3067 C 0.34169 0.31351 0.97757 0.0
C3068 C 0.30272 0.25721 0.95054 0.0
C3069 C 0.32639 0.28067 0.96584 0.0
C3070 C 0.29266 0.24016 0.94735 0.0
C3071 C 0.29652 0.22873 0.95409 0.0
C3072 C 0.31658 0.26286 0.96077 0.0
C3073 C 0.31073 0.23491 0.96386 0.0
C3074 C 0.33892 0.28603 0.97758 0.0
C3075 C 0.32978 0.30792 0.96527 0.0
N3076 N 0.32019 0.25154 0.967 0.0
N3077 N 0.32241 0.29185 0.95993 0.0
H3078 H 0.6927 0.01325 0.96846 0.0
H3079 H 0.77799 0.1005 0.97228 0.0
H3080 H 0.70146 0.05373 0.00037 0.0
H3081 H 0.77124 0.05711 0.94624 0.0
H3082 H 0.74885 0.08492 0.98008 0.0
H3083 H 0.72021 0.03057 0.95748 0.0
C3084 C 0.70037 0.02585 0.97307 0.0
C3085 C 0.69483 0.03204 0.98542 0.0
C3086 C 0.75368 0.07887 0.9725 0.0
C3087 C 0.72642 0.05192 0.97294 0.0
C3088 C 0.77027 0.08777 0.968 0.0
C3089 C 0.77694 0.08016 0.9584 0.0
C3090 C 0.74372 0.06219 0.96745 0.0
C3091 C 0.76652 0.06354 0.95343 0.0
C3092 C 0.7161 0.03572 0.96682 0.0
C3093 C 0.70528 0.04847 0.9909 0.0
N3094 N 0.75044 0.05511 0.95802 0.0
N3095 N 0.72062 0.05783 0.98467 0.0
H3096 H 0.64763 0.9466 0.02098 0.0
H3097 H 0.72106 0.94841 0.07286 0.0
H3098 H 0.68786 0.99129 0.04251 0.0
H3099 H 0.68112 0.90366 0.05125 0.0
H3100 H 0.70809 0.96406 0.06321 0.0
H3101 H 0.65872 0.93032 0.03325 0.0
C3102 C 0.65875 0.95297 0.02835 0.0
C3103 C 0.66689 0.97032 0.03068 0.0
C3104 C 0.70205 0.95078 0.0607 0.0
C3105 C 0.67965 0.95182 0.04472 0.0
C3106 C 0.70942 0.94186 0.06628 0.0
C3107 C 0.70201 0.92469 0.06303 0.0
C3108 C 0.68725 0.94252 0.05166 0.0
C3109 C 0.68711 0.91685 0.05416 0.0
C3110 C 0.66508 0.94368 0.03534 0.0
C3111 C 0.68123 0.97793 0.04035 0.0
N3112 N 0.68024 0.92582 0.04876 0.0
N3113 N 0.68718 0.96865 0.04696 0.0
H3114 H 0.05009 0.70542 0.01787 0.0
H3115 H 0.04889 0.77718 0.07063 0.0
H3116 H 0.00954 0.69737 0.04795 0.0
H3117 H 0.09073 0.78495 0.04274 0.0
H3118 H 0.03513 0.74738 0.06397 0.0
H3119 H 0.06611 0.73406 0.02833 0.0
C3120 C 0.04463 0.70963 0.02679 0.0
C3121 C 0.02843 0.69906 0.03198 0.0
C3122 C 0.04741 0.75555 0.05946 0.0
C3123 C 0.04659 0.73179 0.0439 0.0
C3124 C 0.05529 0.77253 0.06332 0.0
C3125 C 0.07106 0.78348 0.0574 0.0
C3126 C 0.05526 0.74948 0.0494 0.0
C3127 C 0.07865 0.77688 0.04769 0.0
C3128 C 0.05376 0.72598 0.03274 0.0
C3129 C 0.02196 0.70513 0.04356 0.0
N3130 N 0.07065 0.76033 0.04393 0.0
N3131 N 0.03101 0.72112 0.04904 0.0
H3132 H 0.30971 0.31966 0.03483 0.0
H3133 H 0.22852 0.32767 0.04491 0.0
H3134 H 0.30592 0.36155 0.01843 0.0
H3135 H 0.2332 0.2869 0.06298 0.0
H3136 H 0.25747 0.34118 0.0366 0.0
H3137 H 0.28238 0.30835 0.04667 0.0
C3138 C 0.30316 0.32653 0.03381 0.0
C3139 C 0.31004 0.34152 0.02556 0.0
C3140 C 0.25224 0.32937 0.04254 0.0
C3141 C 0.27869 0.3286 0.03903 0.0
C3142 C 0.23575 0.32169 0.04731 0.0
C3143 C 0.22854 0.30623 0.05475 0.0
C3144 C 0.26156 0.32144 0.04506 0.0
C3145 C 0.23836 0.29889 0.0574 0.0
C3146 C 0.28755 0.32007 0.04058 0.0
C3147 C 0.30103 0.34993 0.02464 0.0
N3148 N 0.25434 0.30652 0.0525 0.0
N3149 N 0.28577 0.34329 0.03121 0.0
H3150 H 0.70227 0.68098 0.38342 0.0
H3151 H 0.74645 0.61863 0.37265 0.0
H3152 H 0.70355 0.65762 0.3393 0.0
H3153 H 0.74819 0.65121 0.42339 0.0
H3154 H 0.72882 0.63352 0.35828 0.0
H3155 H 0.71941 0.67098 0.39581 0.0
C3156 C 0.70629 0.67388 0.3763 0.0
C3157 C 0.70141 0.67004 0.36033 0.0
C3158 C 0.73284 0.6362 0.37055 0.0
C3159 C 0.72084 0.65844 0.37447 0.0
C3160 C 0.74258 0.626 0.37953 0.0
C3161 C 0.75172 0.63535 0.39928 0.0
C3162 C 0.72975 0.65084 0.38193 0.0
C3163 C 0.74378 0.64667 0.41145 0.0
C3164 C 0.71607 0.66817 0.38339 0.0
C3165 C 0.70702 0.66083 0.35165 0.0
N3166 N 0.73477 0.65446 0.40078 0.0
N3167 N 0.71632 0.65519 0.35889 0.0
H3168 H 0.35622 0.03042 0.37432 0.0
H3169 H 0.33124 0.09068 0.43449 0.0
H3170 H 0.30661 0.02266 0.37822 0.0
H3171 H 0.39033 0.10574 0.41774 0.0
H3172 H 0.31999 0.0612 0.41453 0.0
H3173 H 0.36661 0.05546 0.39114 0.0
C3174 C 0.34753 0.03402 0.37869 0.0
C3175 C 0.33054 0.02447 0.37489 0.0
C3176 C 0.33309 0.07014 0.41587 0.0
C3177 C 0.3423 0.05294 0.39424 0.0
C3178 C 0.33988 0.08764 0.42897 0.0
C3179 C 0.3623 0.10314 0.42639 0.0
C3180 C 0.34809 0.06756 0.40491 0.0
C3181 C 0.37713 0.0971 0.41843 0.0
C3182 C 0.35346 0.04832 0.38826 0.0
C3183 C 0.31981 0.02972 0.38084 0.0
N3184 N 0.36808 0.08035 0.40725 0.0
N3185 N 0.32586 0.04357 0.39037 0.0
H3186 H 0.96642 0.32457 0.3573 0.0
H3187 H 0.89943 0.23511 0.38963 0.0
H3188 H 0.97401 0.28227 0.35658 0.0
H3189 H 0.89423 0.27879 0.39203 0.0
H3190 H 0.92644 0.25167 0.37705 0.0
H3191 H 0.93949 0.30746 0.36933 0.0
C3192 C 0.96238 0.31164 0.35963 0.0
C3193 C 0.97248 0.30484 0.35596 0.0
C3194 C 0.91944 0.25765 0.38043 0.0
C3195 C 0.94159 0.28512 0.36984 0.0
C3196 C 0.90409 0.24823 0.38768 0.0
C3197 C 0.89479 0.25571 0.39222 0.0
C3198 C 0.9254 0.2746 0.37754 0.0
C3199 C 0.90115 0.27263 0.38901 0.0
C3200 C 0.94699 0.30187 0.36654 0.0
C3201 C 0.9666 0.288 0.35924 0.0
N3202 N 0.91605 0.28149 0.38192 0.0
N3203 N 0.95153 0.2787 0.36603 0.0
H3204 H 0.02098 0.36826 0.29315 0.0
H3205 H 0.01021 0.44806 0.30534 0.0
H3206 H 0.01321 0.38469 0.33868 0.0
H3207 H 0.03576 0.44209 0.2656 0.0
H3208 H 0.00632 0.42191 0.31597 0.0
H3209 H 0.02155 0.39248 0.28109 0.0
C3210 C 0.01926 0.37689 0.30057 0.0
C3211 C 0.01713 0.37456 0.31693 0.0
C3212 C 0.01262 0.42625 0.30484 0.0
C3213 C 0.01767 0.4021 0.30326 0.0
C3214 C 0.01475 0.44108 0.29874 0.0
C3215 C 0.02306 0.4471 0.28445 0.0
C3216 C 0.01882 0.41732 0.29659 0.0
C3217 C 0.02903 0.43777 0.27652 0.0
C3218 C 0.01965 0.39071 0.2937 0.0
C3219 C 0.01499 0.38611 0.32603 0.0
N3220 N 0.02675 0.42331 0.28267 0.0
N3221 N 0.01529 0.39937 0.31906 0.0
H3222 H 0.62885 0.64504 0.29852 0.0
H3223 H 0.59547 0.53953 0.29859 0.0
H3224 H 0.63333 0.61919 0.33868 0.0
H3225 H 0.58671 0.57108 0.25308 0.0
H3226 H 0.61149 0.57125 0.31543 0.0
H3227 H 0.61342 0.61838 0.28412 0.0
C3228 C 0.62644 0.63373 0.30436 0.0
C3229 C 0.63243 0.63432 0.31979 0.0
C3230 C 0.60657 0.57022 0.30357 0.0
C3231 C 0.61499 0.60387 0.30333 0.0
C3232 C 0.59781 0.5509 0.29294 0.0
C3233 C 0.5868 0.55111 0.27457 0.0
C3234 C 0.60709 0.58784 0.29453 0.0
C3235 C 0.59219 0.5708 0.26434 0.0
C3236 C 0.61765 0.61853 0.29613 0.0
C3237 C 0.62893 0.61928 0.3268 0.0
N3238 N 0.60062 0.58701 0.27626 0.0
N3239 N 0.62055 0.60465 0.31844 0.0
H3240 H 0.34939 0.96087 0.32855 0.0
H3241 H 0.43585 0.02636 0.29124 0.0
H3242 H 0.36236 0.01127 0.31755 0.0
H3243 H 0.41729 0.97335 0.28966 0.0
H3244 H 0.40949 0.02121 0.30216 0.0
H3245 H 0.37469 0.96524 0.31557 0.0
C3246 C 0.35754 0.97284 0.32335 0.0
C3247 C 0.35383 0.98576 0.32415 0.0
C3248 C 0.41113 0.01068 0.29934 0.0
C3249 C 0.38277 0.99086 0.30943 0.0
C3250 C 0.42617 0.01362 0.29313 0.0
C3251 C 0.42875 0.00026 0.28957 0.0
C3252 C 0.39859 0.99426 0.30219 0.0
C3253 C 0.4158 0.98399 0.2923 0.0
C3254 C 0.37194 0.9753 0.31592 0.0
C3255 C 0.36476 0.00098 0.31719 0.0
N3256 N 0.4013 0.98145 0.29856 0.0
N3257 N 0.3788 0.00315 0.31022 0.0
H3258 H 0.64996 0.00316 0.30812 0.0
H3259 H 0.55124 0.94214 0.26777 0.0
H3260 H 0.61329 0.95516 0.32547 0.0
H3261 H 0.5941 0.00142 0.25032 0.0
H3262 H 0.57631 0.94575 0.29036 0.0
H3263 H 0.62971 0.00133 0.28831 0.0
C3264 C 0.63762 0.99229 0.30782 0.0
C3265 C 0.63328 0.97926 0.31841 0.0
C3266 C 0.57881 0.95566 0.28228 0.0
C3267 C 0.61024 0.97706 0.29578 0.0
C3268 C 0.56368 0.95281 0.26773 0.0
C3269 C 0.56892 0.97265 0.25797 0.0
C3270 C 0.59799 0.97506 0.2836 0.0
C3271 C 0.59068 0.99024 0.25688 0.0
C3272 C 0.6261 0.99126 0.29651 0.0
C3273 C 0.61714 0.96548 0.31752 0.0
N3274 N 0.60252 0.99004 0.27109 0.0
N3275 N 0.60621 0.96469 0.30631 0.0
H3276 H 0.03225 0.64518 0.32619 0.0
H3277 H 0.96232 0.5698 0.27353 0.0
H3278 H 0.99407 0.64836 0.29979 0.0
H3279 H 0.00121 0.56723 0.29917 0.0
H3280 H 0.97495 0.59929 0.28133 0.0
H3281 H 0.0223 0.61731 0.31478 0.0
C3282 C 0.02184 0.64005 0.3179 0.0
C3283 C 0.01391 0.64904 0.314 0.0
C3284 C 0.98085 0.59234 0.2851 0.0
C3285 C 0.00237 0.61712 0.30095 0.0
C3286 C 0.97368 0.57555 0.28059 0.0
C3287 C 0.98086 0.56615 0.28557 0.0
C3288 C 0.9952 0.59973 0.29482 0.0
C3289 C 0.99539 0.57409 0.29495 0.0
C3290 C 0.01615 0.62413 0.3114 0.0
C3291 C 0.0005 0.64182 0.30317 0.0
N3292 N 0.00204 0.59039 0.29932 0.0
N3293 N 0.99508 0.62624 0.2971 0.0
H3294 H 0.3523 0.34186 0.30663 0.0
H3295 H 0.43684 0.4296 0.30264 0.0
H3296 H 0.36158 0.38573 0.33352 0.0
H3297 H 0.42907 0.38485 0.27854 0.0
H3298 H 0.40841 0.41431 0.31232 0.0
H3299 H 0.37948 0.35796 0.2945 0.0
C3300 C 0.36004 0.35491 0.30993 0.0
C3301 C 0.35472 0.36247 0.32115 0.0
C3302 C 0.41285 0.40785 0.30479 0.0
C3303 C 0.38585 0.38096 0.30733 0.0
C3304 C 0.42904 0.4166 0.29922 0.0
C3305 C 0.43521 0.40853 0.2896 0.0
C3306 C 0.40277 0.39086 0.30084 0.0
C3307 C 0.4247 0.39159 0.28575 0.0
C3308 C 0.37556 0.36409 0.303 0.0
C3309 C 0.36522 0.37941 0.32496 0.0
N3310 N 0.409 0.3833 0.2914 0.0
N3311 N 0.38031 0.38807 0.31809 0.0
H3312 H 0.34434 0.32539 0.38208 0.0
H3313 H 0.34331 0.23846 0.38113 0.0
H3314 H 0.30878 0.2819 0.3552 0.0
H3315 H 0.38052 0.28271 0.40583 0.0
H3316 H 0.32879 0.25333 0.37374 0.0
H3317 H 0.35602 0.30916 0.39312 0.0
C3318 C 0.3389 0.31238 0.3786 0.0
C3319 C 0.32563 0.305 0.36763 0.0
C3320 C 0.34002 0.25975 0.38093 0.0
C3321 C 0.33899 0.28636 0.38017 0.0
C3322 C 0.34826 0.25124 0.3852 0.0
C3323 C 0.36302 0.25932 0.39425 0.0
C3324 C 0.34666 0.27653 0.38562 0.0
C3325 C 0.36907 0.27598 0.399 0.0
C3326 C 0.34559 0.30312 0.38489 0.0
C3327 C 0.31905 0.2881 0.36357 0.0
N3328 N 0.3609 0.28406 0.39458 0.0
N3329 N 0.32587 0.27937 0.36977 0.0
H3330 H 0.72133 0.03158 0.35897 0.0
H3331 H 0.71644 0.10833 0.39816 0.0
H3332 H 0.67632 0.0283 0.37643 0.0
H3333 H 0.76003 0.11359 0.37523 0.0
H3334 H 0.70254 0.07818 0.39326 0.0
H3335 H 0.73674 0.06092 0.36774 0.0
C3336 C 0.71473 0.037 0.36477 0.0
C3337 C 0.69752 0.02756 0.36689 0.0
C3338 C 0.7152 0.08589 0.38943 0.0
C3339 C 0.715 0.061 0.37692 0.0
C3340 C 0.72314 0.10307 0.39229 0.0
C3341 C 0.73943 0.1134 0.38719 0.0
C3342 C 0.72357 0.079 0.38132 0.0
C3343 C 0.7475 0.10601 0.37944 0.0
C3344 C 0.72351 0.05373 0.36973 0.0
C3345 C 0.68957 0.03517 0.37446 0.0
N3346 N 0.73947 0.08926 0.37669 0.0
N3347 N 0.69835 0.05144 0.37915 0.0
H3348 H 0.97448 0.69313 0.34541 0.0
H3349 H 0.90613 0.62419 0.40129 0.0
H3350 H 0.98298 0.65913 0.37292 0.0
H3351 H 0.899 0.66042 0.37623 0.0
H3352 H 0.93459 0.63722 0.39158 0.0
H3353 H 0.94701 0.68171 0.35706 0.0
C3354 C 0.97058 0.6833 0.35394 0.0
C3355 C 0.98099 0.67703 0.35818 0.0
C3356 C 0.92687 0.64244 0.38833 0.0
C3357 C 0.94956 0.66386 0.37153 0.0
C3358 C 0.91066 0.63504 0.39393 0.0
C3359 C 0.90032 0.64144 0.38977 0.0
C3360 C 0.9327 0.65619 0.37834 0.0
C3361 C 0.90667 0.65527 0.37989 0.0
C3362 C 0.9549 0.67678 0.3606 0.0
C3363 C 0.97533 0.6643 0.36931 0.0
N3364 N 0.92243 0.66216 0.3745 0.0
N3365 N 0.95997 0.6581 0.37555 0.0
H3366 H 0.38805 0.04772 0.69835 0.0
H3367 H 0.43639 0.99937 0.71871 0.0
H3368 H 0.36461 0.99406 0.69676 0.0
H3369 H 0.45525 0.05114 0.73116 0.0
H3370 H 0.41007 0.9971 0.71035 0.0
H3371 H 0.41295 0.04931 0.71003 0.0
C3372 C 0.38814 0.03627 0.70053 0.0
C3373 C 0.3743 0.02074 0.69653 0.0
C3374 C 0.41991 0.00893 0.71502 0.0
C3375 C 0.40276 0.02245 0.70978 0.0
C3376 C 0.43492 0.01022 0.71979 0.0
C3377 C 0.44801 0.02548 0.72556 0.0
C3378 C 0.41805 0.02306 0.71587 0.0
C3379 C 0.44547 0.03917 0.7267 0.0
C3380 C 0.40232 0.03718 0.70723 0.0
C3381 C 0.37503 0.00629 0.69966 0.0
N3382 N 0.43084 0.03767 0.72177 0.0
N3383 N 0.38909 0.00749 0.70599 0.0
H3384 H 0.00037 0.35737 0.71817 0.0
H3385 H 0.99601 0.44756 0.70457 0.0
H3386 H 0.98581 0.37006 0.67424 0.0
H3387 H 0.01362 0.43074 0.75603 0.0
H3388 H 0.99296 0.41741 0.69085 0.0
H3389 H 0.00491 0.38359 0.72999 0.0
C3390 C 0.99816 0.3657 0.711 0.0
C3391 C 0.99272 0.36156 0.69519 0.0
C3392 C 0.997 0.4209 0.70303 0.0
C3393 C 0.99788 0.3915 0.70865 0.0
C3394 C -9e-05 0.44006 0.711 0.0
C3395 C 0.00273 0.44134 0.73289 0.0
C3396 C 0.00048 0.40737 0.7154 0.0
C3397 C 0.01082 0.42932 0.74346 0.0
C3398 C 0.00075 0.38065 0.71777 0.0
C3399 C 0.99003 0.37279 0.68646 0.0
N3400 N 0.00729 0.41256 0.7337 0.0
N3401 N 0.99264 0.38729 0.69332 0.0
H3402 H 0.64091 0.65754 0.70935 0.0
H3403 H 0.56272 0.5666 0.72273 0.0
H3404 H 0.63554 0.61298 0.6868 0.0
H3405 H 0.5658 0.6123 0.73937 0.0
H3406 H 0.59048 0.5829 0.71148 0.0
H3407 H 0.61452 0.64069 0.72249 0.0
C3408 C 0.6342 0.64418 0.70721 0.0
C3409 C 0.64039 0.63665 0.69692 0.0
C3410 C 0.58512 0.58934 0.7177 0.0
C3411 C 0.6101 0.61723 0.71193 0.0
C3412 C 0.56934 0.58005 0.72416 0.0
C3413 C 0.56204 0.58811 0.73214 0.0
C3414 C 0.59364 0.60682 0.7192 0.0
C3415 C 0.57103 0.60557 0.73347 0.0
C3416 C 0.6191 0.63456 0.71471 0.0
C3417 C 0.63117 0.61929 0.69461 0.0
N3418 N 0.58633 0.61432 0.72707 0.0
N3419 N 0.61645 0.61015 0.70204 0.0
H3420 H 0.64837 0.67408 0.63535 0.0
H3421 H 0.65888 0.76443 0.62288 0.0
H3422 H 0.68645 0.71878 0.65888 0.0
H3423 H 0.61739 0.71872 0.60452 0.0
H3424 H 0.67057 0.74832 0.63439 0.0
H3425 H 0.63823 0.69063 0.62215 0.0
C3426 C 0.65463 0.6874 0.6377 0.0
C3427 C 0.66823 0.69507 0.64827 0.0
C3428 C 0.65897 0.74182 0.62776 0.0
C3429 C 0.65669 0.71411 0.6332 0.0
C3430 C 0.65235 0.75101 0.62114 0.0
C3431 C 0.63725 0.74289 0.61258 0.0
C3432 C 0.65041 0.72438 0.62584 0.0
C3433 C 0.62914 0.72547 0.61088 0.0
C3434 C 0.64883 0.69684 0.63017 0.0
C3435 C 0.67589 0.71237 0.65085 0.0
N3436 N 0.63582 0.7168 0.61744 0.0
N3437 N 0.66999 0.72131 0.64339 0.0
H3438 H 0.32358 0.96855 0.64429 0.0
H3439 H 0.22396 0.88548 0.6282 0.0
H3440 H 0.27946 0.96753 0.66139 0.0
H3441 H 0.2786 0.88781 0.61248 0.0
H3442 H 0.24497 0.91818 0.64245 0.0
H3443 H 0.30631 0.94041 0.63325 0.0
C3444 C 0.31025 0.9624 0.64571 0.0
C3445 C 0.30294 0.97037 0.65379 0.0
C3446 C 0.25039 0.91155 0.63674 0.0
C3447 C 0.28314 0.93818 0.64121 0.0
C3448 C 0.23732 0.89103 0.6289 0.0
C3449 C 0.24909 0.88391 0.61636 0.0
C3450 C 0.27245 0.92114 0.63484 0.0
C3451 C 0.27178 0.8925 0.61902 0.0
C3452 C 0.3004 0.94633 0.63942 0.0
C3453 C 0.28559 0.96182 0.65526 0.0
N3454 N 0.28112 0.91118 0.62691 0.0
N3455 N 0.27624 0.94614 0.649 0.0
H3456 H 0.04298 0.33501 0.67952 0.0
H3457 H 0.09056 0.32787 0.60465 0.0
H3458 H 0.02044 0.3215 0.63285 0.0
H3459 H 0.11647 0.36001 0.64487 0.0
H3460 H 0.06421 0.32249 0.61584 0.0
H3461 H 0.06963 0.34134 0.66809 0.0
C3462 C 0.04365 0.33337 0.66688 0.0
C3463 C 0.02953 0.32774 0.6571 0.0
C3464 C 0.07569 0.33084 0.62214 0.0
C3465 C 0.05981 0.33478 0.64402 0.0
C3466 C 0.09074 0.33396 0.61574 0.0
C3467 C 0.1058 0.34475 0.62367 0.0
C3468 C 0.07562 0.33817 0.63677 0.0
C3469 C 0.10516 0.35186 0.63826 0.0
C3470 C 0.05885 0.33704 0.66037 0.0
C3471 C 0.03106 0.32586 0.6408 0.0
N3472 N 0.09032 0.3484 0.64438 0.0
N3473 N 0.04592 0.32927 0.63478 0.0
H3474 H 0.28243 0.31872 0.66678 0.0
H3475 H 0.29146 0.38435 0.60128 0.0
H3476 H 0.32164 0.33975 0.63265 0.0
H3477 H 0.25551 0.3687 0.63849 0.0
H3478 H 0.30103 0.36603 0.61142 0.0
H3479 H 0.27049 0.33464 0.65519 0.0
C3480 C 0.2884 0.32653 0.65674 0.0
C3481 C 0.30307 0.32799 0.65069 0.0
C3482 C 0.29102 0.36654 0.61738 0.0
C3483 C 0.28961 0.34624 0.6375 0.0
C3484 C 0.28558 0.37701 0.6116 0.0
C3485 C 0.27269 0.37804 0.61907 0.0
C3486 C 0.28355 0.35697 0.63077 0.0
C3487 C 0.26548 0.36825 0.63239 0.0
C3488 C 0.28164 0.33566 0.6502 0.0
C3489 C 0.31035 0.33831 0.63773 0.0
N3490 N 0.27102 0.35811 0.63784 0.0
N3491 N 0.30359 0.34707 0.63161 0.0
H3492 H 0.69052 0.97436 0.65886 0.0
H3493 H 0.61511 0.9022 0.60804 0.0
H3494 H 0.65452 0.98168 0.63307 0.0
H3495 H 0.65212 0.89552 0.63259 0.0
H3496 H 0.63035 0.93183 0.61562 0.0
H3497 H 0.67764 0.94593 0.64796 0.0
C3498 C 0.67997 0.97001 0.65082 0.0
C3499 C 0.67352 0.98035 0.64693 0.0
C3500 C 0.63526 0.92394 0.6192 0.0
C3501 C 0.65865 0.9478 0.63446 0.0
C3502 C 0.6266 0.90706 0.61481 0.0
C3503 C 0.63251 0.89647 0.61952 0.0
C3504 C 0.64982 0.93024 0.62854 0.0
C3505 C 0.64726 0.90331 0.62856 0.0
C3506 C 0.67261 0.95377 0.6446 0.0
C3507 C 0.65985 0.97409 0.63643 0.0
N3508 N 0.65538 0.91974 0.63282 0.0
N3509 N 0.65281 0.95819 0.63063 0.0
H3510 H 0.02591 0.72212 0.6689 0.0
H3511 H 0.09789 0.72339 0.6167 0.0
H3512 H 0.0186 0.68202 0.63715 0.0
H3513 H 0.10402 0.76613 0.64349 0.0
H3514 H 0.0685 0.70838 0.62345 0.0
H3515 H 0.05428 0.7389 0.6592 0.0
C3516 C 0.03023 0.71691 0.65981 0.0
C3517 C 0.01994 0.70064 0.65388 0.0
C3518 C 0.0762 0.72112 0.6277 0.0
C3519 C 0.05232 0.71965 0.64281 0.0
C3520 C 0.09296 0.72971 0.62378 0.0
C3521 C 0.10331 0.74614 0.6293 0.0
C3522 C 0.06978 0.72889 0.63747 0.0
C3523 C 0.09637 0.75357 0.6388 0.0
C3524 C 0.04641 0.72647 0.65428 0.0
C3525 C 0.02614 0.69449 0.6421 0.0
N3526 N 0.08006 0.74488 0.64264 0.0
N3527 N 0.04195 0.70395 0.63704 0.0
H3528 H 0.00581 0.65214 0.70616 0.0
H3529 H 0.97377 0.5553 0.71892 0.0
H3530 H 0.95807 0.61243 0.68956 0.0
H3531 H 0.02135 0.59487 0.73588 0.0
H3532 H 0.96719 0.57613 0.70931 0.0
H3533 H 0.01117 0.63148 0.71836 0.0
C3534 C 0.99642 0.63907 0.70515 0.0
C3535 C 0.9815 0.63397 0.69678 0.0
C3536 C 0.97902 0.58029 0.71525 0.0
C3537 C 0.98756 0.61026 0.71066 0.0
C3538 C 0.98275 0.5684 0.72077 0.0
C3539 C 0.99804 0.57339 0.72835 0.0
C3540 C 0.99075 0.59732 0.71718 0.0
C3541 C 0.00935 0.59053 0.73024 0.0
C3542 C 0.99949 0.62729 0.71211 0.0
C3543 C 0.96976 0.6169 0.69586 0.0
N3544 N 0.00549 0.60188 0.72466 0.0
N3545 N 0.97307 0.60565 0.70266 0.0
H3546 H 0.37494 0.36571 0.68193 0.0
H3547 H 0.37682 0.41777 0.75909 0.0
H3548 H 0.34006 0.34497 0.71993 0.0
H3549 H 0.40176 0.44115 0.71607 0.0
H3550 H 0.36595 0.39047 0.7461 0.0
H3551 H 0.38789 0.393 0.69562 0.0
C3552 C 0.37014 0.36687 0.69323 0.0
C3553 C 0.3564 0.35312 0.69981 0.0
C3554 C 0.37378 0.40156 0.73948 0.0
C3555 C 0.37105 0.38414 0.71544 0.0
C3556 C 0.37994 0.41713 0.74687 0.0
C3557 C 0.39006 0.43174 0.73858 0.0
C3558 C 0.37787 0.40053 0.72371 0.0
C3559 C 0.39392 0.43019 0.72284 0.0
C3560 C 0.37746 0.38243 0.70097 0.0
C3561 C 0.3506 0.35528 0.71442 0.0
N3562 N 0.38783 0.41485 0.7159 0.0
N3563 N 0.35795 0.3705 0.72174 0.0
H3564 H 0.64812 0.9962 0.70655 0.0
H3565 H 0.57224 0.0135 0.71462 0.0
H3566 H 0.64385 0.03343 0.68011 0.0
H3567 H 0.57385 0.97296 0.73738 0.0
H3568 H 0.59955 0.02236 0.70349 0.0
H3569 H 0.62197 0.98882 0.71953 0.0
C3570 C 0.6417 0.00285 0.70351 0.0
C3571 C 0.64812 0.01541 0.6922 0.0
C3572 C 0.59401 0.0116 0.71102 0.0
C3573 C 0.61822 0.00704 0.707 0.0
C3574 C 0.57847 0.0066 0.71742 0.0
C3575 C 0.57092 0.99264 0.72713 0.0
C3576 C 0.60204 0.00251 0.71422 0.0
C3577 C 0.57938 0.98394 0.73015 0.0
C3578 C 0.62677 0.99862 0.71091 0.0
C3579 C 0.63931 0.02363 0.68873 0.0
N3580 N 0.59449 0.98902 0.72372 0.0
N3581 N 0.62479 0.01929 0.69608 0.0
loop_
_geom_bond_atom_site_label_1
_geom_bond_atom_site_label_2
_geom_bond_distance
_geom_bond_site_symmetry_2
_ccdc_geom_bond_type
In0 O1 2.294 1_455 S
In0 O2 2.326 . S
In0 O6 2.255 1_454 S
In0 O7 2.326 1_454 S
In0 O8 2.266 1_554 S
In0 O9 2.326 1_454 S
In0 O11 2.294 . S
In0 O12 2.326 . S
O1 In0 2.294 1_655 S
O1 C10 1.243 1_655 S
O2 In0 2.326 . S
O2 C10 1.246 . S
C3 O6 1.290 . S
C3 O7 1.260 . S
C4 O11 1.240 . S
C4 O12 1.252 . S
C5 O8 1.252 . S
C5 O9 1.260 1_455 S
O6 In0 2.255 1_656 S
O6 C3 1.290 . S
O7 In0 2.326 1_656 S
O7 C3 1.260 . S
O8 In0 2.266 1_556 S
O8 C5 1.252 . S
O9 In0 2.326 1_656 S
O9 C5 1.260 1_655 S
C10 O1 1.243 1_455 S
C10 O2 1.246 . S
O11 In0 2.294 . S
O11 C4 1.240 . S
O12 In0 2.326 . S
O12 C4 1.252 . S
In13 O14 2.294 . S
In13 O15 2.326 . S
In13 O19 2.266 . S
In13 O20 2.326 1_554 S
In13 O21 2.266 1_554 S
In13 O22 2.326 1_554 S
In13 O24 2.294 . S
In13 O25 2.326 . S
O14 In13 2.294 . S
O14 C23 1.240 . S
O15 In13 2.326 . S
O15 C23 1.252 . S
C16 O19 1.252 1_556 S
C16 O20 1.260 . S
C17 O24 1.240 . S
C17 O25 1.252 . S
C18 O21 1.252 . S
C18 O22 1.260 . S
O19 In13 2.266 . S
O19 C16 1.252 1_554 S
O20 In13 2.326 1_556 S
O20 C16 1.260 . S
O21 In13 2.266 1_556 S
O21 C18 1.252 . S
O22 In13 2.326 1_556 S
O22 C18 1.260 . S
C23 O14 1.240 . S
C23 O15 1.252 . S
O24 In13 2.294 . S
O24 C17 1.240 . S
O25 In13 2.326 . S
O25 C17 1.252 . S
In26 O27 2.292 . S
In26 O28 2.326 1_554 S
In26 O32 2.266 . S
In26 O33 2.326 1_545 S
In26 O34 2.266 1_545 S
In26 O35 2.326 1_545 S
In26 O37 2.294 1_544 S
In26 O38 2.326 1_554 S
O27 In26 2.292 . S
O27 C36 1.245 1_554 S
O28 In26 2.326 1_556 S
O28 C36 1.252 . S
C29 O32 1.252 . S
C29 O33 1.260 1_545 S
C30 O37 1.262 . S
C30 O38 1.210 1_565 S
C31 O34 1.252 . S
C31 O35 1.260 . S
O32 In26 2.266 . S
O32 C29 1.252 . S
O33 In26 2.326 1_565 S
O33 C29 1.260 1_565 S
O34 In26 2.266 1_565 S
O34 C31 1.252 . S
O35 In26 2.326 1_565 S
O35 C31 1.260 . S
C36 O27 1.245 1_556 S
C36 O28 1.252 . S
O37 In26 2.294 1_566 S
O37 C30 1.262 . S
O38 In26 2.326 1_556 S
O38 C30 1.210 1_545 S
In39 O40 2.293 1_554 S
In39 O41 2.326 1_454 S
In39 O45 2.265 . S
In39 O46 2.326 . S
In39 O47 2.267 1_455 S
In39 O48 2.324 . S
In39 O50 2.296 1_455 S
In39 O51 2.327 1_454 S
O40 In39 2.293 1_556 S
O40 C49 1.240 . S
O41 In39 2.326 1_656 S
O41 C49 1.252 1_655 S
C42 O45 1.252 . S
C42 O46 1.260 . S
C43 O50 1.240 1_556 S
C43 O51 1.252 . S
C44 O47 1.252 . S
C44 O48 1.260 1_655 S
O45 In39 2.265 . S
O45 C42 1.252 . S
O46 In39 2.326 . S
O46 C42 1.260 . S
O47 In39 2.267 1_655 S
O47 C44 1.252 . S
O48 In39 2.324 . S
O48 C44 1.260 1_455 S
C49 O40 1.240 . S
C49 O41 1.252 1_455 S
O50 In39 2.296 1_655 S
O50 C43 1.240 1_554 S
O51 In39 2.327 1_656 S
O51 C43 1.252 . S
In52 O53 2.294 1_554 S
In52 O54 2.326 1_554 S
In52 O58 2.266 . S
In52 O59 2.326 . S
In52 O60 2.266 . S
In52 O61 2.326 . S
In52 O63 2.294 1_554 S
In52 O64 2.326 1_554 S
O53 In52 2.294 1_556 S
O53 C62 1.240 . S
O54 In52 2.326 1_556 S
O54 C62 1.252 . S
C55 O58 1.252 . S
C55 O59 1.260 . S
C56 O63 1.240 . S
C56 O64 1.252 . S
C57 O60 1.252 . S
C57 O61 1.260 . S
O58 In52 2.266 . S
O58 C55 1.252 . S
O59 In52 2.326 . S
O59 C55 1.260 . S
O60 In52 2.266 . S
O60 C57 1.252 . S
O61 In52 2.326 . S
O61 C57 1.260 . S
C62 O53 1.240 . S
C62 O54 1.252 . S
O63 In52 2.294 1_556 S
O63 C56 1.240 . S
O64 In52 2.326 1_556 S
O64 C56 1.252 . S
In65 O66 2.293 . S
In65 O67 2.326 1_545 S
In65 O71 2.265 . S
In65 O72 2.326 1_554 S
In65 O73 2.267 1_544 S
In65 O74 2.324 1_554 S
In65 O76 2.296 1_545 S
In65 O77 2.327 1_545 S
O66 In65 2.293 . S
O66 C75 1.240 . S
O67 In65 2.326 1_565 S
O67 C75 1.252 1_565 S
C68 O71 1.252 1_556 S
C68 O72 1.260 . S
C69 O76 1.240 . S
C69 O77 1.252 . S
C70 O73 1.252 . S
C70 O74 1.260 1_565 S
O71 In65 2.265 . S
O71 C68 1.252 1_554 S
O72 In65 2.326 1_556 S
O72 C68 1.260 . S
O73 In65 2.267 1_566 S
O73 C70 1.252 . S
O74 In65 2.324 1_556 S
O74 C70 1.260 1_545 S
C75 O66 1.240 . S
C75 O67 1.252 1_545 S
O76 In65 2.296 1_565 S
O76 C69 1.240 . S
O77 In65 2.327 1_565 S
O77 C69 1.252 . S
In78 O79 2.294 . S
In78 O80 2.326 . S
In78 O84 2.266 . S
In78 O85 2.326 . S
In78 O86 2.266 . S
In78 O87 2.326 . S
In78 O89 2.294 . S
In78 O90 2.326 . S
O79 In78 2.294 . S
O79 C88 1.240 . S
O80 In78 2.326 . S
O80 C88 1.252 . S
C81 O84 1.252 . S
C81 O85 1.260 . S
C82 O89 1.240 . S
C82 O90 1.252 . S
C83 O86 1.252 . S
C83 O87 1.260 . S
O84 In78 2.266 . S
O84 C81 1.252 . S
O85 In78 2.326 . S
O85 C81 1.260 . S
O86 In78 2.266 . S
O86 C83 1.252 . S
O87 In78 2.326 . S
O87 C83 1.260 . S
C88 O79 1.240 . S
C88 O80 1.252 . S
O89 In78 2.294 . S
O89 C82 1.240 . S
O90 In78 2.326 . S
O90 C82 1.252 . S
In91 O92 2.294 . S
In91 O93 2.326 . S
In91 O97 2.266 . S
In91 O98 2.326 . S
In91 O99 2.266 . S
In91 O100 2.326 . S
In91 O102 2.294 1_565 S
In91 O103 2.326 . S
O92 In91 2.294 . S
O92 C101 1.240 . S
O93 In91 2.326 . S
O93 C101 1.252 . S
C94 O97 1.252 . S
C94 O98 1.260 . S
C95 O102 1.240 . S
C95 O103 1.252 1_545 S
C96 O99 1.252 . S
C96 O100 1.260 . S
O97 In91 2.266 . S
O97 C94 1.252 . S
O98 In91 2.326 . S
O98 C94 1.260 . S
O99 In91 2.266 . S
O99 C96 1.252 . S
O100 In91 2.326 . S
O100 C96 1.260 . S
C101 O92 1.240 . S
C101 O93 1.252 . S
O102 In91 2.294 1_545 S
O102 C95 1.240 . S
O103 In91 2.326 . S
O103 C95 1.252 1_565 S
In104 O105 2.294 . S
In104 O106 2.326 . S
In104 O110 2.266 . S
In104 O111 2.326 . S
In104 O112 2.274 . S
In104 O113 2.326 . S
In104 O115 2.294 . S
In104 O116 2.326 . S
O105 In104 2.294 . S
O105 C114 1.240 . S
O106 In104 2.326 . S
O106 C114 1.252 . S
C107 O110 1.252 . S
C107 O111 1.260 . S
C108 O115 1.240 . S
C108 O116 1.252 . S
C109 O112 1.242 1_655 S
C109 O113 1.260 1_655 S
O110 In104 2.266 . S
O110 C107 1.252 . S
O111 In104 2.326 . S
O111 C107 1.260 . S
O112 In104 2.274 . S
O112 C109 1.242 1_455 S
O113 In104 2.326 . S
O113 C109 1.260 1_455 S
C114 O105 1.240 . S
C114 O106 1.252 . S
O115 In104 2.294 . S
O115 C108 1.240 . S
O116 In104 2.326 . S
O116 C108 1.252 . S
In117 O118 2.294 . S
In117 O119 2.326 . S
In117 O123 2.266 1_565 S
In117 O124 2.345 . S
In117 O125 2.266 . S
In117 O126 2.326 . S
In117 O128 2.294 . S
In117 O129 2.326 . S
O118 In117 2.294 . S
O118 C127 1.240 . S
O119 In117 2.326 . S
O119 C127 1.252 . S
C120 O123 1.252 . S
C120 O124 1.259 1_545 S
C121 O128 1.240 . S
C121 O129 1.252 . S
C122 O125 1.252 . S
C122 O126 1.260 . S
O123 In117 2.266 1_545 S
O123 C120 1.252 . S
O124 In117 2.345 . S
O124 C120 1.259 1_565 S
O125 In117 2.266 . S
O125 C122 1.252 . S
O126 In117 2.326 . S
O126 C122 1.260 . S
C127 O118 1.240 . S
C127 O119 1.252 . S
O128 In117 2.294 . S
O128 C121 1.240 . S
O129 In117 2.326 . S
O129 C121 1.252 . S
In130 O131 2.294 . S
In130 O132 2.326 . S
In130 O136 2.266 1_455 S
In130 O137 2.326 . S
In130 O138 2.266 . S
In130 O139 2.326 . S
In130 O141 2.294 . S
In130 O142 2.326 . S
O131 In130 2.294 . S
O131 C140 1.240 . S
O132 In130 2.326 . S
O132 C140 1.252 . S
C133 O136 1.252 . S
C133 O137 1.260 1_655 S
C134 O141 1.240 . S
C134 O142 1.252 . S
C135 O138 1.252 . S
C135 O139 1.260 . S
O136 In130 2.266 1_655 S
O136 C133 1.252 . S
O137 In130 2.326 . S
O137 C133 1.260 1_455 S
O138 In130 2.266 . S
O138 C135 1.252 . S
O139 In130 2.326 . S
O139 C135 1.260 . S
C140 O131 1.240 . S
C140 O132 1.252 . S
O141 In130 2.294 . S
O141 C134 1.240 . S
O142 In130 2.326 . S
O142 C134 1.252 . S
In143 O144 2.294 . S
In143 O145 2.326 . S
In143 O149 2.266 . S
In143 O150 2.326 . S
In143 O151 2.266 . S
In143 O152 2.326 . S
In143 O154 2.294 . S
In143 O155 2.326 . S
O144 In143 2.294 . S
O144 C153 1.240 . S
O145 In143 2.326 . S
O145 C153 1.252 . S
C146 O149 1.252 . S
C146 O150 1.260 . S
C147 O154 1.240 . S
C147 O155 1.252 . S
C148 O151 1.252 . S
C148 O152 1.260 . S
O149 In143 2.266 . S
O149 C146 1.252 . S
O150 In143 2.326 . S
O150 C146 1.260 . S
O151 In143 2.266 . S
O151 C148 1.252 . S
O152 In143 2.326 . S
O152 C148 1.260 . S
C153 O144 1.240 . S
C153 O145 1.252 . S
O154 In143 2.294 . S
O154 C147 1.240 . S
O155 In143 2.326 . S
O155 C147 1.252 . S
In156 O157 2.294 . S
In156 O158 2.326 . S
In156 O162 2.266 . S
In156 O163 2.326 . S
In156 O164 2.266 1_545 S
In156 O165 2.326 . S
In156 O167 2.294 . S
In156 O168 2.326 . S
O157 In156 2.294 . S
O157 C166 1.240 . S
O158 In156 2.326 . S
O158 C166 1.252 . S
C159 O162 1.252 . S
C159 O163 1.260 . S
C160 O167 1.240 . S
C160 O168 1.252 . S
C161 O164 1.252 . S
C161 O165 1.260 1_565 S
O162 In156 2.266 . S
O162 C159 1.252 . S
O163 In156 2.326 . S
O163 C159 1.260 . S
O164 In156 2.266 1_565 S
O164 C161 1.252 . S
O165 In156 2.326 . S
O165 C161 1.260 1_545 S
C166 O157 1.240 . S
C166 O158 1.252 . S
O167 In156 2.294 . S
O167 C160 1.240 . S
O168 In156 2.326 . S
O168 C160 1.252 . S
In169 O170 2.294 . S
In169 O171 2.326 . S
In169 O175 2.266 . S
In169 O176 2.326 . S
In169 O177 2.266 1_655 S
In169 O178 2.356 . S
In169 O180 2.294 . S
In169 O181 2.326 . S
O170 In169 2.294 . S
O170 C179 1.240 . S
O171 In169 2.326 . S
O171 C179 1.252 . S
C172 O175 1.252 . S
C172 O176 1.260 . S
C173 O180 1.240 . S
C173 O181 1.252 . S
C174 O177 1.252 . S
C174 O178 1.196 1_455 S
O175 In169 2.266 . S
O175 C172 1.252 . S
O176 In169 2.326 . S
O176 C172 1.260 . S
O177 In169 2.266 1_455 S
O177 C174 1.252 . S
O178 In169 2.356 . S
O178 C174 1.196 1_655 S
C179 O170 1.240 . S
C179 O171 1.252 . S
O180 In169 2.294 . S
O180 C173 1.240 . S
O181 In169 2.326 . S
O181 C173 1.252 . S
In182 O183 2.294 . S
In182 O184 2.326 . S
In182 O188 2.266 . S
In182 O189 2.326 . S
In182 O190 2.266 . S
In182 O191 2.326 . S
In182 O193 2.294 . S
In182 O194 2.326 . S
O183 In182 2.294 . S
O183 C192 1.240 . S
O184 In182 2.326 . S
O184 C192 1.252 . S
C185 O188 1.252 . S
C185 O189 1.260 . S
C186 O193 1.240 . S
C186 O194 1.252 . S
C187 O190 1.252 . S
C187 O191 1.260 . S
O188 In182 2.266 . S
O188 C185 1.252 . S
O189 In182 2.326 . S
O189 C185 1.260 . S
O190 In182 2.266 . S
O190 C187 1.252 . S
O191 In182 2.326 . S
O191 C187 1.260 . S
C192 O183 1.240 . S
C192 O184 1.252 . S
O193 In182 2.294 . S
O193 C186 1.240 . S
O194 In182 2.326 . S
O194 C186 1.252 . S
In195 O196 2.294 . S
In195 O197 2.326 . S
In195 O201 2.266 . S
In195 O202 2.326 . S
In195 O203 2.266 . S
In195 O204 2.326 . S
In195 O206 2.294 . S
In195 O207 2.326 . S
O196 In195 2.294 . S
O196 C205 1.240 . S
O197 In195 2.326 . S
O197 C205 1.252 . S
C198 O201 1.252 . S
C198 O202 1.260 . S
C199 O206 1.240 . S
C199 O207 1.252 . S
C200 O203 1.252 . S
C200 O204 1.260 . S
O201 In195 2.266 . S
O201 C198 1.252 . S
O202 In195 2.326 . S
O202 C198 1.260 . S
O203 In195 2.266 . S
O203 C200 1.252 . S
O204 In195 2.326 . S
O204 C200 1.260 . S
C205 O196 1.240 . S
C205 O197 1.252 . S
O206 In195 2.294 . S
O206 C199 1.240 . S
O207 In195 2.326 . S
O207 C199 1.252 . S
In208 O209 2.294 . S
In208 O210 2.326 . S
In208 O214 2.266 . S
In208 O215 2.326 . S
In208 O216 2.266 . S
In208 O217 2.326 . S
In208 O219 2.294 1_545 S
In208 O220 2.326 . S
O209 In208 2.294 . S
O209 C218 1.240 . S
O210 In208 2.326 . S
O210 C218 1.252 . S
C211 O214 1.252 . S
C211 O215 1.260 . S
C212 O219 1.240 . S
C212 O220 1.252 1_565 S
C213 O216 1.252 . S
C213 O217 1.260 . S
O214 In208 2.266 . S
O214 C211 1.252 . S
O215 In208 2.326 . S
O215 C211 1.260 . S
O216 In208 2.266 . S
O216 C213 1.252 . S
O217 In208 2.326 . S
O217 C213 1.260 . S
C218 O209 1.240 . S
C218 O210 1.252 . S
O219 In208 2.294 1_565 S
O219 C212 1.240 . S
O220 In208 2.326 . S
O220 C212 1.252 1_545 S
In221 O222 2.294 . S
In221 O223 2.326 . S
In221 O227 2.266 . S
In221 O228 2.326 . S
In221 O229 2.266 1_655 S
In221 O230 2.326 . S
In221 O232 2.294 . S
In221 O233 2.326 . S
O222 In221 2.294 . S
O222 C231 1.240 . S
O223 In221 2.326 . S
O223 C231 1.252 . S
C224 O227 1.252 . S
C224 O228 1.260 . S
C225 O232 1.240 . S
C225 O233 1.252 . S
C226 O229 1.252 . S
C226 O230 1.260 1_455 S
O227 In221 2.266 . S
O227 C224 1.252 . S
O228 In221 2.326 . S
O228 C224 1.260 . S
O229 In221 2.266 1_455 S
O229 C226 1.252 . S
O230 In221 2.326 . S
O230 C226 1.260 1_655 S
C231 O222 1.240 . S
C231 O223 1.252 . S
O232 In221 2.294 . S
O232 C225 1.240 . S
O233 In221 2.326 . S
O233 C225 1.252 . S
C234 C235 1.560 . S
C234 H295 0.959 . S
C234 H296 0.959 . S
C234 H297 0.960 . S
C235 C234 1.560 . S
C235 O290 1.426 . S
C235 H294 0.980 . S
C236 C237 1.407 . S
C236 C241 1.418 . S
C236 O290 1.334 . S
C237 C236 1.407 . S
C237 C238 1.360 . S
C237 H298 0.929 . S
C238 C237 1.360 . S
C238 C239 1.401 . S
C238 C242 1.527 . S
C239 C238 1.401 . S
C239 C240 1.405 . S
C239 C272 1.587 . S
C240 C239 1.405 . S
C240 C241 1.332 . S
C240 C243 1.496 . S
C241 C236 1.418 . S
C241 C240 1.332 . S
C241 H299 0.929 . S
C242 C238 1.527 . S
C242 H300 0.959 . S
C242 H301 0.961 . S
C242 H302 0.961 . S
C243 C240 1.496 . S
C243 H303 0.960 . S
C243 H304 0.960 . S
C243 H305 0.961 . S
C244 C245 1.517 . S
C244 H307 0.961 . S
C244 H308 0.960 . S
C244 H309 0.959 . S
C245 C244 1.517 . S
C245 O293 1.468 . S
C245 H306 0.980 . S
C246 C247 1.349 . S
C246 C251 1.367 . S
C246 O293 1.408 . S
C247 C246 1.349 . S
C247 C248 1.407 . S
C247 H310 0.930 . S
C248 C247 1.407 . S
C248 C249 1.449 . S
C248 C252 1.535 . S
C249 C248 1.449 . S
C249 C250 1.384 . S
C249 C274 1.553 . S
C250 C249 1.384 . S
C250 C251 1.364 . S
C250 C253 1.450 . S
C251 C246 1.367 . S
C251 C250 1.364 . S
C251 H311 0.931 . S
C252 C248 1.535 . S
C252 H312 0.959 . S
C252 H313 0.961 . S
C252 H314 0.959 . S
C253 C250 1.450 . S
C253 H315 0.960 . S
C253 H316 0.960 . S
C253 H317 0.960 . S
C254 C255 1.309 . S
C254 C259 1.304 . S
C254 O292 1.435 . S
C255 C254 1.309 . S
C255 C256 1.476 . S
C255 H319 0.930 . S
C256 C255 1.476 . S
C256 C257 1.400 . S
C256 C260 1.567 . S
C257 C256 1.400 . S
C257 C258 1.373 . S
C257 C279 1.432 . S
C258 C257 1.373 . S
C258 C259 1.339 . S
C258 C261 1.530 . S
C259 C254 1.304 . S
C259 C258 1.339 . S
C259 H320 0.930 . S
C260 C256 1.567 . S
C260 H321 0.961 . S
C260 H322 0.960 . S
C260 H323 0.958 . S
C261 C258 1.530 . S
C261 H324 0.961 . S
C261 H325 0.960 . S
C261 H326 0.960 . S
C262 C263 1.530 . S
C262 H328 0.961 . S
C262 H329 0.961 . S
C262 H330 0.959 . S
C263 C262 1.530 . S
C263 O291 1.412 . S
C263 H327 0.980 . S
C264 C265 1.288 . S
C264 C269 1.377 . S
C264 O291 1.393 . S
C265 C264 1.288 . S
C265 C266 1.369 . S
C265 H331 0.932 . S
C266 C265 1.369 . S
C266 C267 1.398 . S
C266 C270 1.527 . S
C267 C266 1.398 . S
C267 C268 1.380 . S
C267 C281 1.497 . S
C268 C267 1.380 . S
C268 C269 1.383 . S
C268 C271 1.603 . S
C269 C264 1.377 . S
C269 C268 1.383 . S
C269 H332 0.929 . S
C270 C266 1.527 . S
C270 H333 0.961 . S
C270 H334 0.959 . S
C270 H335 0.959 . S
C271 C268 1.603 . S
C271 H336 0.960 . S
C271 H337 0.962 . S
C271 H338 0.961 . S
C272 C239 1.587 . S
C272 C273 1.360 . S
C272 C285 1.412 . S
C273 C272 1.360 . S
C273 C274 1.365 . S
C273 H339 0.929 . S
C274 C249 1.553 . S
C274 C273 1.365 . S
C274 C275 1.404 . S
C275 C274 1.404 . S
C275 C276 1.395 . S
C275 C286 1.451 . S
C276 C275 1.395 . S
C276 C277 1.322 . S
C276 H340 0.930 . S
C277 C276 1.322 . S
C277 C278 1.459 . S
C277 H341 0.929 . S
C278 C277 1.459 . S
C278 C279 1.445 . S
C278 C287 1.395 . S
C279 C257 1.432 . S
C279 C278 1.445 . S
C279 C280 1.370 . S
C280 C279 1.370 . S
C280 C281 1.438 . S
C280 H342 0.930 . S
C281 C267 1.497 . S
C281 C280 1.438 . S
C281 C282 1.360 . S
C282 C281 1.360 . S
C282 C283 1.401 . S
C282 C287 1.446 . S
C283 C282 1.401 . S
C283 C284 1.347 . S
C283 H343 0.929 . S
C284 C283 1.347 . S
C284 C285 1.455 . S
C284 H344 0.930 . S
C285 C272 1.412 . S
C285 C284 1.455 . S
C285 C286 1.331 . S
C286 C275 1.451 . S
C286 C285 1.331 . S
C286 C287 1.497 . S
C287 C278 1.395 . S
C287 C282 1.446 . S
C287 C286 1.497 . S
C288 C289 1.582 . S
C288 H345 0.962 . S
C288 H346 0.959 . S
C288 H347 0.958 . S
C289 C288 1.582 . S
C289 O292 1.458 . S
C289 H318 0.980 . S
O290 C235 1.426 . S
O290 C236 1.334 . S
O291 C263 1.412 . S
O291 C264 1.393 . S
O292 C254 1.435 . S
O292 C289 1.458 . S
O293 C245 1.468 . S
O293 C246 1.408 . S
H294 C235 0.980 . S
H295 C234 0.959 . S
H296 C234 0.959 . S
H297 C234 0.960 . S
H298 C237 0.929 . S
H299 C241 0.929 . S
H300 C242 0.959 . S
H301 C242 0.961 . S
H302 C242 0.961 . S
H303 C243 0.960 . S
H304 C243 0.960 . S
H305 C243 0.961 . S
H306 C245 0.980 . S
H307 C244 0.961 . S
H308 C244 0.960 . S
H309 C244 0.959 . S
H310 C247 0.930 . S
H311 C251 0.931 . S
H312 C252 0.959 . S
H313 C252 0.961 . S
H314 C252 0.959 . S
H315 C253 0.960 . S
H316 C253 0.960 . S
H317 C253 0.960 . S
H318 C289 0.980 . S
H319 C255 0.930 . S
H320 C259 0.930 . S
H321 C260 0.961 . S
H322 C260 0.960 . S
H323 C260 0.958 . S
H324 C261 0.961 . S
H325 C261 0.960 . S
H326 C261 0.960 . S
H327 C263 0.980 . S
H328 C262 0.961 . S
H329 C262 0.961 . S
H330 C262 0.959 . S
H331 C265 0.932 . S
H332 C269 0.929 . S
H333 C270 0.961 . S
H334 C270 0.959 . S
H335 C270 0.959 . S
H336 C271 0.960 . S
H337 C271 0.962 . S
H338 C271 0.961 . S
H339 C273 0.929 . S
H340 C276 0.930 . S
H341 C277 0.929 . S
H342 C280 0.930 . S
H343 C283 0.929 . S
H344 C284 0.930 . S
H345 C288 0.962 . S
H346 C288 0.959 . S
H347 C288 0.958 . S
C348 C349 1.560 . S
C348 H409 0.959 . S
C348 H410 0.959 . S
C348 H411 0.960 . S
C349 C348 1.560 . S
C349 O404 1.426 . S
C349 H408 0.980 . S
C350 C351 1.407 . S
C350 C355 1.418 . S
C350 O404 1.334 . S
C351 C350 1.407 . S
C351 C352 1.360 . S
C351 H412 0.929 . S
C352 C351 1.360 . S
C352 C353 1.401 . S
C352 C356 1.527 . S
C353 C352 1.401 . S
C353 C354 1.405 . S
C353 C386 1.587 . S
C354 C353 1.405 . S
C354 C355 1.332 . S
C354 C357 1.496 . S
C355 C350 1.418 . S
C355 C354 1.332 . S
C355 H413 0.929 . S
C356 C352 1.527 . S
C356 H414 0.959 . S
C356 H415 0.961 . S
C356 H416 0.961 . S
C357 C354 1.496 . S
C357 H417 0.960 . S
C357 H418 0.960 . S
C357 H419 0.961 . S
C358 C359 1.517 . S
C358 H421 0.961 . S
C358 H422 0.960 . S
C358 H423 0.959 . S
C359 C358 1.517 . S
C359 O407 1.468 . S
C359 H420 0.980 . S
C360 C361 1.349 . S
C360 C365 1.367 . S
C360 O407 1.408 . S
C361 C360 1.349 . S
C361 C362 1.407 . S
C361 H424 0.930 . S
C362 C361 1.407 . S
C362 C363 1.449 . S
C362 C366 1.535 . S
C363 C362 1.449 . S
C363 C364 1.384 . S
C363 C388 1.553 . S
C364 C363 1.384 . S
C364 C365 1.364 . S
C364 C367 1.450 . S
C365 C360 1.367 . S
C365 C364 1.364 . S
C365 H425 0.931 . S
C366 C362 1.535 . S
C366 H426 0.959 . S
C366 H427 0.961 . S
C366 H428 0.959 . S
C367 C364 1.450 . S
C367 H429 0.960 . S
C367 H430 0.960 . S
C367 H431 0.960 . S
C368 C369 1.309 . S
C368 C373 1.304 . S
C368 O406 1.435 . S
C369 C368 1.309 . S
C369 C370 1.476 . S
C369 H433 0.930 . S
C370 C369 1.476 . S
C370 C371 1.400 . S
C370 C374 1.567 . S
C371 C370 1.400 . S
C371 C372 1.373 . S
C371 C393 1.432 . S
C372 C371 1.373 . S
C372 C373 1.339 . S
C372 C375 1.530 . S
C373 C368 1.304 . S
C373 C372 1.339 . S
C373 H434 0.930 . S
C374 C370 1.567 . S
C374 H435 0.961 . S
C374 H436 0.960 . S
C374 H437 0.958 . S
C375 C372 1.530 . S
C375 H438 0.961 . S
C375 H439 0.960 . S
C375 H440 0.960 . S
C376 C377 1.530 . S
C376 H442 0.961 . S
C376 H443 0.961 . S
C376 H444 0.959 . S
C377 C376 1.530 . S
C377 O405 1.412 . S
C377 H441 0.980 . S
C378 C379 1.288 . S
C378 C383 1.377 . S
C378 O405 1.393 . S
C379 C378 1.288 . S
C379 C380 1.369 . S
C379 H445 0.932 . S
C380 C379 1.369 . S
C380 C381 1.398 . S
C380 C384 1.527 . S
C381 C380 1.398 . S
C381 C382 1.380 . S
C381 C395 1.497 . S
C382 C381 1.380 . S
C382 C383 1.383 . S
C382 C385 1.603 . S
C383 C378 1.377 . S
C383 C382 1.383 . S
C383 H446 0.929 . S
C384 C380 1.527 . S
C384 H447 0.961 . S
C384 H448 0.959 . S
C384 H449 0.959 . S
C385 C382 1.603 . S
C385 H450 0.960 . S
C385 H451 0.962 . S
C385 H452 0.961 . S
C386 C353 1.587 . S
C386 C387 1.360 . S
C386 C399 1.412 . S
C387 C386 1.360 . S
C387 C388 1.365 . S
C387 H453 0.929 . S
C388 C363 1.553 . S
C388 C387 1.365 . S
C388 C389 1.404 . S
C389 C388 1.404 . S
C389 C390 1.395 . S
C389 C400 1.451 . S
C390 C389 1.395 . S
C390 C391 1.322 . S
C390 H454 0.930 . S
C391 C390 1.322 . S
C391 C392 1.459 . S
C391 H455 0.929 . S
C392 C391 1.459 . S
C392 C393 1.445 . S
C392 C401 1.395 . S
C393 C371 1.432 . S
C393 C392 1.445 . S
C393 C394 1.370 . S
C394 C393 1.370 . S
C394 C395 1.438 . S
C394 H456 0.930 . S
C395 C381 1.497 . S
C395 C394 1.438 . S
C395 C396 1.360 . S
C396 C395 1.360 . S
C396 C397 1.401 . S
C396 C401 1.446 . S
C397 C396 1.401 . S
C397 C398 1.347 . S
C397 H457 0.929 . S
C398 C397 1.347 . S
C398 C399 1.455 . S
C398 H458 0.930 . S
C399 C386 1.412 . S
C399 C398 1.455 . S
C399 C400 1.331 . S
C400 C389 1.451 . S
C400 C399 1.331 . S
C400 C401 1.497 . S
C401 C392 1.395 . S
C401 C396 1.446 . S
C401 C400 1.497 . S
C402 C403 1.582 . S
C402 H459 0.962 . S
C402 H460 0.959 . S
C402 H461 0.958 . S
C403 C402 1.582 . S
C403 O406 1.458 . S
C403 H432 0.980 . S
O404 C349 1.426 . S
O404 C350 1.334 . S
O405 C377 1.412 . S
O405 C378 1.393 . S
O406 C368 1.435 . S
O406 C403 1.458 . S
O407 C359 1.468 . S
O407 C360 1.408 . S
H408 C349 0.980 . S
H409 C348 0.959 . S
H410 C348 0.959 . S
H411 C348 0.960 . S
H412 C351 0.929 . S
H413 C355 0.929 . S
H414 C356 0.959 . S
H415 C356 0.961 . S
H416 C356 0.961 . S
H417 C357 0.960 . S
H418 C357 0.960 . S
H419 C357 0.961 . S
H420 C359 0.980 . S
H421 C358 0.961 . S
H422 C358 0.960 . S
H423 C358 0.959 . S
H424 C361 0.930 . S
H425 C365 0.931 . S
H426 C366 0.959 . S
H427 C366 0.961 . S
H428 C366 0.959 . S
H429 C367 0.960 . S
H430 C367 0.960 . S
H431 C367 0.960 . S
H432 C403 0.980 . S
H433 C369 0.930 . S
H434 C373 0.930 . S
H435 C374 0.961 . S
H436 C374 0.960 . S
H437 C374 0.958 . S
H438 C375 0.961 . S
H439 C375 0.960 . S
H440 C375 0.960 . S
H441 C377 0.980 . S
H442 C376 0.961 . S
H443 C376 0.961 . S
H444 C376 0.959 . S
H445 C379 0.932 . S
H446 C383 0.929 . S
H447 C384 0.961 . S
H448 C384 0.959 . S
H449 C384 0.959 . S
H450 C385 0.960 . S
H451 C385 0.962 . S
H452 C385 0.961 . S
H453 C387 0.929 . S
H454 C390 0.930 . S
H455 C391 0.929 . S
H456 C394 0.930 . S
H457 C397 0.929 . S
H458 C398 0.930 . S
H459 C402 0.962 . S
H460 C402 0.959 . S
H461 C402 0.958 . S
C462 C463 1.560 . S
C462 H523 0.959 . S
C462 H524 0.959 . S
C462 H525 0.960 . S
C463 C462 1.560 . S
C463 O518 1.426 . S
C463 H522 0.980 . S
C464 C465 1.407 . S
C464 C469 1.418 . S
C464 O518 1.334 . S
C465 C464 1.407 . S
C465 C466 1.360 . S
C465 H526 0.929 . S
C466 C465 1.360 . S
C466 C467 1.401 . S
C466 C470 1.527 . S
C467 C466 1.401 . S
C467 C468 1.405 . S
C467 C500 1.587 . S
C468 C467 1.405 . S
C468 C469 1.332 . S
C468 C471 1.496 . S
C469 C464 1.418 . S
C469 C468 1.332 . S
C469 H527 0.929 . S
C470 C466 1.527 . S
C470 H528 0.959 . S
C470 H529 0.961 . S
C470 H530 0.961 . S
C471 C468 1.496 . S
C471 H531 0.960 . S
C471 H532 0.960 . S
C471 H533 0.961 . S
C472 C473 1.517 . S
C472 H535 0.961 . S
C472 H536 0.960 . S
C472 H537 0.959 . S
C473 C472 1.517 . S
C473 O521 1.468 . S
C473 H534 0.980 . S
C474 C475 1.349 . S
C474 C479 1.367 . S
C474 O521 1.408 . S
C475 C474 1.349 . S
C475 C476 1.407 . S
C475 H538 0.930 . S
C476 C475 1.407 . S
C476 C477 1.449 . S
C476 C480 1.535 . S
C477 C476 1.449 . S
C477 C478 1.384 . S
C477 C502 1.553 . S
C478 C477 1.384 . S
C478 C479 1.364 . S
C478 C481 1.450 . S
C479 C474 1.367 . S
C479 C478 1.364 . S
C479 H539 0.931 . S
C480 C476 1.535 . S
C480 H540 0.959 . S
C480 H541 0.961 . S
C480 H542 0.959 . S
C481 C478 1.450 . S
C481 H543 0.960 . S
C481 H544 0.960 . S
C481 H545 0.960 . S
C482 C483 1.309 . S
C482 C487 1.304 . S
C482 O520 1.435 . S
C483 C482 1.309 . S
C483 C484 1.476 . S
C483 H547 0.930 . S
C484 C483 1.476 . S
C484 C485 1.400 . S
C484 C488 1.567 . S
C485 C484 1.400 . S
C485 C486 1.373 . S
C485 C507 1.432 . S
C486 C485 1.373 . S
C486 C487 1.339 . S
C486 C489 1.530 . S
C487 C482 1.304 . S
C487 C486 1.339 . S
C487 H548 0.930 . S
C488 C484 1.567 . S
C488 H549 0.961 . S
C488 H550 0.960 . S
C488 H551 0.958 . S
C489 C486 1.530 . S
C489 H552 0.961 . S
C489 H553 0.960 . S
C489 H554 0.960 . S
C490 C491 1.530 . S
C490 H556 0.961 . S
C490 H557 0.961 . S
C490 H558 0.959 . S
C491 C490 1.530 . S
C491 O519 1.412 . S
C491 H555 0.980 . S
C492 C493 1.288 . S
C492 C497 1.377 . S
C492 O519 1.393 . S
C493 C492 1.288 . S
C493 C494 1.369 . S
C493 H559 0.932 . S
C494 C493 1.369 . S
C494 C495 1.398 . S
C494 C498 1.527 . S
C495 C494 1.398 . S
C495 C496 1.380 . S
C495 C509 1.497 . S
C496 C495 1.380 . S
C496 C497 1.383 . S
C496 C499 1.603 . S
C497 C492 1.377 . S
C497 C496 1.383 . S
C497 H560 0.929 . S
C498 C494 1.527 . S
C498 H561 0.961 . S
C498 H562 0.959 . S
C498 H563 0.959 . S
C499 C496 1.603 . S
C499 H564 0.960 . S
C499 H565 0.962 . S
C499 H566 0.961 . S
C500 C467 1.587 . S
C500 C501 1.360 . S
C500 C513 1.412 . S
C501 C500 1.360 . S
C501 C502 1.365 . S
C501 H567 0.929 . S
C502 C477 1.553 . S
C502 C501 1.365 . S
C502 C503 1.404 . S
C503 C502 1.404 . S
C503 C504 1.395 . S
C503 C514 1.451 . S
C504 C503 1.395 . S
C504 C505 1.322 . S
C504 H568 0.930 . S
C505 C504 1.322 . S
C505 C506 1.459 . S
C505 H569 0.929 . S
C506 C505 1.459 . S
C506 C507 1.445 . S
C506 C515 1.395 . S
C507 C485 1.432 . S
C507 C506 1.445 . S
C507 C508 1.370 . S
C508 C507 1.370 . S
C508 C509 1.438 . S
C508 H570 0.930 . S
C509 C495 1.497 . S
C509 C508 1.438 . S
C509 C510 1.360 . S
C510 C509 1.360 . S
C510 C511 1.401 . S
C510 C515 1.446 . S
C511 C510 1.401 . S
C511 C512 1.347 . S
C511 H571 0.929 . S
C512 C511 1.347 . S
C512 C513 1.455 . S
C512 H572 0.930 . S
C513 C500 1.412 . S
C513 C512 1.455 . S
C513 C514 1.331 . S
C514 C503 1.451 . S
C514 C513 1.331 . S
C514 C515 1.497 . S
C515 C506 1.395 . S
C515 C510 1.446 . S
C515 C514 1.497 . S
C516 C517 1.582 . S
C516 H573 0.962 . S
C516 H574 0.959 . S
C516 H575 0.958 . S
C517 C516 1.582 . S
C517 O520 1.458 . S
C517 H546 0.980 . S
O518 C463 1.426 . S
O518 C464 1.334 . S
O519 C491 1.412 . S
O519 C492 1.393 . S
O520 C482 1.435 . S
O520 C517 1.458 . S
O521 C473 1.468 . S
O521 C474 1.408 . S
H522 C463 0.980 . S
H523 C462 0.959 . S
H524 C462 0.959 . S
H525 C462 0.960 . S
H526 C465 0.929 . S
H527 C469 0.929 . S
H528 C470 0.959 . S
H529 C470 0.961 . S
H530 C470 0.961 . S
H531 C471 0.960 . S
H532 C471 0.960 . S
H533 C471 0.961 . S
H534 C473 0.980 . S
H535 C472 0.961 . S
H536 C472 0.960 . S
H537 C472 0.959 . S
H538 C475 0.930 . S
H539 C479 0.931 . S
H540 C480 0.959 . S
H541 C480 0.961 . S
H542 C480 0.959 . S
H543 C481 0.960 . S
H544 C481 0.960 . S
H545 C481 0.960 . S
H546 C517 0.980 . S
H547 C483 0.930 . S
H548 C487 0.930 . S
H549 C488 0.961 . S
H550 C488 0.960 . S
H551 C488 0.958 . S
H552 C489 0.961 . S
H553 C489 0.960 . S
H554 C489 0.960 . S
H555 C491 0.980 . S
H556 C490 0.961 . S
H557 C490 0.961 . S
H558 C490 0.959 . S
H559 C493 0.932 . S
H560 C497 0.929 . S
H561 C498 0.961 . S
H562 C498 0.959 . S
H563 C498 0.959 . S
H564 C499 0.960 . S
H565 C499 0.962 . S
H566 C499 0.961 . S
H567 C501 0.929 . S
H568 C504 0.930 . S
H569 C505 0.929 . S
H570 C508 0.930 . S
H571 C511 0.929 . S
H572 C512 0.930 . S
H573 C516 0.962 . S
H574 C516 0.959 . S
H575 C516 0.958 . S
C576 C577 1.560 . S
C576 H637 0.959 . S
C576 H638 0.959 . S
C576 H639 0.960 . S
C577 C576 1.560 . S
C577 O632 1.426 . S
C577 H636 0.980 . S
C578 C579 1.407 . S
C578 C583 1.418 . S
C578 O632 1.334 . S
C579 C578 1.407 . S
C579 C580 1.360 . S
C579 H640 0.929 . S
C580 C579 1.360 . S
C580 C581 1.401 . S
C580 C584 1.527 . S
C581 C580 1.401 . S
C581 C582 1.405 . S
C581 C614 1.587 . S
C582 C581 1.405 . S
C582 C583 1.332 . S
C582 C585 1.496 . S
C583 C578 1.418 . S
C583 C582 1.332 . S
C583 H641 0.929 . S
C584 C580 1.527 . S
C584 H642 0.959 . S
C584 H643 0.961 . S
C584 H644 0.961 . S
C585 C582 1.496 . S
C585 H645 0.960 . S
C585 H646 0.960 . S
C585 H647 0.961 . S
C586 C587 1.517 . S
C586 H649 0.961 . S
C586 H650 0.960 . S
C586 H651 0.959 . S
C587 C586 1.517 . S
C587 O635 1.468 . S
C587 H648 0.980 . S
C588 C589 1.349 . S
C588 C593 1.367 . S
C588 O635 1.408 . S
C589 C588 1.349 . S
C589 C590 1.407 . S
C589 H652 0.930 . S
C590 C589 1.407 . S
C590 C591 1.449 . S
C590 C594 1.535 . S
C591 C590 1.449 . S
C591 C592 1.384 . S
C591 C616 1.553 . S
C592 C591 1.384 . S
C592 C593 1.364 . S
C592 C595 1.450 . S
C593 C588 1.367 . S
C593 C592 1.364 . S
C593 H653 0.931 . S
C594 C590 1.535 . S
C594 H654 0.959 . S
C594 H655 0.961 . S
C594 H656 0.959 . S
C595 C592 1.450 . S
C595 H657 0.960 . S
C595 H658 0.960 . S
C595 H659 0.960 . S
C596 C597 1.309 . S
C596 C601 1.304 . S
C596 O634 1.435 . S
C597 C596 1.309 . S
C597 C598 1.476 . S
C597 H661 0.930 . S
C598 C597 1.476 . S
C598 C599 1.400 . S
C598 C602 1.567 . S
C599 C598 1.400 . S
C599 C600 1.373 . S
C599 C621 1.432 . S
C600 C599 1.373 . S
C600 C601 1.339 . S
C600 C603 1.530 . S
C601 C596 1.304 . S
C601 C600 1.339 . S
C601 H662 0.930 . S
C602 C598 1.567 . S
C602 H663 0.961 . S
C602 H664 0.960 . S
C602 H665 0.958 . S
C603 C600 1.530 . S
C603 H666 0.961 . S
C603 H667 0.960 . S
C603 H668 0.960 . S
C604 C605 1.530 . S
C604 H670 0.961 . S
C604 H671 0.961 . S
C604 H672 0.959 . S
C605 C604 1.530 . S
C605 O633 1.412 . S
C605 H669 0.980 . S
C606 C607 1.288 . S
C606 C611 1.377 . S
C606 O633 1.393 . S
C607 C606 1.288 . S
C607 C608 1.369 . S
C607 H673 0.932 . S
C608 C607 1.369 . S
C608 C609 1.398 . S
C608 C612 1.527 . S
C609 C608 1.398 . S
C609 C610 1.380 . S
C609 C623 1.497 . S
C610 C609 1.380 . S
C610 C611 1.383 . S
C610 C613 1.603 . S
C611 C606 1.377 . S
C611 C610 1.383 . S
C611 H674 0.929 . S
C612 C608 1.527 . S
C612 H675 0.961 . S
C612 H676 0.959 . S
C612 H677 0.959 . S
C613 C610 1.603 . S
C613 H678 0.960 . S
C613 H679 0.962 . S
C613 H680 0.961 . S
C614 C581 1.587 . S
C614 C615 1.360 . S
C614 C627 1.412 . S
C615 C614 1.360 . S
C615 C616 1.365 . S
C615 H681 0.929 . S
C616 C591 1.553 . S
C616 C615 1.365 . S
C616 C617 1.404 . S
C617 C616 1.404 . S
C617 C618 1.395 . S
C617 C628 1.451 . S
C618 C617 1.395 . S
C618 C619 1.322 . S
C618 H682 0.930 . S
C619 C618 1.322 . S
C619 C620 1.459 . S
C619 H683 0.929 . S
C620 C619 1.459 . S
C620 C621 1.445 . S
C620 C629 1.395 . S
C621 C599 1.432 . S
C621 C620 1.445 . S
C621 C622 1.370 . S
C622 C621 1.370 . S
C622 C623 1.438 . S
C622 H684 0.930 . S
C623 C609 1.497 . S
C623 C622 1.438 . S
C623 C624 1.360 . S
C624 C623 1.360 . S
C624 C625 1.401 . S
C624 C629 1.446 . S
C625 C624 1.401 . S
C625 C626 1.347 . S
C625 H685 0.929 . S
C626 C625 1.347 . S
C626 C627 1.455 . S
C626 H686 0.930 . S
C627 C614 1.412 . S
C627 C626 1.455 . S
C627 C628 1.331 . S
C628 C617 1.451 . S
C628 C627 1.331 . S
C628 C629 1.497 . S
C629 C620 1.395 . S
C629 C624 1.446 . S
C629 C628 1.497 . S
C630 C631 1.582 . S
C630 H687 0.962 . S
C630 H688 0.959 . S
C630 H689 0.958 . S
C631 C630 1.582 . S
C631 O634 1.458 . S
C631 H660 0.980 . S
O632 C577 1.426 . S
O632 C578 1.334 . S
O633 C605 1.412 . S
O633 C606 1.393 . S
O634 C596 1.435 . S
O634 C631 1.458 . S
O635 C587 1.468 . S
O635 C588 1.408 . S
H636 C577 0.980 . S
H637 C576 0.959 . S
H638 C576 0.959 . S
H639 C576 0.960 . S
H640 C579 0.929 . S
H641 C583 0.929 . S
H642 C584 0.959 . S
H643 C584 0.961 . S
H644 C584 0.961 . S
H645 C585 0.960 . S
H646 C585 0.960 . S
H647 C585 0.961 . S
H648 C587 0.980 . S
H649 C586 0.961 . S
H650 C586 0.960 . S
H651 C586 0.959 . S
H652 C589 0.930 . S
H653 C593 0.931 . S
H654 C594 0.959 . S
H655 C594 0.961 . S
H656 C594 0.959 . S
H657 C595 0.960 . S
H658 C595 0.960 . S
H659 C595 0.960 . S
H660 C631 0.980 . S
H661 C597 0.930 . S
H662 C601 0.930 . S
H663 C602 0.961 . S
H664 C602 0.960 . S
H665 C602 0.958 . S
H666 C603 0.961 . S
H667 C603 0.960 . S
H668 C603 0.960 . S
H669 C605 0.980 . S
H670 C604 0.961 . S
H671 C604 0.961 . S
H672 C604 0.959 . S
H673 C607 0.932 . S
H674 C611 0.929 . S
H675 C612 0.961 . S
H676 C612 0.959 . S
H677 C612 0.959 . S
H678 C613 0.960 . S
H679 C613 0.962 . S
H680 C613 0.961 . S
H681 C615 0.929 . S
H682 C618 0.930 . S
H683 C619 0.929 . S
H684 C622 0.930 . S
H685 C625 0.929 . S
H686 C626 0.930 . S
H687 C630 0.962 . S
H688 C630 0.959 . S
H689 C630 0.958 . S
C690 C691 1.560 . S
C690 H751 0.959 . S
C690 H752 0.959 . S
C690 H753 0.960 . S
C691 C690 1.560 . S
C691 O746 1.426 . S
C691 H750 0.980 . S
C692 C693 1.407 . S
C692 C697 1.418 . S
C692 O746 1.334 . S
C693 C692 1.407 . S
C693 C694 1.360 . S
C693 H754 0.929 . S
C694 C693 1.360 . S
C694 C695 1.401 . S
C694 C698 1.527 . S
C695 C694 1.401 . S
C695 C696 1.405 . S
C695 C728 1.587 . S
C696 C695 1.405 . S
C696 C697 1.332 . S
C696 C699 1.496 . S
C697 C692 1.418 . S
C697 C696 1.332 . S
C697 H755 0.929 . S
C698 C694 1.527 . S
C698 H756 0.959 . S
C698 H757 0.961 . S
C698 H758 0.961 . S
C699 C696 1.496 . S
C699 H759 0.960 . S
C699 H760 0.960 . S
C699 H761 0.961 . S
C700 C701 1.517 . S
C700 H763 0.961 . S
C700 H764 0.960 . S
C700 H765 0.959 . S
C701 C700 1.517 . S
C701 O749 1.468 . S
C701 H762 0.980 . S
C702 C703 1.349 . S
C702 C707 1.367 . S
C702 O749 1.408 . S
C703 C702 1.349 . S
C703 C704 1.407 . S
C703 H766 0.930 . S
C704 C703 1.407 . S
C704 C705 1.449 . S
C704 C708 1.535 . S
C705 C704 1.449 . S
C705 C706 1.384 . S
C705 C730 1.553 . S
C706 C705 1.384 . S
C706 C707 1.364 . S
C706 C709 1.450 . S
C707 C702 1.367 . S
C707 C706 1.364 . S
C707 H767 0.931 . S
C708 C704 1.535 . S
C708 H768 0.959 . S
C708 H769 0.961 . S
C708 H770 0.959 . S
C709 C706 1.450 . S
C709 H771 0.960 . S
C709 H772 0.960 . S
C709 H773 0.960 . S
C710 C711 1.309 . S
C710 C715 1.304 . S
C710 O748 1.435 . S
C711 C710 1.309 . S
C711 C712 1.476 . S
C711 H775 0.930 . S
C712 C711 1.476 . S
C712 C713 1.400 . S
C712 C716 1.567 . S
C713 C712 1.400 . S
C713 C714 1.373 . S
C713 C735 1.432 . S
C714 C713 1.373 . S
C714 C715 1.339 . S
C714 C717 1.530 . S
C715 C710 1.304 . S
C715 C714 1.339 . S
C715 H776 0.930 . S
C716 C712 1.567 . S
C716 H777 0.961 . S
C716 H778 0.960 . S
C716 H779 0.958 . S
C717 C714 1.530 . S
C717 H780 0.961 . S
C717 H781 0.960 . S
C717 H782 0.960 . S
C718 C719 1.530 . S
C718 H784 0.961 . S
C718 H785 0.961 . S
C718 H786 0.959 . S
C719 C718 1.530 . S
C719 O747 1.412 . S
C719 H783 0.980 . S
C720 C721 1.288 . S
C720 C725 1.377 . S
C720 O747 1.393 . S
C721 C720 1.288 . S
C721 C722 1.369 . S
C721 H787 0.932 . S
C722 C721 1.369 . S
C722 C723 1.398 . S
C722 C726 1.527 . S
C723 C722 1.398 . S
C723 C724 1.380 . S
C723 C737 1.497 . S
C724 C723 1.380 . S
C724 C725 1.383 . S
C724 C727 1.603 . S
C725 C720 1.377 . S
C725 C724 1.383 . S
C725 H788 0.929 . S
C726 C722 1.527 . S
C726 H789 0.961 . S
C726 H790 0.959 . S
C726 H791 0.959 . S
C727 C724 1.603 . S
C727 H792 0.960 . S
C727 H793 0.962 . S
C727 H794 0.961 . S
C728 C695 1.587 . S
C728 C729 1.360 . S
C728 C741 1.412 . S
C729 C728 1.360 . S
C729 C730 1.365 . S
C729 H795 0.929 . S
C730 C705 1.553 . S
C730 C729 1.365 . S
C730 C731 1.404 . S
C731 C730 1.404 . S
C731 C732 1.395 . S
C731 C742 1.451 . S
C732 C731 1.395 . S
C732 C733 1.322 . S
C732 H796 0.930 . S
C733 C732 1.322 . S
C733 C734 1.459 . S
C733 H797 0.929 . S
C734 C733 1.459 . S
C734 C735 1.445 . S
C734 C743 1.395 . S
C735 C713 1.432 . S
C735 C734 1.445 . S
C735 C736 1.370 . S
C736 C735 1.370 . S
C736 C737 1.438 . S
C736 H798 0.930 . S
C737 C723 1.497 . S
C737 C736 1.438 . S
C737 C738 1.360 . S
C738 C737 1.360 . S
C738 C739 1.401 . S
C738 C743 1.446 . S
C739 C738 1.401 . S
C739 C740 1.347 . S
C739 H799 0.929 . S
C740 C739 1.347 . S
C740 C741 1.455 . S
C740 H800 0.930 . S
C741 C728 1.412 . S
C741 C740 1.455 . S
C741 C742 1.331 . S
C742 C731 1.451 . S
C742 C741 1.331 . S
C742 C743 1.497 . S
C743 C734 1.395 . S
C743 C738 1.446 . S
C743 C742 1.497 . S
C744 C745 1.582 . S
C744 H801 0.962 . S
C744 H802 0.959 . S
C744 H803 0.958 . S
C745 C744 1.582 . S
C745 O748 1.458 . S
C745 H774 0.980 . S
O746 C691 1.426 . S
O746 C692 1.334 . S
O747 C719 1.412 . S
O747 C720 1.393 . S
O748 C710 1.435 . S
O748 C745 1.458 . S
O749 C701 1.468 . S
O749 C702 1.408 . S
H750 C691 0.980 . S
H751 C690 0.959 . S
H752 C690 0.959 . S
H753 C690 0.960 . S
H754 C693 0.929 . S
H755 C697 0.929 . S
H756 C698 0.959 . S
H757 C698 0.961 . S
H758 C698 0.961 . S
H759 C699 0.960 . S
H760 C699 0.960 . S
H761 C699 0.961 . S
H762 C701 0.980 . S
H763 C700 0.961 . S
H764 C700 0.960 . S
H765 C700 0.959 . S
H766 C703 0.930 . S
H767 C707 0.931 . S
H768 C708 0.959 . S
H769 C708 0.961 . S
H770 C708 0.959 . S
H771 C709 0.960 . S
H772 C709 0.960 . S
H773 C709 0.960 . S
H774 C745 0.980 . S
H775 C711 0.930 . S
H776 C715 0.930 . S
H777 C716 0.961 . S
H778 C716 0.960 . S
H779 C716 0.958 . S
H780 C717 0.961 . S
H781 C717 0.960 . S
H782 C717 0.960 . S
H783 C719 0.980 . S
H784 C718 0.961 . S
H785 C718 0.961 . S
H786 C718 0.959 . S
H787 C721 0.932 . S
H788 C725 0.929 . S
H789 C726 0.961 . S
H790 C726 0.959 . S
H791 C726 0.959 . S
H792 C727 0.960 . S
H793 C727 0.962 . S
H794 C727 0.961 . S
H795 C729 0.929 . S
H796 C732 0.930 . S
H797 C733 0.929 . S
H798 C736 0.930 . S
H799 C739 0.929 . S
H800 C740 0.930 . S
H801 C744 0.962 . S
H802 C744 0.959 . S
H803 C744 0.958 . S
C804 C805 1.560 . S
C804 H865 0.959 . S
C804 H866 0.959 . S
C804 H867 0.960 . S
C805 C804 1.560 . S
C805 O860 1.426 . S
C805 H864 0.980 . S
C806 C807 1.407 . S
C806 C811 1.418 . S
C806 O860 1.334 . S
C807 C806 1.407 . S
C807 C808 1.360 . S
C807 H868 0.929 . S
C808 C807 1.360 . S
C808 C809 1.401 . S
C808 C812 1.527 . S
C809 C808 1.401 . S
C809 C810 1.405 . S
C809 C842 1.587 . S
C810 C809 1.405 . S
C810 C811 1.332 . S
C810 C813 1.496 . S
C811 C806 1.418 . S
C811 C810 1.332 . S
C811 H869 0.929 . S
C812 C808 1.527 . S
C812 H870 0.959 . S
C812 H871 0.961 . S
C812 H872 0.961 . S
C813 C810 1.496 . S
C813 H873 0.960 . S
C813 H874 0.960 . S
C813 H875 0.961 . S
C814 C815 1.517 . S
C814 H877 0.961 . S
C814 H878 0.960 . S
C814 H879 0.959 . S
C815 C814 1.517 . S
C815 O863 1.468 . S
C815 H876 0.980 . S
C816 C817 1.349 . S
C816 C821 1.367 . S
C816 O863 1.408 . S
C817 C816 1.349 . S
C817 C818 1.407 . S
C817 H880 0.930 . S
C818 C817 1.407 . S
C818 C819 1.449 . S
C818 C822 1.535 . S
C819 C818 1.449 . S
C819 C820 1.384 . S
C819 C844 1.553 . S
C820 C819 1.384 . S
C820 C821 1.364 . S
C820 C823 1.450 . S
C821 C816 1.367 . S
C821 C820 1.364 . S
C821 H881 0.931 . S
C822 C818 1.535 . S
C822 H882 0.959 . S
C822 H883 0.961 . S
C822 H884 0.959 . S
C823 C820 1.450 . S
C823 H885 0.960 . S
C823 H886 0.960 . S
C823 H887 0.960 . S
C824 C825 1.309 . S
C824 C829 1.304 . S
C824 O862 1.435 . S
C825 C824 1.309 . S
C825 C826 1.476 . S
C825 H889 0.930 . S
C826 C825 1.476 . S
C826 C827 1.400 . S
C826 C830 1.567 . S
C827 C826 1.400 . S
C827 C828 1.373 . S
C827 C849 1.432 . S
C828 C827 1.373 . S
C828 C829 1.339 . S
C828 C831 1.530 . S
C829 C824 1.304 . S
C829 C828 1.339 . S
C829 H890 0.930 . S
C830 C826 1.567 . S
C830 H891 0.961 . S
C830 H892 0.960 . S
C830 H893 0.958 . S
C831 C828 1.530 . S
C831 H894 0.961 . S
C831 H895 0.960 . S
C831 H896 0.960 . S
C832 C833 1.530 . S
C832 H898 0.961 . S
C832 H899 0.961 . S
C832 H900 0.959 . S
C833 C832 1.530 . S
C833 O861 1.412 . S
C833 H897 0.980 . S
C834 C835 1.288 . S
C834 C839 1.377 . S
C834 O861 1.393 . S
C835 C834 1.288 . S
C835 C836 1.369 . S
C835 H901 0.932 . S
C836 C835 1.369 . S
C836 C837 1.398 . S
C836 C840 1.527 . S
C837 C836 1.398 . S
C837 C838 1.380 . S
C837 C851 1.497 . S
C838 C837 1.380 . S
C838 C839 1.383 . S
C838 C841 1.603 . S
C839 C834 1.377 . S
C839 C838 1.383 . S
C839 H902 0.929 . S
C840 C836 1.527 . S
C840 H903 0.961 . S
C840 H904 0.959 . S
C840 H905 0.959 . S
C841 C838 1.603 . S
C841 H906 0.960 . S
C841 H907 0.962 . S
C841 H908 0.961 . S
C842 C809 1.587 . S
C842 C843 1.360 . S
C842 C855 1.412 . S
C843 C842 1.360 . S
C843 C844 1.365 . S
C843 H909 0.929 . S
C844 C819 1.553 . S
C844 C843 1.365 . S
C844 C845 1.404 . S
C845 C844 1.404 . S
C845 C846 1.395 . S
C845 C856 1.451 . S
C846 C845 1.395 . S
C846 C847 1.322 . S
C846 H910 0.930 . S
C847 C846 1.322 . S
C847 C848 1.459 . S
C847 H911 0.929 . S
C848 C847 1.459 . S
C848 C849 1.445 . S
C848 C857 1.395 . S
C849 C827 1.432 . S
C849 C848 1.445 . S
C849 C850 1.370 . S
C850 C849 1.370 . S
C850 C851 1.438 . S
C850 H912 0.930 . S
C851 C837 1.497 . S
C851 C850 1.438 . S
C851 C852 1.360 . S
C852 C851 1.360 . S
C852 C853 1.401 . S
C852 C857 1.446 . S
C853 C852 1.401 . S
C853 C854 1.347 . S
C853 H913 0.929 . S
C854 C853 1.347 . S
C854 C855 1.455 . S
C854 H914 0.930 . S
C855 C842 1.412 . S
C855 C854 1.455 . S
C855 C856 1.331 . S
C856 C845 1.451 . S
C856 C855 1.331 . S
C856 C857 1.497 . S
C857 C848 1.395 . S
C857 C852 1.446 . S
C857 C856 1.497 . S
C858 C859 1.582 . S
C858 H915 0.962 . S
C858 H916 0.959 . S
C858 H917 0.958 . S
C859 C858 1.582 . S
C859 O862 1.458 . S
C859 H888 0.980 . S
O860 C805 1.426 . S
O860 C806 1.334 . S
O861 C833 1.412 . S
O861 C834 1.393 . S
O862 C824 1.435 . S
O862 C859 1.458 . S
O863 C815 1.468 . S
O863 C816 1.408 . S
H864 C805 0.980 . S
H865 C804 0.959 . S
H866 C804 0.959 . S
H867 C804 0.960 . S
H868 C807 0.929 . S
H869 C811 0.929 . S
H870 C812 0.959 . S
H871 C812 0.961 . S
H872 C812 0.961 . S
H873 C813 0.960 . S
H874 C813 0.960 . S
H875 C813 0.961 . S
H876 C815 0.980 . S
H877 C814 0.961 . S
H878 C814 0.960 . S
H879 C814 0.959 . S
H880 C817 0.930 . S
H881 C821 0.931 . S
H882 C822 0.959 . S
H883 C822 0.961 . S
H884 C822 0.959 . S
H885 C823 0.960 . S
H886 C823 0.960 . S
H887 C823 0.960 . S
H888 C859 0.980 . S
H889 C825 0.930 . S
H890 C829 0.930 . S
H891 C830 0.961 . S
H892 C830 0.960 . S
H893 C830 0.958 . S
H894 C831 0.961 . S
H895 C831 0.960 . S
H896 C831 0.960 . S
H897 C833 0.980 . S
H898 C832 0.961 . S
H899 C832 0.961 . S
H900 C832 0.959 . S
H901 C835 0.932 . S
H902 C839 0.929 . S
H903 C840 0.961 . S
H904 C840 0.959 . S
H905 C840 0.959 . S
H906 C841 0.960 . S
H907 C841 0.962 . S
H908 C841 0.961 . S
H909 C843 0.929 . S
H910 C846 0.930 . S
H911 C847 0.929 . S
H912 C850 0.930 . S
H913 C853 0.929 . S
H914 C854 0.930 . S
H915 C858 0.962 . S
H916 C858 0.959 . S
H917 C858 0.958 . S
C918 C919 1.560 . S
C918 H979 0.959 . S
C918 H980 0.959 . S
C918 H981 0.960 . S
C919 C918 1.560 . S
C919 O974 1.426 . S
C919 H978 0.980 . S
C920 C921 1.407 . S
C920 C925 1.418 . S
C920 O974 1.334 . S
C921 C920 1.407 . S
C921 C922 1.360 . S
C921 H982 0.929 . S
C922 C921 1.360 . S
C922 C923 1.401 . S
C922 C926 1.527 . S
C923 C922 1.401 . S
C923 C924 1.405 . S
C923 C956 1.587 . S
C924 C923 1.405 . S
C924 C925 1.332 . S
C924 C927 1.496 . S
C925 C920 1.418 . S
C925 C924 1.332 . S
C925 H983 0.929 . S
C926 C922 1.527 . S
C926 H984 0.959 . S
C926 H985 0.961 . S
C926 H986 0.961 . S
C927 C924 1.496 . S
C927 H987 0.960 . S
C927 H988 0.960 . S
C927 H989 0.961 . S
C928 C929 1.517 . S
C928 H991 0.961 . S
C928 H992 0.960 . S
C928 H993 0.959 . S
C929 C928 1.517 . S
C929 O977 1.468 . S
C929 H990 0.980 . S
C930 C931 1.349 . S
C930 C935 1.367 . S
C930 O977 1.408 . S
C931 C930 1.349 . S
C931 C932 1.407 . S
C931 H994 0.930 . S
C932 C931 1.407 . S
C932 C933 1.449 . S
C932 C936 1.535 . S
C933 C932 1.449 . S
C933 C934 1.384 . S
C933 C958 1.553 . S
C934 C933 1.384 . S
C934 C935 1.364 . S
C934 C937 1.450 . S
C935 C930 1.367 . S
C935 C934 1.364 . S
C935 H995 0.931 . S
C936 C932 1.535 . S
C936 H996 0.959 . S
C936 H997 0.961 . S
C936 H998 0.959 . S
C937 C934 1.450 . S
C937 H999 0.960 . S
C937 H1000 0.960 . S
C937 H1001 0.960 . S
C938 C939 1.309 . S
C938 C943 1.304 . S
C938 O976 1.435 . S
C939 C938 1.309 . S
C939 C940 1.476 . S
C939 H1003 0.930 . S
C940 C939 1.476 . S
C940 C941 1.400 . S
C940 C944 1.567 . S
C941 C940 1.400 . S
C941 C942 1.373 . S
C941 C963 1.432 . S
C942 C941 1.373 . S
C942 C943 1.339 . S
C942 C945 1.530 . S
C943 C938 1.304 . S
C943 C942 1.339 . S
C943 H1004 0.930 . S
C944 C940 1.567 . S
C944 H1005 0.961 . S
C944 H1006 0.960 . S
C944 H1007 0.958 . S
C945 C942 1.530 . S
C945 H1008 0.961 . S
C945 H1009 0.960 . S
C945 H1010 0.960 . S
C946 C947 1.530 . S
C946 H1012 0.961 . S
C946 H1013 0.961 . S
C946 H1014 0.959 . S
C947 C946 1.530 . S
C947 O975 1.412 . S
C947 H1011 0.980 . S
C948 C949 1.288 . S
C948 C953 1.377 . S
C948 O975 1.393 . S
C949 C948 1.288 . S
C949 C950 1.369 . S
C949 H1015 0.932 . S
C950 C949 1.369 . S
C950 C951 1.398 . S
C950 C954 1.527 . S
C951 C950 1.398 . S
C951 C952 1.380 . S
C951 C965 1.497 . S
C952 C951 1.380 . S
C952 C953 1.383 . S
C952 C955 1.603 . S
C953 C948 1.377 . S
C953 C952 1.383 . S
C953 H1016 0.929 . S
C954 C950 1.527 . S
C954 H1017 0.961 . S
C954 H1018 0.959 . S
C954 H1019 0.959 . S
C955 C952 1.603 . S
C955 H1020 0.960 . S
C955 H1021 0.962 . S
C955 H1022 0.961 . S
C956 C923 1.587 . S
C956 C957 1.360 . S
C956 C969 1.412 . S
C957 C956 1.360 . S
C957 C958 1.365 . S
C957 H1023 0.929 . S
C958 C933 1.553 . S
C958 C957 1.365 . S
C958 C959 1.404 . S
C959 C958 1.404 . S
C959 C960 1.395 . S
C959 C970 1.451 . S
C960 C959 1.395 . S
C960 C961 1.322 . S
C960 H1024 0.930 . S
C961 C960 1.322 . S
C961 C962 1.459 . S
C961 H1025 0.929 . S
C962 C961 1.459 . S
C962 C963 1.445 . S
C962 C971 1.395 . S
C963 C941 1.432 . S
C963 C962 1.445 . S
C963 C964 1.370 . S
C964 C963 1.370 . S
C964 C965 1.438 . S
C964 H1026 0.930 . S
C965 C951 1.497 . S
C965 C964 1.438 . S
C965 C966 1.360 . S
C966 C965 1.360 . S
C966 C967 1.401 . S
C966 C971 1.446 . S
C967 C966 1.401 . S
C967 C968 1.347 . S
C967 H1027 0.929 . S
C968 C967 1.347 . S
C968 C969 1.455 . S
C968 H1028 0.930 . S
C969 C956 1.412 . S
C969 C968 1.455 . S
C969 C970 1.331 . S
C970 C959 1.451 . S
C970 C969 1.331 . S
C970 C971 1.497 . S
C971 C962 1.395 . S
C971 C966 1.446 . S
C971 C970 1.497 . S
C972 C973 1.582 . S
C972 H1029 0.962 . S
C972 H1030 0.959 . S
C972 H1031 0.958 . S
C973 C972 1.582 . S
C973 O976 1.458 . S
C973 H1002 0.980 . S
O974 C919 1.426 . S
O974 C920 1.334 . S
O975 C947 1.412 . S
O975 C948 1.393 . S
O976 C938 1.435 . S
O976 C973 1.458 . S
O977 C929 1.468 . S
O977 C930 1.408 . S
H978 C919 0.980 . S
H979 C918 0.959 . S
H980 C918 0.959 . S
H981 C918 0.960 . S
H982 C921 0.929 . S
H983 C925 0.929 . S
H984 C926 0.959 . S
H985 C926 0.961 . S
H986 C926 0.961 . S
H987 C927 0.960 . S
H988 C927 0.960 . S
H989 C927 0.961 . S
H990 C929 0.980 . S
H991 C928 0.961 . S
H992 C928 0.960 . S
H993 C928 0.959 . S
H994 C931 0.930 . S
H995 C935 0.931 . S
H996 C936 0.959 . S
H997 C936 0.961 . S
H998 C936 0.959 . S
H999 C937 0.960 . S
H1000 C937 0.960 . S
H1001 C937 0.960 . S
H1002 C973 0.980 . S
H1003 C939 0.930 . S
H1004 C943 0.930 . S
H1005 C944 0.961 . S
H1006 C944 0.960 . S
H1007 C944 0.958 . S
H1008 C945 0.961 . S
H1009 C945 0.960 . S
H1010 C945 0.960 . S
H1011 C947 0.980 . S
H1012 C946 0.961 . S
H1013 C946 0.961 . S
H1014 C946 0.959 . S
H1015 C949 0.932 . S
H1016 C953 0.929 . S
H1017 C954 0.961 . S
H1018 C954 0.959 . S
H1019 C954 0.959 . S
H1020 C955 0.960 . S
H1021 C955 0.962 . S
H1022 C955 0.961 . S
H1023 C957 0.929 . S
H1024 C960 0.930 . S
H1025 C961 0.929 . S
H1026 C964 0.930 . S
H1027 C967 0.929 . S
H1028 C968 0.930 . S
H1029 C972 0.962 . S
H1030 C972 0.959 . S
H1031 C972 0.958 . S
C1032 C1033 1.560 . S
C1032 H1093 0.959 . S
C1032 H1094 0.959 . S
C1032 H1095 0.960 . S
C1033 C1032 1.560 . S
C1033 O1088 1.426 . S
C1033 H1092 0.980 . S
C1034 C1035 1.407 . S
C1034 C1039 1.418 . S
C1034 O1088 1.334 . S
C1035 C1034 1.407 . S
C1035 C1036 1.360 . S
C1035 H1096 0.929 . S
C1036 C1035 1.360 . S
C1036 C1037 1.401 . S
C1036 C1040 1.527 . S
C1037 C1036 1.401 . S
C1037 C1038 1.405 . S
C1037 C1070 1.587 . S
C1038 C1037 1.405 . S
C1038 C1039 1.332 . S
C1038 C1041 1.496 . S
C1039 C1034 1.418 . S
C1039 C1038 1.332 . S
C1039 H1097 0.929 . S
C1040 C1036 1.527 . S
C1040 H1098 0.959 . S
C1040 H1099 0.961 . S
C1040 H1100 0.961 . S
C1041 C1038 1.496 . S
C1041 H1101 0.960 . S
C1041 H1102 0.960 . S
C1041 H1103 0.961 . S
C1042 C1043 1.517 . S
C1042 H1105 0.961 . S
C1042 H1106 0.960 . S
C1042 H1107 0.959 . S
C1043 C1042 1.517 . S
C1043 O1091 1.468 . S
C1043 H1104 0.980 . S
C1044 C1045 1.349 . S
C1044 C1049 1.367 . S
C1044 O1091 1.408 . S
C1045 C1044 1.349 . S
C1045 C1046 1.407 . S
C1045 H1108 0.930 . S
C1046 C1045 1.407 . S
C1046 C1047 1.449 . S
C1046 C1050 1.535 . S
C1047 C1046 1.449 . S
C1047 C1048 1.384 . S
C1047 C1072 1.553 . S
C1048 C1047 1.384 . S
C1048 C1049 1.364 . S
C1048 C1051 1.450 . S
C1049 C1044 1.367 . S
C1049 C1048 1.364 . S
C1049 H1109 0.931 . S
C1050 C1046 1.535 . S
C1050 H1110 0.959 . S
C1050 H1111 0.961 . S
C1050 H1112 0.959 . S
C1051 C1048 1.450 . S
C1051 H1113 0.960 . S
C1051 H1114 0.960 . S
C1051 H1115 0.960 . S
C1052 C1053 1.309 . S
C1052 C1057 1.304 . S
C1052 O1090 1.435 . S
C1053 C1052 1.309 . S
C1053 C1054 1.476 . S
C1053 H1117 0.930 . S
C1054 C1053 1.476 . S
C1054 C1055 1.400 . S
C1054 C1058 1.567 . S
C1055 C1054 1.400 . S
C1055 C1056 1.373 . S
C1055 C1077 1.432 . S
C1056 C1055 1.373 . S
C1056 C1057 1.339 . S
C1056 C1059 1.530 . S
C1057 C1052 1.304 . S
C1057 C1056 1.339 . S
C1057 H1118 0.930 . S
C1058 C1054 1.567 . S
C1058 H1119 0.961 . S
C1058 H1120 0.960 . S
C1058 H1121 0.958 . S
C1059 C1056 1.530 . S
C1059 H1122 0.961 . S
C1059 H1123 0.960 . S
C1059 H1124 0.960 . S
C1060 C1061 1.530 . S
C1060 H1126 0.961 . S
C1060 H1127 0.961 . S
C1060 H1128 0.959 . S
C1061 C1060 1.530 . S
C1061 O1089 1.412 . S
C1061 H1125 0.980 . S
C1062 C1063 1.288 . S
C1062 C1067 1.377 . S
C1062 O1089 1.393 . S
C1063 C1062 1.288 . S
C1063 C1064 1.369 . S
C1063 H1129 0.932 . S
C1064 C1063 1.369 . S
C1064 C1065 1.398 . S
C1064 C1068 1.527 . S
C1065 C1064 1.398 . S
C1065 C1066 1.380 . S
C1065 C1079 1.497 . S
C1066 C1065 1.380 . S
C1066 C1067 1.383 . S
C1066 C1069 1.603 . S
C1067 C1062 1.377 . S
C1067 C1066 1.383 . S
C1067 H1130 0.929 . S
C1068 C1064 1.527 . S
C1068 H1131 0.961 . S
C1068 H1132 0.959 . S
C1068 H1133 0.959 . S
C1069 C1066 1.603 . S
C1069 H1134 0.960 . S
C1069 H1135 0.962 . S
C1069 H1136 0.961 . S
C1070 C1037 1.587 . S
C1070 C1071 1.360 . S
C1070 C1083 1.412 . S
C1071 C1070 1.360 . S
C1071 C1072 1.365 . S
C1071 H1137 0.929 . S
C1072 C1047 1.553 . S
C1072 C1071 1.365 . S
C1072 C1073 1.404 . S
C1073 C1072 1.404 . S
C1073 C1074 1.395 . S
C1073 C1084 1.451 . S
C1074 C1073 1.395 . S
C1074 C1075 1.322 . S
C1074 H1138 0.930 . S
C1075 C1074 1.322 . S
C1075 C1076 1.459 . S
C1075 H1139 0.929 . S
C1076 C1075 1.459 . S
C1076 C1077 1.445 . S
C1076 C1085 1.395 . S
C1077 C1055 1.432 . S
C1077 C1076 1.445 . S
C1077 C1078 1.370 . S
C1078 C1077 1.370 . S
C1078 C1079 1.438 . S
C1078 H1140 0.930 . S
C1079 C1065 1.497 . S
C1079 C1078 1.438 . S
C1079 C1080 1.360 . S
C1080 C1079 1.360 . S
C1080 C1081 1.401 . S
C1080 C1085 1.446 . S
C1081 C1080 1.401 . S
C1081 C1082 1.347 . S
C1081 H1141 0.929 . S
C1082 C1081 1.347 . S
C1082 C1083 1.455 . S
C1082 H1142 0.930 . S
C1083 C1070 1.412 . S
C1083 C1082 1.455 . S
C1083 C1084 1.331 . S
C1084 C1073 1.451 . S
C1084 C1083 1.331 . S
C1084 C1085 1.497 . S
C1085 C1076 1.395 . S
C1085 C1080 1.446 . S
C1085 C1084 1.497 . S
C1086 C1087 1.582 . S
C1086 H1143 0.962 . S
C1086 H1144 0.959 . S
C1086 H1145 0.958 . S
C1087 C1086 1.582 . S
C1087 O1090 1.458 . S
C1087 H1116 0.980 . S
O1088 C1033 1.426 . S
O1088 C1034 1.334 . S
O1089 C1061 1.412 . S
O1089 C1062 1.393 . S
O1090 C1052 1.435 . S
O1090 C1087 1.458 . S
O1091 C1043 1.468 . S
O1091 C1044 1.408 . S
H1092 C1033 0.980 . S
H1093 C1032 0.959 . S
H1094 C1032 0.959 . S
H1095 C1032 0.960 . S
H1096 C1035 0.929 . S
H1097 C1039 0.929 . S
H1098 C1040 0.959 . S
H1099 C1040 0.961 . S
H1100 C1040 0.961 . S
H1101 C1041 0.960 . S
H1102 C1041 0.960 . S
H1103 C1041 0.961 . S
H1104 C1043 0.980 . S
H1105 C1042 0.961 . S
H1106 C1042 0.960 . S
H1107 C1042 0.959 . S
H1108 C1045 0.930 . S
H1109 C1049 0.931 . S
H1110 C1050 0.959 . S
H1111 C1050 0.961 . S
H1112 C1050 0.959 . S
H1113 C1051 0.960 . S
H1114 C1051 0.960 . S
H1115 C1051 0.960 . S
H1116 C1087 0.980 . S
H1117 C1053 0.930 . S
H1118 C1057 0.930 . S
H1119 C1058 0.961 . S
H1120 C1058 0.960 . S
H1121 C1058 0.958 . S
H1122 C1059 0.961 . S
H1123 C1059 0.960 . S
H1124 C1059 0.960 . S
H1125 C1061 0.980 . S
H1126 C1060 0.961 . S
H1127 C1060 0.961 . S
H1128 C1060 0.959 . S
H1129 C1063 0.932 . S
H1130 C1067 0.929 . S
H1131 C1068 0.961 . S
H1132 C1068 0.959 . S
H1133 C1068 0.959 . S
H1134 C1069 0.960 . S
H1135 C1069 0.962 . S
H1136 C1069 0.961 . S
H1137 C1071 0.929 . S
H1138 C1074 0.930 . S
H1139 C1075 0.929 . S
H1140 C1078 0.930 . S
H1141 C1081 0.929 . S
H1142 C1082 0.930 . S
H1143 C1086 0.962 . S
H1144 C1086 0.959 . S
H1145 C1086 0.958 . S
C1146 C1147 1.560 . S
C1146 H1207 0.959 . S
C1146 H1208 0.959 . S
C1146 H1209 0.960 . S
C1147 C1146 1.560 . S
C1147 O1202 1.426 . S
C1147 H1206 0.980 . S
C1148 C1149 1.407 . S
C1148 C1153 1.418 . S
C1148 O1202 1.334 . S
C1149 C1148 1.407 . S
C1149 C1150 1.360 . S
C1149 H1210 0.929 . S
C1150 C1149 1.360 . S
C1150 C1151 1.401 . S
C1150 C1154 1.527 . S
C1151 C1150 1.401 . S
C1151 C1152 1.405 . S
C1151 C1184 1.587 . S
C1152 C1151 1.405 . S
C1152 C1153 1.332 . S
C1152 C1155 1.496 . S
C1153 C1148 1.418 . S
C1153 C1152 1.332 . S
C1153 H1211 0.929 . S
C1154 C1150 1.527 . S
C1154 H1212 0.959 . S
C1154 H1213 0.961 . S
C1154 H1214 0.961 . S
C1155 C1152 1.496 . S
C1155 H1215 0.960 . S
C1155 H1216 0.960 . S
C1155 H1217 0.961 . S
C1156 C1157 1.517 . S
C1156 H1219 0.961 . S
C1156 H1220 0.960 . S
C1156 H1221 0.959 . S
C1157 C1156 1.517 . S
C1157 O1205 1.468 . S
C1157 H1218 0.980 . S
C1158 C1159 1.349 . S
C1158 C1163 1.367 . S
C1158 O1205 1.408 . S
C1159 C1158 1.349 . S
C1159 C1160 1.407 . S
C1159 H1222 0.930 . S
C1160 C1159 1.407 . S
C1160 C1161 1.449 . S
C1160 C1164 1.535 . S
C1161 C1160 1.449 . S
C1161 C1162 1.384 . S
C1161 C1186 1.553 . S
C1162 C1161 1.384 . S
C1162 C1163 1.364 . S
C1162 C1165 1.450 . S
C1163 C1158 1.367 . S
C1163 C1162 1.364 . S
C1163 H1223 0.931 . S
C1164 C1160 1.535 . S
C1164 H1224 0.959 . S
C1164 H1225 0.961 . S
C1164 H1226 0.959 . S
C1165 C1162 1.450 . S
C1165 H1227 0.960 . S
C1165 H1228 0.960 . S
C1165 H1229 0.960 . S
C1166 C1167 1.309 . S
C1166 C1171 1.304 . S
C1166 O1204 1.435 . S
C1167 C1166 1.309 . S
C1167 C1168 1.476 . S
C1167 H1231 0.930 . S
C1168 C1167 1.476 . S
C1168 C1169 1.400 . S
C1168 C1172 1.567 . S
C1169 C1168 1.400 . S
C1169 C1170 1.373 . S
C1169 C1191 1.432 . S
C1170 C1169 1.373 . S
C1170 C1171 1.339 . S
C1170 C1173 1.530 . S
C1171 C1166 1.304 . S
C1171 C1170 1.339 . S
C1171 H1232 0.930 . S
C1172 C1168 1.567 . S
C1172 H1233 0.961 . S
C1172 H1234 0.960 . S
C1172 H1235 0.958 . S
C1173 C1170 1.530 . S
C1173 H1236 0.961 . S
C1173 H1237 0.960 . S
C1173 H1238 0.960 . S
C1174 C1175 1.530 . S
C1174 H1240 0.961 . S
C1174 H1241 0.961 . S
C1174 H1242 0.959 . S
C1175 C1174 1.530 . S
C1175 O1203 1.412 . S
C1175 H1239 0.980 . S
C1176 C1177 1.288 . S
C1176 C1181 1.377 . S
C1176 O1203 1.393 . S
C1177 C1176 1.288 . S
C1177 C1178 1.369 . S
C1177 H1243 0.932 . S
C1178 C1177 1.369 . S
C1178 C1179 1.398 . S
C1178 C1182 1.527 . S
C1179 C1178 1.398 . S
C1179 C1180 1.380 . S
C1179 C1193 1.497 . S
C1180 C1179 1.380 . S
C1180 C1181 1.383 . S
C1180 C1183 1.603 . S
C1181 C1176 1.377 . S
C1181 C1180 1.383 . S
C1181 H1244 0.929 . S
C1182 C1178 1.527 . S
C1182 H1245 0.961 . S
C1182 H1246 0.959 . S
C1182 H1247 0.959 . S
C1183 C1180 1.603 . S
C1183 H1248 0.960 . S
C1183 H1249 0.962 . S
C1183 H1250 0.961 . S
C1184 C1151 1.587 . S
C1184 C1185 1.360 . S
C1184 C1197 1.412 . S
C1185 C1184 1.360 . S
C1185 C1186 1.365 . S
C1185 H1251 0.929 . S
C1186 C1161 1.553 . S
C1186 C1185 1.365 . S
C1186 C1187 1.404 . S
C1187 C1186 1.404 . S
C1187 C1188 1.395 . S
C1187 C1198 1.451 . S
C1188 C1187 1.395 . S
C1188 C1189 1.322 . S
C1188 H1252 0.930 . S
C1189 C1188 1.322 . S
C1189 C1190 1.459 . S
C1189 H1253 0.929 . S
C1190 C1189 1.459 . S
C1190 C1191 1.445 . S
C1190 C1199 1.395 . S
C1191 C1169 1.432 . S
C1191 C1190 1.445 . S
C1191 C1192 1.370 . S
C1192 C1191 1.370 . S
C1192 C1193 1.438 . S
C1192 H1254 0.930 . S
C1193 C1179 1.497 . S
C1193 C1192 1.438 . S
C1193 C1194 1.360 . S
C1194 C1193 1.360 . S
C1194 C1195 1.401 . S
C1194 C1199 1.446 . S
C1195 C1194 1.401 . S
C1195 C1196 1.347 . S
C1195 H1255 0.929 . S
C1196 C1195 1.347 . S
C1196 C1197 1.455 . S
C1196 H1256 0.930 . S
C1197 C1184 1.412 . S
C1197 C1196 1.455 . S
C1197 C1198 1.331 . S
C1198 C1187 1.451 . S
C1198 C1197 1.331 . S
C1198 C1199 1.497 . S
C1199 C1190 1.395 . S
C1199 C1194 1.446 . S
C1199 C1198 1.497 . S
C1200 C1201 1.582 . S
C1200 H1257 0.962 . S
C1200 H1258 0.959 . S
C1200 H1259 0.958 . S
C1201 C1200 1.582 . S
C1201 O1204 1.458 . S
C1201 H1230 0.980 . S
O1202 C1147 1.426 . S
O1202 C1148 1.334 . S
O1203 C1175 1.412 . S
O1203 C1176 1.393 . S
O1204 C1166 1.435 . S
O1204 C1201 1.458 . S
O1205 C1157 1.468 . S
O1205 C1158 1.408 . S
H1206 C1147 0.980 . S
H1207 C1146 0.959 . S
H1208 C1146 0.959 . S
H1209 C1146 0.960 . S
H1210 C1149 0.929 . S
H1211 C1153 0.929 . S
H1212 C1154 0.959 . S
H1213 C1154 0.961 . S
H1214 C1154 0.961 . S
H1215 C1155 0.960 . S
H1216 C1155 0.960 . S
H1217 C1155 0.961 . S
H1218 C1157 0.980 . S
H1219 C1156 0.961 . S
H1220 C1156 0.960 . S
H1221 C1156 0.959 . S
H1222 C1159 0.930 . S
H1223 C1163 0.931 . S
H1224 C1164 0.959 . S
H1225 C1164 0.961 . S
H1226 C1164 0.959 . S
H1227 C1165 0.960 . S
H1228 C1165 0.960 . S
H1229 C1165 0.960 . S
H1230 C1201 0.980 . S
H1231 C1167 0.930 . S
H1232 C1171 0.930 . S
H1233 C1172 0.961 . S
H1234 C1172 0.960 . S
H1235 C1172 0.958 . S
H1236 C1173 0.961 . S
H1237 C1173 0.960 . S
H1238 C1173 0.960 . S
H1239 C1175 0.980 . S
H1240 C1174 0.961 . S
H1241 C1174 0.961 . S
H1242 C1174 0.959 . S
H1243 C1177 0.932 . S
H1244 C1181 0.929 . S
H1245 C1182 0.961 . S
H1246 C1182 0.959 . S
H1247 C1182 0.959 . S
H1248 C1183 0.960 . S
H1249 C1183 0.962 . S
H1250 C1183 0.961 . S
H1251 C1185 0.929 . S
H1252 C1188 0.930 . S
H1253 C1189 0.929 . S
H1254 C1192 0.930 . S
H1255 C1195 0.929 . S
H1256 C1196 0.930 . S
H1257 C1200 0.962 . S
H1258 C1200 0.959 . S
H1259 C1200 0.958 . S
C1260 C1261 1.560 . S
C1260 H1321 0.959 . S
C1260 H1322 0.959 . S
C1260 H1323 0.960 . S
C1261 C1260 1.560 . S
C1261 O1316 1.426 . S
C1261 H1320 0.980 . S
C1262 C1263 1.407 1_455 S
C1262 C1267 1.418 . S
C1262 O1316 1.334 . S
C1263 C1262 1.407 1_655 S
C1263 C1264 1.360 . S
C1263 H1324 0.929 . S
C1264 C1263 1.360 . S
C1264 C1265 1.401 1_655 S
C1264 C1268 1.527 . S
C1265 C1264 1.401 1_455 S
C1265 C1266 1.405 . S
C1265 C1298 1.587 1_455 S
C1266 C1265 1.405 . S
C1266 C1267 1.332 . S
C1266 C1269 1.496 . S
C1267 C1262 1.418 . S
C1267 C1266 1.332 . S
C1267 H1325 0.929 . S
C1268 C1264 1.527 . S
C1268 H1326 0.959 . S
C1268 H1327 0.961 . S
C1268 H1328 0.961 . S
C1269 C1266 1.496 . S
C1269 H1329 0.960 . S
C1269 H1330 0.960 . S
C1269 H1331 0.961 . S
C1270 C1271 1.517 . S
C1270 H1333 0.964 1_655 S
C1270 H1334 0.960 . S
C1270 H1335 0.959 . S
C1271 C1270 1.517 . S
C1271 O1319 1.468 . S
C1271 H1332 0.980 1_655 S
C1272 C1273 1.349 . S
C1272 C1277 1.367 . S
C1272 O1319 1.408 . S
C1273 C1272 1.349 . S
C1273 C1274 1.407 1_655 S
C1273 H1336 0.930 1_655 S
C1274 C1273 1.407 1_455 S
C1274 C1275 1.449 1_455 S
C1274 C1278 1.535 . S
C1275 C1274 1.449 1_655 S
C1275 C1276 1.384 . S
C1275 C1300 1.553 . S
C1276 C1275 1.384 . S
C1276 C1277 1.364 . S
C1276 C1279 1.450 . S
C1277 C1272 1.367 . S
C1277 C1276 1.364 . S
C1277 H1337 0.931 . S
C1278 C1274 1.535 . S
C1278 H1338 0.959 . S
C1278 H1339 0.961 . S
C1278 H1340 0.959 . S
C1279 C1276 1.450 . S
C1279 H1341 0.960 . S
C1279 H1342 0.960 . S
C1279 H1343 0.960 . S
C1280 C1281 1.309 . S
C1280 C1285 1.304 . S
C1280 O1318 1.435 . S
C1281 C1280 1.309 . S
C1281 C1282 1.464 1_655 S
C1281 H1345 0.930 1_655 S
C1282 C1281 1.464 1_455 S
C1282 C1283 1.393 1_455 S
C1282 C1286 1.586 . S
C1283 C1282 1.393 1_655 S
C1283 C1284 1.373 . S
C1283 C1305 1.432 . S
C1284 C1283 1.373 . S
C1284 C1285 1.339 . S
C1284 C1287 1.530 . S
C1285 C1280 1.304 . S
C1285 C1284 1.339 . S
C1285 H1346 0.930 . S
C1286 C1282 1.586 . S
C1286 H1347 0.961 . S
C1286 H1348 0.960 . S
C1286 H1349 0.958 . S
C1287 C1284 1.530 . S
C1287 H1350 0.961 . S
C1287 H1351 0.960 . S
C1287 H1352 0.960 . S
C1288 C1289 1.486 1_455 S
C1288 H1354 0.961 . S
C1288 H1355 0.961 . S
C1288 H1356 0.959 . S
C1289 C1288 1.486 1_655 S
C1289 O1317 1.403 1_655 S
C1289 H1353 0.994 . S
C1290 C1291 1.288 . S
C1290 C1295 1.377 1_455 S
C1290 O1317 1.393 . S
C1291 C1290 1.288 . S
C1291 C1292 1.369 . S
C1291 H1357 0.932 . S
C1292 C1291 1.369 . S
C1292 C1293 1.398 1_455 S
C1292 C1296 1.527 . S
C1293 C1292 1.398 1_655 S
C1293 C1294 1.380 . S
C1293 C1307 1.497 . S
C1294 C1293 1.380 . S
C1294 C1295 1.383 . S
C1294 C1297 1.603 . S
C1295 C1290 1.377 1_655 S
C1295 C1294 1.383 . S
C1295 H1358 0.929 . S
C1296 C1292 1.527 . S
C1296 H1359 0.961 . S
C1296 H1360 0.959 . S
C1296 H1361 0.959 . S
C1297 C1294 1.603 . S
C1297 H1362 0.960 . S
C1297 H1363 0.962 . S
C1297 H1364 0.961 . S
C1298 C1265 1.587 1_655 S
C1298 C1299 1.360 . S
C1298 C1311 1.412 . S
C1299 C1298 1.360 . S
C1299 C1300 1.365 . S
C1299 H1365 0.929 . S
C1300 C1275 1.553 . S
C1300 C1299 1.365 . S
C1300 C1301 1.404 . S
C1301 C1300 1.404 . S
C1301 C1302 1.395 . S
C1301 C1312 1.451 . S
C1302 C1301 1.395 . S
C1302 C1303 1.322 . S
C1302 H1366 0.930 . S
C1303 C1302 1.322 . S
C1303 C1304 1.459 . S
C1303 H1367 0.929 . S
C1304 C1303 1.459 . S
C1304 C1305 1.445 . S
C1304 C1313 1.395 . S
C1305 C1283 1.432 . S
C1305 C1304 1.445 . S
C1305 C1306 1.370 . S
C1306 C1305 1.370 . S
C1306 C1307 1.438 . S
C1306 H1368 0.930 . S
C1307 C1293 1.497 . S
C1307 C1306 1.438 . S
C1307 C1308 1.360 . S
C1308 C1307 1.360 . S
C1308 C1309 1.401 . S
C1308 C1313 1.446 . S
C1309 C1308 1.401 . S
C1309 C1310 1.347 . S
C1309 H1369 0.929 . S
C1310 C1309 1.347 . S
C1310 C1311 1.455 . S
C1310 H1370 0.930 . S
C1311 C1298 1.412 . S
C1311 C1310 1.455 . S
C1311 C1312 1.331 . S
C1312 C1301 1.451 . S
C1312 C1311 1.331 . S
C1312 C1313 1.497 . S
C1313 C1304 1.395 . S
C1313 C1308 1.446 . S
C1313 C1312 1.497 . S
C1314 C1315 1.582 . S
C1314 H1371 0.962 . S
C1314 H1372 0.959 . S
C1314 H1373 0.958 . S
C1315 C1314 1.582 . S
C1315 O1318 1.458 . S
C1315 H1344 0.980 . S
O1316 C1261 1.426 . S
O1316 C1262 1.334 . S
O1317 C1289 1.403 1_455 S
O1317 C1290 1.393 . S
O1318 C1280 1.435 . S
O1318 C1315 1.458 . S
O1319 C1271 1.468 . S
O1319 C1272 1.408 . S
H1320 C1261 0.980 . S
H1321 C1260 0.959 . S
H1322 C1260 0.959 . S
H1323 C1260 0.960 . S
H1324 C1263 0.929 . S
H1325 C1267 0.929 . S
H1326 C1268 0.959 . S
H1327 C1268 0.961 . S
H1328 C1268 0.961 . S
H1329 C1269 0.960 . S
H1330 C1269 0.960 . S
H1331 C1269 0.961 . S
H1332 C1271 0.980 1_455 S
H1333 C1270 0.964 1_455 S
H1334 C1270 0.960 . S
H1335 C1270 0.959 . S
H1336 C1273 0.930 1_455 S
H1337 C1277 0.931 . S
H1338 C1278 0.959 . S
H1339 C1278 0.961 . S
H1340 C1278 0.959 . S
H1341 C1279 0.960 . S
H1342 C1279 0.960 . S
H1343 C1279 0.960 . S
H1344 C1315 0.980 . S
H1345 C1281 0.930 1_455 S
H1346 C1285 0.930 . S
H1347 C1286 0.961 . S
H1348 C1286 0.960 . S
H1349 C1286 0.958 . S
H1350 C1287 0.961 . S
H1351 C1287 0.960 . S
H1352 C1287 0.960 . S
H1353 C1289 0.994 . S
H1354 C1288 0.961 . S
H1355 C1288 0.961 . S
H1356 C1288 0.959 . S
H1357 C1291 0.932 . S
H1358 C1295 0.929 . S
H1359 C1296 0.961 . S
H1360 C1296 0.959 . S
H1361 C1296 0.959 . S
H1362 C1297 0.960 . S
H1363 C1297 0.962 . S
H1364 C1297 0.961 . S
H1365 C1299 0.929 . S
H1366 C1302 0.930 . S
H1367 C1303 0.929 . S
H1368 C1306 0.930 . S
H1369 C1309 0.929 . S
H1370 C1310 0.930 . S
H1371 C1314 0.962 . S
H1372 C1314 0.959 . S
H1373 C1314 0.958 . S
C1374 C1375 1.560 . S
C1374 H1435 0.959 . S
C1374 H1436 0.959 . S
C1374 H1437 0.960 . S
C1375 C1374 1.560 . S
C1375 O1430 1.426 . S
C1375 H1434 0.980 . S
C1376 C1377 1.407 . S
C1376 C1381 1.418 . S
C1376 O1430 1.334 . S
C1377 C1376 1.407 . S
C1377 C1378 1.360 . S
C1377 H1438 0.929 . S
C1378 C1377 1.360 . S
C1378 C1379 1.401 . S
C1378 C1382 1.527 . S
C1379 C1378 1.401 . S
C1379 C1380 1.405 . S
C1379 C1412 1.587 . S
C1380 C1379 1.405 . S
C1380 C1381 1.332 . S
C1380 C1383 1.496 . S
C1381 C1376 1.418 . S
C1381 C1380 1.332 . S
C1381 H1439 0.929 . S
C1382 C1378 1.527 . S
C1382 H1440 0.959 . S
C1382 H1441 0.961 . S
C1382 H1442 0.961 . S
C1383 C1380 1.496 . S
C1383 H1443 0.960 . S
C1383 H1444 0.960 . S
C1383 H1445 0.961 . S
C1384 C1385 1.517 . S
C1384 H1447 0.961 . S
C1384 H1448 0.960 . S
C1384 H1449 0.959 . S
C1385 C1384 1.517 . S
C1385 O1433 1.468 . S
C1385 H1446 0.980 . S
C1386 C1387 1.349 . S
C1386 C1391 1.367 . S
C1386 O1433 1.408 . S
C1387 C1386 1.349 . S
C1387 C1388 1.407 . S
C1387 H1450 0.930 . S
C1388 C1387 1.407 . S
C1388 C1389 1.449 . S
C1388 C1392 1.535 . S
C1389 C1388 1.449 . S
C1389 C1390 1.384 . S
C1389 C1414 1.553 . S
C1390 C1389 1.384 . S
C1390 C1391 1.364 . S
C1390 C1393 1.450 . S
C1391 C1386 1.367 . S
C1391 C1390 1.364 . S
C1391 H1451 0.931 . S
C1392 C1388 1.535 . S
C1392 H1452 0.959 . S
C1392 H1453 0.961 . S
C1392 H1454 0.959 . S
C1393 C1390 1.450 . S
C1393 H1455 0.960 . S
C1393 H1456 0.960 . S
C1393 H1457 0.960 . S
C1394 C1395 1.309 . S
C1394 C1399 1.304 . S
C1394 O1432 1.435 . S
C1395 C1394 1.309 . S
C1395 C1396 1.476 . S
C1395 H1459 0.930 . S
C1396 C1395 1.476 . S
C1396 C1397 1.400 . S
C1396 C1400 1.567 . S
C1397 C1396 1.400 . S
C1397 C1398 1.373 . S
C1397 C1419 1.432 . S
C1398 C1397 1.373 . S
C1398 C1399 1.339 . S
C1398 C1401 1.530 . S
C1399 C1394 1.304 . S
C1399 C1398 1.339 . S
C1399 H1460 0.930 . S
C1400 C1396 1.567 . S
C1400 H1461 0.961 . S
C1400 H1462 0.960 . S
C1400 H1463 0.958 . S
C1401 C1398 1.530 . S
C1401 H1464 0.961 . S
C1401 H1465 0.960 . S
C1401 H1466 0.960 . S
C1402 C1403 1.530 . S
C1402 H1468 0.961 . S
C1402 H1469 0.961 . S
C1402 H1470 0.959 . S
C1403 C1402 1.530 . S
C1403 O1431 1.412 . S
C1403 H1467 0.980 . S
C1404 C1405 1.288 . S
C1404 C1409 1.377 . S
C1404 O1431 1.393 . S
C1405 C1404 1.288 . S
C1405 C1406 1.369 . S
C1405 H1471 0.932 . S
C1406 C1405 1.369 . S
C1406 C1407 1.398 . S
C1406 C1410 1.527 . S
C1407 C1406 1.398 . S
C1407 C1408 1.380 . S
C1407 C1421 1.497 . S
C1408 C1407 1.380 . S
C1408 C1409 1.383 . S
C1408 C1411 1.603 . S
C1409 C1404 1.377 . S
C1409 C1408 1.383 . S
C1409 H1472 0.929 . S
C1410 C1406 1.527 . S
C1410 H1473 0.961 . S
C1410 H1474 0.959 . S
C1410 H1475 0.959 . S
C1411 C1408 1.603 . S
C1411 H1476 0.960 . S
C1411 H1477 0.962 . S
C1411 H1478 0.961 . S
C1412 C1379 1.587 . S
C1412 C1413 1.360 . S
C1412 C1425 1.412 . S
C1413 C1412 1.360 . S
C1413 C1414 1.365 . S
C1413 H1479 0.929 . S
C1414 C1389 1.553 . S
C1414 C1413 1.365 . S
C1414 C1415 1.404 . S
C1415 C1414 1.404 . S
C1415 C1416 1.395 . S
C1415 C1426 1.451 . S
C1416 C1415 1.395 . S
C1416 C1417 1.322 . S
C1416 H1480 0.930 . S
C1417 C1416 1.322 . S
C1417 C1418 1.459 . S
C1417 H1481 0.929 . S
C1418 C1417 1.459 . S
C1418 C1419 1.445 . S
C1418 C1427 1.395 . S
C1419 C1397 1.432 . S
C1419 C1418 1.445 . S
C1419 C1420 1.370 . S
C1420 C1419 1.370 . S
C1420 C1421 1.438 . S
C1420 H1482 0.930 . S
C1421 C1407 1.497 . S
C1421 C1420 1.438 . S
C1421 C1422 1.360 . S
C1422 C1421 1.360 . S
C1422 C1423 1.401 . S
C1422 C1427 1.446 . S
C1423 C1422 1.401 . S
C1423 C1424 1.347 . S
C1423 H1483 0.929 . S
C1424 C1423 1.347 . S
C1424 C1425 1.455 . S
C1424 H1484 0.930 . S
C1425 C1412 1.412 . S
C1425 C1424 1.455 . S
C1425 C1426 1.331 . S
C1426 C1415 1.451 . S
C1426 C1425 1.331 . S
C1426 C1427 1.497 . S
C1427 C1418 1.395 . S
C1427 C1422 1.446 . S
C1427 C1426 1.497 . S
C1428 C1429 1.582 . S
C1428 H1485 0.962 . S
C1428 H1486 0.959 . S
C1428 H1487 0.958 . S
C1429 C1428 1.582 . S
C1429 O1432 1.458 . S
C1429 H1458 0.980 . S
O1430 C1375 1.426 . S
O1430 C1376 1.334 . S
O1431 C1403 1.412 . S
O1431 C1404 1.393 . S
O1432 C1394 1.435 . S
O1432 C1429 1.458 . S
O1433 C1385 1.468 . S
O1433 C1386 1.408 . S
H1434 C1375 0.980 . S
H1435 C1374 0.959 . S
H1436 C1374 0.959 . S
H1437 C1374 0.960 . S
H1438 C1377 0.929 . S
H1439 C1381 0.929 . S
H1440 C1382 0.959 . S
H1441 C1382 0.961 . S
H1442 C1382 0.961 . S
H1443 C1383 0.960 . S
H1444 C1383 0.960 . S
H1445 C1383 0.961 . S
H1446 C1385 0.980 . S
H1447 C1384 0.961 . S
H1448 C1384 0.960 . S
H1449 C1384 0.959 . S
H1450 C1387 0.930 . S
H1451 C1391 0.931 . S
H1452 C1392 0.959 . S
H1453 C1392 0.961 . S
H1454 C1392 0.959 . S
H1455 C1393 0.960 . S
H1456 C1393 0.960 . S
H1457 C1393 0.960 . S
H1458 C1429 0.980 . S
H1459 C1395 0.930 . S
H1460 C1399 0.930 . S
H1461 C1400 0.961 . S
H1462 C1400 0.960 . S
H1463 C1400 0.958 . S
H1464 C1401 0.961 . S
H1465 C1401 0.960 . S
H1466 C1401 0.960 . S
H1467 C1403 0.980 . S
H1468 C1402 0.961 . S
H1469 C1402 0.961 . S
H1470 C1402 0.959 . S
H1471 C1405 0.932 . S
H1472 C1409 0.929 . S
H1473 C1410 0.961 . S
H1474 C1410 0.959 . S
H1475 C1410 0.959 . S
H1476 C1411 0.960 . S
H1477 C1411 0.962 . S
H1478 C1411 0.961 . S
H1479 C1413 0.929 . S
H1480 C1416 0.930 . S
H1481 C1417 0.929 . S
H1482 C1420 0.930 . S
H1483 C1423 0.929 . S
H1484 C1424 0.930 . S
H1485 C1428 0.962 . S
H1486 C1428 0.959 . S
H1487 C1428 0.958 . S
C1488 C1489 1.560 . S
C1488 H1549 0.959 . S
C1488 H1550 0.959 . S
C1488 H1551 0.960 . S
C1489 C1488 1.560 . S
C1489 O1544 1.426 . S
C1489 H1548 0.980 . S
C1490 C1491 1.407 1_565 S
C1490 C1495 1.418 . S
C1490 O1544 1.334 . S
C1491 C1490 1.407 1_545 S
C1491 C1492 1.360 . S
C1491 H1552 0.929 . S
C1492 C1491 1.360 . S
C1492 C1493 1.401 1_545 S
C1492 C1496 1.527 . S
C1493 C1492 1.401 1_565 S
C1493 C1494 1.405 . S
C1493 C1526 1.587 1_565 S
C1494 C1493 1.405 . S
C1494 C1495 1.332 . S
C1494 C1497 1.496 . S
C1495 C1490 1.418 . S
C1495 C1494 1.332 . S
C1495 H1553 0.929 . S
C1496 C1492 1.527 . S
C1496 H1554 0.959 . S
C1496 H1555 0.961 . S
C1496 H1556 0.961 . S
C1497 C1494 1.496 . S
C1497 H1557 0.960 . S
C1497 H1558 0.960 . S
C1497 H1559 0.961 . S
C1498 C1499 1.517 . S
C1498 H1561 0.909 1_545 S
C1498 H1562 0.960 . S
C1498 H1563 0.959 . S
C1499 C1498 1.517 . S
C1499 O1547 1.468 . S
C1499 H1560 0.980 1_545 S
C1500 C1501 1.349 . S
C1500 C1505 1.367 . S
C1500 O1547 1.408 . S
C1501 C1500 1.349 . S
C1501 C1502 1.407 1_545 S
C1501 H1564 0.930 1_545 S
C1502 C1501 1.407 1_565 S
C1502 C1503 1.449 1_565 S
C1502 C1506 1.535 . S
C1503 C1502 1.449 1_545 S
C1503 C1504 1.384 . S
C1503 C1528 1.553 . S
C1504 C1503 1.384 . S
C1504 C1505 1.364 . S
C1504 C1507 1.450 . S
C1505 C1500 1.367 . S
C1505 C1504 1.364 . S
C1505 H1565 0.931 . S
C1506 C1502 1.535 . S
C1506 H1566 0.959 . S
C1506 H1567 0.961 . S
C1506 H1568 0.959 . S
C1507 C1504 1.450 . S
C1507 H1569 0.960 . S
C1507 H1570 0.960 . S
C1507 H1571 0.960 . S
C1508 C1509 1.309 . S
C1508 C1513 1.304 . S
C1508 O1546 1.435 . S
C1509 C1508 1.309 . S
C1509 C1510 1.490 1_545 S
C1509 H1573 0.930 1_545 S
C1510 C1509 1.490 1_565 S
C1510 C1511 1.352 1_565 S
C1510 C1514 1.600 . S
C1511 C1510 1.352 1_545 S
C1511 C1512 1.373 . S
C1511 C1533 1.432 . S
C1512 C1511 1.373 . S
C1512 C1513 1.339 . S
C1512 C1515 1.530 . S
C1513 C1508 1.304 . S
C1513 C1512 1.339 . S
C1513 H1574 0.930 . S
C1514 C1510 1.600 . S
C1514 H1575 0.961 . S
C1514 H1576 0.960 . S
C1514 H1577 0.958 . S
C1515 C1512 1.530 . S
C1515 H1578 0.961 . S
C1515 H1579 0.960 . S
C1515 H1580 0.960 . S
C1516 C1517 1.530 1_565 S
C1516 H1582 0.961 . S
C1516 H1583 0.961 . S
C1516 H1584 0.959 . S
C1517 C1516 1.530 1_545 S
C1517 O1545 1.412 1_545 S
C1517 H1581 0.980 . S
C1518 C1519 1.288 . S
C1518 C1523 1.377 1_565 S
C1518 O1545 1.393 . S
C1519 C1518 1.288 . S
C1519 C1520 1.369 . S
C1519 H1585 0.932 . S
C1520 C1519 1.369 . S
C1520 C1521 1.398 1_565 S
C1520 C1524 1.527 . S
C1521 C1520 1.398 1_545 S
C1521 C1522 1.380 . S
C1521 C1535 1.497 . S
C1522 C1521 1.380 . S
C1522 C1523 1.383 . S
C1522 C1525 1.603 . S
C1523 C1518 1.377 1_545 S
C1523 C1522 1.383 . S
C1523 H1586 0.929 . S
C1524 C1520 1.527 . S
C1524 H1587 0.961 . S
C1524 H1588 0.959 . S
C1524 H1589 0.959 . S
C1525 C1522 1.603 . S
C1525 H1590 0.960 . S
C1525 H1591 0.962 . S
C1525 H1592 0.961 . S
C1526 C1493 1.587 1_545 S
C1526 C1527 1.360 . S
C1526 C1539 1.412 . S
C1527 C1526 1.360 . S
C1527 C1528 1.365 . S
C1527 H1593 0.929 . S
C1528 C1503 1.553 . S
C1528 C1527 1.365 . S
C1528 C1529 1.404 . S
C1529 C1528 1.404 . S
C1529 C1530 1.395 . S
C1529 C1540 1.451 . S
C1530 C1529 1.395 . S
C1530 C1531 1.322 . S
C1530 H1594 0.930 . S
C1531 C1530 1.322 . S
C1531 C1532 1.459 . S
C1531 H1595 0.929 . S
C1532 C1531 1.459 . S
C1532 C1533 1.445 . S
C1532 C1541 1.395 . S
C1533 C1511 1.432 . S
C1533 C1532 1.445 . S
C1533 C1534 1.370 . S
C1534 C1533 1.370 . S
C1534 C1535 1.438 . S
C1534 H1596 0.930 . S
C1535 C1521 1.497 . S
C1535 C1534 1.438 . S
C1535 C1536 1.360 . S
C1536 C1535 1.360 . S
C1536 C1537 1.401 . S
C1536 C1541 1.446 . S
C1537 C1536 1.401 . S
C1537 C1538 1.347 . S
C1537 H1597 0.929 . S
C1538 C1537 1.347 . S
C1538 C1539 1.455 . S
C1538 H1598 0.930 . S
C1539 C1526 1.412 . S
C1539 C1538 1.455 . S
C1539 C1540 1.331 . S
C1540 C1529 1.451 . S
C1540 C1539 1.331 . S
C1540 C1541 1.497 . S
C1541 C1532 1.395 . S
C1541 C1536 1.446 . S
C1541 C1540 1.497 . S
C1542 C1543 1.582 . S
C1542 H1599 0.962 . S
C1542 H1600 0.959 . S
C1542 H1601 0.958 . S
C1543 C1542 1.582 . S
C1543 O1546 1.458 . S
C1543 H1572 0.980 . S
O1544 C1489 1.426 . S
O1544 C1490 1.334 . S
O1545 C1517 1.412 1_565 S
O1545 C1518 1.393 . S
O1546 C1508 1.435 . S
O1546 C1543 1.458 . S
O1547 C1499 1.468 . S
O1547 C1500 1.408 . S
H1548 C1489 0.980 . S
H1549 C1488 0.959 . S
H1550 C1488 0.959 . S
H1551 C1488 0.960 . S
H1552 C1491 0.929 . S
H1553 C1495 0.929 . S
H1554 C1496 0.959 . S
H1555 C1496 0.961 . S
H1556 C1496 0.961 . S
H1557 C1497 0.960 . S
H1558 C1497 0.960 . S
H1559 C1497 0.961 . S
H1560 C1499 0.980 1_565 S
H1561 C1498 0.909 1_565 S
H1562 C1498 0.960 . S
H1563 C1498 0.959 . S
H1564 C1501 0.930 1_565 S
H1565 C1505 0.931 . S
H1566 C1506 0.959 . S
H1567 C1506 0.961 . S
H1568 C1506 0.959 . S
H1569 C1507 0.960 . S
H1570 C1507 0.960 . S
H1571 C1507 0.960 . S
H1572 C1543 0.980 . S
H1573 C1509 0.930 1_565 S
H1574 C1513 0.930 . S
H1575 C1514 0.961 . S
H1576 C1514 0.960 . S
H1577 C1514 0.958 . S
H1578 C1515 0.961 . S
H1579 C1515 0.960 . S
H1580 C1515 0.960 . S
H1581 C1517 0.980 . S
H1582 C1516 0.961 . S
H1583 C1516 0.961 . S
H1584 C1516 0.959 . S
H1585 C1519 0.932 . S
H1586 C1523 0.929 . S
H1587 C1524 0.961 . S
H1588 C1524 0.959 . S
H1589 C1524 0.959 . S
H1590 C1525 0.960 . S
H1591 C1525 0.962 . S
H1592 C1525 0.961 . S
H1593 C1527 0.929 . S
H1594 C1530 0.930 . S
H1595 C1531 0.929 . S
H1596 C1534 0.930 . S
H1597 C1537 0.929 . S
H1598 C1538 0.930 . S
H1599 C1542 0.962 . S
H1600 C1542 0.959 . S
H1601 C1542 0.958 . S
C1602 C1603 1.560 . S
C1602 H1663 0.959 . S
C1602 H1664 0.959 . S
C1602 H1665 0.960 . S
C1603 C1602 1.560 . S
C1603 O1658 1.426 . S
C1603 H1662 0.980 1_565 S
C1604 C1605 1.407 1_565 S
C1604 C1609 1.418 . S
C1604 O1658 1.334 . S
C1605 C1604 1.407 1_545 S
C1605 C1606 1.360 . S
C1605 H1666 0.929 . S
C1606 C1605 1.360 . S
C1606 C1607 1.401 . S
C1606 C1610 1.527 . S
C1607 C1606 1.401 . S
C1607 C1608 1.405 1_545 S
C1607 C1640 1.587 . S
C1608 C1607 1.405 1_565 S
C1608 C1609 1.332 . S
C1608 C1611 1.496 . S
C1609 C1604 1.418 . S
C1609 C1608 1.332 . S
C1609 H1667 0.929 . S
C1610 C1606 1.527 . S
C1610 H1668 0.959 . S
C1610 H1669 0.961 . S
C1610 H1670 0.961 . S
C1611 C1608 1.496 . S
C1611 H1671 0.960 . S
C1611 H1672 0.960 . S
C1611 H1673 0.961 . S
C1612 C1613 1.517 . S
C1612 H1675 0.961 . S
C1612 H1676 0.960 . S
C1612 H1677 0.959 . S
C1613 C1612 1.517 . S
C1613 O1661 1.468 . S
C1613 H1674 0.980 . S
C1614 C1615 1.349 . S
C1614 C1619 1.367 . S
C1614 O1661 1.408 . S
C1615 C1614 1.349 . S
C1615 C1616 1.407 . S
C1615 H1678 0.928 1_545 S
C1616 C1615 1.407 . S
C1616 C1617 1.449 . S
C1616 C1620 1.535 1_545 S
C1617 C1616 1.449 . S
C1617 C1618 1.384 . S
C1617 C1642 1.553 . S
C1618 C1617 1.384 . S
C1618 C1619 1.364 . S
C1618 C1621 1.450 . S
C1619 C1614 1.367 . S
C1619 C1618 1.364 . S
C1619 H1679 0.931 . S
C1620 C1616 1.535 1_565 S
C1620 H1680 0.959 . S
C1620 H1681 0.961 . S
C1620 H1682 0.959 . S
C1621 C1618 1.450 . S
C1621 H1683 0.960 . S
C1621 H1684 0.960 . S
C1621 H1685 0.960 . S
C1622 C1623 1.309 1_545 S
C1622 C1627 1.304 . S
C1622 O1660 1.435 . S
C1623 C1622 1.309 1_565 S
C1623 C1624 1.476 . S
C1623 H1687 0.930 . S
C1624 C1623 1.476 . S
C1624 C1625 1.400 1_565 S
C1624 C1628 1.567 . S
C1625 C1624 1.400 1_545 S
C1625 C1626 1.373 . S
C1625 C1647 1.432 . S
C1626 C1625 1.373 . S
C1626 C1627 1.339 . S
C1626 C1629 1.530 . S
C1627 C1622 1.304 . S
C1627 C1626 1.339 . S
C1627 H1688 0.930 . S
C1628 C1624 1.567 . S
C1628 H1689 0.961 . S
C1628 H1690 0.960 . S
C1628 H1691 0.958 . S
C1629 C1626 1.530 . S
C1629 H1692 0.961 . S
C1629 H1693 0.960 . S
C1629 H1694 0.960 . S
C1630 C1631 1.530 . S
C1630 H1696 0.961 . S
C1630 H1697 0.961 . S
C1630 H1698 0.959 . S
C1631 C1630 1.530 . S
C1631 O1659 1.412 . S
C1631 H1695 0.994 . S
C1632 C1633 1.288 . S
C1632 C1637 1.377 1_565 S
C1632 O1659 1.393 . S
C1633 C1632 1.288 . S
C1633 C1634 1.369 . S
C1633 H1699 0.932 . S
C1634 C1633 1.369 . S
C1634 C1635 1.398 . S
C1634 C1638 1.527 . S
C1635 C1634 1.398 . S
C1635 C1636 1.380 1_565 S
C1635 C1649 1.497 1_565 S
C1636 C1635 1.380 1_545 S
C1636 C1637 1.383 . S
C1636 C1639 1.603 . S
C1637 C1632 1.377 1_545 S
C1637 C1636 1.383 . S
C1637 H1700 0.929 . S
C1638 C1634 1.527 . S
C1638 H1701 0.961 . S
C1638 H1702 0.959 . S
C1638 H1703 0.959 . S
C1639 C1636 1.603 . S
C1639 H1704 0.960 . S
C1639 H1705 0.962 . S
C1639 H1706 0.961 . S
C1640 C1607 1.587 . S
C1640 C1641 1.360 . S
C1640 C1653 1.412 . S
C1641 C1640 1.360 . S
C1641 C1642 1.365 . S
C1641 H1707 0.929 . S
C1642 C1617 1.553 . S
C1642 C1641 1.365 . S
C1642 C1643 1.404 . S
C1643 C1642 1.404 . S
C1643 C1644 1.395 . S
C1643 C1654 1.451 . S
C1644 C1643 1.395 . S
C1644 C1645 1.322 . S
C1644 H1708 0.930 . S
C1645 C1644 1.322 . S
C1645 C1646 1.459 . S
C1645 H1709 0.929 . S
C1646 C1645 1.459 . S
C1646 C1647 1.445 . S
C1646 C1655 1.395 . S
C1647 C1625 1.432 . S
C1647 C1646 1.445 . S
C1647 C1648 1.370 . S
C1648 C1647 1.370 . S
C1648 C1649 1.438 . S
C1648 H1710 0.930 . S
C1649 C1635 1.497 1_545 S
C1649 C1648 1.438 . S
C1649 C1650 1.360 . S
C1650 C1649 1.360 . S
C1650 C1651 1.401 . S
C1650 C1655 1.446 . S
C1651 C1650 1.401 . S
C1651 C1652 1.347 . S
C1651 H1711 0.969 . S
C1652 C1651 1.347 . S
C1652 C1653 1.455 . S
C1652 H1712 0.930 . S
C1653 C1640 1.412 . S
C1653 C1652 1.455 . S
C1653 C1654 1.331 . S
C1654 C1643 1.451 . S
C1654 C1653 1.331 . S
C1654 C1655 1.497 . S
C1655 C1646 1.395 . S
C1655 C1650 1.446 . S
C1655 C1654 1.497 . S
C1656 C1657 1.621 . S
C1656 H1713 0.962 . S
C1656 H1714 0.959 . S
C1656 H1715 0.958 . S
C1657 C1656 1.621 . S
C1657 O1660 1.474 . S
C1657 H1686 0.980 1_545 S
O1658 C1603 1.426 . S
O1658 C1604 1.334 . S
O1659 C1631 1.412 . S
O1659 C1632 1.393 . S
O1660 C1622 1.435 . S
O1660 C1657 1.474 . S
O1661 C1613 1.468 . S
O1661 C1614 1.408 . S
H1662 C1603 0.980 1_545 S
H1663 C1602 0.959 . S
H1664 C1602 0.959 . S
H1665 C1602 0.960 . S
H1666 C1605 0.929 . S
H1667 C1609 0.929 . S
H1668 C1610 0.959 . S
H1669 C1610 0.961 . S
H1670 C1610 0.961 . S
H1671 C1611 0.960 . S
H1672 C1611 0.960 . S
H1673 C1611 0.961 . S
H1674 C1613 0.980 . S
H1675 C1612 0.961 . S
H1676 C1612 0.960 . S
H1677 C1612 0.959 . S
H1678 C1615 0.928 1_565 S
H1679 C1619 0.931 . S
H1680 C1620 0.959 . S
H1681 C1620 0.961 . S
H1682 C1620 0.959 . S
H1683 C1621 0.960 . S
H1684 C1621 0.960 . S
H1685 C1621 0.960 . S
H1686 C1657 0.980 1_565 S
H1687 C1623 0.930 . S
H1688 C1627 0.930 . S
H1689 C1628 0.961 . S
H1690 C1628 0.960 . S
H1691 C1628 0.958 . S
H1692 C1629 0.961 . S
H1693 C1629 0.960 . S
H1694 C1629 0.960 . S
H1695 C1631 0.994 . S
H1696 C1630 0.961 . S
H1697 C1630 0.961 . S
H1698 C1630 0.959 . S
H1699 C1633 0.932 . S
H1700 C1637 0.929 . S
H1701 C1638 0.961 . S
H1702 C1638 0.959 . S
H1703 C1638 0.959 . S
H1704 C1639 0.960 . S
H1705 C1639 0.962 . S
H1706 C1639 0.961 . S
H1707 C1641 0.929 . S
H1708 C1644 0.930 . S
H1709 C1645 0.929 . S
H1710 C1648 0.930 . S
H1711 C1651 0.969 . S
H1712 C1652 0.930 . S
H1713 C1656 0.962 . S
H1714 C1656 0.959 . S
H1715 C1656 0.958 . S
C1716 C1717 1.560 . S
C1716 H1777 0.959 . S
C1716 H1778 0.959 . S
C1716 H1779 0.960 . S
C1717 C1716 1.560 . S
C1717 O1772 1.426 . S
C1717 H1776 0.980 1_455 S
C1718 C1719 1.407 1_455 S
C1718 C1723 1.418 . S
C1718 O1772 1.334 . S
C1719 C1718 1.407 1_655 S
C1719 C1720 1.360 . S
C1719 H1780 0.929 . S
C1720 C1719 1.360 . S
C1720 C1721 1.401 . S
C1720 C1724 1.527 . S
C1721 C1720 1.401 . S
C1721 C1722 1.405 1_655 S
C1721 C1754 1.587 . S
C1722 C1721 1.405 1_455 S
C1722 C1723 1.332 . S
C1722 C1725 1.496 . S
C1723 C1718 1.418 . S
C1723 C1722 1.332 . S
C1723 H1781 0.929 . S
C1724 C1720 1.527 . S
C1724 H1782 0.959 . S
C1724 H1783 0.961 . S
C1724 H1784 0.961 . S
C1725 C1722 1.496 . S
C1725 H1785 0.960 . S
C1725 H1786 0.960 . S
C1725 H1787 0.961 . S
C1726 C1727 1.517 . S
C1726 H1789 0.961 . S
C1726 H1790 0.960 . S
C1726 H1791 0.959 . S
C1727 C1726 1.517 . S
C1727 O1775 1.468 . S
C1727 H1788 0.980 . S
C1728 C1729 1.349 . S
C1728 C1733 1.367 . S
C1728 O1775 1.408 . S
C1729 C1728 1.349 . S
C1729 C1730 1.407 . S
C1729 H1792 0.922 1_655 S
C1730 C1729 1.407 . S
C1730 C1731 1.449 . S
C1730 C1734 1.535 1_655 S
C1731 C1730 1.449 . S
C1731 C1732 1.384 . S
C1731 C1756 1.553 . S
C1732 C1731 1.384 . S
C1732 C1733 1.364 . S
C1732 C1735 1.450 . S
C1733 C1728 1.367 . S
C1733 C1732 1.364 . S
C1733 H1793 0.931 . S
C1734 C1730 1.535 1_455 S
C1734 H1794 0.959 . S
C1734 H1795 0.961 . S
C1734 H1796 0.959 . S
C1735 C1732 1.450 . S
C1735 H1797 0.960 . S
C1735 H1798 0.960 . S
C1735 H1799 0.960 . S
C1736 C1737 1.309 1_655 S
C1736 C1741 1.304 . S
C1736 O1774 1.435 . S
C1737 C1736 1.309 1_455 S
C1737 C1738 1.476 . S
C1737 H1801 0.930 . S
C1738 C1737 1.476 . S
C1738 C1739 1.400 1_455 S
C1738 C1742 1.567 . S
C1739 C1738 1.400 1_655 S
C1739 C1740 1.373 . S
C1739 C1761 1.432 . S
C1740 C1739 1.373 . S
C1740 C1741 1.339 . S
C1740 C1743 1.530 . S
C1741 C1736 1.304 . S
C1741 C1740 1.339 . S
C1741 H1802 0.930 . S
C1742 C1738 1.567 . S
C1742 H1803 0.961 . S
C1742 H1804 0.960 . S
C1742 H1805 0.958 . S
C1743 C1740 1.530 . S
C1743 H1806 0.961 . S
C1743 H1807 0.960 . S
C1743 H1808 0.960 . S
C1744 C1745 1.530 . S
C1744 H1810 0.961 . S
C1744 H1811 0.961 . S
C1744 H1812 0.959 . S
C1745 C1744 1.530 . S
C1745 O1773 1.412 . S
C1745 H1809 0.988 . S
C1746 C1747 1.288 . S
C1746 C1751 1.377 1_455 S
C1746 O1773 1.393 . S
C1747 C1746 1.288 . S
C1747 C1748 1.369 . S
C1747 H1813 0.932 . S
C1748 C1747 1.369 . S
C1748 C1749 1.398 . S
C1748 C1752 1.527 . S
C1749 C1748 1.398 . S
C1749 C1750 1.380 1_455 S
C1749 C1763 1.497 1_455 S
C1750 C1749 1.380 1_655 S
C1750 C1751 1.383 . S
C1750 C1753 1.603 . S
C1751 C1746 1.377 1_655 S
C1751 C1750 1.383 . S
C1751 H1814 0.929 . S
C1752 C1748 1.527 . S
C1752 H1815 0.961 . S
C1752 H1816 0.959 . S
C1752 H1817 0.959 . S
C1753 C1750 1.603 . S
C1753 H1818 0.960 . S
C1753 H1819 0.962 . S
C1753 H1820 0.961 . S
C1754 C1721 1.587 . S
C1754 C1755 1.360 . S
C1754 C1767 1.412 . S
C1755 C1754 1.360 . S
C1755 C1756 1.365 . S
C1755 H1821 0.929 . S
C1756 C1731 1.553 . S
C1756 C1755 1.365 . S
C1756 C1757 1.404 . S
C1757 C1756 1.404 . S
C1757 C1758 1.395 . S
C1757 C1768 1.451 . S
C1758 C1757 1.395 . S
C1758 C1759 1.322 . S
C1758 H1822 0.930 . S
C1759 C1758 1.322 . S
C1759 C1760 1.459 . S
C1759 H1823 0.929 . S
C1760 C1759 1.459 . S
C1760 C1761 1.445 . S
C1760 C1769 1.395 . S
C1761 C1739 1.432 . S
C1761 C1760 1.445 . S
C1761 C1762 1.370 . S
C1762 C1761 1.370 . S
C1762 C1763 1.438 . S
C1762 H1824 0.930 . S
C1763 C1749 1.497 1_655 S
C1763 C1762 1.438 . S
C1763 C1764 1.360 . S
C1764 C1763 1.360 . S
C1764 C1765 1.401 . S
C1764 C1769 1.446 . S
C1765 C1764 1.401 . S
C1765 C1766 1.347 . S
C1765 H1825 0.929 . S
C1766 C1765 1.347 . S
C1766 C1767 1.455 . S
C1766 H1826 0.930 . S
C1767 C1754 1.412 . S
C1767 C1766 1.455 . S
C1767 C1768 1.331 . S
C1768 C1757 1.451 . S
C1768 C1767 1.331 . S
C1768 C1769 1.497 . S
C1769 C1760 1.395 . S
C1769 C1764 1.446 . S
C1769 C1768 1.497 . S
C1770 C1771 1.581 1_655 S
C1770 H1827 0.993 . S
C1770 H1828 0.959 . S
C1770 H1829 0.958 . S
C1771 C1770 1.581 1_455 S
C1771 O1774 1.434 1_455 S
C1771 H1800 0.990 . S
O1772 C1717 1.426 . S
O1772 C1718 1.334 . S
O1773 C1745 1.412 . S
O1773 C1746 1.393 . S
O1774 C1736 1.435 . S
O1774 C1771 1.434 1_655 S
O1775 C1727 1.468 . S
O1775 C1728 1.408 . S
H1776 C1717 0.980 1_655 S
H1777 C1716 0.959 . S
H1778 C1716 0.959 . S
H1779 C1716 0.960 . S
H1780 C1719 0.929 . S
H1781 C1723 0.929 . S
H1782 C1724 0.959 . S
H1783 C1724 0.961 . S
H1784 C1724 0.961 . S
H1785 C1725 0.960 . S
H1786 C1725 0.960 . S
H1787 C1725 0.961 . S
H1788 C1727 0.980 . S
H1789 C1726 0.961 . S
H1790 C1726 0.960 . S
H1791 C1726 0.959 . S
H1792 C1729 0.922 1_455 S
H1793 C1733 0.931 . S
H1794 C1734 0.959 . S
H1795 C1734 0.961 . S
H1796 C1734 0.959 . S
H1797 C1735 0.960 . S
H1798 C1735 0.960 . S
H1799 C1735 0.960 . S
H1800 C1771 0.990 . S
H1801 C1737 0.930 . S
H1802 C1741 0.930 . S
H1803 C1742 0.961 . S
H1804 C1742 0.960 . S
H1805 C1742 0.958 . S
H1806 C1743 0.961 . S
H1807 C1743 0.960 . S
H1808 C1743 0.960 . S
H1809 C1745 0.988 . S
H1810 C1744 0.961 . S
H1811 C1744 0.961 . S
H1812 C1744 0.959 . S
H1813 C1747 0.932 . S
H1814 C1751 0.929 . S
H1815 C1752 0.961 . S
H1816 C1752 0.959 . S
H1817 C1752 0.959 . S
H1818 C1753 0.960 . S
H1819 C1753 0.962 . S
H1820 C1753 0.961 . S
H1821 C1755 0.929 . S
H1822 C1758 0.930 . S
H1823 C1759 0.929 . S
H1824 C1762 0.930 . S
H1825 C1765 0.929 . S
H1826 C1766 0.930 . S
H1827 C1770 0.993 . S
H1828 C1770 0.959 . S
H1829 C1770 0.958 . S
C1830 C1831 1.560 . S
C1830 H1891 0.959 . S
C1830 H1892 0.959 . S
C1830 H1893 0.960 . S
C1831 C1830 1.560 . S
C1831 O1886 1.426 . S
C1831 H1890 0.980 . S
C1832 C1833 1.407 . S
C1832 C1837 1.418 . S
C1832 O1886 1.334 . S
C1833 C1832 1.407 . S
C1833 C1834 1.360 . S
C1833 H1894 0.929 . S
C1834 C1833 1.360 . S
C1834 C1835 1.401 . S
C1834 C1838 1.527 . S
C1835 C1834 1.401 . S
C1835 C1836 1.405 . S
C1835 C1868 1.587 . S
C1836 C1835 1.405 . S
C1836 C1837 1.332 . S
C1836 C1839 1.496 . S
C1837 C1832 1.418 . S
C1837 C1836 1.332 . S
C1837 H1895 0.929 . S
C1838 C1834 1.527 . S
C1838 H1896 0.959 . S
C1838 H1897 0.961 . S
C1838 H1898 0.961 . S
C1839 C1836 1.496 . S
C1839 H1899 0.960 . S
C1839 H1900 0.960 . S
C1839 H1901 0.961 . S
C1840 C1841 1.517 . S
C1840 H1903 0.961 . S
C1840 H1904 0.960 . S
C1840 H1905 0.959 . S
C1841 C1840 1.517 . S
C1841 O1889 1.468 . S
C1841 H1902 0.980 . S
C1842 C1843 1.349 . S
C1842 C1847 1.367 . S
C1842 O1889 1.408 . S
C1843 C1842 1.349 . S
C1843 C1844 1.407 . S
C1843 H1906 0.930 . S
C1844 C1843 1.407 . S
C1844 C1845 1.449 . S
C1844 C1848 1.535 . S
C1845 C1844 1.449 . S
C1845 C1846 1.384 . S
C1845 C1870 1.553 . S
C1846 C1845 1.384 . S
C1846 C1847 1.364 . S
C1846 C1849 1.450 . S
C1847 C1842 1.367 . S
C1847 C1846 1.364 . S
C1847 H1907 0.931 . S
C1848 C1844 1.535 . S
C1848 H1908 0.959 . S
C1848 H1909 0.961 . S
C1848 H1910 0.959 . S
C1849 C1846 1.450 . S
C1849 H1911 0.960 . S
C1849 H1912 0.960 . S
C1849 H1913 0.960 . S
C1850 C1851 1.309 . S
C1850 C1855 1.304 . S
C1850 O1888 1.435 . S
C1851 C1850 1.309 . S
C1851 C1852 1.476 . S
C1851 H1915 0.930 . S
C1852 C1851 1.476 . S
C1852 C1853 1.400 . S
C1852 C1856 1.567 . S
C1853 C1852 1.400 . S
C1853 C1854 1.373 . S
C1853 C1875 1.432 . S
C1854 C1853 1.373 . S
C1854 C1855 1.339 . S
C1854 C1857 1.530 . S
C1855 C1850 1.304 . S
C1855 C1854 1.339 . S
C1855 H1916 0.930 . S
C1856 C1852 1.567 . S
C1856 H1917 0.961 . S
C1856 H1918 0.960 . S
C1856 H1919 0.958 . S
C1857 C1854 1.530 . S
C1857 H1920 0.961 . S
C1857 H1921 0.960 . S
C1857 H1922 0.960 . S
C1858 C1859 1.530 . S
C1858 H1924 0.961 . S
C1858 H1925 0.961 . S
C1858 H1926 0.959 . S
C1859 C1858 1.530 . S
C1859 O1887 1.412 . S
C1859 H1923 0.980 . S
C1860 C1861 1.288 . S
C1860 C1865 1.377 . S
C1860 O1887 1.393 . S
C1861 C1860 1.288 . S
C1861 C1862 1.369 . S
C1861 H1927 0.932 . S
C1862 C1861 1.369 . S
C1862 C1863 1.398 . S
C1862 C1866 1.527 . S
C1863 C1862 1.398 . S
C1863 C1864 1.380 . S
C1863 C1877 1.497 . S
C1864 C1863 1.380 . S
C1864 C1865 1.383 . S
C1864 C1867 1.603 . S
C1865 C1860 1.377 . S
C1865 C1864 1.383 . S
C1865 H1928 0.929 . S
C1866 C1862 1.527 . S
C1866 H1929 0.961 . S
C1866 H1930 0.959 . S
C1866 H1931 0.959 . S
C1867 C1864 1.603 . S
C1867 H1932 0.960 . S
C1867 H1933 0.962 . S
C1867 H1934 0.961 . S
C1868 C1835 1.587 . S
C1868 C1869 1.360 . S
C1868 C1881 1.412 . S
C1869 C1868 1.360 . S
C1869 C1870 1.365 . S
C1869 H1935 0.929 . S
C1870 C1845 1.553 . S
C1870 C1869 1.365 . S
C1870 C1871 1.404 . S
C1871 C1870 1.404 . S
C1871 C1872 1.395 . S
C1871 C1882 1.451 . S
C1872 C1871 1.395 . S
C1872 C1873 1.322 . S
C1872 H1936 0.930 . S
C1873 C1872 1.322 . S
C1873 C1874 1.459 . S
C1873 H1937 0.929 . S
C1874 C1873 1.459 . S
C1874 C1875 1.445 . S
C1874 C1883 1.395 . S
C1875 C1853 1.432 . S
C1875 C1874 1.445 . S
C1875 C1876 1.370 . S
C1876 C1875 1.370 . S
C1876 C1877 1.438 . S
C1876 H1938 0.930 . S
C1877 C1863 1.497 . S
C1877 C1876 1.438 . S
C1877 C1878 1.360 . S
C1878 C1877 1.360 . S
C1878 C1879 1.401 . S
C1878 C1883 1.446 . S
C1879 C1878 1.401 . S
C1879 C1880 1.347 . S
C1879 H1939 0.929 . S
C1880 C1879 1.347 . S
C1880 C1881 1.455 . S
C1880 H1940 0.930 . S
C1881 C1868 1.412 . S
C1881 C1880 1.455 . S
C1881 C1882 1.331 . S
C1882 C1871 1.451 . S
C1882 C1881 1.331 . S
C1882 C1883 1.497 . S
C1883 C1874 1.395 . S
C1883 C1878 1.446 . S
C1883 C1882 1.497 . S
C1884 C1885 1.582 . S
C1884 H1941 0.962 . S
C1884 H1942 0.959 . S
C1884 H1943 0.958 . S
C1885 C1884 1.582 . S
C1885 O1888 1.458 . S
C1885 H1914 0.980 . S
O1886 C1831 1.426 . S
O1886 C1832 1.334 . S
O1887 C1859 1.412 . S
O1887 C1860 1.393 . S
O1888 C1850 1.435 . S
O1888 C1885 1.458 . S
O1889 C1841 1.468 . S
O1889 C1842 1.408 . S
H1890 C1831 0.980 . S
H1891 C1830 0.959 . S
H1892 C1830 0.959 . S
H1893 C1830 0.960 . S
H1894 C1833 0.929 . S
H1895 C1837 0.929 . S
H1896 C1838 0.959 . S
H1897 C1838 0.961 . S
H1898 C1838 0.961 . S
H1899 C1839 0.960 . S
H1900 C1839 0.960 . S
H1901 C1839 0.961 . S
H1902 C1841 0.980 . S
H1903 C1840 0.961 . S
H1904 C1840 0.960 . S
H1905 C1840 0.959 . S
H1906 C1843 0.930 . S
H1907 C1847 0.931 . S
H1908 C1848 0.959 . S
H1909 C1848 0.961 . S
H1910 C1848 0.959 . S
H1911 C1849 0.960 . S
H1912 C1849 0.960 . S
H1913 C1849 0.960 . S
H1914 C1885 0.980 . S
H1915 C1851 0.930 . S
H1916 C1855 0.930 . S
H1917 C1856 0.961 . S
H1918 C1856 0.960 . S
H1919 C1856 0.958 . S
H1920 C1857 0.961 . S
H1921 C1857 0.960 . S
H1922 C1857 0.960 . S
H1923 C1859 0.980 . S
H1924 C1858 0.961 . S
H1925 C1858 0.961 . S
H1926 C1858 0.959 . S
H1927 C1861 0.932 . S
H1928 C1865 0.929 . S
H1929 C1866 0.961 . S
H1930 C1866 0.959 . S
H1931 C1866 0.959 . S
H1932 C1867 0.960 . S
H1933 C1867 0.962 . S
H1934 C1867 0.961 . S
H1935 C1869 0.929 . S
H1936 C1872 0.930 . S
H1937 C1873 0.929 . S
H1938 C1876 0.930 . S
H1939 C1879 0.929 . S
H1940 C1880 0.930 . S
H1941 C1884 0.962 . S
H1942 C1884 0.959 . S
H1943 C1884 0.958 . S
C1944 C1945 1.560 . S
C1944 H2005 0.959 . S
C1944 H2006 0.959 . S
C1944 H2007 0.960 . S
C1945 C1944 1.560 . S
C1945 O2000 1.426 . S
C1945 H2004 0.980 . S
C1946 C1947 1.407 . S
C1946 C1951 1.418 . S
C1946 O2000 1.334 . S
C1947 C1946 1.407 . S
C1947 C1948 1.360 . S
C1947 H2008 0.929 . S
C1948 C1947 1.360 . S
C1948 C1949 1.401 . S
C1948 C1952 1.527 . S
C1949 C1948 1.401 . S
C1949 C1950 1.405 . S
C1949 C1982 1.587 . S
C1950 C1949 1.405 . S
C1950 C1951 1.332 . S
C1950 C1953 1.496 . S
C1951 C1946 1.418 . S
C1951 C1950 1.332 . S
C1951 H2009 0.929 . S
C1952 C1948 1.527 . S
C1952 H2010 0.959 . S
C1952 H2011 0.961 . S
C1952 H2012 0.961 . S
C1953 C1950 1.496 . S
C1953 H2013 0.960 . S
C1953 H2014 0.960 . S
C1953 H2015 0.961 . S
C1954 C1955 1.517 . S
C1954 H2017 0.961 . S
C1954 H2018 0.960 . S
C1954 H2019 0.959 . S
C1955 C1954 1.517 . S
C1955 O2003 1.468 . S
C1955 H2016 0.980 . S
C1956 C1957 1.349 . S
C1956 C1961 1.367 . S
C1956 O2003 1.408 . S
C1957 C1956 1.349 . S
C1957 C1958 1.407 . S
C1957 H2020 0.930 . S
C1958 C1957 1.407 . S
C1958 C1959 1.449 . S
C1958 C1962 1.535 . S
C1959 C1958 1.449 . S
C1959 C1960 1.384 . S
C1959 C1984 1.553 . S
C1960 C1959 1.384 . S
C1960 C1961 1.364 . S
C1960 C1963 1.450 . S
C1961 C1956 1.367 . S
C1961 C1960 1.364 . S
C1961 H2021 0.931 . S
C1962 C1958 1.535 . S
C1962 H2022 0.959 . S
C1962 H2023 0.961 . S
C1962 H2024 0.959 . S
C1963 C1960 1.450 . S
C1963 H2025 0.960 . S
C1963 H2026 0.960 . S
C1963 H2027 0.960 . S
C1964 C1965 1.309 . S
C1964 C1969 1.304 . S
C1964 O2002 1.435 . S
C1965 C1964 1.309 . S
C1965 C1966 1.476 . S
C1965 H2029 0.930 . S
C1966 C1965 1.476 . S
C1966 C1967 1.400 . S
C1966 C1970 1.567 . S
C1967 C1966 1.400 . S
C1967 C1968 1.373 . S
C1967 C1989 1.432 . S
C1968 C1967 1.373 . S
C1968 C1969 1.339 . S
C1968 C1971 1.530 . S
C1969 C1964 1.304 . S
C1969 C1968 1.339 . S
C1969 H2030 0.930 . S
C1970 C1966 1.567 . S
C1970 H2031 0.961 . S
C1970 H2032 0.960 . S
C1970 H2033 0.958 . S
C1971 C1968 1.530 . S
C1971 H2034 0.961 . S
C1971 H2035 0.960 . S
C1971 H2036 0.960 . S
C1972 C1973 1.530 . S
C1972 H2038 0.961 . S
C1972 H2039 0.961 . S
C1972 H2040 0.959 . S
C1973 C1972 1.530 . S
C1973 O2001 1.412 . S
C1973 H2037 0.980 . S
C1974 C1975 1.288 . S
C1974 C1979 1.377 . S
C1974 O2001 1.393 . S
C1975 C1974 1.288 . S
C1975 C1976 1.369 . S
C1975 H2041 0.932 . S
C1976 C1975 1.369 . S
C1976 C1977 1.398 . S
C1976 C1980 1.527 . S
C1977 C1976 1.398 . S
C1977 C1978 1.380 . S
C1977 C1991 1.497 . S
C1978 C1977 1.380 . S
C1978 C1979 1.383 . S
C1978 C1981 1.603 . S
C1979 C1974 1.377 . S
C1979 C1978 1.383 . S
C1979 H2042 0.929 . S
C1980 C1976 1.527 . S
C1980 H2043 0.961 . S
C1980 H2044 0.959 . S
C1980 H2045 0.959 . S
C1981 C1978 1.603 . S
C1981 H2046 0.960 . S
C1981 H2047 0.962 . S
C1981 H2048 0.961 . S
C1982 C1949 1.587 . S
C1982 C1983 1.360 . S
C1982 C1995 1.412 . S
C1983 C1982 1.360 . S
C1983 C1984 1.365 . S
C1983 H2049 0.929 . S
C1984 C1959 1.553 . S
C1984 C1983 1.365 . S
C1984 C1985 1.404 . S
C1985 C1984 1.404 . S
C1985 C1986 1.395 . S
C1985 C1996 1.451 . S
C1986 C1985 1.395 . S
C1986 C1987 1.322 . S
C1986 H2050 0.930 . S
C1987 C1986 1.322 . S
C1987 C1988 1.459 . S
C1987 H2051 0.929 . S
C1988 C1987 1.459 . S
C1988 C1989 1.445 . S
C1988 C1997 1.395 . S
C1989 C1967 1.432 . S
C1989 C1988 1.445 . S
C1989 C1990 1.370 . S
C1990 C1989 1.370 . S
C1990 C1991 1.438 . S
C1990 H2052 0.930 . S
C1991 C1977 1.497 . S
C1991 C1990 1.438 . S
C1991 C1992 1.360 . S
C1992 C1991 1.360 . S
C1992 C1993 1.401 . S
C1992 C1997 1.446 . S
C1993 C1992 1.401 . S
C1993 C1994 1.347 . S
C1993 H2053 0.929 . S
C1994 C1993 1.347 . S
C1994 C1995 1.455 . S
C1994 H2054 0.930 . S
C1995 C1982 1.412 . S
C1995 C1994 1.455 . S
C1995 C1996 1.331 . S
C1996 C1985 1.451 . S
C1996 C1995 1.331 . S
C1996 C1997 1.497 . S
C1997 C1988 1.395 . S
C1997 C1992 1.446 . S
C1997 C1996 1.497 . S
C1998 C1999 1.582 . S
C1998 H2055 0.962 . S
C1998 H2056 0.959 . S
C1998 H2057 0.958 . S
C1999 C1998 1.582 . S
C1999 O2002 1.458 . S
C1999 H2028 0.980 . S
O2000 C1945 1.426 . S
O2000 C1946 1.334 . S
O2001 C1973 1.412 . S
O2001 C1974 1.393 . S
O2002 C1964 1.435 . S
O2002 C1999 1.458 . S
O2003 C1955 1.468 . S
O2003 C1956 1.408 . S
H2004 C1945 0.980 . S
H2005 C1944 0.959 . S
H2006 C1944 0.959 . S
H2007 C1944 0.960 . S
H2008 C1947 0.929 . S
H2009 C1951 0.929 . S
H2010 C1952 0.959 . S
H2011 C1952 0.961 . S
H2012 C1952 0.961 . S
H2013 C1953 0.960 . S
H2014 C1953 0.960 . S
H2015 C1953 0.961 . S
H2016 C1955 0.980 . S
H2017 C1954 0.961 . S
H2018 C1954 0.960 . S
H2019 C1954 0.959 . S
H2020 C1957 0.930 . S
H2021 C1961 0.931 . S
H2022 C1962 0.959 . S
H2023 C1962 0.961 . S
H2024 C1962 0.959 . S
H2025 C1963 0.960 . S
H2026 C1963 0.960 . S
H2027 C1963 0.960 . S
H2028 C1999 0.980 . S
H2029 C1965 0.930 . S
H2030 C1969 0.930 . S
H2031 C1970 0.961 . S
H2032 C1970 0.960 . S
H2033 C1970 0.958 . S
H2034 C1971 0.961 . S
H2035 C1971 0.960 . S
H2036 C1971 0.960 . S
H2037 C1973 0.980 . S
H2038 C1972 0.961 . S
H2039 C1972 0.961 . S
H2040 C1972 0.959 . S
H2041 C1975 0.932 . S
H2042 C1979 0.929 . S
H2043 C1980 0.961 . S
H2044 C1980 0.959 . S
H2045 C1980 0.959 . S
H2046 C1981 0.960 . S
H2047 C1981 0.962 . S
H2048 C1981 0.961 . S
H2049 C1983 0.929 . S
H2050 C1986 0.930 . S
H2051 C1987 0.929 . S
H2052 C1990 0.930 . S
H2053 C1993 0.929 . S
H2054 C1994 0.930 . S
H2055 C1998 0.962 . S
H2056 C1998 0.959 . S
H2057 C1998 0.958 . S
C2058 C2059 1.560 . S
C2058 H2119 0.959 . S
C2058 H2120 0.959 . S
C2058 H2121 0.960 . S
C2059 C2058 1.560 . S
C2059 O2114 1.426 . S
C2059 H2118 0.980 . S
C2060 C2061 1.407 . S
C2060 C2065 1.418 . S
C2060 O2114 1.334 . S
C2061 C2060 1.407 . S
C2061 C2062 1.360 . S
C2061 H2122 0.929 . S
C2062 C2061 1.360 . S
C2062 C2063 1.401 . S
C2062 C2066 1.527 . S
C2063 C2062 1.401 . S
C2063 C2064 1.405 . S
C2063 C2096 1.587 . S
C2064 C2063 1.405 . S
C2064 C2065 1.332 . S
C2064 C2067 1.496 . S
C2065 C2060 1.418 . S
C2065 C2064 1.332 . S
C2065 H2123 0.929 . S
C2066 C2062 1.527 . S
C2066 H2124 0.959 . S
C2066 H2125 0.961 . S
C2066 H2126 0.961 . S
C2067 C2064 1.496 . S
C2067 H2127 0.960 . S
C2067 H2128 0.960 . S
C2067 H2129 0.961 . S
C2068 C2069 1.517 . S
C2068 H2131 0.961 . S
C2068 H2132 0.960 . S
C2068 H2133 0.959 . S
C2069 C2068 1.517 . S
C2069 O2117 1.468 . S
C2069 H2130 0.980 . S
C2070 C2071 1.349 . S
C2070 C2075 1.367 . S
C2070 O2117 1.408 . S
C2071 C2070 1.349 . S
C2071 C2072 1.407 . S
C2071 H2134 0.930 . S
C2072 C2071 1.407 . S
C2072 C2073 1.449 . S
C2072 C2076 1.535 . S
C2073 C2072 1.449 . S
C2073 C2074 1.384 . S
C2073 C2098 1.553 . S
C2074 C2073 1.384 . S
C2074 C2075 1.364 . S
C2074 C2077 1.450 . S
C2075 C2070 1.367 . S
C2075 C2074 1.364 . S
C2075 H2135 0.931 . S
C2076 C2072 1.535 . S
C2076 H2136 0.959 . S
C2076 H2137 0.961 . S
C2076 H2138 0.959 . S
C2077 C2074 1.450 . S
C2077 H2139 0.960 . S
C2077 H2140 0.960 . S
C2077 H2141 0.960 . S
C2078 C2079 1.309 . S
C2078 C2083 1.304 . S
C2078 O2116 1.435 . S
C2079 C2078 1.309 . S
C2079 C2080 1.476 . S
C2079 H2143 0.930 . S
C2080 C2079 1.476 . S
C2080 C2081 1.400 . S
C2080 C2084 1.567 . S
C2081 C2080 1.400 . S
C2081 C2082 1.373 . S
C2081 C2103 1.432 . S
C2082 C2081 1.373 . S
C2082 C2083 1.339 . S
C2082 C2085 1.530 . S
C2083 C2078 1.304 . S
C2083 C2082 1.339 . S
C2083 H2144 0.930 . S
C2084 C2080 1.567 . S
C2084 H2145 0.961 . S
C2084 H2146 0.960 . S
C2084 H2147 0.958 . S
C2085 C2082 1.530 . S
C2085 H2148 0.961 . S
C2085 H2149 0.960 . S
C2085 H2150 0.960 . S
C2086 C2087 1.530 . S
C2086 H2152 0.961 . S
C2086 H2153 0.961 . S
C2086 H2154 0.959 . S
C2087 C2086 1.530 . S
C2087 O2115 1.412 . S
C2087 H2151 0.980 . S
C2088 C2089 1.288 . S
C2088 C2093 1.377 . S
C2088 O2115 1.393 . S
C2089 C2088 1.288 . S
C2089 C2090 1.369 . S
C2089 H2155 0.932 . S
C2090 C2089 1.369 . S
C2090 C2091 1.398 . S
C2090 C2094 1.527 . S
C2091 C2090 1.398 . S
C2091 C2092 1.380 . S
C2091 C2105 1.497 . S
C2092 C2091 1.380 . S
C2092 C2093 1.383 . S
C2092 C2095 1.603 . S
C2093 C2088 1.377 . S
C2093 C2092 1.383 . S
C2093 H2156 0.929 . S
C2094 C2090 1.527 . S
C2094 H2157 0.961 . S
C2094 H2158 0.959 . S
C2094 H2159 0.959 . S
C2095 C2092 1.603 . S
C2095 H2160 0.960 . S
C2095 H2161 0.962 . S
C2095 H2162 0.961 . S
C2096 C2063 1.587 . S
C2096 C2097 1.360 . S
C2096 C2109 1.412 . S
C2097 C2096 1.360 . S
C2097 C2098 1.365 . S
C2097 H2163 0.929 . S
C2098 C2073 1.553 . S
C2098 C2097 1.365 . S
C2098 C2099 1.404 . S
C2099 C2098 1.404 . S
C2099 C2100 1.395 . S
C2099 C2110 1.451 . S
C2100 C2099 1.395 . S
C2100 C2101 1.322 . S
C2100 H2164 0.930 . S
C2101 C2100 1.322 . S
C2101 C2102 1.459 . S
C2101 H2165 0.929 . S
C2102 C2101 1.459 . S
C2102 C2103 1.445 . S
C2102 C2111 1.395 . S
C2103 C2081 1.432 . S
C2103 C2102 1.445 . S
C2103 C2104 1.370 . S
C2104 C2103 1.370 . S
C2104 C2105 1.438 . S
C2104 H2166 0.930 . S
C2105 C2091 1.497 . S
C2105 C2104 1.438 . S
C2105 C2106 1.360 . S
C2106 C2105 1.360 . S
C2106 C2107 1.401 . S
C2106 C2111 1.446 . S
C2107 C2106 1.401 . S
C2107 C2108 1.347 . S
C2107 H2167 0.929 . S
C2108 C2107 1.347 . S
C2108 C2109 1.455 . S
C2108 H2168 0.930 . S
C2109 C2096 1.412 . S
C2109 C2108 1.455 . S
C2109 C2110 1.331 . S
C2110 C2099 1.451 . S
C2110 C2109 1.331 . S
C2110 C2111 1.497 . S
C2111 C2102 1.395 . S
C2111 C2106 1.446 . S
C2111 C2110 1.497 . S
C2112 C2113 1.582 . S
C2112 H2169 0.962 . S
C2112 H2170 0.959 . S
C2112 H2171 0.958 . S
C2113 C2112 1.582 . S
C2113 O2116 1.458 . S
C2113 H2142 0.980 . S
O2114 C2059 1.426 . S
O2114 C2060 1.334 . S
O2115 C2087 1.412 . S
O2115 C2088 1.393 . S
O2116 C2078 1.435 . S
O2116 C2113 1.458 . S
O2117 C2069 1.468 . S
O2117 C2070 1.408 . S
H2118 C2059 0.980 . S
H2119 C2058 0.959 . S
H2120 C2058 0.959 . S
H2121 C2058 0.960 . S
H2122 C2061 0.929 . S
H2123 C2065 0.929 . S
H2124 C2066 0.959 . S
H2125 C2066 0.961 . S
H2126 C2066 0.961 . S
H2127 C2067 0.960 . S
H2128 C2067 0.960 . S
H2129 C2067 0.961 . S
H2130 C2069 0.980 . S
H2131 C2068 0.961 . S
H2132 C2068 0.960 . S
H2133 C2068 0.959 . S
H2134 C2071 0.930 . S
H2135 C2075 0.931 . S
H2136 C2076 0.959 . S
H2137 C2076 0.961 . S
H2138 C2076 0.959 . S
H2139 C2077 0.960 . S
H2140 C2077 0.960 . S
H2141 C2077 0.960 . S
H2142 C2113 0.980 . S
H2143 C2079 0.930 . S
H2144 C2083 0.930 . S
H2145 C2084 0.961 . S
H2146 C2084 0.960 . S
H2147 C2084 0.958 . S
H2148 C2085 0.961 . S
H2149 C2085 0.960 . S
H2150 C2085 0.960 . S
H2151 C2087 0.980 . S
H2152 C2086 0.961 . S
H2153 C2086 0.961 . S
H2154 C2086 0.959 . S
H2155 C2089 0.932 . S
H2156 C2093 0.929 . S
H2157 C2094 0.961 . S
H2158 C2094 0.959 . S
H2159 C2094 0.959 . S
H2160 C2095 0.960 . S
H2161 C2095 0.962 . S
H2162 C2095 0.961 . S
H2163 C2097 0.929 . S
H2164 C2100 0.930 . S
H2165 C2101 0.929 . S
H2166 C2104 0.930 . S
H2167 C2107 0.929 . S
H2168 C2108 0.930 . S
H2169 C2112 0.962 . S
H2170 C2112 0.959 . S
H2171 C2112 0.958 . S
C2172 C2173 1.560 . S
C2172 H2233 0.959 . S
C2172 H2234 0.959 . S
C2172 H2235 0.960 . S
C2173 C2172 1.560 . S
C2173 O2228 1.426 . S
C2173 H2232 0.980 . S
C2174 C2175 1.407 . S
C2174 C2179 1.418 . S
C2174 O2228 1.334 . S
C2175 C2174 1.407 . S
C2175 C2176 1.360 . S
C2175 H2236 0.929 . S
C2176 C2175 1.360 . S
C2176 C2177 1.401 . S
C2176 C2180 1.527 . S
C2177 C2176 1.401 . S
C2177 C2178 1.405 . S
C2177 C2210 1.587 . S
C2178 C2177 1.405 . S
C2178 C2179 1.332 . S
C2178 C2181 1.496 . S
C2179 C2174 1.418 . S
C2179 C2178 1.332 . S
C2179 H2237 0.929 . S
C2180 C2176 1.527 . S
C2180 H2238 0.959 . S
C2180 H2239 0.961 . S
C2180 H2240 0.961 . S
C2181 C2178 1.496 . S
C2181 H2241 0.960 . S
C2181 H2242 0.960 . S
C2181 H2243 0.961 . S
C2182 C2183 1.517 . S
C2182 H2245 0.961 . S
C2182 H2246 0.960 . S
C2182 H2247 0.959 . S
C2183 C2182 1.517 . S
C2183 O2231 1.468 . S
C2183 H2244 0.980 . S
C2184 C2185 1.349 . S
C2184 C2189 1.367 . S
C2184 O2231 1.408 . S
C2185 C2184 1.349 . S
C2185 C2186 1.407 . S
C2185 H2248 0.930 . S
C2186 C2185 1.407 . S
C2186 C2187 1.449 . S
C2186 C2190 1.535 . S
C2187 C2186 1.449 . S
C2187 C2188 1.384 . S
C2187 C2212 1.553 . S
C2188 C2187 1.384 . S
C2188 C2189 1.364 . S
C2188 C2191 1.450 . S
C2189 C2184 1.367 . S
C2189 C2188 1.364 . S
C2189 H2249 0.931 . S
C2190 C2186 1.535 . S
C2190 H2250 0.959 . S
C2190 H2251 0.961 . S
C2190 H2252 0.959 . S
C2191 C2188 1.450 . S
C2191 H2253 0.960 . S
C2191 H2254 0.960 . S
C2191 H2255 0.960 . S
C2192 C2193 1.309 . S
C2192 C2197 1.304 . S
C2192 O2230 1.435 . S
C2193 C2192 1.309 . S
C2193 C2194 1.476 . S
C2193 H2257 0.930 . S
C2194 C2193 1.476 . S
C2194 C2195 1.400 . S
C2194 C2198 1.567 . S
C2195 C2194 1.400 . S
C2195 C2196 1.373 . S
C2195 C2217 1.432 . S
C2196 C2195 1.373 . S
C2196 C2197 1.339 . S
C2196 C2199 1.530 . S
C2197 C2192 1.304 . S
C2197 C2196 1.339 . S
C2197 H2258 0.930 . S
C2198 C2194 1.567 . S
C2198 H2259 0.961 . S
C2198 H2260 0.960 . S
C2198 H2261 0.958 . S
C2199 C2196 1.530 . S
C2199 H2262 0.961 . S
C2199 H2263 0.960 . S
C2199 H2264 0.960 . S
C2200 C2201 1.530 . S
C2200 H2266 0.961 . S
C2200 H2267 0.961 . S
C2200 H2268 0.959 . S
C2201 C2200 1.530 . S
C2201 O2229 1.412 . S
C2201 H2265 0.980 . S
C2202 C2203 1.288 . S
C2202 C2207 1.377 . S
C2202 O2229 1.393 . S
C2203 C2202 1.288 . S
C2203 C2204 1.369 . S
C2203 H2269 0.932 . S
C2204 C2203 1.369 . S
C2204 C2205 1.398 . S
C2204 C2208 1.527 . S
C2205 C2204 1.398 . S
C2205 C2206 1.380 . S
C2205 C2219 1.497 . S
C2206 C2205 1.380 . S
C2206 C2207 1.383 . S
C2206 C2209 1.603 . S
C2207 C2202 1.377 . S
C2207 C2206 1.383 . S
C2207 H2270 0.929 . S
C2208 C2204 1.527 . S
C2208 H2271 0.961 . S
C2208 H2272 0.959 . S
C2208 H2273 0.959 . S
C2209 C2206 1.603 . S
C2209 H2274 0.960 . S
C2209 H2275 0.962 . S
C2209 H2276 0.961 . S
C2210 C2177 1.587 . S
C2210 C2211 1.360 . S
C2210 C2223 1.412 . S
C2211 C2210 1.360 . S
C2211 C2212 1.365 . S
C2211 H2277 0.929 . S
C2212 C2187 1.553 . S
C2212 C2211 1.365 . S
C2212 C2213 1.404 . S
C2213 C2212 1.404 . S
C2213 C2214 1.395 . S
C2213 C2224 1.451 . S
C2214 C2213 1.395 . S
C2214 C2215 1.322 . S
C2214 H2278 0.930 . S
C2215 C2214 1.322 . S
C2215 C2216 1.459 . S
C2215 H2279 0.929 . S
C2216 C2215 1.459 . S
C2216 C2217 1.445 . S
C2216 C2225 1.395 . S
C2217 C2195 1.432 . S
C2217 C2216 1.445 . S
C2217 C2218 1.370 . S
C2218 C2217 1.370 . S
C2218 C2219 1.438 . S
C2218 H2280 0.930 . S
C2219 C2205 1.497 . S
C2219 C2218 1.438 . S
C2219 C2220 1.360 . S
C2220 C2219 1.360 . S
C2220 C2221 1.401 . S
C2220 C2225 1.446 . S
C2221 C2220 1.401 . S
C2221 C2222 1.347 . S
C2221 H2281 0.929 . S
C2222 C2221 1.347 . S
C2222 C2223 1.455 . S
C2222 H2282 0.930 . S
C2223 C2210 1.412 . S
C2223 C2222 1.455 . S
C2223 C2224 1.331 . S
C2224 C2213 1.451 . S
C2224 C2223 1.331 . S
C2224 C2225 1.497 . S
C2225 C2216 1.395 . S
C2225 C2220 1.446 . S
C2225 C2224 1.497 . S
C2226 C2227 1.582 . S
C2226 H2283 0.962 . S
C2226 H2284 0.959 . S
C2226 H2285 0.958 . S
C2227 C2226 1.582 . S
C2227 O2230 1.458 . S
C2227 H2256 0.980 . S
O2228 C2173 1.426 . S
O2228 C2174 1.334 . S
O2229 C2201 1.412 . S
O2229 C2202 1.393 . S
O2230 C2192 1.435 . S
O2230 C2227 1.458 . S
O2231 C2183 1.468 . S
O2231 C2184 1.408 . S
H2232 C2173 0.980 . S
H2233 C2172 0.959 . S
H2234 C2172 0.959 . S
H2235 C2172 0.960 . S
H2236 C2175 0.929 . S
H2237 C2179 0.929 . S
H2238 C2180 0.959 . S
H2239 C2180 0.961 . S
H2240 C2180 0.961 . S
H2241 C2181 0.960 . S
H2242 C2181 0.960 . S
H2243 C2181 0.961 . S
H2244 C2183 0.980 . S
H2245 C2182 0.961 . S
H2246 C2182 0.960 . S
H2247 C2182 0.959 . S
H2248 C2185 0.930 . S
H2249 C2189 0.931 . S
H2250 C2190 0.959 . S
H2251 C2190 0.961 . S
H2252 C2190 0.959 . S
H2253 C2191 0.960 . S
H2254 C2191 0.960 . S
H2255 C2191 0.960 . S
H2256 C2227 0.980 . S
H2257 C2193 0.930 . S
H2258 C2197 0.930 . S
H2259 C2198 0.961 . S
H2260 C2198 0.960 . S
H2261 C2198 0.958 . S
H2262 C2199 0.961 . S
H2263 C2199 0.960 . S
H2264 C2199 0.960 . S
H2265 C2201 0.980 . S
H2266 C2200 0.961 . S
H2267 C2200 0.961 . S
H2268 C2200 0.959 . S
H2269 C2203 0.932 . S
H2270 C2207 0.929 . S
H2271 C2208 0.961 . S
H2272 C2208 0.959 . S
H2273 C2208 0.959 . S
H2274 C2209 0.960 . S
H2275 C2209 0.962 . S
H2276 C2209 0.961 . S
H2277 C2211 0.929 . S
H2278 C2214 0.930 . S
H2279 C2215 0.929 . S
H2280 C2218 0.930 . S
H2281 C2221 0.929 . S
H2282 C2222 0.930 . S
H2283 C2226 0.962 . S
H2284 C2226 0.959 . S
H2285 C2226 0.958 . S
H2286 C2292 0.930 . S
H2287 C2296 0.930 . S
H2288 C2301 0.929 . S
H2289 C2299 0.949 1_455 S
H2290 C2294 0.929 . S
H2291 C2300 0.929 . S
C2292 H2286 0.930 . S
C2292 C2293 1.367 1_455 S
C2292 C2300 1.378 . S
C2293 C2292 1.367 1_655 S
C2293 C2301 1.433 . S
C2294 H2290 0.929 . S
C2294 C2296 1.378 . S
C2294 C2298 1.350 . S
C2295 C2298 1.463 . S
C2295 C2300 1.350 1_655 S
C2295 N2303 1.427 . S
C2296 H2287 0.930 . S
C2296 C2294 1.378 . S
C2296 C2297 1.367 . S
C2297 C2296 1.367 . S
C2297 C2299 1.446 . S
C2298 C2294 1.350 . S
C2298 C2295 1.463 . S
C2298 N2302 1.427 1_655 S
C2299 H2289 0.949 1_655 S
C2299 C2297 1.446 . S
C2299 N2302 1.356 1_655 S
C2300 H2291 0.929 . S
C2300 C2292 1.378 . S
C2300 C2295 1.350 1_455 S
C2301 H2288 0.929 . S
C2301 C2293 1.433 . S
C2301 N2303 1.384 . S
N2302 C2298 1.427 1_455 S
N2302 C2299 1.356 1_455 S
N2303 C2295 1.427 . S
N2303 C2301 1.384 . S
H2304 C2310 0.930 . S
H2305 C2314 0.930 . S
H2306 C2319 0.929 . S
H2307 C2317 0.929 . S
H2308 C2312 0.929 . S
H2309 C2318 0.929 . S
C2310 H2304 0.930 . S
C2310 C2311 1.367 . S
C2310 C2318 1.378 . S
C2311 C2310 1.367 . S
C2311 C2319 1.433 . S
C2312 H2308 0.929 . S
C2312 C2314 1.378 . S
C2312 C2316 1.350 . S
C2313 C2316 1.463 . S
C2313 C2318 1.350 . S
C2313 N2321 1.427 . S
C2314 H2305 0.930 . S
C2314 C2312 1.378 . S
C2314 C2315 1.367 . S
C2315 C2314 1.367 . S
C2315 C2317 1.433 . S
C2316 C2312 1.350 . S
C2316 C2313 1.463 . S
C2316 N2320 1.427 . S
C2317 H2307 0.929 . S
C2317 C2315 1.433 . S
C2317 N2320 1.384 . S
C2318 H2309 0.929 . S
C2318 C2310 1.378 . S
C2318 C2313 1.350 . S
C2319 H2306 0.929 . S
C2319 C2311 1.433 . S
C2319 N2321 1.384 . S
N2320 C2316 1.427 . S
N2320 C2317 1.384 . S
N2321 C2313 1.427 . S
N2321 C2319 1.384 . S
H2322 C2328 0.930 . S
H2323 C2332 0.930 . S
H2324 C2337 0.929 . S
H2325 C2335 0.929 . S
H2326 C2330 0.929 . S
H2327 C2336 0.929 . S
C2328 H2322 0.930 . S
C2328 C2329 1.367 . S
C2328 C2336 1.378 . S
C2329 C2328 1.367 . S
C2329 C2337 1.433 1_545 S
C2330 H2326 0.929 . S
C2330 C2332 1.378 . S
C2330 C2334 1.350 1_565 S
C2331 C2334 1.463 . S
C2331 C2336 1.350 . S
C2331 N2339 1.427 1_545 S
C2332 H2323 0.930 . S
C2332 C2330 1.378 . S
C2332 C2333 1.367 1_565 S
C2333 C2332 1.367 1_545 S
C2333 C2335 1.433 . S
C2334 C2330 1.350 1_545 S
C2334 C2331 1.463 . S
C2334 N2338 1.427 . S
C2335 H2325 0.929 . S
C2335 C2333 1.433 . S
C2335 N2338 1.384 . S
C2336 H2327 0.929 . S
C2336 C2328 1.378 . S
C2336 C2331 1.350 . S
C2337 H2324 0.929 . S
C2337 C2329 1.433 1_565 S
C2337 N2339 1.384 . S
N2338 C2334 1.427 . S
N2338 C2335 1.384 . S
N2339 C2331 1.427 1_565 S
N2339 C2337 1.384 . S
H2340 C2346 0.930 . S
H2341 C2350 0.930 . S
H2342 C2355 0.929 . S
H2343 C2353 0.929 . S
H2344 C2348 0.929 . S
H2345 C2354 0.929 . S
C2346 H2340 0.930 . S
C2346 C2347 1.367 . S
C2346 C2354 1.378 . S
C2347 C2346 1.367 . S
C2347 C2355 1.433 1_565 S
C2348 H2344 0.929 . S
C2348 C2350 1.378 . S
C2348 C2352 1.350 1_545 S
C2349 C2352 1.463 . S
C2349 C2354 1.350 . S
C2349 N2357 1.427 1_565 S
C2350 H2341 0.930 . S
C2350 C2348 1.378 . S
C2350 C2351 1.367 1_545 S
C2351 C2350 1.367 1_565 S
C2351 C2353 1.433 . S
C2352 C2348 1.350 1_565 S
C2352 C2349 1.463 . S
C2352 N2356 1.427 . S
C2353 H2343 0.929 . S
C2353 C2351 1.433 . S
C2353 N2356 1.384 . S
C2354 H2345 0.929 . S
C2354 C2346 1.378 . S
C2354 C2349 1.350 . S
C2355 H2342 0.929 . S
C2355 C2347 1.433 1_545 S
C2355 N2357 1.384 . S
N2356 C2352 1.427 . S
N2356 C2353 1.384 . S
N2357 C2349 1.427 1_545 S
N2357 C2355 1.384 . S
H2358 C2364 0.930 . S
H2359 C2368 0.930 . S
H2360 C2373 0.929 . S
H2361 C2371 0.929 . S
H2362 C2366 0.929 . S
H2363 C2372 0.929 . S
C2364 H2358 0.930 . S
C2364 C2365 1.367 . S
C2364 C2372 1.378 . S
C2365 C2364 1.367 . S
C2365 C2373 1.433 1_455 S
C2366 H2362 0.929 . S
C2366 C2368 1.378 . S
C2366 C2370 1.350 1_655 S
C2367 C2370 1.463 . S
C2367 C2372 1.350 . S
C2367 N2375 1.427 1_455 S
C2368 H2359 0.930 . S
C2368 C2366 1.378 . S
C2368 C2369 1.367 1_655 S
C2369 C2368 1.367 1_455 S
C2369 C2371 1.433 . S
C2370 C2366 1.350 1_455 S
C2370 C2367 1.463 . S
C2370 N2374 1.427 . S
C2371 H2361 0.929 . S
C2371 C2369 1.433 . S
C2371 N2374 1.384 . S
C2372 H2363 0.929 . S
C2372 C2364 1.378 . S
C2372 C2367 1.350 . S
C2373 H2360 0.929 . S
C2373 C2365 1.433 1_655 S
C2373 N2375 1.384 . S
N2374 C2370 1.427 . S
N2374 C2371 1.384 . S
N2375 C2367 1.427 1_655 S
N2375 C2373 1.384 . S
H2376 C2382 0.930 . S
H2377 C2386 0.930 . S
H2378 C2391 0.929 . S
H2379 C2389 0.929 . S
H2380 C2384 0.929 . S
H2381 C2390 0.929 . S
C2382 H2376 0.930 . S
C2382 C2383 1.367 . S
C2382 C2390 1.378 . S
C2383 C2382 1.367 . S
C2383 C2391 1.433 . S
C2384 H2380 0.929 . S
C2384 C2386 1.378 . S
C2384 C2388 1.350 . S
C2385 C2388 1.463 . S
C2385 C2390 1.350 . S
C2385 N2393 1.427 . S
C2386 H2377 0.930 . S
C2386 C2384 1.378 . S
C2386 C2387 1.367 . S
C2387 C2386 1.367 . S
C2387 C2389 1.433 . S
C2388 C2384 1.350 . S
C2388 C2385 1.463 . S
C2388 N2392 1.427 . S
C2389 H2379 0.929 . S
C2389 C2387 1.433 . S
C2389 N2392 1.384 . S
C2390 H2381 0.929 . S
C2390 C2382 1.378 . S
C2390 C2385 1.350 . S
C2391 H2378 0.929 . S
C2391 C2383 1.433 . S
C2391 N2393 1.384 . S
N2392 C2388 1.427 . S
N2392 C2389 1.384 . S
N2393 C2385 1.427 . S
N2393 C2391 1.384 . S
H2394 C2400 0.930 . S
H2395 C2404 0.930 . S
H2396 C2409 0.929 . S
H2397 C2407 0.929 . S
H2398 C2402 0.929 . S
H2399 C2408 0.929 . S
C2400 H2394 0.930 . S
C2400 C2401 1.367 1_655 S
C2400 C2408 1.378 . S
C2401 C2400 1.367 1_455 S
C2401 C2409 1.433 . S
C2402 H2398 0.929 . S
C2402 C2404 1.378 . S
C2402 C2406 1.350 . S
C2403 C2406 1.463 . S
C2403 C2408 1.350 1_455 S
C2403 N2411 1.427 . S
C2404 H2395 0.930 . S
C2404 C2402 1.378 . S
C2404 C2405 1.367 . S
C2405 C2404 1.367 . S
C2405 C2407 1.433 1_455 S
C2406 C2402 1.350 . S
C2406 C2403 1.463 . S
C2406 N2410 1.427 1_455 S
C2407 H2397 0.929 . S
C2407 C2405 1.433 1_655 S
C2407 N2410 1.384 . S
C2408 H2399 0.929 . S
C2408 C2400 1.378 . S
C2408 C2403 1.350 1_655 S
C2409 H2396 0.929 . S
C2409 C2401 1.433 . S
C2409 N2411 1.384 . S
N2410 C2406 1.427 1_655 S
N2410 C2407 1.384 . S
N2411 C2403 1.427 . S
N2411 C2409 1.384 . S
H2412 C2418 0.930 . S
H2413 C2422 0.930 . S
H2414 C2427 0.929 . S
H2415 C2425 0.929 . S
H2416 C2420 0.929 . S
H2417 C2426 0.929 . S
C2418 H2412 0.930 . S
C2418 C2419 1.367 . S
C2418 C2426 1.378 . S
C2419 C2418 1.367 . S
C2419 C2427 1.433 . S
C2420 H2416 0.929 . S
C2420 C2422 1.378 . S
C2420 C2424 1.350 . S
C2421 C2424 1.463 . S
C2421 C2426 1.350 . S
C2421 N2429 1.427 . S
C2422 H2413 0.930 . S
C2422 C2420 1.378 . S
C2422 C2423 1.367 . S
C2423 C2422 1.367 . S
C2423 C2425 1.433 . S
C2424 C2420 1.350 . S
C2424 C2421 1.463 . S
C2424 N2428 1.427 . S
C2425 H2415 0.929 . S
C2425 C2423 1.433 . S
C2425 N2428 1.384 . S
C2426 H2417 0.929 . S
C2426 C2418 1.378 . S
C2426 C2421 1.350 . S
C2427 H2414 0.929 . S
C2427 C2419 1.433 . S
C2427 N2429 1.384 . S
N2428 C2424 1.427 . S
N2428 C2425 1.384 . S
N2429 C2421 1.427 . S
N2429 C2427 1.384 . S
H2430 C2436 0.930 . S
H2431 C2440 0.925 . S
H2432 C2445 0.929 . S
H2433 C2443 0.929 . S
H2434 C2438 0.929 . S
H2435 C2444 0.929 . S
C2436 H2430 0.930 . S
C2436 C2437 1.367 . S
C2436 C2444 1.378 . S
C2437 C2436 1.367 . S
C2437 C2445 1.433 . S
C2438 H2434 0.929 . S
C2438 C2440 1.378 . S
C2438 C2442 1.350 . S
C2439 C2442 1.463 . S
C2439 C2444 1.350 . S
C2439 N2447 1.427 . S
C2440 H2431 0.925 . S
C2440 C2438 1.378 . S
C2440 C2441 1.367 . S
C2441 C2440 1.367 . S
C2441 C2443 1.433 . S
C2442 C2438 1.350 . S
C2442 C2439 1.463 . S
C2442 N2446 1.427 . S
C2443 H2433 0.929 . S
C2443 C2441 1.433 . S
C2443 N2446 1.384 . S
C2444 H2435 0.929 . S
C2444 C2436 1.378 . S
C2444 C2439 1.350 . S
C2445 H2432 0.929 . S
C2445 C2437 1.433 . S
C2445 N2447 1.384 . S
N2446 C2442 1.427 . S
N2446 C2443 1.384 . S
N2447 C2439 1.427 . S
N2447 C2445 1.384 . S
H2448 C2454 0.930 . S
H2449 C2458 0.930 . S
H2450 C2463 0.929 . S
H2451 C2461 0.929 . S
H2452 C2456 0.929 . S
H2453 C2462 0.929 . S
C2454 H2448 0.930 . S
C2454 C2455 1.367 . S
C2454 C2462 1.378 . S
C2455 C2454 1.367 . S
C2455 C2463 1.433 1_545 S
C2456 H2452 0.929 . S
C2456 C2458 1.378 . S
C2456 C2460 1.350 1_565 S
C2457 C2460 1.463 . S
C2457 C2462 1.350 . S
C2457 N2465 1.427 1_545 S
C2458 H2449 0.930 . S
C2458 C2456 1.378 . S
C2458 C2459 1.367 1_565 S
C2459 C2458 1.367 1_545 S
C2459 C2461 1.433 . S
C2460 C2456 1.350 1_545 S
C2460 C2457 1.463 . S
C2460 N2464 1.427 . S
C2461 H2451 0.929 . S
C2461 C2459 1.433 . S
C2461 N2464 1.384 . S
C2462 H2453 0.929 . S
C2462 C2454 1.378 . S
C2462 C2457 1.350 . S
C2463 H2450 0.929 . S
C2463 C2455 1.433 1_565 S
C2463 N2465 1.384 . S
N2464 C2460 1.427 . S
N2464 C2461 1.384 . S
N2465 C2457 1.427 1_565 S
N2465 C2463 1.384 . S
H2466 C2472 0.930 . S
H2467 C2476 0.930 . S
H2468 C2481 0.929 . S
H2469 C2479 0.929 . S
H2470 C2474 0.929 . S
H2471 C2480 0.929 . S
C2472 H2466 0.930 . S
C2472 C2473 1.367 . S
C2472 C2480 1.378 . S
C2473 C2472 1.367 . S
C2473 C2481 1.433 1_655 S
C2474 H2470 0.929 . S
C2474 C2476 1.378 . S
C2474 C2478 1.350 1_455 S
C2475 C2478 1.463 . S
C2475 C2480 1.350 . S
C2475 N2483 1.427 1_655 S
C2476 H2467 0.930 . S
C2476 C2474 1.378 . S
C2476 C2477 1.367 1_455 S
C2477 C2476 1.367 1_655 S
C2477 C2479 1.433 . S
C2478 C2474 1.350 1_655 S
C2478 C2475 1.463 . S
C2478 N2482 1.427 . S
C2479 H2469 0.929 . S
C2479 C2477 1.433 . S
C2479 N2482 1.384 . S
C2480 H2471 0.929 . S
C2480 C2472 1.378 . S
C2480 C2475 1.350 . S
C2481 H2468 0.929 . S
C2481 C2473 1.433 1_455 S
C2481 N2483 1.384 . S
N2482 C2478 1.427 . S
N2482 C2479 1.384 . S
N2483 C2475 1.427 1_455 S
N2483 C2481 1.384 . S
H2484 C2490 0.930 . S
H2485 C2494 0.930 . S
H2486 C2499 0.929 . S
H2487 C2497 0.929 . S
H2488 C2492 0.929 . S
H2489 C2498 0.929 . S
C2490 H2484 0.930 . S
C2490 C2491 1.367 . S
C2490 C2498 1.378 . S
C2491 C2490 1.367 . S
C2491 C2499 1.433 . S
C2492 H2488 0.929 . S
C2492 C2494 1.378 . S
C2492 C2496 1.350 . S
C2493 C2496 1.463 . S
C2493 C2498 1.350 . S
C2493 N2501 1.427 . S
C2494 H2485 0.930 . S
C2494 C2492 1.378 . S
C2494 C2495 1.367 . S
C2495 C2494 1.367 . S
C2495 C2497 1.433 . S
C2496 C2492 1.350 . S
C2496 C2493 1.463 . S
C2496 N2500 1.427 . S
C2497 H2487 0.929 . S
C2497 C2495 1.433 . S
C2497 N2500 1.384 . S
C2498 H2489 0.929 . S
C2498 C2490 1.378 . S
C2498 C2493 1.350 . S
C2499 H2486 0.929 . S
C2499 C2491 1.433 . S
C2499 N2501 1.384 . S
N2500 C2496 1.427 . S
N2500 C2497 1.384 . S
N2501 C2493 1.427 . S
N2501 C2499 1.384 . S
H2502 C2508 0.930 . S
H2503 C2512 0.930 . S
H2504 C2517 0.929 . S
H2505 C2515 0.929 . S
H2506 C2510 0.929 . S
H2507 C2516 0.929 . S
C2508 H2502 0.930 . S
C2508 C2509 1.367 . S
C2508 C2516 1.378 . S
C2509 C2508 1.367 . S
C2509 C2517 1.433 . S
C2510 H2506 0.929 . S
C2510 C2512 1.378 . S
C2510 C2514 1.350 . S
C2511 C2514 1.463 . S
C2511 C2516 1.350 . S
C2511 N2519 1.427 . S
C2512 H2503 0.930 . S
C2512 C2510 1.378 . S
C2512 C2513 1.367 . S
C2513 C2512 1.367 . S
C2513 C2515 1.433 . S
C2514 C2510 1.350 . S
C2514 C2511 1.463 . S
C2514 N2518 1.427 . S
C2515 H2505 0.929 . S
C2515 C2513 1.433 . S
C2515 N2518 1.384 . S
C2516 H2507 0.929 . S
C2516 C2508 1.378 . S
C2516 C2511 1.350 . S
C2517 H2504 0.929 . S
C2517 C2509 1.433 . S
C2517 N2519 1.384 . S
N2518 C2514 1.427 . S
N2518 C2515 1.384 . S
N2519 C2511 1.427 . S
N2519 C2517 1.384 . S
H2520 C2526 0.930 . S
H2521 C2530 0.930 . S
H2522 C2535 0.929 . S
H2523 C2533 0.929 . S
H2524 C2528 0.929 . S
H2525 C2534 0.929 . S
C2526 H2520 0.930 . S
C2526 C2527 1.367 . S
C2526 C2534 1.378 . S
C2527 C2526 1.367 . S
C2527 C2535 1.433 . S
C2528 H2524 0.929 . S
C2528 C2530 1.378 . S
C2528 C2532 1.350 . S
C2529 C2532 1.463 . S
C2529 C2534 1.350 . S
C2529 N2537 1.427 . S
C2530 H2521 0.930 . S
C2530 C2528 1.378 . S
C2530 C2531 1.367 . S
C2531 C2530 1.367 . S
C2531 C2533 1.433 . S
C2532 C2528 1.350 . S
C2532 C2529 1.463 . S
C2532 N2536 1.427 . S
C2533 H2523 0.929 . S
C2533 C2531 1.433 . S
C2533 N2536 1.384 . S
C2534 H2525 0.929 . S
C2534 C2526 1.378 . S
C2534 C2529 1.350 . S
C2535 H2522 0.929 . S
C2535 C2527 1.433 . S
C2535 N2537 1.384 . S
N2536 C2532 1.427 . S
N2536 C2533 1.384 . S
N2537 C2529 1.427 . S
N2537 C2535 1.384 . S
H2538 C2544 0.930 . S
H2539 C2548 0.930 . S
H2540 C2553 0.929 . S
H2541 C2551 0.929 . S
H2542 C2546 0.929 . S
H2543 C2552 0.929 . S
C2544 H2538 0.930 . S
C2544 C2545 1.367 . S
C2544 C2552 1.378 . S
C2545 C2544 1.367 . S
C2545 C2553 1.433 . S
C2546 H2542 0.929 . S
C2546 C2548 1.378 . S
C2546 C2550 1.350 . S
C2547 C2550 1.463 . S
C2547 C2552 1.350 . S
C2547 N2555 1.427 . S
C2548 H2539 0.930 . S
C2548 C2546 1.378 . S
C2548 C2549 1.367 . S
C2549 C2548 1.367 . S
C2549 C2551 1.433 . S
C2550 C2546 1.350 . S
C2550 C2547 1.463 . S
C2550 N2554 1.427 . S
C2551 H2541 0.929 . S
C2551 C2549 1.433 . S
C2551 N2554 1.384 . S
C2552 H2543 0.929 . S
C2552 C2544 1.378 . S
C2552 C2547 1.350 . S
C2553 H2540 0.929 . S
C2553 C2545 1.433 . S
C2553 N2555 1.384 . S
N2554 C2550 1.427 . S
N2554 C2551 1.384 . S
N2555 C2547 1.427 . S
N2555 C2553 1.384 . S
H2556 C2562 0.930 . S
H2557 C2566 0.930 . S
H2558 C2571 0.929 . S
H2559 C2569 0.929 . S
H2560 C2564 0.929 . S
H2561 C2570 0.929 . S
C2562 H2556 0.930 . S
C2562 C2563 1.367 . S
C2562 C2570 1.378 . S
C2563 C2562 1.367 . S
C2563 C2571 1.433 . S
C2564 H2560 0.929 . S
C2564 C2566 1.378 . S
C2564 C2568 1.350 . S
C2565 C2568 1.463 . S
C2565 C2570 1.350 . S
C2565 N2573 1.427 . S
C2566 H2557 0.930 . S
C2566 C2564 1.378 . S
C2566 C2567 1.367 . S
C2567 C2566 1.367 . S
C2567 C2569 1.433 . S
C2568 C2564 1.350 . S
C2568 C2565 1.463 . S
C2568 N2572 1.427 . S
C2569 H2559 0.929 . S
C2569 C2567 1.433 . S
C2569 N2572 1.384 . S
C2570 H2561 0.929 . S
C2570 C2562 1.378 . S
C2570 C2565 1.350 . S
C2571 H2558 0.929 . S
C2571 C2563 1.433 . S
C2571 N2573 1.384 . S
N2572 C2568 1.427 . S
N2572 C2569 1.384 . S
N2573 C2565 1.427 . S
N2573 C2571 1.384 . S
H2574 C2580 0.930 . S
H2575 C2584 0.930 . S
H2576 C2589 0.929 . S
H2577 C2587 0.929 . S
H2578 C2582 0.929 . S
H2579 C2588 0.929 . S
C2580 H2574 0.930 . S
C2580 C2581 1.367 . S
C2580 C2588 1.378 . S
C2581 C2580 1.367 . S
C2581 C2589 1.433 . S
C2582 H2578 0.929 . S
C2582 C2584 1.378 . S
C2582 C2586 1.350 . S
C2583 C2586 1.463 . S
C2583 C2588 1.350 . S
C2583 N2591 1.427 . S
C2584 H2575 0.930 . S
C2584 C2582 1.378 . S
C2584 C2585 1.367 . S
C2585 C2584 1.367 . S
C2585 C2587 1.433 . S
C2586 C2582 1.350 . S
C2586 C2583 1.463 . S
C2586 N2590 1.427 . S
C2587 H2577 0.929 . S
C2587 C2585 1.433 . S
C2587 N2590 1.384 . S
C2588 H2579 0.929 . S
C2588 C2580 1.378 . S
C2588 C2583 1.350 . S
C2589 H2576 0.929 . S
C2589 C2581 1.433 . S
C2589 N2591 1.384 . S
N2590 C2586 1.427 . S
N2590 C2587 1.384 . S
N2591 C2583 1.427 . S
N2591 C2589 1.384 . S
H2592 C2598 0.930 . S
H2593 C2602 0.930 . S
H2594 C2607 0.929 . S
H2595 C2605 0.929 . S
H2596 C2600 0.929 . S
H2597 C2606 0.929 . S
C2598 H2592 0.930 . S
C2598 C2599 1.367 . S
C2598 C2606 1.378 . S
C2599 C2598 1.367 . S
C2599 C2607 1.433 . S
C2600 H2596 0.929 . S
C2600 C2602 1.378 . S
C2600 C2604 1.350 . S
C2601 C2604 1.463 . S
C2601 C2606 1.350 . S
C2601 N2609 1.427 . S
C2602 H2593 0.930 . S
C2602 C2600 1.378 . S
C2602 C2603 1.367 . S
C2603 C2602 1.367 . S
C2603 C2605 1.433 . S
C2604 C2600 1.350 . S
C2604 C2601 1.463 . S
C2604 N2608 1.427 . S
C2605 H2595 0.929 . S
C2605 C2603 1.433 . S
C2605 N2608 1.384 . S
C2606 H2597 0.929 . S
C2606 C2598 1.378 . S
C2606 C2601 1.350 . S
C2607 H2594 0.929 . S
C2607 C2599 1.433 . S
C2607 N2609 1.384 . S
N2608 C2604 1.427 . S
N2608 C2605 1.384 . S
N2609 C2601 1.427 . S
N2609 C2607 1.384 . S
H2610 C2616 0.930 . S
H2611 C2620 0.930 . S
H2612 C2625 0.929 . S
H2613 C2623 0.929 . S
H2614 C2618 0.929 . S
H2615 C2624 0.929 . S
C2616 H2610 0.930 . S
C2616 C2617 1.367 . S
C2616 C2624 1.378 . S
C2617 C2616 1.367 . S
C2617 C2625 1.433 . S
C2618 H2614 0.929 . S
C2618 C2620 1.378 . S
C2618 C2622 1.350 . S
C2619 C2622 1.463 . S
C2619 C2624 1.350 . S
C2619 N2627 1.427 . S
C2620 H2611 0.930 . S
C2620 C2618 1.378 . S
C2620 C2621 1.367 . S
C2621 C2620 1.367 . S
C2621 C2623 1.433 . S
C2622 C2618 1.350 . S
C2622 C2619 1.463 . S
C2622 N2626 1.427 . S
C2623 H2613 0.929 . S
C2623 C2621 1.433 . S
C2623 N2626 1.384 . S
C2624 H2615 0.929 . S
C2624 C2616 1.378 . S
C2624 C2619 1.350 . S
C2625 H2612 0.929 . S
C2625 C2617 1.433 . S
C2625 N2627 1.384 . S
N2626 C2622 1.427 . S
N2626 C2623 1.384 . S
N2627 C2619 1.427 . S
N2627 C2625 1.384 . S
H2628 C2634 0.930 . S
H2629 C2638 0.930 . S
H2630 C2643 0.929 . S
H2631 C2641 0.929 . S
H2632 C2636 0.929 . S
H2633 C2642 0.929 . S
C2634 H2628 0.930 . S
C2634 C2635 1.367 . S
C2634 C2642 1.378 . S
C2635 C2634 1.367 . S
C2635 C2643 1.433 . S
C2636 H2632 0.929 . S
C2636 C2638 1.378 . S
C2636 C2640 1.350 . S
C2637 C2640 1.463 . S
C2637 C2642 1.350 . S
C2637 N2645 1.427 . S
C2638 H2629 0.930 . S
C2638 C2636 1.378 . S
C2638 C2639 1.367 . S
C2639 C2638 1.367 . S
C2639 C2641 1.433 . S
C2640 C2636 1.350 . S
C2640 C2637 1.463 . S
C2640 N2644 1.427 . S
C2641 H2631 0.929 . S
C2641 C2639 1.433 . S
C2641 N2644 1.384 . S
C2642 H2633 0.929 . S
C2642 C2634 1.378 . S
C2642 C2637 1.350 . S
C2643 H2630 0.929 . S
C2643 C2635 1.433 . S
C2643 N2645 1.384 . S
N2644 C2640 1.427 . S
N2644 C2641 1.384 . S
N2645 C2637 1.427 . S
N2645 C2643 1.384 . S
H2646 C2652 0.930 . S
H2647 C2656 0.930 . S
H2648 C2661 0.929 . S
H2649 C2659 0.929 . S
H2650 C2654 0.929 . S
H2651 C2660 0.929 . S
C2652 H2646 0.930 . S
C2652 C2653 1.367 . S
C2652 C2660 1.378 . S
C2653 C2652 1.367 . S
C2653 C2661 1.433 . S
C2654 H2650 0.929 . S
C2654 C2656 1.378 . S
C2654 C2658 1.350 . S
C2655 C2658 1.463 . S
C2655 C2660 1.350 . S
C2655 N2663 1.427 . S
C2656 H2647 0.930 . S
C2656 C2654 1.378 . S
C2656 C2657 1.367 . S
C2657 C2656 1.367 . S
C2657 C2659 1.433 . S
C2658 C2654 1.350 . S
C2658 C2655 1.463 . S
C2658 N2662 1.427 . S
C2659 H2649 0.929 . S
C2659 C2657 1.433 . S
C2659 N2662 1.384 . S
C2660 H2651 0.929 . S
C2660 C2652 1.378 . S
C2660 C2655 1.350 . S
C2661 H2648 0.929 . S
C2661 C2653 1.433 . S
C2661 N2663 1.384 . S
N2662 C2658 1.427 . S
N2662 C2659 1.384 . S
N2663 C2655 1.427 . S
N2663 C2661 1.384 . S
H2664 C2670 0.930 . S
H2665 C2674 0.930 . S
H2666 C2679 0.929 . S
H2667 C2677 0.929 . S
H2668 C2672 0.929 . S
H2669 C2678 0.929 . S
C2670 H2664 0.930 . S
C2670 C2671 1.367 . S
C2670 C2678 1.378 . S
C2671 C2670 1.367 . S
C2671 C2679 1.433 . S
C2672 H2668 0.929 . S
C2672 C2674 1.378 . S
C2672 C2676 1.350 . S
C2673 C2676 1.463 . S
C2673 C2678 1.350 . S
C2673 N2681 1.427 . S
C2674 H2665 0.930 . S
C2674 C2672 1.378 . S
C2674 C2675 1.367 . S
C2675 C2674 1.367 . S
C2675 C2677 1.433 . S
C2676 C2672 1.350 . S
C2676 C2673 1.463 . S
C2676 N2680 1.427 . S
C2677 H2667 0.929 . S
C2677 C2675 1.433 . S
C2677 N2680 1.384 . S
C2678 H2669 0.929 . S
C2678 C2670 1.378 . S
C2678 C2673 1.350 . S
C2679 H2666 0.929 . S
C2679 C2671 1.433 . S
C2679 N2681 1.384 . S
N2680 C2676 1.427 . S
N2680 C2677 1.384 . S
N2681 C2673 1.427 . S
N2681 C2679 1.384 . S
H2682 C2688 0.930 . S
H2683 C2692 0.930 . S
H2684 C2697 0.929 . S
H2685 C2695 0.929 . S
H2686 C2690 0.929 . S
H2687 C2696 0.929 . S
C2688 H2682 0.930 . S
C2688 C2689 1.367 . S
C2688 C2696 1.378 . S
C2689 C2688 1.367 . S
C2689 C2697 1.433 . S
C2690 H2686 0.929 . S
C2690 C2692 1.378 . S
C2690 C2694 1.350 . S
C2691 C2694 1.463 . S
C2691 C2696 1.350 . S
C2691 N2699 1.427 . S
C2692 H2683 0.930 . S
C2692 C2690 1.378 . S
C2692 C2693 1.367 . S
C2693 C2692 1.367 . S
C2693 C2695 1.433 . S
C2694 C2690 1.350 . S
C2694 C2691 1.463 . S
C2694 N2698 1.427 . S
C2695 H2685 0.929 . S
C2695 C2693 1.433 . S
C2695 N2698 1.384 . S
C2696 H2687 0.929 . S
C2696 C2688 1.378 . S
C2696 C2691 1.350 . S
C2697 H2684 0.929 . S
C2697 C2689 1.433 . S
C2697 N2699 1.384 . S
N2698 C2694 1.427 . S
N2698 C2695 1.384 . S
N2699 C2691 1.427 . S
N2699 C2697 1.384 . S
H2700 C2706 0.930 . S
H2701 C2710 0.930 . S
H2702 C2715 0.929 . S
H2703 C2713 0.929 . S
H2704 C2708 0.929 . S
H2705 C2714 0.929 . S
C2706 H2700 0.930 . S
C2706 C2707 1.367 . S
C2706 C2714 1.378 . S
C2707 C2706 1.367 . S
C2707 C2715 1.433 . S
C2708 H2704 0.929 . S
C2708 C2710 1.378 . S
C2708 C2712 1.350 . S
C2709 C2712 1.463 . S
C2709 C2714 1.350 . S
C2709 N2717 1.427 . S
C2710 H2701 0.930 . S
C2710 C2708 1.378 . S
C2710 C2711 1.367 . S
C2711 C2710 1.367 . S
C2711 C2713 1.433 . S
C2712 C2708 1.350 . S
C2712 C2709 1.463 . S
C2712 N2716 1.427 . S
C2713 H2703 0.929 . S
C2713 C2711 1.433 . S
C2713 N2716 1.384 . S
C2714 H2705 0.929 . S
C2714 C2706 1.378 . S
C2714 C2709 1.350 . S
C2715 H2702 0.929 . S
C2715 C2707 1.433 . S
C2715 N2717 1.384 . S
N2716 C2712 1.427 . S
N2716 C2713 1.384 . S
N2717 C2709 1.427 . S
N2717 C2715 1.384 . S
H2718 C2724 0.930 . S
H2719 C2728 0.930 . S
H2720 C2733 0.929 . S
H2721 C2731 0.929 . S
H2722 C2726 0.929 . S
H2723 C2732 0.929 . S
C2724 H2718 0.930 . S
C2724 C2725 1.367 . S
C2724 C2732 1.378 . S
C2725 C2724 1.367 . S
C2725 C2733 1.433 . S
C2726 H2722 0.929 . S
C2726 C2728 1.378 . S
C2726 C2730 1.350 . S
C2727 C2730 1.463 . S
C2727 C2732 1.350 . S
C2727 N2735 1.427 . S
C2728 H2719 0.930 . S
C2728 C2726 1.378 . S
C2728 C2729 1.367 . S
C2729 C2728 1.367 . S
C2729 C2731 1.433 . S
C2730 C2726 1.350 . S
C2730 C2727 1.463 . S
C2730 N2734 1.427 . S
C2731 H2721 0.929 . S
C2731 C2729 1.433 . S
C2731 N2734 1.384 . S
C2732 H2723 0.929 . S
C2732 C2724 1.378 . S
C2732 C2727 1.350 . S
C2733 H2720 0.929 . S
C2733 C2725 1.433 . S
C2733 N2735 1.384 . S
N2734 C2730 1.427 . S
N2734 C2731 1.384 . S
N2735 C2727 1.427 . S
N2735 C2733 1.384 . S
H2736 C2742 0.930 . S
H2737 C2746 0.930 . S
H2738 C2751 0.929 . S
H2739 C2749 0.929 . S
H2740 C2744 0.929 . S
H2741 C2750 0.929 . S
C2742 H2736 0.930 . S
C2742 C2743 1.367 . S
C2742 C2750 1.378 . S
C2743 C2742 1.367 . S
C2743 C2751 1.433 . S
C2744 H2740 0.929 . S
C2744 C2746 1.378 . S
C2744 C2748 1.350 . S
C2745 C2748 1.463 . S
C2745 C2750 1.350 . S
C2745 N2753 1.427 . S
C2746 H2737 0.930 . S
C2746 C2744 1.378 . S
C2746 C2747 1.367 . S
C2747 C2746 1.367 . S
C2747 C2749 1.433 . S
C2748 C2744 1.350 . S
C2748 C2745 1.463 . S
C2748 N2752 1.427 . S
C2749 H2739 0.929 . S
C2749 C2747 1.433 . S
C2749 N2752 1.384 . S
C2750 H2741 0.929 . S
C2750 C2742 1.378 . S
C2750 C2745 1.350 . S
C2751 H2738 0.929 . S
C2751 C2743 1.433 . S
C2751 N2753 1.384 . S
N2752 C2748 1.427 . S
N2752 C2749 1.384 . S
N2753 C2745 1.427 . S
N2753 C2751 1.384 . S
H2754 C2760 0.930 . S
H2755 C2764 0.930 . S
H2756 C2769 0.929 . S
H2757 C2767 0.929 . S
H2758 C2762 0.929 . S
H2759 C2768 0.929 . S
C2760 H2754 0.930 . S
C2760 C2761 1.367 . S
C2760 C2768 1.378 . S
C2761 C2760 1.367 . S
C2761 C2769 1.433 . S
C2762 H2758 0.929 . S
C2762 C2764 1.378 . S
C2762 C2766 1.350 . S
C2763 C2766 1.463 . S
C2763 C2768 1.350 . S
C2763 N2771 1.427 . S
C2764 H2755 0.930 . S
C2764 C2762 1.378 . S
C2764 C2765 1.367 . S
C2765 C2764 1.367 . S
C2765 C2767 1.433 . S
C2766 C2762 1.350 . S
C2766 C2763 1.463 . S
C2766 N2770 1.427 . S
C2767 H2757 0.929 . S
C2767 C2765 1.433 . S
C2767 N2770 1.384 . S
C2768 H2759 0.929 . S
C2768 C2760 1.378 . S
C2768 C2763 1.350 . S
C2769 H2756 0.929 . S
C2769 C2761 1.433 . S
C2769 N2771 1.384 . S
N2770 C2766 1.427 . S
N2770 C2767 1.384 . S
N2771 C2763 1.427 . S
N2771 C2769 1.384 . S
H2772 C2778 0.930 . S
H2773 C2782 0.930 . S
H2774 C2787 0.929 . S
H2775 C2785 0.929 . S
H2776 C2780 0.929 . S
H2777 C2786 0.929 . S
C2778 H2772 0.930 . S
C2778 C2779 1.367 . S
C2778 C2786 1.378 . S
C2779 C2778 1.367 . S
C2779 C2787 1.433 . S
C2780 H2776 0.929 . S
C2780 C2782 1.378 . S
C2780 C2784 1.350 . S
C2781 C2784 1.463 . S
C2781 C2786 1.350 . S
C2781 N2789 1.427 . S
C2782 H2773 0.930 . S
C2782 C2780 1.378 . S
C2782 C2783 1.367 . S
C2783 C2782 1.367 . S
C2783 C2785 1.433 . S
C2784 C2780 1.350 . S
C2784 C2781 1.463 . S
C2784 N2788 1.427 . S
C2785 H2775 0.929 . S
C2785 C2783 1.433 . S
C2785 N2788 1.384 . S
C2786 H2777 0.929 . S
C2786 C2778 1.378 . S
C2786 C2781 1.350 . S
C2787 H2774 0.929 . S
C2787 C2779 1.433 . S
C2787 N2789 1.384 . S
N2788 C2784 1.427 . S
N2788 C2785 1.384 . S
N2789 C2781 1.427 . S
N2789 C2787 1.384 . S
H2790 C2796 0.930 . S
H2791 C2800 0.930 . S
H2792 C2805 0.929 . S
H2793 C2803 0.929 . S
H2794 C2798 0.929 . S
H2795 C2804 0.929 . S
C2796 H2790 0.930 . S
C2796 C2797 1.367 . S
C2796 C2804 1.378 . S
C2797 C2796 1.367 . S
C2797 C2805 1.433 . S
C2798 H2794 0.929 . S
C2798 C2800 1.378 . S
C2798 C2802 1.350 . S
C2799 C2802 1.463 . S
C2799 C2804 1.350 . S
C2799 N2807 1.427 . S
C2800 H2791 0.930 . S
C2800 C2798 1.378 . S
C2800 C2801 1.367 . S
C2801 C2800 1.367 . S
C2801 C2803 1.433 . S
C2802 C2798 1.350 . S
C2802 C2799 1.463 . S
C2802 N2806 1.427 . S
C2803 H2793 0.929 . S
C2803 C2801 1.433 . S
C2803 N2806 1.384 . S
C2804 H2795 0.929 . S
C2804 C2796 1.378 . S
C2804 C2799 1.350 . S
C2805 H2792 0.929 . S
C2805 C2797 1.433 . S
C2805 N2807 1.384 . S
N2806 C2802 1.427 . S
N2806 C2803 1.384 . S
N2807 C2799 1.427 . S
N2807 C2805 1.384 . S
H2808 C2814 0.930 . S
H2809 C2818 0.930 . S
H2810 C2823 0.929 . S
H2811 C2821 0.929 . S
H2812 C2816 0.929 . S
H2813 C2822 0.929 . S
C2814 H2808 0.930 . S
C2814 C2815 1.367 . S
C2814 C2822 1.378 . S
C2815 C2814 1.367 . S
C2815 C2823 1.433 . S
C2816 H2812 0.929 . S
C2816 C2818 1.378 . S
C2816 C2820 1.350 . S
C2817 C2820 1.463 . S
C2817 C2822 1.350 . S
C2817 N2825 1.427 . S
C2818 H2809 0.930 . S
C2818 C2816 1.378 . S
C2818 C2819 1.367 . S
C2819 C2818 1.367 . S
C2819 C2821 1.433 . S
C2820 C2816 1.350 . S
C2820 C2817 1.463 . S
C2820 N2824 1.427 . S
C2821 H2811 0.929 . S
C2821 C2819 1.433 . S
C2821 N2824 1.384 . S
C2822 H2813 0.929 . S
C2822 C2814 1.378 . S
C2822 C2817 1.350 . S
C2823 H2810 0.929 . S
C2823 C2815 1.433 . S
C2823 N2825 1.384 . S
N2824 C2820 1.427 . S
N2824 C2821 1.384 . S
N2825 C2817 1.427 . S
N2825 C2823 1.384 . S
H2826 C2832 0.930 . S
H2827 C2836 0.930 . S
H2828 C2841 0.929 . S
H2829 C2839 0.929 . S
H2830 C2834 0.929 . S
H2831 C2840 0.929 . S
C2832 H2826 0.930 . S
C2832 C2833 1.367 . S
C2832 C2840 1.378 . S
C2833 C2832 1.367 . S
C2833 C2841 1.433 . S
C2834 H2830 0.929 . S
C2834 C2836 1.378 . S
C2834 C2838 1.350 . S
C2835 C2838 1.463 . S
C2835 C2840 1.350 . S
C2835 N2843 1.427 . S
C2836 H2827 0.930 . S
C2836 C2834 1.378 . S
C2836 C2837 1.367 . S
C2837 C2836 1.367 . S
C2837 C2839 1.433 . S
C2838 C2834 1.350 . S
C2838 C2835 1.463 . S
C2838 N2842 1.427 . S
C2839 H2829 0.929 . S
C2839 C2837 1.433 . S
C2839 N2842 1.384 . S
C2840 H2831 0.929 . S
C2840 C2832 1.378 . S
C2840 C2835 1.350 . S
C2841 H2828 0.929 . S
C2841 C2833 1.433 . S
C2841 N2843 1.384 . S
N2842 C2838 1.427 . S
N2842 C2839 1.384 . S
N2843 C2835 1.427 . S
N2843 C2841 1.384 . S
H2844 C2850 0.930 . S
H2845 C2854 0.930 . S
H2846 C2859 0.929 . S
H2847 C2857 0.929 . S
H2848 C2852 0.929 . S
H2849 C2858 0.929 . S
C2850 H2844 0.930 . S
C2850 C2851 1.367 . S
C2850 C2858 1.378 . S
C2851 C2850 1.367 . S
C2851 C2859 1.433 . S
C2852 H2848 0.929 . S
C2852 C2854 1.378 . S
C2852 C2856 1.350 . S
C2853 C2856 1.463 . S
C2853 C2858 1.350 . S
C2853 N2861 1.427 . S
C2854 H2845 0.930 . S
C2854 C2852 1.378 . S
C2854 C2855 1.367 . S
C2855 C2854 1.367 . S
C2855 C2857 1.433 . S
C2856 C2852 1.350 . S
C2856 C2853 1.463 . S
C2856 N2860 1.427 . S
C2857 H2847 0.929 . S
C2857 C2855 1.433 . S
C2857 N2860 1.384 . S
C2858 H2849 0.929 . S
C2858 C2850 1.378 . S
C2858 C2853 1.350 . S
C2859 H2846 0.929 . S
C2859 C2851 1.433 . S
C2859 N2861 1.384 . S
N2860 C2856 1.427 . S
N2860 C2857 1.384 . S
N2861 C2853 1.427 . S
N2861 C2859 1.384 . S
H2862 C2868 0.930 . S
H2863 C2872 0.930 . S
H2864 C2877 0.929 . S
H2865 C2875 0.929 . S
H2866 C2870 0.929 . S
H2867 C2876 0.929 . S
C2868 H2862 0.930 . S
C2868 C2869 1.367 . S
C2868 C2876 1.378 . S
C2869 C2868 1.367 . S
C2869 C2877 1.433 . S
C2870 H2866 0.929 . S
C2870 C2872 1.378 . S
C2870 C2874 1.350 . S
C2871 C2874 1.463 . S
C2871 C2876 1.350 . S
C2871 N2879 1.427 . S
C2872 H2863 0.930 . S
C2872 C2870 1.378 . S
C2872 C2873 1.367 . S
C2873 C2872 1.367 . S
C2873 C2875 1.433 . S
C2874 C2870 1.350 . S
C2874 C2871 1.463 . S
C2874 N2878 1.427 . S
C2875 H2865 0.929 . S
C2875 C2873 1.433 . S
C2875 N2878 1.384 . S
C2876 H2867 0.929 . S
C2876 C2868 1.378 . S
C2876 C2871 1.350 . S
C2877 H2864 0.929 . S
C2877 C2869 1.433 . S
C2877 N2879 1.384 . S
N2878 C2874 1.427 . S
N2878 C2875 1.384 . S
N2879 C2871 1.427 . S
N2879 C2877 1.384 . S
H2880 C2886 0.930 . S
H2881 C2890 0.930 . S
H2882 C2895 0.929 . S
H2883 C2893 0.929 . S
H2884 C2888 0.929 . S
H2885 C2894 0.929 . S
C2886 H2880 0.930 . S
C2886 C2887 1.367 . S
C2886 C2894 1.378 . S
C2887 C2886 1.367 . S
C2887 C2895 1.433 . S
C2888 H2884 0.929 . S
C2888 C2890 1.378 . S
C2888 C2892 1.350 . S
C2889 C2892 1.463 . S
C2889 C2894 1.350 . S
C2889 N2897 1.427 . S
C2890 H2881 0.930 . S
C2890 C2888 1.378 . S
C2890 C2891 1.367 . S
C2891 C2890 1.367 . S
C2891 C2893 1.433 . S
C2892 C2888 1.350 . S
C2892 C2889 1.463 . S
C2892 N2896 1.427 . S
C2893 H2883 0.929 . S
C2893 C2891 1.433 . S
C2893 N2896 1.384 . S
C2894 H2885 0.929 . S
C2894 C2886 1.378 . S
C2894 C2889 1.350 . S
C2895 H2882 0.929 . S
C2895 C2887 1.433 . S
C2895 N2897 1.384 . S
N2896 C2892 1.427 . S
N2896 C2893 1.384 . S
N2897 C2889 1.427 . S
N2897 C2895 1.384 . S
H2898 C2904 0.930 . S
H2899 C2908 0.930 . S
H2900 C2913 0.929 . S
H2901 C2911 0.929 . S
H2902 C2906 0.929 . S
H2903 C2912 0.929 . S
C2904 H2898 0.930 . S
C2904 C2905 1.367 . S
C2904 C2912 1.378 . S
C2905 C2904 1.367 . S
C2905 C2913 1.433 . S
C2906 H2902 0.929 . S
C2906 C2908 1.378 . S
C2906 C2910 1.350 . S
C2907 C2910 1.463 . S
C2907 C2912 1.350 . S
C2907 N2915 1.427 . S
C2908 H2899 0.930 . S
C2908 C2906 1.378 . S
C2908 C2909 1.367 . S
C2909 C2908 1.367 . S
C2909 C2911 1.433 . S
C2910 C2906 1.350 . S
C2910 C2907 1.463 . S
C2910 N2914 1.427 . S
C2911 H2901 0.929 . S
C2911 C2909 1.433 . S
C2911 N2914 1.384 . S
C2912 H2903 0.929 . S
C2912 C2904 1.378 . S
C2912 C2907 1.350 . S
C2913 H2900 0.929 . S
C2913 C2905 1.433 . S
C2913 N2915 1.384 . S
N2914 C2910 1.427 . S
N2914 C2911 1.384 . S
N2915 C2907 1.427 . S
N2915 C2913 1.384 . S
H2916 C2922 0.930 . S
H2917 C2926 0.930 . S
H2918 C2931 0.929 . S
H2919 C2929 0.929 . S
H2920 C2924 0.929 . S
H2921 C2930 0.929 . S
C2922 H2916 0.930 . S
C2922 C2923 1.367 . S
C2922 C2930 1.378 . S
C2923 C2922 1.367 . S
C2923 C2931 1.433 . S
C2924 H2920 0.929 . S
C2924 C2926 1.378 . S
C2924 C2928 1.350 . S
C2925 C2928 1.463 . S
C2925 C2930 1.350 . S
C2925 N2933 1.427 . S
C2926 H2917 0.930 . S
C2926 C2924 1.378 . S
C2926 C2927 1.367 . S
C2927 C2926 1.367 . S
C2927 C2929 1.433 . S
C2928 C2924 1.350 . S
C2928 C2925 1.463 . S
C2928 N2932 1.427 . S
C2929 H2919 0.929 . S
C2929 C2927 1.433 . S
C2929 N2932 1.384 . S
C2930 H2921 0.929 . S
C2930 C2922 1.378 . S
C2930 C2925 1.350 . S
C2931 H2918 0.929 . S
C2931 C2923 1.433 . S
C2931 N2933 1.384 . S
N2932 C2928 1.427 . S
N2932 C2929 1.384 . S
N2933 C2925 1.427 . S
N2933 C2931 1.384 . S
H2934 C2940 0.930 . S
H2935 C2944 0.930 . S
H2936 C2949 0.929 . S
H2937 C2947 0.929 . S
H2938 C2942 0.929 . S
H2939 C2948 0.929 . S
C2940 H2934 0.930 . S
C2940 C2941 1.367 . S
C2940 C2948 1.378 . S
C2941 C2940 1.367 . S
C2941 C2949 1.433 . S
C2942 H2938 0.929 . S
C2942 C2944 1.378 . S
C2942 C2946 1.350 . S
C2943 C2946 1.463 . S
C2943 C2948 1.350 . S
C2943 N2951 1.427 . S
C2944 H2935 0.930 . S
C2944 C2942 1.378 . S
C2944 C2945 1.367 . S
C2945 C2944 1.367 . S
C2945 C2947 1.433 . S
C2946 C2942 1.350 . S
C2946 C2943 1.463 . S
C2946 N2950 1.427 . S
C2947 H2937 0.929 . S
C2947 C2945 1.433 . S
C2947 N2950 1.384 . S
C2948 H2939 0.929 . S
C2948 C2940 1.378 . S
C2948 C2943 1.350 . S
C2949 H2936 0.929 . S
C2949 C2941 1.433 . S
C2949 N2951 1.384 . S
N2950 C2946 1.427 . S
N2950 C2947 1.384 . S
N2951 C2943 1.427 . S
N2951 C2949 1.384 . S
H2952 C2958 0.930 . S
H2953 C2962 0.930 . S
H2954 C2967 0.929 . S
H2955 C2965 0.929 . S
H2956 C2960 0.929 . S
H2957 C2966 0.929 . S
C2958 H2952 0.930 . S
C2958 C2959 1.367 . S
C2958 C2966 1.378 . S
C2959 C2958 1.367 . S
C2959 C2967 1.433 . S
C2960 H2956 0.929 . S
C2960 C2962 1.378 . S
C2960 C2964 1.350 . S
C2961 C2964 1.463 . S
C2961 C2966 1.350 . S
C2961 N2969 1.427 . S
C2962 H2953 0.930 . S
C2962 C2960 1.378 . S
C2962 C2963 1.367 . S
C2963 C2962 1.367 . S
C2963 C2965 1.433 . S
C2964 C2960 1.350 . S
C2964 C2961 1.463 . S
C2964 N2968 1.427 . S
C2965 H2955 0.929 . S
C2965 C2963 1.433 . S
C2965 N2968 1.384 . S
C2966 H2957 0.929 . S
C2966 C2958 1.378 . S
C2966 C2961 1.350 . S
C2967 H2954 0.929 . S
C2967 C2959 1.433 . S
C2967 N2969 1.384 . S
N2968 C2964 1.427 . S
N2968 C2965 1.384 . S
N2969 C2961 1.427 . S
N2969 C2967 1.384 . S
H2970 C2976 0.930 . S
H2971 C2980 0.930 . S
H2972 C2985 0.929 . S
H2973 C2983 0.929 . S
H2974 C2978 0.929 . S
H2975 C2984 0.929 . S
C2976 H2970 0.930 . S
C2976 C2977 1.367 . S
C2976 C2984 1.378 . S
C2977 C2976 1.367 . S
C2977 C2985 1.433 . S
C2978 H2974 0.929 . S
C2978 C2980 1.378 . S
C2978 C2982 1.350 . S
C2979 C2982 1.463 . S
C2979 C2984 1.350 . S
C2979 N2987 1.427 . S
C2980 H2971 0.930 . S
C2980 C2978 1.378 . S
C2980 C2981 1.367 . S
C2981 C2980 1.367 . S
C2981 C2983 1.433 . S
C2982 C2978 1.350 . S
C2982 C2979 1.463 . S
C2982 N2986 1.427 . S
C2983 H2973 0.929 . S
C2983 C2981 1.433 . S
C2983 N2986 1.384 . S
C2984 H2975 0.929 . S
C2984 C2976 1.378 . S
C2984 C2979 1.350 . S
C2985 H2972 0.929 . S
C2985 C2977 1.433 . S
C2985 N2987 1.384 . S
N2986 C2982 1.427 . S
N2986 C2983 1.384 . S
N2987 C2979 1.427 . S
N2987 C2985 1.384 . S
H2988 C2994 0.930 . S
H2989 C2998 0.930 . S
H2990 C3003 0.929 . S
H2991 C3001 0.929 . S
H2992 C2996 0.929 . S
H2993 C3002 0.929 . S
C2994 H2988 0.930 . S
C2994 C2995 1.367 . S
C2994 C3002 1.378 . S
C2995 C2994 1.367 . S
C2995 C3003 1.433 . S
C2996 H2992 0.929 . S
C2996 C2998 1.378 . S
C2996 C3000 1.350 . S
C2997 C3000 1.463 . S
C2997 C3002 1.350 . S
C2997 N3005 1.427 . S
C2998 H2989 0.930 . S
C2998 C2996 1.378 . S
C2998 C2999 1.367 . S
C2999 C2998 1.367 . S
C2999 C3001 1.433 . S
C3000 C2996 1.350 . S
C3000 C2997 1.463 . S
C3000 N3004 1.427 . S
C3001 H2991 0.929 . S
C3001 C2999 1.433 . S
C3001 N3004 1.384 . S
C3002 H2993 0.929 . S
C3002 C2994 1.378 . S
C3002 C2997 1.350 . S
C3003 H2990 0.929 . S
C3003 C2995 1.433 . S
C3003 N3005 1.384 . S
N3004 C3000 1.427 . S
N3004 C3001 1.384 . S
N3005 C2997 1.427 . S
N3005 C3003 1.384 . S
H3006 C3012 0.930 . S
H3007 C3016 0.930 . S
H3008 C3021 0.929 . S
H3009 C3019 0.929 . S
H3010 C3014 0.929 . S
H3011 C3020 0.929 . S
C3012 H3006 0.930 . S
C3012 C3013 1.367 . S
C3012 C3020 1.378 . S
C3013 C3012 1.367 . S
C3013 C3021 1.433 . S
C3014 H3010 0.929 . S
C3014 C3016 1.378 . S
C3014 C3018 1.350 . S
C3015 C3018 1.463 . S
C3015 C3020 1.350 . S
C3015 N3023 1.427 . S
C3016 H3007 0.930 . S
C3016 C3014 1.378 . S
C3016 C3017 1.367 . S
C3017 C3016 1.367 . S
C3017 C3019 1.433 . S
C3018 C3014 1.350 . S
C3018 C3015 1.463 . S
C3018 N3022 1.427 . S
C3019 H3009 0.929 . S
C3019 C3017 1.433 . S
C3019 N3022 1.384 . S
C3020 H3011 0.929 . S
C3020 C3012 1.378 . S
C3020 C3015 1.350 . S
C3021 H3008 0.929 . S
C3021 C3013 1.433 . S
C3021 N3023 1.384 . S
N3022 C3018 1.427 . S
N3022 C3019 1.384 . S
N3023 C3015 1.427 . S
N3023 C3021 1.384 . S
H3024 C3030 0.940 . S
H3025 C3034 0.930 . S
H3026 C3039 0.929 . S
H3027 C3037 0.929 . S
H3028 C3032 0.929 . S
H3029 C3038 0.929 . S
C3030 H3024 0.940 . S
C3030 C3031 1.367 . S
C3030 C3038 1.378 . S
C3031 C3030 1.367 . S
C3031 C3039 1.433 . S
C3032 H3028 0.929 . S
C3032 C3034 1.378 . S
C3032 C3036 1.350 . S
C3033 C3036 1.463 . S
C3033 C3038 1.350 . S
C3033 N3041 1.427 . S
C3034 H3025 0.930 . S
C3034 C3032 1.378 . S
C3034 C3035 1.367 . S
C3035 C3034 1.367 . S
C3035 C3037 1.433 . S
C3036 C3032 1.350 . S
C3036 C3033 1.463 . S
C3036 N3040 1.427 . S
C3037 H3027 0.929 . S
C3037 C3035 1.433 . S
C3037 N3040 1.384 . S
C3038 H3029 0.929 . S
C3038 C3030 1.378 . S
C3038 C3033 1.350 . S
C3039 H3026 0.929 . S
C3039 C3031 1.433 . S
C3039 N3041 1.384 . S
N3040 C3036 1.427 . S
N3040 C3037 1.384 . S
N3041 C3033 1.427 . S
N3041 C3039 1.384 . S
H3042 C3048 0.930 . S
H3043 C3052 0.930 . S
H3044 C3057 0.929 . S
H3045 C3055 0.929 . S
H3046 C3050 0.929 . S
H3047 C3056 0.929 . S
C3048 H3042 0.930 . S
C3048 C3049 1.367 . S
C3048 C3056 1.378 . S
C3049 C3048 1.367 . S
C3049 C3057 1.433 . S
C3050 H3046 0.929 . S
C3050 C3052 1.378 . S
C3050 C3054 1.350 . S
C3051 C3054 1.463 . S
C3051 C3056 1.350 . S
C3051 N3059 1.427 . S
C3052 H3043 0.930 . S
C3052 C3050 1.378 . S
C3052 C3053 1.367 . S
C3053 C3052 1.367 . S
C3053 C3055 1.433 . S
C3054 C3050 1.350 . S
C3054 C3051 1.463 . S
C3054 N3058 1.427 . S
C3055 H3045 0.929 . S
C3055 C3053 1.433 . S
C3055 N3058 1.384 . S
C3056 H3047 0.929 . S
C3056 C3048 1.378 . S
C3056 C3051 1.350 . S
C3057 H3044 0.929 . S
C3057 C3049 1.433 . S
C3057 N3059 1.384 . S
N3058 C3054 1.427 . S
N3058 C3055 1.384 . S
N3059 C3051 1.427 . S
N3059 C3057 1.384 . S
H3060 C3066 0.930 . S
H3061 C3070 0.930 . S
H3062 C3075 0.929 . S
H3063 C3073 0.929 . S
H3064 C3068 0.929 . S
H3065 C3074 0.929 . S
C3066 H3060 0.930 . S
C3066 C3067 1.367 . S
C3066 C3074 1.378 . S
C3067 C3066 1.367 . S
C3067 C3075 1.433 . S
C3068 H3064 0.929 . S
C3068 C3070 1.378 . S
C3068 C3072 1.350 . S
C3069 C3072 1.463 . S
C3069 C3074 1.350 . S
C3069 N3077 1.427 . S
C3070 H3061 0.930 . S
C3070 C3068 1.378 . S
C3070 C3071 1.367 . S
C3071 C3070 1.367 . S
C3071 C3073 1.433 . S
C3072 C3068 1.350 . S
C3072 C3069 1.463 . S
C3072 N3076 1.427 . S
C3073 H3063 0.929 . S
C3073 C3071 1.433 . S
C3073 N3076 1.384 . S
C3074 H3065 0.929 . S
C3074 C3066 1.378 . S
C3074 C3069 1.350 . S
C3075 H3062 0.929 . S
C3075 C3067 1.433 . S
C3075 N3077 1.384 . S
N3076 C3072 1.427 . S
N3076 C3073 1.384 . S
N3077 C3069 1.427 . S
N3077 C3075 1.384 . S
H3078 C3084 0.930 . S
H3079 C3088 0.930 . S
H3080 C3093 0.929 . S
H3081 C3091 0.929 . S
H3082 C3086 0.929 . S
H3083 C3092 0.929 . S
C3084 H3078 0.930 . S
C3084 C3085 1.367 . S
C3084 C3092 1.378 . S
C3085 C3084 1.367 . S
C3085 C3093 1.433 . S
C3086 H3082 0.929 . S
C3086 C3088 1.378 . S
C3086 C3090 1.350 . S
C3087 C3090 1.463 . S
C3087 C3092 1.350 . S
C3087 N3095 1.427 . S
C3088 H3079 0.930 . S
C3088 C3086 1.378 . S
C3088 C3089 1.367 . S
C3089 C3088 1.367 . S
C3089 C3091 1.433 . S
C3090 C3086 1.350 . S
C3090 C3087 1.463 . S
C3090 N3094 1.427 . S
C3091 H3081 0.929 . S
C3091 C3089 1.433 . S
C3091 N3094 1.384 . S
C3092 H3083 0.929 . S
C3092 C3084 1.378 . S
C3092 C3087 1.350 . S
C3093 H3080 0.929 . S
C3093 C3085 1.433 . S
C3093 N3095 1.384 . S
N3094 C3090 1.427 . S
N3094 C3091 1.384 . S
N3095 C3087 1.427 . S
N3095 C3093 1.384 . S
H3096 C3102 0.930 . S
H3097 C3106 0.930 . S
H3098 C3111 0.929 . S
H3099 C3109 0.929 . S
H3100 C3104 0.929 . S
H3101 C3110 0.929 . S
C3102 H3096 0.930 . S
C3102 C3103 1.367 . S
C3102 C3110 1.378 . S
C3103 C3102 1.367 . S
C3103 C3111 1.433 . S
C3104 H3100 0.929 . S
C3104 C3106 1.378 . S
C3104 C3108 1.350 . S
C3105 C3108 1.463 . S
C3105 C3110 1.350 . S
C3105 N3113 1.427 . S
C3106 H3097 0.930 . S
C3106 C3104 1.378 . S
C3106 C3107 1.367 . S
C3107 C3106 1.367 . S
C3107 C3109 1.433 . S
C3108 C3104 1.350 . S
C3108 C3105 1.463 . S
C3108 N3112 1.427 . S
C3109 H3099 0.929 . S
C3109 C3107 1.433 . S
C3109 N3112 1.384 . S
C3110 H3101 0.929 . S
C3110 C3102 1.378 . S
C3110 C3105 1.350 . S
C3111 H3098 0.929 . S
C3111 C3103 1.433 . S
C3111 N3113 1.384 . S
N3112 C3108 1.427 . S
N3112 C3109 1.384 . S
N3113 C3105 1.427 . S
N3113 C3111 1.384 . S
H3114 C3120 0.930 . S
H3115 C3124 0.930 . S
H3116 C3129 0.929 . S
H3117 C3127 0.929 . S
H3118 C3122 0.929 . S
H3119 C3128 0.929 . S
C3120 H3114 0.930 . S
C3120 C3121 1.367 . S
C3120 C3128 1.378 . S
C3121 C3120 1.367 . S
C3121 C3129 1.433 . S
C3122 H3118 0.929 . S
C3122 C3124 1.378 . S
C3122 C3126 1.350 . S
C3123 C3126 1.463 . S
C3123 C3128 1.350 . S
C3123 N3131 1.427 . S
C3124 H3115 0.930 . S
C3124 C3122 1.378 . S
C3124 C3125 1.367 . S
C3125 C3124 1.367 . S
C3125 C3127 1.433 . S
C3126 C3122 1.350 . S
C3126 C3123 1.463 . S
C3126 N3130 1.427 . S
C3127 H3117 0.929 . S
C3127 C3125 1.433 . S
C3127 N3130 1.384 . S
C3128 H3119 0.929 . S
C3128 C3120 1.378 . S
C3128 C3123 1.350 . S
C3129 H3116 0.929 . S
C3129 C3121 1.433 . S
C3129 N3131 1.384 . S
N3130 C3126 1.427 . S
N3130 C3127 1.384 . S
N3131 C3123 1.427 . S
N3131 C3129 1.384 . S
H3132 C3138 0.930 . S
H3133 C3142 0.930 . S
H3134 C3147 0.929 . S
H3135 C3145 0.929 . S
H3136 C3140 0.929 . S
H3137 C3146 0.929 . S
C3138 H3132 0.930 . S
C3138 C3139 1.367 . S
C3138 C3146 1.378 . S
C3139 C3138 1.367 . S
C3139 C3147 1.433 . S
C3140 H3136 0.929 . S
C3140 C3142 1.378 . S
C3140 C3144 1.350 . S
C3141 C3144 1.463 . S
C3141 C3146 1.350 . S
C3141 N3149 1.427 . S
C3142 H3133 0.930 . S
C3142 C3140 1.378 . S
C3142 C3143 1.367 . S
C3143 C3142 1.367 . S
C3143 C3145 1.433 . S
C3144 C3140 1.350 . S
C3144 C3141 1.463 . S
C3144 N3148 1.427 . S
C3145 H3135 0.929 . S
C3145 C3143 1.433 . S
C3145 N3148 1.384 . S
C3146 H3137 0.929 . S
C3146 C3138 1.378 . S
C3146 C3141 1.350 . S
C3147 H3134 0.929 . S
C3147 C3139 1.433 . S
C3147 N3149 1.384 . S
N3148 C3144 1.427 . S
N3148 C3145 1.384 . S
N3149 C3141 1.427 . S
N3149 C3147 1.384 . S
H3150 C3156 0.930 . S
H3151 C3160 0.930 . S
H3152 C3165 0.929 . S
H3153 C3163 0.929 . S
H3154 C3158 0.929 . S
H3155 C3164 0.929 . S
C3156 H3150 0.930 . S
C3156 C3157 1.367 . S
C3156 C3164 1.378 . S
C3157 C3156 1.367 . S
C3157 C3165 1.433 . S
C3158 H3154 0.929 . S
C3158 C3160 1.378 . S
C3158 C3162 1.350 . S
C3159 C3162 1.463 . S
C3159 C3164 1.350 . S
C3159 N3167 1.427 . S
C3160 H3151 0.930 . S
C3160 C3158 1.378 . S
C3160 C3161 1.367 . S
C3161 C3160 1.367 . S
C3161 C3163 1.433 . S
C3162 C3158 1.350 . S
C3162 C3159 1.463 . S
C3162 N3166 1.427 . S
C3163 H3153 0.929 . S
C3163 C3161 1.433 . S
C3163 N3166 1.384 . S
C3164 H3155 0.929 . S
C3164 C3156 1.378 . S
C3164 C3159 1.350 . S
C3165 H3152 0.929 . S
C3165 C3157 1.433 . S
C3165 N3167 1.384 . S
N3166 C3162 1.427 . S
N3166 C3163 1.384 . S
N3167 C3159 1.427 . S
N3167 C3165 1.384 . S
H3168 C3174 0.930 . S
H3169 C3178 0.930 . S
H3170 C3183 0.929 . S
H3171 C3181 0.929 . S
H3172 C3176 0.929 . S
H3173 C3182 0.929 . S
C3174 H3168 0.930 . S
C3174 C3175 1.367 . S
C3174 C3182 1.378 . S
C3175 C3174 1.367 . S
C3175 C3183 1.433 . S
C3176 H3172 0.929 . S
C3176 C3178 1.378 . S
C3176 C3180 1.350 . S
C3177 C3180 1.463 . S
C3177 C3182 1.350 . S
C3177 N3185 1.427 . S
C3178 H3169 0.930 . S
C3178 C3176 1.378 . S
C3178 C3179 1.367 . S
C3179 C3178 1.367 . S
C3179 C3181 1.433 . S
C3180 C3176 1.350 . S
C3180 C3177 1.463 . S
C3180 N3184 1.427 . S
C3181 H3171 0.929 . S
C3181 C3179 1.433 . S
C3181 N3184 1.384 . S
C3182 H3173 0.929 . S
C3182 C3174 1.378 . S
C3182 C3177 1.350 . S
C3183 H3170 0.929 . S
C3183 C3175 1.433 . S
C3183 N3185 1.384 . S
N3184 C3180 1.427 . S
N3184 C3181 1.384 . S
N3185 C3177 1.427 . S
N3185 C3183 1.384 . S
H3186 C3192 0.930 . S
H3187 C3196 0.930 . S
H3188 C3201 0.929 . S
H3189 C3199 0.929 . S
H3190 C3194 0.929 . S
H3191 C3200 0.929 . S
C3192 H3186 0.930 . S
C3192 C3193 1.367 . S
C3192 C3200 1.378 . S
C3193 C3192 1.367 . S
C3193 C3201 1.433 . S
C3194 H3190 0.929 . S
C3194 C3196 1.378 . S
C3194 C3198 1.350 . S
C3195 C3198 1.463 . S
C3195 C3200 1.350 . S
C3195 N3203 1.427 . S
C3196 H3187 0.930 . S
C3196 C3194 1.378 . S
C3196 C3197 1.367 . S
C3197 C3196 1.367 . S
C3197 C3199 1.433 . S
C3198 C3194 1.350 . S
C3198 C3195 1.463 . S
C3198 N3202 1.427 . S
C3199 H3189 0.929 . S
C3199 C3197 1.433 . S
C3199 N3202 1.384 . S
C3200 H3191 0.929 . S
C3200 C3192 1.378 . S
C3200 C3195 1.350 . S
C3201 H3188 0.929 . S
C3201 C3193 1.433 . S
C3201 N3203 1.384 . S
N3202 C3198 1.427 . S
N3202 C3199 1.384 . S
N3203 C3195 1.427 . S
N3203 C3201 1.384 . S
H3204 C3210 0.930 . S
H3205 C3214 0.930 . S
H3206 C3219 0.929 . S
H3207 C3217 0.929 . S
H3208 C3212 0.929 . S
H3209 C3218 0.929 . S
C3210 H3204 0.930 . S
C3210 C3211 1.367 . S
C3210 C3218 1.378 . S
C3211 C3210 1.367 . S
C3211 C3219 1.433 . S
C3212 H3208 0.929 . S
C3212 C3214 1.378 . S
C3212 C3216 1.350 . S
C3213 C3216 1.463 . S
C3213 C3218 1.350 . S
C3213 N3221 1.427 . S
C3214 H3205 0.930 . S
C3214 C3212 1.378 . S
C3214 C3215 1.367 . S
C3215 C3214 1.367 . S
C3215 C3217 1.433 . S
C3216 C3212 1.350 . S
C3216 C3213 1.463 . S
C3216 N3220 1.427 . S
C3217 H3207 0.929 . S
C3217 C3215 1.433 . S
C3217 N3220 1.384 . S
C3218 H3209 0.929 . S
C3218 C3210 1.378 . S
C3218 C3213 1.350 . S
C3219 H3206 0.929 . S
C3219 C3211 1.433 . S
C3219 N3221 1.384 . S
N3220 C3216 1.427 . S
N3220 C3217 1.384 . S
N3221 C3213 1.427 . S
N3221 C3219 1.384 . S
H3222 C3228 0.930 . S
H3223 C3232 0.930 . S
H3224 C3237 0.929 . S
H3225 C3235 0.929 . S
H3226 C3230 0.929 . S
H3227 C3236 0.929 . S
C3228 H3222 0.930 . S
C3228 C3229 1.367 . S
C3228 C3236 1.378 . S
C3229 C3228 1.367 . S
C3229 C3237 1.433 . S
C3230 H3226 0.929 . S
C3230 C3232 1.378 . S
C3230 C3234 1.350 . S
C3231 C3234 1.463 . S
C3231 C3236 1.350 . S
C3231 N3239 1.427 . S
C3232 H3223 0.930 . S
C3232 C3230 1.378 . S
C3232 C3233 1.367 . S
C3233 C3232 1.367 . S
C3233 C3235 1.433 . S
C3234 C3230 1.350 . S
C3234 C3231 1.463 . S
C3234 N3238 1.427 . S
C3235 H3225 0.929 . S
C3235 C3233 1.433 . S
C3235 N3238 1.384 . S
C3236 H3227 0.929 . S
C3236 C3228 1.378 . S
C3236 C3231 1.350 . S
C3237 H3224 0.929 . S
C3237 C3229 1.433 . S
C3237 N3239 1.384 . S
N3238 C3234 1.427 . S
N3238 C3235 1.384 . S
N3239 C3231 1.427 . S
N3239 C3237 1.384 . S
H3240 C3246 0.930 . S
H3241 C3250 0.930 . S
H3242 C3255 0.929 . S
H3243 C3253 0.929 . S
H3244 C3248 0.929 . S
H3245 C3254 0.929 . S
C3246 H3240 0.930 . S
C3246 C3247 1.367 . S
C3246 C3254 1.378 . S
C3247 C3246 1.367 . S
C3247 C3255 1.433 1_565 S
C3248 H3244 0.929 . S
C3248 C3250 1.378 . S
C3248 C3252 1.350 1_545 S
C3249 C3252 1.463 . S
C3249 C3254 1.350 . S
C3249 N3257 1.427 1_565 S
C3250 H3241 0.930 . S
C3250 C3248 1.378 . S
C3250 C3251 1.367 1_545 S
C3251 C3250 1.367 1_565 S
C3251 C3253 1.433 . S
C3252 C3248 1.350 1_565 S
C3252 C3249 1.463 . S
C3252 N3256 1.427 . S
C3253 H3243 0.929 . S
C3253 C3251 1.433 . S
C3253 N3256 1.384 . S
C3254 H3245 0.929 . S
C3254 C3246 1.378 . S
C3254 C3249 1.350 . S
C3255 H3242 0.929 . S
C3255 C3247 1.433 1_545 S
C3255 N3257 1.384 . S
N3256 C3252 1.427 . S
N3256 C3253 1.384 . S
N3257 C3249 1.427 1_545 S
N3257 C3255 1.384 . S
H3258 C3264 0.930 . S
H3259 C3268 0.930 . S
H3260 C3273 0.929 . S
H3261 C3271 0.929 . S
H3262 C3266 0.929 . S
H3263 C3272 0.929 . S
C3264 H3258 0.930 . S
C3264 C3265 1.367 1_545 S
C3264 C3272 1.378 . S
C3265 C3264 1.367 1_565 S
C3265 C3273 1.433 . S
C3266 H3262 0.929 . S
C3266 C3268 1.378 . S
C3266 C3270 1.350 . S
C3267 C3270 1.463 . S
C3267 C3272 1.350 1_565 S
C3267 N3275 1.427 . S
C3268 H3259 0.930 . S
C3268 C3266 1.378 . S
C3268 C3269 1.367 . S
C3269 C3268 1.367 . S
C3269 C3271 1.433 1_565 S
C3270 C3266 1.350 . S
C3270 C3267 1.463 . S
C3270 N3274 1.427 1_565 S
C3271 H3261 0.929 . S
C3271 C3269 1.433 1_545 S
C3271 N3274 1.384 . S
C3272 H3263 0.929 . S
C3272 C3264 1.378 . S
C3272 C3267 1.350 1_545 S
C3273 H3260 0.929 . S
C3273 C3265 1.433 . S
C3273 N3275 1.384 . S
N3274 C3270 1.427 1_545 S
N3274 C3271 1.384 . S
N3275 C3267 1.427 . S
N3275 C3273 1.384 . S
H3276 C3282 0.930 . S
H3277 C3286 0.930 . S
H3278 C3291 0.929 . S
H3279 C3289 0.929 . S
H3280 C3284 0.984 . S
H3281 C3290 0.929 . S
C3282 H3276 0.930 . S
C3282 C3283 1.367 . S
C3282 C3290 1.378 . S
C3283 C3282 1.367 . S
C3283 C3291 1.433 . S
C3284 H3280 0.984 . S
C3284 C3286 1.355 . S
C3284 C3288 1.323 1_655 S
C3285 C3288 1.463 . S
C3285 C3290 1.350 . S
C3285 N3293 1.427 . S
C3286 H3277 0.930 . S
C3286 C3284 1.355 . S
C3286 C3287 1.367 1_655 S
C3287 C3286 1.367 1_455 S
C3287 C3289 1.433 . S
C3288 C3284 1.323 1_455 S
C3288 C3285 1.463 . S
C3288 N3292 1.427 . S
C3289 H3279 0.929 . S
C3289 C3287 1.433 . S
C3289 N3292 1.384 . S
C3290 H3281 0.929 . S
C3290 C3282 1.378 . S
C3290 C3285 1.350 . S
C3291 H3278 0.929 . S
C3291 C3283 1.433 . S
C3291 N3293 1.384 . S
N3292 C3288 1.427 . S
N3292 C3289 1.384 . S
N3293 C3285 1.427 . S
N3293 C3291 1.384 . S
H3294 C3300 0.930 . S
H3295 C3304 0.930 . S
H3296 C3309 0.929 . S
H3297 C3307 0.929 . S
H3298 C3302 0.929 . S
H3299 C3308 0.929 . S
C3300 H3294 0.930 . S
C3300 C3301 1.367 . S
C3300 C3308 1.378 . S
C3301 C3300 1.367 . S
C3301 C3309 1.433 . S
C3302 H3298 0.929 . S
C3302 C3304 1.378 . S
C3302 C3306 1.350 . S
C3303 C3306 1.463 . S
C3303 C3308 1.350 . S
C3303 N3311 1.427 . S
C3304 H3295 0.930 . S
C3304 C3302 1.378 . S
C3304 C3305 1.367 . S
C3305 C3304 1.367 . S
C3305 C3307 1.433 . S
C3306 C3302 1.350 . S
C3306 C3303 1.463 . S
C3306 N3310 1.427 . S
C3307 H3297 0.929 . S
C3307 C3305 1.433 . S
C3307 N3310 1.384 . S
C3308 H3299 0.929 . S
C3308 C3300 1.378 . S
C3308 C3303 1.350 . S
C3309 H3296 0.929 . S
C3309 C3301 1.433 . S
C3309 N3311 1.384 . S
N3310 C3306 1.427 . S
N3310 C3307 1.384 . S
N3311 C3303 1.427 . S
N3311 C3309 1.384 . S
H3312 C3318 0.930 . S
H3313 C3322 0.930 . S
H3314 C3327 0.929 . S
H3315 C3325 0.929 . S
H3316 C3320 0.929 . S
H3317 C3326 0.929 . S
C3318 H3312 0.930 . S
C3318 C3319 1.367 . S
C3318 C3326 1.378 . S
C3319 C3318 1.367 . S
C3319 C3327 1.433 . S
C3320 H3316 0.929 . S
C3320 C3322 1.378 . S
C3320 C3324 1.350 . S
C3321 C3324 1.463 . S
C3321 C3326 1.350 . S
C3321 N3329 1.427 . S
C3322 H3313 0.930 . S
C3322 C3320 1.378 . S
C3322 C3323 1.367 . S
C3323 C3322 1.367 . S
C3323 C3325 1.433 . S
C3324 C3320 1.350 . S
C3324 C3321 1.463 . S
C3324 N3328 1.427 . S
C3325 H3315 0.929 . S
C3325 C3323 1.433 . S
C3325 N3328 1.384 . S
C3326 H3317 0.929 . S
C3326 C3318 1.378 . S
C3326 C3321 1.350 . S
C3327 H3314 0.929 . S
C3327 C3319 1.433 . S
C3327 N3329 1.384 . S
N3328 C3324 1.427 . S
N3328 C3325 1.384 . S
N3329 C3321 1.427 . S
N3329 C3327 1.384 . S
H3330 C3336 0.930 . S
H3331 C3340 0.930 . S
H3332 C3345 0.929 . S
H3333 C3343 0.929 . S
H3334 C3338 0.929 . S
H3335 C3344 0.929 . S
C3336 H3330 0.930 . S
C3336 C3337 1.367 . S
C3336 C3344 1.378 . S
C3337 C3336 1.367 . S
C3337 C3345 1.433 . S
C3338 H3334 0.929 . S
C3338 C3340 1.378 . S
C3338 C3342 1.350 . S
C3339 C3342 1.463 . S
C3339 C3344 1.350 . S
C3339 N3347 1.427 . S
C3340 H3331 0.930 . S
C3340 C3338 1.378 . S
C3340 C3341 1.367 . S
C3341 C3340 1.367 . S
C3341 C3343 1.433 . S
C3342 C3338 1.350 . S
C3342 C3339 1.463 . S
C3342 N3346 1.427 . S
C3343 H3333 0.929 . S
C3343 C3341 1.433 . S
C3343 N3346 1.384 . S
C3344 H3335 0.929 . S
C3344 C3336 1.378 . S
C3344 C3339 1.350 . S
C3345 H3332 0.929 . S
C3345 C3337 1.433 . S
C3345 N3347 1.384 . S
N3346 C3342 1.427 . S
N3346 C3343 1.384 . S
N3347 C3339 1.427 . S
N3347 C3345 1.384 . S
H3348 C3354 0.930 . S
H3349 C3358 0.930 . S
H3350 C3363 0.929 . S
H3351 C3361 0.929 . S
H3352 C3356 0.929 . S
H3353 C3362 0.929 . S
C3354 H3348 0.930 . S
C3354 C3355 1.367 . S
C3354 C3362 1.378 . S
C3355 C3354 1.367 . S
C3355 C3363 1.433 . S
C3356 H3352 0.929 . S
C3356 C3358 1.378 . S
C3356 C3360 1.350 . S
C3357 C3360 1.463 . S
C3357 C3362 1.350 . S
C3357 N3365 1.427 . S
C3358 H3349 0.930 . S
C3358 C3356 1.378 . S
C3358 C3359 1.367 . S
C3359 C3358 1.367 . S
C3359 C3361 1.433 . S
C3360 C3356 1.350 . S
C3360 C3357 1.463 . S
C3360 N3364 1.427 . S
C3361 H3351 0.929 . S
C3361 C3359 1.433 . S
C3361 N3364 1.384 . S
C3362 H3353 0.929 . S
C3362 C3354 1.378 . S
C3362 C3357 1.350 . S
C3363 H3350 0.929 . S
C3363 C3355 1.433 . S
C3363 N3365 1.384 . S
N3364 C3360 1.427 . S
N3364 C3361 1.384 . S
N3365 C3357 1.427 . S
N3365 C3363 1.384 . S
H3366 C3372 0.930 . S
H3367 C3376 0.930 . S
H3368 C3381 0.957 . S
H3369 C3379 0.929 . S
H3370 C3374 0.929 . S
H3371 C3380 0.929 . S
C3372 H3366 0.930 . S
C3372 C3373 1.367 . S
C3372 C3380 1.378 . S
C3373 C3372 1.367 . S
C3373 C3381 1.382 1_545 S
C3374 H3370 0.929 . S
C3374 C3376 1.378 . S
C3374 C3378 1.350 1_565 S
C3375 C3378 1.463 . S
C3375 C3380 1.350 . S
C3375 N3383 1.427 1_545 S
C3376 H3367 0.930 . S
C3376 C3374 1.378 . S
C3376 C3377 1.367 1_565 S
C3377 C3376 1.367 1_545 S
C3377 C3379 1.433 . S
C3378 C3374 1.350 1_545 S
C3378 C3375 1.463 . S
C3378 N3382 1.427 . S
C3379 H3369 0.929 . S
C3379 C3377 1.433 . S
C3379 N3382 1.384 . S
C3380 H3371 0.929 . S
C3380 C3372 1.378 . S
C3380 C3375 1.350 . S
C3381 H3368 0.957 . S
C3381 C3373 1.382 1_565 S
C3381 N3383 1.408 . S
N3382 C3378 1.427 . S
N3382 C3379 1.384 . S
N3383 C3375 1.427 1_565 S
N3383 C3381 1.408 . S
H3384 C3390 0.930 1_455 S
H3385 C3394 0.930 . S
H3386 C3399 0.929 . S
H3387 C3397 0.944 . S
H3388 C3392 0.929 . S
H3389 C3398 0.929 1_455 S
C3390 H3384 0.930 1_655 S
C3390 C3391 1.367 . S
C3390 C3398 1.378 . S
C3391 C3390 1.367 . S
C3391 C3399 1.433 . S
C3392 H3388 0.929 . S
C3392 C3394 1.378 . S
C3392 C3396 1.350 . S
C3393 C3396 1.463 . S
C3393 C3398 1.350 . S
C3393 N3401 1.427 . S
C3394 H3385 0.930 . S
C3394 C3392 1.378 . S
C3394 C3395 1.367 . S
C3395 C3394 1.367 . S
C3395 C3397 1.406 1_655 S
C3396 C3392 1.350 . S
C3396 C3393 1.463 . S
C3396 N3400 1.439 . S
C3397 H3387 0.944 . S
C3397 C3395 1.406 1_455 S
C3397 N3400 1.406 1_455 S
C3398 H3389 0.929 1_655 S
C3398 C3390 1.378 . S
C3398 C3393 1.350 . S
C3399 H3386 0.929 . S
C3399 C3391 1.433 . S
C3399 N3401 1.384 . S
N3400 C3396 1.439 . S
N3400 C3397 1.406 1_655 S
N3401 C3393 1.427 . S
N3401 C3399 1.384 . S
H3402 C3408 0.930 . S
H3403 C3412 0.930 . S
H3404 C3417 0.929 . S
H3405 C3415 0.929 . S
H3406 C3410 0.929 . S
H3407 C3416 0.929 . S
C3408 H3402 0.930 . S
C3408 C3409 1.367 . S
C3408 C3416 1.378 . S
C3409 C3408 1.367 . S
C3409 C3417 1.433 . S
C3410 H3406 0.929 . S
C3410 C3412 1.378 . S
C3410 C3414 1.350 . S
C3411 C3414 1.463 . S
C3411 C3416 1.350 . S
C3411 N3419 1.427 . S
C3412 H3403 0.930 . S
C3412 C3410 1.378 . S
C3412 C3413 1.367 . S
C3413 C3412 1.367 . S
C3413 C3415 1.433 . S
C3414 C3410 1.350 . S
C3414 C3411 1.463 . S
C3414 N3418 1.427 . S
C3415 H3405 0.929 . S
C3415 C3413 1.433 . S
C3415 N3418 1.384 . S
C3416 H3407 0.929 . S
C3416 C3408 1.378 . S
C3416 C3411 1.350 . S
C3417 H3404 0.929 . S
C3417 C3409 1.433 . S
C3417 N3419 1.384 . S
N3418 C3414 1.427 . S
N3418 C3415 1.384 . S
N3419 C3411 1.427 . S
N3419 C3417 1.384 . S
H3420 C3426 0.930 . S
H3421 C3430 0.930 . S
H3422 C3435 0.929 . S
H3423 C3433 0.929 . S
H3424 C3428 0.929 . S
H3425 C3434 0.929 . S
C3426 H3420 0.930 . S
C3426 C3427 1.367 . S
C3426 C3434 1.378 . S
C3427 C3426 1.367 . S
C3427 C3435 1.433 . S
C3428 H3424 0.929 . S
C3428 C3430 1.378 . S
C3428 C3432 1.350 . S
C3429 C3432 1.463 . S
C3429 C3434 1.350 . S
C3429 N3437 1.427 . S
C3430 H3421 0.930 . S
C3430 C3428 1.378 . S
C3430 C3431 1.367 . S
C3431 C3430 1.367 . S
C3431 C3433 1.433 . S
C3432 C3428 1.350 . S
C3432 C3429 1.463 . S
C3432 N3436 1.427 . S
C3433 H3423 0.929 . S
C3433 C3431 1.433 . S
C3433 N3436 1.384 . S
C3434 H3425 0.929 . S
C3434 C3426 1.378 . S
C3434 C3429 1.350 . S
C3435 H3422 0.929 . S
C3435 C3427 1.433 . S
C3435 N3437 1.384 . S
N3436 C3432 1.427 . S
N3436 C3433 1.384 . S
N3437 C3429 1.427 . S
N3437 C3435 1.384 . S
H3438 C3444 0.930 . S
H3439 C3448 0.930 . S
H3440 C3453 0.929 . S
H3441 C3451 0.929 . S
H3442 C3446 0.929 . S
H3443 C3452 0.929 . S
C3444 H3438 0.930 . S
C3444 C3445 1.367 . S
C3444 C3452 1.378 . S
C3445 C3444 1.367 . S
C3445 C3453 1.433 . S
C3446 H3442 0.929 . S
C3446 C3448 1.378 . S
C3446 C3450 1.350 . S
C3447 C3450 1.463 . S
C3447 C3452 1.350 . S
C3447 N3455 1.427 . S
C3448 H3439 0.930 . S
C3448 C3446 1.378 . S
C3448 C3449 1.367 . S
C3449 C3448 1.367 . S
C3449 C3451 1.433 . S
C3450 C3446 1.350 . S
C3450 C3447 1.463 . S
C3450 N3454 1.427 . S
C3451 H3441 0.929 . S
C3451 C3449 1.433 . S
C3451 N3454 1.384 . S
C3452 H3443 0.929 . S
C3452 C3444 1.378 . S
C3452 C3447 1.350 . S
C3453 H3440 0.929 . S
C3453 C3445 1.433 . S
C3453 N3455 1.384 . S
N3454 C3450 1.427 . S
N3454 C3451 1.384 . S
N3455 C3447 1.427 . S
N3455 C3453 1.384 . S
H3456 C3462 0.930 . S
H3457 C3466 0.930 . S
H3458 C3471 0.929 . S
H3459 C3469 0.929 . S
H3460 C3464 0.929 . S
H3461 C3470 0.929 . S
C3462 H3456 0.930 . S
C3462 C3463 1.367 . S
C3462 C3470 1.378 . S
C3463 C3462 1.367 . S
C3463 C3471 1.433 . S
C3464 H3460 0.929 . S
C3464 C3466 1.378 . S
C3464 C3468 1.350 . S
C3465 C3468 1.463 . S
C3465 C3470 1.350 . S
C3465 N3473 1.427 . S
C3466 H3457 0.930 . S
C3466 C3464 1.378 . S
C3466 C3467 1.367 . S
C3467 C3466 1.367 . S
C3467 C3469 1.433 . S
C3468 C3464 1.350 . S
C3468 C3465 1.463 . S
C3468 N3472 1.427 . S
C3469 H3459 0.929 . S
C3469 C3467 1.433 . S
C3469 N3472 1.384 . S
C3470 H3461 0.929 . S
C3470 C3462 1.378 . S
C3470 C3465 1.350 . S
C3471 H3458 0.929 . S
C3471 C3463 1.433 . S
C3471 N3473 1.384 . S
N3472 C3468 1.427 . S
N3472 C3469 1.384 . S
N3473 C3465 1.427 . S
N3473 C3471 1.384 . S
H3474 C3480 0.930 . S
H3475 C3484 0.930 . S
H3476 C3489 0.929 . S
H3477 C3487 0.929 . S
H3478 C3482 0.929 . S
H3479 C3488 0.929 . S
C3480 H3474 0.930 . S
C3480 C3481 1.367 . S
C3480 C3488 1.378 . S
C3481 C3480 1.367 . S
C3481 C3489 1.433 . S
C3482 H3478 0.929 . S
C3482 C3484 1.378 . S
C3482 C3486 1.350 . S
C3483 C3486 1.463 . S
C3483 C3488 1.350 . S
C3483 N3491 1.427 . S
C3484 H3475 0.930 . S
C3484 C3482 1.378 . S
C3484 C3485 1.367 . S
C3485 C3484 1.367 . S
C3485 C3487 1.433 . S
C3486 C3482 1.350 . S
C3486 C3483 1.463 . S
C3486 N3490 1.427 . S
C3487 H3477 0.929 . S
C3487 C3485 1.433 . S
C3487 N3490 1.384 . S
C3488 H3479 0.929 . S
C3488 C3480 1.378 . S
C3488 C3483 1.350 . S
C3489 H3476 0.929 . S
C3489 C3481 1.433 . S
C3489 N3491 1.384 . S
N3490 C3486 1.427 . S
N3490 C3487 1.384 . S
N3491 C3483 1.427 . S
N3491 C3489 1.384 . S
H3492 C3498 0.930 . S
H3493 C3502 0.930 . S
H3494 C3507 0.929 . S
H3495 C3505 0.929 . S
H3496 C3500 0.929 . S
H3497 C3506 0.929 . S
C3498 H3492 0.930 . S
C3498 C3499 1.367 . S
C3498 C3506 1.378 . S
C3499 C3498 1.367 . S
C3499 C3507 1.433 . S
C3500 H3496 0.929 . S
C3500 C3502 1.378 . S
C3500 C3504 1.350 . S
C3501 C3504 1.463 . S
C3501 C3506 1.350 . S
C3501 N3509 1.427 . S
C3502 H3493 0.930 . S
C3502 C3500 1.378 . S
C3502 C3503 1.367 . S
C3503 C3502 1.367 . S
C3503 C3505 1.433 . S
C3504 C3500 1.350 . S
C3504 C3501 1.463 . S
C3504 N3508 1.427 . S
C3505 H3495 0.929 . S
C3505 C3503 1.433 . S
C3505 N3508 1.384 . S
C3506 H3497 0.929 . S
C3506 C3498 1.378 . S
C3506 C3501 1.350 . S
C3507 H3494 0.929 . S
C3507 C3499 1.433 . S
C3507 N3509 1.384 . S
N3508 C3504 1.427 . S
N3508 C3505 1.384 . S
N3509 C3501 1.427 . S
N3509 C3507 1.384 . S
H3510 C3516 0.930 . S
H3511 C3520 0.930 . S
H3512 C3525 0.929 . S
H3513 C3523 0.929 . S
H3514 C3518 0.929 . S
H3515 C3524 0.929 . S
C3516 H3510 0.930 . S
C3516 C3517 1.367 . S
C3516 C3524 1.378 . S
C3517 C3516 1.367 . S
C3517 C3525 1.433 . S
C3518 H3514 0.929 . S
C3518 C3520 1.378 . S
C3518 C3522 1.350 . S
C3519 C3522 1.463 . S
C3519 C3524 1.350 . S
C3519 N3527 1.427 . S
C3520 H3511 0.930 . S
C3520 C3518 1.378 . S
C3520 C3521 1.367 . S
C3521 C3520 1.367 . S
C3521 C3523 1.433 . S
C3522 C3518 1.350 . S
C3522 C3519 1.463 . S
C3522 N3526 1.427 . S
C3523 H3513 0.929 . S
C3523 C3521 1.433 . S
C3523 N3526 1.384 . S
C3524 H3515 0.929 . S
C3524 C3516 1.378 . S
C3524 C3519 1.350 . S
C3525 H3512 0.929 . S
C3525 C3517 1.433 . S
C3525 N3527 1.384 . S
N3526 C3522 1.427 . S
N3526 C3523 1.384 . S
N3527 C3519 1.427 . S
N3527 C3525 1.384 . S
H3528 C3534 0.913 1_455 S
H3529 C3538 0.930 . S
H3530 C3543 0.929 . S
H3531 C3541 0.929 . S
H3532 C3536 0.929 . S
H3533 C3542 0.929 . S
C3534 H3528 0.913 1_655 S
C3534 C3535 1.405 . S
C3534 C3542 1.358 1_655 S
C3535 C3534 1.405 . S
C3535 C3543 1.433 . S
C3536 H3532 0.929 . S
C3536 C3538 1.378 . S
C3536 C3540 1.350 . S
C3537 C3540 1.463 . S
C3537 C3542 1.350 1_655 S
C3537 N3545 1.427 . S
C3538 H3529 0.930 . S
C3538 C3536 1.378 . S
C3538 C3539 1.367 . S
C3539 C3538 1.367 . S
C3539 C3541 1.433 1_655 S
C3540 C3536 1.350 . S
C3540 C3537 1.463 . S
C3540 N3544 1.427 1_655 S
C3541 H3531 0.929 . S
C3541 C3539 1.433 1_455 S
C3541 N3544 1.384 . S
C3542 H3533 0.929 . S
C3542 C3534 1.358 1_455 S
C3542 C3537 1.350 1_455 S
C3543 H3530 0.929 . S
C3543 C3535 1.433 . S
C3543 N3545 1.384 . S
N3544 C3540 1.427 1_455 S
N3544 C3541 1.384 . S
N3545 C3537 1.427 . S
N3545 C3543 1.384 . S
H3546 C3552 0.930 . S
H3547 C3556 0.930 . S
H3548 C3561 0.929 . S
H3549 C3559 0.929 . S
H3550 C3554 0.929 . S
H3551 C3560 0.929 . S
C3552 H3546 0.930 . S
C3552 C3553 1.367 . S
C3552 C3560 1.378 . S
C3553 C3552 1.367 . S
C3553 C3561 1.433 . S
C3554 H3550 0.929 . S
C3554 C3556 1.378 . S
C3554 C3558 1.350 . S
C3555 C3558 1.463 . S
C3555 C3560 1.350 . S
C3555 N3563 1.427 . S
C3556 H3547 0.930 . S
C3556 C3554 1.378 . S
C3556 C3557 1.367 . S
C3557 C3556 1.367 . S
C3557 C3559 1.433 . S
C3558 C3554 1.350 . S
C3558 C3555 1.463 . S
C3558 N3562 1.427 . S
C3559 H3549 0.929 . S
C3559 C3557 1.433 . S
C3559 N3562 1.384 . S
C3560 H3551 0.929 . S
C3560 C3552 1.378 . S
C3560 C3555 1.350 . S
C3561 H3548 0.929 . S
C3561 C3553 1.433 . S
C3561 N3563 1.384 . S
N3562 C3558 1.427 . S
N3562 C3559 1.384 . S
N3563 C3555 1.427 . S
N3563 C3561 1.384 . S
H3564 C3570 0.983 . S
H3565 C3574 0.930 . S
H3566 C3579 0.929 . S
H3567 C3577 0.929 . S
H3568 C3572 0.929 . S
H3569 C3578 0.929 . S
C3570 H3564 0.983 . S
C3570 C3571 1.338 1_565 S
C3570 C3578 1.359 . S
C3571 C3570 1.338 1_545 S
C3571 C3579 1.433 . S
C3572 H3568 0.929 . S
C3572 C3574 1.378 . S
C3572 C3576 1.350 . S
C3573 C3576 1.463 . S
C3573 C3578 1.350 1_545 S
C3573 N3581 1.427 . S
C3574 H3565 0.930 . S
C3574 C3572 1.378 . S
C3574 C3575 1.367 . S
C3575 C3574 1.367 . S
C3575 C3577 1.433 1_545 S
C3576 C3572 1.350 . S
C3576 C3573 1.463 . S
C3576 N3580 1.427 1_545 S
C3577 H3567 0.929 . S
C3577 C3575 1.433 1_565 S
C3577 N3580 1.384 . S
C3578 H3569 0.929 . S
C3578 C3570 1.359 . S
C3578 C3573 1.350 1_565 S
C3579 H3566 0.929 . S
C3579 C3571 1.433 . S
C3579 N3581 1.384 . S
N3580 C3576 1.427 1_565 S
N3580 C3577 1.384 . S
N3581 C3573 1.427 . S
N3581 C3579 1.384 . S
C2293 C10 1.414 1_655 S
C2297 C1289 1.161 . S
C2311 C23 1.712 . S
C2315 C1429 1.181 . S
C2333 C1517 1.217 . S
C2329 C29 1.468 . S
C2347 C30 1.575 . S
C2351 C1657 1.145 1_565 S
C2365 C5 1.510 . S
C2369 C1771 1.132 . S
C2383 C18 1.714 . S
C2387 C1859 1.330 . S
C2401 C49 1.382 . S
C2405 C1745 1.142 . S
C2423 C1885 1.358 . S
C2419 C62 1.631 . S
C2441 C1631 1.230 . S
C2437 C70 1.459 . S
C2455 C75 1.529 . S
C2459 C1543 1.187 . S
C2477 C1315 1.186 . S
C2473 C44 1.506 . S
C2491 C57 1.630 . S
C2495 C1403 1.475 . S
C2509 C88 1.730 . S
C2513 C1973 1.304 . S
C2527 C101 1.800 . S
C2531 C2113 1.250 . S
C2549 C2201 1.319 . S
C2545 C107 1.720 . S
C2563 C108 1.781 . S
C2567 C289 1.221 . S
C2581 C83 1.783 . S
C2585 C403 1.204 . S
C2599 C96 1.762 . S
C2603 C491 1.350 . S
C2617 C127 1.543 . S
C2621 C377 1.399 . S
C2635 C140 1.680 . S
C2639 C517 1.437 . S
C2657 C263 1.473 . S
C2653 C146 1.640 . S
C2675 C2227 1.547 . S
C2671 C147 1.797 . S
C2693 C1999 1.436 . S
C2689 C122 1.698 . S
C2711 C2087 1.573 . S
C2707 C135 1.712 . S
C2725 C160 1.636 . S
C2729 C605 1.251 . S
C2743 C173 1.762 . S
C2747 C745 1.193 . S
C2761 C185 1.725 . S
C2765 C833 1.347 . S
C2779 C186 1.877 . S
C2783 C973 1.299 . S
C2801 C1087 1.232 . S
C2797 C159 1.789 . S
C2819 C1175 1.390 . S
C2815 C172 1.802 . S
C2837 C1061 1.481 . S
C2833 C205 1.649 . S
C2855 C1201 1.479 . S
C2851 C218 1.712 . S
C2869 C224 1.631 . S
C2873 C947 1.469 . S
C2891 C859 1.438 . S
C2887 C225 1.696 . S
C2905 C200 1.700 . S
C2909 C631 1.457 . S
C2927 C719 1.526 . S
C2923 C213 1.675 . S
C2945 C245 0.985 . S
C2941 C4 1.724 . S
C2959 C17 1.552 . S
C2963 C359 0.887 . S
C2981 C463 1.197 . S
C2977 C31 1.616 . S
C2999 C577 1.169 . S
C2995 C36 1.556 . S
C3017 C701 0.967 . S
C3013 C3 1.676 . S
C3035 C805 1.171 . S
C3031 C16 1.567 . S
C3049 C43 1.804 . S
C3053 C815 1.300 . S
C3067 C56 1.634 . S
C3071 C587 1.188 . S
C3085 C68 1.691 . S
C3089 C691 1.454 . S
C3103 C69 1.649 . S
C3107 C349 1.430 . S
C3125 C473 1.306 . S
C3121 C42 1.750 . S
C3139 C55 1.644 . S
C3143 C235 1.420 . S
C3161 C929 0.943 . S
C3157 C82 1.683 . S
C3175 C95 1.678 . S
C3179 C1043 0.967 . S
C3193 C109 1.660 . S
C3197 C1147 1.254 . S
C3215 C1261 1.067 . S
C3211 C114 1.328 . S
C3229 C81 1.636 . S
C3233 C1385 0.927 . S
C3247 C94 1.426 . S
C3251 C1489 1.147 . S
C3265 C121 1.530 . S
C3269 C1499 0.984 1_565 S
C3283 C134 1.433 . S
C3287 C1271 0.958 1_455 S
C3305 C1375 1.434 . S
C3301 C148 1.664 . S
C3319 C153 1.612 . S
C3323 C1033 1.397 . S
C3337 C120 1.784 . S
C3341 C1157 1.330 . S
C3359 C919 1.505 . S
C3355 C133 1.764 . S
C3377 C1613 0.957 . S
C3373 C166 1.517 . S
C3391 C179 1.415 . S
C3395 C1727 0.890 . S
C3409 C187 1.584 . S
C3413 C1831 1.175 . S
C3431 C1945 1.142 . S
C3427 C192 1.522 . S
C3449 C2069 0.988 . S
C3445 C161 1.712 . S
C3463 C174 1.686 . S
C3467 C2173 1.276 . S
C3481 C199 1.765 . S
C3485 C2183 1.291 . S
C3499 C212 1.754 . S
C3503 C1955 1.270 . S
C3521 C2059 1.504 . S
C3517 C226 1.736 . S
C3539 C1717 1.124 1_655 S
C3535 C231 1.337 . S
C3557 C1841 1.266 . S
C3553 C198 1.714 . S
C3571 C211 1.447 . S
C3575 C1603 1.189 1_545 S
