# Generated by pormake.
# Topology zzz, (3,6)-cn, num edge types: 1
# Building blocks:
#     Node 0, Type 0, BuildingBlock: CUQRIR_clean_linker_1, # of connection points: 3
#     Node 1, Type 0, BuildingBlock: CUQRIR_clean_linker_1, # of connection points: 3
#     Node 2, Type 0, BuildingBlock: CUQRIR_clean_linker_1, # of connection points: 3
#     Node 3, Type 0, BuildingBlock: CUQRIR_clean_linker_1, # of connection points: 3
#     Node 4, Type 0, BuildingBlock: CUQRIR_clean_linker_1, # of connection points: 3
#     Node 5, Type 0, BuildingBlock: CUQRIR_clean_linker_1, # of connection points: 3
#     Node 6, Type 0, BuildingBlock: CUQRIR_clean_linker_1, # of connection points: 3
#     Node 7, Type 0, BuildingBlock: CUQRIR_clean_linker_1, # of connection points: 3
#     Node 8, Type 1, BuildingBlock: CUWYAW_clean_sbu_0, # of connection points: 6
#     Node 9, Type 1, BuildingBlock: CUWYAW_clean_sbu_0, # of connection points: 6
#     Node 10, Type 1, BuildingBlock: CUWYAW_clean_sbu_0, # of connection points: 6
#     Node 11, Type 1, BuildingBlock: CUWYAW_clean_sbu_0, # of connection points: 6
#     Edge 12, Type (0, 1), BuildingBlock: CIFDUS_clean_linker_0, # of connection points: 2
#     Edge 13, Type (0, 1), BuildingBlock: CIFDUS_clean_linker_0, # of connection points: 2
#     Edge 14, Type (0, 1), BuildingBlock: CIFDUS_clean_linker_0, # of connection points: 2
#     Edge 15, Type (0, 1), BuildingBlock: CIFDUS_clean_linker_0, # of connection points: 2
#     Edge 16, Type (0, 1), BuildingBlock: CIFDUS_clean_linker_0, # of connection points: 2
#     Edge 17, Type (0, 1), BuildingBlock: CIFDUS_clean_linker_0, # of connection points: 2
#     Edge 18, Type (0, 1), BuildingBlock: CIFDUS_clean_linker_0, # of connection points: 2
#     Edge 19, Type (0, 1), BuildingBlock: CIFDUS_clean_linker_0, # of connection points: 2
#     Edge 20, Type (0, 1), BuildingBlock: CIFDUS_clean_linker_0, # of connection points: 2
#     Edge 21, Type (0, 1), BuildingBlock: CIFDUS_clean_linker_0, # of connection points: 2
#     Edge 22, Type (0, 1), BuildingBlock: CIFDUS_clean_linker_0, # of connection points: 2
#     Edge 23, Type (0, 1), BuildingBlock: CIFDUS_clean_linker_0, # of connection points: 2
#     Edge 24, Type (0, 1), BuildingBlock: CIFDUS_clean_linker_0, # of connection points: 2
#     Edge 25, Type (0, 1), BuildingBlock: CIFDUS_clean_linker_0, # of connection points: 2
#     Edge 26, Type (0, 1), BuildingBlock: CIFDUS_clean_linker_0, # of connection points: 2
#     Edge 27, Type (0, 1), BuildingBlock: CIFDUS_clean_linker_0, # of connection points: 2
#     Edge 28, Type (0, 1), BuildingBlock: CIFDUS_clean_linker_0, # of connection points: 2
#     Edge 29, Type (0, 1), BuildingBlock: CIFDUS_clean_linker_0, # of connection points: 2
#     Edge 30, Type (0, 1), BuildingBlock: CIFDUS_clean_linker_0, # of connection points: 2
#     Edge 31, Type (0, 1), BuildingBlock: CIFDUS_clean_linker_0, # of connection points: 2
#     Edge 32, Type (0, 1), BuildingBlock: CIFDUS_clean_linker_0, # of connection points: 2
#     Edge 33, Type (0, 1), BuildingBlock: CIFDUS_clean_linker_0, # of connection points: 2
#     Edge 34, Type (0, 1), BuildingBlock: CIFDUS_clean_linker_0, # of connection points: 2
#     Edge 35, Type (0, 1), BuildingBlock: CIFDUS_clean_linker_0, # of connection points: 2
# Relax obj value: 0.353
# Max RMSD: 0.182
# Mean RMSD: 0.136
data_MOF--net-zzz--node1-CUWYAW_clean_sbu_0--node2-CUQRIR_clean_linker_1--edge1-CIFDUS_clean_linker_0
_symmetry_space_group_name_H-M    P1
_symmetry_Int_Tables_number       1
_symmetry_cell_setting            triclinic
loop_
_symmetry_equiv_pos_as_xyz
'x, y, z'
_cell_length_a     41.601813
_cell_length_b     41.459439
_cell_length_c     11.191796
_cell_angle_alpha  89.421797
_cell_angle_beta   89.918037
_cell_angle_gamma 89.734136
loop_
_atom_site_label
_atom_site_type_symbol
_atom_site_fract_x
_atom_site_fract_y
_atom_site_fract_z
_atom_type_partial_charge
C0 C 0.74892 0.53277 0.44647 0.0
N1 N 0.77764 0.51644 0.45349 0.0
N2 N 0.72966 0.52098 0.35702 0.0
C3 C 0.73974 0.55985 0.52746 0.0
C4 C 0.74843 0.49753 0.30893 0.0
N5 N 0.77666 0.49456 0.36797 0.0
C6 C 0.74116 0.48017 0.19385 0.0
H7 H 0.71332 0.56054 0.5411 0.0
H8 H 0.74734 0.583 0.4859 0.0
H9 H 0.75208 0.55724 0.6149 0.0
H10 H 0.72716 0.49578 0.1317 0.0
H11 H 0.72708 0.45816 0.21457 0.0
H12 H 0.76326 0.4723 0.14693 0.0
C13 C 1.0125 0.75626 0.45596 0.0
N14 N 0.02875 0.78505 0.45314 0.0
N15 N 0.02527 0.73442 0.37661 0.0
C16 C 0.98352 0.74988 0.53219 0.0
C17 C 0.04984 0.75121 0.32619 0.0
N18 N 0.05172 0.78134 0.37138 0.0
C19 C 0.07194 0.73829 0.23002 0.0
H20 H 0.98518 0.76273 0.61826 0.0
H21 H 0.98071 0.72364 0.54941 0.0
H22 H 0.96185 0.75894 0.48463 0.0
H23 H 0.05799 0.72513 0.16175 0.0
H24 H 0.0896 0.72149 0.27129 0.0
H25 H 0.08639 0.75703 0.18463 0.0
C26 C 0.79071 0.02954 0.41134 0.0
N27 N 0.766 0.04929 0.44582 0.0
N28 N 0.81559 0.04685 0.36313 0.0
C29 C 0.79002 0.99353 0.42146 0.0
C30 C 0.80517 0.07767 0.37174 0.0
N31 N 0.77496 0.07929 0.41764 0.0
C32 C 0.8247 0.10644 0.33238 0.0
H33 H 0.78393 0.98636 0.51455 0.0
H34 H 0.81346 0.98275 0.3957 0.0
H35 H 0.77083 0.98417 0.36259 0.0
H36 H 0.82826 0.10578 0.23412 0.0
H37 H 0.84881 0.10533 0.37433 0.0
H38 H 0.81307 0.12951 0.35774 0.0
C39 C 0.54307 0.80229 0.46259 0.0
N40 N 0.52881 0.77267 0.47168 0.0
N41 N 0.53011 0.82039 0.37053 0.0
C42 C 0.56969 0.81317 0.54228 0.0
C43 C 0.50831 0.79993 0.32264 0.0
N44 N 0.50735 0.7718 0.38438 0.0
C45 C 0.49035 0.80584 0.20714 0.0
H46 H 0.56886 0.83973 0.55327 0.0
H47 H 0.59305 0.80651 0.50123 0.0
H48 H 0.56804 0.80101 0.63088 0.0
H49 H 0.50519 0.81993 0.14302 0.0
H50 H 0.468 0.81954 0.22622 0.0
H51 H 0.48311 0.78309 0.16391 0.0
C52 C 0.30057 0.50695 0.14142 0.0
N53 N 0.26977 0.51879 0.1347 0.0
N54 N 0.31565 0.51649 0.24512 0.0
C55 C 0.3159 0.48677 0.04682 0.0
C56 C 0.29238 0.53397 0.30049 0.0
N57 N 0.26572 0.53587 0.23282 0.0
C58 C 0.294 0.54633 0.42664 0.0
H59 H 0.31258 0.46093 0.07026 0.0
H60 H 0.34206 0.49171 0.04138 0.0
H61 H 0.30443 0.49147 0.95884 0.0
H62 H 0.30338 0.57133 0.42514 0.0
H63 H 0.30986 0.53095 0.4831 0.0
H64 H 0.26978 0.54702 0.46823 0.0
C65 C 1.01769 0.30144 0.20821 0.0
N66 N 0.03292 0.27357 0.17558 0.0
N67 N 0.03664 0.31995 0.28004 0.0
C68 C 0.98373 0.3098 0.17522 0.0
C69 C 0.06366 0.3017 0.29162 0.0
N70 N 0.06132 0.27353 0.23081 0.0
C71 C 0.09111 0.30999 0.37317 0.0
H72 H 0.98004 0.33632 0.17579 0.0
H73 H 0.96723 0.29867 0.24163 0.0
H74 H 0.97781 0.30013 0.08585 0.0
H75 H 0.0824 0.31041 0.46693 0.0
H76 H 0.10019 0.33441 0.3508 0.0
H77 H 0.1113 0.29258 0.36537 0.0
C78 C 0.24658 0.05524 0.18503 0.0
N79 N 0.27382 0.03834 0.15582 0.0
N80 N 0.22881 0.03935 0.27109 0.0
C81 C 0.23748 0.08704 0.12988 0.0
C82 C 0.24705 1.01275 0.2946 0.0
N83 N 0.27356 1.01205 0.22465 0.0
C84 C 0.24161 0.98976 0.3981 0.0
H85 H 0.24748 0.10669 0.18497 0.0
H86 H 0.21095 0.08981 0.12677 0.0
H87 H 0.24766 0.08927 0.03846 0.0
H88 H 0.22538 0.97019 0.36912 0.0
H89 H 0.23039 1.00234 0.47472 0.0
H90 H 0.26433 0.97837 0.42888 0.0
C91 C 0.49725 0.24405 0.12805 0.0
N92 N 0.50851 0.27504 0.13289 0.0
N93 N 0.50462 0.22706 0.23077 0.0
C94 C 0.47869 0.23064 0.02569 0.0
C95 C 0.52032 0.24898 0.29753 0.0
N96 N 0.52278 0.27729 0.23841 0.0
C97 C 0.53272 0.24289 0.42251 0.0
H98 H 0.45265 0.23431 0.04271 0.0
H99 H 0.48326 0.20435 0.0177 0.0
H100 H 0.48507 0.24325 0.94108 0.0
H101 H 0.55621 0.23023 0.41723 0.0
H102 H 0.51582 0.2274 0.47375 0.0
H103 H 0.53651 0.26552 0.47213 0.0
C104 C 0.97745 0.0644 0.46664 0.0
Eu105 Eu 0.9946 0.0442 0.67649 0.0
C106 C 1.00021 0.07089 0.36956 0.0
C107 C 0.99419 0.09685 0.29267 0.0
C108 C 1.01978 0.11198 0.23542 0.0
C109 C 0.05148 0.10111 0.25138 0.0
C110 C 0.05713 0.07295 0.31811 0.0
C111 C 0.03151 0.05778 0.37669 0.0
C112 C 0.95248 0.0285 0.86001 0.0
C113 C 1.01196 0.10447 0.84056 0.0
C114 C 0.05272 1.0161 0.0847 0.0
Eu115 Eu 0.02884 0.03096 0.87638 0.0
C116 C 0.07616 0.99533 0.14437 0.0
C117 C 0.10492 0.98604 0.08842 0.0
C118 C 0.12401 0.96186 0.13992 0.0
C119 C 0.11423 0.94681 0.24681 0.0
C120 C 0.08681 0.95823 0.3067 0.0
C121 C 0.06805 0.98249 0.25614 0.0
C122 C 0.06978 0.04607 0.68637 0.0
C123 C 1.01598 0.9701 0.69558 0.0
O124 O 0.97482 0.03433 0.49992 0.0
O125 O 0.98063 0.08366 0.55726 0.0
O126 O 0.94974 1.01992 0.74989 0.0
O127 O 0.9771 0.04613 0.86897 0.0
O128 O 1.0123 0.09498 0.72835 0.0
O129 O 1.01157 0.08172 0.92301 0.0
O130 O 0.02765 1.0018 0.03928 0.0
O131 O 0.06397 0.03902 0.01613 0.0
O132 O 0.07267 0.057 0.7936 0.0
O133 O 0.04549 0.02798 0.68565 0.0
O134 O 1.02179 0.97755 0.8092 0.0
O135 O 1.00942 0.99406 0.62161 0.0
H136 H 0.97055 0.1079 0.28883 0.0
H137 H 1.01548 0.135 0.19354 0.0
H138 H 0.08147 0.06463 0.33433 0.0
H139 H 0.0367 0.03796 0.43742 0.0
H140 H 0.11148 0.99589 1.00178 0.0
H141 H 0.14458 0.95279 0.09098 0.0
H142 H 0.07832 0.94648 0.38765 0.0
H143 H 0.04595 0.98953 0.30027 0.0
C144 C 0.50715 0.94883 0.62831 0.0
Eu145 Eu 0.51788 1.00029 0.7543 0.0
C146 C 0.49703 0.94468 0.50526 0.0
C147 C 0.47232 0.92271 0.4846 0.0
C148 C 0.44913 0.92999 0.39912 0.0
C149 C 0.45107 0.95904 0.33353 0.0
C150 C 0.47955 0.97708 0.33742 0.0
C151 C 0.50257 0.96992 0.42358 0.0
C152 C 0.53927 0.98382 0.98026 0.0
C153 C 0.45154 0.0298 0.86948 0.0
C154 C 0.53808 0.10203 1.01258 0.0
Eu155 Eu 0.52385 0.05391 0.87302 0.0
C156 C 0.5625 0.11223 0.09808 0.0
C157 C 0.57461 0.14371 0.09107 0.0
C158 C 0.5987 0.15349 0.16935 0.0
C159 C 0.61045 0.132 0.25668 0.0
C160 C 0.59766 0.10079 0.26516 0.0
C161 C 0.57388 0.09094 0.18664 0.0
C162 C 0.50089 0.07062 0.64816 0.0
C163 C 0.58477 0.0319 0.71305 0.0
O164 O 0.53567 0.96069 0.64465 0.0
O165 O 0.4855 0.96297 0.69415 0.0
O166 O 0.55355 0.97657 0.88223 0.0
O167 O 0.51755 1.00421 0.95416 0.0
O168 O 0.46361 1.01129 0.78414 0.0
O169 O 0.47155 0.04806 0.92872 0.0
O170 O 0.52028 0.07766 0.04448 0.0
O171 O 0.54672 0.10067 0.90083 0.0
O172 O 0.48932 0.08057 0.74834 0.0
O173 O 0.52239 0.04976 0.67202 0.0
O174 O 0.57756 0.04256 0.82155 0.0
O175 O 0.56099 1.01919 0.65301 0.0
H176 H 0.46806 0.90291 0.54652 0.0
H177 H 0.42768 0.9153 0.39718 0.0
H178 H 0.48205 0.999 0.28468 0.0
H179 H 0.5219 0.98691 0.43738 0.0
H180 H 0.56587 0.1605 0.02362 0.0
H181 H 0.60865 0.17749 0.16018 0.0
H182 H 0.60684 0.08365 0.33007 0.0
H183 H 0.56491 0.0665 0.19388 0.0
C184 C 0.59465 0.50903 0.62564 0.0
Eu185 Eu 0.54485 0.52263 0.75929 0.0
C186 C 0.59905 0.49475 0.509 0.0
C187 C 0.62477 0.47338 0.49276 0.0
C188 C 0.6227 0.44978 0.40576 0.0
C189 C 0.59493 0.44785 0.33554 0.0
C190 C 0.57169 0.47241 0.33965 0.0
C191 C 0.57371 0.49589 0.42665 0.0
C192 C 0.56504 0.54102 0.98439 0.0
C193 C 0.51808 0.45914 0.89645 0.0
C194 C 0.44279 0.5411 1.00499 0.0
Eu195 Eu 0.49402 0.52898 0.87681 0.0
C196 C 0.43688 0.55309 0.12455 0.0
C197 C 0.41029 0.5733 0.14217 0.0
C198 C 0.41111 0.59618 0.23227 0.0
C199 C 0.43857 0.5987 0.30383 0.0
C200 C 0.4626 0.57489 0.29861 0.0
C201 C 0.46178 0.55205 0.2087 0.0
C202 C 0.4756 0.50969 0.64922 0.0
C203 C 0.52103 0.59434 0.75888 0.0
O204 O 0.58061 0.53703 0.62697 0.0
O205 O 0.58288 0.48949 0.70608 0.0
O206 O 0.57252 0.555 0.88551 0.0
O207 O 0.54304 0.52087 0.96147 0.0
O208 O 0.52957 0.46838 0.79069 0.0
O209 O 0.50873 0.48256 0.96586 0.0
O210 O 0.45598 0.51273 0.99754 0.0
O211 O 0.45634 0.56196 0.9335 0.0
O212 O 0.46824 0.49551 0.74797 0.0
O213 O 0.4963 0.53087 0.6746 0.0
O214 O 0.50745 0.58287 0.85723 0.0
O215 O 0.53417 0.57313 0.68752 0.0
H216 H 0.64449 0.47249 0.5559 0.0
H217 H 0.64072 0.43084 0.40366 0.0
H218 H 0.55012 0.47106 0.2857 0.0
H219 H 0.55366 0.51236 0.43823 0.0
H220 H 0.39089 0.57415 0.07769 0.0
H221 H 0.39248 0.61452 0.23499 0.0
H222 H 0.484 0.5767 0.35325 0.0
H223 H 0.4825 0.5365 0.19597 0.0
C224 C 0.03122 0.592 0.66192 0.0
Eu225 Eu 1.01954 0.5439 0.80698 0.0
C226 C 0.04324 0.59308 0.54046 0.0
C227 C 0.0689 0.61372 0.51703 0.0
C228 C 0.09163 0.60505 0.43265 0.0
C229 C 0.088 0.57635 0.36793 0.0
C230 C 0.05934 0.55885 0.37761 0.0
C231 C 0.03697 0.56714 0.46437 0.0
C232 C 1.00426 0.56631 0.03159 0.0
C233 C 0.08558 0.51689 0.92548 0.0
C234 C 1.00269 0.45011 0.10929 0.0
Eu235 Eu 1.01421 0.4939 0.94543 0.0
C236 C 0.98091 0.4231 0.12924 0.0
C237 C 0.97308 0.4146 0.24682 0.0
C238 C 0.94504 0.39746 0.27043 0.0
C239 C 0.92387 0.39076 0.17644 0.0
C240 C 0.93515 0.3932 0.05813 0.0
C241 C 0.96345 0.41007 0.0343 0.0
C242 C 0.03258 0.47152 0.72327 0.0
C243 C 0.94974 0.51433 0.79321 0.0
O244 O 1.00286 0.57965 0.67674 0.0
O245 O 0.05195 0.58061 0.73874 0.0
O246 O 0.98785 0.57185 0.93648 0.0
O247 O 0.02477 0.54466 1.0066 0.0
O248 O 0.07391 0.52875 0.82357 0.0
O249 O 0.06433 0.50704 1.00424 0.0
O250 O 0.98919 0.47866 0.10741 0.0
O251 O 1.02395 0.4467 0.02497 0.0
O252 O 0.04451 0.46239 0.82441 0.0
O253 O 1.01157 0.49323 0.74207 0.0
O254 O 0.96035 0.49898 0.89019 0.0
O255 O 0.97057 0.53141 0.73178 0.0
H256 H 0.07385 0.63384 0.57525 0.0
H257 H 0.1135 0.61907 0.42747 0.0
H258 H 0.05586 0.53698 0.32709 0.0
H259 H 1.01706 0.55096 0.48135 0.0
H260 H 0.98632 0.42463 0.32065 0.0
H261 H 0.93712 0.3954 0.3625 0.0
H262 H 0.91931 0.38779 0.9843 0.0
H263 H 0.96948 0.41617 0.9426 0.0
H264 H 0.17835 1.00072 0.32305 0.0
H265 H 0.21171 0.09798 0.36595 0.0
H266 H 0.16508 0.10982 0.49413 0.0
H267 H 0.11601 0.09073 0.60884 0.0
H268 H 0.08747 0.99135 0.57411 0.0
H269 H 0.13344 0.98149 0.4441 0.0
C270 C 0.17575 1.02451 0.36108 0.0
C271 C 0.19904 0.04826 0.33393 0.0
C272 C 0.14993 0.03059 0.44052 0.0
C273 C 0.19427 0.07919 0.38244 0.0
C274 C 0.16768 0.08583 0.45777 0.0
C275 C 0.11946 0.06704 0.57069 0.0
C276 C 0.09772 0.04189 0.60143 0.0
C277 C 0.14549 0.06151 0.48952 0.0
C278 C 0.10305 1.01137 0.5513 0.0
C279 C 0.12906 1.00572 0.47464 0.0
H280 H 0.54742 0.18244 0.30101 0.0
H281 H 0.44604 0.19862 0.26025 0.0
H282 H 0.43491 0.14944 0.37884 0.0
H283 H 0.45486 0.10527 0.51802 0.0
H284 H 0.55722 0.09279 0.56133 0.0
H285 H 0.56662 0.13892 0.43096 0.0
C286 C 0.52289 0.1747 0.31538 0.0
C287 C 0.49769 0.19414 0.27017 0.0
C288 C 0.51683 0.1474 0.38837 0.0
C289 C 0.46596 0.18392 0.29137 0.0
C290 C 0.45965 0.15599 0.36114 0.0
C291 C 0.47928 0.11178 0.49452 0.0
C292 C 0.50529 0.09479 0.54846 0.0
C293 C 0.48496 0.13793 0.41331 0.0
C294 C 0.53671 0.1044 0.51924 0.0
C295 C 0.54228 0.13068 0.44298 0.0
H296 H 0.35526 0.55937 0.35009 0.0
H297 H 0.34975 0.4595 0.25171 0.0
H298 H 0.40038 0.44858 0.35856 0.0
H299 H 0.44412 0.46682 0.49896 0.0
H300 H 0.44463 0.56616 0.60924 0.0
H301 H 0.39625 0.57668 0.49224 0.0
C302 C 0.36478 0.53503 0.35278 0.0
C303 C 0.34806 0.51035 0.29264 0.0
C304 C 0.3928 0.52857 0.42075 0.0
C305 C 0.36188 0.47925 0.29475 0.0
C306 C 0.39077 0.47291 0.35781 0.0
C307 C 0.43424 0.49103 0.49398 0.0
C308 C 0.44899 0.51595 0.56056 0.0
C309 C 0.40628 0.4973 0.42322 0.0
C310 C 0.43479 0.54677 0.55661 0.0
C311 C 0.40691 0.55282 0.48964 0.0
H312 H 0.0656 0.37883 0.28744 0.0
H313 H 0.98903 0.32331 0.44455 0.0
H314 H 0.97932 0.36599 0.59092 0.0
H315 H 0.99543 0.41774 0.68577 0.0
H316 H 0.0719 0.47341 0.52814 0.0
H317 H 0.07889 0.43263 0.37249 0.0
C318 C 0.04662 0.37622 0.35317 0.0
C319 C 0.02803 0.34763 0.35425 0.0
C320 C 0.04142 0.40098 0.43854 0.0
C321 C 1.00341 0.34499 0.44005 0.0
C322 C 0.9981 0.36936 0.52484 0.0
C323 C 1.01321 0.42122 0.61592 0.0
C324 C 0.03287 0.44904 0.61828 0.0
C325 C 1.01727 0.39729 0.52658 0.0
C326 C 0.05615 0.45267 0.528 0.0
C327 C 0.0603 0.42912 0.43925 0.0
H328 H 0.81824 1.02289 0.13905 0.0
H329 H 0.87745 0.05183 0.43294 0.0
H330 H 0.92546 0.04914 0.30535 0.0
H331 H 0.95056 0.04239 0.10374 0.0
H332 H 0.89071 1.01166 0.81223 0.0
H333 H 0.84385 1.01121 0.94323 0.0
C334 C 0.84182 0.0275 0.17604 0.0
C335 C 0.84416 0.03693 0.29666 0.0
C336 C 0.86946 1.02625 0.10109 0.0
C337 C 0.87494 0.04384 0.34162 0.0
C338 C 0.90242 0.04269 0.26796 0.0
C339 C 0.92731 0.03544 0.069 0.0
C340 C 0.92451 0.0274 0.94664 0.0
C341 C 0.90001 0.03462 0.14644 0.0
C342 C 0.89397 1.01816 0.9049 0.0
C343 C 0.86693 1.01783 0.98025 0.0
H344 H 0.48864 0.86719 0.29916 0.0
H345 H 0.58977 0.84654 0.33021 0.0
H346 H 0.60208 0.8971 0.22337 0.0
H347 H 0.58356 0.94512 0.10124 0.0
H348 H 0.48179 0.95937 0.04867 0.0
H349 H 0.47064 0.91122 0.16756 0.0
C350 C 0.51345 0.87334 0.28138 0.0
C351 C 0.5381 0.85249 0.32309 0.0
C352 C 0.52027 0.90111 0.21167 0.0
C353 C 0.57012 0.86198 0.30206 0.0
C354 C 0.57716 0.89081 0.23881 0.0
C355 C 0.5589 0.93834 0.11969 0.0
C356 C 0.53351 0.95701 0.06933 0.0
C357 C 0.55239 0.91041 0.19107 0.0
C358 C 0.50182 0.94662 0.08944 0.0
C359 C 0.49536 0.91894 0.15797 0.0
H360 H 0.68074 0.48249 0.28765 0.0
H361 H 0.70603 0.58252 0.32105 0.0
H362 H 0.65569 0.59817 0.2207 0.0
H363 H 0.60622 0.58283 0.10321 0.0
H364 H 0.58735 0.4819 0.04812 0.0
H365 H 0.63596 0.46776 0.15807 0.0
C366 C 0.67572 0.50779 0.27169 0.0
C367 C 0.69785 0.53107 0.31244 0.0
C368 C 0.648 0.51654 0.20539 0.0
C369 C 0.68968 0.56379 0.29374 0.0
C370 C 0.66092 0.57277 0.23416 0.0
C371 C 0.61198 0.55767 0.1199 0.0
C372 C 0.59189 0.53346 0.07094 0.0
C373 C 0.63998 0.5493 0.18759 0.0
C374 C 0.60106 0.50109 0.0884 0.0
C375 C 0.62893 0.49288 0.15219 0.0
H376 H 0.06143 0.6803 0.34133 0.0
H377 H 0.96396 0.7152 0.32241 0.0
H378 H 0.94773 0.66473 0.22636 0.0
H379 H 0.96273 0.61246 0.12583 0.0
H380 H 0.06284 0.5855 0.10992 0.0
H381 H 0.07699 0.63371 0.22044 0.0
C382 C 0.03673 0.67759 0.31352 0.0
C383 C 1.01427 0.70243 0.33851 0.0
C384 C 0.02817 0.65001 0.24726 0.0
C385 C 0.98197 0.69679 0.30708 0.0
C386 C 0.97276 0.66797 0.24976 0.0
C387 C 0.98754 0.61648 0.15071 0.0
C388 C 1.01149 0.59406 0.1137 0.0
C389 C 0.9958 0.64454 0.21691 0.0
C390 C 0.04364 0.60101 0.14133 0.0
C391 C 0.05182 0.62863 0.20571 0.0
H392 H 0.09151 0.23288 0.07958 0.0
H393 H 0.0694 0.24795 0.45055 0.0
H394 H 0.08025 0.19142 0.49523 0.0
H395 H 0.07703 0.13689 0.41966 0.0
H396 H 0.07894 0.12101 0.04056 0.0
H397 H 0.09528 0.17703 1.00575 0.0
C398 C 0.08929 0.2236 0.16992 0.0
C399 C 0.0785 0.24419 0.26062 0.0
C400 C 0.09145 0.19026 0.1921 0.0
C401 C 0.07755 0.23256 0.37894 0.0
C402 C 0.08327 0.20007 0.40416 0.0
C403 C 0.08277 0.14541 0.33006 0.0
C404 C 0.07687 0.1252 0.23282 0.0
C405 C 0.08758 0.1784 0.31019 0.0
C406 C 0.08372 0.13623 0.11661 0.0
C407 C 0.0923 0.16845 0.09684 0.0
H408 H 0.32283 0.0352 0.33843 0.0
H409 H 0.28813 0.95093 0.16125 0.0
H410 H 0.3426 0.92705 0.16534 0.0
H411 H 0.40044 0.93223 0.21535 0.0
H412 H 0.43377 1.02086 0.37283 0.0
H413 H 0.37984 0.04261 0.36938 0.0
C414 C 0.32743 1.01138 0.30271 0.0
C415 C 0.30227 0.99444 0.25106 0.0
C416 C 0.35861 0.9996 0.29587 0.0
C417 C 0.3076 0.96381 0.20322 0.0
C418 C 0.33864 0.95069 0.20325 0.0
C419 C 0.39585 0.95649 0.24667 0.0
C420 C 0.42103 0.97472 0.29485 0.0
C421 C 0.36446 0.96877 0.24736 0.0
C422 C 0.41502 1.00636 0.3336 0.0
C423 C 0.38403 1.01863 0.33458 0.0
H424 H 0.57433 0.30708 0.15363 0.0
H425 H 0.49876 0.31237 0.41538 0.0
H426 H 0.51395 0.36771 0.46333 0.0
H427 H 0.54683 0.41451 0.42282 0.0
H428 H 0.62326 0.41049 0.16288 0.0
H429 H 0.60902 0.35445 0.11684 0.0
C430 C 0.56195 0.32042 0.22284 0.0
C431 C 0.53605 0.30629 0.28308 0.0
C432 C 0.57017 0.35227 0.24617 0.0
C433 C 0.51931 0.32315 0.37121 0.0
C434 C 0.5276 0.35468 0.3966 0.0
C435 C 0.55996 0.40146 0.35449 0.0
C436 C 0.5853 0.4163 0.29338 0.0
C437 C 0.55249 0.36955 0.33274 0.0
C438 C 0.60314 0.39931 0.20834 0.0
C439 C 0.59527 0.36739 0.18342 0.0
H440 H 0.21876 0.50646 0.34469 0.0
H441 H 0.24651 0.59575 0.17792 0.0
H442 H 0.19048 0.61492 0.18188 0.0
H443 H 0.13397 0.60514 0.23307 0.0
H444 H 0.10694 0.51411 0.39434 0.0
H445 H 0.16203 0.49501 0.38082 0.0
C446 C 0.21226 0.5304 0.31267 0.0
C447 C 0.23591 0.55027 0.26428 0.0
C448 C 0.18023 0.53993 0.30785 0.0
C449 C 0.22813 0.58084 0.21866 0.0
C450 C 0.19627 0.59127 0.21821 0.0
C451 C 0.14016 0.58092 0.2629 0.0
C452 C 0.11677 0.56136 0.31678 0.0
C453 C 0.17211 0.57074 0.26113 0.0
C454 C 0.12457 0.52966 0.35224 0.0
C455 C 0.15619 0.51899 0.34767 0.0
H456 H 0.09391 0.81738 0.49156 0.0
H457 H 0.05123 0.80294 0.14619 0.0
H458 H 0.08077 0.84863 0.06388 0.0
H459 H 0.10871 0.89806 0.10028 0.0
H460 H 0.13842 0.92163 0.45702 0.0
H461 H 0.126 0.8667 0.52499 0.0
C462 C 0.09176 0.82419 0.39811 0.0
C463 C 0.07122 0.80679 0.32372 0.0
C464 C 0.10686 0.85202 0.35406 0.0
C465 C 0.06766 0.81581 0.20339 0.0
C466 C 0.08443 0.84187 0.15672 0.0
C467 C 0.114 0.89062 0.19153 0.0
C468 C 0.12419 0.91357 0.27383 0.0
C469 C 0.10305 0.86081 0.23229 0.0
C470 C 0.13066 0.90408 0.39227 0.0
C471 C 0.12283 0.87297 0.43149 0.0
H472 H 0.72951 0.10436 0.56376 0.0
H473 H 0.76915 0.1113 0.20814 0.0
H474 H 0.72318 0.14216 0.14151 0.0
H475 H 0.66616 0.15051 0.16429 0.0
H476 H 0.62022 0.1272 0.49903 0.0
H477 H 0.67261 0.11885 0.59319 0.0
C478 C 0.72808 0.11298 0.47225 0.0
C479 C 0.75251 0.10495 0.39106 0.0
C480 C 0.69952 0.12703 0.42982 0.0
C481 C 0.75102 0.11736 0.2736 0.0
C482 C 0.72432 0.13457 0.23442 0.0
C483 C 0.66776 0.14511 0.25924 0.0
C484 C 0.6397 0.13931 0.32459 0.0
C485 C 0.69753 0.13722 0.30893 0.0
C486 C 0.64173 0.13181 0.44717 0.0
C487 C 0.67167 0.1267 0.50058 0.0
H488 H 0.45797 0.74045 0.48225 0.0
H489 H 0.52867 0.73742 0.20186 0.0
H490 H 0.51405 0.6818 0.15659 0.0
H491 H 0.48338 0.634 0.20424 0.0
H492 H 0.41218 0.63512 0.48407 0.0
H493 H 0.42541 0.6917 0.52719 0.0
C494 C 0.46941 0.72751 0.40988 0.0
C495 C 0.49377 0.74245 0.34342 0.0
C496 C 0.46162 0.69536 0.38801 0.0
C497 C 0.5093 0.72604 0.25112 0.0
C498 C 0.50134 0.69435 0.22701 0.0
C499 C 0.47116 0.64657 0.27604 0.0
C500 C 0.44762 0.63075 0.34354 0.0
C501 C 0.47809 0.6787 0.29663 0.0
C502 C 0.43092 0.64709 0.43341 0.0
C503 C 0.43823 0.6793 0.45677 0.0
H504 H 0.79585 0.43439 0.42107 0.0
H505 H 0.81736 0.51857 0.20861 0.0
H506 H 0.86113 0.48979 0.10854 0.0
H507 H 0.89456 0.44257 0.09155 0.0
H508 H 0.87987 0.36023 0.32306 0.0
H509 H 0.83095 0.38564 0.40393 0.0
C510 C 0.81055 0.44615 0.35366 0.0
C511 C 0.8042 0.4783 0.32161 0.0
C512 C 0.83596 0.42956 0.29879 0.0
C513 C 0.8227 0.49386 0.23425 0.0
C514 C 0.84723 0.47736 0.17673 0.0
C515 C 0.88 0.42957 0.1565 0.0
C516 C 0.89007 0.39922 0.19909 0.0
C517 C 0.85404 0.44531 0.20862 0.0
C518 C 0.87187 0.38323 0.28697 0.0
C519 C 0.8444 0.39803 0.33451 0.0
H520 H 0.04763 0.25123 0.95355 0.0
H521 H 0.98869 0.23158 0.2613 0.0
H522 H 0.97363 0.17919 0.17779 0.0
H523 H 0.9821 0.13576 0.02694 0.0
H524 H 0.04547 0.15339 0.72962 0.0
H525 H 0.05385 0.20886 0.79721 0.0
C526 C 0.03114 0.2356 1.0014 0.0
C527 C 1.01936 0.24554 0.11439 0.0
C528 C 1.02394 0.20452 0.95512 0.0
C529 C 0.99795 0.22487 0.17454 0.0
C530 C 0.98966 0.19464 0.127 0.0
C531 C 0.99797 0.15169 0.97752 0.0
C532 C 1.01385 0.13973 0.87485 0.0
C533 C 1.00335 0.18363 0.01932 0.0
C534 C 0.03313 0.16143 0.80932 0.0
C535 C 0.03803 0.19331 0.84851 0.0
H536 H 0.3022 1.00385 0.9793 0.0
H537 H 0.31196 0.0912 0.17938 0.0
H538 H 0.36767 0.09671 0.10881 0.0
H539 H 0.41598 0.07359 1.0052 0.0
H540 H 0.40545 0.98596 0.80486 0.0
H541 H 0.34869 0.98344 0.86151 0.0
C542 C 0.31613 1.02477 1.00405 0.0
C543 C 0.30213 0.04744 0.08354 0.0
C544 C 0.34874 0.02718 0.9655 0.0
C545 C 0.32122 0.07391 0.11607 0.0
C546 C 0.35353 0.07663 0.07741 0.0
C547 C 0.40129 0.05403 0.97275 0.0
C548 C 0.41574 0.02987 0.90017 0.0
C549 C 0.36796 0.05294 1.00462 0.0
C550 C 0.39565 1.00496 0.85993 0.0
C551 C 0.36291 1.00351 0.89252 0.0
H552 H 0.47517 0.32989 0.16856 0.0
H553 H 0.53871 0.28454 0.91829 0.0
H554 H 0.5472 0.33682 0.81603 0.0
H555 H 0.54047 0.39796 0.8105 0.0
H556 H 0.48002 0.44105 0.08043 0.0
H557 H 0.46756 0.38846 0.16159 0.0
C558 C 0.4901 0.33122 0.08922 0.0
C559 C 0.50551 0.30272 0.05011 0.0
C560 C 0.49641 0.36179 0.03571 0.0
C561 C 0.52557 0.3055 0.94882 0.0
C562 C 0.53098 0.33577 0.89174 0.0
C563 C 0.52441 0.39588 0.88642 0.0
C564 C 0.51145 0.42448 0.93794 0.0
C565 C 0.51722 0.36453 0.93617 0.0
C566 C 0.49082 0.42037 0.03742 0.0
C567 C 0.48334 0.38991 0.08458 0.0
H568 H 0.22186 0.47485 0.14501 0.0
H569 H 0.2553 0.55639 0.94223 0.0
H570 H 0.20191 0.56284 0.85071 0.0
H571 H 0.14253 0.54923 0.84711 0.0
H572 H 0.10997 0.47039 0.07034 0.0
H573 H 0.16468 0.4596 0.13424 0.0
C574 C 0.21791 0.49311 0.07655 0.0
C575 C 0.2435 0.51435 0.04829 0.0
C576 C 0.18627 0.49798 0.03016 0.0
C577 C 0.2369 0.53882 0.96308 0.0
C578 C 0.20588 0.54298 0.91267 0.0
C579 C 0.1474 0.5294 0.90832 0.0
C580 C 0.1212 0.51074 0.9528 0.0
C581 C 0.17982 0.52338 0.94827 0.0
C582 C 0.12883 0.48548 0.0338 0.0
C583 C 0.16051 0.47904 0.07062 0.0
H584 H 1.01584 0.84489 0.36238 0.0
H585 H 0.03077 0.79438 0.69494 0.0
H586 H 0.02833 0.8458 0.80314 0.0
H587 H 1.02379 0.9071 0.80265 0.0
H588 H 1.01208 0.95525 0.4609 0.0
H589 H 1.0125 0.9041 0.3605 0.0
C590 C 1.01831 0.84498 0.45874 0.0
C591 C 1.02289 0.81517 0.51956 0.0
C592 C 1.01803 0.87495 0.52015 0.0
C593 C 0.02629 0.81642 0.64494 0.0
C594 C 0.02535 0.84614 0.70699 0.0
C595 C 1.02131 0.90649 0.70636 0.0
C596 C 1.01768 0.93614 0.64166 0.0
C597 C 1.02152 0.87591 0.64577 0.0
C598 C 1.01467 0.93378 0.516 0.0
C599 C 1.01484 0.90411 0.45696 0.0
H600 H 0.70538 0.04287 0.35554 0.0
H601 H 0.75893 0.03947 0.68332 0.0
H602 H 0.70866 0.0355 0.79858 0.0
H603 H 0.64803 0.03477 0.80746 0.0
H604 H 0.5957 0.03617 0.47503 0.0
H605 H 0.64586 0.03905 0.3634 0.0
C606 C 0.70606 0.0404 0.452 0.0
C607 C 0.73627 0.04088 0.51008 0.0
C608 C 0.67676 0.03835 0.51825 0.0
C609 C 0.73631 0.0385 0.63578 0.0
C610 C 0.70736 0.03664 0.70196 0.0
C611 C 0.64753 0.03595 0.71073 0.0
C612 C 0.61735 0.03548 0.65119 0.0
C613 C 0.67718 0.03698 0.6447 0.0
C614 C 0.61798 0.03652 0.525 0.0
C615 C 0.64691 0.03815 0.46011 0.0
H616 H 0.4983 0.74576 0.66315 0.0
H617 H 0.57741 0.73171 0.42188 0.0
H618 H 0.58222 0.67522 0.48765 0.0
H619 H 0.56066 0.6279 0.60143 0.0
H620 H 0.48206 0.64236 0.84679 0.0
H621 H 0.48014 0.6997 0.79201 0.0
C622 C 0.51747 0.73068 0.62877 0.0
C623 C 0.53816 0.74364 0.53964 0.0
C624 C 0.51955 0.69769 0.66569 0.0
C625 C 0.56198 0.72306 0.49315 0.0
C626 C 0.56425 0.69041 0.5293 0.0
C627 C 0.54321 0.64358 0.64382 0.0
C628 C 0.52135 0.63019 0.72832 0.0
C629 C 0.54265 0.67711 0.61338 0.0
C630 C 0.49921 0.65144 0.78192 0.0
C631 C 0.49812 0.68448 0.75046 0.0
H632 H 0.80783 0.47689 0.61462 0.0
H633 H 0.81459 0.57005 0.44438 0.0
H634 H 0.86805 0.57776 0.53276 0.0
H635 H 0.9147 0.55675 0.6508 0.0
H636 H 0.90641 0.46514 0.83354 0.0
H637 H 0.85244 0.4582 0.74971 0.0
C638 C 0.82072 0.49921 0.59923 0.0
C639 C 0.80663 0.52317 0.52389 0.0
C640 C 0.85164 0.50356 0.65199 0.0
C641 C 0.8242 0.5516 0.50361 0.0
C642 C 0.85506 0.5558 0.55344 0.0
C643 C 0.90107 0.5353 0.67324 0.0
C644 C 0.91529 0.51136 0.74861 0.0
C645 C 0.86933 0.5318 0.62661 0.0
C646 C 0.89661 0.48403 0.77654 0.0
C647 C 0.86555 0.48001 0.72803 0.0
loop_
_geom_bond_atom_site_label_1
_geom_bond_atom_site_label_2
_geom_bond_distance
_geom_bond_site_symmetry_2
_ccdc_geom_bond_type
C0 N1 1.317 . S
C0 N2 1.348 . S
C0 C3 1.485 . S
N1 C0 1.317 . S
N1 N5 1.370 . S
N2 C0 1.348 . S
N2 C4 1.346 . S
C3 C0 1.485 . S
C3 H7 0.960 . S
C3 H8 0.961 . S
C3 H9 0.960 . S
C4 N2 1.346 . S
C4 N5 1.307 . S
C4 C6 1.486 . S
N5 N1 1.370 . S
N5 C4 1.307 . S
C6 C4 1.486 . S
C6 H10 0.960 . S
C6 H11 0.960 . S
C6 H12 0.959 . S
H7 C3 0.960 . S
H8 C3 0.961 . S
H9 C3 0.960 . S
H10 C6 0.960 . S
H11 C6 0.960 . S
H12 C6 0.959 . S
C13 N14 1.317 . S
C13 N15 1.348 . S
C13 C16 1.485 . S
N14 C13 1.317 . S
N14 N18 1.371 . S
N15 C13 1.348 . S
N15 C17 1.346 1_655 S
C16 C13 1.485 . S
C16 H20 0.960 1_655 S
C16 H21 0.961 . S
C16 H22 0.960 . S
C17 N15 1.346 1_455 S
C17 N18 1.307 1_455 S
C17 C19 1.486 . S
N18 N14 1.371 . S
N18 C17 1.307 1_655 S
C19 C17 1.486 . S
C19 H23 0.960 1_455 S
C19 H24 0.960 . S
C19 H25 0.959 . S
H20 C16 0.960 1_455 S
H21 C16 0.961 . S
H22 C16 0.960 . S
H23 C19 0.960 1_655 S
H24 C19 0.960 . S
H25 C19 0.959 . S
C26 N27 1.317 . S
C26 N28 1.348 . S
C26 C29 1.485 . S
N27 C26 1.317 . S
N27 N31 1.371 . S
N28 C26 1.348 . S
N28 C30 1.346 1_565 S
C29 C26 1.485 . S
C29 H33 0.960 1_565 S
C29 H34 0.961 . S
C29 H35 0.960 . S
C30 N28 1.346 1_545 S
C30 N31 1.307 1_545 S
C30 C32 1.486 . S
N31 N27 1.371 . S
N31 C30 1.307 1_565 S
C32 C30 1.486 . S
C32 H36 0.960 1_545 S
C32 H37 0.960 . S
C32 H38 0.959 . S
H33 C29 0.960 1_545 S
H34 C29 0.961 . S
H35 C29 0.960 . S
H36 C32 0.960 1_565 S
H37 C32 0.960 . S
H38 C32 0.959 . S
C39 N40 1.317 . S
C39 N41 1.348 . S
C39 C42 1.485 . S
N40 C39 1.317 . S
N40 N44 1.370 . S
N41 C39 1.348 . S
N41 C43 1.346 . S
C42 C39 1.485 . S
C42 H46 0.960 . S
C42 H47 0.961 . S
C42 H48 0.960 . S
C43 N41 1.346 . S
C43 N44 1.307 . S
C43 C45 1.486 . S
N44 N40 1.370 . S
N44 C43 1.307 . S
C45 C43 1.486 . S
C45 H49 0.960 . S
C45 H50 0.960 . S
C45 H51 0.959 . S
H46 C42 0.960 . S
H47 C42 0.961 . S
H48 C42 0.960 . S
H49 C45 0.960 . S
H50 C45 0.960 . S
H51 C45 0.959 . S
C52 N53 1.317 . S
C52 N54 1.348 1_556 S
C52 C55 1.485 . S
N53 C52 1.317 . S
N53 N57 1.370 1_556 S
N54 C52 1.348 1_554 S
N54 C56 1.346 . S
C55 C52 1.485 . S
C55 H59 0.960 . S
C55 H60 0.961 . S
C55 H61 0.960 . S
C56 N54 1.346 . S
C56 N57 1.307 . S
C56 C58 1.486 . S
N57 N53 1.370 1_554 S
N57 C56 1.307 . S
C58 C56 1.486 . S
C58 H62 0.960 . S
C58 H63 0.960 . S
C58 H64 0.959 . S
H59 C55 0.960 . S
H60 C55 0.961 . S
H61 C55 0.960 . S
H62 C58 0.960 . S
H63 C58 0.960 . S
H64 C58 0.959 . S
C65 N66 1.317 . S
C65 N67 1.350 1_556 S
C65 C68 1.485 . S
N66 C65 1.317 . S
N66 N70 1.370 1_556 S
N67 C65 1.350 1_554 S
N67 C69 1.345 1_655 S
C68 C65 1.485 . S
C68 H72 0.960 1_655 S
C68 H73 0.961 . S
C68 H74 0.960 . S
C69 N67 1.345 1_455 S
C69 N70 1.307 1_455 S
C69 C71 1.486 . S
N70 N66 1.370 1_554 S
N70 C69 1.307 1_655 S
C71 C69 1.486 . S
C71 H75 0.960 1_455 S
C71 H76 0.960 . S
C71 H77 0.959 . S
H72 C68 0.960 1_455 S
H73 C68 0.961 . S
H74 C68 0.960 . S
H75 C71 0.960 1_655 S
H76 C71 0.960 . S
H77 C71 0.959 . S
C78 N79 1.317 . S
C78 N80 1.350 1_556 S
C78 C81 1.485 . S
N79 C78 1.317 . S
N79 N83 1.371 1_556 S
N80 C78 1.350 1_554 S
N80 C82 1.345 1_565 S
C81 C78 1.485 . S
C81 H85 0.960 1_565 S
C81 H86 0.961 . S
C81 H87 0.960 . S
C82 N80 1.345 1_545 S
C82 N83 1.307 1_545 S
C82 C84 1.487 . S
N83 N79 1.371 1_554 S
N83 C82 1.307 1_565 S
C84 C82 1.487 . S
C84 H88 0.960 1_545 S
C84 H89 0.960 . S
C84 H90 0.959 . S
H85 C81 0.960 1_545 S
H86 C81 0.961 . S
H87 C81 0.960 . S
H88 C84 0.960 1_565 S
H89 C84 0.960 . S
H90 C84 0.959 . S
C91 N92 1.317 . S
C91 N93 1.348 1_556 S
C91 C94 1.485 . S
N92 C91 1.317 . S
N92 N96 1.370 1_556 S
N93 C91 1.348 1_554 S
N93 C95 1.346 . S
C94 C91 1.485 . S
C94 H98 0.960 . S
C94 H99 0.961 . S
C94 H100 0.960 . S
C95 N93 1.346 . S
C95 N96 1.307 . S
C95 C97 1.486 . S
N96 N92 1.370 1_554 S
N96 C95 1.307 . S
C97 C95 1.486 . S
C97 H101 0.960 . S
C97 H102 0.960 . S
C97 H103 0.959 . S
H98 C94 0.960 . S
H99 C94 0.961 . S
H100 C94 0.960 . S
H101 C97 0.960 . S
H102 C97 0.960 . S
H103 C97 0.959 . S
C104 Eu105 2.835 . S
C104 C106 1.500 . S
C104 O124 1.257 . S
C104 O125 1.260 . S
Eu105 C104 2.835 . S
Eu105 O124 2.473 . S
Eu105 O125 2.480 . S
Eu105 O126 2.430 . S
Eu105 O127 2.670 1_545 S
Eu105 O128 2.394 . S
Eu105 O133 2.355 1_655 S
Eu105 O135 2.374 1_545 S
C106 C104 1.500 . S
C106 C107 1.377 . S
C106 C111 1.377 . S
C107 C106 1.377 . S
C107 C108 1.395 . S
C107 H136 0.931 . S
C108 C107 1.395 . S
C108 C109 1.383 . S
C108 H137 0.931 . S
C109 C108 1.383 . S
C109 C110 1.394 . S
C110 C109 1.394 . S
C110 C111 1.378 . S
C110 H138 0.931 1_655 S
C111 C106 1.377 . S
C111 C110 1.378 . S
C111 H139 0.931 1_655 S
C112 O126 1.259 . S
C112 O127 1.270 1_545 S
C113 O128 1.251 1_455 S
C113 O129 1.251 . S
C114 Eu115 2.835 1_554 S
C114 C116 1.500 . S
C114 O130 1.257 . S
C114 O131 1.260 1_554 S
Eu115 C114 2.835 1_556 S
Eu115 O127 2.355 1_455 S
Eu115 O129 2.374 1_565 S
Eu115 O130 2.473 1_556 S
Eu115 O131 2.480 . S
Eu115 O132 2.430 . S
Eu115 O133 2.670 1_565 S
Eu115 O134 2.394 . S
C116 C114 1.500 . S
C116 C117 1.377 . S
C116 C121 1.377 . S
C117 C116 1.377 . S
C117 C118 1.395 . S
C117 H140 0.931 . S
C118 C117 1.395 . S
C118 C119 1.383 . S
C118 H141 0.931 . S
C119 C118 1.383 . S
C119 C120 1.394 . S
C120 C119 1.394 . S
C120 C121 1.378 . S
C120 H142 0.931 1_455 S
C121 C116 1.377 . S
C121 C120 1.378 . S
C121 H143 0.931 1_455 S
C122 O132 1.259 . S
C122 O133 1.270 1_565 S
C123 O134 1.251 1_655 S
C123 O135 1.251 . S
O124 C104 1.257 . S
O124 Eu105 2.473 . S
O125 C104 1.260 . S
O125 Eu105 2.480 . S
O126 Eu105 2.430 . S
O126 C112 1.259 . S
O127 Eu105 2.670 1_565 S
O127 C112 1.270 1_565 S
O127 Eu115 2.355 1_655 S
O128 Eu105 2.394 . S
O128 C113 1.251 1_655 S
O129 C113 1.251 . S
O129 Eu115 2.374 1_545 S
O130 C114 1.257 . S
O130 Eu115 2.473 1_554 S
O131 C114 1.260 1_556 S
O131 Eu115 2.480 . S
O132 Eu115 2.430 . S
O132 C122 1.259 . S
O133 Eu105 2.355 1_455 S
O133 Eu115 2.670 1_545 S
O133 C122 1.270 1_545 S
O134 Eu115 2.394 . S
O134 C123 1.251 1_455 S
O135 Eu105 2.374 1_565 S
O135 C123 1.251 . S
H136 C107 0.931 . S
H137 C108 0.931 . S
H138 C110 0.931 1_455 S
H139 C111 0.931 1_455 S
H140 C117 0.931 . S
H141 C118 0.931 . S
H142 C120 0.931 1_655 S
H143 C121 0.931 1_655 S
C144 Eu145 2.835 . S
C144 C146 1.500 . S
C144 O164 1.257 . S
C144 O165 1.260 . S
Eu145 C144 2.835 . S
Eu145 O164 2.473 . S
Eu145 O165 2.480 . S
Eu145 O166 2.430 . S
Eu145 O167 2.670 . S
Eu145 O168 2.394 . S
Eu145 O173 2.355 1_565 S
Eu145 O175 2.374 . S
C146 C144 1.500 . S
C146 C147 1.377 . S
C146 C151 1.377 . S
C147 C146 1.377 . S
C147 C148 1.395 . S
C147 H176 0.931 . S
C148 C147 1.395 . S
C148 C149 1.383 . S
C148 H177 0.931 . S
C149 C148 1.383 . S
C149 C150 1.394 . S
C150 C149 1.394 . S
C150 C151 1.378 . S
C150 H178 0.931 1_565 S
C151 C146 1.377 . S
C151 C150 1.378 . S
C151 H179 0.931 1_565 S
C152 O166 1.259 . S
C152 O167 1.270 . S
C153 O168 1.251 1_545 S
C153 O169 1.251 . S
C154 Eu155 2.835 1_554 S
C154 C156 1.500 . S
C154 O170 1.257 . S
C154 O171 1.260 1_554 S
Eu155 C154 2.835 1_556 S
Eu155 O167 2.355 1_545 S
Eu155 O169 2.374 . S
Eu155 O170 2.473 1_556 S
Eu155 O171 2.480 . S
Eu155 O172 2.430 . S
Eu155 O173 2.670 . S
Eu155 O174 2.394 . S
C156 C154 1.500 . S
C156 C157 1.377 . S
C156 C161 1.377 . S
C157 C156 1.377 . S
C157 C158 1.395 . S
C157 H180 0.931 . S
C158 C157 1.395 . S
C158 C159 1.383 . S
C158 H181 0.931 . S
C159 C158 1.383 . S
C159 C160 1.394 . S
C160 C159 1.394 . S
C160 C161 1.378 . S
C160 H182 0.931 1_545 S
C161 C156 1.377 . S
C161 C160 1.378 . S
C161 H183 0.931 1_545 S
C162 O172 1.259 . S
C162 O173 1.270 . S
C163 O174 1.251 1_565 S
C163 O175 1.251 . S
O164 C144 1.257 . S
O164 Eu145 2.473 . S
O165 C144 1.260 . S
O165 Eu145 2.480 . S
O166 Eu145 2.430 . S
O166 C152 1.259 . S
O167 Eu145 2.670 . S
O167 C152 1.270 . S
O167 Eu155 2.355 1_565 S
O168 Eu145 2.394 . S
O168 C153 1.251 1_565 S
O169 C153 1.251 . S
O169 Eu155 2.374 . S
O170 C154 1.257 . S
O170 Eu155 2.473 1_554 S
O171 C154 1.260 1_556 S
O171 Eu155 2.480 . S
O172 Eu155 2.430 . S
O172 C162 1.259 . S
O173 Eu145 2.355 1_545 S
O173 Eu155 2.670 . S
O173 C162 1.270 . S
O174 Eu155 2.394 . S
O174 C163 1.251 1_545 S
O175 Eu145 2.374 . S
O175 C163 1.251 . S
H176 C147 0.931 . S
H177 C148 0.931 . S
H178 C150 0.931 1_545 S
H179 C151 0.931 1_545 S
H180 C157 0.931 . S
H181 C158 0.931 . S
H182 C160 0.931 1_565 S
H183 C161 0.931 1_565 S
C184 Eu185 2.835 . S
C184 C186 1.500 . S
C184 O204 1.257 . S
C184 O205 1.260 . S
Eu185 C184 2.835 . S
Eu185 O204 2.473 . S
Eu185 O205 2.480 . S
Eu185 O206 2.430 . S
Eu185 O207 2.670 . S
Eu185 O208 2.394 . S
Eu185 O213 2.355 . S
Eu185 O215 2.374 . S
C186 C184 1.500 . S
C186 C187 1.377 . S
C186 C191 1.377 . S
C187 C186 1.377 . S
C187 C188 1.395 . S
C187 H216 0.931 . S
C188 C187 1.395 . S
C188 C189 1.383 . S
C188 H217 0.931 . S
C189 C188 1.383 . S
C189 C190 1.394 . S
C190 C189 1.394 . S
C190 C191 1.378 . S
C190 H218 0.931 . S
C191 C186 1.377 . S
C191 C190 1.378 . S
C191 H219 0.931 . S
C192 O206 1.259 . S
C192 O207 1.270 . S
C193 O208 1.251 . S
C193 O209 1.251 . S
C194 Eu195 2.835 1_554 S
C194 C196 1.500 . S
C194 O210 1.257 . S
C194 O211 1.260 1_554 S
Eu195 C194 2.835 1_556 S
Eu195 O207 2.355 . S
Eu195 O209 2.374 . S
Eu195 O210 2.473 1_556 S
Eu195 O211 2.480 . S
Eu195 O212 2.430 . S
Eu195 O213 2.670 . S
Eu195 O214 2.394 . S
C196 C194 1.500 . S
C196 C197 1.377 . S
C196 C201 1.377 . S
C197 C196 1.377 . S
C197 C198 1.395 . S
C197 H220 0.931 . S
C198 C197 1.395 . S
C198 C199 1.383 . S
C198 H221 0.931 . S
C199 C198 1.383 . S
C199 C200 1.394 . S
C200 C199 1.394 . S
C200 C201 1.378 . S
C200 H222 0.931 . S
C201 C196 1.377 . S
C201 C200 1.378 . S
C201 H223 0.931 . S
C202 O212 1.259 . S
C202 O213 1.270 . S
C203 O214 1.251 . S
C203 O215 1.251 . S
O204 C184 1.257 . S
O204 Eu185 2.473 . S
O205 C184 1.260 . S
O205 Eu185 2.480 . S
O206 Eu185 2.430 . S
O206 C192 1.259 . S
O207 Eu185 2.670 . S
O207 C192 1.270 . S
O207 Eu195 2.355 . S
O208 Eu185 2.394 . S
O208 C193 1.251 . S
O209 C193 1.251 . S
O209 Eu195 2.374 . S
O210 C194 1.257 . S
O210 Eu195 2.473 1_554 S
O211 C194 1.260 1_556 S
O211 Eu195 2.480 . S
O212 Eu195 2.430 . S
O212 C202 1.259 . S
O213 Eu185 2.355 . S
O213 Eu195 2.670 . S
O213 C202 1.270 . S
O214 Eu195 2.394 . S
O214 C203 1.251 . S
O215 Eu185 2.374 . S
O215 C203 1.251 . S
H216 C187 0.931 . S
H217 C188 0.931 . S
H218 C190 0.931 . S
H219 C191 0.931 . S
H220 C197 0.931 . S
H221 C198 0.931 . S
H222 C200 0.931 . S
H223 C201 0.931 . S
C224 Eu225 2.835 . S
C224 C226 1.500 . S
C224 O244 1.257 . S
C224 O245 1.260 . S
Eu225 C224 2.835 . S
Eu225 O244 2.473 . S
Eu225 O245 2.480 . S
Eu225 O246 2.430 . S
Eu225 O247 2.670 1_455 S
Eu225 O248 2.394 . S
Eu225 O253 2.355 . S
Eu225 O255 2.374 1_455 S
C226 C224 1.500 . S
C226 C227 1.377 . S
C226 C231 1.377 . S
C227 C226 1.377 . S
C227 C228 1.395 . S
C227 H256 0.931 . S
C228 C227 1.395 . S
C228 C229 1.383 . S
C228 H257 0.931 . S
C229 C228 1.383 . S
C229 C230 1.394 . S
C230 C229 1.394 . S
C230 C231 1.378 . S
C230 H258 0.931 . S
C231 C226 1.377 . S
C231 C230 1.378 . S
C231 H259 0.931 . S
C232 O246 1.266 . S
C232 O247 1.265 1_455 S
C233 O248 1.251 . S
C233 O249 1.251 . S
C234 Eu235 2.835 1_554 S
C234 C236 1.500 . S
C234 O250 1.257 . S
C234 O251 1.260 1_554 S
Eu235 C234 2.835 1_556 S
Eu235 O247 2.355 . S
Eu235 O249 2.374 1_655 S
Eu235 O250 2.473 1_556 S
Eu235 O251 2.480 . S
Eu235 O252 2.430 . S
Eu235 O253 2.670 1_655 S
Eu235 O254 2.394 . S
C236 C234 1.500 . S
C236 C237 1.377 . S
C236 C241 1.377 . S
C237 C236 1.377 . S
C237 C238 1.395 . S
C237 H260 0.931 . S
C238 C237 1.395 . S
C238 C239 1.383 . S
C238 H261 0.931 . S
C239 C238 1.383 . S
C239 C240 1.394 . S
C240 C239 1.394 . S
C240 C241 1.378 . S
C240 H262 0.931 . S
C241 C236 1.377 . S
C241 C240 1.378 . S
C241 H263 0.931 . S
C242 O252 1.262 . S
C242 O253 1.268 1_655 S
C243 O254 1.251 . S
C243 O255 1.251 . S
O244 C224 1.257 . S
O244 Eu225 2.473 . S
O245 C224 1.260 . S
O245 Eu225 2.480 . S
O246 Eu225 2.430 . S
O246 C232 1.266 . S
O247 Eu225 2.670 1_655 S
O247 C232 1.265 1_655 S
O247 Eu235 2.355 . S
O248 Eu225 2.394 . S
O248 C233 1.251 . S
O249 C233 1.251 . S
O249 Eu235 2.374 1_455 S
O250 C234 1.257 . S
O250 Eu235 2.473 1_554 S
O251 C234 1.260 1_556 S
O251 Eu235 2.480 . S
O252 Eu235 2.430 . S
O252 C242 1.262 . S
O253 Eu225 2.355 . S
O253 Eu235 2.670 1_455 S
O253 C242 1.268 1_455 S
O254 Eu235 2.394 . S
O254 C243 1.251 . S
O255 Eu225 2.374 1_655 S
O255 C243 1.251 . S
H256 C227 0.931 . S
H257 C228 0.931 . S
H258 C230 0.931 . S
H259 C231 0.931 . S
H260 C237 0.931 . S
H261 C238 0.931 . S
H262 C240 0.931 . S
H263 C241 0.931 . S
H264 C270 0.930 . S
H265 C273 0.930 . S
H266 C274 0.930 . S
H267 C275 0.930 . S
H268 C278 0.930 . S
H269 C279 0.930 . S
C270 H264 0.930 . S
C270 C271 1.355 1_565 S
C270 C272 1.415 . S
C271 C270 1.355 1_545 S
C271 C273 1.419 . S
C272 C270 1.415 . S
C272 C277 1.425 1_565 S
C272 C279 1.409 . S
C273 H265 0.930 . S
C273 C271 1.419 . S
C273 C274 1.362 . S
C274 H266 0.930 . S
C274 C273 1.362 . S
C274 C277 1.409 . S
C275 H267 0.930 . S
C275 C276 1.355 1_545 S
C275 C277 1.415 . S
C276 C275 1.355 1_565 S
C276 C278 1.419 . S
C277 C272 1.425 1_545 S
C277 C274 1.409 . S
C277 C275 1.415 . S
C278 H268 0.930 . S
C278 C276 1.419 . S
C278 C279 1.362 . S
C279 H269 0.930 . S
C279 C272 1.409 . S
C279 C278 1.362 . S
H280 C286 0.930 . S
H281 C289 0.930 . S
H282 C290 0.930 . S
H283 C291 0.930 . S
H284 C294 0.930 . S
H285 C295 0.930 . S
C286 H280 0.930 . S
C286 C287 1.355 . S
C286 C288 1.415 . S
C287 C286 1.355 . S
C287 C289 1.419 . S
C288 C286 1.415 . S
C288 C293 1.425 . S
C288 C295 1.409 . S
C289 H281 0.930 . S
C289 C287 1.419 . S
C289 C290 1.362 . S
C290 H282 0.930 . S
C290 C289 1.362 . S
C290 C293 1.409 . S
C291 H283 0.930 . S
C291 C292 1.355 . S
C291 C293 1.415 . S
C292 C291 1.355 . S
C292 C294 1.419 . S
C293 C288 1.425 . S
C293 C290 1.409 . S
C293 C291 1.415 . S
C294 H284 0.930 . S
C294 C292 1.419 . S
C294 C295 1.362 . S
C295 H285 0.930 . S
C295 C288 1.409 . S
C295 C294 1.362 . S
H296 C302 0.930 . S
H297 C305 0.930 . S
H298 C306 0.930 . S
H299 C307 0.930 . S
H300 C310 0.930 . S
H301 C311 0.930 . S
C302 H296 0.930 . S
C302 C303 1.355 . S
C302 C304 1.415 . S
C303 C302 1.355 . S
C303 C305 1.419 . S
C304 C302 1.415 . S
C304 C309 1.425 . S
C304 C311 1.409 . S
C305 H297 0.930 . S
C305 C303 1.419 . S
C305 C306 1.362 . S
C306 H298 0.930 . S
C306 C305 1.362 . S
C306 C309 1.409 . S
C307 H299 0.930 . S
C307 C308 1.355 . S
C307 C309 1.415 . S
C308 C307 1.355 . S
C308 C310 1.419 . S
C309 C304 1.425 . S
C309 C306 1.409 . S
C309 C307 1.415 . S
C310 H300 0.930 . S
C310 C308 1.419 . S
C310 C311 1.362 . S
C311 H301 0.930 . S
C311 C304 1.409 . S
C311 C310 1.362 . S
H312 C318 0.930 . S
H313 C321 0.930 . S
H314 C322 0.930 . S
H315 C323 0.930 . S
H316 C326 0.930 . S
H317 C327 0.930 . S
C318 H312 0.930 . S
C318 C319 1.354 1_455 S
C318 C320 1.415 . S
C319 C318 1.354 1_655 S
C319 C321 1.420 . S
C320 C318 1.415 . S
C320 C325 1.425 1_455 S
C320 C327 1.409 . S
C321 H313 0.930 . S
C321 C319 1.420 . S
C321 C322 1.362 . S
C322 H314 0.930 . S
C322 C321 1.362 . S
C322 C325 1.409 . S
C323 H315 0.930 . S
C323 C324 1.355 1_655 S
C323 C325 1.415 . S
C324 C323 1.355 1_455 S
C324 C326 1.419 . S
C325 C320 1.425 1_655 S
C325 C322 1.409 . S
C325 C323 1.415 . S
C326 H316 0.930 . S
C326 C324 1.419 . S
C326 C327 1.362 . S
C327 H317 0.930 . S
C327 C320 1.409 . S
C327 C326 1.362 . S
H328 C334 0.930 . S
H329 C337 0.930 . S
H330 C338 0.930 . S
H331 C339 0.930 . S
H332 C342 0.930 . S
H333 C343 0.930 . S
C334 H328 0.930 . S
C334 C335 1.355 . S
C334 C336 1.415 . S
C335 C334 1.355 . S
C335 C337 1.419 1_565 S
C336 C334 1.415 . S
C336 C341 1.425 1_565 S
C336 C343 1.409 . S
C337 H329 0.930 . S
C337 C335 1.419 1_545 S
C337 C338 1.362 . S
C338 H330 0.930 . S
C338 C337 1.362 . S
C338 C341 1.409 . S
C339 H331 0.930 . S
C339 C340 1.361 . S
C339 C341 1.415 . S
C340 C339 1.361 . S
C340 C342 1.413 1_544 S
C341 C336 1.425 1_545 S
C341 C338 1.409 . S
C341 C339 1.415 . S
C342 H332 0.930 . S
C342 C340 1.413 1_566 S
C342 C343 1.362 1_556 S
C343 H333 0.930 . S
C343 C336 1.409 . S
C343 C342 1.362 1_554 S
H344 C350 0.930 . S
H345 C353 0.930 . S
H346 C354 0.930 . S
H347 C355 0.930 . S
H348 C358 0.930 1_556 S
H349 C359 0.930 . S
C350 H344 0.930 . S
C350 C351 1.355 . S
C350 C352 1.415 . S
C351 C350 1.355 . S
C351 C353 1.419 . S
C352 C350 1.415 . S
C352 C357 1.425 . S
C352 C359 1.409 . S
C353 H345 0.930 . S
C353 C351 1.419 . S
C353 C354 1.362 . S
C354 H346 0.930 . S
C354 C353 1.362 . S
C354 C357 1.409 . S
C355 H347 0.930 . S
C355 C356 1.355 . S
C355 C357 1.415 . S
C356 C355 1.355 . S
C356 C358 1.419 . S
C357 C352 1.425 . S
C357 C354 1.409 . S
C357 C355 1.415 . S
C358 H348 0.930 1_554 S
C358 C356 1.419 . S
C358 C359 1.362 . S
C359 H349 0.930 . S
C359 C352 1.409 . S
C359 C358 1.362 . S
H360 C366 0.930 . S
H361 C369 0.930 . S
H362 C370 0.930 . S
H363 C371 0.930 1_556 S
H364 C374 0.930 . S
H365 C375 0.930 . S
C366 H360 0.930 . S
C366 C367 1.355 . S
C366 C368 1.415 . S
C367 C366 1.355 . S
C367 C369 1.419 . S
C368 C366 1.415 . S
C368 C373 1.425 . S
C368 C375 1.409 . S
C369 H361 0.930 . S
C369 C367 1.419 . S
C369 C370 1.362 . S
C370 H362 0.930 . S
C370 C369 1.362 . S
C370 C373 1.409 . S
C371 H363 0.930 1_554 S
C371 C372 1.355 . S
C371 C373 1.415 . S
C372 C371 1.355 . S
C372 C374 1.419 . S
C373 C368 1.425 . S
C373 C370 1.409 . S
C373 C371 1.415 . S
C374 H364 0.930 . S
C374 C372 1.419 . S
C374 C375 1.362 . S
C375 H365 0.930 . S
C375 C368 1.409 . S
C375 C374 1.362 . S
H376 C382 0.930 . S
H377 C385 0.930 . S
H378 C386 0.930 . S
H379 C387 0.930 . S
H380 C390 0.930 . S
H381 C391 0.930 . S
C382 H376 0.930 . S
C382 C383 1.355 1_455 S
C382 C384 1.415 . S
C383 C382 1.355 1_655 S
C383 C385 1.419 . S
C384 C382 1.415 . S
C384 C389 1.425 1_455 S
C384 C391 1.409 . S
C385 H377 0.930 . S
C385 C383 1.419 . S
C385 C386 1.362 . S
C386 H378 0.930 . S
C386 C385 1.362 . S
C386 C389 1.409 . S
C387 H379 0.930 . S
C387 C388 1.355 1_655 S
C387 C389 1.415 . S
C388 C387 1.355 1_455 S
C388 C390 1.419 . S
C389 C384 1.425 1_655 S
C389 C386 1.409 . S
C389 C387 1.415 . S
C390 H380 0.930 . S
C390 C388 1.419 . S
C390 C391 1.362 . S
C391 H381 0.930 . S
C391 C384 1.409 . S
C391 C390 1.362 . S
H392 C398 0.930 . S
H393 C401 0.930 . S
H394 C402 0.930 . S
H395 C403 0.930 . S
H396 C406 0.930 . S
H397 C407 0.930 . S
C398 H392 0.930 . S
C398 C399 1.352 1_455 S
C398 C400 1.415 1_455 S
C399 C398 1.352 1_655 S
C399 C401 1.426 . S
C400 C398 1.415 1_655 S
C400 C405 1.425 . S
C400 C407 1.409 1_655 S
C401 H393 0.930 . S
C401 C399 1.426 . S
C401 C402 1.362 . S
C402 H394 0.930 . S
C402 C401 1.362 . S
C402 C405 1.409 . S
C403 H395 0.930 . S
C403 C404 1.355 . S
C403 C405 1.415 . S
C404 C403 1.355 . S
C404 C406 1.419 . S
C405 C400 1.425 . S
C405 C402 1.409 . S
C405 C403 1.415 . S
C406 H396 0.930 . S
C406 C404 1.419 . S
C406 C407 1.362 1_655 S
C407 H397 0.930 . S
C407 C400 1.409 1_455 S
C407 C406 1.362 1_455 S
H408 C414 0.930 . S
H409 C417 0.930 . S
H410 C418 0.930 . S
H411 C419 0.930 . S
H412 C422 0.930 . S
H413 C423 0.930 1_545 S
C414 H408 0.930 . S
C414 C415 1.355 1_545 S
C414 C416 1.415 1_545 S
C415 C414 1.355 1_565 S
C415 C417 1.417 . S
C416 C414 1.415 1_565 S
C416 C421 1.425 . S
C416 C423 1.409 . S
C417 H409 0.930 . S
C417 C415 1.417 . S
C417 C418 1.362 . S
C418 H410 0.930 . S
C418 C417 1.362 . S
C418 C421 1.409 . S
C419 H411 0.930 . S
C419 C420 1.355 . S
C419 C421 1.415 . S
C420 C419 1.355 . S
C420 C422 1.419 . S
C421 C416 1.425 . S
C421 C418 1.409 . S
C421 C419 1.415 . S
C422 H412 0.930 . S
C422 C420 1.419 . S
C422 C423 1.362 . S
C423 H413 0.930 1_565 S
C423 C416 1.409 . S
C423 C422 1.362 . S
H424 C430 0.930 . S
H425 C433 0.930 . S
H426 C434 0.930 . S
H427 C435 0.930 . S
H428 C438 0.930 . S
H429 C439 0.930 . S
C430 H424 0.930 . S
C430 C431 1.355 . S
C430 C432 1.415 . S
C431 C430 1.355 . S
C431 C433 1.419 . S
C432 C430 1.415 . S
C432 C437 1.425 . S
C432 C439 1.409 . S
C433 H425 0.930 . S
C433 C431 1.419 . S
C433 C434 1.362 . S
C434 H426 0.930 . S
C434 C433 1.362 . S
C434 C437 1.409 . S
C435 H427 0.930 . S
C435 C436 1.355 . S
C435 C437 1.415 . S
C436 C435 1.355 . S
C436 C438 1.419 . S
C437 C432 1.425 . S
C437 C434 1.409 . S
C437 C435 1.415 . S
C438 H428 0.930 . S
C438 C436 1.419 . S
C438 C439 1.362 . S
C439 H429 0.930 . S
C439 C432 1.409 . S
C439 C438 1.362 . S
H440 C446 0.930 . S
H441 C449 0.930 . S
H442 C450 0.930 . S
H443 C451 0.930 . S
H444 C454 0.930 . S
H445 C455 0.930 . S
C446 H440 0.930 . S
C446 C447 1.355 . S
C446 C448 1.415 . S
C447 C446 1.355 . S
C447 C449 1.419 . S
C448 C446 1.415 . S
C448 C453 1.425 . S
C448 C455 1.409 . S
C449 H441 0.930 . S
C449 C447 1.419 . S
C449 C450 1.362 . S
C450 H442 0.930 . S
C450 C449 1.362 . S
C450 C453 1.409 . S
C451 H443 0.930 . S
C451 C452 1.355 . S
C451 C453 1.415 . S
C452 C451 1.355 . S
C452 C454 1.419 . S
C453 C448 1.425 . S
C453 C450 1.409 . S
C453 C451 1.415 . S
C454 H444 0.930 . S
C454 C452 1.419 . S
C454 C455 1.362 . S
C455 H445 0.930 . S
C455 C448 1.409 . S
C455 C454 1.362 . S
H456 C462 0.930 . S
H457 C465 0.923 1_655 S
H458 C466 0.930 . S
H459 C467 0.930 . S
H460 C470 0.930 . S
H461 C471 0.930 . S
C462 H456 0.930 . S
C462 C463 1.355 1_455 S
C462 C464 1.415 . S
C463 C462 1.355 1_655 S
C463 C465 1.416 1_655 S
C464 C462 1.415 . S
C464 C469 1.425 . S
C464 C471 1.409 . S
C465 H457 0.923 1_455 S
C465 C463 1.416 1_455 S
C465 C466 1.373 . S
C466 H458 0.930 . S
C466 C465 1.373 . S
C466 C469 1.409 . S
C467 H459 0.930 . S
C467 C468 1.355 . S
C467 C469 1.415 . S
C468 C467 1.355 . S
C468 C470 1.419 . S
C469 C464 1.425 . S
C469 C466 1.409 . S
C469 C467 1.415 . S
C470 H460 0.930 . S
C470 C468 1.419 . S
C470 C471 1.362 . S
C471 H461 0.930 . S
C471 C464 1.409 . S
C471 C470 1.362 . S
H472 C478 0.930 . S
H473 C481 0.930 . S
H474 C482 0.930 . S
H475 C483 0.930 . S
H476 C486 0.930 . S
H477 C487 0.930 . S
C478 H472 0.930 . S
C478 C479 1.355 1_545 S
C478 C480 1.415 . S
C479 C478 1.355 1_565 S
C479 C481 1.419 . S
C480 C478 1.415 . S
C480 C485 1.425 . S
C480 C487 1.409 . S
C481 H473 0.930 . S
C481 C479 1.419 . S
C481 C482 1.362 1_565 S
C482 H474 0.930 . S
C482 C481 1.362 1_545 S
C482 C485 1.409 . S
C483 H475 0.930 . S
C483 C484 1.355 . S
C483 C485 1.415 . S
C484 C483 1.355 . S
C484 C486 1.419 . S
C485 C480 1.425 . S
C485 C482 1.409 . S
C485 C483 1.415 . S
C486 H476 0.930 . S
C486 C484 1.419 . S
C486 C487 1.362 . S
C487 H477 0.930 . S
C487 C480 1.409 . S
C487 C486 1.362 . S
H488 C494 0.930 . S
H489 C497 0.930 . S
H490 C498 0.930 . S
H491 C499 0.930 . S
H492 C502 0.930 . S
H493 C503 0.930 . S
C494 H488 0.930 . S
C494 C495 1.355 . S
C494 C496 1.415 . S
C495 C494 1.355 . S
C495 C497 1.419 . S
C496 C494 1.415 . S
C496 C501 1.425 . S
C496 C503 1.409 . S
C497 H489 0.930 . S
C497 C495 1.419 . S
C497 C498 1.362 . S
C498 H490 0.930 . S
C498 C497 1.362 . S
C498 C501 1.409 . S
C499 H491 0.930 . S
C499 C500 1.355 . S
C499 C501 1.415 . S
C500 C499 1.355 . S
C500 C502 1.419 . S
C501 C496 1.425 . S
C501 C498 1.409 . S
C501 C499 1.415 . S
C502 H492 0.930 . S
C502 C500 1.419 . S
C502 C503 1.362 . S
C503 H493 0.930 . S
C503 C496 1.409 . S
C503 C502 1.362 . S
H504 C510 0.930 . S
H505 C513 0.930 . S
H506 C514 0.930 . S
H507 C515 0.930 . S
H508 C518 0.930 . S
H509 C519 0.930 . S
C510 H504 0.930 . S
C510 C511 1.355 . S
C510 C512 1.415 . S
C511 C510 1.355 . S
C511 C513 1.419 . S
C512 C510 1.415 . S
C512 C517 1.425 . S
C512 C519 1.409 . S
C513 H505 0.930 . S
C513 C511 1.419 . S
C513 C514 1.362 . S
C514 H506 0.930 . S
C514 C513 1.362 . S
C514 C517 1.409 . S
C515 H507 0.930 . S
C515 C516 1.355 . S
C515 C517 1.415 . S
C516 C515 1.355 . S
C516 C518 1.419 . S
C517 C512 1.425 . S
C517 C514 1.409 . S
C517 C515 1.415 . S
C518 H508 0.930 . S
C518 C516 1.419 . S
C518 C519 1.362 . S
C519 H509 0.930 . S
C519 C512 1.409 . S
C519 C518 1.362 . S
H520 C526 0.930 . S
H521 C529 0.930 . S
H522 C530 0.930 . S
H523 C531 0.930 . S
H524 C534 0.930 . S
H525 C535 0.930 . S
C526 H520 0.930 . S
C526 C527 1.352 . S
C526 C528 1.415 . S
C527 C526 1.352 . S
C527 C529 1.422 1_455 S
C528 C526 1.415 . S
C528 C533 1.425 1_455 S
C528 C535 1.409 . S
C529 H521 0.930 . S
C529 C527 1.422 1_655 S
C529 C530 1.362 . S
C530 H522 0.930 . S
C530 C529 1.362 . S
C530 C533 1.409 . S
C531 H523 0.930 . S
C531 C532 1.355 1_655 S
C531 C533 1.415 . S
C532 C531 1.355 1_455 S
C532 C534 1.419 . S
C533 C528 1.425 1_655 S
C533 C530 1.409 . S
C533 C531 1.415 . S
C534 H524 0.930 . S
C534 C532 1.419 . S
C534 C535 1.362 . S
C535 H525 0.930 . S
C535 C528 1.409 . S
C535 C534 1.362 . S
H536 C542 0.930 1_554 S
H537 C545 0.930 . S
H538 C546 0.930 . S
H539 C547 0.930 . S
H540 C550 0.930 1_554 S
H541 C551 0.930 . S
C542 H536 0.930 1_556 S
C542 C543 1.355 1_565 S
C542 C544 1.415 . S
C543 C542 1.355 1_545 S
C543 C545 1.419 . S
C544 C542 1.415 . S
C544 C549 1.425 1_565 S
C544 C551 1.409 1_556 S
C545 H537 0.930 . S
C545 C543 1.419 . S
C545 C546 1.362 . S
C546 H538 0.930 . S
C546 C545 1.362 . S
C546 C549 1.409 . S
C547 H539 0.930 . S
C547 C548 1.355 . S
C547 C549 1.415 . S
C548 C547 1.355 . S
C548 C550 1.419 1_545 S
C549 C544 1.425 1_545 S
C549 C546 1.409 . S
C549 C547 1.415 . S
C550 H540 0.930 1_556 S
C550 C548 1.419 1_565 S
C550 C551 1.362 1_556 S
C551 H541 0.930 . S
C551 C544 1.409 1_554 S
C551 C550 1.362 1_554 S
H552 C558 0.930 . S
H553 C561 0.930 . S
H554 C562 0.930 . S
H555 C563 0.930 . S
H556 C566 0.930 . S
H557 C567 0.930 . S
C558 H552 0.930 . S
C558 C559 1.355 . S
C558 C560 1.415 . S
C559 C558 1.355 . S
C559 C561 1.419 . S
C560 C558 1.415 . S
C560 C565 1.425 . S
C560 C567 1.409 . S
C561 H553 0.930 . S
C561 C559 1.419 . S
C561 C562 1.362 . S
C562 H554 0.930 . S
C562 C561 1.362 . S
C562 C565 1.409 . S
C563 H555 0.930 . S
C563 C564 1.355 . S
C563 C565 1.415 . S
C564 C563 1.355 . S
C564 C566 1.419 . S
C565 C560 1.425 . S
C565 C562 1.409 . S
C565 C563 1.415 . S
C566 H556 0.930 . S
C566 C564 1.419 . S
C566 C567 1.362 . S
C567 H557 0.930 . S
C567 C560 1.409 . S
C567 C566 1.362 . S
H568 C574 0.930 . S
H569 C577 0.930 . S
H570 C578 0.930 . S
H571 C579 0.930 . S
H572 C582 0.930 . S
H573 C583 0.930 . S
C574 H568 0.930 . S
C574 C575 1.355 . S
C574 C576 1.415 . S
C575 C574 1.355 . S
C575 C577 1.419 . S
C576 C574 1.415 . S
C576 C581 1.425 . S
C576 C583 1.409 . S
C577 H569 0.930 . S
C577 C575 1.419 . S
C577 C578 1.362 . S
C578 H570 0.930 . S
C578 C577 1.362 . S
C578 C581 1.409 . S
C579 H571 0.930 . S
C579 C580 1.355 . S
C579 C581 1.415 . S
C580 C579 1.355 . S
C580 C582 1.419 . S
C581 C576 1.425 . S
C581 C578 1.409 . S
C581 C579 1.415 . S
C582 H572 0.930 . S
C582 C580 1.419 . S
C582 C583 1.362 . S
C583 H573 0.930 . S
C583 C576 1.409 . S
C583 C582 1.362 . S
H584 C590 0.930 . S
H585 C593 0.930 . S
H586 C594 0.930 . S
H587 C595 0.930 . S
H588 C598 0.930 . S
H589 C599 0.930 . S
C590 H584 0.930 . S
C590 C591 1.355 . S
C590 C592 1.415 . S
C591 C590 1.355 . S
C591 C593 1.419 1_655 S
C592 C590 1.415 . S
C592 C597 1.425 . S
C592 C599 1.409 . S
C593 H585 0.930 . S
C593 C591 1.419 1_455 S
C593 C594 1.362 . S
C594 H586 0.930 . S
C594 C593 1.362 . S
C594 C597 1.409 1_455 S
C595 H587 0.930 . S
C595 C596 1.355 . S
C595 C597 1.415 . S
C596 C595 1.355 . S
C596 C598 1.419 . S
C597 C592 1.425 . S
C597 C594 1.409 1_655 S
C597 C595 1.415 . S
C598 H588 0.930 . S
C598 C596 1.419 . S
C598 C599 1.362 . S
C599 H589 0.930 . S
C599 C592 1.409 . S
C599 C598 1.362 . S
H600 C606 0.930 . S
H601 C609 0.931 . S
H602 C610 0.930 . S
H603 C611 0.930 . S
H604 C614 0.930 . S
H605 C615 0.930 . S
C606 H600 0.930 . S
C606 C607 1.355 . S
C606 C608 1.415 . S
C607 C606 1.355 . S
C607 C609 1.419 . S
C608 C606 1.415 . S
C608 C613 1.425 . S
C608 C615 1.409 . S
C609 H601 0.931 . S
C609 C607 1.419 . S
C609 C610 1.362 . S
C610 H602 0.930 . S
C610 C609 1.362 . S
C610 C613 1.409 . S
C611 H603 0.930 . S
C611 C612 1.355 . S
C611 C613 1.415 . S
C612 C611 1.355 . S
C612 C614 1.419 . S
C613 C608 1.425 . S
C613 C610 1.409 . S
C613 C611 1.415 . S
C614 H604 0.930 . S
C614 C612 1.419 . S
C614 C615 1.362 . S
C615 H605 0.930 . S
C615 C608 1.409 . S
C615 C614 1.362 . S
H616 C622 0.930 . S
H617 C625 0.930 . S
H618 C626 0.930 . S
H619 C627 0.930 . S
H620 C630 0.930 . S
H621 C631 0.930 . S
C622 H616 0.930 . S
C622 C623 1.355 . S
C622 C624 1.415 . S
C623 C622 1.355 . S
C623 C625 1.419 . S
C624 C622 1.415 . S
C624 C629 1.425 . S
C624 C631 1.409 . S
C625 H617 0.930 . S
C625 C623 1.419 . S
C625 C626 1.362 . S
C626 H618 0.930 . S
C626 C625 1.362 . S
C626 C629 1.409 . S
C627 H619 0.930 . S
C627 C628 1.355 . S
C627 C629 1.415 . S
C628 C627 1.355 . S
C628 C630 1.419 . S
C629 C624 1.425 . S
C629 C626 1.409 . S
C629 C627 1.415 . S
C630 H620 0.930 . S
C630 C628 1.419 . S
C630 C631 1.362 . S
C631 H621 0.930 . S
C631 C624 1.409 . S
C631 C630 1.362 . S
H632 C638 0.930 . S
H633 C641 0.930 . S
H634 C642 0.930 . S
H635 C643 0.930 . S
H636 C646 0.930 . S
H637 C647 0.930 . S
C638 H632 0.930 . S
C638 C639 1.355 . S
C638 C640 1.415 . S
C639 C638 1.355 . S
C639 C641 1.419 . S
C640 C638 1.415 . S
C640 C645 1.425 . S
C640 C647 1.409 . S
C641 H633 0.930 . S
C641 C639 1.419 . S
C641 C642 1.362 . S
C642 H634 0.930 . S
C642 C641 1.362 . S
C642 C645 1.409 . S
C643 H635 0.930 . S
C643 C644 1.355 . S
C643 C645 1.415 . S
C644 C643 1.355 . S
C644 C646 1.419 . S
C645 C640 1.425 . S
C645 C642 1.409 . S
C645 C643 1.415 . S
C646 H636 0.930 . S
C646 C644 1.419 . S
C646 C647 1.362 . S
C647 H637 0.930 . S
C647 C640 1.409 . S
C647 C646 1.362 . S
C271 N80 1.939 1_545 S
C276 C122 2.053 . S
C292 C162 2.068 . S
C287 N93 1.967 . S
C308 C202 2.087 . S
C303 N54 1.951 . S
C324 C242 2.078 1_455 S
C319 N67 1.920 . S
C340 C112 2.052 1_554 S
C335 N28 1.978 . S
C351 N41 1.975 . S
C356 C152 2.069 1_554 S
C367 N2 1.935 . S
C372 C192 2.093 1_554 S
C383 N15 1.943 . S
C388 C232 2.069 1_554 S
C404 C109 0.473 . S
C399 N70 0.458 . S
C420 C149 0.516 . S
C415 N83 0.485 . S
C436 C189 0.662 . S
C431 N96 0.605 . S
C447 N57 0.485 . S
C452 C229 0.521 . S
C463 N18 0.560 . S
C468 C119 0.623 . S
C484 C159 0.638 . S
C479 N31 0.574 . S
C500 C199 0.657 . S
C495 N44 0.611 . S
C511 N5 0.575 . S
C516 C239 0.583 . S
C527 N66 2.290 1_455 S
C532 C113 2.380 . S
C543 N79 2.250 1_545 S
C548 C153 2.308 . S
C564 C193 2.322 . S
C559 N92 2.222 . S
C580 C233 2.365 . S
C575 N53 2.271 . S
C591 N14 2.299 . S
C596 C123 2.383 . S
C612 C163 2.329 . S
C607 N27 2.257 . S
C628 C203 2.295 . S
C623 N40 2.173 . S
C639 N1 2.278 . S
C644 C243 2.353 . S
