# Generated by pormake.
# Topology zzz, (3,6)-cn, num edge types: 1
# Building blocks:
#     Node 0, Type 0, BuildingBlock: QEWDON_clean_linker_0, # of connection points: 3
#     Node 1, Type 0, BuildingBlock: QEWDON_clean_linker_0, # of connection points: 3
#     Node 2, Type 0, BuildingBlock: QEWDON_clean_linker_0, # of connection points: 3
#     Node 3, Type 0, BuildingBlock: QEWDON_clean_linker_0, # of connection points: 3
#     Node 4, Type 0, BuildingBlock: QEWDON_clean_linker_0, # of connection points: 3
#     Node 5, Type 0, BuildingBlock: QEWDON_clean_linker_0, # of connection points: 3
#     Node 6, Type 0, BuildingBlock: QEWDON_clean_linker_0, # of connection points: 3
#     Node 7, Type 0, BuildingBlock: QEWDON_clean_linker_0, # of connection points: 3
#     Node 8, Type 1, BuildingBlock: GEDQOX_clean_sbu_0, # of connection points: 6
#     Node 9, Type 1, BuildingBlock: GEDQOX_clean_sbu_0, # of connection points: 6
#     Node 10, Type 1, BuildingBlock: GEDQOX_clean_sbu_0, # of connection points: 6
#     Node 11, Type 1, BuildingBlock: GEDQOX_clean_sbu_0, # of connection points: 6
#     Edge 12, Type (0, 1), BuildingBlock: ZUJKAS_clean_linker_0, # of connection points: 2
#     Edge 13, Type (0, 1), BuildingBlock: ZUJKAS_clean_linker_0, # of connection points: 2
#     Edge 14, Type (0, 1), BuildingBlock: ZUJKAS_clean_linker_0, # of connection points: 2
#     Edge 15, Type (0, 1), BuildingBlock: ZUJKAS_clean_linker_0, # of connection points: 2
#     Edge 16, Type (0, 1), BuildingBlock: ZUJKAS_clean_linker_0, # of connection points: 2
#     Edge 17, Type (0, 1), BuildingBlock: ZUJKAS_clean_linker_0, # of connection points: 2
#     Edge 18, Type (0, 1), BuildingBlock: ZUJKAS_clean_linker_0, # of connection points: 2
#     Edge 19, Type (0, 1), BuildingBlock: ZUJKAS_clean_linker_0, # of connection points: 2
#     Edge 20, Type (0, 1), BuildingBlock: ZUJKAS_clean_linker_0, # of connection points: 2
#     Edge 21, Type (0, 1), BuildingBlock: ZUJKAS_clean_linker_0, # of connection points: 2
#     Edge 22, Type (0, 1), BuildingBlock: ZUJKAS_clean_linker_0, # of connection points: 2
#     Edge 23, Type (0, 1), BuildingBlock: ZUJKAS_clean_linker_0, # of connection points: 2
#     Edge 24, Type (0, 1), BuildingBlock: ZUJKAS_clean_linker_0, # of connection points: 2
#     Edge 25, Type (0, 1), BuildingBlock: ZUJKAS_clean_linker_0, # of connection points: 2
#     Edge 26, Type (0, 1), BuildingBlock: ZUJKAS_clean_linker_0, # of connection points: 2
#     Edge 27, Type (0, 1), BuildingBlock: ZUJKAS_clean_linker_0, # of connection points: 2
#     Edge 28, Type (0, 1), BuildingBlock: ZUJKAS_clean_linker_0, # of connection points: 2
#     Edge 29, Type (0, 1), BuildingBlock: ZUJKAS_clean_linker_0, # of connection points: 2
#     Edge 30, Type (0, 1), BuildingBlock: ZUJKAS_clean_linker_0, # of connection points: 2
#     Edge 31, Type (0, 1), BuildingBlock: ZUJKAS_clean_linker_0, # of connection points: 2
#     Edge 32, Type (0, 1), BuildingBlock: ZUJKAS_clean_linker_0, # of connection points: 2
#     Edge 33, Type (0, 1), BuildingBlock: ZUJKAS_clean_linker_0, # of connection points: 2
#     Edge 34, Type (0, 1), BuildingBlock: ZUJKAS_clean_linker_0, # of connection points: 2
#     Edge 35, Type (0, 1), BuildingBlock: ZUJKAS_clean_linker_0, # of connection points: 2
# Relax obj value: 0.061
# Max RMSD: 0.143
# Mean RMSD: 0.048
data_MOF--net-zzz--node1-GEDQOX_clean_sbu_0--node2-QEWDON_clean_linker_0--edge1-ZUJKAS_clean_linker_0
_symmetry_space_group_name_H-M    P1
_symmetry_Int_Tables_number       1
_symmetry_cell_setting            triclinic
loop_
_symmetry_equiv_pos_as_xyz
'x, y, z'
_cell_length_a     74.233077
_cell_length_b     73.091924
_cell_length_c     20.657173
_cell_angle_alpha  82.226433
_cell_angle_beta   89.149143
_cell_angle_gamma 97.639462
loop_
_atom_site_label
_atom_site_type_symbol
_atom_site_fract_x
_atom_site_fract_y
_atom_site_fract_z
_atom_type_partial_charge
H0 H 0.78914 0.54293 0.02296 0.0
C1 C 0.79345 0.54081 0.07303 0.0
C2 C 0.80887 0.53201 0.08782 0.0
C3 C 0.78444 0.54813 0.12214 0.0
H4 H 0.8274 0.52415 0.16188 0.0
C5 C 0.81496 0.53016 0.15183 0.0
C6 C 0.80657 0.5379 0.20086 0.0
C7 C 0.79126 0.54688 0.18572 0.0
C8 C 0.76976 0.55961 0.10503 0.0
H9 H 0.78496 0.55337 0.22275 0.0
C10 C 0.75281 0.55184 0.08378 0.0
C11 C 0.73913 0.56322 0.06752 0.0
C12 C 0.7729 0.57872 0.10989 0.0
H13 H 0.78583 0.58494 0.12603 0.0
C14 C 0.7595 0.59002 0.09329 0.0
H15 H 0.7503 0.53706 0.08023 0.0
C16 C 0.74275 0.58238 0.07225 0.0
H17 H 0.73246 0.59143 0.06094 0.0
H18 H 0.76206 0.60476 0.09709 0.0
H19 H 0.02205 0.78204 0.1228 0.0
C20 C 0.02263 0.78717 0.16965 0.0
C21 C 0.03045 0.80563 0.17306 0.0
C22 C 0.01467 0.77575 0.2262 0.0
H23 H 0.03579 0.82704 0.23486 0.0
C24 C 0.0305 0.81254 0.23306 0.0
C25 C 0.02214 0.80183 0.28921 0.0
C26 C 0.01429 0.78339 0.2858 0.0
C27 C 1.00512 0.75657 0.22218 0.0
H28 H 0.00774 0.77512 0.32938 0.0
C29 C 0.01272 0.7437 0.18768 0.0
C30 C 1.00349 0.72542 0.18782 0.0
C31 C 0.98799 0.75103 0.254 0.0
H32 H 0.98154 0.76061 0.27932 0.0
C33 C 0.9788 0.73317 0.25314 0.0
H34 H 0.02591 0.74762 0.16295 0.0
C35 C 0.98651 0.72044 0.22083 0.0
H36 H 0.9791 0.7066 0.22135 0.0
H37 H 0.96563 0.72915 0.27791 0.0
H38 H 0.757 1.00992 0.0389 0.0
C39 C 0.75158 1.00904 0.08841 0.0
C40 C 0.73679 0.01845 0.10068 0.0
C41 C 0.75842 0.99733 0.13924 0.0
H42 H 0.71731 0.02274 0.1735 0.0
C43 C 0.72939 0.01645 0.16458 0.0
C44 C 0.73578 1.00458 0.21547 0.0
C45 C 0.75039 0.9951 0.20251 0.0
C46 C 0.77203 0.98522 0.12494 0.0
H47 H 0.75513 0.98549 0.24111 0.0
C48 C 0.78974 0.99269 0.10086 0.0
C49 C 0.80268 0.98071 0.09126 0.0
C50 C 0.76723 0.9658 0.13724 0.0
H51 H 0.75366 0.9598 0.15538 0.0
C52 C 0.7798 0.95396 0.12599 0.0
H53 H 0.79358 1.00767 0.09221 0.0
C54 C 0.79741 0.96131 0.10341 0.0
H55 H 0.80693 0.95176 0.09533 0.0
H56 H 0.77593 0.939 0.13526 0.0
H57 H 0.52596 0.779 0.27781 0.0
C58 C 0.52615 0.76933 0.32229 0.0
C59 C 0.51805 0.7508 0.32303 0.0
C60 C 0.53504 0.77511 0.37761 0.0
H61 H 0.51404 0.7233 0.37848 0.0
C62 C 0.51937 0.73785 0.37873 0.0
C63 C 0.52831 0.7431 0.4337 0.0
C64 C 0.53557 0.76181 0.434 0.0
C65 C 0.54507 0.79444 0.37445 0.0
H66 H 0.54223 0.76572 0.47733 0.0
C67 C 0.53928 0.8098 0.33477 0.0
C68 C 0.54972 0.8276 0.32811 0.0
C69 C 0.56127 0.79747 0.40854 0.0
H70 H 0.56662 0.78612 0.43775 0.0
C71 C 0.57124 0.81517 0.4039 0.0
H72 H 0.52691 0.80792 0.30795 0.0
C73 C 0.56558 0.83011 0.36396 0.0
H74 H 0.57369 0.84368 0.36099 0.0
H75 H 0.58362 0.81726 0.43059 0.0
H76 H 0.26183 0.54107 0.67726 0.0
C77 C 0.25572 0.53435 0.6377 0.0
C78 C 0.23716 0.52695 0.64227 0.0
C79 C 0.26611 0.5341 0.58022 0.0
H80 H 0.21484 0.51425 0.59105 0.0
C81 C 0.22934 0.51897 0.58942 0.0
C82 C 0.23938 0.5187 0.53175 0.0
C83 C 0.2578 0.52632 0.52738 0.0
C84 C 0.28485 0.54422 0.57121 0.0
H85 H 0.26558 0.52665 0.48231 0.0
C86 C 0.29898 0.53937 0.61238 0.0
C87 C 0.31675 0.54919 0.60153 0.0
C88 C 0.28857 0.55897 0.51975 0.0
H89 H 0.2779 0.56297 0.48774 0.0
C90 C 0.30599 0.56878 0.50926 0.0
H91 H 0.29619 0.52796 0.65206 0.0
C92 C 0.31998 0.56394 0.54955 0.0
H93 H 0.33348 0.57154 0.53902 0.0
H94 H 0.30871 0.5801 0.46934 0.0
H95 H 0.01526 0.27635 0.6065 0.0
C96 C 0.02004 0.27195 0.56202 0.0
C97 C 0.0261 0.25445 0.56482 0.0
C98 C 0.01915 0.28322 0.50127 0.0
H99 H 0.03551 0.23452 0.50938 0.0
C100 C 0.03155 0.24837 0.50719 0.0
C101 C 0.03015 0.25885 0.44625 0.0
C102 C 0.02395 0.27631 0.44323 0.0
C103 C 0.01119 0.30107 0.49782 0.0
H104 H 0.02266 0.28435 0.39586 0.0
C105 C 0.01603 0.31427 0.54131 0.0
C106 C 0.00748 0.33056 0.53854 0.0
C107 C 0.99791 0.3046 0.45161 0.0
H108 H 0.99366 0.29471 0.41839 0.0
C109 C 0.98957 0.32066 0.44867 0.0
H110 H 0.02624 0.31183 0.57722 0.0
C111 C 0.99424 0.33349 0.49175 0.0
H112 H 0.98758 0.3459 0.48802 0.0
H113 H 0.97933 0.32313 0.41295 0.0
H114 H 0.28968 0.02882 0.6847 0.0
C115 C 0.29575 0.03614 0.63878 0.0
C116 C 0.31414 0.04409 0.63542 0.0
C117 C 0.28551 0.03654 0.58193 0.0
H118 H 0.33625 0.05825 0.57109 0.0
C119 C 0.32186 0.053 0.57494 0.0
C120 C 0.31188 0.05352 0.51784 0.0
C121 C 0.29368 0.04517 0.5216 0.0
C122 C 0.26713 0.02577 0.58359 0.0
H123 H 0.28599 0.04497 0.47742 0.0
C124 C 0.25267 0.03 0.62141 0.0
C125 C 0.23531 0.0194 0.62216 0.0
C126 C 0.26414 1.0109 0.54685 0.0
H127 H 0.27511 1.00739 0.51766 0.0
C128 C 0.24708 1.00028 0.54804 0.0
H129 H 0.25491 0.04152 0.64963 0.0
C130 C 0.23276 1.00446 0.58531 0.0
H131 H 0.21953 0.99624 0.58414 0.0
H132 H 0.24491 0.98882 0.5196 0.0
H133 H 0.54504 0.27658 0.43226 0.0
C134 C 0.53973 0.28583 0.39398 0.0
C135 C 0.5363 0.30342 0.40704 0.0
C136 C 0.53659 0.28035 0.33169 0.0
H137 H 0.52826 0.32967 0.36623 0.0
C138 C 0.53009 0.31576 0.3571 0.0
C139 C 0.52726 0.31089 0.29449 0.0
C140 C 0.53038 0.29313 0.28207 0.0
C141 C 0.54012 0.26153 0.3181 0.0
H142 H 0.52775 0.28932 0.2339 0.0
C143 C 0.53719 0.24583 0.3671 0.0
C144 C 0.54037 0.22813 0.35358 0.0
C145 C 0.54654 0.25912 0.2557 0.0
H146 H 0.54953 0.27083 0.21731 0.0
C147 C 0.54951 0.24156 0.24208 0.0
H148 H 0.53208 0.24717 0.41536 0.0
C149 C 0.54638 0.22615 0.29048 0.0
H150 H 0.54904 0.2127 0.27898 0.0
H151 H 0.55442 0.23993 0.19388 0.0
Nd152 Nd 0.01736 0.02401 0.80913 0.0
Nd153 Nd 0.03028 0.03397 0.93697 0.0
C154 C 1.00205 1.00649 0.715 0.0
C155 C 1.00323 0.98853 0.69078 0.0
C156 C 0.01496 0.97633 0.71893 0.0
C157 C 0.01605 0.95937 0.69534 0.0
C158 C 1.00546 0.95426 0.6429 0.0
C159 C 0.99367 0.96656 0.61517 0.0
C160 C 0.99258 0.98349 0.6389 0.0
C161 C 0.05423 0.03537 0.80928 0.0
C162 C 0.02968 0.99144 0.92021 0.0
C163 C 0.04514 0.0513 0.03225 0.0
C164 C 0.04385 0.06919 0.05684 0.0
C165 C 0.05372 0.07374 0.11107 0.0
C166 C 0.05273 0.09071 0.13455 0.0
C167 C 0.0419 0.10362 0.10404 0.0
C168 C 0.03196 0.09891 0.04959 0.0
C169 C 0.03288 0.08186 0.02647 0.0
C170 C 0.99346 0.02245 0.93631 0.0
C171 C 0.0188 0.0667 0.82475 0.0
O172 O 0.99457 1.00552 0.77328 0.0
O173 O 0.01655 0.01892 0.70551 0.0
O174 O 0.04394 0.04021 0.76154 0.0
O175 O 0.04512 0.02455 0.85442 0.0
O176 O 0.01882 0.99564 0.87202 0.0
O177 O 0.03857 1.00466 0.94971 0.0
O178 O 0.05284 0.05241 0.97426 0.0
O179 O 0.03065 0.03885 0.04087 0.0
O180 O 1.00376 0.01746 0.98382 0.0
O181 O 1.00252 0.03347 0.89157 0.0
O182 O 0.02934 0.06229 0.87368 0.0
O183 O 0.00977 0.05363 0.79496 0.0
H184 H 0.02332 0.97993 0.75907 0.0
H185 H 0.0251 0.95021 0.71859 0.0
H186 H 0.9855 0.96329 0.57419 0.0
H187 H 0.98347 0.99271 0.61636 0.0
H188 H 0.06219 0.06412 0.13547 0.0
H189 H 0.06031 0.09358 0.17725 0.0
H190 H 0.02364 0.10849 0.0242 0.0
H191 H 0.02504 0.07858 0.98476 0.0
Nd192 Nd 0.52743 0.01664 0.81615 0.0
Nd193 Nd 0.5228 0.03992 0.92257 0.0
C194 C 0.53186 0.9915 0.73911 0.0
C195 C 0.54823 0.98779 0.70444 0.0
C196 C 0.56522 0.9899 0.73357 0.0
C197 C 0.58098 0.98776 0.69933 0.0
C198 C 0.58014 0.98352 0.63498 0.0
C199 C 0.56306 0.98117 0.60612 0.0
C200 C 0.54724 0.98329 0.64061 0.0
C201 C 0.53439 0.05438 0.77584 0.0
C202 C 0.56339 0.03507 0.88222 0.0
C203 C 0.51205 0.06338 0.9971 0.0
C204 C 0.49399 0.06638 0.02091 0.0
C205 C 0.49045 0.08434 0.02839 0.0
C206 C 0.47345 0.0871 0.05274 0.0
C207 C 0.4597 0.07189 0.07024 0.0
C208 C 0.46325 0.05396 0.06109 0.0
C209 C 0.48016 0.05125 0.03648 0.0
C210 C 0.52827 1.004 0.96701 0.0
C211 C 0.48602 0.02113 0.85797 0.0
O212 O 0.53177 0.988 0.80304 0.0
O213 O 0.52589 1.00725 0.71817 0.0
O214 O 0.5443 0.0425 0.75787 0.0
O215 O 0.52136 0.04622 0.81325 0.0
O216 O 0.5556 0.01988 0.86038 0.0
O217 O 0.55352 0.04745 0.89996 0.0
O218 O 0.51564 0.06795 0.93438 0.0
O219 O 0.5174 0.04753 0.02026 0.0
O220 O 0.53594 0.01846 0.99137 0.0
O221 O 0.518 1.00872 0.92129 0.0
O222 O 0.49296 0.02947 0.90644 0.0
O223 O 0.49638 0.01548 0.81418 0.0
H224 H 0.56639 0.99353 0.78254 0.0
H225 H 0.59391 0.98999 0.72269 0.0
H226 H 0.56192 0.97775 0.55682 0.0
H227 H 0.53428 0.98171 0.61712 0.0
H228 H 0.50088 0.09622 0.01597 0.0
H229 H 0.47112 0.10114 0.05812 0.0
H230 H 0.45319 0.04185 0.07486 0.0
H231 H 0.48252 0.03724 0.03081 0.0
Nd232 Nd 0.5126 0.53143 0.92976 0.0
Nd233 Nd 0.53308 0.5237 0.81159 0.0
C234 C 0.49013 0.54426 0.00738 0.0
C235 C 0.48493 0.56291 0.00976 0.0
C236 C 0.48325 0.57504 0.95193 0.0
C237 C 0.4807 0.59353 0.95453 0.0
C238 C 0.47973 0.6002 0.01499 0.0
C239 C 0.48063 0.58777 0.07285 0.0
C240 C 0.48325 0.5693 0.07018 0.0
C241 C 0.54903 0.53026 0.94698 0.0
C242 C 0.52855 0.5663 0.81402 0.0
C243 C 0.55481 0.51038 0.73293 0.0
C244 C 0.55828 0.49127 0.72615 0.0
C245 C 0.56525 0.47992 0.77777 0.0
C246 C 0.56655 0.46122 0.77299 0.0
C247 C 0.56073 0.45354 0.71694 0.0
C248 C 0.55432 0.46503 0.66466 0.0
C249 C 0.55321 0.48374 0.6691 0.0
C250 C 0.4967 0.52517 0.79406 0.0
C251 C 0.51769 0.4889 0.92833 0.0
O252 O 0.48479 0.53614 0.95695 0.0
O253 O 0.50695 0.54245 0.02187 0.0
O254 O 0.53658 0.52329 0.99173 0.0
O255 O 0.54216 0.53807 0.89682 0.0
O256 O 0.51642 0.55973 0.86193 0.0
O257 O 0.53892 0.55537 0.78984 0.0
O258 O 0.56033 0.51702 0.78609 0.0
O259 O 0.53868 0.51434 0.71653 0.0
O260 O 0.50925 0.53207 0.74968 0.0
O261 O 0.50344 0.51717 0.84419 0.0
O262 O 0.5295 0.49543 0.87942 0.0
O263 O 0.50738 0.49978 0.95298 0.0
H264 H 0.48447 0.57043 0.90459 0.0
H265 H 0.47991 0.60271 0.90919 0.0
H266 H 0.48018 0.59254 0.12019 0.0
H267 H 0.48462 0.56019 0.11527 0.0
H268 H 0.56921 0.48527 0.8226 0.0
H269 H 0.57148 0.45261 0.814 0.0
H270 H 0.54998 0.45948 0.62053 0.0
H271 H 0.54787 0.49219 0.62859 0.0
Nd272 Nd 0.02145 0.53972 0.80522 0.0
Nd273 Nd 0.02738 0.51647 0.93975 0.0
C274 C 0.00845 0.56107 0.70803 0.0
C275 C 0.99083 0.55975 0.676 0.0
C276 C 0.98633 0.57468 0.63214 0.0
C277 C 0.96958 0.57324 0.60152 0.0
C278 C 0.957 0.55685 0.61464 0.0
C279 C 0.96157 0.54204 0.65951 0.0
C280 C 0.97835 0.54344 0.68943 0.0
C281 C 0.02811 0.5038 0.79957 0.0
C282 C 0.98573 0.51776 0.89799 0.0
C283 C 0.03887 0.49023 0.02265 0.0
C284 C 0.05495 0.48998 0.0639 0.0
C285 C 0.06659 0.47652 0.05945 0.0
C286 C 0.08293 0.47729 0.09256 0.0
C287 C 0.08787 0.49147 0.13119 0.0
C288 C 0.07602 0.50471 0.13664 0.0
C289 C 0.05978 0.50405 0.10305 0.0
C290 C 0.02813 0.55338 0.95907 0.0
C291 C 0.06236 0.54135 0.85316 0.0
O292 O 0.00808 0.56437 0.76868 0.0
O293 O 0.01845 0.54812 0.69922 0.0
O294 O 0.03487 0.51806 0.75782 0.0
O295 O 0.01796 0.50876 0.84198 0.0
O296 O 0.9922 0.52855 0.84384 0.0
O297 O 0.99632 0.51072 0.94298 0.0
O298 O 0.04244 0.49225 0.95956 0.0
O299 O 0.02628 0.50004 0.03846 0.0
O300 O 0.02987 0.53988 0.00529 0.0
O301 O 0.02592 0.54687 0.9057 0.0
O302 O 0.05628 0.52695 0.89727 0.0
O303 O 0.05145 0.55057 0.81526 0.0
H304 H 0.99583 0.58737 0.6211 0.0
H305 H 0.96666 0.58483 0.56662 0.0
H306 H 0.95217 0.52934 0.67176 0.0
H307 H 0.98163 0.53171 0.72279 0.0
H308 H 0.06323 0.46565 0.0291 0.0
H309 H 0.09172 0.46681 0.08786 0.0
H310 H 0.07955 0.51594 0.16537 0.0
H311 H 0.05125 0.51483 0.10656 0.0
H312 H 0.21015 0.9956 0.70104 0.0
H313 H 0.18126 1.00237 0.74458 0.0
H314 H 0.19545 0.06041 0.66776 0.0
H315 H 0.22443 0.05374 0.62352 0.0
H316 H 0.17447 0.04131 0.82217 0.0
H317 H 0.1451 0.02761 0.58361 0.0
H318 H 0.16244 0.01445 0.61796 0.0
H319 H 0.1682 0.03873 0.58803 0.0
C320 C 0.20726 1.00986 0.69435 0.0
C321 C 0.21948 0.02412 0.65835 0.0
C322 C 0.19082 0.01371 0.71955 0.0
C323 C 0.18628 0.03185 0.70923 0.0
C324 C 0.19882 0.04633 0.6765 0.0
H325 H 0.07566 0.05862 0.71671 0.0
H326 H 0.10846 0.06023 0.69739 0.0
C327 C 0.21536 0.04251 0.65144 0.0
C328 C 0.16762 0.0351 0.72598 0.0
H329 H 0.12496 0.03255 0.66594 0.0
C330 C 0.16362 0.03957 0.78805 0.0
C331 C 0.1536 0.03288 0.68112 0.0
C332 C 0.15739 0.02818 0.61375 0.0
C333 C 0.14576 0.04167 0.8067 0.0
C334 C 0.13157 0.03884 0.76246 0.0
C335 C 0.13578 0.03473 0.69992 0.0
C336 C 0.11217 0.03955 0.77981 0.0
C337 C 0.14234 0.04709 0.87324 0.0
C338 C 0.1033 0.02759 0.83319 0.0
C339 C 0.08455 0.0268 0.84468 0.0
C340 C 0.07428 0.0377 0.80229 0.0
C341 C 0.08323 0.05001 0.75003 0.0
C342 C 0.10197 0.05093 0.73896 0.0
H343 H 0.15487 0.0544 0.89191 0.0
H344 H 0.13151 0.05624 0.8721 0.0
H345 H 0.13791 0.03431 0.90823 0.0
H346 H 0.11073 0.01833 0.86449 0.0
H347 H 0.07798 0.0171 0.88513 0.0
H348 H 0.55464 0.22498 0.47515 0.0
H349 H 0.55372 0.19658 0.55434 0.0
H350 H 0.5192 0.16604 0.42798 0.0
H351 H 0.52071 0.19417 0.34785 0.0
H352 H 0.52819 0.17284 0.62492 0.0
H353 H 0.55983 0.13518 0.44826 0.0
H354 H 0.55826 0.15975 0.43148 0.0
H355 H 0.53912 0.14283 0.41886 0.0
C356 C 0.54673 0.21221 0.46473 0.0
C357 C 0.53793 0.21167 0.40512 0.0
C358 C 0.54623 0.196 0.50988 0.0
C359 C 0.5368 0.17901 0.49638 0.0
C360 C 0.52709 0.17879 0.43857 0.0
H361 H 0.50814 0.07738 0.77081 0.0
H362 H 0.50926 0.10832 0.70726 0.0
C363 C 0.52784 0.19488 0.39302 0.0
C364 C 0.53752 0.16145 0.54163 0.0
H365 H 0.54702 0.11686 0.54622 0.0
C366 C 0.53242 0.16063 0.60785 0.0
C367 C 0.54346 0.14561 0.51987 0.0
C368 C 0.55067 0.14592 0.45093 0.0
C369 C 0.53265 0.14429 0.65241 0.0
C370 C 0.53759 0.12813 0.62972 0.0
C371 C 0.54305 0.12913 0.56378 0.0
C372 C 0.53723 0.10997 0.67281 0.0
C373 C 0.52797 0.14471 0.72347 0.0
C374 C 0.55241 0.10031 0.674 0.0
C375 C 0.55161 0.08241 0.70885 0.0
C376 C 0.53566 0.07387 0.74388 0.0
C377 C 0.52066 0.08371 0.74462 0.0
C378 C 0.52135 0.10149 0.70869 0.0
H379 H 0.53066 0.1591 0.7362 0.0
H380 H 0.51327 0.13976 0.73304 0.0
H381 H 0.53585 0.13561 0.75612 0.0
H382 H 0.56483 0.10648 0.64681 0.0
H383 H 0.56339 0.07515 0.70764 0.0
H384 H 0.34349 0.57239 0.65045 0.0
H385 H 0.37188 0.5645 0.69758 0.0
H386 H 0.35373 0.5062 0.69207 0.0
H387 H 0.32543 0.51411 0.64236 0.0
H388 H 0.38167 0.54272 0.80634 0.0
H389 H 0.40044 0.51501 0.58048 0.0
H390 H 0.38132 0.52767 0.58507 0.0
H391 H 0.37958 0.50368 0.62123 0.0
C392 C 0.34547 0.55786 0.65956 0.0
C393 C 0.33232 0.54391 0.64143 0.0
C394 C 0.36168 0.55336 0.68694 0.0
C395 C 0.36516 0.5348 0.69701 0.0
C396 C 0.35153 0.52067 0.68336 0.0
H397 H 0.46803 0.50829 0.87582 0.0
H398 H 0.43547 0.50898 0.85771 0.0
C399 C 0.33526 0.52519 0.65566 0.0
C400 C 0.38354 0.53067 0.71742 0.0
H401 H 0.42174 0.51513 0.66331 0.0
C402 C 0.39038 0.53651 0.77546 0.0
C403 C 0.395 0.52279 0.67661 0.0
C404 C 0.38884 0.51705 0.6121 0.0
C405 C 0.40844 0.53505 0.79307 0.0
C406 C 0.4199 0.52726 0.75203 0.0
C407 C 0.41292 0.52102 0.69487 0.0
C408 C 0.43956 0.52675 0.76448 0.0
C409 C 0.41533 0.54262 0.85386 0.0
C410 C 0.45268 0.5362 0.71774 0.0
C411 C 0.4712 0.53569 0.72774 0.0
C412 C 0.47703 0.52568 0.78468 0.0
C413 C 0.46393 0.5162 0.83162 0.0
C414 C 0.44533 0.51666 0.82147 0.0
H415 H 0.40612 0.55175 0.872 0.0
H416 H 0.41626 0.53085 0.89307 0.0
H417 H 0.4291 0.55069 0.84457 0.0
H418 H 0.44859 0.54406 0.6734 0.0
H419 H 0.48097 0.54317 0.69074 0.0
H420 H 0.98421 0.34464 0.61581 0.0
H421 H 0.9905 0.37213 0.67215 0.0
H422 H 0.04718 0.3774 0.61468 0.0
H423 H 0.04096 0.34965 0.55851 0.0
H424 H 0.02142 0.38216 0.77374 0.0
H425 H 0.02332 0.42701 0.53245 0.0
H426 H 0.01116 0.40364 0.54528 0.0
H427 H 0.03552 0.40713 0.54066 0.0
C428 C 0.9981 0.3514 0.61641 0.0
C429 C 0.0121 0.34496 0.58271 0.0
C430 C 1.00167 0.36711 0.64865 0.0
C431 C 0.01928 0.3769 0.64738 0.0
C432 C 0.03348 0.37005 0.61633 0.0
H433 H 0.05183 0.4913 0.72005 0.0
H434 H 0.05098 0.46005 0.68946 0.0
C435 C 0.02994 0.35414 0.5846 0.0
C436 C 0.02234 0.39507 0.67363 0.0
H437 H 0.02656 0.44208 0.62552 0.0
C438 C 0.02267 0.3953 0.74147 0.0
C439 C 0.02395 0.41218 0.63154 0.0
C440 C 0.02342 0.41268 0.55834 0.0
C441 C 0.02472 0.41221 0.76826 0.0
C442 C 0.02588 0.42941 0.72614 0.0
C443 C 0.02568 0.42905 0.65817 0.0
C444 C 0.0273 0.44796 0.75066 0.0
C445 C 0.02602 0.41143 0.84135 0.0
C446 C 0.01446 0.45178 0.79624 0.0
C447 C 0.01514 0.46968 0.81474 0.0
C448 C 0.02843 0.48427 0.78695 0.0
C449 C 0.04141 0.48038 0.7423 0.0
C450 C 0.04089 0.46248 0.72461 0.0
H451 H 0.03091 0.39836 0.86368 0.0
H452 H 0.03532 0.42347 0.85443 0.0
H453 H 0.01232 0.41171 0.86308 0.0
H454 H 1.00351 0.4411 0.81595 0.0
H455 H 1.00483 0.47228 0.84872 0.0
H456 H 0.83329 0.96901 0.14341 0.0
H457 H 0.86475 0.97865 0.10448 0.0
H458 H 0.84717 0.0184 0.95304 0.0
H459 H 0.81543 1.00879 0.99231 0.0
H460 H 0.87841 0.97583 0.98085 0.0
H461 H 0.88951 0.0493 0.03161 0.0
H462 H 0.87064 0.03274 0.06793 0.0
H463 H 0.87016 0.04296 0.98402 0.0
C464 C 0.8361 0.97987 0.10197 0.0
C465 C 0.82186 0.98804 0.07059 0.0
C466 C 0.8541 0.98539 0.07985 0.0
C467 C 0.85836 0.99927 0.02596 0.0
C468 C 0.84425 1.00785 0.99533 0.0
H469 H 0.969 0.03812 0.85538 0.0
H470 H 0.93563 0.03297 0.86848 0.0
C471 C 0.82613 1.00235 0.01774 0.0
C472 C 0.87752 1.00387 1.00082 0.0
H473 H 0.91416 0.03805 0.98393 0.0
C474 C 0.88618 0.98949 0.98106 0.0
C475 C 0.88761 0.02173 1.00057 0.0
C476 C 0.87912 0.03759 0.02255 0.0
C477 C 0.90474 0.9923 0.96296 0.0
C478 C 0.915 1.00991 0.96534 0.0
C479 C 0.90623 0.02455 0.98229 0.0
C480 C 0.93509 0.01286 0.95578 0.0
C481 C 0.9133 0.97631 0.94229 0.0
C482 C 0.94578 1.00332 1.00062 0.0
C483 C 0.96473 1.00629 0.99346 0.0
C484 C 0.97338 0.01885 0.94128 0.0
C485 C 0.96267 0.02831 0.89595 0.0
C486 C 0.94365 0.02543 0.90345 0.0
H487 H 0.90297 0.9656 0.92598 0.0
H488 H 0.9236 0.9813 0.90206 0.0
H489 H 0.92023 0.96956 0.98446 0.0
H490 H 0.93946 0.99375 0.04182 0.0
H491 H 0.97262 0.99883 0.02921 0.0
H492 H 0.51591 0.83873 0.31034 0.0
H493 H 0.50836 0.86631 0.23967 0.0
H494 H 0.56456 0.88028 0.17434 0.0
H495 H 0.57206 0.85267 0.24301 0.0
H496 H 0.5217 0.90281 0.24735 0.0
H497 H 0.53867 0.88595 0.00272 0.0
H498 H 0.5357 0.86859 0.07445 0.0
H499 H 0.557 0.88358 0.05749 0.0
C500 C 0.52657 0.8475 0.27995 0.0
C501 C 0.5446 0.84355 0.28256 0.0
C502 C 0.52226 0.86329 0.23982 0.0
C503 C 0.53585 0.87524 0.20097 0.0
C504 C 0.55377 0.8711 0.20274 0.0
H505 H 0.54804 0.99222 0.07041 0.0
H506 H 0.54799 0.96037 0.12489 0.0
C507 C 0.55808 0.85541 0.24277 0.0
C508 C 0.53178 0.89281 0.16227 0.0
H509 H 0.53784 0.91846 0.01054 0.0
C510 C 0.52497 0.90612 0.19537 0.0
C511 C 0.53579 0.89707 0.09422 0.0
C512 C 0.54201 0.88295 0.05501 0.0
C513 C 0.52297 0.92388 0.16305 0.0
C514 C 0.52823 0.9286 0.09607 0.0
C515 C 0.53409 0.91496 0.06212 0.0
C516 C 0.52849 0.94783 0.06139 0.0
C517 C 0.51538 0.93751 0.20115 0.0
C518 C 0.51806 0.95132 0.00599 0.0
C519 C 0.51816 0.96957 0.97441 0.0
C520 C 0.52878 0.98458 0.99755 0.0
C521 C 0.53959 0.98096 0.05183 0.0
C522 C 0.53948 0.96278 0.08328 0.0
H523 H 0.50704 0.93023 0.24447 0.0
H524 H 0.52679 0.94675 0.21889 0.0
H525 H 0.50689 0.94635 0.17014 0.0
H526 H 0.50963 0.93997 0.98786 0.0
H527 H 0.50976 0.97194 0.93248 0.0
H528 H 0.71962 0.57684 0.96526 0.0
H529 H 0.68774 0.56703 0.9431 0.0
H530 H 0.68501 0.52241 0.10385 0.0
H531 H 0.71697 0.53226 0.12663 0.0
H532 H 0.66803 0.53044 0.92018 0.0
H533 H 0.64545 0.5558 0.14636 0.0
H534 H 0.66802 0.56287 0.11017 0.0
H535 H 0.66216 0.53998 0.15493 0.0
C536 C 0.71229 0.5648 0.99545 0.0
C537 C 0.72076 0.55541 0.04807 0.0
C538 C 0.6941 0.55918 0.98258 0.0
C539 C 0.68394 0.54416 0.02234 0.0
C540 C 0.69257 0.53416 0.07296 0.0
H541 H 0.56587 0.51265 0.04913 0.0
H542 H 0.59861 0.51401 0.06589 0.0
C543 C 0.71086 0.5397 0.0856 0.0
C544 C 0.6641 0.53983 0.01303 0.0
H545 H 0.62267 0.54337 0.08086 0.0
C546 C 0.65808 0.53314 0.95543 0.0
C547 C 0.65115 0.54336 0.05911 0.0
C548 C 0.6569 0.55101 0.12103 0.0
C549 C 0.63943 0.52986 0.94269 0.0
C550 C 0.62648 0.53389 0.98795 0.0
C551 C 0.63255 0.54028 0.0461 0.0
C552 C 0.60663 0.53215 0.97548 0.0
C553 C 0.63383 0.52187 0.88124 0.0
C554 C 0.60014 0.54192 0.9192 0.0
C555 C 0.58144 0.54105 0.90935 0.0
C556 C 0.56882 0.53062 0.95611 0.0
C557 C 0.57528 0.52083 0.01232 0.0
C558 C 0.59399 0.52159 0.02192 0.0
H559 H 0.64435 0.51403 0.86377 0.0
H560 H 0.62075 0.51243 0.88908 0.0
H561 H 0.63215 0.53343 0.84204 0.0
H562 H 0.60953 0.55058 0.88346 0.0
H563 H 0.57686 0.54883 0.86571 0.0
H564 H 0.0113 0.69204 0.24616 0.0
H565 H 0.01769 0.66541 0.19395 0.0
H566 H 0.01773 0.69852 0.00456 0.0
H567 H 0.01168 0.72545 0.05736 0.0
H568 H 0.99465 0.64856 0.11328 0.0
H569 H 0.06152 0.67154 0.98291 0.0
H570 H 0.05335 0.68366 0.04565 0.0
H571 H 0.04461 0.68678 0.96485 0.0
C572 C 0.0132 0.69379 0.19346 0.0
C573 C 0.01115 0.71088 0.1559 0.0
C574 C 0.01675 0.67851 0.16354 0.0
C575 C 0.01827 0.67982 0.09512 0.0
C576 C 0.01697 0.69714 0.0574 0.0
H577 H 0.02286 0.58431 0.87119 0.0
H578 H 0.02027 0.61597 0.89647 0.0
C579 C 0.01354 0.71257 0.08757 0.0
C580 C 0.01953 0.66255 0.06445 0.0
H581 H 0.0464 0.64187 0.9677 0.0
C582 C 1.00596 0.6472 0.08124 0.0
C583 C 0.03415 0.66068 0.02191 0.0
C584 C 0.04934 0.67646 0.003 0.0
C585 C 1.0068 0.63006 0.0583 0.0
C586 C 0.02171 0.62797 0.01773 0.0
C587 C 0.03497 0.64346 0.99875 0.0
C588 C 0.02438 0.60932 1.00005 0.0
C589 C 0.99178 0.61416 0.07843 0.0
C590 C 0.02787 0.59518 0.04936 0.0
C591 C 0.02935 0.57726 0.0351 0.0
C592 C 0.02739 0.57292 0.97104 0.0
C593 C 0.02435 0.58718 0.92103 0.0
C594 C 0.02292 0.60527 0.93542 0.0
H595 H 0.97924 0.61917 0.0951 0.0
H596 H 0.98844 0.60606 0.03741 0.0
H597 H 0.99634 0.60463 0.11951 0.0
H598 H 0.02925 0.59796 0.09938 0.0
H599 H 0.03181 0.56669 0.0748 0.0
H600 H 0.05286 0.23828 0.62861 0.0
H601 H 0.04864 0.20699 0.69105 0.0
H602 H 0.99054 0.20669 0.6914 0.0
H603 H 0.99475 0.23809 0.62911 0.0
H604 H 0.00811 0.18561 0.81238 0.0
H605 H 0.02431 0.16837 0.56563 0.0
H606 H 0.03999 0.18615 0.59482 0.0
H607 H 0.01714 0.19035 0.57789 0.0
C608 C 0.03926 0.23195 0.64527 0.0
C609 C 0.02413 0.24056 0.62436 0.0
C610 C 0.03685 0.21402 0.68029 0.0
C611 C 0.01927 0.20448 0.69471 0.0
C612 C 1.0042 0.21387 0.68064 0.0
H613 H 0.99697 0.08243 0.73211 0.0
H614 H 0.99456 0.11571 0.70274 0.0
C615 C 1.00662 0.23187 0.64568 0.0
C616 C 0.01672 0.18401 0.71367 0.0
H617 H 0.02175 0.14367 0.65336 0.0
C618 C 0.01098 0.17639 0.77772 0.0
C619 C 0.0201 0.17205 0.66775 0.0
C620 C 0.02559 0.17954 0.59747 0.0
C621 C 0.00922 0.15704 0.79779 0.0
C622 C 0.0135 0.14514 0.75265 0.0
C623 C 0.01853 0.15278 0.68794 0.0
C624 C 0.01407 0.12494 0.77241 0.0
C625 C 1.00281 0.14952 0.8671 0.0
C626 C 0.02603 0.11913 0.82035 0.0
C627 C 0.0275 0.10026 0.83685 0.0
C628 C 0.01708 0.08669 0.80558 0.0
C629 C 1.00516 0.0925 0.75716 0.0
C630 C 1.00372 0.1115 0.74052 0.0
H631 H 0.99476 0.15918 0.88827 0.0
H632 H 0.99439 0.13568 0.86971 0.0
H633 H 0.0148 0.14792 0.89777 0.0
H634 H 0.03454 0.12925 0.84426 0.0
H635 H 0.03699 0.09639 0.87389 0.0
H636 H 0.31526 0.01198 0.72021 0.0
H637 H 0.34028 1.00471 0.79048 0.0
H638 H 0.36679 0.06123 0.74047 0.0
H639 H 0.34127 0.06887 0.67477 0.0
H640 H 0.37179 1.00338 0.74618 0.0
H641 H 0.38135 0.05342 0.92224 0.0
H642 H 0.36075 0.05039 0.87735 0.0
H643 H 0.38026 0.06637 0.84281 0.0
C644 C 0.32597 0.02309 0.72683 0.0
C645 C 0.32637 0.04096 0.69119 0.0
C646 C 0.34041 0.01886 0.76651 0.0
C647 C 0.35554 0.03238 0.77105 0.0
C648 C 0.35522 0.05059 0.7394 0.0
H649 H 0.46694 0.01837 0.747 0.0
H650 H 0.43434 0.01864 0.73451 0.0
C651 C 0.34067 0.0549 0.70088 0.0
C652 C 0.37274 0.02695 0.79934 0.0
H653 H 0.40932 0.04304 0.88376 0.0
C654 C 0.37977 0.01182 0.77764 0.0
C655 C 0.38317 0.03757 0.84156 0.0
C656 C 0.37583 0.05268 0.87281 0.0
C657 C 0.3973 1.00784 0.79322 0.0
C658 C 0.40849 0.0198 0.82912 0.0
C659 C 0.40101 0.03411 0.85474 0.0
C660 C 0.42818 0.01841 0.83759 0.0
C661 C 0.40358 0.99088 0.77052 0.0
C662 C 0.43581 0.01874 0.89931 0.0
C663 C 0.45456 0.01912 0.90617 0.0
C664 C 0.46606 0.01896 0.85156 0.0
C665 C 0.4584 0.01817 0.79012 0.0
C666 C 0.4397 0.01819 0.78306 0.0
H667 H 0.39193 0.97977 0.76818 0.0
H668 H 0.40975 0.99473 0.72046 0.0
H669 H 0.41377 0.98511 0.80335 0.0
H670 H 0.42729 0.01901 0.94213 0.0
H671 H 0.46007 0.01973 0.9542 0.0
H672 H 0.51432 0.32023 0.47955 0.0
H673 H 0.52341 0.33834 0.5672 0.0
H674 H 0.57599 0.31927 0.56815 0.0
H675 H 0.56714 0.30163 0.4779 0.0
H676 H 0.53679 0.334 0.69069 0.0
H677 H 0.58899 0.37474 0.5111 0.0
H678 H 0.5719 0.35719 0.48766 0.0
H679 H 0.5908 0.3505 0.53427 0.0
C680 C 0.5277 0.3196 0.4993 0.0
C681 C 0.54018 0.30991 0.47098 0.0
C682 C 0.53286 0.32987 0.54969 0.0
C683 C 0.55055 0.33056 0.57301 0.0
C684 C 0.56242 0.31927 0.54972 0.0
H685 H 0.58854 0.4327 0.74196 0.0
H686 H 0.58882 0.39998 0.72597 0.0
C687 C 0.55728 0.30905 0.49869 0.0
C688 C 0.5569 0.3451 0.61422 0.0
H689 H 0.58203 0.38816 0.60244 0.0
C690 C 0.54703 0.34564 0.67233 0.0
C691 C 0.57031 0.36029 0.59032 0.0
C692 C 0.58108 0.36083 0.5273 0.0
C693 C 0.54921 0.36152 0.70429 0.0
C694 C 0.56151 0.37722 0.67724 0.0
C695 C 0.57258 0.37605 0.62283 0.0
C696 C 0.56086 0.39587 0.6968 0.0
C697 C 0.53767 0.36175 0.76478 0.0
C698 C 0.54508 0.40431 0.68558 0.0
C699 C 0.54498 0.42292 0.69371 0.0
C700 C 0.56065 0.43345 0.71336 0.0
C701 C 0.57627 0.42483 0.72697 0.0
C702 C 0.57643 0.40619 0.71802 0.0
H703 H 0.53377 0.34744 0.79118 0.0
H704 H 0.5449 0.3706 0.79853 0.0
H705 H 0.52499 0.36751 0.75039 0.0
H706 H 0.53304 0.39673 0.66779 0.0
H707 H 0.53272 0.4292 0.68348 0.0
H708 H 0.21022 0.50162 0.7059 0.0
H709 H 0.18384 0.50879 0.76365 0.0
H710 H 0.20982 0.56524 0.7636 0.0
H711 H 0.23574 0.55848 0.70033 0.0
H712 H 0.17341 0.52004 0.86705 0.0
H713 H 0.167 0.57627 0.66219 0.0
H714 H 0.18404 0.56098 0.66103 0.0
H715 H 0.18712 0.58014 0.70805 0.0
C716 C 0.21045 0.51551 0.71901 0.0
C717 C 0.2248 0.52963 0.69661 0.0
C718 C 0.19534 0.51961 0.75235 0.0
C719 C 0.1944 0.53782 0.76554 0.0
C720 C 0.20983 0.5513 0.75134 0.0
H721 H 0.08737 0.54519 0.94667 0.0
H722 H 0.1205 0.54809 0.93252 0.0
C723 C 0.22484 0.54732 0.71634 0.0
C724 C 0.17664 0.54268 0.78776 0.0
H725 H 0.1436 0.5698 0.74198 0.0
C726 C 0.16693 0.53102 0.83998 0.0
C727 C 0.16804 0.55689 0.75198 0.0
C728 C 0.17698 0.56919 0.69237 0.0
C729 C 0.14867 0.53238 0.85503 0.0
C730 C 0.14008 0.54658 0.81918 0.0
C731 C 0.15013 0.55893 0.76949 0.0
C732 C 0.12028 0.54778 0.82776 0.0
C733 C 0.13856 0.51771 0.90615 0.0
C734 C 0.10913 0.54831 0.77312 0.0
C735 C 0.09029 0.54761 0.78088 0.0
C736 C 0.08222 0.54599 0.84352 0.0
C737 C 0.09335 0.54634 0.89785 0.0
C738 C 0.11225 0.5477 0.88987 0.0
H739 H 0.14552 0.5051 0.91505 0.0
H740 H 0.1379 0.52342 0.9531 0.0
H741 H 0.12449 0.51336 0.89145 0.0
H742 H 0.11491 0.54847 0.72455 0.0
H743 H 0.08194 0.54717 0.73837 0.0
H744 H 0.06343 0.82642 0.14395 0.0
H745 H 0.06788 0.85751 0.07995 0.0
H746 H 0.01336 0.84815 0.01104 0.0
H747 H 0.00889 0.81701 0.07492 0.0
H748 H 0.04418 0.87378 0.91966 0.0
H749 H 0.03336 0.89043 0.17168 0.0
H750 H 0.05048 0.87583 0.1596 0.0
H751 H 0.02699 0.86734 0.15044 0.0
C752 C 0.05279 0.8306 0.11213 0.0
C753 C 0.03581 0.81938 0.11435 0.0
C754 C 0.05529 0.84841 0.07607 0.0
C755 C 0.04084 0.85518 0.04177 0.0
C756 C 0.02467 0.84313 0.03723 0.0
H757 H 0.01037 0.96099 0.87907 0.0
H758 H 0.01482 0.92846 0.90536 0.0
C759 C 0.02218 0.82527 0.07326 0.0
C760 C 0.04125 0.8755 0.02229 0.0
H761 H 0.03707 0.91543 0.08661 0.0
C762 C 0.04274 0.88296 0.95597 0.0
C763 C 0.03938 0.88737 0.06999 0.0
C764 C 0.03735 0.87993 0.14197 0.0
C765 C 0.04242 0.9021 0.93603 0.0
C766 C 0.04008 0.91392 0.98374 0.0
C767 C 0.03891 0.90642 0.0501 0.0
C768 C 0.03788 0.9339 0.96617 0.0
C769 C 0.0448 0.90948 0.86415 0.0
C770 C 0.04891 0.94785 0.99358 0.0
C771 C 0.04619 0.96657 0.97953 0.0
C772 C 0.03235 0.97166 0.93783 0.0
C773 C 0.02125 0.95762 0.911 0.0
C774 C 0.0239 0.93897 0.92539 0.0
H775 H 0.05236 0.90048 0.83766 0.0
H776 H 0.03122 0.90962 0.84249 0.0
H777 H 0.05216 0.9239 0.85609 0.0
H778 H 0.05966 0.94425 0.02581 0.0
H779 H 0.055 0.97703 1.00082 0.0
H780 H 0.72332 0.05173 0.09245 0.0
H781 H 0.69675 0.05926 0.03098 0.0
H782 H 0.69955 0.01237 0.92694 0.0
H783 H 0.72572 1.00437 0.98982 0.0
H784 H 0.68347 0.06417 0.89912 0.0
H785 H 0.65365 0.99782 0.04953 0.0
H786 H 0.67595 1.0095 0.06302 0.0
H787 H 0.67256 0.99591 0.99679 0.0
C788 C 0.71869 0.04344 0.05468 0.0
C789 C 0.72633 0.02721 0.04701 0.0
C790 C 0.70351 0.04778 0.01955 0.0
C791 C 0.6959 0.03605 0.97586 0.0
C792 C 0.70507 0.0214 0.96139 0.0
H793 H 0.58739 0.01415 0.83776 0.0
H794 H 0.61997 0.01651 0.85336 0.0
C795 C 0.72017 0.01695 0.9969 0.0
C796 C 0.67695 0.037 0.95547 0.0
H797 H 0.63415 0.01298 0.97881 0.0
C798 C 0.67267 0.05297 0.91614 0.0
C799 C 0.66284 0.02251 0.97899 0.0
C800 C 0.66637 1.00553 0.02491 0.0
C801 C 0.65463 0.05459 0.89845 0.0
C802 C 0.64063 0.03997 0.92143 0.0
C803 C 0.64495 0.02411 0.96095 0.0
C804 C 0.62131 0.04046 0.90499 0.0
C805 C 0.65069 0.07174 0.8547 0.0
C806 C 0.61121 0.0533 0.92837 0.0
C807 C 0.5924 0.05197 0.91963 0.0
C808 C 0.58343 0.03767 0.88787 0.0
C809 C 0.59376 0.02524 0.86293 0.0
C810 C 0.61245 0.0266 0.87152 0.0
H811 H 0.66327 0.07985 0.83035 0.0
H812 H 0.64102 0.06789 0.81669 0.0
H813 H 0.6443 0.08085 0.88443 0.0
H814 H 0.61774 0.0639 0.95542 0.0
H815 H 0.58485 0.06176 0.93941 0.0
H816 H 0.48619 0.72795 0.31729 0.0
H817 H 0.4772 0.70971 0.22978 0.0
H818 H 0.52179 0.74027 0.10722 0.0
H819 H 0.53144 0.75797 0.19627 0.0
H820 H 0.46861 0.71363 0.10043 0.0
H821 H 0.53587 0.68828 0.13556 0.0
H822 H 0.52734 0.70299 0.18868 0.0
H823 H 0.53648 0.71274 0.10844 0.0
C824 C 0.49389 0.73103 0.27124 0.0
C825 C 0.5098 0.74401 0.26422 0.0
C826 C 0.48866 0.72069 0.22106 0.0
C827 C 0.49915 0.72324 0.16272 0.0
C828 C 0.51379 0.73775 0.15258 0.0
H829 H 0.49965 0.62985 0.93977 0.0
H830 H 0.50269 0.6626 0.95637 0.0
C831 C 0.51917 0.748 0.20323 0.0
C832 C 0.49625 0.70889 0.1182 0.0
H833 H 0.5152 0.67231 0.07274 0.0
C834 C 0.4789 0.70481 0.09316 0.0
C835 C 0.50969 0.69732 0.10899 0.0
C836 C 0.52835 0.70039 0.13712 0.0
C837 C 0.47438 0.68896 0.06197 0.0
C838 C 0.48751 0.6769 0.05613 0.0
C839 C 0.50518 0.68165 0.07718 0.0
C840 C 0.48285 0.65811 0.03665 0.0
C841 C 0.45544 0.68496 0.03736 0.0
C842 C 0.47042 0.64479 0.07547 0.0
C843 C 0.46866 0.62607 0.06617 0.0
C844 C 0.47936 0.62032 0.01804 0.0
C845 C 0.49107 0.63385 0.97684 0.0
C846 C 0.49286 0.65257 0.98632 0.0
H847 H 0.44926 0.69799 0.02526 0.0
H848 H 0.45545 0.67774 0.99338 0.0
H849 H 0.44674 0.67582 0.07618 0.0
H850 H 0.46284 0.64866 0.11553 0.0
H851 H 0.45941 0.61599 0.09826 0.0
H852 H 0.83372 0.55672 0.01552 0.0
H853 H 0.86092 0.54967 0.96219 0.0
H854 H 0.83986 0.49106 0.99408 0.0
H855 H 0.81308 0.49822 0.05187 0.0
H856 H 0.87112 0.49432 0.03661 0.0
H857 H 0.87834 0.53745 0.79647 0.0
H858 H 0.87542 0.55246 0.85624 0.0
H859 H 0.85739 0.53412 0.84455 0.0
C860 C 0.83455 0.54244 0.00837 0.0
C861 C 0.82121 0.52803 0.03645 0.0
C862 C 0.85013 0.53836 0.97768 0.0
C863 C 0.8525 0.51981 0.97291 0.0
C864 C 0.83842 0.50549 0.99678 0.0
H865 H 0.96034 0.512 0.8065 0.0
H866 H 0.92727 0.50875 0.8211 0.0
C867 C 0.823 0.50956 0.02901 0.0
C868 C 0.87063 0.51535 0.95277 0.0
H869 H 0.90697 0.53141 0.84786 0.0
C870 C 0.87876 0.50214 0.99431 0.0
C871 C 0.88069 0.52513 0.89695 0.0
C872 C 0.87235 0.53789 0.84577 0.0
C873 C 0.89686 0.4993 0.98392 0.0
C874 C 0.90753 0.51064 0.93245 0.0
C875 C 0.89907 0.52298 0.88846 0.0
C876 C 0.92755 0.51061 0.92492 0.0
C877 C 0.90423 0.48411 0.02844 0.0
C878 C 0.9389 0.51253 0.97831 0.0
C879 C 0.9578 0.51383 0.97029 0.0
C880 C 0.96578 0.51395 0.90825 0.0
C881 C 0.95452 0.51199 0.85487 0.0
C882 C 0.9356 0.51017 0.86321 0.0
H883 H 0.89328 0.47247 0.04545 0.0
H884 H 0.91521 0.47841 0.00381 0.0
H885 H 0.90968 0.4898 0.07244 0.0
H886 H 0.93322 0.51366 0.02593 0.0
H887 H 0.96621 0.51568 0.01197 0.0
H888 H 1.00513 0.24794 0.35886 0.0
H889 H 0.00756 0.22392 0.28776 0.0
H890 H 0.06399 0.224 0.33428 0.0
H891 H 0.06146 0.24764 0.40621 0.0
H892 H 0.02981 0.21818 0.18076 0.0
H893 H 0.04076 0.171 0.40632 0.0
H894 H 0.03341 0.19348 0.40823 0.0
H895 H 0.057 0.19175 0.39295 0.0
C896 C 0.01822 0.24335 0.35171 0.0
C897 C 0.03314 0.24972 0.38767 0.0
C898 C 0.01956 0.2295 0.3116 0.0
C899 C 0.03583 0.22179 0.30697 0.0
C900 C 0.05118 0.22942 0.33815 0.0
H901 H 0.06932 0.1261 0.15468 0.0
H902 H 0.06743 0.15497 0.20025 0.0
C903 C 0.04981 0.24312 0.37849 0.0
C904 C 0.03638 0.20473 0.27498 0.0
H905 H 0.04417 0.15932 0.30594 0.0
C906 C 0.03289 0.2053 0.20811 0.0
C907 C 0.04019 0.1878 0.31083 0.0
C908 C 0.04287 0.18584 0.38366 0.0
C909 C 0.03366 0.18958 0.17585 0.0
C910 C 0.03784 0.1728 0.21152 0.0
C911 C 0.04112 0.17221 0.27846 0.0
C912 C 0.03898 0.15565 0.18069 0.0
C913 C 0.03041 0.19115 0.10355 0.0
C914 C 0.02357 0.14627 0.15474 0.0
C915 C 0.02453 0.12956 0.12927 0.0
C916 C 0.04093 0.12179 0.12925 0.0
C917 C 0.05637 0.13139 0.15473 0.0
C918 C 0.05536 0.14802 0.18042 0.0
H919 H 0.0314 0.20591 0.08053 0.0
H920 H 0.04032 0.18417 0.07835 0.0
H921 H 0.01656 0.18414 0.09588 0.0
H922 H 0.01067 0.15165 0.15558 0.0
H923 H 0.01227 0.1225 0.11117 0.0
H924 H 0.33492 0.08594 0.48622 0.0
H925 H 0.35687 0.09351 0.39385 0.0
H926 H 0.33332 0.04453 0.31434 0.0
H927 H 0.31143 0.03673 0.40713 0.0
H928 H 0.38017 0.06478 0.38004 0.0
H929 H 0.3454 0.08642 0.15105 0.0
H930 H 0.33676 0.08931 0.23083 0.0
H931 H 0.3343 0.06664 0.20535 0.0
C932 C 0.33408 0.07708 0.44805 0.0
C933 C 0.32158 0.06066 0.45417 0.0
C934 C 0.34658 0.08145 0.39528 0.0
C935 C 0.34668 0.0696 0.34731 0.0
C936 C 0.33328 0.054 0.35039 0.0
H937 H 0.42548 0.05371 0.05415 0.0
H938 H 0.39774 0.05452 0.11842 0.0
C939 C 0.32076 0.04958 0.40339 0.0
C940 C 0.36255 0.07175 0.30135 0.0
H941 H 0.37607 0.08109 0.14017 0.0
C942 C 0.37933 0.06851 0.32761 0.0
C943 C 0.36127 0.07629 0.23309 0.0
C944 C 0.34351 0.07999 0.20302 0.0
C945 C 0.39488 0.06944 0.28743 0.0
C946 C 0.39377 0.07434 0.21904 0.0
C947 C 0.37694 0.07753 0.19262 0.0
C948 C 0.40992 0.0756 0.17457 0.0
C949 C 0.4122 0.06451 0.31863 0.0
C950 C 0.42579 0.08768 0.18305 0.0
C951 C 0.44178 0.08697 0.14746 0.0
C952 C 0.44215 0.07438 0.10175 0.0
C953 C 0.42584 0.06323 0.09013 0.0
C954 C 0.4099 0.06381 0.12633 0.0
H955 H 0.40947 0.05617 0.36772 0.0
H956 H 0.41961 0.05647 0.28769 0.0
H957 H 0.42118 0.07751 0.32484 0.0
H958 H 0.42599 0.0972 0.21898 0.0
H959 H 0.45402 0.09572 0.15807 0.0
H960 H 0.4999 0.33213 0.29876 0.0
H961 H 0.49585 0.36017 0.22433 0.0
H962 H 0.53984 0.35072 0.0997 0.0
H963 H 0.54382 0.32247 0.174 0.0
H964 H 0.52367 0.38968 0.20393 0.0
H965 H 0.50251 0.36711 0.96703 0.0
H966 H 0.5005 0.35128 0.04274 0.0
H967 H 0.52221 0.35798 1.00062 0.0
C968 C 0.50837 0.33576 0.25453 0.0
C969 C 0.52221 0.32517 0.24222 0.0
C970 C 0.50607 0.35179 0.2121 0.0
C971 C 0.51751 0.35755 0.15635 0.0
C972 C 0.53064 0.34639 0.14177 0.0
H973 H 0.53828 0.46281 0.89568 0.0
H974 H 0.5378 0.43072 0.94867 0.0
C975 C 0.53291 0.33025 0.18422 0.0
C976 C 0.51714 0.37634 0.11886 0.0
H977 H 0.51054 0.39967 0.96801 0.0
C978 C 0.52067 0.39184 0.15243 0.0
C979 C 0.51351 0.37916 0.05147 0.0
C980 C 0.50932 0.36302 0.01327 0.0
C981 C 0.52072 0.41006 0.12063 0.0
C982 C 0.51674 0.41291 0.05354 0.0
C983 C 0.51345 0.39745 0.01956 0.0
C984 C 0.51605 0.4319 0.01822 0.0
C985 C 0.52547 0.42613 0.15896 0.0
C986 C 0.50368 0.4431 0.03862 0.0
C987 C 0.50398 0.4615 0.00873 0.0
C988 C 0.51656 0.46903 0.95735 0.0
C989 C 0.52847 0.45753 0.93533 0.0
C990 C 0.52819 0.43914 0.96544 0.0
H991 H 0.53289 0.42195 0.20373 0.0
H992 H 0.53397 0.43797 0.12878 0.0
H993 H 0.51277 0.43104 0.17436 0.0
H994 H 0.49394 0.43768 0.07838 0.0
H995 H 0.49449 0.46986 0.02654 0.0
H996 H 0.24106 0.53648 0.40571 0.0
H997 H 0.21932 0.53039 0.32043 0.0
H998 H 0.19295 0.48181 0.44509 0.0
H999 H 0.215 0.4874 0.52919 0.0
H1000 H 0.19246 0.47684 0.3157 0.0
H1001 H 0.16884 0.54399 0.35139 0.0
H1002 H 0.19219 0.5458 0.32446 0.0
H1003 H 0.18496 0.53357 0.40395 0.0
C1004 C 0.23104 0.52413 0.41395 0.0
C1005 C 0.22955 0.51257 0.47453 0.0
C1006 C 0.21847 0.5208 0.36552 0.0
C1007 C 0.20417 0.50597 0.37721 0.0
C1008 C 0.20373 0.49346 0.43521 0.0
H1009 H 0.09405 0.49786 0.2567 0.0
H1010 H 0.12312 0.501 0.311 0.0
C1011 C 0.21632 0.4967 0.48333 0.0
C1012 C 0.18859 0.50445 0.33301 0.0
H1013 H 0.15285 0.52656 0.27806 0.0
C1014 C 0.18388 0.48777 0.30682 0.0
C1015 C 0.17722 0.51861 0.32256 0.0
C1016 C 0.1809 0.53644 0.35244 0.0
C1017 C 0.16797 0.48473 0.27139 0.0
C1018 C 0.15665 0.49892 0.26091 0.0
C1019 C 0.16158 0.51574 0.28593 0.0
C1020 C 0.13906 0.49631 0.22766 0.0
C1021 C 0.16303 0.46608 0.24801 0.0
C1022 C 0.13832 0.49267 0.16266 0.0
C1023 C 0.12167 0.49077 0.13161 0.0
C1024 C 0.10548 0.49273 0.16476 0.0
C1025 C 0.10629 0.49642 0.22975 0.0
C1026 C 0.12289 0.49817 0.26084 0.0
H1027 H 0.1707 0.45531 0.27335 0.0
H1028 H 0.14825 0.46117 0.25583 0.0
H1029 H 0.16634 0.46748 0.19487 0.0
H1030 H 0.15065 0.49162 0.13554 0.0
H1031 H 0.12151 0.48824 0.08113 0.0
H1032 H 0.04897 0.81931 0.35633 0.0
H1033 H 0.04568 0.84209 0.43086 0.0
H1034 H 0.98732 0.83041 0.42261 0.0
H1035 H 0.99065 0.80723 0.34932 0.0
H1036 H 0.03118 0.87312 0.39417 0.0
H1037 H 0.99241 0.83497 0.61373 0.0
H1038 H 1.00312 0.82318 0.55542 0.0
H1039 H 0.98154 0.8312 0.53876 0.0
C1040 C 0.03544 0.82108 0.37262 0.0
C1041 C 0.02006 0.81133 0.3477 0.0
C1042 C 0.03356 0.83422 0.41477 0.0
C1043 C 0.01625 0.83803 0.43282 0.0
C1044 C 1.00082 0.82752 0.41083 0.0
H1045 H 0.97811 0.92997 0.59988 0.0
H1046 H 0.98086 0.9017 0.55107 0.0
C1047 C 1.00272 0.81421 0.36901 0.0
C1048 C 0.01453 0.8544 0.46769 0.0
H1049 H 0.99485 0.86822 0.60069 0.0
C1050 C 0.02337 0.87196 0.4397 0.0
C1051 C 1.00419 0.85304 0.52678 0.0
C1052 C 0.99491 0.83456 0.56082 0.0
C1053 C 0.02202 0.88813 0.4684 0.0
C1054 C 0.01172 0.88678 0.52748 0.0
C1055 C 1.00278 0.86926 0.5555 0.0
C1056 C 0.01 0.90349 0.56025 0.0
C1057 C 0.03128 0.90662 0.43422 0.0
C1058 C 0.0254 0.91379 0.58283 0.0
C1059 C 0.02391 0.93005 0.61039 0.0
C1060 C 1.00693 0.93641 0.61629 0.0
C1061 C 0.99145 0.92575 0.59516 0.0
C1062 C 0.99296 0.90946 0.5677 0.0
H1063 H 0.03473 0.90598 0.38213 0.0
H1064 H 0.02253 0.91774 0.43647 0.0
H1065 H 0.04411 0.9106 0.45885 0.0
H1066 H 0.03866 0.90934 0.57855 0.0
H1067 H 0.03616 0.93788 0.62562 0.0
H1068 H 0.72285 0.02896 0.28772 0.0
H1069 H 0.69917 0.02157 0.3741 0.0
H1070 H 0.70038 0.96286 0.37089 0.0
H1071 H 0.72374 0.97021 0.28291 0.0
H1072 H 0.66666 0.97225 0.35322 0.0
H1073 H 0.69551 1.0022 0.56708 0.0
H1074 H 0.69849 0.01885 0.49425 0.0
H1075 H 0.70955 0.99823 0.49956 0.0
C1076 C 0.71841 0.01448 0.30667 0.0
C1077 C 0.72512 1.00017 0.27838 0.0
C1078 C 0.70496 1.01026 0.35641 0.0
C1079 C 0.69806 0.99165 0.37936 0.0
C1080 C 0.70556 0.97732 0.35413 0.0
H1081 H 0.60973 0.96719 0.67859 0.0
H1082 H 0.63845 0.96707 0.61891 0.0
C1083 C 0.71904 0.98154 0.30425 0.0
C1084 C 0.68148 0.98734 0.42279 0.0
H1085 H 0.66273 0.9973 0.56369 0.0
C1086 C 0.66589 0.97746 0.39978 0.0
C1087 C 0.68048 0.99399 0.48377 0.0
C1088 C 0.69697 1.00374 0.51293 0.0
C1089 C 0.64916 0.9748 0.43459 0.0
C1090 C 0.64789 0.98251 0.49343 0.0
C1091 C 0.66366 0.99161 0.51808 0.0
C1092 C 0.63023 0.98191 0.52878 0.0
C1093 C 0.63296 0.96386 0.40772 0.0
C1094 C 0.6161 0.99035 0.49799 0.0
C1095 C 0.59969 0.99048 0.53194 0.0
C1096 C 0.59714 0.98231 0.59764 0.0
C1097 C 0.6113 0.97376 0.62823 0.0
C1098 C 0.6277 0.97362 0.59417 0.0
H1099 H 0.63723 0.95432 0.37464 0.0
H1100 H 0.62401 0.95553 0.44765 0.0
H1101 H 0.62493 0.97368 0.37902 0.0
H1102 H 0.6179 0.99722 0.44803 0.0
H1103 H 0.58923 0.9975 0.5073 0.0
H1104 H 0.51683 0.73874 0.56262 0.0
H1105 H 0.51879 0.71149 0.64568 0.0
H1106 H 0.54831 0.68689 0.50616 0.0
H1107 H 0.54635 0.71384 0.42393 0.0
H1108 H 0.50428 0.67429 0.6293 0.0
H1109 H 0.57811 0.67972 0.67149 0.0
H1110 H 0.56735 0.69933 0.6361 0.0
H1111 H 0.57305 0.6824 0.58631 0.0
C1112 C 0.52407 0.72766 0.55056 0.0
C1113 C 0.53148 0.72832 0.48719 0.0
C1114 C 0.52513 0.71212 0.59772 0.0
C1115 C 0.5339 0.69726 0.58231 0.0
C1116 C 0.5418 0.69831 0.5196 0.0
H1117 H 0.54669 0.5838 0.70141 0.0
H1118 H 0.54784 0.61643 0.65328 0.0
C1119 C 0.54059 0.71366 0.47258 0.0
C1120 C 0.53348 0.67982 0.62878 0.0
H1121 H 0.56091 0.6493 0.69935 0.0
C1122 C 0.51662 0.66894 0.64585 0.0
C1123 C 0.54961 0.67287 0.64997 0.0
C1124 C 0.56805 0.68427 0.63557 0.0
C1125 C 0.5155 0.65084 0.68024 0.0
C1126 C 0.53169 0.64358 0.69916 0.0
C1127 C 0.54851 0.6548 0.6845 0.0
C1128 C 0.53154 0.62401 0.73063 0.0
C1129 C 0.49704 0.6393 0.69282 0.0
C1130 C 0.52231 0.61749 0.79082 0.0
C1131 C 0.52154 0.59881 0.81825 0.0
C1132 C 0.53014 0.5863 0.78639 0.0
C1133 C 0.53988 0.59302 0.7272 0.0
C1134 C 0.54056 0.61169 0.69963 0.0
H1135 H 0.4865 0.6453 0.66225 0.0
H1136 H 0.49747 0.6248 0.68299 0.0
H1137 H 0.49282 0.63877 0.74487 0.0
H1138 H 0.51563 0.62683 0.81652 0.0
H1139 H 0.5142 0.59419 0.86445 0.0
H1140 H 0.8196 0.5097 0.27856 0.0
H1141 H 0.84201 0.51301 0.36331 0.0
H1142 H 0.83787 0.57171 0.34778 0.0
H1143 H 0.81549 0.5685 0.26259 0.0
H1144 H 0.87494 0.53806 0.32595 0.0
H1145 H 0.84115 0.55478 0.54871 0.0
H1146 H 0.8288 0.54277 0.48858 0.0
H1147 H 0.83599 0.5674 0.47176 0.0
C1148 C 0.82304 0.52319 0.29471 0.0
C1149 C 0.81587 0.53886 0.26375 0.0
C1150 C 0.83584 0.52507 0.34305 0.0
C1151 C 0.84159 0.5426 0.3618 0.0
C1152 C 0.83342 0.55801 0.33471 0.0
H1153 H 0.9344 0.58344 0.58239 0.0
H1154 H 0.90628 0.58033 0.52179 0.0
C1155 C 0.82059 0.55614 0.28616 0.0
C1156 C 0.85796 0.54517 0.40158 0.0
H1157 H 0.87331 0.55702 0.54742 0.0
C1158 C 0.87457 0.54211 0.37454 0.0
C1159 C 0.85747 0.55076 0.46435 0.0
C1160 C 0.83991 0.55403 0.49557 0.0
C1161 C 0.89074 0.54452 0.40845 0.0
C1162 C 0.89024 0.54965 0.47204 0.0
C1163 C 0.87366 0.55297 0.49885 0.0
C1164 C 0.90681 0.55135 0.51139 0.0
C1165 C 0.90828 0.5419 0.37513 0.0
C1166 C 0.91627 0.53602 0.52663 0.0
C1167 C 0.93245 0.53781 0.56024 0.0
C1168 C 0.93944 0.55493 0.58036 0.0
C1169 C 0.92962 0.57014 0.56668 0.0
C1170 C 0.91345 0.56835 0.53261 0.0
H1171 H 0.90722 0.54349 0.32111 0.0
H1172 H 0.91977 0.55206 0.38744 0.0
H1173 H 0.91147 0.52764 0.39163 0.0
H1174 H 0.91123 0.52267 0.5118 0.0
H1175 H 0.93967 0.52583 0.5692 0.0
loop_
_geom_bond_atom_site_label_1
_geom_bond_atom_site_label_2
_geom_bond_distance
_geom_bond_site_symmetry_2
_ccdc_geom_bond_type
H0 C1 0.949 . S
C1 H0 0.949 . S
C1 C2 1.395 . S
C1 C3 1.391 1_556 S
C2 C1 1.395 . S
C2 C5 1.390 1_556 S
C3 C1 1.391 1_554 S
C3 C7 1.387 . S
C3 C8 1.491 . S
H4 C5 0.950 . S
C5 C2 1.390 1_554 S
C5 H4 0.950 . S
C5 C6 1.378 . S
C6 C5 1.378 . S
C6 C7 1.409 . S
C7 C3 1.387 . S
C7 C6 1.409 . S
C7 H9 0.951 . S
C8 C3 1.491 . S
C8 C10 1.382 1_554 S
C8 C12 1.404 . S
H9 C7 0.951 . S
C10 C8 1.382 1_556 S
C10 C11 1.390 . S
C10 H15 0.949 . S
C11 C10 1.390 . S
C11 C16 1.399 1_556 S
C12 C8 1.404 . S
C12 H13 0.950 . S
C12 C14 1.375 . S
H13 C12 0.950 . S
C14 C12 1.375 . S
C14 C16 1.382 . S
C14 H18 0.950 . S
H15 C10 0.949 . S
C16 C11 1.399 1_554 S
C16 C14 1.382 . S
C16 H17 0.951 1_554 S
H17 C16 0.951 1_556 S
H18 C14 0.950 . S
H19 C20 0.949 . S
C20 H19 0.949 . S
C20 C21 1.395 . S
C20 C22 1.391 . S
C21 C20 1.395 . S
C21 C24 1.390 . S
C22 C20 1.391 . S
C22 C26 1.387 . S
C22 C27 1.491 . S
H23 C24 0.950 . S
C24 C21 1.390 . S
C24 H23 0.950 . S
C24 C25 1.378 . S
C25 C24 1.378 . S
C25 C26 1.409 . S
C26 C22 1.387 . S
C26 C25 1.409 . S
C26 H28 0.951 . S
C27 C22 1.491 . S
C27 C29 1.382 . S
C27 C31 1.404 . S
H28 C26 0.951 . S
C29 C27 1.382 . S
C29 C30 1.390 . S
C29 H34 0.949 . S
C30 C29 1.390 . S
C30 C35 1.399 . S
C31 C27 1.404 . S
C31 H32 0.950 . S
C31 C33 1.375 . S
H32 C31 0.950 . S
C33 C31 1.375 . S
C33 C35 1.382 . S
C33 H37 0.950 . S
H34 C29 0.949 . S
C35 C30 1.399 . S
C35 C33 1.382 . S
C35 H36 0.952 . S
H36 C35 0.952 . S
H37 C33 0.950 . S
H38 C39 0.949 1_556 S
C39 H38 0.949 1_554 S
C39 C40 1.395 . S
C39 C41 1.391 . S
C40 C39 1.395 . S
C40 C43 1.390 . S
C41 C39 1.391 . S
C41 C45 1.387 . S
C41 C46 1.491 . S
H42 C43 0.950 . S
C43 C40 1.390 . S
C43 H42 0.950 . S
C43 C44 1.378 . S
C44 C43 1.378 . S
C44 C45 1.409 . S
C45 C41 1.387 . S
C45 C44 1.409 . S
C45 H47 0.951 . S
C46 C41 1.491 . S
C46 C48 1.382 . S
C46 C50 1.404 . S
H47 C45 0.951 . S
C48 C46 1.382 . S
C48 C49 1.390 . S
C48 H53 0.949 1_554 S
C49 C48 1.390 . S
C49 C54 1.399 . S
C50 C46 1.404 . S
C50 H51 0.950 . S
C50 C52 1.375 . S
H51 C50 0.950 . S
C52 C50 1.375 . S
C52 C54 1.382 . S
C52 H56 0.950 . S
H53 C48 0.949 1_556 S
C54 C49 1.399 . S
C54 C52 1.382 . S
C54 H55 0.952 . S
H55 C54 0.952 . S
H56 C52 0.950 . S
H57 C58 0.949 . S
C58 H57 0.949 . S
C58 C59 1.395 . S
C58 C60 1.391 . S
C59 C58 1.395 . S
C59 C62 1.390 . S
C60 C58 1.391 . S
C60 C64 1.387 . S
C60 C65 1.491 . S
H61 C62 0.950 . S
C62 C59 1.390 . S
C62 H61 0.950 . S
C62 C63 1.378 . S
C63 C62 1.378 . S
C63 C64 1.409 . S
C64 C60 1.387 . S
C64 C63 1.409 . S
C64 H66 0.951 . S
C65 C60 1.491 . S
C65 C67 1.382 . S
C65 C69 1.404 . S
H66 C64 0.951 . S
C67 C65 1.382 . S
C67 C68 1.390 . S
C67 H72 0.949 . S
C68 C67 1.390 . S
C68 C73 1.399 . S
C69 C65 1.404 . S
C69 H70 0.950 . S
C69 C71 1.375 . S
H70 C69 0.950 . S
C71 C69 1.375 . S
C71 C73 1.382 . S
C71 H75 0.950 . S
H72 C67 0.949 . S
C73 C68 1.399 . S
C73 C71 1.382 . S
C73 H74 0.952 . S
H74 C73 0.952 . S
H75 C71 0.950 . S
H76 C77 0.949 . S
C77 H76 0.949 . S
C77 C78 1.395 . S
C77 C79 1.391 . S
C78 C77 1.395 . S
C78 C81 1.390 . S
C79 C77 1.391 . S
C79 C83 1.387 . S
C79 C84 1.491 . S
H80 C81 0.950 . S
C81 C78 1.390 . S
C81 H80 0.950 . S
C81 C82 1.378 . S
C82 C81 1.378 . S
C82 C83 1.409 . S
C83 C79 1.387 . S
C83 C82 1.409 . S
C83 H85 0.951 . S
C84 C79 1.491 . S
C84 C86 1.382 . S
C84 C88 1.404 . S
H85 C83 0.951 . S
C86 C84 1.382 . S
C86 C87 1.390 . S
C86 H91 0.949 . S
C87 C86 1.390 . S
C87 C92 1.399 . S
C88 C84 1.404 . S
C88 H89 0.950 . S
C88 C90 1.375 . S
H89 C88 0.950 . S
C90 C88 1.375 . S
C90 C92 1.382 . S
C90 H94 0.950 . S
H91 C86 0.949 . S
C92 C87 1.399 . S
C92 C90 1.382 . S
C92 H93 0.952 . S
H93 C92 0.952 . S
H94 C90 0.950 . S
H95 C96 0.949 . S
C96 H95 0.949 . S
C96 C97 1.395 . S
C96 C98 1.391 . S
C97 C96 1.395 . S
C97 C100 1.390 . S
C98 C96 1.391 . S
C98 C102 1.387 . S
C98 C103 1.491 . S
H99 C100 0.950 . S
C100 C97 1.390 . S
C100 H99 0.950 . S
C100 C101 1.378 . S
C101 C100 1.378 . S
C101 C102 1.409 . S
C102 C98 1.387 . S
C102 C101 1.409 . S
C102 H104 0.951 . S
C103 C98 1.491 . S
C103 C105 1.382 . S
C103 C107 1.404 . S
H104 C102 0.951 . S
C105 C103 1.382 . S
C105 C106 1.390 . S
C105 H110 0.949 . S
C106 C105 1.390 . S
C106 C111 1.399 . S
C107 C103 1.404 . S
C107 H108 0.950 . S
C107 C109 1.375 . S
H108 C107 0.950 . S
C109 C107 1.375 . S
C109 C111 1.382 . S
C109 H113 0.950 . S
H110 C105 0.949 . S
C111 C106 1.399 . S
C111 C109 1.382 . S
C111 H112 0.952 . S
H112 C111 0.952 . S
H113 C109 0.950 . S
H114 C115 0.949 . S
C115 H114 0.949 . S
C115 C116 1.395 . S
C115 C117 1.391 . S
C116 C115 1.395 . S
C116 C119 1.390 . S
C117 C115 1.391 . S
C117 C121 1.387 . S
C117 C122 1.491 . S
H118 C119 0.950 . S
C119 C116 1.390 . S
C119 H118 0.950 . S
C119 C120 1.378 . S
C120 C119 1.378 . S
C120 C121 1.409 . S
C121 C117 1.387 . S
C121 C120 1.409 . S
C121 H123 0.951 . S
C122 C117 1.491 . S
C122 C124 1.382 . S
C122 C126 1.404 . S
H123 C121 0.951 . S
C124 C122 1.382 . S
C124 C125 1.390 . S
C124 H129 0.949 . S
C125 C124 1.390 . S
C125 C130 1.399 . S
C126 C122 1.404 . S
C126 H127 0.950 . S
C126 C128 1.375 . S
H127 C126 0.950 . S
C128 C126 1.375 . S
C128 C130 1.382 . S
C128 H132 0.950 . S
H129 C124 0.949 . S
C130 C125 1.399 . S
C130 C128 1.382 . S
C130 H131 0.952 . S
H131 C130 0.952 . S
H132 C128 0.950 . S
H133 C134 0.949 . S
C134 H133 0.949 . S
C134 C135 1.395 . S
C134 C136 1.391 . S
C135 C134 1.395 . S
C135 C138 1.390 . S
C136 C134 1.391 . S
C136 C140 1.387 . S
C136 C141 1.491 . S
H137 C138 0.950 . S
C138 C135 1.390 . S
C138 H137 0.950 . S
C138 C139 1.378 . S
C139 C138 1.378 . S
C139 C140 1.409 . S
C140 C136 1.387 . S
C140 C139 1.409 . S
C140 H142 0.951 . S
C141 C136 1.491 . S
C141 C143 1.382 . S
C141 C145 1.404 . S
H142 C140 0.951 . S
C143 C141 1.382 . S
C143 C144 1.390 . S
C143 H148 0.949 . S
C144 C143 1.390 . S
C144 C149 1.399 . S
C145 C141 1.404 . S
C145 H146 0.950 . S
C145 C147 1.375 . S
H146 C145 0.950 . S
C147 C145 1.375 . S
C147 C149 1.382 . S
C147 H151 0.950 . S
H148 C143 0.949 . S
C149 C144 1.399 . S
C149 C147 1.382 . S
C149 H150 0.952 . S
H150 C149 0.952 . S
H151 C147 0.950 . S
Nd152 C154 2.836 1_545 S
Nd152 O172 2.500 1_445 S
Nd152 O173 2.492 1_545 S
Nd152 O174 2.487 . S
Nd152 O175 2.682 . S
Nd152 O176 2.410 1_545 S
Nd152 O181 2.414 1_455 S
Nd152 O183 2.424 . S
Nd153 C163 2.836 1_556 S
Nd153 O175 2.414 . S
Nd153 O177 2.424 1_545 S
Nd153 O178 2.500 . S
Nd153 O179 2.492 1_556 S
Nd153 O180 2.487 1_455 S
Nd153 O181 2.682 1_455 S
Nd153 O182 2.410 . S
C154 Nd152 2.836 1_565 S
C154 C155 1.498 . S
C154 O172 1.258 1_455 S
C154 O173 1.239 . S
C155 C154 1.498 . S
C155 C156 1.366 1_455 S
C155 C160 1.407 . S
C156 C155 1.366 1_655 S
C156 C157 1.392 . S
C156 H184 0.930 . S
C157 C156 1.392 . S
C157 C158 1.398 1_655 S
C157 H185 0.929 . S
C158 C157 1.398 1_455 S
C158 C159 1.352 . S
C159 C158 1.352 . S
C159 C160 1.384 . S
C159 H186 0.930 . S
C160 C155 1.407 . S
C160 C159 1.384 . S
C160 H187 0.929 . S
C161 O174 1.241 . S
C161 O175 1.273 . S
C162 O176 1.251 . S
C162 O177 1.268 . S
C163 Nd153 2.836 1_554 S
C163 C164 1.498 . S
C163 O178 1.258 1_554 S
C163 O179 1.239 . S
C164 C163 1.498 . S
C164 C165 1.366 . S
C164 C169 1.407 . S
C165 C164 1.366 . S
C165 C166 1.392 . S
C165 H188 0.930 . S
C166 C165 1.392 . S
C166 C167 1.398 . S
C166 H189 0.929 . S
C167 C166 1.398 . S
C167 C168 1.352 . S
C168 C167 1.352 . S
C168 C169 1.384 . S
C168 H190 0.930 . S
C169 C164 1.407 . S
C169 C168 1.384 . S
C169 H191 0.929 . S
C170 O180 1.241 . S
C170 O181 1.273 . S
C171 O182 1.251 . S
C171 O183 1.268 . S
O172 Nd152 2.500 1_665 S
O172 C154 1.258 1_655 S
O173 Nd152 2.492 1_565 S
O173 C154 1.239 . S
O174 Nd152 2.487 . S
O174 C161 1.241 . S
O175 Nd152 2.682 . S
O175 Nd153 2.414 . S
O175 C161 1.273 . S
O176 Nd152 2.410 1_565 S
O176 C162 1.251 . S
O177 Nd153 2.424 1_565 S
O177 C162 1.268 . S
O178 Nd153 2.500 . S
O178 C163 1.258 1_556 S
O179 Nd153 2.492 1_554 S
O179 C163 1.239 . S
O180 Nd153 2.487 1_655 S
O180 C170 1.241 . S
O181 Nd152 2.414 1_655 S
O181 Nd153 2.682 1_655 S
O181 C170 1.273 . S
O182 Nd153 2.410 . S
O182 C171 1.251 . S
O183 Nd152 2.424 . S
O183 C171 1.268 . S
H184 C156 0.930 . S
H185 C157 0.929 . S
H186 C159 0.930 . S
H187 C160 0.929 . S
H188 C165 0.930 . S
H189 C166 0.929 . S
H190 C168 0.930 . S
H191 C169 0.929 . S
Nd192 C194 2.836 1_545 S
Nd192 O212 2.500 1_545 S
Nd192 O213 2.492 . S
Nd192 O214 2.487 . S
Nd192 O215 2.682 . S
Nd192 O216 2.410 . S
Nd192 O221 2.414 1_545 S
Nd192 O223 2.424 . S
Nd193 C203 2.836 1_556 S
Nd193 O215 2.414 . S
Nd193 O217 2.424 . S
Nd193 O218 2.500 . S
Nd193 O219 2.492 1_556 S
Nd193 O220 2.487 1_545 S
Nd193 O221 2.682 1_545 S
Nd193 O222 2.410 . S
C194 Nd192 2.836 1_565 S
C194 C195 1.498 . S
C194 O212 1.258 . S
C194 O213 1.239 1_565 S
C195 C194 1.498 . S
C195 C196 1.366 . S
C195 C200 1.407 1_565 S
C196 C195 1.366 . S
C196 C197 1.392 . S
C196 H224 0.930 . S
C197 C196 1.392 . S
C197 C198 1.398 . S
C197 H225 0.929 . S
C198 C197 1.398 . S
C198 C199 1.352 . S
C199 C198 1.352 . S
C199 C200 1.384 1_565 S
C199 H226 0.930 1_565 S
C200 C195 1.407 1_545 S
C200 C199 1.384 1_545 S
C200 H227 0.929 . S
C201 O214 1.241 . S
C201 O215 1.273 . S
C202 O216 1.251 . S
C202 O217 1.268 . S
C203 Nd193 2.836 1_554 S
C203 C204 1.498 . S
C203 O218 1.258 1_554 S
C203 O219 1.239 . S
C204 C203 1.498 . S
C204 C205 1.366 . S
C204 C209 1.407 . S
C205 C204 1.366 . S
C205 C206 1.392 . S
C205 H228 0.930 1_554 S
C206 C205 1.392 . S
C206 C207 1.398 . S
C206 H229 0.929 . S
C207 C206 1.398 . S
C207 C208 1.352 . S
C208 C207 1.352 . S
C208 C209 1.384 . S
C208 H230 0.930 . S
C209 C204 1.407 . S
C209 C208 1.384 . S
C209 H231 0.929 . S
C210 O220 1.241 . S
C210 O221 1.273 . S
C211 O222 1.251 . S
C211 O223 1.268 . S
O212 Nd192 2.500 1_565 S
O212 C194 1.258 . S
O213 Nd192 2.492 . S
O213 C194 1.239 1_545 S
O214 Nd192 2.487 . S
O214 C201 1.241 . S
O215 Nd192 2.682 . S
O215 Nd193 2.414 . S
O215 C201 1.273 . S
O216 Nd192 2.410 . S
O216 C202 1.251 . S
O217 Nd193 2.424 . S
O217 C202 1.268 . S
O218 Nd193 2.500 . S
O218 C203 1.258 1_556 S
O219 Nd193 2.492 1_554 S
O219 C203 1.239 . S
O220 Nd193 2.487 1_565 S
O220 C210 1.241 . S
O221 Nd192 2.414 1_565 S
O221 Nd193 2.682 1_565 S
O221 C210 1.273 . S
O222 Nd193 2.410 . S
O222 C211 1.251 . S
O223 Nd192 2.424 . S
O223 C211 1.268 . S
H224 C196 0.930 . S
H225 C197 0.929 . S
H226 C199 0.930 1_545 S
H227 C200 0.929 . S
H228 C205 0.930 1_556 S
H229 C206 0.929 . S
H230 C208 0.930 . S
H231 C209 0.929 . S
Nd232 C234 2.836 . S
Nd232 O252 2.500 . S
Nd232 O253 2.492 . S
Nd232 O254 2.487 . S
Nd232 O255 2.682 . S
Nd232 O256 2.410 . S
Nd232 O261 2.414 . S
Nd232 O263 2.424 . S
Nd233 C243 2.836 . S
Nd233 O255 2.414 . S
Nd233 O257 2.424 . S
Nd233 O258 2.500 . S
Nd233 O259 2.492 . S
Nd233 O260 2.487 . S
Nd233 O261 2.682 . S
Nd233 O262 2.410 . S
C234 Nd232 2.836 . S
C234 C235 1.498 1_556 S
C234 O252 1.258 . S
C234 O253 1.239 . S
C235 C234 1.498 1_554 S
C235 C236 1.366 1_554 S
C235 C240 1.407 . S
C236 C235 1.366 1_556 S
C236 C237 1.392 1_556 S
C236 H264 0.930 . S
C237 C236 1.392 1_554 S
C237 C238 1.398 . S
C237 H265 0.929 1_554 S
C238 C237 1.398 . S
C238 C239 1.352 . S
C239 C238 1.352 . S
C239 C240 1.384 . S
C239 H266 0.930 . S
C240 C235 1.407 . S
C240 C239 1.384 . S
C240 H267 0.929 . S
C241 O254 1.241 . S
C241 O255 1.273 . S
C242 O256 1.251 . S
C242 O257 1.268 . S
C243 Nd233 2.836 . S
C243 C244 1.498 . S
C243 O258 1.258 . S
C243 O259 1.239 . S
C244 C243 1.498 . S
C244 C245 1.366 . S
C244 C249 1.407 . S
C245 C244 1.366 . S
C245 C246 1.392 . S
C245 H268 0.930 . S
C246 C245 1.392 . S
C246 C247 1.398 . S
C246 H269 0.929 . S
C247 C246 1.398 . S
C247 C248 1.352 . S
C248 C247 1.352 . S
C248 C249 1.384 . S
C248 H270 0.930 . S
C249 C244 1.407 . S
C249 C248 1.384 . S
C249 H271 0.929 . S
C250 O260 1.241 . S
C250 O261 1.273 . S
C251 O262 1.251 . S
C251 O263 1.268 . S
O252 Nd232 2.500 . S
O252 C234 1.258 . S
O253 Nd232 2.492 . S
O253 C234 1.239 . S
O254 Nd232 2.487 . S
O254 C241 1.241 . S
O255 Nd232 2.682 . S
O255 Nd233 2.414 . S
O255 C241 1.273 . S
O256 Nd232 2.410 . S
O256 C242 1.251 . S
O257 Nd233 2.424 . S
O257 C242 1.268 . S
O258 Nd233 2.500 . S
O258 C243 1.258 . S
O259 Nd233 2.492 . S
O259 C243 1.239 . S
O260 Nd233 2.487 . S
O260 C250 1.241 . S
O261 Nd232 2.414 . S
O261 Nd233 2.682 . S
O261 C250 1.273 . S
O262 Nd233 2.410 . S
O262 C251 1.251 . S
O263 Nd232 2.424 . S
O263 C251 1.268 . S
H264 C236 0.930 . S
H265 C237 0.929 1_556 S
H266 C239 0.930 . S
H267 C240 0.929 . S
H268 C245 0.930 . S
H269 C246 0.929 . S
H270 C248 0.930 . S
H271 C249 0.929 . S
Nd272 C274 2.836 1_455 S
Nd272 O292 2.500 1_455 S
Nd272 O293 2.492 1_455 S
Nd272 O294 2.487 . S
Nd272 O295 2.682 . S
Nd272 O296 2.410 1_455 S
Nd272 O301 2.414 . S
Nd272 O303 2.424 . S
Nd273 C283 2.836 1_556 S
Nd273 O295 2.414 . S
Nd273 O297 2.424 1_455 S
Nd273 O298 2.500 1_556 S
Nd273 O299 2.492 1_556 S
Nd273 O300 2.487 . S
Nd273 O301 2.682 . S
Nd273 O302 2.410 . S
C274 Nd272 2.836 1_655 S
C274 C275 1.498 . S
C274 O292 1.258 . S
C274 O293 1.239 . S
C275 C274 1.498 . S
C275 C276 1.366 . S
C275 C280 1.407 . S
C276 C275 1.366 . S
C276 C277 1.392 . S
C276 H304 0.930 . S
C277 C276 1.392 . S
C277 C278 1.398 . S
C277 H305 0.929 . S
C278 C277 1.398 . S
C278 C279 1.352 . S
C279 C278 1.352 . S
C279 C280 1.384 . S
C279 H306 0.930 . S
C280 C275 1.407 . S
C280 C279 1.384 . S
C280 H307 0.929 . S
C281 O294 1.241 . S
C281 O295 1.273 . S
C282 O296 1.251 . S
C282 O297 1.268 . S
C283 Nd273 2.836 1_554 S
C283 C284 1.498 . S
C283 O298 1.258 . S
C283 O299 1.239 . S
C284 C283 1.498 . S
C284 C285 1.366 . S
C284 C289 1.407 . S
C285 C284 1.366 . S
C285 C286 1.392 . S
C285 H308 0.930 . S
C286 C285 1.392 . S
C286 C287 1.398 . S
C286 H309 0.929 . S
C287 C286 1.398 . S
C287 C288 1.352 . S
C288 C287 1.352 . S
C288 C289 1.384 . S
C288 H310 0.930 . S
C289 C284 1.407 . S
C289 C288 1.384 . S
C289 H311 0.929 . S
C290 O300 1.241 . S
C290 O301 1.273 . S
C291 O302 1.251 . S
C291 O303 1.268 . S
O292 Nd272 2.500 1_655 S
O292 C274 1.258 . S
O293 Nd272 2.492 1_655 S
O293 C274 1.239 . S
O294 Nd272 2.487 . S
O294 C281 1.241 . S
O295 Nd272 2.682 . S
O295 Nd273 2.414 . S
O295 C281 1.273 . S
O296 Nd272 2.410 1_655 S
O296 C282 1.251 . S
O297 Nd273 2.424 1_655 S
O297 C282 1.268 . S
O298 Nd273 2.500 1_554 S
O298 C283 1.258 . S
O299 Nd273 2.492 1_554 S
O299 C283 1.239 . S
O300 Nd273 2.487 . S
O300 C290 1.241 . S
O301 Nd272 2.414 . S
O301 Nd273 2.682 . S
O301 C290 1.273 . S
O302 Nd273 2.410 . S
O302 C291 1.251 . S
O303 Nd272 2.424 . S
O303 C291 1.268 . S
H304 C276 0.930 . S
H305 C277 0.929 . S
H306 C279 0.930 . S
H307 C280 0.929 . S
H308 C285 0.930 . S
H309 C286 0.929 . S
H310 C288 0.930 . S
H311 C289 0.929 . S
H312 C320 0.929 . S
H313 C322 0.930 . S
H314 C324 0.930 . S
H315 C327 0.929 . S
H316 C330 0.930 . S
H317 C332 0.960 . S
H318 C332 0.960 . S
H319 C332 0.960 . S
C320 H312 0.929 . S
C320 C321 1.377 . S
C320 C322 1.384 . S
C321 C320 1.377 . S
C321 C327 1.390 . S
C322 H313 0.930 . S
C322 C320 1.384 . S
C322 C323 1.372 . S
C323 C322 1.372 . S
C323 C324 1.400 . S
C323 C328 1.490 . S
C324 H314 0.930 . S
C324 C323 1.400 . S
C324 C327 1.386 . S
H325 C341 0.930 . S
H326 C342 0.931 . S
C327 H315 0.929 . S
C327 C321 1.390 . S
C327 C324 1.386 . S
C328 C323 1.490 . S
C328 C330 1.395 . S
C328 C331 1.403 . S
H329 C335 0.930 . S
C330 H316 0.930 . S
C330 C328 1.395 . S
C330 C333 1.403 . S
C331 C328 1.403 . S
C331 C332 1.524 . S
C331 C335 1.400 . S
C332 H317 0.960 . S
C332 H318 0.960 . S
C332 H319 0.960 . S
C332 C331 1.524 . S
C333 C330 1.403 . S
C333 C334 1.392 . S
C333 C337 1.495 . S
C334 C333 1.392 . S
C334 C335 1.385 . S
C334 C336 1.478 . S
C335 H329 0.930 . S
C335 C331 1.400 . S
C335 C334 1.385 . S
C336 C334 1.478 . S
C336 C338 1.381 . S
C336 C342 1.383 . S
C337 C333 1.495 . S
C337 H343 0.959 . S
C337 H344 0.961 . S
C337 H345 0.960 . S
C338 C336 1.381 . S
C338 C339 1.394 . S
C338 H346 0.930 . S
C339 C338 1.394 . S
C339 C340 1.383 . S
C339 H347 0.929 . S
C340 C339 1.383 . S
C340 C341 1.377 . S
C341 H325 0.930 . S
C341 C340 1.377 . S
C341 C342 1.379 . S
C342 H326 0.931 . S
C342 C336 1.383 . S
C342 C341 1.379 . S
H343 C337 0.959 . S
H344 C337 0.961 . S
H345 C337 0.960 . S
H346 C338 0.930 . S
H347 C339 0.929 . S
H348 C356 0.929 . S
H349 C358 0.930 . S
H350 C360 0.930 . S
H351 C363 0.929 . S
H352 C366 0.930 . S
H353 C368 0.960 . S
H354 C368 0.960 . S
H355 C368 0.960 . S
C356 H348 0.929 . S
C356 C357 1.377 . S
C356 C358 1.384 . S
C357 C356 1.377 . S
C357 C363 1.390 . S
C358 H349 0.930 . S
C358 C356 1.384 . S
C358 C359 1.372 . S
C359 C358 1.372 . S
C359 C360 1.400 . S
C359 C364 1.490 . S
C360 H350 0.930 . S
C360 C359 1.400 . S
C360 C363 1.386 . S
H361 C377 0.930 . S
H362 C378 0.931 . S
C363 H351 0.929 . S
C363 C357 1.390 . S
C363 C360 1.386 . S
C364 C359 1.490 . S
C364 C366 1.395 . S
C364 C367 1.403 . S
H365 C371 0.930 . S
C366 H352 0.930 . S
C366 C364 1.395 . S
C366 C369 1.403 . S
C367 C364 1.403 . S
C367 C368 1.524 . S
C367 C371 1.400 . S
C368 H353 0.960 . S
C368 H354 0.960 . S
C368 H355 0.960 . S
C368 C367 1.524 . S
C369 C366 1.403 . S
C369 C370 1.392 . S
C369 C373 1.495 . S
C370 C369 1.392 . S
C370 C371 1.385 . S
C370 C372 1.478 . S
C371 H365 0.930 . S
C371 C367 1.400 . S
C371 C370 1.385 . S
C372 C370 1.478 . S
C372 C374 1.381 . S
C372 C378 1.383 . S
C373 C369 1.495 . S
C373 H379 0.959 . S
C373 H380 0.961 . S
C373 H381 0.960 . S
C374 C372 1.381 . S
C374 C375 1.394 . S
C374 H382 0.930 . S
C375 C374 1.394 . S
C375 C376 1.383 . S
C375 H383 0.929 . S
C376 C375 1.383 . S
C376 C377 1.377 . S
C377 H361 0.930 . S
C377 C376 1.377 . S
C377 C378 1.379 . S
C378 H362 0.931 . S
C378 C372 1.383 . S
C378 C377 1.379 . S
H379 C373 0.959 . S
H380 C373 0.961 . S
H381 C373 0.960 . S
H382 C374 0.930 . S
H383 C375 0.929 . S
H384 C392 0.929 . S
H385 C394 0.930 . S
H386 C396 0.930 . S
H387 C399 0.929 . S
H388 C402 0.930 . S
H389 C404 0.960 . S
H390 C404 0.960 . S
H391 C404 0.960 . S
C392 H384 0.929 . S
C392 C393 1.377 . S
C392 C394 1.384 . S
C393 C392 1.377 . S
C393 C399 1.390 . S
C394 H385 0.930 . S
C394 C392 1.384 . S
C394 C395 1.372 . S
C395 C394 1.372 . S
C395 C396 1.400 . S
C395 C400 1.490 . S
C396 H386 0.930 . S
C396 C395 1.400 . S
C396 C399 1.386 . S
H397 C413 0.930 . S
H398 C414 0.931 . S
C399 H387 0.929 . S
C399 C393 1.390 . S
C399 C396 1.386 . S
C400 C395 1.490 . S
C400 C402 1.395 . S
C400 C403 1.403 . S
H401 C407 0.930 . S
C402 H388 0.930 . S
C402 C400 1.395 . S
C402 C405 1.403 . S
C403 C400 1.403 . S
C403 C404 1.524 . S
C403 C407 1.400 . S
C404 H389 0.960 . S
C404 H390 0.960 . S
C404 H391 0.960 . S
C404 C403 1.524 . S
C405 C402 1.403 . S
C405 C406 1.392 . S
C405 C409 1.495 . S
C406 C405 1.392 . S
C406 C407 1.385 . S
C406 C408 1.478 . S
C407 H401 0.930 . S
C407 C403 1.400 . S
C407 C406 1.385 . S
C408 C406 1.478 . S
C408 C410 1.381 . S
C408 C414 1.383 . S
C409 C405 1.495 . S
C409 H415 0.959 . S
C409 H416 0.961 . S
C409 H417 0.960 . S
C410 C408 1.381 . S
C410 C411 1.394 . S
C410 H418 0.930 . S
C411 C410 1.394 . S
C411 C412 1.383 . S
C411 H419 0.929 . S
C412 C411 1.383 . S
C412 C413 1.377 . S
C413 H397 0.930 . S
C413 C412 1.377 . S
C413 C414 1.379 . S
C414 H398 0.931 . S
C414 C408 1.383 . S
C414 C413 1.379 . S
H415 C409 0.959 . S
H416 C409 0.961 . S
H417 C409 0.960 . S
H418 C410 0.930 . S
H419 C411 0.929 . S
H420 C428 0.929 . S
H421 C430 0.930 . S
H422 C432 0.930 . S
H423 C435 0.929 . S
H424 C438 0.930 . S
H425 C440 0.960 . S
H426 C440 0.960 . S
H427 C440 0.960 . S
C428 H420 0.929 . S
C428 C429 1.377 . S
C428 C430 1.384 . S
C429 C428 1.377 . S
C429 C435 1.390 . S
C430 H421 0.930 . S
C430 C428 1.384 . S
C430 C431 1.372 . S
C431 C430 1.372 . S
C431 C432 1.400 . S
C431 C436 1.490 . S
C432 H422 0.930 . S
C432 C431 1.400 . S
C432 C435 1.386 . S
H433 C449 0.930 . S
H434 C450 0.931 . S
C435 H423 0.929 . S
C435 C429 1.390 . S
C435 C432 1.386 . S
C436 C431 1.490 . S
C436 C438 1.395 . S
C436 C439 1.403 . S
H437 C443 0.930 . S
C438 H424 0.930 . S
C438 C436 1.395 . S
C438 C441 1.403 . S
C439 C436 1.403 . S
C439 C440 1.524 . S
C439 C443 1.400 . S
C440 H425 0.960 . S
C440 H426 0.960 . S
C440 H427 0.960 . S
C440 C439 1.524 . S
C441 C438 1.403 . S
C441 C442 1.392 . S
C441 C445 1.495 . S
C442 C441 1.392 . S
C442 C443 1.385 . S
C442 C444 1.478 . S
C443 H437 0.930 . S
C443 C439 1.400 . S
C443 C442 1.385 . S
C444 C442 1.478 . S
C444 C446 1.381 . S
C444 C450 1.383 . S
C445 C441 1.495 . S
C445 H451 0.959 . S
C445 H452 0.961 . S
C445 H453 0.960 . S
C446 C444 1.381 . S
C446 C447 1.394 . S
C446 H454 0.930 . S
C447 C446 1.394 . S
C447 C448 1.383 . S
C447 H455 0.955 . S
C448 C447 1.383 . S
C448 C449 1.377 . S
C449 H433 0.930 . S
C449 C448 1.377 . S
C449 C450 1.379 . S
C450 H434 0.931 . S
C450 C444 1.383 . S
C450 C449 1.379 . S
H451 C445 0.959 . S
H452 C445 0.961 . S
H453 C445 0.960 . S
H454 C446 0.930 . S
H455 C447 0.955 . S
H456 C464 0.929 . S
H457 C466 0.930 . S
H458 C468 0.930 . S
H459 C471 0.929 . S
H460 C474 0.930 1_554 S
H461 C476 0.960 . S
H462 C476 0.960 . S
H463 C476 0.960 . S
C464 H456 0.929 . S
C464 C465 1.377 1_554 S
C464 C466 1.384 . S
C465 C464 1.377 1_556 S
C465 C471 1.390 . S
C466 H457 0.930 . S
C466 C464 1.384 . S
C466 C467 1.372 1_554 S
C467 C466 1.372 1_556 S
C467 C468 1.400 . S
C467 C472 1.490 . S
C468 H458 0.930 . S
C468 C467 1.400 . S
C468 C471 1.386 . S
H469 C485 0.930 1_545 S
H470 C486 0.931 . S
C471 H459 0.929 . S
C471 C465 1.390 . S
C471 C468 1.386 . S
C472 C467 1.490 . S
C472 C474 1.395 . S
C472 C475 1.403 . S
H473 C479 0.930 1_545 S
C474 H460 0.930 1_556 S
C474 C472 1.395 . S
C474 C477 1.403 . S
C475 C472 1.403 . S
C475 C476 1.524 1_565 S
C475 C479 1.400 . S
C476 H461 0.960 . S
C476 H462 0.960 . S
C476 H463 0.960 . S
C476 C475 1.524 1_545 S
C477 C474 1.403 . S
C477 C478 1.392 . S
C477 C481 1.495 . S
C478 C477 1.392 . S
C478 C479 1.385 . S
C478 C480 1.478 . S
C479 H473 0.930 1_565 S
C479 C475 1.400 . S
C479 C478 1.385 . S
C480 C478 1.478 . S
C480 C482 1.381 . S
C480 C486 1.383 . S
C481 C477 1.495 . S
C481 H487 0.959 1_556 S
C481 H488 0.961 . S
C481 H489 0.960 1_556 S
C482 C480 1.381 . S
C482 C483 1.389 1_565 S
C482 H490 0.930 1_556 S
C483 C482 1.389 1_545 S
C483 C484 1.383 . S
C483 H491 0.935 . S
C484 C483 1.383 . S
C484 C485 1.373 1_545 S
C485 H469 0.930 1_565 S
C485 C484 1.373 1_565 S
C485 C486 1.383 . S
C486 H470 0.931 . S
C486 C480 1.383 . S
C486 C485 1.383 . S
H487 C481 0.959 1_554 S
H488 C481 0.961 . S
H489 C481 0.960 1_554 S
H490 C482 0.930 1_554 S
H491 C483 0.935 . S
H492 C500 0.929 . S
H493 C502 0.930 . S
H494 C504 0.930 . S
H495 C507 0.929 . S
H496 C510 0.930 . S
H497 C512 0.960 . S
H498 C512 0.960 . S
H499 C512 0.960 . S
C500 H492 0.929 . S
C500 C501 1.377 . S
C500 C502 1.384 . S
C501 C500 1.377 . S
C501 C507 1.390 . S
C502 H493 0.930 . S
C502 C500 1.384 . S
C502 C503 1.372 . S
C503 C502 1.372 . S
C503 C504 1.400 . S
C503 C508 1.490 . S
C504 H494 0.930 . S
C504 C503 1.400 . S
C504 C507 1.386 . S
H505 C521 0.930 . S
H506 C522 0.931 . S
C507 H495 0.929 . S
C507 C501 1.390 . S
C507 C504 1.386 . S
C508 C503 1.490 . S
C508 C510 1.395 . S
C508 C511 1.403 . S
H509 C515 0.930 . S
C510 H496 0.930 . S
C510 C508 1.395 . S
C510 C513 1.403 . S
C511 C508 1.403 . S
C511 C512 1.524 . S
C511 C515 1.400 . S
C512 H497 0.960 . S
C512 H498 0.960 . S
C512 H499 0.960 . S
C512 C511 1.524 . S
C513 C510 1.403 . S
C513 C514 1.392 . S
C513 C517 1.495 . S
C514 C513 1.392 . S
C514 C515 1.385 . S
C514 C516 1.478 . S
C515 H509 0.930 . S
C515 C511 1.400 . S
C515 C514 1.385 . S
C516 C514 1.478 . S
C516 C518 1.381 . S
C516 C522 1.383 1_554 S
C517 C513 1.495 . S
C517 H523 0.959 . S
C517 H524 0.961 . S
C517 H525 0.960 . S
C518 C516 1.381 . S
C518 C519 1.394 . S
C518 H526 0.930 . S
C519 C518 1.394 . S
C519 C520 1.383 1_554 S
C519 H527 0.929 . S
C520 C519 1.383 1_556 S
C520 C521 1.377 . S
C521 H505 0.930 . S
C521 C520 1.377 . S
C521 C522 1.379 . S
C522 H506 0.931 . S
C522 C516 1.383 1_556 S
C522 C521 1.379 . S
H523 C517 0.959 . S
H524 C517 0.961 . S
H525 C517 0.960 . S
H526 C518 0.930 . S
H527 C519 0.929 . S
H528 C536 0.929 . S
H529 C538 0.930 . S
H530 C540 0.930 1_554 S
H531 C543 0.929 1_554 S
H532 C546 0.930 . S
H533 C548 0.960 . S
H534 C548 0.957 1_556 S
H535 C548 0.960 . S
C536 H528 0.929 . S
C536 C537 1.377 . S
C536 C538 1.384 . S
C537 C536 1.377 . S
C537 C543 1.390 . S
C538 H529 0.930 . S
C538 C536 1.384 . S
C538 C539 1.372 . S
C539 C538 1.372 . S
C539 C540 1.400 . S
C539 C544 1.490 . S
C540 H530 0.930 1_556 S
C540 C539 1.400 . S
C540 C543 1.386 . S
H541 C557 0.930 . S
H542 C558 0.931 . S
C543 H531 0.929 1_556 S
C543 C537 1.390 . S
C543 C540 1.386 . S
C544 C539 1.490 . S
C544 C546 1.395 . S
C544 C547 1.403 . S
H545 C551 0.930 . S
C546 H532 0.930 . S
C546 C544 1.395 . S
C546 C549 1.403 . S
C547 C544 1.403 . S
C547 C548 1.524 1_556 S
C547 C551 1.400 . S
C548 H533 0.960 . S
C548 H534 0.957 1_554 S
C548 H535 0.960 . S
C548 C547 1.524 1_554 S
C549 C546 1.403 . S
C549 C550 1.392 . S
C549 C553 1.495 . S
C550 C549 1.392 . S
C550 C551 1.385 . S
C550 C552 1.478 . S
C551 H545 0.930 . S
C551 C547 1.400 . S
C551 C550 1.385 . S
C552 C550 1.478 . S
C552 C554 1.381 . S
C552 C558 1.383 . S
C553 C549 1.495 . S
C553 H559 0.959 . S
C553 H560 0.961 . S
C553 H561 0.960 . S
C554 C552 1.381 . S
C554 C555 1.394 . S
C554 H562 0.930 . S
C555 C554 1.394 . S
C555 C556 1.383 . S
C555 H563 0.929 . S
C556 C555 1.383 . S
C556 C557 1.377 . S
C557 H541 0.930 . S
C557 C556 1.377 . S
C557 C558 1.379 . S
C558 H542 0.931 . S
C558 C552 1.383 . S
C558 C557 1.379 . S
H559 C553 0.959 . S
H560 C553 0.961 . S
H561 C553 0.960 . S
H562 C554 0.930 . S
H563 C555 0.929 . S
H564 C572 0.922 1_455 S
H565 C574 0.930 . S
H566 C576 0.930 . S
H567 C579 0.929 . S
H568 C582 0.930 . S
H569 C584 0.960 . S
H570 C584 0.960 . S
H571 C584 0.960 . S
C572 H564 0.922 1_655 S
C572 C573 1.394 . S
C572 C574 1.375 1_655 S
C573 C572 1.394 . S
C573 C579 1.390 1_554 S
C574 H565 0.930 . S
C574 C572 1.375 1_455 S
C574 C575 1.372 1_454 S
C575 C574 1.372 1_656 S
C575 C576 1.400 . S
C575 C580 1.487 1_655 S
C576 H566 0.930 . S
C576 C575 1.400 . S
C576 C579 1.386 . S
H577 C593 0.926 1_655 S
H578 C594 0.918 1_655 S
C579 H567 0.929 . S
C579 C573 1.390 1_556 S
C579 C576 1.386 . S
C580 C575 1.487 1_455 S
C580 C582 1.390 1_456 S
C580 C583 1.411 . S
H581 C587 0.930 . S
C582 H568 0.930 . S
C582 C580 1.390 1_654 S
C582 C585 1.403 . S
C583 C580 1.411 . S
C583 C584 1.524 . S
C583 C587 1.400 . S
C584 H569 0.960 . S
C584 H570 0.960 . S
C584 H571 0.960 . S
C584 C583 1.524 . S
C585 C582 1.403 . S
C585 C586 1.392 1_654 S
C585 C589 1.495 . S
C586 C585 1.392 1_456 S
C586 C587 1.385 . S
C586 C588 1.478 . S
C587 H581 0.930 . S
C587 C583 1.400 . S
C587 C586 1.385 . S
C588 C586 1.478 . S
C588 C590 1.381 . S
C588 C594 1.389 . S
C589 C585 1.495 . S
C589 H595 0.959 . S
C589 H596 0.961 . S
C589 H597 0.960 . S
C590 C588 1.381 . S
C590 C591 1.394 . S
C590 H598 0.930 1_556 S
C591 C590 1.394 . S
C591 C592 1.383 . S
C591 H599 0.929 . S
C592 C591 1.383 . S
C592 C593 1.377 . S
C593 H577 0.926 1_455 S
C593 C592 1.377 . S
C593 C594 1.386 . S
C594 H578 0.918 1_455 S
C594 C588 1.389 . S
C594 C593 1.386 . S
H595 C589 0.959 . S
H596 C589 0.961 . S
H597 C589 0.960 . S
H598 C590 0.930 1_554 S
H599 C591 0.929 . S
H600 C608 0.929 . S
H601 C610 0.930 . S
H602 C612 0.930 . S
H603 C615 0.929 . S
H604 C618 0.930 . S
H605 C620 0.960 . S
H606 C620 0.960 . S
H607 C620 0.960 . S
C608 H600 0.929 . S
C608 C609 1.377 . S
C608 C610 1.384 . S
C609 C608 1.377 . S
C609 C615 1.390 . S
C610 H601 0.930 . S
C610 C608 1.384 . S
C610 C611 1.372 . S
C611 C610 1.372 . S
C611 C612 1.400 . S
C611 C616 1.490 . S
C612 H602 0.930 . S
C612 C611 1.400 . S
C612 C615 1.386 . S
H613 C629 0.930 . S
H614 C630 0.931 . S
C615 H603 0.929 . S
C615 C609 1.390 . S
C615 C612 1.386 . S
C616 C611 1.490 . S
C616 C618 1.395 . S
C616 C619 1.403 . S
H617 C623 0.930 . S
C618 H604 0.930 . S
C618 C616 1.395 . S
C618 C621 1.403 . S
C619 C616 1.403 . S
C619 C620 1.524 . S
C619 C623 1.400 . S
C620 H605 0.960 . S
C620 H606 0.960 . S
C620 H607 0.960 . S
C620 C619 1.524 . S
C621 C618 1.403 . S
C621 C622 1.392 . S
C621 C625 1.495 . S
C622 C621 1.392 . S
C622 C623 1.385 . S
C622 C624 1.478 . S
C623 H617 0.930 . S
C623 C619 1.400 . S
C623 C622 1.385 . S
C624 C622 1.478 . S
C624 C626 1.381 . S
C624 C630 1.383 . S
C625 C621 1.495 . S
C625 H631 0.959 . S
C625 H632 0.961 1_455 S
C625 H633 0.960 . S
C626 C624 1.381 . S
C626 C627 1.394 . S
C626 H634 0.930 . S
C627 C626 1.394 . S
C627 C628 1.383 . S
C627 H635 0.929 . S
C628 C627 1.383 . S
C628 C629 1.377 . S
C629 H613 0.930 . S
C629 C628 1.377 . S
C629 C630 1.379 . S
C630 H614 0.931 . S
C630 C624 1.383 . S
C630 C629 1.379 . S
H631 C625 0.959 . S
H632 C625 0.961 1_655 S
H633 C625 0.960 . S
H634 C626 0.930 . S
H635 C627 0.929 . S
H636 C644 0.929 . S
H637 C646 0.930 . S
H638 C648 0.930 . S
H639 C651 0.929 . S
H640 C654 0.930 . S
H641 C656 0.960 . S
H642 C656 0.960 . S
H643 C656 0.960 . S
C644 H636 0.929 . S
C644 C645 1.377 . S
C644 C646 1.384 . S
C645 C644 1.377 . S
C645 C651 1.390 . S
C646 H637 0.930 . S
C646 C644 1.384 . S
C646 C647 1.372 . S
C647 C646 1.372 . S
C647 C648 1.400 . S
C647 C652 1.490 . S
C648 H638 0.930 . S
C648 C647 1.400 . S
C648 C651 1.386 . S
H649 C665 0.930 . S
H650 C666 0.931 . S
C651 H639 0.929 . S
C651 C645 1.390 . S
C651 C648 1.386 . S
C652 C647 1.490 . S
C652 C654 1.395 . S
C652 C655 1.403 . S
H653 C659 0.930 . S
C654 H640 0.930 . S
C654 C652 1.395 . S
C654 C657 1.403 . S
C655 C652 1.403 . S
C655 C656 1.524 . S
C655 C659 1.400 . S
C656 H641 0.960 . S
C656 H642 0.960 . S
C656 H643 0.960 . S
C656 C655 1.524 . S
C657 C654 1.403 . S
C657 C658 1.392 . S
C657 C661 1.495 . S
C658 C657 1.392 . S
C658 C659 1.385 . S
C658 C660 1.478 . S
C659 H653 0.930 . S
C659 C655 1.400 . S
C659 C658 1.385 . S
C660 C658 1.478 . S
C660 C662 1.381 . S
C660 C666 1.383 . S
C661 C657 1.495 . S
C661 H667 0.959 . S
C661 H668 0.961 . S
C661 H669 0.960 . S
C662 C660 1.381 . S
C662 C663 1.394 . S
C662 H670 0.930 . S
C663 C662 1.394 . S
C663 C664 1.383 . S
C663 H671 0.963 . S
C664 C663 1.383 . S
C664 C665 1.377 . S
C665 H649 0.930 . S
C665 C664 1.377 . S
C665 C666 1.379 . S
C666 H650 0.931 . S
C666 C660 1.383 . S
C666 C665 1.379 . S
H667 C661 0.959 . S
H668 C661 0.961 . S
H669 C661 0.960 . S
H670 C662 0.930 . S
H671 C663 0.963 . S
H672 C680 0.929 . S
H673 C682 0.930 . S
H674 C684 0.930 . S
H675 C687 0.929 . S
H676 C690 0.930 . S
H677 C692 0.960 . S
H678 C692 0.960 . S
H679 C692 0.960 . S
C680 H672 0.929 . S
C680 C681 1.377 . S
C680 C682 1.384 . S
C681 C680 1.377 . S
C681 C687 1.390 . S
C682 H673 0.930 . S
C682 C680 1.384 . S
C682 C683 1.372 . S
C683 C682 1.372 . S
C683 C684 1.400 . S
C683 C688 1.490 . S
C684 H674 0.930 . S
C684 C683 1.400 . S
C684 C687 1.386 . S
H685 C701 0.930 . S
H686 C702 0.931 . S
C687 H675 0.929 . S
C687 C681 1.390 . S
C687 C684 1.386 . S
C688 C683 1.490 . S
C688 C690 1.395 . S
C688 C691 1.403 . S
H689 C695 0.930 . S
C690 H676 0.930 . S
C690 C688 1.395 . S
C690 C693 1.403 . S
C691 C688 1.403 . S
C691 C692 1.524 . S
C691 C695 1.400 . S
C692 H677 0.960 . S
C692 H678 0.960 . S
C692 H679 0.960 . S
C692 C691 1.524 . S
C693 C690 1.403 . S
C693 C694 1.392 . S
C693 C697 1.495 . S
C694 C693 1.392 . S
C694 C695 1.385 . S
C694 C696 1.478 . S
C695 H689 0.930 . S
C695 C691 1.400 . S
C695 C694 1.385 . S
C696 C694 1.478 . S
C696 C698 1.381 . S
C696 C702 1.383 . S
C697 C693 1.495 . S
C697 H703 0.959 . S
C697 H704 0.961 . S
C697 H705 0.960 . S
C698 C696 1.381 . S
C698 C699 1.394 . S
C698 H706 0.930 . S
C699 C698 1.394 . S
C699 C700 1.383 . S
C699 H707 0.929 . S
C700 C699 1.383 . S
C700 C701 1.377 . S
C701 H685 0.930 . S
C701 C700 1.377 . S
C701 C702 1.379 . S
C702 H686 0.931 . S
C702 C696 1.383 . S
C702 C701 1.379 . S
H703 C697 0.959 . S
H704 C697 0.961 . S
H705 C697 0.960 . S
H706 C698 0.930 . S
H707 C699 0.929 . S
H708 C716 0.929 . S
H709 C718 0.930 . S
H710 C720 0.930 . S
H711 C723 0.929 . S
H712 C726 0.930 . S
H713 C728 0.960 . S
H714 C728 0.960 . S
H715 C728 0.960 . S
C716 H708 0.929 . S
C716 C717 1.377 . S
C716 C718 1.384 . S
C717 C716 1.377 . S
C717 C723 1.390 . S
C718 H709 0.930 . S
C718 C716 1.384 . S
C718 C719 1.372 . S
C719 C718 1.372 . S
C719 C720 1.400 . S
C719 C724 1.490 . S
C720 H710 0.930 . S
C720 C719 1.400 . S
C720 C723 1.386 . S
H721 C737 0.930 . S
H722 C738 0.931 . S
C723 H711 0.929 . S
C723 C717 1.390 . S
C723 C720 1.386 . S
C724 C719 1.490 . S
C724 C726 1.395 . S
C724 C727 1.403 . S
H725 C731 0.930 . S
C726 H712 0.930 . S
C726 C724 1.395 . S
C726 C729 1.403 . S
C727 C724 1.403 . S
C727 C728 1.524 . S
C727 C731 1.400 . S
C728 H713 0.960 . S
C728 H714 0.960 . S
C728 H715 0.960 . S
C728 C727 1.524 . S
C729 C726 1.403 . S
C729 C730 1.392 . S
C729 C733 1.495 . S
C730 C729 1.392 . S
C730 C731 1.385 . S
C730 C732 1.478 . S
C731 H725 0.930 . S
C731 C727 1.400 . S
C731 C730 1.385 . S
C732 C730 1.478 . S
C732 C734 1.381 . S
C732 C738 1.383 . S
C733 C729 1.495 . S
C733 H739 0.959 . S
C733 H740 0.961 . S
C733 H741 0.960 . S
C734 C732 1.381 . S
C734 C735 1.394 . S
C734 H742 0.930 . S
C735 C734 1.394 . S
C735 C736 1.383 . S
C735 H743 0.929 . S
C736 C735 1.383 . S
C736 C737 1.377 . S
C737 H721 0.930 . S
C737 C736 1.377 . S
C737 C738 1.379 . S
C738 H722 0.931 . S
C738 C732 1.383 . S
C738 C737 1.379 . S
H739 C733 0.959 . S
H740 C733 0.961 . S
H741 C733 0.960 . S
H742 C734 0.930 . S
H743 C735 0.929 . S
H744 C752 0.929 . S
H745 C754 0.930 . S
H746 C756 0.930 . S
H747 C759 0.929 . S
H748 C762 0.930 . S
H749 C764 0.964 . S
H750 C764 0.908 1_455 S
H751 C764 1.012 . S
C752 H744 0.929 . S
C752 C753 1.377 1_456 S
C752 C754 1.384 . S
C753 C752 1.377 1_654 S
C753 C759 1.390 . S
C754 H745 0.930 . S
C754 C752 1.384 . S
C754 C755 1.372 1_455 S
C755 C754 1.372 1_655 S
C755 C756 1.400 1_556 S
C755 C760 1.490 1_655 S
C756 H746 0.930 . S
C756 C755 1.400 1_554 S
C756 C759 1.386 . S
H757 C773 0.930 . S
H758 C774 0.931 . S
C759 H747 0.929 . S
C759 C753 1.390 . S
C759 C756 1.386 . S
C760 C755 1.490 1_455 S
C760 C762 1.395 . S
C760 C763 1.405 1_556 S
H761 C767 0.930 . S
C762 H748 0.930 . S
C762 C760 1.395 . S
C762 C765 1.403 . S
C763 C760 1.405 1_554 S
C763 C764 1.525 1_455 S
C763 C767 1.401 . S
C764 H749 0.964 . S
C764 H750 0.908 1_655 S
C764 H751 1.012 . S
C764 C763 1.525 1_655 S
C765 C762 1.403 . S
C765 C766 1.392 . S
C765 C769 1.495 . S
C766 C765 1.392 . S
C766 C767 1.385 1_556 S
C766 C768 1.478 . S
C767 H761 0.930 . S
C767 C763 1.401 . S
C767 C766 1.385 1_554 S
C768 C766 1.478 . S
C768 C770 1.381 . S
C768 C774 1.383 1_455 S
C769 C765 1.495 . S
C769 H775 0.959 . S
C769 H776 0.961 1_455 S
C769 H777 0.960 . S
C770 C768 1.381 . S
C770 C771 1.394 . S
C770 H778 0.930 . S
C771 C770 1.394 . S
C771 C772 1.383 . S
C771 H779 0.929 . S
C772 C771 1.383 . S
C772 C773 1.377 1_455 S
C773 H757 0.930 . S
C773 C772 1.377 1_655 S
C773 C774 1.379 . S
C774 H758 0.931 . S
C774 C768 1.383 1_655 S
C774 C773 1.379 . S
H775 C769 0.959 . S
H776 C769 0.961 1_655 S
H777 C769 0.960 . S
H778 C770 0.930 . S
H779 C771 0.929 . S
H780 C788 0.929 . S
H781 C790 0.930 1_554 S
H782 C792 0.930 . S
H783 C795 0.929 . S
H784 C798 0.930 1_545 S
H785 C800 0.960 . S
H786 C800 0.960 . S
H787 C800 0.960 . S
C788 H780 0.929 . S
C788 C789 1.377 1_554 S
C788 C790 1.384 1_554 S
C789 C788 1.377 1_556 S
C789 C795 1.390 . S
C790 H781 0.930 1_556 S
C790 C788 1.384 1_556 S
C790 C791 1.372 . S
C791 C790 1.372 . S
C791 C792 1.400 . S
C791 C796 1.490 . S
C792 H782 0.930 . S
C792 C791 1.400 . S
C792 C795 1.386 . S
H793 C809 0.930 . S
H794 C810 0.931 . S
C795 H783 0.929 . S
C795 C789 1.390 . S
C795 C792 1.386 . S
C796 C791 1.490 . S
C796 C798 1.395 . S
C796 C799 1.403 . S
H797 C803 0.930 . S
C798 H784 0.930 1_565 S
C798 C796 1.395 . S
C798 C801 1.403 1_565 S
C799 C796 1.403 . S
C799 C800 1.524 1_556 S
C799 C803 1.400 . S
C800 H785 0.960 . S
C800 H786 0.960 . S
C800 H787 0.960 . S
C800 C799 1.524 1_554 S
C801 C798 1.403 1_545 S
C801 C802 1.392 1_545 S
C801 C805 1.495 . S
C802 C801 1.392 1_565 S
C802 C803 1.385 . S
C802 C804 1.476 1_565 S
C803 H797 0.930 . S
C803 C799 1.400 . S
C803 C802 1.385 . S
C804 C802 1.476 1_545 S
C804 C806 1.383 . S
C804 C810 1.381 1_545 S
C805 C801 1.495 . S
C805 H811 0.959 . S
C805 H812 0.961 . S
C805 H813 0.960 . S
C806 C804 1.383 . S
C806 C807 1.394 . S
C806 H814 0.930 . S
C807 C806 1.394 . S
C807 C808 1.383 . S
C807 H815 0.929 . S
C808 C807 1.383 . S
C808 C809 1.377 1_545 S
C809 H793 0.930 . S
C809 C808 1.377 1_565 S
C809 C810 1.379 . S
C810 H794 0.931 . S
C810 C804 1.381 1_565 S
C810 C809 1.379 . S
H811 C805 0.959 . S
H812 C805 0.961 . S
H813 C805 0.960 . S
H814 C806 0.930 . S
H815 C807 0.929 . S
H816 C824 0.929 . S
H817 C826 0.930 . S
H818 C828 0.930 . S
H819 C831 0.929 . S
H820 C834 0.930 . S
H821 C836 0.960 . S
H822 C836 0.960 . S
H823 C836 0.960 . S
C824 H816 0.929 . S
C824 C825 1.377 . S
C824 C826 1.384 . S
C825 C824 1.377 . S
C825 C831 1.390 . S
C826 H817 0.930 . S
C826 C824 1.384 . S
C826 C827 1.372 . S
C827 C826 1.372 . S
C827 C828 1.400 . S
C827 C832 1.490 . S
C828 H818 0.930 . S
C828 C827 1.400 . S
C828 C831 1.386 . S
H829 C845 0.930 1_556 S
H830 C846 0.931 . S
C831 H819 0.929 . S
C831 C825 1.390 . S
C831 C828 1.386 . S
C832 C827 1.490 . S
C832 C834 1.395 . S
C832 C835 1.403 . S
H833 C839 0.930 . S
C834 H820 0.930 . S
C834 C832 1.395 . S
C834 C837 1.403 . S
C835 C832 1.403 . S
C835 C836 1.524 . S
C835 C839 1.400 . S
C836 H821 0.960 . S
C836 H822 0.960 . S
C836 H823 0.960 . S
C836 C835 1.524 . S
C837 C834 1.403 . S
C837 C838 1.392 . S
C837 C841 1.495 . S
C838 C837 1.392 . S
C838 C839 1.385 . S
C838 C840 1.478 . S
C839 H833 0.930 . S
C839 C835 1.400 . S
C839 C838 1.385 . S
C840 C838 1.478 . S
C840 C842 1.381 . S
C840 C846 1.383 . S
C841 C837 1.495 . S
C841 H847 0.959 . S
C841 H848 0.961 . S
C841 H849 0.960 . S
C842 C840 1.381 . S
C842 C843 1.394 . S
C842 H850 0.930 . S
C843 C842 1.394 . S
C843 C844 1.383 . S
C843 H851 0.929 . S
C844 C843 1.383 . S
C844 C845 1.377 . S
C845 H829 0.930 1_554 S
C845 C844 1.377 . S
C845 C846 1.379 . S
C846 H830 0.931 . S
C846 C840 1.383 . S
C846 C845 1.379 . S
H847 C841 0.959 . S
H848 C841 0.961 . S
H849 C841 0.960 . S
H850 C842 0.930 . S
H851 C843 0.929 . S
H852 C860 0.929 . S
H853 C862 0.930 . S
H854 C864 0.930 . S
H855 C867 0.929 . S
H856 C870 0.930 1_554 S
H857 C872 0.960 . S
H858 C872 0.960 . S
H859 C872 0.960 . S
C860 H852 0.929 . S
C860 C861 1.377 . S
C860 C862 1.384 . S
C861 C860 1.377 . S
C861 C867 1.390 . S
C862 H853 0.930 . S
C862 C860 1.384 . S
C862 C863 1.372 . S
C863 C862 1.372 . S
C863 C864 1.400 . S
C863 C868 1.490 . S
C864 H854 0.930 . S
C864 C863 1.400 . S
C864 C867 1.386 . S
H865 C881 0.930 . S
H866 C882 0.931 . S
C867 H855 0.929 . S
C867 C861 1.390 . S
C867 C864 1.386 . S
C868 C863 1.490 . S
C868 C870 1.395 . S
C868 C871 1.403 . S
H869 C875 0.930 . S
C870 H856 0.930 1_556 S
C870 C868 1.395 . S
C870 C873 1.403 . S
C871 C868 1.403 . S
C871 C872 1.524 . S
C871 C875 1.400 . S
C872 H857 0.960 . S
C872 H858 0.960 . S
C872 H859 0.960 . S
C872 C871 1.524 . S
C873 C870 1.403 . S
C873 C874 1.392 . S
C873 C877 1.495 1_556 S
C874 C873 1.392 . S
C874 C875 1.385 . S
C874 C876 1.478 . S
C875 H869 0.930 . S
C875 C871 1.400 . S
C875 C874 1.385 . S
C876 C874 1.478 . S
C876 C878 1.381 . S
C876 C882 1.383 . S
C877 C873 1.495 1_554 S
C877 H883 0.959 . S
C877 H884 0.961 . S
C877 H885 0.960 . S
C878 C876 1.381 . S
C878 C879 1.394 . S
C878 H886 0.930 . S
C879 C878 1.394 . S
C879 C880 1.383 . S
C879 H887 0.929 . S
C880 C879 1.383 . S
C880 C881 1.377 . S
C881 H865 0.930 . S
C881 C880 1.377 . S
C881 C882 1.379 . S
C882 H866 0.931 . S
C882 C876 1.383 . S
C882 C881 1.379 . S
H883 C877 0.959 . S
H884 C877 0.961 . S
H885 C877 0.960 . S
H886 C878 0.930 . S
H887 C879 0.929 . S
H888 C896 0.929 . S
H889 C898 0.930 . S
H890 C900 0.930 . S
H891 C903 0.929 . S
H892 C906 0.930 . S
H893 C908 0.960 . S
H894 C908 0.960 . S
H895 C908 0.960 . S
C896 H888 0.929 . S
C896 C897 1.377 . S
C896 C898 1.384 . S
C897 C896 1.377 . S
C897 C903 1.390 . S
C898 H889 0.930 . S
C898 C896 1.384 . S
C898 C899 1.372 . S
C899 C898 1.372 . S
C899 C900 1.400 . S
C899 C904 1.490 . S
C900 H890 0.930 . S
C900 C899 1.400 . S
C900 C903 1.386 . S
H901 C917 0.930 . S
H902 C918 0.931 . S
C903 H891 0.929 . S
C903 C897 1.390 . S
C903 C900 1.386 . S
C904 C899 1.490 . S
C904 C906 1.395 . S
C904 C907 1.403 . S
H905 C911 0.930 . S
C906 H892 0.930 . S
C906 C904 1.395 . S
C906 C909 1.403 . S
C907 C904 1.403 . S
C907 C908 1.524 . S
C907 C911 1.400 . S
C908 H893 0.960 . S
C908 H894 0.960 . S
C908 H895 0.960 . S
C908 C907 1.524 . S
C909 C906 1.403 . S
C909 C910 1.392 . S
C909 C913 1.495 . S
C910 C909 1.392 . S
C910 C911 1.385 . S
C910 C912 1.478 . S
C911 H905 0.930 . S
C911 C907 1.400 . S
C911 C910 1.385 . S
C912 C910 1.478 . S
C912 C914 1.381 . S
C912 C918 1.383 . S
C913 C909 1.495 . S
C913 H919 0.959 1_455 S
C913 H920 0.962 1_455 S
C913 H921 0.959 1_455 S
C914 C912 1.381 . S
C914 C915 1.394 . S
C914 H922 0.930 . S
C915 C914 1.394 . S
C915 C916 1.383 . S
C915 H923 0.929 . S
C916 C915 1.383 . S
C916 C917 1.377 . S
C917 H901 0.930 . S
C917 C916 1.377 . S
C917 C918 1.379 . S
C918 H902 0.931 . S
C918 C912 1.383 . S
C918 C917 1.379 . S
H919 C913 0.959 1_655 S
H920 C913 0.962 1_655 S
H921 C913 0.959 1_655 S
H922 C914 0.930 . S
H923 C915 0.929 . S
H924 C932 0.929 . S
H925 C934 0.930 . S
H926 C936 0.930 . S
H927 C939 0.929 . S
H928 C942 0.930 . S
H929 C944 0.960 . S
H930 C944 0.960 . S
H931 C944 0.960 . S
C932 H924 0.929 . S
C932 C933 1.377 . S
C932 C934 1.384 . S
C933 C932 1.377 . S
C933 C939 1.390 . S
C934 H925 0.930 . S
C934 C932 1.384 . S
C934 C935 1.372 . S
C935 C934 1.372 . S
C935 C936 1.400 . S
C935 C940 1.490 . S
C936 H926 0.930 . S
C936 C935 1.400 . S
C936 C939 1.386 . S
H937 C953 0.930 . S
H938 C954 0.931 . S
C939 H927 0.929 . S
C939 C933 1.390 . S
C939 C936 1.386 . S
C940 C935 1.490 . S
C940 C942 1.395 . S
C940 C943 1.403 . S
H941 C947 0.930 . S
C942 H928 0.930 . S
C942 C940 1.395 . S
C942 C945 1.403 . S
C943 C940 1.403 . S
C943 C944 1.524 . S
C943 C947 1.400 . S
C944 H929 0.960 . S
C944 H930 0.960 . S
C944 H931 0.960 . S
C944 C943 1.524 . S
C945 C942 1.403 . S
C945 C946 1.392 . S
C945 C949 1.495 . S
C946 C945 1.392 . S
C946 C947 1.385 . S
C946 C948 1.478 . S
C947 H941 0.930 . S
C947 C943 1.400 . S
C947 C946 1.385 . S
C948 C946 1.478 . S
C948 C950 1.381 . S
C948 C954 1.383 . S
C949 C945 1.495 . S
C949 H955 0.959 . S
C949 H956 0.961 . S
C949 H957 0.960 . S
C950 C948 1.381 . S
C950 C951 1.394 . S
C950 H958 0.930 . S
C951 C950 1.394 . S
C951 C952 1.383 . S
C951 H959 0.929 . S
C952 C951 1.383 . S
C952 C953 1.377 . S
C953 H937 0.930 . S
C953 C952 1.377 . S
C953 C954 1.379 . S
C954 H938 0.931 . S
C954 C948 1.383 . S
C954 C953 1.379 . S
H955 C949 0.959 . S
H956 C949 0.961 . S
H957 C949 0.960 . S
H958 C950 0.930 . S
H959 C951 0.929 . S
H960 C968 0.929 . S
H961 C970 0.930 . S
H962 C972 0.930 . S
H963 C975 0.929 . S
H964 C978 0.930 . S
H965 C980 0.953 1_556 S
H966 C980 0.962 . S
H967 C980 0.959 1_556 S
C968 H960 0.929 . S
C968 C969 1.377 . S
C968 C970 1.384 . S
C969 C968 1.377 . S
C969 C975 1.390 . S
C970 H961 0.930 . S
C970 C968 1.384 . S
C970 C971 1.372 . S
C971 C970 1.372 . S
C971 C972 1.400 . S
C971 C976 1.490 . S
C972 H962 0.930 . S
C972 C971 1.400 . S
C972 C975 1.386 . S
H973 C989 0.930 . S
H974 C990 0.931 . S
C975 H963 0.929 . S
C975 C969 1.390 . S
C975 C972 1.386 . S
C976 C971 1.490 . S
C976 C978 1.395 . S
C976 C979 1.403 . S
H977 C983 0.930 1_556 S
C978 H964 0.930 . S
C978 C976 1.395 . S
C978 C981 1.403 . S
C979 C976 1.403 . S
C979 C980 1.529 . S
C979 C983 1.400 . S
C980 H965 0.953 1_554 S
C980 H966 0.962 . S
C980 H967 0.959 1_554 S
C980 C979 1.529 . S
C981 C978 1.403 . S
C981 C982 1.392 . S
C981 C985 1.495 . S
C982 C981 1.392 . S
C982 C983 1.385 . S
C982 C984 1.478 . S
C983 H977 0.930 1_554 S
C983 C979 1.400 . S
C983 C982 1.385 . S
C984 C982 1.478 . S
C984 C986 1.381 . S
C984 C990 1.383 1_554 S
C985 C981 1.495 . S
C985 H991 0.959 . S
C985 H992 0.961 . S
C985 H993 0.960 . S
C986 C984 1.381 . S
C986 C987 1.394 . S
C986 H994 0.930 . S
C987 C986 1.394 . S
C987 C988 1.383 1_554 S
C987 H995 0.929 . S
C988 C987 1.383 1_556 S
C988 C989 1.377 . S
C989 H973 0.930 . S
C989 C988 1.377 . S
C989 C990 1.379 . S
C990 H974 0.931 . S
C990 C984 1.383 1_556 S
C990 C989 1.379 . S
H991 C985 0.959 . S
H992 C985 0.961 . S
H993 C985 0.960 . S
H994 C986 0.930 . S
H995 C987 0.929 . S
H996 C1004 0.929 . S
H997 C1006 0.930 . S
H998 C1008 0.930 . S
H999 C1011 0.929 . S
H1000 C1014 0.930 . S
H1001 C1016 0.960 . S
H1002 C1016 0.960 . S
H1003 C1016 0.960 . S
C1004 H996 0.929 . S
C1004 C1005 1.377 . S
C1004 C1006 1.384 . S
C1005 C1004 1.377 . S
C1005 C1011 1.390 . S
C1006 H997 0.930 . S
C1006 C1004 1.384 . S
C1006 C1007 1.372 . S
C1007 C1006 1.372 . S
C1007 C1008 1.400 . S
C1007 C1012 1.490 . S
C1008 H998 0.930 . S
C1008 C1007 1.400 . S
C1008 C1011 1.386 . S
H1009 C1025 0.930 . S
H1010 C1026 0.931 . S
C1011 H999 0.929 . S
C1011 C1005 1.390 . S
C1011 C1008 1.386 . S
C1012 C1007 1.490 . S
C1012 C1014 1.395 . S
C1012 C1015 1.403 . S
H1013 C1019 0.930 . S
C1014 H1000 0.930 . S
C1014 C1012 1.395 . S
C1014 C1017 1.403 . S
C1015 C1012 1.403 . S
C1015 C1016 1.524 . S
C1015 C1019 1.400 . S
C1016 H1001 0.960 . S
C1016 H1002 0.960 . S
C1016 H1003 0.960 . S
C1016 C1015 1.524 . S
C1017 C1014 1.403 . S
C1017 C1018 1.392 . S
C1017 C1021 1.495 . S
C1018 C1017 1.392 . S
C1018 C1019 1.385 . S
C1018 C1020 1.478 . S
C1019 H1013 0.930 . S
C1019 C1015 1.400 . S
C1019 C1018 1.385 . S
C1020 C1018 1.478 . S
C1020 C1022 1.381 . S
C1020 C1026 1.383 . S
C1021 C1017 1.495 . S
C1021 H1027 0.959 . S
C1021 H1028 0.961 . S
C1021 H1029 0.960 . S
C1022 C1020 1.381 . S
C1022 C1023 1.394 . S
C1022 H1030 0.930 . S
C1023 C1022 1.394 . S
C1023 C1024 1.383 . S
C1023 H1031 0.929 . S
C1024 C1023 1.383 . S
C1024 C1025 1.377 . S
C1025 H1009 0.930 . S
C1025 C1024 1.377 . S
C1025 C1026 1.379 . S
C1026 H1010 0.931 . S
C1026 C1020 1.383 . S
C1026 C1025 1.379 . S
H1027 C1021 0.959 . S
H1028 C1021 0.961 . S
H1029 C1021 0.960 . S
H1030 C1022 0.930 . S
H1031 C1023 0.929 . S
H1032 C1040 0.929 . S
H1033 C1042 0.930 . S
H1034 C1044 0.930 . S
H1035 C1047 0.929 . S
H1036 C1050 0.930 . S
H1037 C1052 0.960 . S
H1038 C1052 0.960 . S
H1039 C1052 0.960 . S
C1040 H1032 0.929 . S
C1040 C1041 1.377 . S
C1040 C1042 1.384 . S
C1041 C1040 1.377 . S
C1041 C1047 1.390 . S
C1042 H1033 0.930 . S
C1042 C1040 1.384 . S
C1042 C1043 1.372 . S
C1043 C1042 1.372 . S
C1043 C1044 1.400 . S
C1043 C1048 1.490 . S
C1044 H1034 0.930 . S
C1044 C1043 1.400 . S
C1044 C1047 1.386 . S
H1045 C1061 0.930 . S
H1046 C1062 0.931 . S
C1047 H1035 0.929 . S
C1047 C1041 1.390 . S
C1047 C1044 1.386 . S
C1048 C1043 1.490 . S
C1048 C1050 1.395 1_655 S
C1048 C1051 1.403 . S
H1049 C1055 0.930 . S
C1050 H1036 0.930 . S
C1050 C1048 1.395 1_455 S
C1050 C1053 1.403 . S
C1051 C1048 1.403 . S
C1051 C1052 1.524 . S
C1051 C1055 1.400 . S
C1052 H1037 0.960 . S
C1052 H1038 0.960 . S
C1052 H1039 0.960 . S
C1052 C1051 1.524 . S
C1053 C1050 1.403 . S
C1053 C1054 1.353 1_455 S
C1053 C1057 1.495 . S
C1054 C1053 1.353 1_655 S
C1054 C1055 1.426 . S
C1054 C1056 1.483 1_655 S
C1055 H1049 0.930 . S
C1055 C1051 1.400 . S
C1055 C1054 1.426 . S
C1056 C1054 1.483 1_455 S
C1056 C1058 1.381 1_455 S
C1056 C1062 1.380 . S
C1057 C1053 1.495 . S
C1057 H1063 0.959 . S
C1057 H1064 0.961 . S
C1057 H1065 0.960 . S
C1058 C1056 1.381 1_655 S
C1058 C1059 1.394 . S
C1058 H1066 0.929 . S
C1059 C1058 1.394 . S
C1059 C1060 1.384 1_655 S
C1059 H1067 0.930 . S
C1060 C1059 1.384 1_455 S
C1060 C1061 1.377 . S
C1061 H1045 0.930 . S
C1061 C1060 1.377 . S
C1061 C1062 1.379 . S
C1062 H1046 0.931 . S
C1062 C1056 1.380 . S
C1062 C1061 1.379 . S
H1063 C1057 0.959 . S
H1064 C1057 0.961 . S
H1065 C1057 0.960 . S
H1066 C1058 0.929 . S
H1067 C1059 0.930 . S
H1068 C1076 0.929 . S
H1069 C1078 0.930 . S
H1070 C1080 0.930 . S
H1071 C1083 0.929 . S
H1072 C1086 0.930 . S
H1073 C1088 0.960 . S
H1074 C1088 0.960 . S
H1075 C1088 0.960 . S
C1076 H1068 0.929 . S
C1076 C1077 1.377 . S
C1076 C1078 1.384 . S
C1077 C1076 1.377 . S
C1077 C1083 1.390 . S
C1078 H1069 0.930 . S
C1078 C1076 1.384 . S
C1078 C1079 1.372 . S
C1079 C1078 1.372 . S
C1079 C1080 1.400 . S
C1079 C1084 1.490 . S
C1080 H1070 0.930 . S
C1080 C1079 1.400 . S
C1080 C1083 1.386 . S
H1081 C1097 0.930 . S
H1082 C1098 0.931 . S
C1083 H1071 0.929 . S
C1083 C1077 1.390 . S
C1083 C1080 1.386 . S
C1084 C1079 1.490 . S
C1084 C1086 1.395 . S
C1084 C1087 1.403 . S
H1085 C1091 0.930 . S
C1086 H1072 0.930 . S
C1086 C1084 1.395 . S
C1086 C1089 1.403 . S
C1087 C1084 1.403 . S
C1087 C1088 1.524 . S
C1087 C1091 1.400 . S
C1088 H1073 0.960 . S
C1088 H1074 0.960 . S
C1088 H1075 0.960 . S
C1088 C1087 1.524 . S
C1089 C1086 1.403 . S
C1089 C1090 1.392 . S
C1089 C1093 1.495 . S
C1090 C1089 1.392 . S
C1090 C1091 1.385 . S
C1090 C1092 1.478 . S
C1091 H1085 0.930 . S
C1091 C1087 1.400 . S
C1091 C1090 1.385 . S
C1092 C1090 1.478 . S
C1092 C1094 1.381 . S
C1092 C1098 1.383 . S
C1093 C1089 1.495 . S
C1093 H1099 0.959 . S
C1093 H1100 0.961 . S
C1093 H1101 0.960 . S
C1094 C1092 1.381 . S
C1094 C1095 1.394 . S
C1094 H1102 0.930 . S
C1095 C1094 1.394 . S
C1095 C1096 1.383 . S
C1095 H1103 0.929 1_565 S
C1096 C1095 1.383 . S
C1096 C1097 1.377 . S
C1097 H1081 0.930 . S
C1097 C1096 1.377 . S
C1097 C1098 1.379 . S
C1098 H1082 0.931 . S
C1098 C1092 1.383 . S
C1098 C1097 1.379 . S
H1099 C1093 0.959 . S
H1100 C1093 0.961 . S
H1101 C1093 0.960 . S
H1102 C1094 0.930 . S
H1103 C1095 0.929 1_545 S
H1104 C1112 0.929 . S
H1105 C1114 0.930 . S
H1106 C1116 0.930 . S
H1107 C1119 0.929 . S
H1108 C1122 0.930 . S
H1109 C1124 0.960 . S
H1110 C1124 0.960 . S
H1111 C1124 0.960 . S
C1112 H1104 0.929 . S
C1112 C1113 1.377 . S
C1112 C1114 1.384 . S
C1113 C1112 1.377 . S
C1113 C1119 1.390 . S
C1114 H1105 0.930 . S
C1114 C1112 1.384 . S
C1114 C1115 1.372 . S
C1115 C1114 1.372 . S
C1115 C1116 1.400 . S
C1115 C1120 1.490 . S
C1116 H1106 0.930 . S
C1116 C1115 1.400 . S
C1116 C1119 1.386 . S
H1117 C1133 0.930 . S
H1118 C1134 0.931 . S
C1119 H1107 0.929 . S
C1119 C1113 1.390 . S
C1119 C1116 1.386 . S
C1120 C1115 1.490 . S
C1120 C1122 1.395 . S
C1120 C1123 1.403 . S
H1121 C1127 0.930 . S
C1122 H1108 0.930 . S
C1122 C1120 1.395 . S
C1122 C1125 1.403 . S
C1123 C1120 1.403 . S
C1123 C1124 1.524 . S
C1123 C1127 1.400 . S
C1124 H1109 0.960 . S
C1124 H1110 0.960 . S
C1124 H1111 0.960 . S
C1124 C1123 1.524 . S
C1125 C1122 1.403 . S
C1125 C1126 1.392 . S
C1125 C1129 1.495 . S
C1126 C1125 1.392 . S
C1126 C1127 1.385 . S
C1126 C1128 1.478 . S
C1127 H1121 0.930 . S
C1127 C1123 1.400 . S
C1127 C1126 1.385 . S
C1128 C1126 1.478 . S
C1128 C1130 1.381 . S
C1128 C1134 1.383 . S
C1129 C1125 1.495 . S
C1129 H1135 0.959 . S
C1129 H1136 0.961 . S
C1129 H1137 0.960 . S
C1130 C1128 1.381 . S
C1130 C1131 1.394 . S
C1130 H1138 0.930 . S
C1131 C1130 1.394 . S
C1131 C1132 1.383 . S
C1131 H1139 0.929 . S
C1132 C1131 1.383 . S
C1132 C1133 1.377 . S
C1133 H1117 0.930 . S
C1133 C1132 1.377 . S
C1133 C1134 1.379 . S
C1134 H1118 0.931 . S
C1134 C1128 1.383 . S
C1134 C1133 1.379 . S
H1135 C1129 0.959 . S
H1136 C1129 0.961 . S
H1137 C1129 0.960 . S
H1138 C1130 0.930 . S
H1139 C1131 0.929 . S
H1140 C1148 0.929 . S
H1141 C1150 0.930 . S
H1142 C1152 0.930 . S
H1143 C1155 0.929 . S
H1144 C1158 0.930 . S
H1145 C1160 0.960 . S
H1146 C1160 0.960 . S
H1147 C1160 0.960 . S
C1148 H1140 0.929 . S
C1148 C1149 1.377 . S
C1148 C1150 1.384 . S
C1149 C1148 1.377 . S
C1149 C1155 1.390 . S
C1150 H1141 0.930 . S
C1150 C1148 1.384 . S
C1150 C1151 1.372 . S
C1151 C1150 1.372 . S
C1151 C1152 1.400 . S
C1151 C1156 1.490 . S
C1152 H1142 0.930 . S
C1152 C1151 1.400 . S
C1152 C1155 1.386 . S
H1153 C1169 0.930 . S
H1154 C1170 0.931 . S
C1155 H1143 0.929 . S
C1155 C1149 1.390 . S
C1155 C1152 1.386 . S
C1156 C1151 1.490 . S
C1156 C1158 1.395 . S
C1156 C1159 1.403 . S
H1157 C1163 0.930 . S
C1158 H1144 0.930 . S
C1158 C1156 1.395 . S
C1158 C1161 1.403 . S
C1159 C1156 1.403 . S
C1159 C1160 1.524 . S
C1159 C1163 1.400 . S
C1160 H1145 0.960 . S
C1160 H1146 0.960 . S
C1160 H1147 0.960 . S
C1160 C1159 1.524 . S
C1161 C1158 1.403 . S
C1161 C1162 1.392 . S
C1161 C1165 1.495 . S
C1162 C1161 1.392 . S
C1162 C1163 1.385 . S
C1162 C1164 1.478 . S
C1163 H1157 0.930 . S
C1163 C1159 1.400 . S
C1163 C1162 1.385 . S
C1164 C1162 1.478 . S
C1164 C1166 1.381 . S
C1164 C1170 1.383 . S
C1165 C1161 1.495 . S
C1165 H1171 0.959 . S
C1165 H1172 0.961 . S
C1165 H1173 0.960 . S
C1166 C1164 1.381 . S
C1166 C1167 1.394 . S
C1166 H1174 0.930 . S
C1167 C1166 1.394 . S
C1167 C1168 1.383 . S
C1167 H1175 0.929 . S
C1168 C1167 1.383 . S
C1168 C1169 1.377 . S
C1169 H1153 0.930 . S
C1169 C1168 1.377 . S
C1169 C1170 1.379 . S
C1170 H1154 0.931 . S
C1170 C1164 1.383 . S
C1170 C1169 1.379 . S
H1171 C1165 0.959 . S
H1172 C1165 0.961 . S
H1173 C1165 0.960 . S
H1174 C1166 0.930 . S
H1175 C1167 0.929 . S
C321 C125 1.458 . S
C340 C161 1.655 . S
C376 C201 1.277 . S
C357 C144 1.298 . S
C412 C250 1.345 . S
C393 C87 1.216 . S
C448 C281 1.731 . S
C429 C106 1.632 . S
C484 C170 1.631 . S
C465 C49 1.587 1_556 S
C501 C68 1.283 . S
C520 C210 1.209 . S
C537 C11 1.249 . S
C556 C241 1.345 . S
C573 C30 1.704 . S
C592 C290 1.688 . S
C628 C171 0.922 . S
C609 C97 0.881 . S
C664 C211 1.372 . S
C645 C116 1.238 . S
C700 C247 0.705 . S
C681 C135 0.690 . S
C717 C78 0.982 . S
C736 C291 1.078 . S
C753 C21 0.869 . S
C772 C162 0.928 . S
C808 C202 1.374 . S
C789 C40 1.221 1_556 S
C844 C238 0.705 . S
C825 C59 0.689 . S
C861 C2 0.989 . S
C880 C282 1.075 . S
C897 C101 1.629 . S
C916 C167 1.658 . S
C933 C120 1.366 . S
C952 C207 1.368 . S
C988 C251 1.877 . S
C969 C139 1.775 . S
C1024 C287 1.375 . S
C1005 C82 1.360 . S
C1041 C25 1.636 . S
C1060 C158 1.659 . S
C1096 C198 1.365 . S
C1077 C44 1.365 . S
C1132 C242 1.881 . S
C1113 C63 1.777 . S
C1149 C6 1.360 . S
C1168 C278 1.359 . S
