# Generated by pormake.
# Topology anh, (6,3)-cn, num edge types: 1
# Building blocks:
#     Node 0, Type 0, BuildingBlock: BETDAH_clean_sbu_0, # of connection points: 6
#     Node 1, Type 0, BuildingBlock: BETDAH_clean_sbu_0, # of connection points: 6
#     Node 2, Type 0, BuildingBlock: BETDAH_clean_sbu_0, # of connection points: 6
#     Node 3, Type 1, BuildingBlock: BETDAH_clean_linker_0, # of connection points: 3
#     Node 4, Type 1, BuildingBlock: BETDAH_clean_linker_0, # of connection points: 3
#     Node 5, Type 1, BuildingBlock: BETDAH_clean_linker_0, # of connection points: 3
#     Node 6, Type 1, BuildingBlock: BETDAH_clean_linker_0, # of connection points: 3
#     Node 7, Type 1, BuildingBlock: BETDAH_clean_linker_0, # of connection points: 3
#     Node 8, Type 1, BuildingBlock: BETDAH_clean_linker_0, # of connection points: 3
#     Edge 9, Type (0, 1), BuildingBlock: UVAHIK_clean_linker_0, # of connection points: 2
#     Edge 10, Type (0, 1), BuildingBlock: UVAHIK_clean_linker_0, # of connection points: 2
#     Edge 11, Type (0, 1), BuildingBlock: UVAHIK_clean_linker_0, # of connection points: 2
#     Edge 12, Type (0, 1), BuildingBlock: UVAHIK_clean_linker_0, # of connection points: 2
#     Edge 13, Type (0, 1), BuildingBlock: UVAHIK_clean_linker_0, # of connection points: 2
#     Edge 14, Type (0, 1), BuildingBlock: UVAHIK_clean_linker_0, # of connection points: 2
#     Edge 15, Type (0, 1), BuildingBlock: UVAHIK_clean_linker_0, # of connection points: 2
#     Edge 16, Type (0, 1), BuildingBlock: UVAHIK_clean_linker_0, # of connection points: 2
#     Edge 17, Type (0, 1), BuildingBlock: UVAHIK_clean_linker_0, # of connection points: 2
#     Edge 18, Type (0, 1), BuildingBlock: UVAHIK_clean_linker_0, # of connection points: 2
#     Edge 19, Type (0, 1), BuildingBlock: UVAHIK_clean_linker_0, # of connection points: 2
#     Edge 20, Type (0, 1), BuildingBlock: UVAHIK_clean_linker_0, # of connection points: 2
#     Edge 21, Type (0, 1), BuildingBlock: UVAHIK_clean_linker_0, # of connection points: 2
#     Edge 22, Type (0, 1), BuildingBlock: UVAHIK_clean_linker_0, # of connection points: 2
#     Edge 23, Type (0, 1), BuildingBlock: UVAHIK_clean_linker_0, # of connection points: 2
#     Edge 24, Type (0, 1), BuildingBlock: UVAHIK_clean_linker_0, # of connection points: 2
#     Edge 25, Type (0, 1), BuildingBlock: UVAHIK_clean_linker_0, # of connection points: 2
#     Edge 26, Type (0, 1), BuildingBlock: UVAHIK_clean_linker_0, # of connection points: 2
# Relax obj value: 0.118
# Max RMSD: 0.168
# Mean RMSD: 0.105
data_MOF--net-anh--node1-BETDAH_clean_sbu_0--node2-BETDAH_clean_linker_0--edge1-UVAHIK_clean_linker_0
_symmetry_space_group_name_H-M    P1
_symmetry_Int_Tables_number       1
_symmetry_cell_setting            triclinic
loop_
_symmetry_equiv_pos_as_xyz
'x, y, z'
_cell_length_a     39.500691
_cell_length_b     47.341224
_cell_length_c     63.793011
_cell_angle_alpha  94.761816
_cell_angle_beta   90.330721
_cell_angle_gamma 127.67759
loop_
_atom_site_label
_atom_site_type_symbol
_atom_site_fract_x
_atom_site_fract_y
_atom_site_fract_z
_atom_type_partial_charge
Ho0 Ho 0.11188 0.54086 0.14855 0.0
Ho1 Ho 0.06653 0.56775 0.17109 0.0
C2 C 0.16325 0.62698 0.16266 0.0
C3 C 0.15303 0.52951 0.12238 0.0
C4 C 0.19617 0.53974 0.1217 0.0
C5 C 0.20525 0.52525 0.10474 0.0
C6 C 0.24317 0.52911 0.1055 0.0
C7 C 0.27264 0.54754 0.12329 0.0
C8 C 0.26468 0.56424 0.13963 0.0
C9 C 0.22659 0.56029 0.13886 0.0
C10 C 0.11585 0.54313 0.19091 0.0
C11 C 1.0152 0.48219 0.158 0.0
C12 C 1.02013 0.57449 0.19594 0.0
C13 C 0.97389 0.54901 0.19817 0.0
C14 C 0.95683 0.54753 0.21762 0.0
C15 C 0.91301 0.52124 0.21985 0.0
C16 C 0.88588 0.49601 0.20266 0.0
C17 C 0.90346 0.49782 0.18324 0.0
C18 C 0.94696 0.52384 0.18107 0.0
C19 C 0.06399 0.56508 0.1285 0.0
O20 O 0.1603 0.60173 0.14996 0.0
O21 O 0.13269 0.61927 0.17515 0.0
O22 O 0.1302 0.50838 0.13671 0.0
O23 O 0.14958 0.55513 0.1213 0.0
O24 O 0.11623 0.52035 0.17838 0.0
O25 O 0.11822 0.56558 0.18049 0.0
O26 O 1.01968 0.50754 0.17115 0.0
O27 O 1.04423 0.48997 0.14444 0.0
O28 O 1.03118 0.58823 0.17793 0.0
O29 O 1.04189 0.56367 0.20179 0.0
O30 O 0.06639 0.58961 0.14076 0.0
O31 O 0.06007 0.54243 0.13933 0.0
H32 H 0.18193 0.5092 0.09144 0.0
H33 H 0.24778 0.51539 0.09277 0.0
H34 H 0.28692 0.57891 0.15343 0.0
H35 H 0.21989 0.57171 0.15207 0.0
H36 H 0.97741 0.56641 0.23108 0.0
H37 H 0.90049 0.52047 0.23503 0.0
H38 H 0.88351 0.47947 0.1695 0.0
H39 H 0.95961 0.52414 0.16599 0.0
Ho40 Ho 0.6619 0.06187 0.48525 0.0
Ho41 Ho 0.6032 0.08068 0.47443 0.0
C42 C 0.55974 -0.00117 0.47386 0.0
C43 C 0.69713 0.03655 0.50167 0.0
C44 C 0.68339 0.00148 0.50705 0.0
C45 C 0.70829 0.00016 0.52204 0.0
C46 C 0.69664 0.96714 0.52689 0.0
C47 C 0.65976 0.93476 0.51681 0.0
C48 C 0.63445 0.93625 0.50201 0.0
C49 C 0.64617 0.96933 0.49717 0.0
C50 C 0.65728 0.07077 0.44446 0.0
C51 C 0.70687 0.14433 0.48337 0.0
C52 C 0.56812 0.10762 0.46041 0.0
C53 C 0.57455 0.14132 0.4665 0.0
C54 C 0.56108 0.15452 0.45253 0.0
C55 C 0.56674 0.18639 0.45843 0.0
C56 C 0.58586 0.20555 0.47847 0.0
C57 C 0.59966 0.19221 0.49232 0.0
C58 C 0.59426 0.16055 0.48634 0.0
C59 C 0.61048 0.0739 0.51549 0.0
O60 O 0.59463 0.00946 0.4852 0.0
O61 O 0.55843 0.02182 0.46423 0.0
O62 O 0.69606 0.03977 0.48156 0.0
O63 O 0.6826 0.05097 0.51289 0.0
O64 O 0.69185 0.07999 0.45453 0.0
O65 O 0.62616 0.05511 0.456 0.0
O66 O 0.66936 0.13405 0.47547 0.0
O67 O 0.71144 0.1215 0.49079 0.0
O68 O 0.55166 0.08474 0.47448 0.0
O69 O 0.60021 0.11095 0.45181 0.0
O70 O 0.57531 0.0641 0.50592 0.0
O71 O 0.64027 0.08877 0.50328 0.0
H72 H 0.73715 0.02473 0.52981 0.0
H73 H 0.71716 0.96701 0.53815 0.0
H74 H 0.60557 0.91185 0.49416 0.0
H75 H 0.62645 0.96982 0.48557 0.0
H76 H 0.54613 0.14017 0.43708 0.0
H77 H 0.5564 0.19612 0.44722 0.0
H78 H 0.61393 0.20584 0.50796 0.0
H79 H 0.60511 0.15084 0.49731 0.0
Ho80 Ho 0.61439 0.57742 0.84404 0.0
Ho81 Ho 0.55177 0.49562 0.841 0.0
C82 C 0.51094 0.53619 0.84493 0.0
C83 C 0.65717 0.64414 0.83755 0.0
C84 C 0.64909 0.66841 0.83054 0.0
C85 C 0.60744 0.65608 0.82476 0.0
C86 C 0.6006 0.6797 0.81797 0.0
C87 C 0.63542 0.71593 0.81667 0.0
C88 C 0.67709 0.72801 0.82242 0.0
C89 C 0.68381 0.70444 0.82933 0.0
C90 C 0.60021 0.54894 0.8808 0.0
C91 C 0.65611 0.53699 0.84223 0.0
C92 C 0.51291 0.42894 0.84605 0.0
C93 C 0.52214 0.40357 0.84074 0.0
C94 C 0.50589 0.37467 0.8526 0.0
C95 C 0.51508 0.35072 0.84795 0.0
C96 C 0.54062 0.35518 0.83126 0.0
C97 C 0.55713 0.3845 0.81953 0.0
C98 C 0.54815 0.40856 0.8243 0.0
C99 C 0.56554 0.52367 0.8041 0.0
O100 O 0.54857 0.56454 0.83957 0.0
O101 O 0.50595 0.50715 0.8496 0.0
O102 O 0.64378 0.6325 0.8559 0.0
O103 O 0.64933 0.61896 0.82327 0.0
O104 O 0.63723 0.5776 0.87668 0.0
O105 O 0.57273 0.53851 0.86592 0.0
O106 O 0.61665 0.50675 0.84285 0.0
O107 O 0.66355 0.56813 0.84118 0.0
O108 O 0.50372 0.43943 0.83012 0.0
O109 O 0.53931 0.45538 0.86053 0.0
O110 O 0.52884 0.49521 0.80859 0.0
O111 O 0.59361 0.53435 0.81879 0.0
H112 H 0.58034 0.62822 0.82538 0.0
H113 H 0.56818 0.66951 0.81345 0.0
H114 H 0.7045 0.75583 0.82186 0.0
H115 H 0.71619 0.71437 0.83372 0.0
H116 H 0.48625 0.37074 0.86554 0.0
H117 H 0.50251 0.32891 0.85758 0.0
H118 H 0.57648 0.38861 0.80644 0.0
H119 H 0.56141 0.431 0.8151 0.0
H120 H 0.53604 0.98809 0.22573 0.0
H121 H 0.63789 0.09434 0.21072 0.0
H122 H 0.54585 0.01311 0.16176 0.0
C123 C 0.55234 0.00719 0.21421 0.0
C124 C 0.5365 0.99633 0.19302 0.0
C125 C 0.58895 0.04238 0.22073 0.0
C126 C 0.60968 0.06716 0.20575 0.0
C127 C 0.59421 0.05644 0.18436 0.0
C128 C 0.55785 0.0211 0.17819 0.0
N129 N 0.61404 0.08021 0.16856 0.0
C130 C 0.65132 0.11546 0.17186 0.0
H131 H 0.619 0.50923 0.58651 0.0
H132 H 0.60705 0.5915 0.576 0.0
H133 H 0.60292 0.52647 0.52325 0.0
C134 C 0.616 0.52427 0.57575 0.0
C135 C 0.61151 0.51461 0.55392 0.0
C136 C 0.614 0.55173 0.58383 0.0
C137 C 0.60864 0.57035 0.56981 0.0
C138 C 0.605 0.56138 0.54788 0.0
C139 C 0.60605 0.53339 0.54015 0.0
N140 N 0.59956 0.57934 0.53307 0.0
C141 C 0.60264 0.61002 0.53806 0.0
H142 H 1.01989 0.55208 0.9075 0.0
H143 H 0.12329 0.54781 0.89435 0.0
H144 H 1.03787 0.53004 0.84344 0.0
C145 C 1.03739 0.54826 0.89612 0.0
C146 C 1.02368 0.54029 0.87461 0.0
C147 C 0.07295 0.55084 0.90336 0.0
C148 C 0.09596 0.54592 0.88877 0.0
C149 C 0.08383 0.53895 0.86704 0.0
C150 C 1.04768 0.53616 0.86012 0.0
N151 N 0.10667 0.53417 0.85171 0.0
C152 C 0.1435 0.53676 0.85558 0.0
H153 H 0.18561 0.63386 0.41033 0.0
H154 H 0.08859 0.52729 0.42663 0.0
H155 H 0.17689 0.61225 0.47499 0.0
C156 C 0.16963 0.61539 0.42219 0.0
C157 C 0.18515 0.62767 0.44339 0.0
C158 C 0.13486 0.57931 0.41596 0.0
C159 C 0.11547 0.55511 0.43131 0.0
C160 C 0.1307 0.56707 0.45269 0.0
C161 C 0.16552 0.60319 0.45851 0.0
N162 N 0.11204 0.5438 0.46881 0.0
C163 C 0.07625 0.50783 0.46578 0.0
H164 H 0.61699 0.10801 0.73569 0.0
H165 H 0.59732 0.0096 0.74334 0.0
H166 H 0.57791 0.06225 0.79457 0.0
C167 C 0.60955 0.08761 0.74561 0.0
C168 C 0.59785 0.08887 0.76619 0.0
C169 C 0.60902 0.05894 0.73723 0.0
C170 C 0.59801 0.03184 0.74984 0.0
C171 C 0.58726 0.03334 0.77069 0.0
C172 C 0.58669 0.06153 0.77857 0.0
N173 N 0.5758 0.00668 0.78409 0.0
C174 C 0.58371 0.98191 0.78056 0.0
H175 H 0.55159 0.36484 0.07005 0.0
H176 H 0.42367 0.32902 0.05468 0.0
H177 H 0.4526 0.30712 0.11294 0.0
C178 C 0.51857 0.35085 0.07385 0.0
C179 C 0.50601 0.33657 0.09332 0.0
C180 C 0.48932 0.34847 0.05965 0.0
C181 C 0.4465 0.32986 0.06477 0.0
C182 C 0.43325 0.31405 0.08365 0.0
C183 C 0.46282 0.31724 0.09777 0.0
N184 N 0.39206 0.30011 0.09009 0.0
C185 C 0.38366 0.32399 0.09591 0.0
C186 C 0.31399 0.5352 0.1453 0.0
C187 C 0.30722 0.54402 0.12601 0.0
C188 C 0.33707 0.52185 0.14642 0.0
C189 C 0.3995 0.49964 0.11544 0.0
H190 H 0.32647 0.40996 0.14024 0.0
C191 C 0.38623 0.37462 0.08706 0.0
C192 C 0.38119 0.35252 0.102 0.0
C193 C 0.38641 0.40374 0.09312 0.0
C194 C 0.34783 0.43517 0.1336 0.0
H195 H 0.32433 0.55046 0.09357 0.0
H196 H 0.36328 0.52604 0.09531 0.0
H197 H 0.3151 0.45469 0.1464 0.0
H198 H 0.37372 0.34325 0.13486 0.0
H199 H 0.37381 0.39424 0.14562 0.0
H200 H 0.43089 0.47904 0.10184 0.0
C201 C 0.35092 0.52943 0.10961 0.0
C202 C 0.34145 0.461 0.1372 0.0
C203 C 0.32814 0.54308 0.10853 0.0
C204 C 0.37688 0.35985 0.1231 0.0
C205 C 0.37707 0.38898 0.1292 0.0
C206 C 0.40585 0.4737 0.1118 0.0
C207 C 0.3535 0.51677 0.12826 0.0
C208 C 0.36637 0.4931 0.12768 0.0
C209 C 0.38174 0.4112 0.11426 0.0
C210 C 0.37923 0.44076 0.12035 0.0
H211 H 0.29844 0.53562 0.15911 0.0
H212 H 0.33944 0.51314 0.16116 0.0
H213 H 0.41959 0.52429 0.10811 0.0
H214 H 0.39014 0.36944 0.07073 0.0
H215 H 0.38939 0.41998 0.08118 0.0
C216 C 0.7403 0.20737 0.47605 0.0
C217 C 0.74492 0.18241 0.48306 0.0
C218 C 0.77623 0.24266 0.47427 0.0
C219 C 0.89266 0.29749 0.46815 0.0
H220 H 0.89093 0.37746 0.48393 0.0
C221 C 1.0443 0.44567 0.47172 0.0
C222 C 1.03941 0.47058 0.4652 0.0
C223 C 1.00834 0.41019 0.47313 0.0
C224 C 0.89176 0.3554 0.47917 0.0
H225 H 0.79113 0.17538 0.49411 0.0
H226 H 0.85383 0.23711 0.49118 0.0
H227 H 0.82862 0.31668 0.4889 0.0
H228 H 0.99403 0.47864 0.4547 0.0
H229 H 0.93084 0.41636 0.4568 0.0
H230 H 0.95579 0.33622 0.45841 0.0
C231 C 0.82235 0.22918 0.4868 0.0
C232 C 0.85604 0.32053 0.48207 0.0
C233 C 0.78635 0.19385 0.48865 0.0
C234 C 0.99832 0.45962 0.4597 0.0
C235 C 0.96227 0.42412 0.46109 0.0
C236 C 0.92838 0.33237 0.46523 0.0
C237 C 0.81775 0.25393 0.4794 0.0
C238 C 0.85604 0.29113 0.47662 0.0
C239 C 0.96679 0.39905 0.46808 0.0
C240 C 0.92841 0.36178 0.47071 0.0
H241 H 0.70891 0.19957 0.47159 0.0
H242 H 0.7715 0.26088 0.46832 0.0
H243 H 0.89348 0.27542 0.46343 0.0
H244 H 0.07587 0.45384 0.47623 0.0
H245 H 1.01304 0.3918 0.4788 0.0
C246 C 0.65589 0.76618 0.79565 0.0
C247 C 0.62851 0.74126 0.80958 0.0
C248 C 0.65067 0.79114 0.78971 0.0
C249 C 0.57346 0.81144 0.78881 0.0
H250 H 0.67615 0.90918 0.78688 0.0
C251 C 0.56507 0.92326 0.76708 0.0
C252 C 0.5918 0.95604 0.7798 0.0
C253 C 0.57049 0.89681 0.76813 0.0
C254 C 0.64714 0.88204 0.78741 0.0
H255 H 0.57396 0.72284 0.82806 0.0
H256 H 0.5651 0.76663 0.81793 0.0
H257 H 0.68255 0.86289 0.79411 0.0
H258 H 0.6452 0.98768 0.80332 0.0
H259 H 0.65466 0.94157 0.80541 0.0
H260 H 0.53805 0.83095 0.78298 0.0
C261 C 0.59017 0.7665 0.81127 0.0
C262 C 0.6508 0.85537 0.7913 0.0
C263 C 0.59527 0.74143 0.81713 0.0
C264 C 0.62455 0.96256 0.79323 0.0
C265 C 0.63 0.9362 0.79433 0.0
C266 C 0.5698 0.83815 0.78496 0.0
C267 C 0.61804 0.79189 0.79763 0.0
C268 C 0.61401 0.81979 0.79229 0.0
C269 C 0.60267 0.90279 0.78201 0.0
C270 C 0.60659 0.87388 0.78447 0.0
H271 H 0.68137 0.76634 0.78929 0.0
H272 H 0.67222 0.80984 0.77888 0.0
H273 H 0.54446 0.78425 0.78918 0.0
H274 H 0.53947 0.91782 0.75668 0.0
H275 H 0.54925 0.87157 0.75824 0.0
C276 C 0.81635 0.43505 0.19268 0.0
C277 C 0.83892 0.46918 0.20411 0.0
C278 C 0.77187 0.4133 0.18925 0.0
C279 C 0.69193 0.42877 0.18459 0.0
H280 H 0.62228 0.32934 0.16037 0.0
C281 C 0.57779 0.38099 0.11283 0.0
C282 C 0.53874 0.34609 0.11009 0.0
C283 C 0.60743 0.39143 0.12949 0.0
C284 C 0.64078 0.35692 0.1674 0.0
H285 H 0.83196 0.50487 0.22365 0.0
H286 H 0.75412 0.46598 0.21876 0.0
H287 H 0.68456 0.35309 0.18425 0.0
H288 H 0.50055 0.29459 0.12269 0.0
H289 H 0.55228 0.31323 0.15224 0.0
H290 H 0.64805 0.43253 0.16795 0.0
C291 C 0.77093 0.45679 0.21142 0.0
C292 C 0.67686 0.37072 0.18092 0.0
C293 C 0.81564 0.47896 0.21449 0.0
C294 C 0.53025 0.32175 0.12442 0.0
C295 C 0.55995 0.33235 0.14128 0.0
C296 C 0.65555 0.41483 0.17144 0.0
C297 C 0.74877 0.42485 0.19757 0.0
C298 C 0.70433 0.40739 0.18869 0.0
C299 C 0.5987 0.36748 0.14411 0.0
C300 C 0.63104 0.37939 0.16169 0.0
H301 H 0.8333 0.42615 0.18511 0.0
H302 H 0.75638 0.38894 0.17857 0.0
H303 H 0.71192 0.4571 0.19012 0.0
H304 H 0.58519 0.40075 0.10242 0.0
H305 H 0.63739 0.41842 0.13082 0.0
C306 C 0.48457 0.94848 0.45952 0.0
C307 C 0.52148 0.9605 0.47195 0.0
C308 C 0.44812 0.91255 0.45804 0.0
C309 C 0.41206 0.82151 0.4653 0.0
H310 H 0.29971 0.79895 0.46519 0.0
C311 C 0.25605 0.6755 0.46351 0.0
C312 C 0.22223 0.66599 0.44944 0.0
C313 C 0.29214 0.71146 0.46802 0.0
C314 C 0.33083 0.80477 0.46504 0.0
H315 H 0.54885 0.94397 0.49264 0.0
H316 H 0.4852 0.8813 0.49007 0.0
H317 H 0.36375 0.86148 0.46938 0.0
H318 H 0.19908 0.68693 0.42972 0.0
H319 H 0.26207 0.74941 0.43734 0.0
H320 H 0.37906 0.76476 0.46075 0.0
C321 C 0.48463 0.89964 0.48129 0.0
C322 C 0.36756 0.84063 0.46742 0.0
C323 C 0.52111 0.93563 0.4828 0.0
C324 C 0.22481 0.69332 0.44044 0.0
C325 C 0.26074 0.7292 0.44499 0.0
C326 C 0.37529 0.7856 0.46292 0.0
C327 C 0.44762 0.88769 0.46895 0.0
C328 C 0.40863 0.84947 0.46735 0.0
C329 C 0.29507 0.73871 0.45866 0.0
C330 C 0.33421 0.77681 0.46254 0.0
H331 H 0.48371 0.96683 0.45089 0.0
H332 H 0.42044 0.90416 0.44812 0.0
H333 H 0.44316 0.82734 0.46495 0.0
H334 H 0.25514 0.65506 0.4706 0.0
H335 H 0.31782 0.71792 0.4788 0.0
C336 C 0.5176 0.29225 0.82721 0.0
C337 C 0.54953 0.32915 0.82595 0.0
C338 C 0.52563 0.2677 0.82193 0.0
C339 C 0.59305 0.25483 0.79022 0.0
H340 H 0.55636 0.1789 0.8253 0.0
C341 C 0.62815 0.15376 0.77137 0.0
C342 C 0.59541 0.11781 0.77441 0.0
C343 C 0.62513 0.18079 0.77867 0.0
C344 C 0.5664 0.19968 0.81519 0.0
H345 H 0.61536 0.36908 0.81851 0.0
H346 H 0.62894 0.32601 0.80886 0.0
H347 H 0.54598 0.22362 0.83608 0.0
H348 H 0.53361 0.08191 0.78722 0.0
H349 H 0.52791 0.12879 0.79961 0.0
H350 H 0.61245 0.23049 0.76903 0.0
C351 C 0.59763 0.3162 0.81385 0.0
C352 C 0.56054 0.22535 0.82142 0.0
C353 C 0.58975 0.34084 0.81932 0.0
C354 C 0.55968 0.10946 0.78494 0.0
C355 C 0.5565 0.13639 0.7921 0.0
C356 C 0.59859 0.22898 0.78389 0.0
C357 C 0.56563 0.27938 0.81509 0.0
C358 C 0.57353 0.25304 0.80892 0.0
C359 C 0.58913 0.17242 0.78903 0.0
C360 C 0.58503 0.20089 0.79621 0.0
H361 H 0.48601 0.28215 0.83186 0.0
H362 H 0.50014 0.23942 0.82275 0.0
H363 H 0.60295 0.27565 0.78015 0.0
H364 H 0.65627 0.16102 0.76349 0.0
H365 H 0.65118 0.20829 0.77632 0.0
C366 C 0.63457 0.87242 0.50472 0.0
C367 C 0.64871 0.89972 0.52124 0.0
C368 C 0.62643 0.84024 0.50866 0.0
C369 C 0.65438 0.80217 0.54709 0.0
H370 H 0.56079 0.71146 0.51652 0.0
C371 C 0.6465 0.67581 0.54085 0.0
C372 C 0.60623 0.6423 0.54066 0.0
C373 C 0.64979 0.70696 0.54091 0.0
C374 C 0.58677 0.73646 0.52541 0.0
H375 H 0.66387 0.91395 0.55501 0.0
H376 H 0.64962 0.85775 0.5619 0.0
H377 H 0.56846 0.76567 0.51196 0.0
H378 H 0.53792 0.61438 0.54087 0.0
H379 H 0.54344 0.6689 0.5413 0.0
H380 H 0.6726 0.77292 0.56059 0.0
C381 C 0.64553 0.86152 0.54582 0.0
C382 C 0.59148 0.76764 0.52258 0.0
C383 C 0.65369 0.89373 0.54187 0.0
C384 C 0.56931 0.64017 0.5411 0.0
C385 C 0.57252 0.6713 0.54116 0.0
C386 C 0.64969 0.77098 0.5499 0.0
C387 C 0.63219 0.8345 0.52924 0.0
C388 C 0.62563 0.80096 0.5332 0.0
C389 C 0.61277 0.70503 0.54071 0.0
C390 C 0.61611 0.7378 0.53891 0.0
H391 H 0.63102 0.87633 0.4886 0.0
H392 H 0.61683 0.82026 0.49547 0.0
H393 H 0.68127 0.8274 0.55538 0.0
H394 H 0.67531 0.67781 0.5403 0.0
H395 H 0.68123 0.73236 0.54028 0.0
C396 C 0.73555 0.5677 0.84689 0.0
C397 C 0.69321 0.53591 0.8429 0.0
C398 C 0.77031 0.5667 0.8483 0.0
C399 C 0.79636 0.50383 0.85594 0.0
H400 H 0.90865 0.58324 0.84075 0.0
C401 C 0.94857 0.51912 0.88044 0.0
C402 C 0.98396 0.53593 0.8679 0.0
C403 C 0.91279 0.51757 0.87562 0.0
C404 C 0.87749 0.56051 0.84484 0.0
H405 H 0.65472 0.478 0.83676 0.0
H406 H 0.71502 0.47623 0.8385 0.0
H407 H 0.84782 0.58344 0.83516 0.0
H408 H 1.00805 0.56315 0.83976 0.0
H409 H 0.94496 0.55945 0.83088 0.0
H410 H 0.82561 0.48031 0.86495 0.0
C411 C 0.72157 0.50208 0.84118 0.0
C412 C 0.84245 0.5609 0.84193 0.0
C413 C 0.68676 0.50308 0.84001 0.0
C414 C 0.98154 0.54994 0.84981 0.0
C415 C 0.94543 0.54822 0.84488 0.0
C416 C 0.83126 0.50329 0.85866 0.0
C417 C 0.76402 0.53386 0.84553 0.0
C418 C 0.80129 0.53276 0.84768 0.0
C419 C 0.9106 0.53236 0.85787 0.0
C420 C 0.87264 0.53186 0.85346 0.0
H421 H 0.74192 0.59351 0.84937 0.0
H422 H 0.80209 0.59179 0.85206 0.0
H423 H 0.76563 0.48173 0.86083 0.0
H424 H 0.94859 0.50734 0.89428 0.0
H425 H 0.88729 0.50551 0.88627 0.0
C426 C 0.23479 0.67514 0.14966 0.0
C427 C 0.20212 0.66486 0.16333 0.0
C428 C 0.27094 0.7112 0.15024 0.0
C429 C 0.30863 0.80325 0.16855 0.0
H430 H 0.42234 0.82892 0.16639 0.0
C431 C 0.46124 0.94375 0.19839 0.0
C432 C 0.49744 0.95914 0.18659 0.0
C433 C 0.42495 0.9083 0.193 0.0
C434 C 0.39075 0.82215 0.1667 0.0
H435 H 0.18221 0.68444 0.18851 0.0
H436 H 0.24511 0.74671 0.18972 0.0
H437 H 0.35948 0.76568 0.16178 0.0
H438 H 0.52401 0.94963 0.1598 0.0
H439 H 0.46032 0.8873 0.15036 0.0
H440 H 0.33989 0.85961 0.17404 0.0
C441 C 0.24256 0.7272 0.17824 0.0
C442 C 0.35473 0.78594 0.16405 0.0
C443 C 0.20655 0.69133 0.17765 0.0
C444 C 0.49642 0.93847 0.16909 0.0
C445 C 0.46018 0.90279 0.1638 0.0
C446 C 0.34455 0.83934 0.1713 0.0
C447 C 0.2751 0.73766 0.16448 0.0
C448 C 0.31328 0.77606 0.16536 0.0
C449 C 0.42412 0.88732 0.17575 0.0
C450 C 0.38603 0.84918 0.1708 0.0
H451 H 0.23235 0.65544 0.1384 0.0
H452 H 0.29531 0.7184 0.13934 0.0
H453 H 0.27713 0.79662 0.16915 0.0
H454 H 0.461 0.95916 0.21185 0.0
H455 H 0.39786 0.89705 0.20264 0.0
C456 C 0.62715 0.26778 0.49772 0.0
C457 C 0.5908 0.23891 0.48511 0.0
C458 C 0.63095 0.29847 0.50465 0.0
C459 C 0.59265 0.34979 0.49305 0.0
H460 H 0.6256 0.38728 0.55208 0.0
C461 C 0.57953 0.45801 0.52986 0.0
C462 C 0.61099 0.48412 0.54553 0.0
C463 C 0.57837 0.42888 0.5222 0.0
C464 C 0.61703 0.37758 0.53548 0.0
H465 H 0.52997 0.22002 0.46992 0.0
H466 H 0.53717 0.27392 0.48164 0.0
H467 H 0.62182 0.33549 0.53899 0.0
H468 H 0.66636 0.50052 0.5652 0.0
H469 H 0.66502 0.45011 0.55153 0.0
H470 H 0.58835 0.39202 0.48939 0.0
C471 C 0.56277 0.27273 0.48607 0.0
C472 C 0.61474 0.3478 0.528 0.0
C473 C 0.55874 0.24188 0.4793 0.0
C474 C 0.64147 0.4806 0.55327 0.0
C475 C 0.64056 0.45162 0.54547 0.0
C476 C 0.59532 0.37978 0.50047 0.0
C477 C 0.59874 0.30123 0.49896 0.0
C478 C 0.60228 0.33345 0.50674 0.0
C479 C 0.60888 0.42527 0.52988 0.0
C480 C 0.60726 0.39395 0.52182 0.0
H481 H 0.65289 0.26682 0.50217 0.0
H482 H 0.65933 0.32023 0.51433 0.0
H483 H 0.58349 0.3396 0.47652 0.0
H484 H 0.55521 0.45971 0.52382 0.0
H485 H 0.55298 0.40882 0.51052 0.0
C486 C 0.47861 0.56869 0.84349 0.0
C487 C 0.47385 0.53729 0.84636 0.0
C488 C 0.44381 0.56965 0.8451 0.0
C489 C 0.33444 0.52093 0.86584 0.0
H490 H 0.32246 0.57581 0.82899 0.0
C491 C 0.20071 0.53849 0.8743 0.0
C492 C 0.18161 0.53836 0.85563 0.0
C493 C 0.23698 0.53933 0.87378 0.0
C494 C 0.32496 0.56008 0.83935 0.0
H495 H 0.42796 0.48208 0.85309 0.0
H496 H 0.36753 0.48354 0.85555 0.0
H497 H 0.38304 0.57462 0.8265 0.0
H498 H 0.18505 0.5388 0.82184 0.0
H499 H 0.24759 0.53983 0.82078 0.0
H500 H 0.27567 0.5056 0.87827 0.0
C501 C 0.39835 0.50778 0.85242 0.0
C502 C 0.36026 0.55979 0.8381 0.0
C503 C 0.43315 0.50686 0.85085 0.0
C504 C 0.19936 0.53912 0.8365 0.0
C505 C 0.23548 0.53995 0.83594 0.0
C506 C 0.2991 0.52122 0.86708 0.0
C507 C 0.40303 0.5392 0.84961 0.0
C508 C 0.36557 0.54007 0.85125 0.0
C509 C 0.25501 0.54007 0.85457 0.0
C510 C 0.29358 0.54063 0.85377 0.0
H511 H 0.50937 0.59277 0.84016 0.0
H512 H 0.44916 0.59456 0.84312 0.0
H513 H 0.33743 0.50579 0.87649 0.0
H514 H 0.1876 0.5379 0.88927 0.0
H515 H 0.25115 0.53979 0.88851 0.0
C516 C 0.97294 0.41612 0.14688 0.0
C517 C 0.97668 0.44446 0.15864 0.0
C518 C 0.93759 0.38046 0.14847 0.0
C519 C 0.85188 0.32373 0.18379 0.0
H520 H 0.8 0.25345 0.13446 0.0
C521 C 0.69233 0.17988 0.18412 0.0
C522 C 0.68968 0.15204 0.17256 0.0
C523 C 0.72803 0.21565 0.18309 0.0
C524 C 0.81444 0.27265 0.14844 0.0
H525 H 0.94553 0.4575 0.18092 0.0
H526 H 0.88369 0.39553 0.18332 0.0
H527 H 0.86008 0.31566 0.1308 0.0
H528 H 0.72154 0.13882 0.15121 0.0
H529 H 0.78431 0.20125 0.14954 0.0
H530 H 0.80602 0.28067 0.20141 0.0
C531 C 0.90848 0.40075 0.17322 0.0
C532 C 0.8489 0.30835 0.14634 0.0
C533 C 0.94386 0.43636 0.1717 0.0
C534 C 0.72324 0.16009 0.1603 0.0
C535 C 0.75887 0.19577 0.15921 0.0
C536 C 0.81735 0.28803 0.18589 0.0
C537 C 0.90508 0.37232 0.16179 0.0
C538 C 0.86811 0.33435 0.16398 0.0
C539 C 0.76145 0.22403 0.17037 0.0
C540 C 0.79828 0.26204 0.16825 0.0
H541 H 0.99771 0.42139 0.13675 0.0
H542 H 0.93626 0.35923 0.13961 0.0
H543 H 0.86632 0.34291 0.19778 0.0
H544 H 0.66641 0.17404 0.19354 0.0
H545 H 0.72882 0.23675 0.19172 0.0
C546 C 0.0748 0.59218 0.09467 0.0
C547 C 0.06871 0.56496 0.10553 0.0
C548 C 0.0799 0.59209 0.07296 0.0
C549 C 0.06 0.53176 0.02525 0.0
H550 H 0.13776 0.62126 0.00091 0.0
C551 C 0.08818 0.53405 0.93648 0.0
C552 C 0.08426 0.5573 0.92641 0.0
C553 C 0.09191 0.53673 0.95854 0.0
C554 C 0.11585 0.59605 0.00748 0.0
H555 H 0.0633 0.51638 0.10229 0.0
H556 H 0.07315 0.51661 0.06464 0.0
H557 H 0.13208 0.62209 0.03901 0.0
H558 H 0.08385 0.60291 0.9314 0.0
H559 H 0.09061 0.60776 0.9698 0.0
H560 H 1.04371 0.50577 0.9937 0.0
C561 C 0.07322 0.53771 0.07268 0.0
C562 C 0.11241 0.59651 0.02931 0.0
C563 C 0.06784 0.53769 0.09431 0.0
C564 C 0.08658 0.58451 0.93877 0.0
C565 C 0.09069 0.5874 0.96076 0.0
C566 C 0.06366 0.53129 0.00345 0.0
C567 C 0.07922 0.56485 0.06167 0.0
C568 C 0.0841 0.56439 0.03848 0.0
C569 C 0.09228 0.56296 0.97093 0.0
C570 C 0.09129 0.56344 -0.00573 0.0
H571 H 0.07553 0.61349 0.10294 0.0
H572 H 0.08378 0.61312 0.06499 0.0
H573 H 1.03735 0.50653 0.03164 0.0
H574 H 0.08626 0.51273 0.92734 0.0
H575 H 0.09358 0.51777 0.96592 0.0
C576 C 0.61451 0.06035 0.41153 0.0
C577 C 0.65406 0.07422 0.42189 0.0
C578 C 0.61153 0.06222 0.38988 0.0
C579 C 0.66662 0.06938 0.34191 0.0
H580 H 0.59189 0.08649 0.31671 0.0
C581 C 0.61351 0.08341 0.25448 0.0
C582 C 0.60485 0.05255 0.24329 0.0
C583 C 0.62392 0.09051 0.27629 0.0
C584 C 0.61332 0.08212 0.32353 0.0
H585 H 0.72172 0.10208 0.41805 0.0
H586 H 0.71665 0.10559 0.38037 0.0
H587 H 0.60102 0.09113 0.3551 0.0
H588 H 0.60226 0.00591 0.24586 0.0
H589 H 0.62031 0.01819 0.28373 0.0
H590 H 0.67881 0.0602 0.31042 0.0
C591 C 0.68778 0.09273 0.3888 0.0
C592 C 0.61814 0.08435 0.3455 0.0
C593 C 0.69073 0.09086 0.4104 0.0
C594 C 0.60846 0.02976 0.25412 0.0
C595 C 0.61913 0.03696 0.2758 0.0
C596 C 0.6617 0.06704 0.31999 0.0
C597 C 0.64806 0.07801 0.37821 0.0
C598 C 0.64451 0.07763 0.35494 0.0
C599 C 0.62635 0.0671 0.28721 0.0
C600 C 0.63456 0.0729 0.31052 0.0
H601 H 0.58575 0.04748 0.42006 0.0
H602 H 0.58038 0.05034 0.38218 0.0
H603 H 0.68686 0.0637 0.34862 0.0
H604 H 0.61075 0.10132 0.24651 0.0
H605 H 0.6297 0.11412 0.28463 0.0
C606 C 0.6153 0.55314 0.77542 0.0
C607 C 0.57436 0.5358 0.7829 0.0
C608 C 0.62189 0.56057 0.75438 0.0
C609 C 0.55948 0.53099 0.70249 0.0
H610 H 0.66876 0.60945 0.68385 0.0
C611 C 0.58182 0.55876 0.61558 0.0
C612 C 0.61461 0.55899 0.60695 0.0
C613 C 0.57916 0.56102 0.63742 0.0
C614 C 0.63808 0.58748 0.6889 0.0
H615 H 0.509 0.51492 0.77498 0.0
H616 H 0.52075 0.5296 0.73878 0.0
H617 H 0.65942 0.60469 0.7216 0.0
H618 H 0.67153 0.56362 0.6143 0.0
H619 H 0.66735 0.56831 0.65261 0.0
H620 H 0.53809 0.51424 0.66979 0.0
C621 C 0.54749 0.53599 0.74862 0.0
C622 C 0.63272 0.58455 0.71051 0.0
C623 C 0.54075 0.52785 0.76945 0.0
C624 C 0.64586 0.56326 0.62059 0.0
C625 C 0.64361 0.56613 0.64246 0.0
C626 C 0.56463 0.53433 0.681 0.0
C627 C 0.5878 0.55144 0.74055 0.0
C628 C 0.5934 0.55605 0.71762 0.0
C629 C 0.60964 0.56415 0.65104 0.0
C630 C 0.60402 0.56239 0.67397 0.0
H631 H 0.64174 0.55947 0.78553 0.0
H632 H 0.65329 0.57215 0.74882 0.0
H633 H 0.52909 0.50809 0.70715 0.0
H634 H 0.55715 0.55523 0.60541 0.0
H635 H 0.55276 0.55958 0.64367 0.0
C636 C 0.65586 0.09022 0.54855 0.0
C637 C 0.61519 0.06974 0.5377 0.0
C638 C 0.65989 0.08729 0.56991 0.0
C639 C 0.60737 0.02849 0.61155 0.0
H640 H 0.66381 0.11603 0.64963 0.0
C641 C 0.58466 0.02688 0.70082 0.0
C642 C 0.61679 0.05637 0.71475 0.0
C643 C 0.58898 0.02692 0.67907 0.0
C644 C 0.64884 0.09134 0.63932 0.0
H645 H 0.54707 0.02931 0.54027 0.0
H646 H 0.55421 0.02357 0.57753 0.0
H647 H 0.66353 0.11883 0.61175 0.0
H648 H 0.67964 0.10802 0.71727 0.0
H649 H 0.68851 0.10743 0.67945 0.0
H650 H 0.59311 0.00087 0.63894 0.0
C651 C 0.58285 0.04207 0.56957 0.0
C652 C 0.64851 0.09303 0.61757 0.0
C653 C 0.57876 0.04552 0.54835 0.0
C654 C 0.65434 0.08505 0.70674 0.0
C655 C 0.65911 0.08481 0.68505 0.0
C656 C 0.6084 0.02682 0.63332 0.0
C657 C 0.62338 0.06327 0.58062 0.0
C658 C 0.62711 0.06158 0.60351 0.0
C659 C 0.62591 0.05625 0.67082 0.0
C660 C 0.62842 0.05816 0.64756 0.0
H661 H 0.68443 0.10905 0.54065 0.0
H662 H 0.69148 0.10385 0.5781 0.0
H663 H 0.59097 0.00388 0.60098 0.0
H664 H 0.55519 0.00465 0.70665 0.0
H665 H 0.56237 0.00466 0.66876 0.0
C666 C 0.54971 0.49918 0.90216 0.0
C667 C 0.59144 0.52994 0.89963 0.0
C668 C 0.54132 0.47981 0.9193 0.0
C669 C 0.54197 0.4329 0.94918 0.0
H670 H 0.57616 0.48102 0.00613 0.0
C671 C 0.47755 0.35408 0.02183 0.0
C672 C 0.50422 0.36817 0.04056 0.0
C673 C 0.4904 0.37379 0.00446 0.0
C674 C 0.56704 0.46715 0.99034 0.0
H675 H 0.65688 0.5654 0.91337 0.0
H676 H 0.64189 0.53191 0.94386 0.0
H677 H 0.59542 0.51605 0.9763 0.0
H678 H 0.56575 0.41427 0.05549 0.0
H679 H 0.58897 0.44757 0.02496 0.0
H680 H 0.51425 0.38411 0.96298 0.0
C681 C 0.61589 0.52259 0.93234 0.0
C682 C 0.57797 0.48729 0.97328 0.0
C683 C 0.62445 0.54169 0.91494 0.0
C684 C 0.54453 0.40215 0.04126 0.0
C685 C 0.5576 0.42164 0.02382 0.0
C686 C 0.53157 0.41281 0.9662 0.0
C687 C 0.57433 0.49122 0.93451 0.0
C688 C 0.56505 0.47028 0.95256 0.0
C689 C 0.5305 0.40796 0.00526 0.0
C690 C 0.54348 0.42958 0.98705 0.0
H691 H 0.52352 0.48981 0.89075 0.0
H692 H 0.50888 0.45603 0.92078 0.0
H693 H 0.5321 0.41921 0.93331 0.0
H694 H 0.44649 0.32788 0.0206 0.0
H695 H 0.46834 0.36247 0.99058 0.0
C696 C 0.11663 0.57054 0.22628 0.0
C697 C 0.11316 0.54281 0.21395 0.0
C698 C 0.11276 0.56966 0.24802 0.0
C699 C 0.12423 0.53213 0.29318 0.0
H700 H 0.05941 0.55946 0.32072 0.0
C701 C 0.11304 0.53628 0.38343 0.0
C702 C 0.1203 0.56742 0.39324 0.0
C703 C 0.10515 0.52804 0.3615 0.0
C704 C 0.07781 0.55192 0.3133 0.0
H705 H 0.10349 0.49264 0.21458 0.0
H706 H 0.09715 0.49124 0.25267 0.0
H707 H 0.06089 0.55619 0.2824 0.0
H708 H 0.1221 0.61296 0.38796 0.0
H709 H 0.10924 0.5991 0.34988 0.0
H710 H 0.14226 0.5289 0.32405 0.0
C711 C 0.10279 0.51364 0.24554 0.0
C712 C 0.07867 0.55007 0.29135 0.0
C713 C 0.10636 0.51441 0.22376 0.0
C714 C 0.11721 0.58903 0.38082 0.0
C715 C 0.10936 0.58084 0.35898 0.0
C716 C 0.12357 0.53416 0.31516 0.0
C717 C 0.10576 0.54118 0.2579 0.0
C718 C 0.10244 0.54071 0.28107 0.0
C719 C 0.10421 0.55071 0.34896 0.0
C720 C 0.10093 0.54466 0.32552 0.0
H721 H 0.12237 0.59297 0.21914 0.0
H722 H 0.11593 0.59159 0.25716 0.0
H723 H 0.14315 0.52514 0.28575 0.0
H724 H 0.11533 0.51916 0.39257 0.0
H725 H 0.10069 0.50433 0.35432 0.0
loop_
_geom_bond_atom_site_label_1
_geom_bond_atom_site_label_2
_geom_bond_distance
_geom_bond_site_symmetry_2
_ccdc_geom_bond_type
Ho0 C3 2.811 . S
Ho0 O20 2.322 . S
Ho0 O22 2.378 . S
Ho0 O23 2.524 . S
Ho0 O24 2.381 . S
Ho0 O25 2.669 . S
Ho0 O27 2.346 1_455 S
Ho0 O31 2.305 . S
Ho1 C12 2.811 1_455 S
Ho1 O21 2.346 . S
Ho1 O25 2.305 . S
Ho1 O26 2.322 1_455 S
Ho1 O28 2.378 1_455 S
Ho1 O29 2.524 1_455 S
Ho1 O30 2.381 . S
Ho1 O31 2.669 . S
C2 O20 1.259 . S
C2 O21 1.268 . S
C3 Ho0 2.811 . S
C3 C4 1.488 . S
C3 O22 1.215 . S
C3 O23 1.289 . S
C4 C3 1.488 . S
C4 C5 1.348 . S
C4 C9 1.413 . S
C5 C4 1.348 . S
C5 C6 1.442 . S
C5 H32 0.930 . S
C6 C5 1.442 . S
C6 C7 1.381 . S
C6 H33 0.931 . S
C7 C6 1.381 . S
C7 C8 1.321 . S
C8 C7 1.321 . S
C8 C9 1.403 . S
C8 H34 0.934 . S
C9 C4 1.413 . S
C9 C8 1.403 . S
C9 H35 0.930 . S
C10 O24 1.275 . S
C10 O25 1.256 . S
C11 O26 1.259 . S
C11 O27 1.268 . S
C12 Ho1 2.811 1_655 S
C12 C13 1.488 . S
C12 O28 1.215 . S
C12 O29 1.289 . S
C13 C12 1.488 . S
C13 C14 1.348 . S
C13 C18 1.413 . S
C14 C13 1.348 . S
C14 C15 1.442 . S
C14 H36 0.930 . S
C15 C14 1.442 . S
C15 C16 1.381 . S
C15 H37 0.931 . S
C16 C15 1.381 . S
C16 C17 1.321 . S
C17 C16 1.321 . S
C17 C18 1.403 . S
C17 H38 0.934 . S
C18 C13 1.413 . S
C18 C17 1.403 . S
C18 H39 0.930 . S
C19 O30 1.275 . S
C19 O31 1.256 . S
O20 Ho0 2.322 . S
O20 C2 1.259 . S
O21 Ho1 2.346 . S
O21 C2 1.268 . S
O22 Ho0 2.378 . S
O22 C3 1.215 . S
O23 Ho0 2.524 . S
O23 C3 1.289 . S
O24 Ho0 2.381 . S
O24 C10 1.275 . S
O25 Ho0 2.669 . S
O25 Ho1 2.305 . S
O25 C10 1.256 . S
O26 Ho1 2.322 1_655 S
O26 C11 1.259 . S
O27 Ho0 2.346 1_655 S
O27 C11 1.268 . S
O28 Ho1 2.378 1_655 S
O28 C12 1.215 . S
O29 Ho1 2.524 1_655 S
O29 C12 1.289 . S
O30 Ho1 2.381 . S
O30 C19 1.275 . S
O31 Ho0 2.305 . S
O31 Ho1 2.669 . S
O31 C19 1.256 . S
H32 C5 0.930 . S
H33 C6 0.931 . S
H34 C8 0.934 . S
H35 C9 0.930 . S
H36 C14 0.930 . S
H37 C15 0.931 . S
H38 C17 0.934 . S
H39 C18 0.930 . S
Ho40 C43 2.811 1_545 S
Ho40 O60 2.322 1_545 S
Ho40 O62 2.378 1_545 S
Ho40 O63 2.524 1_545 S
Ho40 O64 2.381 . S
Ho40 O65 2.669 . S
Ho40 O67 2.346 . S
Ho40 O71 2.305 . S
Ho41 C52 2.811 . S
Ho41 O61 2.346 1_545 S
Ho41 O65 2.305 . S
Ho41 O66 2.322 . S
Ho41 O68 2.378 . S
Ho41 O69 2.524 . S
Ho41 O70 2.381 . S
Ho41 O71 2.669 . S
C42 O60 1.259 . S
C42 O61 1.268 . S
C43 Ho40 2.811 1_565 S
C43 C44 1.488 . S
C43 O62 1.215 . S
C43 O63 1.289 . S
C44 C43 1.488 . S
C44 C45 1.348 . S
C44 C49 1.413 . S
C45 C44 1.348 . S
C45 C46 1.442 . S
C45 H72 0.930 . S
C46 C45 1.442 . S
C46 C47 1.381 . S
C46 H73 0.931 . S
C47 C46 1.381 . S
C47 C48 1.321 . S
C48 C47 1.321 . S
C48 C49 1.403 . S
C48 H74 0.934 . S
C49 C44 1.413 . S
C49 C48 1.403 . S
C49 H75 0.930 . S
C50 O64 1.275 . S
C50 O65 1.256 . S
C51 O66 1.259 . S
C51 O67 1.268 . S
C52 Ho41 2.811 . S
C52 C53 1.488 . S
C52 O68 1.215 . S
C52 O69 1.289 . S
C53 C52 1.488 . S
C53 C54 1.348 . S
C53 C58 1.413 . S
C54 C53 1.348 . S
C54 C55 1.442 . S
C54 H76 0.930 . S
C55 C54 1.442 . S
C55 C56 1.381 . S
C55 H77 0.931 . S
C56 C55 1.381 . S
C56 C57 1.321 . S
C57 C56 1.321 . S
C57 C58 1.403 . S
C57 H78 0.934 . S
C58 C53 1.413 . S
C58 C57 1.403 . S
C58 H79 0.930 . S
C59 O70 1.275 . S
C59 O71 1.256 . S
O60 Ho40 2.322 1_565 S
O60 C42 1.259 . S
O61 Ho41 2.346 1_565 S
O61 C42 1.268 . S
O62 Ho40 2.378 1_565 S
O62 C43 1.215 . S
O63 Ho40 2.524 1_565 S
O63 C43 1.289 . S
O64 Ho40 2.381 . S
O64 C50 1.275 . S
O65 Ho40 2.669 . S
O65 Ho41 2.305 . S
O65 C50 1.256 . S
O66 Ho41 2.322 . S
O66 C51 1.259 . S
O67 Ho40 2.346 . S
O67 C51 1.268 . S
O68 Ho41 2.378 . S
O68 C52 1.215 . S
O69 Ho41 2.524 . S
O69 C52 1.289 . S
O70 Ho41 2.381 . S
O70 C59 1.275 . S
O71 Ho40 2.305 . S
O71 Ho41 2.669 . S
O71 C59 1.256 . S
H72 C45 0.930 . S
H73 C46 0.931 . S
H74 C48 0.934 . S
H75 C49 0.930 . S
H76 C54 0.930 . S
H77 C55 0.931 . S
H78 C57 0.934 . S
H79 C58 0.930 . S
Ho80 C83 2.811 . S
Ho80 O100 2.322 . S
Ho80 O102 2.378 . S
Ho80 O103 2.524 . S
Ho80 O104 2.381 . S
Ho80 O105 2.669 . S
Ho80 O107 2.346 . S
Ho80 O111 2.305 . S
Ho81 C92 2.811 . S
Ho81 O101 2.346 . S
Ho81 O105 2.305 . S
Ho81 O106 2.322 . S
Ho81 O108 2.378 . S
Ho81 O109 2.524 . S
Ho81 O110 2.381 . S
Ho81 O111 2.669 . S
C82 O100 1.259 . S
C82 O101 1.268 . S
C83 Ho80 2.811 . S
C83 C84 1.488 . S
C83 O102 1.215 . S
C83 O103 1.289 . S
C84 C83 1.488 . S
C84 C85 1.348 . S
C84 C89 1.413 . S
C85 C84 1.348 . S
C85 C86 1.442 . S
C85 H112 0.930 . S
C86 C85 1.442 . S
C86 C87 1.381 . S
C86 H113 0.931 . S
C87 C86 1.381 . S
C87 C88 1.321 . S
C88 C87 1.321 . S
C88 C89 1.403 . S
C88 H114 0.934 . S
C89 C84 1.413 . S
C89 C88 1.403 . S
C89 H115 0.930 . S
C90 O104 1.275 . S
C90 O105 1.256 . S
C91 O106 1.259 . S
C91 O107 1.268 . S
C92 Ho81 2.811 . S
C92 C93 1.488 . S
C92 O108 1.215 . S
C92 O109 1.289 . S
C93 C92 1.488 . S
C93 C94 1.348 . S
C93 C98 1.413 . S
C94 C93 1.348 . S
C94 C95 1.442 . S
C94 H116 0.930 . S
C95 C94 1.442 . S
C95 C96 1.381 . S
C95 H117 0.931 . S
C96 C95 1.381 . S
C96 C97 1.321 . S
C97 C96 1.321 . S
C97 C98 1.403 . S
C97 H118 0.934 . S
C98 C93 1.413 . S
C98 C97 1.403 . S
C98 H119 0.930 . S
C99 O110 1.275 . S
C99 O111 1.256 . S
O100 Ho80 2.322 . S
O100 C82 1.259 . S
O101 Ho81 2.346 . S
O101 C82 1.268 . S
O102 Ho80 2.378 . S
O102 C83 1.215 . S
O103 Ho80 2.524 . S
O103 C83 1.289 . S
O104 Ho80 2.381 . S
O104 C90 1.275 . S
O105 Ho80 2.669 . S
O105 Ho81 2.305 . S
O105 C90 1.256 . S
O106 Ho81 2.322 . S
O106 C91 1.259 . S
O107 Ho80 2.346 . S
O107 C91 1.268 . S
O108 Ho81 2.378 . S
O108 C92 1.215 . S
O109 Ho81 2.524 . S
O109 C92 1.289 . S
O110 Ho81 2.381 . S
O110 C99 1.275 . S
O111 Ho80 2.305 . S
O111 Ho81 2.669 . S
O111 C99 1.256 . S
H112 C85 0.930 . S
H113 C86 0.931 . S
H114 C88 0.934 . S
H115 C89 0.930 . S
H116 C94 0.930 . S
H117 C95 0.931 . S
H118 C97 0.934 . S
H119 C98 0.930 . S
H120 C123 0.929 1_565 S
H121 C126 0.929 . S
H122 C128 0.930 . S
C123 H120 0.929 1_545 S
C123 C124 1.398 . S
C123 C125 1.396 . S
C124 C123 1.398 . S
C124 C128 1.407 . S
C125 C123 1.396 . S
C125 C126 1.394 . S
C126 H121 0.929 . S
C126 C125 1.394 . S
C126 C127 1.382 . S
C127 C126 1.382 . S
C127 C128 1.392 . S
C127 N129 1.420 . S
C128 H122 0.930 . S
C128 C124 1.407 . S
C128 C127 1.392 . S
N129 C127 1.420 . S
N129 C130 1.244 . S
C130 N129 1.244 . S
H131 C134 0.929 . S
H132 C137 0.929 . S
H133 C139 0.930 . S
C134 H131 0.929 . S
C134 C135 1.398 . S
C134 C136 1.396 . S
C135 C134 1.398 . S
C135 C139 1.407 . S
C136 C134 1.396 . S
C136 C137 1.394 . S
C137 H132 0.929 . S
C137 C136 1.394 . S
C137 C138 1.382 . S
C138 C137 1.382 . S
C138 C139 1.392 . S
C138 N140 1.420 . S
C139 H133 0.930 . S
C139 C135 1.407 . S
C139 C138 1.392 . S
N140 C138 1.420 . S
N140 C141 1.244 . S
C141 N140 1.244 . S
H142 C145 0.929 . S
H143 C148 0.929 . S
H144 C150 0.930 . S
C145 H142 0.929 . S
C145 C146 1.398 . S
C145 C147 1.396 . S
C146 C145 1.398 . S
C146 C150 1.407 . S
C147 C145 1.396 . S
C147 C148 1.394 . S
C148 H143 0.929 . S
C148 C147 1.394 . S
C148 C149 1.382 . S
C149 C148 1.382 . S
C149 C150 1.392 . S
C149 N151 1.420 . S
C150 H144 0.930 . S
C150 C146 1.407 . S
C150 C149 1.392 . S
N151 C149 1.420 . S
N151 C152 1.244 . S
C152 N151 1.244 . S
H153 C156 0.929 . S
H154 C159 0.929 . S
H155 C161 0.930 . S
C156 H153 0.929 . S
C156 C157 1.398 . S
C156 C158 1.396 . S
C157 C156 1.398 . S
C157 C161 1.407 . S
C158 C156 1.396 . S
C158 C159 1.394 1_455 S
C159 H154 0.929 . S
C159 C158 1.394 1_655 S
C159 C160 1.382 . S
C160 C159 1.382 . S
C160 C161 1.392 1_655 S
C160 N162 1.420 . S
C161 H155 0.930 . S
C161 C157 1.407 . S
C161 C160 1.392 1_455 S
N162 C160 1.420 . S
N162 C163 1.244 . S
C163 N162 1.244 . S
H164 C167 0.929 . S
H165 C170 0.902 1_565 S
H166 C172 0.930 . S
C167 H164 0.929 . S
C167 C168 1.398 . S
C167 C169 1.396 . S
C168 C167 1.398 . S
C168 C172 1.407 . S
C169 C167 1.396 . S
C169 C170 1.394 . S
C170 H165 0.902 1_545 S
C170 C169 1.394 . S
C170 C171 1.382 . S
C171 C170 1.382 . S
C171 C172 1.392 . S
C171 N173 1.420 . S
C172 H166 0.930 . S
C172 C168 1.407 . S
C172 C171 1.392 . S
N173 C171 1.420 . S
N173 C174 1.244 1_545 S
C174 N173 1.244 1_565 S
H175 C178 0.929 . S
H176 C181 0.929 . S
H177 C183 0.930 . S
C178 H175 0.929 . S
C178 C179 1.398 . S
C178 C180 1.396 . S
C179 C178 1.398 . S
C179 C183 1.407 . S
C180 C178 1.396 . S
C180 C181 1.394 . S
C181 H176 0.929 . S
C181 C180 1.394 . S
C181 C182 1.382 . S
C182 C181 1.382 . S
C182 C183 1.392 . S
C182 N184 1.420 . S
C183 H177 0.930 . S
C183 C179 1.407 . S
C183 C182 1.392 . S
N184 C182 1.420 . S
N184 C185 1.244 . S
C185 N184 1.244 . S
C186 C187 1.349 . S
C186 C188 1.327 . S
C186 H211 0.950 . S
C187 C186 1.349 . S
C187 C203 1.349 . S
C188 C186 1.327 . S
C188 C207 1.429 . S
C188 H212 0.950 . S
C189 C206 1.574 . S
C189 C208 1.368 . S
C189 H213 0.949 . S
H190 C194 0.949 . S
C191 C192 1.349 . S
C191 C193 1.327 . S
C191 H214 0.950 . S
C192 C191 1.349 . S
C192 C204 1.349 . S
C193 C191 1.327 . S
C193 C209 1.429 . S
C193 H215 0.950 . S
C194 H190 0.949 . S
C194 C202 1.574 . S
C194 C210 1.368 . S
H195 C203 0.950 . S
H196 C201 0.950 . S
H197 C202 0.949 . S
H198 C204 0.950 . S
H199 C205 0.950 . S
H200 C206 0.949 . S
C201 H196 0.950 . S
C201 C203 1.327 . S
C201 C207 1.429 . S
C202 C194 1.574 . S
C202 H197 0.949 . S
C202 C208 1.368 . S
C203 C187 1.349 . S
C203 H195 0.950 . S
C203 C201 1.327 . S
C204 C192 1.349 . S
C204 H198 0.950 . S
C204 C205 1.327 . S
C205 H199 0.950 . S
C205 C204 1.327 . S
C205 C209 1.429 . S
C206 C189 1.574 . S
C206 H200 0.949 . S
C206 C210 1.368 . S
C207 C188 1.429 . S
C207 C201 1.429 . S
C207 C208 1.523 . S
C208 C189 1.368 . S
C208 C202 1.368 . S
C208 C207 1.523 . S
C209 C193 1.429 . S
C209 C205 1.429 . S
C209 C210 1.523 . S
C210 C194 1.368 . S
C210 C206 1.368 . S
C210 C209 1.523 . S
H211 C186 0.950 . S
H212 C188 0.950 . S
H213 C189 0.949 . S
H214 C191 0.950 . S
H215 C193 0.950 . S
C216 C217 1.349 . S
C216 C218 1.327 . S
C216 H241 0.950 . S
C217 C216 1.349 . S
C217 C233 1.349 . S
C218 C216 1.327 . S
C218 C237 1.429 . S
C218 H242 0.950 . S
C219 C236 1.574 . S
C219 C238 1.368 . S
C219 H243 0.949 . S
H220 C224 0.949 . S
C221 C222 1.349 . S
C221 C223 1.327 . S
C221 H244 0.950 . S
C222 C221 1.349 . S
C222 C234 1.349 . S
C223 C221 1.327 . S
C223 C239 1.429 . S
C223 H245 0.950 . S
C224 H220 0.949 . S
C224 C232 1.574 . S
C224 C240 1.368 . S
H225 C233 0.950 . S
H226 C231 0.950 . S
H227 C232 0.949 . S
H228 C234 0.950 . S
H229 C235 0.950 . S
H230 C236 0.949 . S
C231 H226 0.950 . S
C231 C233 1.327 . S
C231 C237 1.429 . S
C232 C224 1.574 . S
C232 H227 0.949 . S
C232 C238 1.368 . S
C233 C217 1.349 . S
C233 H225 0.950 . S
C233 C231 1.327 . S
C234 C222 1.349 . S
C234 H228 0.950 . S
C234 C235 1.327 . S
C235 H229 0.950 . S
C235 C234 1.327 . S
C235 C239 1.429 . S
C236 C219 1.574 . S
C236 H230 0.949 . S
C236 C240 1.368 . S
C237 C218 1.429 . S
C237 C231 1.429 . S
C237 C238 1.523 . S
C238 C219 1.368 . S
C238 C232 1.368 . S
C238 C237 1.523 . S
C239 C223 1.429 . S
C239 C235 1.429 . S
C239 C240 1.523 . S
C240 C224 1.368 . S
C240 C236 1.368 . S
C240 C239 1.523 . S
H241 C216 0.950 . S
H242 C218 0.950 . S
H243 C219 0.949 . S
H244 C221 0.950 . S
H245 C223 0.950 . S
C246 C247 1.349 . S
C246 C248 1.327 . S
C246 H271 0.950 . S
C247 C246 1.349 . S
C247 C263 1.349 . S
C248 C246 1.327 . S
C248 C267 1.429 . S
C248 H272 0.950 . S
C249 C266 1.574 . S
C249 C268 1.368 . S
C249 H273 0.949 . S
H250 C254 0.949 . S
C251 C252 1.349 . S
C251 C253 1.327 . S
C251 H274 0.950 . S
C252 C251 1.349 . S
C252 C264 1.349 . S
C253 C251 1.327 . S
C253 C269 1.429 . S
C253 H275 0.950 . S
C254 H250 0.949 . S
C254 C262 1.574 . S
C254 C270 1.368 . S
H255 C263 0.950 . S
H256 C261 0.950 . S
H257 C262 0.949 . S
H258 C264 0.950 . S
H259 C265 0.950 . S
H260 C266 0.949 . S
C261 H256 0.950 . S
C261 C263 1.327 . S
C261 C267 1.429 . S
C262 C254 1.574 . S
C262 H257 0.949 . S
C262 C268 1.368 . S
C263 C247 1.349 . S
C263 H255 0.950 . S
C263 C261 1.327 . S
C264 C252 1.349 . S
C264 H258 0.950 . S
C264 C265 1.327 . S
C265 H259 0.950 . S
C265 C264 1.327 . S
C265 C269 1.429 . S
C266 C249 1.574 . S
C266 H260 0.949 . S
C266 C270 1.368 . S
C267 C248 1.429 . S
C267 C261 1.429 . S
C267 C268 1.523 . S
C268 C249 1.368 . S
C268 C262 1.368 . S
C268 C267 1.523 . S
C269 C253 1.429 . S
C269 C265 1.429 . S
C269 C270 1.523 . S
C270 C254 1.368 . S
C270 C266 1.368 . S
C270 C269 1.523 . S
H271 C246 0.950 . S
H272 C248 0.950 . S
H273 C249 0.949 . S
H274 C251 0.950 . S
H275 C253 0.950 . S
C276 C277 1.349 . S
C276 C278 1.327 . S
C276 H301 0.950 . S
C277 C276 1.349 . S
C277 C293 1.349 . S
C278 C276 1.327 . S
C278 C297 1.429 . S
C278 H302 0.950 . S
C279 C296 1.574 . S
C279 C298 1.368 . S
C279 H303 0.949 . S
H280 C284 0.949 . S
C281 C282 1.349 . S
C281 C283 1.327 . S
C281 H304 0.950 . S
C282 C281 1.349 . S
C282 C294 1.349 . S
C283 C281 1.327 . S
C283 C299 1.429 . S
C283 H305 0.950 . S
C284 H280 0.949 . S
C284 C292 1.574 . S
C284 C300 1.368 . S
H285 C293 0.950 . S
H286 C291 0.950 . S
H287 C292 0.949 . S
H288 C294 0.950 . S
H289 C295 0.950 . S
H290 C296 0.949 . S
C291 H286 0.950 . S
C291 C293 1.327 . S
C291 C297 1.429 . S
C292 C284 1.574 . S
C292 H287 0.949 . S
C292 C298 1.368 . S
C293 C277 1.349 . S
C293 H285 0.950 . S
C293 C291 1.327 . S
C294 C282 1.349 . S
C294 H288 0.950 . S
C294 C295 1.327 . S
C295 H289 0.950 . S
C295 C294 1.327 . S
C295 C299 1.429 . S
C296 C279 1.574 . S
C296 H290 0.949 . S
C296 C300 1.368 . S
C297 C278 1.429 . S
C297 C291 1.429 . S
C297 C298 1.523 . S
C298 C279 1.368 . S
C298 C292 1.368 . S
C298 C297 1.523 . S
C299 C283 1.429 . S
C299 C295 1.429 . S
C299 C300 1.523 . S
C300 C284 1.368 . S
C300 C296 1.368 . S
C300 C299 1.523 . S
H301 C276 0.950 . S
H302 C278 0.950 . S
H303 C279 0.949 . S
H304 C281 0.950 . S
H305 C283 0.950 . S
C306 C307 1.349 . S
C306 C308 1.327 . S
C306 H331 0.950 . S
C307 C306 1.349 . S
C307 C323 1.349 . S
C308 C306 1.327 . S
C308 C327 1.429 . S
C308 H332 0.950 . S
C309 C326 1.574 . S
C309 C328 1.368 . S
C309 H333 0.949 . S
H310 C314 0.949 . S
C311 C312 1.349 . S
C311 C313 1.327 . S
C311 H334 0.950 . S
C312 C311 1.349 . S
C312 C324 1.349 . S
C313 C311 1.327 . S
C313 C329 1.429 . S
C313 H335 0.950 . S
C314 H310 0.949 . S
C314 C322 1.574 . S
C314 C330 1.368 . S
H315 C323 0.950 . S
H316 C321 0.950 . S
H317 C322 0.949 . S
H318 C324 0.950 . S
H319 C325 0.950 . S
H320 C326 0.949 . S
C321 H316 0.950 . S
C321 C323 1.327 . S
C321 C327 1.429 . S
C322 C314 1.574 . S
C322 H317 0.949 . S
C322 C328 1.368 . S
C323 C307 1.349 . S
C323 H315 0.950 . S
C323 C321 1.327 . S
C324 C312 1.349 . S
C324 H318 0.950 . S
C324 C325 1.327 . S
C325 H319 0.950 . S
C325 C324 1.327 . S
C325 C329 1.429 . S
C326 C309 1.574 . S
C326 H320 0.949 . S
C326 C330 1.368 . S
C327 C308 1.429 . S
C327 C321 1.429 . S
C327 C328 1.523 . S
C328 C309 1.368 . S
C328 C322 1.368 . S
C328 C327 1.523 . S
C329 C313 1.429 . S
C329 C325 1.429 . S
C329 C330 1.523 . S
C330 C314 1.368 . S
C330 C326 1.368 . S
C330 C329 1.523 . S
H331 C306 0.950 . S
H332 C308 0.950 . S
H333 C309 0.949 . S
H334 C311 0.950 . S
H335 C313 0.950 . S
C336 C337 1.349 . S
C336 C338 1.327 . S
C336 H361 0.950 . S
C337 C336 1.349 . S
C337 C353 1.349 . S
C338 C336 1.327 . S
C338 C357 1.429 . S
C338 H362 0.950 . S
C339 C356 1.574 . S
C339 C358 1.368 . S
C339 H363 0.949 . S
H340 C344 0.949 . S
C341 C342 1.349 . S
C341 C343 1.327 . S
C341 H364 0.950 . S
C342 C341 1.349 . S
C342 C354 1.349 . S
C343 C341 1.327 . S
C343 C359 1.429 . S
C343 H365 0.950 . S
C344 H340 0.949 . S
C344 C352 1.574 . S
C344 C360 1.368 . S
H345 C353 0.950 . S
H346 C351 0.950 . S
H347 C352 0.949 . S
H348 C354 0.950 . S
H349 C355 0.950 . S
H350 C356 0.949 . S
C351 H346 0.950 . S
C351 C353 1.327 . S
C351 C357 1.429 . S
C352 C344 1.574 . S
C352 H347 0.949 . S
C352 C358 1.368 . S
C353 C337 1.349 . S
C353 H345 0.950 . S
C353 C351 1.327 . S
C354 C342 1.349 . S
C354 H348 0.950 . S
C354 C355 1.327 . S
C355 H349 0.950 . S
C355 C354 1.327 . S
C355 C359 1.429 . S
C356 C339 1.574 . S
C356 H350 0.949 . S
C356 C360 1.368 . S
C357 C338 1.429 . S
C357 C351 1.429 . S
C357 C358 1.523 . S
C358 C339 1.368 . S
C358 C352 1.368 . S
C358 C357 1.523 . S
C359 C343 1.429 . S
C359 C355 1.429 . S
C359 C360 1.523 . S
C360 C344 1.368 . S
C360 C356 1.368 . S
C360 C359 1.523 . S
H361 C336 0.950 . S
H362 C338 0.950 . S
H363 C339 0.949 . S
H364 C341 0.950 . S
H365 C343 0.950 . S
C366 C367 1.349 . S
C366 C368 1.327 . S
C366 H391 0.950 . S
C367 C366 1.349 . S
C367 C383 1.349 . S
C368 C366 1.327 . S
C368 C387 1.429 . S
C368 H392 0.950 . S
C369 C386 1.574 . S
C369 C388 1.368 . S
C369 H393 0.949 . S
H370 C374 0.949 . S
C371 C372 1.349 . S
C371 C373 1.327 . S
C371 H394 0.950 . S
C372 C371 1.349 . S
C372 C384 1.349 . S
C373 C371 1.327 . S
C373 C389 1.429 . S
C373 H395 0.950 . S
C374 H370 0.949 . S
C374 C382 1.574 . S
C374 C390 1.368 . S
H375 C383 0.950 . S
H376 C381 0.950 . S
H377 C382 0.949 . S
H378 C384 0.950 . S
H379 C385 0.950 . S
H380 C386 0.949 . S
C381 H376 0.950 . S
C381 C383 1.327 . S
C381 C387 1.429 . S
C382 C374 1.574 . S
C382 H377 0.949 . S
C382 C388 1.368 . S
C383 C367 1.349 . S
C383 H375 0.950 . S
C383 C381 1.327 . S
C384 C372 1.349 . S
C384 H378 0.950 . S
C384 C385 1.327 . S
C385 H379 0.950 . S
C385 C384 1.327 . S
C385 C389 1.429 . S
C386 C369 1.574 . S
C386 H380 0.949 . S
C386 C390 1.368 . S
C387 C368 1.429 . S
C387 C381 1.429 . S
C387 C388 1.523 . S
C388 C369 1.368 . S
C388 C382 1.368 . S
C388 C387 1.523 . S
C389 C373 1.429 . S
C389 C385 1.429 . S
C389 C390 1.523 . S
C390 C374 1.368 . S
C390 C386 1.368 . S
C390 C389 1.523 . S
H391 C366 0.950 . S
H392 C368 0.950 . S
H393 C369 0.949 . S
H394 C371 0.950 . S
H395 C373 0.950 . S
C396 C397 1.349 . S
C396 C398 1.327 . S
C396 H421 0.950 . S
C397 C396 1.349 . S
C397 C413 1.349 . S
C398 C396 1.327 . S
C398 C417 1.429 . S
C398 H422 0.950 . S
C399 C416 1.574 . S
C399 C418 1.368 . S
C399 H423 0.949 . S
H400 C404 0.949 . S
C401 C402 1.349 . S
C401 C403 1.327 . S
C401 H424 0.950 . S
C402 C401 1.349 . S
C402 C414 1.349 . S
C403 C401 1.327 . S
C403 C419 1.429 . S
C403 H425 0.950 . S
C404 H400 0.949 . S
C404 C412 1.574 . S
C404 C420 1.368 . S
H405 C413 0.950 . S
H406 C411 0.950 . S
H407 C412 0.949 . S
H408 C414 0.950 . S
H409 C415 0.950 . S
H410 C416 0.949 . S
C411 H406 0.950 . S
C411 C413 1.327 . S
C411 C417 1.429 . S
C412 C404 1.574 . S
C412 H407 0.949 . S
C412 C418 1.368 . S
C413 C397 1.349 . S
C413 H405 0.950 . S
C413 C411 1.327 . S
C414 C402 1.349 . S
C414 H408 0.950 . S
C414 C415 1.327 . S
C415 H409 0.950 . S
C415 C414 1.327 . S
C415 C419 1.429 . S
C416 C399 1.574 . S
C416 H410 0.949 . S
C416 C420 1.368 . S
C417 C398 1.429 . S
C417 C411 1.429 . S
C417 C418 1.523 . S
C418 C399 1.368 . S
C418 C412 1.368 . S
C418 C417 1.523 . S
C419 C403 1.429 . S
C419 C415 1.429 . S
C419 C420 1.523 . S
C420 C404 1.368 . S
C420 C416 1.368 . S
C420 C419 1.523 . S
H421 C396 0.950 . S
H422 C398 0.950 . S
H423 C399 0.949 . S
H424 C401 0.950 . S
H425 C403 0.950 . S
C426 C427 1.349 . S
C426 C428 1.327 . S
C426 H451 0.950 . S
C427 C426 1.349 . S
C427 C443 1.349 . S
C428 C426 1.327 . S
C428 C447 1.429 . S
C428 H452 0.950 . S
C429 C446 1.574 . S
C429 C448 1.368 . S
C429 H453 0.949 . S
H430 C434 0.949 . S
C431 C432 1.349 . S
C431 C433 1.327 . S
C431 H454 0.950 . S
C432 C431 1.349 . S
C432 C444 1.349 . S
C433 C431 1.327 . S
C433 C449 1.429 . S
C433 H455 0.950 . S
C434 H430 0.949 . S
C434 C442 1.574 . S
C434 C450 1.368 . S
H435 C443 0.950 . S
H436 C441 0.950 . S
H437 C442 0.949 . S
H438 C444 0.950 . S
H439 C445 0.950 . S
H440 C446 0.949 . S
C441 H436 0.950 . S
C441 C443 1.327 . S
C441 C447 1.429 . S
C442 C434 1.574 . S
C442 H437 0.949 . S
C442 C448 1.368 . S
C443 C427 1.349 . S
C443 H435 0.950 . S
C443 C441 1.327 . S
C444 C432 1.349 . S
C444 H438 0.950 . S
C444 C445 1.327 . S
C445 H439 0.950 . S
C445 C444 1.327 . S
C445 C449 1.429 . S
C446 C429 1.574 . S
C446 H440 0.949 . S
C446 C450 1.368 . S
C447 C428 1.429 . S
C447 C441 1.429 . S
C447 C448 1.523 . S
C448 C429 1.368 . S
C448 C442 1.368 . S
C448 C447 1.523 . S
C449 C433 1.429 . S
C449 C445 1.429 . S
C449 C450 1.523 . S
C450 C434 1.368 . S
C450 C446 1.368 . S
C450 C449 1.523 . S
H451 C426 0.950 . S
H452 C428 0.950 . S
H453 C429 0.949 . S
H454 C431 0.950 . S
H455 C433 0.950 . S
C456 C457 1.349 . S
C456 C458 1.327 . S
C456 H481 0.950 . S
C457 C456 1.349 . S
C457 C473 1.349 . S
C458 C456 1.327 . S
C458 C477 1.429 . S
C458 H482 0.950 . S
C459 C476 1.574 . S
C459 C478 1.368 . S
C459 H483 0.949 . S
H460 C464 0.949 . S
C461 C462 1.349 . S
C461 C463 1.327 . S
C461 H484 0.950 . S
C462 C461 1.349 . S
C462 C474 1.349 . S
C463 C461 1.327 . S
C463 C479 1.429 . S
C463 H485 0.950 . S
C464 H460 0.949 . S
C464 C472 1.574 . S
C464 C480 1.368 . S
H465 C473 0.950 . S
H466 C471 0.950 . S
H467 C472 0.949 . S
H468 C474 0.950 . S
H469 C475 0.950 . S
H470 C476 0.949 . S
C471 H466 0.950 . S
C471 C473 1.327 . S
C471 C477 1.429 . S
C472 C464 1.574 . S
C472 H467 0.949 . S
C472 C478 1.368 . S
C473 C457 1.349 . S
C473 H465 0.950 . S
C473 C471 1.327 . S
C474 C462 1.349 . S
C474 H468 0.950 . S
C474 C475 1.327 . S
C475 H469 0.950 . S
C475 C474 1.327 . S
C475 C479 1.429 . S
C476 C459 1.574 . S
C476 H470 0.949 . S
C476 C480 1.368 . S
C477 C458 1.429 . S
C477 C471 1.429 . S
C477 C478 1.523 . S
C478 C459 1.368 . S
C478 C472 1.368 . S
C478 C477 1.523 . S
C479 C463 1.429 . S
C479 C475 1.429 . S
C479 C480 1.523 . S
C480 C464 1.368 . S
C480 C476 1.368 . S
C480 C479 1.523 . S
H481 C456 0.950 . S
H482 C458 0.950 . S
H483 C459 0.949 . S
H484 C461 0.950 . S
H485 C463 0.950 . S
C486 C487 1.349 . S
C486 C488 1.327 . S
C486 H511 0.950 . S
C487 C486 1.349 . S
C487 C503 1.349 . S
C488 C486 1.327 . S
C488 C507 1.429 . S
C488 H512 0.950 . S
C489 C506 1.574 . S
C489 C508 1.368 . S
C489 H513 0.949 . S
H490 C494 0.949 . S
C491 C492 1.349 . S
C491 C493 1.327 . S
C491 H514 0.950 . S
C492 C491 1.349 . S
C492 C504 1.349 . S
C493 C491 1.327 . S
C493 C509 1.429 . S
C493 H515 0.950 . S
C494 H490 0.949 . S
C494 C502 1.574 . S
C494 C510 1.368 . S
H495 C503 0.950 . S
H496 C501 0.950 . S
H497 C502 0.949 . S
H498 C504 0.950 . S
H499 C505 0.950 . S
H500 C506 0.949 . S
C501 H496 0.950 . S
C501 C503 1.327 . S
C501 C507 1.429 . S
C502 C494 1.574 . S
C502 H497 0.949 . S
C502 C508 1.368 . S
C503 C487 1.349 . S
C503 H495 0.950 . S
C503 C501 1.327 . S
C504 C492 1.349 . S
C504 H498 0.950 . S
C504 C505 1.327 . S
C505 H499 0.950 . S
C505 C504 1.327 . S
C505 C509 1.429 . S
C506 C489 1.574 . S
C506 H500 0.949 . S
C506 C510 1.368 . S
C507 C488 1.429 . S
C507 C501 1.429 . S
C507 C508 1.523 . S
C508 C489 1.368 . S
C508 C502 1.368 . S
C508 C507 1.523 . S
C509 C493 1.429 . S
C509 C505 1.429 . S
C509 C510 1.523 . S
C510 C494 1.368 . S
C510 C506 1.368 . S
C510 C509 1.523 . S
H511 C486 0.950 . S
H512 C488 0.950 . S
H513 C489 0.949 . S
H514 C491 0.950 . S
H515 C493 0.950 . S
C516 C517 1.349 . S
C516 C518 1.327 . S
C516 H541 0.950 . S
C517 C516 1.349 . S
C517 C533 1.349 . S
C518 C516 1.327 . S
C518 C537 1.429 . S
C518 H542 0.950 . S
C519 C536 1.574 . S
C519 C538 1.368 . S
C519 H543 0.949 . S
H520 C524 0.949 . S
C521 C522 1.349 . S
C521 C523 1.327 . S
C521 H544 0.950 . S
C522 C521 1.349 . S
C522 C534 1.349 . S
C523 C521 1.327 . S
C523 C539 1.429 . S
C523 H545 0.950 . S
C524 H520 0.949 . S
C524 C532 1.574 . S
C524 C540 1.368 . S
H525 C533 0.950 . S
H526 C531 0.950 . S
H527 C532 0.949 . S
H528 C534 0.950 . S
H529 C535 0.950 . S
H530 C536 0.949 . S
C531 H526 0.950 . S
C531 C533 1.327 . S
C531 C537 1.429 . S
C532 C524 1.574 . S
C532 H527 0.949 . S
C532 C538 1.368 . S
C533 C517 1.349 . S
C533 H525 0.950 . S
C533 C531 1.327 . S
C534 C522 1.349 . S
C534 H528 0.950 . S
C534 C535 1.327 . S
C535 H529 0.950 . S
C535 C534 1.327 . S
C535 C539 1.429 . S
C536 C519 1.574 . S
C536 H530 0.949 . S
C536 C540 1.368 . S
C537 C518 1.429 . S
C537 C531 1.429 . S
C537 C538 1.523 . S
C538 C519 1.368 . S
C538 C532 1.368 . S
C538 C537 1.523 . S
C539 C523 1.429 . S
C539 C535 1.429 . S
C539 C540 1.523 . S
C540 C524 1.368 . S
C540 C536 1.368 . S
C540 C539 1.523 . S
H541 C516 0.950 . S
H542 C518 0.950 . S
H543 C519 0.949 . S
H544 C521 0.950 . S
H545 C523 0.950 . S
C546 C547 1.349 . S
C546 C548 1.327 . S
C546 H571 0.950 . S
C547 C546 1.349 . S
C547 C563 1.349 . S
C548 C546 1.327 . S
C548 C567 1.429 . S
C548 H572 0.950 . S
C549 C566 1.626 . S
C549 C568 1.368 . S
C549 H573 0.949 1_455 S
H550 C554 0.979 . S
C551 C552 1.349 . S
C551 C553 1.327 . S
C551 H574 0.950 . S
C552 C551 1.349 . S
C552 C564 1.349 . S
C553 C551 1.327 . S
C553 C569 1.429 . S
C553 H575 0.950 1_455 S
C554 H550 0.979 . S
C554 C562 1.574 . S
C554 C570 1.368 1_554 S
H555 C563 0.950 1_655 S
H556 C561 0.950 1_655 S
H557 C562 0.949 . S
H558 C564 0.950 . S
H559 C565 0.950 . S
H560 C566 0.920 1_656 S
C561 H556 0.950 1_455 S
C561 C563 1.327 . S
C561 C567 1.429 . S
C562 C554 1.574 . S
C562 H557 0.949 . S
C562 C568 1.368 . S
C563 C547 1.349 . S
C563 H555 0.950 1_455 S
C563 C561 1.327 . S
C564 C552 1.349 . S
C564 H558 0.950 . S
C564 C565 1.327 . S
C565 H559 0.950 . S
C565 C564 1.327 . S
C565 C569 1.429 . S
C566 C549 1.626 . S
C566 H560 0.920 1_454 S
C566 C570 1.350 1_554 S
C567 C548 1.429 . S
C567 C561 1.429 . S
C567 C568 1.523 . S
C568 C549 1.368 . S
C568 C562 1.368 . S
C568 C567 1.523 . S
C569 C553 1.429 . S
C569 C565 1.429 . S
C569 C570 1.523 . S
C570 C554 1.368 1_556 S
C570 C566 1.350 1_556 S
C570 C569 1.523 . S
H571 C546 0.950 . S
H572 C548 0.950 . S
H573 C549 0.949 1_655 S
H574 C551 0.950 . S
H575 C553 0.950 1_655 S
C576 C577 1.349 . S
C576 C578 1.327 . S
C576 H601 0.950 1_545 S
C577 C576 1.349 . S
C577 C593 1.349 . S
C578 C576 1.327 . S
C578 C597 1.429 . S
C578 H602 0.950 1_545 S
C579 C596 1.574 . S
C579 C598 1.368 . S
C579 H603 0.949 . S
H580 C584 0.949 1_565 S
C581 C582 1.349 . S
C581 C583 1.327 . S
C581 H604 0.950 . S
C582 C581 1.349 . S
C582 C594 1.349 . S
C583 C581 1.327 . S
C583 C599 1.429 . S
C583 H605 0.950 . S
C584 H580 0.949 1_545 S
C584 C592 1.574 . S
C584 C600 1.368 . S
H585 C593 0.950 . S
H586 C591 0.950 . S
H587 C592 0.949 1_565 S
H588 C594 0.957 . S
H589 C595 0.950 1_565 S
H590 C596 0.949 . S
C591 H586 0.950 . S
C591 C593 1.327 . S
C591 C597 1.429 . S
C592 C584 1.574 . S
C592 H587 0.949 1_545 S
C592 C598 1.368 . S
C593 C577 1.349 . S
C593 H585 0.950 . S
C593 C591 1.327 . S
C594 C582 1.349 . S
C594 H588 0.957 . S
C594 C595 1.327 . S
C595 H589 0.950 1_545 S
C595 C594 1.327 . S
C595 C599 1.429 . S
C596 C579 1.574 . S
C596 H590 0.949 . S
C596 C600 1.368 . S
C597 C578 1.429 . S
C597 C591 1.429 . S
C597 C598 1.523 . S
C598 C579 1.368 . S
C598 C592 1.368 . S
C598 C597 1.523 . S
C599 C583 1.429 . S
C599 C595 1.429 . S
C599 C600 1.523 . S
C600 C584 1.368 . S
C600 C596 1.368 . S
C600 C599 1.523 . S
H601 C576 0.950 1_565 S
H602 C578 0.950 1_565 S
H603 C579 0.949 . S
H604 C581 0.950 . S
H605 C583 0.950 . S
C606 C607 1.349 . S
C606 C608 1.327 . S
C606 H631 0.950 . S
C607 C606 1.349 . S
C607 C623 1.349 . S
C608 C606 1.327 . S
C608 C627 1.429 . S
C608 H632 0.950 . S
C609 C626 1.574 . S
C609 C628 1.368 . S
C609 H633 0.949 . S
H610 C614 0.949 . S
C611 C612 1.349 . S
C611 C613 1.327 . S
C611 H634 0.950 . S
C612 C611 1.349 . S
C612 C624 1.349 . S
C613 C611 1.327 . S
C613 C629 1.429 . S
C613 H635 0.950 . S
C614 H610 0.949 . S
C614 C622 1.574 . S
C614 C630 1.368 . S
H615 C623 0.950 . S
H616 C621 0.950 . S
H617 C622 0.949 . S
H618 C624 0.950 . S
H619 C625 0.950 . S
H620 C626 0.949 . S
C621 H616 0.950 . S
C621 C623 1.327 . S
C621 C627 1.429 . S
C622 C614 1.574 . S
C622 H617 0.949 . S
C622 C628 1.368 . S
C623 C607 1.349 . S
C623 H615 0.950 . S
C623 C621 1.327 . S
C624 C612 1.349 . S
C624 H618 0.950 . S
C624 C625 1.327 . S
C625 H619 0.950 . S
C625 C624 1.327 . S
C625 C629 1.429 . S
C626 C609 1.574 . S
C626 H620 0.949 . S
C626 C630 1.368 . S
C627 C608 1.429 . S
C627 C621 1.429 . S
C627 C628 1.523 . S
C628 C609 1.368 . S
C628 C622 1.368 . S
C628 C627 1.523 . S
C629 C613 1.429 . S
C629 C625 1.429 . S
C629 C630 1.523 . S
C630 C614 1.368 . S
C630 C626 1.368 . S
C630 C629 1.523 . S
H631 C606 0.950 . S
H632 C608 0.950 . S
H633 C609 0.949 . S
H634 C611 0.950 . S
H635 C613 0.950 . S
C636 C637 1.349 . S
C636 C638 1.327 . S
C636 H661 0.950 . S
C637 C636 1.349 . S
C637 C653 1.349 . S
C638 C636 1.327 . S
C638 C657 1.429 . S
C638 H662 0.950 . S
C639 C656 1.574 . S
C639 C658 1.368 . S
C639 H663 0.949 1_545 S
H640 C644 0.949 . S
C641 C642 1.349 . S
C641 C643 1.327 . S
C641 H664 0.950 1_545 S
C642 C641 1.349 . S
C642 C654 1.349 . S
C643 C641 1.327 . S
C643 C659 1.429 . S
C643 H665 0.950 1_545 S
C644 H640 0.949 . S
C644 C652 1.574 . S
C644 C660 1.368 . S
H645 C653 0.950 1_565 S
H646 C651 0.950 1_565 S
H647 C652 0.949 . S
H648 C654 0.950 . S
H649 C655 0.950 . S
H650 C656 0.949 1_565 S
C651 H646 0.950 1_545 S
C651 C653 1.327 . S
C651 C657 1.429 . S
C652 C644 1.574 . S
C652 H647 0.949 . S
C652 C658 1.368 . S
C653 C637 1.349 . S
C653 H645 0.950 1_545 S
C653 C651 1.327 . S
C654 C642 1.349 . S
C654 H648 0.950 . S
C654 C655 1.327 . S
C655 H649 0.950 . S
C655 C654 1.327 . S
C655 C659 1.429 . S
C656 C639 1.574 . S
C656 H650 0.949 1_545 S
C656 C660 1.368 . S
C657 C638 1.429 . S
C657 C651 1.429 . S
C657 C658 1.523 . S
C658 C639 1.368 . S
C658 C652 1.368 . S
C658 C657 1.523 . S
C659 C643 1.429 . S
C659 C655 1.429 . S
C659 C660 1.523 . S
C660 C644 1.368 . S
C660 C656 1.368 . S
C660 C659 1.523 . S
H661 C636 0.950 . S
H662 C638 0.950 . S
H663 C639 0.949 1_565 S
H664 C641 0.950 1_565 S
H665 C643 0.950 1_565 S
C666 C667 1.349 . S
C666 C668 1.327 . S
C666 H691 0.950 . S
C667 C666 1.349 . S
C667 C683 1.349 . S
C668 C666 1.327 . S
C668 C687 1.429 . S
C668 H692 0.950 . S
C669 C686 1.574 . S
C669 C688 1.368 . S
C669 H693 0.949 . S
H670 C674 0.949 1_554 S
C671 C672 1.349 . S
C671 C673 1.327 . S
C671 H694 0.950 . S
C672 C671 1.349 . S
C672 C684 1.349 . S
C673 C671 1.327 . S
C673 C689 1.429 . S
C673 H695 0.950 . S
C674 H670 0.949 1_556 S
C674 C682 1.574 . S
C674 C690 1.368 1_556 S
H675 C683 0.950 . S
H676 C681 0.950 . S
H677 C682 0.949 . S
H678 C684 0.950 . S
H679 C685 0.950 . S
H680 C686 0.949 1_554 S
C681 H676 0.950 . S
C681 C683 1.327 . S
C681 C687 1.429 . S
C682 C674 1.574 . S
C682 H677 0.949 . S
C682 C688 1.368 . S
C683 C667 1.349 . S
C683 H675 0.950 . S
C683 C681 1.327 . S
C684 C672 1.349 . S
C684 H678 0.950 . S
C684 C685 1.327 . S
C685 H679 0.950 . S
C685 C684 1.327 . S
C685 C689 1.429 . S
C686 C669 1.574 . S
C686 H680 0.949 1_556 S
C686 C690 1.368 1_556 S
C687 C668 1.429 . S
C687 C681 1.429 . S
C687 C688 1.523 . S
C688 C669 1.368 . S
C688 C682 1.368 . S
C688 C687 1.523 . S
C689 C673 1.429 . S
C689 C685 1.429 . S
C689 C690 1.523 . S
C690 C674 1.368 1_554 S
C690 C686 1.368 1_554 S
C690 C689 1.523 . S
H691 C666 0.950 . S
H692 C668 0.950 . S
H693 C669 0.949 . S
H694 C671 0.950 . S
H695 C673 0.950 . S
C696 C697 1.349 . S
C696 C698 1.327 . S
C696 H721 0.950 . S
C697 C696 1.349 . S
C697 C713 1.349 . S
C698 C696 1.327 . S
C698 C717 1.429 . S
C698 H722 0.950 . S
C699 C716 1.574 . S
C699 C718 1.368 . S
C699 H723 0.949 . S
H700 C704 0.949 . S
C701 C702 1.349 . S
C701 C703 1.327 . S
C701 H724 0.950 . S
C702 C701 1.349 . S
C702 C714 1.349 . S
C703 C701 1.327 . S
C703 C719 1.429 . S
C703 H725 0.950 . S
C704 H700 0.949 . S
C704 C712 1.574 . S
C704 C720 1.368 . S
H705 C713 0.950 . S
H706 C711 0.950 . S
H707 C712 0.949 . S
H708 C714 0.950 . S
H709 C715 0.950 . S
H710 C716 0.949 . S
C711 H706 0.950 . S
C711 C713 1.327 . S
C711 C717 1.429 . S
C712 C704 1.574 . S
C712 H707 0.949 . S
C712 C718 1.368 . S
C713 C697 1.349 . S
C713 H705 0.950 . S
C713 C711 1.327 . S
C714 C702 1.349 . S
C714 H708 0.950 . S
C714 C715 1.327 . S
C715 H709 0.950 . S
C715 C714 1.327 . S
C715 C719 1.429 . S
C716 C699 1.574 . S
C716 H710 0.949 . S
C716 C720 1.368 . S
C717 C698 1.429 . S
C717 C711 1.429 . S
C717 C718 1.523 . S
C718 C699 1.368 . S
C718 C712 1.368 . S
C718 C717 1.523 . S
C719 C703 1.429 . S
C719 C715 1.429 . S
C719 C720 1.523 . S
C720 C704 1.368 . S
C720 C716 1.368 . S
C720 C719 1.523 . S
H721 C696 0.950 . S
H722 C698 0.950 . S
H723 C699 0.949 . S
H724 C701 0.950 . S
H725 C703 0.950 . S
C187 C7 0.588 . S
C192 C185 0.587 . S
C217 C51 1.930 . S
C222 C163 1.885 . S
C247 C87 1.231 . S
C252 C174 1.221 . S
C277 C16 0.257 . S
C282 C179 0.190 . S
C312 C157 1.824 . S
C307 C42 1.847 . S
C342 C168 1.125 . S
C337 C96 1.132 . S
C367 C47 1.273 . S
C372 C141 1.262 . S
C397 C91 3.006 . S
C402 C146 2.965 1_655 S
C427 C2 1.864 . S
C432 C124 1.846 1_565 S
C462 C135 1.109 . S
C457 C56 1.113 . S
C492 C152 2.974 . S
C487 C82 3.010 . S
C517 C11 1.931 . S
C522 C130 1.894 . S
C552 C147 1.715 . S
C547 C19 1.685 . S
C577 C50 1.428 . S
C582 C125 1.478 . S
C607 C99 1.519 . S
C612 C136 1.546 . S
C642 C169 1.528 . S
C637 C59 1.518 . S
C672 C180 1.299 . S
C667 C90 1.274 . S
C697 C10 1.407 . S
C702 C158 1.445 . S
