# Generated by pormake.
# Topology anh, (6,3)-cn, num edge types: 1
# Building blocks:
#     Node 0, Type 0, BuildingBlock: NUHQIS_clean_sbu_0, # of connection points: 6
#     Node 1, Type 0, BuildingBlock: NUHQIS_clean_sbu_0, # of connection points: 6
#     Node 2, Type 0, BuildingBlock: NUHQIS_clean_sbu_0, # of connection points: 6
#     Node 3, Type 1, BuildingBlock: ESEHIV_clean_linker_0, # of connection points: 3
#     Node 4, Type 1, BuildingBlock: ESEHIV_clean_linker_0, # of connection points: 3
#     Node 5, Type 1, BuildingBlock: ESEHIV_clean_linker_0, # of connection points: 3
#     Node 6, Type 1, BuildingBlock: ESEHIV_clean_linker_0, # of connection points: 3
#     Node 7, Type 1, BuildingBlock: ESEHIV_clean_linker_0, # of connection points: 3
#     Node 8, Type 1, BuildingBlock: ESEHIV_clean_linker_0, # of connection points: 3
#     Edge 9, Type (0, 1), BuildingBlock: TEMPAE_clean_linker_10, # of connection points: 2
#     Edge 10, Type (0, 1), BuildingBlock: TEMPAE_clean_linker_10, # of connection points: 2
#     Edge 11, Type (0, 1), BuildingBlock: TEMPAE_clean_linker_10, # of connection points: 2
#     Edge 12, Type (0, 1), BuildingBlock: TEMPAE_clean_linker_10, # of connection points: 2
#     Edge 13, Type (0, 1), BuildingBlock: TEMPAE_clean_linker_10, # of connection points: 2
#     Edge 14, Type (0, 1), BuildingBlock: TEMPAE_clean_linker_10, # of connection points: 2
#     Edge 15, Type (0, 1), BuildingBlock: TEMPAE_clean_linker_10, # of connection points: 2
#     Edge 16, Type (0, 1), BuildingBlock: TEMPAE_clean_linker_10, # of connection points: 2
#     Edge 17, Type (0, 1), BuildingBlock: TEMPAE_clean_linker_10, # of connection points: 2
#     Edge 18, Type (0, 1), BuildingBlock: TEMPAE_clean_linker_10, # of connection points: 2
#     Edge 19, Type (0, 1), BuildingBlock: TEMPAE_clean_linker_10, # of connection points: 2
#     Edge 20, Type (0, 1), BuildingBlock: TEMPAE_clean_linker_10, # of connection points: 2
#     Edge 21, Type (0, 1), BuildingBlock: TEMPAE_clean_linker_10, # of connection points: 2
#     Edge 22, Type (0, 1), BuildingBlock: TEMPAE_clean_linker_10, # of connection points: 2
#     Edge 23, Type (0, 1), BuildingBlock: TEMPAE_clean_linker_10, # of connection points: 2
#     Edge 24, Type (0, 1), BuildingBlock: TEMPAE_clean_linker_10, # of connection points: 2
#     Edge 25, Type (0, 1), BuildingBlock: TEMPAE_clean_linker_10, # of connection points: 2
#     Edge 26, Type (0, 1), BuildingBlock: TEMPAE_clean_linker_10, # of connection points: 2
# Relax obj value: 0.301
# Max RMSD: 0.197
# Mean RMSD: 0.163
data_MOF--net-anh--node1-NUHQIS_clean_sbu_0--node2-ESEHIV_clean_linker_0--edge1-TEMPAE_clean_linker_10
_symmetry_space_group_name_H-M    P1
_symmetry_Int_Tables_number       1
_symmetry_cell_setting            triclinic
loop_
_symmetry_equiv_pos_as_xyz
'x, y, z'
_cell_length_a     27.71342
_cell_length_b     27.819111
_cell_length_c     53.021611
_cell_angle_alpha  90.480645
_cell_angle_beta   91.719094
_cell_angle_gamma 119.80192
loop_
_atom_site_label
_atom_site_type_symbol
_atom_site_fract_x
_atom_site_fract_y
_atom_site_fract_z
_atom_type_partial_charge
Tb0 Tb 0.24373 0.66192 0.17391 0.0
Eu1 Eu 0.17573 0.7214 0.15262 0.0
C2 C 0.19014 0.70644 0.2112 0.0
C3 C 1.11221 0.59024 0.16471 0.0
C4 C 0.28832 0.55797 0.17692 0.0
C5 C 0.31178 0.48522 0.18075 0.0
C6 C 0.31133 0.53143 0.19099 0.0
C7 C 0.2628 0.53602 0.15313 0.0
C8 C 0.26373 0.49026 0.14276 0.0
C9 C 0.28975 0.46535 0.15614 0.0
C10 C 0.29326 0.60989 0.18645 0.0
O11 O 0.22601 0.64258 0.13316 0.0
O12 O 0.22675 0.72109 0.12095 0.0
O13 O 0.26132 0.79515 0.16288 0.0
O14 O 0.30943 0.74929 0.17268 0.0
C15 C 0.23149 0.67778 0.1155 0.0
O16 O 1.1241 0.7305 0.12334 0.0
O17 O 1.13971 0.7744 0.1593 0.0
O18 O 0.15509 0.6999 0.19271 0.0
O19 O 0.23482 0.7029 0.20727 0.0
O20 O 0.15632 0.59911 0.17846 0.0
O21 O 1.11487 0.62824 0.14926 0.0
C22 C 0.30804 0.7956 0.16924 0.0
O23 O 0.31233 0.65021 0.17057 0.0
O24 O 0.25024 0.60529 0.19782 0.0
C25 C 1.04758 0.7238 0.14333 0.0
C26 C 0.93306 0.64574 0.14409 0.0
C27 C 0.97171 0.63921 0.15929 0.0
C28 C 1.02813 0.67805 0.15907 0.0
C29 C 1.00934 0.73279 0.12936 0.0
C30 C 0.95234 0.69447 0.13003 0.0
C31 C 1.10741 0.75534 0.13894 0.0
H32 H 0.3313 0.46636 0.19169 0.0
H33 H 0.33051 0.54749 0.20954 0.0
H34 H 0.24423 0.5557 0.14213 0.0
H35 H 0.24695 0.47657 0.12369 0.0
H36 H 0.95926 0.60237 0.17015 0.0
H37 H 1.05698 0.6703 0.17004 0.0
H38 H 1.02359 0.7679 0.11712 0.0
H39 H 0.92372 0.70193 0.11868 0.0
Tb40 Tb 0.7788 0.17767 0.50105 0.0
Eu41 Eu 0.65072 0.11651 0.48255 0.0
C42 C 0.68248 0.11677 0.53924 0.0
C43 C 0.71532 1.04554 0.4936 0.0
C44 C 0.90704 0.29796 0.5214 0.0
C45 C 0.98553 0.38939 0.51492 0.0
C46 C 0.96332 0.33204 0.51647 0.0
C47 C 0.87455 0.32219 0.52696 0.0
C48 C 0.89612 0.37903 0.52478 0.0
C49 C 0.9512 0.41316 0.51748 0.0
C50 C 0.87913 0.2382 0.51554 0.0
O51 O 0.77421 0.15641 0.46066 0.0
O52 O 0.70278 0.17151 0.45208 0.0
O53 O 0.66859 0.19727 0.50195 0.0
O54 O 0.76003 0.24453 0.49318 0.0
C55 C 0.74587 0.16925 0.44451 0.0
O56 O 0.58561 1.07417 0.4525 0.0
O57 O 0.56746 0.10091 0.48852 0.0
O58 O 0.6503 1.08471 0.52068 0.0
O59 O 0.72915 0.16254 0.53475 0.0
O60 O 0.75787 1.09097 0.50377 0.0
O61 O 0.673 1.04686 0.48177 0.0
C62 C 0.71459 0.24461 0.49958 0.0
O63 O 0.84007 0.20651 0.53052 0.0
O64 O 0.86274 0.22531 0.49197 0.0
C65 C 0.49139 1.05953 0.45751 0.0
C66 C 0.38658 1.04054 0.43952 0.0
C67 C 0.42184 1.03314 0.42336 0.0
C68 C 0.47389 1.04262 0.43229 0.0
C69 C 0.45544 1.06527 0.47381 0.0
C70 C 0.40358 1.05584 0.46491 0.0
C71 C 0.5495 1.07955 0.46587 0.0
H72 H 1.02863 0.41449 0.51011 0.0
H73 H 0.98908 0.31407 0.51218 0.0
H74 H 0.83102 0.29668 0.53101 0.0
H75 H 0.86785 0.39499 0.52674 0.0
H76 H 0.4097 1.02125 0.40368 0.0
H77 H 0.50117 1.03873 0.41924 0.0
H78 H 0.46791 1.07859 0.49334 0.0
H79 H 0.3767 1.06044 0.47796 0.0
Tb80 Tb 0.78007 0.68066 0.83449 0.0
Eu81 Eu 0.71044 0.54767 0.82368 0.0
C82 C 0.74233 0.59649 0.87787 0.0
C83 C 0.84583 0.61193 0.83074 0.0
C84 C 0.80574 0.8176 0.85128 0.0
C85 C 0.7188 0.80943 0.86391 0.0
C86 C 0.7608 0.79618 0.86745 0.0
C87 C 0.81343 0.86033 0.8351 0.0
C88 C 0.77092 0.87289 0.83133 0.0
C89 C 0.72127 0.84334 0.84407 0.0
C90 C 0.83023 0.7833 0.84445 0.0
O91 O 0.78185 0.6702 0.79339 0.0
O92 O 0.70763 0.58282 0.78635 0.0
O93 O 0.64586 0.57082 0.83425 0.0
O94 O 0.69374 0.66559 0.83151 0.0
C95 C 0.74465 0.63091 0.778 0.0
O96 O 0.69118 0.4687 0.80604 0.0
O97 O 0.63779 0.47213 0.8345 0.0
O98 O 0.74922 0.5642 0.86237 0.0
O99 O 0.74025 0.6394 0.86916 0.0
O100 O 0.84556 0.65769 0.83736 0.0
O101 O 0.8001 0.56654 0.82296 0.0
C102 C 0.64678 0.61847 0.83419 0.0
O103 O 0.82661 0.74665 0.86061 0.0
O104 O 0.81533 0.76171 0.82172 0.0
C105 C 0.64771 0.39423 0.83383 0.0
C106 C 0.64166 0.30127 0.85687 0.0
C107 C 0.69278 0.35113 0.85658 0.0
C108 C 0.69576 0.39757 0.84515 0.0
C109 C 0.59626 0.34635 0.83594 0.0
C110 C 0.59312 0.3003 0.84743 0.0
C111 C 0.64942 0.44068 0.82062 0.0
H112 H 0.6815 0.78785 0.87449 0.0
H113 H 0.75409 0.76367 0.88039 0.0
H114 H 0.84799 0.87765 0.82258 0.0
H115 H 0.77371 0.89965 0.81604 0.0
H116 H 0.73074 0.35308 0.86376 0.0
H117 H 0.73565 0.43525 0.84434 0.0
H118 H 0.55867 0.34385 0.82783 0.0
H119 H 0.55311 0.26256 0.84689 0.0
H120 H 0.6568 0.11295 0.25202 0.0
H121 H 0.80358 0.27313 0.25092 0.0
H122 H 0.70353 0.20121 0.18249 0.0
C123 C 0.68431 0.14965 0.24188 0.0
C124 C 0.67225 0.15219 0.21607 0.0
C125 C 0.73089 0.19295 0.25485 0.0
C126 C 0.76784 0.23916 0.24115 0.0
C127 C 0.75953 0.2427 0.21498 0.0
C128 C 0.71139 0.19852 0.20241 0.0
H129 H 0.7266 0.73153 0.58374 0.0
H130 H 0.7326 0.58101 0.58491 0.0
H131 H 0.71528 0.6456 0.51354 0.0
C132 C 0.72491 0.69678 0.57354 0.0
C133 C 0.71811 0.69331 0.54693 0.0
C134 C 0.731 0.65706 0.58727 0.0
C135 C 0.73058 0.6129 0.57412 0.0
C136 C 0.7263 0.60813 0.54755 0.0
C137 C 0.71951 0.64871 0.53394 0.0
H138 H 0.17055 0.61458 0.9239 0.0
H139 H 0.32437 0.61462 0.92675 0.0
H140 H 0.24433 0.608 0.85438 0.0
C141 C 0.20367 0.6138 0.91392 0.0
C142 C 0.20237 0.61365 0.88731 0.0
C143 C 0.24729 0.61424 0.92817 0.0
C144 C 0.29022 0.61268 0.91549 0.0
C145 C 0.28968 0.60848 0.88884 0.0
C146 C 0.24534 0.60975 0.8748 0.0
H147 H 1.00477 0.67123 0.3854 0.0
H148 H 1.06505 0.8391 0.3645 0.0
H149 H 0.98507 0.78187 0.43521 0.0
C150 C 1.00712 0.71086 0.38876 0.0
C151 C 0.99038 0.72154 0.41184 0.0
C152 C 1.0336 0.75317 0.37153 0.0
C153 C 1.04156 0.80602 0.37729 0.0
C154 C 1.02596 0.81786 0.4006 0.0
C155 C 0.99707 0.77403 0.41704 0.0
H156 H 0.546 1.05941 0.72707 0.0
H157 H 0.50093 0.89799 0.69695 0.0
H158 H 0.46778 0.91827 0.7738 0.0
C159 C 0.52449 1.01483 0.72903 0.0
C160 C 0.50586 0.99209 0.75271 0.0
C161 C 0.52144 0.98082 0.70859 0.0
C162 C 0.49989 0.92374 0.71214 0.0
C163 C 0.48317 0.90105 0.73602 0.0
C164 C 0.48089 0.93476 0.75526 0.0
H165 H 0.48382 0.3591 0.02002 0.0
H166 H 0.64548 0.39784 0.04953 0.0
H167 H 0.50674 0.32739 0.09753 0.0
C168 C 0.50978 0.35659 0.03506 0.0
C169 C 0.4871 0.33665 0.05869 0.0
C170 C 0.56715 0.37962 0.03178 0.0
C171 C 0.60091 0.37837 0.05171 0.0
C172 C 0.57932 0.35988 0.07547 0.0
C173 C 0.52228 0.33777 0.07867 0.0
C174 C 0.35401 0.4305 0.14554 0.0
C175 C 0.30086 0.42464 0.14306 0.0
C176 C 0.36968 0.40034 0.12989 0.0
C177 C 0.33121 0.36329 0.11119 0.0
C178 C 0.27605 0.3537 0.10992 0.0
C179 C 0.26155 0.38478 0.12583 0.0
C180 C 0.42901 0.41167 0.13208 0.0
C181 C 0.23335 0.31363 0.09073 0.0
C182 C 0.41851 0.36966 0.05778 0.0
C183 C 0.43185 0.32905 0.06484 0.0
C184 C 0.37888 0.37642 0.07067 0.0
C185 C 0.35239 0.34191 0.09114 0.0
C186 C 0.35913 0.29552 0.09562 0.0
C187 C 0.39904 0.2896 0.08237 0.0
C188 C 0.37163 0.42553 0.06475 0.0
C189 C 0.32961 0.2563 0.1165 0.0
H190 H 0.3849 0.46155 0.15855 0.0
H191 H 0.22003 0.37934 0.12411 0.0
H192 H 0.42974 0.37229 0.13352 0.0
H193 H 0.45127 0.43253 0.11492 0.0
H194 H 0.45229 0.43851 0.14879 0.0
H195 H 0.19046 0.29739 0.09736 0.0
H196 H 0.23667 0.33546 0.0729 0.0
H197 H 0.23995 0.27823 0.08651 0.0
H198 H 0.44328 0.4003 0.0442 0.0
H199 H 0.40818 0.25719 0.08743 0.0
H200 H 0.39499 0.45889 0.07926 0.0
H201 H 0.32722 0.41403 0.06519 0.0
H202 H 0.38742 0.44236 0.04595 0.0
H203 H 0.35262 0.27462 0.13472 0.0
H204 H 0.32759 0.21579 0.11338 0.0
H205 H 0.28675 0.24926 0.11812 0.0
C206 C 0.94623 0.50124 0.51851 0.0
C207 C 0.96884 0.47005 0.50852 0.0
C208 C 0.95063 0.54743 0.50596 0.0
C209 C 0.98019 0.56399 0.48345 0.0
C210 C 1.00837 0.53667 0.4749 0.0
C211 C 1.00163 0.48956 0.48725 0.0
C212 C 0.91961 0.57523 0.51567 0.0
C213 C 1.04203 0.55436 0.45145 0.0
C214 C 0.94076 0.62661 0.42895 0.0
C215 C 0.97974 0.68275 0.43249 0.0
C216 C 0.93867 0.58762 0.44605 0.0
C217 C 0.9768 0.60546 0.46721 0.0
C218 C 1.01515 0.66258 0.47126 0.0
C219 C 1.01576 0.70063 0.45395 0.0
C220 C 0.89777 0.52743 0.43991 0.0
C221 C 1.05903 0.68311 0.49243 0.0
H222 H 0.9224 0.48782 0.53539 0.0
H223 H 1.01914 0.46612 0.47904 0.0
H224 H 0.94409 0.62082 0.51398 0.0
H225 H 0.88047 0.56049 0.50416 0.0
H226 H 0.90892 0.56566 0.5357 0.0
H227 H 1.06951 0.53603 0.45007 0.0
H228 H 1.01337 0.54063 0.43453 0.0
H229 H 1.06806 0.60017 0.45114 0.0
H230 H 0.91352 0.61284 0.41214 0.0
H231 H 1.04712 0.74404 0.45624 0.0
H232 H 0.8978 0.49861 0.45415 0.0
H233 H 0.90745 0.51582 0.42142 0.0
H234 H 0.85521 0.52165 0.43778 0.0
H235 H 1.04084 0.66395 0.51052 0.0
H236 H 1.08054 0.7289 0.49502 0.0
H237 H 1.09055 0.67104 0.48803 0.0
C238 C 0.65844 0.87728 0.82816 0.0
C239 C 0.66932 0.8339 0.83138 0.0
C240 C 0.6148 0.87066 0.81179 0.0
C241 C 0.58171 0.81952 0.79834 0.0
C242 C 0.59118 0.77474 0.80254 0.0
C243 C 0.63536 0.78281 0.81884 0.0
C244 C 0.60577 0.91928 0.80802 0.0
C245 C 0.55819 0.7196 0.78863 0.0
C246 C 0.46163 0.82403 0.76555 0.0
C247 C 0.48851 0.85256 0.74396 0.0
C248 C 0.4896 0.80855 0.78328 0.0
C249 C 0.54269 0.81643 0.77777 0.0
C250 C 0.56316 0.8325 0.75332 0.0
C251 C 0.53563 0.85035 0.73659 0.0
C252 C 0.46541 0.79217 0.80898 0.0
C253 C 0.61875 0.83969 0.74628 0.0
H254 H 0.68548 0.91691 0.83763 0.0
H255 H 0.6457 0.75015 0.82045 0.0
H256 H 0.6076 0.92924 0.78772 0.0
H257 H 0.56379 0.90816 0.81432 0.0
H258 H 0.63705 0.95693 0.8188 0.0
H259 H 0.54965 0.68522 0.80151 0.0
H260 H 0.51815 0.71301 0.78024 0.0
H261 H 0.58332 0.71708 0.77332 0.0
H262 H 0.42336 0.82258 0.7707 0.0
H263 H 0.55605 0.87016 0.71951 0.0
H264 H 0.46555 0.82816 0.81828 0.0
H265 H 0.48864 0.77845 0.82154 0.0
H266 H 0.42126 0.75881 0.80692 0.0
H267 H 0.65255 0.87508 0.75737 0.0
H268 H 0.62632 0.84783 0.72589 0.0
H269 H 0.62124 0.80217 0.75082 0.0
C270 C 0.84826 0.56207 0.16026 0.0
C271 C 0.87468 0.59906 0.14071 0.0
C272 C 0.79627 0.51398 0.15604 0.0
C273 C 0.76938 0.50349 0.13191 0.0
C274 C 0.7947 0.54164 0.11242 0.0
C275 C 0.84718 0.58828 0.11695 0.0
C276 C 0.77135 0.4736 0.17709 0.0
C277 C 0.76703 0.53256 0.08641 0.0
C278 C 0.66485 0.3721 0.09834 0.0
C279 C 0.61876 0.38004 0.09755 0.0
C280 C 0.7128 0.40785 0.11297 0.0
C281 C 0.71471 0.45313 0.12631 0.0
C282 C 0.66562 0.45637 0.12829 0.0
C283 C 0.61787 0.4193 0.11399 0.0
C284 C 0.76345 0.40112 0.1118 0.0
C285 C 0.66561 0.50376 0.14237 0.0
H286 H 0.86855 0.57002 0.17882 0.0
H287 H 0.86736 0.61525 0.10145 0.0
H288 H 0.72651 0.45976 0.17858 0.0
H289 H 0.77468 0.43623 0.17294 0.0
H290 H 0.79302 0.49166 0.19561 0.0
H291 H 0.79069 0.56797 0.07391 0.0
H292 H 0.76322 0.4947 0.07731 0.0
H293 H 0.7244 0.52625 0.08782 0.0
H294 H 0.66515 0.34123 0.08583 0.0
H295 H 0.58222 0.42558 0.11338 0.0
H296 H 0.78135 0.40396 0.1311 0.0
H297 H 0.79574 0.43501 0.1008 0.0
H298 H 0.75356 0.36083 0.10286 0.0
H299 H 0.62273 0.49409 0.14662 0.0
H300 H 0.68438 0.54103 0.13055 0.0
H301 H 0.69082 0.5142 0.16029 0.0
C302 C 0.29649 0.98121 0.41614 0.0
C303 C 0.33081 1.02935 0.43051 0.0
C304 C 0.24066 0.96488 0.41086 0.0
C305 C 0.21855 0.99762 0.42028 0.0
C306 C 0.25422 1.0488 0.43291 0.0
C307 C 0.31015 1.0641 0.43791 0.0
C308 C 0.20454 0.91021 0.39685 0.0
C309 C 0.23321 1.08663 0.44165 0.0
C310 C 1.07484 0.9204 0.39357 0.0
C311 C 1.05528 0.87641 0.41043 0.0
C312 C 1.12644 0.96844 0.39848 0.0
C313 C 0.15721 0.97208 0.42083 0.0
C314 C 1.1303 0.93528 0.4405 0.0
C315 C 1.07927 0.88747 0.43505 0.0
C316 C 0.15184 1.01008 0.37804 0.0
C317 C 0.16004 0.93995 0.46552 0.0
H318 H 0.31234 0.95437 0.41034 0.0
H319 H 0.33736 0.10244 0.4483 0.0
H320 H 0.17324 0.88014 0.40959 0.0
H321 H 0.18183 0.91587 0.38064 0.0
H322 H 0.22909 0.89177 0.38956 0.0
H323 H 0.26334 0.11961 0.45503 0.0
H324 H 0.22639 0.10676 0.42501 0.0
H325 H 0.19274 1.06317 0.45082 0.0
H326 H 1.05429 0.91414 0.37514 0.0
H327 H 1.06374 0.8556 0.44902 0.0
H328 H 0.17658 0.99825 0.36601 0.0
H329 H 0.1801 1.05212 0.38624 0.0
H330 H 1.11916 1.01121 0.36582 0.0
H331 H 0.1891 0.92373 0.46322 0.0
H332 H 1.13035 0.9156 0.48019 0.0
H333 H 0.18472 0.98374 0.47224 0.0
C334 C 0.67485 0.23711 0.8454 0.0
C335 C 0.63973 0.24763 0.8601 0.0
C336 C 0.65521 0.18464 0.83426 0.0
C337 C 0.59997 0.14288 0.83836 0.0
C338 C 0.57044 0.14989 0.85797 0.0
C339 C 0.59137 0.20268 0.86909 0.0
C340 C 0.68969 0.17709 0.8148 0.0
C341 C 0.51303 0.10465 0.86418 0.0
C342 C 0.52237 1.07769 0.77646 0.0
C343 C 0.52359 1.02809 0.77584 0.0
C344 C 0.545 0.11429 0.79738 0.0
C345 C 0.56924 0.10068 0.81813 0.0
C346 C 0.56819 1.04956 0.81813 0.0
C347 C 0.54609 1.01433 0.79686 0.0
C348 C 0.54488 0.16855 0.79683 0.0
C349 C 0.59291 1.03284 0.83977 0.0
H350 H 0.71352 0.27124 0.83915 0.0
H351 H 0.56549 0.21041 0.88155 0.0
H352 H 0.68529 0.13532 0.81587 0.0
H353 H 0.67485 0.18101 0.79565 0.0
H354 H 0.73445 0.20877 0.81728 0.0
H355 H 0.50175 0.11137 0.8833 0.0
H356 H 0.48223 0.10442 0.85023 0.0
H357 H 0.51007 1.06341 0.86313 0.0
H358 H 0.50477 1.08834 0.76039 0.0
H359 H 0.54852 0.97679 0.79636 0.0
H360 H 0.5883 0.20362 0.79712 0.0
H361 H 0.525 0.17329 0.8138 0.0
H362 H 0.52237 0.17167 0.77978 0.0
H363 H 0.63623 1.04424 0.83555 0.0
H364 H 0.5691 0.98728 0.84212 0.0
H365 H 0.59383 1.05346 0.85792 0.0
C366 C 0.67346 0.94082 0.48586 0.0
C367 C 0.71446 0.99107 0.49739 0.0
C368 C 0.67184 0.88977 0.49062 0.0
C369 C 0.71156 0.888 0.50769 0.0
C370 C 0.75332 0.9387 0.51908 0.0
C371 C 0.75444 0.989 0.51374 0.0
C372 C 0.62691 0.83742 0.47766 0.0
C373 C 0.79623 0.93973 0.53765 0.0
C374 C 0.67739 0.7573 0.54489 0.0
C375 C 0.71031 0.73768 0.5339 0.0
C376 C 0.67605 0.80445 0.53606 0.0
C377 C 0.70763 0.83338 0.51518 0.0
C378 C 0.73843 0.81202 0.50298 0.0
C379 C 0.73953 0.76481 0.51245 0.0
C380 C 0.64259 0.82481 0.54996 0.0
C381 C 0.77209 0.84039 0.48044 0.0
H382 H 0.64227 0.9412 0.47318 0.0
H383 H 0.78639 1.02689 0.523 0.0
H384 H 0.64553 0.81494 0.46836 0.0
H385 H 0.59827 0.80953 0.49184 0.0
H386 H 0.60224 0.84587 0.46329 0.0
H387 H 0.8272 0.98245 0.54429 0.0
H388 H 0.77528 0.91501 0.55428 0.0
H389 H 0.81862 0.92049 0.52891 0.0
H390 H 0.65352 0.73647 0.56111 0.0
H391 H 0.76526 0.75069 0.50368 0.0
H392 H 0.61384 0.82969 0.5366 0.0
H393 H 0.67101 0.86617 0.55879 0.0
H394 H 0.61786 0.7963 0.56495 0.0
H395 H 0.74652 0.8483 0.46639 0.0
H396 H 0.7882 0.81552 0.47117 0.0
H397 H 0.80794 0.88115 0.48649 0.0
C398 C 0.89948 0.56676 0.84747 0.0
C399 C 0.89892 0.61021 0.8344 0.0
C400 C 0.94982 0.56715 0.85345 0.0
C401 C 1.00128 0.61085 0.84528 0.0
C402 C 1.00038 0.65329 0.83085 0.0
C403 C 0.94971 0.65322 0.82619 0.0
C404 C 0.94814 0.5221 0.86969 0.0
C405 C 1.05319 0.69948 0.82065 0.0
C406 C 1.13404 0.64934 0.88513 0.0
C407 C 0.15526 0.61782 0.87389 0.0
C408 C 1.08457 0.64711 0.87611 0.0
C409 C 1.05604 0.61517 0.8541 0.0
C410 C 1.07935 0.58667 0.84134 0.0
C411 C 1.12793 0.5876 0.85153 0.0
C412 C 1.06167 0.67747 0.89092 0.0
C413 C 1.05234 0.55421 0.81715 0.0
H414 H 0.86061 0.53363 0.85413 0.0
H415 H 0.9498 0.68684 0.81596 0.0
H416 H 0.96798 0.50119 0.86011 0.0
H417 H 0.97219 0.54067 0.88768 0.0
H418 H 0.90499 0.49043 0.87412 0.0
H419 H 1.04457 0.72342 0.80631 0.0
H420 H 1.07919 0.72839 0.83627 0.0
H421 H 1.07788 0.68261 0.81201 0.0
H422 H 0.15545 0.67509 0.90171 0.0
H423 H 1.14342 0.56329 0.84235 0.0
H424 H 1.01856 0.648 0.89633 0.0
H425 H 1.05979 0.70923 0.87912 0.0
H426 H 1.08721 0.69828 0.90834 0.0
H427 H 1.01303 0.5161 0.82129 0.0
H428 H 1.07968 0.54196 0.80741 0.0
H429 H 1.04167 0.57891 0.80415 0.0
C430 C 0.36685 0.90039 0.16476 0.0
C431 C 0.36167 0.85018 0.17312 0.0
C432 C 0.41706 0.95158 0.1687 0.0
C433 C 0.46358 0.95352 0.18177 0.0
C434 C 0.45864 0.90291 0.19005 0.0
C435 C 0.40842 0.85232 0.18549 0.0
C436 C 0.42008 1.00386 0.15909 0.0
C437 C 0.50613 0.90226 0.20445 0.0
C438 C 0.61316 1.07937 0.18154 0.0
C439 C 0.6174 0.10609 0.20482 0.0
C440 C 0.56301 1.0311 0.17327 0.0
C441 C 0.51568 1.00836 0.18861 0.0
C442 C 0.51921 1.03673 0.21153 0.0
C443 C 0.56921 1.08498 0.21909 0.0
C444 C 0.56129 1.00334 0.14846 0.0
C445 C 0.47071 1.0148 0.22875 0.0
H446 H 0.33159 0.89978 0.15503 0.0
H447 H 0.4055 0.8143 0.19218 0.0
H448 H 0.42444 1.0315 0.17525 0.0
H449 H 0.45732 1.02671 0.14762 0.0
H450 H 0.3825 0.99525 0.14745 0.0
H451 H 0.49675 0.8596 0.20892 0.0
H452 H 0.54427 0.92214 0.19337 0.0
H453 H 0.51539 0.92662 0.22239 0.0
H454 H 0.64963 1.09482 0.17024 0.0
H455 H 0.57101 0.10559 0.23683 0.0
H456 H 0.52366 0.9949 0.13695 0.0
H457 H 0.55868 0.96287 0.15197 0.0
H458 H 0.59873 1.0289 0.13743 0.0
H459 H 0.43305 1.00969 0.21836 0.0
H460 H 0.47921 1.04248 0.24551 0.0
H461 H 0.46107 0.97333 0.23537 0.0
C462 C 0.6773 0.30195 0.51987 0.0
C463 C 0.71497 0.29844 0.50379 0.0
C464 C 0.67868 0.35284 0.52471 0.0
C465 C 0.71737 0.40177 0.51257 0.0
C466 C 0.75399 0.39768 0.49559 0.0
C467 C 0.75318 0.34683 0.49187 0.0
C468 C 0.63981 0.35457 0.54355 0.0
C469 C 0.79555 0.44679 0.48145 0.0
C470 C 0.69199 0.52684 0.51546 0.0
C471 C 0.72866 0.55957 0.53542 0.0
C472 C 0.68906 0.47657 0.50722 0.0
C473 C 0.72266 0.45749 0.51942 0.0
C474 C 0.76146 0.49173 0.53867 0.0
C475 C 0.76456 0.54211 0.54605 0.0
C476 C 0.64955 0.44346 0.48556 0.0
C477 C 0.79863 0.47414 0.55221 0.0
H478 H 0.64768 0.26508 0.52934 0.0
H479 H 0.78239 0.34501 0.47928 0.0
H480 H 0.66441 0.38294 0.55961 0.0
H481 H 0.61453 0.3712 0.53472 0.0
H482 H 0.6113 0.31305 0.551 0.0
H483 H 0.79595 0.43409 0.46158 0.0
H484 H 0.78721 0.48186 0.48147 0.0
H485 H 0.83753 0.46103 0.49011 0.0
H486 H 0.6642 0.53941 0.50684 0.0
H487 H 0.79449 0.56735 0.56091 0.0
H488 H 0.61705 0.40276 0.49223 0.0
H489 H 0.67242 0.43518 0.47087 0.0
H490 H 0.62893 0.46514 0.47688 0.0
H491 H 0.77274 0.43504 0.56215 0.0
H492 H 0.828 0.50595 0.56621 0.0
H493 H 0.82291 0.4657 0.53838 0.0
C494 C 0.59143 0.66097 0.85171 0.0
C495 C 0.59277 0.61781 0.83842 0.0
C496 C 0.54051 0.65855 0.85727 0.0
C497 C 0.48885 0.61137 0.84973 0.0
C498 C 0.48998 0.56797 0.83595 0.0
C499 C 0.54148 0.57155 0.83066 0.0
C500 C 0.54184 0.70613 0.87174 0.0
C501 C 0.43669 0.51677 0.82733 0.0
C502 C 0.36341 0.57895 0.88986 0.0
C503 C 0.33666 0.60389 0.87677 0.0
C504 C 0.41208 0.58088 0.88127 0.0
C505 C 0.43425 0.60579 0.85808 0.0
C506 C 0.40501 0.62669 0.8436 0.0
C507 C 0.35756 0.62653 0.85321 0.0
C508 C 0.44068 0.55735 0.89749 0.0
C509 C 0.42457 0.6501 0.81805 0.0
H510 H 0.63034 0.69602 0.85844 0.0
H511 H 0.54152 0.53757 0.82053 0.0
H512 H 0.51989 0.72342 0.86048 0.0
H513 H 0.51968 0.69119 0.88958 0.0
H514 H 0.58481 0.73991 0.87637 0.0
H515 H 0.44413 0.49088 0.81366 0.0
H516 H 0.41642 0.49137 0.84387 0.0
H517 H 0.4071 0.52811 0.81844 0.0
H518 H 0.34686 0.55823 0.90732 0.0
H519 H 0.33786 0.64548 0.84247 0.0
H520 H 0.48354 0.59056 0.90296 0.0
H521 H 0.44432 0.52506 0.8867 0.0
H522 H 0.41816 0.53886 0.91495 0.0
H523 H 0.46647 0.68701 0.8203 0.0
H524 H 0.39599 0.66167 0.80826 0.0
H525 H 0.4285 0.61959 0.80596 0.0
C526 C 1.00828 0.52675 0.15487 0.0
C527 C 1.05758 0.53752 0.16814 0.0
C528 C 0.95642 0.47897 0.15936 0.0
C529 C 0.95306 0.44021 0.17753 0.0
C530 C 1.00288 0.45049 0.19063 0.0
C531 C 1.05399 0.49847 0.1858 0.0
C532 C 0.90508 0.47025 0.14472 0.0
C533 C 1.00209 0.41126 0.21033 0.0
C534 C 0.81985 0.34681 0.21252 0.0
C535 C 0.80212 0.29378 0.20189 0.0
C536 C 0.86665 0.39478 0.20386 0.0
C537 C 0.8977 0.3905 0.18403 0.0
C538 C 0.87809 0.33757 0.17219 0.0
C539 C 0.83072 0.29008 0.18117 0.0
C540 C 0.88447 0.44987 0.21688 0.0
C541 C 0.90882 0.33059 0.15076 0.0
H542 H 1.00996 0.55612 0.14113 0.0
H543 H 1.09127 0.50575 0.19631 0.0
H544 H 0.88892 0.43259 0.13238 0.0
H545 H 0.87192 0.46327 0.15781 0.0
H546 H 0.91333 0.506 0.1328 0.0
H547 H 1.04435 0.42382 0.21832 0.0
H548 H 0.97561 0.40963 0.22597 0.0
H549 H 0.98362 0.36873 0.20204 0.0
H550 H 0.798 0.35054 0.22837 0.0
H551 H 0.81789 0.24959 0.17284 0.0
H552 H 0.89086 0.48157 0.20279 0.0
H553 H 0.9248 0.46429 0.22735 0.0
H554 H 0.85348 0.44741 0.23038 0.0
H555 H 0.91654 0.36175 0.13619 0.0
H556 H 0.88557 0.28853 0.14178 0.0
H557 H 0.94995 0.33772 0.15792 0.0
C558 C 0.24764 0.62327 0.0817 0.0
C559 C 0.23777 0.66638 0.08861 0.0
C560 C 0.25198 0.61186 0.05614 0.0
C561 C 0.24565 0.64387 0.03699 0.0
C562 C 0.23601 0.68756 0.04393 0.0
C563 C 0.23252 0.69841 0.06953 0.0
C564 C 0.26296 0.56535 0.0496 0.0
C565 C 0.22841 0.72244 0.02423 0.0
C566 C 0.29764 0.65296 0.97038 0.0
C567 C 0.24821 0.61777 0.95645 0.0
C568 C 0.29796 0.6598 -0.00324 0.0
C569 C 0.24757 0.63132 0.00962 0.0
C570 C 0.19793 0.59435 -0.00419 0.0
C571 C 0.19893 0.58777 0.96953 0.0
C572 C 0.35193 0.69924 0.01073 0.0
C573 C 1.14319 0.56331 0.00865 0.0
H574 H 0.25197 0.59838 0.09624 0.0
H575 H 0.22469 0.73171 0.07452 0.0
H576 H 0.22764 0.53318 0.03786 0.0
H577 H 0.30065 0.5812 0.03826 0.0
H578 H 0.2689 0.54566 0.06666 0.0
H579 H 0.22161 0.75514 0.03271 0.0
H580 H 0.26556 0.74256 0.01252 0.0
H581 H 0.19219 0.69569 0.01141 0.0
H582 H 0.33591 0.67677 0.96058 0.0
H583 H 0.16069 0.55955 0.95912 0.0
H584 H 0.35844 0.67915 0.02746 0.0
H585 H 0.3501 0.73601 0.01767 0.0
H586 H 0.38833 0.71357 -0.00141 0.0
H587 H 0.14715 0.5403 0.02482 0.0
H588 H 1.10902 0.53354 -0.00442 0.0
H589 H 1.13146 0.59319 0.01629 0.0
C590 C 0.76517 0.13986 0.40287 0.0
C591 C 0.75894 0.17847 0.41749 0.0
C592 C 0.76605 0.14273 0.3763 0.0
C593 C 0.76209 0.18609 0.36421 0.0
C594 C 0.75965 0.2272 0.37918 0.0
C595 C 0.75709 0.2223 0.40553 0.0
C596 C 0.76738 0.09731 0.36113 0.0
C597 C 0.75699 0.27502 0.36731 0.0
C598 C 0.79335 0.21376 0.29429 0.0
C599 C 0.73961 0.19023 0.28288 0.0
C600 C 0.80148 0.21247 0.32062 0.0
C601 C 0.75488 0.18578 0.33604 0.0
C602 C 0.70066 0.16092 0.32465 0.0
C603 C 0.69374 0.16426 0.29846 0.0
C604 C 0.85998 0.24062 0.332 0.0
C605 C 0.64963 0.13136 0.34021 0.0
H606 H 0.76571 0.10545 0.41206 0.0
H607 H 0.7522 0.25218 0.41683 0.0
H608 H 0.72658 1.07182 0.35096 0.0
H609 H 0.79944 0.11512 0.34671 0.0
H610 H 0.77597 1.06978 0.37322 0.0
H611 H 0.76257 0.30708 0.38156 0.0
H612 H 0.78949 0.29468 0.35316 0.0
H613 H 0.71603 0.25959 0.3573 0.0
H614 H 0.82933 0.23321 0.28267 0.0
H615 H 0.65196 0.14711 0.29031 0.0
H616 H 0.86712 0.21055 0.34276 0.0
H617 H 0.86582 0.27391 0.34554 0.0
H618 H 0.89189 0.25909 0.31749 0.0
H619 H 0.6525 0.10013 0.35208 0.0
H620 H 0.6106 0.11015 0.32832 0.0
H621 H 0.64701 0.1615 0.35312 0.0
C622 C 0.78117 0.69112 0.73988 0.0
C623 C 0.74481 0.63975 0.75023 0.0
C624 C 0.7812 0.69891 0.7136 0.0
C625 C 0.7442 0.65426 0.6972 0.0
C626 C 0.70725 0.60252 0.70757 0.0
C627 C 0.70792 0.59598 0.73381 0.0
C628 C 0.82105 0.75482 0.70336 0.0
C629 C 0.66723 0.55366 0.69089 0.0
C630 C 0.70507 0.6756 0.63016 0.0
C631 C 0.73747 0.66096 0.61553 0.0
C632 C 0.70833 0.67569 0.65675 0.0
C633 C 0.74474 0.6606 0.66913 0.0
C634 C 0.77879 0.6475 0.65449 0.0
C635 C 0.77489 0.64801 0.62799 0.0
C636 C 0.67136 0.69007 0.67157 0.0
C637 C 0.8182 0.63119 0.66681 0.0
H638 H 0.80969 0.72533 0.7523 0.0
H639 H 0.67952 0.55603 0.74141 0.0
H640 H 0.84985 0.75087 0.69052 0.0
H641 H 0.79774 0.77062 0.69209 0.0
H642 H 0.84604 0.78577 0.71857 0.0
H643 H 0.64053 0.51645 0.70189 0.0
H644 H 0.64 0.56452 0.67945 0.0
H645 H 0.69071 0.54291 0.67754 0.0
H646 H 0.67574 0.6853 0.62082 0.0
H647 H 0.80096 0.63771 0.61696 0.0
H648 H 0.69629 0.72209 0.68637 0.0
H649 H 0.64013 0.65282 0.68126 0.0
H650 H 0.64903 0.70556 0.65935 0.0
H651 H 0.84606 0.66326 0.68104 0.0
H652 H 0.84418 0.62535 0.6529 0.0
H653 H 0.79415 0.5919 0.67688 0.0
C654 C 0.69476 0.13427 0.58628 0.0
C655 C 0.66298 0.102 0.56522 0.0
C656 C 0.6753 0.11957 0.61081 0.0
C657 C 0.62296 1.07171 0.61419 0.0
C658 C 0.5907 1.03939 0.59298 0.0
C659 C 0.6111 1.05481 0.56884 0.0
C660 C 0.71081 0.15483 0.63309 0.0
C661 C 0.53466 0.98802 0.59575 0.0
C662 C 0.58618 0.99156 0.67453 0.0
C663 C 0.54926 1.0063 0.68495 0.0
C664 C 0.61267 1.01471 0.65211 0.0
C665 C 0.60199 1.0536 0.63981 0.0
C666 C 0.56635 1.07021 0.6507 0.0
C667 C 0.54044 1.04639 0.67322 0.0
C668 C 0.65054 0.99606 0.64115 0.0
C669 C 0.55387 0.11145 0.63806 0.0
H670 H 0.73481 0.17079 0.58363 0.0
H671 H 0.58601 1.02953 0.55275 0.0
H672 H 0.68708 0.16919 0.64437 0.0
H673 H 0.72195 0.1298 0.64562 0.0
H674 H 0.74974 0.19158 0.62724 0.0
H675 H 0.51412 0.96832 0.57725 0.0
H676 H 0.53963 0.95723 0.60702 0.0
H677 H 0.50671 0.99853 0.60604 0.0
H678 H 0.59445 0.96181 0.68396 0.0
H679 H 0.51225 1.05814 0.68136 0.0
H680 H 0.69105 1.03244 0.63671 0.0
H681 H 0.63152 0.9724 0.6232 0.0
H682 H 0.65832 0.96932 0.65415 0.0
H683 H 0.59306 0.14899 0.6332 0.0
H684 H 0.52982 0.12409 0.65016 0.0
H685 H 0.52944 1.09294 0.62016 0.0
C686 C 0.7398 0.53907 0.9138 0.0
C687 C 0.72448 0.57591 0.90336 0.0
C688 C 0.71515 0.50985 0.93546 0.0
C689 C 0.67389 0.51745 0.94691 0.0
C690 C 0.66005 0.55656 0.93716 0.0
C691 C 0.68582 0.58567 0.91549 0.0
C692 C 0.73166 0.46914 0.94546 0.0
C693 C 0.61617 0.56565 0.94889 0.0
C694 C 0.5714 0.39665 0.98517 0.0
C695 C 0.59361 0.4145 0.00976 0.0
C696 C 0.59636 0.4304 0.96452 0.0
C697 C 0.64446 0.48315 0.96866 0.0
C698 C 0.66635 0.50174 -0.00652 0.0
C699 C 0.64052 0.46737 0.0137 0.0
C700 C 0.57189 0.40925 0.93825 0.0
C701 C 0.71757 0.55762 -0.00134 0.0
H702 H 0.76983 0.53158 0.90445 0.0
H703 H 0.67341 0.61361 0.90725 0.0
H704 H 0.74401 0.47785 0.9658 0.0
H705 H 0.69557 0.42646 0.94364 0.0
H706 H 0.76668 0.47049 0.9352 0.0
H707 H 0.61296 0.60015 0.94013 0.0
H708 H 0.57511 0.52726 0.94664 0.0
H709 H 0.62543 0.5748 0.96943 0.0
H710 H 0.53501 0.35603 0.98208 0.0
H711 H 0.65693 0.48223 0.03274 0.0
H712 H 0.60237 0.40462 0.92687 0.0
H713 H 0.5631 0.43955 0.92869 0.0
H714 H 0.53281 0.36862 0.93835 0.0
H715 H 0.75354 0.55938 0.98918 0.0
H716 H 0.72842 0.56647 0.01916 0.0
H717 H 0.71104 0.59085 0.99078 0.0
C718 C 0.19041 0.6972 0.25829 0.0
C719 C 0.17661 0.71688 0.2366 0.0
C720 C 0.17078 0.70174 0.28189 0.0
C721 C 1.13751 0.72718 0.28362 0.0
C722 C 1.12565 0.7491 0.26187 0.0
C723 C 1.1451 0.74342 0.23867 0.0
C724 C 0.1839 0.67768 0.30472 0.0
C725 C 1.09117 0.77739 0.26293 0.0
C726 C 1.03319 0.69665 0.3343 0.0
C727 C 1.06102 0.74468 0.34965 0.0
C728 C 1.05889 0.68889 0.31345 0.0
C729 C 1.11358 0.73026 0.30786 0.0
C730 C 1.14261 0.77778 0.32387 0.0
C731 C 1.11607 0.78427 0.34463 0.0
C732 C 1.0267 0.63751 0.29683 0.0
C733 C 0.20086 0.82291 0.31853 0.0
H734 H 0.21447 0.67637 0.25664 0.0
H735 H 1.13489 0.75924 0.22193 0.0
H736 H 0.20212 0.70908 0.32037 0.0
H737 H 1.14491 0.64248 0.31146 0.0
H738 H 0.21329 0.66263 0.30059 0.0
H739 H 1.08772 0.79415 0.24444 0.0
H740 H 1.04863 0.74759 0.26885 0.0
H741 H 1.10977 0.81196 0.27715 0.0
H742 H 0.99083 0.66576 0.33824 0.0
H743 H 1.1385 0.8206 0.35692 0.0
H744 H 1.05223 0.6177 0.2934 0.0
H745 H 1.01666 0.64903 0.27822 0.0
H746 H 0.98719 0.6067 0.30523 0.0
H747 H 0.22818 0.80498 0.31545 0.0
H748 H 0.21955 0.85454 0.33411 0.0
H749 H 0.19995 0.84389 0.30096 0.0
loop_
_geom_bond_atom_site_label_1
_geom_bond_atom_site_label_2
_geom_bond_distance
_geom_bond_site_symmetry_2
_ccdc_geom_bond_type
Tb0 C10 2.825 . S
Tb0 O11 2.347 . S
Tb0 O14 2.366 . S
Tb0 O19 2.418 . S
Tb0 O20 2.384 1_455 S
Tb0 O23 2.479 . S
Tb0 O24 2.471 . S
Eu1 O12 2.418 . S
Eu1 O13 2.384 1_655 S
Eu1 O16 2.479 . S
Eu1 O17 2.471 . S
Eu1 O18 2.347 1_655 S
Eu1 O21 2.366 . S
Eu1 C31 2.825 . S
C2 O18 1.259 . S
C2 O19 1.265 . S
C3 O20 1.255 . S
C3 O21 1.265 . S
C4 C6 1.380 . S
C4 C7 1.374 . S
C4 C10 1.507 . S
C5 C6 1.384 . S
C5 C9 1.387 . S
C5 H32 0.930 . S
C6 C4 1.380 . S
C6 C5 1.384 . S
C6 H33 0.931 . S
C7 C4 1.374 . S
C7 C8 1.390 . S
C7 H34 0.930 . S
C8 C7 1.390 . S
C8 C9 1.391 . S
C8 H35 0.930 . S
C9 C5 1.387 . S
C9 C8 1.391 . S
C10 Tb0 2.825 . S
C10 C4 1.507 . S
C10 O23 1.238 . S
C10 O24 1.247 . S
O11 Tb0 2.347 . S
O11 C15 1.259 . S
O12 Eu1 2.418 . S
O12 C15 1.265 1_655 S
O13 Eu1 2.384 1_455 S
O13 C22 1.255 . S
O14 Tb0 2.366 . S
O14 C22 1.265 . S
C15 O11 1.259 . S
C15 O12 1.265 1_455 S
O16 Eu1 2.479 . S
O16 C31 1.238 . S
O17 Eu1 2.471 . S
O17 C31 1.247 . S
O18 Eu1 2.347 1_455 S
O18 C2 1.259 . S
O19 Tb0 2.418 . S
O19 C2 1.265 . S
O20 Tb0 2.384 1_655 S
O20 C3 1.255 . S
O21 Eu1 2.366 . S
O21 C3 1.265 . S
C22 O13 1.255 . S
C22 O14 1.265 . S
O23 Tb0 2.479 . S
O23 C10 1.238 . S
O24 Tb0 2.471 . S
O24 C10 1.247 . S
C25 C28 1.380 . S
C25 C29 1.374 . S
C25 C31 1.507 . S
C26 C27 1.387 . S
C26 C30 1.391 . S
C27 C26 1.387 . S
C27 C28 1.384 . S
C27 H36 0.930 . S
C28 C25 1.380 . S
C28 C27 1.384 . S
C28 H37 0.931 . S
C29 C25 1.374 . S
C29 C30 1.390 . S
C29 H38 0.930 . S
C30 C26 1.391 . S
C30 C29 1.390 . S
C30 H39 0.930 . S
C31 Eu1 2.825 . S
C31 O16 1.238 . S
C31 O17 1.247 . S
C31 C25 1.507 . S
H32 C5 0.930 . S
H33 C6 0.931 . S
H34 C7 0.930 . S
H35 C8 0.930 . S
H36 C27 0.930 . S
H37 C28 0.931 . S
H38 C29 0.930 . S
H39 C30 0.930 . S
Tb40 C50 2.825 . S
Tb40 O51 2.347 . S
Tb40 O54 2.366 . S
Tb40 O59 2.418 . S
Tb40 O60 2.384 1_545 S
Tb40 O63 2.479 . S
Tb40 O64 2.471 . S
Eu41 O52 2.418 . S
Eu41 O53 2.384 . S
Eu41 O56 2.479 1_545 S
Eu41 O57 2.471 1_545 S
Eu41 O58 2.347 . S
Eu41 O61 2.366 1_545 S
Eu41 C71 2.825 1_545 S
C42 O58 1.259 . S
C42 O59 1.265 . S
C43 O60 1.255 . S
C43 O61 1.265 . S
C44 C46 1.380 . S
C44 C47 1.374 . S
C44 C50 1.507 . S
C45 C46 1.384 . S
C45 C49 1.387 . S
C45 H72 0.930 . S
C46 C44 1.380 . S
C46 C45 1.384 . S
C46 H73 0.931 . S
C47 C44 1.374 . S
C47 C48 1.390 . S
C47 H74 0.930 . S
C48 C47 1.390 . S
C48 C49 1.391 . S
C48 H75 0.930 . S
C49 C45 1.387 . S
C49 C48 1.391 . S
C50 Tb40 2.825 . S
C50 C44 1.507 . S
C50 O63 1.238 . S
C50 O64 1.247 . S
O51 Tb40 2.347 . S
O51 C55 1.259 . S
O52 Eu41 2.418 . S
O52 C55 1.265 . S
O53 Eu41 2.384 . S
O53 C62 1.255 . S
O54 Tb40 2.366 . S
O54 C62 1.265 . S
C55 O51 1.259 . S
C55 O52 1.265 . S
O56 Eu41 2.479 1_565 S
O56 C71 1.238 . S
O57 Eu41 2.471 1_565 S
O57 C71 1.247 . S
O58 Eu41 2.347 . S
O58 C42 1.259 . S
O59 Tb40 2.418 . S
O59 C42 1.265 . S
O60 Tb40 2.384 1_565 S
O60 C43 1.255 . S
O61 Eu41 2.366 1_565 S
O61 C43 1.265 . S
C62 O53 1.255 . S
C62 O54 1.265 . S
O63 Tb40 2.479 . S
O63 C50 1.238 . S
O64 Tb40 2.471 . S
O64 C50 1.247 . S
C65 C68 1.380 . S
C65 C69 1.374 . S
C65 C71 1.507 . S
C66 C67 1.387 . S
C66 C70 1.391 . S
C67 C66 1.387 . S
C67 C68 1.384 . S
C67 H76 0.930 . S
C68 C65 1.380 . S
C68 C67 1.384 . S
C68 H77 0.931 . S
C69 C65 1.374 . S
C69 C70 1.390 . S
C69 H78 0.930 . S
C70 C66 1.391 . S
C70 C69 1.390 . S
C70 H79 0.930 . S
C71 Eu41 2.825 1_565 S
C71 O56 1.238 . S
C71 O57 1.247 . S
C71 C65 1.507 . S
H72 C45 0.930 . S
H73 C46 0.931 . S
H74 C47 0.930 . S
H75 C48 0.930 . S
H76 C67 0.930 . S
H77 C68 0.931 . S
H78 C69 0.930 . S
H79 C70 0.930 . S
Tb80 C90 2.825 . S
Tb80 O91 2.347 . S
Tb80 O94 2.366 . S
Tb80 O99 2.418 . S
Tb80 O100 2.384 . S
Tb80 O103 2.479 . S
Tb80 O104 2.471 . S
Eu81 O92 2.418 . S
Eu81 O93 2.384 . S
Eu81 O96 2.479 . S
Eu81 O97 2.471 . S
Eu81 O98 2.347 . S
Eu81 O101 2.366 . S
Eu81 C111 2.825 . S
C82 O98 1.259 . S
C82 O99 1.265 . S
C83 O100 1.255 . S
C83 O101 1.265 . S
C84 C86 1.380 . S
C84 C87 1.374 . S
C84 C90 1.507 . S
C85 C86 1.384 . S
C85 C89 1.387 . S
C85 H112 0.930 . S
C86 C84 1.380 . S
C86 C85 1.384 . S
C86 H113 0.931 . S
C87 C84 1.374 . S
C87 C88 1.390 . S
C87 H114 0.930 . S
C88 C87 1.390 . S
C88 C89 1.391 . S
C88 H115 0.930 . S
C89 C85 1.387 . S
C89 C88 1.391 . S
C90 Tb80 2.825 . S
C90 C84 1.507 . S
C90 O103 1.238 . S
C90 O104 1.247 . S
O91 Tb80 2.347 . S
O91 C95 1.259 . S
O92 Eu81 2.418 . S
O92 C95 1.265 . S
O93 Eu81 2.384 . S
O93 C102 1.255 . S
O94 Tb80 2.366 . S
O94 C102 1.265 . S
C95 O91 1.259 . S
C95 O92 1.265 . S
O96 Eu81 2.479 . S
O96 C111 1.238 . S
O97 Eu81 2.471 . S
O97 C111 1.247 . S
O98 Eu81 2.347 . S
O98 C82 1.259 . S
O99 Tb80 2.418 . S
O99 C82 1.265 . S
O100 Tb80 2.384 . S
O100 C83 1.255 . S
O101 Eu81 2.366 . S
O101 C83 1.265 . S
C102 O93 1.255 . S
C102 O94 1.265 . S
O103 Tb80 2.479 . S
O103 C90 1.238 . S
O104 Tb80 2.471 . S
O104 C90 1.247 . S
C105 C108 1.380 . S
C105 C109 1.374 . S
C105 C111 1.507 . S
C106 C107 1.387 . S
C106 C110 1.391 . S
C107 C106 1.387 . S
C107 C108 1.384 . S
C107 H116 0.930 . S
C108 C105 1.380 . S
C108 C107 1.384 . S
C108 H117 0.931 . S
C109 C105 1.374 . S
C109 C110 1.390 . S
C109 H118 0.930 . S
C110 C106 1.391 . S
C110 C109 1.390 . S
C110 H119 0.930 . S
C111 Eu81 2.825 . S
C111 O96 1.238 . S
C111 O97 1.247 . S
C111 C105 1.507 . S
H112 C85 0.930 . S
H113 C86 0.931 . S
H114 C87 0.930 . S
H115 C88 0.930 . S
H116 C107 0.930 . S
H117 C108 0.931 . S
H118 C109 0.930 . S
H119 C110 0.930 . S
H120 C123 0.931 . S
H121 C126 0.928 . S
H122 C128 0.930 . S
C123 H120 0.931 . S
C123 C124 1.413 . S
C123 C125 1.360 1_565 S
C124 C123 1.413 . S
C124 C128 1.429 1_565 S
C125 C123 1.360 1_545 S
C125 C126 1.372 . S
C126 H121 0.928 . S
C126 C125 1.372 . S
C126 C127 1.404 . S
C127 C126 1.404 . S
C127 C128 1.391 . S
C128 H122 0.930 . S
C128 C124 1.429 1_545 S
C128 C127 1.391 . S
H129 C132 0.931 . S
H130 C135 0.928 . S
H131 C137 0.930 . S
C132 H129 0.931 . S
C132 C133 1.413 . S
C132 C134 1.360 . S
C133 C132 1.413 . S
C133 C137 1.429 . S
C134 C132 1.360 . S
C134 C135 1.372 . S
C135 H130 0.928 . S
C135 C134 1.372 . S
C135 C136 1.404 . S
C136 C135 1.404 . S
C136 C137 1.391 . S
C137 H131 0.930 . S
C137 C133 1.429 . S
C137 C136 1.391 . S
H138 C141 0.931 . S
H139 C144 0.928 . S
H140 C146 0.930 . S
C141 H138 0.931 . S
C141 C142 1.413 . S
C141 C143 1.360 1_655 S
C142 C141 1.413 . S
C142 C146 1.429 1_655 S
C143 C141 1.360 1_455 S
C143 C144 1.372 . S
C144 H139 0.928 . S
C144 C143 1.372 . S
C144 C145 1.404 . S
C145 C144 1.404 . S
C145 C146 1.391 . S
C146 H140 0.930 . S
C146 C142 1.429 1_455 S
C146 C145 1.391 . S
H147 C150 0.931 . S
H148 C153 0.928 . S
H149 C155 0.930 . S
C150 H147 0.931 . S
C150 C151 1.413 . S
C150 C152 1.360 1_655 S
C151 C150 1.413 . S
C151 C155 1.429 1_655 S
C152 C150 1.360 1_455 S
C152 C153 1.372 . S
C153 H148 0.928 . S
C153 C152 1.372 . S
C153 C154 1.404 . S
C154 C153 1.404 . S
C154 C155 1.391 . S
C155 H149 0.930 . S
C155 C151 1.429 1_455 S
C155 C154 1.391 . S
H156 C159 0.931 . S
H157 C162 0.928 . S
H158 C164 0.930 . S
C159 H156 0.931 . S
C159 C160 1.413 . S
C159 C161 1.360 . S
C160 C159 1.413 . S
C160 C164 1.426 1_545 S
C161 C159 1.360 . S
C161 C162 1.372 1_545 S
C162 H157 0.928 . S
C162 C161 1.372 1_565 S
C162 C163 1.404 . S
C163 C162 1.404 . S
C163 C164 1.394 . S
C164 H158 0.930 . S
C164 C160 1.426 1_565 S
C164 C163 1.394 . S
H165 C168 0.931 . S
H166 C171 0.928 . S
H167 C173 0.930 . S
C168 H165 0.931 . S
C168 C169 1.413 . S
C168 C170 1.360 . S
C169 C168 1.413 . S
C169 C173 1.429 . S
C170 C168 1.360 . S
C170 C171 1.372 . S
C171 H166 0.928 . S
C171 C170 1.372 . S
C171 C172 1.404 . S
C172 C171 1.404 . S
C172 C173 1.391 . S
C173 H167 0.930 . S
C173 C169 1.429 . S
C173 C172 1.391 . S
C174 C175 1.391 . S
C174 C176 1.394 . S
C174 H190 0.931 . S
C175 C174 1.391 . S
C175 C179 1.376 . S
C176 C174 1.394 . S
C176 C177 1.369 . S
C176 C180 1.531 . S
C177 C176 1.369 . S
C177 C178 1.410 . S
C177 C185 1.503 . S
C178 C177 1.410 . S
C178 C179 1.392 . S
C178 C181 1.511 . S
C179 C175 1.376 . S
C179 C178 1.392 . S
C179 H191 0.929 . S
C180 C176 1.531 . S
C180 H192 0.960 . S
C180 H193 0.962 . S
C180 H194 0.960 . S
C181 C178 1.511 . S
C181 H195 0.961 . S
C181 H196 0.961 . S
C181 H197 0.961 . S
C182 C183 1.370 . S
C182 C184 1.363 . S
C182 H198 0.931 . S
C183 C182 1.370 . S
C183 C187 1.408 . S
C184 C182 1.363 . S
C184 C185 1.370 . S
C184 C188 1.524 . S
C185 C177 1.503 . S
C185 C184 1.370 . S
C185 C186 1.403 . S
C186 C185 1.403 . S
C186 C187 1.404 . S
C186 C189 1.539 . S
C187 C183 1.408 . S
C187 C186 1.404 . S
C187 H199 0.930 . S
C188 C184 1.524 . S
C188 H200 0.956 . S
C188 H201 0.961 . S
C188 H202 0.961 . S
C189 C186 1.539 . S
C189 H203 0.958 . S
C189 H204 0.961 . S
C189 H205 0.960 . S
H190 C174 0.931 . S
H191 C179 0.929 . S
H192 C180 0.960 . S
H193 C180 0.962 . S
H194 C180 0.960 . S
H195 C181 0.961 . S
H196 C181 0.961 . S
H197 C181 0.961 . S
H198 C182 0.931 . S
H199 C187 0.930 . S
H200 C188 0.956 . S
H201 C188 0.961 . S
H202 C188 0.961 . S
H203 C189 0.958 . S
H204 C189 0.961 . S
H205 C189 0.960 . S
C206 C207 1.391 . S
C206 C208 1.394 . S
C206 H222 0.931 . S
C207 C206 1.391 . S
C207 C211 1.376 . S
C208 C206 1.394 . S
C208 C209 1.369 . S
C208 C212 1.531 . S
C209 C208 1.369 . S
C209 C210 1.410 . S
C209 C217 1.503 . S
C210 C209 1.410 . S
C210 C211 1.392 . S
C210 C213 1.511 . S
C211 C207 1.376 . S
C211 C210 1.392 . S
C211 H223 0.929 . S
C212 C208 1.531 . S
C212 H224 0.960 . S
C212 H225 0.962 . S
C212 H226 0.960 . S
C213 C210 1.511 . S
C213 H227 0.961 . S
C213 H228 0.961 . S
C213 H229 0.961 . S
C214 C215 1.370 . S
C214 C216 1.363 . S
C214 H230 0.931 . S
C215 C214 1.370 . S
C215 C219 1.408 . S
C216 C214 1.363 . S
C216 C217 1.370 . S
C216 C220 1.524 . S
C217 C209 1.503 . S
C217 C216 1.370 . S
C217 C218 1.403 . S
C218 C217 1.403 . S
C218 C219 1.404 . S
C218 C221 1.539 . S
C219 C215 1.408 . S
C219 C218 1.404 . S
C219 H231 0.930 1_655 S
C220 C216 1.524 . S
C220 H232 0.956 . S
C220 H233 0.961 . S
C220 H234 0.961 . S
C221 C218 1.539 . S
C221 H235 0.958 . S
C221 H236 0.961 . S
C221 H237 0.960 . S
H222 C206 0.931 . S
H223 C211 0.929 . S
H224 C212 0.960 . S
H225 C212 0.962 . S
H226 C212 0.960 . S
H227 C213 0.961 . S
H228 C213 0.961 . S
H229 C213 0.961 . S
H230 C214 0.931 . S
H231 C219 0.930 1_455 S
H232 C220 0.956 . S
H233 C220 0.961 . S
H234 C220 0.961 . S
H235 C221 0.958 . S
H236 C221 0.961 . S
H237 C221 0.960 . S
C238 C239 1.391 . S
C238 C240 1.394 . S
C238 H254 0.931 . S
C239 C238 1.391 . S
C239 C243 1.376 . S
C240 C238 1.394 . S
C240 C241 1.369 . S
C240 C244 1.531 . S
C241 C240 1.369 . S
C241 C242 1.410 . S
C241 C249 1.503 . S
C242 C241 1.410 . S
C242 C243 1.392 . S
C242 C245 1.511 . S
C243 C239 1.376 . S
C243 C242 1.392 . S
C243 H255 0.929 . S
C244 C240 1.531 . S
C244 H256 0.960 . S
C244 H257 0.962 . S
C244 H258 0.960 . S
C245 C242 1.511 . S
C245 H259 0.961 . S
C245 H260 0.961 . S
C245 H261 0.961 . S
C246 C247 1.370 . S
C246 C248 1.363 . S
C246 H262 0.931 . S
C247 C246 1.370 . S
C247 C251 1.408 . S
C248 C246 1.363 . S
C248 C249 1.370 . S
C248 C252 1.524 . S
C249 C241 1.503 . S
C249 C248 1.370 . S
C249 C250 1.403 . S
C250 C249 1.403 . S
C250 C251 1.404 . S
C250 C253 1.539 . S
C251 C247 1.408 . S
C251 C250 1.404 . S
C251 H263 0.930 . S
C252 C248 1.524 . S
C252 H264 0.956 . S
C252 H265 0.961 . S
C252 H266 0.961 . S
C253 C250 1.539 . S
C253 H267 0.958 . S
C253 H268 0.961 . S
C253 H269 0.960 . S
H254 C238 0.931 . S
H255 C243 0.929 . S
H256 C244 0.960 . S
H257 C244 0.962 . S
H258 C244 0.960 . S
H259 C245 0.961 . S
H260 C245 0.961 . S
H261 C245 0.961 . S
H262 C246 0.931 . S
H263 C251 0.930 . S
H264 C252 0.956 . S
H265 C252 0.961 . S
H266 C252 0.961 . S
H267 C253 0.958 . S
H268 C253 0.961 . S
H269 C253 0.960 . S
C270 C271 1.391 . S
C270 C272 1.394 . S
C270 H286 0.931 . S
C271 C270 1.391 . S
C271 C275 1.376 . S
C272 C270 1.394 . S
C272 C273 1.369 . S
C272 C276 1.531 . S
C273 C272 1.369 . S
C273 C274 1.410 . S
C273 C281 1.503 . S
C274 C273 1.410 . S
C274 C275 1.392 . S
C274 C277 1.511 . S
C275 C271 1.376 . S
C275 C274 1.392 . S
C275 H287 0.929 . S
C276 C272 1.531 . S
C276 H288 0.960 . S
C276 H289 0.962 . S
C276 H290 0.960 . S
C277 C274 1.511 . S
C277 H291 0.961 . S
C277 H292 0.961 . S
C277 H293 0.961 . S
C278 C279 1.370 . S
C278 C280 1.363 . S
C278 H294 0.931 . S
C279 C278 1.370 . S
C279 C283 1.408 . S
C280 C278 1.363 . S
C280 C281 1.370 . S
C280 C284 1.524 . S
C281 C273 1.503 . S
C281 C280 1.370 . S
C281 C282 1.403 . S
C282 C281 1.403 . S
C282 C283 1.404 . S
C282 C285 1.539 . S
C283 C279 1.408 . S
C283 C282 1.404 . S
C283 H295 0.930 . S
C284 C280 1.524 . S
C284 H296 0.956 . S
C284 H297 0.961 . S
C284 H298 0.961 . S
C285 C282 1.539 . S
C285 H299 0.958 . S
C285 H300 0.961 . S
C285 H301 0.960 . S
H286 C270 0.931 . S
H287 C275 0.929 . S
H288 C276 0.960 . S
H289 C276 0.962 . S
H290 C276 0.960 . S
H291 C277 0.961 . S
H292 C277 0.961 . S
H293 C277 0.961 . S
H294 C278 0.931 . S
H295 C283 0.930 . S
H296 C284 0.956 . S
H297 C284 0.961 . S
H298 C284 0.961 . S
H299 C285 0.958 . S
H300 C285 0.961 . S
H301 C285 0.960 . S
C302 C303 1.391 . S
C302 C304 1.394 . S
C302 H318 0.931 . S
C303 C302 1.391 . S
C303 C307 1.376 . S
C304 C302 1.394 . S
C304 C305 1.369 . S
C304 C308 1.531 . S
C305 C304 1.369 . S
C305 C306 1.410 . S
C305 C313 1.503 . S
C306 C305 1.410 . S
C306 C307 1.392 . S
C306 C309 1.511 . S
C307 C303 1.376 . S
C307 C306 1.392 . S
C307 H319 0.929 . S
C308 C304 1.531 . S
C308 H320 0.960 . S
C308 H321 0.962 . S
C308 H322 0.960 . S
C309 C306 1.511 . S
C309 H323 0.961 . S
C309 H324 0.961 . S
C309 H325 0.961 . S
C310 C311 1.370 . S
C310 C312 1.363 . S
C310 H326 0.931 . S
C311 C310 1.370 . S
C311 C315 1.408 . S
C312 C310 1.363 . S
C312 C313 1.370 . S
C312 C316 1.524 . S
C313 C305 1.503 . S
C313 C312 1.370 . S
C313 C314 1.403 . S
C314 C313 1.403 . S
C314 C315 1.404 . S
C314 C317 1.539 . S
C315 C311 1.408 . S
C315 C314 1.404 . S
C315 H327 0.930 . S
C316 C312 1.524 . S
C316 H328 0.956 . S
C316 H329 0.961 . S
C316 H330 0.961 . S
C317 C314 1.539 . S
C317 H331 0.958 . S
C317 H332 0.961 . S
C317 H333 0.960 . S
H318 C302 0.931 . S
H319 C307 0.929 . S
H320 C308 0.960 . S
H321 C308 0.962 . S
H322 C308 0.960 . S
H323 C309 0.961 . S
H324 C309 0.961 . S
H325 C309 0.961 . S
H326 C310 0.931 . S
H327 C315 0.930 . S
H328 C316 0.956 . S
H329 C316 0.961 . S
H330 C316 0.961 . S
H331 C317 0.958 . S
H332 C317 0.961 . S
H333 C317 0.960 . S
C334 C335 1.391 . S
C334 C336 1.394 . S
C334 H350 0.931 . S
C335 C334 1.391 . S
C335 C339 1.376 . S
C336 C334 1.394 . S
C336 C337 1.369 . S
C336 C340 1.531 . S
C337 C336 1.369 . S
C337 C338 1.410 . S
C337 C345 1.503 . S
C338 C337 1.410 . S
C338 C339 1.392 . S
C338 C341 1.511 . S
C339 C335 1.376 . S
C339 C338 1.392 . S
C339 H351 0.929 . S
C340 C336 1.531 . S
C340 H352 0.960 . S
C340 H353 0.962 . S
C340 H354 0.960 . S
C341 C338 1.511 . S
C341 H355 0.961 . S
C341 H356 0.961 . S
C341 H357 0.961 . S
C342 C343 1.370 . S
C342 C344 1.363 . S
C342 H358 0.931 . S
C343 C342 1.370 . S
C343 C347 1.408 . S
C344 C342 1.363 . S
C344 C345 1.370 . S
C344 C348 1.524 . S
C345 C337 1.503 . S
C345 C344 1.370 . S
C345 C346 1.403 . S
C346 C345 1.403 . S
C346 C347 1.404 . S
C346 C349 1.539 . S
C347 C343 1.408 . S
C347 C346 1.404 . S
C347 H359 0.930 . S
C348 C344 1.524 . S
C348 H360 0.956 . S
C348 H361 0.961 . S
C348 H362 0.961 . S
C349 C346 1.539 . S
C349 H363 0.958 . S
C349 H364 0.961 . S
C349 H365 0.960 . S
H350 C334 0.931 . S
H351 C339 0.929 . S
H352 C340 0.960 . S
H353 C340 0.962 . S
H354 C340 0.960 . S
H355 C341 0.961 . S
H356 C341 0.961 . S
H357 C341 0.961 . S
H358 C342 0.931 . S
H359 C347 0.930 . S
H360 C348 0.956 . S
H361 C348 0.961 . S
H362 C348 0.961 . S
H363 C349 0.958 . S
H364 C349 0.961 . S
H365 C349 0.960 . S
C366 C367 1.391 . S
C366 C368 1.394 . S
C366 H382 0.931 . S
C367 C366 1.391 . S
C367 C371 1.376 . S
C368 C366 1.394 . S
C368 C369 1.369 . S
C368 C372 1.531 . S
C369 C368 1.369 . S
C369 C370 1.410 . S
C369 C377 1.503 . S
C370 C369 1.410 . S
C370 C371 1.392 . S
C370 C373 1.511 . S
C371 C367 1.376 . S
C371 C370 1.392 . S
C371 H383 0.929 . S
C372 C368 1.531 . S
C372 H384 0.960 . S
C372 H385 0.962 . S
C372 H386 0.960 . S
C373 C370 1.511 . S
C373 H387 0.961 . S
C373 H388 0.961 . S
C373 H389 0.961 . S
C374 C375 1.370 . S
C374 C376 1.363 . S
C374 H390 0.931 . S
C375 C374 1.370 . S
C375 C379 1.408 . S
C376 C374 1.363 . S
C376 C377 1.370 . S
C376 C380 1.524 . S
C377 C369 1.503 . S
C377 C376 1.370 . S
C377 C378 1.403 . S
C378 C377 1.403 . S
C378 C379 1.404 . S
C378 C381 1.539 . S
C379 C375 1.408 . S
C379 C378 1.404 . S
C379 H391 0.930 . S
C380 C376 1.524 . S
C380 H392 0.956 . S
C380 H393 0.961 . S
C380 H394 0.961 . S
C381 C378 1.539 . S
C381 H395 0.958 . S
C381 H396 0.961 . S
C381 H397 0.960 . S
H382 C366 0.931 . S
H383 C371 0.929 . S
H384 C372 0.960 . S
H385 C372 0.962 . S
H386 C372 0.960 . S
H387 C373 0.961 . S
H388 C373 0.961 . S
H389 C373 0.961 . S
H390 C374 0.931 . S
H391 C379 0.930 . S
H392 C380 0.956 . S
H393 C380 0.961 . S
H394 C380 0.961 . S
H395 C381 0.958 . S
H396 C381 0.961 . S
H397 C381 0.960 . S
C398 C399 1.391 . S
C398 C400 1.394 . S
C398 H414 0.931 . S
C399 C398 1.391 . S
C399 C403 1.376 . S
C400 C398 1.394 . S
C400 C401 1.369 . S
C400 C404 1.531 . S
C401 C400 1.369 . S
C401 C402 1.410 . S
C401 C409 1.503 . S
C402 C401 1.410 . S
C402 C403 1.392 . S
C402 C405 1.511 . S
C403 C399 1.376 . S
C403 C402 1.392 . S
C403 H415 0.929 . S
C404 C400 1.531 . S
C404 H416 0.960 . S
C404 H417 0.962 . S
C404 H418 0.960 . S
C405 C402 1.511 . S
C405 H419 0.961 . S
C405 H420 0.961 . S
C405 H421 0.961 . S
C406 C407 1.370 . S
C406 C408 1.363 . S
C406 H422 0.931 . S
C407 C406 1.370 . S
C407 C411 1.408 . S
C408 C406 1.363 . S
C408 C409 1.370 . S
C408 C412 1.524 . S
C409 C401 1.503 . S
C409 C408 1.370 . S
C409 C410 1.403 . S
C410 C409 1.403 . S
C410 C411 1.404 . S
C410 C413 1.539 . S
C411 C407 1.408 . S
C411 C410 1.404 . S
C411 H423 0.930 . S
C412 C408 1.524 . S
C412 H424 0.956 . S
C412 H425 0.961 . S
C412 H426 0.961 . S
C413 C410 1.539 . S
C413 H427 0.958 . S
C413 H428 0.961 . S
C413 H429 0.960 . S
H414 C398 0.931 . S
H415 C403 0.929 . S
H416 C404 0.960 . S
H417 C404 0.962 . S
H418 C404 0.960 . S
H419 C405 0.961 . S
H420 C405 0.961 . S
H421 C405 0.961 . S
H422 C406 0.931 . S
H423 C411 0.930 . S
H424 C412 0.956 . S
H425 C412 0.961 . S
H426 C412 0.961 . S
H427 C413 0.958 . S
H428 C413 0.961 . S
H429 C413 0.960 . S
C430 C431 1.391 . S
C430 C432 1.394 . S
C430 H446 0.931 . S
C431 C430 1.391 . S
C431 C435 1.376 . S
C432 C430 1.394 . S
C432 C433 1.369 . S
C432 C436 1.531 . S
C433 C432 1.369 . S
C433 C434 1.410 . S
C433 C441 1.503 . S
C434 C433 1.410 . S
C434 C435 1.392 . S
C434 C437 1.511 . S
C435 C431 1.376 . S
C435 C434 1.392 . S
C435 H447 0.929 . S
C436 C432 1.531 . S
C436 H448 0.960 . S
C436 H449 0.962 . S
C436 H450 0.960 . S
C437 C434 1.511 . S
C437 H451 0.961 . S
C437 H452 0.961 . S
C437 H453 0.961 . S
C438 C439 1.370 . S
C438 C440 1.363 . S
C438 H454 0.931 . S
C439 C438 1.370 . S
C439 C443 1.408 . S
C440 C438 1.363 . S
C440 C441 1.370 . S
C440 C444 1.524 . S
C441 C433 1.503 . S
C441 C440 1.370 . S
C441 C442 1.403 . S
C442 C441 1.403 . S
C442 C443 1.404 . S
C442 C445 1.539 . S
C443 C439 1.408 . S
C443 C442 1.404 . S
C443 H455 0.930 . S
C444 C440 1.524 . S
C444 H456 0.956 . S
C444 H457 0.961 . S
C444 H458 0.961 . S
C445 C442 1.539 . S
C445 H459 0.958 . S
C445 H460 0.961 . S
C445 H461 0.960 . S
H446 C430 0.931 . S
H447 C435 0.929 . S
H448 C436 0.960 . S
H449 C436 0.962 . S
H450 C436 0.960 . S
H451 C437 0.961 . S
H452 C437 0.961 . S
H453 C437 0.961 . S
H454 C438 0.931 . S
H455 C443 0.930 . S
H456 C444 0.956 . S
H457 C444 0.961 . S
H458 C444 0.961 . S
H459 C445 0.958 . S
H460 C445 0.961 . S
H461 C445 0.960 . S
C462 C463 1.391 . S
C462 C464 1.394 . S
C462 H478 0.931 . S
C463 C462 1.391 . S
C463 C467 1.376 . S
C464 C462 1.394 . S
C464 C465 1.369 . S
C464 C468 1.531 . S
C465 C464 1.369 . S
C465 C466 1.410 . S
C465 C473 1.503 . S
C466 C465 1.410 . S
C466 C467 1.392 . S
C466 C469 1.511 . S
C467 C463 1.376 . S
C467 C466 1.392 . S
C467 H479 0.929 . S
C468 C464 1.531 . S
C468 H480 0.960 . S
C468 H481 0.962 . S
C468 H482 0.960 . S
C469 C466 1.511 . S
C469 H483 0.961 . S
C469 H484 0.961 . S
C469 H485 0.961 . S
C470 C471 1.370 . S
C470 C472 1.363 . S
C470 H486 0.931 . S
C471 C470 1.370 . S
C471 C475 1.408 . S
C472 C470 1.363 . S
C472 C473 1.370 . S
C472 C476 1.524 . S
C473 C465 1.503 . S
C473 C472 1.370 . S
C473 C474 1.403 . S
C474 C473 1.403 . S
C474 C475 1.404 . S
C474 C477 1.539 . S
C475 C471 1.408 . S
C475 C474 1.404 . S
C475 H487 0.930 . S
C476 C472 1.524 . S
C476 H488 0.956 . S
C476 H489 0.961 . S
C476 H490 0.961 . S
C477 C474 1.539 . S
C477 H491 0.958 . S
C477 H492 0.961 . S
C477 H493 0.960 . S
H478 C462 0.931 . S
H479 C467 0.929 . S
H480 C468 0.960 . S
H481 C468 0.962 . S
H482 C468 0.960 . S
H483 C469 0.961 . S
H484 C469 0.961 . S
H485 C469 0.961 . S
H486 C470 0.931 . S
H487 C475 0.930 . S
H488 C476 0.956 . S
H489 C476 0.961 . S
H490 C476 0.961 . S
H491 C477 0.958 . S
H492 C477 0.961 . S
H493 C477 0.960 . S
C494 C495 1.391 . S
C494 C496 1.394 . S
C494 H510 0.931 . S
C495 C494 1.391 . S
C495 C499 1.376 . S
C496 C494 1.394 . S
C496 C497 1.369 . S
C496 C500 1.531 . S
C497 C496 1.369 . S
C497 C498 1.410 . S
C497 C505 1.503 . S
C498 C497 1.410 . S
C498 C499 1.392 . S
C498 C501 1.511 . S
C499 C495 1.376 . S
C499 C498 1.392 . S
C499 H511 0.929 . S
C500 C496 1.531 . S
C500 H512 0.960 . S
C500 H513 0.962 . S
C500 H514 0.960 . S
C501 C498 1.511 . S
C501 H515 0.961 . S
C501 H516 0.961 . S
C501 H517 0.961 . S
C502 C503 1.370 . S
C502 C504 1.363 . S
C502 H518 0.931 . S
C503 C502 1.370 . S
C503 C507 1.408 . S
C504 C502 1.363 . S
C504 C505 1.370 . S
C504 C508 1.524 . S
C505 C497 1.503 . S
C505 C504 1.370 . S
C505 C506 1.403 . S
C506 C505 1.403 . S
C506 C507 1.404 . S
C506 C509 1.539 . S
C507 C503 1.408 . S
C507 C506 1.404 . S
C507 H519 0.930 . S
C508 C504 1.524 . S
C508 H520 0.956 . S
C508 H521 0.961 . S
C508 H522 0.961 . S
C509 C506 1.539 . S
C509 H523 0.958 . S
C509 H524 0.961 . S
C509 H525 0.960 . S
H510 C494 0.931 . S
H511 C499 0.929 . S
H512 C500 0.960 . S
H513 C500 0.962 . S
H514 C500 0.960 . S
H515 C501 0.961 . S
H516 C501 0.961 . S
H517 C501 0.961 . S
H518 C502 0.931 . S
H519 C507 0.930 . S
H520 C508 0.956 . S
H521 C508 0.961 . S
H522 C508 0.961 . S
H523 C509 0.958 . S
H524 C509 0.961 . S
H525 C509 0.960 . S
C526 C527 1.391 . S
C526 C528 1.394 . S
C526 H542 0.931 . S
C527 C526 1.391 . S
C527 C531 1.376 . S
C528 C526 1.394 . S
C528 C529 1.369 . S
C528 C532 1.531 . S
C529 C528 1.369 . S
C529 C530 1.410 . S
C529 C537 1.503 . S
C530 C529 1.410 . S
C530 C531 1.392 . S
C530 C533 1.511 . S
C531 C527 1.376 . S
C531 C530 1.392 . S
C531 H543 0.929 . S
C532 C528 1.531 . S
C532 H544 0.960 . S
C532 H545 0.962 . S
C532 H546 0.960 . S
C533 C530 1.511 . S
C533 H547 0.961 . S
C533 H548 0.961 . S
C533 H549 0.961 . S
C534 C535 1.370 . S
C534 C536 1.363 . S
C534 H550 0.931 . S
C535 C534 1.370 . S
C535 C539 1.408 . S
C536 C534 1.363 . S
C536 C537 1.370 . S
C536 C540 1.524 . S
C537 C529 1.503 . S
C537 C536 1.370 . S
C537 C538 1.403 . S
C538 C537 1.403 . S
C538 C539 1.404 . S
C538 C541 1.539 . S
C539 C535 1.408 . S
C539 C538 1.404 . S
C539 H551 0.930 . S
C540 C536 1.524 . S
C540 H552 0.956 . S
C540 H553 0.961 . S
C540 H554 0.961 . S
C541 C538 1.539 . S
C541 H555 0.958 . S
C541 H556 0.961 . S
C541 H557 0.960 . S
H542 C526 0.931 . S
H543 C531 0.929 . S
H544 C532 0.960 . S
H545 C532 0.962 . S
H546 C532 0.960 . S
H547 C533 0.961 . S
H548 C533 0.961 . S
H549 C533 0.961 . S
H550 C534 0.931 . S
H551 C539 0.930 . S
H552 C540 0.956 . S
H553 C540 0.961 . S
H554 C540 0.961 . S
H555 C541 0.958 . S
H556 C541 0.961 . S
H557 C541 0.960 . S
C558 C559 1.391 . S
C558 C560 1.394 . S
C558 H574 0.931 . S
C559 C558 1.391 . S
C559 C563 1.376 . S
C560 C558 1.394 . S
C560 C561 1.369 . S
C560 C564 1.531 . S
C561 C560 1.369 . S
C561 C562 1.410 . S
C561 C569 1.503 . S
C562 C561 1.410 . S
C562 C563 1.392 . S
C562 C565 1.511 1_455 S
C563 C559 1.376 . S
C563 C562 1.392 . S
C563 H575 0.929 . S
C564 C560 1.531 . S
C564 H576 0.960 . S
C564 H577 0.962 . S
C564 H578 0.960 . S
C565 C562 1.511 1_655 S
C565 H579 0.961 . S
C565 H580 0.961 1_655 S
C565 H581 0.961 . S
C566 C567 1.370 . S
C566 C568 1.363 . S
C566 H582 0.931 . S
C567 C566 1.370 . S
C567 C571 1.408 1_455 S
C568 C566 1.363 . S
C568 C569 1.370 1_556 S
C568 C572 1.524 1_556 S
C569 C561 1.503 . S
C569 C568 1.370 1_554 S
C569 C570 1.403 1_454 S
C570 C569 1.403 1_656 S
C570 C571 1.404 . S
C570 C573 1.547 . S
C571 C567 1.408 1_655 S
C571 C570 1.404 . S
C571 H583 0.930 . S
C572 C568 1.524 1_554 S
C572 H584 0.956 . S
C572 H585 0.961 . S
C572 H586 0.961 . S
C573 C570 1.547 . S
C573 H587 0.956 1_556 S
C573 H588 0.971 . S
C573 H589 0.943 1_556 S
H574 C558 0.931 . S
H575 C563 0.929 . S
H576 C564 0.960 . S
H577 C564 0.962 . S
H578 C564 0.960 . S
H579 C565 0.961 . S
H580 C565 0.961 1_455 S
H581 C565 0.961 . S
H582 C566 0.931 . S
H583 C571 0.930 . S
H584 C572 0.956 . S
H585 C572 0.961 . S
H586 C572 0.961 . S
H587 C573 0.956 1_554 S
H588 C573 0.971 . S
H589 C573 0.943 1_554 S
C590 C591 1.391 1_565 S
C590 C592 1.394 . S
C590 H606 0.931 . S
C591 C590 1.391 1_545 S
C591 C595 1.376 . S
C592 C590 1.394 . S
C592 C593 1.369 1_565 S
C592 C596 1.531 . S
C593 C592 1.369 1_545 S
C593 C594 1.410 . S
C593 C601 1.503 . S
C594 C593 1.410 . S
C594 C595 1.392 . S
C594 C597 1.511 . S
C595 C591 1.376 . S
C595 C594 1.392 . S
C595 H607 0.929 . S
C596 C592 1.531 . S
C596 H608 0.960 . S
C596 H609 0.962 . S
C596 H610 0.960 . S
C597 C594 1.511 . S
C597 H611 0.961 . S
C597 H612 0.961 . S
C597 H613 0.961 . S
C598 C599 1.370 . S
C598 C600 1.363 . S
C598 H614 0.931 . S
C599 C598 1.370 . S
C599 C603 1.408 . S
C600 C598 1.363 . S
C600 C601 1.370 . S
C600 C604 1.524 . S
C601 C593 1.503 . S
C601 C600 1.370 . S
C601 C602 1.403 . S
C602 C601 1.403 . S
C602 C603 1.404 . S
C602 C605 1.539 . S
C603 C599 1.408 . S
C603 C602 1.404 . S
C603 H615 0.930 . S
C604 C600 1.524 . S
C604 H616 0.956 . S
C604 H617 0.961 . S
C604 H618 0.961 . S
C605 C602 1.539 . S
C605 H619 0.958 1_545 S
C605 H620 0.961 . S
C605 H621 0.960 . S
H606 C590 0.931 . S
H607 C595 0.929 . S
H608 C596 0.960 . S
H609 C596 0.962 . S
H610 C596 0.960 . S
H611 C597 0.961 . S
H612 C597 0.961 . S
H613 C597 0.961 . S
H614 C598 0.931 . S
H615 C603 0.930 . S
H616 C604 0.956 . S
H617 C604 0.961 . S
H618 C604 0.961 . S
H619 C605 0.958 1_565 S
H620 C605 0.961 . S
H621 C605 0.960 . S
C622 C623 1.391 . S
C622 C624 1.394 . S
C622 H638 0.931 . S
C623 C622 1.391 . S
C623 C627 1.376 . S
C624 C622 1.394 . S
C624 C625 1.369 . S
C624 C628 1.531 . S
C625 C624 1.369 . S
C625 C626 1.410 . S
C625 C633 1.503 . S
C626 C625 1.410 . S
C626 C627 1.392 . S
C626 C629 1.511 . S
C627 C623 1.376 . S
C627 C626 1.392 . S
C627 H639 0.929 . S
C628 C624 1.531 . S
C628 H640 0.960 . S
C628 H641 0.962 . S
C628 H642 0.960 . S
C629 C626 1.511 . S
C629 H643 0.961 . S
C629 H644 0.961 . S
C629 H645 0.961 . S
C630 C631 1.370 . S
C630 C632 1.363 . S
C630 H646 0.931 . S
C631 C630 1.370 . S
C631 C635 1.408 . S
C632 C630 1.363 . S
C632 C633 1.370 . S
C632 C636 1.524 . S
C633 C625 1.503 . S
C633 C632 1.370 . S
C633 C634 1.403 . S
C634 C633 1.403 . S
C634 C635 1.404 . S
C634 C637 1.539 . S
C635 C631 1.408 . S
C635 C634 1.404 . S
C635 H647 0.930 . S
C636 C632 1.524 . S
C636 H648 0.956 . S
C636 H649 0.961 . S
C636 H650 0.961 . S
C637 C634 1.539 . S
C637 H651 0.958 . S
C637 H652 0.961 . S
C637 H653 0.960 . S
H638 C622 0.931 . S
H639 C627 0.929 . S
H640 C628 0.960 . S
H641 C628 0.962 . S
H642 C628 0.960 . S
H643 C629 0.961 . S
H644 C629 0.961 . S
H645 C629 0.961 . S
H646 C630 0.931 . S
H647 C635 0.930 . S
H648 C636 0.956 . S
H649 C636 0.961 . S
H650 C636 0.961 . S
H651 C637 0.958 . S
H652 C637 0.961 . S
H653 C637 0.960 . S
C654 C655 1.391 . S
C654 C656 1.394 . S
C654 H670 0.931 . S
C655 C654 1.391 . S
C655 C659 1.376 . S
C656 C654 1.394 . S
C656 C657 1.369 . S
C656 C660 1.531 . S
C657 C656 1.369 . S
C657 C658 1.410 . S
C657 C665 1.503 . S
C658 C657 1.410 . S
C658 C659 1.392 . S
C658 C661 1.511 1_545 S
C659 C655 1.376 . S
C659 C658 1.392 . S
C659 H671 0.929 1_545 S
C660 C656 1.531 . S
C660 H672 0.960 . S
C660 H673 0.962 . S
C660 H674 0.960 . S
C661 C658 1.511 1_565 S
C661 H675 0.961 . S
C661 H676 0.961 . S
C661 H677 0.961 . S
C662 C663 1.370 1_565 S
C662 C664 1.363 . S
C662 H678 0.931 . S
C663 C662 1.370 1_545 S
C663 C667 1.408 . S
C664 C662 1.363 . S
C664 C665 1.370 1_565 S
C664 C668 1.524 . S
C665 C657 1.503 . S
C665 C664 1.370 1_545 S
C665 C666 1.403 . S
C666 C665 1.403 . S
C666 C667 1.404 . S
C666 C669 1.539 . S
C667 C663 1.408 . S
C667 C666 1.404 . S
C667 H679 0.930 . S
C668 C664 1.524 . S
C668 H680 0.956 . S
C668 H681 0.961 . S
C668 H682 0.961 . S
C669 C666 1.539 . S
C669 H683 0.958 . S
C669 H684 0.961 . S
C669 H685 0.960 . S
H670 C654 0.931 . S
H671 C659 0.929 1_565 S
H672 C660 0.960 . S
H673 C660 0.962 . S
H674 C660 0.960 . S
H675 C661 0.961 . S
H676 C661 0.961 . S
H677 C661 0.961 . S
H678 C662 0.931 . S
H679 C667 0.930 . S
H680 C668 0.956 . S
H681 C668 0.961 . S
H682 C668 0.961 . S
H683 C669 0.958 . S
H684 C669 0.961 . S
H685 C669 0.960 . S
C686 C687 1.391 . S
C686 C688 1.394 . S
C686 H702 0.931 . S
C687 C686 1.391 . S
C687 C691 1.376 . S
C688 C686 1.394 . S
C688 C689 1.369 . S
C688 C692 1.531 . S
C689 C688 1.369 . S
C689 C690 1.410 . S
C689 C697 1.503 . S
C690 C689 1.410 . S
C690 C691 1.392 . S
C690 C693 1.511 . S
C691 C687 1.376 . S
C691 C690 1.392 . S
C691 H703 0.929 . S
C692 C688 1.531 . S
C692 H704 0.960 . S
C692 H705 0.962 . S
C692 H706 0.960 . S
C693 C690 1.511 . S
C693 H707 0.961 . S
C693 H708 0.961 . S
C693 H709 0.961 . S
C694 C695 1.370 . S
C694 C696 1.363 1_554 S
C694 H710 0.931 . S
C695 C694 1.370 . S
C695 C699 1.408 . S
C696 C694 1.363 1_556 S
C696 C697 1.370 . S
C696 C700 1.524 . S
C697 C689 1.503 . S
C697 C696 1.370 . S
C697 C698 1.403 1_556 S
C698 C697 1.403 1_554 S
C698 C699 1.404 . S
C698 C701 1.539 1_554 S
C699 C695 1.408 . S
C699 C698 1.404 . S
C699 H711 0.930 . S
C700 C696 1.524 . S
C700 H712 0.956 . S
C700 H713 0.961 . S
C700 H714 0.961 . S
C701 C698 1.539 1_556 S
C701 H715 0.958 . S
C701 H716 0.961 1_556 S
C701 H717 0.960 . S
H702 C686 0.931 . S
H703 C691 0.929 . S
H704 C692 0.960 . S
H705 C692 0.962 . S
H706 C692 0.960 . S
H707 C693 0.961 . S
H708 C693 0.961 . S
H709 C693 0.961 . S
H710 C694 0.931 . S
H711 C699 0.930 . S
H712 C700 0.956 . S
H713 C700 0.961 . S
H714 C700 0.961 . S
H715 C701 0.958 . S
H716 C701 0.961 1_554 S
H717 C701 0.960 . S
C718 C719 1.391 . S
C718 C720 1.394 . S
C718 H734 0.931 . S
C719 C718 1.391 . S
C719 C723 1.376 . S
C720 C718 1.394 . S
C720 C721 1.369 . S
C720 C724 1.531 . S
C721 C720 1.369 . S
C721 C722 1.410 . S
C721 C729 1.503 . S
C722 C721 1.410 . S
C722 C723 1.392 . S
C722 C725 1.511 . S
C723 C719 1.376 . S
C723 C722 1.392 . S
C723 H735 0.929 . S
C724 C720 1.531 . S
C724 H736 0.960 . S
C724 H737 0.962 . S
C724 H738 0.960 . S
C725 C722 1.511 . S
C725 H739 0.961 1_455 S
C725 H740 0.961 1_455 S
C725 H741 0.961 . S
C726 C727 1.370 1_655 S
C726 C728 1.363 . S
C726 H742 0.931 . S
C727 C726 1.370 1_455 S
C727 C731 1.408 . S
C728 C726 1.363 . S
C728 C729 1.370 1_655 S
C728 C732 1.524 . S
C729 C721 1.503 . S
C729 C728 1.370 1_455 S
C729 C730 1.403 . S
C730 C729 1.403 . S
C730 C731 1.404 . S
C730 C733 1.539 . S
C731 C727 1.408 . S
C731 C730 1.404 . S
C731 H743 0.930 . S
C732 C728 1.524 . S
C732 H744 0.956 . S
C732 H745 0.961 . S
C732 H746 0.961 . S
C733 C730 1.539 . S
C733 H747 0.958 . S
C733 H748 0.961 . S
C733 H749 0.960 . S
H734 C718 0.931 . S
H735 C723 0.929 . S
H736 C724 0.960 . S
H737 C724 0.962 . S
H738 C724 0.960 . S
H739 C725 0.961 1_655 S
H740 C725 0.961 1_655 S
H741 C725 0.961 . S
H742 C726 0.931 . S
H743 C731 0.930 . S
H744 C732 0.956 . S
H745 C732 0.961 . S
H746 C732 0.961 . S
H747 C733 0.958 . S
H748 C733 0.961 . S
H749 C733 0.960 . S
C175 C9 0.519 . S
C183 C169 0.560 . S
C207 C49 0.533 . S
C215 C151 0.410 . S
C239 C89 0.425 . S
C247 C163 0.401 . S
C271 C26 0.649 . S
C279 C172 0.497 . S
C311 C154 0.567 . S
C303 C66 0.714 . S
C343 C160 0.616 . S
C335 C106 0.675 . S
C367 C43 2.865 . S
C375 C133 2.858 . S
C399 C83 2.961 . S
C407 C142 2.939 . S
C431 C22 2.992 . S
C439 C124 2.967 . S
C471 C136 2.955 . S
C463 C62 2.987 . S
C503 C145 2.875 . S
C495 C102 2.899 . S
C527 C3 2.864 . S
C535 C127 2.853 . S
C567 C143 1.810 . S
C559 C15 1.738 . S
C591 C55 1.732 . S
C599 C125 1.809 . S
C623 C95 1.763 . S
C631 C134 1.805 . S
C663 C161 1.019 . S
C655 C42 1.017 . S
C695 C170 1.022 . S
C687 C82 0.981 . S
C719 C2 0.998 . S
C727 C152 1.010 . S
