# Generated by pormake.
# Topology ptr, (4,4)-cn, num edge types: 1
# Building blocks:
#     Node 0, Type 0, BuildingBlock: UXUYUI_clean_sbu_0, # of connection points: 4
#     Node 1, Type 0, BuildingBlock: UXUYUI_clean_sbu_0, # of connection points: 4
#     Node 2, Type 0, BuildingBlock: UXUYUI_clean_sbu_0, # of connection points: 4
#     Node 3, Type 0, BuildingBlock: UXUYUI_clean_sbu_0, # of connection points: 4
#     Node 4, Type 0, BuildingBlock: UXUYUI_clean_sbu_0, # of connection points: 4
#     Node 5, Type 0, BuildingBlock: UXUYUI_clean_sbu_0, # of connection points: 4
#     Node 6, Type 0, BuildingBlock: UXUYUI_clean_sbu_0, # of connection points: 4
#     Node 7, Type 0, BuildingBlock: UXUYUI_clean_sbu_0, # of connection points: 4
#     Node 8, Type 0, BuildingBlock: UXUYUI_clean_sbu_0, # of connection points: 4
#     Node 9, Type 0, BuildingBlock: UXUYUI_clean_sbu_0, # of connection points: 4
#     Node 10, Type 0, BuildingBlock: UXUYUI_clean_sbu_0, # of connection points: 4
#     Node 11, Type 0, BuildingBlock: UXUYUI_clean_sbu_0, # of connection points: 4
#     Node 12, Type 0, BuildingBlock: UXUYUI_clean_sbu_0, # of connection points: 4
#     Node 13, Type 0, BuildingBlock: UXUYUI_clean_sbu_0, # of connection points: 4
#     Node 14, Type 0, BuildingBlock: UXUYUI_clean_sbu_0, # of connection points: 4
#     Node 15, Type 0, BuildingBlock: UXUYUI_clean_sbu_0, # of connection points: 4
#     Node 16, Type 0, BuildingBlock: UXUYUI_clean_sbu_0, # of connection points: 4
#     Node 17, Type 0, BuildingBlock: UXUYUI_clean_sbu_0, # of connection points: 4
#     Node 18, Type 1, BuildingBlock: GIZVER_clean_linker_0, # of connection points: 4
#     Node 19, Type 1, BuildingBlock: GIZVER_clean_linker_0, # of connection points: 4
#     Node 20, Type 1, BuildingBlock: GIZVER_clean_linker_0, # of connection points: 4
#     Node 21, Type 1, BuildingBlock: GIZVER_clean_linker_0, # of connection points: 4
#     Node 22, Type 1, BuildingBlock: GIZVER_clean_linker_0, # of connection points: 4
#     Node 23, Type 1, BuildingBlock: GIZVER_clean_linker_0, # of connection points: 4
#     Node 24, Type 1, BuildingBlock: GIZVER_clean_linker_0, # of connection points: 4
#     Node 25, Type 1, BuildingBlock: GIZVER_clean_linker_0, # of connection points: 4
#     Node 26, Type 1, BuildingBlock: GIZVER_clean_linker_0, # of connection points: 4
#     Node 27, Type 1, BuildingBlock: GIZVER_clean_linker_0, # of connection points: 4
#     Node 28, Type 1, BuildingBlock: GIZVER_clean_linker_0, # of connection points: 4
#     Node 29, Type 1, BuildingBlock: GIZVER_clean_linker_0, # of connection points: 4
#     Node 30, Type 1, BuildingBlock: GIZVER_clean_linker_0, # of connection points: 4
#     Node 31, Type 1, BuildingBlock: GIZVER_clean_linker_0, # of connection points: 4
#     Node 32, Type 1, BuildingBlock: GIZVER_clean_linker_0, # of connection points: 4
#     Node 33, Type 1, BuildingBlock: GIZVER_clean_linker_0, # of connection points: 4
#     Node 34, Type 1, BuildingBlock: GIZVER_clean_linker_0, # of connection points: 4
#     Node 35, Type 1, BuildingBlock: GIZVER_clean_linker_0, # of connection points: 4
#     Edge 36, Type (0, 1), BuildingBlock: XIVTED_clean_linker_0, # of connection points: 2
#     Edge 37, Type (0, 1), BuildingBlock: XIVTED_clean_linker_0, # of connection points: 2
#     Edge 38, Type (0, 1), BuildingBlock: XIVTED_clean_linker_0, # of connection points: 2
#     Edge 39, Type (0, 1), BuildingBlock: XIVTED_clean_linker_0, # of connection points: 2
#     Edge 40, Type (0, 1), BuildingBlock: XIVTED_clean_linker_0, # of connection points: 2
#     Edge 41, Type (0, 1), BuildingBlock: XIVTED_clean_linker_0, # of connection points: 2
#     Edge 42, Type (0, 1), BuildingBlock: XIVTED_clean_linker_0, # of connection points: 2
#     Edge 43, Type (0, 1), BuildingBlock: XIVTED_clean_linker_0, # of connection points: 2
#     Edge 44, Type (0, 1), BuildingBlock: XIVTED_clean_linker_0, # of connection points: 2
#     Edge 45, Type (0, 1), BuildingBlock: XIVTED_clean_linker_0, # of connection points: 2
#     Edge 46, Type (0, 1), BuildingBlock: XIVTED_clean_linker_0, # of connection points: 2
#     Edge 47, Type (0, 1), BuildingBlock: XIVTED_clean_linker_0, # of connection points: 2
#     Edge 48, Type (0, 1), BuildingBlock: XIVTED_clean_linker_0, # of connection points: 2
#     Edge 49, Type (0, 1), BuildingBlock: XIVTED_clean_linker_0, # of connection points: 2
#     Edge 50, Type (0, 1), BuildingBlock: XIVTED_clean_linker_0, # of connection points: 2
#     Edge 51, Type (0, 1), BuildingBlock: XIVTED_clean_linker_0, # of connection points: 2
#     Edge 52, Type (0, 1), BuildingBlock: XIVTED_clean_linker_0, # of connection points: 2
#     Edge 53, Type (0, 1), BuildingBlock: XIVTED_clean_linker_0, # of connection points: 2
#     Edge 54, Type (0, 1), BuildingBlock: XIVTED_clean_linker_0, # of connection points: 2
#     Edge 55, Type (0, 1), BuildingBlock: XIVTED_clean_linker_0, # of connection points: 2
#     Edge 56, Type (0, 1), BuildingBlock: XIVTED_clean_linker_0, # of connection points: 2
#     Edge 57, Type (0, 1), BuildingBlock: XIVTED_clean_linker_0, # of connection points: 2
#     Edge 58, Type (0, 1), BuildingBlock: XIVTED_clean_linker_0, # of connection points: 2
#     Edge 59, Type (0, 1), BuildingBlock: XIVTED_clean_linker_0, # of connection points: 2
#     Edge 60, Type (0, 1), BuildingBlock: XIVTED_clean_linker_0, # of connection points: 2
#     Edge 61, Type (0, 1), BuildingBlock: XIVTED_clean_linker_0, # of connection points: 2
#     Edge 62, Type (0, 1), BuildingBlock: XIVTED_clean_linker_0, # of connection points: 2
#     Edge 63, Type (0, 1), BuildingBlock: XIVTED_clean_linker_0, # of connection points: 2
#     Edge 64, Type (0, 1), BuildingBlock: XIVTED_clean_linker_0, # of connection points: 2
#     Edge 65, Type (0, 1), BuildingBlock: XIVTED_clean_linker_0, # of connection points: 2
#     Edge 66, Type (0, 1), BuildingBlock: XIVTED_clean_linker_0, # of connection points: 2
#     Edge 67, Type (0, 1), BuildingBlock: XIVTED_clean_linker_0, # of connection points: 2
#     Edge 68, Type (0, 1), BuildingBlock: XIVTED_clean_linker_0, # of connection points: 2
#     Edge 69, Type (0, 1), BuildingBlock: XIVTED_clean_linker_0, # of connection points: 2
#     Edge 70, Type (0, 1), BuildingBlock: XIVTED_clean_linker_0, # of connection points: 2
#     Edge 71, Type (0, 1), BuildingBlock: XIVTED_clean_linker_0, # of connection points: 2
#     Edge 72, Type (0, 1), BuildingBlock: XIVTED_clean_linker_0, # of connection points: 2
#     Edge 73, Type (0, 1), BuildingBlock: XIVTED_clean_linker_0, # of connection points: 2
#     Edge 74, Type (0, 1), BuildingBlock: XIVTED_clean_linker_0, # of connection points: 2
#     Edge 75, Type (0, 1), BuildingBlock: XIVTED_clean_linker_0, # of connection points: 2
#     Edge 76, Type (0, 1), BuildingBlock: XIVTED_clean_linker_0, # of connection points: 2
#     Edge 77, Type (0, 1), BuildingBlock: XIVTED_clean_linker_0, # of connection points: 2
#     Edge 78, Type (0, 1), BuildingBlock: XIVTED_clean_linker_0, # of connection points: 2
#     Edge 79, Type (0, 1), BuildingBlock: XIVTED_clean_linker_0, # of connection points: 2
#     Edge 80, Type (0, 1), BuildingBlock: XIVTED_clean_linker_0, # of connection points: 2
#     Edge 81, Type (0, 1), BuildingBlock: XIVTED_clean_linker_0, # of connection points: 2
#     Edge 82, Type (0, 1), BuildingBlock: XIVTED_clean_linker_0, # of connection points: 2
#     Edge 83, Type (0, 1), BuildingBlock: XIVTED_clean_linker_0, # of connection points: 2
#     Edge 84, Type (0, 1), BuildingBlock: XIVTED_clean_linker_0, # of connection points: 2
#     Edge 85, Type (0, 1), BuildingBlock: XIVTED_clean_linker_0, # of connection points: 2
#     Edge 86, Type (0, 1), BuildingBlock: XIVTED_clean_linker_0, # of connection points: 2
#     Edge 87, Type (0, 1), BuildingBlock: XIVTED_clean_linker_0, # of connection points: 2
#     Edge 88, Type (0, 1), BuildingBlock: XIVTED_clean_linker_0, # of connection points: 2
#     Edge 89, Type (0, 1), BuildingBlock: XIVTED_clean_linker_0, # of connection points: 2
#     Edge 90, Type (0, 1), BuildingBlock: XIVTED_clean_linker_0, # of connection points: 2
#     Edge 91, Type (0, 1), BuildingBlock: XIVTED_clean_linker_0, # of connection points: 2
#     Edge 92, Type (0, 1), BuildingBlock: XIVTED_clean_linker_0, # of connection points: 2
#     Edge 93, Type (0, 1), BuildingBlock: XIVTED_clean_linker_0, # of connection points: 2
#     Edge 94, Type (0, 1), BuildingBlock: XIVTED_clean_linker_0, # of connection points: 2
#     Edge 95, Type (0, 1), BuildingBlock: XIVTED_clean_linker_0, # of connection points: 2
#     Edge 96, Type (0, 1), BuildingBlock: XIVTED_clean_linker_0, # of connection points: 2
#     Edge 97, Type (0, 1), BuildingBlock: XIVTED_clean_linker_0, # of connection points: 2
#     Edge 98, Type (0, 1), BuildingBlock: XIVTED_clean_linker_0, # of connection points: 2
#     Edge 99, Type (0, 1), BuildingBlock: XIVTED_clean_linker_0, # of connection points: 2
#     Edge 100, Type (0, 1), BuildingBlock: XIVTED_clean_linker_0, # of connection points: 2
#     Edge 101, Type (0, 1), BuildingBlock: XIVTED_clean_linker_0, # of connection points: 2
#     Edge 102, Type (0, 1), BuildingBlock: XIVTED_clean_linker_0, # of connection points: 2
#     Edge 103, Type (0, 1), BuildingBlock: XIVTED_clean_linker_0, # of connection points: 2
#     Edge 104, Type (0, 1), BuildingBlock: XIVTED_clean_linker_0, # of connection points: 2
#     Edge 105, Type (0, 1), BuildingBlock: XIVTED_clean_linker_0, # of connection points: 2
#     Edge 106, Type (0, 1), BuildingBlock: XIVTED_clean_linker_0, # of connection points: 2
#     Edge 107, Type (0, 1), BuildingBlock: XIVTED_clean_linker_0, # of connection points: 2
# Relax obj value: 0.092
# Max RMSD: 0.230
# Mean RMSD: 0.120
data_MOF--net-ptr--node1-UXUYUI_clean_sbu_0--node2-GIZVER_clean_linker_0--edge1-XIVTED_clean_linker_0
_symmetry_space_group_name_H-M    P1
_symmetry_Int_Tables_number       1
_symmetry_cell_setting            triclinic
loop_
_symmetry_equiv_pos_as_xyz
'x, y, z'
_cell_length_a     99.09326
_cell_length_b     99.161104
_cell_length_c     56.42749
_cell_angle_alpha  90.243206
_cell_angle_beta   90.229787
_cell_angle_gamma 120.05257
loop_
_atom_site_label
_atom_site_type_symbol
_atom_site_fract_x
_atom_site_fract_y
_atom_site_fract_z
_atom_type_partial_charge
Li0 Li 0.98761 0.35385 0.00895 0.0
Li1 Li 0.01458 0.36691 0.00819 0.0
Li2 Li 1.00136 0.37798 0.03161 0.0
Li3 Li 1.00161 0.37806 0.98572 0.0
C4 C 0.99252 0.3459 0.05056 0.0
N5 N 0.97329 0.32015 0.07744 0.0
C6 C 0.9911 0.33143 0.04538 0.0
C7 C 0.98422 0.34728 0.06948 0.0
C8 C 0.98128 0.31855 0.05914 0.0
C9 C 0.97456 0.33412 0.08287 0.0
C10 C 0.00935 0.35398 0.96645 0.0
C11 C 0.02694 0.3594 0.93379 0.0
N12 N 0.02797 0.34661 0.93935 0.0
C13 C 0.01053 0.34085 0.97178 0.0
C14 C 0.0176 0.36333 0.94727 0.0
C15 C 0.02003 0.33734 0.95791 0.0
C16 C 0.96801 0.32276 0.99373 0.0
N17 N 0.96883 0.33372 0.00915 0.0
C18 C 0.94387 0.31549 0.02506 0.0
C19 C 0.95708 0.33037 0.02466 0.0
C20 C 0.94293 0.3039 0.00968 0.0
C21 C 0.95519 0.30768 0.99385 0.0
H22 H 0.97736 0.32569 0.98142 0.0
H23 H 0.95804 0.33918 0.03699 0.0
C24 C 0.03365 0.35557 0.02584 0.0
N25 N 0.03295 0.3648 0.00871 0.0
C26 C 0.04644 0.3533 0.02736 0.0
C27 C 0.05789 0.37044 0.994 0.0
C28 C 0.04472 0.37215 0.99284 0.0
C29 C 0.05879 0.36084 0.01138 0.0
H30 H 0.02433 0.35002 0.03847 0.0
H31 H 0.0439 0.37935 0.97924 0.0
C32 C 0.96863 0.36616 0.00457 0.0
N33 N 0.93707 0.35364 0.99642 0.0
C34 C 0.96212 0.35926 0.98269 0.0
C35 C 0.95912 0.36676 0.02228 0.0
C36 C 0.94613 0.35297 0.97893 0.0
C37 C 0.94318 0.36035 0.01781 0.0
C38 C 0.03467 0.39797 0.01058 0.0
C39 C 0.04219 0.3986 0.03189 0.0
C40 C 0.04342 0.40649 0.99111 0.0
C41 C 0.05842 0.40767 0.03333 0.0
C42 C 0.05962 0.41545 0.99328 0.0
N43 N 0.06673 0.41583 0.01415 0.0
C44 C 0.01016 0.39069 0.07762 0.0
C45 C 0.99548 0.39936 0.05581 0.0
C46 C 0.01164 0.40042 0.09659 0.0
N47 N 1.00221 0.39037 0.05779 0.0
C48 C 0.99656 0.40919 0.07445 0.0
C49 C 0.00478 0.40986 0.0952 0.0
H50 H 0.0155 0.38349 0.07858 0.0
H51 H 0.98937 0.39897 0.03967 0.0
C52 C 0.99405 0.38355 0.93931 0.0
N53 N 1.00135 0.39023 0.9601 0.0
C54 C 0.99299 0.39268 0.9214 0.0
C55 C 0.00724 0.41539 0.94652 0.0
C56 C 0.00792 0.40581 0.96399 0.0
C57 C 0.99956 0.40882 0.92498 0.0
H58 H 0.98888 0.37111 0.93676 0.0
H59 H 0.01345 0.41075 0.98086 0.0
O60 O 1.00187 0.35861 0.03706 0.0
O61 O 1.00023 0.35771 0.97994 0.0
O62 O 0.98421 0.37217 0.0087 0.0
O63 O 0.01882 0.38898 0.00872 0.0
H64 H 0.9973 0.33011 0.03065 0.0
H65 H 0.98507 0.35834 0.07363 0.0
H66 H 0.97997 0.30726 0.05521 0.0
H67 H 0.96801 0.335 0.09749 0.0
H68 H 0.03344 0.36657 0.91897 0.0
H69 H 0.0044 0.33359 0.98673 0.0
H70 H 0.01694 0.37361 0.94301 0.0
H71 H 0.02115 0.32729 0.96195 0.0
H72 H 0.93464 0.31298 0.03755 0.0
H73 H 0.95477 0.2991 0.98147 0.0
H74 H 0.04682 0.34601 0.04128 0.0
H75 H 0.06719 0.37643 0.98134 0.0
H76 H 0.96931 0.35856 0.96892 0.0
H77 H 0.96397 0.37197 0.03937 0.0
H78 H 0.94091 0.34751 0.96213 0.0
H79 H 0.93566 0.36066 0.03138 0.0
H80 H 0.03559 0.39197 0.04704 0.0
H81 H 0.03776 0.40605 0.97445 0.0
H82 H 0.06442 0.40818 0.04966 0.0
H83 H 0.06656 0.42204 0.97834 0.0
H84 H 0.01834 0.40073 0.11199 0.0
H85 H 0.99095 0.41611 0.07263 0.0
H86 H 0.98712 0.38717 0.90494 0.0
H87 H 0.01229 0.42773 0.95011 0.0
Li88 Li 0.64626 0.63587 0.008 0.0
Li89 Li 0.63166 0.64994 0.00801 0.0
Li90 Li 0.62079 0.62402 0.02614 0.0
Li91 Li 0.62275 0.62709 0.98326 0.0
C92 C 0.65257 0.65064 0.0497 0.0
N93 N 0.67955 0.66503 0.0767 0.0
C94 C 0.66108 0.66689 0.0516 0.0
C95 C 0.65771 0.64171 0.06165 0.0
C96 C 0.6747 0.67394 0.06533 0.0
C97 C 0.67141 0.64921 0.07516 0.0
C98 C 0.64555 0.64769 0.95775 0.0
C99 C 0.64085 0.6533 0.91802 0.0
N100 N 0.64978 0.64755 0.90942 0.0
C101 C 0.65473 0.6419 0.94854 0.0
C102 C 0.6386 0.6535 0.94242 0.0
C103 C 0.65671 0.64191 0.92404 0.0
C104 C 0.66846 0.62576 0.00518 0.0
N105 N 0.66673 0.63838 0.00866 0.0
C106 C 0.69441 0.65516 0.01021 0.0
C107 C 0.67932 0.65291 0.01104 0.0
C108 C 0.69663 0.64239 0.00615 0.0
C109 C 0.68334 0.6275 0.00383 0.0
H110 H 0.65828 0.61437 0.0027 0.0
H111 H 0.67766 0.66281 0.01324 0.0
C112 C 0.62606 0.67223 0.02974 0.0
N113 N 0.6335 0.66997 0.01132 0.0
C114 C 0.62706 0.68663 0.0332 0.0
C115 C 0.64406 0.69647 -0.00066 0.0
C116 C 0.64236 0.68169 0.99614 0.0
C117 C 0.63639 0.69917 0.01817 0.0
H118 H 0.61938 0.66282 0.04187 0.0
H119 H 0.64836 0.67964 0.98184 0.0
C120 C 0.62172 0.59968 0.01114 0.0
N121 N 0.60636 0.56979 0.02895 0.0
C122 C 0.60725 0.58861 0.00175 0.0
C123 C 0.6284 0.59555 0.02953 0.0
C124 C 0.59967 0.57356 0.011 0.0
C125 C 0.62044 0.58037 0.03831 0.0
C126 C 0.60094 0.63825 0.00577 0.0
C127 C 0.59206 0.63655 0.02592 0.0
C128 C 0.60068 0.64715 0.98681 0.0
C129 C 0.5831 0.64382 0.02676 0.0
C130 C 0.59159 0.65426 0.98836 0.0
N131 N 0.58306 0.65246 0.00814 0.0
C132 C 0.61302 0.60944 0.07162 0.0
C133 C 0.59214 0.60139 0.04421 0.0
C134 C 0.60291 0.59907 0.08851 0.0
N135 N 0.60747 0.6104 0.05001 0.0
C136 C 0.5816 0.59103 0.06063 0.0
C137 C 0.58696 0.58979 0.08311 0.0
H138 H 0.62526 0.61671 0.07575 0.0
H139 H 0.5881 0.60228 0.02676 0.0
C140 C 0.61823 0.60815 0.94349 0.0
N141 N 0.61252 0.6163 0.95492 0.0
C142 C 0.60973 0.5979 0.92508 0.0
C143 C 0.58981 0.60493 0.93012 0.0
C144 C 0.59868 0.615 0.9485 0.0
C145 C 0.59516 0.59596 0.9185 0.0
H146 H 0.62909 0.60912 0.94937 0.0
H147 H 0.59414 0.6212 0.95834 0.0
O148 O 0.63926 0.64353 0.03623 0.0
O149 O 0.64319 0.64747 0.98163 0.0
O150 O 0.6291 0.61461 0.00283 0.0
O151 O 0.60995 0.63139 0.00472 0.0
H152 H 0.65728 0.67398 0.04248 0.0
H153 H 0.65135 0.62914 0.0602 0.0
H154 H 0.68144 0.6865 0.0669 0.0
H155 H 0.67559 0.64245 0.08436 0.0
H156 H 0.63549 0.65771 0.90593 0.0
H157 H 0.66015 0.6373 0.96015 0.0
H158 H 0.6315 0.65807 0.94928 0.0
H159 H 0.66373 0.63739 0.91665 0.0
H160 H 0.70419 0.66685 0.01243 0.0
H161 H 0.68434 0.61732 0.00011 0.0
H162 H 0.6206 0.68784 0.04765 0.0
H163 H 0.65164 0.70573 0.98752 0.0
H164 H 0.60182 0.59166 0.98771 0.0
H165 H 0.63952 0.60401 0.03714 0.0
H166 H 0.58843 0.56489 0.00399 0.0
H167 H 0.62543 0.57703 0.05263 0.0
H168 H 0.59225 0.62988 0.04089 0.0
H169 H 0.60757 0.6487 0.97117 0.0
H170 H 0.57623 0.64265 0.04228 0.0
H171 H 0.59136 0.66125 0.97387 0.0
H172 H 0.60746 0.59853 0.10575 0.0
H173 H 0.56941 0.58397 0.05574 0.0
H174 H 0.61436 0.59132 0.91644 0.0
H175 H 0.57856 0.60364 0.92585 0.0
Li176 Li 0.3769 0.99925 0.97947 0.0
Li177 Li 0.37683 0.99978 0.02539 0.0
Li178 Li 0.35277 0.98544 0.00149 0.0
Li179 Li 0.36548 0.01248 0.00238 0.0
C180 C 0.36547 0.96668 0.00095 0.0
N181 N 0.35352 0.93489 -0.00214 0.0
C182 C 0.35823 0.95725 0.02052 0.0
C183 C 0.36676 0.95998 0.97986 0.0
C184 C 0.35221 0.94119 0.01858 0.0
C185 C 0.36062 0.94387 0.97864 0.0
C186 C 0.3961 0.03247 0.99724 0.0
C187 C 0.41283 0.05923 0.00916 0.0
N188 N 0.41255 0.0638 0.98656 0.0
C189 C 0.39601 0.03742 0.97411 0.0
C190 C 0.40459 0.04343 0.01492 0.0
C191 C 0.40439 0.05332 0.96908 0.0
C192 C 0.38646 1.0002 0.93108 0.0
N193 N 0.38995 0.99998 0.95435 0.0
C194 C 0.41375 1.00077 0.94424 0.0
C195 C 0.4033 1.00033 0.96116 0.0
C196 C 0.41027 1.00061 0.92009 0.0
C197 C 0.39643 1.00031 0.91352 0.0
H198 H 0.37602 1.00039 0.92613 0.0
H199 H 0.4058 1.00025 0.97983 0.0
C200 C 0.38143 0.98888 0.06908 0.0
N201 N 0.38867 0.99955 0.05174 0.0
C202 C 0.39016 0.98735 0.08729 0.0
C203 C 0.41354 0.00828 0.06997 0.0
C204 C 0.40438 0.00924 0.0519 0.0
C205 C 0.40644 0.99703 0.08773 0.0
H206 H 0.36891 0.98136 0.0685 0.0
H207 H 0.40984 0.01744 0.03764 0.0
C208 C 0.34334 0.99057 0.96177 0.0
N209 N 0.31506 0.97232 0.93904 0.0
C210 C 0.3301 0.99106 0.96896 0.0
C211 C 0.34216 0.98077 0.94301 0.0
C212 C 0.31591 0.98174 0.95727 0.0
C213 C 0.32778 0.97166 0.93172 0.0
C214 C 0.3529 0.00702 0.04512 0.0
C215 C 0.33968 0.0083 0.04084 0.0
C216 C 0.36243 0.01463 0.06471 0.0
C217 C 0.33633 0.01736 0.05609 0.0
C218 C 0.35866 0.02355 0.07957 0.0
N219 N 0.34581 0.02473 0.07497 0.0
C220 C 0.32241 0.96564 0.01844 0.0
C221 C 0.32864 0.95472 0.9858 0.0
C222 C 0.3075 0.95261 0.01959 0.0
N223 N 0.33264 0.96654 0.00168 0.0
C224 C 0.31386 0.94137 0.98646 0.0
C225 C 0.30304 0.94023 0.00347 0.0
H226 H 0.32584 0.97505 0.03102 0.0
H227 H 0.33686 0.95565 0.97251 0.0
C228 C 0.36992 0.04187 0.01962 0.0
N229 N 0.36345 0.03088 0.00217 0.0
C230 C 0.36823 0.05505 0.01929 0.0
C231 C 0.35339 0.04548 0.98294 0.0
C232 C 0.3555 0.03259 0.98386 0.0
C233 C 0.35974 0.05691 0.00086 0.0
H234 H 0.3764 0.04043 0.03385 0.0
H235 H 0.35087 0.024 0.96979 0.0
O236 O 0.37133 0.98241 0.00239 0.0
O237 O 0.38765 0.01699 0.00259 0.0
O238 O 0.35729 0.99947 0.97324 0.0
O239 O 0.35643 0.99826 0.03034 0.0
H240 H 0.35705 0.96225 0.03691 0.0
H241 H 0.37233 0.96713 0.96454 0.0
H242 H 0.34646 0.93372 0.03352 0.0
H243 H 0.36147 0.93851 0.96241 0.0
H244 H 0.41939 0.06786 0.02268 0.0
H245 H 0.38939 0.02907 0.96028 0.0
H246 H 0.40465 0.03978 0.03296 0.0
H247 H 0.40438 0.05733 0.95128 0.0
H248 H 0.42431 1.00099 0.94993 0.0
H249 H 0.39351 1.00041 0.89503 0.0
H250 H 0.38425 0.97865 0.10082 0.0
H251 H 0.42607 0.01585 0.06961 0.0
H252 H 0.33072 0.99842 0.98359 0.0
H253 H 0.35214 0.97988 0.93758 0.0
H254 H 0.30557 0.98195 0.96274 0.0
H255 H 0.32669 0.96396 0.91728 0.0
H256 H 0.33216 0.00248 0.0258 0.0
H257 H 0.37271 0.01379 0.06831 0.0
H258 H 0.3262 0.01854 0.05289 0.0
H259 H 0.36598 0.02957 0.09472 0.0
H260 H 0.29964 0.9521 0.03329 0.0
H261 H 0.31089 0.93213 0.97363 0.0
H262 H 0.37335 0.06361 0.03342 0.0
H263 H 0.34709 0.04663 0.96808 0.0
Li264 Li 0.01514 0.64702 0.00237 0.0
Li265 Li 1.00211 0.62381 0.02621 0.0
Li266 Li 0.99906 0.62188 0.98384 0.0
Li267 Li 0.9872 0.6337 0.00683 0.0
C268 C 0.03223 0.63245 0.01314 0.0
N269 N 0.06003 0.63955 0.03505 0.0
C270 C 0.038 0.64315 0.03193 0.0
C271 C 0.04062 0.62538 0.00547 0.0
C272 C 0.05207 0.64658 0.04277 0.0
C273 C 0.05465 0.62912 0.01678 0.0
C274 C 0.99612 0.64375 0.05308 0.0
C275 C 0.97643 0.62962 0.08242 0.0
N276 N 0.9817 0.64298 0.09529 0.0
C277 C 1.00137 0.65732 0.06662 0.0
C278 C 0.98357 0.62977 0.06106 0.0
C279 C 0.99392 0.6567 0.08789 0.0
C280 C 0.03308 0.67929 0.01015 0.0
N281 N 0.03336 0.66713 -0.00053 0.0
C282 C 0.05973 0.68379 0.98735 0.0
C283 C 0.04627 0.66911 0.98799 0.0
C284 C 0.05996 0.69654 -0.00121 0.0
C285 C 0.04629 0.69413 0.01008 0.0
H286 H 0.02266 0.67736 0.01918 0.0
H287 H 0.04624 0.65925 0.9797 0.0
C288 C 0.99619 0.5968 0.04944 0.0
N289 N 0.00365 0.61253 0.05226 0.0
C290 C 0.9973 0.58746 0.06687 0.0
C291 C 0.01393 0.61072 0.08973 0.0
C292 C 0.01226 0.6196 0.07202 0.0
C293 C 0.00642 0.59444 0.08717 0.0
H294 H 0.98959 0.59153 0.03339 0.0
H295 H 0.01802 0.63214 0.07387 0.0
C296 C 0.00658 0.64779 0.95592 0.0
N297 N 0.02141 0.66022 0.91354 0.0
C298 C 1.00204 0.65645 0.94194 0.0
C299 C 0.01865 0.64542 0.9483 0.0
C300 C 0.00968 0.66265 0.92058 0.0
C301 C 0.02601 0.65181 0.92684 0.0
C302 C 0.96854 0.60223 0.99686 0.0
C303 C 0.96414 0.60726 0.97666 0.0
C304 C 0.95853 0.5874 0.00586 0.0
C305 C 0.94982 0.59734 0.96576 0.0
C306 C 0.94429 0.57782 0.99445 0.0
N307 N 0.94027 0.58294 0.9748 0.0
C308 C 1.00188 0.59804 0.96364 0.0
C309 C 0.99053 0.60809 0.93712 0.0
C310 C 1.00072 0.58722 0.94671 0.0
N311 N 0.99689 0.60821 0.95856 0.0
C312 C 0.98907 0.59739 0.91965 0.0
C313 C 0.99425 0.58679 0.92435 0.0
H314 H 0.0067 0.5983 0.98098 0.0
H315 H 0.98658 0.61627 0.93358 0.0
C316 C 0.97075 0.64938 -0.00212 0.0
N317 N 0.96968 0.63676 0.00901 0.0
C318 C 0.95803 0.6518 0.99737 0.0
C319 C 0.94343 0.62841 0.0204 0.0
C320 C 0.95643 0.62642 0.02039 0.0
C321 C 0.94403 0.64114 0.00851 0.0
H322 H 0.98142 0.65739 0.98894 0.0
H323 H 0.95584 0.61646 0.02911 0.0
O324 O 0.01849 0.62887 0.00214 0.0
O325 O 0.00336 0.64427 0.03222 0.0
O326 O 0.99915 0.64169 0.97688 0.0
O327 O 0.98248 0.61171 0.008 0.0
H328 H 0.03171 0.64876 0.03811 0.0
H329 H 0.03634 0.61711 0.9909 0.0
H330 H 0.05666 0.65483 0.05734 0.0
H331 H 0.06126 0.62373 0.01103 0.0
H332 H 0.96669 0.61888 0.08878 0.0
H333 H 0.01111 0.66823 0.06074 0.0
H334 H 0.97935 0.61912 0.05094 0.0
H335 H 0.99785 0.66712 0.09853 0.0
H336 H 0.06988 0.68507 0.97819 0.0
H337 H 0.04593 0.70347 0.01951 0.0
H338 H 0.99145 0.57496 0.0642 0.0
H339 H 0.02096 0.61648 0.10527 0.0
H340 H 0.99269 0.65836 0.94754 0.0
H341 H 0.02231 0.63871 0.95876 0.0
H342 H 0.00629 0.66938 0.9096 0.0
H343 H 0.03537 0.65007 0.92075 0.0
H344 H 0.97164 0.61871 0.96948 0.0
H345 H 0.9617 0.58335 0.02155 0.0
H346 H 0.94628 0.60109 0.95013 0.0
H347 H 0.93644 0.56632 0.00123 0.0
H348 H 0.00465 0.57913 0.9512 0.0
H349 H 0.98415 0.59756 0.90256 0.0
H350 H 0.95901 0.66163 0.98764 0.0
H351 H 0.93298 0.61999 0.02946 0.0
Li352 Li 0.35563 0.37122 0.00886 0.0
Li353 Li 0.3805 0.38 0.02869 0.0
Li354 Li 0.37884 0.38006 0.98659 0.0
Li355 Li 0.36795 0.35517 0.00604 0.0
C356 C 0.3718 0.40209 0.02359 0.0
N357 N 0.36694 0.42165 0.05285 0.0
C358 C 0.36346 0.39645 0.04463 0.0
C359 C 0.37769 0.41767 0.01747 0.0
C360 C 0.36113 0.40652 0.05917 0.0
C361 C 0.3751 0.42738 0.03248 0.0
C362 C 0.36079 0.35245 0.05386 0.0
C363 C 0.37451 0.34265 0.07699 0.0
N364 N 0.36212 0.33563 0.09182 0.0
C365 C 0.34818 0.34513 0.06929 0.0
C366 C 0.37407 0.3512 0.0577 0.0
C367 C 0.34908 0.33669 0.0884 0.0
C368 C 0.32369 0.35675 0.01947 0.0
N369 N 0.3358 0.37005 0.01075 0.0
C370 C 0.31946 0.38123 0.00594 0.0
C371 C 0.33394 0.38213 0.00379 0.0
C372 C 0.30676 0.36774 0.01527 0.0
C373 C 0.30901 0.35533 0.02188 0.0
H374 H 0.32551 0.34731 0.02481 0.0
H375 H 0.34371 0.39255 0.99672 0.0
C376 C 0.40772 0.40358 0.0498 0.0
N377 N 0.39339 0.39142 0.055 0.0
C378 C 0.41794 0.41264 0.06793 0.0
C379 C 0.39825 0.3968 0.09643 0.0
C380 C 0.38841 0.38808 0.07776 0.0
C381 C 0.41329 0.4092 0.09165 0.0
H382 H 0.41118 0.40628 0.0315 0.0
H383 H 0.37676 0.37878 0.08149 0.0
C384 C 0.35068 0.36308 0.96142 0.0
N385 N 0.33494 0.36702 0.92399 0.0
C386 C 0.34072 0.35038 0.9471 0.0
C387 C 0.35263 0.37778 0.95672 0.0
C388 C 0.33287 0.35261 0.92825 0.0
C389 C 0.34457 0.37953 0.93771 0.0
C390 C 0.40118 0.37351 0.99045 0.0
C391 C 0.39689 0.36421 0.97 0.0
C392 C 0.41682 0.38471 0.99427 0.0
C393 C 0.40831 0.36638 0.9536 0.0
C394 C 0.4279 0.38653 0.97742 0.0
N395 N 0.42345 0.37742 0.9576 0.0
C396 C 0.403 0.4065 0.96591 0.0
C397 C 0.38803 0.38682 0.93757 0.0
C398 C 0.41315 0.41599 0.94834 0.0
N399 N 0.39081 0.3922 0.9603 0.0
C400 C 0.39775 0.39604 0.91936 0.0
C401 C 0.41058 0.41078 0.92472 0.0
H402 H 0.40499 0.4104 0.98419 0.0
H403 H 0.37846 0.37527 0.93361 0.0
C404 C 0.34893 0.32245 0.00712 0.0
N405 N 0.36396 0.33422 0.00586 0.0
C406 C 0.34547 0.30694 0.00739 0.0
C407 C 0.37305 0.31598 0.00525 0.0
C408 C 0.37597 0.3313 0.00537 0.0
C409 C 0.35761 0.30347 0.00613 0.0
H410 H 0.33962 0.32514 0.00798 0.0
H411 H 0.38784 0.34085 0.00498 0.0
O412 O 0.37435 0.39254 0.00899 0.0
O413 O 0.35994 0.36058 0.03494 0.0
O414 O 0.3583 0.36098 0.98004 0.0
O415 O 0.39005 0.37184 0.00632 0.0
H416 H 0.35879 0.38444 0.04973 0.0
H417 H 0.38419 0.42221 0.00126 0.0
H418 H 0.35468 0.40231 0.07549 0.0
H419 H 0.37958 0.43947 0.02795 0.0
H420 H 0.38471 0.34159 0.08018 0.0
H421 H 0.3378 0.34596 0.06652 0.0
H422 H 0.38395 0.35678 0.04598 0.0
H423 H 0.33941 0.33097 0.1005 0.0
H424 H 0.31824 0.39101 0.00038 0.0
H425 H 0.29963 0.34479 0.02946 0.0
H426 H 0.42941 0.4221 0.06342 0.0
H427 H 0.39403 0.39399 0.11443 0.0
H428 H 0.33907 0.33892 0.95056 0.0
H429 H 0.3603 0.38776 0.96755 0.0
H430 H 0.32513 0.34288 0.91703 0.0
H431 H 0.34598 0.39084 0.93387 0.0
H432 H 0.3848 0.35559 0.96666 0.0
H433 H 0.42039 0.39193 0.01003 0.0
H434 H 0.40513 0.35936 0.93762 0.0
H435 H 0.44004 0.3952 0.9801 0.0
H436 H 0.42287 0.42731 0.95316 0.0
H437 H 0.39552 0.39153 0.90139 0.0
H438 H 0.33341 0.2978 0.00861 0.0
H439 H 0.38283 0.31403 0.00393 0.0
Li440 Li 0.6338 0.9887 0.00436 0.0
Li441 Li 0.62459 0.0043 0.02772 0.0
Li442 Li 0.62401 0.00407 0.98508 0.0
Li443 Li 0.64865 0.01841 0.00498 0.0
C444 C 0.59806 0.97906 0.99731 0.0
N445 N 0.56873 0.96609 0.97696 0.0
C446 C 0.58755 0.98363 0.00498 0.0
C447 C 0.59366 0.96789 0.97929 0.0
C448 C 0.57277 0.97694 0.99447 0.0
C449 C 0.57877 0.96147 0.96924 0.0
C450 C 0.64555 1.00074 0.05493 0.0
C451 C 0.65503 0.0097 0.09461 0.0
N452 N 0.64761 0.99468 0.10214 0.0
C453 C 0.63814 0.98539 0.06301 0.0
C454 C 0.65417 0.013 0.07079 0.0
C455 C 0.63928 0.98257 0.08696 0.0
C456 C 0.65032 0.97239 0.00629 0.0
N457 N 0.63583 0.9706 0.00447 0.0
C458 C 0.62418 0.94289 0.00572 0.0
C459 C 0.62287 0.95624 0.00407 0.0
C460 C 0.63896 0.9443 0.0083 0.0
C461 C 0.65216 0.95935 0.00829 0.0
H462 H 0.66041 0.98398 0.00686 0.0
H463 H 0.61148 0.95514 0.00307 0.0
C464 C 0.60944 0.01517 0.05852 0.0
N465 N 0.61273 0.00356 0.05477 0.0
C466 C 0.59903 0.01381 0.07618 0.0
C467 C 0.59532 0.98844 0.08567 0.0
C468 C 0.60586 0.99032 0.06785 0.0
C469 C 0.59167 1.00023 0.08986 0.0
H470 H 0.61431 0.0252 0.04714 0.0
H471 H 0.60809 0.98095 0.06385 0.0
C472 C 0.64384 0.00239 0.95393 0.0
N473 N 0.64458 0.99994 0.90525 0.0
C474 C 0.64725 0.01519 0.93969 0.0
C475 C 0.64093 0.98838 0.94347 0.0
C476 C 0.64752 0.0137 0.91509 0.0
C477 C 0.64135 0.98737 0.9188 0.0
C478 C 0.63738 0.03751 0.01248 0.0
C479 C 0.63713 0.04817 0.99658 0.0
C480 C 0.64485 0.04276 0.03442 0.0
C481 C 0.64438 0.06392 0.00295 0.0
C482 C 0.65196 0.05859 0.04013 0.0
N483 N 0.65158 0.06876 0.0244 0.0
C484 C 0.60481 0.0134 0.96324 0.0
C485 C 0.60778 0.99521 0.93977 0.0
C486 C 0.59474 0.01397 0.94647 0.0
N487 N 0.61128 0.0043 0.95952 0.0
C488 C 0.5977 0.99536 0.92253 0.0
C489 C 0.5911 0.0049 0.92575 0.0
H490 H 0.6072 0.01998 0.97955 0.0
H491 H 0.61251 0.98757 0.93755 0.0
C492 C 0.68105 0.03733 0.01672 0.0
N493 N 0.66907 0.0363 0.00346 0.0
C494 C 0.69608 0.0502 0.01447 0.0
C495 C 0.68599 0.06089 0.98564 0.0
C496 C 0.67132 0.0477 0.98803 0.0
C497 C 0.69877 0.06219 -0.00143 0.0
H498 H 0.67899 0.02799 0.02865 0.0
H499 H 0.66172 0.04651 0.97735 0.0
O500 O 0.61272 0.9858 0.00695 0.0
O501 O 0.64457 0.00374 0.03154 0.0
O502 O 0.64358 0.0036 0.97803 0.0
O503 O 0.63068 0.02209 0.00638 0.0
H504 H 0.5908 0.99239 0.0187 0.0
H505 H 0.60176 0.96447 0.97273 0.0
H506 H 0.56454 0.98042 0.00017 0.0
H507 H 0.57525 0.95289 0.95516 0.0
H508 H 0.66162 0.01907 0.1071 0.0
H509 H 0.63142 0.97576 0.05099 0.0
H510 H 0.66022 0.02494 0.06477 0.0
H511 H 0.63351 0.97075 0.09349 0.0
H512 H 0.61366 0.9316 0.0053 0.0
H513 H 0.66379 0.96111 0.01068 0.0
H514 H 0.59629 0.02303 0.07841 0.0
H515 H 0.58993 0.97779 0.09583 0.0
H516 H 0.64948 0.0261 0.94753 0.0
H517 H 0.63832 0.97838 0.95428 0.0
H518 H 0.65004 0.02348 0.90383 0.0
H519 H 0.63907 0.97659 0.91043 0.0
H520 H 0.63164 0.04439 0.97936 0.0
H521 H 0.64511 0.03466 0.0469 0.0
H522 H 0.64434 0.0723 0.99079 0.0
H523 H 0.65778 0.0628 0.05705 0.0
H524 H 0.58965 0.02122 0.94991 0.0
H525 H 0.59519 0.98819 0.9068 0.0
H526 H 0.70552 0.05047 0.02457 0.0
H527 H 0.68725 0.06988 0.97355 0.0
Li528 Li 0.65979 0.69334 0.33769 0.0
Li529 Li 0.68863 0.70715 0.33974 0.0
Li530 Li 0.67335 0.71789 0.35992 0.0
Li531 Li 0.67618 0.71953 0.31712 0.0
C532 C 0.6685 0.68613 0.38152 0.0
N533 N 0.65817 0.66119 0.41199 0.0
C534 C 0.67643 0.67782 0.38311 0.0
C535 C 0.65537 0.68182 0.39552 0.0
C536 C 0.67101 0.66523 0.39861 0.0
C537 C 0.65031 0.66915 0.41078 0.0
C538 C 0.67801 0.69104 0.2943 0.0
C539 C 0.69115 0.69038 0.25878 0.0
N540 N 0.6842 0.67462 0.26053 0.0
C541 C 0.67095 0.67483 0.29568 0.0
C542 C 0.68815 0.69888 0.27564 0.0
C543 C 0.67425 0.66674 0.27846 0.0
C544 C 0.62896 0.67227 0.32259 0.0
N545 N 0.64118 0.67323 0.33506 0.0
C546 C 0.62695 0.64576 0.34211 0.0
C547 C 0.64042 0.6603 0.34463 0.0
C548 C 0.61418 0.64429 0.32899 0.0
C549 C 0.61534 0.65789 0.31923 0.0
H550 H 0.6299 0.68267 0.31487 0.0
H551 H 0.65035 0.66111 0.35381 0.0
C552 C 0.71748 0.71382 0.35922 0.0
N553 N 0.7068 0.70495 0.34238 0.0
C554 C 0.73094 0.71281 0.3626 0.0
C555 C 0.72232 0.69372 0.33103 0.0
C556 C 0.70899 0.695 0.32842 0.0
C557 C 0.73351 0.70261 0.34843 0.0
H558 H 0.71544 0.72158 0.3702 0.0
H559 H 0.7004 0.68791 0.31532 0.0
C560 C 0.64643 0.71523 0.34603 0.0
N561 N 0.62635 0.72289 0.3682 0.0
C562 C 0.64697 0.72925 0.34079 0.0
C563 C 0.63555 0.705 0.36228 0.0
C564 C 0.63676 0.73294 0.35227 0.0
C565 C 0.62553 0.70911 0.37336 0.0
C566 C 0.70649 0.74052 0.33217 0.0
C567 C 0.71317 0.7558 0.34073 0.0
C568 C 0.71379 0.73704 0.31396 0.0
C569 C 0.72702 0.76739 0.33076 0.0
C570 C 0.72764 0.74894 0.30448 0.0
N571 N 0.7339 0.76375 0.31298 0.0
C572 C 0.66912 0.72491 0.40811 0.0
C573 C 0.6761 0.74477 0.37962 0.0
C574 C 0.6688 0.73462 0.42589 0.0
N575 N 0.67271 0.73013 0.38551 0.0
C576 C 0.67592 0.75484 0.39676 0.0
C577 C 0.67229 0.74985 0.42031 0.0
H578 H 0.66665 0.71329 0.41242 0.0
H579 H 0.67888 0.74858 0.36146 0.0
C580 C 0.67554 0.72773 0.26867 0.0
N581 N 0.67834 0.73283 0.29152 0.0
C582 C 0.67778 0.73809 0.25037 0.0
C583 C 0.68523 0.75859 0.27954 0.0
C584 C 0.68295 0.74787 0.29723 0.0
C585 C 0.68275 0.75377 0.25573 0.0
H586 H 0.67156 0.71564 0.26466 0.0
H587 H 0.68491 0.75155 0.31559 0.0
O588 O 0.67365 0.69846 0.36642 0.0
O589 O 0.67486 0.69914 0.31097 0.0
O590 O 0.65654 0.71154 0.33537 0.0
O591 O 0.69283 0.72908 0.34152 0.0
H592 H 0.68662 0.68099 0.37241 0.0
H593 H 0.64908 0.68809 0.39451 0.0
H594 H 0.67701 0.65867 0.39997 0.0
H595 H 0.64013 0.66564 0.42164 0.0
H596 H 0.699 0.69631 0.24429 0.0
H597 H 0.66315 0.66856 0.31 0.0
H598 H 0.69365 0.7114 0.27413 0.0
H599 H 0.66891 0.65421 0.27938 0.0
H600 H 0.62668 0.63578 0.3503 0.0
H601 H 0.60603 0.65744 0.30855 0.0
H602 H 0.73903 0.7197 0.37656 0.0
H603 H 0.72381 0.68584 0.31946 0.0
H604 H 0.65527 0.73725 0.32816 0.0
H605 H 0.63486 0.69402 0.36628 0.0
H606 H 0.63712 0.74381 0.34853 0.0
H607 H 0.6171 0.70135 0.38607 0.0
H608 H 0.70769 0.75869 0.35487 0.0
H609 H 0.70885 0.72528 0.30728 0.0
H610 H 0.73229 0.77927 0.33715 0.0
H611 H 0.7334 0.7464 0.29036 0.0
H612 H 0.66617 0.73036 0.44389 0.0
H613 H 0.6785 0.76639 0.39156 0.0
H614 H 0.67547 0.73384 0.23226 0.0
H615 H 0.68912 0.77056 0.28445 0.0
Li616 Li 0.28547 0.95154 0.32146 0.0
Li617 Li 0.28642 0.95352 0.36439 0.0
Li618 Li 0.29781 0.97777 0.34023 0.0
Li619 Li 0.31083 0.96234 0.34449 0.0
C620 C 0.26487 0.96328 0.33108 0.0
N621 N 0.24334 0.9692 0.30927 0.0
C622 C 0.24971 0.9567 0.33987 0.0
C623 C 0.26911 0.97306 0.31142 0.0
C624 C 0.23898 0.95977 0.32853 0.0
C625 C 0.25807 0.97587 0.30059 0.0
C626 C 0.28519 0.92705 0.35551 0.0
C627 C 0.28386 0.91057 0.38779 0.0
N628 N 0.26979 0.89917 0.37953 0.0
C629 C 0.27076 0.91515 0.34728 0.0
C630 C 0.29185 0.92473 0.37585 0.0
C631 C 0.26315 0.90114 0.35969 0.0
C632 C 0.28221 0.9339 0.28143 0.0
N633 N 0.27412 0.93849 0.29544 0.0
C634 C 0.25085 0.92302 0.27279 0.0
C635 C 0.25869 0.9332 0.29165 0.0
C636 C 0.25895 0.91815 0.25787 0.0
C637 C 0.27484 0.9237 0.2625 0.0
H638 H 0.2944 0.93808 0.28518 0.0
H639 H 0.2524 0.93671 0.30336 0.0
C640 C 0.28017 0.94388 0.41297 0.0
N641 N 0.27399 0.94268 0.39099 0.0
C642 C 0.27077 0.93452 0.43136 0.0
C643 C 0.2488 0.92327 0.40427 0.0
C644 C 0.25865 0.93267 0.38638 0.0
C645 C 0.25487 0.92403 0.42704 0.0
H646 H 0.29243 0.95185 0.4161 0.0
H647 H 0.25417 0.93165 0.36857 0.0
C648 C 0.3114 0.97765 0.29362 0.0
N649 N 0.32206 0.99249 0.25063 0.0
C650 C 0.32733 0.98781 0.29015 0.0
C651 C 0.30095 0.97487 0.27499 0.0
C652 C 0.33248 0.99526 0.26837 0.0
C653 C 0.30655 0.98252 0.25346 0.0
C654 C 0.32011 0.98136 0.38142 0.0
C655 C 0.3296 0.99742 0.37844 0.0
C656 C 0.32513 0.97334 0.396 0.0
C657 C 0.34406 0.0052 0.38998 0.0
C658 C 0.33968 0.98154 0.40719 0.0
N659 N 0.34876 0.99716 0.40396 0.0
C660 C 0.29201 1.00151 0.35369 0.0
C661 C 0.31087 0.00933 0.32336 0.0
C662 C 0.29353 0.01628 0.35425 0.0
N663 N 0.30065 0.99832 0.33846 0.0
C664 C 0.31275 0.02428 0.32329 0.0
C665 C 0.30407 0.02797 0.33899 0.0
H666 H 0.28405 0.99257 0.36562 0.0
H667 H 0.31771 0.00662 0.31154 0.0
C668 C 0.33125 0.95006 0.34648 0.0
N669 N 0.33073 0.96346 0.34496 0.0
C670 C 0.34549 0.95038 0.3451 0.0
C671 C 0.35843 0.97831 0.34067 0.0
C672 C 0.34398 0.97746 0.34264 0.0
C673 C 0.35937 0.96461 0.34151 0.0
H674 H 0.32058 0.93904 0.34825 0.0
H675 H 0.34331 0.98799 0.34174 0.0
O676 O 0.27553 0.96043 0.34206 0.0
O677 O 0.2926 0.94102 0.34399 0.0
O678 O 0.30619 0.97007 0.3148 0.0
O679 O 0.30599 0.97352 0.37009 0.0
H680 H 0.24624 0.94932 0.3553 0.0
H681 H 0.28087 0.97864 0.30483 0.0
H682 H 0.22719 0.95469 0.33509 0.0
H683 H 0.26123 0.98342 0.28536 0.0
H684 H 0.28881 0.90866 0.40367 0.0
H685 H 0.26539 0.91676 0.33164 0.0
H686 H 0.30295 0.93386 0.38258 0.0
H687 H 0.25193 0.89186 0.3536 0.0
H688 H 0.23864 0.91913 0.26983 0.0
H689 H 0.2815 0.92004 0.25182 0.0
H690 H 0.27584 0.9355 0.44876 0.0
H691 H 0.23667 0.91518 0.40016 0.0
H692 H 0.33565 0.99009 0.30415 0.0
H693 H 0.28863 0.96682 0.27695 0.0
H694 H 0.34476 0.00323 0.26557 0.0
H695 H 0.29855 0.98049 0.23897 0.0
H696 H 0.3259 0.00381 0.36725 0.0
H697 H 0.31797 0.9609 0.39838 0.0
H698 H 0.35155 0.01762 0.38776 0.0
H699 H 0.34376 0.97547 0.41838 0.0
H700 H 0.2868 0.01862 0.367 0.0
H701 H 0.32093 0.03284 0.31109 0.0
H702 H 0.34552 0.93952 0.34645 0.0
H703 H 0.36862 0.98957 0.33761 0.0
Li704 Li 0.04677 0.33761 0.32149 0.0
Li705 Li 0.04515 0.33711 0.36466 0.0
Li706 Li 0.02135 0.32378 0.33999 0.0
Li707 Li 0.03666 0.35241 0.34298 0.0
C708 C 0.04415 0.3105 0.33316 0.0
N709 N 0.05648 0.29371 0.31272 0.0
C710 C 0.05702 0.31057 0.34352 0.0
C711 C 0.03746 0.30178 0.31253 0.0
C712 C 0.0631 0.30203 0.33289 0.0
C713 C 0.0439 0.2934 0.30242 0.0
C714 C 0.0673 0.37067 0.34221 0.0
C715 C 0.07831 0.39666 0.35838 0.0
N716 N 0.08542 0.40259 0.33734 0.0
C717 C 0.07476 0.37702 0.32076 0.0
C718 C 0.06914 0.38055 0.36122 0.0
C719 C 0.08386 0.39319 0.31865 0.0
C720 C 0.05567 0.338 0.27326 0.0
N721 N 0.0597 0.33808 0.29632 0.0
C722 C 0.08375 0.33982 0.28504 0.0
C723 C 0.07348 0.33912 0.30247 0.0
C724 C 0.07997 0.33986 0.26108 0.0
C725 C 0.06574 0.33897 0.25521 0.0
H726 H 0.04474 0.33739 0.26889 0.0
H727 H 0.07655 0.33958 0.32098 0.0
C728 C 0.04991 0.32208 0.40385 0.0
N729 N 0.05568 0.33578 0.39205 0.0
C730 C 0.05851 0.32052 0.42224 0.0
C731 C 0.07868 0.34725 0.41618 0.0
C732 C 0.06973 0.34827 0.3979 0.0
C733 C 0.0732 0.33318 0.42844 0.0
H734 H 0.03883 0.31224 0.39851 0.0
H735 H 0.07422 0.35889 0.38788 0.0
C736 C 0.01539 0.33443 0.29994 0.0
N737 N 0.98869 0.32387 0.27274 0.0
C738 C 0.0066 0.34188 0.30127 0.0
C739 C 0.01071 0.32172 0.28462 0.0
C740 C 0.99312 0.33633 0.2874 0.0
C741 C 0.99714 0.31652 0.27108 0.0
C742 C 0.02309 0.3346 0.39198 0.0
C743 C 0.01282 0.31959 0.40008 0.0
C744 C 0.03162 0.34661 0.40827 0.0
C745 C 0.01132 0.31681 0.42444 0.0
C746 C 0.0298 0.34335 0.43249 0.0
N747 N 0.01978 0.32864 0.44 0.0
C748 C 0.99865 0.29155 0.33966 0.0
C749 C 0.98826 0.30844 0.33742 0.0
C750 C 0.98365 0.27855 0.34048 0.0
N751 N 1.00067 0.30614 0.33828 0.0
C752 C 0.97306 0.29577 0.33778 0.0
C753 C 0.97053 0.28052 0.33978 0.0
H754 H 0.00869 0.29003 0.34094 0.0
H755 H 0.99016 0.32015 0.33696 0.0
C756 C 0.04158 0.38068 0.32388 0.0
N757 N 0.03555 0.3711 0.34282 0.0
C758 C 0.04164 0.39477 0.3232 0.0
C759 C 0.02855 0.38857 0.361 0.0
C760 C 0.02901 0.37469 0.36116 0.0
C761 C 0.03509 0.39887 0.34194 0.0
H762 H 0.04642 0.37738 0.30932 0.0
H763 H 0.02415 0.36678 0.37589 0.0
O764 O 0.03819 0.319 0.34306 0.0
O765 O 0.05812 0.35488 0.34451 0.0
O766 O 0.02856 0.33961 0.31349 0.0
O767 O 0.02498 0.33749 0.3682 0.0
H768 H 0.06239 0.31731 0.35943 0.0
H769 H 0.02747 0.30157 0.30434 0.0
H770 H 0.07312 0.30205 0.34063 0.0
H771 H 0.0389 0.28668 0.28638 0.0
H772 H 0.07974 0.40444 0.37288 0.0
H773 H 0.07342 0.36958 0.30582 0.0
H774 H 0.06335 0.37585 0.37788 0.0
H775 H 0.08964 0.39827 0.30213 0.0
H776 H 0.09471 0.34072 0.29024 0.0
H777 H 0.06244 0.33897 0.23689 0.0
H778 H 0.05377 0.3095 0.43137 0.0
H779 H 0.09003 0.35721 0.42008 0.0
H780 H 0.01006 0.35173 0.31303 0.0
H781 H 0.01743 0.31589 0.2833 0.0
H782 H 0.98615 0.34192 0.28834 0.0
H783 H 0.99332 0.30664 0.25924 0.0
H784 H 0.00618 0.31016 0.3877 0.0
H785 H 0.03968 0.35827 0.40226 0.0
H786 H 0.00346 0.30524 0.43098 0.0
H787 H 0.03639 0.3525 0.4453 0.0
H788 H 0.98242 0.26715 0.34259 0.0
H789 H 0.96343 0.29797 0.33689 0.0
H790 H 0.04653 0.40226 0.30798 0.0
H791 H 0.02334 0.39132 0.37571 0.0
Li792 Li 0.68074 0.98078 0.33836 0.0
Li793 Li 0.66758 0.95655 0.36015 0.0
Li794 Li 0.66733 0.95643 0.31808 0.0
Li795 Li 0.65224 0.96596 0.33801 0.0
C796 C 0.6988 0.96818 0.3522 0.0
N797 N 0.72538 0.97704 0.37902 0.0
C798 C 0.70147 0.97695 0.37295 0.0
C799 C 0.70966 0.96392 0.34511 0.0
C800 C 0.71497 0.98131 0.38625 0.0
C801 C 0.72302 0.96852 0.3589 0.0
C802 C 0.65807 0.97492 0.38541 0.0
C803 C 0.63553 0.9603 0.41004 0.0
N804 N 0.64087 0.97269 0.42513 0.0
C805 C 0.66331 0.9875 0.40115 0.0
C806 C 0.64406 0.96119 0.38987 0.0
C807 C 0.65446 0.98614 0.42114 0.0
C808 C 0.69678 0.01275 0.34982 0.0
N809 N 0.6983 1.00144 0.33862 0.0
C810 C 0.72508 0.01946 0.33031 0.0
C811 C 0.71205 0.00452 0.32876 0.0
C812 C 0.72402 0.03136 0.34232 0.0
C813 C 0.70954 0.02783 0.35195 0.0
H814 H 0.68572 0.00996 0.35754 0.0
H815 H 0.71301 0.99531 0.32003 0.0
C816 C 0.67006 0.93263 0.38141 0.0
N817 N 0.66919 0.94556 0.38666 0.0
C818 C 0.6725 0.9244 0.39934 0.0
C819 C 0.67332 0.9431 0.42777 0.0
C820 C 0.67082 0.95093 0.4093 0.0
C821 C 0.67431 0.92971 0.42287 0.0
H822 H 0.66936 0.929 0.36314 0.0
H823 H 0.67065 0.96152 0.41305 0.0
C824 C 0.67479 0.98296 0.29098 0.0
N825 N 0.69187 0.99823 0.25142 0.0
C826 C 0.67044 0.99184 0.27716 0.0
C827 C 0.68782 0.98184 0.28467 0.0
C828 C 0.67923 0.99948 0.25722 0.0
C829 C 0.6963 0.98965 0.26461 0.0
C830 C 0.64003 0.93194 0.32549 0.0
C831 C 0.63255 0.9335 0.3055 0.0
C832 C 0.63849 0.91747 0.33066 0.0
C833 C 0.62375 0.92056 0.29088 0.0
C834 C 0.62961 0.90481 0.31558 0.0
N835 N 0.6225 0.90661 0.29616 0.0
C836 C 0.67385 0.93485 0.29718 0.0
C837 C 0.66181 0.94414 0.27056 0.0
C838 C 0.67374 0.92466 0.27995 0.0
N839 N 0.66785 0.94422 0.29227 0.0
C840 C 0.66133 0.93401 0.25286 0.0
C841 C 0.66725 0.92403 0.25754 0.0
H842 H 0.67843 0.93508 0.31471 0.0
H843 H 0.65704 0.95165 0.26719 0.0
C844 C 0.63666 0.98296 0.33946 0.0
N845 N 0.63421 0.96823 0.33816 0.0
C846 C 0.62407 0.98561 0.33866 0.0
C847 C 0.60665 0.95782 0.33557 0.0
C848 C 0.61956 0.95571 0.3369 0.0
C849 C 0.60877 0.97296 0.33609 0.0
H850 H 0.64844 0.99269 0.34089 0.0
H851 H 0.61787 0.94407 0.33653 0.0
O852 O 0.68566 0.96366 0.3388 0.0
O853 O 0.66662 0.97619 0.3657 0.0
O854 O 0.66628 0.9755 0.31058 0.0
O855 O 0.64899 0.94459 0.33969 0.0
H856 H 0.69325 0.98039 0.37878 0.0
H857 H 0.70776 0.95713 0.32909 0.0
H858 H 0.71717 0.98809 0.40234 0.0
H859 H 0.73152 0.9653 0.35361 0.0
H860 H 0.62468 0.94976 0.41371 0.0
H861 H 0.67414 0.9982 0.39797 0.0
H862 H 0.63978 0.95131 0.37797 0.0
H863 H 0.65839 0.99579 0.43348 0.0
H864 H 0.73589 0.02162 0.32232 0.0
H865 H 0.70815 0.03648 0.36171 0.0
H866 H 0.67351 0.91433 0.39471 0.0
H867 H 0.6746 0.94757 0.44568 0.0
H868 H 0.66038 0.99283 0.28183 0.0
H869 H 0.69138 0.97503 0.29512 0.0
H870 H 0.676 0.0064 0.24637 0.0
H871 H 0.70642 0.98888 0.25954 0.0
H872 H 0.6338 0.94467 0.30104 0.0
H873 H 0.64406 0.91599 0.34614 0.0
H874 H 0.61802 0.92164 0.27525 0.0
H875 H 0.62837 0.89356 0.31932 0.0
H876 H 0.6783 0.91707 0.28432 0.0
H877 H 0.65636 0.93397 0.23571 0.0
H878 H 0.62639 0.99748 0.33982 0.0
H879 H 0.5952 0.94765 0.33339 0.0
Li880 Li 0.0526 0.71753 0.36344 0.0
Li881 Li 0.02842 0.7078 0.34166 0.0
Li882 Li 0.04213 0.69324 0.3416 0.0
Li883 Li 0.0526 0.71759 0.32067 0.0
C884 C 0.03344 0.69014 0.3886 0.0
N885 N 0.03515 0.67451 0.4279 0.0
C886 C 0.02014 0.68103 0.40207 0.0
C887 C 0.04762 0.69132 0.39513 0.0
C888 C 0.02124 0.67322 0.42187 0.0
C889 C 0.04824 0.68333 0.41505 0.0
C890 C 0.04318 0.73898 0.35548 0.0
C891 C 0.04566 0.76409 0.36294 0.0
N892 N 0.03652 0.75824 0.3824 0.0
C893 C 0.03381 0.73321 0.37556 0.0
C894 C 0.04916 0.75454 0.3491 0.0
C895 C 0.03058 0.74313 0.38894 0.0
C896 C 0.07995 0.73927 0.38688 0.0
N897 N 0.06454 0.72913 0.39031 0.0
C898 C 0.06709 0.73565 0.4315 0.0
C899 C 0.05795 0.72732 0.412 0.0
C900 C 0.08313 0.74603 0.4286 0.0
C901 C 0.08952 0.74792 0.40587 0.0
H902 H 0.08483 0.74053 0.36936 0.0
H903 H 0.04562 0.71932 0.41422 0.0
C904 C 0.9962 0.69219 0.35021 0.0
N905 N 0.00812 0.70563 0.34151 0.0
C906 C 0.98121 0.69014 0.35168 0.0
C907 C 0.99095 0.71567 0.3347 0.0
C908 C 0.00575 0.71721 0.33352 0.0
C909 C 0.97845 0.70205 0.34412 0.0
H910 H 0.99841 0.68316 0.35639 0.0
H911 H 0.01539 0.72777 0.32653 0.0
C912 C 0.07366 0.70754 0.3293 0.0
N913 N 0.09331 0.70098 0.3034 0.0
C914 C 0.06798 0.6976 0.3096 0.0
C915 C 0.08933 0.71413 0.33584 0.0
C916 C 0.07809 0.69443 0.29674 0.0
C917 C 0.09908 0.71067 0.32252 0.0
C918 C 0.02546 0.69958 0.29438 0.0
C919 C 0.01654 0.68676 0.27959 0.0
C920 C 0.02699 0.71402 0.28894 0.0
C921 C 0.00924 0.6886 0.25963 0.0
C922 C 0.01951 0.71538 0.26883 0.0
N923 N 0.01086 0.70275 0.25471 0.0
C924 C 0.02682 0.66137 0.32954 0.0
C925 C 0.05038 0.6699 0.35093 0.0
C926 C 0.02486 0.64646 0.32705 0.0
N927 N 0.03952 0.67276 0.34106 0.0
C928 C 0.04881 0.65513 0.34904 0.0
C929 C 0.03603 0.64318 0.33665 0.0
H930 H 0.0184 0.66398 0.32182 0.0
H931 H 0.06045 0.67917 0.35986 0.0
C932 C 0.07431 0.74459 0.29628 0.0
N933 N 0.06447 0.72898 0.29398 0.0
C934 C 0.08345 0.75323 0.27716 0.0
C935 C 0.07221 0.72951 0.25384 0.0
C936 C 0.06325 0.72138 0.2733 0.0
C937 C 0.08247 0.74569 0.25553 0.0
H938 H 0.07507 0.75031 0.313 0.0
H939 H 0.05539 0.70895 0.27194 0.0
O940 O 0.03247 0.69781 0.36915 0.0
O941 O 0.04655 0.72955 0.34201 0.0
O942 O 0.06402 0.71087 0.34223 0.0
O943 O 0.03264 0.69788 0.31399 0.0
H944 H 0.00908 0.68002 0.39727 0.0
H945 H 0.05806 0.69836 0.38502 0.0
H946 H 0.01103 0.66612 0.43246 0.0
H947 H 0.05914 0.68414 0.4203 0.0
H948 H 0.05021 0.77616 0.3582 0.0
H949 H 0.029 0.7212 0.38076 0.0
H950 H 0.05641 0.75918 0.33359 0.0
H951 H 0.02333 0.73882 0.4045 0.0
H952 H 0.06164 0.73403 0.44865 0.0
H953 H 0.10183 0.75572 0.40289 0.0
H954 H 0.972 0.67953 0.35938 0.0
H955 H 0.98935 0.72507 0.32842 0.0
H956 H 0.05589 0.69236 0.30427 0.0
H957 H 0.0939 0.72183 0.35107 0.0
H958 H 0.07385 0.68676 0.28145 0.0
H959 H 0.11124 0.71569 0.32738 0.0
H960 H 0.01527 0.67551 0.28349 0.0
H961 H 0.0339 0.72411 0.30005 0.0
H962 H 1.00229 0.67877 0.24804 0.0
H963 H 0.0206 0.72649 0.26443 0.0
H964 H 0.01495 0.63778 0.31699 0.0
H965 H 0.05762 0.65316 0.35703 0.0
H966 H 0.09106 0.76568 0.27924 0.0
H967 H 0.07126 0.72309 0.23775 0.0
Li968 Li 0.29339 0.33667 0.36619 0.0
Li969 Li 0.3034 0.32209 0.34649 0.0
Li970 Li 0.31864 0.3517 0.34666 0.0
Li971 Li 0.29353 0.33581 0.32367 0.0
C972 C 0.31487 0.33936 0.39783 0.0
N973 N 0.31823 0.34406 0.44634 0.0
C974 C 0.30566 0.3272 0.41323 0.0
C975 C 0.32574 0.35394 0.40715 0.0
C976 C 0.30753 0.32981 0.43769 0.0
C977 C 0.32729 0.35607 0.43171 0.0
C978 C 0.27344 0.30267 0.34766 0.0
C979 C 0.26212 0.27686 0.33071 0.0
N980 N 0.25704 0.27066 0.35253 0.0
C981 C 0.26806 0.29604 0.36992 0.0
C982 C 0.27039 0.29302 0.32787 0.0
C983 C 0.25979 0.27983 0.37201 0.0
C984 C 0.26464 0.32861 0.38554 0.0
N985 N 0.28011 0.337 0.39081 0.0
C986 C 0.27456 0.34502 0.42782 0.0
C987 C 0.28522 0.34551 0.4112 0.0
C988 C 0.25846 0.33596 0.42318 0.0
C989 C 0.2536 0.32791 0.40147 0.0
H990 H 0.26083 0.3225 0.36877 0.0
H991 H 0.29754 0.35278 0.4146 0.0
C992 C 0.31139 0.30024 0.32748 0.0
N993 N 0.30565 0.30392 0.34678 0.0
C994 C 0.31247 0.28669 0.3272 0.0
C995 C 0.30179 0.28103 0.36668 0.0
C996 C 0.30109 0.29472 0.36629 0.0
C997 C 0.30747 0.2768 0.34693 0.0
H998 H 0.31508 0.30778 0.31224 0.0
H999 H 0.29671 0.29789 0.38149 0.0
C1000 C 0.29523 0.36326 0.35458 0.0
N1001 N 0.284 0.38016 0.37776 0.0
C1002 C 0.28027 0.36057 0.34947 0.0
C1003 C 0.30454 0.3746 0.37131 0.0
C1004 C 0.27478 0.36922 0.36144 0.0
C1005 C 0.29863 0.38301 0.38287 0.0
C1006 C 0.31558 0.3379 0.29557 0.0
C1007 C 0.32662 0.352 0.28551 0.0
C1008 C 0.30598 0.32527 0.28087 0.0
C1009 C 0.32776 0.35327 0.26086 0.0
C1010 C 0.30745 0.32701 0.2563 0.0
N1011 N 0.31821 0.34086 0.24689 0.0
C1012 C 0.3512 0.36974 0.35583 0.0
C1013 C 0.34031 0.38285 0.3353 0.0
C1014 C 0.36606 0.38292 0.35473 0.0
N1015 N 0.33873 0.36995 0.3462 0.0
C1016 C 0.35499 0.39618 0.33336 0.0
C1017 C 0.36822 0.39638 0.34305 0.0
H1018 H 0.3496 0.35928 0.36434 0.0
H1019 H 0.3302 0.38262 0.32754 0.0
C1020 C 0.26658 0.32444 0.29564 0.0
N1021 N 0.28177 0.33587 0.297 0.0
C1022 C 0.25681 0.32479 0.2781 0.0
C1023 C 0.27853 0.34866 0.2635 0.0
C1024 C 0.28786 0.34789 0.28147 0.0
C1025 C 0.2627 0.33709 0.2618 0.0
H1026 H 0.26188 0.3153 0.3087 0.0
H1027 H 0.29987 0.35707 0.28335 0.0
O1028 O 0.31341 0.33697 0.37382 0.0
O1029 O 0.2818 0.31853 0.34529 0.0
O1030 O 0.30062 0.3546 0.34359 0.0
O1031 O 0.31416 0.33649 0.31967 0.0
H1032 H 0.29697 0.31595 0.40645 0.0
H1033 H 0.3328 0.36357 0.3956 0.0
H1034 H 0.30043 0.32051 0.44978 0.0
H1035 H 0.33564 0.3673 0.43913 0.0
H1036 H 0.25976 0.26926 0.31556 0.0
H1037 H 0.27042 0.3033 0.38548 0.0
H1038 H 0.27444 0.29794 0.31052 0.0
H1039 H 0.25564 0.27454 0.38914 0.0
H1040 H 0.27892 0.35147 0.44426 0.0
H1041 H 0.24137 0.32119 0.39669 0.0
H1042 H 0.31694 0.28386 0.31162 0.0
H1043 H 0.2981 0.27391 0.38246 0.0
H1044 H 0.27292 0.35178 0.3366 0.0
H1045 H 0.31611 0.37673 0.37553 0.0
H1046 H 0.26319 0.3672 0.35781 0.0
H1047 H 0.30565 0.39177 0.39598 0.0
H1048 H 0.33422 0.36186 0.29659 0.0
H1049 H 0.29739 0.31428 0.28835 0.0
H1050 H 0.33622 0.36413 0.25284 0.0
H1051 H 0.30003 0.31736 0.24472 0.0
H1052 H 0.37574 0.38248 0.36288 0.0
H1053 H 0.35596 0.40603 0.32369 0.0
H1054 H 0.24464 0.3158 0.27785 0.0
H1055 H 0.28364 0.35829 0.25122 0.0
Li1056 Li 0.32419 0.02606 0.67094 0.0
Li1057 Li 0.35253 0.04061 0.66816 0.0
Li1058 Li 0.33951 0.0516 0.69246 0.0
Li1059 Li 0.3383 0.05102 0.64991 0.0
C1060 C 0.33252 0.02443 0.71761 0.0
N1061 N 0.31792 0.00992 0.75916 0.0
C1062 C 0.33873 0.01729 0.73174 0.0
C1063 C 0.31887 0.02417 0.72457 0.0
C1064 C 0.33118 0.01002 0.75269 0.0
C1065 C 0.31167 0.01678 0.74565 0.0
C1066 C 0.34556 0.0269 0.62741 0.0
C1067 C 0.36626 0.03391 0.59926 0.0
N1068 N 0.36379 0.01914 0.60004 0.0
C1069 C 0.34312 0.01174 0.62773 0.0
C1070 C 0.35713 0.03803 0.6129 0.0
C1071 C 0.35249 0.00806 0.61384 0.0
C1072 C 0.30709 0.99288 0.67188 0.0
N1073 N 0.30582 0.0059 0.67302 0.0
C1074 C 0.27804 0.99036 0.67527 0.0
C1075 C 0.29169 0.00488 0.67545 0.0
C1076 C 0.27889 0.97669 0.67263 0.0
C1077 C 0.29373 0.97811 0.67146 0.0
H1078 H 0.31848 0.99397 0.67098 0.0
H1079 H 0.29097 0.01534 0.67728 0.0
C1080 C 0.38471 0.0506 0.66275 0.0
N1081 N 0.3705 0.03818 0.6677 0.0
C1082 C 0.39812 0.04936 0.66436 0.0
C1083 C 0.38202 0.02246 0.6758 0.0
C1084 C 0.36891 0.02423 0.67394 0.0
C1085 C 0.39693 0.03522 0.67136 0.0
H1086 H 0.38572 0.06162 0.65819 0.0
H1087 H 0.35749 0.01459 0.67808 0.0
C1088 C 0.31058 0.04695 0.66005 0.0
N1089 N 0.29109 0.05321 0.63295 0.0
C1090 C 0.30279 0.03762 0.64037 0.0
C1091 C 0.30845 0.05947 0.66596 0.0
C1092 C 0.29299 0.04097 0.62689 0.0
C1093 C 0.29854 0.06243 0.65203 0.0
C1094 C 0.36487 0.07739 0.66233 0.0
C1095 C 0.36392 0.08918 0.67458 0.0
C1096 C 0.3739 0.0811 0.64182 0.0
C1097 C 0.37184 0.1044 0.66598 0.0
C1098 C 0.38162 0.09646 0.63377 0.0
N1099 N 0.38044 0.10769 0.64591 0.0
C1100 C 0.35518 0.07066 0.73126 0.0
C1101 C 0.3288 0.0644 0.72802 0.0
C1102 C 0.35764 0.08071 0.75024 0.0
N1103 N 0.34103 0.063 0.72035 0.0
C1104 C 0.33071 0.07428 0.74705 0.0
C1105 C 0.34536 0.08277 0.75824 0.0
H1106 H 0.36471 0.06939 0.7246 0.0
H1107 H 0.31763 0.05801 0.71914 0.0
C1108 C 0.33419 0.05663 0.60141 0.0
N1109 N 0.33686 0.06264 0.62377 0.0
C1110 C 0.33273 0.06492 0.58255 0.0
C1111 C 0.33656 0.08528 0.61009 0.0
C1112 C 0.33773 0.07653 0.62839 0.0
C1113 C 0.33405 0.0795 0.58682 0.0
H1114 H 0.33302 0.04534 0.59824 0.0
H1115 H 0.33903 0.08071 0.6464 0.0
O1116 O 0.33976 0.03148 0.69698 0.0
O1117 O 0.33683 0.03089 0.64145 0.0
O1118 O 0.32054 0.04408 0.67305 0.0
O1119 O 0.3572 0.06238 0.67053 0.0
H1120 H 0.34927 0.01736 0.72653 0.0
H1121 H 0.31384 0.02955 0.71383 0.0
H1122 H 0.33585 0.00445 0.76381 0.0
H1123 H 0.30109 0.01648 0.75125 0.0
H1124 H 0.37532 0.04246 0.58806 0.0
H1125 H 0.33419 0.00293 0.63867 0.0
H1126 H 0.35906 0.04974 0.61217 0.0
H1127 H 0.35079 0.9964 0.61407 0.0
H1128 H 0.26693 0.98988 0.67694 0.0
H1129 H 0.29505 0.96797 0.66941 0.0
H1130 H 0.40932 0.05947 0.66056 0.0
H1131 H 0.38054 0.01141 0.68161 0.0
H1132 H 0.30447 0.02801 0.63537 0.0
H1133 H 0.31457 0.06697 0.68088 0.0
H1134 H 0.28696 0.03389 0.61155 0.0
H1135 H 0.29685 0.07212 0.65632 0.0
H1136 H 0.35689 0.08662 0.69028 0.0
H1137 H 0.37493 0.07227 0.63213 0.0
H1138 H 0.37108 0.11357 0.67521 0.0
H1139 H 0.38857 0.09944 0.61786 0.0
H1140 H 0.36917 0.08713 0.75808 0.0
H1141 H 0.32085 0.07526 0.75291 0.0
H1142 H 0.33073 0.06005 0.56481 0.0
H1143 H 0.33726 0.0963 0.61418 0.0
Li1144 Li 0.98241 0.29907 0.68295 0.0
Li1145 Li 0.96773 0.31296 0.68062 0.0
Li1146 Li 0.9581 0.28904 0.70368 0.0
Li1147 Li 0.958 0.28832 0.66051 0.0
C1148 C 0.99177 0.31787 0.71889 0.0
N1149 N 0.02182 0.33502 0.73648 0.0
C1150 C 1.00103 0.33357 0.71297 0.0
C1151 C 0.99779 0.31089 0.73376 0.0
C1152 C 0.01619 0.34205 0.72207 0.0
C1153 C 0.01302 0.31975 0.74245 0.0
C1154 C 0.97898 0.30695 0.63082 0.0
C1155 C 0.97086 0.30854 0.59108 0.0
N1156 N 0.98008 0.30315 0.58247 0.0
C1157 C 0.9884 0.30145 0.62158 0.0
C1158 C 0.97016 0.31057 0.61547 0.0
C1159 C 0.9888 0.29961 0.59708 0.0
C1160 C 0.00532 0.29017 0.69107 0.0
N1161 N 1.00291 0.30167 0.68286 0.0
C1162 C 0.02968 0.31684 0.67169 0.0
C1163 C 0.01476 0.31493 0.67358 0.0
C1164 C 0.0325 0.30502 0.67962 0.0
C1165 C 0.02008 0.29167 0.68984 0.0
H1166 H 0.99573 0.2797 0.69822 0.0
H1167 H 0.0125 0.32385 0.66703 0.0
C1168 C 0.96489 0.33718 0.70089 0.0
N1169 N 0.96911 0.33293 0.68056 0.0
C1170 C 0.96505 0.3513 0.70231 0.0
C1171 C 0.9746 0.35684 0.66214 0.0
C1172 C 0.97404 0.34245 0.66138 0.0
C1173 C 0.9699 0.36133 0.68275 0.0
H1174 H 0.96134 0.32953 0.71603 0.0
H1175 H 0.97756 0.3389 0.64554 0.0
C1176 C 0.95724 0.26314 0.69278 0.0
N1177 N 0.94079 0.23451 0.71463 0.0
C1178 C 0.943 0.25162 0.6833 0.0
C1179 C 0.96307 0.26008 0.71343 0.0
C1180 C 0.93489 0.23722 0.69458 0.0
C1181 C 0.95458 0.24555 0.72421 0.0
C1182 C 0.93742 0.30151 0.68305 0.0
C1183 C 0.93144 0.30246 0.70501 0.0
C1184 C 0.93484 0.30832 0.66319 0.0
C1185 C 0.92303 0.31028 0.70672 0.0
C1186 C 0.9264 0.31606 0.66565 0.0
N1187 N 0.92072 0.31688 0.68718 0.0
C1188 C 0.9533 0.27959 0.75188 0.0
C1189 C 0.93086 0.2674 0.72719 0.0
C1190 C 0.94477 0.27056 0.77107 0.0
N1191 N 0.94628 0.27778 0.73047 0.0
C1192 C 0.92183 0.25824 0.74596 0.0
C1193 C 0.92877 0.25972 0.76831 0.0
H1194 H 0.96558 0.28785 0.75395 0.0
H1195 H 0.92561 0.26619 0.70989 0.0
C1196 C 0.95344 0.26766 0.62357 0.0
N1197 N 0.94724 0.27577 0.63372 0.0
C1198 C 0.94586 0.25757 0.60461 0.0
C1199 C 0.9255 0.26419 0.60701 0.0
C1200 C 0.93351 0.27419 0.62598 0.0
C1201 C 0.93168 0.25572 0.59606 0.0
H1202 H 0.96419 0.26887 0.6305 0.0
H1203 H 0.9287 0.28055 0.63467 0.0
O1204 O 0.97704 0.30927 0.70964 0.0
O1205 O 0.97814 0.30849 0.65479 0.0
O1206 O 0.96518 0.27747 0.68234 0.0
O1207 O 0.94598 0.2942 0.6811 0.0
H1208 H 0.99664 0.33914 0.7013 0.0
H1209 H 0.99092 0.29868 0.73814 0.0
H1210 H 0.0235 0.3542 0.71759 0.0
H1211 H 0.01787 0.31447 0.75383 0.0
H1212 H 0.96402 0.31121 0.57901 0.0
H1213 H 0.99517 0.29842 0.6332 0.0
H1214 H 0.9627 0.31471 0.62233 0.0
H1215 H 0.99599 0.29529 0.58969 0.0
H1216 H 0.03872 0.32723 0.6633 0.0
H1217 H 0.02166 0.28235 0.69657 0.0
H1218 H 0.96165 0.35446 0.71871 0.0
H1219 H 0.97847 0.36428 0.64672 0.0
H1220 H 0.93813 0.25379 0.66761 0.0
H1221 H 0.97381 0.26897 0.72147 0.0
H1222 H 0.92384 0.22823 0.68746 0.0
H1223 H 0.95891 0.24309 0.7403 0.0
H1224 H 0.93346 0.29743 0.72063 0.0
H1225 H 0.9395 0.30783 0.64612 0.0
H1226 H 0.91841 0.31118 0.72362 0.0
H1227 H 0.92442 0.32148 0.65046 0.0
H1228 H 0.95074 0.27193 0.78778 0.0
H1229 H 0.90953 0.25024 0.74302 0.0
H1230 H 0.95091 0.25107 0.59703 0.0
H1231 H 0.91468 0.26321 0.60088 0.0
Li1232 Li 0.70214 0.67972 0.67015 0.0
Li1233 Li 0.68903 0.65123 0.66947 0.0
Li1234 Li 0.71285 0.66669 0.69294 0.0
Li1235 Li 0.71366 0.66596 0.6498 0.0
C1236 C 0.69059 0.66353 0.72065 0.0
N1237 N 0.68836 0.65963 0.7692 0.0
C1238 C 0.6816 0.64866 0.73022 0.0
C1239 C 0.69841 0.67641 0.73575 0.0
C1240 C 0.68061 0.64694 0.75482 0.0
C1241 C 0.69715 0.6742 0.76025 0.0
C1242 C 0.67989 0.65856 0.63103 0.0
C1243 C 0.66038 0.63779 0.60679 0.0
N1244 N 0.65047 0.64329 0.61081 0.0
C1245 C 0.66953 0.66402 0.63489 0.0
C1246 C 0.67532 0.64537 0.61682 0.0
C1247 C 0.6547 0.65614 0.6245 0.0
C1248 C 0.70432 0.70611 0.64834 0.0
N1249 N 0.69945 0.69749 0.66842 0.0
C1250 C 0.69181 0.71487 0.68513 0.0
C1251 C 0.69312 0.70148 0.6866 0.0
C1252 C 0.69727 0.72427 0.66492 0.0
C1253 C 0.70352 0.71971 0.64633 0.0
H1254 H 0.70898 0.70248 0.63396 0.0
H1255 H 0.68913 0.6943 0.70224 0.0
C1256 C 0.6672 0.61873 0.66292 0.0
N1257 N 0.66894 0.63274 0.66933 0.0
C1258 C 0.65257 0.60523 0.66395 0.0
C1259 C 0.64179 0.62084 0.67819 0.0
C1260 C 0.65659 0.63404 0.67665 0.0
C1261 C 0.63961 0.60611 0.67201 0.0
H1262 H 0.67719 0.61796 0.65735 0.0
H1263 H 0.65833 0.64532 0.68184 0.0
C1264 C 0.73229 0.69997 0.66903 0.0
N1265 N 0.74781 0.73195 0.66374 0.0
C1266 C 0.7388 0.70661 0.6472 0.0
C1267 C 0.73373 0.7096 0.68818 0.0
C1268 C 0.74661 0.7228 0.64489 0.0
C1269 C 0.74159 0.72574 0.68514 0.0
C1270 C 0.71547 0.64188 0.66344 0.0
C1271 C 0.72961 0.6452 0.67399 0.0
C1272 C 0.71025 0.63249 0.6431 0.0
C1273 C 0.73828 0.63905 0.66401 0.0
C1274 C 0.71928 0.6266 0.63364 0.0
N1275 N 0.73298 0.62997 0.6442 0.0
C1276 C 0.71892 0.65363 0.73303 0.0
C1277 C 0.73807 0.67986 0.72556 0.0
C1278 C 0.72791 0.65285 0.75151 0.0
N1279 N 0.72415 0.66697 0.72046 0.0
C1280 C 0.74744 0.67961 0.7439 0.0
C1281 C 0.74248 0.6659 0.75695 0.0
H1282 H 0.70798 0.64343 0.72819 0.0
H1283 H 0.74218 0.69016 0.71485 0.0
C1284 C 0.72154 0.66091 0.60286 0.0
N1285 N 0.72694 0.6668 0.62488 0.0
C1286 C 0.73175 0.66104 0.58573 0.0
C1287 C 0.75287 0.67358 0.61415 0.0
C1288 C 0.74225 0.67305 0.63076 0.0
C1289 C 0.74765 0.66746 0.59133 0.0
H1290 H 0.7093 0.65597 0.59869 0.0
H1291 H 0.74617 0.67751 0.64851 0.0
O1292 O 0.69194 0.66543 0.69662 0.0
O1293 O 0.6943 0.66586 0.64157 0.0
O1294 O 0.72432 0.68412 0.67153 0.0
O1295 O 0.707 0.64813 0.67258 0.0
H1296 H 0.6756 0.63854 0.71881 0.0
H1297 H 0.70549 0.68798 0.72864 0.0
H1298 H 0.67375 0.63549 0.76248 0.0
H1299 H 0.7032 0.68405 0.77216 0.0
H1300 H 0.65664 0.6275 0.59591 0.0
H1301 H 0.67283 0.67414 0.64598 0.0
H1302 H 0.68312 0.64086 0.61393 0.0
H1303 H 0.64654 0.6602 0.62741 0.0
H1304 H 0.68685 0.71799 0.69977 0.0
H1305 H 0.70759 0.7265 0.63027 0.0
H1306 H 0.6515 0.59423 0.65868 0.0
H1307 H 0.6323 0.62215 0.68495 0.0
H1308 H 0.73764 0.69936 0.63209 0.0
H1309 H 0.72865 0.70466 0.70514 0.0
H1310 H 0.75163 0.72809 0.62807 0.0
H1311 H 0.7427 0.73332 0.69977 0.0
H1312 H 0.73397 0.6526 0.68952 0.0
H1313 H 0.69955 0.63011 0.63432 0.0
H1314 H 0.74926 0.64158 0.67195 0.0
H1315 H 0.71544 0.61944 0.61778 0.0
H1316 H 0.72356 0.64209 0.76126 0.0
H1317 H 0.75868 0.68986 0.74724 0.0
H1318 H 0.72732 0.65634 0.56823 0.0
H1319 H 0.765 0.67849 0.61923 0.0
Li1320 Li 0.35072 0.31155 0.66928 0.0
Li1321 Li 0.33748 0.28826 0.69166 0.0
Li1322 Li 0.33692 0.28694 0.6486 0.0
Li1323 Li 0.32293 0.29805 0.66987 0.0
C1324 C 0.36838 0.29788 0.68248 0.0
N1325 N 0.39507 0.30529 0.70809 0.0
C1326 C 0.37273 0.30806 0.70189 0.0
C1327 C 0.37763 0.2915 0.67607 0.0
C1328 C 0.38625 0.31165 0.71461 0.0
C1329 C 0.39107 0.29538 0.68925 0.0
C1330 C 0.32863 0.30673 0.71684 0.0
C1331 C 0.30747 0.29115 0.74336 0.0
N1332 N 0.31119 0.3041 0.75648 0.0
C1333 C 0.33226 0.31987 0.73063 0.0
C1334 C 0.31615 0.29223 0.72329 0.0
C1335 C 0.32329 0.31831 0.75058 0.0
C1336 C 0.36789 0.34348 0.68034 0.0
N1337 N 0.36883 0.33191 0.6689 0.0
C1338 C 0.39552 0.34937 0.65928 0.0
C1339 C 0.38221 0.33458 0.65819 0.0
C1340 C 0.39502 0.36151 0.67147 0.0
C1341 C 0.38088 0.35842 0.68185 0.0
H1342 H 0.35708 0.34103 0.68859 0.0
H1343 H 0.3826 0.32516 0.64909 0.0
C1344 C 0.33274 0.26162 0.71629 0.0
N1345 N 0.3383 0.27719 0.71862 0.0
C1346 C 0.33364 0.25309 0.73528 0.0
C1347 C 0.34619 0.27685 0.75853 0.0
C1348 C 0.3449 0.28486 0.73921 0.0
C1349 C 0.34047 0.26071 0.75681 0.0
H1350 H 0.32766 0.25586 0.69961 0.0
H1351 H 0.34933 0.29726 0.74056 0.0
C1352 C 0.34659 0.31777 0.62647 0.0
N1353 N 0.36801 0.34138 0.59798 0.0
C1354 C 0.34801 0.33254 0.62716 0.0
C1355 C 0.35617 0.31509 0.61137 0.0
C1356 C 0.35889 0.3443 0.61262 0.0
C1357 C 0.36688 0.32715 0.59706 0.0
C1358 C 0.30592 0.26603 0.65877 0.0
C1359 C 0.30135 0.27087 0.63856 0.0
C1360 C 0.29689 0.25069 0.66653 0.0
C1361 C 0.28782 0.26024 0.6264 0.0
C1362 C 0.28343 0.24041 0.65388 0.0
N1363 N 0.27921 0.24536 0.63424 0.0
C1364 C 0.34186 0.26422 0.62774 0.0
C1365 C 0.32955 0.27373 0.60207 0.0
C1366 C 0.34112 0.25383 0.61032 0.0
N1367 N 0.33614 0.27388 0.62332 0.0
C1368 C 0.32846 0.26344 0.5842 0.0
C1369 C 0.33427 0.25328 0.58824 0.0
H1370 H 0.34684 0.26448 0.64495 0.0
H1371 H 0.3251 0.28155 0.59906 0.0
C1372 C 0.3052 0.31233 0.65863 0.0
N1373 N 0.3045 0.29988 0.66975 0.0
C1374 C 0.29205 0.31401 0.65722 0.0
C1375 C 0.27762 0.29009 0.67906 0.0
C1376 C 0.29108 0.28886 0.67999 0.0
C1377 C 0.27795 0.30276 0.66741 0.0
H1378 H 0.31591 0.32085 0.65049 0.0
H1379 H 0.29072 0.27899 0.68865 0.0
O1380 O 0.35519 0.29416 0.66967 0.0
O1381 O 0.33738 0.30819 0.69726 0.0
O1382 O 0.33632 0.30619 0.64107 0.0
O1383 O 0.31913 0.27619 0.67104 0.0
H1384 H 0.36576 0.31316 0.7071 0.0
H1385 H 0.37446 0.28365 0.66105 0.0
H1386 H 0.38974 0.3195 0.72967 0.0
H1387 H 0.39833 0.29052 0.68449 0.0
H1388 H 0.29778 0.28 0.74851 0.0
H1389 H 0.3419 0.33118 0.72597 0.0
H1390 H 0.31317 0.28189 0.71299 0.0
H1391 H 0.32597 0.3284 0.76139 0.0
H1392 H 0.4061 0.35125 0.6508 0.0
H1393 H 0.37996 0.36731 0.69174 0.0
H1394 H 0.32892 0.24067 0.73315 0.0
H1395 H 0.35185 0.28333 0.77452 0.0
H1396 H 0.34109 0.33505 0.63917 0.0
H1397 H 0.35558 0.30391 0.61097 0.0
H1398 H 0.36016 0.35579 0.61311 0.0
H1399 H 0.37438 0.32521 0.58536 0.0
H1400 H 0.30814 0.2827 0.63231 0.0
H1401 H 0.30024 0.24677 0.68219 0.0
H1402 H 0.28415 0.26384 0.61073 0.0
H1403 H 0.27634 0.2285 0.65968 0.0
H1404 H 0.34557 0.24608 0.61425 0.0
H1405 H 0.32326 0.26352 0.56732 0.0
H1406 H 0.29284 0.32381 0.64763 0.0
H1407 H 0.26708 0.28119 0.68735 0.0
Li1408 Li 0.69317 0.04189 0.67682 0.0
Li1409 Li 0.71786 0.05116 0.69611 0.0
Li1410 Li 0.71608 0.05155 0.65367 0.0
Li1411 Li 0.70684 0.02627 0.67389 0.0
C1412 C 0.70284 0.07096 0.67834 0.0
N1413 N 0.68469 0.08487 0.68131 0.0
C1414 C 0.70052 0.07613 0.70022 0.0
C1415 C 0.69589 0.07286 0.65798 0.0
C1416 C 0.69134 0.08316 0.70134 0.0
C1417 C 0.68676 0.07991 0.65984 0.0
C1418 C 0.69966 0.0295 0.72617 0.0
C1419 C 0.70351 0.01602 0.75865 0.0
N1420 N 0.70333 0.02649 0.77409 0.0
C1421 C 0.69937 0.04005 0.74239 0.0
C1422 C 0.70164 0.01732 0.73436 0.0
C1423 C 0.70131 0.03837 0.76653 0.0
C1424 C 0.66297 0.035 0.6601 0.0
N1425 N 0.67263 0.03942 0.67932 0.0
C1426 C 0.65356 0.04111 0.703 0.0
C1427 C 0.6681 0.04223 0.70059 0.0
C1428 C 0.6434 0.03678 0.68342 0.0
C1429 C 0.64821 0.03357 0.66177 0.0
H1430 H 0.66671 0.03261 0.64345 0.0
H1431 H 0.67584 0.04551 0.7157 0.0
C1432 C 0.73641 0.07696 0.72679 0.0
N1433 N 0.73191 0.06185 0.72187 0.0
C1434 C 0.74735 0.08502 0.74468 0.0
C1435 C 0.74934 0.06203 0.75145 0.0
C1436 C 0.73829 0.05439 0.73352 0.0
C1437 C 0.75397 0.07756 0.75736 0.0
H1438 H 0.73175 0.08288 0.71652 0.0
H1439 H 0.73494 0.04256 0.72863 0.0
C1440 C 0.69685 0.03053 0.62423 0.0
N1441 N 0.69916 0.02912 0.57558 0.0
C1442 C 0.70237 0.0213 0.61419 0.0
C1443 C 0.69248 0.03901 0.60949 0.0
C1444 C 0.70344 0.02074 0.58957 0.0
C1445 C 0.69375 0.03816 0.58495 0.0
C1446 C 0.74372 0.0539 0.67117 0.0
C1447 C 0.74998 0.07004 0.67227 0.0
C1448 C 0.75363 0.04781 0.66818 0.0
C1449 C 0.76608 0.07983 0.67044 0.0
C1450 C 0.76968 0.05799 0.66643 0.0
N1451 N 0.77552 0.07366 0.66759 0.0
C1452 C 0.73017 0.0778 0.62308 0.0
C1453 C 0.73545 0.05759 0.6137 0.0
C1454 C 0.74023 0.08717 0.60531 0.0
N1455 N 0.72792 0.06328 0.62687 0.0
C1456 C 0.74567 0.0666 0.59582 0.0
C1457 C 0.74826 0.08166 0.59155 0.0
H1458 H 0.72464 0.08237 0.63442 0.0
H1459 H 0.73389 0.04623 0.61757 0.0
C1460 C 0.69168 0.99399 0.6633 0.0
N1461 N 0.70474 0.00608 0.67299 0.0
C1462 C 0.69006 0.97916 0.662 0.0
C1463 C 0.71509 0.98939 0.68146 0.0
C1464 C 0.71631 0.00406 0.68214 0.0
C1465 C 0.70189 0.97668 0.67106 0.0
H1466 H 0.68265 0.99594 0.65619 0.0
H1467 H 0.72646 0.01385 0.69009 0.0
O1468 O 0.71151 0.06371 0.6769 0.0
O1469 O 0.69798 0.03106 0.70241 0.0
O1470 O 0.69596 0.03142 0.64834 0.0
O1471 O 0.72797 0.04407 0.6727 0.0
H1472 H 0.70545 0.07447 0.71629 0.0
H1473 H 0.69734 0.06875 0.64095 0.0
H1474 H 0.68939 0.08712 0.71819 0.0
H1475 H 0.68126 0.08137 0.64423 0.0
H1476 H 0.70511 0.00667 0.76521 0.0
H1477 H 0.69803 0.04965 0.7364 0.0
H1478 H 0.70172 0.00895 0.72214 0.0
H1479 H 0.70128 0.04656 0.77923 0.0
H1480 H 0.65022 0.0434 0.72015 0.0
H1481 H 0.64074 0.03019 0.64624 0.0
H1482 H 0.75046 0.09693 0.74862 0.0
H1483 H 0.75436 0.05589 0.7603 0.0
H1484 H 0.70604 0.01485 0.62527 0.0
H1485 H 0.68826 0.04626 0.61688 0.0
H1486 H 0.70776 0.01371 0.58158 0.0
H1487 H 0.69047 0.04471 0.57335 0.0
H1488 H 0.74248 0.07498 0.67439 0.0
H1489 H 0.74897 0.03535 0.66714 0.0
H1490 H 0.77107 0.09234 0.67125 0.0
H1491 H 0.77749 0.05344 0.66411 0.0
H1492 H 0.74211 0.09882 0.60293 0.0
H1493 H 0.75155 0.06184 0.58557 0.0
H1494 H 0.67979 0.96987 0.65342 0.0
H1495 H 0.7244 0.98806 0.68907 0.0
Li1496 Li 0.95986 0.67139 0.70359 0.0
Li1497 Li 0.9697 0.6567 0.68147 0.0
Li1498 Li 0.98391 0.68618 0.68201 0.0
Li1499 Li 0.95956 0.67131 0.6591 0.0
C1500 C 0.9804 0.67087 0.73285 0.0
N1501 N 0.98072 0.66943 0.78173 0.0
C1502 C 0.97698 0.65697 0.74401 0.0
C1503 C 0.98419 0.68409 0.74654 0.0
C1504 C 0.97716 0.65646 0.76875 0.0
C1505 C 0.98422 0.68311 0.77123 0.0
C1506 C 0.93679 0.63881 0.67592 0.0
C1507 C 0.92248 0.61825 0.64733 0.0
N1508 N 0.91342 0.60885 0.66502 0.0
C1509 C 0.92716 0.629 0.69374 0.0
C1510 C 0.93429 0.63345 0.65247 0.0
C1511 C 0.91548 0.61387 0.68791 0.0
C1512 C 0.94383 0.68213 0.73217 0.0
N1513 N 0.94773 0.67083 0.73015 0.0
C1514 C 0.93162 0.65722 0.7631 0.0
C1515 C 0.94199 0.6586 0.74531 0.0
C1516 C 0.92713 0.66855 0.76531 0.0
C1517 C 0.93359 0.68127 0.74981 0.0
H1518 H 0.94828 0.69156 0.71962 0.0
H1519 H 0.94516 0.64971 0.74322 0.0
C1520 C 0.98344 0.63831 0.66909 0.0
N1521 N 0.9718 0.63848 0.68153 0.0
C1522 C 0.9851 0.62511 0.66916 0.0
C1523 C 0.96301 0.61263 0.69532 0.0
C1524 C 0.96173 0.62602 0.69462 0.0
C1525 C 0.97481 0.612 0.68245 0.0
H1526 H 0.9915 0.64847 0.65915 0.0
H1527 H 0.95291 0.6266 0.70502 0.0
C1528 C 0.97129 0.70456 0.67979 0.0
N1529 N 0.98398 0.73643 0.67593 0.0
C1530 C 0.97059 0.71108 0.65822 0.0
C1531 C 0.97825 0.71425 0.69948 0.0
C1532 C 0.97711 0.72721 0.65661 0.0
C1533 C 0.98466 0.73033 0.69715 0.0
C1534 C 0.98195 0.66854 0.63187 0.0
C1535 C 0.99294 0.68047 0.61764 0.0
C1536 C 0.97351 0.6534 0.62273 0.0
C1537 C 0.99503 0.67711 0.59432 0.0
C1538 C 0.97594 0.65049 0.59934 0.0
N1539 N 0.98654 0.66232 0.58572 0.0
C1540 C 0.01447 0.70823 0.69925 0.0
C1541 C 0.00717 0.71446 0.66269 0.0
C1542 C 0.02906 0.72185 0.69844 0.0
N1543 N 0.00389 0.70482 0.6815 0.0
C1544 C 0.02152 0.72818 0.66121 0.0
C1545 C 0.03275 0.73205 0.6792 0.0
H1546 H 0.01164 0.70033 0.71396 0.0
H1547 H 0.99863 0.71144 0.6487 0.0
C1548 C 0.93205 0.66527 0.63625 0.0
N1549 N 0.94758 0.67133 0.6326 0.0
C1550 C 0.92249 0.66557 0.61827 0.0
C1551 C 0.94512 0.67856 0.59317 0.0
C1552 C 0.95423 0.67791 0.61159 0.0
C1553 C 0.92903 0.67239 0.59644 0.0
H1554 H 0.92713 0.6604 0.65331 0.0
H1555 H 0.96664 0.68303 0.6093 0.0
O1556 O 0.98008 0.67154 0.70865 0.0
O1557 O 0.94828 0.65369 0.68136 0.0
O1558 O 0.96516 0.6888 0.68161 0.0
O1559 O 0.97975 0.67166 0.65475 0.0
H1560 H 0.97417 0.64667 0.73371 0.0
H1561 H 0.98703 0.69497 0.7382 0.0
H1562 H 0.97446 0.64575 0.77762 0.0
H1563 H 0.98704 0.69323 0.78203 0.0
H1564 H 0.92047 0.61397 0.62926 0.0
H1565 H 0.92874 0.63297 0.71194 0.0
H1566 H 0.94122 0.64098 0.63829 0.0
H1567 H 0.90805 0.60614 0.70159 0.0
H1568 H 0.92705 0.64731 0.77486 0.0
H1569 H 0.93031 0.69017 0.75074 0.0
H1570 H 0.99435 0.62519 0.65889 0.0
H1571 H 0.95507 0.60305 0.70639 0.0
H1572 H 0.96518 0.70378 0.64283 0.0
H1573 H 0.97875 0.70941 0.71636 0.0
H1574 H 0.97674 0.73241 0.63998 0.0
H1575 H 0.99018 0.73796 0.71221 0.0
H1576 H 0.99977 0.69221 0.62445 0.0
H1577 H 0.96535 0.64392 0.63365 0.0
H1578 H 0.00342 0.68626 0.58308 0.0
H1579 H 0.96945 0.63882 0.59206 0.0
H1580 H 0.03734 0.72438 0.71273 0.0
H1581 H 0.02391 0.73549 0.6458 0.0
H1582 H 0.91019 0.66088 0.62166 0.0
H1583 H 0.95062 0.68386 0.57656 0.0
H1584 H 0.15623 0.3338 0.13271 0.0
H1585 H 0.15284 0.33828 0.05725 0.0
H1586 H 0.13176 0.35591 0.1051 0.0
H1587 H 0.15889 0.31592 0.10166 0.0
H1588 H 0.16281 0.32232 0.07172 0.0
H1589 H 0.17825 0.33077 0.13396 0.0
H1590 H 0.22586 0.3571 0.11181 0.0
H1591 H 0.18904 0.34136 0.06001 0.0
C1592 C 0.1527 0.33817 0.1178 0.0
C1593 C 0.14405 0.34566 0.12183 0.0
C1594 C 0.15631 0.33579 0.09457 0.0
C1595 C 0.15081 0.3407 0.07523 0.0
C1596 C 0.14218 0.3482 0.0791 0.0
C1597 C 0.13913 0.35085 0.10233 0.0
C1598 C 0.16441 0.3265 0.0904 0.0
C1599 C 0.18161 0.33575 0.09644 0.0
C1600 C 0.18667 0.33665 0.12007 0.0
C1601 C 0.20263 0.34462 0.12571 0.0
C1602 C 0.21352 0.35167 0.1076 0.0
C1603 C 0.20879 0.35038 0.08386 0.0
C1604 C 0.19278 0.34257 0.07836 0.0
H1605 H 0.69311 0.83774 0.12133 0.0
H1606 H 0.66912 0.82088 0.05421 0.0
H1607 H 0.66781 0.78875 0.10631 0.0
H1608 H 0.6995 0.85543 0.08715 0.0
H1609 H 0.68944 0.84841 0.05951 0.0
H1610 H 0.6812 0.85379 0.12361 0.0
H1611 H 0.65394 0.87456 0.10353 0.0
H1612 H 0.67259 0.85794 0.04972 0.0
C1613 C 0.68558 0.8282 0.1096 0.0
C1614 C 0.68071 0.81287 0.11641 0.0
C1615 C 0.68136 0.83122 0.08717 0.0
C1616 C 0.67213 0.81866 0.07169 0.0
C1617 C 0.66702 0.80327 0.07869 0.0
C1618 C 0.67136 0.80058 0.10103 0.0
C1619 C 0.68781 0.84784 0.07905 0.0
C1620 C 0.6774 0.85431 0.08591 0.0
C1621 C 0.67555 0.85689 0.10996 0.0
C1622 C 0.66682 0.86392 0.11644 0.0
C1623 C 0.65997 0.86838 0.09866 0.0
C1624 C 0.66204 0.86638 0.07462 0.0
C1625 C 0.67071 0.85926 0.06829 0.0
H1626 H 0.16915 0.8035 0.12648 0.0
H1627 H 0.16917 0.79837 0.05069 0.0
H1628 H 0.12595 0.78181 0.08736 0.0
H1629 H 0.19187 0.80511 0.10484 0.0
H1630 H 0.1925 0.80576 0.0733 0.0
H1631 H 0.19725 0.82821 0.1286 0.0
H1632 H 0.22307 0.87228 0.09378 0.0
H1633 H 0.20079 0.83016 0.05234 0.0
C1634 C 0.16286 0.80028 0.10976 0.0
C1635 C 0.14647 0.79232 0.10958 0.0
C1636 C 0.17118 0.80293 0.08845 0.0
C1637 C 0.16293 0.79735 0.06692 0.0
C1638 C 0.14658 0.78966 0.06652 0.0
C1639 C 0.13858 0.78793 0.08771 0.0
C1640 C 0.18863 0.80965 0.08911 0.0
C1641 C 0.19728 0.82723 0.09026 0.0
C1642 C 0.20095 0.83493 0.11242 0.0
C1643 C 0.2105 0.85118 0.11373 0.0
C1644 C 0.21551 0.85974 0.09274 0.0
C1645 C 0.21218 0.85232 0.07058 0.0
C1646 C 0.20301 0.83602 0.06937 0.0
H1647 H 0.36616 0.19821 0.88714 0.0
H1648 H 0.36378 0.20014 0.96327 0.0
H1649 H 0.34214 0.21935 0.91954 0.0
H1650 H 0.38497 0.19567 0.91426 0.0
H1651 H 0.38159 0.19345 0.94533 0.0
H1652 H 0.36785 0.17398 0.88603 0.0
H1653 H 0.34977 0.12835 0.91526 0.0
H1654 H 0.366 0.16787 0.96192 0.0
C1655 C 0.36162 0.20083 0.90284 0.0
C1656 C 0.3536 0.20911 0.90068 0.0
C1657 C 0.36499 0.19715 0.92543 0.0
C1658 C 0.36035 0.20199 0.94587 0.0
C1659 C 0.35208 0.21002 0.94382 0.0
C1660 C 0.34822 0.21286 0.9212 0.0
C1661 C 0.37561 0.19037 0.92776 0.0
C1662 C 0.36701 0.17288 0.92438 0.0
C1663 C 0.36425 0.16643 0.90134 0.0
C1664 C 0.35814 0.15037 0.89812 0.0
C1665 C 0.35406 0.1407 0.9179 0.0
C1666 C 0.35684 0.14684 0.94092 0.0
C1667 C 0.3633 0.16298 0.94416 0.0
H1668 H 0.85901 0.17579 0.89943 0.0
H1669 H 0.8534 0.18327 0.97322 0.0
H1670 H 0.87505 0.22207 0.92597 0.0
H1671 H 0.85498 0.15626 0.93187 0.0
H1672 H 0.84815 0.15809 0.96019 0.0
H1673 H 0.8376 0.14762 0.89669 0.0
H1674 H 0.78855 0.12295 0.91071 0.0
H1675 H 0.82071 0.15075 0.96581 0.0
C1676 C 0.85984 0.18352 0.9137 0.0
C1677 C 0.86764 0.19968 0.90997 0.0
C1678 C 0.85423 0.17742 0.93639 0.0
C1679 C 0.85669 0.18771 0.9554 0.0
C1680 C 0.86411 0.20384 0.95159 0.0
C1681 C 0.86895 0.20957 0.92873 0.0
C1682 C 0.84765 0.16026 0.94096 0.0
C1683 C 0.83106 0.15064 0.93209 0.0
C1684 C 0.82804 0.14487 0.90862 0.0
C1685 C 0.81269 0.13477 0.90104 0.0
C1686 C 0.80038 0.13098 0.9166 0.0
C1687 C 0.80308 0.13673 0.93988 0.0
C1688 C 0.81849 0.14655 0.94765 0.0
H1689 H 0.83298 0.64301 0.88488 0.0
H1690 H 0.83572 0.63696 0.96 0.0
H1691 H 0.8775 0.66114 0.91889 0.0
H1692 H 0.81056 0.62135 0.90916 0.0
H1693 H 0.81098 0.62327 0.94059 0.0
H1694 H 0.80938 0.64176 0.88335 0.0
H1695 H 0.7827 0.66058 0.91363 0.0
H1696 H 0.80037 0.63794 0.95843 0.0
C1697 C 0.83979 0.64543 0.90099 0.0
C1698 C 0.85612 0.65344 0.89958 0.0
C1699 C 0.83227 0.63993 0.92289 0.0
C1700 C 0.84136 0.64196 0.94332 0.0
C1701 C 0.85772 0.6497 0.94199 0.0
C1702 C 0.86493 0.6558 0.92023 0.0
C1703 C 0.81466 0.63005 0.92387 0.0
C1704 C 0.80665 0.63957 0.92139 0.0
C1705 C 0.80481 0.64452 0.89885 0.0
C1706 C 0.79648 0.65242 0.89604 0.0
C1707 C 0.78992 0.65531 0.91598 0.0
C1708 C 0.79108 0.65001 0.93847 0.0
C1709 C 0.79964 0.64229 0.94117 0.0
H1710 H 0.82422 0.66136 0.46134 0.0
H1711 H 0.82508 0.67514 0.3887 0.0
H1712 H 0.80382 0.68907 0.44243 0.0
H1713 H 0.82943 0.64802 0.42708 0.0
H1714 H 0.83304 0.6564 0.39821 0.0
H1715 H 0.84862 0.66415 0.46115 0.0
H1716 H 0.89625 0.68928 0.43884 0.0
H1717 H 0.85952 0.67311 0.3869 0.0
C1718 C 0.82203 0.66794 0.44814 0.0
C1719 C 0.81417 0.67581 0.45473 0.0
C1720 C 0.82667 0.66819 0.42449 0.0
C1721 C 0.82242 0.67565 0.40718 0.0
C1722 C 0.81421 0.68325 0.41364 0.0
C1723 C 0.81063 0.68368 0.43751 0.0
C1724 C 0.83477 0.65929 0.41746 0.0
C1725 C 0.85201 0.66826 0.42344 0.0
C1726 C 0.85705 0.66953 0.44716 0.0
C1727 C 0.873 0.6774 0.45287 0.0
C1728 C 0.88392 0.68388 0.43463 0.0
C1729 C 0.87921 0.68226 0.41086 0.0
C1730 C 0.86321 0.67454 0.40529 0.0
H1731 H 0.34161 0.15816 0.45189 0.0
H1732 H 0.33397 0.14841 0.37694 0.0
H1733 H 0.31681 0.11091 0.42672 0.0
H1734 H 0.3583 0.17792 0.41982 0.0
H1735 H 0.35106 0.17472 0.39011 0.0
H1736 H 0.34282 0.18155 0.45284 0.0
H1737 H 0.3171 0.20356 0.43091 0.0
H1738 H 0.33345 0.18365 0.3786 0.0
C1739 C 0.33641 0.14994 0.43741 0.0
C1740 C 0.32846 0.13391 0.44224 0.0
C1741 C 0.33806 0.15535 0.41395 0.0
C1742 C 0.33215 0.14445 0.39514 0.0
C1743 C 0.32429 0.12841 0.39983 0.0
C1744 C 0.32227 0.12331 0.42332 0.0
C1745 C 0.34741 0.17265 0.40899 0.0
C1746 C 0.33846 0.18087 0.4151 0.0
C1747 C 0.33726 0.18452 0.4389 0.0
C1748 C 0.32923 0.19237 0.44476 0.0
C1749 C 0.32261 0.19679 0.42659 0.0
C1750 C 0.32424 0.19389 0.40277 0.0
C1751 C 0.33205 0.18578 0.39704 0.0
H1752 H 0.83849 0.14758 0.46466 0.0
H1753 H 0.83267 0.13502 0.39059 0.0
H1754 H 0.79264 0.11982 0.43504 0.0
H1755 H 0.85919 0.14509 0.4385 0.0
H1756 H 0.858 0.1468 0.40731 0.0
H1757 H 0.86512 0.16725 0.46559 0.0
H1758 H 0.89098 0.21246 0.4344 0.0
H1759 H 0.86665 0.1721 0.38949 0.0
C1760 C 0.83101 0.14239 0.44932 0.0
C1761 C 0.81476 0.13425 0.45223 0.0
C1762 C 0.83762 0.14314 0.42696 0.0
C1763 C 0.82772 0.13526 0.40757 0.0
C1764 C 0.81145 0.12693 0.41034 0.0
C1765 C 0.80513 0.12689 0.43254 0.0
C1766 C 0.85508 0.15014 0.42457 0.0
C1767 C 0.86397 0.16769 0.42727 0.0
C1768 C 0.86841 0.17454 0.45001 0.0
C1769 C 0.87824 0.19067 0.45255 0.0
C1770 C 0.88308 0.20002 0.43236 0.0
C1771 C 0.87905 0.1935 0.40959 0.0
C1772 C 0.86941 0.17728 0.40706 0.0
H1773 H 0.03436 0.52866 0.21053 0.0
H1774 H 0.04064 0.54011 0.28501 0.0
H1775 H 0.0161 0.55597 0.24071 0.0
H1776 H 0.05534 0.52799 0.23493 0.0
H1777 H 0.0555 0.52982 0.26638 0.0
H1778 H 0.03479 0.50391 0.21453 0.0
H1779 H 0.01526 0.4624 0.25659 0.0
H1780 H 0.04081 0.50716 0.29041 0.0
C1781 C 0.03204 0.53371 0.22596 0.0
C1782 C 0.024 0.54191 0.22324 0.0
C1783 C 0.03773 0.53262 0.24835 0.0
C1784 C 0.03561 0.5402 0.26797 0.0
C1785 C 0.02767 0.54853 0.26535 0.0
C1786 C 0.02154 0.54892 0.24308 0.0
C1787 C 0.04765 0.52507 0.25065 0.0
C1788 C 0.03783 0.50754 0.25242 0.0
C1789 C 0.03216 0.49833 0.23168 0.0
C1790 C 0.02429 0.48199 0.23301 0.0
C1791 C 0.02131 0.475 0.25539 0.0
C1792 C 0.02752 0.4839 0.27605 0.0
C1793 C 0.03564 0.50021 0.27455 0.0
H1794 H 0.51661 0.5098 0.21999 0.0
H1795 H 0.52207 0.52506 0.2928 0.0
H1796 H 0.53869 0.55852 0.23657 0.0
H1797 H 0.51698 0.49352 0.25575 0.0
H1798 H 0.51324 0.49833 0.28448 0.0
H1799 H 0.49639 0.48441 0.22356 0.0
H1800 H 0.44944 0.45989 0.2491 0.0
H1801 H 0.48676 0.48913 0.29675 0.0
C1802 C 0.51987 0.51899 0.23299 0.0
C1803 C 0.52725 0.53452 0.22545 0.0
C1804 C 0.51741 0.51538 0.25726 0.0
C1805 C 0.52303 0.52763 0.27403 0.0
C1806 C 0.53062 0.54324 0.26662 0.0
C1807 C 0.5322 0.5465 0.24233 0.0
C1808 C 0.51086 0.49872 0.26529 0.0
C1809 C 0.49354 0.48874 0.26037 0.0
C1810 C 0.48816 0.48216 0.23766 0.0
C1811 C 0.47227 0.47169 0.23359 0.0
C1812 C 0.4617 0.46821 0.2521 0.0
C1813 C 0.4668 0.47438 0.27483 0.0
C1814 C 0.48274 0.4847 0.27898 0.0
H1815 H 0.49555 0.9692 0.209 0.0
H1816 H 0.49939 0.96496 0.28442 0.0
H1817 H 0.54056 0.98946 0.24205 0.0
H1818 H 0.47363 0.94829 0.23322 0.0
H1819 H 0.47462 0.94934 0.26479 0.0
H1820 H 0.47274 0.97026 0.21017 0.0
H1821 H 0.44506 0.98657 0.24467 0.0
H1822 H 0.46275 0.96193 0.28466 0.0
C1823 C 0.50259 0.97209 0.22495 0.0
C1824 C 0.51889 0.98062 0.22317 0.0
C1825 C 0.4954 0.96678 0.24711 0.0
C1826 C 0.50478 0.96964 0.26747 0.0
C1827 C 0.52114 0.97796 0.26579 0.0
C1828 C 0.52798 0.98368 0.24368 0.0
C1829 C 0.47787 0.95656 0.2485 0.0
C1830 C 0.46963 0.96593 0.24784 0.0
C1831 C 0.46791 0.97202 0.22627 0.0
C1832 C 0.45929 0.97974 0.22512 0.0
C1833 C 0.45244 0.9814 0.24577 0.0
C1834 C 0.45343 0.97482 0.26718 0.0
C1835 C 0.46223 0.96729 0.26824 0.0
H1836 H 0.48532 0.99231 0.78864 0.0
H1837 H 0.48762 0.00779 0.71666 0.0
H1838 H 0.46411 0.0193 0.77007 0.0
H1839 H 0.49184 0.98018 0.75363 0.0
H1840 H 0.49638 0.98969 0.72559 0.0
H1841 H 0.50949 0.99496 0.78969 0.0
H1842 H 0.55786 0.02217 0.77218 0.0
H1843 H 0.52326 0.0073 0.71693 0.0
C1844 C 0.48322 0.99904 0.7756 0.0
C1845 C 0.47482 0.00636 0.78217 0.0
C1846 C 0.48854 1.00006 0.75218 0.0
C1847 C 0.48438 0.00767 0.73502 0.0
C1848 C 0.47554 0.01463 0.74139 0.0
C1849 C 0.4713 0.01434 0.76512 0.0
C1850 C 0.4973 0.99181 0.74507 0.0
C1851 C 0.51429 1.00084 0.75259 0.0
C1852 C 0.51841 1.00117 0.7766 0.0
C1853 C 0.53409 0.00915 0.78378 0.0
C1854 C 0.54571 0.01665 0.76677 0.0
C1855 C 0.54197 0.01586 0.74266 0.0
C1856 C 0.5262 0.00806 0.73559 0.0
H1857 H 0.00695 0.4915 0.79436 0.0
H1858 H 0.99614 0.4803 0.72022 0.0
H1859 H 0.98149 0.44381 0.77149 0.0
H1860 H 0.02142 0.51101 0.76199 0.0
H1861 H 0.01439 0.5068 0.73216 0.0
H1862 H 0.00305 0.51235 0.79397 0.0
H1863 H 0.97996 0.53631 0.76861 0.0
H1864 H 0.99888 0.51746 0.71885 0.0
C1865 C 1.00117 0.483 0.78035 0.0
C1866 C 0.99353 0.46708 0.78584 0.0
C1867 C 1.00171 0.48794 0.7568 0.0
C1868 C 0.99514 0.47667 0.73853 0.0
C1869 C 0.9877 0.46072 0.74385 0.0
C1870 C 0.98668 0.4561 0.76751 0.0
C1871 C 0.01062 0.50513 0.75099 0.0
C1872 C 1.00119 0.51305 0.75583 0.0
C1873 C 0.99855 0.51596 0.77934 0.0
C1874 C 0.99064 0.52411 0.78409 0.0
C1875 C 0.98536 0.52932 0.7651 0.0
C1876 C 0.9884 0.52713 0.74163 0.0
C1877 C 0.99624 0.51889 0.73699 0.0
H1878 H 0.50369 0.47532 0.80268 0.0
H1879 H 0.50239 0.46404 0.72858 0.0
H1880 H 0.45985 0.44635 0.7676 0.0
H1881 H 0.52672 0.4761 0.78143 0.0
H1882 H 0.52666 0.47517 0.7499 0.0
H1883 H 0.52693 0.49916 0.80188 0.0
H1884 H 0.55394 0.54221 0.76502 0.0
H1885 H 0.53712 0.4988 0.72779 0.0
C1886 C 0.49711 0.46999 0.78664 0.0
C1887 C 0.48075 0.4612 0.78756 0.0
C1888 C 0.50504 0.47137 0.76531 0.0
C1889 C 0.4964 0.46363 0.74482 0.0
C1890 C 0.48005 0.45478 0.74554 0.0
C1891 C 0.47239 0.45388 0.7668 0.0
C1892 C 0.52265 0.47936 0.76517 0.0
C1893 C 0.53027 0.49693 0.76455 0.0
C1894 C 0.53171 0.50533 0.7855 0.0
C1895 C 0.54003 0.52169 0.78569 0.0
C1896 C 0.54674 0.52962 0.76463 0.0
C1897 C 0.54591 0.52151 0.74377 0.0
C1898 C 0.53748 0.50513 0.74371 0.0
H1899 H 0.70052 0.86442 0.54847 0.0
H1900 H 0.70256 0.86944 0.62461 0.0
H1901 H 0.68465 0.89277 0.58195 0.0
H1902 H 0.71849 0.85941 0.5738 0.0
H1903 H 0.71677 0.85878 0.60522 0.0
H1904 H 0.69449 0.83852 0.54923 0.0
H1905 H 0.67731 0.79318 0.57925 0.0
H1906 H 0.70344 0.83389 0.62265 0.0
C1907 C 0.69765 0.86845 0.56451 0.0
C1908 C 0.69171 0.87861 0.56275 0.0
C1909 C 0.70124 0.86469 0.58687 0.0
C1910 C 0.69893 0.87142 0.60745 0.0
C1911 C 0.69277 0.88143 0.60572 0.0
C1912 C 0.68883 0.88456 0.58341 0.0
C1913 C 0.7099 0.85575 0.58844 0.0
C1914 C 0.69926 0.83826 0.58657 0.0
C1915 C 0.69265 0.83129 0.56455 0.0
C1916 C 0.6845 0.81499 0.56183 0.0
C1917 C 0.68275 0.8057 0.58154 0.0
C1918 C 0.68962 0.81238 0.60344 0.0
C1919 C 0.69771 0.82868 0.60596 0.0
H1920 H 0.18453 0.84309 0.56329 0.0
H1921 H 0.18757 0.85763 0.63622 0.0
H1922 H 0.20514 0.89157 0.58062 0.0
H1923 H 0.18366 0.82636 0.59916 0.0
H1924 H 0.17928 0.83097 0.62763 0.0
H1925 H 0.16387 0.81731 0.56609 0.0
H1926 H 0.1162 0.79415 0.58853 0.0
H1927 H 0.15254 0.82267 0.63807 0.0
C1928 C 0.18731 0.85213 0.57639 0.0
C1929 C 0.19455 0.86772 0.56916 0.0
C1930 C 0.1842 0.84829 0.60053 0.0
C1931 C 0.18911 0.86037 0.6175 0.0
C1932 C 0.19659 0.87603 0.61038 0.0
C1933 C 0.19881 0.8795 0.58617 0.0
C1934 C 0.17739 0.83155 0.6083 0.0
C1935 C 0.16019 0.82179 0.60243 0.0
C1936 C 0.15531 0.81524 0.57958 0.0
C1937 C 0.13946 0.80516 0.57458 0.0
C1938 C 0.12845 0.80207 0.59228 0.0
C1939 C 0.13303 0.80826 0.61515 0.0
C1940 C 0.14893 0.81815 0.62023 0.0
H1941 H 0.16641 0.3092 0.54709 0.0
H1942 H 0.17004 0.29969 0.62056 0.0
H1943 H 0.21134 0.32591 0.57917 0.0
H1944 H 0.14445 0.28614 0.57007 0.0
H1945 H 0.1451 0.28677 0.60162 0.0
H1946 H 0.14204 0.3067 0.5471 0.0
H1947 H 0.11606 0.32451 0.58286 0.0
H1948 H 0.13526 0.30116 0.62261 0.0
C1949 C 0.17342 0.31088 0.56276 0.0
C1950 C 0.18974 0.31896 0.56087 0.0
C1951 C 0.16617 0.30429 0.58444 0.0
C1952 C 0.17549 0.30547 0.60416 0.0
C1953 C 0.19182 0.31341 0.60238 0.0
C1954 C 0.19879 0.32047 0.58091 0.0
C1955 C 0.1486 0.29423 0.58557 0.0
C1956 C 0.14046 0.3037 0.58512 0.0
C1957 C 0.1379 0.30908 0.56343 0.0
C1958 C 0.12937 0.31689 0.56257 0.0
C1959 C 0.12343 0.31932 0.58363 0.0
C1960 C 0.12532 0.31355 0.60526 0.0
C1961 C 0.13404 0.30592 0.60601 0.0
H1962 H 0.00442 0.40427 0.14275 0.0
H1963 H 0.01326 0.48449 0.18889 0.0
H1964 H 0.00852 0.43939 0.09359 0.0
H1965 H 0.02855 0.45705 0.22774 0.0
H1966 H 0.00766 0.46699 0.15448 0.0
H1967 H 0.00872 0.4221 0.1754 0.0
C1968 C 0.0063 0.41576 0.13875 0.0
C1969 C 0.00635 0.42037 0.11526 0.0
C1970 C 0.01218 0.46486 0.17066 0.0
C1971 C 0.01099 0.44083 0.15282 0.0
C1972 C 0.01541 0.47483 0.19023 0.0
C1973 C 0.02103 0.47204 0.21149 0.0
C1974 C 0.0145 0.45203 0.17254 0.0
C1975 C 0.02368 0.45938 0.21214 0.0
C1976 C 0.00868 0.42592 0.15745 0.0
C1977 C 0.00832 0.43528 0.11138 0.0
N1978 N 0.02029 0.44984 0.19311 0.0
N1979 N 0.01061 0.44502 0.12998 0.0
H1980 H 0.5588 0.58643 0.09547 0.0
H1981 H 0.54328 0.52478 0.19779 0.0
H1982 H 0.58999 0.56916 0.11158 0.0
H1983 H 0.52288 0.55432 0.19706 0.0
H1984 H 0.55596 0.53602 0.15999 0.0
H1985 H 0.5414 0.57004 0.1269 0.0
C1986 C 0.56188 0.57904 0.10545 0.0
C1987 C 0.5759 0.57922 0.10109 0.0
C1988 C 0.5485 0.53984 0.16792 0.0
C1989 C 0.55606 0.56045 0.13691 0.0
C1990 C 0.54113 0.53332 0.18932 0.0
C1991 C 0.53208 0.53869 0.20051 0.0
C1992 C 0.54668 0.55171 0.15762 0.0
C1993 C 0.52985 0.54994 0.189 0.0
C1994 C 0.55199 0.56975 0.12341 0.0
C1995 C 0.57939 0.56951 0.11462 0.0
N1996 N 0.5372 0.55617 0.16824 0.0
N1997 N 0.56955 0.56053 0.13197 0.0
H1998 H 0.40456 0.96994 0.1023 0.0
H1999 H 0.46104 0.00729 0.21304 0.0
H2000 H 0.43006 0.01956 0.11491 0.0
H2001 H 0.44783 0.96171 0.18531 0.0
H2002 H 0.4499 0.01231 0.17756 0.0
H2003 H 0.41992 0.96665 0.13339 0.0
C2004 C 0.41339 0.98014 0.11168 0.0
C2005 C 0.41598 0.99503 0.10618 0.0
C2006 C 0.44968 1.00131 0.17906 0.0
C2007 C 0.43362 0.99137 0.14174 0.0
C2008 C 0.45604 0.99846 0.19925 0.0
C2009 C 0.45534 0.98407 0.20207 0.0
C2010 C 0.4423 0.98956 0.16179 0.0
C2011 C 0.44873 0.97301 0.18373 0.0
C2012 C 0.42224 0.97828 0.12926 0.0
C2013 C 0.42773 0.00788 0.1186 0.0
N2014 N 0.44225 0.97589 0.16454 0.0
N2015 N 0.43602 0.00575 0.136 0.0
H2016 H 0.4415 0.02108 0.91625 0.0
H2017 H 0.45287 0.97949 0.8026 0.0
H2018 H 0.40355 0.98063 0.88268 0.0
H2019 H 0.48069 0.02897 0.81488 0.0
H2020 H 0.4379 0.97723 0.83849 0.0
H2021 H 0.45905 0.02171 0.88506 0.0
C2022 C 0.43692 0.01227 0.9024 0.0
C2023 C 0.42108 1.00085 0.90184 0.0
C2024 C 0.44746 0.98853 0.83352 0.0
C2025 C 0.44103 1.00135 0.86656 0.0
C2026 C 0.45608 0.98979 0.81327 0.0
C2027 C 0.46802 0.00442 0.80601 0.0
C2028 C 0.451 0.00197 0.84666 0.0
C2029 C 0.47158 0.01749 0.82008 0.0
C2030 C 0.4469 0.01266 0.88465 0.0
C2031 C 0.41568 0.98972 0.88353 0.0
N2032 N 0.46309 0.01598 0.83977 0.0
N2033 N 0.42565 0.99021 0.86663 0.0
H2034 H 0.97385 0.40233 0.89835 0.0
H2035 H 0.01841 0.47737 0.81645 0.0
H2036 H 0.02185 0.43781 0.90985 0.0
H2037 H 0.96938 0.44373 0.81007 0.0
H2038 H 0.01954 0.46455 0.85284 0.0
H2039 H 0.97174 0.41831 0.86744 0.0
C2040 C 0.98397 0.41347 0.8943 0.0
C2041 C 0.99809 0.41866 0.90654 0.0
C2042 C 0.00849 0.46011 0.84366 0.0
C2043 C 0.99573 0.43716 0.87125 0.0
C2044 C 0.00781 0.46751 0.82301 0.0
C2045 C 0.99381 0.4615 0.81011 0.0
C2046 C 0.99508 0.44658 0.85135 0.0
C2047 C 0.98047 0.44859 0.81929 0.0
C2048 C 0.98273 0.42267 0.87678 0.0
C2049 C 0.01073 0.43337 0.9009 0.0
N2050 N 0.98147 0.44147 0.83916 0.0
N2051 N 0.00929 0.44205 0.88353 0.0
H2052 H 0.59001 0.56629 0.9134 0.0
H2053 H 0.53929 0.54847 0.79494 0.0
H2054 H 0.57749 0.59841 0.88297 0.0
H2055 H 0.55032 0.51578 0.82726 0.0
H2056 H 0.55093 0.56588 0.82909 0.0
H2057 H 0.57387 0.5469 0.88358 0.0
C2058 C 0.58393 0.5693 0.90035 0.0
C2059 C 0.58526 0.58408 0.90051 0.0
C2060 C 0.55061 0.5548 0.8289 0.0
C2061 C 0.56653 0.56181 0.86647 0.0
C2062 C 0.54392 0.54485 0.80945 0.0
C2063 C 0.54393 0.53071 0.8082 0.0
C2064 C 0.55747 0.55065 0.84716 0.0
C2065 C 0.54998 0.52652 0.82754 0.0
C2066 C 0.57459 0.55816 0.88346 0.0
C2067 C 0.57679 0.58717 0.88353 0.0
N2068 N 0.55668 0.53654 0.84607 0.0
N2069 N 0.56787 0.57617 0.8671 0.0
H2070 H 0.01582 0.57824 0.91305 0.0
H2071 H 0.96541 0.52335 0.80503 0.0
H2072 H 0.96983 0.56934 0.89403 0.0
H2073 H 0.01344 0.53675 0.8183 0.0
H2074 H 0.9654 0.53662 0.84161 0.0
H2075 H 0.01382 0.55997 0.88214 0.0
C2076 C 0.00524 0.57234 0.90251 0.0
C2077 C 0.99301 0.57541 0.90604 0.0
C2078 C 0.97588 0.5365 0.8367 0.0
C2079 C 0.99068 0.55452 0.87054 0.0
C2080 C 0.97588 0.52888 0.81587 0.0
C2081 C 0.9895 0.52909 0.80849 0.0
C2082 C 0.98962 0.54444 0.85026 0.0
C2083 C 1.00267 0.53625 0.82335 0.0
C2084 C 0.00413 0.56194 0.88481 0.0
C2085 C 0.97965 0.56753 0.89168 0.0
N2086 N 1.00247 0.54382 0.84338 0.0
N2087 N 0.97886 0.55749 0.87453 0.0
H2088 H 0.40326 0.41749 0.88123 0.0
H2089 H 0.48909 0.45491 0.8309 0.0
H2090 H 0.44248 0.42611 0.9253 0.0
H2091 H 0.45272 0.45954 0.79623 0.0
H2092 H 0.47268 0.44492 0.86599 0.0
H2093 H 0.42129 0.43268 0.84965 0.0
C2094 C 0.41568 0.42261 0.88424 0.0
C2095 C 0.4214 0.4205 0.90584 0.0
C2096 C 0.46839 0.44833 0.85082 0.0
C2097 C 0.44211 0.43787 0.86983 0.0
C2098 C 0.47781 0.45417 0.83081 0.0
C2099 C 0.47222 0.45791 0.81041 0.0
C2100 C 0.45321 0.44604 0.85032 0.0
C2101 C 0.45739 0.45648 0.81133 0.0
C2102 C 0.42598 0.43137 0.8663 0.0
C2103 C 0.43761 0.42754 0.90894 0.0
N2104 N 0.44832 0.45045 0.83078 0.0
N2105 N 0.4474 0.43577 0.89103 0.0
H2106 H 0.59072 0.03063 0.90934 0.0
H2107 H 0.52475 0.98341 0.81137 0.0
H2108 H 0.56756 0.98067 0.90073 0.0
H2109 H 0.55458 0.03334 0.81182 0.0
H2110 H 0.53661 0.98215 0.84891 0.0
H2111 H 0.57412 0.03167 0.87817 0.0
C2112 C 0.58203 0.01986 0.90105 0.0
C2113 C 0.58061 0.00555 0.90752 0.0
C2114 C 0.5404 0.9934 0.84096 0.0
C2115 C 0.56161 0.00668 0.87169 0.0
C2116 C 0.53352 0.99413 0.8197 0.0
C2117 C 0.53879 0.00849 0.80849 0.0
C2118 C 0.55255 0.00714 0.85105 0.0
C2119 C 0.55031 0.02203 0.81984 0.0
C2120 C 0.5726 0.02047 0.88318 0.0
C2121 C 0.56923 0.99198 0.896 0.0
N2122 N 0.5569 0.02101 0.8404 0.0
N2123 N 0.5602 0.99288 0.87858 0.0
H2124 H 0.59266 0.02188 0.1213 0.0
H2125 H 0.51247 0.96198 0.18397 0.0
H2126 H 0.56365 0.97402 0.09898 0.0
H2127 H 0.54366 0.00851 0.20989 0.0
H2128 H 0.529 0.96744 0.14909 0.0
H2129 H 0.5731 0.01825 0.15068 0.0
C2130 C 0.58213 0.01063 0.12248 0.0
C2131 C 0.57986 0.9982 0.10777 0.0
C2132 C 0.53212 0.97653 0.16225 0.0
C2133 C 0.55741 0.99393 0.14146 0.0
C2134 C 0.52259 0.97348 0.18201 0.0
C2135 C 0.52679 0.98478 0.19989 0.0
C2136 C 0.54592 0.991 0.16039 0.0
C2137 C 0.54013 0.99942 0.19661 0.0
C2138 C 0.57098 0.00855 0.1393 0.0
C2139 C 0.56603 0.98384 0.11025 0.0
N2140 N 0.5493 0.00205 0.17739 0.0
N2141 N 0.55536 0.98209 0.12681 0.0
H2142 H 0.98367 0.56814 0.10843 0.0
H2143 H 0.04362 0.55466 0.18588 0.0
H2144 H 0.03351 0.59868 0.10683 0.0
H2145 H 0.99619 0.53812 0.20731 0.0
H2146 H 0.03893 0.5658 0.15023 0.0
H2147 H 0.98716 0.55249 0.13886 0.0
C2148 C 0.99534 0.57147 0.11441 0.0
C2149 C 0.00832 0.58477 0.10533 0.0
C2150 C 0.02948 0.55951 0.16255 0.0
C2151 C 0.01239 0.56687 0.13968 0.0
C2152 C 0.0321 0.55299 0.1827 0.0
C2153 C 0.02026 0.54549 0.19948 0.0
C2154 C 0.0149 0.55835 0.15909 0.0
C2155 C 0.00561 0.54387 0.19477 0.0
C2156 C 0.99731 0.56258 0.13174 0.0
C2157 C 0.02319 0.58863 0.11365 0.0
N2158 N 0.00334 0.55033 0.17504 0.0
N2159 N 0.02483 0.5797 0.13034 0.0
H2160 H 0.41804 0.39849 0.13361 0.0
H2161 H 0.47588 0.48317 0.18831 0.0
H2162 H 0.43301 0.44094 0.09454 0.0
H2163 H 0.45558 0.44037 0.22776 0.0
H2164 H 0.46328 0.46803 0.15206 0.0
H2165 H 0.43452 0.41378 0.16674 0.0
C2166 C 0.42477 0.41105 0.13202 0.0
C2167 C 0.42398 0.41844 0.11136 0.0
C2168 C 0.46171 0.46197 0.16864 0.0
C2169 C 0.44307 0.4361 0.14928 0.0
C2170 C 0.46895 0.47059 0.18921 0.0
C2171 C 0.46656 0.46298 0.21098 0.0
C2172 C 0.45218 0.44568 0.16997 0.0
C2173 C 0.4575 0.44668 0.21134 0.0
C2174 C 0.43427 0.41979 0.15091 0.0
C2175 C 0.43329 0.43474 0.11011 0.0
N2176 N 0.45058 0.4386 0.19122 0.0
N2177 N 0.44237 0.44305 0.12889 0.0
H2178 H 0.69332 0.78098 0.42591 0.0
H2179 H 0.65758 0.78838 0.54881 0.0
H2180 H 0.65202 0.74334 0.45731 0.0
H2181 H 0.70143 0.82418 0.52086 0.0
H2182 H 0.65307 0.77333 0.51225 0.0
H2183 H 0.69428 0.79832 0.45752 0.0
C2184 C 0.68433 0.77639 0.43931 0.0
C2185 C 0.67261 0.76063 0.43899 0.0
C2186 C 0.66357 0.78458 0.51397 0.0
C2187 C 0.67374 0.78045 0.47546 0.0
C2188 C 0.66613 0.7932 0.53481 0.0
C2189 C 0.67998 0.80749 0.53802 0.0
C2190 C 0.67495 0.79027 0.49621 0.0
C2191 C 0.69056 0.81326 0.51916 0.0
C2192 C 0.68494 0.78629 0.45743 0.0
C2193 C 0.66142 0.75532 0.45704 0.0
N2194 N 0.68791 0.80454 0.4992 0.0
N2195 N 0.6623 0.76519 0.47458 0.0
H2196 H 0.26059 0.90621 0.45782 0.0
H2197 H 0.18843 0.88591 0.54004 0.0
H2198 H 0.22591 0.91857 0.43937 0.0
H2199 H 0.21328 0.86062 0.54311 0.0
H2200 H 0.20174 0.89789 0.50295 0.0
H2201 H 0.24369 0.88977 0.48966 0.0
C2202 C 0.24942 0.90546 0.46052 0.0
C2203 C 0.24466 0.91382 0.44609 0.0
C2204 C 0.20407 0.8895 0.51147 0.0
C2205 C 0.22528 0.89505 0.48235 0.0
C2206 C 0.19644 0.88263 0.53254 0.0
C2207 C 0.19976 0.87226 0.54449 0.0
C2208 C 0.21536 0.88623 0.50263 0.0
C2209 C 0.21032 0.86846 0.53426 0.0
C2210 C 0.23972 0.89598 0.47852 0.0
C2211 C 0.22998 0.91228 0.45008 0.0
N2212 N 0.21796 0.87565 0.51409 0.0
N2213 N 0.22088 0.90321 0.468 0.0
H2214 H 0.09119 0.35446 0.46264 0.0
H2215 H 0.11801 0.29861 0.52274 0.0
H2216 H 0.07773 0.30843 0.4364 0.0
H2217 H 0.12955 0.34372 0.5507 0.0
H2218 H 0.10591 0.30329 0.48827 0.0
H2219 H 0.10745 0.35177 0.49273 0.0
C2220 C 0.09171 0.34381 0.46312 0.0
C2221 C 0.083 0.33162 0.44703 0.0
C2222 C 0.11125 0.31225 0.5018 0.0
C2223 C 0.10158 0.32843 0.48156 0.0
C2224 C 0.11832 0.30965 0.52136 0.0
C2225 C 0.12471 0.32076 0.53968 0.0
C2226 C 0.11057 0.32605 0.50057 0.0
C2227 C 0.12458 0.33477 0.5371 0.0
C2228 C 0.10098 0.34227 0.48036 0.0
C2229 C 0.08402 0.31803 0.44869 0.0
N2230 N 0.11749 0.33696 0.51804 0.0
N2231 N 0.09311 0.31679 0.46566 0.0
H2232 H 0.095 0.32318 0.25612 0.0
H2233 H 0.14223 0.36998 0.14164 0.0
H2234 H 0.0902 0.35988 0.22373 0.0
H2235 H 0.13264 0.32335 0.15659 0.0
H2236 H 0.12807 0.36932 0.17735 0.0
H2237 H 0.11324 0.32575 0.22471 0.0
C2238 C 0.09786 0.33182 0.24245 0.0
C2239 C 0.09103 0.34126 0.24235 0.0
C2240 C 0.12922 0.3593 0.17293 0.0
C2241 C 0.11194 0.3444 0.20677 0.0
C2242 C 0.13731 0.35966 0.15259 0.0
C2243 C 0.13841 0.34659 0.14585 0.0
C2244 C 0.12227 0.34583 0.18686 0.0
C2245 C 0.13212 0.3337 0.16107 0.0
C2246 C 0.10821 0.33325 0.22457 0.0
C2247 C 0.09506 0.35224 0.22425 0.0
N2248 N 0.12418 0.33358 0.18076 0.0
N2249 N 0.10529 0.35354 0.20722 0.0
H2250 H 0.69717 0.75702 0.2132 0.0
H2251 H 0.67417 0.81784 0.16167 0.0
H2252 H 0.67422 0.7762 0.25473 0.0
H2253 H 0.69775 0.79865 0.12196 0.0
H2254 H 0.67727 0.80576 0.19773 0.0
H2255 H 0.70015 0.77467 0.18108 0.0
C2256 C 0.69274 0.76495 0.21554 0.0
C2257 C 0.68527 0.76501 0.23657 0.0
C2258 C 0.68203 0.80444 0.18121 0.0
C2259 C 0.68873 0.78539 0.19986 0.0
C2260 C 0.68039 0.81146 0.16075 0.0
C2261 C 0.68567 0.80914 0.13897 0.0
C2262 C 0.68895 0.79506 0.17967 0.0
C2263 C 0.69347 0.80062 0.1385 0.0
C2264 C 0.69455 0.77513 0.19726 0.0
C2265 C 0.68008 0.77579 0.23882 0.0
N2266 N 0.69472 0.79375 0.15847 0.0
N2267 N 0.68176 0.78544 0.2206 0.0
H2268 H 0.22903 0.89296 0.25516 0.0
H2269 H 0.24098 0.87089 0.12353 0.0
H2270 H 0.27076 0.91905 0.21383 0.0
H2271 H 0.19555 0.84991 0.15568 0.0
H2272 H 0.25235 0.88643 0.15911 0.0
H2273 H 0.21667 0.87548 0.2211 0.0
C2274 C 0.23558 0.89507 0.23895 0.0
C2275 C 0.25103 0.90748 0.23746 0.0
C2276 C 0.23989 0.87847 0.15852 0.0
C2277 C 0.23704 0.88738 0.19868 0.0
C2278 C 0.23338 0.86959 0.13817 0.0
C2279 C 0.21725 0.85935 0.1365 0.0
C2280 C 0.23027 0.87714 0.17757 0.0
C2281 C 0.20803 0.85778 0.15626 0.0
C2282 C 0.22854 0.88503 0.21959 0.0
C2283 C 0.25898 0.9095 0.21607 0.0
N2284 N 0.21466 0.86671 0.17601 0.0
N2285 N 0.25191 0.89957 0.19764 0.0
H2286 H 0.64255 0.9051 0.22893 0.0
H2287 H 0.69078 0.87815 0.14866 0.0
H2288 H 0.69 0.9174 0.24477 0.0
H2289 H 0.64142 0.86049 0.14051 0.0
H2290 H 0.69038 0.89063 0.18599 0.0
H2291 H 0.64163 0.88742 0.19788 0.0
C2292 C 0.65279 0.90408 0.22582 0.0
C2293 C 0.66643 0.91284 0.23925 0.0
C2294 C 0.67959 0.88381 0.17623 0.0
C2295 C 0.66545 0.89254 0.20382 0.0
C2296 C 0.67979 0.87656 0.15504 0.0
C2297 C 0.66614 0.86844 0.14133 0.0
C2298 C 0.66567 0.883 0.18364 0.0
C2299 C 0.65225 0.86688 0.15033 0.0
C2300 C 0.65222 0.89388 0.20824 0.0
C2301 C 0.67925 0.91083 0.23482 0.0
N2302 N 0.65241 0.87428 0.17071 0.0
N2303 N 0.67851 0.90101 0.21731 0.0
H2304 H 0.1128 0.7703 0.25492 0.0
H2305 H 0.12066 0.76391 0.11673 0.0
H2306 H 0.07401 0.74121 0.20866 0.0
H2307 H 0.15171 0.8068 0.15366 0.0
H2308 H 0.10515 0.7542 0.15215 0.0
H2309 H 0.12867 0.78306 0.21991 0.0
C2310 C 0.10754 0.76669 0.23749 0.0
C2311 C 0.09206 0.75445 0.23479 0.0
C2312 C 0.11526 0.76581 0.15252 0.0
C2313 C 0.11026 0.76881 0.19486 0.0
C2314 C 0.12412 0.77147 0.13217 0.0
C2315 C 0.13733 0.78646 0.13185 0.0
C2316 C 0.11971 0.77496 0.17314 0.0
C2317 C 0.14157 0.79524 0.153 0.0
C2318 C 0.11665 0.77395 0.21756 0.0
C2319 C 0.08597 0.75023 0.21172 0.0
N2320 N 0.13278 0.78935 0.17289 0.0
N2321 N 0.09512 0.75727 0.19272 0.0
H2322 H 0.2388 0.31317 0.23667 0.0
H2323 H 0.22444 0.3689 0.15233 0.0
H2324 H 0.26262 0.36317 0.2456 0.0
H2325 H 0.19441 0.31901 0.15303 0.0
H2326 H 0.23771 0.36715 0.18784 0.0
H2327 H 0.22184 0.31504 0.20699 0.0
C2328 C 0.24041 0.32454 0.23256 0.0
C2329 C 0.25227 0.33804 0.24363 0.0
C2330 C 0.22805 0.3566 0.1805 0.0
C2331 C 0.23294 0.34026 0.20936 0.0
C2332 C 0.22045 0.35761 0.1603 0.0
C2333 C 0.20836 0.34408 0.14977 0.0
C2334 C 0.22368 0.34191 0.19001 0.0
C2335 C 0.20362 0.32973 0.16072 0.0
C2336 C 0.23072 0.32559 0.21555 0.0
C2337 C 0.25389 0.35246 0.23723 0.0
N2338 N 0.21145 0.32899 0.18007 0.0
N2339 N 0.24441 0.35319 0.22045 0.0
H2340 H 0.23027 0.31022 0.43334 0.0
H2341 H 0.21563 0.34659 0.54921 0.0
H2342 H 0.25992 0.35837 0.45396 0.0
H2343 H 0.18187 0.30196 0.51978 0.0
H2344 H 0.23121 0.35199 0.51325 0.0
H2345 H 0.21175 0.30765 0.46361 0.0
C2346 C 0.23283 0.32034 0.44398 0.0
C2347 C 0.24678 0.33454 0.44103 0.0
C2348 C 0.22026 0.34114 0.51447 0.0
C2349 C 0.22562 0.33153 0.47628 0.0
C2350 C 0.21136 0.33807 0.53496 0.0
C2351 C 0.19749 0.32378 0.53752 0.0
C2352 C 0.21535 0.32974 0.49654 0.0
C2353 C 0.19244 0.31316 0.5185 0.0
C2354 C 0.22223 0.31883 0.4614 0.0
C2355 C 0.2495 0.34711 0.45583 0.0
N2356 N 0.20148 0.31626 0.49898 0.0
N2357 N 0.23909 0.34527 0.47292 0.0
H2358 H 0.69554 0.9432 0.45877 0.0
H2359 H 0.67487 0.86311 0.52277 0.0
H2360 H 0.66159 0.89824 0.43046 0.0
H2361 H 0.70623 0.90898 0.55072 0.0
H2362 H 0.67148 0.87515 0.48673 0.0
H2363 H 0.70104 0.93033 0.49085 0.0
C2364 C 0.68916 0.93059 0.45939 0.0
C2365 C 0.67793 0.9218 0.44208 0.0
C2366 C 0.67919 0.88254 0.50071 0.0
C2367 C 0.68432 0.90687 0.47877 0.0
C2368 C 0.68116 0.87568 0.52113 0.0
C2369 C 0.69067 0.88512 0.53973 0.0
C2370 C 0.6869 0.89889 0.49901 0.0
C2371 C 0.69861 0.90132 0.53689 0.0
C2372 C 0.69239 0.92322 0.47765 0.0
C2373 C 0.67034 0.90546 0.44345 0.0
N2374 N 0.69647 0.90767 0.51703 0.0
N2375 N 0.6736 0.8985 0.4616 0.0
H2376 H 0.08268 0.73469 0.47276 0.0
H2377 H 0.14559 0.81692 0.52928 0.0
H2378 H 0.1064 0.77674 0.43158 0.0
H2379 H 0.12099 0.77401 0.56811 0.0
H2380 H 0.13345 0.80241 0.4924 0.0
H2381 H 0.09834 0.74891 0.50716 0.0
C2382 C 0.09117 0.74696 0.47099 0.0
C2383 C 0.09311 0.75457 0.44933 0.0
C2384 C 0.13083 0.79618 0.50899 0.0
C2385 C 0.11126 0.771 0.48875 0.0
C2386 C 0.13782 0.80444 0.52995 0.0
C2387 C 0.13408 0.79665 0.55171 0.0
C2388 C 0.12015 0.78008 0.50996 0.0
C2389 C 0.12396 0.78048 0.55172 0.0
C2390 C 0.10021 0.75507 0.49062 0.0
C2391 C 0.10455 0.77041 0.44795 0.0
N2392 N 0.11728 0.77278 0.53124 0.0
N2393 N 0.11313 0.77815 0.46745 0.0
H2394 H 0.36303 0.08815 0.79835 0.0
H2395 H 0.34117 0.14802 0.85794 0.0
H2396 H 0.33358 0.10259 0.76328 0.0
H2397 H 0.37494 0.13693 0.88596 0.0
H2398 H 0.33868 0.13252 0.82215 0.0
H2399 H 0.3677 0.10663 0.83012 0.0
C2400 C 0.35762 0.09529 0.79721 0.0
C2401 C 0.34793 0.09381 0.778 0.0
C2402 C 0.34677 0.13367 0.83602 0.0
C2403 C 0.35308 0.11498 0.81473 0.0
C2404 C 0.34825 0.14257 0.85628 0.0
C2405 C 0.35819 0.1436 0.8748 0.0
C2406 C 0.3553 0.12582 0.83454 0.0
C2407 C 0.36706 0.13628 0.87205 0.0
C2408 C 0.36025 0.10584 0.81546 0.0
C2409 C 0.34098 0.10318 0.77787 0.0
N2410 N 0.36531 0.12762 0.85244 0.0
N2411 N 0.34365 0.11335 0.79599 0.0
H2412 H 0.93158 0.26856 0.81493 0.0
H2413 H 0.85822 0.19155 0.86324 0.0
H2414 H 0.90442 0.22925 0.76844 0.0
H2415 H 0.89733 0.22372 0.9065 0.0
H2416 H 0.87296 0.20546 0.82765 0.0
H2417 H 0.9168 0.2529 0.84841 0.0
C2418 C 0.92261 0.25659 0.81172 0.0
C2419 C 0.91942 0.25022 0.78875 0.0
C2420 C 0.87825 0.20937 0.845 0.0
C2421 C 0.90211 0.23222 0.82722 0.0
C2422 C 0.86988 0.20144 0.86523 0.0
C2423 C 0.8764 0.20674 0.88786 0.0
C2424 C 0.89312 0.22263 0.84763 0.0
C2425 C 0.89161 0.21953 0.88948 0.0
C2426 C 0.9141 0.24765 0.83089 0.0
C2427 C 0.90724 0.23473 0.78577 0.0
N2428 N 0.89934 0.2271 0.86973 0.0
N2429 N 0.89898 0.22624 0.8048 0.0
H2430 H 0.7605 0.68818 0.79001 0.0
H2431 H 0.78621 0.63353 0.85673 0.0
H2432 H 0.74779 0.64182 0.76634 0.0
H2433 H 0.79766 0.67929 0.88152 0.0
H2434 H 0.77522 0.63779 0.82055 0.0
H2435 H 0.77677 0.68635 0.82102 0.0
C2436 C 0.76122 0.67765 0.79122 0.0
C2437 C 0.75264 0.66508 0.77566 0.0
C2438 C 0.78032 0.64699 0.83375 0.0
C2439 C 0.7712 0.66287 0.81125 0.0
C2440 C 0.78676 0.64463 0.8543 0.0
C2441 C 0.79274 0.65603 0.87223 0.0
C2442 C 0.77985 0.66084 0.83116 0.0
C2443 C 0.79296 0.67011 0.86826 0.0
C2444 C 0.77048 0.6766 0.80898 0.0
C2445 C 0.75393 0.65168 0.77823 0.0
N2446 N 0.78645 0.67205 0.84828 0.0
N2447 N 0.76297 0.65091 0.79573 0.0
H2448 H 0.74429 0.64417 0.56132 0.0
H2449 H 0.8184 0.69932 0.48455 0.0
H2450 H 0.77639 0.69197 0.5807 0.0
H2451 H 0.79485 0.64926 0.47876 0.0
H2452 H 0.80359 0.69689 0.52046 0.0
H2453 H 0.76262 0.64568 0.53099 0.0
C2454 C 0.7552 0.65497 0.55918 0.0
C2455 C 0.7588 0.668 0.57342 0.0
C2456 C 0.80185 0.68642 0.51161 0.0
C2457 C 0.77981 0.66981 0.53888 0.0
C2458 C 0.81033 0.68781 0.49121 0.0
C2459 C 0.80782 0.67446 0.47882 0.0
C2460 C 0.79053 0.67156 0.51937 0.0
C2461 C 0.79718 0.65981 0.48798 0.0
C2462 C 0.76571 0.65579 0.54203 0.0
C2463 C 0.77319 0.68164 0.57016 0.0
N2464 N 0.78872 0.65874 0.50753 0.0
N2465 N 0.7831 0.68224 0.55307 0.0
H2466 H 0.35286 0.11052 0.57763 0.0
H2467 H 0.30388 0.10907 0.4637 0.0
H2468 H 0.31201 0.06922 0.5516 0.0
H2469 H 0.35168 0.14489 0.47605 0.0
H2470 H 0.30451 0.09659 0.50058 0.0
H2471 H 0.35051 0.1253 0.54473 0.0
C2472 C 0.34335 0.1046 0.56505 0.0
C2473 C 0.33267 0.08861 0.56719 0.0
C2474 C 0.31481 0.10726 0.49532 0.0
C2475 C 0.32986 0.10543 0.52975 0.0
C2476 C 0.31447 0.1144 0.47429 0.0
C2477 C 0.32783 0.12793 0.46656 0.0
C2478 C 0.32857 0.11373 0.50888 0.0
C2479 C 0.34109 0.13451 0.48131 0.0
C2480 C 0.34205 0.11302 0.54629 0.0
C2481 C 0.32061 0.08148 0.55038 0.0
N2482 N 0.34118 0.12727 0.50167 0.0
N2483 N 0.31952 0.08995 0.53238 0.0
H2484 H 0.94468 0.25166 0.55601 0.0
H2485 H 0.86373 0.18979 0.49458 0.0
H2486 H 0.90019 0.23562 0.58966 0.0
H2487 H 0.90899 0.20802 0.46273 0.0
H2488 H 0.87647 0.20468 0.531 0.0
H2489 H 0.93145 0.23415 0.52286 0.0
C2490 C 0.93211 0.24436 0.55652 0.0
C2491 C 0.92356 0.24511 0.57571 0.0
C2492 C 0.88358 0.20531 0.51606 0.0
C2493 C 0.9082 0.22505 0.53745 0.0
C2494 C 0.87633 0.19677 0.49541 0.0
C2495 C 0.88536 0.19788 0.47565 0.0
C2496 C 0.89992 0.21487 0.5168 0.0
C2497 C 0.90162 0.20705 0.47749 0.0
C2498 C 0.92453 0.23439 0.53749 0.0
C2499 C 0.90724 0.23555 0.5751 0.0
N2500 N 0.90835 0.21523 0.4976 0.0
N2501 N 0.90007 0.22591 0.55626 0.0
H2502 H 0.35647 0.24603 0.57476 0.0
H2503 H 0.30432 0.19035 0.46849 0.0
H2504 H 0.30937 0.23514 0.55929 0.0
H2505 H 0.35336 0.20634 0.47679 0.0
H2506 H 0.30491 0.20316 0.50585 0.0
H2507 H 0.35454 0.22836 0.54278 0.0
C2508 C 0.34568 0.23981 0.56477 0.0
C2509 C 0.33311 0.24217 0.56955 0.0
C2510 C 0.31552 0.20374 0.49967 0.0
C2511 C 0.33083 0.22197 0.53296 0.0
C2512 C 0.31518 0.1964 0.47838 0.0
C2513 C 0.32885 0.19745 0.4694 0.0
C2514 C 0.32966 0.21226 0.51211 0.0
C2515 C 0.34254 0.20522 0.48309 0.0
C2516 C 0.34461 0.22977 0.54648 0.0
C2517 C 0.31945 0.23389 0.55595 0.0
N2518 N 0.34265 0.2125 0.50364 0.0
N2519 N 0.3187 0.22421 0.53825 0.0
H2520 H 0.7771 0.08553 0.582 0.0
H2521 H 0.78959 0.13652 0.46646 0.0
H2522 H 0.74524 0.10078 0.55957 0.0
H2523 H 0.82311 0.12422 0.49177 0.0
H2524 H 0.77454 0.12587 0.50268 0.0
H2525 H 0.7951 0.10136 0.55089 0.0
C2526 C 0.77387 0.09218 0.57049 0.0
C2527 C 0.75955 0.09168 0.57324 0.0
C2528 C 0.78531 0.12572 0.50052 0.0
C2529 C 0.78021 0.11 0.5377 0.0
C2530 C 0.79393 0.13185 0.47989 0.0
C2531 C 0.80757 0.13117 0.47606 0.0
C2532 C 0.79027 0.11869 0.51736 0.0
C2533 C 0.81272 0.12506 0.49406 0.0
C2534 C 0.78422 0.10134 0.55285 0.0
C2535 C 0.75616 0.10084 0.55815 0.0
N2536 N 0.80394 0.11885 0.51377 0.0
N2537 N 0.76634 0.10951 0.54091 0.0
H2538 H 0.89977 0.64996 0.5818 0.0
H2539 H 0.89628 0.70219 0.47684 0.0
H2540 H 0.93585 0.69719 0.56784 0.0
H2541 H 0.86286 0.65329 0.48436 0.0
H2542 H 0.90866 0.70151 0.51396 0.0
H2543 H 0.88412 0.65182 0.54965 0.0
C2544 C 0.90435 0.66076 0.57209 0.0
C2545 C 0.91921 0.6734 0.57737 0.0
C2546 C 0.89851 0.69095 0.50767 0.0
C2547 C 0.90137 0.6756 0.5406 0.0
C2548 C 0.89143 0.69135 0.48651 0.0
C2549 C 0.87863 0.67774 0.47739 0.0
C2550 C 0.89282 0.67682 0.51982 0.0
C2551 C 0.87268 0.66406 0.49079 0.0
C2552 C 0.89543 0.66179 0.5537 0.0
C2553 C 0.9246 0.68707 0.5641 0.0
N2554 N 0.87994 0.6639 0.51121 0.0
N2555 N 0.91571 0.68778 0.54632 0.0
H2556 H 0.89982 0.64224 0.77654 0.0
H2557 H 0.88153 0.68097 0.88657 0.0
H2558 H 0.92768 0.69102 0.79453 0.0
H2559 H 0.84958 0.63469 0.86057 0.0
H2560 H 0.89786 0.68545 0.85174 0.0
H2561 H 0.88087 0.63951 0.80647 0.0
C2562 C 0.90197 0.65237 0.78686 0.0
C2563 C 0.91543 0.66685 0.78318 0.0
C2564 C 0.88715 0.6744 0.85342 0.0
C2565 C 0.89369 0.66385 0.81736 0.0
C2566 C 0.87782 0.67187 0.87325 0.0
C2567 C 0.86423 0.65743 0.87645 0.0
C2568 C 0.88298 0.66232 0.83683 0.0
C2569 C 0.85991 0.64603 0.85869 0.0
C2570 C 0.89107 0.65084 0.80379 0.0
C2571 C 0.91745 0.67965 0.79673 0.0
N2572 N 0.86938 0.64863 0.83981 0.0
N2573 N 0.90677 0.67782 0.81336 0.0
H2574 H 0.33746 0.26538 0.80389 0.0
H2575 H 0.34559 0.19543 0.85598 0.0
H2576 H 0.346 0.23597 0.75691 0.0
H2577 H 0.35979 0.23869 0.89317 0.0
H2578 H 0.34212 0.20724 0.81964 0.0
H2579 H 0.34111 0.25235 0.83761 0.0
C2580 C 0.3402 0.25625 0.80059 0.0
C2581 C 0.34169 0.25201 0.77741 0.0
C2582 C 0.34601 0.21405 0.83585 0.0
C2583 C 0.34555 0.23673 0.81621 0.0
C2584 C 0.34802 0.20736 0.85649 0.0
C2585 C 0.35257 0.21594 0.87779 0.0
C2586 C 0.34846 0.22929 0.83678 0.0
C2587 C 0.35572 0.23141 0.87743 0.0
C2588 C 0.34221 0.24876 0.81991 0.0
C2589 C 0.34469 0.23963 0.77443 0.0
N2590 N 0.35343 0.23749 0.85741 0.0
N2591 N 0.34654 0.23242 0.79363 0.0
H2592 H 0.75699 0.06551 0.79942 0.0
H2593 H 0.817 0.14789 0.85699 0.0
H2594 H 0.77704 0.10847 0.76008 0.0
H2595 H 0.79927 0.10387 0.89242 0.0
H2596 H 0.80512 0.13381 0.81974 0.0
H2597 H 0.77471 0.07934 0.83211 0.0
C2598 C 0.76525 0.07782 0.79747 0.0
C2599 C 0.76539 0.08581 0.77691 0.0
C2600 C 0.80409 0.12724 0.83556 0.0
C2601 C 0.78563 0.1019 0.81475 0.0
C2602 C 0.81097 0.13527 0.8567 0.0
C2603 C 0.80901 0.12696 0.87764 0.0
C2604 C 0.79518 0.11085 0.8356 0.0
C2605 C 0.80095 0.11065 0.87657 0.0
C2606 C 0.77535 0.08576 0.81627 0.0
C2607 C 0.77624 0.10186 0.77575 0.0
N2608 N 0.79419 0.10314 0.85599 0.0
N2609 N 0.78583 0.1094 0.79448 0.0
H2610 H 0.05969 0.33387 0.01562 0.0
H2611 H 0.1449 0.37604 0.06705 0.0
H2612 H 0.08949 0.38373 0.01264 0.0
H2613 H 0.1204 0.32728 0.04847 0.0
H2614 H 0.1261 0.3796 0.04355 0.0
H2615 H 0.08247 0.33129 0.02454 0.0
C2616 C 0.07109 0.34426 0.01659 0.0
C2617 C 0.07272 0.35904 0.01364 0.0
C2618 C 0.12505 0.3682 0.04403 0.0
C2619 C 0.09883 0.35622 0.02405 0.0
C2620 C 0.13584 0.36621 0.05731 0.0
C2621 C 0.13416 0.35137 0.05959 0.0
C2622 C 0.11228 0.35516 0.0335 0.0
C2623 C 0.12213 0.33893 0.04696 0.0
C2624 C 0.0841 0.34279 0.02154 0.0
C2625 C 0.08775 0.37213 0.01481 0.0
N2626 N 0.11143 0.34103 0.03485 0.0
N2627 N 0.1002 0.37044 0.02034 0.0
H2628 H 0.64198 0.72267 0.98628 0.0
H2629 H 0.67471 0.79892 0.03377 0.0
H2630 H 0.63617 0.71227 0.06116 0.0
H2631 H 0.64016 0.77642 0.08806 0.0
H2632 H 0.66497 0.77356 0.01399 0.0
H2633 H 0.64685 0.74893 0.99545 0.0
C2634 C 0.64173 0.7258 0.0046 0.0
C2635 C 0.63866 0.71504 0.02293 0.0
C2636 C 0.65916 0.77427 0.02975 0.0
C2637 C 0.64384 0.74498 0.03333 0.0
C2638 C 0.66467 0.78875 0.04096 0.0
C2639 C 0.6583 0.78969 0.06267 0.0
C2640 C 0.64737 0.76076 0.04057 0.0
C2641 C 0.64548 0.77614 0.07147 0.0
C2642 C 0.64444 0.7408 0.00974 0.0
C2643 C 0.63811 0.71982 0.04624 0.0
N2644 N 0.64071 0.76219 0.06075 0.0
N2645 N 0.64061 0.73434 0.05068 0.0
H2646 H 0.27496 0.93867 0.01036 0.0
H2647 H 0.23196 0.84852 0.04149 0.0
H2648 H 0.29541 0.90956 0.00037 0.0
H2649 H 0.21274 0.87841 0.05404 0.0
H2650 H 0.25246 0.86899 0.01743 0.0
H2651 H 0.24988 0.91545 0.01823 0.0
C2652 C 0.27414 0.92736 0.00966 0.0
C2653 C 0.28737 0.92608 0.00512 0.0
C2654 C 0.24352 0.87093 0.02491 0.0
C2655 C 0.25863 0.89937 0.0141 0.0
C2656 C 0.2317 0.85916 0.03837 0.0
C2657 C 0.22075 0.86187 0.04988 0.0
C2658 C 0.24438 0.88548 0.0231 0.0
C2659 C 0.22106 0.87594 0.04556 0.0
C2660 C 0.25979 0.91408 0.01402 0.0
C2661 C 0.28553 0.9111 0.00386 0.0
N2662 N 0.23286 0.88733 0.03289 0.0
N2663 N 0.27149 0.89835 0.0087 0.0
H2664 H 0.33332 0.05793 0.99021 0.0
H2665 H 0.37941 0.14965 0.97176 0.0
H2666 H 0.38176 0.08757 0.00895 0.0
H2667 H 0.33109 0.11952 0.95315 0.0
H2668 H 0.37906 0.12818 0.99364 0.0
H2669 H 0.33102 0.08104 0.98387 0.0
C2670 C 0.34346 0.06933 0.99313 0.0
C2671 C 0.35782 0.07083 -0.00027 0.0
C2672 C 0.36841 0.12637 0.98532 0.0
C2673 C 0.3553 0.09743 0.99251 0.0
C2674 C 0.36856 0.13869 0.97311 0.0
C2675 C 0.35528 0.13629 0.96055 0.0
C2676 C 0.35491 0.11156 0.98479 0.0
C2677 C 0.34159 0.1218 0.96253 0.0
C2678 C 0.34213 0.08254 0.98964 0.0
C2679 C 0.37048 0.08588 0.0038 0.0
N2680 N 0.34183 0.10991 0.97401 0.0
N2681 N 0.36899 0.0986 -0.00023 0.0
H2682 H 0.94273 0.27635 0.01239 0.0
H2683 H 0.85864 0.22786 0.95959 0.0
H2684 H 0.91204 0.29526 0.00671 0.0
H2685 H 0.88416 0.20655 0.98666 0.0
H2686 H 0.87605 0.25169 0.9817 0.0
H2687 H 0.92034 0.25014 0.00722 0.0
C2688 C 0.93121 0.27492 0.01031 0.0
C2689 C 0.92922 0.28795 0.00967 0.0
C2690 C 0.87756 0.24166 0.98347 0.0
C2691 C 0.90353 0.25801 0.00352 0.0
C2692 C 0.86752 0.22801 0.97103 0.0
C2693 C 0.87002 0.21528 0.97131 0.0
C2694 C 0.89039 0.24265 0.99578 0.0
C2695 C 0.88181 0.2161 0.9861 0.0
C2696 C 0.91841 0.25996 0.00751 0.0
C2697 C 0.91405 0.28549 0.00723 0.0
N2698 N 0.89182 0.22971 0.99727 0.0
N2699 N 0.9018 0.27082 0.00378 0.0
H2700 H 0.70784 0.62277 0.01833 0.0
H2701 H 0.78909 0.67524 0.95306 0.0
H2702 H 0.7221 0.66729 0.98591 0.0
H2703 H 0.77023 0.62631 0.96658 0.0
H2704 H 0.76773 0.67456 0.97555 0.0
H2705 H 0.73324 0.62578 0.00851 0.0
C2706 C 0.71626 0.63321 0.00928 0.0
C2707 C 0.71261 0.6447 0.00274 0.0
C2708 C 0.76841 0.66403 0.97402 0.0
C2709 C 0.7419 0.64835 0.99201 0.0
C2710 C 0.78067 0.66445 0.96135 0.0
C2711 C 0.78131 0.65077 0.95772 0.0
C2712 C 0.75666 0.64981 0.98309 0.0
C2713 C 0.77016 0.63711 0.96896 0.0
C2714 C 0.73082 0.63495 0.00386 0.0
C2715 C 0.72427 0.65815 0.99161 0.0
N2716 N 0.75811 0.6369 0.98081 0.0
N2717 N 0.73829 0.65953 0.98649 0.0
H2718 H 0.94238 0.66805 0.00949 0.0
H2719 H 0.85338 0.62438 0.96706 0.0
H2720 H 0.91347 0.61811 0.00259 0.0
H2721 H 0.88468 0.67381 0.96043 0.0
H2722 H 0.87324 0.62245 0.99032 0.0
H2723 H 0.91963 0.67068 0.0008 0.0
C2724 C 0.93125 0.65762 0.00631 0.0
C2725 C 0.92995 0.64284 0.00641 0.0
C2726 C 0.87565 0.63378 0.98424 0.0
C2727 C 0.90377 0.64579 0.99675 0.0
C2728 C 0.86423 0.63491 0.97122 0.0
C2729 C 0.86746 0.64925 0.96165 0.0
C2730 C 0.89038 0.64709 0.98768 0.0
C2731 C 0.88181 0.66251 0.96732 0.0
C2732 C 0.91824 0.65914 0.0015 0.0
C2733 C 0.91509 0.62974 0.00279 0.0
N2734 N 0.89282 0.66107 0.97966 0.0
N2735 N 0.90264 0.63154 -0.00215 0.0
H2736 H 0.33259 0.27833 0.98468 0.0
H2737 H 0.37403 0.229 0.97629 0.0
H2738 H 0.37489 0.2908 0.02376 0.0
H2739 H 0.32593 0.21103 0.95643 0.0
H2740 H 0.3734 0.24977 -0.00112 0.0
H2741 H 0.32873 0.25238 0.97845 0.0
C2742 C 0.34096 0.27561 0.99238 0.0
C2743 C 0.35424 0.28701 0.00452 0.0
C2744 C 0.36284 0.24103 0.99015 0.0
C2745 C 0.35002 0.25715 0.9968 0.0
C2746 C 0.36314 0.22904 0.97748 0.0
C2747 C 0.35008 0.21843 0.96413 0.0
C2748 C 0.34944 0.24249 0.98918 0.0
C2749 C 0.33634 0.21915 0.96615 0.0
C2750 C 0.33875 0.26071 0.9887 0.0
C2751 C 0.36472 0.28263 0.01367 0.0
N2752 N 0.33648 0.23122 0.97788 0.0
N2753 N 0.36252 0.26816 0.00929 0.0
H2754 H 0.72353 0.07703 0.03026 0.0
H2755 H 0.799 0.12253 0.98298 0.0
H2756 H 0.71095 0.07796 0.95708 0.0
H2757 H 0.77606 0.13689 0.93238 0.0
H2758 H 0.77387 0.10624 0.00246 0.0
H2759 H 0.74996 0.09826 0.02183 0.0
C2760 C 0.72625 0.0816 0.01245 0.0
C2761 C 0.71482 0.07555 0.99439 0.0
C2762 C 0.77442 0.11338 0.98762 0.0
C2763 C 0.74501 0.10002 0.9848 0.0
C2764 C 0.78878 0.12273 0.97657 0.0
C2765 C 0.78953 0.13093 0.95595 0.0
C2766 C 0.76082 0.11224 0.97777 0.0
C2767 C 0.77592 0.1306 0.9481 0.0
C2768 C 0.74135 0.09377 0.00771 0.0
C2769 C 0.71907 0.0823 0.97182 0.0
N2770 N 0.76208 0.12113 0.95867 0.0
N2771 N 0.73373 0.09413 0.96776 0.0
H2772 H 0.61935 0.91796 0.03323 0.0
H2773 H 0.67881 0.88649 0.03907 0.0
H2774 H 0.66222 0.93859 0.99352 0.0
H2775 H 0.63321 0.86339 0.0707 0.0
H2776 H 0.67174 0.90354 0.01759 0.0
H2777 H 0.62301 0.89617 0.04285 0.0
C2778 C 0.62942 0.91784 0.02614 0.0
C2779 C 0.64053 0.9303 0.01259 0.0
C2780 C 0.66316 0.89452 0.02883 0.0
C2781 C 0.64501 0.90531 0.02421 0.0
C2782 C 0.66714 0.88469 0.0409 0.0
C2783 C 0.65662 0.87364 0.05685 0.0
C2784 C 0.64859 0.8933 0.03289 0.0
C2785 C 0.64172 0.87191 0.05877 0.0
C2786 C 0.63155 0.90536 0.0318 0.0
C2787 C 0.6535 0.92946 0.00443 0.0
N2788 N 0.63824 0.88179 0.04726 0.0
N2789 N 0.65546 0.91729 0.01057 0.0
H2790 H 0.09011 0.7026 0.00379 0.0
H2791 H 0.12147 0.78936 0.04546 0.0
H2792 H 0.06327 0.72584 0.99761 0.0
H2793 H 0.15016 0.76811 0.04157 0.0
H2794 H 0.10163 0.76807 0.02127 0.0
H2795 H 0.1134 0.72768 0.01131 0.0
C2796 C 0.08912 0.71298 0.00354 0.0
C2797 C 0.07456 0.71198 0.00038 0.0
C2798 C 0.11243 0.76824 0.02514 0.0
C2799 C 0.10131 0.74088 0.00955 0.0
C2800 C 0.1238 0.78047 0.03879 0.0
C2801 C 0.13739 0.78041 0.04568 0.0
C2802 C 0.11457 0.75574 0.01868 0.0
C2803 C 0.13985 0.76862 0.03663 0.0
C2804 C 0.10247 0.72735 0.00797 0.0
C2805 C 0.07411 0.72593 0.00058 0.0
N2806 N 0.12839 0.75656 0.02406 0.0
N2807 N 0.08722 0.73974 0.00544 0.0
H2808 H 0.30137 0.39068 0.03167 0.0
H2809 H 0.20999 0.33286 0.04735 0.0
H2810 H 0.27729 0.34276 0.00793 0.0
H2811 H 0.23546 0.37852 0.07932 0.0
H2812 H 0.23326 0.33842 0.02474 0.0
H2813 H 0.27632 0.38832 0.04155 0.0
C2814 C 0.29081 0.37972 0.02817 0.0
C2815 C 0.29149 0.36685 0.01918 0.0
C2816 C 0.23366 0.34736 0.0363 0.0
C2817 C 0.26269 0.36401 0.03075 0.0
C2818 C 0.22032 0.34426 0.04898 0.0
C2819 C 0.22087 0.35522 0.06532 0.0
C2820 C 0.24761 0.36152 0.04004 0.0
C2821 C 0.23462 0.36973 0.06701 0.0
C2822 C 0.27649 0.37836 0.03394 0.0
C2823 C 0.27737 0.3529 0.01527 0.0
N2824 N 0.2475 0.37237 0.05481 0.0
N2825 N 0.26358 0.35182 0.02126 0.0
H2826 H 0.73551 0.67598 0.34474 0.0
H2827 H 0.81681 0.71192 0.41048 0.0
H2828 H 0.76338 0.72505 0.36127 0.0
H2829 H 0.79436 0.66643 0.37772 0.0
H2830 H 0.7989 0.71794 0.38923 0.0
H2831 H 0.75786 0.6729 0.35372 0.0
C2832 C 0.74637 0.68619 0.34989 0.0
C2833 C 0.74743 0.7008 0.35239 0.0
C2834 C 0.79811 0.70678 0.3862 0.0
C2835 C 0.77313 0.69723 0.36323 0.0
C2836 C 0.8084 0.7034 0.39819 0.0
C2837 C 0.80702 0.68867 0.39582 0.0
C2838 C 0.78614 0.69521 0.37213 0.0
C2839 C 0.79586 0.67796 0.37989 0.0
C2840 C 0.75916 0.68439 0.35511 0.0
C2841 C 0.76184 0.71349 0.35959 0.0
N2842 N 0.78564 0.68132 0.36901 0.0
N2843 N 0.77404 0.71137 0.365 0.0
H2844 H 0.3315 0.05588 0.33518 0.0
H2845 H 0.29531 0.10423 0.38964 0.0
H2846 H 0.28215 0.03683 0.34605 0.0
H2847 H 0.34337 0.12506 0.36875 0.0
H2848 H 0.28951 0.08053 0.36788 0.0
H2849 H 0.33553 0.08197 0.3419 0.0
C2850 C 0.32145 0.05716 0.33856 0.0
C2851 C 0.30647 0.04404 0.34038 0.0
C2852 C 0.30125 0.09039 0.36748 0.0
C2853 C 0.31107 0.07399 0.3485 0.0
C2854 C 0.30451 0.10396 0.37972 0.0
C2855 C 0.31981 0.11655 0.38089 0.0
C2856 C 0.31347 0.0893 0.35679 0.0
C2857 C 0.3314 0.1156 0.36807 0.0
C2858 C 0.32378 0.07211 0.3425 0.0
C2859 C 0.29396 0.04653 0.34507 0.0
N2860 N 0.32806 0.10207 0.35695 0.0
N2861 N 0.29657 0.06115 0.34925 0.0
H2862 H 0.95852 0.25004 0.32445 0.0
H2863 H 0.87997 0.22055 0.39769 0.0
H2864 H 0.94567 0.27977 0.36261 0.0
H2865 H 0.89759 0.19043 0.37682 0.0
H2866 H 0.90021 0.24145 0.37406 0.0
H2867 H 0.93317 0.22759 0.33422 0.0
C2868 C 0.9504 0.25193 0.33473 0.0
C2869 C 0.95447 0.26694 0.34294 0.0
C2870 C 0.89945 0.23017 0.37416 0.0
C2871 C 0.92522 0.24122 0.35364 0.0
C2872 C 0.88779 0.2182 0.38742 0.0
C2873 C 0.88721 0.20381 0.38933 0.0
C2874 C 0.91069 0.22778 0.36284 0.0
C2875 C 0.89763 0.20135 0.37575 0.0
C2876 C 0.93587 0.23909 0.34012 0.0
C2877 C 0.94318 0.26858 0.35562 0.0
N2878 N 0.90917 0.21334 0.36343 0.0
N2879 N 0.92918 0.25591 0.36071 0.0
H2880 H 0.05913 0.42799 0.3322 0.0
H2881 H 0.00336 0.45984 0.29941 0.0
H2882 H 0.01022 0.40324 0.34926 0.0
H2883 H 0.05341 0.48852 0.2998 0.0
H2884 H 0.00561 0.44067 0.32371 0.0
H2885 H 0.05762 0.45152 0.32538 0.0
C2886 C 0.0481 0.42759 0.33476 0.0
C2887 C 0.03473 0.41363 0.34098 0.0
C2888 C 0.0161 0.45136 0.31914 0.0
C2889 C 0.03284 0.44047 0.33302 0.0
C2890 C 0.0148 0.46237 0.30545 0.0
C2891 C 0.02823 0.4757 0.29749 0.0
C2892 C 0.03096 0.4536 0.32444 0.0
C2893 C 0.04277 0.4784 0.30561 0.0
C2894 C 0.04725 0.44104 0.33101 0.0
C2895 C 0.02078 0.41377 0.3444 0.0
N2896 N 0.04378 0.46725 0.31814 0.0
N2897 N 0.02012 0.42691 0.33994 0.0
H2898 H 0.58339 0.63676 0.32369 0.0
H2899 H 0.55217 0.54626 0.29954 0.0
H2900 H 0.61258 0.61583 0.32421 0.0
H2901 H 0.52971 0.57031 0.27081 0.0
H2902 H 0.57128 0.57042 0.31949 0.0
H2903 H 0.56099 0.6113 0.31371 0.0
C2904 C 0.58517 0.6269 0.32178 0.0
C2905 C 0.60008 0.62865 0.32466 0.0
C2906 C 0.56197 0.57032 0.30922 0.0
C2907 C 0.57426 0.59932 0.31398 0.0
C2908 C 0.55096 0.5565 0.29809 0.0
C2909 C 0.53939 0.55633 0.28349 0.0
C2910 C 0.56132 0.58401 0.30587 0.0
C2911 C 0.53851 0.57 0.28187 0.0
C2912 C 0.57231 0.61233 0.31629 0.0
C2913 C 0.6014 0.6152 0.32257 0.0
N2914 N 0.54942 0.58334 0.29274 0.0
N2915 N 0.58871 0.60117 0.31732 0.0
H2916 H 0.36403 0.94228 0.31994 0.0
H2917 H 0.4511 0.99829 0.28892 0.0
H2918 H 0.38944 0.98805 0.35221 0.0
H2919 H 0.43122 0.94843 0.28832 0.0
H2920 H 0.42924 0.99522 0.31313 0.0
H2921 H 0.38863 0.94427 0.30903 0.0
C2922 C 0.37471 0.95265 0.32522 0.0
C2923 C 0.37446 0.96507 0.33694 0.0
C2924 C 0.42987 0.98498 0.30823 0.0
C2925 C 0.40287 0.96756 0.32361 0.0
C2926 C 0.44235 0.98674 0.29451 0.0
C2927 C 0.44293 0.97359 0.28668 0.0
C2928 C 0.41771 0.96995 0.31358 0.0
C2929 C 0.43125 0.95886 0.29416 0.0
C2930 C 0.38882 0.95378 0.31881 0.0
C2931 C 0.38889 0.97832 0.34263 0.0
N2932 N 0.41893 0.9574 0.30677 0.0
N2933 N 0.40248 0.97932 0.33556 0.0
H2934 H 0.60856 0.99752 0.31387 0.0
H2935 H 0.51804 0.95449 0.29478 0.0
H2936 H 0.57798 0.95436 0.34957 0.0
H2937 H 0.54809 0.00344 0.28119 0.0
H2938 H 0.5389 0.95462 0.31842 0.0
H2939 H 0.58626 1.00045 0.30465 0.0
C2940 C 0.59724 0.98876 0.32024 0.0
C2941 C 0.5953 0.97557 0.33243 0.0
C2942 C 0.54079 0.96542 0.31077 0.0
C2943 C 0.5694 0.97871 0.3211 0.0
C2944 C 0.52882 0.96538 0.29746 0.0
C2945 C 0.53143 0.97893 0.28571 0.0
C2946 C 0.55547 0.97905 0.31205 0.0
C2947 C 0.5457 0.99268 0.28961 0.0
C2948 C 0.58443 0.99043 0.3148 0.0
C2949 C 0.58011 0.96452 0.3396 0.0
N2950 N 0.55729 0.99232 0.30201 0.0
N2951 N 0.56774 0.96622 0.33351 0.0
H2952 H 0.05966 0.63682 0.32874 0.0
H2953 H 0.00317 0.55116 0.28197 0.0
H2954 H 0.00957 0.61414 0.3349 0.0
H2955 H 0.05273 0.57042 0.29053 0.0
H2956 H 0.00493 0.57292 0.30511 0.0
H2957 H 0.05726 0.61185 0.31835 0.0
C2958 C 0.04815 0.62658 0.32834 0.0
C2959 C 0.03478 0.62772 0.33253 0.0
C2960 C 0.01538 0.57223 0.30239 0.0
C2961 C 0.03196 0.59899 0.32004 0.0
C2962 C 0.01436 0.55978 0.28928 0.0
C2963 C 0.02784 0.55905 0.28426 0.0
C2964 C 0.03004 0.58419 0.31019 0.0
C2965 C 0.04205 0.57051 0.29409 0.0
C2966 C 0.0468 0.61228 0.32227 0.0
C2967 C 0.0202 0.61397 0.33128 0.0
N2968 N 0.04283 0.58277 0.30621 0.0
N2969 N 0.01917 0.60024 0.32488 0.0
H2970 H 0.37694 0.42757 0.34061 0.0
H2971 H 0.46571 0.45522 0.30986 0.0
H2972 H 0.39618 0.39692 0.33801 0.0
H2973 H 0.44134 0.47755 0.28207 0.0
H2974 H 0.44252 0.43775 0.33291 0.0
H2975 H 0.40259 0.4494 0.33058 0.0
C2976 C 0.38648 0.42535 0.33807 0.0
C2977 C 0.38415 0.41017 0.33982 0.0
C2978 C 0.44242 0.44678 0.32229 0.0
C2979 C 0.41372 0.43535 0.32917 0.0
C2980 C 0.45569 0.45686 0.30944 0.0
C2981 C 0.45538 0.46784 0.29424 0.0
C2982 C 0.42884 0.4478 0.31998 0.0
C2983 C 0.44201 0.46928 0.29378 0.0
C2984 C 0.40116 0.43789 0.33257 0.0
C2985 C 0.39724 0.4083 0.33709 0.0
N2986 N 0.42918 0.45925 0.30627 0.0
N2987 N 0.41139 0.4207 0.33178 0.0
H2988 H 0.33154 0.27257 0.33235 0.0
H2989 H 0.2954 0.19028 0.39591 0.0
H2990 H 0.28554 0.24802 0.36264 0.0
H2991 H 0.34242 0.21524 0.36973 0.0
H2992 H 0.28966 0.20845 0.37524 0.0
H2993 H 0.33396 0.24937 0.33801 0.0
C2994 C 0.32185 0.26222 0.33981 0.0
C2995 C 0.30842 0.26231 0.34741 0.0
C2996 C 0.30115 0.20979 0.37351 0.0
C2997 C 0.31113 0.23578 0.35403 0.0
C2998 C 0.30436 0.19932 0.38512 0.0
C2999 C 0.31941 0.20134 0.38456 0.0
C3000 C 0.31316 0.22255 0.36157 0.0
C3001 C 0.33066 0.21328 0.37049 0.0
C3002 C 0.32325 0.249 0.34311 0.0
C3003 C 0.29625 0.24859 0.35703 0.0
N3004 N 0.32741 0.22365 0.35993 0.0
N3005 N 0.29795 0.23596 0.36027 0.0
H3006 H 0.72584 0.06003 0.34272 0.0
H3007 H 0.81497 0.10527 0.38534 0.0
H3008 H 0.75433 0.03863 0.35036 0.0
H3009 H 0.78366 0.12323 0.39419 0.0
H3010 H 0.79468 0.0832 0.36286 0.0
H3011 H 0.74849 0.08522 0.35298 0.0
C3012 C 0.73684 0.06059 0.34644 0.0
C3013 C 0.73805 0.04706 0.34595 0.0
C3014 C 0.79234 0.09212 0.36933 0.0
C3015 C 0.76413 0.076 0.3573 0.0
C3016 C 0.80399 0.10482 0.38191 0.0
C3017 C 0.80094 0.11603 0.39178 0.0
C3018 C 0.77756 0.09064 0.36657 0.0
C3019 C 0.78642 0.11475 0.38707 0.0
C3020 C 0.7498 0.07502 0.35214 0.0
C3021 C 0.75277 0.04868 0.35033 0.0
N3022 N 0.7752 0.10218 0.37505 0.0
N3023 N 0.76517 0.06283 0.356 0.0
H3024 H 0.97189 0.72455 0.35872 0.0
H3025 H 0.88111 0.66439 0.37552 0.0
H3026 H 0.94944 0.67623 0.33719 0.0
H3027 H 0.90527 0.71071 0.40545 0.0
H3028 H 0.90461 0.67034 0.35314 0.0
H3029 H 0.94641 0.72131 0.36796 0.0
C3030 C 0.96159 0.71331 0.35554 0.0
C3031 C 0.96287 0.7006 0.34739 0.0
C3032 C 0.90466 0.67932 0.36419 0.0
C3033 C 0.93358 0.69676 0.35829 0.0
C3034 C 0.89119 0.67598 0.37673 0.0
C3035 C 0.89133 0.68706 0.39241 0.0
C3036 C 0.9183 0.69384 0.36741 0.0
C3037 C 0.90476 0.70183 0.39362 0.0
C3038 C 0.94703 0.71145 0.36096 0.0
C3039 C 0.94907 0.68628 0.3439 0.0
N3040 N 0.91777 0.70473 0.38156 0.0
N3041 N 0.93502 0.68471 0.34956 0.0
H3042 H 0.4245 0.05712 0.69175 0.0
H3043 H 0.45827 0.99921 0.70229 0.0
H3044 H 0.40188 0.0108 0.66142 0.0
H3045 H 0.47642 0.0426 0.74066 0.0
H3046 H 0.44117 0.00579 0.67972 0.0
H3047 H 0.44678 0.05428 0.7025 0.0
C3048 C 0.4243 0.04643 0.68696 0.0
C3049 C 0.41118 0.03413 0.6758 0.0
C3050 C 0.44913 0.01403 0.69272 0.0
C3051 C 0.43669 0.03071 0.68848 0.0
C3052 C 0.45902 0.01036 0.70539 0.0
C3053 C 0.46868 0.02035 0.72343 0.0
C3054 C 0.44896 0.02779 0.69816 0.0
C3055 C 0.46905 0.03454 0.727 0.0
C3056 C 0.43703 0.04479 0.69326 0.0
C3057 C 0.41159 0.02049 0.67039 0.0
N3058 N 0.45919 0.03775 0.7147 0.0
N3059 N 0.42407 0.0191 0.67696 0.0
H3060 H 0.94756 0.36701 0.70027 0.0
H3061 H 0.00507 0.45859 0.7081 0.0
H3062 H 0.99331 0.39019 0.66908 0.0
H3063 H 0.95919 0.43465 0.73862 0.0
H3064 H 0.99906 0.43471 0.68639 0.0
H3065 H 0.9498 0.39232 0.70774 0.0
C3066 C 0.95804 0.37746 0.69483 0.0
C3067 C 0.97037 0.37652 0.6844 0.0
C3068 C 0.99015 0.43478 0.69736 0.0
C3069 C 0.97308 0.40562 0.69297 0.0
C3070 C 0.99353 0.44846 0.70951 0.0
C3071 C 0.98263 0.44851 0.72525 0.0
C3072 C 0.97582 0.42109 0.70112 0.0
C3073 C 0.96793 0.43503 0.72674 0.0
C3074 C 0.9593 0.39192 0.699 0.0
C3075 C 0.98355 0.3904 0.67725 0.0
N3076 N 0.96504 0.42181 0.71517 0.0
N3077 N 0.98467 0.4044 0.682 0.0
H3078 H 0.61018 0.60209 0.66571 0.0
H3079 H 0.56779 0.51687 0.72201 0.0
H3080 H 0.63368 0.57715 0.68632 0.0
H3081 H 0.54811 0.54701 0.72158 0.0
H3082 H 0.58949 0.53588 0.69798 0.0
H3083 H 0.5853 0.57933 0.67628 0.0
C3084 C 0.61016 0.59184 0.67231 0.0
C3085 C 0.62419 0.59173 0.67545 0.0
C3086 C 0.58024 0.53817 0.70269 0.0
C3087 C 0.59562 0.56547 0.68707 0.0
C3088 C 0.56776 0.52724 0.71614 0.0
C3089 C 0.55622 0.53045 0.72388 0.0
C3090 C 0.58112 0.55236 0.6969 0.0
C3091 C 0.55686 0.54418 0.71608 0.0
C3092 C 0.59591 0.57881 0.67817 0.0
C3093 C 0.62326 0.57787 0.68343 0.0
N3094 N 0.56922 0.55474 0.70327 0.0
N3095 N 0.60927 0.56538 0.68915 0.0
H3096 H 0.67198 0.72792 0.67256 0.0
H3097 H 0.71566 0.81567 0.62541 0.0
H3098 H 0.72034 0.75326 0.6523 0.0
H3099 H 0.66581 0.78543 0.62179 0.0
H3100 H 0.71784 0.79537 0.64673 0.0
H3101 H 0.67004 0.75124 0.66462 0.0
C3102 C 0.68224 0.73847 0.66682 0.0
C3103 C 0.69629 0.73866 0.6628 0.0
C3104 C 0.70639 0.79331 0.64172 0.0
C3105 C 0.6942 0.76529 0.65388 0.0
C3106 C 0.70513 0.80495 0.62982 0.0
C3107 C 0.69054 0.80216 0.62174 0.0
C3108 C 0.69297 0.77882 0.64565 0.0
C3109 C 0.67728 0.78797 0.62761 0.0
C3110 C 0.68112 0.75173 0.66223 0.0
C3111 C 0.70923 0.75259 0.65527 0.0
N3112 N 0.67882 0.77674 0.63898 0.0
N3113 N 0.70786 0.76533 0.65096 0.0
H3114 H 0.27286 0.94797 0.68892 0.0
H3115 H 0.19439 0.90237 0.61271 0.0
H3116 H 0.2519 0.96997 0.64915 0.0
H3117 H 0.21693 0.87978 0.64613 0.0
H3118 H 0.21241 0.92659 0.63328 0.0
H3119 H 0.25011 0.92254 0.67978 0.0
C3120 C 0.26347 0.9475 0.6784 0.0
C3121 C 0.26445 0.96122 0.66961 0.0
C3122 C 0.21327 0.91629 0.63652 0.0
C3123 C 0.23824 0.93209 0.65935 0.0
C3124 C 0.2029 0.90243 0.6249 0.0
C3125 C 0.20426 0.88911 0.6276 0.0
C3126 C 0.22523 0.91689 0.65076 0.0
C3127 C 0.21546 0.88979 0.64362 0.0
C3128 C 0.25043 0.93297 0.67333 0.0
C3129 C 0.25171 0.95982 0.65652 0.0
N3130 N 0.22571 0.90354 0.65428 0.0
N3131 N 0.23925 0.94556 0.65164 0.0
H3132 H 0.0385 0.28144 0.66892 0.0
H3133 H 0.12378 0.33801 0.62488 0.0
H3134 H 0.06186 0.33116 0.6811 0.0
H3135 H 0.10442 0.28836 0.63046 0.0
H3136 H 0.10264 0.33609 0.64957 0.0
H3137 H 0.06337 0.28377 0.65868 0.0
C3138 C 0.04886 0.29284 0.66992 0.0
C3139 C 0.04793 0.30615 0.67572 0.0
C3140 C 0.10321 0.32565 0.64593 0.0
C3141 C 0.07659 0.30892 0.6633 0.0
C3142 C 0.11532 0.32677 0.63196 0.0
C3143 C 0.11577 0.31331 0.62557 0.0
C3144 C 0.0913 0.31092 0.65315 0.0
C3145 C 0.10452 0.29902 0.63506 0.0
C3146 C 0.06312 0.29416 0.66392 0.0
C3147 C 0.06186 0.32061 0.67618 0.0
N3148 N 0.09255 0.29815 0.64797 0.0
N3149 N 0.07556 0.32163 0.66973 0.0
H3150 H 0.24779 0.27918 0.65968 0.0
H3151 H 0.21834 0.33711 0.62238 0.0
H3152 H 0.27529 0.32907 0.66905 0.0
H3153 H 0.18848 0.28722 0.62354 0.0
H3154 H 0.23816 0.33445 0.64449 0.0
H3155 H 0.22501 0.28173 0.65117 0.0
C3156 C 0.24902 0.29066 0.66036 0.0
C3157 C 0.2636 0.30395 0.66479 0.0
C3158 C 0.22715 0.32409 0.6404 0.0
C3159 C 0.23751 0.30697 0.65462 0.0
C3160 C 0.21582 0.32562 0.6279 0.0
C3161 C 0.20181 0.31236 0.62107 0.0
C3162 C 0.22457 0.30915 0.64575 0.0
C3163 C 0.19911 0.29774 0.62857 0.0
C3164 C 0.23598 0.29211 0.65538 0.0
C3165 C 0.26441 0.31852 0.66514 0.0
N3166 N 0.21051 0.2965 0.64012 0.0
N3167 N 0.25162 0.31965 0.65984 0.0
H3168 H 0.72544 0.97017 0.66293 0.0
H3169 H 0.66837 0.88336 0.62408 0.0
H3170 H 0.67569 0.94749 0.67367 0.0
H3171 H 0.71796 0.90252 0.6312 0.0
H3172 H 0.67048 0.90541 0.64686 0.0
H3173 H 0.72297 0.94483 0.6554 0.0
C3174 C 0.71401 0.95988 0.66413 0.0
C3175 C 0.70072 0.96111 0.66868 0.0
C3176 C 0.68086 0.90461 0.64406 0.0
C3177 C 0.6978 0.93191 0.65952 0.0
C3178 C 0.67961 0.89194 0.63127 0.0
C3179 C 0.693 0.89115 0.62586 0.0
C3180 C 0.69567 0.91674 0.65099 0.0
C3181 C 0.70735 0.90266 0.6352 0.0
C3182 C 0.71261 0.94536 0.65972 0.0
C3183 C 0.68623 0.94725 0.66961 0.0
N3184 N 0.70837 0.91518 0.64687 0.0
N3185 N 0.68513 0.93329 0.66475 0.0
H3186 H 0.03972 0.761 0.66362 0.0
H3187 H 0.1308 0.79104 0.65399 0.0
H3188 H 0.06147 0.73561 0.68992 0.0
H3189 H 0.10726 0.81133 0.61698 0.0
H3190 H 0.10687 0.77471 0.67633 0.0
H3191 H 0.06548 0.78305 0.65501 0.0
C3192 C 0.04992 0.76009 0.66774 0.0
C3193 C 0.04838 0.74629 0.67709 0.0
C3194 C 0.10706 0.78303 0.66378 0.0
C3195 C 0.07799 0.77161 0.66743 0.0
C3196 C 0.12076 0.79248 0.65128 0.0
C3197 C 0.12093 0.8025 0.63368 0.0
C3198 C 0.09349 0.78365 0.65855 0.0
C3199 C 0.10755 0.80374 0.63045 0.0
C3200 C 0.06464 0.77273 0.66294 0.0
C3201 C 0.06206 0.74598 0.68268 0.0
N3202 N 0.09431 0.79427 0.64251 0.0
N3203 N 0.07628 0.75836 0.67746 0.0
H3204 H 1.00202 0.61086 0.68365 0.0
H3205 H 0.96044 0.52412 0.72911 0.0
H3206 H 0.95197 0.58112 0.68463 0.0
H3207 H 0.00949 0.55034 0.7136 0.0
H3208 H 0.95668 0.54352 0.70804 0.0
H3209 H 0.00483 0.58809 0.69013 0.0
C3210 C 0.99159 0.59953 0.68482 0.0
C3211 C 0.97672 0.59802 0.68391 0.0
C3212 C 0.96822 0.54487 0.70866 0.0
C3213 C 0.9799 0.57182 0.69178 0.0
C3214 C 0.97032 0.53372 0.72051 0.0
C3215 C 0.98528 0.53566 0.72297 0.0
C3216 C 0.98125 0.55824 0.69971 0.0
C3217 C 0.99776 0.54839 0.71186 0.0
C3218 C 0.99323 0.5865 0.68862 0.0
C3219 C 0.96369 0.58297 0.68583 0.0
N3220 N 0.99553 0.55939 0.70112 0.0
N3221 N 0.96559 0.57053 0.68997 0.0
H3222 H 0.39757 0.39041 0.67049 0.0
H3223 H 0.48463 0.43338 0.72171 0.0
H3224 H 0.42505 0.36809 0.67998 0.0
H3225 H 0.45387 0.4523 0.72507 0.0
H3226 H 0.46541 0.41199 0.6968 0.0
H3227 H 0.42031 0.41534 0.68146 0.0
C3228 C 0.4084 0.39075 0.67471 0.0
C3229 C 0.40928 0.37704 0.6747 0.0
C3230 C 0.46301 0.421 0.70256 0.0
C3231 C 0.43545 0.40563 0.68707 0.0
C3232 C 0.47405 0.4333 0.71655 0.0
C3233 C 0.47074 0.44452 0.72557 0.0
C3234 C 0.44861 0.41998 0.69759 0.0
C3235 C 0.45677 0.44378 0.71861 0.0
C3236 C 0.42142 0.40501 0.68085 0.0
C3237 C 0.42378 0.37831 0.67971 0.0
N3238 N 0.44613 0.4316 0.70529 0.0
N3239 N 0.43623 0.39231 0.68597 0.0
H3240 H 0.61511 0.0137 0.66626 0.0
H3241 H 0.56769 0.04481 0.74062 0.0
H3242 H 0.63615 0.0567 0.70631 0.0
H3243 H 0.5461 0.99965 0.70683 0.0
H3244 H 0.59212 0.05166 0.72064 0.0
H3245 H 0.58934 0.01048 0.6741 0.0
C3246 C 0.61433 0.02258 0.6764 0.0
C3247 C 0.6278 0.03538 0.68593 0.0
C3248 C 0.58198 0.04035 0.71716 0.0
C3249 C 0.59836 0.03176 0.69501 0.0
C3250 C 0.56801 0.03651 0.7284 0.0
C3251 C 0.55491 0.02163 0.72543 0.0
C3252 C 0.58295 0.02917 0.70305 0.0
C3253 C 0.55593 0.01127 0.70949 0.0
C3254 C 0.59961 0.02071 0.68094 0.0
C3255 C 0.62607 0.04648 0.69903 0.0
N3256 N 0.5698 0.01513 0.69921 0.0
N3257 N 0.61165 0.04435 0.70332 0.0
loop_
_geom_bond_atom_site_label_1
_geom_bond_atom_site_label_2
_geom_bond_distance
_geom_bond_site_symmetry_2
_ccdc_geom_bond_type
Li0 N17 1.990 . S
Li0 O60 1.956 . S
Li0 O61 1.970 1_654 S
Li0 O62 1.961 . S
Li1 N25 1.990 . S
Li1 O60 1.970 1_455 S
Li1 O61 1.956 1_554 S
Li1 O63 1.961 . S
Li2 N47 1.990 . S
Li2 O60 1.961 . S
Li2 O62 1.956 . S
Li2 O63 1.970 1_655 S
Li3 N53 1.990 . S
Li3 O61 1.961 . S
Li3 O62 1.970 1_456 S
Li3 O63 1.956 1_556 S
C4 C6 1.348 1_655 S
C4 C7 1.356 . S
C4 O60 1.325 . S
N5 C8 1.314 . S
N5 C9 1.279 . S
C6 C4 1.348 1_455 S
C6 C8 1.353 1_455 S
C6 H64 0.929 . S
C7 C4 1.356 . S
C7 C9 1.358 . S
C7 H65 0.930 . S
C8 N5 1.314 . S
C8 C6 1.353 1_655 S
C8 H66 0.930 1_655 S
C9 N5 1.279 . S
C9 C7 1.358 . S
C9 H67 0.930 . S
C10 C13 1.349 1_455 S
C10 C14 1.356 . S
C10 O61 1.325 . S
C11 N12 1.279 . S
C11 C14 1.358 . S
C11 H68 0.930 . S
N12 C11 1.279 . S
N12 C15 1.314 . S
C13 C10 1.349 1_655 S
C13 C15 1.323 1_655 S
C13 H69 0.962 . S
C14 C10 1.356 . S
C14 C11 1.358 . S
C14 H70 0.930 . S
C15 N12 1.314 . S
C15 C13 1.323 1_455 S
C15 H71 0.930 1_455 S
C16 N17 1.314 1_556 S
C16 C21 1.353 . S
C16 H22 0.930 . S
N17 Li0 1.990 . S
N17 C16 1.314 1_554 S
N17 C19 1.279 . S
C18 C19 1.358 . S
C18 C20 1.356 1_554 S
C18 H72 0.930 . S
C19 N17 1.279 . S
C19 C18 1.358 . S
C19 H23 0.930 . S
C20 C18 1.356 1_556 S
C20 C21 1.348 . S
C21 C16 1.353 . S
C21 C20 1.348 . S
C21 H73 0.929 . S
H22 C16 0.930 . S
H23 C19 0.930 . S
C24 N25 1.314 . S
C24 C26 1.353 . S
C24 H30 0.930 . S
N25 Li1 1.990 . S
N25 C24 1.314 . S
N25 C28 1.279 . S
C26 C24 1.353 . S
C26 C29 1.348 . S
C26 H74 0.929 . S
C27 C28 1.358 . S
C27 C29 1.356 . S
C27 H75 0.930 . S
C28 N25 1.279 . S
C28 C27 1.358 . S
C28 H31 0.930 1_554 S
C29 C26 1.348 . S
C29 C27 1.356 . S
H30 C24 0.930 . S
H31 C28 0.930 1_556 S
C32 C34 1.323 1_554 S
C32 C35 1.377 . S
C32 O62 1.332 . S
N33 C36 1.314 . S
N33 C37 1.279 1_556 S
C34 C32 1.323 1_556 S
C34 C36 1.353 . S
C34 H76 0.929 . S
C35 C32 1.377 . S
C35 C37 1.358 . S
C35 H77 0.930 . S
C36 N33 1.314 . S
C36 C34 1.353 . S
C36 H78 0.930 . S
C37 N33 1.279 1_554 S
C37 C35 1.358 . S
C37 H79 0.930 . S
C38 C39 1.348 . S
C38 C40 1.356 . S
C38 O63 1.325 . S
C39 C38 1.348 . S
C39 C41 1.353 . S
C39 H80 0.929 . S
C40 C38 1.356 . S
C40 C42 1.358 . S
C40 H81 0.927 . S
C41 C39 1.353 . S
C41 N43 1.314 . S
C41 H82 0.930 . S
C42 C40 1.358 . S
C42 N43 1.279 . S
C42 H83 0.930 . S
N43 C41 1.314 . S
N43 C42 1.279 . S
C44 C46 1.353 . S
C44 N47 1.314 . S
C44 H50 0.930 1_655 S
C45 N47 1.279 . S
C45 C48 1.358 . S
C45 H51 0.930 . S
C46 C44 1.353 . S
C46 C49 1.348 . S
C46 H84 0.928 1_655 S
N47 Li2 1.990 . S
N47 C44 1.314 . S
N47 C45 1.279 . S
C48 C45 1.358 . S
C48 C49 1.356 . S
C48 H85 0.930 . S
C49 C46 1.348 . S
C49 C48 1.356 . S
H50 C44 0.930 1_455 S
H51 C45 0.930 . S
C52 N53 1.314 . S
C52 C54 1.353 . S
C52 H58 0.930 1_455 S
N53 Li3 1.990 . S
N53 C52 1.314 . S
N53 C56 1.279 . S
C54 C52 1.353 . S
C54 C57 1.348 . S
C54 H86 0.949 . S
C55 C56 1.358 . S
C55 C57 1.356 . S
C55 H87 0.930 . S
C56 N53 1.279 . S
C56 C55 1.358 . S
C56 H59 0.930 . S
C57 C54 1.348 . S
C57 C55 1.356 . S
H58 C52 0.930 1_655 S
H59 C56 0.930 . S
O60 Li0 1.956 . S
O60 Li1 1.970 1_655 S
O60 Li2 1.961 . S
O60 C4 1.325 . S
O61 Li0 1.970 1_456 S
O61 Li1 1.956 1_556 S
O61 Li3 1.961 . S
O61 C10 1.325 . S
O62 Li0 1.961 . S
O62 Li2 1.956 . S
O62 Li3 1.970 1_654 S
O62 C32 1.332 . S
O63 Li1 1.961 . S
O63 Li2 1.970 1_455 S
O63 Li3 1.956 1_554 S
O63 C38 1.325 . S
H64 C6 0.929 . S
H65 C7 0.930 . S
H66 C8 0.930 1_455 S
H67 C9 0.930 . S
H68 C11 0.930 . S
H69 C13 0.962 . S
H70 C14 0.930 . S
H71 C15 0.930 1_655 S
H72 C18 0.930 . S
H73 C21 0.929 . S
H74 C26 0.929 . S
H75 C27 0.930 . S
H76 C34 0.929 . S
H77 C35 0.930 . S
H78 C36 0.930 . S
H79 C37 0.930 . S
H80 C39 0.929 . S
H81 C40 0.927 . S
H82 C41 0.930 . S
H83 C42 0.930 . S
H84 C46 0.928 1_455 S
H85 C48 0.930 . S
H86 C54 0.949 . S
H87 C55 0.930 . S
Li88 N105 1.990 1_554 S
Li88 O148 1.956 . S
Li88 O149 1.970 1_554 S
Li88 O150 1.961 . S
Li89 N113 1.990 . S
Li89 O148 1.970 . S
Li89 O149 1.956 1_554 S
Li89 O151 1.961 . S
Li90 N135 1.990 . S
Li90 O148 1.961 . S
Li90 O150 1.956 . S
Li90 O151 1.970 . S
Li91 N141 1.990 . S
Li91 O149 1.961 . S
Li91 O150 1.970 1_556 S
Li91 O151 1.956 1_556 S
C92 C94 1.348 . S
C92 C95 1.356 . S
C92 O148 1.325 . S
N93 C96 1.314 . S
N93 C97 1.279 . S
C94 C92 1.348 . S
C94 C96 1.353 . S
C94 H152 0.929 . S
C95 C92 1.356 . S
C95 C97 1.358 . S
C95 H153 0.930 . S
C96 N93 1.314 . S
C96 C94 1.353 . S
C96 H154 0.930 . S
C97 N93 1.279 . S
C97 C95 1.358 . S
C97 H155 0.930 . S
C98 C101 1.348 . S
C98 C102 1.356 . S
C98 O149 1.325 . S
C99 N100 1.279 . S
C99 C102 1.358 . S
C99 H156 0.930 . S
N100 C99 1.279 . S
N100 C103 1.314 . S
C101 C98 1.348 . S
C101 C103 1.353 . S
C101 H157 0.929 . S
C102 C98 1.356 . S
C102 C99 1.358 . S
C102 H158 0.930 . S
C103 N100 1.314 . S
C103 C101 1.353 . S
C103 H159 0.930 . S
C104 N105 1.314 . S
C104 C109 1.353 . S
C104 H110 0.930 . S
N105 Li88 1.990 1_556 S
N105 C104 1.314 . S
N105 C107 1.279 1_556 S
C106 C107 1.358 . S
C106 C108 1.356 1_554 S
C106 H160 0.930 . S
C107 N105 1.279 1_554 S
C107 C106 1.358 . S
C107 H111 0.930 . S
C108 C106 1.356 1_556 S
C108 C109 1.348 . S
C109 C104 1.353 . S
C109 C108 1.348 . S
C109 H161 0.929 . S
H110 C104 0.930 . S
H111 C107 0.930 . S
C112 N113 1.314 . S
C112 C114 1.353 . S
C112 H118 0.930 . S
N113 Li89 1.990 . S
N113 C112 1.314 . S
N113 C116 1.279 . S
C114 C112 1.353 . S
C114 C117 1.348 . S
C114 H162 0.929 . S
C115 C116 1.358 . S
C115 C117 1.356 . S
C115 H163 0.930 . S
C116 N113 1.279 . S
C116 C115 1.358 . S
C116 H119 0.930 1_554 S
C117 C114 1.348 . S
C117 C115 1.356 . S
H118 C112 0.930 . S
H119 C116 0.930 1_556 S
C120 C122 1.348 . S
C120 C123 1.356 1_556 S
C120 O150 1.325 1_556 S
N121 C124 1.314 . S
N121 C125 1.279 1_556 S
C122 C120 1.348 . S
C122 C124 1.353 . S
C122 H164 0.929 . S
C123 C120 1.356 1_554 S
C123 C125 1.358 . S
C123 H165 0.930 . S
C124 N121 1.314 . S
C124 C122 1.353 . S
C124 H166 0.930 . S
C125 N121 1.279 1_554 S
C125 C123 1.358 . S
C125 H167 0.930 . S
C126 C127 1.348 . S
C126 C128 1.356 . S
C126 O151 1.325 . S
C127 C126 1.348 . S
C127 C129 1.353 . S
C127 H168 0.929 . S
C128 C126 1.356 . S
C128 C130 1.358 . S
C128 H169 0.930 . S
C129 C127 1.353 . S
C129 N131 1.314 . S
C129 H170 0.930 . S
C130 C128 1.358 . S
C130 N131 1.279 . S
C130 H171 0.930 . S
N131 C129 1.314 . S
N131 C130 1.279 . S
C132 C134 1.353 . S
C132 N135 1.314 . S
C132 H138 0.930 . S
C133 N135 1.279 . S
C133 C136 1.358 . S
C133 H139 0.930 . S
C134 C132 1.353 . S
C134 C137 1.348 . S
C134 H172 0.929 . S
N135 Li90 1.990 . S
N135 C132 1.314 . S
N135 C133 1.279 . S
C136 C133 1.358 . S
C136 C137 1.356 . S
C136 H173 0.930 . S
C137 C134 1.348 . S
C137 C136 1.356 . S
H138 C132 0.930 . S
H139 C133 0.930 . S
C140 N141 1.314 . S
C140 C142 1.353 . S
C140 H146 0.930 . S
N141 Li91 1.990 . S
N141 C140 1.314 . S
N141 C144 1.279 . S
C142 C140 1.353 . S
C142 C145 1.348 . S
C142 H174 0.929 . S
C143 C144 1.358 . S
C143 C145 1.356 . S
C143 H175 0.930 . S
C144 N141 1.279 . S
C144 C143 1.358 . S
C144 H147 0.930 . S
C145 C142 1.348 . S
C145 C143 1.356 . S
H146 C140 0.930 . S
H147 C144 0.930 . S
O148 Li88 1.956 . S
O148 Li89 1.970 . S
O148 Li90 1.961 . S
O148 C92 1.325 . S
O149 Li88 1.970 1_556 S
O149 Li89 1.956 1_556 S
O149 Li91 1.961 . S
O149 C98 1.325 . S
O150 Li88 1.961 . S
O150 Li90 1.956 . S
O150 Li91 1.970 1_554 S
O150 C120 1.325 1_554 S
O151 Li89 1.961 . S
O151 Li90 1.970 . S
O151 Li91 1.956 1_554 S
O151 C126 1.325 . S
H152 C94 0.929 . S
H153 C95 0.930 . S
H154 C96 0.930 . S
H155 C97 0.930 . S
H156 C99 0.930 . S
H157 C101 0.929 . S
H158 C102 0.930 . S
H159 C103 0.930 . S
H160 C106 0.930 . S
H161 C109 0.929 . S
H162 C114 0.929 . S
H163 C115 0.930 . S
H164 C122 0.929 . S
H165 C123 0.930 . S
H166 C124 0.930 . S
H167 C125 0.930 . S
H168 C127 0.929 . S
H169 C128 0.930 . S
H170 C129 0.930 . S
H171 C130 0.930 . S
H172 C134 0.929 . S
H173 C136 0.930 . S
H174 C142 0.929 . S
H175 C143 0.930 . S
Li176 N193 1.990 . S
Li176 O236 1.956 1_556 S
Li176 O237 1.970 1_566 S
Li176 O238 1.961 . S
Li177 N201 1.990 . S
Li177 O236 1.970 1_545 S
Li177 O237 1.956 . S
Li177 O239 1.961 . S
Li178 N223 1.990 . S
Li178 O236 1.961 . S
Li178 O238 1.956 1_554 S
Li178 O239 1.970 1_565 S
Li179 N229 1.990 . S
Li179 O237 1.961 . S
Li179 O238 1.970 1_544 S
Li179 O239 1.956 . S
C180 C182 1.348 . S
C180 C183 1.356 . S
C180 O236 1.325 . S
N181 C184 1.314 . S
N181 C185 1.279 . S
C182 C180 1.348 . S
C182 C184 1.353 . S
C182 H240 0.929 . S
C183 C180 1.356 . S
C183 C185 1.358 . S
C183 H241 0.930 1_554 S
C184 N181 1.314 . S
C184 C182 1.353 . S
C184 H242 0.930 . S
C185 N181 1.279 . S
C185 C183 1.358 . S
C185 H243 0.930 . S
C186 C189 1.339 1_554 S
C186 C190 1.363 . S
C186 O237 1.327 . S
C187 N188 1.279 1_554 S
C187 C190 1.358 . S
C187 H244 0.930 . S
N188 C187 1.279 1_556 S
N188 C191 1.314 . S
C189 C186 1.339 1_556 S
C189 C191 1.353 . S
C189 H245 0.929 . S
C190 C186 1.363 . S
C190 C187 1.358 . S
C190 H246 0.930 . S
C191 N188 1.314 . S
C191 C189 1.353 . S
C191 H247 0.930 . S
C192 N193 1.314 . S
C192 C197 1.353 . S
C192 H198 0.930 1_565 S
N193 Li176 1.990 . S
N193 C192 1.314 . S
N193 C195 1.279 . S
C194 C195 1.358 . S
C194 C196 1.356 . S
C194 H248 0.930 . S
C195 N193 1.279 . S
C195 C194 1.358 . S
C195 H199 0.930 . S
C196 C194 1.356 . S
C196 C197 1.348 . S
C197 C192 1.353 . S
C197 C196 1.348 . S
C197 H249 0.939 . S
H198 C192 0.930 1_545 S
H199 C195 0.930 . S
C200 N201 1.314 . S
C200 C202 1.353 . S
C200 H206 0.930 1_545 S
N201 Li177 1.990 . S
N201 C200 1.314 . S
N201 C204 1.279 . S
C202 C200 1.353 . S
C202 C205 1.348 . S
C202 H250 0.929 . S
C203 C204 1.358 . S
C203 C205 1.356 . S
C203 H251 0.930 . S
C204 N201 1.279 . S
C204 C203 1.358 . S
C204 H207 0.930 . S
C205 C202 1.348 . S
C205 C203 1.356 . S
H206 C200 0.930 1_565 S
H207 C204 0.930 . S
C208 C210 1.348 1_565 S
C208 C211 1.356 . S
C208 O238 1.325 . S
N209 C212 1.314 . S
N209 C213 1.279 . S
C210 C208 1.348 1_545 S
C210 C212 1.353 1_545 S
C210 H252 0.929 . S
C211 C208 1.356 . S
C211 C213 1.358 . S
C211 H253 0.930 . S
C212 N209 1.314 . S
C212 C210 1.353 1_565 S
C212 H254 0.930 1_565 S
C213 N209 1.279 . S
C213 C211 1.358 . S
C213 H255 0.930 . S
C214 C215 1.348 1_545 S
C214 C216 1.356 . S
C214 O239 1.325 . S
C215 C214 1.348 1_565 S
C215 C217 1.341 1_565 S
C215 H256 0.942 . S
C216 C214 1.356 . S
C216 C218 1.358 . S
C216 H257 0.930 . S
C217 C215 1.341 1_545 S
C217 N219 1.314 . S
C217 H258 0.930 1_545 S
C218 C216 1.358 . S
C218 N219 1.279 . S
C218 H259 0.930 . S
N219 C217 1.314 . S
N219 C218 1.279 . S
C220 C222 1.353 . S
C220 N223 1.314 . S
C220 H226 0.930 . S
C221 N223 1.279 . S
C221 C224 1.358 . S
C221 H227 0.930 1_554 S
C222 C220 1.353 . S
C222 C225 1.348 . S
C222 H260 0.929 . S
N223 Li178 1.990 . S
N223 C220 1.314 . S
N223 C221 1.279 . S
C224 C221 1.358 . S
C224 C225 1.356 . S
C224 H261 0.930 . S
C225 C222 1.348 . S
C225 C224 1.356 . S
H226 C220 0.930 . S
H227 C221 0.930 1_556 S
C228 N229 1.314 1_556 S
C228 C230 1.353 . S
C228 H234 0.930 . S
N229 Li179 1.990 . S
N229 C228 1.314 1_554 S
N229 C232 1.279 . S
C230 C228 1.353 . S
C230 C233 1.348 . S
C230 H262 0.929 . S
C231 C232 1.358 . S
C231 C233 1.356 1_554 S
C231 H263 0.930 . S
C232 N229 1.279 . S
C232 C231 1.358 . S
C232 H235 0.930 . S
C233 C230 1.348 . S
C233 C231 1.356 1_556 S
H234 C228 0.930 . S
H235 C232 0.930 . S
O236 Li176 1.956 1_554 S
O236 Li177 1.970 1_565 S
O236 Li178 1.961 . S
O236 C180 1.325 . S
O237 Li176 1.970 1_544 S
O237 Li177 1.956 . S
O237 Li179 1.961 . S
O237 C186 1.327 . S
O238 Li176 1.961 . S
O238 Li178 1.956 1_556 S
O238 Li179 1.970 1_566 S
O238 C208 1.325 . S
O239 Li177 1.961 . S
O239 Li178 1.970 1_545 S
O239 Li179 1.956 . S
O239 C214 1.325 . S
H240 C182 0.929 . S
H241 C183 0.930 1_556 S
H242 C184 0.930 . S
H243 C185 0.930 . S
H244 C187 0.930 . S
H245 C189 0.929 . S
H246 C190 0.930 . S
H247 C191 0.930 . S
H248 C194 0.930 . S
H249 C197 0.939 . S
H250 C202 0.929 . S
H251 C203 0.930 . S
H252 C210 0.929 . S
H253 C211 0.930 . S
H254 C212 0.930 1_545 S
H255 C213 0.930 . S
H256 C215 0.942 . S
H257 C216 0.930 . S
H258 C217 0.930 1_565 S
H259 C218 0.930 . S
H260 C222 0.929 . S
H261 C224 0.930 . S
H262 C230 0.929 . S
H263 C231 0.930 . S
Li264 N281 1.990 . S
Li264 O324 1.956 . S
Li264 O325 1.970 1_455 S
Li264 O326 1.961 1_554 S
Li265 N289 1.990 . S
Li265 O324 1.970 1_655 S
Li265 O325 1.956 . S
Li265 O327 1.961 . S
Li266 N311 1.990 . S
Li266 O324 1.961 1_556 S
Li266 O326 1.956 . S
Li266 O327 1.970 1_456 S
Li267 N317 1.990 1_554 S
Li267 O325 1.961 . S
Li267 O326 1.970 1_654 S
Li267 O327 1.956 . S
C268 C270 1.348 . S
C268 C271 1.356 . S
C268 O324 1.325 . S
N269 C272 1.314 . S
N269 C273 1.279 . S
C270 C268 1.348 . S
C270 C272 1.353 . S
C270 H328 0.929 . S
C271 C268 1.356 . S
C271 C273 1.358 . S
C271 H329 0.930 1_554 S
C272 N269 1.314 . S
C272 C270 1.353 . S
C272 H330 0.930 . S
C273 N269 1.279 . S
C273 C271 1.358 . S
C273 H331 0.930 1_554 S
C274 C277 1.348 1_655 S
C274 C278 1.356 . S
C274 O325 1.325 . S
C275 N276 1.279 . S
C275 C278 1.358 . S
C275 H332 0.930 . S
N276 C275 1.279 . S
N276 C279 1.249 1_655 S
C277 C274 1.348 1_455 S
C277 C279 1.392 . S
C277 H333 0.929 . S
C278 C274 1.356 . S
C278 C275 1.358 . S
C278 H334 0.930 . S
C279 N276 1.249 1_455 S
C279 C277 1.392 . S
C279 H335 0.964 . S
C280 N281 1.314 . S
C280 C285 1.353 . S
C280 H286 0.930 . S
N281 Li264 1.990 . S
N281 C280 1.314 . S
N281 C283 1.279 . S
C282 C283 1.358 . S
C282 C284 1.356 . S
C282 H336 0.930 . S
C283 N281 1.279 . S
C283 C282 1.358 . S
C283 H287 0.930 . S
C284 C282 1.356 . S
C284 C285 1.348 . S
C285 C280 1.353 . S
C285 C284 1.348 . S
C285 H337 0.929 . S
H286 C280 0.930 . S
H287 C283 0.930 . S
C288 N289 1.314 . S
C288 C290 1.353 . S
C288 H294 0.930 . S
N289 Li265 1.990 . S
N289 C288 1.314 . S
N289 C292 1.279 . S
C290 C288 1.353 . S
C290 C293 1.348 . S
C290 H338 0.929 . S
C291 C292 1.358 . S
C291 C293 1.356 . S
C291 H339 0.930 . S
C292 N289 1.279 . S
C292 C291 1.358 . S
C292 H295 0.930 . S
C293 C290 1.348 . S
C293 C291 1.356 . S
H294 C288 0.930 . S
H295 C292 0.930 . S
C296 C298 1.348 1_455 S
C296 C299 1.356 . S
C296 O326 1.325 . S
N297 C300 1.262 1_455 S
N297 C301 1.279 . S
C298 C296 1.348 1_655 S
C298 C300 1.351 . S
C298 H340 0.929 . S
C299 C296 1.356 . S
C299 C301 1.358 . S
C299 H341 0.930 . S
C300 N297 1.262 1_655 S
C300 C298 1.351 . S
C300 H342 0.995 . S
C301 N297 1.279 . S
C301 C299 1.358 . S
C301 H343 0.930 . S
C302 C303 1.348 . S
C302 C304 1.356 1_556 S
C302 O327 1.325 1_556 S
C303 C302 1.348 . S
C303 C305 1.353 . S
C303 H344 0.929 . S
C304 C302 1.356 1_554 S
C304 C306 1.358 . S
C304 H345 0.930 . S
C305 C303 1.353 . S
C305 N307 1.314 . S
C305 H346 0.930 . S
C306 C304 1.358 . S
C306 N307 1.279 1_554 S
C306 H347 0.930 . S
N307 C305 1.314 . S
N307 C306 1.279 1_556 S
C308 C310 1.353 . S
C308 N311 1.314 . S
C308 H314 0.930 . S
C309 N311 1.279 . S
C309 C312 1.358 . S
C309 H315 0.930 . S
C310 C308 1.353 . S
C310 C313 1.348 . S
C310 H348 0.929 . S
N311 Li266 1.990 . S
N311 C308 1.314 . S
N311 C309 1.279 . S
C312 C309 1.358 . S
C312 C313 1.356 . S
C312 H349 0.930 . S
C313 C310 1.348 . S
C313 C312 1.356 . S
H314 C308 0.930 . S
H315 C309 0.930 . S
C316 N317 1.314 1_554 S
C316 C318 1.353 1_554 S
C316 H322 0.930 . S
N317 Li267 1.990 1_556 S
N317 C316 1.314 1_556 S
N317 C320 1.279 . S
C318 C316 1.353 1_556 S
C318 C321 1.348 . S
C318 H350 0.929 1_556 S
C319 C320 1.358 . S
C319 C321 1.356 . S
C319 H351 0.930 . S
C320 N317 1.279 . S
C320 C319 1.358 . S
C320 H323 0.930 . S
C321 C318 1.348 . S
C321 C319 1.356 . S
H322 C316 0.930 . S
H323 C320 0.930 . S
O324 Li264 1.956 . S
O324 Li265 1.970 1_455 S
O324 Li266 1.961 1_554 S
O324 C268 1.325 . S
O325 Li264 1.970 1_655 S
O325 Li265 1.956 . S
O325 Li267 1.961 . S
O325 C274 1.325 . S
O326 Li264 1.961 1_556 S
O326 Li266 1.956 . S
O326 Li267 1.970 1_456 S
O326 C296 1.325 . S
O327 Li265 1.961 . S
O327 Li266 1.970 1_654 S
O327 Li267 1.956 . S
O327 C302 1.325 1_554 S
H328 C270 0.929 . S
H329 C271 0.930 1_556 S
H330 C272 0.930 . S
H331 C273 0.930 1_556 S
H332 C275 0.930 . S
H333 C277 0.929 . S
H334 C278 0.930 . S
H335 C279 0.964 . S
H336 C282 0.930 . S
H337 C285 0.929 . S
H338 C290 0.929 . S
H339 C291 0.930 . S
H340 C298 0.929 . S
H341 C299 0.930 . S
H342 C300 0.995 . S
H343 C301 0.930 . S
H344 C303 0.929 . S
H345 C304 0.930 . S
H346 C305 0.930 . S
H347 C306 0.930 . S
H348 C310 0.929 . S
H349 C312 0.930 . S
H350 C318 0.929 1_554 S
H351 C319 0.930 . S
Li352 N369 1.990 . S
Li352 O412 1.956 . S
Li352 O413 1.970 . S
Li352 O414 1.961 1_554 S
Li353 N377 1.990 . S
Li353 O412 1.970 . S
Li353 O413 1.956 . S
Li353 O415 1.961 . S
Li354 N399 1.990 . S
Li354 O412 1.961 1_556 S
Li354 O414 1.956 . S
Li354 O415 1.970 1_556 S
Li355 N405 1.990 1_554 S
Li355 O413 1.961 . S
Li355 O414 1.970 1_554 S
Li355 O415 1.956 . S
C356 C358 1.348 . S
C356 C359 1.356 . S
C356 O412 1.325 . S
N357 C360 1.314 . S
N357 C361 1.279 . S
C358 C356 1.348 . S
C358 C360 1.353 . S
C358 H416 0.929 . S
C359 C356 1.356 . S
C359 C361 1.358 . S
C359 H417 0.930 1_554 S
C360 N357 1.314 . S
C360 C358 1.353 . S
C360 H418 0.930 . S
C361 N357 1.279 . S
C361 C359 1.358 . S
C361 H419 0.930 . S
C362 C365 1.348 . S
C362 C366 1.356 . S
C362 O413 1.325 . S
C363 N364 1.279 . S
C363 C366 1.358 . S
C363 H420 0.930 . S
N364 C363 1.279 . S
N364 C367 1.314 . S
C365 C362 1.348 . S
C365 C367 1.353 . S
C365 H421 0.929 . S
C366 C362 1.356 . S
C366 C363 1.358 . S
C366 H422 0.930 . S
C367 N364 1.314 . S
C367 C365 1.353 . S
C367 H423 0.930 . S
C368 N369 1.314 . S
C368 C373 1.353 . S
C368 H374 0.930 . S
N369 Li352 1.990 . S
N369 C368 1.314 . S
N369 C371 1.279 . S
C370 C371 1.358 . S
C370 C372 1.356 . S
C370 H424 0.930 . S
C371 N369 1.279 . S
C371 C370 1.358 . S
C371 H375 0.930 . S
C372 C370 1.356 . S
C372 C373 1.348 . S
C373 C368 1.353 . S
C373 C372 1.348 . S
C373 H425 0.929 . S
H374 C368 0.930 . S
H375 C371 0.930 . S
C376 N377 1.314 . S
C376 C378 1.353 . S
C376 H382 0.930 . S
N377 Li353 1.990 . S
N377 C376 1.314 . S
N377 C380 1.279 . S
C378 C376 1.353 . S
C378 C381 1.348 . S
C378 H426 0.929 . S
C379 C380 1.358 . S
C379 C381 1.356 . S
C379 H427 0.930 . S
C380 N377 1.279 . S
C380 C379 1.358 . S
C380 H383 0.930 . S
C381 C378 1.348 . S
C381 C379 1.356 . S
H382 C376 0.930 . S
H383 C380 0.930 . S
C384 C386 1.348 . S
C384 C387 1.356 . S
C384 O414 1.325 . S
N385 C388 1.314 . S
N385 C389 1.279 . S
C386 C384 1.348 . S
C386 C388 1.353 . S
C386 H428 0.929 . S
C387 C384 1.356 . S
C387 C389 1.358 . S
C387 H429 0.930 . S
C388 N385 1.314 . S
C388 C386 1.353 . S
C388 H430 0.930 . S
C389 N385 1.279 . S
C389 C387 1.358 . S
C389 H431 0.930 . S
C390 C391 1.348 . S
C390 C392 1.356 1_556 S
C390 O415 1.325 1_556 S
C391 C390 1.348 . S
C391 C393 1.353 . S
C391 H432 0.929 . S
C392 C390 1.356 1_554 S
C392 C394 1.358 . S
C392 H433 0.930 . S
C393 C391 1.353 . S
C393 N395 1.314 . S
C393 H434 0.930 . S
C394 C392 1.358 . S
C394 N395 1.279 1_554 S
C394 H435 0.930 . S
N395 C393 1.314 . S
N395 C394 1.279 1_556 S
C396 C398 1.353 . S
C396 N399 1.314 . S
C396 H402 0.930 . S
C397 N399 1.279 . S
C397 C400 1.358 . S
C397 H403 0.930 . S
C398 C396 1.353 . S
C398 C401 1.348 . S
C398 H436 0.929 . S
N399 Li354 1.990 . S
N399 C396 1.314 . S
N399 C397 1.279 . S
C400 C397 1.358 . S
C400 C401 1.356 . S
C400 H437 0.930 . S
C401 C398 1.348 . S
C401 C400 1.356 . S
H402 C396 0.930 . S
H403 C397 0.930 . S
C404 N405 1.305 1_554 S
C404 C406 1.344 1_554 S
C404 H410 0.952 . S
N405 Li355 1.990 1_556 S
N405 C404 1.305 1_556 S
N405 C408 1.279 . S
C406 C404 1.344 1_556 S
C406 C409 1.348 . S
C406 H438 0.918 1_556 S
C407 C408 1.358 . S
C407 C409 1.356 . S
C407 H439 0.930 . S
C408 N405 1.279 . S
C408 C407 1.358 . S
C408 H411 0.930 . S
C409 C406 1.348 . S
C409 C407 1.356 . S
H410 C404 0.952 . S
H411 C408 0.930 . S
O412 Li352 1.956 . S
O412 Li353 1.970 . S
O412 Li354 1.961 1_554 S
O412 C356 1.325 . S
O413 Li352 1.970 . S
O413 Li353 1.956 . S
O413 Li355 1.961 . S
O413 C362 1.325 . S
O414 Li352 1.961 1_556 S
O414 Li354 1.956 . S
O414 Li355 1.970 1_556 S
O414 C384 1.325 . S
O415 Li353 1.961 . S
O415 Li354 1.970 1_554 S
O415 Li355 1.956 . S
O415 C390 1.325 1_554 S
H416 C358 0.929 . S
H417 C359 0.930 1_556 S
H418 C360 0.930 . S
H419 C361 0.930 . S
H420 C363 0.930 . S
H421 C365 0.929 . S
H422 C366 0.930 . S
H423 C367 0.930 . S
H424 C370 0.930 . S
H425 C373 0.929 . S
H426 C378 0.929 . S
H427 C379 0.930 . S
H428 C386 0.929 . S
H429 C387 0.930 . S
H430 C388 0.930 . S
H431 C389 0.930 . S
H432 C391 0.929 . S
H433 C392 0.930 . S
H434 C393 0.930 . S
H435 C394 0.930 . S
H436 C398 0.929 . S
H437 C400 0.930 . S
H438 C406 0.918 1_554 S
H439 C407 0.930 . S
Li440 N457 1.990 . S
Li440 O500 1.956 . S
Li440 O501 1.970 1_565 S
Li440 O502 1.961 1_554 S
Li441 N465 1.990 . S
Li441 O500 1.970 1_545 S
Li441 O501 1.956 . S
Li441 O503 1.961 . S
Li442 N487 1.990 . S
Li442 O500 1.961 1_556 S
Li442 O502 1.956 . S
Li442 O503 1.970 1_566 S
Li443 N493 1.989 1_554 S
Li443 O501 1.961 . S
Li443 O502 1.970 1_544 S
Li443 O503 1.956 . S
C444 C446 1.348 . S
C444 C447 1.356 . S
C444 O500 1.325 . S
N445 C448 1.314 . S
N445 C449 1.279 . S
C446 C444 1.348 . S
C446 C448 1.353 . S
C446 H504 0.929 . S
C447 C444 1.356 . S
C447 C449 1.358 . S
C447 H505 0.930 1_554 S
C448 N445 1.314 . S
C448 C446 1.353 . S
C448 H506 0.930 . S
C449 N445 1.279 . S
C449 C447 1.358 . S
C449 H507 0.930 1_554 S
C450 C453 1.348 1_545 S
C450 C454 1.356 . S
C450 O501 1.325 . S
C451 N452 1.279 . S
C451 C454 1.358 . S
C451 H508 0.930 . S
N452 C451 1.279 . S
N452 C455 1.282 1_545 S
C453 C450 1.348 1_565 S
C453 C455 1.351 . S
C453 H509 0.929 . S
C454 C450 1.356 . S
C454 C451 1.358 . S
C454 H510 0.930 . S
C455 N452 1.282 1_565 S
C455 C453 1.351 . S
C455 H511 0.970 . S
C456 N457 1.314 . S
C456 C461 1.353 . S
C456 H462 0.930 . S
N457 Li440 1.990 . S
N457 C456 1.314 . S
N457 C459 1.279 . S
C458 C459 1.358 . S
C458 C460 1.356 . S
C458 H512 0.930 . S
C459 N457 1.279 . S
C459 C458 1.358 . S
C459 H463 0.930 . S
C460 C458 1.356 . S
C460 C461 1.348 . S
C461 C456 1.353 . S
C461 C460 1.348 . S
C461 H513 0.929 . S
H462 C456 0.930 . S
H463 C459 0.930 . S
C464 N465 1.314 . S
C464 C466 1.353 . S
C464 H470 0.930 . S
N465 Li441 1.990 . S
N465 C464 1.314 . S
N465 C468 1.279 . S
C466 C464 1.353 . S
C466 C469 1.348 . S
C466 H514 0.929 . S
C467 C468 1.358 . S
C467 C469 1.356 . S
C467 H515 0.930 . S
C468 N465 1.279 . S
C468 C467 1.358 . S
C468 H471 0.930 . S
C469 C466 1.348 . S
C469 C467 1.356 . S
H470 C464 0.930 . S
H471 C468 0.930 . S
C472 C474 1.348 1_565 S
C472 C475 1.356 . S
C472 O502 1.325 . S
N473 C476 1.281 1_565 S
N473 C477 1.279 . S
C474 C472 1.348 1_545 S
C474 C476 1.373 . S
C474 H516 0.929 . S
C475 C472 1.356 . S
C475 C477 1.358 . S
C475 H517 0.930 . S
C476 N473 1.281 1_545 S
C476 C474 1.373 . S
C476 H518 0.946 . S
C477 N473 1.279 . S
C477 C475 1.358 . S
C477 H519 0.930 . S
C478 C479 1.350 . S
C478 C480 1.354 1_556 S
C478 O503 1.324 1_556 S
C479 C478 1.350 . S
C479 C481 1.353 . S
C479 H520 0.929 . S
C480 C478 1.354 1_554 S
C480 C482 1.358 . S
C480 H521 0.930 . S
C481 C479 1.353 . S
C481 N483 1.314 . S
C481 H522 0.930 . S
C482 C480 1.358 . S
C482 N483 1.279 1_554 S
C482 H523 0.930 . S
N483 C481 1.314 . S
N483 C482 1.279 1_556 S
C484 C486 1.353 . S
C484 N487 1.314 . S
C484 H490 0.930 . S
C485 N487 1.279 . S
C485 C488 1.358 . S
C485 H491 0.930 . S
C486 C484 1.353 . S
C486 C489 1.348 . S
C486 H524 0.929 . S
N487 Li442 1.990 . S
N487 C484 1.314 . S
N487 C485 1.279 . S
C488 C485 1.358 . S
C488 C489 1.356 . S
C488 H525 0.930 . S
C489 C486 1.348 . S
C489 C488 1.356 . S
H490 C484 0.930 . S
H491 C485 0.930 . S
C492 N493 1.313 1_554 S
C492 C494 1.362 . S
C492 H498 0.930 . S
N493 Li443 1.989 1_556 S
N493 C492 1.313 1_556 S
N493 C496 1.282 . S
C494 C492 1.362 . S
C494 C497 1.325 1_554 S
C494 H526 0.945 . S
C495 C496 1.358 . S
C495 C497 1.356 . S
C495 H527 0.930 . S
C496 N493 1.282 . S
C496 C495 1.358 . S
C496 H499 0.930 . S
C497 C494 1.325 1_556 S
C497 C495 1.356 . S
H498 C492 0.930 . S
H499 C496 0.930 . S
O500 Li440 1.956 . S
O500 Li441 1.970 1_565 S
O500 Li442 1.961 1_554 S
O500 C444 1.325 . S
O501 Li440 1.970 1_545 S
O501 Li441 1.956 . S
O501 Li443 1.961 . S
O501 C450 1.325 . S
O502 Li440 1.961 1_556 S
O502 Li442 1.956 . S
O502 Li443 1.970 1_566 S
O502 C472 1.325 . S
O503 Li441 1.961 . S
O503 Li442 1.970 1_544 S
O503 Li443 1.956 . S
O503 C478 1.324 1_554 S
H504 C446 0.929 . S
H505 C447 0.930 1_556 S
H506 C448 0.930 . S
H507 C449 0.930 1_556 S
H508 C451 0.930 . S
H509 C453 0.929 . S
H510 C454 0.930 . S
H511 C455 0.970 . S
H512 C458 0.930 . S
H513 C461 0.929 . S
H514 C466 0.929 . S
H515 C467 0.930 . S
H516 C474 0.929 . S
H517 C475 0.930 . S
H518 C476 0.946 . S
H519 C477 0.930 . S
H520 C479 0.929 . S
H521 C480 0.930 . S
H522 C481 0.930 . S
H523 C482 0.930 . S
H524 C486 0.929 . S
H525 C488 0.930 . S
H526 C494 0.945 . S
H527 C495 0.930 . S
Li528 N545 1.990 . S
Li528 O588 1.956 . S
Li528 O589 1.970 . S
Li528 O590 1.961 . S
Li529 N553 1.990 . S
Li529 O588 1.970 . S
Li529 O589 1.956 . S
Li529 O591 1.961 . S
Li530 N575 1.990 . S
Li530 O588 1.961 . S
Li530 O590 1.956 . S
Li530 O591 1.970 . S
Li531 N581 1.990 . S
Li531 O589 1.961 . S
Li531 O590 1.970 . S
Li531 O591 1.956 . S
C532 C534 1.348 . S
C532 C535 1.356 . S
C532 O588 1.325 . S
N533 C536 1.314 . S
N533 C537 1.279 . S
C534 C532 1.348 . S
C534 C536 1.353 . S
C534 H592 0.929 . S
C535 C532 1.356 . S
C535 C537 1.358 . S
C535 H593 0.930 . S
C536 N533 1.314 . S
C536 C534 1.353 . S
C536 H594 0.930 . S
C537 N533 1.279 . S
C537 C535 1.358 . S
C537 H595 0.930 . S
C538 C541 1.348 . S
C538 C542 1.356 . S
C538 O589 1.325 . S
C539 N540 1.279 . S
C539 C542 1.358 . S
C539 H596 0.930 . S
N540 C539 1.279 . S
N540 C543 1.314 . S
C541 C538 1.348 . S
C541 C543 1.353 . S
C541 H597 0.929 . S
C542 C538 1.356 . S
C542 C539 1.358 . S
C542 H598 0.930 . S
C543 N540 1.314 . S
C543 C541 1.353 . S
C543 H599 0.930 . S
C544 N545 1.314 . S
C544 C549 1.353 . S
C544 H550 0.930 . S
N545 Li528 1.990 . S
N545 C544 1.314 . S
N545 C547 1.279 . S
C546 C547 1.358 . S
C546 C548 1.356 . S
C546 H600 0.930 . S
C547 N545 1.279 . S
C547 C546 1.358 . S
C547 H551 0.930 . S
C548 C546 1.356 . S
C548 C549 1.348 . S
C549 C544 1.353 . S
C549 C548 1.348 . S
C549 H601 0.929 . S
H550 C544 0.930 . S
H551 C547 0.930 . S
C552 N553 1.314 . S
C552 C554 1.353 . S
C552 H558 0.930 . S
N553 Li529 1.990 . S
N553 C552 1.314 . S
N553 C556 1.279 . S
C554 C552 1.353 . S
C554 C557 1.348 . S
C554 H602 0.929 . S
C555 C556 1.358 . S
C555 C557 1.356 . S
C555 H603 0.930 . S
C556 N553 1.279 . S
C556 C555 1.358 . S
C556 H559 0.930 . S
C557 C554 1.348 . S
C557 C555 1.356 . S
H558 C552 0.930 . S
H559 C556 0.930 . S
C560 C562 1.348 . S
C560 C563 1.356 . S
C560 O590 1.325 . S
N561 C564 1.314 . S
N561 C565 1.279 . S
C562 C560 1.348 . S
C562 C564 1.353 . S
C562 H604 0.929 . S
C563 C560 1.356 . S
C563 C565 1.358 . S
C563 H605 0.930 . S
C564 N561 1.314 . S
C564 C562 1.353 . S
C564 H606 0.930 . S
C565 N561 1.279 . S
C565 C563 1.358 . S
C565 H607 0.930 . S
C566 C567 1.348 . S
C566 C568 1.356 . S
C566 O591 1.325 . S
C567 C566 1.348 . S
C567 C569 1.353 . S
C567 H608 0.929 . S
C568 C566 1.356 . S
C568 C570 1.358 . S
C568 H609 0.930 . S
C569 C567 1.353 . S
C569 N571 1.314 . S
C569 H610 0.930 . S
C570 C568 1.358 . S
C570 N571 1.279 . S
C570 H611 0.930 . S
N571 C569 1.314 . S
N571 C570 1.279 . S
C572 C574 1.353 . S
C572 N575 1.314 . S
C572 H578 0.930 . S
C573 N575 1.279 . S
C573 C576 1.358 . S
C573 H579 0.930 . S
C574 C572 1.353 . S
C574 C577 1.348 . S
C574 H612 0.929 . S
N575 Li530 1.990 . S
N575 C572 1.314 . S
N575 C573 1.279 . S
C576 C573 1.358 . S
C576 C577 1.356 . S
C576 H613 0.930 . S
C577 C574 1.348 . S
C577 C576 1.356 . S
H578 C572 0.930 . S
H579 C573 0.930 . S
C580 N581 1.314 . S
C580 C582 1.353 . S
C580 H586 0.930 . S
N581 Li531 1.990 . S
N581 C580 1.314 . S
N581 C584 1.279 . S
C582 C580 1.353 . S
C582 C585 1.348 . S
C582 H614 0.929 . S
C583 C584 1.358 . S
C583 C585 1.356 . S
C583 H615 0.930 . S
C584 N581 1.279 . S
C584 C583 1.358 . S
C584 H587 0.930 . S
C585 C582 1.348 . S
C585 C583 1.356 . S
H586 C580 0.930 . S
H587 C584 0.930 . S
O588 Li528 1.956 . S
O588 Li529 1.970 . S
O588 Li530 1.961 . S
O588 C532 1.325 . S
O589 Li528 1.970 . S
O589 Li529 1.956 . S
O589 Li531 1.961 . S
O589 C538 1.325 . S
O590 Li528 1.961 . S
O590 Li530 1.956 . S
O590 Li531 1.970 . S
O590 C560 1.325 . S
O591 Li529 1.961 . S
O591 Li530 1.970 . S
O591 Li531 1.956 . S
O591 C566 1.325 . S
H592 C534 0.929 . S
H593 C535 0.930 . S
H594 C536 0.930 . S
H595 C537 0.930 . S
H596 C539 0.930 . S
H597 C541 0.929 . S
H598 C542 0.930 . S
H599 C543 0.930 . S
H600 C546 0.930 . S
H601 C549 0.929 . S
H602 C554 0.929 . S
H603 C555 0.930 . S
H604 C562 0.929 . S
H605 C563 0.930 . S
H606 C564 0.930 . S
H607 C565 0.930 . S
H608 C567 0.929 . S
H609 C568 0.930 . S
H610 C569 0.930 . S
H611 C570 0.930 . S
H612 C574 0.929 . S
H613 C576 0.930 . S
H614 C582 0.929 . S
H615 C583 0.930 . S
Li616 N633 1.990 . S
Li616 O676 1.956 . S
Li616 O677 1.970 . S
Li616 O678 1.961 . S
Li617 N641 1.990 . S
Li617 O676 1.970 . S
Li617 O677 1.956 . S
Li617 O679 1.961 . S
Li618 N663 1.990 1_565 S
Li618 O676 1.961 . S
Li618 O678 1.956 . S
Li618 O679 1.970 . S
Li619 N669 1.990 . S
Li619 O677 1.961 . S
Li619 O678 1.970 . S
Li619 O679 1.956 . S
C620 C622 1.348 . S
C620 C623 1.356 . S
C620 O676 1.325 . S
N621 C624 1.314 . S
N621 C625 1.279 . S
C622 C620 1.348 . S
C622 C624 1.353 . S
C622 H680 0.929 . S
C623 C620 1.356 . S
C623 C625 1.358 . S
C623 H681 0.930 . S
C624 N621 1.314 . S
C624 C622 1.353 . S
C624 H682 0.930 . S
C625 N621 1.279 . S
C625 C623 1.358 . S
C625 H683 0.930 . S
C626 C629 1.348 . S
C626 C630 1.356 . S
C626 O677 1.325 . S
C627 N628 1.279 . S
C627 C630 1.358 . S
C627 H684 0.930 . S
N628 C627 1.279 . S
N628 C631 1.314 . S
C629 C626 1.348 . S
C629 C631 1.353 . S
C629 H685 0.929 . S
C630 C626 1.356 . S
C630 C627 1.358 . S
C630 H686 0.930 . S
C631 N628 1.314 . S
C631 C629 1.353 . S
C631 H687 0.930 . S
C632 N633 1.314 . S
C632 C637 1.353 . S
C632 H638 0.930 . S
N633 Li616 1.990 . S
N633 C632 1.314 . S
N633 C635 1.279 . S
C634 C635 1.358 . S
C634 C636 1.356 . S
C634 H688 0.930 . S
C635 N633 1.279 . S
C635 C634 1.358 . S
C635 H639 0.930 . S
C636 C634 1.356 . S
C636 C637 1.348 . S
C637 C632 1.353 . S
C637 C636 1.348 . S
C637 H689 0.929 . S
H638 C632 0.930 . S
H639 C635 0.930 . S
C640 N641 1.314 . S
C640 C642 1.353 . S
C640 H646 0.930 . S
N641 Li617 1.990 . S
N641 C640 1.314 . S
N641 C644 1.279 . S
C642 C640 1.353 . S
C642 C645 1.348 . S
C642 H690 0.929 . S
C643 C644 1.358 . S
C643 C645 1.356 . S
C643 H691 0.930 . S
C644 N641 1.279 . S
C644 C643 1.358 . S
C644 H647 0.930 . S
C645 C642 1.348 . S
C645 C643 1.356 . S
H646 C640 0.930 . S
H647 C644 0.930 . S
C648 C650 1.348 . S
C648 C651 1.356 . S
C648 O678 1.325 1_545 S
N649 C652 1.314 . S
N649 C653 1.279 . S
C650 C648 1.348 . S
C650 C652 1.353 . S
C650 H692 0.929 . S
C651 C648 1.356 . S
C651 C653 1.358 . S
C651 H693 0.930 . S
C652 N649 1.314 . S
C652 C650 1.353 . S
C652 H694 0.930 . S
C653 N649 1.279 . S
C653 C651 1.358 . S
C653 H695 0.930 . S
C654 C655 1.348 1_565 S
C654 C656 1.356 . S
C654 O679 1.325 . S
C655 C654 1.348 1_545 S
C655 C657 1.353 . S
C655 H696 0.929 . S
C656 C654 1.356 . S
C656 C658 1.358 . S
C656 H697 0.930 . S
C657 C655 1.353 . S
C657 N659 1.314 . S
C657 H698 0.930 . S
C658 C656 1.358 . S
C658 N659 1.279 1_565 S
C658 H699 0.930 . S
N659 C657 1.314 . S
N659 C658 1.279 1_545 S
C660 C662 1.353 . S
C660 N663 1.314 . S
C660 H666 0.930 . S
C661 N663 1.279 . S
C661 C664 1.358 . S
C661 H667 0.930 . S
C662 C660 1.353 . S
C662 C665 1.348 . S
C662 H700 0.929 . S
N663 Li618 1.990 1_545 S
N663 C660 1.314 . S
N663 C661 1.279 . S
C664 C661 1.358 . S
C664 C665 1.356 . S
C664 H701 0.930 . S
C665 C662 1.348 . S
C665 C664 1.356 . S
H666 C660 0.930 . S
H667 C661 0.930 . S
C668 N669 1.314 . S
C668 C670 1.353 . S
C668 H674 0.930 . S
N669 Li619 1.990 . S
N669 C668 1.314 . S
N669 C672 1.279 . S
C670 C668 1.353 . S
C670 C673 1.348 . S
C670 H702 0.929 . S
C671 C672 1.358 . S
C671 C673 1.356 . S
C671 H703 0.946 . S
C672 N669 1.279 . S
C672 C671 1.358 . S
C672 H675 0.930 . S
C673 C670 1.348 . S
C673 C671 1.356 . S
H674 C668 0.930 . S
H675 C672 0.930 . S
O676 Li616 1.956 . S
O676 Li617 1.970 . S
O676 Li618 1.961 . S
O676 C620 1.325 . S
O677 Li616 1.970 . S
O677 Li617 1.956 . S
O677 Li619 1.961 . S
O677 C626 1.325 . S
O678 Li616 1.961 . S
O678 Li618 1.956 . S
O678 Li619 1.970 . S
O678 C648 1.325 1_565 S
O679 Li617 1.961 . S
O679 Li618 1.970 . S
O679 Li619 1.956 . S
O679 C654 1.325 . S
H680 C622 0.929 . S
H681 C623 0.930 . S
H682 C624 0.930 . S
H683 C625 0.930 . S
H684 C627 0.930 . S
H685 C629 0.929 . S
H686 C630 0.930 . S
H687 C631 0.930 . S
H688 C634 0.930 . S
H689 C637 0.929 . S
H690 C642 0.929 . S
H691 C643 0.930 . S
H692 C650 0.929 . S
H693 C651 0.930 . S
H694 C652 0.930 . S
H695 C653 0.930 . S
H696 C655 0.929 . S
H697 C656 0.930 . S
H698 C657 0.930 . S
H699 C658 0.930 . S
H700 C662 0.929 . S
H701 C664 0.930 . S
H702 C670 0.929 . S
H703 C671 0.946 . S
Li704 N721 1.990 . S
Li704 O764 1.956 . S
Li704 O765 1.970 . S
Li704 O766 1.961 . S
Li705 N729 1.990 . S
Li705 O764 1.970 . S
Li705 O765 1.956 . S
Li705 O767 1.961 . S
Li706 N751 1.990 1_455 S
Li706 O764 1.961 . S
Li706 O766 1.956 . S
Li706 O767 1.970 . S
Li707 N757 1.990 . S
Li707 O765 1.961 . S
Li707 O766 1.970 . S
Li707 O767 1.956 . S
C708 C710 1.348 . S
C708 C711 1.356 . S
C708 O764 1.325 . S
N709 C712 1.314 . S
N709 C713 1.279 . S
C710 C708 1.348 . S
C710 C712 1.353 . S
C710 H768 0.929 . S
C711 C708 1.356 . S
C711 C713 1.358 . S
C711 H769 0.930 . S
C712 N709 1.314 . S
C712 C710 1.353 . S
C712 H770 0.930 . S
C713 N709 1.279 . S
C713 C711 1.358 . S
C713 H771 0.930 . S
C714 C717 1.348 . S
C714 C718 1.356 . S
C714 O765 1.325 . S
C715 N716 1.279 . S
C715 C718 1.358 . S
C715 H772 0.930 . S
N716 C715 1.279 . S
N716 C719 1.314 . S
C717 C714 1.348 . S
C717 C719 1.353 . S
C717 H773 0.929 . S
C718 C714 1.356 . S
C718 C715 1.358 . S
C718 H774 0.930 . S
C719 N716 1.314 . S
C719 C717 1.353 . S
C719 H775 0.930 . S
C720 N721 1.314 . S
C720 C725 1.353 . S
C720 H726 0.930 . S
N721 Li704 1.990 . S
N721 C720 1.314 . S
N721 C723 1.279 . S
C722 C723 1.358 . S
C722 C724 1.356 . S
C722 H776 0.930 . S
C723 N721 1.279 . S
C723 C722 1.358 . S
C723 H727 0.930 . S
C724 C722 1.356 . S
C724 C725 1.348 . S
C725 C720 1.353 . S
C725 C724 1.348 . S
C725 H777 0.929 . S
H726 C720 0.930 . S
H727 C723 0.930 . S
C728 N729 1.314 . S
C728 C730 1.353 . S
C728 H734 0.930 . S
N729 Li705 1.990 . S
N729 C728 1.314 . S
N729 C732 1.279 . S
C730 C728 1.353 . S
C730 C733 1.348 . S
C730 H778 0.929 . S
C731 C732 1.358 . S
C731 C733 1.356 . S
C731 H779 0.930 . S
C732 N729 1.279 . S
C732 C731 1.358 . S
C732 H735 0.930 . S
C733 C730 1.348 . S
C733 C731 1.356 . S
H734 C728 0.930 . S
H735 C732 0.930 . S
C736 C738 1.348 . S
C736 C739 1.356 . S
C736 O766 1.325 1_655 S
N737 C740 1.314 . S
N737 C741 1.279 . S
C738 C736 1.348 . S
C738 C740 1.353 . S
C738 H780 0.929 . S
C739 C736 1.356 . S
C739 C741 1.358 . S
C739 H781 0.930 . S
C740 N737 1.314 . S
C740 C738 1.353 . S
C740 H782 0.930 . S
C741 N737 1.279 . S
C741 C739 1.358 . S
C741 H783 0.930 . S
C742 C743 1.348 1_455 S
C742 C744 1.356 . S
C742 O767 1.325 . S
C743 C742 1.348 1_655 S
C743 C745 1.353 . S
C743 H784 0.929 . S
C744 C742 1.356 . S
C744 C746 1.358 . S
C744 H785 0.930 . S
C745 C743 1.353 . S
C745 N747 1.314 . S
C745 H786 0.930 . S
C746 C744 1.358 . S
C746 N747 1.279 1_455 S
C746 H787 0.930 . S
N747 C745 1.314 . S
N747 C746 1.279 1_655 S
C748 C750 1.353 . S
C748 N751 1.314 . S
C748 H754 0.930 . S
C749 N751 1.279 . S
C749 C752 1.358 . S
C749 H755 0.930 . S
C750 C748 1.353 . S
C750 C753 1.348 . S
C750 H788 0.929 . S
N751 Li706 1.990 1_655 S
N751 C748 1.314 . S
N751 C749 1.279 . S
C752 C749 1.358 . S
C752 C753 1.356 . S
C752 H789 0.930 . S
C753 C750 1.348 . S
C753 C752 1.356 . S
H754 C748 0.930 . S
H755 C749 0.930 . S
C756 N757 1.314 . S
C756 C758 1.353 . S
C756 H762 0.930 . S
N757 Li707 1.990 . S
N757 C756 1.314 . S
N757 C760 1.279 . S
C758 C756 1.353 . S
C758 C761 1.348 . S
C758 H790 0.929 . S
C759 C760 1.358 . S
C759 C761 1.356 . S
C759 H791 0.930 . S
C760 N757 1.279 . S
C760 C759 1.358 . S
C760 H763 0.930 . S
C761 C758 1.348 . S
C761 C759 1.356 . S
H762 C756 0.930 . S
H763 C760 0.930 . S
O764 Li704 1.956 . S
O764 Li705 1.970 . S
O764 Li706 1.961 . S
O764 C708 1.325 . S
O765 Li704 1.970 . S
O765 Li705 1.956 . S
O765 Li707 1.961 . S
O765 C714 1.325 . S
O766 Li704 1.961 . S
O766 Li706 1.956 . S
O766 Li707 1.970 . S
O766 C736 1.325 1_455 S
O767 Li705 1.961 . S
O767 Li706 1.970 . S
O767 Li707 1.956 . S
O767 C742 1.325 . S
H768 C710 0.929 . S
H769 C711 0.930 . S
H770 C712 0.930 . S
H771 C713 0.930 . S
H772 C715 0.930 . S
H773 C717 0.929 . S
H774 C718 0.930 . S
H775 C719 0.930 . S
H776 C722 0.930 . S
H777 C725 0.929 . S
H778 C730 0.929 . S
H779 C731 0.930 . S
H780 C738 0.929 . S
H781 C739 0.930 . S
H782 C740 0.930 . S
H783 C741 0.930 . S
H784 C743 0.929 . S
H785 C744 0.930 . S
H786 C745 0.930 . S
H787 C746 0.930 . S
H788 C750 0.929 . S
H789 C752 0.930 . S
H790 C758 0.929 . S
H791 C759 0.930 . S
Li792 N809 1.990 1_565 S
Li792 O852 1.956 . S
Li792 O853 1.970 . S
Li792 O854 1.961 . S
Li793 N817 1.990 . S
Li793 O852 1.970 . S
Li793 O853 1.956 . S
Li793 O855 1.961 . S
Li794 N839 1.990 . S
Li794 O852 1.961 . S
Li794 O854 1.956 . S
Li794 O855 1.970 . S
Li795 N845 1.990 . S
Li795 O853 1.961 . S
Li795 O854 1.970 . S
Li795 O855 1.956 . S
C796 C798 1.348 . S
C796 C799 1.356 . S
C796 O852 1.325 . S
N797 C800 1.314 . S
N797 C801 1.279 . S
C798 C796 1.348 . S
C798 C800 1.353 . S
C798 H856 0.929 . S
C799 C796 1.356 . S
C799 C801 1.358 . S
C799 H857 0.930 . S
C800 N797 1.314 . S
C800 C798 1.353 . S
C800 H858 0.930 . S
C801 N797 1.279 . S
C801 C799 1.358 . S
C801 H859 0.930 . S
C802 C805 1.348 1_565 S
C802 C806 1.356 . S
C802 O853 1.325 . S
C803 N804 1.279 1_565 S
C803 C806 1.358 . S
C803 H860 0.930 . S
N804 C803 1.279 1_545 S
N804 C807 1.314 . S
C805 C802 1.348 1_545 S
C805 C807 1.353 . S
C805 H861 0.929 . S
C806 C802 1.356 . S
C806 C803 1.358 . S
C806 H862 0.930 . S
C807 N804 1.314 . S
C807 C805 1.353 . S
C807 H863 0.930 . S
C808 N809 1.314 . S
C808 C813 1.353 . S
C808 H814 0.930 . S
N809 Li792 1.990 1_545 S
N809 C808 1.314 . S
N809 C811 1.279 . S
C810 C811 1.358 . S
C810 C812 1.356 . S
C810 H864 0.930 . S
C811 N809 1.279 . S
C811 C810 1.358 . S
C811 H815 0.930 . S
C812 C810 1.356 . S
C812 C813 1.348 . S
C813 C808 1.353 . S
C813 C812 1.348 . S
C813 H865 0.929 . S
H814 C808 0.930 . S
H815 C811 0.930 . S
C816 N817 1.314 . S
C816 C818 1.353 . S
C816 H822 0.930 . S
N817 Li793 1.990 . S
N817 C816 1.314 . S
N817 C820 1.279 . S
C818 C816 1.353 . S
C818 C821 1.348 . S
C818 H866 0.929 . S
C819 C820 1.358 . S
C819 C821 1.356 . S
C819 H867 0.930 . S
C820 N817 1.279 . S
C820 C819 1.358 . S
C820 H823 0.930 . S
C821 C818 1.348 . S
C821 C819 1.356 . S
H822 C816 0.930 . S
H823 C820 0.930 . S
C824 C826 1.348 . S
C824 C827 1.356 . S
C824 O854 1.325 1_545 S
N825 C828 1.314 . S
N825 C829 1.279 . S
C826 C824 1.348 . S
C826 C828 1.353 . S
C826 H868 0.929 1_545 S
C827 C824 1.356 . S
C827 C829 1.358 . S
C827 H869 0.930 . S
C828 N825 1.314 . S
C828 C826 1.353 . S
C828 H870 0.930 . S
C829 N825 1.279 . S
C829 C827 1.358 . S
C829 H871 0.930 . S
C830 C831 1.348 . S
C830 C832 1.356 . S
C830 O855 1.325 . S
C831 C830 1.348 . S
C831 C833 1.353 . S
C831 H872 0.929 . S
C832 C830 1.356 . S
C832 C834 1.358 . S
C832 H873 0.930 . S
C833 C831 1.353 . S
C833 N835 1.314 . S
C833 H874 0.930 . S
C834 C832 1.358 . S
C834 N835 1.279 . S
C834 H875 0.930 . S
N835 C833 1.314 . S
N835 C834 1.279 . S
C836 C838 1.353 . S
C836 N839 1.314 . S
C836 H842 0.930 . S
C837 N839 1.279 . S
C837 C840 1.358 . S
C837 H843 0.930 . S
C838 C836 1.353 . S
C838 C841 1.348 . S
C838 H876 0.929 . S
N839 Li794 1.990 . S
N839 C836 1.314 . S
N839 C837 1.279 . S
C840 C837 1.358 . S
C840 C841 1.356 . S
C840 H877 0.930 . S
C841 C838 1.348 . S
C841 C840 1.356 . S
H842 C836 0.930 . S
H843 C837 0.930 . S
C844 N845 1.314 . S
C844 C846 1.353 . S
C844 H850 0.930 1_565 S
N845 Li795 1.990 . S
N845 C844 1.314 . S
N845 C848 1.279 . S
C846 C844 1.353 . S
C846 C849 1.348 . S
C846 H878 0.929 1_565 S
C847 C848 1.358 . S
C847 C849 1.356 . S
C847 H879 0.930 . S
C848 N845 1.279 . S
C848 C847 1.358 . S
C848 H851 0.930 . S
C849 C846 1.348 . S
C849 C847 1.356 . S
H850 C844 0.930 1_545 S
H851 C848 0.930 . S
O852 Li792 1.956 . S
O852 Li793 1.970 . S
O852 Li794 1.961 . S
O852 C796 1.325 . S
O853 Li792 1.970 . S
O853 Li793 1.956 . S
O853 Li795 1.961 . S
O853 C802 1.325 . S
O854 Li792 1.961 . S
O854 Li794 1.956 . S
O854 Li795 1.970 . S
O854 C824 1.325 1_565 S
O855 Li793 1.961 . S
O855 Li794 1.970 . S
O855 Li795 1.956 . S
O855 C830 1.325 . S
H856 C798 0.929 . S
H857 C799 0.930 . S
H858 C800 0.930 . S
H859 C801 0.930 . S
H860 C803 0.930 . S
H861 C805 0.929 . S
H862 C806 0.930 . S
H863 C807 0.930 . S
H864 C810 0.930 . S
H865 C813 0.929 . S
H866 C818 0.929 . S
H867 C819 0.930 . S
H868 C826 0.929 1_565 S
H869 C827 0.930 . S
H870 C828 0.930 . S
H871 C829 0.930 . S
H872 C831 0.929 . S
H873 C832 0.930 . S
H874 C833 0.930 . S
H875 C834 0.930 . S
H876 C838 0.929 . S
H877 C840 0.930 . S
H878 C846 0.929 1_545 S
H879 C847 0.930 . S
Li880 N897 1.990 . S
Li880 O940 1.956 . S
Li880 O941 1.970 . S
Li880 O942 1.961 . S
Li881 N905 1.990 1_455 S
Li881 O940 1.970 . S
Li881 O941 1.956 . S
Li881 O943 1.961 . S
Li882 N927 1.990 . S
Li882 O940 1.961 . S
Li882 O942 1.956 . S
Li882 O943 1.970 . S
Li883 N933 1.990 . S
Li883 O941 1.961 . S
Li883 O942 1.970 . S
Li883 O943 1.956 . S
C884 C886 1.348 1_455 S
C884 C887 1.356 . S
C884 O940 1.325 . S
N885 C888 1.314 . S
N885 C889 1.279 1_655 S
C886 C884 1.348 1_655 S
C886 C888 1.353 . S
C886 H944 0.929 . S
C887 C884 1.356 . S
C887 C889 1.358 . S
C887 H945 0.930 . S
C888 N885 1.314 . S
C888 C886 1.353 . S
C888 H946 0.930 . S
C889 N885 1.279 1_455 S
C889 C887 1.358 . S
C889 H947 0.930 . S
C890 C893 1.348 . S
C890 C894 1.356 . S
C890 O941 1.325 . S
C891 N892 1.279 . S
C891 C894 1.358 . S
C891 H948 0.930 . S
N892 C891 1.279 . S
N892 C895 1.314 . S
C893 C890 1.348 . S
C893 C895 1.353 . S
C893 H949 0.929 . S
C894 C890 1.356 . S
C894 C891 1.358 . S
C894 H950 0.930 . S
C895 N892 1.314 . S
C895 C893 1.353 . S
C895 H951 0.930 . S
C896 N897 1.314 . S
C896 C901 1.353 . S
C896 H902 0.930 . S
N897 Li880 1.990 . S
N897 C896 1.314 . S
N897 C899 1.279 . S
C898 C899 1.358 . S
C898 C900 1.356 . S
C898 H952 0.930 . S
C899 N897 1.279 . S
C899 C898 1.358 . S
C899 H903 0.930 . S
C900 C898 1.356 . S
C900 C901 1.348 . S
C901 C896 1.353 . S
C901 C900 1.348 . S
C901 H953 0.929 . S
H902 C896 0.930 . S
H903 C899 0.930 . S
C904 N905 1.314 . S
C904 C906 1.353 . S
C904 H910 0.930 . S
N905 Li881 1.990 1_655 S
N905 C904 1.314 . S
N905 C908 1.279 . S
C906 C904 1.353 . S
C906 C909 1.348 . S
C906 H954 0.929 . S
C907 C908 1.358 . S
C907 C909 1.356 . S
C907 H955 0.930 . S
C908 N905 1.279 . S
C908 C907 1.358 . S
C908 H911 0.930 . S
C909 C906 1.348 . S
C909 C907 1.356 . S
H910 C904 0.930 . S
H911 C908 0.930 . S
C912 C914 1.348 . S
C912 C915 1.356 . S
C912 O942 1.325 . S
N913 C916 1.314 . S
N913 C917 1.279 . S
C914 C912 1.348 . S
C914 C916 1.353 . S
C914 H956 0.929 . S
C915 C912 1.356 . S
C915 C917 1.358 . S
C915 H957 0.930 . S
C916 N913 1.314 . S
C916 C914 1.353 . S
C916 H958 0.930 . S
C917 N913 1.279 . S
C917 C915 1.358 . S
C917 H959 0.930 . S
C918 C919 1.348 . S
C918 C920 1.356 . S
C918 O943 1.325 1_655 S
C919 C918 1.348 . S
C919 C921 1.353 . S
C919 H960 0.929 1_655 S
C920 C918 1.356 . S
C920 C922 1.358 . S
C920 H961 0.930 . S
C921 C919 1.353 . S
C921 N923 1.314 . S
C921 H962 0.930 . S
C922 C920 1.358 . S
C922 N923 1.279 . S
C922 H963 0.930 . S
N923 C921 1.314 . S
N923 C922 1.279 . S
C924 C926 1.353 . S
C924 N927 1.314 . S
C924 H930 0.930 1_455 S
C925 N927 1.279 . S
C925 C928 1.358 . S
C925 H931 0.930 . S
C926 C924 1.353 . S
C926 C929 1.348 . S
C926 H964 0.929 1_455 S
N927 Li882 1.990 . S
N927 C924 1.314 . S
N927 C925 1.279 . S
C928 C925 1.358 . S
C928 C929 1.356 . S
C928 H965 0.930 . S
C929 C926 1.348 . S
C929 C928 1.356 . S
H930 C924 0.930 1_655 S
H931 C925 0.930 . S
C932 N933 1.314 . S
C932 C934 1.353 . S
C932 H938 0.930 . S
N933 Li883 1.990 . S
N933 C932 1.314 . S
N933 C936 1.279 . S
C934 C932 1.353 . S
C934 C937 1.348 . S
C934 H966 0.929 . S
C935 C936 1.358 . S
C935 C937 1.356 . S
C935 H967 0.930 . S
C936 N933 1.279 . S
C936 C935 1.358 . S
C936 H939 0.930 . S
C937 C934 1.348 . S
C937 C935 1.356 . S
H938 C932 0.930 . S
H939 C936 0.930 . S
O940 Li880 1.956 . S
O940 Li881 1.970 . S
O940 Li882 1.961 . S
O940 C884 1.325 . S
O941 Li880 1.970 . S
O941 Li881 1.956 . S
O941 Li883 1.961 . S
O941 C890 1.325 . S
O942 Li880 1.961 . S
O942 Li882 1.956 . S
O942 Li883 1.970 . S
O942 C912 1.325 . S
O943 Li881 1.961 . S
O943 Li882 1.970 . S
O943 Li883 1.956 . S
O943 C918 1.325 1_455 S
H944 C886 0.929 . S
H945 C887 0.930 . S
H946 C888 0.930 . S
H947 C889 0.930 . S
H948 C891 0.930 . S
H949 C893 0.929 . S
H950 C894 0.930 . S
H951 C895 0.930 . S
H952 C898 0.930 . S
H953 C901 0.929 . S
H954 C906 0.929 . S
H955 C907 0.930 . S
H956 C914 0.929 . S
H957 C915 0.930 . S
H958 C916 0.930 . S
H959 C917 0.930 . S
H960 C919 0.929 1_455 S
H961 C920 0.930 . S
H962 C921 0.930 . S
H963 C922 0.930 . S
H964 C926 0.929 1_655 S
H965 C928 0.930 . S
H966 C934 0.929 . S
H967 C935 0.930 . S
Li968 N985 1.990 . S
Li968 O1028 1.956 . S
Li968 O1029 1.970 . S
Li968 O1030 1.961 . S
Li969 N993 1.990 . S
Li969 O1028 1.970 . S
Li969 O1029 1.956 . S
Li969 O1031 1.961 . S
Li970 N1015 1.990 . S
Li970 O1028 1.961 . S
Li970 O1030 1.956 . S
Li970 O1031 1.970 . S
Li971 N1021 1.990 . S
Li971 O1029 1.961 . S
Li971 O1030 1.970 . S
Li971 O1031 1.956 . S
C972 C974 1.348 . S
C972 C975 1.356 . S
C972 O1028 1.325 . S
N973 C976 1.314 . S
N973 C977 1.279 . S
C974 C972 1.348 . S
C974 C976 1.353 . S
C974 H1032 0.929 . S
C975 C972 1.356 . S
C975 C977 1.358 . S
C975 H1033 0.930 . S
C976 N973 1.314 . S
C976 C974 1.353 . S
C976 H1034 0.930 . S
C977 N973 1.279 . S
C977 C975 1.358 . S
C977 H1035 0.930 . S
C978 C981 1.348 . S
C978 C982 1.356 . S
C978 O1029 1.325 . S
C979 N980 1.279 . S
C979 C982 1.358 . S
C979 H1036 0.930 . S
N980 C979 1.279 . S
N980 C983 1.314 . S
C981 C978 1.348 . S
C981 C983 1.353 . S
C981 H1037 0.929 . S
C982 C978 1.356 . S
C982 C979 1.358 . S
C982 H1038 0.930 . S
C983 N980 1.314 . S
C983 C981 1.353 . S
C983 H1039 0.930 . S
C984 N985 1.314 . S
C984 C989 1.353 . S
C984 H990 0.930 . S
N985 Li968 1.990 . S
N985 C984 1.314 . S
N985 C987 1.279 . S
C986 C987 1.358 . S
C986 C988 1.356 . S
C986 H1040 0.930 . S
C987 N985 1.279 . S
C987 C986 1.358 . S
C987 H991 0.930 . S
C988 C986 1.356 . S
C988 C989 1.348 . S
C989 C984 1.353 . S
C989 C988 1.348 . S
C989 H1041 0.929 . S
H990 C984 0.930 . S
H991 C987 0.930 . S
C992 N993 1.314 . S
C992 C994 1.353 . S
C992 H998 0.930 . S
N993 Li969 1.990 . S
N993 C992 1.314 . S
N993 C996 1.279 . S
C994 C992 1.353 . S
C994 C997 1.348 . S
C994 H1042 0.929 . S
C995 C996 1.358 . S
C995 C997 1.356 . S
C995 H1043 0.930 . S
C996 N993 1.279 . S
C996 C995 1.358 . S
C996 H999 0.930 . S
C997 C994 1.348 . S
C997 C995 1.356 . S
H998 C992 0.930 . S
H999 C996 0.930 . S
C1000 C1002 1.348 . S
C1000 C1003 1.356 . S
C1000 O1030 1.325 . S
N1001 C1004 1.314 . S
N1001 C1005 1.279 . S
C1002 C1000 1.348 . S
C1002 C1004 1.353 . S
C1002 H1044 0.929 . S
C1003 C1000 1.356 . S
C1003 C1005 1.358 . S
C1003 H1045 0.930 . S
C1004 N1001 1.314 . S
C1004 C1002 1.353 . S
C1004 H1046 0.930 . S
C1005 N1001 1.279 . S
C1005 C1003 1.358 . S
C1005 H1047 0.930 . S
C1006 C1007 1.348 . S
C1006 C1008 1.356 . S
C1006 O1031 1.325 . S
C1007 C1006 1.348 . S
C1007 C1009 1.353 . S
C1007 H1048 0.929 . S
C1008 C1006 1.356 . S
C1008 C1010 1.358 . S
C1008 H1049 0.930 . S
C1009 C1007 1.353 . S
C1009 N1011 1.314 . S
C1009 H1050 0.930 . S
C1010 C1008 1.358 . S
C1010 N1011 1.279 . S
C1010 H1051 0.930 . S
N1011 C1009 1.314 . S
N1011 C1010 1.279 . S
C1012 C1014 1.353 . S
C1012 N1015 1.314 . S
C1012 H1018 0.930 . S
C1013 N1015 1.279 . S
C1013 C1016 1.358 . S
C1013 H1019 0.930 . S
C1014 C1012 1.353 . S
C1014 C1017 1.348 . S
C1014 H1052 0.929 . S
N1015 Li970 1.990 . S
N1015 C1012 1.314 . S
N1015 C1013 1.279 . S
C1016 C1013 1.358 . S
C1016 C1017 1.356 . S
C1016 H1053 0.930 . S
C1017 C1014 1.348 . S
C1017 C1016 1.356 . S
H1018 C1012 0.930 . S
H1019 C1013 0.930 . S
C1020 N1021 1.314 . S
C1020 C1022 1.353 . S
C1020 H1026 0.930 . S
N1021 Li971 1.990 . S
N1021 C1020 1.314 . S
N1021 C1024 1.279 . S
C1022 C1020 1.353 . S
C1022 C1025 1.348 . S
C1022 H1054 0.929 . S
C1023 C1024 1.358 . S
C1023 C1025 1.356 . S
C1023 H1055 0.930 . S
C1024 N1021 1.279 . S
C1024 C1023 1.358 . S
C1024 H1027 0.930 . S
C1025 C1022 1.348 . S
C1025 C1023 1.356 . S
H1026 C1020 0.930 . S
H1027 C1024 0.930 . S
O1028 Li968 1.956 . S
O1028 Li969 1.970 . S
O1028 Li970 1.961 . S
O1028 C972 1.325 . S
O1029 Li968 1.970 . S
O1029 Li969 1.956 . S
O1029 Li971 1.961 . S
O1029 C978 1.325 . S
O1030 Li968 1.961 . S
O1030 Li970 1.956 . S
O1030 Li971 1.970 . S
O1030 C1000 1.325 . S
O1031 Li969 1.961 . S
O1031 Li970 1.970 . S
O1031 Li971 1.956 . S
O1031 C1006 1.325 . S
H1032 C974 0.929 . S
H1033 C975 0.930 . S
H1034 C976 0.930 . S
H1035 C977 0.930 . S
H1036 C979 0.930 . S
H1037 C981 0.929 . S
H1038 C982 0.930 . S
H1039 C983 0.930 . S
H1040 C986 0.930 . S
H1041 C989 0.929 . S
H1042 C994 0.929 . S
H1043 C995 0.930 . S
H1044 C1002 0.929 . S
H1045 C1003 0.930 . S
H1046 C1004 0.930 . S
H1047 C1005 0.930 . S
H1048 C1007 0.929 . S
H1049 C1008 0.930 . S
H1050 C1009 0.930 . S
H1051 C1010 0.930 . S
H1052 C1014 0.929 . S
H1053 C1016 0.930 . S
H1054 C1022 0.929 . S
H1055 C1023 0.930 . S
Li1056 N1073 1.990 1_545 S
Li1056 O1116 1.956 . S
Li1056 O1117 1.970 . S
Li1056 O1118 1.961 . S
Li1057 N1081 1.990 . S
Li1057 O1116 1.970 . S
Li1057 O1117 1.956 . S
Li1057 O1119 1.961 . S
Li1058 N1103 1.990 . S
Li1058 O1116 1.961 . S
Li1058 O1118 1.956 . S
Li1058 O1119 1.970 . S
Li1059 N1109 1.990 . S
Li1059 O1117 1.961 . S
Li1059 O1118 1.970 . S
Li1059 O1119 1.956 . S
C1060 C1062 1.348 . S
C1060 C1063 1.356 . S
C1060 O1116 1.325 1_565 S
N1061 C1064 1.314 . S
N1061 C1065 1.279 . S
C1062 C1060 1.348 . S
C1062 C1064 1.353 . S
C1062 H1120 0.929 . S
C1063 C1060 1.356 . S
C1063 C1065 1.358 . S
C1063 H1121 0.930 . S
C1064 N1061 1.314 . S
C1064 C1062 1.353 . S
C1064 H1122 0.930 . S
C1065 N1061 1.279 . S
C1065 C1063 1.358 . S
C1065 H1123 0.930 . S
C1066 C1069 1.348 1_545 S
C1066 C1070 1.356 . S
C1066 O1117 1.325 . S
C1067 N1068 1.279 1_545 S
C1067 C1070 1.358 . S
C1067 H1124 0.930 . S
N1068 C1067 1.279 1_565 S
N1068 C1071 1.314 . S
C1069 C1066 1.348 1_565 S
C1069 C1071 1.353 . S
C1069 H1125 0.929 . S
C1070 C1066 1.356 . S
C1070 C1067 1.358 . S
C1070 H1126 0.930 . S
C1071 N1068 1.314 . S
C1071 C1069 1.353 . S
C1071 H1127 0.930 . S
C1072 N1073 1.314 . S
C1072 C1077 1.353 . S
C1072 H1078 0.930 . S
N1073 Li1056 1.990 1_565 S
N1073 C1072 1.314 . S
N1073 C1075 1.279 . S
C1074 C1075 1.358 . S
C1074 C1076 1.356 . S
C1074 H1128 0.930 . S
C1075 N1073 1.279 . S
C1075 C1074 1.358 . S
C1075 H1079 0.930 . S
C1076 C1074 1.356 . S
C1076 C1077 1.348 . S
C1077 C1072 1.353 . S
C1077 C1076 1.348 . S
C1077 H1129 0.929 . S
H1078 C1072 0.930 . S
H1079 C1075 0.930 . S
C1080 N1081 1.314 . S
C1080 C1082 1.353 . S
C1080 H1086 0.930 . S
N1081 Li1057 1.990 . S
N1081 C1080 1.314 . S
N1081 C1084 1.279 . S
C1082 C1080 1.353 . S
C1082 C1085 1.348 . S
C1082 H1130 0.929 . S
C1083 C1084 1.358 . S
C1083 C1085 1.356 . S
C1083 H1131 0.930 . S
C1084 N1081 1.279 . S
C1084 C1083 1.358 . S
C1084 H1087 0.930 . S
C1085 C1082 1.348 . S
C1085 C1083 1.356 . S
H1086 C1080 0.930 . S
H1087 C1084 0.930 . S
C1088 C1090 1.348 . S
C1088 C1091 1.356 . S
C1088 O1118 1.325 . S
N1089 C1092 1.314 . S
N1089 C1093 1.279 . S
C1090 C1088 1.348 . S
C1090 C1092 1.353 . S
C1090 H1132 0.929 . S
C1091 C1088 1.356 . S
C1091 C1093 1.358 . S
C1091 H1133 0.930 . S
C1092 N1089 1.314 . S
C1092 C1090 1.353 . S
C1092 H1134 0.930 . S
C1093 N1089 1.279 . S
C1093 C1091 1.358 . S
C1093 H1135 0.930 . S
C1094 C1095 1.348 . S
C1094 C1096 1.356 . S
C1094 O1119 1.325 . S
C1095 C1094 1.348 . S
C1095 C1097 1.353 . S
C1095 H1136 0.929 . S
C1096 C1094 1.356 . S
C1096 C1098 1.358 . S
C1096 H1137 0.930 . S
C1097 C1095 1.353 . S
C1097 N1099 1.314 . S
C1097 H1138 0.930 . S
C1098 C1096 1.358 . S
C1098 N1099 1.279 . S
C1098 H1139 0.930 . S
N1099 C1097 1.314 . S
N1099 C1098 1.279 . S
C1100 C1102 1.353 . S
C1100 N1103 1.314 . S
C1100 H1106 0.930 . S
C1101 N1103 1.279 . S
C1101 C1104 1.358 . S
C1101 H1107 0.930 . S
C1102 C1100 1.353 . S
C1102 C1105 1.348 . S
C1102 H1140 0.929 . S
N1103 Li1058 1.990 . S
N1103 C1100 1.314 . S
N1103 C1101 1.279 . S
C1104 C1101 1.358 . S
C1104 C1105 1.356 . S
C1104 H1141 0.930 . S
C1105 C1102 1.348 . S
C1105 C1104 1.356 . S
H1106 C1100 0.930 . S
H1107 C1101 0.930 . S
C1108 N1109 1.314 . S
C1108 C1110 1.353 . S
C1108 H1114 0.930 . S
N1109 Li1059 1.990 . S
N1109 C1108 1.314 . S
N1109 C1112 1.279 . S
C1110 C1108 1.353 . S
C1110 C1113 1.348 . S
C1110 H1142 0.929 . S
C1111 C1112 1.358 . S
C1111 C1113 1.356 . S
C1111 H1143 0.930 . S
C1112 N1109 1.279 . S
C1112 C1111 1.358 . S
C1112 H1115 0.930 . S
C1113 C1110 1.348 . S
C1113 C1111 1.356 . S
H1114 C1108 0.930 . S
H1115 C1112 0.930 . S
O1116 Li1056 1.956 . S
O1116 Li1057 1.970 . S
O1116 Li1058 1.961 . S
O1116 C1060 1.325 1_545 S
O1117 Li1056 1.970 . S
O1117 Li1057 1.956 . S
O1117 Li1059 1.961 . S
O1117 C1066 1.325 . S
O1118 Li1056 1.961 . S
O1118 Li1058 1.956 . S
O1118 Li1059 1.970 . S
O1118 C1088 1.325 . S
O1119 Li1057 1.961 . S
O1119 Li1058 1.970 . S
O1119 Li1059 1.956 . S
O1119 C1094 1.325 . S
H1120 C1062 0.929 . S
H1121 C1063 0.930 . S
H1122 C1064 0.930 . S
H1123 C1065 0.930 . S
H1124 C1067 0.930 . S
H1125 C1069 0.929 . S
H1126 C1070 0.930 . S
H1127 C1071 0.930 . S
H1128 C1074 0.930 . S
H1129 C1077 0.929 . S
H1130 C1082 0.929 . S
H1131 C1083 0.930 . S
H1132 C1090 0.929 . S
H1133 C1091 0.930 . S
H1134 C1092 0.930 . S
H1135 C1093 0.930 . S
H1136 C1095 0.929 . S
H1137 C1096 0.930 . S
H1138 C1097 0.930 . S
H1139 C1098 0.930 . S
H1140 C1102 0.929 . S
H1141 C1104 0.930 . S
H1142 C1110 0.929 . S
H1143 C1111 0.930 . S
Li1144 N1161 1.990 1_655 S
Li1144 O1204 1.956 . S
Li1144 O1205 1.970 . S
Li1144 O1206 1.961 . S
Li1145 N1169 1.990 . S
Li1145 O1204 1.970 . S
Li1145 O1205 1.956 . S
Li1145 O1207 1.961 . S
Li1146 N1191 1.990 . S
Li1146 O1204 1.961 . S
Li1146 O1206 1.956 . S
Li1146 O1207 1.970 . S
Li1147 N1197 1.990 . S
Li1147 O1205 1.961 . S
Li1147 O1206 1.970 . S
Li1147 O1207 1.956 . S
C1148 C1150 1.348 . S
C1148 C1151 1.356 . S
C1148 O1204 1.325 1_455 S
N1149 C1152 1.314 . S
N1149 C1153 1.279 . S
C1150 C1148 1.348 . S
C1150 C1152 1.353 . S
C1150 H1208 0.929 . S
C1151 C1148 1.356 . S
C1151 C1153 1.358 . S
C1151 H1209 0.930 . S
C1152 N1149 1.314 . S
C1152 C1150 1.353 . S
C1152 H1210 0.930 . S
C1153 N1149 1.279 . S
C1153 C1151 1.358 . S
C1153 H1211 0.930 . S
C1154 C1157 1.348 1_655 S
C1154 C1158 1.356 . S
C1154 O1205 1.325 . S
C1155 N1156 1.279 1_655 S
C1155 C1158 1.358 . S
C1155 H1212 0.930 . S
N1156 C1155 1.279 1_455 S
N1156 C1159 1.314 . S
C1157 C1154 1.348 1_455 S
C1157 C1159 1.353 . S
C1157 H1213 0.929 . S
C1158 C1154 1.356 . S
C1158 C1155 1.358 . S
C1158 H1214 0.930 . S
C1159 N1156 1.314 . S
C1159 C1157 1.353 . S
C1159 H1215 0.930 . S
C1160 N1161 1.314 . S
C1160 C1165 1.353 . S
C1160 H1166 0.930 . S
N1161 Li1144 1.990 1_455 S
N1161 C1160 1.314 . S
N1161 C1163 1.279 . S
C1162 C1163 1.358 . S
C1162 C1164 1.356 . S
C1162 H1216 0.930 . S
C1163 N1161 1.279 . S
C1163 C1162 1.358 . S
C1163 H1167 0.930 . S
C1164 C1162 1.356 . S
C1164 C1165 1.348 . S
C1165 C1160 1.353 . S
C1165 C1164 1.348 . S
C1165 H1217 0.929 . S
H1166 C1160 0.930 . S
H1167 C1163 0.930 . S
C1168 N1169 1.314 . S
C1168 C1170 1.353 . S
C1168 H1174 0.930 . S
N1169 Li1145 1.990 . S
N1169 C1168 1.314 . S
N1169 C1172 1.279 . S
C1170 C1168 1.353 . S
C1170 C1173 1.348 . S
C1170 H1218 0.929 . S
C1171 C1172 1.358 . S
C1171 C1173 1.356 . S
C1171 H1219 0.930 . S
C1172 N1169 1.279 . S
C1172 C1171 1.358 . S
C1172 H1175 0.930 . S
C1173 C1170 1.348 . S
C1173 C1171 1.356 . S
H1174 C1168 0.930 . S
H1175 C1172 0.930 . S
C1176 C1178 1.348 . S
C1176 C1179 1.356 . S
C1176 O1206 1.325 . S
N1177 C1180 1.314 . S
N1177 C1181 1.279 . S
C1178 C1176 1.348 . S
C1178 C1180 1.353 . S
C1178 H1220 0.929 . S
C1179 C1176 1.356 . S
C1179 C1181 1.358 . S
C1179 H1221 0.930 . S
C1180 N1177 1.314 . S
C1180 C1178 1.353 . S
C1180 H1222 0.930 . S
C1181 N1177 1.279 . S
C1181 C1179 1.358 . S
C1181 H1223 0.930 . S
C1182 C1183 1.348 . S
C1182 C1184 1.356 . S
C1182 O1207 1.325 . S
C1183 C1182 1.348 . S
C1183 C1185 1.353 . S
C1183 H1224 0.929 . S
C1184 C1182 1.356 . S
C1184 C1186 1.358 . S
C1184 H1225 0.930 . S
C1185 C1183 1.353 . S
C1185 N1187 1.314 . S
C1185 H1226 0.930 . S
C1186 C1184 1.358 . S
C1186 N1187 1.279 . S
C1186 H1227 0.930 . S
N1187 C1185 1.314 . S
N1187 C1186 1.279 . S
C1188 C1190 1.353 . S
C1188 N1191 1.314 . S
C1188 H1194 0.930 . S
C1189 N1191 1.279 . S
C1189 C1192 1.358 . S
C1189 H1195 0.930 . S
C1190 C1188 1.353 . S
C1190 C1193 1.348 . S
C1190 H1228 0.929 . S
N1191 Li1146 1.990 . S
N1191 C1188 1.314 . S
N1191 C1189 1.279 . S
C1192 C1189 1.358 . S
C1192 C1193 1.356 . S
C1192 H1229 0.930 . S
C1193 C1190 1.348 . S
C1193 C1192 1.356 . S
H1194 C1188 0.930 . S
H1195 C1189 0.930 . S
C1196 N1197 1.314 . S
C1196 C1198 1.353 . S
C1196 H1202 0.930 . S
N1197 Li1147 1.990 . S
N1197 C1196 1.314 . S
N1197 C1200 1.279 . S
C1198 C1196 1.353 . S
C1198 C1201 1.348 . S
C1198 H1230 0.929 . S
C1199 C1200 1.358 . S
C1199 C1201 1.356 . S
C1199 H1231 0.930 . S
C1200 N1197 1.279 . S
C1200 C1199 1.358 . S
C1200 H1203 0.930 . S
C1201 C1198 1.348 . S
C1201 C1199 1.356 . S
H1202 C1196 0.930 . S
H1203 C1200 0.930 . S
O1204 Li1144 1.956 . S
O1204 Li1145 1.970 . S
O1204 Li1146 1.961 . S
O1204 C1148 1.325 1_655 S
O1205 Li1144 1.970 . S
O1205 Li1145 1.956 . S
O1205 Li1147 1.961 . S
O1205 C1154 1.325 . S
O1206 Li1144 1.961 . S
O1206 Li1146 1.956 . S
O1206 Li1147 1.970 . S
O1206 C1176 1.325 . S
O1207 Li1145 1.961 . S
O1207 Li1146 1.970 . S
O1207 Li1147 1.956 . S
O1207 C1182 1.325 . S
H1208 C1150 0.929 . S
H1209 C1151 0.930 . S
H1210 C1152 0.930 . S
H1211 C1153 0.930 . S
H1212 C1155 0.930 . S
H1213 C1157 0.929 . S
H1214 C1158 0.930 . S
H1215 C1159 0.930 . S
H1216 C1162 0.930 . S
H1217 C1165 0.929 . S
H1218 C1170 0.929 . S
H1219 C1171 0.930 . S
H1220 C1178 0.929 . S
H1221 C1179 0.930 . S
H1222 C1180 0.930 . S
H1223 C1181 0.930 . S
H1224 C1183 0.929 . S
H1225 C1184 0.930 . S
H1226 C1185 0.930 . S
H1227 C1186 0.930 . S
H1228 C1190 0.929 . S
H1229 C1192 0.930 . S
H1230 C1198 0.929 . S
H1231 C1199 0.930 . S
Li1232 N1249 1.990 . S
Li1232 O1292 1.956 . S
Li1232 O1293 1.970 . S
Li1232 O1294 1.961 . S
Li1233 N1257 1.990 . S
Li1233 O1292 1.970 . S
Li1233 O1293 1.956 . S
Li1233 O1295 1.961 . S
Li1234 N1279 1.990 . S
Li1234 O1292 1.961 . S
Li1234 O1294 1.956 . S
Li1234 O1295 1.970 . S
Li1235 N1285 1.990 . S
Li1235 O1293 1.961 . S
Li1235 O1294 1.970 . S
Li1235 O1295 1.956 . S
C1236 C1238 1.348 . S
C1236 C1239 1.356 . S
C1236 O1292 1.325 . S
N1237 C1240 1.314 . S
N1237 C1241 1.279 . S
C1238 C1236 1.348 . S
C1238 C1240 1.353 . S
C1238 H1296 0.929 . S
C1239 C1236 1.356 . S
C1239 C1241 1.358 . S
C1239 H1297 0.930 . S
C1240 N1237 1.314 . S
C1240 C1238 1.353 . S
C1240 H1298 0.930 . S
C1241 N1237 1.279 . S
C1241 C1239 1.358 . S
C1241 H1299 0.930 . S
C1242 C1245 1.348 . S
C1242 C1246 1.356 . S
C1242 O1293 1.325 . S
C1243 N1244 1.279 . S
C1243 C1246 1.358 . S
C1243 H1300 0.930 . S
N1244 C1243 1.279 . S
N1244 C1247 1.314 . S
C1245 C1242 1.348 . S
C1245 C1247 1.353 . S
C1245 H1301 0.929 . S
C1246 C1242 1.356 . S
C1246 C1243 1.358 . S
C1246 H1302 0.930 . S
C1247 N1244 1.314 . S
C1247 C1245 1.353 . S
C1247 H1303 0.930 . S
C1248 N1249 1.314 . S
C1248 C1253 1.353 . S
C1248 H1254 0.930 . S
N1249 Li1232 1.990 . S
N1249 C1248 1.314 . S
N1249 C1251 1.279 . S
C1250 C1251 1.358 . S
C1250 C1252 1.356 . S
C1250 H1304 0.930 . S
C1251 N1249 1.279 . S
C1251 C1250 1.358 . S
C1251 H1255 0.930 . S
C1252 C1250 1.356 . S
C1252 C1253 1.348 . S
C1253 C1248 1.353 . S
C1253 C1252 1.348 . S
C1253 H1305 0.929 . S
H1254 C1248 0.930 . S
H1255 C1251 0.930 . S
C1256 N1257 1.314 . S
C1256 C1258 1.353 . S
C1256 H1262 0.930 . S
N1257 Li1233 1.990 . S
N1257 C1256 1.314 . S
N1257 C1260 1.279 . S
C1258 C1256 1.353 . S
C1258 C1261 1.348 . S
C1258 H1306 0.929 . S
C1259 C1260 1.358 . S
C1259 C1261 1.356 . S
C1259 H1307 0.930 . S
C1260 N1257 1.279 . S
C1260 C1259 1.358 . S
C1260 H1263 0.930 . S
C1261 C1258 1.348 . S
C1261 C1259 1.356 . S
H1262 C1256 0.930 . S
H1263 C1260 0.930 . S
C1264 C1266 1.348 . S
C1264 C1267 1.356 . S
C1264 O1294 1.325 . S
N1265 C1268 1.314 . S
N1265 C1269 1.279 . S
C1266 C1264 1.348 . S
C1266 C1268 1.353 . S
C1266 H1308 0.929 . S
C1267 C1264 1.356 . S
C1267 C1269 1.358 . S
C1267 H1309 0.930 . S
C1268 N1265 1.314 . S
C1268 C1266 1.353 . S
C1268 H1310 0.930 . S
C1269 N1265 1.279 . S
C1269 C1267 1.358 . S
C1269 H1311 0.930 . S
C1270 C1271 1.348 . S
C1270 C1272 1.356 . S
C1270 O1295 1.325 . S
C1271 C1270 1.348 . S
C1271 C1273 1.353 . S
C1271 H1312 0.929 . S
C1272 C1270 1.356 . S
C1272 C1274 1.358 . S
C1272 H1313 0.930 . S
C1273 C1271 1.353 . S
C1273 N1275 1.314 . S
C1273 H1314 0.930 . S
C1274 C1272 1.358 . S
C1274 N1275 1.279 . S
C1274 H1315 0.930 . S
N1275 C1273 1.314 . S
N1275 C1274 1.279 . S
C1276 C1278 1.353 . S
C1276 N1279 1.314 . S
C1276 H1282 0.930 . S
C1277 N1279 1.279 . S
C1277 C1280 1.358 . S
C1277 H1283 0.930 . S
C1278 C1276 1.353 . S
C1278 C1281 1.348 . S
C1278 H1316 0.929 . S
N1279 Li1234 1.990 . S
N1279 C1276 1.314 . S
N1279 C1277 1.279 . S
C1280 C1277 1.358 . S
C1280 C1281 1.356 . S
C1280 H1317 0.930 . S
C1281 C1278 1.348 . S
C1281 C1280 1.356 . S
H1282 C1276 0.930 . S
H1283 C1277 0.930 . S
C1284 N1285 1.314 . S
C1284 C1286 1.353 . S
C1284 H1290 0.930 . S
N1285 Li1235 1.990 . S
N1285 C1284 1.314 . S
N1285 C1288 1.279 . S
C1286 C1284 1.353 . S
C1286 C1289 1.348 . S
C1286 H1318 0.929 . S
C1287 C1288 1.358 . S
C1287 C1289 1.356 . S
C1287 H1319 0.930 . S
C1288 N1285 1.279 . S
C1288 C1287 1.358 . S
C1288 H1291 0.930 . S
C1289 C1286 1.348 . S
C1289 C1287 1.356 . S
H1290 C1284 0.930 . S
H1291 C1288 0.930 . S
O1292 Li1232 1.956 . S
O1292 Li1233 1.970 . S
O1292 Li1234 1.961 . S
O1292 C1236 1.325 . S
O1293 Li1232 1.970 . S
O1293 Li1233 1.956 . S
O1293 Li1235 1.961 . S
O1293 C1242 1.325 . S
O1294 Li1232 1.961 . S
O1294 Li1234 1.956 . S
O1294 Li1235 1.970 . S
O1294 C1264 1.325 . S
O1295 Li1233 1.961 . S
O1295 Li1234 1.970 . S
O1295 Li1235 1.956 . S
O1295 C1270 1.325 . S
H1296 C1238 0.929 . S
H1297 C1239 0.930 . S
H1298 C1240 0.930 . S
H1299 C1241 0.930 . S
H1300 C1243 0.930 . S
H1301 C1245 0.929 . S
H1302 C1246 0.930 . S
H1303 C1247 0.930 . S
H1304 C1250 0.930 . S
H1305 C1253 0.929 . S
H1306 C1258 0.929 . S
H1307 C1259 0.930 . S
H1308 C1266 0.929 . S
H1309 C1267 0.930 . S
H1310 C1268 0.930 . S
H1311 C1269 0.930 . S
H1312 C1271 0.929 . S
H1313 C1272 0.930 . S
H1314 C1273 0.930 . S
H1315 C1274 0.930 . S
H1316 C1278 0.929 . S
H1317 C1280 0.930 . S
H1318 C1286 0.929 . S
H1319 C1287 0.930 . S
Li1320 N1337 1.990 . S
Li1320 O1380 1.956 . S
Li1320 O1381 1.970 . S
Li1320 O1382 1.961 . S
Li1321 N1345 1.990 . S
Li1321 O1380 1.970 . S
Li1321 O1381 1.956 . S
Li1321 O1383 1.961 . S
Li1322 N1367 1.990 . S
Li1322 O1380 1.961 . S
Li1322 O1382 1.956 . S
Li1322 O1383 1.970 . S
Li1323 N1373 1.990 . S
Li1323 O1381 1.961 . S
Li1323 O1382 1.970 . S
Li1323 O1383 1.956 . S
C1324 C1326 1.348 . S
C1324 C1327 1.356 . S
C1324 O1380 1.325 . S
N1325 C1328 1.314 . S
N1325 C1329 1.279 . S
C1326 C1324 1.348 . S
C1326 C1328 1.353 . S
C1326 H1384 0.929 . S
C1327 C1324 1.356 . S
C1327 C1329 1.358 . S
C1327 H1385 0.930 . S
C1328 N1325 1.314 . S
C1328 C1326 1.353 . S
C1328 H1386 0.930 . S
C1329 N1325 1.279 . S
C1329 C1327 1.358 . S
C1329 H1387 0.930 . S
C1330 C1333 1.348 . S
C1330 C1334 1.356 . S
C1330 O1381 1.325 . S
C1331 N1332 1.279 . S
C1331 C1334 1.358 . S
C1331 H1388 0.930 . S
N1332 C1331 1.279 . S
N1332 C1335 1.314 . S
C1333 C1330 1.348 . S
C1333 C1335 1.353 . S
C1333 H1389 0.929 . S
C1334 C1330 1.356 . S
C1334 C1331 1.358 . S
C1334 H1390 0.930 . S
C1335 N1332 1.314 . S
C1335 C1333 1.353 . S
C1335 H1391 0.930 . S
C1336 N1337 1.314 . S
C1336 C1341 1.353 . S
C1336 H1342 0.930 . S
N1337 Li1320 1.990 . S
N1337 C1336 1.314 . S
N1337 C1339 1.279 . S
C1338 C1339 1.358 . S
C1338 C1340 1.356 . S
C1338 H1392 0.930 . S
C1339 N1337 1.279 . S
C1339 C1338 1.358 . S
C1339 H1343 0.930 . S
C1340 C1338 1.356 . S
C1340 C1341 1.348 . S
C1341 C1336 1.353 . S
C1341 C1340 1.348 . S
C1341 H1393 0.929 . S
H1342 C1336 0.930 . S
H1343 C1339 0.930 . S
C1344 N1345 1.314 . S
C1344 C1346 1.353 . S
C1344 H1350 0.930 . S
N1345 Li1321 1.990 . S
N1345 C1344 1.314 . S
N1345 C1348 1.279 . S
C1346 C1344 1.353 . S
C1346 C1349 1.348 . S
C1346 H1394 0.929 . S
C1347 C1348 1.358 . S
C1347 C1349 1.356 . S
C1347 H1395 0.930 . S
C1348 N1345 1.279 . S
C1348 C1347 1.358 . S
C1348 H1351 0.930 . S
C1349 C1346 1.348 . S
C1349 C1347 1.356 . S
H1350 C1344 0.930 . S
H1351 C1348 0.930 . S
C1352 C1354 1.348 . S
C1352 C1355 1.356 . S
C1352 O1382 1.325 . S
N1353 C1356 1.314 . S
N1353 C1357 1.279 . S
C1354 C1352 1.348 . S
C1354 C1356 1.353 . S
C1354 H1396 0.929 . S
C1355 C1352 1.356 . S
C1355 C1357 1.358 . S
C1355 H1397 0.930 . S
C1356 N1353 1.314 . S
C1356 C1354 1.353 . S
C1356 H1398 0.930 . S
C1357 N1353 1.279 . S
C1357 C1355 1.358 . S
C1357 H1399 0.930 . S
C1358 C1359 1.348 . S
C1358 C1360 1.356 . S
C1358 O1383 1.325 . S
C1359 C1358 1.348 . S
C1359 C1361 1.353 . S
C1359 H1400 0.929 . S
C1360 C1358 1.356 . S
C1360 C1362 1.358 . S
C1360 H1401 0.930 . S
C1361 C1359 1.353 . S
C1361 N1363 1.314 . S
C1361 H1402 0.930 . S
C1362 C1360 1.358 . S
C1362 N1363 1.279 . S
C1362 H1403 0.930 . S
N1363 C1361 1.314 . S
N1363 C1362 1.279 . S
C1364 C1366 1.353 . S
C1364 N1367 1.314 . S
C1364 H1370 0.930 . S
C1365 N1367 1.279 . S
C1365 C1368 1.358 . S
C1365 H1371 0.930 . S
C1366 C1364 1.353 . S
C1366 C1369 1.348 . S
C1366 H1404 0.929 . S
N1367 Li1322 1.990 . S
N1367 C1364 1.314 . S
N1367 C1365 1.279 . S
C1368 C1365 1.358 . S
C1368 C1369 1.356 . S
C1368 H1405 0.930 . S
C1369 C1366 1.348 . S
C1369 C1368 1.356 . S
H1370 C1364 0.930 . S
H1371 C1365 0.930 . S
C1372 N1373 1.314 . S
C1372 C1374 1.353 . S
C1372 H1378 0.930 . S
N1373 Li1323 1.990 . S
N1373 C1372 1.314 . S
N1373 C1376 1.279 . S
C1374 C1372 1.353 . S
C1374 C1377 1.348 . S
C1374 H1406 0.929 . S
C1375 C1376 1.358 . S
C1375 C1377 1.356 . S
C1375 H1407 0.930 . S
C1376 N1373 1.279 . S
C1376 C1375 1.358 . S
C1376 H1379 0.930 . S
C1377 C1374 1.348 . S
C1377 C1375 1.356 . S
H1378 C1372 0.930 . S
H1379 C1376 0.930 . S
O1380 Li1320 1.956 . S
O1380 Li1321 1.970 . S
O1380 Li1322 1.961 . S
O1380 C1324 1.325 . S
O1381 Li1320 1.970 . S
O1381 Li1321 1.956 . S
O1381 Li1323 1.961 . S
O1381 C1330 1.325 . S
O1382 Li1320 1.961 . S
O1382 Li1322 1.956 . S
O1382 Li1323 1.970 . S
O1382 C1352 1.325 . S
O1383 Li1321 1.961 . S
O1383 Li1322 1.970 . S
O1383 Li1323 1.956 . S
O1383 C1358 1.325 . S
H1384 C1326 0.929 . S
H1385 C1327 0.930 . S
H1386 C1328 0.930 . S
H1387 C1329 0.930 . S
H1388 C1331 0.930 . S
H1389 C1333 0.929 . S
H1390 C1334 0.930 . S
H1391 C1335 0.930 . S
H1392 C1338 0.930 . S
H1393 C1341 0.929 . S
H1394 C1346 0.929 . S
H1395 C1347 0.930 . S
H1396 C1354 0.929 . S
H1397 C1355 0.930 . S
H1398 C1356 0.930 . S
H1399 C1357 0.930 . S
H1400 C1359 0.929 . S
H1401 C1360 0.930 . S
H1402 C1361 0.930 . S
H1403 C1362 0.930 . S
H1404 C1366 0.929 . S
H1405 C1368 0.930 . S
H1406 C1374 0.929 . S
H1407 C1375 0.930 . S
Li1408 N1425 1.990 . S
Li1408 O1468 1.956 . S
Li1408 O1469 1.970 . S
Li1408 O1470 1.961 . S
Li1409 N1433 1.990 . S
Li1409 O1468 1.970 . S
Li1409 O1469 1.956 . S
Li1409 O1471 1.961 . S
Li1410 N1455 1.990 . S
Li1410 O1468 1.961 . S
Li1410 O1470 1.956 . S
Li1410 O1471 1.970 . S
Li1411 N1461 1.990 1_545 S
Li1411 O1469 1.961 . S
Li1411 O1470 1.970 . S
Li1411 O1471 1.956 . S
C1412 C1414 1.348 . S
C1412 C1415 1.356 . S
C1412 O1468 1.325 . S
N1413 C1416 1.314 . S
N1413 C1417 1.279 . S
C1414 C1412 1.348 . S
C1414 C1416 1.353 . S
C1414 H1472 0.929 . S
C1415 C1412 1.356 . S
C1415 C1417 1.358 . S
C1415 H1473 0.930 . S
C1416 N1413 1.314 . S
C1416 C1414 1.353 . S
C1416 H1474 0.930 . S
C1417 N1413 1.279 . S
C1417 C1415 1.358 . S
C1417 H1475 0.930 . S
C1418 C1421 1.348 . S
C1418 C1422 1.356 . S
C1418 O1469 1.325 1_565 S
C1419 N1420 1.279 . S
C1419 C1422 1.358 . S
C1419 H1476 0.930 . S
N1420 C1419 1.279 . S
N1420 C1423 1.314 . S
C1421 C1418 1.348 . S
C1421 C1423 1.353 . S
C1421 H1477 0.929 1_565 S
C1422 C1418 1.356 . S
C1422 C1419 1.358 . S
C1422 H1478 0.930 . S
C1423 N1420 1.314 . S
C1423 C1421 1.353 . S
C1423 H1479 0.930 . S
C1424 N1425 1.314 . S
C1424 C1429 1.353 . S
C1424 H1430 0.930 1_545 S
N1425 Li1408 1.990 . S
N1425 C1424 1.314 . S
N1425 C1427 1.279 . S
C1426 C1427 1.358 . S
C1426 C1428 1.356 . S
C1426 H1480 0.930 . S
C1427 N1425 1.279 . S
C1427 C1426 1.358 . S
C1427 H1431 0.930 . S
C1428 C1426 1.356 . S
C1428 C1429 1.348 . S
C1429 C1424 1.353 . S
C1429 C1428 1.348 . S
C1429 H1481 0.929 1_545 S
H1430 C1424 0.930 1_565 S
H1431 C1427 0.930 . S
C1432 N1433 1.314 . S
C1432 C1434 1.353 . S
C1432 H1438 0.930 . S
N1433 Li1409 1.990 . S
N1433 C1432 1.314 . S
N1433 C1436 1.279 . S
C1434 C1432 1.353 . S
C1434 C1437 1.348 . S
C1434 H1482 0.929 . S
C1435 C1436 1.358 . S
C1435 C1437 1.356 . S
C1435 H1483 0.930 . S
C1436 N1433 1.279 . S
C1436 C1435 1.358 . S
C1436 H1439 0.930 . S
C1437 C1434 1.348 . S
C1437 C1435 1.356 . S
H1438 C1432 0.930 . S
H1439 C1436 0.930 . S
C1440 C1442 1.348 1_545 S
C1440 C1443 1.356 . S
C1440 O1470 1.325 . S
N1441 C1444 1.314 . S
N1441 C1445 1.279 1_565 S
C1442 C1440 1.348 1_565 S
C1442 C1444 1.353 . S
C1442 H1484 0.929 . S
C1443 C1440 1.356 . S
C1443 C1445 1.358 . S
C1443 H1485 0.930 . S
C1444 N1441 1.314 . S
C1444 C1442 1.353 . S
C1444 H1486 0.930 . S
C1445 N1441 1.279 1_545 S
C1445 C1443 1.358 . S
C1445 H1487 0.930 . S
C1446 C1447 1.348 . S
C1446 C1448 1.356 . S
C1446 O1471 1.325 . S
C1447 C1446 1.348 . S
C1447 C1449 1.353 . S
C1447 H1488 0.929 . S
C1448 C1446 1.356 . S
C1448 C1450 1.358 . S
C1448 H1489 0.930 . S
C1449 C1447 1.353 . S
C1449 N1451 1.314 . S
C1449 H1490 0.930 . S
C1450 C1448 1.358 . S
C1450 N1451 1.279 . S
C1450 H1491 0.930 . S
N1451 C1449 1.314 . S
N1451 C1450 1.279 . S
C1452 C1454 1.353 . S
C1452 N1455 1.314 . S
C1452 H1458 0.930 . S
C1453 N1455 1.279 . S
C1453 C1456 1.358 . S
C1453 H1459 0.930 . S
C1454 C1452 1.353 . S
C1454 C1457 1.348 . S
C1454 H1492 0.929 . S
N1455 Li1410 1.990 . S
N1455 C1452 1.314 . S
N1455 C1453 1.279 . S
C1456 C1453 1.358 . S
C1456 C1457 1.356 . S
C1456 H1493 0.930 . S
C1457 C1454 1.348 . S
C1457 C1456 1.356 . S
H1458 C1452 0.930 . S
H1459 C1453 0.930 . S
C1460 N1461 1.314 . S
C1460 C1462 1.353 . S
C1460 H1466 0.930 . S
N1461 Li1411 1.990 1_565 S
N1461 C1460 1.314 . S
N1461 C1464 1.279 . S
C1462 C1460 1.353 . S
C1462 C1465 1.348 . S
C1462 H1494 0.929 . S
C1463 C1464 1.358 . S
C1463 C1465 1.356 . S
C1463 H1495 0.930 . S
C1464 N1461 1.279 . S
C1464 C1463 1.358 . S
C1464 H1467 0.930 . S
C1465 C1462 1.348 . S
C1465 C1463 1.356 . S
H1466 C1460 0.930 . S
H1467 C1464 0.930 . S
O1468 Li1408 1.956 . S
O1468 Li1409 1.970 . S
O1468 Li1410 1.961 . S
O1468 C1412 1.325 . S
O1469 Li1408 1.970 . S
O1469 Li1409 1.956 . S
O1469 Li1411 1.961 . S
O1469 C1418 1.325 1_545 S
O1470 Li1408 1.961 . S
O1470 Li1410 1.956 . S
O1470 Li1411 1.970 . S
O1470 C1440 1.325 . S
O1471 Li1409 1.961 . S
O1471 Li1410 1.970 . S
O1471 Li1411 1.956 . S
O1471 C1446 1.325 . S
H1472 C1414 0.929 . S
H1473 C1415 0.930 . S
H1474 C1416 0.930 . S
H1475 C1417 0.930 . S
H1476 C1419 0.930 . S
H1477 C1421 0.929 1_545 S
H1478 C1422 0.930 . S
H1479 C1423 0.930 . S
H1480 C1426 0.930 . S
H1481 C1429 0.929 1_565 S
H1482 C1434 0.929 . S
H1483 C1435 0.930 . S
H1484 C1442 0.929 . S
H1485 C1443 0.930 . S
H1486 C1444 0.930 . S
H1487 C1445 0.930 . S
H1488 C1447 0.929 . S
H1489 C1448 0.930 . S
H1490 C1449 0.930 . S
H1491 C1450 0.930 . S
H1492 C1454 0.929 . S
H1493 C1456 0.930 . S
H1494 C1462 0.929 . S
H1495 C1463 0.930 . S
Li1496 N1513 1.990 . S
Li1496 O1556 1.956 . S
Li1496 O1557 1.970 . S
Li1496 O1558 1.961 . S
Li1497 N1521 1.990 . S
Li1497 O1556 1.970 . S
Li1497 O1557 1.956 . S
Li1497 O1559 1.961 . S
Li1498 N1543 1.990 1_655 S
Li1498 O1556 1.961 . S
Li1498 O1558 1.956 . S
Li1498 O1559 1.970 . S
Li1499 N1549 1.990 . S
Li1499 O1557 1.961 . S
Li1499 O1558 1.970 . S
Li1499 O1559 1.956 . S
C1500 C1502 1.348 . S
C1500 C1503 1.356 . S
C1500 O1556 1.325 1_455 S
N1501 C1504 1.314 . S
N1501 C1505 1.279 . S
C1502 C1500 1.348 . S
C1502 C1504 1.353 . S
C1502 H1560 0.929 1_455 S
C1503 C1500 1.356 . S
C1503 C1505 1.358 . S
C1503 H1561 0.930 . S
C1504 N1501 1.314 . S
C1504 C1502 1.353 . S
C1504 H1562 0.930 . S
C1505 N1501 1.279 . S
C1505 C1503 1.358 . S
C1505 H1563 0.930 . S
C1506 C1509 1.348 . S
C1506 C1510 1.356 . S
C1506 O1557 1.325 . S
C1507 N1508 1.279 . S
C1507 C1510 1.358 . S
C1507 H1564 0.930 . S
N1508 C1507 1.279 . S
N1508 C1511 1.314 . S
C1509 C1506 1.348 . S
C1509 C1511 1.353 . S
C1509 H1565 0.929 . S
C1510 C1506 1.356 . S
C1510 C1507 1.358 . S
C1510 H1566 0.930 . S
C1511 N1508 1.314 . S
C1511 C1509 1.353 . S
C1511 H1567 0.930 . S
C1512 N1513 1.314 . S
C1512 C1517 1.353 . S
C1512 H1518 0.930 . S
N1513 Li1496 1.990 . S
N1513 C1512 1.314 . S
N1513 C1515 1.279 . S
C1514 C1515 1.358 . S
C1514 C1516 1.356 . S
C1514 H1568 0.930 . S
C1515 N1513 1.279 . S
C1515 C1514 1.358 . S
C1515 H1519 0.930 . S
C1516 C1514 1.356 . S
C1516 C1517 1.348 . S
C1517 C1512 1.353 . S
C1517 C1516 1.348 . S
C1517 H1569 0.929 . S
H1518 C1512 0.930 . S
H1519 C1515 0.930 . S
C1520 N1521 1.314 . S
C1520 C1522 1.353 . S
C1520 H1526 0.930 1_655 S
N1521 Li1497 1.990 . S
N1521 C1520 1.314 . S
N1521 C1524 1.279 . S
C1522 C1520 1.353 . S
C1522 C1525 1.348 . S
C1522 H1570 0.929 1_655 S
C1523 C1524 1.358 . S
C1523 C1525 1.356 . S
C1523 H1571 0.930 . S
C1524 N1521 1.279 . S
C1524 C1523 1.358 . S
C1524 H1527 0.930 . S
C1525 C1522 1.348 . S
C1525 C1523 1.356 . S
H1526 C1520 0.930 1_455 S
H1527 C1524 0.930 . S
C1528 C1530 1.348 . S
C1528 C1531 1.356 . S
C1528 O1558 1.325 . S
N1529 C1532 1.314 . S
N1529 C1533 1.279 . S
C1530 C1528 1.348 . S
C1530 C1532 1.353 . S
C1530 H1572 0.929 . S
C1531 C1528 1.356 . S
C1531 C1533 1.358 . S
C1531 H1573 0.930 . S
C1532 N1529 1.314 . S
C1532 C1530 1.353 . S
C1532 H1574 0.930 . S
C1533 N1529 1.279 . S
C1533 C1531 1.358 . S
C1533 H1575 0.930 . S
C1534 C1535 1.348 1_655 S
C1534 C1536 1.356 . S
C1534 O1559 1.325 . S
C1535 C1534 1.348 1_455 S
C1535 C1537 1.353 . S
C1535 H1576 0.929 . S
C1536 C1534 1.356 . S
C1536 C1538 1.358 . S
C1536 H1577 0.930 . S
C1537 C1535 1.353 . S
C1537 N1539 1.314 . S
C1537 H1578 0.930 . S
C1538 C1536 1.358 . S
C1538 N1539 1.279 1_655 S
C1538 H1579 0.930 . S
N1539 C1537 1.314 . S
N1539 C1538 1.279 1_455 S
C1540 C1542 1.353 . S
C1540 N1543 1.314 . S
C1540 H1546 0.930 . S
C1541 N1543 1.279 . S
C1541 C1544 1.358 . S
C1541 H1547 0.930 . S
C1542 C1540 1.353 . S
C1542 C1545 1.348 . S
C1542 H1580 0.929 . S
N1543 Li1498 1.990 1_455 S
N1543 C1540 1.314 . S
N1543 C1541 1.279 . S
C1544 C1541 1.358 . S
C1544 C1545 1.356 . S
C1544 H1581 0.930 . S
C1545 C1542 1.348 . S
C1545 C1544 1.356 . S
H1546 C1540 0.930 . S
H1547 C1541 0.930 . S
C1548 N1549 1.314 . S
C1548 C1550 1.353 . S
C1548 H1554 0.930 . S
N1549 Li1499 1.990 . S
N1549 C1548 1.314 . S
N1549 C1552 1.279 . S
C1550 C1548 1.353 . S
C1550 C1553 1.348 . S
C1550 H1582 0.929 . S
C1551 C1552 1.358 . S
C1551 C1553 1.356 . S
C1551 H1583 0.930 . S
C1552 N1549 1.279 . S
C1552 C1551 1.358 . S
C1552 H1555 0.930 . S
C1553 C1550 1.348 . S
C1553 C1551 1.356 . S
H1554 C1548 0.930 . S
H1555 C1552 0.930 . S
O1556 Li1496 1.956 . S
O1556 Li1497 1.970 . S
O1556 Li1498 1.961 . S
O1556 C1500 1.325 1_655 S
O1557 Li1496 1.970 . S
O1557 Li1497 1.956 . S
O1557 Li1499 1.961 . S
O1557 C1506 1.325 . S
O1558 Li1496 1.961 . S
O1558 Li1498 1.956 . S
O1558 Li1499 1.970 . S
O1558 C1528 1.325 . S
O1559 Li1497 1.961 . S
O1559 Li1498 1.970 . S
O1559 Li1499 1.956 . S
O1559 C1534 1.325 . S
H1560 C1502 0.929 1_655 S
H1561 C1503 0.930 . S
H1562 C1504 0.930 . S
H1563 C1505 0.930 . S
H1564 C1507 0.930 . S
H1565 C1509 0.929 . S
H1566 C1510 0.930 . S
H1567 C1511 0.930 . S
H1568 C1514 0.930 . S
H1569 C1517 0.929 . S
H1570 C1522 0.929 1_455 S
H1571 C1523 0.930 . S
H1572 C1530 0.929 . S
H1573 C1531 0.930 . S
H1574 C1532 0.930 . S
H1575 C1533 0.930 . S
H1576 C1535 0.929 . S
H1577 C1536 0.930 . S
H1578 C1537 0.930 . S
H1579 C1538 0.930 . S
H1580 C1542 0.929 . S
H1581 C1544 0.930 . S
H1582 C1550 0.929 . S
H1583 C1551 0.930 . S
H1584 C1592 0.930 . S
H1585 C1595 0.930 . S
H1586 C1597 0.930 . S
H1587 C1598 0.970 . S
H1588 C1598 0.970 . S
H1589 C1600 0.930 . S
H1590 C1602 0.930 . S
H1591 C1604 0.930 . S
C1592 H1584 0.930 . S
C1592 C1593 1.382 . S
C1592 C1594 1.426 . S
C1593 C1592 1.382 . S
C1593 C1597 1.389 . S
C1594 C1592 1.426 . S
C1594 C1595 1.375 . S
C1594 C1598 1.532 . S
C1595 H1585 0.930 . S
C1595 C1594 1.375 . S
C1595 C1596 1.416 . S
C1596 C1595 1.416 . S
C1596 C1597 1.371 . S
C1597 H1586 0.930 . S
C1597 C1593 1.389 . S
C1597 C1596 1.371 . S
C1598 H1587 0.970 . S
C1598 H1588 0.970 . S
C1598 C1594 1.532 . S
C1598 C1599 1.499 . S
C1599 C1598 1.499 . S
C1599 C1600 1.370 . S
C1599 C1604 1.415 . S
C1600 H1589 0.930 . S
C1600 C1599 1.370 . S
C1600 C1601 1.407 . S
C1601 C1600 1.407 . S
C1601 C1602 1.365 . S
C1602 H1590 0.930 . S
C1602 C1601 1.365 . S
C1602 C1603 1.393 . S
C1603 C1602 1.393 . S
C1603 C1604 1.387 . S
C1604 H1591 0.930 . S
C1604 C1599 1.415 . S
C1604 C1603 1.387 . S
H1605 C1613 0.930 . S
H1606 C1616 0.930 . S
H1607 C1618 0.930 . S
H1608 C1619 0.970 . S
H1609 C1619 0.970 . S
H1610 C1621 0.930 . S
H1611 C1623 0.930 . S
H1612 C1625 0.930 . S
C1613 H1605 0.930 . S
C1613 C1614 1.382 . S
C1613 C1615 1.426 . S
C1614 C1613 1.382 . S
C1614 C1618 1.389 . S
C1615 C1613 1.426 . S
C1615 C1616 1.375 . S
C1615 C1619 1.532 . S
C1616 H1606 0.930 . S
C1616 C1615 1.375 . S
C1616 C1617 1.416 . S
C1617 C1616 1.416 . S
C1617 C1618 1.371 . S
C1618 H1607 0.930 . S
C1618 C1614 1.389 . S
C1618 C1617 1.371 . S
C1619 H1608 0.970 . S
C1619 H1609 0.970 . S
C1619 C1615 1.532 . S
C1619 C1620 1.499 . S
C1620 C1619 1.499 . S
C1620 C1621 1.370 . S
C1620 C1625 1.415 . S
C1621 H1610 0.930 . S
C1621 C1620 1.370 . S
C1621 C1622 1.407 . S
C1622 C1621 1.407 . S
C1622 C1623 1.365 . S
C1623 H1611 0.930 . S
C1623 C1622 1.365 . S
C1623 C1624 1.393 . S
C1624 C1623 1.393 . S
C1624 C1625 1.387 . S
C1625 H1612 0.930 . S
C1625 C1620 1.415 . S
C1625 C1624 1.387 . S
H1626 C1634 0.930 . S
H1627 C1637 0.930 . S
H1628 C1639 0.930 . S
H1629 C1640 0.970 . S
H1630 C1640 0.970 . S
H1631 C1642 0.930 . S
H1632 C1644 0.930 . S
H1633 C1646 0.930 . S
C1634 H1626 0.930 . S
C1634 C1635 1.382 . S
C1634 C1636 1.426 . S
C1635 C1634 1.382 . S
C1635 C1639 1.389 . S
C1636 C1634 1.426 . S
C1636 C1637 1.375 . S
C1636 C1640 1.532 . S
C1637 H1627 0.930 . S
C1637 C1636 1.375 . S
C1637 C1638 1.416 . S
C1638 C1637 1.416 . S
C1638 C1639 1.371 . S
C1639 H1628 0.930 . S
C1639 C1635 1.389 . S
C1639 C1638 1.371 . S
C1640 H1629 0.970 . S
C1640 H1630 0.970 . S
C1640 C1636 1.532 . S
C1640 C1641 1.499 . S
C1641 C1640 1.499 . S
C1641 C1642 1.370 . S
C1641 C1646 1.415 . S
C1642 H1631 0.930 . S
C1642 C1641 1.370 . S
C1642 C1643 1.407 . S
C1643 C1642 1.407 . S
C1643 C1644 1.365 . S
C1644 H1632 0.930 . S
C1644 C1643 1.365 . S
C1644 C1645 1.393 . S
C1645 C1644 1.393 . S
C1645 C1646 1.387 . S
C1646 H1633 0.930 . S
C1646 C1641 1.415 . S
C1646 C1645 1.387 . S
H1647 C1655 0.930 . S
H1648 C1658 0.930 . S
H1649 C1660 0.930 . S
H1650 C1661 0.970 . S
H1651 C1661 0.970 . S
H1652 C1663 0.930 . S
H1653 C1665 0.930 . S
H1654 C1667 0.930 . S
C1655 H1647 0.930 . S
C1655 C1656 1.382 . S
C1655 C1657 1.426 . S
C1656 C1655 1.382 . S
C1656 C1660 1.389 . S
C1657 C1655 1.426 . S
C1657 C1658 1.375 . S
C1657 C1661 1.532 . S
C1658 H1648 0.930 . S
C1658 C1657 1.375 . S
C1658 C1659 1.416 . S
C1659 C1658 1.416 . S
C1659 C1660 1.371 . S
C1660 H1649 0.930 . S
C1660 C1656 1.389 . S
C1660 C1659 1.371 . S
C1661 H1650 0.970 . S
C1661 H1651 0.970 . S
C1661 C1657 1.532 . S
C1661 C1662 1.499 . S
C1662 C1661 1.499 . S
C1662 C1663 1.370 . S
C1662 C1667 1.415 . S
C1663 H1652 0.930 . S
C1663 C1662 1.370 . S
C1663 C1664 1.407 . S
C1664 C1663 1.407 . S
C1664 C1665 1.365 . S
C1665 H1653 0.930 . S
C1665 C1664 1.365 . S
C1665 C1666 1.393 . S
C1666 C1665 1.393 . S
C1666 C1667 1.387 . S
C1667 H1654 0.930 . S
C1667 C1662 1.415 . S
C1667 C1666 1.387 . S
H1668 C1676 0.930 . S
H1669 C1679 0.930 . S
H1670 C1681 0.930 . S
H1671 C1682 0.970 . S
H1672 C1682 0.970 . S
H1673 C1684 0.930 . S
H1674 C1686 0.930 . S
H1675 C1688 0.930 . S
C1676 H1668 0.930 . S
C1676 C1677 1.382 . S
C1676 C1678 1.426 . S
C1677 C1676 1.382 . S
C1677 C1681 1.389 . S
C1678 C1676 1.426 . S
C1678 C1679 1.375 . S
C1678 C1682 1.532 . S
C1679 H1669 0.930 . S
C1679 C1678 1.375 . S
C1679 C1680 1.416 . S
C1680 C1679 1.416 . S
C1680 C1681 1.371 . S
C1681 H1670 0.930 . S
C1681 C1677 1.389 . S
C1681 C1680 1.371 . S
C1682 H1671 0.970 . S
C1682 H1672 0.970 . S
C1682 C1678 1.532 . S
C1682 C1683 1.499 . S
C1683 C1682 1.499 . S
C1683 C1684 1.370 . S
C1683 C1688 1.415 . S
C1684 H1673 0.930 . S
C1684 C1683 1.370 . S
C1684 C1685 1.407 . S
C1685 C1684 1.407 . S
C1685 C1686 1.365 . S
C1686 H1674 0.930 . S
C1686 C1685 1.365 . S
C1686 C1687 1.393 . S
C1687 C1686 1.393 . S
C1687 C1688 1.387 . S
C1688 H1675 0.930 . S
C1688 C1683 1.415 . S
C1688 C1687 1.387 . S
H1689 C1697 0.930 . S
H1690 C1700 0.930 . S
H1691 C1702 0.930 . S
H1692 C1703 0.970 . S
H1693 C1703 0.970 . S
H1694 C1705 0.930 . S
H1695 C1707 0.930 . S
H1696 C1709 0.930 . S
C1697 H1689 0.930 . S
C1697 C1698 1.382 . S
C1697 C1699 1.426 . S
C1698 C1697 1.382 . S
C1698 C1702 1.389 . S
C1699 C1697 1.426 . S
C1699 C1700 1.375 . S
C1699 C1703 1.532 . S
C1700 H1690 0.930 . S
C1700 C1699 1.375 . S
C1700 C1701 1.416 . S
C1701 C1700 1.416 . S
C1701 C1702 1.371 . S
C1702 H1691 0.930 . S
C1702 C1698 1.389 . S
C1702 C1701 1.371 . S
C1703 H1692 0.970 . S
C1703 H1693 0.970 . S
C1703 C1699 1.532 . S
C1703 C1704 1.499 . S
C1704 C1703 1.499 . S
C1704 C1705 1.370 . S
C1704 C1709 1.415 . S
C1705 H1694 0.930 . S
C1705 C1704 1.370 . S
C1705 C1706 1.407 . S
C1706 C1705 1.407 . S
C1706 C1707 1.365 . S
C1707 H1695 0.930 . S
C1707 C1706 1.365 . S
C1707 C1708 1.393 . S
C1708 C1707 1.393 . S
C1708 C1709 1.387 . S
C1709 H1696 0.930 . S
C1709 C1704 1.415 . S
C1709 C1708 1.387 . S
H1710 C1718 0.930 . S
H1711 C1721 0.930 . S
H1712 C1723 0.930 . S
H1713 C1724 0.970 . S
H1714 C1724 0.970 . S
H1715 C1726 0.930 . S
H1716 C1728 0.930 . S
H1717 C1730 0.930 . S
C1718 H1710 0.930 . S
C1718 C1719 1.382 . S
C1718 C1720 1.426 . S
C1719 C1718 1.382 . S
C1719 C1723 1.389 . S
C1720 C1718 1.426 . S
C1720 C1721 1.375 . S
C1720 C1724 1.532 . S
C1721 H1711 0.930 . S
C1721 C1720 1.375 . S
C1721 C1722 1.416 . S
C1722 C1721 1.416 . S
C1722 C1723 1.371 . S
C1723 H1712 0.930 . S
C1723 C1719 1.389 . S
C1723 C1722 1.371 . S
C1724 H1713 0.970 . S
C1724 H1714 0.970 . S
C1724 C1720 1.532 . S
C1724 C1725 1.499 . S
C1725 C1724 1.499 . S
C1725 C1726 1.370 . S
C1725 C1730 1.415 . S
C1726 H1715 0.930 . S
C1726 C1725 1.370 . S
C1726 C1727 1.407 . S
C1727 C1726 1.407 . S
C1727 C1728 1.365 . S
C1728 H1716 0.930 . S
C1728 C1727 1.365 . S
C1728 C1729 1.393 . S
C1729 C1728 1.393 . S
C1729 C1730 1.387 . S
C1730 H1717 0.930 . S
C1730 C1725 1.415 . S
C1730 C1729 1.387 . S
H1731 C1739 0.930 . S
H1732 C1742 0.930 . S
H1733 C1744 0.930 . S
H1734 C1745 0.970 . S
H1735 C1745 0.970 . S
H1736 C1747 0.930 . S
H1737 C1749 0.930 . S
H1738 C1751 0.930 . S
C1739 H1731 0.930 . S
C1739 C1740 1.382 . S
C1739 C1741 1.426 . S
C1740 C1739 1.382 . S
C1740 C1744 1.389 . S
C1741 C1739 1.426 . S
C1741 C1742 1.375 . S
C1741 C1745 1.532 . S
C1742 H1732 0.930 . S
C1742 C1741 1.375 . S
C1742 C1743 1.416 . S
C1743 C1742 1.416 . S
C1743 C1744 1.371 . S
C1744 H1733 0.930 . S
C1744 C1740 1.389 . S
C1744 C1743 1.371 . S
C1745 H1734 0.970 . S
C1745 H1735 0.970 . S
C1745 C1741 1.532 . S
C1745 C1746 1.499 . S
C1746 C1745 1.499 . S
C1746 C1747 1.370 . S
C1746 C1751 1.415 . S
C1747 H1736 0.930 . S
C1747 C1746 1.370 . S
C1747 C1748 1.407 . S
C1748 C1747 1.407 . S
C1748 C1749 1.365 . S
C1749 H1737 0.930 . S
C1749 C1748 1.365 . S
C1749 C1750 1.393 . S
C1750 C1749 1.393 . S
C1750 C1751 1.387 . S
C1751 H1738 0.930 . S
C1751 C1746 1.415 . S
C1751 C1750 1.387 . S
H1752 C1760 0.930 . S
H1753 C1763 0.930 . S
H1754 C1765 0.930 . S
H1755 C1766 0.970 . S
H1756 C1766 0.970 . S
H1757 C1768 0.930 . S
H1758 C1770 0.930 . S
H1759 C1772 0.930 . S
C1760 H1752 0.930 . S
C1760 C1761 1.382 . S
C1760 C1762 1.426 . S
C1761 C1760 1.382 . S
C1761 C1765 1.389 . S
C1762 C1760 1.426 . S
C1762 C1763 1.375 . S
C1762 C1766 1.532 . S
C1763 H1753 0.930 . S
C1763 C1762 1.375 . S
C1763 C1764 1.416 . S
C1764 C1763 1.416 . S
C1764 C1765 1.371 . S
C1765 H1754 0.930 . S
C1765 C1761 1.389 . S
C1765 C1764 1.371 . S
C1766 H1755 0.970 . S
C1766 H1756 0.970 . S
C1766 C1762 1.532 . S
C1766 C1767 1.499 . S
C1767 C1766 1.499 . S
C1767 C1768 1.370 . S
C1767 C1772 1.415 . S
C1768 H1757 0.930 . S
C1768 C1767 1.370 . S
C1768 C1769 1.407 . S
C1769 C1768 1.407 . S
C1769 C1770 1.365 . S
C1770 H1758 0.930 . S
C1770 C1769 1.365 . S
C1770 C1771 1.393 . S
C1771 C1770 1.393 . S
C1771 C1772 1.387 . S
C1772 H1759 0.930 . S
C1772 C1767 1.415 . S
C1772 C1771 1.387 . S
H1773 C1781 0.930 . S
H1774 C1784 0.930 . S
H1775 C1786 0.930 . S
H1776 C1787 0.970 . S
H1777 C1787 0.970 . S
H1778 C1789 0.930 . S
H1779 C1791 0.930 . S
H1780 C1793 0.930 . S
C1781 H1773 0.930 . S
C1781 C1782 1.382 . S
C1781 C1783 1.426 . S
C1782 C1781 1.382 . S
C1782 C1786 1.389 1_455 S
C1783 C1781 1.426 . S
C1783 C1784 1.375 . S
C1783 C1787 1.532 . S
C1784 H1774 0.930 . S
C1784 C1783 1.375 . S
C1784 C1785 1.416 . S
C1785 C1784 1.416 . S
C1785 C1786 1.371 1_455 S
C1786 H1775 0.930 . S
C1786 C1782 1.389 1_655 S
C1786 C1785 1.371 1_655 S
C1787 H1776 0.970 . S
C1787 H1777 0.970 . S
C1787 C1783 1.532 . S
C1787 C1788 1.499 . S
C1788 C1787 1.499 . S
C1788 C1789 1.370 . S
C1788 C1793 1.415 . S
C1789 H1778 0.930 . S
C1789 C1788 1.370 . S
C1789 C1790 1.409 . S
C1790 C1789 1.409 . S
C1790 C1791 1.368 1_455 S
C1791 H1779 0.930 . S
C1791 C1790 1.368 1_655 S
C1791 C1792 1.393 1_655 S
C1792 C1791 1.393 1_455 S
C1792 C1793 1.387 . S
C1793 H1780 0.930 . S
C1793 C1788 1.415 . S
C1793 C1792 1.387 . S
H1794 C1802 0.930 . S
H1795 C1805 0.930 . S
H1796 C1807 0.930 . S
H1797 C1808 0.970 . S
H1798 C1808 0.970 . S
H1799 C1810 0.930 . S
H1800 C1812 0.930 . S
H1801 C1814 0.930 . S
C1802 H1794 0.930 . S
C1802 C1803 1.382 . S
C1802 C1804 1.426 . S
C1803 C1802 1.382 . S
C1803 C1807 1.389 . S
C1804 C1802 1.426 . S
C1804 C1805 1.375 . S
C1804 C1808 1.532 . S
C1805 H1795 0.930 . S
C1805 C1804 1.375 . S
C1805 C1806 1.416 . S
C1806 C1805 1.416 . S
C1806 C1807 1.371 . S
C1807 H1796 0.930 . S
C1807 C1803 1.389 . S
C1807 C1806 1.371 . S
C1808 H1797 0.970 . S
C1808 H1798 0.970 . S
C1808 C1804 1.532 . S
C1808 C1809 1.499 . S
C1809 C1808 1.499 . S
C1809 C1810 1.370 . S
C1809 C1814 1.415 . S
C1810 H1799 0.930 . S
C1810 C1809 1.370 . S
C1810 C1811 1.407 . S
C1811 C1810 1.407 . S
C1811 C1812 1.365 . S
C1812 H1800 0.930 . S
C1812 C1811 1.365 . S
C1812 C1813 1.393 . S
C1813 C1812 1.393 . S
C1813 C1814 1.387 . S
C1814 H1801 0.930 . S
C1814 C1809 1.415 . S
C1814 C1813 1.387 . S
H1815 C1823 0.930 . S
H1816 C1826 0.930 . S
H1817 C1828 0.930 . S
H1818 C1829 0.970 . S
H1819 C1829 0.970 . S
H1820 C1831 0.930 . S
H1821 C1833 0.930 . S
H1822 C1835 0.930 . S
C1823 H1815 0.930 . S
C1823 C1824 1.382 . S
C1823 C1825 1.426 . S
C1824 C1823 1.382 . S
C1824 C1828 1.389 1_565 S
C1825 C1823 1.426 . S
C1825 C1826 1.375 . S
C1825 C1829 1.532 . S
C1826 H1816 0.930 . S
C1826 C1825 1.375 . S
C1826 C1827 1.416 . S
C1827 C1826 1.416 . S
C1827 C1828 1.371 1_565 S
C1828 H1817 0.930 . S
C1828 C1824 1.389 1_545 S
C1828 C1827 1.371 1_545 S
C1829 H1818 0.970 . S
C1829 H1819 0.970 . S
C1829 C1825 1.532 . S
C1829 C1830 1.499 . S
C1830 C1829 1.499 . S
C1830 C1831 1.370 . S
C1830 C1835 1.415 . S
C1831 H1820 0.930 . S
C1831 C1830 1.370 . S
C1831 C1832 1.427 . S
C1832 C1831 1.427 . S
C1832 C1833 1.357 1_565 S
C1833 H1821 0.930 . S
C1833 C1832 1.357 1_545 S
C1833 C1834 1.393 1_545 S
C1834 C1833 1.393 1_565 S
C1834 C1835 1.387 . S
C1835 H1822 0.930 . S
C1835 C1830 1.415 . S
C1835 C1834 1.387 . S
H1836 C1844 0.930 . S
H1837 C1847 0.930 . S
H1838 C1849 0.930 . S
H1839 C1850 0.970 . S
H1840 C1850 0.970 . S
H1841 C1852 0.930 . S
H1842 C1854 0.930 . S
H1843 C1856 0.930 . S
C1844 H1836 0.930 . S
C1844 C1845 1.382 . S
C1844 C1846 1.426 . S
C1845 C1844 1.382 . S
C1845 C1849 1.389 1_565 S
C1846 C1844 1.426 . S
C1846 C1847 1.375 . S
C1846 C1850 1.532 . S
C1847 H1837 0.930 . S
C1847 C1846 1.375 . S
C1847 C1848 1.474 . S
C1848 C1847 1.474 . S
C1848 C1849 1.350 1_565 S
C1849 H1838 0.930 . S
C1849 C1845 1.389 1_545 S
C1849 C1848 1.350 1_545 S
C1850 H1839 0.970 . S
C1850 H1840 0.970 . S
C1850 C1846 1.532 . S
C1850 C1851 1.499 . S
C1851 C1850 1.499 . S
C1851 C1852 1.370 . S
C1851 C1856 1.415 . S
C1852 H1841 0.930 . S
C1852 C1851 1.370 . S
C1852 C1853 1.407 . S
C1853 C1852 1.407 . S
C1853 C1854 1.365 1_565 S
C1854 H1842 0.930 . S
C1854 C1853 1.365 1_545 S
C1854 C1855 1.393 1_545 S
C1855 C1854 1.393 1_565 S
C1855 C1856 1.387 . S
C1856 H1843 0.930 . S
C1856 C1851 1.415 . S
C1856 C1855 1.387 . S
H1857 C1865 0.930 . S
H1858 C1868 0.930 . S
H1859 C1870 0.930 . S
H1860 C1871 0.970 . S
H1861 C1871 0.970 . S
H1862 C1873 0.930 . S
H1863 C1875 0.930 . S
H1864 C1877 0.930 . S
C1865 H1857 0.930 . S
C1865 C1866 1.382 . S
C1865 C1867 1.426 . S
C1866 C1865 1.382 . S
C1866 C1870 1.389 1_455 S
C1867 C1865 1.426 . S
C1867 C1868 1.375 . S
C1867 C1871 1.532 . S
C1868 H1858 0.930 . S
C1868 C1867 1.375 . S
C1868 C1869 1.420 . S
C1869 C1868 1.420 . S
C1869 C1870 1.380 1_455 S
C1870 H1859 0.930 . S
C1870 C1866 1.389 1_655 S
C1870 C1869 1.380 1_655 S
C1871 H1860 0.970 . S
C1871 H1861 0.970 . S
C1871 C1867 1.532 . S
C1871 C1872 1.499 . S
C1872 C1871 1.499 . S
C1872 C1873 1.370 . S
C1872 C1877 1.415 . S
C1873 H1862 0.930 . S
C1873 C1872 1.370 . S
C1873 C1874 1.407 . S
C1874 C1873 1.407 . S
C1874 C1875 1.365 1_455 S
C1875 H1863 0.930 . S
C1875 C1874 1.365 1_655 S
C1875 C1876 1.393 1_655 S
C1876 C1875 1.393 1_455 S
C1876 C1877 1.387 . S
C1877 H1864 0.930 . S
C1877 C1872 1.415 . S
C1877 C1876 1.387 . S
H1878 C1886 0.930 . S
H1879 C1889 0.930 . S
H1880 C1891 0.930 . S
H1881 C1892 0.970 . S
H1882 C1892 0.970 . S
H1883 C1894 0.930 . S
H1884 C1896 0.930 . S
H1885 C1898 0.930 . S
C1886 H1878 0.930 . S
C1886 C1887 1.382 . S
C1886 C1888 1.426 . S
C1887 C1886 1.382 . S
C1887 C1891 1.389 . S
C1888 C1886 1.426 . S
C1888 C1889 1.375 . S
C1888 C1892 1.532 . S
C1889 H1879 0.930 . S
C1889 C1888 1.375 . S
C1889 C1890 1.416 . S
C1890 C1889 1.416 . S
C1890 C1891 1.371 . S
C1891 H1880 0.930 . S
C1891 C1887 1.389 . S
C1891 C1890 1.371 . S
C1892 H1881 0.970 . S
C1892 H1882 0.970 . S
C1892 C1888 1.532 . S
C1892 C1893 1.499 . S
C1893 C1892 1.499 . S
C1893 C1894 1.370 . S
C1893 C1898 1.415 . S
C1894 H1883 0.930 . S
C1894 C1893 1.370 . S
C1894 C1895 1.407 . S
C1895 C1894 1.407 . S
C1895 C1896 1.365 . S
C1896 H1884 0.930 . S
C1896 C1895 1.365 . S
C1896 C1897 1.393 . S
C1897 C1896 1.393 . S
C1897 C1898 1.387 . S
C1898 H1885 0.930 . S
C1898 C1893 1.415 . S
C1898 C1897 1.387 . S
H1899 C1907 0.930 . S
H1900 C1910 0.930 . S
H1901 C1912 0.930 . S
H1902 C1913 0.970 . S
H1903 C1913 0.970 . S
H1904 C1915 0.930 . S
H1905 C1917 0.930 . S
H1906 C1919 0.930 . S
C1907 H1899 0.930 . S
C1907 C1908 1.382 . S
C1907 C1909 1.426 . S
C1908 C1907 1.382 . S
C1908 C1912 1.389 . S
C1909 C1907 1.426 . S
C1909 C1910 1.375 . S
C1909 C1913 1.532 . S
C1910 H1900 0.930 . S
C1910 C1909 1.375 . S
C1910 C1911 1.416 . S
C1911 C1910 1.416 . S
C1911 C1912 1.371 . S
C1912 H1901 0.930 . S
C1912 C1908 1.389 . S
C1912 C1911 1.371 . S
C1913 H1902 0.970 . S
C1913 H1903 0.970 . S
C1913 C1909 1.532 . S
C1913 C1914 1.499 . S
C1914 C1913 1.499 . S
C1914 C1915 1.370 . S
C1914 C1919 1.415 . S
C1915 H1904 0.930 . S
C1915 C1914 1.370 . S
C1915 C1916 1.407 . S
C1916 C1915 1.407 . S
C1916 C1917 1.365 . S
C1917 H1905 0.930 . S
C1917 C1916 1.365 . S
C1917 C1918 1.393 . S
C1918 C1917 1.393 . S
C1918 C1919 1.387 . S
C1919 H1906 0.930 . S
C1919 C1914 1.415 . S
C1919 C1918 1.387 . S
H1920 C1928 0.930 . S
H1921 C1931 0.930 . S
H1922 C1933 0.930 . S
H1923 C1934 0.970 . S
H1924 C1934 0.970 . S
H1925 C1936 0.930 . S
H1926 C1938 0.930 . S
H1927 C1940 0.930 . S
C1928 H1920 0.930 . S
C1928 C1929 1.382 . S
C1928 C1930 1.426 . S
C1929 C1928 1.382 . S
C1929 C1933 1.389 . S
C1930 C1928 1.426 . S
C1930 C1931 1.375 . S
C1930 C1934 1.532 . S
C1931 H1921 0.930 . S
C1931 C1930 1.375 . S
C1931 C1932 1.416 . S
C1932 C1931 1.416 . S
C1932 C1933 1.371 . S
C1933 H1922 0.930 . S
C1933 C1929 1.389 . S
C1933 C1932 1.371 . S
C1934 H1923 0.970 . S
C1934 H1924 0.970 . S
C1934 C1930 1.532 . S
C1934 C1935 1.499 . S
C1935 C1934 1.499 . S
C1935 C1936 1.370 . S
C1935 C1940 1.415 . S
C1936 H1925 0.930 . S
C1936 C1935 1.370 . S
C1936 C1937 1.407 . S
C1937 C1936 1.407 . S
C1937 C1938 1.365 . S
C1938 H1926 0.930 . S
C1938 C1937 1.365 . S
C1938 C1939 1.393 . S
C1939 C1938 1.393 . S
C1939 C1940 1.387 . S
C1940 H1927 0.930 . S
C1940 C1935 1.415 . S
C1940 C1939 1.387 . S
H1941 C1949 0.930 . S
H1942 C1952 0.930 . S
H1943 C1954 0.930 . S
H1944 C1955 0.970 . S
H1945 C1955 0.970 . S
H1946 C1957 0.930 . S
H1947 C1959 0.930 . S
H1948 C1961 0.930 . S
C1949 H1941 0.930 . S
C1949 C1950 1.382 . S
C1949 C1951 1.426 . S
C1950 C1949 1.382 . S
C1950 C1954 1.389 . S
C1951 C1949 1.426 . S
C1951 C1952 1.375 . S
C1951 C1955 1.532 . S
C1952 H1942 0.930 . S
C1952 C1951 1.375 . S
C1952 C1953 1.416 . S
C1953 C1952 1.416 . S
C1953 C1954 1.371 . S
C1954 H1943 0.930 . S
C1954 C1950 1.389 . S
C1954 C1953 1.371 . S
C1955 H1944 0.970 . S
C1955 H1945 0.970 . S
C1955 C1951 1.532 . S
C1955 C1956 1.499 . S
C1956 C1955 1.499 . S
C1956 C1957 1.370 . S
C1956 C1961 1.415 . S
C1957 H1946 0.930 . S
C1957 C1956 1.370 . S
C1957 C1958 1.407 . S
C1958 C1957 1.407 . S
C1958 C1959 1.365 . S
C1959 H1947 0.930 . S
C1959 C1958 1.365 . S
C1959 C1960 1.393 . S
C1960 C1959 1.393 . S
C1960 C1961 1.387 . S
C1961 H1948 0.930 . S
C1961 C1956 1.415 . S
C1961 C1960 1.387 . S
H1962 C1968 0.930 . S
H1963 C1972 0.930 . S
H1964 C1977 0.929 . S
H1965 C1975 0.929 . S
H1966 C1970 0.929 . S
H1967 C1976 0.929 . S
C1968 H1962 0.930 . S
C1968 C1969 1.367 . S
C1968 C1976 1.378 . S
C1969 C1968 1.367 . S
C1969 C1977 1.433 . S
C1970 H1966 0.929 . S
C1970 C1972 1.378 . S
C1970 C1974 1.350 . S
C1971 C1974 1.463 . S
C1971 C1976 1.350 . S
C1971 N1979 1.427 . S
C1972 H1963 0.930 . S
C1972 C1970 1.378 . S
C1972 C1973 1.367 . S
C1973 C1972 1.367 . S
C1973 C1975 1.433 . S
C1974 C1970 1.350 . S
C1974 C1971 1.463 . S
C1974 N1978 1.427 . S
C1975 H1965 0.929 . S
C1975 C1973 1.433 . S
C1975 N1978 1.384 . S
C1976 H1967 0.929 . S
C1976 C1968 1.378 . S
C1976 C1971 1.350 . S
C1977 H1964 0.929 . S
C1977 C1969 1.433 . S
C1977 N1979 1.384 . S
N1978 C1974 1.427 . S
N1978 C1975 1.384 . S
N1979 C1971 1.427 . S
N1979 C1977 1.384 . S
H1980 C1986 0.930 . S
H1981 C1990 0.930 . S
H1982 C1995 0.929 . S
H1983 C1993 0.929 . S
H1984 C1988 0.929 . S
H1985 C1994 0.929 . S
C1986 H1980 0.930 . S
C1986 C1987 1.367 . S
C1986 C1994 1.378 . S
C1987 C1986 1.367 . S
C1987 C1995 1.433 . S
C1988 H1984 0.929 . S
C1988 C1990 1.378 . S
C1988 C1992 1.350 . S
C1989 C1992 1.463 . S
C1989 C1994 1.350 . S
C1989 N1997 1.427 . S
C1990 H1981 0.930 . S
C1990 C1988 1.378 . S
C1990 C1991 1.367 . S
C1991 C1990 1.367 . S
C1991 C1993 1.433 . S
C1992 C1988 1.350 . S
C1992 C1989 1.463 . S
C1992 N1996 1.427 . S
C1993 H1983 0.929 . S
C1993 C1991 1.433 . S
C1993 N1996 1.384 . S
C1994 H1985 0.929 . S
C1994 C1986 1.378 . S
C1994 C1989 1.350 . S
C1995 H1982 0.929 . S
C1995 C1987 1.433 . S
C1995 N1997 1.384 . S
N1996 C1992 1.427 . S
N1996 C1993 1.384 . S
N1997 C1989 1.427 . S
N1997 C1995 1.384 . S
H1998 C2004 0.968 . S
H1999 C2008 0.930 . S
H2000 C2013 0.929 . S
H2001 C2011 0.929 . S
H2002 C2006 0.929 . S
H2003 C2012 0.929 . S
C2004 H1998 0.968 . S
C2004 C2005 1.291 1_565 S
C2004 C2012 1.419 . S
C2005 C2004 1.291 1_545 S
C2005 C2013 1.433 . S
C2006 H2002 0.929 . S
C2006 C2008 1.378 . S
C2006 C2010 1.350 . S
C2007 C2010 1.463 . S
C2007 C2012 1.350 1_545 S
C2007 N2015 1.427 . S
C2008 H1999 0.930 . S
C2008 C2006 1.378 . S
C2008 C2009 1.367 . S
C2009 C2008 1.367 . S
C2009 C2011 1.433 1_545 S
C2010 C2006 1.350 . S
C2010 C2007 1.463 . S
C2010 N2014 1.427 1_545 S
C2011 H2001 0.929 . S
C2011 C2009 1.433 1_565 S
C2011 N2014 1.384 . S
C2012 H2003 0.929 . S
C2012 C2004 1.419 . S
C2012 C2007 1.350 1_565 S
C2013 H2000 0.929 . S
C2013 C2005 1.433 . S
C2013 N2015 1.384 . S
N2014 C2010 1.427 1_565 S
N2014 C2011 1.384 . S
N2015 C2007 1.427 . S
N2015 C2013 1.384 . S
H2016 C2022 0.930 . S
H2017 C2026 0.930 . S
H2018 C2031 0.929 . S
H2019 C2029 0.929 1_545 S
H2020 C2024 0.929 . S
H2021 C2030 0.929 . S
C2022 H2016 0.930 . S
C2022 C2023 1.367 . S
C2022 C2030 1.378 . S
C2023 C2022 1.367 . S
C2023 C2031 1.433 . S
C2024 H2020 0.929 . S
C2024 C2026 1.378 . S
C2024 C2028 1.350 . S
C2025 C2028 1.463 . S
C2025 C2030 1.350 . S
C2025 N2033 1.427 . S
C2026 H2017 0.930 . S
C2026 C2024 1.378 . S
C2026 C2027 1.367 . S
C2027 C2026 1.367 . S
C2027 C2029 1.433 . S
C2028 C2024 1.350 . S
C2028 C2025 1.463 . S
C2028 N2032 1.427 . S
C2029 H2019 0.929 1_565 S
C2029 C2027 1.433 . S
C2029 N2032 1.384 . S
C2030 H2021 0.929 . S
C2030 C2022 1.378 . S
C2030 C2025 1.350 . S
C2031 H2018 0.929 . S
C2031 C2023 1.433 . S
C2031 N2033 1.384 . S
N2032 C2028 1.427 . S
N2032 C2029 1.384 . S
N2033 C2025 1.427 . S
N2033 C2031 1.384 . S
H2034 C2040 0.939 . S
H2035 C2044 0.930 . S
H2036 C2049 0.929 . S
H2037 C2047 0.929 . S
H2038 C2042 0.929 . S
H2039 C2048 0.929 . S
C2040 H2034 0.939 . S
C2040 C2041 1.349 1_655 S
C2040 C2048 1.387 . S
C2041 C2040 1.349 1_455 S
C2041 C2049 1.433 . S
C2042 H2038 0.929 . S
C2042 C2044 1.378 . S
C2042 C2046 1.350 . S
C2043 C2046 1.463 . S
C2043 C2048 1.350 1_455 S
C2043 N2051 1.427 . S
C2044 H2035 0.930 . S
C2044 C2042 1.378 . S
C2044 C2045 1.367 . S
C2045 C2044 1.367 . S
C2045 C2047 1.433 1_455 S
C2046 C2042 1.350 . S
C2046 C2043 1.463 . S
C2046 N2050 1.427 1_455 S
C2047 H2037 0.929 . S
C2047 C2045 1.433 1_655 S
C2047 N2050 1.384 . S
C2048 H2039 0.929 . S
C2048 C2040 1.387 . S
C2048 C2043 1.350 1_655 S
C2049 H2036 0.929 . S
C2049 C2041 1.433 . S
C2049 N2051 1.384 . S
N2050 C2046 1.427 1_655 S
N2050 C2047 1.384 . S
N2051 C2043 1.427 . S
N2051 C2049 1.384 . S
H2052 C2058 0.930 . S
H2053 C2062 0.930 . S
H2054 C2067 0.929 . S
H2055 C2065 0.929 . S
H2056 C2060 0.929 . S
H2057 C2066 0.929 . S
C2058 H2052 0.930 . S
C2058 C2059 1.367 . S
C2058 C2066 1.378 . S
C2059 C2058 1.367 . S
C2059 C2067 1.433 . S
C2060 H2056 0.929 . S
C2060 C2062 1.378 . S
C2060 C2064 1.350 . S
C2061 C2064 1.463 . S
C2061 C2066 1.350 . S
C2061 N2069 1.427 . S
C2062 H2053 0.930 . S
C2062 C2060 1.378 . S
C2062 C2063 1.367 . S
C2063 C2062 1.367 . S
C2063 C2065 1.433 . S
C2064 C2060 1.350 . S
C2064 C2061 1.463 . S
C2064 N2068 1.427 . S
C2065 H2055 0.929 . S
C2065 C2063 1.433 . S
C2065 N2068 1.384 . S
C2066 H2057 0.929 . S
C2066 C2058 1.378 . S
C2066 C2061 1.350 . S
C2067 H2054 0.929 . S
C2067 C2059 1.433 . S
C2067 N2069 1.384 . S
N2068 C2064 1.427 . S
N2068 C2065 1.384 . S
N2069 C2061 1.427 . S
N2069 C2067 1.384 . S
H2070 C2076 0.930 . S
H2071 C2080 0.930 . S
H2072 C2085 0.929 . S
H2073 C2083 0.929 . S
H2074 C2078 0.929 . S
H2075 C2084 0.929 . S
C2076 H2070 0.930 . S
C2076 C2077 1.367 . S
C2076 C2084 1.378 . S
C2077 C2076 1.367 . S
C2077 C2085 1.433 1_455 S
C2078 H2074 0.929 . S
C2078 C2080 1.378 . S
C2078 C2082 1.350 1_655 S
C2079 C2082 1.463 . S
C2079 C2084 1.350 . S
C2079 N2087 1.427 1_455 S
C2080 H2071 0.930 . S
C2080 C2078 1.378 . S
C2080 C2081 1.367 1_655 S
C2081 C2080 1.367 1_455 S
C2081 C2083 1.433 . S
C2082 C2078 1.350 1_455 S
C2082 C2079 1.463 . S
C2082 N2086 1.427 . S
C2083 H2073 0.929 . S
C2083 C2081 1.433 . S
C2083 N2086 1.384 . S
C2084 H2075 0.929 . S
C2084 C2076 1.378 . S
C2084 C2079 1.350 . S
C2085 H2072 0.929 . S
C2085 C2077 1.433 1_655 S
C2085 N2087 1.384 . S
N2086 C2082 1.427 . S
N2086 C2083 1.384 . S
N2087 C2079 1.427 1_655 S
N2087 C2085 1.384 . S
H2088 C2094 0.930 . S
H2089 C2098 0.930 . S
H2090 C2103 0.929 . S
H2091 C2101 0.929 . S
H2092 C2096 0.929 . S
H2093 C2102 0.929 . S
C2094 H2088 0.930 . S
C2094 C2095 1.367 . S
C2094 C2102 1.378 . S
C2095 C2094 1.367 . S
C2095 C2103 1.433 . S
C2096 H2092 0.929 . S
C2096 C2098 1.378 . S
C2096 C2100 1.350 . S
C2097 C2100 1.463 . S
C2097 C2102 1.350 . S
C2097 N2105 1.427 . S
C2098 H2089 0.930 . S
C2098 C2096 1.378 . S
C2098 C2099 1.367 . S
C2099 C2098 1.367 . S
C2099 C2101 1.433 . S
C2100 C2096 1.350 . S
C2100 C2097 1.463 . S
C2100 N2104 1.427 . S
C2101 H2091 0.929 . S
C2101 C2099 1.433 . S
C2101 N2104 1.384 . S
C2102 H2093 0.929 . S
C2102 C2094 1.378 . S
C2102 C2097 1.350 . S
C2103 H2090 0.929 . S
C2103 C2095 1.433 . S
C2103 N2105 1.384 . S
N2104 C2100 1.427 . S
N2104 C2101 1.384 . S
N2105 C2097 1.427 . S
N2105 C2103 1.384 . S
H2106 C2112 0.930 1_545 S
H2107 C2116 0.930 . S
H2108 C2121 0.929 . S
H2109 C2119 0.929 . S
H2110 C2114 0.929 . S
H2111 C2120 0.899 1_545 S
C2112 H2106 0.930 1_565 S
C2112 C2113 1.367 . S
C2112 C2120 1.395 . S
C2113 C2112 1.367 . S
C2113 C2121 1.433 . S
C2114 H2110 0.929 . S
C2114 C2116 1.378 . S
C2114 C2118 1.350 . S
C2115 C2118 1.463 . S
C2115 C2120 1.362 . S
C2115 N2123 1.427 . S
C2116 H2107 0.930 . S
C2116 C2114 1.378 . S
C2116 C2117 1.367 . S
C2117 C2116 1.367 . S
C2117 C2119 1.433 1_565 S
C2118 C2114 1.350 . S
C2118 C2115 1.463 . S
C2118 N2122 1.427 1_565 S
C2119 H2109 0.929 . S
C2119 C2117 1.433 1_545 S
C2119 N2122 1.384 . S
C2120 H2111 0.899 1_565 S
C2120 C2112 1.395 . S
C2120 C2115 1.362 . S
C2121 H2108 0.929 . S
C2121 C2113 1.433 . S
C2121 N2123 1.384 . S
N2122 C2118 1.427 1_545 S
N2122 C2119 1.384 . S
N2123 C2115 1.427 . S
N2123 C2121 1.384 . S
H2124 C2130 0.930 . S
H2125 C2134 0.930 . S
H2126 C2139 0.929 . S
H2127 C2137 0.929 . S
H2128 C2132 0.929 . S
H2129 C2138 0.929 . S
C2130 H2124 0.930 . S
C2130 C2131 1.367 . S
C2130 C2138 1.378 . S
C2131 C2130 1.367 . S
C2131 C2139 1.433 1_545 S
C2132 H2128 0.929 . S
C2132 C2134 1.378 . S
C2132 C2136 1.350 1_565 S
C2133 C2136 1.463 . S
C2133 C2138 1.350 . S
C2133 N2141 1.427 1_545 S
C2134 H2125 0.930 . S
C2134 C2132 1.378 . S
C2134 C2135 1.367 1_565 S
C2135 C2134 1.367 1_545 S
C2135 C2137 1.433 . S
C2136 C2132 1.350 1_545 S
C2136 C2133 1.463 . S
C2136 N2140 1.427 . S
C2137 H2127 0.929 . S
C2137 C2135 1.433 . S
C2137 N2140 1.384 . S
C2138 H2129 0.929 . S
C2138 C2130 1.378 . S
C2138 C2133 1.350 . S
C2139 H2126 0.929 . S
C2139 C2131 1.433 1_565 S
C2139 N2141 1.384 . S
N2140 C2136 1.427 . S
N2140 C2137 1.384 . S
N2141 C2133 1.427 1_565 S
N2141 C2139 1.384 . S
H2142 C2148 0.930 . S
H2143 C2152 0.930 . S
H2144 C2157 0.929 1_455 S
H2145 C2155 0.929 . S
H2146 C2150 0.929 . S
H2147 C2156 0.929 . S
C2148 H2142 0.930 . S
C2148 C2149 1.367 . S
C2148 C2156 1.378 . S
C2149 C2148 1.367 . S
C2149 C2157 1.433 . S
C2150 H2146 0.929 . S
C2150 C2152 1.378 . S
C2150 C2154 1.350 1_455 S
C2151 C2154 1.463 . S
C2151 C2156 1.350 . S
C2151 N2159 1.428 1_655 S
C2152 H2143 0.930 . S
C2152 C2150 1.378 . S
C2152 C2153 1.367 1_455 S
C2153 C2152 1.367 1_655 S
C2153 C2155 1.433 . S
C2154 C2150 1.350 1_655 S
C2154 C2151 1.463 . S
C2154 N2158 1.427 . S
C2155 H2145 0.929 . S
C2155 C2153 1.433 . S
C2155 N2158 1.384 . S
C2156 H2147 0.929 . S
C2156 C2148 1.378 . S
C2156 C2151 1.350 . S
C2157 H2144 0.929 1_655 S
C2157 C2149 1.433 . S
C2157 N2159 1.387 1_655 S
N2158 C2154 1.427 . S
N2158 C2155 1.384 . S
N2159 C2151 1.428 1_455 S
N2159 C2157 1.387 1_455 S
H2160 C2166 0.930 . S
H2161 C2170 0.930 . S
H2162 C2175 0.929 . S
H2163 C2173 0.929 . S
H2164 C2168 0.929 . S
H2165 C2174 0.929 . S
C2166 H2160 0.930 . S
C2166 C2167 1.367 . S
C2166 C2174 1.378 . S
C2167 C2166 1.367 . S
C2167 C2175 1.433 . S
C2168 H2164 0.929 . S
C2168 C2170 1.378 . S
C2168 C2172 1.350 . S
C2169 C2172 1.463 . S
C2169 C2174 1.350 . S
C2169 N2177 1.427 . S
C2170 H2161 0.930 . S
C2170 C2168 1.378 . S
C2170 C2171 1.367 . S
C2171 C2170 1.367 . S
C2171 C2173 1.433 . S
C2172 C2168 1.350 . S
C2172 C2169 1.463 . S
C2172 N2176 1.427 . S
C2173 H2163 0.929 . S
C2173 C2171 1.433 . S
C2173 N2176 1.384 . S
C2174 H2165 0.929 . S
C2174 C2166 1.378 . S
C2174 C2169 1.350 . S
C2175 H2162 0.929 . S
C2175 C2167 1.433 . S
C2175 N2177 1.384 . S
N2176 C2172 1.427 . S
N2176 C2173 1.384 . S
N2177 C2169 1.427 . S
N2177 C2175 1.384 . S
H2178 C2184 0.930 . S
H2179 C2188 0.930 . S
H2180 C2193 0.929 . S
H2181 C2191 0.929 . S
H2182 C2186 0.929 . S
H2183 C2192 0.929 . S
C2184 H2178 0.930 . S
C2184 C2185 1.367 . S
C2184 C2192 1.378 . S
C2185 C2184 1.367 . S
C2185 C2193 1.433 . S
C2186 H2182 0.929 . S
C2186 C2188 1.378 . S
C2186 C2190 1.350 . S
C2187 C2190 1.463 . S
C2187 C2192 1.350 . S
C2187 N2195 1.427 . S
C2188 H2179 0.930 . S
C2188 C2186 1.378 . S
C2188 C2189 1.367 . S
C2189 C2188 1.367 . S
C2189 C2191 1.433 . S
C2190 C2186 1.350 . S
C2190 C2187 1.463 . S
C2190 N2194 1.427 . S
C2191 H2181 0.929 . S
C2191 C2189 1.433 . S
C2191 N2194 1.384 . S
C2192 H2183 0.929 . S
C2192 C2184 1.378 . S
C2192 C2187 1.350 . S
C2193 H2180 0.929 . S
C2193 C2185 1.433 . S
C2193 N2195 1.384 . S
N2194 C2190 1.427 . S
N2194 C2191 1.384 . S
N2195 C2187 1.427 . S
N2195 C2193 1.384 . S
H2196 C2202 0.930 . S
H2197 C2206 0.930 . S
H2198 C2211 0.929 . S
H2199 C2209 0.929 . S
H2200 C2204 0.929 . S
H2201 C2210 0.929 . S
C2202 H2196 0.930 . S
C2202 C2203 1.367 . S
C2202 C2210 1.378 . S
C2203 C2202 1.367 . S
C2203 C2211 1.433 . S
C2204 H2200 0.929 . S
C2204 C2206 1.378 . S
C2204 C2208 1.350 . S
C2205 C2208 1.463 . S
C2205 C2210 1.350 . S
C2205 N2213 1.427 . S
C2206 H2197 0.930 . S
C2206 C2204 1.378 . S
C2206 C2207 1.367 . S
C2207 C2206 1.367 . S
C2207 C2209 1.433 . S
C2208 C2204 1.350 . S
C2208 C2205 1.463 . S
C2208 N2212 1.427 . S
C2209 H2199 0.929 . S
C2209 C2207 1.433 . S
C2209 N2212 1.384 . S
C2210 H2201 0.929 . S
C2210 C2202 1.378 . S
C2210 C2205 1.350 . S
C2211 H2198 0.929 . S
C2211 C2203 1.433 . S
C2211 N2213 1.384 . S
N2212 C2208 1.427 . S
N2212 C2209 1.384 . S
N2213 C2205 1.427 . S
N2213 C2211 1.384 . S
H2214 C2220 0.930 . S
H2215 C2224 0.930 . S
H2216 C2229 0.929 . S
H2217 C2227 0.929 . S
H2218 C2222 0.929 . S
H2219 C2228 0.929 . S
C2220 H2214 0.930 . S
C2220 C2221 1.367 . S
C2220 C2228 1.378 . S
C2221 C2220 1.367 . S
C2221 C2229 1.433 . S
C2222 H2218 0.929 . S
C2222 C2224 1.378 . S
C2222 C2226 1.350 . S
C2223 C2226 1.463 . S
C2223 C2228 1.350 . S
C2223 N2231 1.427 . S
C2224 H2215 0.930 . S
C2224 C2222 1.378 . S
C2224 C2225 1.367 . S
C2225 C2224 1.367 . S
C2225 C2227 1.433 . S
C2226 C2222 1.350 . S
C2226 C2223 1.463 . S
C2226 N2230 1.427 . S
C2227 H2217 0.929 . S
C2227 C2225 1.433 . S
C2227 N2230 1.384 . S
C2228 H2219 0.929 . S
C2228 C2220 1.378 . S
C2228 C2223 1.350 . S
C2229 H2216 0.929 . S
C2229 C2221 1.433 . S
C2229 N2231 1.384 . S
N2230 C2226 1.427 . S
N2230 C2227 1.384 . S
N2231 C2223 1.427 . S
N2231 C2229 1.384 . S
H2232 C2238 0.930 . S
H2233 C2242 0.930 . S
H2234 C2247 0.929 . S
H2235 C2245 0.929 . S
H2236 C2240 0.929 . S
H2237 C2246 0.929 . S
C2238 H2232 0.930 . S
C2238 C2239 1.367 . S
C2238 C2246 1.378 . S
C2239 C2238 1.367 . S
C2239 C2247 1.433 . S
C2240 H2236 0.929 . S
C2240 C2242 1.378 . S
C2240 C2244 1.350 . S
C2241 C2244 1.463 . S
C2241 C2246 1.350 . S
C2241 N2249 1.427 . S
C2242 H2233 0.930 . S
C2242 C2240 1.378 . S
C2242 C2243 1.367 . S
C2243 C2242 1.367 . S
C2243 C2245 1.433 . S
C2244 C2240 1.350 . S
C2244 C2241 1.463 . S
C2244 N2248 1.427 . S
C2245 H2235 0.929 . S
C2245 C2243 1.433 . S
C2245 N2248 1.384 . S
C2246 H2237 0.929 . S
C2246 C2238 1.378 . S
C2246 C2241 1.350 . S
C2247 H2234 0.929 . S
C2247 C2239 1.433 . S
C2247 N2249 1.384 . S
N2248 C2244 1.427 . S
N2248 C2245 1.384 . S
N2249 C2241 1.427 . S
N2249 C2247 1.384 . S
H2250 C2256 0.930 . S
H2251 C2260 0.930 . S
H2252 C2265 0.929 . S
H2253 C2263 0.929 . S
H2254 C2258 0.929 . S
H2255 C2264 0.929 . S
C2256 H2250 0.930 . S
C2256 C2257 1.367 . S
C2256 C2264 1.378 . S
C2257 C2256 1.367 . S
C2257 C2265 1.433 . S
C2258 H2254 0.929 . S
C2258 C2260 1.378 . S
C2258 C2262 1.350 . S
C2259 C2262 1.463 . S
C2259 C2264 1.350 . S
C2259 N2267 1.427 . S
C2260 H2251 0.930 . S
C2260 C2258 1.378 . S
C2260 C2261 1.367 . S
C2261 C2260 1.367 . S
C2261 C2263 1.433 . S
C2262 C2258 1.350 . S
C2262 C2259 1.463 . S
C2262 N2266 1.427 . S
C2263 H2253 0.929 . S
C2263 C2261 1.433 . S
C2263 N2266 1.384 . S
C2264 H2255 0.929 . S
C2264 C2256 1.378 . S
C2264 C2259 1.350 . S
C2265 H2252 0.929 . S
C2265 C2257 1.433 . S
C2265 N2267 1.384 . S
N2266 C2262 1.427 . S
N2266 C2263 1.384 . S
N2267 C2259 1.427 . S
N2267 C2265 1.384 . S
H2268 C2274 0.930 . S
H2269 C2278 0.930 . S
H2270 C2283 0.929 . S
H2271 C2281 0.929 . S
H2272 C2276 0.929 . S
H2273 C2282 0.929 . S
C2274 H2268 0.930 . S
C2274 C2275 1.367 . S
C2274 C2282 1.378 . S
C2275 C2274 1.367 . S
C2275 C2283 1.433 . S
C2276 H2272 0.929 . S
C2276 C2278 1.378 . S
C2276 C2280 1.350 . S
C2277 C2280 1.463 . S
C2277 C2282 1.350 . S
C2277 N2285 1.427 . S
C2278 H2269 0.930 . S
C2278 C2276 1.378 . S
C2278 C2279 1.367 . S
C2279 C2278 1.367 . S
C2279 C2281 1.433 . S
C2280 C2276 1.350 . S
C2280 C2277 1.463 . S
C2280 N2284 1.427 . S
C2281 H2271 0.929 . S
C2281 C2279 1.433 . S
C2281 N2284 1.384 . S
C2282 H2273 0.929 . S
C2282 C2274 1.378 . S
C2282 C2277 1.350 . S
C2283 H2270 0.929 . S
C2283 C2275 1.433 . S
C2283 N2285 1.384 . S
N2284 C2280 1.427 . S
N2284 C2281 1.384 . S
N2285 C2277 1.427 . S
N2285 C2283 1.384 . S
H2286 C2292 0.930 . S
H2287 C2296 0.930 . S
H2288 C2301 0.929 . S
H2289 C2299 0.929 . S
H2290 C2294 0.929 . S
H2291 C2300 0.929 . S
C2292 H2286 0.930 . S
C2292 C2293 1.367 . S
C2292 C2300 1.378 . S
C2293 C2292 1.367 . S
C2293 C2301 1.433 . S
C2294 H2290 0.929 . S
C2294 C2296 1.378 . S
C2294 C2298 1.350 . S
C2295 C2298 1.463 . S
C2295 C2300 1.350 . S
C2295 N2303 1.427 . S
C2296 H2287 0.930 . S
C2296 C2294 1.378 . S
C2296 C2297 1.367 . S
C2297 C2296 1.367 . S
C2297 C2299 1.433 . S
C2298 C2294 1.350 . S
C2298 C2295 1.463 . S
C2298 N2302 1.427 . S
C2299 H2289 0.929 . S
C2299 C2297 1.433 . S
C2299 N2302 1.384 . S
C2300 H2291 0.929 . S
C2300 C2292 1.378 . S
C2300 C2295 1.350 . S
C2301 H2288 0.929 . S
C2301 C2293 1.433 . S
C2301 N2303 1.384 . S
N2302 C2298 1.427 . S
N2302 C2299 1.384 . S
N2303 C2295 1.427 . S
N2303 C2301 1.384 . S
H2304 C2310 0.930 . S
H2305 C2314 0.930 . S
H2306 C2319 0.929 . S
H2307 C2317 0.929 . S
H2308 C2312 0.929 . S
H2309 C2318 0.929 . S
C2310 H2304 0.930 . S
C2310 C2311 1.367 . S
C2310 C2318 1.378 . S
C2311 C2310 1.367 . S
C2311 C2319 1.433 . S
C2312 H2308 0.929 . S
C2312 C2314 1.378 . S
C2312 C2316 1.350 . S
C2313 C2316 1.463 . S
C2313 C2318 1.350 . S
C2313 N2321 1.427 . S
C2314 H2305 0.930 . S
C2314 C2312 1.378 . S
C2314 C2315 1.367 . S
C2315 C2314 1.367 . S
C2315 C2317 1.433 . S
C2316 C2312 1.350 . S
C2316 C2313 1.463 . S
C2316 N2320 1.427 . S
C2317 H2307 0.929 . S
C2317 C2315 1.433 . S
C2317 N2320 1.384 . S
C2318 H2309 0.929 . S
C2318 C2310 1.378 . S
C2318 C2313 1.350 . S
C2319 H2306 0.929 . S
C2319 C2311 1.433 . S
C2319 N2321 1.384 . S
N2320 C2316 1.427 . S
N2320 C2317 1.384 . S
N2321 C2313 1.427 . S
N2321 C2319 1.384 . S
H2322 C2328 0.930 . S
H2323 C2332 0.930 . S
H2324 C2337 0.929 . S
H2325 C2335 0.929 . S
H2326 C2330 0.929 . S
H2327 C2336 0.929 . S
C2328 H2322 0.930 . S
C2328 C2329 1.367 . S
C2328 C2336 1.378 . S
C2329 C2328 1.367 . S
C2329 C2337 1.433 . S
C2330 H2326 0.929 . S
C2330 C2332 1.378 . S
C2330 C2334 1.350 . S
C2331 C2334 1.463 . S
C2331 C2336 1.350 . S
C2331 N2339 1.427 . S
C2332 H2323 0.930 . S
C2332 C2330 1.378 . S
C2332 C2333 1.367 . S
C2333 C2332 1.367 . S
C2333 C2335 1.433 . S
C2334 C2330 1.350 . S
C2334 C2331 1.463 . S
C2334 N2338 1.427 . S
C2335 H2325 0.929 . S
C2335 C2333 1.433 . S
C2335 N2338 1.384 . S
C2336 H2327 0.929 . S
C2336 C2328 1.378 . S
C2336 C2331 1.350 . S
C2337 H2324 0.929 . S
C2337 C2329 1.433 . S
C2337 N2339 1.384 . S
N2338 C2334 1.427 . S
N2338 C2335 1.384 . S
N2339 C2331 1.427 . S
N2339 C2337 1.384 . S
H2340 C2346 0.930 . S
H2341 C2350 0.930 . S
H2342 C2355 0.929 . S
H2343 C2353 0.929 . S
H2344 C2348 0.929 . S
H2345 C2354 0.929 . S
C2346 H2340 0.930 . S
C2346 C2347 1.367 . S
C2346 C2354 1.378 . S
C2347 C2346 1.367 . S
C2347 C2355 1.433 . S
C2348 H2344 0.929 . S
C2348 C2350 1.378 . S
C2348 C2352 1.350 . S
C2349 C2352 1.463 . S
C2349 C2354 1.350 . S
C2349 N2357 1.427 . S
C2350 H2341 0.930 . S
C2350 C2348 1.378 . S
C2350 C2351 1.367 . S
C2351 C2350 1.367 . S
C2351 C2353 1.433 . S
C2352 C2348 1.350 . S
C2352 C2349 1.463 . S
C2352 N2356 1.427 . S
C2353 H2343 0.929 . S
C2353 C2351 1.433 . S
C2353 N2356 1.384 . S
C2354 H2345 0.929 . S
C2354 C2346 1.378 . S
C2354 C2349 1.350 . S
C2355 H2342 0.929 . S
C2355 C2347 1.433 . S
C2355 N2357 1.384 . S
N2356 C2352 1.427 . S
N2356 C2353 1.384 . S
N2357 C2349 1.427 . S
N2357 C2355 1.384 . S
H2358 C2364 0.930 . S
H2359 C2368 0.930 . S
H2360 C2373 0.929 . S
H2361 C2371 0.929 . S
H2362 C2366 0.929 . S
H2363 C2372 0.929 . S
C2364 H2358 0.930 . S
C2364 C2365 1.367 . S
C2364 C2372 1.378 . S
C2365 C2364 1.367 . S
C2365 C2373 1.433 . S
C2366 H2362 0.929 . S
C2366 C2368 1.378 . S
C2366 C2370 1.350 . S
C2367 C2370 1.463 . S
C2367 C2372 1.350 . S
C2367 N2375 1.427 . S
C2368 H2359 0.930 . S
C2368 C2366 1.378 . S
C2368 C2369 1.367 . S
C2369 C2368 1.367 . S
C2369 C2371 1.433 . S
C2370 C2366 1.350 . S
C2370 C2367 1.463 . S
C2370 N2374 1.427 . S
C2371 H2361 0.929 . S
C2371 C2369 1.433 . S
C2371 N2374 1.384 . S
C2372 H2363 0.929 . S
C2372 C2364 1.378 . S
C2372 C2367 1.350 . S
C2373 H2360 0.929 . S
C2373 C2365 1.433 . S
C2373 N2375 1.384 . S
N2374 C2370 1.427 . S
N2374 C2371 1.384 . S
N2375 C2367 1.427 . S
N2375 C2373 1.384 . S
H2376 C2382 0.930 . S
H2377 C2386 0.930 . S
H2378 C2391 0.929 . S
H2379 C2389 0.929 . S
H2380 C2384 0.929 . S
H2381 C2390 0.929 . S
C2382 H2376 0.930 . S
C2382 C2383 1.367 . S
C2382 C2390 1.378 . S
C2383 C2382 1.367 . S
C2383 C2391 1.433 . S
C2384 H2380 0.929 . S
C2384 C2386 1.378 . S
C2384 C2388 1.350 . S
C2385 C2388 1.463 . S
C2385 C2390 1.350 . S
C2385 N2393 1.427 . S
C2386 H2377 0.930 . S
C2386 C2384 1.378 . S
C2386 C2387 1.367 . S
C2387 C2386 1.367 . S
C2387 C2389 1.433 . S
C2388 C2384 1.350 . S
C2388 C2385 1.463 . S
C2388 N2392 1.427 . S
C2389 H2379 0.929 . S
C2389 C2387 1.433 . S
C2389 N2392 1.384 . S
C2390 H2381 0.929 . S
C2390 C2382 1.378 . S
C2390 C2385 1.350 . S
C2391 H2378 0.929 . S
C2391 C2383 1.433 . S
C2391 N2393 1.384 . S
N2392 C2388 1.427 . S
N2392 C2389 1.384 . S
N2393 C2385 1.427 . S
N2393 C2391 1.384 . S
H2394 C2400 0.930 . S
H2395 C2404 0.930 . S
H2396 C2409 0.929 . S
H2397 C2407 0.929 . S
H2398 C2402 0.929 . S
H2399 C2408 0.929 . S
C2400 H2394 0.930 . S
C2400 C2401 1.367 . S
C2400 C2408 1.378 . S
C2401 C2400 1.367 . S
C2401 C2409 1.433 . S
C2402 H2398 0.929 . S
C2402 C2404 1.378 . S
C2402 C2406 1.350 . S
C2403 C2406 1.463 . S
C2403 C2408 1.350 . S
C2403 N2411 1.427 . S
C2404 H2395 0.930 . S
C2404 C2402 1.378 . S
C2404 C2405 1.367 . S
C2405 C2404 1.367 . S
C2405 C2407 1.433 . S
C2406 C2402 1.350 . S
C2406 C2403 1.463 . S
C2406 N2410 1.427 . S
C2407 H2397 0.929 . S
C2407 C2405 1.433 . S
C2407 N2410 1.384 . S
C2408 H2399 0.929 . S
C2408 C2400 1.378 . S
C2408 C2403 1.350 . S
C2409 H2396 0.929 . S
C2409 C2401 1.433 . S
C2409 N2411 1.384 . S
N2410 C2406 1.427 . S
N2410 C2407 1.384 . S
N2411 C2403 1.427 . S
N2411 C2409 1.384 . S
H2412 C2418 0.930 . S
H2413 C2422 0.930 . S
H2414 C2427 0.929 . S
H2415 C2425 0.929 . S
H2416 C2420 0.929 . S
H2417 C2426 0.929 . S
C2418 H2412 0.930 . S
C2418 C2419 1.367 . S
C2418 C2426 1.378 . S
C2419 C2418 1.367 . S
C2419 C2427 1.433 . S
C2420 H2416 0.929 . S
C2420 C2422 1.378 . S
C2420 C2424 1.350 . S
C2421 C2424 1.463 . S
C2421 C2426 1.350 . S
C2421 N2429 1.427 . S
C2422 H2413 0.930 . S
C2422 C2420 1.378 . S
C2422 C2423 1.367 . S
C2423 C2422 1.367 . S
C2423 C2425 1.433 . S
C2424 C2420 1.350 . S
C2424 C2421 1.463 . S
C2424 N2428 1.427 . S
C2425 H2415 0.929 . S
C2425 C2423 1.433 . S
C2425 N2428 1.384 . S
C2426 H2417 0.929 . S
C2426 C2418 1.378 . S
C2426 C2421 1.350 . S
C2427 H2414 0.929 . S
C2427 C2419 1.433 . S
C2427 N2429 1.384 . S
N2428 C2424 1.427 . S
N2428 C2425 1.384 . S
N2429 C2421 1.427 . S
N2429 C2427 1.384 . S
H2430 C2436 0.930 . S
H2431 C2440 0.930 . S
H2432 C2445 0.929 . S
H2433 C2443 0.929 . S
H2434 C2438 0.929 . S
H2435 C2444 0.929 . S
C2436 H2430 0.930 . S
C2436 C2437 1.367 . S
C2436 C2444 1.378 . S
C2437 C2436 1.367 . S
C2437 C2445 1.433 . S
C2438 H2434 0.929 . S
C2438 C2440 1.378 . S
C2438 C2442 1.350 . S
C2439 C2442 1.463 . S
C2439 C2444 1.350 . S
C2439 N2447 1.427 . S
C2440 H2431 0.930 . S
C2440 C2438 1.378 . S
C2440 C2441 1.367 . S
C2441 C2440 1.367 . S
C2441 C2443 1.433 . S
C2442 C2438 1.350 . S
C2442 C2439 1.463 . S
C2442 N2446 1.427 . S
C2443 H2433 0.929 . S
C2443 C2441 1.433 . S
C2443 N2446 1.384 . S
C2444 H2435 0.929 . S
C2444 C2436 1.378 . S
C2444 C2439 1.350 . S
C2445 H2432 0.929 . S
C2445 C2437 1.433 . S
C2445 N2447 1.384 . S
N2446 C2442 1.427 . S
N2446 C2443 1.384 . S
N2447 C2439 1.427 . S
N2447 C2445 1.384 . S
H2448 C2454 0.930 . S
H2449 C2458 0.930 . S
H2450 C2463 0.929 . S
H2451 C2461 0.929 . S
H2452 C2456 0.929 . S
H2453 C2462 0.929 . S
C2454 H2448 0.930 . S
C2454 C2455 1.367 . S
C2454 C2462 1.378 . S
C2455 C2454 1.367 . S
C2455 C2463 1.433 . S
C2456 H2452 0.929 . S
C2456 C2458 1.378 . S
C2456 C2460 1.350 . S
C2457 C2460 1.463 . S
C2457 C2462 1.350 . S
C2457 N2465 1.427 . S
C2458 H2449 0.930 . S
C2458 C2456 1.378 . S
C2458 C2459 1.367 . S
C2459 C2458 1.367 . S
C2459 C2461 1.433 . S
C2460 C2456 1.350 . S
C2460 C2457 1.463 . S
C2460 N2464 1.427 . S
C2461 H2451 0.929 . S
C2461 C2459 1.433 . S
C2461 N2464 1.384 . S
C2462 H2453 0.929 . S
C2462 C2454 1.378 . S
C2462 C2457 1.350 . S
C2463 H2450 0.929 . S
C2463 C2455 1.433 . S
C2463 N2465 1.384 . S
N2464 C2460 1.427 . S
N2464 C2461 1.384 . S
N2465 C2457 1.427 . S
N2465 C2463 1.384 . S
H2466 C2472 0.930 . S
H2467 C2476 0.930 . S
H2468 C2481 0.929 . S
H2469 C2479 0.929 . S
H2470 C2474 0.929 . S
H2471 C2480 0.929 . S
C2472 H2466 0.930 . S
C2472 C2473 1.367 . S
C2472 C2480 1.378 . S
C2473 C2472 1.367 . S
C2473 C2481 1.433 . S
C2474 H2470 0.929 . S
C2474 C2476 1.378 . S
C2474 C2478 1.350 . S
C2475 C2478 1.463 . S
C2475 C2480 1.350 . S
C2475 N2483 1.427 . S
C2476 H2467 0.930 . S
C2476 C2474 1.378 . S
C2476 C2477 1.367 . S
C2477 C2476 1.367 . S
C2477 C2479 1.433 . S
C2478 C2474 1.350 . S
C2478 C2475 1.463 . S
C2478 N2482 1.427 . S
C2479 H2469 0.929 . S
C2479 C2477 1.433 . S
C2479 N2482 1.384 . S
C2480 H2471 0.929 . S
C2480 C2472 1.378 . S
C2480 C2475 1.350 . S
C2481 H2468 0.929 . S
C2481 C2473 1.433 . S
C2481 N2483 1.384 . S
N2482 C2478 1.427 . S
N2482 C2479 1.384 . S
N2483 C2475 1.427 . S
N2483 C2481 1.384 . S
H2484 C2490 0.930 . S
H2485 C2494 0.930 . S
H2486 C2499 0.929 . S
H2487 C2497 0.929 . S
H2488 C2492 0.929 . S
H2489 C2498 0.929 . S
C2490 H2484 0.930 . S
C2490 C2491 1.367 . S
C2490 C2498 1.378 . S
C2491 C2490 1.367 . S
C2491 C2499 1.433 . S
C2492 H2488 0.929 . S
C2492 C2494 1.378 . S
C2492 C2496 1.350 . S
C2493 C2496 1.463 . S
C2493 C2498 1.350 . S
C2493 N2501 1.427 . S
C2494 H2485 0.930 . S
C2494 C2492 1.378 . S
C2494 C2495 1.367 . S
C2495 C2494 1.367 . S
C2495 C2497 1.433 . S
C2496 C2492 1.350 . S
C2496 C2493 1.463 . S
C2496 N2500 1.427 . S
C2497 H2487 0.929 . S
C2497 C2495 1.433 . S
C2497 N2500 1.384 . S
C2498 H2489 0.929 . S
C2498 C2490 1.378 . S
C2498 C2493 1.350 . S
C2499 H2486 0.929 . S
C2499 C2491 1.433 . S
C2499 N2501 1.384 . S
N2500 C2496 1.427 . S
N2500 C2497 1.384 . S
N2501 C2493 1.427 . S
N2501 C2499 1.384 . S
H2502 C2508 0.930 . S
H2503 C2512 0.930 . S
H2504 C2517 0.929 . S
H2505 C2515 0.929 . S
H2506 C2510 0.929 . S
H2507 C2516 0.929 . S
C2508 H2502 0.930 . S
C2508 C2509 1.367 . S
C2508 C2516 1.378 . S
C2509 C2508 1.367 . S
C2509 C2517 1.433 . S
C2510 H2506 0.929 . S
C2510 C2512 1.378 . S
C2510 C2514 1.350 . S
C2511 C2514 1.463 . S
C2511 C2516 1.350 . S
C2511 N2519 1.427 . S
C2512 H2503 0.930 . S
C2512 C2510 1.378 . S
C2512 C2513 1.367 . S
C2513 C2512 1.367 . S
C2513 C2515 1.433 . S
C2514 C2510 1.350 . S
C2514 C2511 1.463 . S
C2514 N2518 1.427 . S
C2515 H2505 0.929 . S
C2515 C2513 1.433 . S
C2515 N2518 1.384 . S
C2516 H2507 0.929 . S
C2516 C2508 1.378 . S
C2516 C2511 1.350 . S
C2517 H2504 0.929 . S
C2517 C2509 1.433 . S
C2517 N2519 1.384 . S
N2518 C2514 1.427 . S
N2518 C2515 1.384 . S
N2519 C2511 1.427 . S
N2519 C2517 1.384 . S
H2520 C2526 0.930 . S
H2521 C2530 0.930 . S
H2522 C2535 0.929 . S
H2523 C2533 0.929 . S
H2524 C2528 0.929 . S
H2525 C2534 0.929 . S
C2526 H2520 0.930 . S
C2526 C2527 1.367 . S
C2526 C2534 1.378 . S
C2527 C2526 1.367 . S
C2527 C2535 1.433 . S
C2528 H2524 0.929 . S
C2528 C2530 1.378 . S
C2528 C2532 1.350 . S
C2529 C2532 1.463 . S
C2529 C2534 1.350 . S
C2529 N2537 1.427 . S
C2530 H2521 0.930 . S
C2530 C2528 1.378 . S
C2530 C2531 1.367 . S
C2531 C2530 1.367 . S
C2531 C2533 1.433 . S
C2532 C2528 1.350 . S
C2532 C2529 1.463 . S
C2532 N2536 1.427 . S
C2533 H2523 0.929 . S
C2533 C2531 1.433 . S
C2533 N2536 1.384 . S
C2534 H2525 0.929 . S
C2534 C2526 1.378 . S
C2534 C2529 1.350 . S
C2535 H2522 0.929 . S
C2535 C2527 1.433 . S
C2535 N2537 1.384 . S
N2536 C2532 1.427 . S
N2536 C2533 1.384 . S
N2537 C2529 1.427 . S
N2537 C2535 1.384 . S
H2538 C2544 0.930 . S
H2539 C2548 0.930 . S
H2540 C2553 0.929 . S
H2541 C2551 0.929 . S
H2542 C2546 0.929 . S
H2543 C2552 0.929 . S
C2544 H2538 0.930 . S
C2544 C2545 1.367 . S
C2544 C2552 1.378 . S
C2545 C2544 1.367 . S
C2545 C2553 1.433 . S
C2546 H2542 0.929 . S
C2546 C2548 1.378 . S
C2546 C2550 1.350 . S
C2547 C2550 1.463 . S
C2547 C2552 1.350 . S
C2547 N2555 1.427 . S
C2548 H2539 0.930 . S
C2548 C2546 1.378 . S
C2548 C2549 1.367 . S
C2549 C2548 1.367 . S
C2549 C2551 1.433 . S
C2550 C2546 1.350 . S
C2550 C2547 1.463 . S
C2550 N2554 1.427 . S
C2551 H2541 0.929 . S
C2551 C2549 1.433 . S
C2551 N2554 1.384 . S
C2552 H2543 0.929 . S
C2552 C2544 1.378 . S
C2552 C2547 1.350 . S
C2553 H2540 0.929 . S
C2553 C2545 1.433 . S
C2553 N2555 1.384 . S
N2554 C2550 1.427 . S
N2554 C2551 1.384 . S
N2555 C2547 1.427 . S
N2555 C2553 1.384 . S
H2556 C2562 0.930 . S
H2557 C2566 0.930 . S
H2558 C2571 0.929 . S
H2559 C2569 0.929 . S
H2560 C2564 0.929 . S
H2561 C2570 0.929 . S
C2562 H2556 0.930 . S
C2562 C2563 1.367 . S
C2562 C2570 1.378 . S
C2563 C2562 1.367 . S
C2563 C2571 1.433 . S
C2564 H2560 0.929 . S
C2564 C2566 1.378 . S
C2564 C2568 1.350 . S
C2565 C2568 1.463 . S
C2565 C2570 1.350 . S
C2565 N2573 1.427 . S
C2566 H2557 0.930 . S
C2566 C2564 1.378 . S
C2566 C2567 1.367 . S
C2567 C2566 1.367 . S
C2567 C2569 1.433 . S
C2568 C2564 1.350 . S
C2568 C2565 1.463 . S
C2568 N2572 1.427 . S
C2569 H2559 0.929 . S
C2569 C2567 1.433 . S
C2569 N2572 1.384 . S
C2570 H2561 0.929 . S
C2570 C2562 1.378 . S
C2570 C2565 1.350 . S
C2571 H2558 0.929 . S
C2571 C2563 1.433 . S
C2571 N2573 1.384 . S
N2572 C2568 1.427 . S
N2572 C2569 1.384 . S
N2573 C2565 1.427 . S
N2573 C2571 1.384 . S
H2574 C2580 0.930 . S
H2575 C2584 0.930 . S
H2576 C2589 0.929 . S
H2577 C2587 0.929 . S
H2578 C2582 0.929 . S
H2579 C2588 0.929 . S
C2580 H2574 0.930 . S
C2580 C2581 1.367 . S
C2580 C2588 1.378 . S
C2581 C2580 1.367 . S
C2581 C2589 1.433 . S
C2582 H2578 0.929 . S
C2582 C2584 1.378 . S
C2582 C2586 1.350 . S
C2583 C2586 1.463 . S
C2583 C2588 1.350 . S
C2583 N2591 1.427 . S
C2584 H2575 0.930 . S
C2584 C2582 1.378 . S
C2584 C2585 1.367 . S
C2585 C2584 1.367 . S
C2585 C2587 1.433 . S
C2586 C2582 1.350 . S
C2586 C2583 1.463 . S
C2586 N2590 1.427 . S
C2587 H2577 0.929 . S
C2587 C2585 1.433 . S
C2587 N2590 1.384 . S
C2588 H2579 0.929 . S
C2588 C2580 1.378 . S
C2588 C2583 1.350 . S
C2589 H2576 0.929 . S
C2589 C2581 1.433 . S
C2589 N2591 1.384 . S
N2590 C2586 1.427 . S
N2590 C2587 1.384 . S
N2591 C2583 1.427 . S
N2591 C2589 1.384 . S
H2592 C2598 0.930 . S
H2593 C2602 0.930 . S
H2594 C2607 0.929 . S
H2595 C2605 0.929 . S
H2596 C2600 0.929 . S
H2597 C2606 0.929 . S
C2598 H2592 0.930 . S
C2598 C2599 1.367 . S
C2598 C2606 1.378 . S
C2599 C2598 1.367 . S
C2599 C2607 1.433 . S
C2600 H2596 0.929 . S
C2600 C2602 1.378 . S
C2600 C2604 1.350 . S
C2601 C2604 1.463 . S
C2601 C2606 1.350 . S
C2601 N2609 1.427 . S
C2602 H2593 0.930 . S
C2602 C2600 1.378 . S
C2602 C2603 1.367 . S
C2603 C2602 1.367 . S
C2603 C2605 1.433 . S
C2604 C2600 1.350 . S
C2604 C2601 1.463 . S
C2604 N2608 1.427 . S
C2605 H2595 0.929 . S
C2605 C2603 1.433 . S
C2605 N2608 1.384 . S
C2606 H2597 0.929 . S
C2606 C2598 1.378 . S
C2606 C2601 1.350 . S
C2607 H2594 0.929 . S
C2607 C2599 1.433 . S
C2607 N2609 1.384 . S
N2608 C2604 1.427 . S
N2608 C2605 1.384 . S
N2609 C2601 1.427 . S
N2609 C2607 1.384 . S
H2610 C2616 0.930 . S
H2611 C2620 0.930 . S
H2612 C2625 0.929 . S
H2613 C2623 0.929 . S
H2614 C2618 0.929 . S
H2615 C2624 0.929 . S
C2616 H2610 0.930 . S
C2616 C2617 1.367 . S
C2616 C2624 1.378 . S
C2617 C2616 1.367 . S
C2617 C2625 1.433 . S
C2618 H2614 0.929 . S
C2618 C2620 1.378 . S
C2618 C2622 1.350 . S
C2619 C2622 1.463 . S
C2619 C2624 1.350 . S
C2619 N2627 1.427 . S
C2620 H2611 0.930 . S
C2620 C2618 1.378 . S
C2620 C2621 1.367 . S
C2621 C2620 1.367 . S
C2621 C2623 1.433 . S
C2622 C2618 1.350 . S
C2622 C2619 1.463 . S
C2622 N2626 1.427 . S
C2623 H2613 0.929 . S
C2623 C2621 1.433 . S
C2623 N2626 1.384 . S
C2624 H2615 0.929 . S
C2624 C2616 1.378 . S
C2624 C2619 1.350 . S
C2625 H2612 0.929 . S
C2625 C2617 1.433 . S
C2625 N2627 1.384 . S
N2626 C2622 1.427 . S
N2626 C2623 1.384 . S
N2627 C2619 1.427 . S
N2627 C2625 1.384 . S
H2628 C2634 0.930 . S
H2629 C2638 0.930 . S
H2630 C2643 0.929 . S
H2631 C2641 0.929 . S
H2632 C2636 0.929 . S
H2633 C2642 0.929 . S
C2634 H2628 0.930 . S
C2634 C2635 1.367 . S
C2634 C2642 1.378 . S
C2635 C2634 1.367 . S
C2635 C2643 1.433 . S
C2636 H2632 0.929 . S
C2636 C2638 1.378 . S
C2636 C2640 1.350 . S
C2637 C2640 1.463 . S
C2637 C2642 1.350 . S
C2637 N2645 1.427 . S
C2638 H2629 0.930 . S
C2638 C2636 1.378 . S
C2638 C2639 1.367 . S
C2639 C2638 1.367 . S
C2639 C2641 1.433 . S
C2640 C2636 1.350 . S
C2640 C2637 1.463 . S
C2640 N2644 1.427 . S
C2641 H2631 0.929 . S
C2641 C2639 1.433 . S
C2641 N2644 1.384 . S
C2642 H2633 0.929 . S
C2642 C2634 1.378 . S
C2642 C2637 1.350 . S
C2643 H2630 0.929 . S
C2643 C2635 1.433 . S
C2643 N2645 1.384 . S
N2644 C2640 1.427 . S
N2644 C2641 1.384 . S
N2645 C2637 1.427 . S
N2645 C2643 1.384 . S
H2646 C2652 0.930 . S
H2647 C2656 0.930 . S
H2648 C2661 0.929 . S
H2649 C2659 0.929 . S
H2650 C2654 0.929 . S
H2651 C2660 0.929 . S
C2652 H2646 0.930 . S
C2652 C2653 1.367 . S
C2652 C2660 1.378 . S
C2653 C2652 1.367 . S
C2653 C2661 1.433 . S
C2654 H2650 0.929 . S
C2654 C2656 1.378 . S
C2654 C2658 1.350 . S
C2655 C2658 1.463 . S
C2655 C2660 1.350 . S
C2655 N2663 1.427 . S
C2656 H2647 0.930 . S
C2656 C2654 1.378 . S
C2656 C2657 1.367 . S
C2657 C2656 1.367 . S
C2657 C2659 1.433 . S
C2658 C2654 1.350 . S
C2658 C2655 1.463 . S
C2658 N2662 1.427 . S
C2659 H2649 0.929 . S
C2659 C2657 1.433 . S
C2659 N2662 1.384 . S
C2660 H2651 0.929 . S
C2660 C2652 1.378 . S
C2660 C2655 1.350 . S
C2661 H2648 0.929 . S
C2661 C2653 1.433 . S
C2661 N2663 1.384 . S
N2662 C2658 1.427 . S
N2662 C2659 1.384 . S
N2663 C2655 1.427 . S
N2663 C2661 1.384 . S
H2664 C2670 0.930 1_554 S
H2665 C2674 0.930 . S
H2666 C2679 0.929 . S
H2667 C2677 0.929 . S
H2668 C2672 0.929 . S
H2669 C2678 0.929 . S
C2670 H2664 0.930 1_556 S
C2670 C2671 1.367 . S
C2670 C2678 1.378 . S
C2671 C2670 1.367 . S
C2671 C2679 1.433 . S
C2672 H2668 0.929 . S
C2672 C2674 1.378 . S
C2672 C2676 1.350 . S
C2673 C2676 1.463 . S
C2673 C2678 1.350 . S
C2673 N2681 1.427 . S
C2674 H2665 0.930 . S
C2674 C2672 1.378 . S
C2674 C2675 1.367 . S
C2675 C2674 1.367 . S
C2675 C2677 1.433 . S
C2676 C2672 1.350 . S
C2676 C2673 1.463 . S
C2676 N2680 1.427 . S
C2677 H2667 0.929 . S
C2677 C2675 1.433 . S
C2677 N2680 1.384 . S
C2678 H2669 0.929 . S
C2678 C2670 1.378 . S
C2678 C2673 1.350 . S
C2679 H2666 0.929 . S
C2679 C2671 1.433 . S
C2679 N2681 1.384 . S
N2680 C2676 1.427 . S
N2680 C2677 1.384 . S
N2681 C2673 1.427 . S
N2681 C2679 1.384 . S
H2682 C2688 0.930 . S
H2683 C2692 0.930 . S
H2684 C2697 0.929 1_554 S
H2685 C2695 0.929 . S
H2686 C2690 0.929 . S
H2687 C2696 0.929 . S
C2688 H2682 0.930 . S
C2688 C2689 1.367 . S
C2688 C2696 1.378 . S
C2689 C2688 1.367 . S
C2689 C2697 1.433 . S
C2690 H2686 0.929 . S
C2690 C2692 1.378 . S
C2690 C2694 1.350 . S
C2691 C2694 1.463 . S
C2691 C2696 1.350 . S
C2691 N2699 1.427 . S
C2692 H2683 0.930 . S
C2692 C2690 1.378 . S
C2692 C2693 1.367 . S
C2693 C2692 1.367 . S
C2693 C2695 1.433 . S
C2694 C2690 1.350 . S
C2694 C2691 1.463 . S
C2694 N2698 1.427 . S
C2695 H2685 0.929 . S
C2695 C2693 1.433 . S
C2695 N2698 1.384 . S
C2696 H2687 0.929 . S
C2696 C2688 1.378 . S
C2696 C2691 1.350 . S
C2697 H2684 0.929 1_556 S
C2697 C2689 1.433 . S
C2697 N2699 1.384 . S
N2698 C2694 1.427 . S
N2698 C2695 1.384 . S
N2699 C2691 1.427 . S
N2699 C2697 1.384 . S
H2700 C2706 0.930 . S
H2701 C2710 0.930 . S
H2702 C2715 0.929 . S
H2703 C2713 0.929 . S
H2704 C2708 0.929 . S
H2705 C2714 0.929 . S
C2706 H2700 0.930 . S
C2706 C2707 1.367 . S
C2706 C2714 1.378 . S
C2707 C2706 1.367 . S
C2707 C2715 1.433 . S
C2708 H2704 0.929 . S
C2708 C2710 1.378 . S
C2708 C2712 1.350 . S
C2709 C2712 1.463 . S
C2709 C2714 1.350 . S
C2709 N2717 1.427 . S
C2710 H2701 0.930 . S
C2710 C2708 1.378 . S
C2710 C2711 1.367 . S
C2711 C2710 1.367 . S
C2711 C2713 1.433 . S
C2712 C2708 1.350 . S
C2712 C2709 1.463 . S
C2712 N2716 1.427 . S
C2713 H2703 0.929 . S
C2713 C2711 1.433 . S
C2713 N2716 1.384 . S
C2714 H2705 0.929 . S
C2714 C2706 1.378 . S
C2714 C2709 1.350 . S
C2715 H2702 0.929 . S
C2715 C2707 1.433 . S
C2715 N2717 1.384 . S
N2716 C2712 1.427 . S
N2716 C2713 1.384 . S
N2717 C2709 1.427 . S
N2717 C2715 1.384 . S
H2718 C2724 0.930 1_554 S
H2719 C2728 0.930 . S
H2720 C2733 0.929 . S
H2721 C2731 0.929 . S
H2722 C2726 0.929 . S
H2723 C2732 0.929 . S
C2724 H2718 0.930 1_556 S
C2724 C2725 1.367 . S
C2724 C2732 1.378 . S
C2725 C2724 1.367 . S
C2725 C2733 1.433 . S
C2726 H2722 0.929 . S
C2726 C2728 1.378 . S
C2726 C2730 1.350 . S
C2727 C2730 1.463 . S
C2727 C2732 1.350 . S
C2727 N2735 1.427 . S
C2728 H2719 0.930 . S
C2728 C2726 1.378 . S
C2728 C2729 1.367 . S
C2729 C2728 1.367 . S
C2729 C2731 1.433 . S
C2730 C2726 1.350 . S
C2730 C2727 1.463 . S
C2730 N2734 1.427 . S
C2731 H2721 0.929 . S
C2731 C2729 1.433 . S
C2731 N2734 1.384 . S
C2732 H2723 0.929 . S
C2732 C2724 1.378 . S
C2732 C2727 1.350 . S
C2733 H2720 0.929 . S
C2733 C2725 1.433 . S
C2733 N2735 1.384 . S
N2734 C2730 1.427 . S
N2734 C2731 1.384 . S
N2735 C2727 1.427 . S
N2735 C2733 1.384 . S
H2736 C2742 0.930 . S
H2737 C2746 0.930 . S
H2738 C2751 0.929 . S
H2739 C2749 0.929 . S
H2740 C2744 0.929 . S
H2741 C2750 0.929 . S
C2742 H2736 0.930 . S
C2742 C2743 1.367 . S
C2742 C2750 1.378 . S
C2743 C2742 1.367 . S
C2743 C2751 1.433 . S
C2744 H2740 0.929 . S
C2744 C2746 1.378 . S
C2744 C2748 1.350 . S
C2745 C2748 1.463 . S
C2745 C2750 1.350 . S
C2745 N2753 1.427 . S
C2746 H2737 0.930 . S
C2746 C2744 1.378 . S
C2746 C2747 1.367 . S
C2747 C2746 1.367 . S
C2747 C2749 1.433 . S
C2748 C2744 1.350 . S
C2748 C2745 1.463 . S
C2748 N2752 1.427 . S
C2749 H2739 0.929 . S
C2749 C2747 1.433 . S
C2749 N2752 1.384 . S
C2750 H2741 0.929 . S
C2750 C2742 1.378 . S
C2750 C2745 1.350 . S
C2751 H2738 0.929 . S
C2751 C2743 1.433 . S
C2751 N2753 1.384 . S
N2752 C2748 1.427 . S
N2752 C2749 1.384 . S
N2753 C2745 1.427 . S
N2753 C2751 1.384 . S
H2754 C2760 0.930 1_554 S
H2755 C2764 0.930 . S
H2756 C2769 0.929 . S
H2757 C2767 0.929 . S
H2758 C2762 0.929 . S
H2759 C2768 0.957 . S
C2760 H2754 0.930 1_556 S
C2760 C2761 1.367 . S
C2760 C2768 1.378 . S
C2761 C2760 1.367 . S
C2761 C2769 1.433 . S
C2762 H2758 0.929 . S
C2762 C2764 1.378 . S
C2762 C2766 1.350 . S
C2763 C2766 1.463 . S
C2763 C2768 1.350 . S
C2763 N2771 1.427 . S
C2764 H2755 0.930 . S
C2764 C2762 1.378 . S
C2764 C2765 1.367 . S
C2765 C2764 1.367 . S
C2765 C2767 1.433 . S
C2766 C2762 1.350 . S
C2766 C2763 1.463 . S
C2766 N2770 1.427 . S
C2767 H2757 0.929 . S
C2767 C2765 1.433 . S
C2767 N2770 1.384 . S
C2768 H2759 0.957 . S
C2768 C2760 1.378 . S
C2768 C2763 1.350 . S
C2769 H2756 0.929 . S
C2769 C2761 1.433 . S
C2769 N2771 1.384 . S
N2770 C2766 1.427 . S
N2770 C2767 1.384 . S
N2771 C2763 1.427 . S
N2771 C2769 1.384 . S
H2772 C2778 0.930 . S
H2773 C2782 0.930 . S
H2774 C2787 0.929 . S
H2775 C2785 0.929 . S
H2776 C2780 0.929 . S
H2777 C2786 0.929 . S
C2778 H2772 0.930 . S
C2778 C2779 1.367 . S
C2778 C2786 1.378 . S
C2779 C2778 1.367 . S
C2779 C2787 1.433 . S
C2780 H2776 0.929 . S
C2780 C2782 1.378 . S
C2780 C2784 1.350 . S
C2781 C2784 1.463 . S
C2781 C2786 1.350 . S
C2781 N2789 1.427 . S
C2782 H2773 0.930 . S
C2782 C2780 1.378 . S
C2782 C2783 1.367 . S
C2783 C2782 1.367 . S
C2783 C2785 1.433 . S
C2784 C2780 1.350 . S
C2784 C2781 1.463 . S
C2784 N2788 1.427 . S
C2785 H2775 0.929 . S
C2785 C2783 1.433 . S
C2785 N2788 1.384 . S
C2786 H2777 0.929 . S
C2786 C2778 1.378 . S
C2786 C2781 1.350 . S
C2787 H2774 0.929 . S
C2787 C2779 1.433 . S
C2787 N2789 1.384 . S
N2788 C2784 1.427 . S
N2788 C2785 1.384 . S
N2789 C2781 1.427 . S
N2789 C2787 1.384 . S
H2790 C2796 0.930 . S
H2791 C2800 0.930 . S
H2792 C2805 0.929 . S
H2793 C2803 0.929 . S
H2794 C2798 0.929 . S
H2795 C2804 0.929 . S
C2796 H2790 0.930 . S
C2796 C2797 1.367 . S
C2796 C2804 1.378 . S
C2797 C2796 1.367 . S
C2797 C2805 1.433 . S
C2798 H2794 0.929 . S
C2798 C2800 1.378 . S
C2798 C2802 1.350 . S
C2799 C2802 1.463 . S
C2799 C2804 1.350 . S
C2799 N2807 1.427 . S
C2800 H2791 0.930 . S
C2800 C2798 1.378 . S
C2800 C2801 1.367 . S
C2801 C2800 1.367 . S
C2801 C2803 1.433 . S
C2802 C2798 1.350 . S
C2802 C2799 1.463 . S
C2802 N2806 1.427 . S
C2803 H2793 0.929 . S
C2803 C2801 1.433 . S
C2803 N2806 1.384 . S
C2804 H2795 0.929 . S
C2804 C2796 1.378 . S
C2804 C2799 1.350 . S
C2805 H2792 0.929 . S
C2805 C2797 1.433 . S
C2805 N2807 1.384 . S
N2806 C2802 1.427 . S
N2806 C2803 1.384 . S
N2807 C2799 1.427 . S
N2807 C2805 1.384 . S
H2808 C2814 0.930 . S
H2809 C2818 0.930 . S
H2810 C2823 0.929 . S
H2811 C2821 0.929 . S
H2812 C2816 0.929 . S
H2813 C2822 0.929 . S
C2814 H2808 0.930 . S
C2814 C2815 1.367 . S
C2814 C2822 1.378 . S
C2815 C2814 1.367 . S
C2815 C2823 1.433 . S
C2816 H2812 0.929 . S
C2816 C2818 1.378 . S
C2816 C2820 1.350 . S
C2817 C2820 1.463 . S
C2817 C2822 1.350 . S
C2817 N2825 1.427 . S
C2818 H2809 0.930 . S
C2818 C2816 1.378 . S
C2818 C2819 1.367 . S
C2819 C2818 1.367 . S
C2819 C2821 1.433 . S
C2820 C2816 1.350 . S
C2820 C2817 1.463 . S
C2820 N2824 1.427 . S
C2821 H2811 0.929 . S
C2821 C2819 1.433 . S
C2821 N2824 1.384 . S
C2822 H2813 0.929 . S
C2822 C2814 1.378 . S
C2822 C2817 1.350 . S
C2823 H2810 0.929 . S
C2823 C2815 1.433 . S
C2823 N2825 1.384 . S
N2824 C2820 1.427 . S
N2824 C2821 1.384 . S
N2825 C2817 1.427 . S
N2825 C2823 1.384 . S
H2826 C2832 0.930 . S
H2827 C2836 0.930 . S
H2828 C2841 0.929 . S
H2829 C2839 0.929 . S
H2830 C2834 0.929 . S
H2831 C2840 0.929 . S
C2832 H2826 0.930 . S
C2832 C2833 1.367 . S
C2832 C2840 1.378 . S
C2833 C2832 1.367 . S
C2833 C2841 1.433 . S
C2834 H2830 0.929 . S
C2834 C2836 1.378 . S
C2834 C2838 1.350 . S
C2835 C2838 1.463 . S
C2835 C2840 1.350 . S
C2835 N2843 1.427 . S
C2836 H2827 0.930 . S
C2836 C2834 1.378 . S
C2836 C2837 1.367 . S
C2837 C2836 1.367 . S
C2837 C2839 1.433 . S
C2838 C2834 1.350 . S
C2838 C2835 1.463 . S
C2838 N2842 1.427 . S
C2839 H2829 0.929 . S
C2839 C2837 1.433 . S
C2839 N2842 1.384 . S
C2840 H2831 0.929 . S
C2840 C2832 1.378 . S
C2840 C2835 1.350 . S
C2841 H2828 0.929 . S
C2841 C2833 1.433 . S
C2841 N2843 1.384 . S
N2842 C2838 1.427 . S
N2842 C2839 1.384 . S
N2843 C2835 1.427 . S
N2843 C2841 1.384 . S
H2844 C2850 0.930 . S
H2845 C2854 0.930 . S
H2846 C2859 0.929 . S
H2847 C2857 0.929 . S
H2848 C2852 0.929 . S
H2849 C2858 0.929 . S
C2850 H2844 0.930 . S
C2850 C2851 1.367 . S
C2850 C2858 1.378 . S
C2851 C2850 1.367 . S
C2851 C2859 1.433 . S
C2852 H2848 0.929 . S
C2852 C2854 1.378 . S
C2852 C2856 1.350 . S
C2853 C2856 1.463 . S
C2853 C2858 1.350 . S
C2853 N2861 1.427 . S
C2854 H2845 0.930 . S
C2854 C2852 1.378 . S
C2854 C2855 1.367 . S
C2855 C2854 1.367 . S
C2855 C2857 1.433 . S
C2856 C2852 1.350 . S
C2856 C2853 1.463 . S
C2856 N2860 1.427 . S
C2857 H2847 0.929 . S
C2857 C2855 1.433 . S
C2857 N2860 1.384 . S
C2858 H2849 0.929 . S
C2858 C2850 1.378 . S
C2858 C2853 1.350 . S
C2859 H2846 0.929 . S
C2859 C2851 1.433 . S
C2859 N2861 1.384 . S
N2860 C2856 1.427 . S
N2860 C2857 1.384 . S
N2861 C2853 1.427 . S
N2861 C2859 1.384 . S
H2862 C2868 0.930 . S
H2863 C2872 0.930 . S
H2864 C2877 0.929 . S
H2865 C2875 0.929 . S
H2866 C2870 0.929 . S
H2867 C2876 0.929 . S
C2868 H2862 0.930 . S
C2868 C2869 1.367 . S
C2868 C2876 1.378 . S
C2869 C2868 1.367 . S
C2869 C2877 1.433 . S
C2870 H2866 0.929 . S
C2870 C2872 1.378 . S
C2870 C2874 1.350 . S
C2871 C2874 1.463 . S
C2871 C2876 1.350 . S
C2871 N2879 1.427 . S
C2872 H2863 0.930 . S
C2872 C2870 1.378 . S
C2872 C2873 1.367 . S
C2873 C2872 1.367 . S
C2873 C2875 1.433 . S
C2874 C2870 1.350 . S
C2874 C2871 1.463 . S
C2874 N2878 1.427 . S
C2875 H2865 0.929 . S
C2875 C2873 1.433 . S
C2875 N2878 1.384 . S
C2876 H2867 0.929 . S
C2876 C2868 1.378 . S
C2876 C2871 1.350 . S
C2877 H2864 0.929 . S
C2877 C2869 1.433 . S
C2877 N2879 1.384 . S
N2878 C2874 1.427 . S
N2878 C2875 1.384 . S
N2879 C2871 1.427 . S
N2879 C2877 1.384 . S
H2880 C2886 0.930 . S
H2881 C2890 0.930 . S
H2882 C2895 0.907 1_655 S
H2883 C2893 0.929 . S
H2884 C2888 0.929 . S
H2885 C2894 0.929 . S
C2886 H2880 0.930 . S
C2886 C2887 1.367 . S
C2886 C2894 1.378 . S
C2887 C2886 1.367 . S
C2887 C2895 1.494 . S
C2888 H2884 0.929 . S
C2888 C2890 1.378 . S
C2888 C2892 1.350 1_655 S
C2889 C2892 1.463 . S
C2889 C2894 1.350 . S
C2889 N2897 1.394 1_455 S
C2890 H2881 0.930 . S
C2890 C2888 1.378 . S
C2890 C2891 1.367 1_655 S
C2891 C2890 1.367 1_455 S
C2891 C2893 1.433 . S
C2892 C2888 1.350 1_455 S
C2892 C2889 1.463 . S
C2892 N2896 1.427 . S
C2893 H2883 0.929 . S
C2893 C2891 1.433 . S
C2893 N2896 1.384 . S
C2894 H2885 0.929 . S
C2894 C2886 1.378 . S
C2894 C2889 1.350 . S
C2895 H2882 0.907 1_455 S
C2895 C2887 1.494 . S
C2895 N2897 1.307 1_455 S
N2896 C2892 1.427 . S
N2896 C2893 1.384 . S
N2897 C2889 1.394 1_655 S
N2897 C2895 1.307 1_655 S
H2898 C2904 0.930 . S
H2899 C2908 0.930 . S
H2900 C2913 0.929 . S
H2901 C2911 0.929 . S
H2902 C2906 0.929 . S
H2903 C2912 0.929 . S
C2904 H2898 0.930 . S
C2904 C2905 1.367 . S
C2904 C2912 1.378 . S
C2905 C2904 1.367 . S
C2905 C2913 1.433 . S
C2906 H2902 0.929 . S
C2906 C2908 1.378 . S
C2906 C2910 1.350 . S
C2907 C2910 1.463 . S
C2907 C2912 1.350 . S
C2907 N2915 1.427 . S
C2908 H2899 0.930 . S
C2908 C2906 1.378 . S
C2908 C2909 1.367 . S
C2909 C2908 1.367 . S
C2909 C2911 1.433 . S
C2910 C2906 1.350 . S
C2910 C2907 1.463 . S
C2910 N2914 1.427 . S
C2911 H2901 0.929 . S
C2911 C2909 1.433 . S
C2911 N2914 1.384 . S
C2912 H2903 0.929 . S
C2912 C2904 1.378 . S
C2912 C2907 1.350 . S
C2913 H2900 0.929 . S
C2913 C2905 1.433 . S
C2913 N2915 1.384 . S
N2914 C2910 1.427 . S
N2914 C2911 1.384 . S
N2915 C2907 1.427 . S
N2915 C2913 1.384 . S
H2916 C2922 0.930 . S
H2917 C2926 0.930 . S
H2918 C2931 0.929 1_545 S
H2919 C2929 0.929 . S
H2920 C2924 0.929 . S
H2921 C2930 0.929 . S
C2922 H2916 0.930 . S
C2922 C2923 1.367 . S
C2922 C2930 1.378 . S
C2923 C2922 1.367 . S
C2923 C2931 1.433 . S
C2924 H2920 0.929 . S
C2924 C2926 1.378 . S
C2924 C2928 1.350 1_545 S
C2925 C2928 1.463 . S
C2925 C2930 1.350 . S
C2925 N2933 1.427 . S
C2926 H2917 0.930 . S
C2926 C2924 1.378 . S
C2926 C2927 1.367 1_545 S
C2927 C2926 1.367 1_565 S
C2927 C2929 1.433 . S
C2928 C2924 1.350 1_565 S
C2928 C2925 1.463 . S
C2928 N2932 1.427 . S
C2929 H2919 0.929 . S
C2929 C2927 1.433 . S
C2929 N2932 1.384 . S
C2930 H2921 0.929 . S
C2930 C2922 1.378 . S
C2930 C2925 1.350 . S
C2931 H2918 0.929 1_565 S
C2931 C2923 1.433 . S
C2931 N2933 1.384 . S
N2932 C2928 1.427 . S
N2932 C2929 1.384 . S
N2933 C2925 1.427 . S
N2933 C2931 1.384 . S
H2934 C2940 0.930 . S
H2935 C2944 0.930 . S
H2936 C2949 0.929 . S
H2937 C2947 0.929 . S
H2938 C2942 0.929 . S
H2939 C2948 0.929 . S
C2940 H2934 0.930 . S
C2940 C2941 1.367 1_545 S
C2940 C2948 1.378 . S
C2941 C2940 1.367 1_565 S
C2941 C2949 1.433 . S
C2942 H2938 0.929 . S
C2942 C2944 1.378 . S
C2942 C2946 1.350 . S
C2943 C2946 1.463 . S
C2943 C2948 1.350 1_565 S
C2943 N2951 1.427 . S
C2944 H2935 0.930 . S
C2944 C2942 1.378 . S
C2944 C2945 1.367 . S
C2945 C2944 1.367 . S
C2945 C2947 1.433 1_565 S
C2946 C2942 1.350 . S
C2946 C2943 1.463 . S
C2946 N2950 1.427 1_565 S
C2947 H2937 0.929 . S
C2947 C2945 1.433 1_545 S
C2947 N2950 1.384 . S
C2948 H2939 0.929 . S
C2948 C2940 1.378 . S
C2948 C2943 1.350 1_545 S
C2949 H2936 0.929 . S
C2949 C2941 1.433 . S
C2949 N2951 1.384 . S
N2950 C2946 1.427 1_545 S
N2950 C2947 1.384 . S
N2951 C2943 1.427 . S
N2951 C2949 1.384 . S
H2952 C2958 0.930 . S
H2953 C2962 0.930 . S
H2954 C2967 0.929 1_655 S
H2955 C2965 0.929 . S
H2956 C2960 0.929 . S
H2957 C2966 0.929 . S
C2958 H2952 0.930 . S
C2958 C2959 1.367 . S
C2958 C2966 1.378 . S
C2959 C2958 1.367 . S
C2959 C2967 1.433 . S
C2960 H2956 0.929 . S
C2960 C2962 1.378 . S
C2960 C2964 1.350 1_655 S
C2961 C2964 1.463 . S
C2961 C2966 1.350 . S
C2961 N2969 1.426 . S
C2962 H2953 0.930 . S
C2962 C2960 1.378 . S
C2962 C2963 1.367 1_655 S
C2963 C2962 1.367 1_455 S
C2963 C2965 1.433 . S
C2964 C2960 1.350 1_455 S
C2964 C2961 1.463 . S
C2964 N2968 1.427 . S
C2965 H2955 0.929 . S
C2965 C2963 1.433 . S
C2965 N2968 1.384 . S
C2966 H2957 0.929 . S
C2966 C2958 1.378 . S
C2966 C2961 1.350 . S
C2967 H2954 0.929 1_455 S
C2967 C2959 1.433 . S
C2967 N2969 1.384 . S
N2968 C2964 1.427 . S
N2968 C2965 1.384 . S
N2969 C2961 1.426 . S
N2969 C2967 1.384 . S
H2970 C2976 0.930 . S
H2971 C2980 0.930 . S
H2972 C2985 0.929 . S
H2973 C2983 0.929 . S
H2974 C2978 0.929 . S
H2975 C2984 0.929 . S
C2976 H2970 0.930 . S
C2976 C2977 1.367 . S
C2976 C2984 1.378 . S
C2977 C2976 1.367 . S
C2977 C2985 1.433 . S
C2978 H2974 0.929 . S
C2978 C2980 1.378 . S
C2978 C2982 1.350 . S
C2979 C2982 1.463 . S
C2979 C2984 1.350 . S
C2979 N2987 1.427 . S
C2980 H2971 0.930 . S
C2980 C2978 1.378 . S
C2980 C2981 1.367 . S
C2981 C2980 1.367 . S
C2981 C2983 1.433 . S
C2982 C2978 1.350 . S
C2982 C2979 1.463 . S
C2982 N2986 1.427 . S
C2983 H2973 0.929 . S
C2983 C2981 1.433 . S
C2983 N2986 1.384 . S
C2984 H2975 0.929 . S
C2984 C2976 1.378 . S
C2984 C2979 1.350 . S
C2985 H2972 0.929 . S
C2985 C2977 1.433 . S
C2985 N2987 1.384 . S
N2986 C2982 1.427 . S
N2986 C2983 1.384 . S
N2987 C2979 1.427 . S
N2987 C2985 1.384 . S
H2988 C2994 0.930 . S
H2989 C2998 0.930 . S
H2990 C3003 0.929 . S
H2991 C3001 0.929 . S
H2992 C2996 0.929 . S
H2993 C3002 0.929 . S
C2994 H2988 0.930 . S
C2994 C2995 1.367 . S
C2994 C3002 1.378 . S
C2995 C2994 1.367 . S
C2995 C3003 1.433 . S
C2996 H2992 0.929 . S
C2996 C2998 1.378 . S
C2996 C3000 1.350 . S
C2997 C3000 1.463 . S
C2997 C3002 1.350 . S
C2997 N3005 1.427 . S
C2998 H2989 0.930 . S
C2998 C2996 1.378 . S
C2998 C2999 1.367 . S
C2999 C2998 1.367 . S
C2999 C3001 1.433 . S
C3000 C2996 1.350 . S
C3000 C2997 1.463 . S
C3000 N3004 1.427 . S
C3001 H2991 0.929 . S
C3001 C2999 1.433 . S
C3001 N3004 1.384 . S
C3002 H2993 0.929 . S
C3002 C2994 1.378 . S
C3002 C2997 1.350 . S
C3003 H2990 0.929 . S
C3003 C2995 1.433 . S
C3003 N3005 1.384 . S
N3004 C3000 1.427 . S
N3004 C3001 1.384 . S
N3005 C2997 1.427 . S
N3005 C3003 1.384 . S
H3006 C3012 0.930 . S
H3007 C3016 0.930 . S
H3008 C3021 0.929 . S
H3009 C3019 0.929 . S
H3010 C3014 0.929 . S
H3011 C3020 0.929 . S
C3012 H3006 0.930 . S
C3012 C3013 1.367 . S
C3012 C3020 1.378 . S
C3013 C3012 1.367 . S
C3013 C3021 1.433 . S
C3014 H3010 0.929 . S
C3014 C3016 1.378 . S
C3014 C3018 1.350 . S
C3015 C3018 1.463 . S
C3015 C3020 1.350 . S
C3015 N3023 1.427 . S
C3016 H3007 0.930 . S
C3016 C3014 1.378 . S
C3016 C3017 1.367 . S
C3017 C3016 1.367 . S
C3017 C3019 1.433 . S
C3018 C3014 1.350 . S
C3018 C3015 1.463 . S
C3018 N3022 1.427 . S
C3019 H3009 0.929 . S
C3019 C3017 1.433 . S
C3019 N3022 1.384 . S
C3020 H3011 0.929 . S
C3020 C3012 1.378 . S
C3020 C3015 1.350 . S
C3021 H3008 0.929 . S
C3021 C3013 1.433 . S
C3021 N3023 1.384 . S
N3022 C3018 1.427 . S
N3022 C3019 1.384 . S
N3023 C3015 1.427 . S
N3023 C3021 1.384 . S
H3024 C3030 0.930 . S
H3025 C3034 0.930 . S
H3026 C3039 0.929 . S
H3027 C3037 0.929 . S
H3028 C3032 0.929 . S
H3029 C3038 0.929 . S
C3030 H3024 0.930 . S
C3030 C3031 1.367 . S
C3030 C3038 1.378 . S
C3031 C3030 1.367 . S
C3031 C3039 1.433 . S
C3032 H3028 0.929 . S
C3032 C3034 1.378 . S
C3032 C3036 1.350 . S
C3033 C3036 1.463 . S
C3033 C3038 1.350 . S
C3033 N3041 1.427 . S
C3034 H3025 0.930 . S
C3034 C3032 1.378 . S
C3034 C3035 1.367 . S
C3035 C3034 1.367 . S
C3035 C3037 1.433 . S
C3036 C3032 1.350 . S
C3036 C3033 1.463 . S
C3036 N3040 1.427 . S
C3037 H3027 0.929 . S
C3037 C3035 1.433 . S
C3037 N3040 1.384 . S
C3038 H3029 0.929 . S
C3038 C3030 1.378 . S
C3038 C3033 1.350 . S
C3039 H3026 0.929 . S
C3039 C3031 1.433 . S
C3039 N3041 1.384 . S
N3040 C3036 1.427 . S
N3040 C3037 1.384 . S
N3041 C3033 1.427 . S
N3041 C3039 1.384 . S
H3042 C3048 0.930 . S
H3043 C3052 0.930 1_565 S
H3044 C3057 0.929 . S
H3045 C3055 0.929 . S
H3046 C3050 0.929 . S
H3047 C3056 0.929 . S
C3048 H3042 0.930 . S
C3048 C3049 1.367 . S
C3048 C3056 1.378 . S
C3049 C3048 1.367 . S
C3049 C3057 1.433 . S
C3050 H3046 0.929 . S
C3050 C3052 1.378 . S
C3050 C3054 1.350 . S
C3051 C3054 1.463 . S
C3051 C3056 1.350 . S
C3051 N3059 1.427 . S
C3052 H3043 0.930 1_545 S
C3052 C3050 1.378 . S
C3052 C3053 1.367 . S
C3053 C3052 1.367 . S
C3053 C3055 1.433 . S
C3054 C3050 1.350 . S
C3054 C3051 1.463 . S
C3054 N3058 1.427 . S
C3055 H3045 0.929 . S
C3055 C3053 1.433 . S
C3055 N3058 1.384 . S
C3056 H3047 0.929 . S
C3056 C3048 1.378 . S
C3056 C3051 1.350 . S
C3057 H3044 0.929 . S
C3057 C3049 1.433 . S
C3057 N3059 1.384 . S
N3058 C3054 1.427 . S
N3058 C3055 1.384 . S
N3059 C3051 1.427 . S
N3059 C3057 1.384 . S
H3060 C3066 0.930 . S
H3061 C3070 0.930 . S
H3062 C3075 0.929 . S
H3063 C3073 0.929 . S
H3064 C3068 0.929 . S
H3065 C3074 0.929 . S
C3066 H3060 0.930 . S
C3066 C3067 1.367 . S
C3066 C3074 1.378 . S
C3067 C3066 1.367 . S
C3067 C3075 1.433 1_655 S
C3068 H3064 0.929 . S
C3068 C3070 1.378 . S
C3068 C3072 1.350 1_455 S
C3069 C3072 1.463 . S
C3069 C3074 1.350 . S
C3069 N3077 1.427 1_655 S
C3070 H3061 0.930 . S
C3070 C3068 1.378 . S
C3070 C3071 1.367 1_455 S
C3071 C3070 1.367 1_655 S
C3071 C3073 1.433 . S
C3072 C3068 1.350 1_655 S
C3072 C3069 1.463 . S
C3072 N3076 1.427 . S
C3073 H3063 0.929 . S
C3073 C3071 1.433 . S
C3073 N3076 1.384 . S
C3074 H3065 0.929 . S
C3074 C3066 1.378 . S
C3074 C3069 1.350 . S
C3075 H3062 0.929 . S
C3075 C3067 1.433 1_455 S
C3075 N3077 1.384 . S
N3076 C3072 1.427 . S
N3076 C3073 1.384 . S
N3077 C3069 1.427 1_455 S
N3077 C3075 1.384 . S
H3078 C3084 0.930 . S
H3079 C3088 0.930 . S
H3080 C3093 0.929 . S
H3081 C3091 0.929 . S
H3082 C3086 0.929 . S
H3083 C3092 0.929 . S
C3084 H3078 0.930 . S
C3084 C3085 1.367 . S
C3084 C3092 1.378 . S
C3085 C3084 1.367 . S
C3085 C3093 1.433 . S
C3086 H3082 0.929 . S
C3086 C3088 1.378 . S
C3086 C3090 1.350 . S
C3087 C3090 1.463 . S
C3087 C3092 1.350 . S
C3087 N3095 1.427 . S
C3088 H3079 0.930 . S
C3088 C3086 1.378 . S
C3088 C3089 1.367 . S
C3089 C3088 1.367 . S
C3089 C3091 1.433 . S
C3090 C3086 1.350 . S
C3090 C3087 1.463 . S
C3090 N3094 1.427 . S
C3091 H3081 0.929 . S
C3091 C3089 1.433 . S
C3091 N3094 1.384 . S
C3092 H3083 0.929 . S
C3092 C3084 1.378 . S
C3092 C3087 1.350 . S
C3093 H3080 0.929 . S
C3093 C3085 1.433 . S
C3093 N3095 1.384 . S
N3094 C3090 1.427 . S
N3094 C3091 1.384 . S
N3095 C3087 1.427 . S
N3095 C3093 1.384 . S
H3096 C3102 0.930 . S
H3097 C3106 0.930 . S
H3098 C3111 0.929 . S
H3099 C3109 0.929 . S
H3100 C3104 0.929 . S
H3101 C3110 0.929 . S
C3102 H3096 0.930 . S
C3102 C3103 1.367 . S
C3102 C3110 1.378 . S
C3103 C3102 1.367 . S
C3103 C3111 1.433 . S
C3104 H3100 0.929 . S
C3104 C3106 1.378 . S
C3104 C3108 1.350 . S
C3105 C3108 1.463 . S
C3105 C3110 1.350 . S
C3105 N3113 1.427 . S
C3106 H3097 0.930 . S
C3106 C3104 1.378 . S
C3106 C3107 1.367 . S
C3107 C3106 1.367 . S
C3107 C3109 1.433 . S
C3108 C3104 1.350 . S
C3108 C3105 1.463 . S
C3108 N3112 1.427 . S
C3109 H3099 0.929 . S
C3109 C3107 1.433 . S
C3109 N3112 1.384 . S
C3110 H3101 0.929 . S
C3110 C3102 1.378 . S
C3110 C3105 1.350 . S
C3111 H3098 0.929 . S
C3111 C3103 1.433 . S
C3111 N3113 1.384 . S
N3112 C3108 1.427 . S
N3112 C3109 1.384 . S
N3113 C3105 1.427 . S
N3113 C3111 1.384 . S
H3114 C3120 0.930 . S
H3115 C3124 0.930 . S
H3116 C3129 0.929 . S
H3117 C3127 0.929 . S
H3118 C3122 0.929 . S
H3119 C3128 0.929 . S
C3120 H3114 0.930 . S
C3120 C3121 1.367 . S
C3120 C3128 1.378 . S
C3121 C3120 1.367 . S
C3121 C3129 1.433 . S
C3122 H3118 0.929 . S
C3122 C3124 1.378 . S
C3122 C3126 1.350 . S
C3123 C3126 1.463 . S
C3123 C3128 1.350 . S
C3123 N3131 1.427 . S
C3124 H3115 0.930 . S
C3124 C3122 1.378 . S
C3124 C3125 1.367 . S
C3125 C3124 1.367 . S
C3125 C3127 1.433 . S
C3126 C3122 1.350 . S
C3126 C3123 1.463 . S
C3126 N3130 1.427 . S
C3127 H3117 0.929 . S
C3127 C3125 1.433 . S
C3127 N3130 1.384 . S
C3128 H3119 0.929 . S
C3128 C3120 1.378 . S
C3128 C3123 1.350 . S
C3129 H3116 0.929 . S
C3129 C3121 1.433 . S
C3129 N3131 1.384 . S
N3130 C3126 1.427 . S
N3130 C3127 1.384 . S
N3131 C3123 1.427 . S
N3131 C3129 1.384 . S
H3132 C3138 0.930 . S
H3133 C3142 0.930 . S
H3134 C3147 0.929 . S
H3135 C3145 0.929 . S
H3136 C3140 0.929 . S
H3137 C3146 0.929 . S
C3138 H3132 0.930 . S
C3138 C3139 1.367 . S
C3138 C3146 1.378 . S
C3139 C3138 1.367 . S
C3139 C3147 1.433 . S
C3140 H3136 0.929 . S
C3140 C3142 1.378 . S
C3140 C3144 1.350 . S
C3141 C3144 1.463 . S
C3141 C3146 1.350 . S
C3141 N3149 1.427 . S
C3142 H3133 0.930 . S
C3142 C3140 1.378 . S
C3142 C3143 1.367 . S
C3143 C3142 1.367 . S
C3143 C3145 1.433 . S
C3144 C3140 1.350 . S
C3144 C3141 1.463 . S
C3144 N3148 1.427 . S
C3145 H3135 0.929 . S
C3145 C3143 1.433 . S
C3145 N3148 1.384 . S
C3146 H3137 0.929 . S
C3146 C3138 1.378 . S
C3146 C3141 1.350 . S
C3147 H3134 0.929 . S
C3147 C3139 1.433 . S
C3147 N3149 1.384 . S
N3148 C3144 1.427 . S
N3148 C3145 1.384 . S
N3149 C3141 1.427 . S
N3149 C3147 1.384 . S
H3150 C3156 0.930 . S
H3151 C3160 0.930 . S
H3152 C3165 0.929 . S
H3153 C3163 0.929 . S
H3154 C3158 0.929 . S
H3155 C3164 0.929 . S
C3156 H3150 0.930 . S
C3156 C3157 1.367 . S
C3156 C3164 1.378 . S
C3157 C3156 1.367 . S
C3157 C3165 1.433 . S
C3158 H3154 0.929 . S
C3158 C3160 1.378 . S
C3158 C3162 1.350 . S
C3159 C3162 1.463 . S
C3159 C3164 1.350 . S
C3159 N3167 1.427 . S
C3160 H3151 0.930 . S
C3160 C3158 1.378 . S
C3160 C3161 1.367 . S
C3161 C3160 1.367 . S
C3161 C3163 1.433 . S
C3162 C3158 1.350 . S
C3162 C3159 1.463 . S
C3162 N3166 1.427 . S
C3163 H3153 0.929 . S
C3163 C3161 1.433 . S
C3163 N3166 1.384 . S
C3164 H3155 0.929 . S
C3164 C3156 1.378 . S
C3164 C3159 1.350 . S
C3165 H3152 0.929 . S
C3165 C3157 1.433 . S
C3165 N3167 1.384 . S
N3166 C3162 1.427 . S
N3166 C3163 1.384 . S
N3167 C3159 1.427 . S
N3167 C3165 1.384 . S
H3168 C3174 0.930 . S
H3169 C3178 0.930 . S
H3170 C3183 0.929 . S
H3171 C3181 0.929 . S
H3172 C3176 0.929 . S
H3173 C3182 0.929 . S
C3174 H3168 0.930 . S
C3174 C3175 1.367 . S
C3174 C3182 1.378 . S
C3175 C3174 1.367 . S
C3175 C3183 1.433 . S
C3176 H3172 0.929 . S
C3176 C3178 1.378 . S
C3176 C3180 1.350 . S
C3177 C3180 1.463 . S
C3177 C3182 1.350 . S
C3177 N3185 1.427 . S
C3178 H3169 0.930 . S
C3178 C3176 1.378 . S
C3178 C3179 1.367 . S
C3179 C3178 1.367 . S
C3179 C3181 1.433 . S
C3180 C3176 1.350 . S
C3180 C3177 1.463 . S
C3180 N3184 1.427 . S
C3181 H3171 0.929 . S
C3181 C3179 1.433 . S
C3181 N3184 1.384 . S
C3182 H3173 0.929 . S
C3182 C3174 1.378 . S
C3182 C3177 1.350 . S
C3183 H3170 0.929 . S
C3183 C3175 1.433 . S
C3183 N3185 1.384 . S
N3184 C3180 1.427 . S
N3184 C3181 1.384 . S
N3185 C3177 1.427 . S
N3185 C3183 1.384 . S
H3186 C3192 0.930 . S
H3187 C3196 0.930 . S
H3188 C3201 0.929 . S
H3189 C3199 0.929 . S
H3190 C3194 0.929 . S
H3191 C3200 0.929 . S
C3192 H3186 0.930 . S
C3192 C3193 1.367 . S
C3192 C3200 1.378 . S
C3193 C3192 1.367 . S
C3193 C3201 1.433 . S
C3194 H3190 0.929 . S
C3194 C3196 1.378 . S
C3194 C3198 1.350 . S
C3195 C3198 1.463 . S
C3195 C3200 1.350 . S
C3195 N3203 1.427 . S
C3196 H3187 0.930 . S
C3196 C3194 1.378 . S
C3196 C3197 1.367 . S
C3197 C3196 1.367 . S
C3197 C3199 1.433 . S
C3198 C3194 1.350 . S
C3198 C3195 1.463 . S
C3198 N3202 1.427 . S
C3199 H3189 0.929 . S
C3199 C3197 1.433 . S
C3199 N3202 1.384 . S
C3200 H3191 0.929 . S
C3200 C3192 1.378 . S
C3200 C3195 1.350 . S
C3201 H3188 0.929 . S
C3201 C3193 1.433 . S
C3201 N3203 1.384 . S
N3202 C3198 1.427 . S
N3202 C3199 1.384 . S
N3203 C3195 1.427 . S
N3203 C3201 1.384 . S
H3204 C3210 0.930 1_455 S
H3205 C3214 0.930 . S
H3206 C3219 0.929 . S
H3207 C3217 0.929 . S
H3208 C3212 0.929 . S
H3209 C3218 0.929 1_455 S
C3210 H3204 0.930 1_655 S
C3210 C3211 1.367 . S
C3210 C3218 1.378 . S
C3211 C3210 1.367 . S
C3211 C3219 1.433 . S
C3212 H3208 0.929 . S
C3212 C3214 1.378 . S
C3212 C3216 1.350 . S
C3213 C3216 1.463 . S
C3213 C3218 1.350 . S
C3213 N3221 1.427 . S
C3214 H3205 0.930 . S
C3214 C3212 1.378 . S
C3214 C3215 1.367 . S
C3215 C3214 1.367 . S
C3215 C3217 1.433 1_655 S
C3216 C3212 1.350 . S
C3216 C3213 1.463 . S
C3216 N3220 1.427 1_655 S
C3217 H3207 0.929 . S
C3217 C3215 1.433 1_455 S
C3217 N3220 1.384 . S
C3218 H3209 0.929 1_655 S
C3218 C3210 1.378 . S
C3218 C3213 1.350 . S
C3219 H3206 0.929 . S
C3219 C3211 1.433 . S
C3219 N3221 1.384 . S
N3220 C3216 1.427 1_455 S
N3220 C3217 1.384 . S
N3221 C3213 1.427 . S
N3221 C3219 1.384 . S
H3222 C3228 0.930 . S
H3223 C3232 0.930 . S
H3224 C3237 0.929 . S
H3225 C3235 0.929 . S
H3226 C3230 0.929 . S
H3227 C3236 0.929 . S
C3228 H3222 0.930 . S
C3228 C3229 1.367 . S
C3228 C3236 1.378 . S
C3229 C3228 1.367 . S
C3229 C3237 1.433 . S
C3230 H3226 0.929 . S
C3230 C3232 1.378 . S
C3230 C3234 1.350 . S
C3231 C3234 1.463 . S
C3231 C3236 1.350 . S
C3231 N3239 1.427 . S
C3232 H3223 0.930 . S
C3232 C3230 1.378 . S
C3232 C3233 1.367 . S
C3233 C3232 1.367 . S
C3233 C3235 1.433 . S
C3234 C3230 1.350 . S
C3234 C3231 1.463 . S
C3234 N3238 1.427 . S
C3235 H3225 0.929 . S
C3235 C3233 1.433 . S
C3235 N3238 1.384 . S
C3236 H3227 0.929 . S
C3236 C3228 1.378 . S
C3236 C3231 1.350 . S
C3237 H3224 0.929 . S
C3237 C3229 1.433 . S
C3237 N3239 1.384 . S
N3238 C3234 1.427 . S
N3238 C3235 1.384 . S
N3239 C3231 1.427 . S
N3239 C3237 1.384 . S
H3240 C3246 0.930 . S
H3241 C3250 0.930 . S
H3242 C3255 0.929 . S
H3243 C3253 0.929 . S
H3244 C3248 0.929 . S
H3245 C3254 0.929 . S
C3246 H3240 0.930 . S
C3246 C3247 1.367 1_565 S
C3246 C3254 1.378 . S
C3247 C3246 1.367 1_545 S
C3247 C3255 1.433 . S
C3248 H3244 0.929 . S
C3248 C3250 1.378 . S
C3248 C3252 1.350 . S
C3249 C3252 1.463 . S
C3249 C3254 1.350 1_545 S
C3249 N3257 1.427 . S
C3250 H3241 0.930 . S
C3250 C3248 1.378 . S
C3250 C3251 1.367 . S
C3251 C3250 1.367 . S
C3251 C3253 1.433 1_545 S
C3252 C3248 1.350 . S
C3252 C3249 1.463 . S
C3252 N3256 1.427 1_545 S
C3253 H3243 0.929 . S
C3253 C3251 1.433 1_565 S
C3253 N3256 1.384 . S
C3254 H3245 0.929 . S
C3254 C3246 1.378 . S
C3254 C3249 1.350 1_565 S
C3255 H3242 0.929 . S
C3255 C3247 1.433 . S
C3255 N3257 1.384 . S
N3256 C3252 1.427 1_565 S
N3256 C3253 1.384 . S
N3257 C3249 1.427 . S
N3257 C3255 1.384 . S
C1969 C49 1.699 . S
C1973 C1790 1.659 1_655 S
C1987 C137 1.687 . S
C1991 C1803 1.646 . S
C2009 C1832 1.638 1_545 S
C2005 C205 1.691 . S
C2023 C196 1.672 . S
C2027 C1845 1.619 . S
C2041 C57 1.690 . S
C2045 C1866 1.643 . S
C2059 C145 1.689 . S
C2063 C1895 1.624 . S
C2077 C313 1.707 . S
C2081 C1874 1.635 . S
C2099 C1887 1.629 . S
C2095 C401 1.688 . S
C2117 C1853 1.625 . S
C2113 C489 1.692 . S
C2131 C469 1.688 . S
C2135 C1824 1.652 1_545 S
C2153 C1782 1.665 1_655 S
C2149 C293 1.701 . S
C2167 C381 1.689 . S
C2171 C1811 1.637 . S
C2185 C577 1.722 . S
C2189 C1916 1.647 . S
C2203 C645 1.707 . S
C2207 C1929 1.672 . S
C2225 C1958 1.604 . S
C2221 C733 1.689 . S
C2239 C724 1.689 . S
C2243 C1593 1.652 . S
C2257 C585 1.717 . S
C2261 C1614 1.681 . S
C2275 C636 1.714 . S
C2279 C1643 1.637 . S
C2293 C841 1.691 . S
C2297 C1622 1.636 . S
C2311 C937 1.706 . S
C2315 C1635 1.648 . S
C2333 C1601 1.649 . S
C2329 C1025 1.703 . S
C2351 C1950 1.645 . S
C2347 C988 1.699 . S
C2369 C1908 1.625 . S
C2365 C821 1.683 . S
C2387 C1937 1.650 . S
C2383 C900 1.699 . S
C2401 C1105 1.705 . S
C2405 C1664 1.636 . S
C2419 C1193 1.720 . S
C2423 C1677 1.685 . S
C2437 C1281 1.708 . S
C2441 C1706 1.626 . S
C2455 C1289 1.713 . S
C2459 C1719 1.677 . S
C2477 C1740 1.649 . S
C2473 C1113 1.689 . S
C2495 C1769 1.627 . S
C2491 C1201 1.708 . S
C2513 C1748 1.669 . S
C2509 C1369 1.722 . S
C2531 C1761 1.628 . S
C2527 C1457 1.690 . S
C2545 C1553 1.677 . S
C2549 C1727 1.623 . S
C2567 C1698 1.629 . S
C2563 C1516 1.676 . S
C2581 C1349 1.710 . S
C2585 C1656 1.651 . S
C2603 C1685 1.665 . S
C2599 C1437 1.713 . S
C2621 C1596 1.299 . S
C2617 C29 1.365 . S
C2635 C117 1.315 . S
C2639 C1617 1.214 . S
C2657 C1645 1.266 . S
C2653 C225 1.369 . S
C2675 C1666 1.233 . S
C2671 C233 1.352 . S
C2693 C1680 1.305 . S
C2689 C20 1.369 . S
C2711 C1708 1.208 . S
C2707 C108 1.324 . S
C2725 C321 1.401 . S
C2729 C1701 1.230 . S
C2743 C409 1.339 . S
C2747 C1659 1.177 . S
C2761 C497 1.404 . S
C2765 C1687 1.327 . S
C2779 C460 1.382 . S
C2783 C1624 1.337 . S
C2801 C1638 1.250 . S
C2797 C284 1.396 . S
C2815 C372 1.352 . S
C2819 C1603 1.283 . S
C2837 C1722 1.247 . S
C2833 C557 1.338 . S
C2851 C665 1.381 . S
C2855 C1743 1.294 . S
C2869 C753 1.391 . S
C2873 C1771 1.266 . S
C2891 C1792 1.145 . S
C2887 C761 1.217 . S
C2905 C548 1.325 . S
C2909 C1806 1.222 . S
C2923 C673 1.235 . S
C2927 C1834 1.162 . S
C2941 C849 1.247 . S
C2945 C1827 1.119 . S
C2959 C929 1.242 . S
C2963 C1785 1.137 . S
C2981 C1813 1.266 . S
C2977 C1017 1.353 . S
C2995 C997 1.350 . S
C2999 C1750 1.276 . S
C3013 C812 1.417 . S
C3017 C1764 1.228 . S
C3035 C1729 1.339 . S
C3031 C909 1.417 . S
C3053 C1848 1.108 1_545 S
C3049 C1085 1.232 . S
C3067 C1173 1.229 . S
C3071 C1869 1.126 1_655 S
C3085 C1261 1.324 . S
C3089 C1897 1.198 . S
C3107 C1918 1.205 . S
C3103 C1252 1.318 . S
C3125 C1932 1.304 . S
C3121 C1076 1.389 . S
C3139 C1164 1.390 . S
C3143 C1960 1.279 . S
C3157 C1377 1.368 . S
C3161 C1953 1.209 . S
C3175 C1465 1.410 . S
C3179 C1911 1.253 . S
C3197 C1939 1.323 . S
C3193 C1545 1.417 . S
C3215 C1876 1.169 1_655 S
C3211 C1525 1.225 . S
C3233 C1890 1.174 . S
C3229 C1340 1.352 . S
C3247 C1428 1.250 . S
C3251 C1855 1.174 1_545 S
