# Generated by pormake.
# Topology zzz, (3,6)-cn, num edge types: 1
# Building blocks:
#     Node 0, Type 0, BuildingBlock: QEWDON_clean_linker_0, # of connection points: 3
#     Node 1, Type 0, BuildingBlock: QEWDON_clean_linker_0, # of connection points: 3
#     Node 2, Type 0, BuildingBlock: QEWDON_clean_linker_0, # of connection points: 3
#     Node 3, Type 0, BuildingBlock: QEWDON_clean_linker_0, # of connection points: 3
#     Node 4, Type 0, BuildingBlock: QEWDON_clean_linker_0, # of connection points: 3
#     Node 5, Type 0, BuildingBlock: QEWDON_clean_linker_0, # of connection points: 3
#     Node 6, Type 0, BuildingBlock: QEWDON_clean_linker_0, # of connection points: 3
#     Node 7, Type 0, BuildingBlock: QEWDON_clean_linker_0, # of connection points: 3
#     Node 8, Type 1, BuildingBlock: BETDAH_clean_sbu_0, # of connection points: 6
#     Node 9, Type 1, BuildingBlock: BETDAH_clean_sbu_0, # of connection points: 6
#     Node 10, Type 1, BuildingBlock: BETDAH_clean_sbu_0, # of connection points: 6
#     Node 11, Type 1, BuildingBlock: BETDAH_clean_sbu_0, # of connection points: 6
#     Edge 12, Type (0, 1), BuildingBlock: EZIPEK_clean_linker_0, # of connection points: 2
#     Edge 13, Type (0, 1), BuildingBlock: EZIPEK_clean_linker_0, # of connection points: 2
#     Edge 14, Type (0, 1), BuildingBlock: EZIPEK_clean_linker_0, # of connection points: 2
#     Edge 15, Type (0, 1), BuildingBlock: EZIPEK_clean_linker_0, # of connection points: 2
#     Edge 16, Type (0, 1), BuildingBlock: EZIPEK_clean_linker_0, # of connection points: 2
#     Edge 17, Type (0, 1), BuildingBlock: EZIPEK_clean_linker_0, # of connection points: 2
#     Edge 18, Type (0, 1), BuildingBlock: EZIPEK_clean_linker_0, # of connection points: 2
#     Edge 19, Type (0, 1), BuildingBlock: EZIPEK_clean_linker_0, # of connection points: 2
#     Edge 20, Type (0, 1), BuildingBlock: EZIPEK_clean_linker_0, # of connection points: 2
#     Edge 21, Type (0, 1), BuildingBlock: EZIPEK_clean_linker_0, # of connection points: 2
#     Edge 22, Type (0, 1), BuildingBlock: EZIPEK_clean_linker_0, # of connection points: 2
#     Edge 23, Type (0, 1), BuildingBlock: EZIPEK_clean_linker_0, # of connection points: 2
#     Edge 24, Type (0, 1), BuildingBlock: EZIPEK_clean_linker_0, # of connection points: 2
#     Edge 25, Type (0, 1), BuildingBlock: EZIPEK_clean_linker_0, # of connection points: 2
#     Edge 26, Type (0, 1), BuildingBlock: EZIPEK_clean_linker_0, # of connection points: 2
#     Edge 27, Type (0, 1), BuildingBlock: EZIPEK_clean_linker_0, # of connection points: 2
#     Edge 28, Type (0, 1), BuildingBlock: EZIPEK_clean_linker_0, # of connection points: 2
#     Edge 29, Type (0, 1), BuildingBlock: EZIPEK_clean_linker_0, # of connection points: 2
#     Edge 30, Type (0, 1), BuildingBlock: EZIPEK_clean_linker_0, # of connection points: 2
#     Edge 31, Type (0, 1), BuildingBlock: EZIPEK_clean_linker_0, # of connection points: 2
#     Edge 32, Type (0, 1), BuildingBlock: EZIPEK_clean_linker_0, # of connection points: 2
#     Edge 33, Type (0, 1), BuildingBlock: EZIPEK_clean_linker_0, # of connection points: 2
#     Edge 34, Type (0, 1), BuildingBlock: EZIPEK_clean_linker_0, # of connection points: 2
#     Edge 35, Type (0, 1), BuildingBlock: EZIPEK_clean_linker_0, # of connection points: 2
# Relax obj value: 0.241
# Max RMSD: 0.191
# Mean RMSD: 0.125
data_MOF--net-zzz--node1-BETDAH_clean_sbu_0--node2-QEWDON_clean_linker_0--edge1-EZIPEK_clean_linker_0
_symmetry_space_group_name_H-M    P1
_symmetry_Int_Tables_number       1
_symmetry_cell_setting            triclinic
loop_
_symmetry_equiv_pos_as_xyz
'x, y, z'
_cell_length_a     41.846896
_cell_length_b     41.669769
_cell_length_c     9.6876602
_cell_angle_alpha  89.624026
_cell_angle_beta   89.471118
_cell_angle_gamma 89.827733
loop_
_atom_site_label
_atom_site_type_symbol
_atom_site_fract_x
_atom_site_fract_y
_atom_site_fract_z
_atom_type_partial_charge
H0 H 0.75367 0.47997 0.26377 0.0
C1 C 0.77386 0.48981 0.31793 0.0
C2 C 0.80255 0.47294 0.31236 0.0
C3 C 0.77131 0.51892 0.39023 0.0
H4 H 0.85165 0.47132 0.37359 0.0
C5 C 0.82926 0.48428 0.38261 0.0
C6 C 0.82793 0.51149 0.4657 0.0
C7 C 0.79861 0.52929 0.46826 0.0
C8 C 0.73962 0.53688 0.38478 0.0
H9 H 0.79739 0.55093 0.52905 0.0
C10 C 0.7179 0.53352 0.27182 0.0
C11 C 0.68692 0.54756 0.27489 0.0
C12 C 0.7297 0.55594 0.49658 0.0
H13 H 0.74475 0.55893 0.58572 0.0
C14 C 0.69957 0.5706 0.49789 0.0
H15 H 0.72465 0.5199 0.18141 0.0
C16 C 0.67834 0.56629 0.38912 0.0
H17 H 0.65493 0.57741 0.39468 0.0
H18 H 0.69235 0.58496 0.58556 0.0
H19 H 0.97897 0.76114 0.25292 0.0
C20 C 0.98936 0.7777 0.32527 0.0
C21 C 0.9822 0.81026 0.31066 0.0
C22 C 1.00886 0.76669 0.43448 0.0
H23 H 0.99071 0.85743 0.38891 0.0
C24 C 0.99519 0.83223 0.40251 0.0
C25 C 1.01141 0.82319 0.52003 0.0
C26 C 1.01895 0.78994 0.53593 0.0
C27 C 1.01615 0.73086 0.44482 0.0
H28 H 0.03238 0.78264 0.62557 0.0
C29 C 1.01549 0.70966 0.32775 0.0
C30 C 1.02008 0.67589 0.34334 0.0
C31 C 0.02224 0.71704 0.57493 0.0
H32 H 0.02221 0.73133 0.66761 0.0
C33 C 0.02732 0.68412 0.58959 0.0
H34 H 1.01145 0.71902 0.22499 0.0
C35 C 0.02599 0.66394 0.47578 0.0
H36 H 0.02912 0.63864 0.49128 0.0
H37 H 0.03171 0.67401 0.69094 0.0
H38 H 0.79256 0.07499 0.29089 0.0
C39 C 0.77282 0.0666 0.35429 0.0
C40 C 0.74332 0.08163 0.33757 0.0
C41 C 0.77602 0.03895 0.43665 0.0
H42 H 0.6948 0.08495 0.41478 0.0
C43 C 0.71772 0.0731 0.42595 0.0
C44 C 0.7193 0.04619 0.51284 0.0
C45 C 0.7488 0.02876 0.51738 0.0
C46 C 0.80778 1.02126 0.43112 0.0
H47 H 0.75015 1.00718 0.57979 0.0
C48 C 0.82796 1.02188 0.3105 0.0
C49 C 0.85949 1.00918 0.31209 0.0
C50 C 0.8195 1.0058 0.54964 0.0
H51 H 0.80538 1.00495 0.64377 0.0
C52 C 0.85022 0.9924 0.55038 0.0
H53 H 0.81964 0.03261 0.21537 0.0
C54 C 0.87012 0.99436 0.43381 0.0
H55 H 0.89403 0.98436 0.43872 0.0
H56 H 0.85896 0.98095 0.64336 0.0
H57 H 0.56802 0.78601 0.24132 0.0
C58 C 0.55754 0.76984 0.31685 0.0
C59 C 0.56508 0.73728 0.30832 0.0
C60 C 0.53746 0.78143 0.42385 0.0
H61 H 0.5566 0.69069 0.39549 0.0
C62 C 0.55189 0.71594 0.40444 0.0
C63 C 0.53449 0.7257 0.51882 0.0
C64 C 0.52671 0.75896 0.52868 0.0
C65 C 0.5303 0.81716 0.42782 0.0
H66 H 0.51264 0.76701 0.61607 0.0
C67 C 0.52972 0.83672 0.30533 0.0
C68 C 0.52647 0.87064 0.31249 0.0
C69 C 0.52629 0.8326 0.55556 0.0
H70 H 0.52713 0.81921 0.6515 0.0
C71 C 0.52251 0.86588 0.56244 0.0
H72 H 0.53204 0.82588 0.20452 0.0
C73 C 0.52297 0.88468 0.44265 0.0
H74 H 0.5208 0.91039 0.45151 0.0
H75 H 0.51984 0.87732 0.66195 0.0
H76 H 0.28843 0.57687 0.31764 0.0
C77 C 0.26899 0.56507 0.26562 0.0
C78 C 0.23879 0.57964 0.26856 0.0
C79 C 0.27384 0.53535 0.19945 0.0
H80 H 0.19054 0.57789 0.19575 0.0
C81 C 0.21372 0.56621 0.19398 0.0
C82 C 0.21719 0.53734 0.12285 0.0
C83 C 0.24733 0.52149 0.12798 0.0
C84 C 0.3066 0.51959 0.2046 0.0
H85 H 0.24974 0.49837 0.07874 0.0
C86 C 0.32845 0.52451 0.31567 0.0
C87 C 0.35961 0.51072 0.31356 0.0
C88 C 0.31695 0.50037 0.09385 0.0
H89 H 0.30187 0.49652 0.00541 0.0
C90 C 0.34738 0.48648 0.09273 0.0
H91 H 0.32147 0.53874 0.40401 0.0
C92 C 0.36847 0.49159 0.201 0.0
H93 H 0.39203 0.48075 0.19643 0.0
H94 H 0.35483 0.4719 0.00606 0.0
H95 H 0.98265 0.29257 0.29246 0.0
C96 C 0.99154 0.2734 0.22757 0.0
C97 C 0.9773 0.24337 0.24005 0.0
C98 C 1.01657 0.27874 0.13205 0.0
H99 H 0.97649 0.19473 0.1693 0.0
C100 C 0.98752 0.21803 0.15645 0.0
C101 C 1.01199 0.22149 0.05933 0.0
C102 C 0.02671 0.25232 0.04634 0.0
C103 C 0.02973 0.31254 0.11923 0.0
H104 H 0.04572 0.25555 0.97116 0.0
C105 C 0.03026 0.33426 0.23357 0.0
C106 C 0.03796 0.36731 0.21545 0.0
C107 C 0.03867 0.32454 0.98871 0.0
H108 H 0.03816 0.30934 0.89858 0.0
C109 C 0.04694 0.35678 0.97084 0.0
H110 H 0.02424 0.3258 0.33641 0.0
C111 C 0.04625 0.37794 0.08206 0.0
H112 H 0.05246 0.40282 0.06397 0.0
H113 H 0.05336 0.36562 0.86901 0.0
H114 H 0.25171 0.98103 0.30087 0.0
C115 C 0.27006 0.99077 0.23339 0.0
C116 C 0.30021 0.97652 0.23606 0.0
C117 C 0.26376 1.01713 0.14574 0.0
H118 H 0.34809 0.97692 0.15525 0.0
C119 C 0.32457 0.98781 0.14908 0.0
C120 C 0.31991 1.01315 0.05713 0.0
C121 C 0.28913 0.02809 0.05537 0.0
C122 C 0.23028 0.03141 0.14728 0.0
H123 H 0.28526 0.04806 0.98556 0.0
C124 C 0.20968 0.02967 0.26639 0.0
C125 C 0.17706 0.03926 0.26035 0.0
C126 C 0.21755 0.04459 0.02552 0.0
H127 H 0.23174 0.046 0.9318 0.0
C128 C 0.18576 0.05492 0.02051 0.0
H129 H 0.21853 1.02042 0.36344 0.0
C130 C 0.16565 0.05199 0.13578 0.0
H131 H 0.14094 0.05955 0.12754 0.0
H132 H 0.17639 0.06466 0.92518 0.0
H133 H 0.56247 0.25786 0.30976 0.0
C134 C 0.55327 0.27707 0.24565 0.0
C135 C 0.56835 0.30679 0.25104 0.0
C136 C 0.52675 0.27226 0.15958 0.0
H137 H 0.56937 0.35521 0.17498 0.0
C138 C 0.55776 0.33213 0.16773 0.0
C139 C 0.53197 0.32909 0.07921 0.0
C140 C 0.51623 0.29875 0.07476 0.0
C141 C 0.51173 0.23914 0.15703 0.0
H142 H 0.49596 0.29607 0.00732 0.0
C143 C 0.51277 0.21762 0.27316 0.0
C144 C 0.50212 0.18534 0.2634 0.0
C145 C 0.49848 0.22765 0.03406 0.0
H146 H 0.49764 0.24259 0.94241 0.0
C147 C 0.48731 0.19616 0.02514 0.0
H148 H 0.52204 0.22558 0.371 0.0
C149 C 0.48934 0.17517 0.13773 0.0
H150 H 0.48102 0.15073 0.12654 0.0
H151 H 0.47751 0.18773 0.92893 0.0
Ho152 Ho 0.03699 1.01535 0.91587 0.0
Ho153 Ho 1.00249 0.02579 0.66697 0.0
C154 C 1.01825 0.95328 0.73076 0.0
C155 C 0.04946 0.9937 0.1583 0.0
C156 C 0.02812 0.97058 0.22829 0.0
C157 C 0.99487 0.97486 0.21626 0.0
C158 C 0.97462 0.9484 0.2154 0.0
C159 C 0.98696 0.91745 0.22976 0.0
C160 C 1.01936 0.91385 0.26672 0.0
C161 C 0.0399 0.94023 0.26442 0.0
C162 C 0.07755 0.02728 0.69676 0.0
C163 C 0.02231 0.08923 0.8519 0.0
C164 C 0.97989 0.04514 0.4346 0.0
C165 C 0.96088 0.07383 0.40614 0.0
C166 C 0.9695 0.09337 0.29408 0.0
C167 C 0.95909 0.12511 0.28921 0.0
C168 C 0.94031 0.13757 0.39726 0.0
C169 C 0.92897 0.1172 0.50192 0.0
C170 C 0.93926 0.08537 0.50654 0.0
C171 C 0.96166 1.01366 0.88547 0.0
O172 O 1.02037 0.9645 0.85824 0.0
O173 O 1.01575 0.97395 0.6278 0.0
O174 O 0.0635 0.9826 0.04739 0.0
O175 O 0.03744 1.02222 0.13763 0.0
O176 O 0.08221 0.03663 0.82263 0.0
O177 O 0.05241 1.0104 0.69568 0.0
O178 O 1.01227 0.0781 0.73137 0.0
O179 O 0.032 0.0688 0.94752 0.0
O180 O 0.96608 1.02312 0.51047 0.0
O181 O 1.00904 0.0512 0.47392 0.0
O182 O 0.95809 1.00354 0.76083 0.0
O183 O 0.9867 0.03084 0.8872 0.0
H184 H 0.9848 0.99809 0.19069 0.0
H185 H 0.94989 0.95197 0.19202 0.0
H186 H 0.02968 0.89021 0.28068 0.0
H187 H 0.06537 0.9362 0.27387 0.0
H188 H 0.98632 0.08491 0.21657 0.0
H189 H 0.96805 0.14056 0.20759 0.0
H190 H 0.91471 0.12665 0.58632 0.0
H191 H 0.93262 0.07075 0.5951 0.0
Ho192 Ho 0.52191 0.04161 0.89762 0.0
Ho193 Ho 0.51447 1.00771 0.64643 0.0
C194 C 0.58545 0.02893 0.69836 0.0
C195 C 0.54225 0.05541 0.14077 0.0
C196 C 0.57553 0.05271 0.184 0.0
C197 C 0.59562 0.03306 0.10524 0.0
C198 C 0.62721 0.04164 0.08362 0.0
C199 C 0.64092 0.06588 0.16283 0.0
C200 C 0.6219 0.08081 0.26563 0.0
C201 C 0.58895 0.07546 0.27096 0.0
C202 C 0.50859 0.08237 0.68364 0.0
C203 C 0.44961 0.02601 0.83172 0.0
C204 C 0.49662 0.98322 0.41576 0.0
C205 C 0.46963 0.96201 0.38847 0.0
C206 C 0.45085 0.96775 0.27211 0.0
C207 C 0.41974 0.95595 0.26821 0.0
C208 C 0.40733 0.93847 0.38088 0.0
C209 C 0.42743 0.92925 0.4888 0.0
C210 C 0.4585 0.94114 0.49293 0.0
C211 C 0.52712 0.9678 0.86675 0.0
O212 O 0.57399 0.03237 0.82549 0.0
O213 O 0.565 1.02361 0.59851 0.0
O214 O 0.53753 0.07707 0.04482 0.0
O215 O 0.52865 0.02817 0.11164 0.0
O216 O 0.49715 0.08515 0.80816 0.0
O217 O 0.52747 0.05846 0.67923 0.0
O218 O 0.46168 1.01625 0.71111 0.0
O219 O 0.469 0.03592 0.92881 0.0
O220 O 0.51941 0.97108 0.49091 0.0
O221 O 0.48835 1.01201 0.45557 0.0
O222 O 0.53977 0.96513 0.74523 0.0
O223 O 0.50788 0.9913 0.86413 0.0
H224 H 0.586 1.0134 0.04737 0.0
H225 H 0.64027 0.02999 1.00105 0.0
H226 H 0.63192 0.09872 0.33308 0.0
H227 H 0.57388 0.09026 0.33559 0.0
H228 H 0.45909 0.98377 0.19074 0.0
H229 H 0.40443 0.9632 0.18395 0.0
H230 H 0.41806 0.91593 0.57656 0.0
H231 H 0.47264 0.9365 0.58397 0.0
Ho232 Ho 0.5056 0.53481 0.92871 0.0
Ho233 Ho 0.53797 0.52417 0.67369 0.0
C234 C 0.52344 0.59654 0.7362 0.0
C235 C 0.49448 0.55599 0.17309 0.0
C236 C 0.51649 0.57811 0.24195 0.0
C237 C 0.54964 0.573 0.2271 0.0
C238 C 0.57061 0.59889 0.22615 0.0
C239 C 0.55889 0.63011 0.24005 0.0
C240 C 0.52662 0.63441 0.28 0.0
C241 C 0.50549 0.60854 0.28036 0.0
C242 C 0.46321 0.52297 0.72028 0.0
C243 C 0.51975 0.46104 0.86689 0.0
C244 C 0.55929 0.5044 0.43911 0.0
C245 C 0.57894 0.47613 0.41077 0.0
C246 C 0.57116 0.45655 0.29944 0.0
C247 C 0.58283 0.42525 0.29406 0.0
C248 C 0.60201 0.41323 0.40095 0.0
C249 C 0.61237 0.43374 0.50502 0.0
C250 C 0.60079 0.46513 0.51018 0.0
C251 C 0.58041 0.53668 0.88133 0.0
O252 O 0.52261 0.58532 0.86468 0.0
O253 O 0.52434 0.57588 0.63384 0.0
O254 O 0.48071 0.56806 0.06387 0.0
O255 O 0.50565 0.52725 0.1504 0.0
O256 O 0.45977 0.51349 0.84742 0.0
O257 O 0.48829 0.53984 0.71182 0.0
O258 O 0.52867 0.472 0.74327 0.0
O259 O 0.51106 0.48152 0.96343 0.0
O260 O 0.57302 0.52713 0.5088 0.0
O261 O 0.5306 0.4978 0.48543 0.0
O262 O 0.58284 0.54687 0.75563 0.0
O263 O 0.55561 0.51929 0.89042 0.0
H264 H 0.55909 0.54965 0.19977 0.0
H265 H 0.5954 0.59471 0.20248 0.0
H266 H 0.51687 0.65827 0.29435 0.0
H267 H 0.48013 0.61308 0.29324 0.0
H268 H 0.55418 0.4646 0.22268 0.0
H269 H 0.57457 0.40968 0.21298 0.0
H270 H 0.62691 0.42465 0.58858 0.0
H271 H 0.60679 0.47979 0.59815 0.0
Ho272 Ho 1.01736 0.49662 0.88997 0.0
Ho273 Ho 0.03084 0.54085 0.68876 0.0
C274 C 0.95792 0.52068 0.69878 0.0
C275 C 0.99565 0.46191 0.09298 0.0
C276 C 0.96606 0.44415 0.1203 0.0
C277 C 0.94878 0.45075 0.24124 0.0
C278 C 0.91731 0.44044 0.25485 0.0
C279 C 0.90282 0.4237 0.14704 0.0
C280 C 0.92121 0.41366 0.03368 0.0
C281 C 0.9528 0.42395 0.02011 0.0
C282 C 0.03531 0.46667 0.64909 0.0
C283 C 0.08998 0.51712 0.8877 0.0
C284 C 0.055 0.57393 0.48688 0.0
C285 C 0.08201 0.59627 0.47567 0.0
C286 C 0.0916 0.61505 0.58794 0.0
C287 C 0.12079 0.63142 0.58287 0.0
C288 C 0.14152 0.62748 0.46913 0.0
C289 C 0.13006 0.61141 0.35209 0.0
C290 C 0.1004 0.59645 0.35491 0.0
C291 C 1.01465 0.57236 0.92717 0.0
O292 O 0.96633 0.50958 0.82186 0.0
O293 O 0.98067 0.53092 0.61454 0.0
O294 O 1.01406 0.45092 0.99511 0.0
O295 O 0.9926 0.49308 0.0868 0.0
O296 O 0.04568 0.45961 0.77056 0.0
O297 O 1.01606 0.49012 0.66041 0.0
O298 O 0.08166 0.53232 0.77255 0.0
O299 O 0.06778 0.50216 0.95936 0.0
O300 O 0.03063 0.58328 0.56119 0.0
O301 O 0.06276 0.54406 0.51179 0.0
O302 O 1.00435 0.57934 0.80529 0.0
O303 O 0.03256 0.54764 0.91816 0.0
H304 H 0.95882 0.4658 0.32063 0.0
H305 H 0.90348 0.4481 0.34381 0.0
H306 H 0.91026 0.40078 0.94975 0.0
H307 H 0.96589 0.41811 0.92672 0.0
H308 H 0.07709 0.61621 0.68093 0.0
H309 H 0.12755 0.64589 0.66999 0.0
H310 H 0.14478 0.60875 0.26044 0.0
H311 H 0.0926 0.58354 0.26507 0.0
C312 C 0.13992 1.0051 0.4104 0.0
C313 C 0.15377 0.03552 0.38075 0.0
C314 C 0.11728 0.06026 0.55385 0.0
C315 C 0.10278 0.02986 0.58204 0.0
N316 N 0.09844 0.97368 0.52328 0.0
N317 N 0.15599 0.09223 0.42208 0.0
C318 C 0.11361 1.00242 0.50631 0.0
C319 C 0.1426 0.06309 0.4529 0.0
N320 N 0.15241 0.97843 0.34801 0.0
N321 N 0.1061 0.08676 0.62171 0.0
H322 H 0.17566 0.09475 0.35597 0.0
H323 H 0.14781 0.11413 0.45904 0.0
H324 H 0.085 0.08666 0.67956 0.0
H325 H 0.11718 0.10904 0.62122 0.0
H326 H 0.14685 0.95498 0.37655 0.0
H327 H 0.17029 0.97944 0.27256 0.0
H328 H 0.10194 0.95394 0.45985 0.0
H329 H 0.0808 0.9696 0.59667 0.0
C330 C 0.53439 0.14904 0.42507 0.0
C331 C 0.50432 0.16132 0.38158 0.0
C332 C 0.47745 0.12041 0.52818 0.0
C333 C 0.50743 0.10946 0.57851 0.0
N334 N 0.56398 0.11914 0.5981 0.0
N335 N 0.44727 0.16294 0.41571 0.0
C336 C 0.53579 0.12544 0.53344 0.0
C337 C 0.47588 0.14821 0.44057 0.0
N338 N 0.56172 0.15899 0.35957 0.0
N339 N 0.45041 0.10343 0.55944 0.0
H340 H 0.44529 0.18354 0.3545 0.0
H341 H 0.42609 0.15674 0.46631 0.0
H342 H 0.45056 0.08284 0.62119 0.0
H343 H 0.42837 0.10796 0.51418 0.0
H344 H 0.58403 0.14862 0.3763 0.0
H345 H 0.56183 0.17596 0.28006 0.0
H346 H 0.58486 0.13209 0.57984 0.0
H347 H 0.56572 0.10306 0.68023 0.0
C348 C 0.40363 0.54362 0.42503 0.0
C349 C 0.38393 0.51589 0.42606 0.0
C350 C 0.41919 0.4917 0.60176 0.0
C351 C 0.43679 0.5208 0.61335 0.0
N352 N 0.44096 0.5769 0.54798 0.0
N353 N 0.36999 0.46561 0.53355 0.0
C354 C 0.42779 0.54742 0.5278 0.0
C355 C 0.39078 0.49068 0.52067 0.0
N356 N 0.39995 0.56611 0.32307 0.0
N357 N 0.43079 0.46421 0.66068 0.0
H358 H 0.34916 0.46403 0.47557 0.0
H359 H 0.37181 0.44815 0.61056 0.0
H360 H 0.45277 0.46324 0.71015 0.0
H361 H 0.42073 0.44169 0.64567 0.0
H362 H 0.4162 0.58461 0.30523 0.0
H363 H 0.38199 0.56485 0.24936 0.0
H364 H 0.43281 0.59773 0.49961 0.0
H365 H 0.45787 0.58137 0.62276 0.0
C366 C 1.00846 0.39836 0.40687 0.0
C367 C 0.03723 0.39156 0.33266 0.0
C368 C 0.06289 0.43708 0.45242 0.0
C369 C 0.03512 0.44189 0.53519 0.0
N370 N 0.98438 0.42122 0.613 0.0
N371 N 0.094 0.40044 0.31065 0.0
C372 C 1.00871 0.42083 0.51842 0.0
C373 C 0.06504 0.40989 0.36276 0.0
N374 N 0.98049 0.38436 0.36811 0.0
N375 N 0.08719 0.45884 0.45757 0.0
H376 H 0.09686 0.37996 0.25034 0.0
H377 H 0.11556 0.4108 0.33912 0.0
H378 H 0.08651 0.47877 0.5222 0.0
H379 H 0.10653 0.45874 0.38915 0.0
H380 H 0.95835 0.39056 0.41024 0.0
H381 H 0.97887 0.36885 0.28452 0.0
H382 H 0.9659 0.40453 0.61472 0.0
H383 H 0.9847 0.43613 0.69872 0.0
C384 C 0.89831 0.04102 0.15963 0.0
C385 C 0.88231 1.01167 0.18931 0.0
C386 C 0.91685 0.98449 0.01594 0.0
C387 C 0.93425 1.01348 0.99135 0.0
N388 N 0.93465 0.07115 0.01153 0.0
N389 N 0.87473 0.95577 0.14182 0.0
C390 C 0.92308 0.04226 0.05577 0.0
C391 C 0.89081 0.98366 0.11404 0.0
N392 N 0.89041 0.06771 0.23419 0.0
N393 N 0.92603 0.95723 0.94834 0.0
H394 H 0.85465 0.95485 0.20635 0.0
H395 H 0.88106 0.93335 0.10388 0.0
H396 H 0.94812 0.95512 0.89908 0.0
H397 H 0.91273 0.93625 0.94431 0.0
H398 H 0.90223 0.08952 0.22651 0.0
H399 H 0.87259 0.0679 0.31001 0.0
H400 H 0.92508 0.09325 0.03957 0.0
H401 H 0.95217 0.07324 0.93594 0.0
C402 C 0.55647 0.90607 0.13948 0.0
C403 C 0.52712 0.89244 0.18642 0.0
C404 C 0.49873 0.92424 0.00907 0.0
C405 C 0.52734 0.94095 0.97389 0.0
N406 N 0.58399 0.94732 0.00439 0.0
N407 N 0.46978 0.89025 0.17234 0.0
C408 C 0.55642 0.93146 0.03808 0.0
C409 C 0.49811 0.90207 0.12283 0.0
N410 N 0.58451 0.89431 0.19083 0.0
N411 N 0.47263 0.92792 0.92721 0.0
H412 H 0.46843 0.87319 0.25144 0.0
H413 H 0.44754 0.89868 0.14099 0.0
H414 H 0.47352 0.94154 0.83697 0.0
H415 H 0.45172 0.91465 0.93844 0.0
H416 H 0.607 0.90058 0.15299 0.0
H417 H 0.58532 0.87626 0.26586 0.0
H418 H 0.60527 0.9448 0.05804 0.0
H419 H 0.58527 0.96449 0.92581 0.0
C420 C 0.65395 0.5689 0.07502 0.0
C421 C 0.6625 0.54275 0.1619 0.0
C422 C 0.61998 0.51047 0.05334 0.0
C423 C 0.6083 0.53815 0.98162 0.0
N424 N 0.61241 0.59524 0.94302 0.0
N425 N 0.65247 0.48871 0.23942 0.0
C426 C 0.62527 0.56761 0.99559 0.0
C427 C 0.64524 0.51351 0.15199 0.0
N428 N 0.67339 0.59516 0.06821 0.0
N429 N 0.60822 0.4809 0.02276 0.0
H430 H 0.67069 0.48985 0.31186 0.0
H431 H 0.63941 0.46758 0.24584 0.0
H432 H 0.58988 0.47746 0.95336 0.0
H433 H 0.61851 0.4595 0.05638 0.0
H434 H 0.67051 0.61368 0.99669 0.0
H435 H 0.69437 0.59688 0.12511 0.0
H436 H 0.6219 0.61796 0.95917 0.0
H437 H 0.58959 0.59605 0.90135 0.0
C438 C 0.98942 0.63391 0.20652 0.0
C439 C 1.01804 0.65172 0.226 0.0
C440 C 0.04572 0.61554 0.05953 0.0
C441 C 1.01669 0.59838 0.03674 0.0
N442 N 0.95992 0.59431 0.07523 0.0
N443 N 0.07293 0.66111 0.16434 0.0
C444 C 0.98832 0.60858 0.10654 0.0
C445 C 0.04604 0.64287 0.15035 0.0
N446 N 0.96334 0.64059 0.28755 0.0
N447 N 0.07308 0.60581 0.99364 0.0
H448 H 0.07398 0.68072 0.23047 0.0
H449 H 0.09372 0.6583 0.10612 0.0
H450 H 0.07354 0.58791 0.91936 0.0
H451 H 0.09577 0.61438 0.01521 0.0
H452 H 0.94318 0.62608 0.29378 0.0
H453 H 0.96251 0.65992 0.3554 0.0
H454 H 0.93776 0.60293 0.10782 0.0
H455 H 0.95823 0.5747 0.00932 0.0
C456 C 0.92496 0.22349 0.31037 0.0
C457 C 0.95466 0.23567 0.35292 0.0
C458 C 0.96575 0.18754 0.48253 0.0
C459 C 0.93957 0.17258 0.41601 0.0
N460 N 0.88982 0.178 0.29381 0.0
N461 N 0.99151 0.23795 0.53867 0.0
C462 C 0.91711 0.19137 0.34268 0.0
C463 C 0.96987 0.22096 0.46501 0.0
N464 N 0.90617 0.24086 0.22417 0.0
N465 N 0.98865 0.16957 0.54652 0.0
H466 H 0.99534 0.2623 0.51834 0.0
H467 H 1.00316 0.22866 0.62484 0.0
H468 H 0.98732 0.14468 0.5558 0.0
H469 H 1.00998 0.17922 0.5819 0.0
H470 H 0.91194 0.26426 0.19368 0.0
H471 H 0.91194 0.26426 0.19368 0.0
H472 H 0.87338 0.19114 0.23571 0.0
H473 H 0.88364 0.15421 0.31531 0.0
C474 C 0.32408 0.96807 0.45587 0.0
C475 C 0.30945 0.95319 0.34385 0.0
C476 C 0.35377 0.91522 0.3292 0.0
C477 C 0.37239 0.9379 0.40099 0.0
N478 N 0.37514 0.98749 0.53019 0.0
N479 N 0.3039 0.90777 0.20207 0.0
C480 C 0.3574 0.9642 0.46898 0.0
C481 C 0.32178 0.92386 0.29534 0.0
N482 N 0.3071 0.98952 0.53279 0.0
N483 N 0.36731 0.88698 0.28825 0.0
H484 H 0.31148 0.88731 0.14971 0.0
H485 H 0.31148 0.88731 0.14971 0.0
H486 H 0.39096 0.88118 0.31167 0.0
H487 H 0.35475 0.86856 0.24148 0.0
H488 H 0.31651 1.0013 0.6177 0.0
H489 H 0.28271 0.99311 0.51648 0.0
H490 H 0.36531 1.00891 0.56605 0.0
H491 H 0.39998 0.98659 0.53587 0.0
C492 C 0.57641 0.32841 0.47485 0.0
C493 C 0.5915 0.31461 0.35983 0.0
C494 C 0.62712 0.3605 0.34265 0.0
C495 C 0.60427 0.3782 0.41959 0.0
N496 N 0.55584 0.37877 0.55887 0.0
N497 N 0.63951 0.31173 0.22297 0.0
C498 C 0.57913 0.36197 0.49098 0.0
C499 C 0.62048 0.32811 0.3123 0.0
N500 N 0.55611 0.31032 0.55334 0.0
N501 N 0.65355 0.37513 0.28879 0.0
H502 H 0.63451 0.28819 0.19363 0.0
H503 H 0.63451 0.28819 0.19363 0.0
H504 H 0.65881 0.39913 0.30875 0.0
H505 H 0.67022 0.3628 0.22808 0.0
H506 H 0.54455 0.31898 0.64133 0.0
H507 H 0.55335 0.28582 0.53482 0.0
H508 H 0.53513 0.36812 0.59792 0.0
H509 H 0.55616 0.40367 0.56798 0.0
C510 C 0.22337 0.60118 0.49842 0.0
C511 C 0.23092 0.60749 0.35817 0.0
C512 C 0.18997 0.64942 0.35398 0.0
C513 C 0.17636 0.63517 0.47369 0.0
N514 N 0.18807 0.60931 0.69193 0.0
N515 N 0.22985 0.64473 0.16941 0.0
C516 C 0.19606 0.61562 0.55781 0.0
C517 C 0.21765 0.63499 0.29371 0.0
N518 N 0.24044 0.57987 0.57503 0.0
N519 N 0.17425 0.67438 0.2931 0.0
H520 H 0.25005 0.63364 0.12679 0.0
H521 H 0.22074 0.66363 0.11108 0.0
H522 H 0.15357 0.684 0.33816 0.0
H523 H 0.18199 0.68608 0.20378 0.0
H524 H 0.26105 0.56834 0.5395 0.0
H525 H 0.26105 0.56834 0.5395 0.0
H526 H 0.20194 0.59456 0.75505 0.0
H527 H 0.16937 0.62082 0.74277 0.0
C528 C 0.9788 0.83514 0.08763 0.0
C529 C 0.9613 0.82329 0.20053 0.0
C530 C 0.94166 0.87661 0.25215 0.0
C531 C 0.96896 0.88888 0.18006 0.0
N532 N 1.0071 0.88124 0.99479 0.0
N533 N 0.9124 0.83045 0.32818 0.0
C534 C 0.98457 0.8687 0.08162 0.0
C535 C 0.93665 0.84317 0.25203 0.0
N536 N 0.99233 0.81394 0.99812 0.0
N537 N 0.92279 0.89472 0.33603 0.0
H538 H 0.90953 0.80567 0.33983 0.0
H539 H 0.90953 0.80567 0.33983 0.0
H540 H 0.92575 0.91927 0.3507 0.0
H541 H 0.92575 0.91927 0.3507 0.0
H542 H 1.00491 0.82072 0.90948 0.0
H543 H 0.98872 0.78928 0.01081 0.0
H544 H 0.02255 0.86725 0.93563 0.0
H545 H 1.0107 0.90595 0.98669 0.0
C546 C 0.73108 0.06892 0.10667 0.0
C547 C 0.73567 0.09445 0.19791 0.0
C548 C 0.68133 0.11045 0.14896 0.0
C549 C 0.67419 0.07705 0.13561 0.0
N550 N 0.69709 1.02301 0.10676 0.0
N551 N 0.71932 0.14799 0.24747 0.0
C552 C 0.70022 0.05557 0.10812 0.0
C553 C 0.71251 0.11888 0.19277 0.0
N554 N 0.75646 0.05415 0.04573 0.0
N555 N 0.65874 0.13321 0.12206 0.0
H556 H 0.74229 0.15295 0.28296 0.0
H557 H 0.70229 0.166 0.2613 0.0
H558 H 0.63639 0.12715 0.08301 0.0
H559 H 0.66345 0.15773 0.12528 0.0
H560 H 0.75365 0.03482 0.97898 0.0
H561 H 0.77947 0.06355 0.05407 0.0
H562 H 0.71674 1.00781 0.09406 0.0
H563 H 0.67654 1.01105 0.13859 0.0
C564 C 0.61041 0.70385 0.24825 0.0
C565 C 0.58572 0.72364 0.19776 0.0
C566 C 0.56209 0.67815 0.08582 0.0
C567 C 0.5773 0.65825 0.18615 0.0
N568 N 0.62168 0.65105 0.34325 0.0
N569 N 0.55438 0.73276 0.99812 0.0
C570 C 0.60464 0.67019 0.2559 0.0
C571 C 0.568 0.71166 0.08798 0.0
N572 N 0.63617 0.71793 0.30681 0.0
N573 N 0.53972 0.6654 1.0012 0.0
H574 H 0.55823 0.75741 0.00778 0.0
H575 H 0.54137 0.72592 0.91218 0.0
H576 H 0.53616 0.64067 0.99567 0.0
H577 H 0.52443 0.67921 0.94094 0.0
H578 H 0.65583 0.70513 0.343 0.0
H579 H 0.63817 0.74293 0.30851 0.0
H580 H 0.63966 0.65962 0.40663 0.0
H581 H 0.61692 0.62678 0.35726 0.0
C582 C 0.81995 0.45579 0.08935 0.0
C583 C 0.80735 0.44586 0.21687 0.0
C584 C 0.84959 0.4059 0.23571 0.0
C585 C 0.86765 0.42434 0.13984 0.0
N586 N 0.86998 0.47014 0.98371 0.0
N587 N 0.80346 0.40324 0.38413 0.0
C588 C 0.85255 0.44939 0.06338 0.0
C589 C 0.81917 0.4173 0.27664 0.0
N590 N 0.80239 0.47537 0.00626 0.0
N591 N 0.86251 0.37941 0.29688 0.0
H592 H 0.78147 0.41179 0.42062 0.0
H593 H 0.78147 0.41179 0.42062 0.0
H594 H 0.88508 0.37071 0.26903 0.0
H595 H 0.85009 0.36603 0.37133 0.0
H596 H 0.8104 0.48302 0.90933 0.0
H597 H 0.77875 0.4812 0.0312 0.0
H598 H 0.8603 0.49111 0.94208 0.0
H599 H 0.89464 0.4684 0.97171 0.0
C600 C 0.0465 0.17188 0.00466 0.0
C601 C 1.01955 0.19153 0.97474 0.0
C602 C 0.99459 0.14489 0.85926 0.0
C603 C 0.02216 0.12534 0.88355 0.0
N604 N 0.07739 0.12382 0.95386 0.0
N605 N 0.97096 0.19835 0.84828 0.0
C606 C 0.04899 0.14 0.9485 0.0
C607 C 0.99478 0.17842 0.89304 0.0
N608 N 0.06906 0.18294 0.0933 0.0
N609 N 0.96728 0.13135 0.81069 0.0
H610 H 0.97082 0.22292 0.86883 0.0
H611 H 0.95318 0.19143 0.7803 0.0
H612 H 0.96606 0.10803 0.77444 0.0
H613 H 0.94517 0.14286 0.81247 0.0
H614 H 0.08698 0.1685 0.13469 0.0
H615 H 0.06861 0.20618 0.13257 0.0
H616 H 0.09862 0.13426 0.98607 0.0
H617 H 0.08056 0.10092 0.91356 0.0
C618 C 0.36726 0.04939 0.98819 0.0
C619 C 0.34865 1.02143 0.96574 0.0
C620 C 0.3952 0.99703 0.84488 0.0
C621 C 0.41367 0.0254 0.86276 0.0
N622 N 0.41325 0.0816 0.92073 0.0
N623 N 0.34279 0.97198 0.84251 0.0
C624 C 0.39836 0.0525 0.92485 0.0
C625 C 0.36202 0.99657 0.88308 0.0
N626 N 0.35614 0.07233 0.07654 0.0
N627 N 0.40953 0.96967 0.79863 0.0
H628 H 0.31842 0.97134 0.86645 0.0
H629 H 0.35003 0.95419 0.77394 0.0
H630 H 0.43272 0.96912 0.76022 0.0
H631 H 0.39882 0.94716 0.80383 0.0
H632 H 0.37013 0.0912 0.11142 0.0
H633 H 0.33352 0.0713 0.12225 0.0
H634 H 0.40227 0.10285 0.95199 0.0
H635 H 0.43532 0.08505 0.87236 0.0
C636 C 0.54811 0.37234 0.90841 0.0
C637 C 0.52381 0.35906 0.99512 0.0
C638 C 0.49391 0.41032 0.97137 0.0
C639 C 0.5203 0.4251 0.90106 0.0
N640 N 0.57498 0.4198 0.82105 0.0
N641 N 0.47498 0.36745 0.12286 0.0
C642 C 0.54793 0.40587 0.87339 0.0
C643 C 0.4969 0.37852 0.02893 0.0
N644 N 0.57189 0.35262 0.86089 0.0
N645 N 0.46548 0.42638 0.98107 0.0
H646 H 0.47585 0.34434 0.16451 0.0
H647 H 0.45722 0.38184 0.16641 0.0
H648 H 0.46206 0.44936 0.94099 0.0
H649 H 0.44446 0.41579 0.01716 0.0
H650 H 0.58951 0.35976 0.79078 0.0
H651 H 0.57222 0.32802 0.88189 0.0
H652 H 0.59714 0.40839 0.81874 0.0
H653 H 0.57606 0.44347 0.78732 0.0
C654 C 0.16071 0.51807 0.14372 0.0
C655 C 0.18721 0.52416 0.05641 0.0
C656 C 0.15142 0.51824 0.85586 0.0
C657 C 0.12389 0.51872 0.94469 0.0
N658 N 0.10384 0.52498 0.17918 0.0
N659 N 0.20793 0.53091 0.82594 0.0
C660 C 0.12892 0.51965 0.09079 0.0
C661 C 0.18265 0.52428 0.91122 0.0
N662 N 0.16697 0.51189 0.27911 0.0
N663 N 0.1481 0.51058 0.71988 0.0
H664 H 0.23093 0.53471 0.86276 0.0
H665 H 0.20571 0.53442 0.71999 0.0
H666 H 0.12634 0.504 0.67739 0.0
H667 H 0.16736 0.50713 0.65275 0.0
H668 H 0.14987 0.50504 0.35245 0.0
H669 H 0.14987 0.50504 0.35245 0.0
H670 H 0.10621 0.52722 0.28543 0.0
H671 H 0.08123 0.53202 0.14671 0.0
C672 C 0.04517 0.86649 0.64105 0.0
C673 C 1.01549 0.85055 0.62296 0.0
C674 C 0.98784 0.90149 0.68073 0.0
C675 C 1.01739 0.91733 0.70237 0.0
N676 N 0.07444 0.91175 0.72972 0.0
N677 N 0.95929 0.85084 0.67606 0.0
C678 C 0.04601 0.89872 0.69233 0.0
C679 C 0.98719 0.86745 0.66217 0.0
N680 N 0.07324 0.85171 0.60914 0.0
N681 N 0.96039 0.91899 0.66929 0.0
H682 H 0.95837 0.826 0.66284 0.0
H683 H 0.9383 0.8611 0.71444 0.0
H684 H 0.96012 0.94396 0.67329 0.0
H685 H 0.93862 0.90901 0.64106 0.0
H686 H 0.0747 0.82827 0.57224 0.0
H687 H 0.0747 0.82827 0.57224 0.0
H688 H 0.09598 0.89915 0.72176 0.0
H689 H 0.07593 0.93421 0.77612 0.0
C690 C 0.6684 1.01181 0.52928 0.0
C691 C 0.68805 0.03635 0.58456 0.0
C692 C 0.64101 0.05588 0.71904 0.0
C693 C 0.62147 0.03062 0.66714 0.0
N694 N 0.62039 0.97944 0.55223 0.0
N695 N 0.69455 0.07707 0.75567 0.0
C696 C 0.63636 1.00713 0.5808 0.0
C697 C 0.6747 0.05673 0.68745 0.0
N698 N 0.67982 0.99361 0.42296 0.0
N699 N 0.62732 0.08022 0.79282 0.0
H700 H 0.71911 0.07781 0.73612 0.0
H701 H 0.68742 0.09086 0.83969 0.0
H702 H 0.60334 0.08069 0.82138 0.0
H703 H 0.63926 0.10122 0.81819 0.0
H704 H 0.6655 0.97833 0.36572 0.0
H705 H 0.70321 0.99539 0.38577 0.0
H706 H 0.63088 0.96007 0.5015 0.0
H707 H 0.5978 0.97428 0.59263 0.0
C708 C 0.55644 0.68156 0.66689 0.0
C709 C 0.52884 0.69897 0.62467 0.0
C710 C 0.49694 0.65168 0.69758 0.0
C711 C 0.52511 0.63236 0.70582 0.0
N712 N 0.58208 0.62954 0.66783 0.0
N713 N 0.47187 0.6989 0.59501 0.0
C714 C 0.55503 0.64754 0.683 0.0
C715 C 0.49869 0.68365 0.64027 0.0
N716 N 0.58454 0.69754 0.68293 0.0
N717 N 0.46867 0.63982 0.74635 0.0
H718 H 0.47237 0.72237 0.55695 0.0
H719 H 0.44974 0.68762 0.58899 0.0
H720 H 0.4671 0.61744 0.79475 0.0
H721 H 0.44783 0.65352 0.75212 0.0
H722 H 0.60501 0.6866 0.72223 0.0
H723 H 0.58602 0.72242 0.67032 0.0
H724 H 0.60411 0.63935 0.64006 0.0
H725 H 0.58169 0.60457 0.66797 0.0
C726 C 0.87793 0.54538 0.52203 0.0
C727 C 0.85798 0.51835 0.54966 0.0
C728 C 0.90356 0.49272 0.67125 0.0
C729 C 0.923 0.52043 0.65207 0.0
N730 N 0.92483 0.57629 0.58499 0.0
N731 N 0.85214 0.46809 0.6755 0.0
C732 C 0.909 0.54768 0.58488 0.0
C733 C 0.87076 0.49312 0.63313 0.0
N734 N 0.86815 0.56814 0.42953 0.0
N735 N 0.9163 0.46495 0.72216 0.0
H736 H 0.82758 0.46668 0.65867 0.0
H737 H 0.82758 0.46668 0.65867 0.0
H738 H 0.94006 0.46258 0.74998 0.0
H739 H 0.90309 0.44383 0.73225 0.0
H740 H 0.88307 0.58618 0.39158 0.0
H741 H 0.84585 0.56755 0.38264 0.0
H742 H 0.91474 0.59768 0.54983 0.0
H743 H 0.94672 0.57939 0.63352 0.0
loop_
_geom_bond_atom_site_label_1
_geom_bond_atom_site_label_2
_geom_bond_distance
_geom_bond_site_symmetry_2
_ccdc_geom_bond_type
H0 C1 0.949 . S
C1 H0 0.949 . S
C1 C2 1.395 . S
C1 C3 1.391 . S
C2 C1 1.395 . S
C2 C5 1.390 . S
C3 C1 1.391 . S
C3 C7 1.387 . S
C3 C8 1.491 . S
H4 C5 0.950 . S
C5 C2 1.390 . S
C5 H4 0.950 . S
C5 C6 1.378 . S
C6 C5 1.378 . S
C6 C7 1.409 . S
C7 C3 1.387 . S
C7 C6 1.409 . S
C7 H9 0.951 . S
C8 C3 1.491 . S
C8 C10 1.382 . S
C8 C12 1.404 . S
H9 C7 0.951 . S
C10 C8 1.382 . S
C10 C11 1.390 . S
C10 H15 0.949 . S
C11 C10 1.390 . S
C11 C16 1.399 . S
C12 C8 1.404 . S
C12 H13 0.950 . S
C12 C14 1.375 . S
H13 C12 0.950 . S
C14 C12 1.375 . S
C14 C16 1.382 . S
C14 H18 0.950 . S
H15 C10 0.949 . S
C16 C11 1.399 . S
C16 C14 1.382 . S
C16 H17 0.952 . S
H17 C16 0.952 . S
H18 C14 0.950 . S
H19 C20 0.949 . S
C20 H19 0.949 . S
C20 C21 1.395 . S
C20 C22 1.391 . S
C21 C20 1.395 . S
C21 C24 1.390 1_655 S
C22 C20 1.391 . S
C22 C26 1.387 . S
C22 C27 1.491 . S
H23 C24 0.950 . S
C24 C21 1.390 1_455 S
C24 H23 0.950 . S
C24 C25 1.377 1_455 S
C25 C24 1.377 1_655 S
C25 C26 1.413 . S
C26 C22 1.387 . S
C26 C25 1.413 . S
C26 H28 0.951 . S
C27 C22 1.491 . S
C27 C29 1.382 . S
C27 C31 1.404 . S
H28 C26 0.951 . S
C29 C27 1.382 . S
C29 C30 1.390 . S
C29 H34 0.949 1_655 S
C30 C29 1.390 . S
C30 C35 1.399 . S
C31 C27 1.404 . S
C31 H32 0.950 . S
C31 C33 1.375 . S
H32 C31 0.950 . S
C33 C31 1.375 . S
C33 C35 1.382 . S
C33 H37 0.950 . S
H34 C29 0.949 1_455 S
C35 C30 1.399 . S
C35 C33 1.382 . S
C35 H36 0.952 . S
H36 C35 0.952 . S
H37 C33 0.950 . S
H38 C39 0.949 . S
C39 H38 0.949 . S
C39 C40 1.395 . S
C39 C41 1.391 . S
C40 C39 1.395 . S
C40 C43 1.390 1_565 S
C41 C39 1.391 . S
C41 C45 1.387 . S
C41 C46 1.491 . S
H42 C43 0.950 . S
C43 C40 1.390 1_545 S
C43 H42 0.950 . S
C43 C44 1.377 1_545 S
C44 C43 1.377 1_565 S
C44 C45 1.413 . S
C45 C41 1.387 . S
C45 C44 1.413 . S
C45 H47 0.951 . S
C46 C41 1.491 . S
C46 C48 1.382 . S
C46 C50 1.404 . S
H47 C45 0.951 . S
C48 C46 1.382 . S
C48 C49 1.390 . S
C48 H53 0.949 1_565 S
C49 C48 1.390 . S
C49 C54 1.399 . S
C50 C46 1.404 . S
C50 H51 0.950 . S
C50 C52 1.375 . S
H51 C50 0.950 . S
C52 C50 1.375 . S
C52 C54 1.382 . S
C52 H56 0.950 . S
H53 C48 0.949 1_545 S
C54 C49 1.399 . S
C54 C52 1.382 . S
C54 H55 0.952 . S
H55 C54 0.952 . S
H56 C52 0.950 . S
H57 C58 0.949 . S
C58 H57 0.949 . S
C58 C59 1.395 . S
C58 C60 1.391 . S
C59 C58 1.395 . S
C59 C62 1.390 . S
C60 C58 1.391 . S
C60 C64 1.387 . S
C60 C65 1.491 . S
H61 C62 0.950 . S
C62 C59 1.390 . S
C62 H61 0.950 . S
C62 C63 1.378 . S
C63 C62 1.378 . S
C63 C64 1.409 . S
C64 C60 1.387 . S
C64 C63 1.409 . S
C64 H66 0.951 . S
C65 C60 1.491 . S
C65 C67 1.382 . S
C65 C69 1.404 . S
H66 C64 0.951 . S
C67 C65 1.382 . S
C67 C68 1.390 . S
C67 H72 0.949 . S
C68 C67 1.390 . S
C68 C73 1.399 . S
C69 C65 1.404 . S
C69 H70 0.950 . S
C69 C71 1.375 . S
H70 C69 0.950 . S
C71 C69 1.375 . S
C71 C73 1.382 . S
C71 H75 0.950 . S
H72 C67 0.949 . S
C73 C68 1.399 . S
C73 C71 1.382 . S
C73 H74 0.952 . S
H74 C73 0.952 . S
H75 C71 0.950 . S
H76 C77 0.949 . S
C77 H76 0.949 . S
C77 C78 1.395 . S
C77 C79 1.391 1_554 S
C78 C77 1.395 . S
C78 C81 1.390 1_554 S
C79 C77 1.391 1_556 S
C79 C83 1.387 . S
C79 C84 1.491 . S
H80 C81 0.950 . S
C81 C78 1.390 1_556 S
C81 H80 0.950 . S
C81 C82 1.378 . S
C82 C81 1.378 . S
C82 C83 1.409 . S
C83 C79 1.387 . S
C83 C82 1.409 . S
C83 H85 0.951 . S
C84 C79 1.491 . S
C84 C86 1.382 1_556 S
C84 C88 1.404 . S
H85 C83 0.951 . S
C86 C84 1.382 1_554 S
C86 C87 1.390 . S
C86 H91 0.949 . S
C87 C86 1.390 . S
C87 C92 1.399 1_554 S
C88 C84 1.404 . S
C88 H89 0.950 . S
C88 C90 1.375 . S
H89 C88 0.950 . S
C90 C88 1.375 . S
C90 C92 1.382 . S
C90 H94 0.950 . S
H91 C86 0.949 . S
C92 C87 1.399 1_556 S
C92 C90 1.382 . S
C92 H93 0.952 . S
H93 C92 0.952 . S
H94 C90 0.950 . S
H95 C96 0.949 . S
C96 H95 0.949 . S
C96 C97 1.394 . S
C96 C98 1.391 1_554 S
C97 C96 1.394 . S
C97 C100 1.390 1_654 S
C98 C96 1.391 1_556 S
C98 C102 1.387 . S
C98 C103 1.491 . S
H99 C100 0.950 . S
C100 C97 1.390 1_456 S
C100 H99 0.950 . S
C100 C101 1.377 1_455 S
C101 C100 1.377 1_655 S
C101 C102 1.411 . S
C102 C98 1.387 . S
C102 C101 1.411 . S
C102 H104 0.951 . S
C103 C98 1.491 . S
C103 C105 1.382 1_556 S
C103 C107 1.404 . S
H104 C102 0.951 . S
C105 C103 1.382 1_554 S
C105 C106 1.390 . S
C105 H110 0.949 1_655 S
C106 C105 1.390 . S
C106 C111 1.399 1_554 S
C107 C103 1.404 . S
C107 H108 0.950 . S
C107 C109 1.375 . S
H108 C107 0.950 . S
C109 C107 1.375 . S
C109 C111 1.382 . S
C109 H113 0.950 . S
H110 C105 0.949 1_455 S
C111 C106 1.399 1_556 S
C111 C109 1.382 . S
C111 H112 0.952 . S
H112 C111 0.952 . S
H113 C109 0.950 . S
H114 C115 0.949 . S
C115 H114 0.949 . S
C115 C116 1.394 . S
C115 C117 1.391 1_554 S
C116 C115 1.394 . S
C116 C119 1.390 1_564 S
C117 C115 1.391 1_556 S
C117 C121 1.387 . S
C117 C122 1.491 . S
H118 C119 0.950 . S
C119 C116 1.390 1_546 S
C119 H118 0.950 . S
C119 C120 1.377 1_545 S
C120 C119 1.377 1_565 S
C120 C121 1.411 . S
C121 C117 1.387 . S
C121 C120 1.411 . S
C121 H123 0.951 . S
C122 C117 1.491 . S
C122 C124 1.382 1_556 S
C122 C126 1.404 . S
H123 C121 0.951 . S
C124 C122 1.382 1_554 S
C124 C125 1.390 . S
C124 H129 0.949 1_565 S
C125 C124 1.390 . S
C125 C130 1.399 1_554 S
C126 C122 1.404 . S
C126 H127 0.950 . S
C126 C128 1.375 . S
H127 C126 0.950 . S
C128 C126 1.375 . S
C128 C130 1.382 . S
C128 H132 0.950 . S
H129 C124 0.949 1_545 S
C130 C125 1.399 1_556 S
C130 C128 1.382 . S
C130 H131 0.952 . S
H131 C130 0.952 . S
H132 C128 0.950 . S
H133 C134 0.949 . S
C134 H133 0.949 . S
C134 C135 1.395 . S
C134 C136 1.391 1_554 S
C135 C134 1.395 . S
C135 C138 1.390 1_554 S
C136 C134 1.391 1_556 S
C136 C140 1.387 . S
C136 C141 1.491 . S
H137 C138 0.950 . S
C138 C135 1.390 1_556 S
C138 H137 0.950 . S
C138 C139 1.378 . S
C139 C138 1.378 . S
C139 C140 1.409 . S
C140 C136 1.387 . S
C140 C139 1.409 . S
C140 H142 0.951 . S
C141 C136 1.491 . S
C141 C143 1.382 1_556 S
C141 C145 1.404 . S
H142 C140 0.951 . S
C143 C141 1.382 1_554 S
C143 C144 1.390 . S
C143 H148 0.949 . S
C144 C143 1.390 . S
C144 C149 1.399 1_554 S
C145 C141 1.404 . S
C145 H146 0.950 . S
C145 C147 1.375 . S
H146 C145 0.950 . S
C147 C145 1.375 . S
C147 C149 1.382 . S
C147 H151 0.950 . S
H148 C143 0.949 . S
C149 C144 1.399 1_556 S
C149 C147 1.382 . S
C149 H150 0.952 . S
H150 C149 0.952 . S
H151 C147 0.950 . S
Ho152 C155 2.811 1_556 S
Ho152 O172 2.322 . S
Ho152 O174 2.378 1_556 S
Ho152 O175 2.534 1_556 S
Ho152 O176 2.381 . S
Ho152 O177 2.669 1_565 S
Ho152 O179 2.346 1_565 S
Ho152 O183 2.305 1_455 S
Ho153 C164 2.811 . S
Ho153 O173 2.346 1_545 S
Ho153 O177 2.305 1_655 S
Ho153 O178 2.322 . S
Ho153 O180 2.378 . S
Ho153 O181 2.530 . S
Ho153 O182 2.381 . S
Ho153 O183 2.669 1_545 S
C154 O172 1.259 1_655 S
C154 O173 1.268 . S
C155 Ho152 2.811 1_554 S
C155 C156 1.488 . S
C155 O174 1.215 . S
C155 O175 1.313 . S
C156 C155 1.488 . S
C156 C157 1.348 . S
C156 C161 1.413 . S
C157 C156 1.348 . S
C157 C158 1.442 . S
C157 H184 0.930 1_455 S
C158 C157 1.442 . S
C158 C159 1.381 . S
C158 H185 0.931 1_455 S
C159 C158 1.381 . S
C159 C160 1.321 . S
C160 C159 1.321 . S
C160 C161 1.403 . S
C160 H186 0.934 . S
C161 C156 1.413 . S
C161 C160 1.403 . S
C161 H187 0.930 . S
C162 O176 1.275 . S
C162 O177 1.256 1_565 S
C163 O178 1.259 1_455 S
C163 O179 1.268 . S
C164 Ho153 2.811 . S
C164 C165 1.488 . S
C164 O180 1.215 . S
C164 O181 1.305 . S
C165 C164 1.488 . S
C165 C166 1.348 . S
C165 C170 1.413 . S
C166 C165 1.348 . S
C166 C167 1.442 . S
C166 H188 0.930 1_655 S
C167 C166 1.442 . S
C167 C168 1.381 . S
C167 H189 0.931 1_655 S
C168 C167 1.381 . S
C168 C169 1.321 . S
C169 C168 1.321 . S
C169 C170 1.403 . S
C169 H190 0.934 . S
C170 C165 1.413 . S
C170 C169 1.403 . S
C170 H191 0.930 . S
C171 O182 1.275 . S
C171 O183 1.256 1_545 S
O172 Ho152 2.322 . S
O172 C154 1.259 1_455 S
O173 Ho153 2.346 1_565 S
O173 C154 1.268 . S
O174 Ho152 2.378 1_554 S
O174 C155 1.215 . S
O175 Ho152 2.534 1_554 S
O175 C155 1.313 . S
O176 Ho152 2.381 . S
O176 C162 1.275 . S
O177 Ho152 2.669 1_545 S
O177 Ho153 2.305 1_455 S
O177 C162 1.256 1_545 S
O178 Ho153 2.322 . S
O178 C163 1.259 1_655 S
O179 Ho152 2.346 1_545 S
O179 C163 1.268 . S
O180 Ho153 2.378 . S
O180 C164 1.215 . S
O181 Ho153 2.530 . S
O181 C164 1.305 . S
O182 Ho153 2.381 . S
O182 C171 1.275 . S
O183 Ho152 2.305 1_655 S
O183 Ho153 2.669 1_565 S
O183 C171 1.256 1_565 S
H184 C157 0.930 1_655 S
H185 C158 0.931 1_655 S
H186 C160 0.934 . S
H187 C161 0.930 . S
H188 C166 0.930 1_455 S
H189 C167 0.931 1_455 S
H190 C169 0.934 . S
H191 C170 0.930 . S
Ho192 C195 2.811 1_556 S
Ho192 O212 2.322 . S
Ho192 O214 2.378 1_556 S
Ho192 O215 2.528 1_556 S
Ho192 O216 2.381 . S
Ho192 O217 2.669 . S
Ho192 O219 2.346 . S
Ho192 O223 2.305 1_545 S
Ho193 C204 2.811 . S
Ho193 O213 2.346 . S
Ho193 O217 2.305 1_565 S
Ho193 O218 2.322 . S
Ho193 O220 2.378 . S
Ho193 O221 2.525 . S
Ho193 O222 2.381 . S
Ho193 O223 2.669 . S
C194 O212 1.259 1_565 S
C194 O213 1.268 . S
C195 Ho192 2.811 1_554 S
C195 C196 1.488 . S
C195 O214 1.215 . S
C195 O215 1.300 . S
C196 C195 1.488 . S
C196 C197 1.348 . S
C196 C201 1.413 . S
C197 C196 1.348 . S
C197 C198 1.442 . S
C197 H224 0.930 1_545 S
C198 C197 1.442 . S
C198 C199 1.381 . S
C198 H225 0.931 1_545 S
C199 C198 1.381 . S
C199 C200 1.321 . S
C200 C199 1.321 . S
C200 C201 1.403 . S
C200 H226 0.934 . S
C201 C196 1.413 . S
C201 C200 1.403 . S
C201 H227 0.930 . S
C202 O216 1.275 . S
C202 O217 1.256 . S
C203 O218 1.259 1_545 S
C203 O219 1.268 . S
C204 Ho193 2.811 . S
C204 C205 1.488 . S
C204 O220 1.215 . S
C204 O221 1.292 . S
C205 C204 1.488 . S
C205 C206 1.348 . S
C205 C210 1.413 . S
C206 C205 1.348 . S
C206 C207 1.442 . S
C206 H228 0.930 1_565 S
C207 C206 1.442 . S
C207 C208 1.381 . S
C207 H229 0.931 1_565 S
C208 C207 1.381 . S
C208 C209 1.321 . S
C209 C208 1.321 . S
C209 C210 1.403 . S
C209 H230 0.934 . S
C210 C205 1.413 . S
C210 C209 1.403 . S
C210 H231 0.930 . S
C211 O222 1.275 . S
C211 O223 1.256 . S
O212 Ho192 2.322 . S
O212 C194 1.259 1_545 S
O213 Ho193 2.346 . S
O213 C194 1.268 . S
O214 Ho192 2.378 1_554 S
O214 C195 1.215 . S
O215 Ho192 2.528 1_554 S
O215 C195 1.300 . S
O216 Ho192 2.381 . S
O216 C202 1.275 . S
O217 Ho192 2.669 . S
O217 Ho193 2.305 1_545 S
O217 C202 1.256 . S
O218 Ho193 2.322 . S
O218 C203 1.259 1_565 S
O219 Ho192 2.346 . S
O219 C203 1.268 . S
O220 Ho193 2.378 . S
O220 C204 1.215 . S
O221 Ho193 2.525 . S
O221 C204 1.292 . S
O222 Ho193 2.381 . S
O222 C211 1.275 . S
O223 Ho192 2.305 1_565 S
O223 Ho193 2.669 . S
O223 C211 1.256 . S
H224 C197 0.930 1_565 S
H225 C198 0.931 1_565 S
H226 C200 0.934 . S
H227 C201 0.930 . S
H228 C206 0.930 1_545 S
H229 C207 0.931 1_545 S
H230 C209 0.934 . S
H231 C210 0.930 . S
Ho232 C235 2.811 1_556 S
Ho232 O252 2.322 . S
Ho232 O254 2.378 1_556 S
Ho232 O255 2.524 1_556 S
Ho232 O256 2.381 . S
Ho232 O257 2.669 . S
Ho232 O259 2.346 . S
Ho232 O263 2.305 . S
Ho233 C244 2.811 . S
Ho233 O253 2.346 . S
Ho233 O257 2.305 . S
Ho233 O258 2.322 . S
Ho233 O260 2.378 . S
Ho233 O261 2.524 . S
Ho233 O262 2.381 . S
Ho233 O263 2.669 . S
C234 O252 1.259 . S
C234 O253 1.268 . S
C235 Ho232 2.811 1_554 S
C235 C236 1.488 . S
C235 O254 1.215 . S
C235 O255 1.289 . S
C236 C235 1.488 . S
C236 C237 1.348 . S
C236 C241 1.413 . S
C237 C236 1.348 . S
C237 C238 1.442 . S
C237 H264 0.930 . S
C238 C237 1.442 . S
C238 C239 1.381 . S
C238 H265 0.931 . S
C239 C238 1.381 . S
C239 C240 1.321 . S
C240 C239 1.321 . S
C240 C241 1.403 . S
C240 H266 0.934 . S
C241 C236 1.413 . S
C241 C240 1.403 . S
C241 H267 0.930 . S
C242 O256 1.275 . S
C242 O257 1.256 . S
C243 O258 1.259 . S
C243 O259 1.268 . S
C244 Ho233 2.811 . S
C244 C245 1.488 . S
C244 O260 1.215 . S
C244 O261 1.289 . S
C245 C244 1.488 . S
C245 C246 1.348 . S
C245 C250 1.413 . S
C246 C245 1.348 . S
C246 C247 1.442 . S
C246 H268 0.930 . S
C247 C246 1.442 . S
C247 C248 1.381 . S
C247 H269 0.931 . S
C248 C247 1.381 . S
C248 C249 1.321 . S
C249 C248 1.321 . S
C249 C250 1.403 . S
C249 H270 0.934 . S
C250 C245 1.413 . S
C250 C249 1.403 . S
C250 H271 0.930 . S
C251 O262 1.275 . S
C251 O263 1.256 . S
O252 Ho232 2.322 . S
O252 C234 1.259 . S
O253 Ho233 2.346 . S
O253 C234 1.268 . S
O254 Ho232 2.378 1_554 S
O254 C235 1.215 . S
O255 Ho232 2.524 1_554 S
O255 C235 1.289 . S
O256 Ho232 2.381 . S
O256 C242 1.275 . S
O257 Ho232 2.669 . S
O257 Ho233 2.305 . S
O257 C242 1.256 . S
O258 Ho233 2.322 . S
O258 C243 1.259 . S
O259 Ho232 2.346 . S
O259 C243 1.268 . S
O260 Ho233 2.378 . S
O260 C244 1.215 . S
O261 Ho233 2.524 . S
O261 C244 1.289 . S
O262 Ho233 2.381 . S
O262 C251 1.275 . S
O263 Ho232 2.305 . S
O263 Ho233 2.669 . S
O263 C251 1.256 . S
H264 C237 0.930 . S
H265 C238 0.931 . S
H266 C240 0.934 . S
H267 C241 0.930 . S
H268 C246 0.930 . S
H269 C247 0.931 . S
H270 C249 0.934 . S
H271 C250 0.930 . S
Ho272 C275 2.811 1_556 S
Ho272 O292 2.322 . S
Ho272 O294 2.378 1_556 S
Ho272 O295 2.524 1_556 S
Ho272 O296 2.381 . S
Ho272 O297 2.669 1_655 S
Ho272 O299 2.346 1_655 S
Ho272 O303 2.305 . S
Ho273 C284 2.811 . S
Ho273 O293 2.346 1_455 S
Ho273 O297 2.305 . S
Ho273 O298 2.322 . S
Ho273 O300 2.378 . S
Ho273 O301 2.524 . S
Ho273 O302 2.381 . S
Ho273 O303 2.669 1_455 S
C274 O292 1.259 . S
C274 O293 1.268 . S
C275 Ho272 2.811 1_554 S
C275 C276 1.488 . S
C275 O294 1.215 . S
C275 O295 1.289 . S
C276 C275 1.488 . S
C276 C277 1.348 . S
C276 C281 1.413 . S
C277 C276 1.348 . S
C277 C278 1.442 . S
C277 H304 0.930 . S
C278 C277 1.442 . S
C278 C279 1.381 . S
C278 H305 0.931 . S
C279 C278 1.381 . S
C279 C280 1.321 . S
C280 C279 1.321 . S
C280 C281 1.403 . S
C280 H306 0.934 . S
C281 C276 1.413 . S
C281 C280 1.403 . S
C281 H307 0.930 . S
C282 O296 1.287 . S
C282 O297 1.249 1_655 S
C283 O298 1.259 . S
C283 O299 1.268 . S
C284 Ho273 2.811 . S
C284 C285 1.488 . S
C284 O300 1.215 . S
C284 O301 1.289 . S
C285 C284 1.488 . S
C285 C286 1.348 . S
C285 C290 1.413 . S
C286 C285 1.348 . S
C286 C287 1.442 . S
C286 H308 0.930 . S
C287 C286 1.442 . S
C287 C288 1.381 . S
C287 H309 0.931 . S
C288 C287 1.381 . S
C288 C289 1.321 . S
C289 C288 1.321 . S
C289 C290 1.403 . S
C289 H310 0.934 . S
C290 C285 1.413 . S
C290 C289 1.403 . S
C290 H311 0.930 . S
C291 O302 1.291 . S
C291 O303 1.247 1_455 S
O292 Ho272 2.322 . S
O292 C274 1.259 . S
O293 Ho273 2.346 1_655 S
O293 C274 1.268 . S
O294 Ho272 2.378 1_554 S
O294 C275 1.215 . S
O295 Ho272 2.524 1_554 S
O295 C275 1.289 . S
O296 Ho272 2.381 . S
O296 C282 1.287 . S
O297 Ho272 2.669 1_455 S
O297 Ho273 2.305 . S
O297 C282 1.249 1_455 S
O298 Ho273 2.322 . S
O298 C283 1.259 . S
O299 Ho272 2.346 1_455 S
O299 C283 1.268 . S
O300 Ho273 2.378 . S
O300 C284 1.215 . S
O301 Ho273 2.524 . S
O301 C284 1.289 . S
O302 Ho273 2.381 . S
O302 C291 1.291 . S
O303 Ho272 2.305 . S
O303 Ho273 2.669 1_655 S
O303 C291 1.247 1_655 S
H304 C277 0.930 . S
H305 C278 0.931 . S
H306 C280 0.934 . S
H307 C281 0.930 . S
H308 C286 0.930 . S
H309 C287 0.931 . S
H310 C289 0.934 . S
H311 C290 0.930 . S
C312 C313 1.353 1_565 S
C312 C318 1.379 . S
C312 N320 1.356 . S
C313 C312 1.353 1_545 S
C313 C319 1.374 . S
C314 C315 1.363 . S
C314 C319 1.379 . S
C314 N321 1.356 . S
C315 C314 1.363 . S
C315 C318 1.363 1_545 S
N316 C318 1.356 . S
N316 H328 0.984 . S
N316 H329 0.985 . S
N317 C319 1.356 . S
N317 H322 0.984 . S
N317 H323 0.985 . S
C318 C312 1.379 . S
C318 C315 1.363 1_565 S
C318 N316 1.356 . S
C319 C313 1.374 . S
C319 C314 1.379 . S
C319 N317 1.356 . S
N320 C312 1.356 . S
N320 H326 0.984 . S
N320 H327 0.984 . S
N321 C314 1.356 . S
N321 H324 0.984 . S
N321 H325 0.985 . S
H322 N317 0.984 . S
H323 N317 0.985 . S
H324 N321 0.984 . S
H325 N321 0.985 . S
H326 N320 0.984 . S
H327 N320 0.984 . S
H328 N316 0.984 . S
H329 N316 0.985 . S
C330 C331 1.363 . S
C330 C336 1.379 . S
C330 N338 1.356 . S
C331 C330 1.363 . S
C331 C337 1.363 . S
C332 C333 1.363 . S
C332 C337 1.379 . S
C332 N339 1.356 . S
C333 C332 1.363 . S
C333 C336 1.363 . S
N334 C336 1.356 . S
N334 H346 0.984 . S
N334 H347 0.985 . S
N335 C337 1.356 . S
N335 H340 0.984 . S
N335 H341 0.985 . S
C336 C330 1.379 . S
C336 C333 1.363 . S
C336 N334 1.356 . S
C337 C331 1.363 . S
C337 C332 1.379 . S
C337 N335 1.356 . S
N338 C330 1.356 . S
N338 H344 0.984 . S
N338 H345 0.984 . S
N339 C332 1.356 . S
N339 H342 0.984 . S
N339 H343 0.985 . S
H340 N335 0.984 . S
H341 N335 0.985 . S
H342 N339 0.984 . S
H343 N339 0.985 . S
H344 N338 0.984 . S
H345 N338 0.984 . S
H346 N334 0.984 . S
H347 N334 0.985 . S
C348 C349 1.363 . S
C348 C354 1.379 . S
C348 N356 1.356 . S
C349 C348 1.363 . S
C349 C355 1.363 . S
C350 C351 1.363 . S
C350 C355 1.379 . S
C350 N357 1.356 . S
C351 C350 1.363 . S
C351 C354 1.363 . S
N352 C354 1.356 . S
N352 H364 0.984 . S
N352 H365 0.985 . S
N353 C355 1.356 . S
N353 H358 0.984 . S
N353 H359 0.985 . S
C354 C348 1.379 . S
C354 C351 1.363 . S
C354 N352 1.356 . S
C355 C349 1.363 . S
C355 C350 1.379 . S
C355 N353 1.356 . S
N356 C348 1.356 . S
N356 H362 0.984 . S
N356 H363 0.984 . S
N357 C350 1.356 . S
N357 H360 0.984 . S
N357 H361 0.985 . S
H358 N353 0.984 . S
H359 N353 0.985 . S
H360 N357 0.984 . S
H361 N357 0.985 . S
H362 N356 0.984 . S
H363 N356 0.984 . S
H364 N352 0.984 . S
H365 N352 0.985 . S
C366 C367 1.349 1_655 S
C366 C372 1.379 . S
C366 N374 1.356 . S
C367 C366 1.349 1_455 S
C367 C373 1.377 . S
C368 C369 1.363 . S
C368 C373 1.379 . S
C368 N375 1.356 . S
C369 C368 1.363 . S
C369 C372 1.363 1_455 S
N370 C372 1.356 . S
N370 H382 0.984 . S
N370 H383 0.985 . S
N371 C373 1.356 . S
N371 H376 0.984 . S
N371 H377 0.985 . S
C372 C366 1.379 . S
C372 C369 1.363 1_655 S
C372 N370 1.356 . S
C373 C367 1.377 . S
C373 C368 1.379 . S
C373 N371 1.356 . S
N374 C366 1.356 . S
N374 H380 0.984 . S
N374 H381 0.984 . S
N375 C368 1.356 . S
N375 H378 0.984 . S
N375 H379 0.985 . S
H376 N371 0.984 . S
H377 N371 0.985 . S
H378 N375 0.984 . S
H379 N375 0.985 . S
H380 N374 0.984 . S
H381 N374 0.984 . S
H382 N370 0.984 . S
H383 N370 0.985 . S
C384 C385 1.359 1_545 S
C384 C390 1.379 . S
C384 N392 1.356 . S
C385 C384 1.359 1_565 S
C385 C391 1.367 . S
C386 C387 1.388 . S
C386 C391 1.379 . S
C386 N393 1.356 . S
C387 C386 1.388 . S
C387 C390 1.338 1_565 S
N388 C390 1.356 1_556 S
N388 H400 0.984 . S
N388 H401 0.985 . S
N389 C391 1.356 . S
N389 H394 0.984 . S
N389 H395 0.985 . S
C390 C384 1.379 . S
C390 C387 1.338 1_545 S
C390 N388 1.356 1_554 S
C391 C385 1.367 . S
C391 C386 1.379 . S
C391 N389 1.356 . S
N392 C384 1.356 . S
N392 H398 0.984 . S
N392 H399 0.984 . S
N393 C386 1.356 . S
N393 H396 0.984 . S
N393 H397 0.985 . S
H394 N389 0.984 . S
H395 N389 0.985 . S
H396 N393 0.984 . S
H397 N393 0.985 . S
H398 N392 0.984 . S
H399 N392 0.984 . S
H400 N388 0.984 . S
H401 N388 0.985 . S
C402 C403 1.363 . S
C402 C408 1.379 . S
C402 N410 1.356 . S
C403 C402 1.363 . S
C403 C409 1.363 . S
C404 C405 1.363 . S
C404 C409 1.379 . S
C404 N411 1.356 . S
C405 C404 1.363 . S
C405 C408 1.363 . S
N406 C408 1.356 1_556 S
N406 H418 0.984 . S
N406 H419 0.985 . S
N407 C409 1.356 . S
N407 H412 0.984 . S
N407 H413 0.985 . S
C408 C402 1.379 . S
C408 C405 1.363 . S
C408 N406 1.356 1_554 S
C409 C403 1.363 . S
C409 C404 1.379 . S
C409 N407 1.356 . S
N410 C402 1.356 . S
N410 H416 0.984 . S
N410 H417 0.984 . S
N411 C404 1.356 . S
N411 H414 0.984 . S
N411 H415 0.985 . S
H412 N407 0.984 . S
H413 N407 0.985 . S
H414 N411 0.984 . S
H415 N411 0.985 . S
H416 N410 0.984 . S
H417 N410 0.984 . S
H418 N406 0.984 . S
H419 N406 0.985 . S
C420 C421 1.363 . S
C420 C426 1.379 . S
C420 N428 1.356 . S
C421 C420 1.363 . S
C421 C427 1.363 . S
C422 C423 1.363 . S
C422 C427 1.379 . S
C422 N429 1.356 1_554 S
C423 C422 1.363 . S
C423 C426 1.363 . S
N424 C426 1.356 . S
N424 H436 0.984 . S
N424 H437 0.985 . S
N425 C427 1.356 . S
N425 H430 0.984 . S
N425 H431 0.985 . S
C426 C420 1.379 . S
C426 C423 1.363 . S
C426 N424 1.356 . S
C427 C421 1.363 . S
C427 C422 1.379 . S
C427 N425 1.356 . S
N428 C420 1.356 . S
N428 H434 0.984 . S
N428 H435 0.984 . S
N429 C422 1.356 1_556 S
N429 H432 0.984 . S
N429 H433 0.985 . S
H430 N425 0.984 . S
H431 N425 0.985 . S
H432 N429 0.984 . S
H433 N429 0.985 . S
H434 N428 0.984 . S
H435 N428 0.984 . S
H436 N424 0.984 . S
H437 N424 0.985 . S
C438 C439 1.377 . S
C438 C444 1.379 . S
C438 N446 1.356 . S
C439 C438 1.377 . S
C439 C445 1.349 1_655 S
C440 C441 1.363 1_455 S
C440 C445 1.379 . S
C440 N447 1.356 . S
C441 C440 1.363 1_655 S
C441 C444 1.363 . S
N442 C444 1.356 1_556 S
N442 H454 0.984 . S
N442 H455 0.985 . S
N443 C445 1.356 . S
N443 H448 0.984 . S
N443 H449 0.985 . S
C444 C438 1.379 . S
C444 C441 1.363 . S
C444 N442 1.356 1_554 S
C445 C439 1.349 1_455 S
C445 C440 1.379 . S
C445 N443 1.356 . S
N446 C438 1.356 . S
N446 H452 0.984 . S
N446 H453 0.984 . S
N447 C440 1.356 . S
N447 H450 0.984 . S
N447 H451 0.985 . S
H448 N443 0.984 . S
H449 N443 0.985 . S
H450 N447 0.984 . S
H451 N447 0.985 . S
H452 N446 0.984 . S
H453 N446 0.984 . S
H454 N442 0.984 . S
H455 N442 0.985 . S
C456 C457 1.363 . S
C456 C462 1.379 . S
C456 N464 1.356 1_554 S
C457 C456 1.363 . S
C457 C463 1.361 1_655 S
C458 C459 1.363 . S
C458 C463 1.362 1_655 S
C458 N465 1.356 . S
C459 C458 1.363 . S
C459 C462 1.363 . S
N460 C462 1.356 . S
N460 H472 0.984 1_554 S
N460 H473 0.985 . S
N461 C463 1.378 . S
N461 H466 0.984 . S
N461 H467 0.985 . S
C462 C456 1.379 . S
C462 C459 1.363 . S
C462 N460 1.356 . S
C463 C457 1.361 1_455 S
C463 C458 1.362 1_455 S
C463 N461 1.378 . S
N464 C456 1.356 1_556 S
N464 H470 0.984 . S
N464 H471 0.984 . S
N465 C458 1.356 . S
N465 H468 0.984 . S
N465 H469 0.985 . S
H466 N461 0.984 . S
H467 N461 0.985 . S
H468 N465 0.984 . S
H469 N465 0.985 . S
H470 N464 0.984 . S
H471 N464 0.984 . S
H472 N460 0.984 1_556 S
H473 N460 0.985 . S
C474 C475 1.363 1_545 S
C474 C480 1.379 1_545 S
C474 N482 1.356 . S
C475 C474 1.363 1_565 S
C475 C481 1.363 . S
C476 C477 1.363 . S
C476 C481 1.379 . S
C476 N483 1.356 . S
C477 C476 1.363 . S
C477 C480 1.363 . S
N478 C480 1.356 . S
N478 H490 0.984 1_565 S
N478 H491 0.985 . S
N479 C481 1.356 . S
N479 H484 0.984 . S
N479 H485 0.985 1_554 S
C480 C474 1.379 1_565 S
C480 C477 1.363 . S
C480 N478 1.356 . S
C481 C475 1.363 . S
C481 C476 1.379 . S
C481 N479 1.356 . S
N482 C474 1.356 . S
N482 H488 0.984 . S
N482 H489 0.984 . S
N483 C476 1.356 . S
N483 H486 0.984 . S
N483 H487 0.985 . S
H484 N479 0.984 . S
H485 N479 0.985 1_556 S
H486 N483 0.984 . S
H487 N483 0.985 . S
H488 N482 0.984 . S
H489 N482 0.984 . S
H490 N478 0.984 1_545 S
H491 N478 0.985 . S
C492 C493 1.363 . S
C492 C498 1.379 . S
C492 N500 1.356 . S
C493 C492 1.363 . S
C493 C499 1.363 . S
C494 C495 1.363 . S
C494 C499 1.379 . S
C494 N501 1.356 . S
C495 C494 1.363 . S
C495 C498 1.363 . S
N496 C498 1.356 . S
N496 H508 0.984 . S
N496 H509 0.985 . S
N497 C499 1.356 1_556 S
N497 H502 0.984 . S
N497 H503 0.985 . S
C498 C492 1.379 . S
C498 C495 1.363 . S
C498 N496 1.356 . S
C499 C493 1.363 . S
C499 C494 1.379 . S
C499 N497 1.356 1_554 S
N500 C492 1.356 . S
N500 H506 0.984 . S
N500 H507 0.984 . S
N501 C494 1.356 . S
N501 H504 0.984 . S
N501 H505 0.985 . S
H502 N497 0.984 . S
H503 N497 0.985 . S
H504 N501 0.984 . S
H505 N501 0.985 . S
H506 N500 0.984 . S
H507 N500 0.984 . S
H508 N496 0.984 . S
H509 N496 0.985 . S
C510 C511 1.363 . S
C510 C516 1.379 . S
C510 N518 1.356 1_554 S
C511 C510 1.363 . S
C511 C517 1.363 . S
C512 C513 1.363 . S
C512 C517 1.379 . S
C512 N519 1.356 . S
C513 C512 1.363 . S
C513 C516 1.363 . S
N514 C516 1.356 . S
N514 H526 0.984 1_554 S
N514 H527 0.985 . S
N515 C517 1.356 . S
N515 H520 0.984 . S
N515 H521 0.985 . S
C516 C510 1.379 . S
C516 C513 1.363 . S
C516 N514 1.356 . S
C517 C511 1.363 . S
C517 C512 1.379 . S
C517 N515 1.356 . S
N518 C510 1.356 1_556 S
N518 H524 0.984 . S
N518 H525 0.984 . S
N519 C512 1.356 . S
N519 H522 0.984 . S
N519 H523 0.985 . S
H520 N515 0.984 . S
H521 N515 0.985 . S
H522 N519 0.984 . S
H523 N519 0.985 . S
H524 N518 0.984 . S
H525 N518 0.984 . S
H526 N514 0.984 1_556 S
H527 N514 0.985 . S
C528 C529 1.363 . S
C528 C534 1.379 . S
C528 N536 1.356 . S
C529 C528 1.363 . S
C529 C535 1.363 . S
C530 C531 1.363 . S
C530 C535 1.379 . S
C530 N537 1.356 . S
C531 C530 1.363 . S
C531 C534 1.363 . S
N532 C534 1.356 . S
N532 H544 0.984 . S
N532 H545 0.985 . S
N533 C535 1.356 1_655 S
N533 H538 0.984 . S
N533 H539 0.985 . S
C534 C528 1.379 . S
C534 C531 1.363 . S
C534 N532 1.356 . S
C535 C529 1.363 . S
C535 C530 1.379 . S
C535 N533 1.356 1_455 S
N536 C528 1.356 . S
N536 H542 0.984 . S
N536 H543 0.984 1_455 S
N537 C530 1.356 . S
N537 H540 0.984 . S
N537 H541 0.985 . S
H538 N533 0.984 . S
H539 N533 0.985 . S
H540 N537 0.984 . S
H541 N537 0.985 . S
H542 N536 0.984 . S
H543 N536 0.984 1_655 S
H544 N532 0.984 . S
H545 N532 0.985 . S
C546 C547 1.363 1_565 S
C546 C552 1.379 1_565 S
C546 N554 1.356 . S
C547 C546 1.363 1_545 S
C547 C553 1.363 . S
C548 C549 1.363 . S
C548 C553 1.379 . S
C548 N555 1.356 . S
C549 C548 1.363 . S
C549 C552 1.363 . S
N550 C552 1.356 . S
N550 H562 0.984 . S
N550 H563 0.985 . S
N551 C553 1.356 . S
N551 H556 0.984 . S
N551 H557 0.985 . S
C552 C546 1.379 1_545 S
C552 C549 1.363 . S
C552 N550 1.356 . S
C553 C547 1.363 . S
C553 C548 1.379 . S
C553 N551 1.356 . S
N554 C546 1.356 . S
N554 H560 0.984 . S
N554 H561 0.984 . S
N555 C548 1.356 . S
N555 H558 0.984 . S
N555 H559 0.985 . S
H556 N551 0.984 . S
H557 N551 0.985 . S
H558 N555 0.984 . S
H559 N555 0.985 . S
H560 N554 0.984 . S
H561 N554 0.984 . S
H562 N550 0.984 . S
H563 N550 0.985 . S
C564 C565 1.363 . S
C564 C570 1.379 . S
C564 N572 1.356 . S
C565 C564 1.363 . S
C565 C571 1.363 . S
C566 C567 1.363 . S
C566 C571 1.379 . S
C566 N573 1.356 . S
C567 C566 1.363 . S
C567 C570 1.363 . S
N568 C570 1.356 . S
N568 H580 0.984 . S
N568 H581 0.985 . S
N569 C571 1.356 . S
N569 H574 0.984 . S
N569 H575 0.985 . S
C570 C564 1.379 . S
C570 C567 1.363 . S
C570 N568 1.356 . S
C571 C565 1.363 . S
C571 C566 1.379 . S
C571 N569 1.356 . S
N572 C564 1.356 . S
N572 H578 0.984 . S
N572 H579 0.984 . S
N573 C566 1.356 . S
N573 H576 0.984 . S
N573 H577 0.985 . S
H574 N569 0.984 . S
H575 N569 0.985 . S
H576 N573 0.984 . S
H577 N573 0.985 . S
H578 N572 0.984 . S
H579 N572 0.984 . S
H580 N568 0.984 . S
H581 N568 0.985 . S
C582 C583 1.363 . S
C582 C588 1.379 . S
C582 N590 1.356 . S
C583 C582 1.363 . S
C583 C589 1.363 . S
C584 C585 1.363 . S
C584 C589 1.379 . S
C584 N591 1.356 . S
C585 C584 1.363 . S
C585 C588 1.363 . S
N586 C588 1.356 . S
N586 H598 0.984 . S
N586 H599 0.985 . S
N587 C589 1.356 . S
N587 H592 0.984 . S
N587 H593 0.985 . S
C588 C582 1.379 . S
C588 C585 1.363 . S
C588 N586 1.356 . S
C589 C583 1.363 . S
C589 C584 1.379 . S
C589 N587 1.356 . S
N590 C582 1.356 . S
N590 H596 0.984 . S
N590 H597 0.984 . S
N591 C584 1.356 . S
N591 H594 0.984 . S
N591 H595 0.985 . S
H592 N587 0.984 . S
H593 N587 0.985 . S
H594 N591 0.984 . S
H595 N591 0.985 . S
H596 N590 0.984 . S
H597 N590 0.984 . S
H598 N586 0.984 . S
H599 N586 0.985 . S
C600 C601 1.363 . S
C600 C606 1.379 . S
C600 N608 1.356 . S
C601 C600 1.363 . S
C601 C607 1.363 1_455 S
C602 C603 1.363 1_655 S
C602 C607 1.379 . S
C602 N609 1.356 . S
C603 C602 1.363 1_455 S
C603 C606 1.363 . S
N604 C606 1.356 1_554 S
N604 H616 0.984 . S
N604 H617 0.985 . S
N605 C607 1.356 . S
N605 H610 0.984 . S
N605 H611 0.985 . S
C606 C600 1.379 . S
C606 C603 1.363 . S
C606 N604 1.356 1_556 S
C607 C601 1.363 1_655 S
C607 C602 1.379 . S
C607 N605 1.356 . S
N608 C600 1.356 . S
N608 H614 0.984 1_556 S
N608 H615 0.984 . S
N609 C602 1.356 . S
N609 H612 0.984 . S
N609 H613 0.985 . S
H610 N605 0.984 . S
H611 N605 0.985 . S
H612 N609 0.984 . S
H613 N609 0.985 . S
H614 N608 0.984 1_554 S
H615 N608 0.984 . S
H616 N604 0.984 . S
H617 N604 0.985 . S
C618 C619 1.363 . S
C618 C624 1.379 . S
C618 N626 1.356 . S
C619 C618 1.363 . S
C619 C625 1.363 1_545 S
C620 C621 1.367 . S
C620 C625 1.378 1_545 S
C620 N627 1.355 1_546 S
C621 C620 1.367 . S
C621 C624 1.363 . S
N622 C624 1.356 . S
N622 H634 0.984 . S
N622 H635 0.985 . S
N623 C625 1.356 . S
N623 H628 0.984 . S
N623 H629 0.985 1_556 S
C624 C618 1.379 . S
C624 C621 1.363 . S
C624 N622 1.356 . S
C625 C619 1.363 1_565 S
C625 C620 1.378 1_565 S
C625 N623 1.356 . S
N626 C618 1.356 . S
N626 H632 0.984 . S
N626 H633 0.984 . S
N627 C620 1.355 1_564 S
N627 H630 0.984 1_565 S
N627 H631 0.985 . S
H628 N623 0.984 . S
H629 N623 0.985 1_554 S
H630 N627 0.984 1_545 S
H631 N627 0.985 . S
H632 N626 0.984 . S
H633 N626 0.984 . S
H634 N622 0.984 . S
H635 N622 0.985 . S
C636 C637 1.363 . S
C636 C642 1.379 . S
C636 N644 1.356 . S
C637 C636 1.363 . S
C637 C643 1.363 . S
C638 C639 1.363 . S
C638 C643 1.379 . S
C638 N645 1.356 1_556 S
C639 C638 1.363 . S
C639 C642 1.363 . S
N640 C642 1.356 . S
N640 H652 0.984 . S
N640 H653 0.985 . S
N641 C643 1.356 . S
N641 H646 0.984 . S
N641 H647 0.985 1_556 S
C642 C636 1.379 . S
C642 C639 1.363 . S
C642 N640 1.356 . S
C643 C637 1.363 . S
C643 C638 1.379 . S
C643 N641 1.356 . S
N644 C636 1.356 . S
N644 H650 0.984 . S
N644 H651 0.984 . S
N645 C638 1.356 1_554 S
N645 H648 0.984 . S
N645 H649 0.985 . S
H646 N641 0.984 . S
H647 N641 0.985 1_554 S
H648 N645 0.984 . S
H649 N645 0.985 . S
H650 N644 0.984 . S
H651 N644 0.984 . S
H652 N640 0.984 . S
H653 N640 0.985 . S
C654 C655 1.363 . S
C654 C660 1.379 . S
C654 N662 1.356 1_556 S
C655 C654 1.363 . S
C655 C661 1.363 . S
C656 C657 1.363 . S
C656 C661 1.379 . S
C656 N663 1.356 . S
C657 C656 1.363 . S
C657 C660 1.363 . S
N658 C660 1.356 1_554 S
N658 H670 0.984 . S
N658 H671 0.985 . S
N659 C661 1.356 . S
N659 H664 0.984 . S
N659 H665 0.985 . S
C660 C654 1.379 . S
C660 C657 1.363 . S
C660 N658 1.356 1_556 S
C661 C655 1.363 . S
C661 C656 1.379 . S
C661 N659 1.356 . S
N662 C654 1.356 1_554 S
N662 H668 0.984 . S
N662 H669 0.984 1_554 S
N663 C656 1.356 . S
N663 H666 0.984 . S
N663 H667 0.985 . S
H664 N659 0.984 . S
H665 N659 0.985 . S
H666 N663 0.984 . S
H667 N663 0.985 . S
H668 N662 0.984 . S
H669 N662 0.984 1_556 S
H670 N658 0.984 . S
H671 N658 0.985 . S
C672 C673 1.363 1_455 S
C672 C678 1.379 . S
C672 N680 1.356 . S
C673 C672 1.363 1_655 S
C673 C679 1.363 . S
C674 C675 1.363 . S
C674 C679 1.379 . S
C674 N681 1.356 . S
C675 C674 1.363 . S
C675 C678 1.363 1_655 S
N676 C678 1.356 . S
N676 H688 0.984 . S
N676 H689 0.985 . S
N677 C679 1.356 . S
N677 H682 0.984 . S
N677 H683 0.985 1_556 S
C678 C672 1.379 . S
C678 C675 1.363 1_455 S
C678 N676 1.356 . S
C679 C673 1.363 . S
C679 C674 1.379 . S
C679 N677 1.356 . S
N680 C672 1.356 . S
N680 H686 0.984 . S
N680 H687 0.984 . S
N681 C674 1.356 . S
N681 H684 0.984 . S
N681 H685 0.985 . S
H682 N677 0.984 . S
H683 N677 0.985 1_554 S
H684 N681 0.984 . S
H685 N681 0.985 . S
H686 N680 0.984 . S
H687 N680 0.984 . S
H688 N676 0.984 . S
H689 N676 0.985 . S
C690 C691 1.363 . S
C690 C696 1.379 . S
C690 N698 1.356 . S
C691 C690 1.363 . S
C691 C697 1.363 1_565 S
C692 C693 1.363 1_545 S
C692 C697 1.379 . S
C692 N699 1.356 . S
C693 C692 1.363 1_565 S
C693 C696 1.363 . S
N694 C696 1.356 . S
N694 H706 0.984 . S
N694 H707 0.985 . S
N695 C697 1.356 . S
N695 H700 0.984 . S
N695 H701 0.985 . S
C696 C690 1.379 . S
C696 C693 1.363 . S
C696 N694 1.356 . S
C697 C691 1.363 1_545 S
C697 C692 1.379 . S
C697 N695 1.356 . S
N698 C690 1.356 . S
N698 H704 0.984 . S
N698 H705 0.984 . S
N699 C692 1.356 . S
N699 H702 0.984 . S
N699 H703 0.985 . S
H700 N695 0.984 . S
H701 N695 0.985 . S
H702 N699 0.984 . S
H703 N699 0.985 . S
H704 N698 0.984 . S
H705 N698 0.984 . S
H706 N694 0.984 . S
H707 N694 0.985 . S
C708 C709 1.363 . S
C708 C714 1.379 . S
C708 N716 1.356 . S
C709 C708 1.363 . S
C709 C715 1.363 . S
C710 C711 1.363 . S
C710 C715 1.379 . S
C710 N717 1.356 . S
C711 C710 1.363 . S
C711 C714 1.363 . S
N712 C714 1.356 . S
N712 H724 0.984 . S
N712 H725 0.985 . S
N713 C715 1.356 . S
N713 H718 0.984 . S
N713 H719 0.985 . S
C714 C708 1.379 . S
C714 C711 1.363 . S
C714 N712 1.356 . S
C715 C709 1.363 . S
C715 C710 1.379 . S
C715 N713 1.356 . S
N716 C708 1.356 . S
N716 H722 0.984 1_556 S
N716 H723 0.984 . S
N717 C710 1.356 . S
N717 H720 0.984 . S
N717 H721 0.985 . S
H718 N713 0.984 . S
H719 N713 0.985 . S
H720 N717 0.984 . S
H721 N717 0.985 . S
H722 N716 0.984 1_554 S
H723 N716 0.984 . S
H724 N712 0.984 . S
H725 N712 0.985 . S
C726 C727 1.363 . S
C726 C732 1.379 . S
C726 N734 1.356 . S
C727 C726 1.363 . S
C727 C733 1.363 . S
C728 C729 1.363 . S
C728 C733 1.379 . S
C728 N735 1.356 . S
C729 C728 1.363 . S
C729 C732 1.363 . S
N730 C732 1.356 . S
N730 H742 0.984 . S
N730 H743 0.985 . S
N731 C733 1.356 . S
N731 H736 0.984 . S
N731 H737 0.985 . S
C732 C726 1.379 . S
C732 C729 1.363 . S
C732 N730 1.356 . S
C733 C727 1.363 . S
C733 C728 1.379 . S
C733 N731 1.356 . S
N734 C726 1.356 . S
N734 H740 0.984 . S
N734 H741 0.984 . S
N735 C728 1.356 . S
N735 H738 0.984 . S
N735 H739 0.985 . S
H736 N731 0.984 . S
H737 N731 0.985 . S
H738 N735 0.984 . S
H739 N735 0.985 . S
H740 N734 0.984 . S
H741 N734 0.984 . S
H742 N730 0.984 . S
H743 N730 0.985 . S
C313 C125 2.102 1_545 S
C315 C162 2.152 1_545 S
C333 C202 2.164 . S
C331 C144 2.123 . S
C351 C242 2.170 . S
C349 C87 2.134 . S
C369 C282 2.159 1_455 S
C367 C106 2.108 1_455 S
C387 C171 2.153 1_564 S
C385 C49 2.104 . S
C403 C68 2.100 . S
C405 C211 2.166 1_554 S
C421 C11 2.106 . S
C423 C251 2.170 1_554 S
C439 C30 2.108 . S
C441 C291 2.160 1_654 S
C459 C168 0.815 . S
C457 C97 0.809 . S
C477 C208 0.818 . S
C475 C116 0.813 . S
C495 C248 0.814 . S
C493 C135 0.810 . S
C511 C78 0.808 . S
C513 C288 0.807 . S
C529 C21 0.812 1_455 S
C531 C159 0.818 . S
C549 C199 0.818 . S
C547 C40 0.814 1_545 S
C567 C239 0.814 . S
C565 C59 0.811 . S
C583 C2 0.809 . S
C585 C279 0.814 . S
C601 C101 2.247 1_455 S
C603 C163 2.553 . S
C619 C120 2.224 1_545 S
C621 C203 2.535 . S
C639 C243 2.527 . S
C637 C139 2.219 . S
C657 C283 2.550 . S
C655 C82 2.237 . S
C673 C25 2.246 . S
C675 C154 2.562 . S
C693 C194 2.535 . S
C691 C44 2.223 . S
C711 C234 2.527 . S
C709 C63 2.214 . S
C727 C6 2.237 . S
C729 C274 2.554 . S
