# Generated by pormake.
# Topology eea, (3,6)-cn, num edge types: 1
# Building blocks:
#     Node 0, Type 0, BuildingBlock: ESEHIV_clean_linker_0, # of connection points: 3
#     Node 1, Type 0, BuildingBlock: ESEHIV_clean_linker_0, # of connection points: 3
#     Node 2, Type 0, BuildingBlock: ESEHIV_clean_linker_0, # of connection points: 3
#     Node 3, Type 0, BuildingBlock: ESEHIV_clean_linker_0, # of connection points: 3
#     Node 4, Type 0, BuildingBlock: ESEHIV_clean_linker_0, # of connection points: 3
#     Node 5, Type 0, BuildingBlock: ESEHIV_clean_linker_0, # of connection points: 3
#     Node 6, Type 0, BuildingBlock: ESEHIV_clean_linker_0, # of connection points: 3
#     Node 7, Type 0, BuildingBlock: ESEHIV_clean_linker_0, # of connection points: 3
#     Node 8, Type 0, BuildingBlock: ESEHIV_clean_linker_0, # of connection points: 3
#     Node 9, Type 0, BuildingBlock: ESEHIV_clean_linker_0, # of connection points: 3
#     Node 10, Type 0, BuildingBlock: ESEHIV_clean_linker_0, # of connection points: 3
#     Node 11, Type 0, BuildingBlock: ESEHIV_clean_linker_0, # of connection points: 3
#     Node 12, Type 0, BuildingBlock: ESEHIV_clean_linker_0, # of connection points: 3
#     Node 13, Type 0, BuildingBlock: ESEHIV_clean_linker_0, # of connection points: 3
#     Node 14, Type 0, BuildingBlock: ESEHIV_clean_linker_0, # of connection points: 3
#     Node 15, Type 0, BuildingBlock: ESEHIV_clean_linker_0, # of connection points: 3
#     Node 16, Type 0, BuildingBlock: ESEHIV_clean_linker_0, # of connection points: 3
#     Node 17, Type 0, BuildingBlock: ESEHIV_clean_linker_0, # of connection points: 3
#     Node 18, Type 1, BuildingBlock: CUKXOW_clean_sbu_0, # of connection points: 6
#     Node 19, Type 1, BuildingBlock: CUKXOW_clean_sbu_0, # of connection points: 6
#     Node 20, Type 1, BuildingBlock: CUKXOW_clean_sbu_0, # of connection points: 6
#     Node 21, Type 1, BuildingBlock: CUKXOW_clean_sbu_0, # of connection points: 6
#     Node 22, Type 1, BuildingBlock: CUKXOW_clean_sbu_0, # of connection points: 6
#     Node 23, Type 1, BuildingBlock: CUKXOW_clean_sbu_0, # of connection points: 6
#     Node 24, Type 1, BuildingBlock: CUKXOW_clean_sbu_0, # of connection points: 6
#     Node 25, Type 1, BuildingBlock: CUKXOW_clean_sbu_0, # of connection points: 6
#     Node 26, Type 1, BuildingBlock: CUKXOW_clean_sbu_0, # of connection points: 6
#     Edge 27, Type (0, 1), BuildingBlock: MIFKUJ_clean_linker_0, # of connection points: 2
#     Edge 28, Type (0, 1), BuildingBlock: MIFKUJ_clean_linker_0, # of connection points: 2
#     Edge 29, Type (0, 1), BuildingBlock: MIFKUJ_clean_linker_0, # of connection points: 2
#     Edge 30, Type (0, 1), BuildingBlock: MIFKUJ_clean_linker_0, # of connection points: 2
#     Edge 31, Type (0, 1), BuildingBlock: MIFKUJ_clean_linker_0, # of connection points: 2
#     Edge 32, Type (0, 1), BuildingBlock: MIFKUJ_clean_linker_0, # of connection points: 2
#     Edge 33, Type (0, 1), BuildingBlock: MIFKUJ_clean_linker_0, # of connection points: 2
#     Edge 34, Type (0, 1), BuildingBlock: MIFKUJ_clean_linker_0, # of connection points: 2
#     Edge 35, Type (0, 1), BuildingBlock: MIFKUJ_clean_linker_0, # of connection points: 2
#     Edge 36, Type (0, 1), BuildingBlock: MIFKUJ_clean_linker_0, # of connection points: 2
#     Edge 37, Type (0, 1), BuildingBlock: MIFKUJ_clean_linker_0, # of connection points: 2
#     Edge 38, Type (0, 1), BuildingBlock: MIFKUJ_clean_linker_0, # of connection points: 2
#     Edge 39, Type (0, 1), BuildingBlock: MIFKUJ_clean_linker_0, # of connection points: 2
#     Edge 40, Type (0, 1), BuildingBlock: MIFKUJ_clean_linker_0, # of connection points: 2
#     Edge 41, Type (0, 1), BuildingBlock: MIFKUJ_clean_linker_0, # of connection points: 2
#     Edge 42, Type (0, 1), BuildingBlock: MIFKUJ_clean_linker_0, # of connection points: 2
#     Edge 43, Type (0, 1), BuildingBlock: MIFKUJ_clean_linker_0, # of connection points: 2
#     Edge 44, Type (0, 1), BuildingBlock: MIFKUJ_clean_linker_0, # of connection points: 2
#     Edge 45, Type (0, 1), BuildingBlock: MIFKUJ_clean_linker_0, # of connection points: 2
#     Edge 46, Type (0, 1), BuildingBlock: MIFKUJ_clean_linker_0, # of connection points: 2
#     Edge 47, Type (0, 1), BuildingBlock: MIFKUJ_clean_linker_0, # of connection points: 2
#     Edge 48, Type (0, 1), BuildingBlock: MIFKUJ_clean_linker_0, # of connection points: 2
#     Edge 49, Type (0, 1), BuildingBlock: MIFKUJ_clean_linker_0, # of connection points: 2
#     Edge 50, Type (0, 1), BuildingBlock: MIFKUJ_clean_linker_0, # of connection points: 2
#     Edge 51, Type (0, 1), BuildingBlock: MIFKUJ_clean_linker_0, # of connection points: 2
#     Edge 52, Type (0, 1), BuildingBlock: MIFKUJ_clean_linker_0, # of connection points: 2
#     Edge 53, Type (0, 1), BuildingBlock: MIFKUJ_clean_linker_0, # of connection points: 2
#     Edge 54, Type (0, 1), BuildingBlock: MIFKUJ_clean_linker_0, # of connection points: 2
#     Edge 55, Type (0, 1), BuildingBlock: MIFKUJ_clean_linker_0, # of connection points: 2
#     Edge 56, Type (0, 1), BuildingBlock: MIFKUJ_clean_linker_0, # of connection points: 2
#     Edge 57, Type (0, 1), BuildingBlock: MIFKUJ_clean_linker_0, # of connection points: 2
#     Edge 58, Type (0, 1), BuildingBlock: MIFKUJ_clean_linker_0, # of connection points: 2
#     Edge 59, Type (0, 1), BuildingBlock: MIFKUJ_clean_linker_0, # of connection points: 2
#     Edge 60, Type (0, 1), BuildingBlock: MIFKUJ_clean_linker_0, # of connection points: 2
#     Edge 61, Type (0, 1), BuildingBlock: MIFKUJ_clean_linker_0, # of connection points: 2
#     Edge 62, Type (0, 1), BuildingBlock: MIFKUJ_clean_linker_0, # of connection points: 2
#     Edge 63, Type (0, 1), BuildingBlock: MIFKUJ_clean_linker_0, # of connection points: 2
#     Edge 64, Type (0, 1), BuildingBlock: MIFKUJ_clean_linker_0, # of connection points: 2
#     Edge 65, Type (0, 1), BuildingBlock: MIFKUJ_clean_linker_0, # of connection points: 2
#     Edge 66, Type (0, 1), BuildingBlock: MIFKUJ_clean_linker_0, # of connection points: 2
#     Edge 67, Type (0, 1), BuildingBlock: MIFKUJ_clean_linker_0, # of connection points: 2
#     Edge 68, Type (0, 1), BuildingBlock: MIFKUJ_clean_linker_0, # of connection points: 2
#     Edge 69, Type (0, 1), BuildingBlock: MIFKUJ_clean_linker_0, # of connection points: 2
#     Edge 70, Type (0, 1), BuildingBlock: MIFKUJ_clean_linker_0, # of connection points: 2
#     Edge 71, Type (0, 1), BuildingBlock: MIFKUJ_clean_linker_0, # of connection points: 2
#     Edge 72, Type (0, 1), BuildingBlock: MIFKUJ_clean_linker_0, # of connection points: 2
#     Edge 73, Type (0, 1), BuildingBlock: MIFKUJ_clean_linker_0, # of connection points: 2
#     Edge 74, Type (0, 1), BuildingBlock: MIFKUJ_clean_linker_0, # of connection points: 2
#     Edge 75, Type (0, 1), BuildingBlock: MIFKUJ_clean_linker_0, # of connection points: 2
#     Edge 76, Type (0, 1), BuildingBlock: MIFKUJ_clean_linker_0, # of connection points: 2
#     Edge 77, Type (0, 1), BuildingBlock: MIFKUJ_clean_linker_0, # of connection points: 2
#     Edge 78, Type (0, 1), BuildingBlock: MIFKUJ_clean_linker_0, # of connection points: 2
#     Edge 79, Type (0, 1), BuildingBlock: MIFKUJ_clean_linker_0, # of connection points: 2
#     Edge 80, Type (0, 1), BuildingBlock: MIFKUJ_clean_linker_0, # of connection points: 2
# Relax obj value: 0.018
# Max RMSD: 0.126
# Mean RMSD: 0.055
data_MOF--net-eea--node1-CUKXOW_clean_sbu_0--node2-ESEHIV_clean_linker_0--edge1-MIFKUJ_clean_linker_0
_symmetry_space_group_name_H-M    P1
_symmetry_Int_Tables_number       1
_symmetry_cell_setting            triclinic
loop_
_symmetry_equiv_pos_as_xyz
'x, y, z'
_cell_length_a     68.094399
_cell_length_b     65.071769
_cell_length_c     74.643932
_cell_angle_alpha  93.123605
_cell_angle_beta   93.070447
_cell_angle_gamma 119.86346
loop_
_atom_site_label
_atom_site_type_symbol
_atom_site_fract_x
_atom_site_fract_y
_atom_site_fract_z
_atom_type_partial_charge
H0 H 0.26434 0.18242 0.4536 0.0
H1 H 0.26765 0.11817 0.45411 0.0
H2 H 0.23914 0.13218 0.40659 0.0
C3 C 0.26146 0.16589 0.44675 0.0
C4 C 0.25126 0.15907 0.42899 0.0
C5 C 0.26696 0.15096 0.456 0.0
C6 C 0.26281 0.12938 0.44712 0.0
C7 C 0.2531 0.12257 0.42917 0.0
C8 C 0.2471 0.13743 0.42029 0.0
H9 H 0.84754 0.10252 0.4605 0.0
H10 H 0.91047 0.16892 0.46628 0.0
H11 H 0.89187 0.12106 0.41802 0.0
C12 C 0.86327 0.11482 0.45512 0.0
C13 C 0.86809 0.10912 0.43815 0.0
C14 C 0.8783 0.13656 0.46505 0.0
C15 C 0.89861 0.15258 0.45814 0.0
C16 C 0.90397 0.14708 0.44124 0.0
C17 C 0.8883 0.12544 0.4312 0.0
H18 H 0.8554 0.74797 0.46677 0.0
H19 H 0.91704 0.7447 0.46819 0.0
H20 H 0.89768 0.77134 0.42312 0.0
C21 C 0.87036 0.75052 0.46053 0.0
C22 C 0.87481 0.76038 0.44395 0.0
C23 C 0.88535 0.74453 0.46932 0.0
C24 C 0.90528 0.74905 0.46145 0.0
C25 C 0.91012 0.75914 0.44492 0.0
C26 C 0.8946 0.76444 0.4362 0.0
H27 H 0.07964 0.25344 0.53629 0.0
H28 H 0.14307 0.25417 0.53504 0.0
H29 H 0.10288 0.22727 0.57945 0.0
C30 C 0.0922 0.24971 0.54235 0.0
C31 C 0.08924 0.24048 0.55927 0.0
C32 C 0.11133 0.25419 0.53325 0.0
C33 C 0.12772 0.24968 0.54146 0.0
C34 C 0.12488 0.24007 0.55813 0.0
C35 C 0.10551 0.23537 0.56685 0.0
H36 H 0.72983 0.88876 0.56335 0.0
H37 H 0.73485 0.82567 0.55409 0.0
H38 H 0.75937 0.86726 0.60543 0.0
C39 C 0.73467 0.87631 0.5681 0.0
C40 C 0.74512 0.88037 0.58567 0.0
C41 C 0.73089 0.85666 0.55653 0.0
C42 C 0.73742 0.84078 0.5629 0.0
C43 C 0.74745 0.84436 0.58057 0.0
C44 C 0.7513 0.86422 0.59187 0.0
H45 H 0.09867 0.83038 0.55066 0.0
H46 H 0.16332 0.89514 0.55549 0.0
H47 H 0.11741 0.88202 0.59637 0.0
C48 C 0.11093 0.84702 0.55829 0.0
C49 C 0.10544 0.85429 0.57442 0.0
C50 C 0.13171 0.86174 0.55138 0.0
C51 C 0.14733 0.88365 0.56089 0.0
C52 C 0.14223 0.89105 0.57711 0.0
C53 C 0.12125 0.87637 0.58376 0.0
H54 H 0.92166 0.49828 0.79302 0.0
H55 H 0.92407 0.43342 0.78916 0.0
H56 H 0.89555 0.45128 0.74404 0.0
C57 C 0.91857 0.48227 0.78517 0.0
C58 C 0.90791 0.4768 0.76753 0.0
C59 C 0.92444 0.46673 0.79306 0.0
C60 C 0.91968 0.44555 0.78312 0.0
C61 C 0.90901 0.43977 0.76551 0.0
C62 C 0.90329 0.4555 0.75779 0.0
H63 H 0.50697 0.4459 0.78909 0.0
H64 H 0.57189 0.51049 0.7936 0.0
H65 H 0.54897 0.46297 0.74499 0.0
C66 C 0.52248 0.45783 0.78327 0.0
C67 C 0.52587 0.45212 0.76574 0.0
C68 C 0.53883 0.47907 0.79323 0.0
C69 C 0.55898 0.49436 0.78577 0.0
C70 C 0.56276 0.48861 0.76839 0.0
C71 C 0.54594 0.46771 0.7583 0.0
H72 H 0.51481 0.07928 0.80257 0.0
H73 H 0.5756 0.07509 0.79994 0.0
H74 H 0.55239 0.10056 0.75614 0.0
C75 C 0.52929 0.08199 0.79548 0.0
C76 C 0.532 0.09097 0.77858 0.0
C77 C 0.54474 0.07584 0.80307 0.0
C78 C 0.56328 0.07906 0.79372 0.0
C79 C 0.56641 0.08822 0.77679 0.0
C80 C 0.55043 0.09378 0.76926 0.0
H81 H 0.75019 0.57949 0.86507 0.0
H82 H 0.81232 0.57754 0.8642 0.0
H83 H 0.77428 0.55769 0.91056 0.0
C84 C 0.76269 0.57596 0.87154 0.0
C85 C 0.75955 0.56744 0.88868 0.0
C86 C 0.78192 0.58012 0.86275 0.0
C87 C 0.79792 0.57523 0.87119 0.0
C88 C 0.79524 0.5669 0.88838 0.0
C89 C 0.77608 0.56327 0.89704 0.0
H90 H 0.41828 0.22865 0.8804 0.0
H91 H 0.41199 0.1592 0.87896 0.0
H92 H 0.43804 0.20637 0.92768 0.0
C93 C 0.41994 0.21505 0.88693 0.0
C94 C 0.42822 0.21963 0.90516 0.0
C95 C 0.4136 0.19312 0.87725 0.0
C96 C 0.41689 0.17628 0.88602 0.0
C97 C 0.4259 0.18102 0.90413 0.0
C98 C 0.43104 0.20253 0.91372 0.0
H99 H 0.77525 0.16504 0.88634 0.0
H100 H 0.84013 0.22953 0.89073 0.0
H101 H 0.79748 0.21407 0.93416 0.0
C102 C 0.7881 0.18117 0.89419 0.0
C103 C 0.78384 0.1874 0.91131 0.0
C104 C 0.80836 0.19624 0.88668 0.0
C105 C 0.82455 0.21769 0.8965 0.0
C106 C 0.82053 0.22432 0.91349 0.0
C107 C 0.80028 0.20906 0.92086 0.0
H108 H 0.58886 0.83229 0.12456 0.0
H109 H 0.58611 0.76471 0.12467 0.0
H110 H 0.56291 0.78326 0.07685 0.0
C111 C 0.58454 0.81522 0.11779 0.0
C112 C 0.57513 0.8095 0.09977 0.0
C113 C 0.58893 0.79935 0.1269 0.0
C114 C 0.58363 0.77751 0.11766 0.0
C115 C 0.5743 0.77157 0.09962 0.0
C116 C 0.57017 0.78772 0.09075 0.0
H117 H 0.18569 0.7756 0.13082 0.0
H118 H 0.25059 0.83998 0.13612 0.0
H119 H 0.22907 0.79211 0.08764 0.0
C120 C 0.20139 0.78742 0.12518 0.0
C121 C 0.20525 0.78157 0.10786 0.0
C122 C 0.21776 0.80837 0.13538 0.0
C123 C 0.23812 0.82368 0.12821 0.0
C124 C 0.24248 0.81794 0.11099 0.0
C125 C 0.22591 0.79679 0.1009 0.0
H126 H 0.18502 0.40498 0.13209 0.0
H127 H 0.24328 0.39607 0.12936 0.0
H128 H 0.22546 0.42809 0.08726 0.0
C129 C 0.19914 0.40668 0.12497 0.0
C130 C 0.20347 0.41751 0.10876 0.0
C131 C 0.21323 0.39864 0.13239 0.0
C132 C 0.23221 0.40198 0.1236 0.0
C133 C 0.23694 0.41295 0.10742 0.0
C134 C 0.22235 0.42043 0.10005 0.0
H135 H 0.41761 0.91336 0.19914 0.0
H136 H 0.48127 0.91399 0.2013 0.0
H137 H 0.4409 0.89348 0.24624 0.0
C138 C 0.4304 0.91081 0.20629 0.0
C139 C 0.4271 0.90324 0.22369 0.0
C140 C 0.44978 0.91452 0.19793 0.0
C141 C 0.46587 0.9105 0.20728 0.0
C142 C 0.46274 0.90283 0.22464 0.0
C143 C 0.44334 0.89929 0.23278 0.0
H144 H 0.08681 0.5768 0.22003 0.0
H145 H 0.08144 0.50781 0.21906 0.0
H146 H 0.10712 0.55508 0.26757 0.0
C147 C 0.08852 0.56337 0.22678 0.0
C148 C 0.09735 0.56842 0.24494 0.0
C149 C 0.08263 0.54152 0.21718 0.0
C150 C 0.0861 0.52488 0.22604 0.0
C151 C 0.09499 0.5298 0.24412 0.0
C152 C 0.10038 0.55143 0.25354 0.0
H153 H 0.42929 0.50185 0.21101 0.0
H154 H 0.49354 0.56733 0.21683 0.0
H155 H 0.4507 0.54804 0.26033 0.0
C156 C 0.44168 0.5181 0.21901 0.0
C157 C 0.43753 0.52294 0.23655 0.0
C158 C 0.46203 0.53384 0.21193 0.0
C159 C 0.47801 0.55481 0.22235 0.0
C160 C 0.47399 0.55991 0.23979 0.0
C161 C 0.45393 0.5438 0.24695 0.0
Tb162 Tb 0.53193 0.01707 0.99924 0.0
C163 C 0.51849 0.9688 0.01504 0.0
Tb164 Tb 0.48225 0.98582 0.00864 0.0
O165 O 0.54416 0.02283 0.02783 0.0
O166 O 0.51195 0.01687 0.01996 0.0
O167 O 0.53261 0.98494 0.00485 0.0
C168 C 0.44511 0.96128 0.0257 0.0
O169 O 0.49933 0.96763 0.01948 0.0
C170 C 0.48858 0.9835 0.97439 0.0
C171 C 0.4951 0.03314 0.99192 0.0
O172 O 0.46102 0.98305 0.0304 0.0
O173 O 0.44995 0.95336 0.01124 0.0
O174 O 0.46937 0.97933 0.9802 0.0
O175 O 0.50211 0.98618 0.9877 0.0
O176 O 0.48139 0.01763 0.00267 0.0
O177 O 0.51416 0.0341 0.9873 0.0
C178 C 0.57084 0.04302 0.98459 0.0
O179 O 0.56292 0.051 0.99689 0.0
O180 O 0.5568 0.02049 0.98047 0.0
C181 C 0.5251 0.01931 0.03341 0.0
Tb182 Tb 0.99083 0.51593 0.99866 0.0
C183 C 0.03829 0.55498 0.01739 0.0
Tb184 Tb 0.02621 0.5011 0.00972 0.0
O185 O 0.9878 0.52417 0.02682 0.0
O186 O 0.99666 0.49858 0.01971 0.0
O187 O 0.02023 0.55099 0.00671 0.0
C188 C 0.05529 0.49133 0.02734 0.0
O189 O 0.04229 0.53779 0.02177 0.0
C190 C 0.02217 0.5064 0.97545 0.0
C191 C 0.97889 0.46194 0.99124 0.0
O192 O 0.0604 0.50616 0.01508 0.0
O193 O 0.03387 0.48201 0.02959 0.0
O194 O 0.02928 0.49272 0.98162 0.0
O195 O 0.02018 0.51812 0.98852 0.0
O196 O 0.99693 0.46613 0.00196 0.0
O197 O 0.97472 0.479 0.98675 0.0
C198 C 0.96069 0.52459 0.98142 0.0
O199 O 0.95628 0.50993 0.99372 0.0
O200 O 0.9821 0.53447 0.9789 0.0
C201 C 0.9946 0.51017 0.03282 0.0
Tb202 Tb 0.47555 0.4873 0.00433 0.0
C203 C 0.48905 0.44868 0.99156 0.0
Tb204 Tb 0.52796 0.50309 0.00171 0.0
O205 O 0.4746 0.5028 0.97894 0.0
O206 O 0.49808 0.49231 0.98463 0.0
O207 O 0.4728 0.45292 0.99664 0.0
C208 C 0.56682 0.51794 0.98678 0.0
O209 O 0.51078 0.46555 0.99137 0.0
C210 C 0.51531 0.49494 0.03469 0.0
C211 C 0.51406 0.54001 0.01689 0.0
O212 O 0.55838 0.50092 0.99739 0.0
O213 O 0.55355 0.52687 0.98485 0.0
O214 O 0.53603 0.50189 0.03079 0.0
O215 O 0.50413 0.4929 0.02022 0.0
O216 O 0.52919 0.53697 0.00823 0.0
O217 O 0.49347 0.52229 0.01934 0.0
C218 C 0.43355 0.46853 0.01456 0.0
O219 O 0.44399 0.48798 0.00667 0.0
O220 O 0.44674 0.45959 0.01667 0.0
C221 C 0.49284 0.50334 0.97396 0.0
Tb222 Tb 0.19298 0.35834 0.33435 0.0
C223 C 0.18068 0.30921 0.34718 0.0
Tb224 Tb 0.14327 0.32429 0.34137 0.0
O225 O 0.20371 0.36487 0.36337 0.0
O226 O 0.17105 0.35594 0.35401 0.0
O227 O 0.19361 0.32555 0.3366 0.0
C228 C 0.10587 0.29774 0.35743 0.0
O229 O 0.1616 0.30743 0.35246 0.0
C230 C 0.15201 0.32354 0.30773 0.0
C231 C 0.15558 0.37407 0.32831 0.0
O232 O 0.11235 0.29032 0.34369 0.0
O233 O 0.12031 0.32005 0.36197 0.0
O234 O 0.13204 0.31804 0.31262 0.0
O235 O 0.16516 0.3266 0.32144 0.0
O236 O 0.14012 0.35495 0.33543 0.0
O237 O 0.17651 0.37831 0.32621 0.0
C238 C 0.2308 0.38581 0.31883 0.0
O239 O 0.21024 0.37799 0.31182 0.0
O240 O 0.23013 0.37843 0.3347 0.0
C241 C 0.18363 0.35908 0.368 0.0
Tb242 Tb 0.65196 0.84438 0.33564 0.0
C243 C 0.70061 0.88022 0.35202 0.0
Tb244 Tb 0.68404 0.82585 0.34517 0.0
O245 O 0.64968 0.85283 0.36392 0.0
O246 O 0.65596 0.82544 0.35651 0.0
O247 O 0.6848 0.87717 0.33926 0.0
C248 C 0.71456 0.81563 0.35933 0.0
O249 O 0.70103 0.86189 0.35855 0.0
C250 C 0.67967 0.83199 0.31102 0.0
C251 C 0.6343 0.78853 0.33013 0.0
O252 O 0.71869 0.83207 0.34863 0.0
O253 O 0.69325 0.80507 0.36232 0.0
O254 O 0.68437 0.81631 0.31668 0.0
O255 O 0.67984 0.84476 0.32436 0.0
O256 O 0.65307 0.79169 0.33916 0.0
O257 O 0.63091 0.80642 0.32672 0.0
C258 C 0.62384 0.85538 0.31778 0.0
O259 O 0.62929 0.83994 0.31197 0.0
O260 O 0.63413 0.8646 0.33372 0.0
C261 C 0.65522 0.83782 0.36973 0.0
Tb262 Tb 0.15499 0.83743 0.3473 0.0
C263 C 0.16451 0.79474 0.33819 0.0
Tb264 Tb 0.20423 0.84854 0.34261 0.0
O265 O 0.15116 0.84674 0.31976 0.0
O266 O 0.17338 0.83482 0.32659 0.0
O267 O 0.15017 0.80136 0.34408 0.0
C268 C 0.24221 0.86363 0.32633 0.0
O269 O 0.18557 0.81032 0.33472 0.0
C270 C 0.19161 0.84113 0.37512 0.0
C271 C 0.19444 0.89118 0.35187 0.0
O272 O 0.23665 0.84991 0.33941 0.0
O273 O 0.22659 0.86903 0.32267 0.0
O274 O 0.20804 0.8383 0.36967 0.0
O275 O 0.18586 0.85076 0.36346 0.0
O276 O 0.20889 0.8846 0.34615 0.0
O277 O 0.17336 0.87555 0.3552 0.0
C278 C 0.11613 0.8227 0.36231 0.0
O279 O 0.12206 0.83547 0.34868 0.0
O280 O 0.13193 0.81806 0.36732 0.0
C281 C 0.16755 0.84374 0.31447 0.0
Tb282 Tb 0.85562 0.67585 0.66172 0.0
C283 C 0.84563 0.62822 0.67776 0.0
Tb284 Tb 0.80577 0.63883 0.66681 0.0
O285 O 0.86398 0.68449 0.69092 0.0
O286 O 0.83108 0.67212 0.67952 0.0
O287 O 0.86097 0.6477 0.67095 0.0
C288 C 0.76817 0.61071 0.68215 0.0
O289 O 0.82384 0.62186 0.67782 0.0
C290 C 0.8176 0.63651 0.63424 0.0
C291 C 0.81595 0.6855 0.65036 0.0
O292 O 0.76868 0.61903 0.66666 0.0
O293 O 0.78874 0.61811 0.6889 0.0
O294 O 0.79665 0.62794 0.6379 0.0
O295 O 0.82999 0.64259 0.64889 0.0
O296 O 0.8034 0.67023 0.66176 0.0
O297 O 0.83562 0.68779 0.6462 0.0
C298 C 0.89475 0.70521 0.64864 0.0
O299 O 0.88267 0.71183 0.65756 0.0
O300 O 0.88494 0.68221 0.64732 0.0
C301 C 0.84306 0.67703 0.69423 0.0
Tb302 Tb 0.31784 0.18157 0.66289 0.0
C303 C 0.36665 0.22053 0.67915 0.0
Tb304 Tb 0.35247 0.16575 0.67245 0.0
O305 O 0.31414 0.18675 0.69155 0.0
O306 O 0.32243 0.16151 0.68235 0.0
O307 O 0.34841 0.2164 0.66867 0.0
C308 C 0.3815 0.15637 0.69057 0.0
O309 O 0.37067 0.20325 0.68328 0.0
C310 C 0.35036 0.17564 0.63912 0.0
C311 C 0.30339 0.1267 0.65644 0.0
O312 O 0.37199 0.16759 0.69736 0.0
O313 O 0.37482 0.15054 0.67353 0.0
O314 O 0.35717 0.16119 0.64399 0.0
O315 O 0.34789 0.18571 0.65295 0.0
O316 O 0.32186 0.13096 0.66667 0.0
O317 O 0.29922 0.14392 0.65241 0.0
C318 C 0.28861 0.19111 0.64521 0.0
O319 O 0.29354 0.19435 0.66254 0.0
O320 O 0.30007 0.18244 0.63786 0.0
C321 C 0.3203 0.17172 0.69625 0.0
Tb322 Tb 0.80503 0.15602 0.67393 0.0
C323 C 0.81563 0.11363 0.66648 0.0
Tb324 Tb 0.85421 0.16761 0.67024 0.0
O325 O 0.80247 0.16687 0.64688 0.0
O326 O 0.82379 0.15361 0.65334 0.0
O327 O 0.80088 0.12024 0.67131 0.0
C328 C 0.8931 0.18259 0.65509 0.0
O329 O 0.83699 0.12919 0.66373 0.0
C330 C 0.84062 0.15903 0.70251 0.0
C331 C 0.84384 0.20971 0.67926 0.0
O332 O 0.89022 0.17742 0.67168 0.0
O333 O 0.87424 0.17943 0.64725 0.0
O334 O 0.85668 0.15575 0.69675 0.0
O335 O 0.83522 0.16934 0.6911 0.0
O336 O 0.85831 0.20344 0.67313 0.0
O337 O 0.82297 0.19382 0.68281 0.0
C338 C 0.76439 0.14036 0.68617 0.0
O339 O 0.77192 0.15401 0.67319 0.0
O340 O 0.7797 0.1355 0.69219 0.0
C341 C 0.81844 0.16331 0.64148 0.0
H342 H 0.28532 0.84043 0.1286 0.0
H343 H 0.3214 0.86647 0.11629 0.0
H344 H 0.28535 0.85724 0.06456 0.0
H345 H 0.24916 0.83154 0.07675 0.0
H346 H 0.33548 0.85086 0.07939 0.0
H347 H 0.29945 0.90341 0.06143 0.0
H348 H 0.27777 0.92194 0.07251 0.0
H349 H 0.32004 0.94625 0.12264 0.0
H350 H 0.34177 0.92766 0.11183 0.0
H351 H 0.40924 0.91694 0.01573 0.0
H352 H 0.3763 0.89383 0.03239 0.0
H353 H 0.40332 0.9513 0.07482 0.0
H354 H 0.43612 0.97459 0.05803 0.0
H355 H 0.36 0.93459 0.06885 0.0
H356 H 0.40654 0.90031 0.07796 0.0
H357 H 0.42909 0.88131 0.07095 0.0
H358 H 0.36983 0.82107 0.04309 0.0
H359 H 0.34692 0.83976 0.04981 0.0
C360 C 0.28504 0.84414 0.11465 0.0
C361 C 0.26437 0.83391 0.10364 0.0
C362 C 0.30566 0.85888 0.10765 0.0
C363 C 0.3059 0.86373 0.08958 0.0
C364 C 0.28539 0.85369 0.07857 0.0
C365 C 0.26478 0.83891 0.08552 0.0
C366 C 0.32761 0.87895 0.08202 0.0
C367 C 0.34089 0.86912 0.07691 0.0
C368 C 0.33492 0.9029 0.07952 0.0
C369 C 0.32216 0.91428 0.08585 0.0
C370 C 0.30408 0.91276 0.07479 0.0
C371 C 0.29178 0.92321 0.08103 0.0
C372 C 0.29754 0.93528 0.09826 0.0
C373 C 0.3156 0.93691 0.1093 0.0
C374 C 0.32789 0.92642 0.10313 0.0
C375 C 0.40812 0.92459 0.02862 0.0
C376 C 0.42516 0.94748 0.03563 0.0
C377 C 0.38938 0.91134 0.03819 0.0
C378 C 0.38753 0.92061 0.05506 0.0
C379 C 0.40446 0.94366 0.06194 0.0
C380 C 0.42316 0.95697 0.05233 0.0
C381 C 0.36779 0.90632 0.06535 0.0
C382 C 0.35484 0.91634 0.07117 0.0
C383 C 0.36108 0.88257 0.06876 0.0
C384 C 0.37498 0.87149 0.0644 0.0
C385 C 0.3983 0.88306 0.07028 0.0
C386 C 0.41117 0.87234 0.06636 0.0
C387 C 0.40088 0.84999 0.0566 0.0
C388 C 0.37775 0.83836 0.05068 0.0
C389 C 0.36482 0.849 0.05457 0.0
H390 H 0.41077 0.84161 0.05365 0.0
H391 H 0.28801 0.94337 0.10307 0.0
H392 H 0.21549 0.45805 0.0919 0.0
H393 H 0.19048 0.47116 0.07874 0.0
H394 H 0.13225 0.40962 0.09563 0.0
H395 H 0.15701 0.39565 0.10787 0.0
H396 H 0.12277 0.41591 0.06307 0.0
H397 H 0.155 0.46661 0.11789 0.0
H398 H 0.18545 0.49518 0.14064 0.0
H399 H 0.21201 0.54652 0.1018 0.0
H400 H 0.18189 0.51813 0.07873 0.0
H401 H 0.04499 0.458 0.0511 0.0
H402 H 0.0706 0.4464 0.06573 0.0
H403 H 0.12649 0.49945 0.03972 0.0
H404 H 0.10085 0.51097 0.02487 0.0
H405 H 0.13675 0.49778 0.0772 0.0
H406 H 0.10328 0.44511 0.02242 0.0
H407 H 0.07127 0.41615 0.00093 0.0
H408 H 0.04526 0.36785 0.04188 0.0
H409 H 0.07697 0.3967 0.06369 0.0
C410 C 0.19734 0.44714 0.09265 0.0
C411 C 0.1883 0.42579 0.10099 0.0
C412 C 0.18307 0.45484 0.08533 0.0
C413 C 0.15949 0.44159 0.08644 0.0
C414 C 0.1504 0.42022 0.09468 0.0
C415 C 0.16462 0.41238 0.10184 0.0
C416 C 0.14422 0.44965 0.07863 0.0
C417 C 0.12569 0.43371 0.06639 0.0
C418 C 0.14817 0.47302 0.0827 0.0
C419 C 0.16632 0.49014 0.09653 0.0
C420 C 0.16745 0.48392 0.11415 0.0
C421 C 0.18463 0.5001 0.12712 0.0
C422 C 0.20069 0.52263 0.12266 0.0
C423 C 0.19958 0.52905 0.10523 0.0
C424 C 0.18244 0.51293 0.09221 0.0
C425 C 0.06275 0.4672 0.04852 0.0
C426 C 0.07097 0.48521 0.03675 0.0
C427 C 0.07732 0.46056 0.05687 0.0
C428 C 0.10035 0.47193 0.05364 0.0
C429 C 0.10874 0.49044 0.04232 0.0
C430 C 0.09411 0.49692 0.03381 0.0
C431 C 0.11551 0.46404 0.06173 0.0
C432 C 0.13394 0.48 0.07397 0.0
C433 C 0.11132 0.44061 0.05787 0.0
C434 C 0.09237 0.42316 0.04473 0.0
C435 C 0.09064 0.4284 0.02688 0.0
C436 C 0.07256 0.41198 0.01463 0.0
C437 C 0.0562 0.39019 0.02005 0.0
C438 C 0.05793 0.38474 0.03771 0.0
C439 C 0.07596 0.40111 0.05001 0.0
H440 H 0.04222 0.37751 0.01055 0.0
H441 H 0.21398 0.53513 0.13271 0.0
H442 H 0.60011 0.75015 0.09938 0.0
H443 H 0.58994 0.71115 0.0846 0.0
H444 H 0.52522 0.70141 0.06384 0.0
H445 H 0.53519 0.74028 0.07876 0.0
H446 H 0.52126 0.66218 0.0793 0.0
H447 H 0.56567 0.71435 0.03619 0.0
H448 H 0.59938 0.74847 0.02596 0.0
H449 H 0.64055 0.71854 0.04211 0.0
H450 H 0.60713 0.68439 0.05269 0.0
H451 H 0.48642 0.55856 0.02096 0.0
H452 H 0.49663 0.59802 0.03434 0.0
H453 H 0.56617 0.61462 0.04534 0.0
H454 H 0.55619 0.5756 0.03076 0.0
H455 H 0.56753 0.65101 0.03485 0.0
H456 H 0.5247 0.60159 0.08134 0.0
H457 H 0.49162 0.56874 0.09364 0.0
H458 H 0.44842 0.59367 0.07211 0.0
H459 H 0.48122 0.62681 0.05998 0.0
C460 C 0.58371 0.73967 0.09168 0.0
C461 C 0.56845 0.74826 0.0902 0.0
C462 C 0.57799 0.71749 0.08315 0.0
C463 C 0.55689 0.70348 0.07302 0.0
C464 C 0.54161 0.71199 0.07155 0.0
C465 C 0.54739 0.73424 0.07997 0.0
C466 C 0.55053 0.67966 0.06435 0.0
C467 C 0.53122 0.65971 0.06942 0.0
C468 C 0.56383 0.67645 0.05181 0.0
C469 C 0.58393 0.69693 0.04539 0.0
C470 C 0.58195 0.71514 0.0377 0.0
C471 C 0.60099 0.73447 0.03181 0.0
C472 C 0.6221 0.73571 0.03342 0.0
C473 C 0.62419 0.71758 0.04089 0.0
C474 C 0.6052 0.69822 0.04682 0.0
C475 C 0.50389 0.57067 0.02623 0.0
C476 C 0.52052 0.56406 0.02484 0.0
C477 C 0.50969 0.59317 0.0341 0.0
C478 C 0.53208 0.60925 0.04139 0.0
C479 C 0.54875 0.60263 0.03988 0.0
C480 C 0.54307 0.58033 0.03154 0.0
C481 C 0.53831 0.63323 0.04995 0.0
C482 C 0.55759 0.65332 0.04481 0.0
C483 C 0.52508 0.63658 0.06258 0.0
C484 C 0.50531 0.61642 0.06956 0.0
C485 C 0.50809 0.59987 0.0791 0.0
C486 C 0.48944 0.58127 0.08607 0.0
C487 C 0.46794 0.57898 0.08348 0.0
C488 C 0.46506 0.59541 0.07405 0.0
C489 C 0.48368 0.61416 0.06721 0.0
H490 H 0.45354 0.56455 0.08886 0.0
H491 H 0.63683 0.75068 0.02885 0.0
H492 H 0.81166 0.25778 0.92806 0.0
H493 H 0.83912 0.29777 0.94203 0.0
H494 H 0.89394 0.2839 0.9344 0.0
H495 H 0.86651 0.24387 0.92025 0.0
H496 H 0.89582 0.30681 0.96963 0.0
H497 H 0.88723 0.31467 0.90626 0.0
H498 H 0.86541 0.30959 0.8773 0.0
H499 H 0.83813 0.35072 0.90062 0.0
H500 H 0.85951 0.35572 0.92983 0.0
H501 H 0.98746 0.42544 0.98589 0.0
H502 H 0.96089 0.38467 0.9732 0.0
H503 H 0.90727 0.40169 0.96765 0.0
H504 H 0.93402 0.44269 0.97979 0.0
H505 H 0.90484 0.37643 0.93901 0.0
H506 H 0.91202 0.36866 0.00216 0.0
H507 H 0.93228 0.37333 0.03182 0.0
H508 H 0.96023 0.3319 0.01029 0.0
H509 H 0.94036 0.32724 0.98042 0.0
C510 C 0.82954 0.26318 0.92957 0.0
C511 C 0.83702 0.24781 0.92308 0.0
C512 C 0.84518 0.28601 0.93745 0.0
C513 C 0.86851 0.29375 0.93913 0.0
C514 C 0.87598 0.27819 0.9332 0.0
C515 C 0.86036 0.25545 0.92507 0.0
C516 C 0.88515 0.31841 0.94652 0.0
C517 C 0.89806 0.32208 0.96287 0.0
C518 C 0.88754 0.33821 0.93786 0.0
C519 C 0.87478 0.33535 0.92028 0.0
C520 C 0.87641 0.32244 0.90526 0.0
C521 C 0.86416 0.31961 0.88879 0.0
C522 C 0.85035 0.32977 0.88713 0.0
C523 C 0.84881 0.34283 0.90193 0.0
C524 C 0.861 0.34568 0.91845 0.0
C525 C 0.96998 0.42044 0.98202 0.0
C526 C 0.96278 0.43721 0.98384 0.0
C527 C 0.95477 0.3971 0.97483 0.0
C528 C 0.93193 0.38994 0.96974 0.0
C529 C 0.92478 0.40675 0.97149 0.0
C530 C 0.94007 0.43018 0.97842 0.0
C531 C 0.91558 0.36505 0.96232 0.0
C532 C 0.90268 0.36126 0.94588 0.0
C533 C 0.91301 0.34514 0.97104 0.0
C534 C 0.92487 0.34779 0.98901 0.0
C535 C 0.92261 0.36068 0.00372 0.0
C536 C 0.93401 0.3633 0.02057 0.0
C537 C 0.94758 0.35297 0.02293 0.0
C538 C 0.94973 0.33992 0.00844 0.0
C539 C 0.93839 0.33726 0.99155 0.0
H540 H 0.9564 0.35503 0.03599 0.0
H541 H 0.84088 0.32757 0.87437 0.0
H542 H 0.73439 0.53054 0.90867 0.0
H543 H 0.70167 0.52363 0.92465 0.0
H544 H 0.70483 0.58631 0.90513 0.0
H545 H 0.73845 0.59412 0.88987 0.0
H546 H 0.69735 0.58498 0.93922 0.0
H547 H 0.66386 0.52942 0.88721 0.0
H548 H 0.6584 0.49734 0.86478 0.0
H549 H 0.64243 0.44952 0.90615 0.0
H550 H 0.64811 0.48142 0.92889 0.0
H551 H 0.58623 0.55341 0.96465 0.0
H552 H 0.61894 0.56304 0.94734 0.0
H553 H 0.62557 0.50678 0.9696 0.0
H554 H 0.59295 0.49711 0.9869 0.0
H555 H 0.62692 0.50589 0.93261 0.0
H556 H 0.66219 0.56364 0.98466 0.0
H557 H 0.66663 0.59623 0.00607 0.0
H558 H 0.67764 0.6405 0.96275 0.0
H559 H 0.67297 0.60804 0.94104 0.0
C560 C 0.72831 0.54303 0.90789 0.0
C561 C 0.73912 0.56291 0.89796 0.0
C562 C 0.70937 0.53887 0.91687 0.0
C563 C 0.70051 0.55423 0.91587 0.0
C564 C 0.71127 0.57414 0.90602 0.0
C565 C 0.73037 0.57844 0.89715 0.0
C566 C 0.68031 0.54966 0.92542 0.0
C567 C 0.68183 0.5678 0.93754 0.0
C568 C 0.66009 0.52716 0.92342 0.0
C569 C 0.65661 0.50789 0.90978 0.0
C570 C 0.65936 0.51212 0.89155 0.0
C571 C 0.65619 0.49396 0.87878 0.0
C572 C 0.65012 0.47142 0.88404 0.0
C573 C 0.64715 0.46699 0.90209 0.0
C574 C 0.65032 0.4851 0.91493 0.0
C575 C 0.59481 0.54325 0.96592 0.0
C576 C 0.58719 0.52461 0.97713 0.0
C577 C 0.61345 0.54876 0.95606 0.0
C578 C 0.62471 0.53568 0.95725 0.0
C579 C 0.61711 0.51708 0.96849 0.0
C580 C 0.59857 0.51165 0.97841 0.0
C581 C 0.64417 0.54106 0.94655 0.0
C582 C 0.64245 0.52308 0.93419 0.0
C583 C 0.66404 0.56377 0.94815 0.0
C584 C 0.66702 0.58334 0.96121 0.0
C585 C 0.66539 0.58026 0.97968 0.0
C586 C 0.66798 0.59872 0.99187 0.0
C587 C 0.67236 0.6204 0.98576 0.0
C588 C 0.67422 0.62369 0.96746 0.0
C589 C 0.67163 0.60528 0.95521 0.0
H590 H 0.67435 0.63466 0.99522 0.0
H591 H 0.64768 0.45738 0.87413 0.0
H592 H 0.44803 0.15915 0.8909 0.0
H593 H 0.45835 0.13305 0.90605 0.0
H594 H 0.42495 0.13812 0.95225 0.0
H595 H 0.41514 0.1648 0.93727 0.0
H596 H 0.46423 0.1434 0.96306 0.0
H597 H 0.40188 0.08681 0.9217 0.0
H598 H 0.37978 0.06972 0.89214 0.0
H599 H 0.43474 0.06347 0.87218 0.0
H600 H 0.45731 0.08083 0.90156 0.0
H601 H 0.46673 0.04798 0.00447 0.0
H602 H 0.45393 0.07258 0.98972 0.0
H603 H 0.49412 0.07742 0.94567 0.0
H604 H 0.50672 0.05267 0.96033 0.0
H605 H 0.45018 0.06614 0.9343 0.0
H606 H 0.51259 0.12381 0.97576 0.0
H607 H 0.5342 0.14052 0.00553 0.0
H608 H 0.4778 0.14381 0.02559 0.0
H609 H 0.45571 0.12679 0.99599 0.0
C610 C 0.44264 0.15442 0.90419 0.0
C611 C 0.43072 0.1639 0.91289 0.0
C612 C 0.44851 0.13947 0.91284 0.0
C613 C 0.44217 0.13332 0.93022 0.0
C614 C 0.43004 0.1426 0.93886 0.0
C615 C 0.42442 0.15781 0.93029 0.0
C616 C 0.44897 0.11797 0.93965 0.0
C617 C 0.46078 0.12631 0.95688 0.0
C618 C 0.44495 0.0959 0.93145 0.0
C619 C 0.43136 0.08532 0.91379 0.0
C620 C 0.40932 0.08195 0.91097 0.0
C621 C 0.3967 0.07219 0.89425 0.0
C622 C 0.40587 0.06557 0.88028 0.0
C623 C 0.42766 0.06863 0.88301 0.0
C624 C 0.44037 0.0784 0.8997 0.0
C625 C 0.47291 0.05442 0.9917 0.0
C626 C 0.48802 0.04878 0.98362 0.0
C627 C 0.46564 0.06849 0.98331 0.0
C628 C 0.47323 0.07696 0.96668 0.0
C629 C 0.48815 0.07115 0.95854 0.0
C630 C 0.49555 0.05728 0.967 0.0
C631 C 0.4654 0.09164 0.95761 0.0
C632 C 0.45344 0.08317 0.94047 0.0
C633 C 0.46914 0.1135 0.96592 0.0
C634 C 0.48241 0.12378 0.98371 0.0
C635 C 0.50472 0.1279 0.98656 0.0
C636 C 0.51707 0.13747 0.0034 0.0
C637 C 0.50736 0.14316 0.01746 0.0
C638 C 0.48529 0.13935 0.0147 0.0
C639 C 0.47285 0.12976 0.99789 0.0
H640 H 0.51695 0.15057 0.03048 0.0
H641 H 0.39607 0.05802 0.86734 0.0
H642 H 0.75936 0.13847 0.90863 0.0
H643 H 0.72309 0.11296 0.92069 0.0
H644 H 0.72293 0.17497 0.94392 0.0
H645 H 0.75857 0.20068 0.93127 0.0
H646 H 0.71346 0.1384 0.96788 0.0
H647 H 0.69021 0.14827 0.90802 0.0
H648 H 0.69011 0.14644 0.87493 0.0
H649 H 0.66498 0.07124 0.87241 0.0
H650 H 0.66527 0.07269 0.90553 0.0
H651 H 0.60156 0.09007 0.99258 0.0
H652 H 0.63796 0.11341 0.98009 0.0
H653 H 0.62629 0.05072 0.94759 0.0
H654 H 0.58939 0.02757 0.95955 0.0
H655 H 0.64261 0.08621 0.92824 0.0
H656 H 0.6646 0.07436 0.98672 0.0
H657 H 0.66583 0.07443 0.0198 0.0
H658 H 0.69457 0.15029 0.02524 0.0
H659 H 0.69322 0.15064 0.99217 0.0
C660 C 0.75151 0.14674 0.9161 0.0
C661 C 0.762 0.17171 0.91896 0.0
C662 C 0.73085 0.13211 0.92307 0.0
C663 C 0.72039 0.14213 0.93316 0.0
C664 C 0.73085 0.16694 0.93624 0.0
C665 C 0.75132 0.18159 0.92908 0.0
C666 C 0.69847 0.12678 0.94051 0.0
C667 C 0.69788 0.12715 0.95926 0.0
C668 C 0.67841 0.11156 0.92919 0.0
C669 C 0.67801 0.11064 0.90927 0.0
C670 C 0.68486 0.13138 0.90042 0.0
C671 C 0.68473 0.13041 0.88166 0.0
C672 C 0.67762 0.10875 0.87157 0.0
C673 C 0.67053 0.08801 0.88024 0.0
C674 C 0.67066 0.0889 0.899 0.0
C675 C 0.60681 0.0813 0.98279 0.0
C676 C 0.59277 0.05705 0.97705 0.0
C677 C 0.62769 0.09459 0.97575 0.0
C678 C 0.63514 0.08374 0.96315 0.0
C679 C 0.62099 0.05948 0.95735 0.0
C680 C 0.59996 0.04625 0.96422 0.0
C681 C 0.65743 0.09786 0.95574 0.0
C682 C 0.65814 0.0973 0.93695 0.0
C683 C 0.67773 0.1126 0.96705 0.0
C684 C 0.67862 0.11249 0.98695 0.0
C685 C 0.67103 0.09104 0.99496 0.0
C686 C 0.67177 0.09101 0.01371 0.0
C687 C 0.68022 0.11235 0.02461 0.0
C688 C 0.688 0.13377 0.01678 0.0
C689 C 0.68728 0.1339 0.99803 0.0
H690 H 0.68078 0.11229 0.03912 0.0
H691 H 0.67755 0.10804 0.85705 0.0
H692 H 0.84172 0.59249 0.88809 0.0
H693 H 0.8699 0.58484 0.90317 0.0
H694 H 0.81633 0.52372 0.92471 0.0
H695 H 0.78795 0.53066 0.90918 0.0
H696 H 0.85219 0.55439 0.95053 0.0
H697 H 0.8412 0.51485 0.89138 0.0
H698 H 0.83968 0.5119 0.85821 0.0
H699 H 0.90988 0.56662 0.86104 0.0
H700 H 0.91173 0.57017 0.89424 0.0
H701 H 0.91527 0.50331 0.98468 0.0
H702 H 0.8875 0.5107 0.96856 0.0
H703 H 0.9409 0.56412 0.9407 0.0
H704 H 0.96858 0.55609 0.95636 0.0
H705 H 0.90537 0.53813 0.91797 0.0
H706 H 0.91719 0.57865 0.97639 0.0
H707 H 0.91958 0.58317 0.00959 0.0
H708 H 0.84929 0.52913 0.00834 0.0
H709 H 0.84656 0.52406 0.97514 0.0
C710 C 0.83586 0.57718 0.89578 0.0
C711 C 0.8125 0.56219 0.89739 0.0
C712 C 0.85202 0.57292 0.90447 0.0
C713 C 0.84517 0.55368 0.915 0.0
C714 C 0.82195 0.53872 0.91669 0.0
C715 C 0.80576 0.54282 0.90787 0.0
C716 C 0.86226 0.54939 0.92455 0.0
C717 C 0.86365 0.55053 0.94343 0.0
C718 C 0.87762 0.54508 0.91527 0.0
C719 C 0.87653 0.54296 0.8953 0.0
C720 C 0.85626 0.52642 0.88493 0.0
C721 C 0.85534 0.52461 0.86612 0.0
C722 C 0.87465 0.53911 0.85752 0.0
C723 C 0.89493 0.55543 0.86772 0.0
C724 C 0.89592 0.55734 0.88653 0.0
C725 C 0.92106 0.51668 0.97516 0.0
C726 C 0.94404 0.52927 0.97183 0.0
C727 C 0.90522 0.521 0.96602 0.0
C728 C 0.91216 0.53832 0.95366 0.0
C729 C 0.93515 0.55077 0.95024 0.0
C730 C 0.95095 0.54624 0.95923 0.0
C731 C 0.89535 0.54309 0.94404 0.0
C732 C 0.89399 0.54204 0.92513 0.0
C733 C 0.88017 0.54777 0.95331 0.0
C734 C 0.88173 0.55083 0.97328 0.0
C735 C 0.90229 0.56761 0.9832 0.0
C736 C 0.90369 0.57029 0.00202 0.0
C737 C 0.88461 0.55641 0.01107 0.0
C738 C 0.86406 0.53985 0.00132 0.0
C739 C 0.86257 0.53708 0.9825 0.0
H740 H 0.88574 0.55851 0.02564 0.0
H741 H 0.87391 0.53767 0.84296 0.0
H742 H 0.45774 0.26439 0.89688 0.0
H743 H 0.46736 0.30223 0.91369 0.0
H744 H 0.42085 0.2639 0.9526 0.0
H745 H 0.41164 0.22597 0.93608 0.0
H746 H 0.41844 0.30519 0.93585 0.0
H747 H 0.46833 0.28369 0.96789 0.0
H748 H 0.49698 0.27106 0.96981 0.0
H749 H 0.54383 0.33334 0.94551 0.0
H750 H 0.5153 0.34615 0.94318 0.0
H751 H 0.45073 0.4069 0.99682 0.0
H752 H 0.43967 0.36676 0.98406 0.0
H753 H 0.50085 0.39535 0.95659 0.0
H754 H 0.51238 0.43522 0.96981 0.0
H755 H 0.49442 0.35691 0.96909 0.0
H756 H 0.44673 0.37835 0.93499 0.0
H757 H 0.419 0.39186 0.93024 0.0
H758 H 0.36922 0.33158 0.95478 0.0
H759 H 0.39678 0.31787 0.95989 0.0
C760 C 0.44963 0.26412 0.90903 0.0
C761 C 0.43402 0.24241 0.91527 0.0
C762 C 0.45512 0.28564 0.9186 0.0
C763 C 0.44479 0.28573 0.93433 0.0
C764 C 0.42896 0.26409 0.94046 0.0
C765 C 0.42381 0.24254 0.9311 0.0
C766 C 0.45067 0.30856 0.94438 0.0
C767 C 0.43488 0.3164 0.9434 0.0
C768 C 0.47237 0.32332 0.95369 0.0
C769 C 0.48959 0.31573 0.95519 0.0
C770 C 0.48466 0.29457 0.96279 0.0
C771 C 0.50089 0.2874 0.96399 0.0
C772 C 0.52219 0.30136 0.95774 0.0
C773 C 0.52731 0.32254 0.95032 0.0
C774 C 0.51112 0.32976 0.94907 0.0
C775 C 0.46184 0.40459 0.9881 0.0
C776 C 0.48241 0.42424 0.98432 0.0
C777 C 0.45545 0.38165 0.98074 0.0
C778 C 0.46925 0.37801 0.96912 0.0
C779 C 0.48992 0.39763 0.96554 0.0
C780 C 0.49649 0.42046 0.97311 0.0
C781 C 0.46224 0.35389 0.96055 0.0
C782 C 0.47785 0.34575 0.96172 0.0
C783 C 0.44051 0.33906 0.95109 0.0
C784 C 0.4239 0.34723 0.94801 0.0
C785 C 0.42993 0.36808 0.9395 0.0
C786 C 0.41423 0.37575 0.93672 0.0
C787 C 0.39239 0.36263 0.94225 0.0
C788 C 0.38617 0.34175 0.95053 0.0
C789 C 0.40181 0.33401 0.95337 0.0
H790 H 0.38026 0.3686 0.94009 0.0
H791 H 0.53474 0.29579 0.95869 0.0
H792 H 0.1601 0.76625 0.10107 0.0
H793 H 0.13089 0.72922 0.08413 0.0
H794 H 0.18155 0.70962 0.07413 0.0
H795 H 0.21092 0.74708 0.09054 0.0
H796 H 0.15454 0.69825 0.0452 0.0
H797 H 0.14306 0.6858 0.10733 0.0
H798 H 0.13663 0.69447 0.13834 0.0
H799 H 0.07357 0.68912 0.11897 0.0
H800 H 0.07978 0.68073 0.08779 0.0
H801 H 0.08269 0.57265 0.02936 0.0
H802 H 0.10988 0.61269 0.04304 0.0
H803 H 0.05857 0.63285 0.03692 0.0
H804 H 0.03116 0.59268 0.02292 0.0
H805 H 0.08408 0.64455 0.07281 0.0
H806 H 0.09608 0.65395 0.01013 0.0
H807 H 0.10331 0.64301 0.98006 0.0
H808 H 0.16679 0.65154 0.00205 0.0
H809 H 0.15977 0.66219 0.03232 0.0
C810 C 0.16495 0.754 0.09523 0.0
C811 C 0.18772 0.75943 0.09717 0.0
C812 C 0.14825 0.73282 0.08561 0.0
C813 C 0.15389 0.71635 0.07811 0.0
C814 C 0.17674 0.72199 0.07978 0.0
C815 C 0.19351 0.74337 0.08916 0.0
C816 C 0.13601 0.69321 0.06864 0.0
C817 C 0.13926 0.68646 0.05135 0.0
C818 C 0.11581 0.67789 0.07647 0.0
C819 C 0.11201 0.6829 0.09521 0.0
C820 C 0.12791 0.68666 0.10966 0.0
C821 C 0.12429 0.69149 0.12727 0.0
C822 C 0.10473 0.69242 0.13062 0.0
C823 C 0.08873 0.68844 0.11636 0.0
C824 C 0.09228 0.68363 0.09872 0.0
C825 C 0.07716 0.58559 0.03086 0.0
C826 C 0.05478 0.57953 0.02505 0.0
C827 C 0.09275 0.60848 0.03862 0.0
C828 C 0.08622 0.62569 0.0409 0.0
C829 C 0.06389 0.61975 0.03521 0.0
C830 C 0.04833 0.59689 0.02715 0.0
C831 C 0.1028 0.64973 0.04955 0.0
C832 C 0.0993 0.65655 0.06668 0.0
C833 C 0.12295 0.6649 0.04173 0.0
C834 C 0.12729 0.65867 0.02352 0.0
C835 C 0.11149 0.6533 0.00858 0.0
C836 C 0.11557 0.64719 0.9915 0.0
C837 C 0.13547 0.64653 0.98916 0.0
C838 C 0.15137 0.65204 0.00389 0.0
C839 C 0.14736 0.65814 0.02101 0.0
H840 H 0.1386 0.64179 0.97592 0.0
H841 H 0.10196 0.69615 0.14426 0.0
H842 H 0.26665 0.45252 0.09194 0.0
H843 H 0.29834 0.45801 0.075 0.0
H844 H 0.28475 0.38763 0.08495 0.0
H845 H 0.25273 0.38188 0.10184 0.0
H846 H 0.33062 0.42087 0.08926 0.0
H847 H 0.26792 0.39604 0.04479 0.0
H848 H 0.23541 0.39701 0.02952 0.0
H849 H 0.2799 0.46847 0.01692 0.0
H850 H 0.31264 0.46806 0.03236 0.0
H851 H 0.40769 0.42541 0.02729 0.0
H852 H 0.37177 0.41143 0.04098 0.0
H853 H 0.37367 0.4773 0.0318 0.0
H854 H 0.40899 0.49083 0.01745 0.0
H855 H 0.3315 0.44153 0.02615 0.0
H856 H 0.39399 0.46691 0.07173 0.0
H857 H 0.42677 0.46529 0.08546 0.0
H858 H 0.38282 0.39306 0.09665 0.0
H859 H 0.3498 0.39387 0.08216 0.0
C860 C 0.2703 0.43814 0.09045 0.0
C861 C 0.25702 0.41666 0.09806 0.0
C862 C 0.28845 0.44133 0.0808 0.0
C863 C 0.29365 0.42308 0.07848 0.0
C864 C 0.28095 0.4019 0.08655 0.0
C865 C 0.26272 0.39868 0.09623 0.0
C866 C 0.31218 0.42616 0.06737 0.0
C867 C 0.33067 0.425 0.07536 0.0
C868 C 0.31233 0.43185 0.04932 0.0
C869 C 0.29271 0.43208 0.03986 0.0
C870 C 0.27075 0.41202 0.03887 0.0
C871 C 0.25228 0.41246 0.03017 0.0
C872 C 0.25558 0.43281 0.02229 0.0
C873 C 0.27737 0.45273 0.02304 0.0
C874 C 0.29589 0.45239 0.03175 0.0
C875 C 0.40023 0.43672 0.02801 0.0
C876 C 0.41112 0.45925 0.02148 0.0
C877 C 0.37977 0.42877 0.03586 0.0
C878 C 0.37024 0.44351 0.03774 0.0
C879 C 0.3807 0.46563 0.03054 0.0
C880 C 0.40093 0.4734 0.02242 0.0
C881 C 0.3502 0.4367 0.04811 0.0
C882 C 0.33139 0.43718 0.03998 0.0
C883 C 0.34982 0.43045 0.06605 0.0
C884 C 0.36945 0.43034 0.0756 0.0
C885 C 0.39131 0.4506 0.07696 0.0
C886 C 0.40997 0.44977 0.08478 0.0
C887 C 0.40693 0.42903 0.09183 0.0
C888 C 0.38517 0.40907 0.09109 0.0
C889 C 0.36648 0.40967 0.08299 0.0
H890 H 0.4214 0.4285 0.098 0.0
H891 H 0.24126 0.43311 0.01556 0.0
H892 H 0.58668 0.8253 0.06665 0.0
H893 H 0.57782 0.85245 0.05118 0.0
H894 H 0.54318 0.85794 0.09631 0.0
H895 H 0.55213 0.83099 0.11188 0.0
H896 H 0.51842 0.84849 0.06167 0.0
H897 H 0.59272 0.90216 0.09246 0.0
H898 H 0.63341 0.91666 0.1004 0.0
H899 H 0.64599 0.92502 0.04477 0.0
H900 H 0.60527 0.91023 0.03646 0.0
H901 H 0.50254 0.94409 0.04421 0.0
H902 H 0.51316 0.91723 0.05741 0.0
H903 H 0.55862 0.9281 0.01618 0.0
H904 H 0.54876 0.95603 0.0033 0.0
H905 H 0.57819 0.92791 0.04696 0.0
H906 H 0.50527 0.87593 0.01556 0.0
H907 H 0.46467 0.86071 0.00653 0.0
H908 H 0.44932 0.84756 0.06124 0.0
H909 H 0.48985 0.86301 0.07062 0.0
C910 C 0.57717 0.83232 0.07323 0.0
C911 C 0.57012 0.82613 0.09046 0.0
C912 C 0.57221 0.84786 0.06444 0.0
C913 C 0.55992 0.85722 0.07265 0.0
C914 C 0.5527 0.8509 0.08978 0.0
C915 C 0.55793 0.83565 0.09868 0.0
C916 C 0.55436 0.87344 0.06334 0.0
C917 C 0.53144 0.86596 0.0586 0.0
C918 C 0.57143 0.89585 0.05882 0.0
C919 C 0.59591 0.90483 0.06381 0.0
C920 C 0.60412 0.90687 0.0819 0.0
C921 C 0.6272 0.91519 0.08647 0.0
C922 C 0.64227 0.92169 0.07309 0.0
C923 C 0.63429 0.91995 0.05511 0.0
C924 C 0.61122 0.91161 0.05047 0.0
C925 C 0.51472 0.9407 0.03785 0.0
C926 C 0.52465 0.95201 0.02259 0.0
C927 C 0.52072 0.92524 0.0454 0.0
C928 C 0.53631 0.92017 0.03757 0.0
C929 C 0.54646 0.93163 0.02241 0.0
C930 C 0.54076 0.94751 0.01503 0.0
C931 C 0.54213 0.90313 0.0454 0.0
C932 C 0.5651 0.91039 0.04987 0.0
C933 C 0.52509 0.88033 0.04945 0.0
C934 C 0.50063 0.87078 0.04381 0.0
C935 C 0.49325 0.86992 0.02568 0.0
C936 C 0.47024 0.86124 0.02049 0.0
C937 C 0.45442 0.85322 0.0333 0.0
C938 C 0.46157 0.8538 0.05132 0.0
C939 C 0.48456 0.86248 0.05658 0.0
H940 H 0.43662 0.84651 0.02923 0.0
H941 H 0.66013 0.92813 0.07666 0.0
H942 H 0.92789 0.19611 0.4455 0.0
H943 H 0.964 0.22283 0.43406 0.0
H944 H 0.96546 0.16257 0.40851 0.0
H945 H 0.93056 0.13567 0.42132 0.0
H946 H 0.00586 0.19327 0.42077 0.0
H947 H 0.94733 0.19784 0.38538 0.0
H948 H 0.91479 0.20421 0.37997 0.0
H949 H 0.95506 0.27601 0.40435 0.0
H950 H 0.98777 0.26996 0.4101 0.0
H951 H 0.07628 0.25016 0.35086 0.0
H952 H 0.04311 0.22574 0.36705 0.0
H953 H 0.05707 0.28796 0.40131 0.0
H954 H 0.09036 0.31242 0.38528 0.0
H955 H 0.01065 0.25852 0.38642 0.0
H956 H 0.07205 0.25314 0.41486 0.0
H957 H 0.10322 0.24444 0.41754 0.0
H958 H 0.05611 0.17042 0.40208 0.0
H959 H 0.02459 0.17873 0.39901 0.0
C960 C 0.93605 0.18844 0.43776 0.0
C961 C 0.92602 0.16361 0.43422 0.0
C962 C 0.95661 0.20382 0.43099 0.0
C963 C 0.96724 0.19478 0.42005 0.0
C964 C 0.95755 0.17003 0.41681 0.0
C965 C 0.9373 0.15464 0.42392 0.0
C966 C 0.98811 0.21097 0.41156 0.0
C967 C 0.00679 0.20731 0.41303 0.0
C968 C 0.98953 0.22966 0.40179 0.0
C969 C 0.96991 0.23336 0.39835 0.0
C970 C 0.94919 0.21493 0.3897 0.0
C971 C 0.93073 0.21849 0.38656 0.0
C972 C 0.93284 0.24048 0.39186 0.0
C973 C 0.95344 0.25898 0.40028 0.0
C974 C 0.97195 0.2555 0.40347 0.0
C975 C 0.0722 0.25859 0.36181 0.0
C976 C 0.08573 0.2831 0.36683 0.0
C977 C 0.05334 0.24466 0.37104 0.0
C978 C 0.04777 0.25512 0.38534 0.0
C979 C 0.06111 0.27967 0.39023 0.0
C980 C 0.08009 0.29355 0.38112 0.0
C981 C 0.02805 0.24038 0.39529 0.0
C982 C 0.00967 0.24443 0.39415 0.0
C983 C 0.02674 0.22164 0.40488 0.0
C984 C 0.04583 0.21664 0.40662 0.0
C985 C 0.06827 0.23503 0.41183 0.0
C986 C 0.08605 0.23016 0.41346 0.0
C987 C 0.08167 0.20689 0.40995 0.0
C988 C 0.05948 0.18846 0.40482 0.0
C989 C 0.04163 0.19325 0.40316 0.0
H990 H 0.09545 0.20314 0.41124 0.0
H991 H 0.91852 0.24321 0.38942 0.0
H992 H 0.82833 0.7341 0.43982 0.0
H993 H 0.80204 0.74403 0.42429 0.0
H994 H 0.85873 0.80988 0.41115 0.0
H995 H 0.88511 0.8004 0.42714 0.0
H996 H 0.8254 0.81655 0.42295 0.0
H997 H 0.83084 0.76309 0.37945 0.0
H998 H 0.82963 0.7261 0.36822 0.0
H999 H 0.75935 0.68547 0.37816 0.0
H1000 H 0.76022 0.72221 0.3897 0.0
H1001 H 0.76053 0.84304 0.36107 0.0
H1002 H 0.78877 0.83382 0.3739 0.0
H1003 H 0.73489 0.76561 0.38634 0.0
H1004 H 0.70658 0.77478 0.37342 0.0
H1005 H 0.76819 0.76113 0.37389 0.0
H1006 H 0.76415 0.81324 0.42085 0.0
H1007 H 0.76466 0.84986 0.43236 0.0
H1008 H 0.83168 0.89237 0.41572 0.0
H1009 H 0.83152 0.85599 0.40413 0.0
C1010 C 0.83518 0.75079 0.43376 0.0
C1011 C 0.85879 0.76643 0.43465 0.0
C1012 C 0.82016 0.75633 0.42474 0.0
C1013 C 0.82847 0.77754 0.41636 0.0
C1014 C 0.85199 0.79336 0.41745 0.0
C1015 C 0.86703 0.78783 0.42646 0.0
C1016 C 0.81257 0.78331 0.4066 0.0
C1017 C 0.81312 0.80459 0.41204 0.0
C1018 C 0.79627 0.76751 0.3926 0.0
C1019 C 0.79566 0.74539 0.38559 0.0
C1020 C 0.81517 0.74625 0.37937 0.0
C1021 C 0.81454 0.72533 0.37293 0.0
C1022 C 0.79444 0.70345 0.37252 0.0
C1023 C 0.77491 0.70244 0.37851 0.0
C1024 C 0.77546 0.72331 0.38498 0.0
C1025 C 0.75476 0.82608 0.36654 0.0
C1026 C 0.73146 0.80974 0.36657 0.0
C1027 C 0.77088 0.82089 0.37394 0.0
C1028 C 0.76392 0.79927 0.3815 0.0
C1029 C 0.74062 0.78251 0.38078 0.0
C1030 C 0.72448 0.78777 0.37348 0.0
C1031 C 0.78086 0.79421 0.39037 0.0
C1032 C 0.78053 0.7731 0.38475 0.0
C1033 C 0.79733 0.81011 0.40424 0.0
C1034 C 0.79771 0.83197 0.41149 0.0
C1035 C 0.77892 0.83043 0.41959 0.0
C1036 C 0.77917 0.85111 0.42614 0.0
C1037 C 0.79815 0.87341 0.4247 0.0
C1038 C 0.81699 0.87508 0.41681 0.0
C1039 C 0.81686 0.85444 0.4103 0.0
H1040 H 0.79828 0.88939 0.42975 0.0
H1041 H 0.79398 0.68727 0.36753 0.0
H1042 H 0.23688 0.0791 0.4424 0.0
H1043 H 0.23075 0.04214 0.42671 0.0
H1044 H 0.25427 0.0779 0.37875 0.0
H1045 H 0.26068 0.11503 0.39441 0.0
H1046 H 0.2161 0.0357 0.37087 0.0
H1047 H 0.28807 0.06449 0.4041 0.0
H1048 H 0.31577 0.08028 0.43098 0.0
H1049 H 0.27485 0.01662 0.45634 0.0
H1050 H 0.24672 0.00057 0.42971 0.0
H1051 H 0.23818 0.92881 0.35336 0.0
H1052 H 0.25164 0.97057 0.36332 0.0
H1053 H 0.18292 0.95295 0.37135 0.0
H1054 H 0.16932 0.91145 0.36132 0.0
H1055 H 0.24915 0.98925 0.39588 0.0
H1056 H 0.17547 0.99898 0.36243 0.0
H1057 H 0.14955 0.9842 0.3345 0.0
H1058 H 0.19792 0.97316 0.3072 0.0
H1059 H 0.22427 0.98818 0.33487 0.0
C1060 C 0.24099 0.07918 0.42858 0.0
C1061 C 0.2493 0.10003 0.41967 0.0
C1062 C 0.23746 0.05803 0.41962 0.0
C1063 C 0.24228 0.05733 0.40162 0.0
C1064 C 0.25043 0.07805 0.39264 0.0
C1065 C 0.25398 0.09922 0.40159 0.0
C1066 C 0.23832 0.03481 0.39208 0.0
C1067 C 0.2234 0.02559 0.37629 0.0
C1068 C 0.24825 0.02188 0.39893 0.0
C1069 C 0.2652 0.0314 0.41495 0.0
C1070 C 0.28489 0.05392 0.41545 0.0
C1071 C 0.30068 0.06291 0.43064 0.0
C1072 C 0.29705 0.04948 0.44537 0.0
C1073 C 0.27763 0.02701 0.44492 0.0
C1074 C 0.26177 0.01794 0.42978 0.0
C1075 C 0.2259 0.93387 0.35705 0.0
C1076 C 0.20267 0.91675 0.35657 0.0
C1077 C 0.23364 0.95772 0.3628 0.0
C1078 C 0.21826 0.96488 0.36796 0.0
C1079 C 0.19505 0.94789 0.36719 0.0
C1080 C 0.18732 0.92411 0.36153 0.0
C1081 C 0.22639 0.98982 0.375 0.0
C1082 C 0.24205 0.99948 0.39035 0.0
C1083 C 0.21739 0.00331 0.36759 0.0
C1084 C 0.20178 0.99455 0.35078 0.0
C1085 C 0.18063 0.99352 0.35044 0.0
C1086 C 0.16585 0.98507 0.33466 0.0
C1087 C 0.17206 0.97769 0.3191 0.0
C1088 C 0.19309 0.97881 0.31927 0.0
C1089 C 0.20795 0.98726 0.33501 0.0
H1090 H 0.16058 0.97114 0.3069 0.0
H1091 H 0.3093 0.05647 0.45712 0.0
H1092 H 0.48775 0.60425 0.23017 0.0
H1093 H 0.5148 0.64218 0.24714 0.0
H1094 H 0.52467 0.60459 0.28945 0.0
H1095 H 0.49652 0.56654 0.2728 0.0
H1096 H 0.52356 0.64053 0.30405 0.0
H1097 H 0.56472 0.63177 0.2573 0.0
H1098 H 0.57153 0.62415 0.22616 0.0
H1099 H 0.56756 0.68473 0.21091 0.0
H1100 H 0.56063 0.69268 0.24193 0.0
H1101 H 0.62842 0.74612 0.34031 0.0
H1102 H 0.60071 0.70606 0.32651 0.0
H1103 H 0.57348 0.73613 0.2894 0.0
H1104 H 0.60078 0.77607 0.30316 0.0
H1105 H 0.5855 0.70321 0.27329 0.0
H1106 H 0.54349 0.7104 0.32126 0.0
H1107 H 0.53809 0.71737 0.35295 0.0
H1108 H 0.54619 0.65858 0.36656 0.0
H1109 H 0.55197 0.65147 0.33497 0.0
C1110 C 0.49575 0.60418 0.24309 0.0
C1111 C 0.49033 0.58265 0.25018 0.0
C1112 C 0.51129 0.62581 0.25274 0.0
C1113 C 0.52226 0.62628 0.26938 0.0
C1114 C 0.51654 0.60469 0.2766 0.0
C1115 C 0.50056 0.58302 0.26711 0.0
C1116 C 0.53953 0.64935 0.27923 0.0
C1117 C 0.53732 0.65405 0.29738 0.0
C1118 C 0.55744 0.66716 0.27054 0.0
C1119 C 0.562 0.66271 0.25192 0.0
C1120 C 0.56523 0.64342 0.24729 0.0
C1121 C 0.56915 0.63908 0.22967 0.0
C1122 C 0.56999 0.65397 0.21657 0.0
C1123 C 0.56699 0.67328 0.22108 0.0
C1124 C 0.56311 0.67774 0.23869 0.0
C1125 C 0.61639 0.74416 0.32932 0.0
C1126 C 0.61674 0.76423 0.32285 0.0
C1127 C 0.60058 0.72131 0.32149 0.0
C1128 C 0.58512 0.71825 0.30697 0.0
C1129 C 0.58531 0.7382 0.30061 0.0
C1130 C 0.60084 0.76098 0.30856 0.0
C1131 C 0.56923 0.69434 0.29789 0.0
C1132 C 0.5718 0.68953 0.27992 0.0
C1133 C 0.55198 0.67635 0.30683 0.0
C1134 C 0.54843 0.68058 0.3258 0.0
C1135 C 0.54434 0.6991 0.33104 0.0
C1136 C 0.54116 0.70305 0.34898 0.0
C1137 C 0.54186 0.68848 0.36177 0.0
C1138 C 0.54569 0.66988 0.35664 0.0
C1139 C 0.5489 0.66587 0.33872 0.0
H1140 H 0.53939 0.69155 0.37565 0.0
H1141 H 0.57298 0.65055 0.20292 0.0
H1142 H 0.40999 0.93323 0.22611 0.0
H1143 H 0.37734 0.92801 0.24186 0.0
H1144 H 0.36592 0.86008 0.25687 0.0
H1145 H 0.39848 0.86517 0.2411 0.0
H1146 H 0.3256 0.85986 0.24451 0.0
H1147 H 0.39281 0.90589 0.28653 0.0
H1148 H 0.43103 0.93985 0.29627 0.0
H1149 H 0.40616 0.98832 0.28985 0.0
H1150 H 0.36784 0.95463 0.27979 0.0
H1151 H 0.26778 0.84228 0.32444 0.0
H1152 H 0.29813 0.85087 0.30467 0.0
H1153 H 0.29101 0.90809 0.28491 0.0
H1154 H 0.26011 0.89906 0.30418 0.0
H1155 H 0.33931 0.91607 0.29775 0.0
H1156 H 0.27271 0.87188 0.25642 0.0
H1157 H 0.23416 0.83896 0.24621 0.0
H1158 H 0.25718 0.78868 0.25028 0.0
H1159 H 0.29587 0.82132 0.26087 0.0
C1160 C 0.40034 0.91709 0.23261 0.0
C1161 C 0.40678 0.89964 0.23249 0.0
C1162 C 0.3818 0.91418 0.24164 0.0
C1163 C 0.36935 0.89372 0.25058 0.0
C1164 C 0.37534 0.87598 0.25003 0.0
C1165 C 0.394 0.87898 0.24116 0.0
C1166 C 0.35065 0.8912 0.26116 0.0
C1167 C 0.32861 0.87205 0.25621 0.0
C1168 C 0.35453 0.90754 0.2761 0.0
C1169 C 0.37753 0.92777 0.28221 0.0
C1170 C 0.39554 0.92381 0.28703 0.0
C1171 C 0.41721 0.943 0.29264 0.0
C1172 C 0.42104 0.96623 0.29363 0.0
C1173 C 0.40318 0.97032 0.28904 0.0
C1174 C 0.38148 0.95118 0.2834 0.0
C1175 C 0.27284 0.8568 0.31598 0.0
C1176 C 0.26175 0.87007 0.31581 0.0
C1177 C 0.29003 0.86159 0.30468 0.0
C1178 C 0.2966 0.88 0.29335 0.0
C1179 C 0.28605 0.89379 0.29357 0.0
C1180 C 0.2685 0.88864 0.30456 0.0
C1181 C 0.31444 0.88461 0.28122 0.0
C1182 C 0.3363 0.90407 0.28592 0.0
C1183 C 0.31035 0.86875 0.26594 0.0
C1184 C 0.28712 0.84901 0.25969 0.0
C1185 C 0.2695 0.85378 0.25537 0.0
C1186 C 0.24763 0.83519 0.24945 0.0
C1187 C 0.24318 0.81174 0.24763 0.0
C1188 C 0.26063 0.80686 0.25172 0.0
C1189 C 0.28255 0.8254 0.25769 0.0
H1190 H 0.22624 0.79739 0.24301 0.0
H1191 H 0.43783 0.98107 0.29798 0.0
H1192 H 0.12265 0.51312 0.23445 0.0
H1193 H 0.1314 0.48623 0.25015 0.0
H1194 H 0.08483 0.48019 0.2894 0.0
H1195 H 0.07718 0.50828 0.27418 0.0
H1196 H 0.11947 0.48388 0.30631 0.0
H1197 H 0.07345 0.43504 0.25413 0.0
H1198 H 0.05999 0.42192 0.22203 0.0
H1199 H 0.12232 0.42345 0.21254 0.0
H1200 H 0.13639 0.43708 0.2445 0.0
H1201 H 0.11791 0.37726 0.33513 0.0
H1202 H 0.10658 0.40441 0.32283 0.0
H1203 H 0.16731 0.43669 0.29499 0.0
H1204 H 0.1789 0.40995 0.30721 0.0
H1205 H 0.12262 0.41744 0.27355 0.0
H1206 H 0.16779 0.46846 0.32706 0.0
H1207 H 0.17781 0.47773 0.35987 0.0
H1208 H 0.11107 0.46631 0.36713 0.0
H1209 H 0.10055 0.45661 0.33436 0.0
C1210 C 0.11423 0.50588 0.24637 0.0
C1211 C 0.0992 0.51255 0.25312 0.0
C1212 C 0.1191 0.49041 0.25529 0.0
C1213 C 0.10844 0.48072 0.2708 0.0
C1214 C 0.09326 0.48735 0.27747 0.0
C1215 C 0.08882 0.50329 0.26877 0.0
C1216 C 0.11378 0.4644 0.28038 0.0
C1217 C 0.11971 0.46908 0.29911 0.0
C1218 C 0.11431 0.4451 0.27108 0.0
C1219 C 0.1061 0.4374 0.25172 0.0
C1220 C 0.08442 0.43288 0.24517 0.0
C1221 C 0.07666 0.42531 0.22699 0.0
C1222 C 0.09033 0.42195 0.21524 0.0
C1223 C 0.11178 0.42615 0.22164 0.0
C1224 C 0.11967 0.43382 0.23979 0.0
C1225 C 0.12897 0.39029 0.32653 0.0
C1226 C 0.14927 0.39138 0.3221 0.0
C1227 C 0.12251 0.40582 0.3196 0.0
C1228 C 0.13616 0.42247 0.30806 0.0
C1229 C 0.15663 0.42396 0.30395 0.0
C1230 C 0.16321 0.40866 0.31097 0.0
C1231 C 0.12842 0.43718 0.29911 0.0
C1232 C 0.12205 0.43211 0.28057 0.0
C1233 C 0.12693 0.45562 0.30861 0.0
C1234 C 0.13329 0.46153 0.32828 0.0
C1235 C 0.15517 0.46768 0.33567 0.0
C1236 C 0.16096 0.47307 0.35426 0.0
C1237 C 0.14506 0.47253 0.36559 0.0
C1238 C 0.12336 0.46667 0.35834 0.0
C1239 C 0.11748 0.46125 0.33976 0.0
H1240 H 0.14958 0.47672 0.37997 0.0
H1241 H 0.08426 0.41602 0.20118 0.0
H1242 H 0.39459 0.50273 0.21972 0.0
H1243 H 0.35861 0.47766 0.23242 0.0
H1244 H 0.39545 0.48175 0.28259 0.0
H1245 H 0.4315 0.50662 0.2699 0.0
H1246 H 0.35941 0.43595 0.27157 0.0
H1247 H 0.37339 0.51641 0.27933 0.0
H1248 H 0.38143 0.555 0.26905 0.0
H1249 H 0.31975 0.52001 0.23365 0.0
H1250 H 0.31151 0.48114 0.24353 0.0
H1251 H 0.27457 0.4024 0.33211 0.0
H1252 H 0.30892 0.42414 0.31656 0.0
H1253 H 0.26794 0.42148 0.26936 0.0
H1254 H 0.23354 0.3999 0.28495 0.0
H1255 H 0.30498 0.4652 0.27708 0.0
H1256 H 0.28965 0.38518 0.2698 0.0
H1257 H 0.28115 0.34614 0.27939 0.0
H1258 H 0.34447 0.37927 0.31273 0.0
H1259 H 0.35321 0.41859 0.30354 0.0
C1260 C 0.39501 0.49802 0.23337 0.0
C1261 C 0.41582 0.50668 0.24386 0.0
C1262 C 0.37447 0.48385 0.24063 0.0
C1263 C 0.37442 0.47807 0.25848 0.0
C1264 C 0.39517 0.48608 0.2688 0.0
C1265 C 0.4157 0.50039 0.26159 0.0
C1266 C 0.35273 0.46428 0.26661 0.0
C1267 C 0.3476 0.44242 0.27296 0.0
C1268 C 0.33709 0.47248 0.26792 0.0
C1269 C 0.34196 0.49584 0.26203 0.0
C1270 C 0.36164 0.51692 0.26924 0.0
C1271 C 0.36621 0.53885 0.26351 0.0
C1272 C 0.35114 0.53995 0.25067 0.0
C1273 C 0.33143 0.51912 0.24357 0.0
C1274 C 0.32679 0.49714 0.24924 0.0
C1275 C 0.27294 0.40653 0.31844 0.0
C1276 C 0.2515 0.39954 0.30971 0.0
C1277 C 0.29252 0.41882 0.30954 0.0
C1278 C 0.29094 0.42417 0.29173 0.0
C1279 C 0.26952 0.41749 0.28309 0.0
C1280 C 0.24992 0.40519 0.29199 0.0
C1281 C 0.31171 0.43693 0.28224 0.0
C1282 C 0.3167 0.45862 0.27562 0.0
C1283 C 0.32714 0.42848 0.28057 0.0
C1284 C 0.32199 0.40486 0.28611 0.0
C1285 C 0.30168 0.38417 0.2793 0.0
C1286 C 0.29683 0.36199 0.28464 0.0
C1287 C 0.31223 0.36024 0.2967 0.0
C1288 C 0.33254 0.38067 0.30341 0.0
C1289 C 0.33747 0.4029 0.29812 0.0
H1290 H 0.30845 0.34305 0.30082 0.0
H1291 H 0.35471 0.55694 0.24625 0.0
H1292 H 0.4817 0.87744 0.21163 0.0
H1293 H 0.50989 0.87027 0.22744 0.0
H1294 H 0.51064 0.91159 0.27493 0.0
H1295 H 0.48237 0.9188 0.25917 0.0
H1296 H 0.55478 0.92235 0.26521 0.0
H1297 H 0.48268 0.85488 0.2752 0.0
H1298 H 0.44452 0.82058 0.26589 0.0
H1299 H 0.47388 0.7878 0.23395 0.0
H1300 H 0.51223 0.8221 0.24286 0.0
H1301 H 0.61018 0.88639 0.32907 0.0
H1302 H 0.58365 0.8954 0.31267 0.0
H1303 H 0.57624 0.84677 0.26765 0.0
H1304 H 0.60258 0.83755 0.28409 0.0
H1305 H 0.53564 0.84002 0.27577 0.0
H1306 H 0.60718 0.90594 0.2652 0.0
H1307 H 0.64579 0.94009 0.27321 0.0
H1308 H 0.6185 0.9757 0.3045 0.0
H1309 H 0.57972 0.94159 0.29688 0.0
C1310 C 0.48797 0.88507 0.22542 0.0
C1311 C 0.47984 0.8986 0.23422 0.0
C1312 C 0.50397 0.88091 0.23443 0.0
C1313 C 0.51222 0.89033 0.25235 0.0
C1314 C 0.50443 0.90417 0.2611 0.0
C1315 C 0.48821 0.90812 0.25215 0.0
C1316 C 0.52873 0.88537 0.26203 0.0
C1317 C 0.55055 0.90441 0.26777 0.0
C1318 C 0.52332 0.86188 0.26484 0.0
C1319 C 0.5003 0.84117 0.25955 0.0
C1320 C 0.48099 0.84046 0.26606 0.0
C1321 C 0.45932 0.821 0.26088 0.0
C1322 C 0.45677 0.80205 0.2493 0.0
C1323 C 0.47589 0.8025 0.2429 0.0
C1324 C 0.49759 0.82194 0.24803 0.0
C1325 C 0.60292 0.87771 0.31565 0.0
C1326 C 0.60833 0.86126 0.30783 0.0
C1327 C 0.58786 0.88292 0.30628 0.0
C1328 C 0.5781 0.87187 0.28889 0.0
C1329 C 0.58355 0.85546 0.28106 0.0
C1330 C 0.59861 0.85024 0.29043 0.0
C1331 C 0.56177 0.87702 0.27905 0.0
C1332 C 0.53994 0.85799 0.27325 0.0
C1333 C 0.56727 0.90051 0.27603 0.0
C1334 C 0.59056 0.9211 0.28062 0.0
C1335 C 0.60942 0.92096 0.27392 0.0
C1336 C 0.63134 0.94033 0.27836 0.0
C1337 C 0.63461 0.96003 0.2894 0.0
C1338 C 0.61595 0.96041 0.29598 0.0
C1339 C 0.59399 0.94108 0.29158 0.0
H1340 H 0.65159 0.97501 0.29283 0.0
H1341 H 0.43999 0.787 0.24531 0.0
H1342 H 0.0729 0.59135 0.24553 0.0
H1343 H 0.0831 0.62909 0.26252 0.0
H1344 H 0.14637 0.63546 0.2836 0.0
H1345 H 0.1361 0.59763 0.26682 0.0
H1346 H 0.12793 0.64577 0.30961 0.0
H1347 H 0.14341 0.66877 0.25011 0.0
H1348 H 0.13654 0.66892 0.21737 0.0
H1349 H 0.08414 0.6858 0.22608 0.0
H1350 H 0.09039 0.6853 0.25887 0.0
H1351 H 0.18878 0.77201 0.33509 0.0
H1352 H 0.17513 0.73164 0.32129 0.0
H1353 H 0.1072 0.72048 0.31333 0.0
H1354 H 0.12059 0.76067 0.32746 0.0
H1355 H 0.12671 0.71246 0.28145 0.0
H1356 H 0.11393 0.69079 0.34216 0.0
H1357 H 0.12491 0.6939 0.37463 0.0
H1358 H 0.17706 0.67778 0.3628 0.0
H1359 H 0.16661 0.67492 0.33022 0.0
C1360 C 0.08906 0.60093 0.25368 0.0
C1361 C 0.1037 0.59155 0.25488 0.0
C1362 C 0.09489 0.6225 0.26336 0.0
C1363 C 0.1156 0.63523 0.27423 0.0
C1364 C 0.13026 0.62591 0.27537 0.0
C1365 C 0.12437 0.60429 0.2658 0.0
C1366 C 0.1218 0.65799 0.28476 0.0
C1367 C 0.12785 0.66041 0.30337 0.0
C1368 C 0.12139 0.67702 0.27672 0.0
C1369 C 0.11714 0.67663 0.25695 0.0
C1370 C 0.1302 0.67218 0.24504 0.0
C1371 C 0.12646 0.6724 0.22647 0.0
C1372 C 0.10985 0.67727 0.21964 0.0
C1373 C 0.09695 0.68194 0.23138 0.0
C1374 C 0.10056 0.68167 0.24996 0.0
C1375 C 0.17085 0.76078 0.33072 0.0
C1376 C 0.15574 0.76944 0.33236 0.0
C1377 C 0.1631 0.73777 0.32287 0.0
C1378 C 0.1402 0.7232 0.31633 0.0
C1379 C 0.12493 0.73152 0.31838 0.0
C1380 C 0.13258 0.75439 0.32654 0.0
C1381 C 0.13264 0.70003 0.30612 0.0
C1382 C 0.12648 0.69763 0.2876 0.0
C1383 C 0.13336 0.68124 0.31416 0.0
C1384 C 0.13962 0.68286 0.33374 0.0
C1385 C 0.12787 0.68812 0.34647 0.0
C1386 C 0.13397 0.68979 0.3649 0.0
C1387 C 0.15171 0.6861 0.37078 0.0
C1388 C 0.16334 0.68066 0.35823 0.0
C1389 C 0.15732 0.67899 0.33978 0.0
H1390 H 0.1564 0.68739 0.38505 0.0
H1391 H 0.10703 0.67749 0.20527 0.0
H1392 H 0.8526 0.1008 0.40241 0.0
H1393 H 0.82541 0.06249 0.38571 0.0
H1394 H 0.82017 0.02714 0.43396 0.0
H1395 H 0.84752 0.06525 0.45063 0.0
H1396 H 0.82417 0.00312 0.40405 0.0
H1397 H 0.77976 0.03904 0.42096 0.0
H1398 H 0.76999 0.0708 0.42241 0.0
H1399 H 0.76132 0.06556 0.36462 0.0
H1400 H 0.77136 0.03397 0.36283 0.0
H1401 H 0.72417 0.89307 0.385 0.0
H1402 H 0.75346 0.93269 0.39763 0.0
H1403 H 0.74641 0.96163 0.34859 0.0
H1404 H 0.71616 0.92189 0.33614 0.0
H1405 H 0.75058 0.99012 0.37618 0.0
H1406 H 0.79178 0.95137 0.35928 0.0
H1407 H 0.80095 0.91915 0.3581 0.0
H1408 H 0.81613 0.92965 0.41556 0.0
H1409 H 0.80661 0.9616 0.41714 0.0
C1410 C 0.84579 0.08481 0.40939 0.0
C1411 C 0.85207 0.08599 0.42783 0.0
C1412 C 0.83019 0.063 0.39988 0.0
C1413 C 0.82068 0.04204 0.40865 0.0
C1414 C 0.8273 0.04312 0.42696 0.0
C1415 C 0.84277 0.0649 0.43649 0.0
C1416 C 0.80347 0.01897 0.39893 0.0
C1417 C 0.808 0.00017 0.39805 0.0
C1418 C 0.78268 0.01542 0.3907 0.0
C1419 C 0.77657 0.03435 0.39176 0.0
C1420 C 0.77597 0.04481 0.40856 0.0
C1421 C 0.77034 0.06275 0.40945 0.0
C1422 C 0.7651 0.07025 0.39362 0.0
C1423 C 0.76542 0.05977 0.37687 0.0
C1424 C 0.77107 0.04184 0.37591 0.0
C1425 C 0.72889 0.90785 0.37687 0.0
C1426 C 0.71808 0.9044 0.35951 0.0
C1427 C 0.74574 0.9305 0.38408 0.0
C1428 C 0.75261 0.95008 0.37389 0.0
C1429 C 0.74151 0.94675 0.35665 0.0
C1430 C 0.72428 0.92408 0.34954 0.0
C1431 C 0.77109 0.97401 0.38146 0.0
C1432 C 0.76684 0.99304 0.38195 0.0
C1433 C 0.7922 0.97778 0.38928 0.0
C1434 C 0.79831 0.9588 0.38833 0.0
C1435 C 0.79694 0.94671 0.37168 0.0
C1436 C 0.80219 0.92848 0.37094 0.0
C1437 C 0.80904 0.92229 0.38675 0.0
C1438 C 0.81075 0.9344 0.40333 0.0
C1439 C 0.80545 0.95259 0.40415 0.0
H1440 H 0.81306 0.90815 0.38616 0.0
H1441 H 0.76074 0.08414 0.39433 0.0
H1442 H 0.93135 0.73255 0.44425 0.0
H1443 H 0.96649 0.74167 0.43078 0.0
H1444 H 0.9716 0.80594 0.41299 0.0
H1445 H 0.9372 0.79766 0.42706 0.0
H1446 H 0.97686 0.77524 0.38594 0.0
H1447 H 0.003 0.81127 0.44769 0.0
H1448 H 0.0022 0.80862 0.48049 0.0
H1449 H 0.02423 0.75727 0.47652 0.0
H1450 H 0.02469 0.75924 0.44361 0.0
H1451 H 0.08618 0.83851 0.35773 0.0
H1452 H 0.05139 0.82628 0.37256 0.0
H1453 H 0.06347 0.77705 0.4011 0.0
H1454 H 0.09894 0.79021 0.38692 0.0
H1455 H 0.0483 0.79641 0.42288 0.0
H1456 H 0.02326 0.75864 0.36326 0.0
H1457 H 0.02051 0.75519 0.33005 0.0
H1458 H 0.99377 0.80259 0.32923 0.0
H1459 H 0.99664 0.80659 0.36246 0.0
C1460 C 0.94009 0.74879 0.4377 0.0
C1461 C 0.93138 0.76435 0.43674 0.0
C1462 C 0.96005 0.75385 0.4299 0.0
C1463 C 0.97151 0.77443 0.4209 0.0
C1464 C 0.96284 0.78988 0.41978 0.0
C1465 C 0.94311 0.78503 0.42776 0.0
C1466 C 0.99272 0.78014 0.41273 0.0
C1467 C 0.99258 0.78009 0.39396 0.0
C1468 C 0.01285 0.7855 0.42326 0.0
C1469 C 0.01361 0.78519 0.44315 0.0
C1470 C 0.0075 0.79927 0.45378 0.0
C1471 C 0.00706 0.79785 0.47239 0.0
C1472 C 0.01302 0.78267 0.48056 0.0
C1473 C 0.0195 0.76893 0.47015 0.0
C1474 C 0.01989 0.77022 0.45152 0.0
C1475 C 0.08137 0.82507 0.36716 0.0
C1476 C 0.09503 0.8151 0.37107 0.0
C1477 C 0.06144 0.81799 0.37557 0.0
C1478 C 0.05448 0.80032 0.38767 0.0
C1479 C 0.06839 0.79062 0.39178 0.0
C1480 C 0.08856 0.79805 0.3836 0.0
C1481 C 0.03269 0.79198 0.39592 0.0
C1482 C 0.03264 0.79146 0.41473 0.0
C1483 C 0.01215 0.78543 0.38537 0.0
C1484 C 0.01036 0.78307 0.36536 0.0
C1485 C 0.01694 0.76846 0.356 0.0
C1486 C 0.01534 0.76639 0.33717 0.0
C1487 C 0.00702 0.7787 0.32753 0.0
C1488 C 0.00023 0.79308 0.33671 0.0
C1489 C 0.00182 0.79524 0.35554 0.0
H1490 H 0.00579 0.77707 0.31295 0.0
H1491 H 0.0128 0.78171 0.49498 0.0
H1492 H 0.27755 0.20615 0.4245 0.0
H1493 H 0.26604 0.23147 0.40939 0.0
H1494 H 0.19779 0.17172 0.39816 0.0
H1495 H 0.20961 0.14619 0.41256 0.0
H1496 H 0.20817 0.19483 0.37039 0.0
H1497 H 0.21357 0.21759 0.43311 0.0
H1498 H 0.23135 0.23098 0.46432 0.0
H1499 H 0.28364 0.2963 0.44701 0.0
H1500 H 0.26635 0.28315 0.41562 0.0
H1501 H 0.15435 0.26568 0.35929 0.0
H1502 H 0.16708 0.23978 0.37185 0.0
H1503 H 0.23635 0.29059 0.36346 0.0
H1504 H 0.22374 0.31635 0.35046 0.0
H1505 H 0.22546 0.27257 0.40069 0.0
H1506 H 0.21702 0.24732 0.33701 0.0
H1507 H 0.19579 0.23272 0.30695 0.0
H1508 H 0.14449 0.17017 0.32826 0.0
H1509 H 0.16527 0.1846 0.35853 0.0
C1510 C 0.26012 0.19851 0.41877 0.0
C1511 C 0.24442 0.17432 0.41969 0.0
C1512 C 0.25351 0.21297 0.41022 0.0
C1513 C 0.23092 0.20364 0.40291 0.0
C1514 C 0.2153 0.17935 0.40368 0.0
C1515 C 0.22203 0.16479 0.41191 0.0
C1516 C 0.22355 0.21914 0.39443 0.0
C1517 C 0.21176 0.21169 0.37716 0.0
C1518 C 0.22835 0.24129 0.40312 0.0
C1519 C 0.2388 0.24927 0.42198 0.0
C1520 C 0.22896 0.23473 0.43593 0.0
C1521 C 0.23893 0.24229 0.45366 0.0
C1522 C 0.25864 0.26445 0.45764 0.0
C1523 C 0.26839 0.27913 0.4439 0.0
C1524 C 0.25851 0.27164 0.42614 0.0
C1525 C 0.17226 0.27123 0.35997 0.0
C1526 C 0.18806 0.29296 0.35382 0.0
C1527 C 0.17947 0.25644 0.36713 0.0
C1528 C 0.2026 0.26336 0.36852 0.0
C1529 C 0.21842 0.28502 0.36243 0.0
C1530 C 0.21117 0.2996 0.35493 0.0
C1531 C 0.21032 0.2482 0.37679 0.0
C1532 C 0.22204 0.25572 0.39402 0.0
C1533 C 0.205 0.22591 0.36827 0.0
C1534 C 0.19257 0.21717 0.35007 0.0
C1535 C 0.2011 0.23057 0.33533 0.0
C1536 C 0.18918 0.2223 0.31824 0.0
C1537 C 0.16877 0.20056 0.31571 0.0
C1538 C 0.16028 0.18702 0.33025 0.0
C1539 C 0.17214 0.19523 0.34737 0.0
H1540 H 0.15957 0.19418 0.30247 0.0
H1541 H 0.26634 0.27027 0.47137 0.0
H1542 H 0.5701 0.50688 0.73586 0.0
H1543 H 0.60644 0.52821 0.72278 0.0
H1544 H 0.64129 0.52399 0.77126 0.0
H1545 H 0.605 0.50343 0.78461 0.0
H1546 H 0.66672 0.565 0.75885 0.0
H1547 H 0.62758 0.48453 0.73376 0.0
H1548 H 0.59532 0.44712 0.71906 0.0
H1549 H 0.59603 0.4819 0.67164 0.0
H1550 H 0.62806 0.51965 0.68617 0.0
H1551 H 0.76553 0.59155 0.71403 0.0
H1552 H 0.73145 0.56937 0.72983 0.0
H1553 H 0.69086 0.57649 0.6869 0.0
H1554 H 0.72471 0.59796 0.67076 0.0
H1555 H 0.67007 0.53207 0.69826 0.0
H1556 H 0.71096 0.61391 0.72616 0.0
H1557 H 0.74565 0.64852 0.74144 0.0
H1558 H 0.74391 0.60751 0.78508 0.0
H1559 H 0.70946 0.57248 0.7699 0.0
C1560 C 0.58558 0.51077 0.74375 0.0
C1561 C 0.58483 0.50345 0.76115 0.0
C1562 C 0.6063 0.52285 0.73628 0.0
C1563 C 0.62653 0.5272 0.74589 0.0
C1564 C 0.62591 0.52076 0.76358 0.0
C1565 C 0.60521 0.50903 0.77118 0.0
C1566 C 0.64807 0.53745 0.73711 0.0
C1567 C 0.66751 0.55764 0.7457 0.0
C1568 C 0.64922 0.52772 0.72002 0.0
C1569 C 0.63011 0.50498 0.71112 0.0
C1570 C 0.62076 0.48425 0.72024 0.0
C1571 C 0.60253 0.46298 0.71194 0.0
C1572 C 0.59361 0.46215 0.69444 0.0
C1573 C 0.60295 0.48258 0.6852 0.0
C1574 C 0.62115 0.50392 0.69346 0.0
C1575 C 0.74928 0.58817 0.70792 0.0
C1576 C 0.74764 0.59646 0.69124 0.0
C1577 C 0.7299 0.57564 0.71699 0.0
C1578 C 0.70875 0.57167 0.70967 0.0
C1579 C 0.70705 0.57944 0.69278 0.0
C1580 C 0.72636 0.59173 0.68362 0.0
C1581 C 0.68839 0.55998 0.71972 0.0
C1582 C 0.66922 0.53939 0.71142 0.0
C1583 C 0.68772 0.56904 0.73723 0.0
C1584 C 0.70771 0.5905 0.74681 0.0
C1585 C 0.71799 0.61225 0.739 0.0
C1586 C 0.73764 0.63193 0.74763 0.0
C1587 C 0.74702 0.63018 0.76419 0.0
C1588 C 0.73664 0.60881 0.77224 0.0
C1589 C 0.71703 0.58905 0.76364 0.0
H1590 H 0.7623 0.64538 0.7708 0.0
H1591 H 0.57948 0.44567 0.68804 0.0
H1592 H 0.51507 0.11636 0.79545 0.0
H1593 H 0.48939 0.12873 0.78215 0.0
H1594 H 0.48677 0.09328 0.73076 0.0
H1595 H 0.51245 0.08093 0.74396 0.0
H1596 H 0.49427 0.13723 0.72729 0.0
H1597 H 0.44257 0.06981 0.75763 0.0
H1598 H 0.42865 0.04656 0.78375 0.0
H1599 H 0.42374 0.10355 0.81083 0.0
H1600 H 0.43796 0.12728 0.78498 0.0
H1601 H 0.40084 0.1314 0.67784 0.0
H1602 H 0.42674 0.12198 0.69462 0.0
H1603 H 0.42355 0.15965 0.74275 0.0
H1604 H 0.39709 0.1686 0.7261 0.0
H1605 H 0.42045 0.11821 0.75002 0.0
H1606 H 0.47007 0.1848 0.71957 0.0
H1607 H 0.48416 0.20866 0.69377 0.0
H1608 H 0.49341 0.15417 0.6674 0.0
H1609 H 0.47907 0.12982 0.69294 0.0
C1610 C 0.50879 0.11098 0.78137 0.0
C1611 C 0.51577 0.09771 0.77073 0.0
C1612 C 0.49415 0.11806 0.77379 0.0
C1613 C 0.48607 0.11179 0.75549 0.0
C1614 C 0.49288 0.09838 0.74489 0.0
C1615 C 0.50758 0.09139 0.75243 0.0
C1616 C 0.47103 0.11971 0.74715 0.0
C1617 C 0.478 0.13282 0.73213 0.0
C1618 C 0.45022 0.11475 0.75392 0.0
C1619 C 0.4416 0.10045 0.76945 0.0
C1620 C 0.43872 0.07747 0.76922 0.0
C1621 C 0.43074 0.06419 0.78397 0.0
C1622 C 0.42539 0.0736 0.79897 0.0
C1623 C 0.42794 0.0963 0.79923 0.0
C1624 C 0.43595 0.10967 0.78452 0.0
C1625 C 0.40568 0.13767 0.692 0.0
C1626 C 0.39715 0.15083 0.70068 0.0
C1627 C 0.42053 0.13237 0.70155 0.0
C1628 C 0.4273 0.1404 0.71988 0.0
C1629 C 0.41855 0.15332 0.72863 0.0
C1630 C 0.40356 0.15851 0.71909 0.0
C1631 C 0.44342 0.1351 0.72984 0.0
C1632 C 0.43676 0.12268 0.74523 0.0
C1633 C 0.46458 0.14077 0.72348 0.0
C1634 C 0.47332 0.15541 0.70812 0.0
C1635 C 0.47495 0.17783 0.70821 0.0
C1636 C 0.48301 0.19145 0.69364 0.0
C1637 C 0.48963 0.18292 0.67894 0.0
C1638 C 0.48826 0.16076 0.6788 0.0
C1639 C 0.4802 0.14705 0.69333 0.0
H1640 H 0.49586 0.19349 0.66767 0.0
H1641 H 0.41921 0.06328 0.81037 0.0
H1642 H 0.93653 0.42071 0.76122 0.0
H1643 H 0.92665 0.38262 0.74477 0.0
H1644 H 0.85888 0.36946 0.7305 0.0
H1645 H 0.86863 0.40745 0.7469 0.0
H1646 H 0.86012 0.33082 0.74444 0.0
H1647 H 0.89451 0.3856 0.69958 0.0
H1648 H 0.92498 0.42118 0.68776 0.0
H1649 H 0.97074 0.39431 0.6954 0.0
H1650 H 0.94062 0.3587 0.70752 0.0
H1651 H 0.81826 0.23088 0.68252 0.0
H1652 H 0.8308 0.27136 0.69511 0.0
H1653 H 0.90007 0.28599 0.70158 0.0
H1654 H 0.88768 0.24565 0.68834 0.0
H1655 H 0.89929 0.32424 0.69209 0.0
H1656 H 0.86586 0.26958 0.73657 0.0
H1657 H 0.83601 0.23376 0.74861 0.0
H1658 H 0.78982 0.26036 0.74321 0.0
H1659 H 0.8192 0.29613 0.73073 0.0
C1660 C 0.91953 0.40965 0.75457 0.0
C1661 C 0.90334 0.41701 0.75529 0.0
C1662 C 0.91396 0.38802 0.74512 0.0
C1663 C 0.89208 0.37332 0.73637 0.0
C1664 C 0.87587 0.38059 0.73714 0.0
C1665 C 0.8815 0.40232 0.74641 0.0
C1666 C 0.88585 0.35009 0.72672 0.0
C1667 C 0.86847 0.32936 0.73286 0.0
C1668 C 0.89727 0.34825 0.71198 0.0
C1669 C 0.91538 0.36961 0.70464 0.0
C1670 C 0.91113 0.38738 0.6989 0.0
C1671 C 0.92832 0.40753 0.69211 0.0
C1672 C 0.9498 0.41004 0.69087 0.0
C1673 C 0.95411 0.39236 0.69638 0.0
C1674 C 0.93697 0.37218 0.70321 0.0
C1675 C 0.83621 0.24282 0.6864 0.0
C1676 C 0.85196 0.23504 0.68463 0.0
C1677 C 0.84335 0.26592 0.69366 0.0
C1678 C 0.86629 0.28151 0.69974 0.0
C1679 C 0.88226 0.27422 0.6971 0.0
C1680 C 0.87516 0.25117 0.68952 0.0
C1681 C 0.87332 0.30489 0.70966 0.0
C1682 C 0.89092 0.32565 0.70368 0.0
C1683 C 0.86227 0.30676 0.72471 0.0
C1684 C 0.84469 0.28546 0.73256 0.0
C1685 C 0.8493 0.26774 0.73784 0.0
C1686 C 0.83247 0.24744 0.74475 0.0
C1687 C 0.81105 0.24477 0.74667 0.0
C1688 C 0.80642 0.26244 0.74171 0.0
C1689 C 0.82315 0.28273 0.73471 0.0
H1690 H 0.79804 0.22903 0.75202 0.0
H1691 H 0.96309 0.42565 0.68561 0.0
H1692 H 0.13381 0.92591 0.58924 0.0
H1693 H 0.16128 0.9655 0.60396 0.0
H1694 H 0.21481 0.94853 0.6015 0.0
H1695 H 0.18744 0.90897 0.58659 0.0
H1696 H 0.21364 0.97157 0.63596 0.0
H1697 H 0.21332 0.9804 0.57215 0.0
H1698 H 0.19518 0.97656 0.54172 0.0
H1699 H 0.16834 0.02016 0.56091 0.0
H1700 H 0.18604 0.02393 0.59155 0.0
H1701 H 0.30914 0.08799 0.65447 0.0
H1702 H 0.2815 0.04737 0.64216 0.0
H1703 H 0.2315 0.06856 0.63149 0.0
H1704 H 0.25929 0.10935 0.64316 0.0
H1705 H 0.23052 0.04258 0.60387 0.0
H1706 H 0.23004 0.03462 0.6672 0.0
H1707 H 0.24644 0.03811 0.69824 0.0
H1708 H 0.27253 0.99294 0.68126 0.0
H1709 H 0.25654 0.98944 0.65005 0.0
C1710 C 0.1514 0.93058 0.592 0.0
C1711 C 0.15858 0.91449 0.58678 0.0
C1712 C 0.16704 0.95316 0.60033 0.0
C1713 C 0.19002 0.95987 0.60373 0.0
C1714 C 0.19712 0.94361 0.59898 0.0
C1715 C 0.18155 0.92115 0.5904 0.0
C1716 C 0.20676 0.98418 0.61169 0.0
C1717 C 0.2176 0.98714 0.62891 0.0
C1718 C 0.21135 0.00438 0.60261 0.0
C1719 C 0.20079 0.00223 0.58418 0.0
C1720 C 0.20337 0.98898 0.56992 0.0
C1721 C 0.1932 0.98685 0.55263 0.0
C1722 C 0.18056 0.99805 0.54939 0.0
C1723 C 0.17811 0.01146 0.56344 0.0
C1724 C 0.18821 0.01361 0.58077 0.0
C1725 C 0.2922 0.08395 0.64962 0.0
C1726 C 0.28639 0.10187 0.64982 0.0
C1727 C 0.27638 0.06068 0.64265 0.0
C1728 C 0.25428 0.05478 0.63611 0.0
C1729 C 0.24842 0.07265 0.63645 0.0
C1730 C 0.26433 0.09597 0.64316 0.0
C1731 C 0.2375 0.03022 0.62832 0.0
C1732 C 0.22662 0.02713 0.61105 0.0
C1733 C 0.23268 0.00993 0.63749 0.0
C1734 C 0.24228 0.01196 0.65625 0.0
C1735 C 0.23942 0.02558 0.67005 0.0
C1736 C 0.24862 0.02753 0.68768 0.0
C1737 C 0.26058 0.01581 0.69171 0.0
C1738 C 0.2633 0.00204 0.67811 0.0
C1739 C 0.25415 5e-05 0.66046 0.0
H1740 H 0.26768 0.01734 0.70536 0.0
H1741 H 0.17271 0.99639 0.53599 0.0
H1742 H 0.08826 0.24816 0.59558 0.0
H1743 H 0.05531 0.23912 0.61207 0.0
H1744 H 0.0122 0.21492 0.56213 0.0
H1745 H 0.04494 0.22303 0.54546 0.0
H1746 H 0.00545 0.24619 0.58655 0.0
H1747 H 0.01043 0.17475 0.58623 0.0
H1748 H 0.03009 0.15211 0.59135 0.0
H1749 H 0.04317 0.17641 0.64767 0.0
H1750 H 0.02388 0.1995 0.64282 0.0
H1751 H 0.89748 0.18629 0.61956 0.0
H1752 H 0.93159 0.19826 0.60389 0.0
H1753 H 0.97012 0.20782 0.65459 0.0
H1754 H 0.93565 0.19538 0.67025 0.0
H1755 H 0.98034 0.18519 0.63035 0.0
H1756 H 0.97638 0.25615 0.63217 0.0
H1757 H 0.96068 0.28271 0.62823 0.0
H1758 H 0.94841 0.2628 0.57121 0.0
H1759 H 0.96384 0.23591 0.57482 0.0
C1760 C 0.07175 0.24065 0.58806 0.0
C1761 C 0.06927 0.2361 0.56916 0.0
C1762 C 0.05297 0.23564 0.59753 0.0
C1763 C 0.03134 0.22618 0.58832 0.0
C1764 C 0.0288 0.22224 0.56946 0.0
C1765 C 0.04756 0.227 0.55996 0.0
C1766 C 0.01134 0.22016 0.59846 0.0
C1767 C 0.99969 0.23262 0.59594 0.0
C1768 C 0.00447 0.20308 0.61117 0.0
C1769 C 0.01591 0.18904 0.61413 0.0
C1770 C 0.01767 0.17543 0.59967 0.0
C1771 C 0.02871 0.16248 0.60253 0.0
C1772 C 0.03793 0.16287 0.61981 0.0
C1773 C 0.03606 0.17615 0.63428 0.0
C1774 C 0.02505 0.18915 0.63149 0.0
C1775 C 0.9133 0.19118 0.62734 0.0
C1776 C 0.91404 0.19015 0.64606 0.0
C1777 C 0.93281 0.19809 0.6184 0.0
C1778 C 0.95357 0.20435 0.62807 0.0
C1779 C 0.95432 0.20318 0.64684 0.0
C1780 C 0.93468 0.19611 0.65578 0.0
C1781 C 0.97419 0.21114 0.61843 0.0
C1782 C 0.98601 0.19881 0.621 0.0
C1783 C 0.98142 0.22861 0.60595 0.0
C1784 C 0.97116 0.24392 0.60379 0.0
C1785 C 0.97011 0.25723 0.61881 0.0
C1786 C 0.96136 0.27243 0.61663 0.0
C1787 C 0.95371 0.27456 0.59947 0.0
C1788 C 0.9545 0.26125 0.58448 0.0
C1789 C 0.96324 0.24603 0.58659 0.0
H1790 H 0.94714 0.2865 0.59778 0.0
H1791 H 0.04648 0.15284 0.622 0.0
H1792 H 0.77381 0.82925 0.56482 0.0
H1793 H 0.78565 0.80208 0.5761 0.0
H1794 H 0.74756 0.79395 0.62222 0.0
H1795 H 0.73656 0.82194 0.61131 0.0
H1796 H 0.786 0.79832 0.63294 0.0
H1797 H 0.72848 0.74927 0.58493 0.0
H1798 H 0.71015 0.73973 0.55385 0.0
H1799 H 0.77007 0.74466 0.53368 0.0
H1800 H 0.78879 0.75422 0.56468 0.0
H1801 H 0.78312 0.69467 0.66125 0.0
H1802 H 0.77141 0.72121 0.64852 0.0
H1803 H 0.81934 0.73738 0.6086 0.0
H1804 H 0.83119 0.71091 0.62124 0.0
H1805 H 0.77673 0.72891 0.59438 0.0
H1806 H 0.8332 0.77634 0.64336 0.0
H1807 H 0.85058 0.78552 0.67471 0.0
H1808 H 0.79094 0.78304 0.69337 0.0
H1809 H 0.77306 0.77351 0.66213 0.0
C1810 C 0.76792 0.82153 0.57732 0.0
C1811 C 0.75423 0.82755 0.58718 0.0
C1812 C 0.77459 0.80594 0.58373 0.0
C1813 C 0.76717 0.79557 0.59987 0.0
C1814 C 0.7535 0.80167 0.60974 0.0
C1815 C 0.7472 0.81761 0.6035 0.0
C1816 C 0.77396 0.77873 0.6067 0.0
C1817 C 0.78362 0.78295 0.62456 0.0
C1818 C 0.77143 0.75896 0.59568 0.0
C1819 C 0.76007 0.75262 0.57709 0.0
C1820 C 0.73775 0.74835 0.57386 0.0
C1821 C 0.72729 0.7429 0.55627 0.0
C1822 C 0.73895 0.74158 0.54181 0.0
C1823 C 0.76106 0.7456 0.54492 0.0
C1824 C 0.77158 0.75097 0.56249 0.0
C1825 C 0.79111 0.70379 0.64972 0.0
C1826 C 0.80823 0.70087 0.64236 0.0
C1827 C 0.78445 0.71899 0.6425 0.0
C1828 C 0.79468 0.73142 0.62774 0.0
C1829 C 0.8113 0.72801 0.62003 0.0
C1830 C 0.81813 0.71299 0.62735 0.0
C1831 C 0.7884 0.74839 0.62063 0.0
C1832 C 0.77897 0.74425 0.60272 0.0
C1833 C 0.79094 0.76811 0.63164 0.0
C1834 C 0.80171 0.77398 0.65043 0.0
C1835 C 0.82372 0.77756 0.65416 0.0
C1836 C 0.83367 0.78286 0.67191 0.0
C1837 C 0.82185 0.7848 0.68603 0.0
C1838 C 0.80007 0.78151 0.68242 0.0
C1839 C 0.79002 0.77617 0.6647 0.0
H1840 H 0.82958 0.78891 0.69976 0.0
H1841 H 0.73085 0.73743 0.5282 0.0
H1842 H 0.0825 0.80588 0.57534 0.0
H1843 H 0.04562 0.78114 0.58679 0.0
H1844 H 0.0409 0.84368 0.60059 0.0
H1845 H 0.07762 0.86851 0.58899 0.0
H1846 H 0.03075 0.81534 0.62792 0.0
H1847 H 0.00946 0.80571 0.56431 0.0
H1848 H 0.0109 0.79612 0.53215 0.0
H1849 H 0.99265 0.72473 0.54229 0.0
H1850 H 0.99144 0.73398 0.57456 0.0
H1851 H 0.91576 0.7535 0.64866 0.0
H1852 H 0.95079 0.77953 0.63507 0.0
H1853 H 0.95627 0.71848 0.6173 0.0
H1854 H 0.92102 0.69243 0.63045 0.0
H1855 H 0.96552 0.74709 0.59142 0.0
H1856 H 0.98895 0.75662 0.65468 0.0
H1857 H 0.988 0.76546 0.68707 0.0
H1858 H 0.00288 0.83615 0.67783 0.0
H1859 H 0.00363 0.82761 0.64533 0.0
C1860 C 0.07349 0.81434 0.58063 0.0
C1861 C 0.08301 0.83917 0.58129 0.0
C1862 C 0.05243 0.80018 0.58717 0.0
C1863 C 0.04045 0.81057 0.59439 0.0
C1864 C 0.0499 0.83533 0.59509 0.0
C1865 C 0.07093 0.84949 0.58854 0.0
C1866 C 0.01837 0.79571 0.60174 0.0
C1867 C 0.01636 0.80064 0.61986 0.0
C1868 C -0.00018 0.77619 0.59133 0.0
C1869 C 0.00058 0.77062 0.5719 0.0
C1870 C 0.00595 0.78803 0.55972 0.0
C1871 C 0.00669 0.78264 0.54146 0.0
C1872 C 0.00193 0.75985 0.5352 0.0
C1873 C 0.99637 0.74238 0.54717 0.0
C1874 C 0.99564 0.74768 0.56544 0.0
C1875 C 0.9245 0.74571 0.64187 0.0
C1876 C 0.91588 0.72104 0.6407 0.0
C1877 C 0.94451 0.76056 0.63416 0.0
C1878 C 0.95632 0.75098 0.62538 0.0
C1879 C 0.94748 0.72627 0.62403 0.0
C1880 C 0.92743 0.71143 0.63162 0.0
C1881 C 0.97795 0.76663 0.61764 0.0
C1882 C 0.97988 0.76186 0.59945 0.0
C1883 C 0.9965 0.7862 0.62802 0.0
C1884 C 0.9961 0.79139 0.64755 0.0
C1885 C 0.99184 0.77398 0.65954 0.0
C1886 C 0.99137 0.77895 0.67792 0.0
C1887 C 0.99531 0.80133 0.6845 0.0
C1888 C -0.00021 0.81881 0.67271 0.0
C1889 C 0.00026 0.81392 0.65431 0.0
H1890 H 0.99495 0.80514 0.69873 0.0
H1891 H 0.00249 0.75569 0.52106 0.0
H1892 H 0.14811 0.2213 0.54141 0.0
H1893 H 0.17703 0.21375 0.55508 0.0
H1894 H 0.1692 0.23898 0.60738 0.0
H1895 H 0.14106 0.24766 0.5937 0.0
H1896 H 0.21279 0.25638 0.603 0.0
H1897 H 0.14529 0.17896 0.59338 0.0
H1898 H 0.11252 0.14494 0.57561 0.0
H1899 H 0.15768 0.13568 0.54245 0.0
H1900 H 0.19069 0.16986 0.55991 0.0
H1901 H 0.26372 0.20894 0.65952 0.0
H1902 H 0.23698 0.2178 0.64339 0.0
H1903 H 0.25081 0.19446 0.5928 0.0
H1904 H 0.27747 0.18533 0.60895 0.0
H1905 H 0.20564 0.17668 0.5948 0.0
H1906 H 0.27305 0.25308 0.60485 0.0
H1907 H 0.30602 0.28668 0.62277 0.0
H1908 H 0.2612 0.29756 0.65522 0.0
H1909 H 0.22796 0.2638 0.63765 0.0
C1910 C 0.1527 0.22548 0.5558 0.0
C1911 C 0.14221 0.23505 0.56646 0.0
C1912 C 0.16907 0.2209 0.56362 0.0
C1913 C 0.17507 0.2255 0.5823 0.0
C1914 C 0.16477 0.2352 0.59295 0.0
C1915 C 0.14851 0.23993 0.58513 0.0
C1916 C 0.19222 0.2204 0.59077 0.0
C1917 C 0.21107 0.23887 0.60138 0.0
C1918 C 0.19034 0.19773 0.58822 0.0
C1919 C 0.17045 0.17716 0.57778 0.0
C1920 C 0.14822 0.1698 0.5822 0.0
C1921 C 0.1296 0.15047 0.57221 0.0
C1922 C 0.133 0.13821 0.55787 0.0
C1923 C 0.15505 0.14522 0.55353 0.0
C1924 C 0.17371 0.16456 0.56346 0.0
C1925 C 0.26107 0.20575 0.64496 0.0
C1926 C 0.27262 0.19651 0.63545 0.0
C1927 C 0.24589 0.2109 0.63576 0.0
C1928 C 0.24213 0.20706 0.61688 0.0
C1929 C 0.25353 0.19762 0.60736 0.0
C1930 C 0.26874 0.19246 0.61658 0.0
C1931 C 0.22597 0.21256 0.6072 0.0
C1932 C 0.20736 0.1942 0.59634 0.0
C1933 C 0.22805 0.23531 0.60952 0.0
C1934 C 0.24801 0.25577 0.62002 0.0
C1935 C 0.27023 0.26253 0.61589 0.0
C1936 C 0.28896 0.28162 0.62597 0.0
C1937 C 0.28571 0.29421 0.64015 0.0
C1938 C 0.2637 0.28778 0.64424 0.0
C1939 C 0.2449 0.26868 0.63421 0.0
H1940 H 0.30024 0.30898 0.64795 0.0
H1941 H 0.11857 0.12324 0.55016 0.0
H1942 H 0.71691 0.89772 0.59289 0.0
H1943 H 0.72692 0.93542 0.60988 0.0
H1944 H 0.79589 0.95024 0.62067 0.0
H1945 H 0.78572 0.91223 0.60416 0.0
H1946 H 0.78371 0.96447 0.64924 0.0
H1947 H 0.77993 0.97436 0.58615 0.0
H1948 H 0.76222 0.96477 0.55489 0.0
H1949 H 0.70908 0.97663 0.57177 0.0
H1950 H 0.72632 0.98596 0.6032 0.0
H1951 H 0.84069 0.09184 0.66139 0.0
H1952 H 0.82658 0.05013 0.65098 0.0
H1953 H 0.75754 0.03588 0.65038 0.0
H1954 H 0.77142 0.07746 0.66093 0.0
H1955 H 0.768 0.02079 0.61789 0.0
H1956 H 0.77512 0.01414 0.68137 0.0
H1957 H 0.79501 0.02499 0.71193 0.0
H1958 H 0.84484 0.00892 0.69323 0.0
H1959 H 0.82543 0.9983 0.66247 0.0
C1960 C 0.73414 0.90898 0.59902 0.0
C1961 C 0.75059 0.90218 0.59715 0.0
C1962 C 0.73987 0.93052 0.60867 0.0
C1963 C 0.76228 0.94591 0.61626 0.0
C1964 C 0.77851 0.9387 0.61494 0.0
C1965 C 0.77269 0.917 0.60551 0.0
C1966 C 0.76909 0.96991 0.62489 0.0
C1967 C 0.78044 0.97685 0.64232 0.0
C1968 C 0.76457 0.98599 0.61597 0.0
C1969 C 0.75428 0.9806 0.59706 0.0
C1970 C 0.76438 0.97476 0.58322 0.0
C1971 C 0.75444 0.96939 0.56546 0.0
C1972 C 0.7345 0.97003 0.56135 0.0
C1973 C 0.7245 0.97611 0.57498 0.0
C1974 C 0.73436 0.98145 0.59276 0.0
C1975 C 0.82249 0.07978 0.65926 0.0
C1976 C 0.80719 0.088 0.66195 0.0
C1977 C 0.81447 0.05595 0.65337 0.0
C1978 C 0.79103 0.03997 0.64995 0.0
C1979 C 0.7757 0.04797 0.65297 0.0
C1980 C 0.78368 0.07172 0.65907 0.0
C1981 C 0.7826 0.01528 0.64217 0.0
C1982 C 0.77105 0.00829 0.62486 0.0
C1983 C 0.78727 0.99935 0.65108 0.0
C1984 C 0.79892 0.00562 0.66958 0.0
C1985 C 0.79043 0.01311 0.68373 0.0
C1986 C 0.8016 0.01918 0.7011 0.0
C1987 C 0.82121 0.0177 0.70451 0.0
C1988 C 0.82966 0.01008 0.69056 0.0
C1989 C 0.81856 0.00401 0.67316 0.0
H1990 H 0.82983 0.0224 0.71796 0.0
H1991 H 0.72682 0.96585 0.5476 0.0
H1992 H 0.50765 0.40781 0.77711 0.0
H1993 H 0.48081 0.36979 0.75991 0.0
H1994 H 0.47909 0.40698 0.7143 0.0
H1995 H 0.50634 0.44514 0.73139 0.0
H1996 H 0.43426 0.36871 0.72532 0.0
H1997 H 0.50751 0.38358 0.70943 0.0
H1998 H 0.54745 0.39406 0.71602 0.0
H1999 H 0.52618 0.33323 0.74617 0.0
H2000 H 0.48611 0.32261 0.74001 0.0
H2001 H 0.37281 0.26197 0.66666 0.0
H2002 H 0.40039 0.3027 0.679 0.0
H2003 H 0.42518 0.2754 0.72053 0.0
H2004 H 0.39836 0.23483 0.70785 0.0
H2005 H 0.45941 0.31103 0.70901 0.0
H2006 H 0.38754 0.29726 0.72768 0.0
H2007 H 0.34728 0.28656 0.72325 0.0
H2008 H 0.36512 0.3444 0.69037 0.0
H2009 H 0.40547 0.35527 0.69443 0.0
C2010 C 0.50141 0.40785 0.76347 0.0
C2011 C 0.50899 0.42932 0.75554 0.0
C2012 C 0.48619 0.38619 0.75366 0.0
C2013 C 0.47809 0.38569 0.73587 0.0
C2014 C 0.4852 0.4071 0.72803 0.0
C2015 C 0.50077 0.42879 0.73774 0.0
C2016 C 0.46254 0.36261 0.72544 0.0
C2017 C 0.43975 0.35619 0.72144 0.0
C2018 C 0.46975 0.34623 0.72083 0.0
C2019 C 0.49382 0.35243 0.7244 0.0
C2020 C 0.51136 0.37256 0.7176 0.0
C2021 C 0.53402 0.3785 0.72123 0.0
C2022 C 0.53936 0.36435 0.73154 0.0
C2023 C 0.52203 0.34419 0.7382 0.0
C2024 C 0.49933 0.33819 0.73463 0.0
C2025 C 0.38419 0.2647 0.67839 0.0
C2026 C 0.38341 0.24522 0.68629 0.0
C2027 C 0.39988 0.28797 0.68549 0.0
C2028 C 0.41467 0.29216 0.70088 0.0
C2029 C 0.41401 0.27268 0.70864 0.0
C2030 C 0.39863 0.24947 0.70138 0.0
C2031 C 0.4308 0.31674 0.70906 0.0
C2032 C 0.4538 0.32352 0.71268 0.0
C2033 C 0.42368 0.33332 0.71355 0.0
C2034 C 0.39947 0.32691 0.7112 0.0
C2035 C 0.38285 0.3076 0.71941 0.0
C2036 C 0.36002 0.30151 0.71698 0.0
C2037 C 0.35364 0.31474 0.70649 0.0
C2038 C 0.37009 0.33414 0.69846 0.0
C2039 C 0.39293 0.34028 0.70083 0.0
H2040 H 0.33596 0.31 0.70461 0.0
H2041 H 0.55691 0.36898 0.73434 0.0
H2042 H 0.59124 0.12486 0.7563 0.0
H2043 H 0.62343 0.1312 0.73975 0.0
H2044 H 0.62071 0.06901 0.75966 0.0
H2045 H 0.5875 0.06149 0.77544 0.0
H2046 H 0.66665 0.11646 0.76275 0.0
H2047 H 0.60256 0.05947 0.72115 0.0
H2048 H 0.56577 0.04502 0.70339 0.0
H2049 H 0.5948 0.10816 0.67541 0.0
H2050 H 0.63169 0.12316 0.69322 0.0
H2051 H 0.74593 0.10885 0.71113 0.0
H2052 H 0.71085 0.09793 0.7252 0.0
H2053 H 0.69897 0.14431 0.69279 0.0
H2054 H 0.73379 0.1547 0.67823 0.0
H2055 H 0.65981 0.10443 0.69594 0.0
H2056 H 0.7211 0.16365 0.73659 0.0
H2057 H 0.75895 0.18186 0.7535 0.0
H2058 H 0.73657 0.11979 0.78232 0.0
H2059 H 0.69858 0.10135 0.76574 0.0
C2060 C 0.5971 0.11219 0.75694 0.0
C2061 C 0.58651 0.09249 0.76713 0.0
C2062 C 0.61567 0.11602 0.7476 0.0
C2063 C 0.62429 0.10053 0.7485 0.0
C2064 C 0.61423 0.08116 0.75889 0.0
C2065 C 0.59534 0.07701 0.76798 0.0
C2066 C 0.64386 0.10466 0.7385 0.0
C2067 C 0.66512 0.11347 0.74818 0.0
C2068 C 0.64192 0.10163 0.71946 0.0
C2069 C 0.61981 0.09254 0.70865 0.0
C2070 C 0.60104 0.07038 0.71133 0.0
C2071 C 0.58018 0.06206 0.70123 0.0
C2072 C 0.57793 0.07569 0.68831 0.0
C2073 C 0.59655 0.09763 0.68544 0.0
C2074 C 0.61745 0.10604 0.69552 0.0
C2075 C 0.73571 0.11653 0.7069 0.0
C2076 C 0.74256 0.13272 0.69372 0.0
C2077 C 0.71574 0.11036 0.71497 0.0
C2078 C 0.70252 0.12065 0.71027 0.0
C2079 C 0.70895 0.13621 0.69664 0.0
C2080 C 0.72884 0.14219 0.6884 0.0
C2081 C 0.68263 0.11595 0.72019 0.0
C2082 C 0.66135 0.10725 0.71052 0.0
C2083 C 0.68462 0.11965 0.73922 0.0
C2084 C 0.70706 0.13111 0.7499 0.0
C2085 C 0.72426 0.15395 0.74661 0.0
C2086 C 0.74573 0.16433 0.75615 0.0
C2087 C 0.75016 0.15205 0.76905 0.0
C2088 C 0.7331 0.12941 0.77248 0.0
C2089 C 0.71156 0.11901 0.76306 0.0
H2090 H 0.76682 0.16011 0.77636 0.0
H2091 H 0.56176 0.06922 0.6805 0.0
H2092 H 0.86928 0.46494 0.74592 0.0
H2093 H 0.85952 0.49165 0.73113 0.0
H2094 H 0.9213 0.5523 0.75616 0.0
H2095 H 0.93169 0.5257 0.77057 0.0
H2096 H 0.88081 0.55662 0.75692 0.0
H2097 H 0.9221 0.53686 0.71525 0.0
H2098 H 0.93014 0.50933 0.6974 0.0
H2099 H 0.86346 0.47651 0.6692 0.0
H2100 H 0.85489 0.50362 0.6871 0.0
H2101 H 0.88647 0.64161 0.69617 0.0
H2102 H 0.89711 0.61612 0.71225 0.0
H2103 H 0.83197 0.5548 0.69397 0.0
H2104 H 0.82095 0.58021 0.67837 0.0
H2105 H 0.87485 0.55171 0.69004 0.0
H2106 H 0.83161 0.56729 0.73165 0.0
H2107 H 0.82069 0.59247 0.74934 0.0
H2108 H 0.88763 0.63086 0.77725 0.0
H2109 H 0.89905 0.60599 0.75951 0.0
C2110 C 0.88094 0.48394 0.74818 0.0
C2111 C 0.90141 0.49314 0.75929 0.0
C2112 C 0.87522 0.49917 0.73984 0.0
C2113 C 0.88977 0.52389 0.74251 0.0
C2114 C 0.90984 0.53324 0.75401 0.0
C2115 C 0.9157 0.518 0.76225 0.0
C2116 C 0.88441 0.53983 0.7326 0.0
C2117 C 0.87986 0.55584 0.74232 0.0
C2118 C 0.88258 0.53828 0.71354 0.0
C2119 C 0.88778 0.52213 0.70263 0.0
C2120 C 0.90908 0.52365 0.70535 0.0
C2121 C 0.91375 0.50814 0.6952 0.0
C2122 C 0.8973 0.49114 0.68221 0.0
C2123 C 0.87617 0.48966 0.67929 0.0
C2124 C 0.87141 0.50511 0.68942 0.0
C2125 C 0.87455 0.62266 0.69545 0.0
C2126 C 0.85294 0.61281 0.68602 0.0
C2127 C 0.88057 0.6082 0.70469 0.0
C2128 C 0.86524 0.58369 0.70428 0.0
C2129 C 0.84396 0.57371 0.69441 0.0
C2130 C 0.83771 0.58822 0.68555 0.0
C2131 C 0.87133 0.56847 0.71435 0.0
C2132 C 0.87599 0.55261 0.70465 0.0
C2133 C 0.87295 0.56993 0.73338 0.0
C2134 C 0.86628 0.58501 0.74407 0.0
C2135 C 0.84409 0.58128 0.74141 0.0
C2136 C 0.83778 0.59545 0.75149 0.0
C2137 C 0.85347 0.61334 0.76437 0.0
C2138 C 0.8755 0.61703 0.76723 0.0
C2139 C 0.8819 0.60288 0.75718 0.0
H2140 H 0.84853 0.62427 0.77217 0.0
H2141 H 0.90094 0.47914 0.67437 0.0
H2142 H 0.44011 0.94688 0.18363 0.0
H2143 H 0.44934 0.96319 0.15448 0.0
H2144 H 0.47843 0.91909 0.14217 0.0
H2145 H 0.46826 0.90172 0.17078 0.0
H2146 H 0.50758 0.97175 0.14157 0.0
H2147 H 0.43398 0.90441 0.11938 0.0
H2148 H 0.39236 0.87917 0.11898 0.0
H2149 H 0.38424 0.93882 0.10833 0.0
H2150 H 0.42584 0.96451 0.10896 0.0
H2151 H 0.53938 0.99556 0.05416 0.0
H2152 H 0.52386 0.9771 0.08146 0.0
H2153 H 0.47826 0.00524 0.07957 0.0
H2154 H 0.49317 0.02283 0.0516 0.0
H2155 H 0.45613 0.9619 0.08806 0.0
H2156 H 0.52727 0.02961 0.11024 0.0
H2157 H 0.56862 0.05747 0.11206 0.0
H2158 H 0.58126 0.00128 0.12476 0.0
H2159 H 0.53997 0.973 0.1228 0.0
C2160 C 0.44791 0.94014 0.17455 0.0
C2161 C 0.45364 0.92313 0.17967 0.0
C2162 C 0.45324 0.94957 0.15794 0.0
C2163 C 0.46456 0.94231 0.14629 0.0
C2164 C 0.46973 0.92491 0.15107 0.0
C2165 C 0.46409 0.9152 0.16751 0.0
C2166 C 0.47292 0.95438 0.12988 0.0
C2167 C 0.49641 0.96942 0.12976 0.0
C2168 C 0.45812 0.95199 0.11489 0.0
C2169 C 0.43308 0.93648 0.11448 0.0
C2170 C 0.42335 0.91223 0.11721 0.0
C2171 C 0.39975 0.89783 0.11691 0.0
C2172 C 0.38567 0.90743 0.11377 0.0
C2173 C 0.39516 0.93143 0.11086 0.0
C2174 C 0.41876 0.94591 0.11117 0.0
C2175 C 0.52623 0.99802 0.0597 0.0
C2176 C 0.5174 0.01056 0.05088 0.0
C2177 C 0.51737 0.98749 0.07532 0.0
C2178 C 0.50012 0.99008 0.08278 0.0
C2179 C 0.49155 0.00298 0.07408 0.0
C2180 C 0.50012 0.01312 0.05821 0.0
C2181 C 0.49102 0.97912 0.09957 0.0
C2182 C 0.46738 0.96436 0.09985 0.0
C2183 C 0.50565 0.98216 0.11495 0.0
C2184 C 0.53052 0.99915 0.11623 0.0
C2185 C 0.53887 0.02316 0.11331 0.0
C2186 C 0.56229 0.03903 0.11438 0.0
C2187 C 0.57755 0.03114 0.11849 0.0
C2188 C 0.56942 0.00737 0.12157 0.0
C2189 C 0.54601 0.99141 0.12051 0.0
H2190 H 0.59568 0.04346 0.11931 0.0
H2191 H 0.36741 0.89625 0.1135 0.0
H2192 H 0.0536 0.55437 0.20114 0.0
H2193 H 0.03806 0.54612 0.16983 0.0
H2194 H 0.072 0.50644 0.15862 0.0
H2195 H 0.08931 0.51641 0.18962 0.0
H2196 H 0.07548 0.53052 0.13223 0.0
H2197 H 0.01269 0.47896 0.1631 0.0
H2198 H 0.98543 0.46682 0.18622 0.0
H2199 H 0.96194 0.51296 0.1679 0.0
H2200 H 0.98929 0.52564 0.14483 0.0
H2201 H 0.00311 0.47791 0.04814 0.0
H2202 H 0.01779 0.48032 0.07944 0.0
H2203 H 0.01307 0.54308 0.09211 0.0
H2204 H -6e-05 0.54167 0.06063 0.0
H2205 H 0.9937 0.5026 0.11696 0.0
H2206 H 0.06039 0.55467 0.08658 0.0
H2207 H 0.08663 0.56291 0.06297 0.0
H2208 H 0.10117 0.50964 0.08026 0.0
H2209 H 0.07447 0.50056 0.10365 0.0
C2210 C 0.05814 0.54422 0.19201 0.0
C2211 C 0.07276 0.53607 0.19804 0.0
C2212 C 0.04885 0.53913 0.17411 0.0
C2213 C 0.05339 0.52515 0.16189 0.0
C2214 C 0.06808 0.5171 0.1678 0.0
C2215 C 0.07776 0.52259 0.18563 0.0
C2216 C 0.04319 0.5195 0.14289 0.0
C2217 C 0.05751 0.524 0.12895 0.0
C2218 C 0.01972 0.51098 0.13848 0.0
C2219 C 0.00319 0.50339 0.15232 0.0
C2220 C 0.00183 0.48665 0.16408 0.0
C2221 C 0.98634 0.47965 0.17717 0.0
C2222 C 0.972 0.48915 0.17855 0.0
C2223 C 0.97308 0.50563 0.16682 0.0
C2224 C 0.98855 0.51271 0.15372 0.0
C2225 C 0.00579 0.49251 0.05752 0.0
C2226 C 0.00122 0.51006 0.05189 0.0
C2227 C 0.0138 0.49366 0.07539 0.0
C2228 C 0.01665 0.512 0.08793 0.0
C2229 C 0.01101 0.52886 0.08254 0.0
C2230 C 0.00352 0.52802 0.0646 0.0
C2231 C 0.02608 0.5141 0.10663 0.0
C2232 C 0.01159 0.50885 0.12041 0.0
C2233 C 0.04922 0.52132 0.11086 0.0
C2234 C 0.06517 0.5267 0.09671 0.0
C2235 C 0.0689 0.54444 0.08517 0.0
C2236 C 0.08387 0.54928 0.07183 0.0
C2237 C 0.09545 0.5367 0.07003 0.0
C2238 C 0.09209 0.51926 0.08159 0.0
C2239 C 0.07701 0.51424 0.09487 0.0
H2240 H 0.10712 0.54055 0.05975 0.0
H2241 H 0.96001 0.48371 0.18869 0.0
H2242 H 0.43403 0.52062 0.18082 0.0
H2243 H 0.44212 0.51272 0.15047 0.0
H2244 H 0.50834 0.52674 0.17155 0.0
H2245 H 0.50057 0.53543 0.20182 0.0
H2246 H 0.51134 0.54725 0.14134 0.0
H2247 H 0.46391 0.46475 0.15724 0.0
H2248 H 0.42945 0.43311 0.16891 0.0
H2249 H 0.38738 0.44451 0.13049 0.0
H2250 H 0.42165 0.47651 0.11892 0.0
H2251 H 0.53918 0.49963 0.06647 0.0
H2252 H 0.52859 0.50329 0.09684 0.0
H2253 H 0.46442 0.4932 0.07416 0.0
H2254 H 0.47476 0.48907 0.04388 0.0
H2255 H 0.45985 0.47064 0.10495 0.0
H2256 H 0.50929 0.54622 0.08402 0.0
H2257 H 0.54406 0.57715 0.07261 0.0
H2258 H 0.58327 0.58129 0.12105 0.0
H2259 H 0.54877 0.54988 0.13264 0.0
C2260 C 0.45023 0.52184 0.17895 0.0
C2261 C 0.46664 0.52851 0.19362 0.0
C2262 C 0.45482 0.51724 0.16164 0.0
C2263 C 0.47569 0.5187 0.15878 0.0
C2264 C 0.49213 0.52548 0.17344 0.0
C2265 C 0.48768 0.53042 0.1907 0.0
C2266 C 0.48051 0.51335 0.1405 0.0
C2267 C 0.50025 0.53041 0.13343 0.0
C2268 C 0.46573 0.49167 0.13002 0.0
C2269 C 0.44522 0.47266 0.13706 0.0
C2270 C 0.44728 0.46044 0.15131 0.0
C2271 C 0.42781 0.44252 0.15794 0.0
C2272 C 0.40623 0.43673 0.1504 0.0
C2273 C 0.40408 0.44893 0.13628 0.0
C2274 C 0.42351 0.46689 0.12965 0.0
C2275 C 0.52266 0.49778 0.06802 0.0
C2276 C 0.50781 0.4942 0.05288 0.0
C2277 C 0.51665 0.49991 0.08534 0.0
C2278 C 0.49585 0.49882 0.08772 0.0
C2279 C 0.48052 0.49403 0.07262 0.0
C2280 C 0.48647 0.49174 0.05532 0.0
C2281 C 0.49079 0.50447 0.10578 0.0
C2282 C 0.47096 0.48752 0.11278 0.0
C2283 C 0.50554 0.52638 0.11614 0.0
C2284 C 0.52634 0.5455 0.1092 0.0
C2285 C 0.5253 0.55357 0.09224 0.0
C2286 C 0.545 0.5712 0.08571 0.0
C2287 C 0.56587 0.5812 0.09609 0.0
C2288 C 0.56708 0.57354 0.11302 0.0
C2289 C 0.54744 0.55578 0.11957 0.0
H2290 H 0.58109 0.5949 0.09101 0.0
H2291 H 0.39119 0.42284 0.15554 0.0
H2292 H 0.95989 0.50899 0.8086 0.0
H2293 H 0.97742 0.51801 0.8397 0.0
H2294 H 0.93044 0.44619 0.85094 0.0
H2295 H 0.91275 0.43714 0.81996 0.0
H2296 H 0.93517 0.47983 0.87777 0.0
H2297 H 0.98263 0.46029 0.84341 0.0
H2298 H 0.00691 0.46432 0.81895 0.0
H2299 H 0.05336 0.53701 0.839 0.0
H2300 H 0.02916 0.5335 0.86345 0.0
H2301 H 0.016 0.47345 0.94859 0.0
H2302 H 0.00057 0.46924 0.91739 0.0
H2303 H 0.99422 0.53134 0.92827 0.0
H2304 H 0.01116 0.53653 0.9593 0.0
H2305 H 0.01644 0.50384 0.89053 0.0
H2306 H 0.93652 0.50975 0.9047 0.0
H2307 H 0.9099 0.50139 0.92804 0.0
H2308 H 0.92698 0.45126 0.9483 0.0
H2309 H 0.95304 0.4586 0.92472 0.0
C2310 C 0.95325 0.4952 0.81775 0.0
C2311 C 0.93505 0.47233 0.81186 0.0
C2312 C 0.96332 0.50033 0.83545 0.0
C2313 C 0.95527 0.48272 0.84756 0.0
C2314 C 0.93688 0.46001 0.84179 0.0
C2315 C 0.92693 0.45481 0.82407 0.0
C2316 C 0.9662 0.48776 0.86619 0.0
C2317 C 0.95299 0.48528 0.88058 0.0
C2318 C 0.98937 0.49461 0.86979 0.0
C2319 C 0.00396 0.49671 0.85514 0.0
C2320 C 0.99792 0.4772 0.84251 0.0
C2321 C 0.01168 0.47937 0.82867 0.0
C2322 C 0.03163 0.50093 0.82739 0.0
C2323 C 0.03788 0.52033 0.83999 0.0
C2324 C 0.02416 0.51826 0.85385 0.0
C2325 C 0.01156 0.48637 0.94429 0.0
C2326 C 0.01412 0.50496 0.95646 0.0
C2327 C 0.00275 0.48393 0.92649 0.0
C2328 C 0.99602 0.49979 0.92066 0.0
C2329 C 0.99904 0.51873 0.93265 0.0
C2330 C 0.00836 0.52148 0.95039 0.0
C2331 C 0.98544 0.4961 0.90209 0.0
C2332 C 0.99873 0.49882 0.88772 0.0
C2333 C 0.96227 0.48924 0.89853 0.0
C2334 C 0.94712 0.48512 0.91314 0.0
C2335 C 0.93466 0.49701 0.91418 0.0
C2336 C 0.91962 0.4924 0.92744 0.0
C2337 C 0.91697 0.47604 0.93981 0.0
C2338 C 0.92925 0.46413 0.93886 0.0
C2339 C 0.94416 0.4685 0.92553 0.0
H2340 H 0.90526 0.47244 0.95003 0.0
H2341 H 0.04226 0.50257 0.81666 0.0
H2342 H 0.52998 0.45206 0.82139 0.0
H2343 H 0.52325 0.46133 0.85183 0.0
H2344 H 0.5316 0.52815 0.83666 0.0
H2345 H 0.53951 0.51932 0.80638 0.0
H2346 H 0.55062 0.53536 0.86864 0.0
H2347 H 0.47783 0.47822 0.84061 0.0
H2348 H 0.44858 0.441 0.82332 0.0
H2349 H 0.45587 0.40032 0.86387 0.0
H2350 H 0.48542 0.43727 0.88128 0.0
H2351 H 0.48091 0.52394 0.94777 0.0
H2352 H 0.49064 0.52629 0.91637 0.0
H2353 H 0.53171 0.49447 0.9281 0.0
H2354 H 0.52227 0.49218 0.95927 0.0
H2355 H 0.48493 0.47373 0.89693 0.0
H2356 H 0.56464 0.53605 0.9211 0.0
H2357 H 0.59106 0.57541 0.93729 0.0
H2358 H 0.56488 0.60822 0.90243 0.0
H2359 H 0.53815 0.56904 0.88612 0.0
C2360 C 0.53037 0.46871 0.82462 0.0
C2361 C 0.53506 0.48492 0.81163 0.0
C2362 C 0.52641 0.47396 0.84195 0.0
C2363 C 0.52635 0.49519 0.84644 0.0
C2364 C 0.53145 0.51162 0.83351 0.0
C2365 C 0.5359 0.50657 0.81625 0.0
C2366 C 0.52103 0.50012 0.86467 0.0
C2367 C 0.53609 0.52193 0.87468 0.0
C2368 C 0.50185 0.48285 0.87258 0.0
C2369 C 0.48398 0.46054 0.8622 0.0
C2370 C 0.47331 0.46133 0.84579 0.0
C2371 C 0.45666 0.44028 0.83597 0.0
C2372 C 0.4504 0.41831 0.84247 0.0
C2373 C 0.46074 0.41735 0.85884 0.0
C2374 C 0.47743 0.43835 0.8687 0.0
C2375 C 0.49241 0.51797 0.94369 0.0
C2376 C 0.50088 0.50793 0.9559 0.0
C2377 C 0.49798 0.51938 0.92584 0.0
C2378 C 0.51204 0.51077 0.9201 0.0
C2379 C 0.5211 0.50151 0.93243 0.0
C2380 C 0.51569 0.50024 0.95021 0.0
C2381 C 0.51496 0.50836 0.90085 0.0
C2382 C 0.49931 0.48709 0.89068 0.0
C2383 C 0.5332 0.52625 0.8927 0.0
C2384 C 0.54922 0.54963 0.90257 0.0
C2385 C 0.56434 0.55161 0.91703 0.0
C2386 C 0.57942 0.57388 0.92619 0.0
C2387 C 0.57957 0.59425 0.92095 0.0
C2388 C 0.5647 0.59242 0.9065 0.0
C2389 C 0.54961 0.57021 0.89729 0.0
H2390 H 0.59126 0.61146 0.92806 0.0
H2391 H 0.43751 0.40203 0.83485 0.0
H2392 H 0.54594 0.03645 0.81247 0.0
H2393 H 0.53847 0.01943 0.84159 0.0
H2394 H 0.52854 0.07633 0.86264 0.0
H2395 H 0.536 0.09339 0.83366 0.0
H2396 H 0.55532 0.06688 0.88628 0.0
H2397 H 0.48374 0.02486 0.8492 0.0
H2398 H 0.45855 0.00038 0.82227 0.0
H2399 H 0.47183 0.94414 0.83334 0.0
H2400 H 0.49738 0.96846 0.86021 0.0
H2401 H 0.46567 0.99436 0.9493 0.0
H2402 H 0.47762 0.00939 0.92014 0.0
H2403 H 0.53859 0.00537 0.92975 0.0
H2404 H 0.52598 0.98899 0.9586 0.0
H2405 H 0.48806 0.98729 0.89059 0.0
H2406 H 0.58112 0.06046 0.91229 0.0
H2407 H 0.60492 0.0901 0.9376 0.0
H2408 H 0.54572 0.0875 0.95726 0.0
H2409 H 0.52166 0.05852 0.93158 0.0
C2410 C 0.54238 0.04541 0.8234 0.0
C2411 C 0.54143 0.06616 0.82084 0.0
C2412 C 0.53802 0.03563 0.83994 0.0
C2413 C 0.53285 0.04659 0.85418 0.0
C2414 C 0.5325 0.06764 0.85179 0.0
C2415 C 0.53662 0.07727 0.83524 0.0
C2416 C 0.52721 0.03594 0.87151 0.0
C2417 C 0.5408 0.04934 0.88723 0.0
C2418 C 0.50807 0.01322 0.87268 0.0
C2419 C 0.49268 0.99858 0.85658 0.0
C2420 C 0.48145 0.00736 0.84579 0.0
C2421 C 0.46707 0.9935 0.83056 0.0
C2422 C 0.46365 0.97075 0.82606 0.0
C2423 C 0.47454 0.96178 0.83682 0.0
C2424 C 0.48896 0.97559 0.85205 0.0
C2425 C 0.48149 0.99639 0.94511 0.0
C2426 C 0.4952 0.99099 0.95633 0.0
C2427 C 0.48833 0.00508 0.92851 0.0
C2428 C 0.5091 0.00874 0.92294 0.0
C2429 C 0.52267 0.00299 0.93397 0.0
C2430 C 0.5156 0.99389 0.95048 0.0
C2431 C 0.51622 0.01825 0.90542 0.0
C2432 C 0.50291 0.00459 0.88963 0.0
C2433 C 0.53549 0.04087 0.9042 0.0
C2434 C 0.54952 0.05686 0.92032 0.0
C2435 C 0.57315 0.06603 0.92212 0.0
C2436 C 0.5867 0.08281 0.93646 0.0
C2437 C 0.57678 0.09044 0.94916 0.0
C2438 C 0.5533 0.08133 0.94752 0.0
C2439 C 0.5397 0.06472 0.93309 0.0
H2440 H 0.58731 0.10359 0.96016 0.0
H2441 H 0.4525 0.96004 0.81427 0.0
H2442 H 0.10131 0.28743 0.52083 0.0
H2443 H 0.10957 0.30492 0.49195 0.0
H2444 H 0.13799 0.26111 0.47657 0.0
H2445 H 0.12874 0.2426 0.50476 0.0
H2446 H 0.16688 0.31488 0.47694 0.0
H2447 H 0.09245 0.24667 0.45849 0.0
H2448 H 0.05093 0.22184 0.45841 0.0
H2449 H 0.04266 0.27931 0.44157 0.0
H2450 H 0.08425 0.30492 0.44226 0.0
H2451 H 0.1979 0.33576 0.3893 0.0
H2452 H 0.18234 0.31777 0.41679 0.0
H2453 H 0.13496 0.34358 0.41305 0.0
H2454 H 0.14993 0.36064 0.38493 0.0
H2455 H 0.11402 0.30156 0.42348 0.0
H2456 H 0.18466 0.37082 0.44375 0.0
H2457 H 0.22581 0.39933 0.44488 0.0
H2458 H 0.24029 0.34505 0.45964 0.0
H2459 H 0.19921 0.31612 0.45837 0.0
C2460 C 0.1088 0.28107 0.51114 0.0
C2461 C 0.11461 0.26377 0.51528 0.0
C2462 C 0.1136 0.29118 0.49469 0.0
C2463 C 0.12443 0.2843 0.48224 0.0
C2464 C 0.1297 0.26668 0.48609 0.0
C2465 C 0.12458 0.2563 0.5023 0.0
C2466 C 0.13198 0.29658 0.46575 0.0
C2467 C 0.15536 0.3119 0.46519 0.0
C2468 C 0.11672 0.29334 0.4508 0.0
C2469 C 0.09166 0.278 0.45087 0.0
C2470 C 0.08191 0.25433 0.4553 0.0
C2471 C 0.0583 0.24005 0.45507 0.0
C2472 C 0.04418 0.24908 0.45019 0.0
C2473 C 0.05364 0.27241 0.44551 0.0
C2474 C 0.07724 0.28684 0.44587 0.0
C2475 C 0.18432 0.33778 0.39448 0.0
C2476 C 0.17522 0.34975 0.3852 0.0
C2477 C 0.17542 0.32751 0.41019 0.0
C2478 C 0.15778 0.32974 0.4173 0.0
C2479 C 0.14861 0.34167 0.40793 0.0
C2480 C 0.15723 0.35153 0.39196 0.0
C2481 C 0.1491 0.31969 0.43452 0.0
C2482 C 0.12555 0.30483 0.43528 0.0
C2483 C 0.1641 0.32389 0.44996 0.0
C2484 C 0.18885 0.34126 0.45083 0.0
C2485 C 0.19662 0.36493 0.44713 0.0
C2486 C 0.21993 0.38117 0.44781 0.0
C2487 C 0.23565 0.37399 0.45229 0.0
C2488 C 0.22809 0.35058 0.45615 0.0
C2489 C 0.2048 0.33426 0.45548 0.0
H2490 H 0.2537 0.38659 0.45281 0.0
H2491 H 0.0259 0.23792 0.44987 0.0
H2492 H 0.73979 0.89048 0.53302 0.0
H2493 H 0.72357 0.88466 0.50195 0.0
H2494 H 0.68331 0.80912 0.50599 0.0
H2495 H 0.69918 0.81482 0.53727 0.0
H2496 H 0.70535 0.81925 0.47558 0.0
H2497 H 0.65806 0.84235 0.50559 0.0
H2498 H 0.65014 0.86775 0.52616 0.0
H2499 H 0.68571 0.92656 0.49457 0.0
H2500 H 0.69413 0.9016 0.47394 0.0
H2501 H 0.64834 0.79963 0.38771 0.0
H2502 H 0.65776 0.79981 0.41993 0.0
H2503 H 0.68896 0.87644 0.42602 0.0
H2504 H 0.67771 0.87585 0.39433 0.0
H2505 H 0.66755 0.86214 0.45255 0.0
H2506 H 0.71873 0.8408 0.42464 0.0
H2507 H 0.72962 0.81662 0.40572 0.0
H2508 H 0.68889 0.75571 0.43401 0.0
H2509 H 0.6776 0.77956 0.45303 0.0
C2510 C 0.7272 0.87266 0.52743 0.0
C2511 C 0.72072 0.85312 0.53768 0.0
C2512 C 0.71797 0.86937 0.50964 0.0
C2513 C 0.70204 0.84649 0.50173 0.0
C2514 C 0.69555 0.82693 0.51187 0.0
C2515 C 0.70473 0.83021 0.5297 0.0
C2516 C 0.69297 0.84296 0.48261 0.0
C2517 C 0.69675 0.82833 0.47053 0.0
C2518 C 0.68217 0.85517 0.47604 0.0
C2519 C 0.67687 0.87014 0.48829 0.0
C2520 C 0.66432 0.86074 0.50309 0.0
C2521 C 0.65972 0.87506 0.51475 0.0
C2522 C 0.66746 0.89877 0.51169 0.0
C2523 C 0.67974 0.90819 0.49692 0.0
C2524 C 0.68441 0.89396 0.48523 0.0
C2525 C 0.65724 0.81643 0.39603 0.0
C2526 C 0.66224 0.83771 0.38869 0.0
C2527 C 0.66281 0.8166 0.41441 0.0
C2528 C 0.67443 0.83821 0.42555 0.0
C2529 C 0.67985 0.85949 0.41791 0.0
C2530 C 0.67353 0.85919 0.39977 0.0
C2531 C 0.68057 0.83893 0.44518 0.0
C2532 C 0.67609 0.85297 0.45746 0.0
C2533 C 0.69094 0.82632 0.45194 0.0
C2534 C 0.69713 0.81188 0.44009 0.0
C2535 C 0.71189 0.82218 0.42667 0.0
C2536 C 0.71813 0.80851 0.41594 0.0
C2537 C 0.70987 0.78458 0.41862 0.0
C2538 C 0.69525 0.77423 0.43195 0.0
C2539 C 0.68892 0.78781 0.4427 0.0
H2540 H 0.71486 0.77401 0.41049 0.0
H2541 H 0.6639 0.90983 0.52074 0.0
H2542 H 0.14299 0.88753 0.52249 0.0
H2543 H 0.15025 0.87623 0.49279 0.0
H2544 H 0.13899 0.80962 0.51072 0.0
H2545 H 0.13114 0.82066 0.54047 0.0
H2546 H 0.18192 0.84081 0.49116 0.0
H2547 H 0.10013 0.80329 0.48696 0.0
H2548 H 0.0645 0.80346 0.49067 0.0
H2549 H 0.08162 0.85547 0.45246 0.0
H2550 H 0.11785 0.8564 0.44908 0.0
H2551 H 0.19483 0.81314 0.39983 0.0
H2552 H 0.18137 0.80842 0.43005 0.0
H2553 H 0.15836 0.85844 0.42134 0.0
H2554 H 0.17048 0.862 0.39108 0.0
H2555 H 0.12889 0.82584 0.4374 0.0
H2556 H 0.21119 0.87248 0.44672 0.0
H2557 H 0.25026 0.88022 0.44443 0.0
H2558 H 0.23528 0.81898 0.47263 0.0
H2559 H 0.19602 0.81075 0.4749 0.0
C2560 C 0.14215 0.87053 0.52009 0.0
C2561 C 0.13657 0.85494 0.53367 0.0
C2562 C 0.14622 0.86408 0.50317 0.0
C2563 C 0.14506 0.8421 0.49965 0.0
C2564 C 0.1399 0.82664 0.51327 0.0
C2565 C 0.13537 0.8329 0.53014 0.0
C2566 C 0.14923 0.83555 0.48159 0.0
C2567 C 0.17017 0.837 0.47938 0.0
C2568 C 0.13405 0.83122 0.46632 0.0
C2569 C 0.11189 0.8301 0.46794 0.0
C2570 C 0.09645 0.81496 0.47949 0.0
C2571 C 0.07612 0.81486 0.48153 0.0
C2572 C 0.07084 0.82952 0.47184 0.0
C2573 C 0.08578 0.84419 0.46 0.0
C2574 C 0.10625 0.84455 0.45805 0.0
C2575 C 0.18679 0.82298 0.40446 0.0
C2576 C 0.18375 0.83799 0.39325 0.0
C2577 C 0.1792 0.82037 0.42171 0.0
C2578 C 0.16909 0.83331 0.42813 0.0
C2579 C 0.16596 0.84813 0.41675 0.0
C2580 C 0.17302 0.85029 0.39946 0.0
C2581 C 0.16214 0.83218 0.44675 0.0
C2582 C 0.14055 0.82915 0.44913 0.0
C2583 C 0.17707 0.83592 0.46214 0.0
C2584 C 0.20062 0.84083 0.46076 0.0
C2585 C 0.2162 0.86058 0.45231 0.0
C2586 C 0.23837 0.86507 0.45104 0.0
C2587 C 0.24523 0.85005 0.45832 0.0
C2588 C 0.22993 0.83056 0.46695 0.0
C2589 C 0.20772 0.82598 0.46824 0.0
H2590 H 0.26241 0.85356 0.45733 0.0
H2591 H 0.05521 0.8296 0.47353 0.0
H2592 H 0.62005 0.78945 0.14301 0.0
H2593 H 0.63473 0.79745 0.17469 0.0
H2594 H 0.59605 0.8319 0.18586 0.0
H2595 H 0.58038 0.82307 0.1543 0.0
H2596 H 0.64386 0.857 0.20165 0.0
H2597 H 0.57508 0.78056 0.19797 0.0
H2598 H 0.54889 0.73923 0.18522 0.0
H2599 H 0.60044 0.72105 0.19724 0.0
H2600 H 0.62701 0.76234 0.20988 0.0
H2601 H 0.66629 0.86167 0.29708 0.0
H2602 H 0.64939 0.85808 0.26648 0.0
H2603 H 0.66327 0.80185 0.25122 0.0
H2604 H 0.67754 0.8036 0.28221 0.0
H2605 H 0.62451 0.78872 0.23778 0.0
H2606 H 0.69463 0.86433 0.23882 0.0
H2607 H 0.72248 0.90565 0.25067 0.0
H2608 H 0.67146 0.92557 0.24283 0.0
H2609 H 0.64328 0.88432 0.23105 0.0
C2610 C 0.61441 0.79849 0.15218 0.0
C2611 C 0.59882 0.80539 0.14605 0.0
C2612 C 0.62299 0.80323 0.17026 0.0
C2613 C 0.61638 0.81516 0.18257 0.0
C2614 C 0.6014 0.82274 0.17651 0.0
C2615 C 0.59255 0.81774 0.15844 0.0
C2616 C 0.62462 0.81893 0.20188 0.0
C2617 C 0.63948 0.84216 0.20969 0.0
C2618 C 0.61914 0.7995 0.21217 0.0
C2619 C 0.60309 0.7746 0.20472 0.0
C2620 C 0.58088 0.76779 0.19777 0.0
C2621 C 0.56595 0.74436 0.19059 0.0
C2622 C 0.573 0.72753 0.19039 0.0
C2623 C 0.59499 0.73409 0.1974 0.0
C2624 C 0.60998 0.7575 0.2046 0.0
C2625 C 0.66532 0.84831 0.28721 0.0
C2626 C 0.6725 0.83241 0.29211 0.0
C2627 C 0.65609 0.84656 0.26959 0.0
C2628 C 0.65512 0.82976 0.25633 0.0
C2629 C 0.66349 0.81477 0.26114 0.0
C2630 C 0.67185 0.8159 0.27886 0.0
C2631 C 0.64465 0.82689 0.23763 0.0
C2632 C 0.62909 0.80373 0.22988 0.0
C2633 C 0.64984 0.8464 0.22734 0.0
C2634 C 0.66683 0.87123 0.2342 0.0
C2635 C 0.68935 0.87752 0.23969 0.0
C2636 C 0.70519 0.90092 0.24638 0.0
C2637 C 0.69873 0.91821 0.24753 0.0
C2638 C 0.67644 0.91216 0.24193 0.0
C2639 C 0.66054 0.88879 0.23522 0.0
H2640 H 0.71101 0.9363 0.25274 0.0
H2641 H 0.56142 0.7094 0.18482 0.0
H2642 H 0.2116 0.84485 0.14718 0.0
H2643 H 0.20307 0.85298 0.17737 0.0
H2644 H 0.20744 0.79311 0.19503 0.0
H2645 H 0.21458 0.78427 0.16455 0.0
H2646 H 0.17379 0.79159 0.20782 0.0
H2647 H 0.25014 0.85392 0.20812 0.0
H2648 H 0.28342 0.88799 0.19734 0.0
H2649 H 0.24977 0.92891 0.1999 0.0
H2650 H 0.21618 0.89497 0.21053 0.0
H2651 H 0.1931 0.82608 0.30158 0.0
H2652 H 0.20108 0.82239 0.27054 0.0
H2653 H 0.1641 0.85705 0.25395 0.0
H2654 H 0.15556 0.86048 0.28531 0.0
H2655 H 0.21241 0.87224 0.24062 0.0
H2656 H 0.13641 0.80499 0.24448 0.0
H2657 H 0.1083 0.76985 0.25837 0.0
H2658 H 0.14874 0.73672 0.25151 0.0
H2659 H 0.17736 0.77191 0.2379 0.0
C2660 C 0.21076 0.83356 0.1576 0.0
C2661 C 0.21369 0.81398 0.15372 0.0
C2662 C 0.20607 0.83827 0.17486 0.0
C2663 C 0.20489 0.82386 0.18863 0.0
C2664 C 0.20814 0.80445 0.18469 0.0
C2665 C 0.2123 0.79943 0.16733 0.0
C2666 C 0.19943 0.82842 0.20695 0.0
C2667 C 0.18246 0.80923 0.21499 0.0
C2668 C 0.21051 0.85143 0.2164 0.0
C2669 C 0.23055 0.87182 0.20988 0.0
C2670 C 0.24976 0.87012 0.20622 0.0
C2671 C 0.2687 0.88941 0.20018 0.0
C2672 C 0.26867 0.91057 0.19787 0.0
C2673 C 0.24974 0.91249 0.20166 0.0
C2674 C 0.23076 0.89324 0.20771 0.0
C2675 C 0.18673 0.83308 0.29141 0.0
C2676 C 0.17358 0.84346 0.29582 0.0
C2677 C 0.19132 0.83092 0.27368 0.0
C2678 C 0.18301 0.83927 0.26004 0.0
C2679 C 0.17056 0.85046 0.2644 0.0
C2680 C 0.16569 0.85237 0.28222 0.0
C2681 C 0.18693 0.83548 0.24121 0.0
C2682 C 0.20364 0.85476 0.23319 0.0
C2683 C 0.17634 0.81238 0.23211 0.0
C2684 C 0.15913 0.79121 0.24031 0.0
C2685 C 0.13944 0.79034 0.24611 0.0
C2686 C 0.1234 0.77039 0.25391 0.0
C2687 C 0.12676 0.75109 0.25586 0.0
C2688 C 0.14618 0.7517 0.25001 0.0
C2689 C 0.16231 0.77165 0.24225 0.0
H2690 H 0.11428 0.73566 0.26185 0.0
H2691 H 0.28335 0.92549 0.19319 0.0
H2692 H 0.24276 0.40632 0.16185 0.0
H2693 H 0.23319 0.38988 0.19099 0.0
H2694 H 0.16245 0.34872 0.17064 0.0
H2695 H 0.17188 0.36493 0.14156 0.0
H2696 H 0.16866 0.37478 0.20188 0.0
H2697 H 0.19393 0.32218 0.17856 0.0
H2698 H 0.22124 0.31247 0.16566 0.0
H2699 H 0.269 0.34945 0.21203 0.0
H2700 H 0.24209 0.35967 0.2251 0.0
H2701 H 0.124 0.31481 0.27751 0.0
H2702 H 0.13446 0.32293 0.2469 0.0
H2703 H 0.20486 0.3494 0.26548 0.0
H2704 H 0.19365 0.33766 0.29551 0.0
H2705 H 0.19987 0.33163 0.2348 0.0
H2706 H 0.17545 0.38574 0.25794 0.0
H2707 H 0.14869 0.3967 0.27036 0.0
H2708 H 0.10074 0.35953 0.22419 0.0
H2709 H 0.12699 0.34802 0.21159 0.0
C2710 C 0.22524 0.39341 0.1635 0.0
C2711 C 0.20803 0.38708 0.14948 0.0
C2712 C 0.2198 0.38404 0.18015 0.0
C2713 C 0.1971 0.36807 0.18297 0.0
C2714 C 0.18005 0.36111 0.16877 0.0
C2715 C 0.18546 0.37046 0.1522 0.0
C2716 C 0.19069 0.36 0.20105 0.0
C2717 C 0.17527 0.3651 0.20904 0.0
C2718 C 0.19992 0.34809 0.21057 0.0
C2719 C 0.21608 0.34189 0.20273 0.0
C2720 C 0.21033 0.32842 0.18594 0.0
C2721 C 0.22572 0.32279 0.17861 0.0
C2722 C 0.24686 0.3304 0.18799 0.0
C2723 C 0.25263 0.3436 0.20476 0.0
C2724 C 0.23731 0.3493 0.21214 0.0
C2725 C 0.14167 0.3221 0.27499 0.0
C2726 C 0.15826 0.32675 0.28905 0.0
C2727 C 0.14772 0.32711 0.2575 0.0
C2728 C 0.17068 0.33813 0.25392 0.0
C2729 C 0.18708 0.34147 0.26783 0.0
C2730 C 0.18078 0.33524 0.28512 0.0
C2731 C 0.17761 0.34632 0.23581 0.0
C2732 C 0.19325 0.34139 0.22779 0.0
C2733 C 0.16878 0.35872 0.22629 0.0
C2734 C 0.15311 0.36582 0.23392 0.0
C2735 C 0.15915 0.3798 0.25049 0.0
C2736 C 0.14406 0.3861 0.25756 0.0
C2737 C 0.123 0.37871 0.24811 0.0
C2738 C 0.11702 0.36516 0.23151 0.0
C2739 C 0.13199 0.35875 0.22441 0.0
H2740 H 0.11124 0.38343 0.25361 0.0
H2741 H 0.25876 0.32602 0.1823 0.0
H2742 H 0.75044 0.56861 0.83376 0.0
H2743 H 0.75677 0.5858 0.80484 0.0
H2744 H 0.82815 0.63061 0.82229 0.0
H2745 H 0.8218 0.61425 0.85142 0.0
H2746 H 0.81346 0.65578 0.80663 0.0
H2747 H 0.80766 0.57996 0.7918 0.0
H2748 H 0.78994 0.53624 0.78955 0.0
H2749 H 0.73258 0.52916 0.75697 0.0
H2750 H 0.74995 0.57285 0.75921 0.0
H2751 H 0.8665 0.67694 0.72478 0.0
H2752 H 0.85134 0.66181 0.75321 0.0
H2753 H 0.7845 0.64522 0.73172 0.0
H2754 H 0.79986 0.66149 0.70342 0.0
H2755 H 0.79095 0.60619 0.74819 0.0
H2756 H 0.80204 0.68447 0.76059 0.0
H2757 H 0.82346 0.72829 0.76186 0.0
H2758 H 0.87543 0.73058 0.79856 0.0
H2759 H 0.85446 0.68673 0.7973 0.0
C2760 C 0.76745 0.58228 0.83149 0.0
C2761 C 0.78562 0.59002 0.84492 0.0
C2762 C 0.77108 0.59194 0.81487 0.0
C2763 C 0.79298 0.60942 0.81131 0.0
C2764 C 0.8111 0.61717 0.8247 0.0
C2765 C 0.80748 0.60761 0.84131 0.0
C2766 C 0.79717 0.61997 0.79376 0.0
C2767 C 0.80865 0.64488 0.79389 0.0
C2768 C 0.79043 0.60583 0.77704 0.0
C2769 C 0.77988 0.5796 0.77591 0.0
C2770 C 0.79115 0.56905 0.78434 0.0
C2771 C 0.78122 0.54428 0.78302 0.0
C2772 C 0.76009 0.52991 0.7732 0.0
C2773 C 0.7489 0.54029 0.76463 0.0
C2774 C 0.75878 0.56504 0.76591 0.0
C2775 C 0.84866 0.67046 0.72621 0.0
C2776 C 0.83425 0.67004 0.71185 0.0
C2777 C 0.84003 0.66177 0.74241 0.0
C2778 C 0.81683 0.65236 0.74446 0.0
C2779 C 0.80244 0.65238 0.73031 0.0
C2780 C 0.81121 0.66158 0.7142 0.0
C2781 C 0.80781 0.6418 0.76126 0.0
C2782 C 0.79541 0.61696 0.76098 0.0
C2783 C 0.81416 0.65595 0.77786 0.0
C2784 C 0.82676 0.68232 0.77874 0.0
C2785 C 0.81813 0.69431 0.76881 0.0
C2786 C 0.83017 0.71915 0.76955 0.0
C2787 C 0.85081 0.73221 0.78025 0.0
C2788 C 0.85944 0.72044 0.79027 0.0
C2789 C 0.84747 0.6956 0.78956 0.0
H2790 H 0.86011 0.75144 0.78081 0.0
H2791 H 0.75243 0.51074 0.77218 0.0
H2792 H 0.41747 0.16603 0.84929 0.0
H2793 H 0.39921 0.15651 0.81864 0.0
H2794 H 0.36939 0.20005 0.83087 0.0
H2795 H 0.38546 0.20754 0.86188 0.0
H2796 H 0.33974 0.16366 0.81213 0.0
H2797 H 0.41976 0.21694 0.80602 0.0
H2798 H 0.46071 0.23018 0.80838 0.0
H2799 H 0.44705 0.16729 0.77573 0.0
H2800 H 0.40595 0.15337 0.77356 0.0
H2801 H 0.32425 0.19899 0.72666 0.0
H2802 H 0.33764 0.19681 0.75724 0.0
H2803 H 0.34456 0.13713 0.73826 0.0
H2804 H 0.33038 0.1387 0.70774 0.0
H2805 H 0.38395 0.17512 0.75918 0.0
H2806 H 0.30408 0.12517 0.76258 0.0
H2807 H 0.26374 0.11426 0.75905 0.0
H2808 H 0.27819 0.17401 0.79603 0.0
H2809 H 0.3187 0.1855 0.79959 0.0
C2810 C 0.40671 0.17328 0.8456 0.0
C2811 C 0.40317 0.18775 0.85823 0.0
C2812 C 0.39656 0.16812 0.8279 0.0
C2813 C 0.38322 0.17791 0.82223 0.0
C2814 C 0.37964 0.19229 0.8348 0.0
C2815 C 0.38923 0.19692 0.85257 0.0
C2816 C 0.37267 0.1732 0.80335 0.0
C2817 C 0.34956 0.16644 0.80061 0.0
C2818 C 0.38512 0.17589 0.78815 0.0
C2819 C 0.40977 0.18399 0.78981 0.0
C2820 C 0.42547 0.2058 0.79953 0.0
C2821 C 0.4487 0.21342 0.80083 0.0
C2822 C 0.45646 0.19951 0.7923 0.0
C2823 C 0.441 0.17795 0.78244 0.0
C2824 C 0.41774 0.17018 0.78118 0.0
C2825 C 0.32833 0.18521 0.72907 0.0
C2826 C 0.32661 0.16922 0.71485 0.0
C2827 C 0.33599 0.184 0.7465 0.0
C2828 C 0.34212 0.16684 0.74995 0.0
C2829 C 0.33998 0.15054 0.73583 0.0
C2830 C 0.33194 0.1515 0.71844 0.0
C2831 C 0.3515 0.16662 0.76823 0.0
C2832 C 0.37424 0.17223 0.77079 0.0
C2833 C 0.33885 0.16321 0.78328 0.0
C2834 C 0.31447 0.1563 0.78124 0.0
C2835 C 0.2987 0.1361 0.76985 0.0
C2836 C 0.27579 0.12979 0.76786 0.0
C2837 C 0.26842 0.14346 0.77728 0.0
C2838 C 0.28393 0.16345 0.78873 0.0
C2839 C 0.30686 0.16985 0.79076 0.0
H2840 H 0.25067 0.13855 0.77572 0.0
H2841 H 0.47446 0.20548 0.79327 0.0
H2842 H 0.8239 0.22553 0.85973 0.0
H2843 H 0.82893 0.21548 0.82897 0.0
H2844 H 0.8064 0.14336 0.841 0.0
H2845 H 0.80114 0.15331 0.87186 0.0
H2846 H 0.85508 0.20028 0.81502 0.0
H2847 H 0.77716 0.10614 0.80315 0.0
H2848 H 0.73979 0.08231 0.81483 0.0
H2849 H 0.73713 0.14585 0.8282 0.0
H2850 H 0.77433 0.16999 0.81643 0.0
H2851 H 0.85809 0.14615 0.7306 0.0
H2852 H 0.85129 0.14814 0.76242 0.0
H2853 H 0.80301 0.17061 0.74859 0.0
H2854 H 0.81025 0.1694 0.71689 0.0
H2855 H 0.78969 0.13608 0.77564 0.0
H2856 H 0.85156 0.21136 0.76146 0.0
H2857 H 0.88833 0.23724 0.74967 0.0
H2858 H 0.92172 0.21494 0.78786 0.0
H2859 H 0.88501 0.1887 0.79971 0.0
C2860 C 0.82025 0.20759 0.85589 0.0
C2861 C 0.8121 0.19019 0.86819 0.0
C2862 C 0.82312 0.20187 0.8383 0.0
C2863 C 0.81789 0.17863 0.83264 0.0
C2864 C 0.81022 0.16132 0.84501 0.0
C2865 C 0.8072 0.167 0.8626 0.0
C2866 C 0.81992 0.17259 0.81363 0.0
C2867 C 0.84081 0.18613 0.80647 0.0
C2868 C 0.80128 0.15423 0.80242 0.0
C2869 C 0.77862 0.13986 0.80908 0.0
C2870 C 0.76855 0.11499 0.80853 0.0
C2871 C 0.74742 0.10145 0.81519 0.0
C2872 C 0.73614 0.11257 0.82233 0.0
C2873 C 0.74593 0.13727 0.82276 0.0
C2874 C 0.76705 0.15089 0.81612 0.0
C2875 C 0.84581 0.15121 0.73433 0.0
C2876 C 0.8347 0.15763 0.7213 0.0
C2877 C 0.84191 0.15227 0.75247 0.0
C2878 C 0.82665 0.1595 0.7578 0.0
C2879 C 0.81471 0.16481 0.7447 0.0
C2880 C 0.81889 0.16412 0.72661 0.0
C2881 C 0.82479 0.16382 0.77714 0.0
C2882 C 0.804 0.14996 0.78432 0.0
C2883 C 0.84342 0.18211 0.78835 0.0
C2884 C 0.86552 0.1979 0.78131 0.0
C2885 C 0.86672 0.21185 0.76723 0.0
C2886 C 0.88754 0.22661 0.76056 0.0
C2887 C 0.90735 0.22768 0.76797 0.0
C2888 C 0.90636 0.21405 0.78211 0.0
C2889 C 0.88554 0.19925 0.78881 0.0
H2890 H 0.92348 0.23911 0.7628 0.0
H2891 H 0.71979 0.10206 0.82748 0.0
H2892 H 0.25274 0.1238 0.4842 0.0
H2893 H 0.26884 0.13481 0.51572 0.0
H2894 H 0.31919 0.20418 0.5022 0.0
H2895 H 0.30297 0.19332 0.47063 0.0
H2896 H 0.33718 0.1812 0.52251 0.0
H2897 H 0.27964 0.20186 0.52421 0.0
H2898 H 0.24119 0.19629 0.51895 0.0
H2899 H 0.21558 0.13963 0.55356 0.0
H2900 H 0.25381 0.14447 0.55873 0.0
H2901 H 0.34158 0.20929 0.62678 0.0
H2902 H 0.32971 0.21159 0.59564 0.0
H2903 H 0.33534 0.15055 0.57824 0.0
H2904 H 0.34679 0.14798 0.60925 0.0
H2905 H 0.29237 0.17829 0.5736 0.0
H2906 H 0.35444 0.15734 0.53692 0.0
H2907 H 0.39363 0.16482 0.54211 0.0
H2908 H 0.41177 0.22699 0.57766 0.0
H2909 H 0.3728 0.22009 0.57249 0.0
C2910 C 0.26724 0.14139 0.48798 0.0
C2911 C 0.27668 0.15771 0.47503 0.0
C2912 C 0.2763 0.14771 0.50596 0.0
C2913 C 0.29508 0.17035 0.51126 0.0
C2914 C 0.30462 0.18666 0.49835 0.0
C2915 C 0.29534 0.18047 0.48039 0.0
C2916 C 0.30526 0.17649 0.53016 0.0
C2917 C 0.32746 0.18071 0.53369 0.0
C2918 C 0.29266 0.17633 0.54468 0.0
C2919 C 0.26959 0.17335 0.54168 0.0
C2920 C 0.26578 0.18802 0.53055 0.0
C2921 C 0.24402 0.18502 0.5276 0.0
C2922 C 0.22594 0.16753 0.53584 0.0
C2923 C 0.2296 0.15311 0.54714 0.0
C2924 C 0.25132 0.15597 0.55008 0.0
C2925 C 0.34022 0.19638 0.61627 0.0
C2926 C 0.3448 0.17828 0.62037 0.0
C2927 C 0.33351 0.19774 0.59853 0.0
C2928 C 0.33177 0.18132 0.58464 0.0
C2929 C 0.33683 0.16356 0.58872 0.0
C2930 C 0.34334 0.16209 0.60643 0.0
C2931 C 0.32396 0.18206 0.56591 0.0
C2932 C 0.30219 0.17907 0.56242 0.0
C2933 C 0.33703 0.1836 0.5514 0.0
C2934 C 0.36063 0.18808 0.5544 0.0
C2935 C 0.36682 0.17268 0.54577 0.0
C2936 C 0.38899 0.1768 0.54873 0.0
C2937 C 0.40516 0.19633 0.56024 0.0
C2938 C 0.39921 0.21182 0.56879 0.0
C2939 C 0.37707 0.20779 0.56587 0.0
H2940 H 0.42231 0.19947 0.56253 0.0
H2941 H 0.20909 0.16517 0.53345 0.0
H2942 H 0.87032 0.11122 0.49409 0.0
H2943 H 0.85913 0.11922 0.52305 0.0
H2944 H 0.86136 0.18201 0.5045 0.0
H2945 H 0.87378 0.17458 0.47576 0.0
H2946 H 0.87693 0.19142 0.53779 0.0
H2947 H 0.80995 0.12847 0.50621 0.0
H2948 H 0.78531 0.09012 0.48818 0.0
H2949 H 0.7934 0.05286 0.5311 0.0
H2950 H 0.81841 0.09101 0.5493 0.0
H2951 H 0.8125 0.18736 0.61472 0.0
H2952 H 0.82156 0.1864 0.58327 0.0
H2953 H 0.84625 0.1386 0.59489 0.0
H2954 H 0.83758 0.13971 0.62611 0.0
H2955 H 0.81224 0.12441 0.56307 0.0
H2956 H 0.88592 0.19104 0.59065 0.0
H2957 H 0.90724 0.22981 0.60904 0.0
H2958 H 0.881 0.26046 0.57198 0.0
H2959 H 0.85936 0.22176 0.55361 0.0
C2960 C 0.86853 0.12678 0.4963 0.0
C2961 C 0.87272 0.14223 0.48279 0.0
C2962 C 0.86197 0.13127 0.51275 0.0
C2963 C 0.85875 0.15086 0.51579 0.0
C2964 C 0.86356 0.1667 0.50243 0.0
C2965 C 0.87063 0.16247 0.48607 0.0
C2966 C 0.85035 0.15458 0.53294 0.0
C2967 C 0.8625 0.17684 0.54309 0.0
C2968 C 0.83136 0.13572 0.53992 0.0
C2969 C 0.81619 0.11265 0.52908 0.0
C2970 C 0.8066 0.11211 0.51177 0.0
C2971 C 0.79256 0.0904 0.50152 0.0
C2972 C 0.78783 0.06907 0.50848 0.0
C2973 C 0.79709 0.0694 0.52572 0.0
C2974 C 0.81119 0.09107 0.53602 0.0
C2975 C 0.81996 0.17679 0.61051 0.0
C2976 C 0.82441 0.16367 0.62278 0.0
C2977 C 0.82513 0.17627 0.59263 0.0
C2978 C 0.83449 0.16237 0.58685 0.0
C2979 C 0.83897 0.14936 0.59913 0.0
C2980 C 0.83411 0.15011 0.61696 0.0
C2981 C 0.83933 0.16077 0.56794 0.0
C2982 C 0.8264 0.13896 0.55748 0.0
C2983 C 0.85713 0.18012 0.56051 0.0
C2984 C 0.87089 0.20356 0.57098 0.0
C2985 C 0.88467 0.20607 0.58657 0.0
C2986 C 0.89677 0.22798 0.59696 0.0
C2987 C 0.89531 0.24752 0.59176 0.0
C2988 C 0.88202 0.24528 0.57603 0.0
C2989 C 0.86986 0.22337 0.56563 0.0
H2990 H 0.9045 0.26443 0.59988 0.0
H2991 H 0.77695 0.05228 0.50052 0.0
H2992 H 0.8438 0.71127 0.47894 0.0
H2993 H 0.83483 0.69385 0.5076 0.0
H2994 H 0.90573 0.73417 0.52743 0.0
H2995 H 0.91488 0.75255 0.49901 0.0
H2996 H 0.88277 0.68416 0.53334 0.0
H2997 H 0.87395 0.75297 0.54237 0.0
H2998 H 0.85915 0.77959 0.5352 0.0
H2999 H 0.79077 0.72219 0.53691 0.0
H3000 H 0.80513 0.69521 0.54384 0.0
H3001 H 0.86005 0.65262 0.62331 0.0
H3002 H 0.87445 0.6725 0.59614 0.0
H3003 H 0.80617 0.65408 0.57684 0.0
H3004 H 0.79255 0.63697 0.60495 0.0
H3005 H 0.83163 0.69655 0.57172 0.0
H3006 H 0.83798 0.62653 0.55958 0.0
H3007 H 0.85073 0.59798 0.5659 0.0
H3008 H 0.92042 0.65398 0.56852 0.0
H3009 H 0.90808 0.68291 0.5624 0.0
C3010 C 0.8575 0.71676 0.48945 0.0
C3011 C 0.88006 0.73348 0.48666 0.0
C3012 C 0.85234 0.70664 0.50578 0.0
C3013 C 0.86961 0.71288 0.51961 0.0
C3014 C 0.8922 0.72915 0.51685 0.0
C3015 C 0.89737 0.73952 0.50057 0.0
C3016 C 0.8639 0.70231 0.53696 0.0
C3017 C 0.87182 0.68705 0.54191 0.0
C3018 C 0.84924 0.70575 0.54783 0.0
C3019 C 0.84062 0.722 0.54346 0.0
C3020 C 0.85575 0.74598 0.54104 0.0
C3021 C 0.84743 0.76116 0.53706 0.0
C3022 C 0.82403 0.75261 0.53557 0.0
C3023 C 0.80889 0.72885 0.53806 0.0
C3024 C 0.81711 0.7136 0.54203 0.0
C3025 C 0.84839 0.65351 0.61346 0.0
C3026 C 0.82552 0.64432 0.61656 0.0
C3027 C 0.85644 0.66426 0.59768 0.0
C3028 C 0.84141 0.66484 0.58431 0.0
C3029 C 0.81821 0.65419 0.58699 0.0
C3030 C 0.81037 0.64419 0.603 0.0
C3031 C 0.84975 0.67753 0.56795 0.0
C3032 C 0.84252 0.69348 0.56322 0.0
C3033 C 0.86466 0.6743 0.55712 0.0
C3034 C 0.8721 0.65691 0.5607 0.0
C3035 C 0.85602 0.63277 0.56161 0.0
C3036 C 0.86317 0.61652 0.56514 0.0
C3037 C 0.88637 0.62417 0.56765 0.0
C3038 C 0.90246 0.64808 0.56659 0.0
C3039 C 0.8954 0.66441 0.56307 0.0
H3040 H 0.89187 0.61156 0.57039 0.0
H3041 H 0.81762 0.76439 0.53253 0.0
loop_
_geom_bond_atom_site_label_1
_geom_bond_atom_site_label_2
_geom_bond_distance
_geom_bond_site_symmetry_2
_ccdc_geom_bond_type
H0 C3 0.931 . S
H1 C6 0.928 . S
H2 C8 0.930 . S
C3 H0 0.931 . S
C3 C4 1.413 . S
C3 C5 1.360 . S
C4 C3 1.413 . S
C4 C8 1.429 . S
C5 C3 1.360 . S
C5 C6 1.372 . S
C6 H1 0.928 . S
C6 C5 1.372 . S
C6 C7 1.404 . S
C7 C6 1.404 . S
C7 C8 1.391 . S
C8 H2 0.930 . S
C8 C4 1.429 . S
C8 C7 1.391 . S
H9 C12 0.931 . S
H10 C15 0.928 . S
H11 C17 0.930 . S
C12 H9 0.931 . S
C12 C13 1.413 . S
C12 C14 1.360 . S
C13 C12 1.413 . S
C13 C17 1.429 . S
C14 C12 1.360 . S
C14 C15 1.372 . S
C15 H10 0.928 . S
C15 C14 1.372 . S
C15 C16 1.404 . S
C16 C15 1.404 . S
C16 C17 1.391 . S
C17 H11 0.930 . S
C17 C13 1.429 . S
C17 C16 1.391 . S
H18 C21 0.931 . S
H19 C24 0.928 . S
H20 C26 0.930 . S
C21 H18 0.931 . S
C21 C22 1.413 . S
C21 C23 1.360 . S
C22 C21 1.413 . S
C22 C26 1.429 . S
C23 C21 1.360 . S
C23 C24 1.372 . S
C24 H19 0.928 . S
C24 C23 1.372 . S
C24 C25 1.404 . S
C25 C24 1.404 . S
C25 C26 1.391 . S
C26 H20 0.930 . S
C26 C22 1.429 . S
C26 C25 1.391 . S
H27 C30 0.931 . S
H28 C33 0.928 . S
H29 C35 0.930 . S
C30 H27 0.931 . S
C30 C31 1.413 . S
C30 C32 1.360 . S
C31 C30 1.413 . S
C31 C35 1.429 . S
C32 C30 1.360 . S
C32 C33 1.372 . S
C33 H28 0.928 . S
C33 C32 1.372 . S
C33 C34 1.404 . S
C34 C33 1.404 . S
C34 C35 1.391 . S
C35 H29 0.930 . S
C35 C31 1.429 . S
C35 C34 1.391 . S
H36 C39 0.931 . S
H37 C42 0.928 . S
H38 C44 0.930 . S
C39 H36 0.931 . S
C39 C40 1.413 . S
C39 C41 1.360 . S
C40 C39 1.413 . S
C40 C44 1.429 . S
C41 C39 1.360 . S
C41 C42 1.372 . S
C42 H37 0.928 . S
C42 C41 1.372 . S
C42 C43 1.404 . S
C43 C42 1.404 . S
C43 C44 1.391 . S
C44 H38 0.930 . S
C44 C40 1.429 . S
C44 C43 1.391 . S
H45 C48 0.931 . S
H46 C51 0.928 . S
H47 C53 0.930 . S
C48 H45 0.931 . S
C48 C49 1.413 . S
C48 C50 1.360 . S
C49 C48 1.413 . S
C49 C53 1.429 . S
C50 C48 1.360 . S
C50 C51 1.372 . S
C51 H46 0.928 . S
C51 C50 1.372 . S
C51 C52 1.404 . S
C52 C51 1.404 . S
C52 C53 1.391 . S
C53 H47 0.930 . S
C53 C49 1.429 . S
C53 C52 1.391 . S
H54 C57 0.931 . S
H55 C60 0.928 . S
H56 C62 0.930 . S
C57 H54 0.931 . S
C57 C58 1.413 . S
C57 C59 1.360 . S
C58 C57 1.413 . S
C58 C62 1.429 . S
C59 C57 1.360 . S
C59 C60 1.372 . S
C60 H55 0.928 . S
C60 C59 1.372 . S
C60 C61 1.404 . S
C61 C60 1.404 . S
C61 C62 1.391 . S
C62 H56 0.930 . S
C62 C58 1.429 . S
C62 C61 1.391 . S
H63 C66 0.931 . S
H64 C69 0.928 . S
H65 C71 0.930 . S
C66 H63 0.931 . S
C66 C67 1.413 . S
C66 C68 1.360 . S
C67 C66 1.413 . S
C67 C71 1.429 . S
C68 C66 1.360 . S
C68 C69 1.372 . S
C69 H64 0.928 . S
C69 C68 1.372 . S
C69 C70 1.404 . S
C70 C69 1.404 . S
C70 C71 1.391 . S
C71 H65 0.930 . S
C71 C67 1.429 . S
C71 C70 1.391 . S
H72 C75 0.931 . S
H73 C78 0.928 . S
H74 C80 0.930 . S
C75 H72 0.931 . S
C75 C76 1.413 . S
C75 C77 1.360 . S
C76 C75 1.413 . S
C76 C80 1.429 . S
C77 C75 1.360 . S
C77 C78 1.372 . S
C78 H73 0.928 . S
C78 C77 1.372 . S
C78 C79 1.404 . S
C79 C78 1.404 . S
C79 C80 1.391 . S
C80 H74 0.930 . S
C80 C76 1.429 . S
C80 C79 1.391 . S
H81 C84 0.931 . S
H82 C87 0.928 . S
H83 C89 0.930 . S
C84 H81 0.931 . S
C84 C85 1.413 . S
C84 C86 1.360 . S
C85 C84 1.413 . S
C85 C89 1.429 . S
C86 C84 1.360 . S
C86 C87 1.372 . S
C87 H82 0.928 . S
C87 C86 1.372 . S
C87 C88 1.404 . S
C88 C87 1.404 . S
C88 C89 1.391 . S
C89 H83 0.930 . S
C89 C85 1.429 . S
C89 C88 1.391 . S
H90 C93 0.931 . S
H91 C96 0.928 . S
H92 C98 0.930 . S
C93 H90 0.931 . S
C93 C94 1.413 . S
C93 C95 1.360 . S
C94 C93 1.413 . S
C94 C98 1.429 . S
C95 C93 1.360 . S
C95 C96 1.372 . S
C96 H91 0.928 . S
C96 C95 1.372 . S
C96 C97 1.404 . S
C97 C96 1.404 . S
C97 C98 1.391 . S
C98 H92 0.930 . S
C98 C94 1.429 . S
C98 C97 1.391 . S
H99 C102 0.931 . S
H100 C105 0.928 . S
H101 C107 0.930 . S
C102 H99 0.931 . S
C102 C103 1.413 . S
C102 C104 1.360 . S
C103 C102 1.413 . S
C103 C107 1.429 . S
C104 C102 1.360 . S
C104 C105 1.372 . S
C105 H100 0.928 . S
C105 C104 1.372 . S
C105 C106 1.404 . S
C106 C105 1.404 . S
C106 C107 1.391 . S
C107 H101 0.930 . S
C107 C103 1.429 . S
C107 C106 1.391 . S
H108 C111 0.931 . S
H109 C114 0.928 . S
H110 C116 0.930 . S
C111 H108 0.931 . S
C111 C112 1.413 . S
C111 C113 1.360 . S
C112 C111 1.413 . S
C112 C116 1.429 . S
C113 C111 1.360 . S
C113 C114 1.372 . S
C114 H109 0.928 . S
C114 C113 1.372 . S
C114 C115 1.404 . S
C115 C114 1.404 . S
C115 C116 1.391 . S
C116 H110 0.930 . S
C116 C112 1.429 . S
C116 C115 1.391 . S
H117 C120 0.931 . S
H118 C123 0.928 . S
H119 C125 0.930 . S
C120 H117 0.931 . S
C120 C121 1.413 . S
C120 C122 1.360 . S
C121 C120 1.413 . S
C121 C125 1.429 . S
C122 C120 1.360 . S
C122 C123 1.372 . S
C123 H118 0.928 . S
C123 C122 1.372 . S
C123 C124 1.404 . S
C124 C123 1.404 . S
C124 C125 1.391 . S
C125 H119 0.930 . S
C125 C121 1.429 . S
C125 C124 1.391 . S
H126 C129 0.931 . S
H127 C132 0.928 . S
H128 C134 0.930 . S
C129 H126 0.931 . S
C129 C130 1.413 . S
C129 C131 1.360 . S
C130 C129 1.413 . S
C130 C134 1.429 . S
C131 C129 1.360 . S
C131 C132 1.372 . S
C132 H127 0.928 . S
C132 C131 1.372 . S
C132 C133 1.404 . S
C133 C132 1.404 . S
C133 C134 1.391 . S
C134 H128 0.930 . S
C134 C130 1.429 . S
C134 C133 1.391 . S
H135 C138 0.931 . S
H136 C141 0.928 . S
H137 C143 0.930 . S
C138 H135 0.931 . S
C138 C139 1.413 . S
C138 C140 1.360 . S
C139 C138 1.413 . S
C139 C143 1.429 . S
C140 C138 1.360 . S
C140 C141 1.372 . S
C141 H136 0.928 . S
C141 C140 1.372 . S
C141 C142 1.404 . S
C142 C141 1.404 . S
C142 C143 1.391 . S
C143 H137 0.930 . S
C143 C139 1.429 . S
C143 C142 1.391 . S
H144 C147 0.931 . S
H145 C150 0.928 . S
H146 C152 0.930 . S
C147 H144 0.931 . S
C147 C148 1.413 . S
C147 C149 1.360 . S
C148 C147 1.413 . S
C148 C152 1.429 . S
C149 C147 1.360 . S
C149 C150 1.372 . S
C150 H145 0.928 . S
C150 C149 1.372 . S
C150 C151 1.404 . S
C151 C150 1.404 . S
C151 C152 1.391 . S
C152 H146 0.930 . S
C152 C148 1.429 . S
C152 C151 1.391 . S
H153 C156 0.931 . S
H154 C159 0.928 . S
H155 C161 0.930 . S
C156 H153 0.931 . S
C156 C157 1.413 . S
C156 C158 1.360 . S
C157 C156 1.413 . S
C157 C161 1.429 . S
C158 C156 1.360 . S
C158 C159 1.372 . S
C159 H154 0.928 . S
C159 C158 1.372 . S
C159 C160 1.404 . S
C160 C159 1.404 . S
C160 C161 1.391 . S
C161 H155 0.930 . S
C161 C157 1.429 . S
C161 C160 1.391 . S
Tb162 O165 2.453 . S
Tb162 O166 2.596 1_545 S
Tb162 O167 2.374 1_545 S
Tb162 O175 2.343 1_554 S
Tb162 O177 2.353 . S
Tb162 O179 2.427 1_554 S
Tb162 O180 2.513 1_554 S
C163 O167 1.251 . S
C163 O169 1.263 . S
Tb164 O166 2.343 1_556 S
Tb164 O169 2.353 1_556 S
Tb164 O172 2.427 1_556 S
Tb164 O173 2.513 1_556 S
Tb164 O174 2.453 . S
Tb164 O175 2.596 1_565 S
Tb164 O176 2.374 1_565 S
O165 Tb162 2.453 . S
O165 C181 1.245 . S
O166 Tb162 2.596 1_565 S
O166 Tb164 2.343 1_554 S
O166 C181 1.259 1_565 S
O167 Tb162 2.374 1_565 S
O167 C163 1.251 . S
C168 O172 1.275 . S
C168 O173 1.246 . S
O169 C163 1.263 . S
O169 Tb164 2.353 1_554 S
C170 O174 1.263 . S
C170 O175 1.256 1_565 S
C171 O176 1.250 . S
C171 O177 1.263 1_556 S
O172 Tb164 2.427 1_554 S
O172 C168 1.275 . S
O173 Tb164 2.513 1_554 S
O173 C168 1.246 . S
O174 Tb164 2.453 . S
O174 C170 1.263 . S
O175 Tb162 2.343 1_556 S
O175 Tb164 2.596 1_545 S
O175 C170 1.256 1_545 S
O176 Tb164 2.374 1_545 S
O176 C171 1.250 . S
O177 Tb162 2.353 . S
O177 C171 1.263 1_554 S
C178 O179 1.275 . S
C178 O180 1.246 . S
O179 Tb162 2.427 1_556 S
O179 C178 1.275 . S
O180 Tb162 2.513 1_556 S
O180 C178 1.246 . S
C181 O165 1.245 . S
C181 O166 1.259 1_545 S
Tb182 O185 2.453 . S
Tb182 O186 2.596 1_655 S
Tb182 O187 2.374 1_655 S
Tb182 O195 2.343 1_554 S
Tb182 O197 2.353 . S
Tb182 O199 2.427 1_554 S
Tb182 O200 2.513 1_554 S
C183 O187 1.251 . S
C183 O189 1.263 . S
Tb184 O186 2.343 1_556 S
Tb184 O189 2.353 1_556 S
Tb184 O192 2.427 1_556 S
Tb184 O193 2.513 1_556 S
Tb184 O194 2.453 . S
Tb184 O195 2.596 1_455 S
Tb184 O196 2.374 1_455 S
O185 Tb182 2.453 . S
O185 C201 1.245 1_655 S
O186 Tb182 2.596 1_455 S
O186 Tb184 2.343 1_554 S
O186 C201 1.259 . S
O187 Tb182 2.374 1_455 S
O187 C183 1.251 . S
C188 O192 1.275 . S
C188 O193 1.246 . S
O189 C183 1.263 . S
O189 Tb184 2.353 1_554 S
C190 O194 1.245 . S
C190 O195 1.259 1_455 S
C191 O196 1.250 . S
C191 O197 1.263 1_556 S
O192 Tb184 2.427 1_554 S
O192 C188 1.275 . S
O193 Tb184 2.513 1_554 S
O193 C188 1.246 . S
O194 Tb184 2.453 . S
O194 C190 1.245 . S
O195 Tb182 2.343 1_556 S
O195 Tb184 2.596 1_655 S
O195 C190 1.259 1_655 S
O196 Tb184 2.374 1_655 S
O196 C191 1.250 . S
O197 Tb182 2.353 . S
O197 C191 1.263 1_554 S
C198 O199 1.275 . S
C198 O200 1.246 . S
O199 Tb182 2.427 1_556 S
O199 C198 1.275 . S
O200 Tb182 2.513 1_556 S
O200 C198 1.246 . S
C201 O185 1.245 1_455 S
C201 O186 1.259 . S
Tb202 O205 2.453 . S
Tb202 O206 2.596 . S
Tb202 O207 2.374 . S
Tb202 O215 2.343 1_556 S
Tb202 O217 2.353 1_556 S
Tb202 O219 2.427 1_556 S
Tb202 O220 2.513 1_556 S
C203 O207 1.251 . S
C203 O209 1.263 1_556 S
Tb204 O206 2.343 1_554 S
Tb204 O209 2.353 . S
Tb204 O212 2.427 1_554 S
Tb204 O213 2.513 1_554 S
Tb204 O214 2.453 . S
Tb204 O215 2.596 . S
Tb204 O216 2.374 . S
O205 Tb202 2.453 . S
O205 C221 1.245 . S
O206 Tb202 2.596 . S
O206 Tb204 2.343 1_556 S
O206 C221 1.259 . S
O207 Tb202 2.374 . S
O207 C203 1.251 . S
C208 O212 1.275 . S
C208 O213 1.246 . S
O209 C203 1.263 1_554 S
O209 Tb204 2.353 . S
C210 O214 1.245 . S
C210 O215 1.259 . S
C211 O216 1.250 . S
C211 O217 1.263 . S
O212 Tb204 2.427 1_556 S
O212 C208 1.275 . S
O213 Tb204 2.513 1_556 S
O213 C208 1.246 . S
O214 Tb204 2.453 . S
O214 C210 1.245 . S
O215 Tb202 2.343 1_554 S
O215 Tb204 2.596 . S
O215 C210 1.259 . S
O216 Tb204 2.374 . S
O216 C211 1.250 . S
O217 Tb202 2.353 1_554 S
O217 C211 1.263 . S
C218 O219 1.275 . S
C218 O220 1.246 . S
O219 Tb202 2.427 1_554 S
O219 C218 1.275 . S
O220 Tb202 2.513 1_554 S
O220 C218 1.246 . S
C221 O205 1.245 . S
C221 O206 1.259 . S
Tb222 O225 2.453 . S
Tb222 O226 2.596 . S
Tb222 O227 2.374 . S
Tb222 O235 2.343 . S
Tb222 O237 2.353 . S
Tb222 O239 2.427 . S
Tb222 O240 2.513 . S
C223 O227 1.251 . S
C223 O229 1.263 . S
Tb224 O226 2.343 . S
Tb224 O229 2.353 . S
Tb224 O232 2.427 . S
Tb224 O233 2.513 . S
Tb224 O234 2.453 . S
Tb224 O235 2.596 . S
Tb224 O236 2.374 . S
O225 Tb222 2.453 . S
O225 C241 1.245 . S
O226 Tb222 2.596 . S
O226 Tb224 2.343 . S
O226 C241 1.259 . S
O227 Tb222 2.374 . S
O227 C223 1.251 . S
C228 O232 1.275 . S
C228 O233 1.246 . S
O229 C223 1.263 . S
O229 Tb224 2.353 . S
C230 O234 1.245 . S
C230 O235 1.259 . S
C231 O236 1.250 . S
C231 O237 1.263 . S
O232 Tb224 2.427 . S
O232 C228 1.275 . S
O233 Tb224 2.513 . S
O233 C228 1.246 . S
O234 Tb224 2.453 . S
O234 C230 1.245 . S
O235 Tb222 2.343 . S
O235 Tb224 2.596 . S
O235 C230 1.259 . S
O236 Tb224 2.374 . S
O236 C231 1.250 . S
O237 Tb222 2.353 . S
O237 C231 1.263 . S
C238 O239 1.275 . S
C238 O240 1.246 . S
O239 Tb222 2.427 . S
O239 C238 1.275 . S
O240 Tb222 2.513 . S
O240 C238 1.246 . S
C241 O225 1.245 . S
C241 O226 1.259 . S
Tb242 O245 2.453 . S
Tb242 O246 2.596 . S
Tb242 O247 2.374 . S
Tb242 O255 2.343 . S
Tb242 O257 2.353 . S
Tb242 O259 2.427 . S
Tb242 O260 2.513 . S
C243 O247 1.251 . S
C243 O249 1.263 . S
Tb244 O246 2.343 . S
Tb244 O249 2.353 . S
Tb244 O252 2.427 . S
Tb244 O253 2.513 . S
Tb244 O254 2.453 . S
Tb244 O255 2.596 . S
Tb244 O256 2.374 . S
O245 Tb242 2.453 . S
O245 C261 1.245 . S
O246 Tb242 2.596 . S
O246 Tb244 2.343 . S
O246 C261 1.259 . S
O247 Tb242 2.374 . S
O247 C243 1.251 . S
C248 O252 1.275 . S
C248 O253 1.246 . S
O249 C243 1.263 . S
O249 Tb244 2.353 . S
C250 O254 1.245 . S
C250 O255 1.259 . S
C251 O256 1.250 . S
C251 O257 1.263 . S
O252 Tb244 2.427 . S
O252 C248 1.275 . S
O253 Tb244 2.513 . S
O253 C248 1.246 . S
O254 Tb244 2.453 . S
O254 C250 1.245 . S
O255 Tb242 2.343 . S
O255 Tb244 2.596 . S
O255 C250 1.259 . S
O256 Tb244 2.374 . S
O256 C251 1.250 . S
O257 Tb242 2.353 . S
O257 C251 1.263 . S
C258 O259 1.275 . S
C258 O260 1.246 . S
O259 Tb242 2.427 . S
O259 C258 1.275 . S
O260 Tb242 2.513 . S
O260 C258 1.246 . S
C261 O245 1.245 . S
C261 O246 1.259 . S
Tb262 O265 2.453 . S
Tb262 O266 2.596 . S
Tb262 O267 2.374 . S
Tb262 O275 2.343 . S
Tb262 O277 2.353 . S
Tb262 O279 2.427 . S
Tb262 O280 2.513 . S
C263 O267 1.251 . S
C263 O269 1.263 . S
Tb264 O266 2.343 . S
Tb264 O269 2.353 . S
Tb264 O272 2.427 . S
Tb264 O273 2.513 . S
Tb264 O274 2.453 . S
Tb264 O275 2.596 . S
Tb264 O276 2.374 . S
O265 Tb262 2.453 . S
O265 C281 1.245 . S
O266 Tb262 2.596 . S
O266 Tb264 2.343 . S
O266 C281 1.259 . S
O267 Tb262 2.374 . S
O267 C263 1.251 . S
C268 O272 1.275 . S
C268 O273 1.246 . S
O269 C263 1.263 . S
O269 Tb264 2.353 . S
C270 O274 1.245 . S
C270 O275 1.259 . S
C271 O276 1.250 . S
C271 O277 1.263 . S
O272 Tb264 2.427 . S
O272 C268 1.275 . S
O273 Tb264 2.513 . S
O273 C268 1.246 . S
O274 Tb264 2.453 . S
O274 C270 1.245 . S
O275 Tb262 2.343 . S
O275 Tb264 2.596 . S
O275 C270 1.259 . S
O276 Tb264 2.374 . S
O276 C271 1.250 . S
O277 Tb262 2.353 . S
O277 C271 1.263 . S
C278 O279 1.275 . S
C278 O280 1.246 . S
O279 Tb262 2.427 . S
O279 C278 1.275 . S
O280 Tb262 2.513 . S
O280 C278 1.246 . S
C281 O265 1.245 . S
C281 O266 1.259 . S
Tb282 O285 2.453 . S
Tb282 O286 2.596 . S
Tb282 O287 2.374 . S
Tb282 O295 2.343 . S
Tb282 O297 2.353 . S
Tb282 O299 2.427 . S
Tb282 O300 2.513 . S
C283 O287 1.251 . S
C283 O289 1.263 . S
Tb284 O286 2.343 . S
Tb284 O289 2.353 . S
Tb284 O292 2.427 . S
Tb284 O293 2.513 . S
Tb284 O294 2.453 . S
Tb284 O295 2.596 . S
Tb284 O296 2.374 . S
O285 Tb282 2.453 . S
O285 C301 1.245 . S
O286 Tb282 2.596 . S
O286 Tb284 2.343 . S
O286 C301 1.259 . S
O287 Tb282 2.374 . S
O287 C283 1.251 . S
C288 O292 1.275 . S
C288 O293 1.246 . S
O289 C283 1.263 . S
O289 Tb284 2.353 . S
C290 O294 1.245 . S
C290 O295 1.259 . S
C291 O296 1.250 . S
C291 O297 1.263 . S
O292 Tb284 2.427 . S
O292 C288 1.275 . S
O293 Tb284 2.513 . S
O293 C288 1.246 . S
O294 Tb284 2.453 . S
O294 C290 1.245 . S
O295 Tb282 2.343 . S
O295 Tb284 2.596 . S
O295 C290 1.259 . S
O296 Tb284 2.374 . S
O296 C291 1.250 . S
O297 Tb282 2.353 . S
O297 C291 1.263 . S
C298 O299 1.275 . S
C298 O300 1.246 . S
O299 Tb282 2.427 . S
O299 C298 1.275 . S
O300 Tb282 2.513 . S
O300 C298 1.246 . S
C301 O285 1.245 . S
C301 O286 1.259 . S
Tb302 O305 2.453 . S
Tb302 O306 2.596 . S
Tb302 O307 2.374 . S
Tb302 O315 2.343 . S
Tb302 O317 2.353 . S
Tb302 O319 2.427 . S
Tb302 O320 2.513 . S
C303 O307 1.251 . S
C303 O309 1.263 . S
Tb304 O306 2.343 . S
Tb304 O309 2.353 . S
Tb304 O312 2.427 . S
Tb304 O313 2.513 . S
Tb304 O314 2.453 . S
Tb304 O315 2.596 . S
Tb304 O316 2.374 . S
O305 Tb302 2.453 . S
O305 C321 1.245 . S
O306 Tb302 2.596 . S
O306 Tb304 2.343 . S
O306 C321 1.259 . S
O307 Tb302 2.374 . S
O307 C303 1.251 . S
C308 O312 1.275 . S
C308 O313 1.246 . S
O309 C303 1.263 . S
O309 Tb304 2.353 . S
C310 O314 1.245 . S
C310 O315 1.259 . S
C311 O316 1.250 . S
C311 O317 1.263 . S
O312 Tb304 2.427 . S
O312 C308 1.275 . S
O313 Tb304 2.513 . S
O313 C308 1.246 . S
O314 Tb304 2.453 . S
O314 C310 1.245 . S
O315 Tb302 2.343 . S
O315 Tb304 2.596 . S
O315 C310 1.259 . S
O316 Tb304 2.374 . S
O316 C311 1.250 . S
O317 Tb302 2.353 . S
O317 C311 1.263 . S
C318 O319 1.275 . S
C318 O320 1.246 . S
O319 Tb302 2.427 . S
O319 C318 1.275 . S
O320 Tb302 2.513 . S
O320 C318 1.246 . S
C321 O305 1.245 . S
C321 O306 1.259 . S
Tb322 O325 2.453 . S
Tb322 O326 2.596 . S
Tb322 O327 2.374 . S
Tb322 O335 2.343 . S
Tb322 O337 2.353 . S
Tb322 O339 2.427 . S
Tb322 O340 2.513 . S
C323 O327 1.251 . S
C323 O329 1.263 . S
Tb324 O326 2.343 . S
Tb324 O329 2.353 . S
Tb324 O332 2.427 . S
Tb324 O333 2.513 . S
Tb324 O334 2.453 . S
Tb324 O335 2.596 . S
Tb324 O336 2.374 . S
O325 Tb322 2.453 . S
O325 C341 1.245 . S
O326 Tb322 2.596 . S
O326 Tb324 2.343 . S
O326 C341 1.259 . S
O327 Tb322 2.374 . S
O327 C323 1.251 . S
C328 O332 1.275 . S
C328 O333 1.246 . S
O329 C323 1.263 . S
O329 Tb324 2.353 . S
C330 O334 1.245 . S
C330 O335 1.259 . S
C331 O336 1.250 . S
C331 O337 1.263 . S
O332 Tb324 2.427 . S
O332 C328 1.275 . S
O333 Tb324 2.513 . S
O333 C328 1.246 . S
O334 Tb324 2.453 . S
O334 C330 1.245 . S
O335 Tb322 2.343 . S
O335 Tb324 2.596 . S
O335 C330 1.259 . S
O336 Tb324 2.374 . S
O336 C331 1.250 . S
O337 Tb322 2.353 . S
O337 C331 1.263 . S
C338 O339 1.275 . S
C338 O340 1.246 . S
O339 Tb322 2.427 . S
O339 C338 1.275 . S
O340 Tb322 2.513 . S
O340 C338 1.246 . S
C341 O325 1.245 . S
C341 O326 1.259 . S
H342 C360 0.951 . S
H343 C362 0.951 . S
H344 C364 0.950 . S
H345 C365 0.950 . S
H346 C367 0.950 . S
H347 C370 0.950 . S
H348 C371 0.950 . S
H349 C373 0.950 . S
H350 C374 0.950 . S
H351 C375 0.951 . S
H352 C377 0.951 . S
H353 C379 0.950 . S
H354 C380 0.950 . S
H355 C382 0.950 . S
H356 C385 0.950 . S
H357 C386 0.950 . S
H358 C388 0.950 . S
H359 C389 0.950 . S
C360 H342 0.951 . S
C360 C361 1.366 . S
C360 C362 1.388 . S
C361 C360 1.366 . S
C361 C365 1.385 . S
C362 H343 0.951 . S
C362 C360 1.388 . S
C362 C363 1.366 . S
C363 C362 1.366 . S
C363 C364 1.414 . S
C363 C366 1.499 . S
C364 H344 0.950 . S
C364 C363 1.414 . S
C364 C365 1.374 . S
C365 H345 0.950 . S
C365 C361 1.385 . S
C365 C364 1.374 . S
C366 C363 1.499 . S
C366 C367 1.373 . S
C366 C368 1.389 . S
C367 H346 0.950 . S
C367 C366 1.373 . S
C367 C383 1.377 . S
C368 C366 1.389 . S
C368 C369 1.524 . S
C368 C382 1.377 . S
C369 C368 1.524 . S
C369 C370 1.397 . S
C369 C374 1.363 . S
C370 H347 0.950 . S
C370 C369 1.397 . S
C370 C371 1.334 . S
C371 H348 0.950 . S
C371 C370 1.334 . S
C371 C372 1.287 . S
C372 C371 1.287 . S
C372 C373 1.524 . S
C372 H391 0.913 . S
C373 H349 0.950 . S
C373 C372 1.524 . S
C373 C374 1.415 . S
C374 H350 0.950 . S
C374 C369 1.363 . S
C374 C373 1.415 . S
C375 H351 0.951 . S
C375 C376 1.366 . S
C375 C377 1.388 . S
C376 C375 1.366 . S
C376 C380 1.385 . S
C377 H352 0.951 . S
C377 C375 1.388 . S
C377 C378 1.366 . S
C378 C377 1.366 . S
C378 C379 1.414 . S
C378 C381 1.499 . S
C379 H353 0.950 . S
C379 C378 1.414 . S
C379 C380 1.374 . S
C380 H354 0.950 . S
C380 C376 1.385 . S
C380 C379 1.374 . S
C381 C378 1.499 . S
C381 C382 1.373 . S
C381 C383 1.389 . S
C382 H355 0.950 . S
C382 C368 1.377 . S
C382 C381 1.373 . S
C383 C367 1.377 . S
C383 C381 1.389 . S
C383 C384 1.524 . S
C384 C383 1.524 . S
C384 C385 1.397 . S
C384 C389 1.363 . S
C385 H356 0.950 . S
C385 C384 1.397 . S
C385 C386 1.334 1_554 S
C386 H357 0.950 . S
C386 C385 1.334 1_556 S
C386 C387 1.287 . S
C387 C386 1.287 . S
C387 C388 1.524 . S
C387 H390 0.999 . S
C388 H358 0.950 . S
C388 C387 1.524 . S
C388 C389 1.415 1_556 S
C389 H359 0.950 . S
C389 C384 1.363 . S
C389 C388 1.415 1_554 S
H390 C387 0.999 . S
H391 C372 0.913 . S
H392 C410 0.951 . S
H393 C412 0.951 . S
H394 C414 0.950 . S
H395 C415 0.950 . S
H396 C417 0.950 . S
H397 C420 0.950 . S
H398 C421 0.950 . S
H399 C423 0.950 . S
H400 C424 0.950 . S
H401 C425 0.951 . S
H402 C427 0.951 . S
H403 C429 0.950 . S
H404 C430 0.950 . S
H405 C432 0.950 . S
H406 C435 0.950 . S
H407 C436 0.950 1_556 S
H408 C438 0.950 . S
H409 C439 0.950 . S
C410 H392 0.951 . S
C410 C411 1.366 . S
C410 C412 1.388 . S
C411 C410 1.366 . S
C411 C415 1.385 . S
C412 H393 0.951 . S
C412 C410 1.388 . S
C412 C413 1.366 . S
C413 C412 1.366 . S
C413 C414 1.414 . S
C413 C416 1.499 . S
C414 H394 0.950 . S
C414 C413 1.414 . S
C414 C415 1.374 . S
C415 H395 0.950 . S
C415 C411 1.385 . S
C415 C414 1.374 . S
C416 C413 1.499 . S
C416 C417 1.373 . S
C416 C418 1.389 . S
C417 H396 0.950 . S
C417 C416 1.373 . S
C417 C433 1.377 . S
C418 C416 1.389 . S
C418 C419 1.524 . S
C418 C432 1.377 . S
C419 C418 1.524 . S
C419 C420 1.397 . S
C419 C424 1.363 . S
C420 H397 0.950 . S
C420 C419 1.397 . S
C420 C421 1.334 . S
C421 H398 0.950 . S
C421 C420 1.334 . S
C421 C422 1.287 . S
C422 C421 1.287 . S
C422 C423 1.524 . S
C422 H441 0.913 . S
C423 H399 0.950 . S
C423 C422 1.524 . S
C423 C424 1.415 . S
C424 H400 0.950 . S
C424 C419 1.363 . S
C424 C423 1.415 . S
C425 H401 0.951 . S
C425 C426 1.366 . S
C425 C427 1.388 . S
C426 C425 1.366 . S
C426 C430 1.385 . S
C427 H402 0.951 . S
C427 C425 1.388 . S
C427 C428 1.366 . S
C428 C427 1.366 . S
C428 C429 1.414 . S
C428 C431 1.499 . S
C429 H403 0.950 . S
C429 C428 1.414 . S
C429 C430 1.374 . S
C430 H404 0.950 . S
C430 C426 1.385 . S
C430 C429 1.374 . S
C431 C428 1.499 . S
C431 C432 1.373 . S
C431 C433 1.389 . S
C432 H405 0.950 . S
C432 C418 1.377 . S
C432 C431 1.373 . S
C433 C417 1.377 . S
C433 C431 1.389 . S
C433 C434 1.524 . S
C434 C433 1.524 . S
C434 C435 1.397 . S
C434 C439 1.363 . S
C435 H406 0.950 . S
C435 C434 1.397 . S
C435 C436 1.334 . S
C436 H407 0.950 1_554 S
C436 C435 1.334 . S
C436 C437 1.287 1_554 S
C437 C436 1.287 1_556 S
C437 C438 1.524 1_556 S
C437 H440 0.999 . S
C438 H408 0.950 . S
C438 C437 1.524 1_554 S
C438 C439 1.415 . S
C439 H409 0.950 . S
C439 C434 1.363 . S
C439 C438 1.415 . S
H440 C437 0.999 . S
H441 C422 0.913 . S
H442 C460 0.951 . S
H443 C462 0.951 . S
H444 C464 0.950 . S
H445 C465 0.950 . S
H446 C467 0.950 . S
H447 C470 0.950 . S
H448 C471 0.950 . S
H449 C473 0.950 . S
H450 C474 0.950 . S
H451 C475 0.951 . S
H452 C477 0.951 . S
H453 C479 0.950 . S
H454 C480 0.950 . S
H455 C482 0.950 . S
H456 C485 0.950 . S
H457 C486 0.950 . S
H458 C488 0.950 . S
H459 C489 0.950 . S
C460 H442 0.951 . S
C460 C461 1.366 . S
C460 C462 1.388 . S
C461 C460 1.366 . S
C461 C465 1.385 . S
C462 H443 0.951 . S
C462 C460 1.388 . S
C462 C463 1.366 . S
C463 C462 1.366 . S
C463 C464 1.414 . S
C463 C466 1.499 . S
C464 H444 0.950 . S
C464 C463 1.414 . S
C464 C465 1.374 . S
C465 H445 0.950 . S
C465 C461 1.385 . S
C465 C464 1.374 . S
C466 C463 1.499 . S
C466 C467 1.373 . S
C466 C468 1.389 . S
C467 H446 0.950 . S
C467 C466 1.373 . S
C467 C483 1.377 . S
C468 C466 1.389 . S
C468 C469 1.524 . S
C468 C482 1.377 . S
C469 C468 1.524 . S
C469 C470 1.397 . S
C469 C474 1.363 . S
C470 H447 0.950 . S
C470 C469 1.397 . S
C470 C471 1.334 . S
C471 H448 0.950 . S
C471 C470 1.334 . S
C471 C472 1.287 . S
C472 C471 1.287 . S
C472 C473 1.524 . S
C472 H491 0.913 . S
C473 H449 0.950 . S
C473 C472 1.524 . S
C473 C474 1.415 . S
C474 H450 0.950 . S
C474 C469 1.363 . S
C474 C473 1.415 . S
C475 H451 0.951 . S
C475 C476 1.366 . S
C475 C477 1.388 . S
C476 C475 1.366 . S
C476 C480 1.385 . S
C477 H452 0.951 . S
C477 C475 1.388 . S
C477 C478 1.366 . S
C478 C477 1.366 . S
C478 C479 1.414 . S
C478 C481 1.499 . S
C479 H453 0.950 . S
C479 C478 1.414 . S
C479 C480 1.374 . S
C480 H454 0.950 . S
C480 C476 1.385 . S
C480 C479 1.374 . S
C481 C478 1.499 . S
C481 C482 1.373 . S
C481 C483 1.389 . S
C482 H455 0.950 . S
C482 C468 1.377 . S
C482 C481 1.373 . S
C483 C467 1.377 . S
C483 C481 1.389 . S
C483 C484 1.524 . S
C484 C483 1.524 . S
C484 C485 1.397 . S
C484 C489 1.363 . S
C485 H456 0.950 . S
C485 C484 1.397 . S
C485 C486 1.334 . S
C486 H457 0.950 . S
C486 C485 1.334 . S
C486 C487 1.287 . S
C487 C486 1.287 . S
C487 C488 1.524 . S
C487 H490 0.999 . S
C488 H458 0.950 . S
C488 C487 1.524 . S
C488 C489 1.415 . S
C489 H459 0.950 . S
C489 C484 1.363 . S
C489 C488 1.415 . S
H490 C487 0.999 . S
H491 C472 0.913 . S
H492 C510 0.951 . S
H493 C512 0.951 . S
H494 C514 0.950 . S
H495 C515 0.950 . S
H496 C517 0.950 . S
H497 C520 0.950 . S
H498 C521 0.950 . S
H499 C523 0.950 . S
H500 C524 0.950 . S
H501 C525 0.951 . S
H502 C527 0.951 . S
H503 C529 0.950 . S
H504 C530 0.950 . S
H505 C532 0.950 . S
H506 C535 0.947 1_554 S
H507 C536 0.950 . S
H508 C538 0.950 . S
H509 C539 0.950 . S
C510 H492 0.951 . S
C510 C511 1.366 . S
C510 C512 1.388 . S
C511 C510 1.366 . S
C511 C515 1.385 . S
C512 H493 0.951 . S
C512 C510 1.388 . S
C512 C513 1.366 . S
C513 C512 1.366 . S
C513 C514 1.414 . S
C513 C516 1.499 . S
C514 H494 0.950 . S
C514 C513 1.414 . S
C514 C515 1.374 . S
C515 H495 0.950 . S
C515 C511 1.385 . S
C515 C514 1.374 . S
C516 C513 1.499 . S
C516 C517 1.373 . S
C516 C518 1.389 . S
C517 H496 0.950 . S
C517 C516 1.373 . S
C517 C533 1.377 . S
C518 C516 1.389 . S
C518 C519 1.524 . S
C518 C532 1.377 . S
C519 C518 1.524 . S
C519 C520 1.397 . S
C519 C524 1.363 . S
C520 H497 0.950 . S
C520 C519 1.397 . S
C520 C521 1.334 . S
C521 H498 0.950 . S
C521 C520 1.334 . S
C521 C522 1.287 . S
C522 C521 1.287 . S
C522 C523 1.524 . S
C522 H541 0.913 . S
C523 H499 0.950 . S
C523 C522 1.524 . S
C523 C524 1.415 . S
C524 H500 0.950 . S
C524 C519 1.363 . S
C524 C523 1.415 . S
C525 H501 0.951 . S
C525 C526 1.366 . S
C525 C527 1.388 . S
C526 C525 1.366 . S
C526 C530 1.385 . S
C527 H502 0.951 . S
C527 C525 1.388 . S
C527 C528 1.366 . S
C528 C527 1.366 . S
C528 C529 1.414 . S
C528 C531 1.499 . S
C529 H503 0.950 . S
C529 C528 1.414 . S
C529 C530 1.374 . S
C530 H504 0.950 . S
C530 C526 1.385 . S
C530 C529 1.374 . S
C531 C528 1.499 . S
C531 C532 1.373 . S
C531 C533 1.389 . S
C532 H505 0.950 . S
C532 C518 1.377 . S
C532 C531 1.373 . S
C533 C517 1.377 . S
C533 C531 1.389 . S
C533 C534 1.524 . S
C534 C533 1.524 . S
C534 C535 1.397 . S
C534 C539 1.363 . S
C535 H506 0.947 1_556 S
C535 C534 1.397 . S
C535 C536 1.334 1_556 S
C536 H507 0.950 . S
C536 C535 1.334 1_554 S
C536 C537 1.287 . S
C537 C536 1.287 . S
C537 C538 1.524 1_554 S
C537 H540 0.999 . S
C538 H508 0.950 . S
C538 C537 1.524 1_556 S
C538 C539 1.415 . S
C539 H509 0.950 . S
C539 C534 1.363 . S
C539 C538 1.415 . S
H540 C537 0.999 . S
H541 C522 0.913 . S
H542 C560 0.951 . S
H543 C562 0.951 . S
H544 C564 0.950 . S
H545 C565 0.950 . S
H546 C567 0.950 . S
H547 C570 0.950 . S
H548 C571 0.950 . S
H549 C573 0.950 . S
H550 C574 0.950 . S
H551 C575 0.951 . S
H552 C577 0.951 . S
H553 C579 0.950 . S
H554 C580 0.950 . S
H555 C582 0.950 . S
H556 C585 0.950 . S
H557 C586 0.950 . S
H558 C588 0.950 . S
H559 C589 0.950 . S
C560 H542 0.951 . S
C560 C561 1.366 . S
C560 C562 1.388 . S
C561 C560 1.366 . S
C561 C565 1.385 . S
C562 H543 0.951 . S
C562 C560 1.388 . S
C562 C563 1.366 . S
C563 C562 1.366 . S
C563 C564 1.414 . S
C563 C566 1.499 . S
C564 H544 0.950 . S
C564 C563 1.414 . S
C564 C565 1.374 . S
C565 H545 0.950 . S
C565 C561 1.385 . S
C565 C564 1.374 . S
C566 C563 1.499 . S
C566 C567 1.373 . S
C566 C568 1.389 . S
C567 H546 0.950 . S
C567 C566 1.373 . S
C567 C583 1.377 . S
C568 C566 1.389 . S
C568 C569 1.524 . S
C568 C582 1.377 . S
C569 C568 1.524 . S
C569 C570 1.397 . S
C569 C574 1.363 . S
C570 H547 0.950 . S
C570 C569 1.397 . S
C570 C571 1.334 . S
C571 H548 0.950 . S
C571 C570 1.334 . S
C571 C572 1.287 . S
C572 C571 1.287 . S
C572 C573 1.524 . S
C572 H591 0.913 . S
C573 H549 0.950 . S
C573 C572 1.524 . S
C573 C574 1.415 . S
C574 H550 0.950 . S
C574 C569 1.363 . S
C574 C573 1.415 . S
C575 H551 0.951 . S
C575 C576 1.366 . S
C575 C577 1.388 . S
C576 C575 1.366 . S
C576 C580 1.385 . S
C577 H552 0.951 . S
C577 C575 1.388 . S
C577 C578 1.366 . S
C578 C577 1.366 . S
C578 C579 1.414 . S
C578 C581 1.499 . S
C579 H553 0.950 . S
C579 C578 1.414 . S
C579 C580 1.374 . S
C580 H554 0.950 . S
C580 C576 1.385 . S
C580 C579 1.374 . S
C581 C578 1.499 . S
C581 C582 1.373 . S
C581 C583 1.389 . S
C582 H555 0.950 . S
C582 C568 1.377 . S
C582 C581 1.373 . S
C583 C567 1.377 . S
C583 C581 1.389 . S
C583 C584 1.524 . S
C584 C583 1.524 . S
C584 C585 1.397 . S
C584 C589 1.363 . S
C585 H556 0.950 . S
C585 C584 1.397 . S
C585 C586 1.334 . S
C586 H557 0.950 . S
C586 C585 1.334 . S
C586 C587 1.287 . S
C587 C586 1.287 . S
C587 C588 1.524 . S
C587 H590 0.999 . S
C588 H558 0.950 . S
C588 C587 1.524 . S
C588 C589 1.415 . S
C589 H559 0.950 . S
C589 C584 1.363 . S
C589 C588 1.415 . S
H590 C587 0.999 . S
H591 C572 0.913 . S
H592 C610 0.951 . S
H593 C612 0.951 . S
H594 C614 0.950 . S
H595 C615 0.950 . S
H596 C617 0.950 . S
H597 C620 0.950 . S
H598 C621 0.950 . S
H599 C623 0.950 . S
H600 C624 0.950 . S
H601 C625 0.951 1_554 S
H602 C627 0.951 . S
H603 C629 0.950 . S
H604 C630 0.950 . S
H605 C632 0.950 . S
H606 C635 0.950 1_556 S
H607 C636 0.950 . S
H608 C638 0.950 . S
H609 C639 0.950 . S
C610 H592 0.951 . S
C610 C611 1.366 . S
C610 C612 1.388 . S
C611 C610 1.366 . S
C611 C615 1.385 . S
C612 H593 0.951 . S
C612 C610 1.388 . S
C612 C613 1.366 . S
C613 C612 1.366 . S
C613 C614 1.414 . S
C613 C616 1.499 . S
C614 H594 0.950 . S
C614 C613 1.414 . S
C614 C615 1.374 . S
C615 H595 0.950 . S
C615 C611 1.385 . S
C615 C614 1.374 . S
C616 C613 1.499 . S
C616 C617 1.373 . S
C616 C618 1.389 . S
C617 H596 0.950 . S
C617 C616 1.373 . S
C617 C633 1.377 . S
C618 C616 1.389 . S
C618 C619 1.524 . S
C618 C632 1.377 . S
C619 C618 1.524 . S
C619 C620 1.397 . S
C619 C624 1.363 . S
C620 H597 0.950 . S
C620 C619 1.397 . S
C620 C621 1.334 . S
C621 H598 0.950 . S
C621 C620 1.334 . S
C621 C622 1.287 . S
C622 C621 1.287 . S
C622 C623 1.524 . S
C622 H641 0.913 . S
C623 H599 0.950 . S
C623 C622 1.524 . S
C623 C624 1.415 . S
C624 H600 0.950 . S
C624 C619 1.363 . S
C624 C623 1.415 . S
C625 H601 0.951 1_556 S
C625 C626 1.366 . S
C625 C627 1.388 . S
C626 C625 1.366 . S
C626 C630 1.385 . S
C627 H602 0.951 . S
C627 C625 1.388 . S
C627 C628 1.366 . S
C628 C627 1.366 . S
C628 C629 1.414 . S
C628 C631 1.499 . S
C629 H603 0.950 . S
C629 C628 1.414 . S
C629 C630 1.374 . S
C630 H604 0.950 . S
C630 C626 1.385 . S
C630 C629 1.374 . S
C631 C628 1.499 . S
C631 C632 1.373 . S
C631 C633 1.389 . S
C632 H605 0.950 . S
C632 C618 1.377 . S
C632 C631 1.373 . S
C633 C617 1.377 . S
C633 C631 1.389 . S
C633 C634 1.562 . S
C634 C633 1.562 . S
C634 C635 1.386 1_556 S
C634 C639 1.338 1_556 S
C635 H606 0.950 1_554 S
C635 C634 1.386 1_554 S
C635 C636 1.334 . S
C636 H607 0.950 . S
C636 C635 1.334 . S
C636 C637 1.287 . S
C637 C636 1.287 . S
C637 C638 1.524 . S
C637 H640 0.999 . S
C638 H608 0.950 . S
C638 C637 1.524 . S
C638 C639 1.415 . S
C639 H609 0.950 . S
C639 C634 1.338 1_554 S
C639 C638 1.415 . S
H640 C637 0.999 . S
H641 C622 0.913 . S
H642 C660 0.951 . S
H643 C662 0.951 . S
H644 C664 0.950 . S
H645 C665 0.950 . S
H646 C667 0.950 . S
H647 C670 0.950 . S
H648 C671 0.950 . S
H649 C673 0.950 . S
H650 C674 0.950 . S
H651 C675 0.951 . S
H652 C677 0.951 . S
H653 C679 0.950 . S
H654 C680 0.950 . S
H655 C682 0.950 . S
H656 C685 0.950 . S
H657 C686 0.950 . S
H658 C688 0.950 . S
H659 C689 0.950 . S
C660 H642 0.951 . S
C660 C661 1.366 . S
C660 C662 1.388 . S
C661 C660 1.366 . S
C661 C665 1.385 . S
C662 H643 0.951 . S
C662 C660 1.388 . S
C662 C663 1.366 . S
C663 C662 1.366 . S
C663 C664 1.414 . S
C663 C666 1.499 . S
C664 H644 0.950 . S
C664 C663 1.414 . S
C664 C665 1.374 . S
C665 H645 0.950 . S
C665 C661 1.385 . S
C665 C664 1.374 . S
C666 C663 1.499 . S
C666 C667 1.373 . S
C666 C668 1.389 . S
C667 H646 0.950 . S
C667 C666 1.373 . S
C667 C683 1.377 . S
C668 C666 1.389 . S
C668 C669 1.524 . S
C668 C682 1.377 . S
C669 C668 1.524 . S
C669 C670 1.397 . S
C669 C674 1.363 . S
C670 H647 0.950 . S
C670 C669 1.397 . S
C670 C671 1.334 . S
C671 H648 0.950 . S
C671 C670 1.334 . S
C671 C672 1.287 . S
C672 C671 1.287 . S
C672 C673 1.524 . S
C672 H691 0.913 . S
C673 H649 0.950 . S
C673 C672 1.524 . S
C673 C674 1.415 . S
C674 H650 0.950 . S
C674 C669 1.363 . S
C674 C673 1.415 . S
C675 H651 0.951 . S
C675 C676 1.366 . S
C675 C677 1.388 . S
C676 C675 1.366 . S
C676 C680 1.385 . S
C677 H652 0.951 . S
C677 C675 1.388 . S
C677 C678 1.366 . S
C678 C677 1.366 . S
C678 C679 1.414 . S
C678 C681 1.499 . S
C679 H653 0.950 . S
C679 C678 1.414 . S
C679 C680 1.374 . S
C680 H654 0.950 . S
C680 C676 1.385 . S
C680 C679 1.374 . S
C681 C678 1.499 . S
C681 C682 1.373 . S
C681 C683 1.389 . S
C682 H655 0.950 . S
C682 C668 1.377 . S
C682 C681 1.373 . S
C683 C667 1.377 . S
C683 C681 1.389 . S
C683 C684 1.524 . S
C684 C683 1.524 . S
C684 C685 1.397 . S
C684 C689 1.363 . S
C685 H656 0.950 . S
C685 C684 1.397 . S
C685 C686 1.334 1_556 S
C686 H657 0.950 . S
C686 C685 1.334 1_554 S
C686 C687 1.287 . S
C687 C686 1.287 . S
C687 C688 1.524 1_554 S
C687 H690 0.999 . S
C688 H658 0.950 . S
C688 C687 1.524 1_556 S
C688 C689 1.415 . S
C689 H659 0.950 . S
C689 C684 1.363 . S
C689 C688 1.415 . S
H690 C687 0.999 . S
H691 C672 0.913 . S
H692 C710 0.951 . S
H693 C712 0.951 . S
H694 C714 0.950 . S
H695 C715 0.950 . S
H696 C717 0.950 . S
H697 C720 0.950 . S
H698 C721 0.950 . S
H699 C723 0.950 . S
H700 C724 0.950 . S
H701 C725 0.951 . S
H702 C727 0.951 . S
H703 C729 0.950 . S
H704 C730 0.950 . S
H705 C732 0.950 . S
H706 C735 0.950 . S
H707 C736 0.949 1_554 S
H708 C738 0.950 . S
H709 C739 0.950 . S
C710 H692 0.951 . S
C710 C711 1.366 . S
C710 C712 1.388 . S
C711 C710 1.366 . S
C711 C715 1.385 . S
C712 H693 0.951 . S
C712 C710 1.388 . S
C712 C713 1.366 . S
C713 C712 1.366 . S
C713 C714 1.414 . S
C713 C716 1.499 . S
C714 H694 0.950 . S
C714 C713 1.414 . S
C714 C715 1.374 . S
C715 H695 0.950 . S
C715 C711 1.385 . S
C715 C714 1.374 . S
C716 C713 1.499 . S
C716 C717 1.373 . S
C716 C718 1.389 . S
C717 H696 0.950 . S
C717 C716 1.373 . S
C717 C733 1.377 . S
C718 C716 1.389 . S
C718 C719 1.524 . S
C718 C732 1.377 . S
C719 C718 1.524 . S
C719 C720 1.397 . S
C719 C724 1.363 . S
C720 H697 0.950 . S
C720 C719 1.397 . S
C720 C721 1.334 . S
C721 H698 0.950 . S
C721 C720 1.334 . S
C721 C722 1.287 . S
C722 C721 1.287 . S
C722 C723 1.524 . S
C722 H741 0.913 . S
C723 H699 0.950 . S
C723 C722 1.524 . S
C723 C724 1.415 . S
C724 H700 0.950 . S
C724 C719 1.363 . S
C724 C723 1.415 . S
C725 H701 0.951 . S
C725 C726 1.366 . S
C725 C727 1.388 . S
C726 C725 1.366 . S
C726 C730 1.385 . S
C727 H702 0.951 . S
C727 C725 1.388 . S
C727 C728 1.366 . S
C728 C727 1.366 . S
C728 C729 1.414 . S
C728 C731 1.499 . S
C729 H703 0.950 . S
C729 C728 1.414 . S
C729 C730 1.374 . S
C730 H704 0.950 . S
C730 C726 1.385 . S
C730 C729 1.374 . S
C731 C728 1.499 . S
C731 C732 1.373 . S
C731 C733 1.389 . S
C732 H705 0.950 . S
C732 C718 1.377 . S
C732 C731 1.373 . S
C733 C717 1.377 . S
C733 C731 1.389 . S
C733 C734 1.524 . S
C734 C733 1.524 . S
C734 C735 1.397 . S
C734 C739 1.363 . S
C735 H706 0.950 . S
C735 C734 1.397 . S
C735 C736 1.341 . S
C736 H707 0.949 1_556 S
C736 C735 1.341 . S
C736 C737 1.281 1_556 S
C737 C736 1.281 1_554 S
C737 C738 1.524 . S
C737 H740 0.999 . S
C738 H708 0.950 . S
C738 C737 1.524 . S
C738 C739 1.415 1_554 S
C739 H709 0.950 . S
C739 C734 1.363 . S
C739 C738 1.415 1_556 S
H740 C737 0.999 . S
H741 C722 0.913 . S
H742 C760 0.951 . S
H743 C762 0.951 . S
H744 C764 0.950 . S
H745 C765 0.950 . S
H746 C767 0.950 . S
H747 C770 0.950 . S
H748 C771 0.950 . S
H749 C773 0.950 . S
H750 C774 0.950 . S
H751 C775 0.951 . S
H752 C777 0.951 . S
H753 C779 0.950 . S
H754 C780 0.950 . S
H755 C782 0.950 . S
H756 C785 0.950 . S
H757 C786 0.950 . S
H758 C788 0.950 . S
H759 C789 0.950 . S
C760 H742 0.951 . S
C760 C761 1.366 . S
C760 C762 1.388 . S
C761 C760 1.366 . S
C761 C765 1.385 . S
C762 H743 0.951 . S
C762 C760 1.388 . S
C762 C763 1.366 . S
C763 C762 1.366 . S
C763 C764 1.414 . S
C763 C766 1.499 . S
C764 H744 0.950 . S
C764 C763 1.414 . S
C764 C765 1.374 . S
C765 H745 0.950 . S
C765 C761 1.385 . S
C765 C764 1.374 . S
C766 C763 1.499 . S
C766 C767 1.373 . S
C766 C768 1.389 . S
C767 H746 0.950 . S
C767 C766 1.373 . S
C767 C783 1.377 . S
C768 C766 1.389 . S
C768 C769 1.524 . S
C768 C782 1.377 . S
C769 C768 1.524 . S
C769 C770 1.397 . S
C769 C774 1.363 . S
C770 H747 0.950 . S
C770 C769 1.397 . S
C770 C771 1.334 . S
C771 H748 0.950 . S
C771 C770 1.334 . S
C771 C772 1.287 . S
C772 C771 1.287 . S
C772 C773 1.524 . S
C772 H791 0.913 . S
C773 H749 0.950 . S
C773 C772 1.524 . S
C773 C774 1.415 . S
C774 H750 0.950 . S
C774 C769 1.363 . S
C774 C773 1.415 . S
C775 H751 0.951 . S
C775 C776 1.366 . S
C775 C777 1.388 . S
C776 C775 1.366 . S
C776 C780 1.385 . S
C777 H752 0.951 . S
C777 C775 1.388 . S
C777 C778 1.366 . S
C778 C777 1.366 . S
C778 C779 1.414 . S
C778 C781 1.499 . S
C779 H753 0.950 . S
C779 C778 1.414 . S
C779 C780 1.374 . S
C780 H754 0.950 . S
C780 C776 1.385 . S
C780 C779 1.374 . S
C781 C778 1.499 . S
C781 C782 1.373 . S
C781 C783 1.389 . S
C782 H755 0.950 . S
C782 C768 1.377 . S
C782 C781 1.373 . S
C783 C767 1.377 . S
C783 C781 1.389 . S
C783 C784 1.524 . S
C784 C783 1.524 . S
C784 C785 1.397 . S
C784 C789 1.363 . S
C785 H756 0.950 . S
C785 C784 1.397 . S
C785 C786 1.334 . S
C786 H757 0.950 . S
C786 C785 1.334 . S
C786 C787 1.287 . S
C787 C786 1.287 . S
C787 C788 1.524 . S
C787 H790 0.999 . S
C788 H758 0.950 . S
C788 C787 1.524 . S
C788 C789 1.415 . S
C789 H759 0.950 . S
C789 C784 1.363 . S
C789 C788 1.415 . S
H790 C787 0.999 . S
H791 C772 0.913 . S
H792 C810 0.951 . S
H793 C812 0.951 . S
H794 C814 0.950 . S
H795 C815 0.950 . S
H796 C817 0.950 . S
H797 C820 0.950 . S
H798 C821 0.950 . S
H799 C823 0.950 . S
H800 C824 0.950 . S
H801 C825 0.951 . S
H802 C827 0.951 . S
H803 C829 0.950 . S
H804 C830 0.950 . S
H805 C832 0.950 . S
H806 C835 0.950 . S
H807 C836 0.950 . S
H808 C838 0.950 . S
H809 C839 0.950 . S
C810 H792 0.951 . S
C810 C811 1.366 . S
C810 C812 1.388 . S
C811 C810 1.366 . S
C811 C815 1.385 . S
C812 H793 0.951 . S
C812 C810 1.388 . S
C812 C813 1.366 . S
C813 C812 1.366 . S
C813 C814 1.414 . S
C813 C816 1.499 . S
C814 H794 0.950 . S
C814 C813 1.414 . S
C814 C815 1.374 . S
C815 H795 0.950 . S
C815 C811 1.385 . S
C815 C814 1.374 . S
C816 C813 1.499 . S
C816 C817 1.373 . S
C816 C818 1.389 . S
C817 H796 0.950 . S
C817 C816 1.373 . S
C817 C833 1.377 . S
C818 C816 1.389 . S
C818 C819 1.524 . S
C818 C832 1.377 . S
C819 C818 1.524 . S
C819 C820 1.397 . S
C819 C824 1.363 . S
C820 H797 0.950 . S
C820 C819 1.397 . S
C820 C821 1.334 . S
C821 H798 0.950 . S
C821 C820 1.334 . S
C821 C822 1.287 . S
C822 C821 1.287 . S
C822 C823 1.524 . S
C822 H841 0.913 . S
C823 H799 0.950 . S
C823 C822 1.524 . S
C823 C824 1.415 . S
C824 H800 0.950 . S
C824 C819 1.363 . S
C824 C823 1.415 . S
C825 H801 0.951 . S
C825 C826 1.366 . S
C825 C827 1.388 . S
C826 C825 1.366 . S
C826 C830 1.385 . S
C827 H802 0.951 . S
C827 C825 1.388 . S
C827 C828 1.366 . S
C828 C827 1.366 . S
C828 C829 1.414 . S
C828 C831 1.499 . S
C829 H803 0.950 . S
C829 C828 1.414 . S
C829 C830 1.374 . S
C830 H804 0.950 . S
C830 C826 1.385 . S
C830 C829 1.374 . S
C831 C828 1.499 . S
C831 C832 1.373 . S
C831 C833 1.389 . S
C832 H805 0.950 . S
C832 C818 1.377 . S
C832 C831 1.373 . S
C833 C817 1.377 . S
C833 C831 1.389 . S
C833 C834 1.524 . S
C834 C833 1.524 . S
C834 C835 1.397 . S
C834 C839 1.363 . S
C835 H806 0.950 . S
C835 C834 1.397 . S
C835 C836 1.334 1_554 S
C836 H807 0.950 . S
C836 C835 1.334 1_556 S
C836 C837 1.287 . S
C837 C836 1.287 . S
C837 C838 1.524 . S
C837 H840 0.999 . S
C838 H808 0.950 . S
C838 C837 1.524 . S
C838 C839 1.415 1_556 S
C839 H809 0.950 . S
C839 C834 1.363 . S
C839 C838 1.415 1_554 S
H840 C837 0.999 . S
H841 C822 0.913 . S
H842 C860 0.951 . S
H843 C862 0.951 . S
H844 C864 0.950 . S
H845 C865 0.950 . S
H846 C867 0.950 . S
H847 C870 0.950 . S
H848 C871 0.950 . S
H849 C873 0.950 . S
H850 C874 0.950 . S
H851 C875 0.951 . S
H852 C877 0.951 . S
H853 C879 0.950 . S
H854 C880 0.950 . S
H855 C882 0.950 . S
H856 C885 0.950 . S
H857 C886 0.950 . S
H858 C888 0.950 . S
H859 C889 0.950 . S
C860 H842 0.951 . S
C860 C861 1.366 . S
C860 C862 1.388 . S
C861 C860 1.366 . S
C861 C865 1.385 . S
C862 H843 0.951 . S
C862 C860 1.388 . S
C862 C863 1.366 . S
C863 C862 1.366 . S
C863 C864 1.414 . S
C863 C866 1.499 . S
C864 H844 0.950 . S
C864 C863 1.414 . S
C864 C865 1.374 . S
C865 H845 0.950 . S
C865 C861 1.385 . S
C865 C864 1.374 . S
C866 C863 1.499 . S
C866 C867 1.373 . S
C866 C868 1.389 . S
C867 H846 0.950 . S
C867 C866 1.373 . S
C867 C883 1.377 . S
C868 C866 1.389 . S
C868 C869 1.524 . S
C868 C882 1.377 . S
C869 C868 1.524 . S
C869 C870 1.397 . S
C869 C874 1.363 . S
C870 H847 0.950 . S
C870 C869 1.397 . S
C870 C871 1.334 . S
C871 H848 0.950 . S
C871 C870 1.334 . S
C871 C872 1.287 . S
C872 C871 1.287 . S
C872 C873 1.524 . S
C872 H891 0.913 . S
C873 H849 0.950 . S
C873 C872 1.524 . S
C873 C874 1.415 . S
C874 H850 0.950 . S
C874 C869 1.363 . S
C874 C873 1.415 . S
C875 H851 0.951 . S
C875 C876 1.366 . S
C875 C877 1.388 . S
C876 C875 1.366 . S
C876 C880 1.385 . S
C877 H852 0.951 . S
C877 C875 1.388 . S
C877 C878 1.366 . S
C878 C877 1.366 . S
C878 C879 1.414 . S
C878 C881 1.499 . S
C879 H853 0.950 . S
C879 C878 1.414 . S
C879 C880 1.374 . S
C880 H854 0.950 . S
C880 C876 1.385 . S
C880 C879 1.374 . S
C881 C878 1.499 . S
C881 C882 1.373 . S
C881 C883 1.389 . S
C882 H855 0.950 . S
C882 C868 1.377 . S
C882 C881 1.373 . S
C883 C867 1.377 . S
C883 C881 1.389 . S
C883 C884 1.524 . S
C884 C883 1.524 . S
C884 C885 1.397 . S
C884 C889 1.363 . S
C885 H856 0.950 . S
C885 C884 1.397 . S
C885 C886 1.334 . S
C886 H857 0.950 . S
C886 C885 1.334 . S
C886 C887 1.287 . S
C887 C886 1.287 . S
C887 C888 1.524 . S
C887 H890 0.999 . S
C888 H858 0.950 . S
C888 C887 1.524 . S
C888 C889 1.415 . S
C889 H859 0.950 . S
C889 C884 1.363 . S
C889 C888 1.415 . S
H890 C887 0.999 . S
H891 C872 0.913 . S
H892 C910 0.951 . S
H893 C912 0.951 . S
H894 C914 0.950 . S
H895 C915 0.950 . S
H896 C917 0.950 . S
H897 C920 0.950 . S
H898 C921 0.950 . S
H899 C923 0.950 . S
H900 C924 0.950 . S
H901 C925 0.951 . S
H902 C927 0.951 . S
H903 C929 0.950 . S
H904 C930 0.950 . S
H905 C932 0.950 . S
H906 C935 0.950 . S
H907 C936 0.950 1_556 S
H908 C938 0.950 . S
H909 C939 0.950 . S
C910 H892 0.951 . S
C910 C911 1.366 . S
C910 C912 1.388 . S
C911 C910 1.366 . S
C911 C915 1.385 . S
C912 H893 0.951 . S
C912 C910 1.388 . S
C912 C913 1.366 . S
C913 C912 1.366 . S
C913 C914 1.414 . S
C913 C916 1.499 . S
C914 H894 0.950 . S
C914 C913 1.414 . S
C914 C915 1.374 . S
C915 H895 0.950 . S
C915 C911 1.385 . S
C915 C914 1.374 . S
C916 C913 1.499 . S
C916 C917 1.373 . S
C916 C918 1.389 . S
C917 H896 0.950 . S
C917 C916 1.373 . S
C917 C933 1.377 . S
C918 C916 1.389 . S
C918 C919 1.524 . S
C918 C932 1.377 . S
C919 C918 1.524 . S
C919 C920 1.397 . S
C919 C924 1.363 . S
C920 H897 0.950 . S
C920 C919 1.397 . S
C920 C921 1.334 . S
C921 H898 0.950 . S
C921 C920 1.334 . S
C921 C922 1.287 . S
C922 C921 1.287 . S
C922 C923 1.524 . S
C922 H941 0.913 . S
C923 H899 0.950 . S
C923 C922 1.524 . S
C923 C924 1.415 . S
C924 H900 0.950 . S
C924 C919 1.363 . S
C924 C923 1.415 . S
C925 H901 0.951 . S
C925 C926 1.366 . S
C925 C927 1.388 . S
C926 C925 1.366 . S
C926 C930 1.385 . S
C927 H902 0.951 . S
C927 C925 1.388 . S
C927 C928 1.366 . S
C928 C927 1.366 . S
C928 C929 1.414 . S
C928 C931 1.499 . S
C929 H903 0.950 . S
C929 C928 1.414 . S
C929 C930 1.374 . S
C930 H904 0.950 . S
C930 C926 1.385 . S
C930 C929 1.374 . S
C931 C928 1.499 . S
C931 C932 1.373 . S
C931 C933 1.389 . S
C932 H905 0.950 . S
C932 C918 1.377 . S
C932 C931 1.373 . S
C933 C917 1.377 . S
C933 C931 1.389 . S
C933 C934 1.524 . S
C934 C933 1.524 . S
C934 C935 1.397 . S
C934 C939 1.363 . S
C935 H906 0.950 . S
C935 C934 1.397 . S
C935 C936 1.334 . S
C936 H907 0.950 1_554 S
C936 C935 1.334 . S
C936 C937 1.287 . S
C937 C936 1.287 . S
C937 C938 1.524 . S
C937 H940 0.999 . S
C938 H908 0.950 . S
C938 C937 1.524 . S
C938 C939 1.415 . S
C939 H909 0.950 . S
C939 C934 1.363 . S
C939 C938 1.415 . S
H940 C937 0.999 . S
H941 C922 0.913 . S
H942 C960 0.951 . S
H943 C962 0.951 . S
H944 C964 0.950 . S
H945 C965 0.950 . S
H946 C967 0.950 . S
H947 C970 0.950 . S
H948 C971 0.950 . S
H949 C973 0.950 . S
H950 C974 0.950 . S
H951 C975 0.951 . S
H952 C977 0.951 . S
H953 C979 0.950 . S
H954 C980 0.950 . S
H955 C982 0.950 . S
H956 C985 0.950 . S
H957 C986 0.950 . S
H958 C988 0.950 . S
H959 C989 0.950 . S
C960 H942 0.951 . S
C960 C961 1.366 . S
C960 C962 1.388 . S
C961 C960 1.366 . S
C961 C965 1.385 . S
C962 H943 0.951 . S
C962 C960 1.388 . S
C962 C963 1.366 . S
C963 C962 1.366 . S
C963 C964 1.414 . S
C963 C966 1.499 . S
C964 H944 0.950 . S
C964 C963 1.414 . S
C964 C965 1.374 . S
C965 H945 0.950 . S
C965 C961 1.385 . S
C965 C964 1.374 . S
C966 C963 1.499 . S
C966 C967 1.373 . S
C966 C968 1.389 . S
C967 H946 0.950 . S
C967 C966 1.373 . S
C967 C983 1.377 1_655 S
C968 C966 1.389 . S
C968 C969 1.524 . S
C968 C982 1.377 1_655 S
C969 C968 1.524 . S
C969 C970 1.397 . S
C969 C974 1.363 . S
C970 H947 0.950 . S
C970 C969 1.397 . S
C970 C971 1.334 . S
C971 H948 0.950 . S
C971 C970 1.334 . S
C971 C972 1.287 . S
C972 C971 1.287 . S
C972 C973 1.524 . S
C972 H991 0.913 . S
C973 H949 0.950 . S
C973 C972 1.524 . S
C973 C974 1.415 . S
C974 H950 0.950 . S
C974 C969 1.363 . S
C974 C973 1.415 . S
C975 H951 0.951 . S
C975 C976 1.366 . S
C975 C977 1.388 . S
C976 C975 1.366 . S
C976 C980 1.385 . S
C977 H952 0.951 . S
C977 C975 1.388 . S
C977 C978 1.366 . S
C978 C977 1.366 . S
C978 C979 1.414 . S
C978 C981 1.499 . S
C979 H953 0.950 . S
C979 C978 1.414 . S
C979 C980 1.374 . S
C980 H954 0.950 . S
C980 C976 1.385 . S
C980 C979 1.374 . S
C981 C978 1.499 . S
C981 C982 1.373 . S
C981 C983 1.389 . S
C982 H955 0.950 . S
C982 C968 1.377 1_455 S
C982 C981 1.373 . S
C983 C967 1.377 1_455 S
C983 C981 1.389 . S
C983 C984 1.524 . S
C984 C983 1.524 . S
C984 C985 1.397 . S
C984 C989 1.363 . S
C985 H956 0.950 . S
C985 C984 1.397 . S
C985 C986 1.334 . S
C986 H957 0.950 . S
C986 C985 1.334 . S
C986 C987 1.287 . S
C987 C986 1.287 . S
C987 C988 1.524 . S
C987 H990 0.999 . S
C988 H958 0.950 . S
C988 C987 1.524 . S
C988 C989 1.415 . S
C989 H959 0.950 . S
C989 C984 1.363 . S
C989 C988 1.415 . S
H990 C987 0.999 . S
H991 C972 0.913 . S
H992 C1010 0.951 . S
H993 C1012 0.951 . S
H994 C1014 0.950 . S
H995 C1015 0.950 . S
H996 C1017 0.950 . S
H997 C1020 0.950 . S
H998 C1021 0.950 . S
H999 C1023 0.950 . S
H1000 C1024 0.950 . S
H1001 C1025 0.951 . S
H1002 C1027 0.951 . S
H1003 C1029 0.950 . S
H1004 C1030 0.950 . S
H1005 C1032 0.950 . S
H1006 C1035 0.950 . S
H1007 C1036 0.950 . S
H1008 C1038 0.950 . S
H1009 C1039 0.950 . S
C1010 H992 0.951 . S
C1010 C1011 1.366 . S
C1010 C1012 1.388 . S
C1011 C1010 1.366 . S
C1011 C1015 1.385 . S
C1012 H993 0.951 . S
C1012 C1010 1.388 . S
C1012 C1013 1.366 . S
C1013 C1012 1.366 . S
C1013 C1014 1.414 . S
C1013 C1016 1.499 . S
C1014 H994 0.950 . S
C1014 C1013 1.414 . S
C1014 C1015 1.374 . S
C1015 H995 0.950 . S
C1015 C1011 1.385 . S
C1015 C1014 1.374 . S
C1016 C1013 1.499 . S
C1016 C1017 1.373 . S
C1016 C1018 1.389 . S
C1017 H996 0.950 . S
C1017 C1016 1.373 . S
C1017 C1033 1.377 . S
C1018 C1016 1.389 . S
C1018 C1019 1.524 . S
C1018 C1032 1.377 . S
C1019 C1018 1.524 . S
C1019 C1020 1.397 . S
C1019 C1024 1.363 . S
C1020 H997 0.950 . S
C1020 C1019 1.397 . S
C1020 C1021 1.334 . S
C1021 H998 0.950 . S
C1021 C1020 1.334 . S
C1021 C1022 1.287 . S
C1022 C1021 1.287 . S
C1022 C1023 1.524 . S
C1022 H1041 0.913 . S
C1023 H999 0.950 . S
C1023 C1022 1.524 . S
C1023 C1024 1.415 . S
C1024 H1000 0.950 . S
C1024 C1019 1.363 . S
C1024 C1023 1.415 . S
C1025 H1001 0.951 . S
C1025 C1026 1.366 . S
C1025 C1027 1.388 . S
C1026 C1025 1.366 . S
C1026 C1030 1.385 . S
C1027 H1002 0.951 . S
C1027 C1025 1.388 . S
C1027 C1028 1.366 . S
C1028 C1027 1.366 . S
C1028 C1029 1.414 . S
C1028 C1031 1.499 . S
C1029 H1003 0.950 . S
C1029 C1028 1.414 . S
C1029 C1030 1.374 . S
C1030 H1004 0.950 . S
C1030 C1026 1.385 . S
C1030 C1029 1.374 . S
C1031 C1028 1.499 . S
C1031 C1032 1.373 . S
C1031 C1033 1.389 . S
C1032 H1005 0.950 . S
C1032 C1018 1.377 . S
C1032 C1031 1.373 . S
C1033 C1017 1.377 . S
C1033 C1031 1.389 . S
C1033 C1034 1.524 . S
C1034 C1033 1.524 . S
C1034 C1035 1.397 . S
C1034 C1039 1.363 . S
C1035 H1006 0.950 . S
C1035 C1034 1.397 . S
C1035 C1036 1.334 . S
C1036 H1007 0.950 . S
C1036 C1035 1.334 . S
C1036 C1037 1.287 . S
C1037 C1036 1.287 . S
C1037 C1038 1.524 . S
C1037 H1040 0.999 . S
C1038 H1008 0.950 . S
C1038 C1037 1.524 . S
C1038 C1039 1.415 . S
C1039 H1009 0.950 . S
C1039 C1034 1.363 . S
C1039 C1038 1.415 . S
H1040 C1037 0.999 . S
H1041 C1022 0.913 . S
H1042 C1060 0.951 . S
H1043 C1062 0.951 . S
H1044 C1064 0.950 . S
H1045 C1065 0.950 . S
H1046 C1067 0.950 . S
H1047 C1070 0.950 . S
H1048 C1071 0.950 . S
H1049 C1073 0.950 . S
H1050 C1074 0.942 1_565 S
H1051 C1075 0.951 . S
H1052 C1077 0.951 . S
H1053 C1079 0.950 . S
H1054 C1080 0.950 . S
H1055 C1082 0.950 . S
H1056 C1085 0.950 . S
H1057 C1086 0.950 . S
H1058 C1088 0.950 . S
H1059 C1089 0.950 1_545 S
C1060 H1042 0.951 . S
C1060 C1061 1.366 . S
C1060 C1062 1.388 . S
C1061 C1060 1.366 . S
C1061 C1065 1.385 . S
C1062 H1043 0.951 . S
C1062 C1060 1.388 . S
C1062 C1063 1.366 . S
C1063 C1062 1.366 . S
C1063 C1064 1.414 . S
C1063 C1066 1.499 . S
C1064 H1044 0.950 . S
C1064 C1063 1.414 . S
C1064 C1065 1.374 . S
C1065 H1045 0.950 . S
C1065 C1061 1.385 . S
C1065 C1064 1.374 . S
C1066 C1063 1.499 . S
C1066 C1067 1.373 . S
C1066 C1068 1.389 . S
C1067 H1046 0.950 . S
C1067 C1066 1.373 . S
C1067 C1083 1.377 1_545 S
C1068 C1066 1.389 . S
C1068 C1069 1.524 . S
C1068 C1082 1.377 1_545 S
C1069 C1068 1.524 . S
C1069 C1070 1.397 . S
C1069 C1074 1.363 . S
C1070 H1047 0.950 . S
C1070 C1069 1.397 . S
C1070 C1071 1.334 . S
C1071 H1048 0.950 . S
C1071 C1070 1.334 . S
C1071 C1072 1.287 . S
C1072 C1071 1.287 . S
C1072 C1073 1.524 . S
C1072 H1091 0.913 . S
C1073 H1049 0.950 . S
C1073 C1072 1.524 . S
C1073 C1074 1.415 . S
C1074 H1050 0.942 1_545 S
C1074 C1069 1.363 . S
C1074 C1073 1.415 . S
C1075 H1051 0.951 . S
C1075 C1076 1.366 . S
C1075 C1077 1.388 . S
C1076 C1075 1.366 . S
C1076 C1080 1.385 . S
C1077 H1052 0.951 . S
C1077 C1075 1.388 . S
C1077 C1078 1.366 . S
C1078 C1077 1.366 . S
C1078 C1079 1.414 . S
C1078 C1081 1.499 . S
C1079 H1053 0.950 . S
C1079 C1078 1.414 . S
C1079 C1080 1.374 . S
C1080 H1054 0.950 . S
C1080 C1076 1.385 . S
C1080 C1079 1.374 . S
C1081 C1078 1.499 . S
C1081 C1082 1.373 . S
C1081 C1083 1.389 . S
C1082 H1055 0.950 . S
C1082 C1068 1.377 1_565 S
C1082 C1081 1.373 . S
C1083 C1067 1.377 1_565 S
C1083 C1081 1.389 . S
C1083 C1084 1.524 . S
C1084 C1083 1.524 . S
C1084 C1085 1.397 . S
C1084 C1089 1.363 . S
C1085 H1056 0.950 . S
C1085 C1084 1.397 . S
C1085 C1086 1.334 . S
C1086 H1057 0.950 . S
C1086 C1085 1.334 . S
C1086 C1087 1.287 . S
C1087 C1086 1.287 . S
C1087 C1088 1.524 . S
C1087 H1090 0.999 . S
C1088 H1058 0.950 . S
C1088 C1087 1.524 . S
C1088 C1089 1.415 . S
C1089 H1059 0.950 1_565 S
C1089 C1084 1.363 . S
C1089 C1088 1.415 . S
H1090 C1087 0.999 . S
H1091 C1072 0.913 . S
H1092 C1110 0.951 . S
H1093 C1112 0.951 . S
H1094 C1114 0.950 . S
H1095 C1115 0.950 . S
H1096 C1117 0.950 . S
H1097 C1120 0.950 . S
H1098 C1121 0.950 . S
H1099 C1123 0.950 . S
H1100 C1124 0.950 . S
H1101 C1125 0.951 . S
H1102 C1127 0.951 . S
H1103 C1129 0.950 . S
H1104 C1130 0.950 . S
H1105 C1132 0.950 . S
H1106 C1135 0.950 . S
H1107 C1136 0.950 . S
H1108 C1138 0.950 . S
H1109 C1139 0.950 . S
C1110 H1092 0.951 . S
C1110 C1111 1.366 . S
C1110 C1112 1.388 . S
C1111 C1110 1.366 . S
C1111 C1115 1.385 . S
C1112 H1093 0.951 . S
C1112 C1110 1.388 . S
C1112 C1113 1.366 . S
C1113 C1112 1.366 . S
C1113 C1114 1.414 . S
C1113 C1116 1.499 . S
C1114 H1094 0.950 . S
C1114 C1113 1.414 . S
C1114 C1115 1.374 . S
C1115 H1095 0.950 . S
C1115 C1111 1.385 . S
C1115 C1114 1.374 . S
C1116 C1113 1.499 . S
C1116 C1117 1.373 . S
C1116 C1118 1.389 . S
C1117 H1096 0.950 . S
C1117 C1116 1.373 . S
C1117 C1133 1.377 . S
C1118 C1116 1.389 . S
C1118 C1119 1.524 . S
C1118 C1132 1.377 . S
C1119 C1118 1.524 . S
C1119 C1120 1.397 . S
C1119 C1124 1.363 . S
C1120 H1097 0.950 . S
C1120 C1119 1.397 . S
C1120 C1121 1.334 . S
C1121 H1098 0.950 . S
C1121 C1120 1.334 . S
C1121 C1122 1.287 . S
C1122 C1121 1.287 . S
C1122 C1123 1.524 . S
C1122 H1141 0.913 . S
C1123 H1099 0.950 . S
C1123 C1122 1.524 . S
C1123 C1124 1.415 . S
C1124 H1100 0.950 . S
C1124 C1119 1.363 . S
C1124 C1123 1.415 . S
C1125 H1101 0.951 . S
C1125 C1126 1.366 . S
C1125 C1127 1.388 . S
C1126 C1125 1.366 . S
C1126 C1130 1.385 . S
C1127 H1102 0.951 . S
C1127 C1125 1.388 . S
C1127 C1128 1.366 . S
C1128 C1127 1.366 . S
C1128 C1129 1.414 . S
C1128 C1131 1.499 . S
C1129 H1103 0.950 . S
C1129 C1128 1.414 . S
C1129 C1130 1.374 . S
C1130 H1104 0.950 . S
C1130 C1126 1.385 . S
C1130 C1129 1.374 . S
C1131 C1128 1.499 . S
C1131 C1132 1.373 . S
C1131 C1133 1.389 . S
C1132 H1105 0.950 . S
C1132 C1118 1.377 . S
C1132 C1131 1.373 . S
C1133 C1117 1.377 . S
C1133 C1131 1.389 . S
C1133 C1134 1.524 . S
C1134 C1133 1.524 . S
C1134 C1135 1.397 . S
C1134 C1139 1.363 . S
C1135 H1106 0.950 . S
C1135 C1134 1.397 . S
C1135 C1136 1.334 . S
C1136 H1107 0.950 . S
C1136 C1135 1.334 . S
C1136 C1137 1.287 . S
C1137 C1136 1.287 . S
C1137 C1138 1.524 . S
C1137 H1140 0.999 . S
C1138 H1108 0.950 . S
C1138 C1137 1.524 . S
C1138 C1139 1.415 . S
C1139 H1109 0.950 . S
C1139 C1134 1.363 . S
C1139 C1138 1.415 . S
H1140 C1137 0.999 . S
H1141 C1122 0.913 . S
H1142 C1160 0.951 . S
H1143 C1162 0.951 . S
H1144 C1164 0.950 . S
H1145 C1165 0.950 . S
H1146 C1167 0.950 . S
H1147 C1170 0.950 . S
H1148 C1171 0.950 . S
H1149 C1173 0.950 . S
H1150 C1174 0.950 . S
H1151 C1175 0.951 . S
H1152 C1177 0.951 . S
H1153 C1179 0.950 . S
H1154 C1180 0.950 . S
H1155 C1182 0.950 . S
H1156 C1185 0.950 . S
H1157 C1186 0.950 . S
H1158 C1188 0.950 . S
H1159 C1189 0.950 . S
C1160 H1142 0.951 . S
C1160 C1161 1.366 . S
C1160 C1162 1.388 . S
C1161 C1160 1.366 . S
C1161 C1165 1.385 . S
C1162 H1143 0.951 . S
C1162 C1160 1.388 . S
C1162 C1163 1.366 . S
C1163 C1162 1.366 . S
C1163 C1164 1.414 . S
C1163 C1166 1.499 . S
C1164 H1144 0.950 . S
C1164 C1163 1.414 . S
C1164 C1165 1.374 . S
C1165 H1145 0.950 . S
C1165 C1161 1.385 . S
C1165 C1164 1.374 . S
C1166 C1163 1.499 . S
C1166 C1167 1.373 . S
C1166 C1168 1.389 . S
C1167 H1146 0.950 . S
C1167 C1166 1.373 . S
C1167 C1183 1.377 . S
C1168 C1166 1.389 . S
C1168 C1169 1.524 . S
C1168 C1182 1.377 . S
C1169 C1168 1.524 . S
C1169 C1170 1.397 . S
C1169 C1174 1.363 . S
C1170 H1147 0.950 . S
C1170 C1169 1.397 . S
C1170 C1171 1.334 . S
C1171 H1148 0.950 . S
C1171 C1170 1.334 . S
C1171 C1172 1.287 . S
C1172 C1171 1.287 . S
C1172 C1173 1.524 . S
C1172 H1191 0.913 . S
C1173 H1149 0.950 . S
C1173 C1172 1.524 . S
C1173 C1174 1.415 . S
C1174 H1150 0.950 . S
C1174 C1169 1.363 . S
C1174 C1173 1.415 . S
C1175 H1151 0.951 . S
C1175 C1176 1.366 . S
C1175 C1177 1.388 . S
C1176 C1175 1.366 . S
C1176 C1180 1.385 . S
C1177 H1152 0.951 . S
C1177 C1175 1.388 . S
C1177 C1178 1.366 . S
C1178 C1177 1.366 . S
C1178 C1179 1.414 . S
C1178 C1181 1.499 . S
C1179 H1153 0.950 . S
C1179 C1178 1.414 . S
C1179 C1180 1.374 . S
C1180 H1154 0.950 . S
C1180 C1176 1.385 . S
C1180 C1179 1.374 . S
C1181 C1178 1.499 . S
C1181 C1182 1.373 . S
C1181 C1183 1.389 . S
C1182 H1155 0.950 . S
C1182 C1168 1.377 . S
C1182 C1181 1.373 . S
C1183 C1167 1.377 . S
C1183 C1181 1.389 . S
C1183 C1184 1.524 . S
C1184 C1183 1.524 . S
C1184 C1185 1.397 . S
C1184 C1189 1.363 . S
C1185 H1156 0.950 . S
C1185 C1184 1.397 . S
C1185 C1186 1.334 . S
C1186 H1157 0.950 . S
C1186 C1185 1.334 . S
C1186 C1187 1.287 . S
C1187 C1186 1.287 . S
C1187 C1188 1.524 . S
C1187 H1190 0.999 . S
C1188 H1158 0.950 . S
C1188 C1187 1.524 . S
C1188 C1189 1.415 . S
C1189 H1159 0.950 . S
C1189 C1184 1.363 . S
C1189 C1188 1.415 . S
H1190 C1187 0.999 . S
H1191 C1172 0.913 . S
H1192 C1210 0.951 . S
H1193 C1212 0.951 . S
H1194 C1214 0.950 . S
H1195 C1215 0.950 . S
H1196 C1217 0.950 . S
H1197 C1220 0.950 . S
H1198 C1221 0.950 . S
H1199 C1223 0.950 . S
H1200 C1224 0.950 . S
H1201 C1225 0.951 . S
H1202 C1227 0.951 . S
H1203 C1229 0.950 . S
H1204 C1230 0.950 . S
H1205 C1232 0.950 . S
H1206 C1235 0.950 . S
H1207 C1236 0.950 . S
H1208 C1238 0.950 . S
H1209 C1239 0.950 . S
C1210 H1192 0.951 . S
C1210 C1211 1.366 . S
C1210 C1212 1.388 . S
C1211 C1210 1.366 . S
C1211 C1215 1.385 . S
C1212 H1193 0.951 . S
C1212 C1210 1.388 . S
C1212 C1213 1.366 . S
C1213 C1212 1.366 . S
C1213 C1214 1.414 . S
C1213 C1216 1.499 . S
C1214 H1194 0.950 . S
C1214 C1213 1.414 . S
C1214 C1215 1.374 . S
C1215 H1195 0.950 . S
C1215 C1211 1.385 . S
C1215 C1214 1.374 . S
C1216 C1213 1.499 . S
C1216 C1217 1.373 . S
C1216 C1218 1.389 . S
C1217 H1196 0.950 . S
C1217 C1216 1.373 . S
C1217 C1233 1.377 . S
C1218 C1216 1.389 . S
C1218 C1219 1.524 . S
C1218 C1232 1.377 . S
C1219 C1218 1.524 . S
C1219 C1220 1.397 . S
C1219 C1224 1.363 . S
C1220 H1197 0.950 . S
C1220 C1219 1.397 . S
C1220 C1221 1.334 . S
C1221 H1198 0.950 . S
C1221 C1220 1.334 . S
C1221 C1222 1.287 . S
C1222 C1221 1.287 . S
C1222 C1223 1.524 . S
C1222 H1241 0.913 . S
C1223 H1199 0.950 . S
C1223 C1222 1.524 . S
C1223 C1224 1.415 . S
C1224 H1200 0.950 . S
C1224 C1219 1.363 . S
C1224 C1223 1.415 . S
C1225 H1201 0.951 . S
C1225 C1226 1.366 . S
C1225 C1227 1.388 . S
C1226 C1225 1.366 . S
C1226 C1230 1.385 . S
C1227 H1202 0.951 . S
C1227 C1225 1.388 . S
C1227 C1228 1.366 . S
C1228 C1227 1.366 . S
C1228 C1229 1.414 . S
C1228 C1231 1.499 . S
C1229 H1203 0.950 . S
C1229 C1228 1.414 . S
C1229 C1230 1.374 . S
C1230 H1204 0.950 . S
C1230 C1226 1.385 . S
C1230 C1229 1.374 . S
C1231 C1228 1.499 . S
C1231 C1232 1.373 . S
C1231 C1233 1.389 . S
C1232 H1205 0.950 . S
C1232 C1218 1.377 . S
C1232 C1231 1.373 . S
C1233 C1217 1.377 . S
C1233 C1231 1.389 . S
C1233 C1234 1.524 . S
C1234 C1233 1.524 . S
C1234 C1235 1.397 . S
C1234 C1239 1.363 . S
C1235 H1206 0.950 . S
C1235 C1234 1.397 . S
C1235 C1236 1.334 . S
C1236 H1207 0.950 . S
C1236 C1235 1.334 . S
C1236 C1237 1.287 . S
C1237 C1236 1.287 . S
C1237 C1238 1.524 . S
C1237 H1240 0.999 . S
C1238 H1208 0.950 . S
C1238 C1237 1.524 . S
C1238 C1239 1.415 . S
C1239 H1209 0.950 . S
C1239 C1234 1.363 . S
C1239 C1238 1.415 . S
H1240 C1237 0.999 . S
H1241 C1222 0.913 . S
H1242 C1260 0.951 . S
H1243 C1262 0.951 . S
H1244 C1264 0.950 . S
H1245 C1265 0.950 . S
H1246 C1267 0.950 . S
H1247 C1270 0.950 . S
H1248 C1271 0.950 . S
H1249 C1273 0.950 . S
H1250 C1274 0.950 . S
H1251 C1275 0.951 . S
H1252 C1277 0.951 . S
H1253 C1279 0.950 . S
H1254 C1280 0.950 . S
H1255 C1282 0.950 . S
H1256 C1285 0.950 . S
H1257 C1286 0.950 . S
H1258 C1288 0.950 . S
H1259 C1289 0.950 . S
C1260 H1242 0.951 . S
C1260 C1261 1.366 . S
C1260 C1262 1.388 . S
C1261 C1260 1.366 . S
C1261 C1265 1.385 . S
C1262 H1243 0.951 . S
C1262 C1260 1.388 . S
C1262 C1263 1.366 . S
C1263 C1262 1.366 . S
C1263 C1264 1.414 . S
C1263 C1266 1.499 . S
C1264 H1244 0.950 . S
C1264 C1263 1.414 . S
C1264 C1265 1.374 . S
C1265 H1245 0.950 . S
C1265 C1261 1.385 . S
C1265 C1264 1.374 . S
C1266 C1263 1.499 . S
C1266 C1267 1.373 . S
C1266 C1268 1.389 . S
C1267 H1246 0.950 . S
C1267 C1266 1.373 . S
C1267 C1283 1.377 . S
C1268 C1266 1.389 . S
C1268 C1269 1.524 . S
C1268 C1282 1.377 . S
C1269 C1268 1.524 . S
C1269 C1270 1.397 . S
C1269 C1274 1.363 . S
C1270 H1247 0.950 . S
C1270 C1269 1.397 . S
C1270 C1271 1.334 . S
C1271 H1248 0.950 . S
C1271 C1270 1.334 . S
C1271 C1272 1.287 . S
C1272 C1271 1.287 . S
C1272 C1273 1.524 . S
C1272 H1291 0.913 . S
C1273 H1249 0.950 . S
C1273 C1272 1.524 . S
C1273 C1274 1.415 . S
C1274 H1250 0.950 . S
C1274 C1269 1.363 . S
C1274 C1273 1.415 . S
C1275 H1251 0.951 . S
C1275 C1276 1.366 . S
C1275 C1277 1.388 . S
C1276 C1275 1.366 . S
C1276 C1280 1.385 . S
C1277 H1252 0.951 . S
C1277 C1275 1.388 . S
C1277 C1278 1.366 . S
C1278 C1277 1.366 . S
C1278 C1279 1.414 . S
C1278 C1281 1.499 . S
C1279 H1253 0.950 . S
C1279 C1278 1.414 . S
C1279 C1280 1.374 . S
C1280 H1254 0.950 . S
C1280 C1276 1.385 . S
C1280 C1279 1.374 . S
C1281 C1278 1.499 . S
C1281 C1282 1.373 . S
C1281 C1283 1.389 . S
C1282 H1255 0.950 . S
C1282 C1268 1.377 . S
C1282 C1281 1.373 . S
C1283 C1267 1.377 . S
C1283 C1281 1.389 . S
C1283 C1284 1.524 . S
C1284 C1283 1.524 . S
C1284 C1285 1.397 . S
C1284 C1289 1.363 . S
C1285 H1256 0.950 . S
C1285 C1284 1.397 . S
C1285 C1286 1.334 . S
C1286 H1257 0.950 . S
C1286 C1285 1.334 . S
C1286 C1287 1.287 . S
C1287 C1286 1.287 . S
C1287 C1288 1.524 . S
C1287 H1290 0.999 . S
C1288 H1258 0.950 . S
C1288 C1287 1.524 . S
C1288 C1289 1.415 . S
C1289 H1259 0.950 . S
C1289 C1284 1.363 . S
C1289 C1288 1.415 . S
H1290 C1287 0.999 . S
H1291 C1272 0.913 . S
H1292 C1310 0.951 . S
H1293 C1312 0.951 . S
H1294 C1314 0.950 . S
H1295 C1315 0.950 . S
H1296 C1317 0.950 . S
H1297 C1320 0.950 . S
H1298 C1321 0.950 . S
H1299 C1323 0.950 . S
H1300 C1324 0.950 . S
H1301 C1325 0.951 . S
H1302 C1327 0.951 . S
H1303 C1329 0.950 . S
H1304 C1330 0.950 . S
H1305 C1332 0.950 . S
H1306 C1335 0.950 . S
H1307 C1336 0.950 . S
H1308 C1338 0.950 . S
H1309 C1339 0.950 . S
C1310 H1292 0.951 . S
C1310 C1311 1.366 . S
C1310 C1312 1.388 . S
C1311 C1310 1.366 . S
C1311 C1315 1.385 . S
C1312 H1293 0.951 . S
C1312 C1310 1.388 . S
C1312 C1313 1.366 . S
C1313 C1312 1.366 . S
C1313 C1314 1.414 . S
C1313 C1316 1.499 . S
C1314 H1294 0.950 . S
C1314 C1313 1.414 . S
C1314 C1315 1.374 . S
C1315 H1295 0.950 . S
C1315 C1311 1.385 . S
C1315 C1314 1.374 . S
C1316 C1313 1.499 . S
C1316 C1317 1.373 . S
C1316 C1318 1.389 . S
C1317 H1296 0.950 . S
C1317 C1316 1.373 . S
C1317 C1333 1.377 . S
C1318 C1316 1.389 . S
C1318 C1319 1.524 . S
C1318 C1332 1.377 . S
C1319 C1318 1.524 . S
C1319 C1320 1.397 . S
C1319 C1324 1.363 . S
C1320 H1297 0.950 . S
C1320 C1319 1.397 . S
C1320 C1321 1.334 . S
C1321 H1298 0.950 . S
C1321 C1320 1.334 . S
C1321 C1322 1.287 . S
C1322 C1321 1.287 . S
C1322 C1323 1.524 . S
C1322 H1341 0.913 . S
C1323 H1299 0.950 . S
C1323 C1322 1.524 . S
C1323 C1324 1.415 . S
C1324 H1300 0.950 . S
C1324 C1319 1.363 . S
C1324 C1323 1.415 . S
C1325 H1301 0.951 . S
C1325 C1326 1.366 . S
C1325 C1327 1.388 . S
C1326 C1325 1.366 . S
C1326 C1330 1.385 . S
C1327 H1302 0.951 . S
C1327 C1325 1.388 . S
C1327 C1328 1.366 . S
C1328 C1327 1.366 . S
C1328 C1329 1.414 . S
C1328 C1331 1.499 . S
C1329 H1303 0.950 . S
C1329 C1328 1.414 . S
C1329 C1330 1.374 . S
C1330 H1304 0.950 . S
C1330 C1326 1.385 . S
C1330 C1329 1.374 . S
C1331 C1328 1.499 . S
C1331 C1332 1.373 . S
C1331 C1333 1.389 . S
C1332 H1305 0.950 . S
C1332 C1318 1.377 . S
C1332 C1331 1.373 . S
C1333 C1317 1.377 . S
C1333 C1331 1.389 . S
C1333 C1334 1.524 . S
C1334 C1333 1.524 . S
C1334 C1335 1.397 . S
C1334 C1339 1.363 . S
C1335 H1306 0.950 . S
C1335 C1334 1.397 . S
C1335 C1336 1.334 . S
C1336 H1307 0.950 . S
C1336 C1335 1.334 . S
C1336 C1337 1.287 . S
C1337 C1336 1.287 . S
C1337 C1338 1.524 . S
C1337 H1340 0.999 . S
C1338 H1308 0.950 . S
C1338 C1337 1.524 . S
C1338 C1339 1.415 . S
C1339 H1309 0.950 . S
C1339 C1334 1.363 . S
C1339 C1338 1.415 . S
H1340 C1337 0.999 . S
H1341 C1322 0.913 . S
H1342 C1360 0.951 . S
H1343 C1362 0.951 . S
H1344 C1364 0.950 . S
H1345 C1365 0.950 . S
H1346 C1367 0.950 . S
H1347 C1370 0.950 . S
H1348 C1371 0.950 . S
H1349 C1373 0.950 . S
H1350 C1374 0.950 . S
H1351 C1375 0.951 . S
H1352 C1377 0.951 . S
H1353 C1379 0.950 . S
H1354 C1380 0.950 . S
H1355 C1382 0.950 . S
H1356 C1385 0.950 . S
H1357 C1386 0.950 . S
H1358 C1388 0.950 . S
H1359 C1389 0.950 . S
C1360 H1342 0.951 . S
C1360 C1361 1.366 . S
C1360 C1362 1.388 . S
C1361 C1360 1.366 . S
C1361 C1365 1.385 . S
C1362 H1343 0.951 . S
C1362 C1360 1.388 . S
C1362 C1363 1.366 . S
C1363 C1362 1.366 . S
C1363 C1364 1.414 . S
C1363 C1366 1.499 . S
C1364 H1344 0.950 . S
C1364 C1363 1.414 . S
C1364 C1365 1.374 . S
C1365 H1345 0.950 . S
C1365 C1361 1.385 . S
C1365 C1364 1.374 . S
C1366 C1363 1.499 . S
C1366 C1367 1.373 . S
C1366 C1368 1.389 . S
C1367 H1346 0.950 . S
C1367 C1366 1.373 . S
C1367 C1383 1.377 . S
C1368 C1366 1.389 . S
C1368 C1369 1.524 . S
C1368 C1382 1.377 . S
C1369 C1368 1.524 . S
C1369 C1370 1.397 . S
C1369 C1374 1.363 . S
C1370 H1347 0.950 . S
C1370 C1369 1.397 . S
C1370 C1371 1.334 . S
C1371 H1348 0.950 . S
C1371 C1370 1.334 . S
C1371 C1372 1.287 . S
C1372 C1371 1.287 . S
C1372 C1373 1.524 . S
C1372 H1391 0.913 . S
C1373 H1349 0.950 . S
C1373 C1372 1.524 . S
C1373 C1374 1.415 . S
C1374 H1350 0.950 . S
C1374 C1369 1.363 . S
C1374 C1373 1.415 . S
C1375 H1351 0.951 . S
C1375 C1376 1.366 . S
C1375 C1377 1.388 . S
C1376 C1375 1.366 . S
C1376 C1380 1.385 . S
C1377 H1352 0.951 . S
C1377 C1375 1.388 . S
C1377 C1378 1.366 . S
C1378 C1377 1.366 . S
C1378 C1379 1.414 . S
C1378 C1381 1.499 . S
C1379 H1353 0.950 . S
C1379 C1378 1.414 . S
C1379 C1380 1.374 . S
C1380 H1354 0.950 . S
C1380 C1376 1.385 . S
C1380 C1379 1.374 . S
C1381 C1378 1.499 . S
C1381 C1382 1.373 . S
C1381 C1383 1.389 . S
C1382 H1355 0.950 . S
C1382 C1368 1.377 . S
C1382 C1381 1.373 . S
C1383 C1367 1.377 . S
C1383 C1381 1.389 . S
C1383 C1384 1.524 . S
C1384 C1383 1.524 . S
C1384 C1385 1.397 . S
C1384 C1389 1.363 . S
C1385 H1356 0.950 . S
C1385 C1384 1.397 . S
C1385 C1386 1.334 . S
C1386 H1357 0.950 . S
C1386 C1385 1.334 . S
C1386 C1387 1.287 . S
C1387 C1386 1.287 . S
C1387 C1388 1.524 . S
C1387 H1390 0.999 . S
C1388 H1358 0.950 . S
C1388 C1387 1.524 . S
C1388 C1389 1.415 . S
C1389 H1359 0.950 . S
C1389 C1384 1.363 . S
C1389 C1388 1.415 . S
H1390 C1387 0.999 . S
H1391 C1372 0.913 . S
H1392 C1410 0.951 . S
H1393 C1412 0.951 . S
H1394 C1414 0.950 . S
H1395 C1415 0.950 . S
H1396 C1417 0.950 . S
H1397 C1420 0.950 . S
H1398 C1421 0.950 . S
H1399 C1423 0.950 . S
H1400 C1424 0.950 . S
H1401 C1425 0.951 . S
H1402 C1427 0.951 . S
H1403 C1429 0.950 . S
H1404 C1430 0.950 . S
H1405 C1432 0.950 . S
H1406 C1435 0.950 . S
H1407 C1436 0.950 . S
H1408 C1438 0.950 . S
H1409 C1439 0.950 . S
C1410 H1392 0.951 . S
C1410 C1411 1.366 . S
C1410 C1412 1.388 . S
C1411 C1410 1.366 . S
C1411 C1415 1.385 . S
C1412 H1393 0.951 . S
C1412 C1410 1.388 . S
C1412 C1413 1.366 . S
C1413 C1412 1.366 . S
C1413 C1414 1.414 . S
C1413 C1416 1.499 . S
C1414 H1394 0.950 . S
C1414 C1413 1.414 . S
C1414 C1415 1.374 . S
C1415 H1395 0.950 . S
C1415 C1411 1.385 . S
C1415 C1414 1.374 . S
C1416 C1413 1.499 . S
C1416 C1417 1.373 . S
C1416 C1418 1.389 . S
C1417 H1396 0.950 . S
C1417 C1416 1.373 . S
C1417 C1433 1.377 1_545 S
C1418 C1416 1.389 . S
C1418 C1419 1.524 . S
C1418 C1432 1.377 1_545 S
C1419 C1418 1.524 . S
C1419 C1420 1.397 . S
C1419 C1424 1.363 . S
C1420 H1397 0.950 . S
C1420 C1419 1.397 . S
C1420 C1421 1.334 . S
C1421 H1398 0.950 . S
C1421 C1420 1.334 . S
C1421 C1422 1.287 . S
C1422 C1421 1.287 . S
C1422 C1423 1.524 . S
C1422 H1441 0.913 . S
C1423 H1399 0.950 . S
C1423 C1422 1.524 . S
C1423 C1424 1.415 . S
C1424 H1400 0.950 . S
C1424 C1419 1.363 . S
C1424 C1423 1.415 . S
C1425 H1401 0.951 . S
C1425 C1426 1.366 . S
C1425 C1427 1.388 . S
C1426 C1425 1.366 . S
C1426 C1430 1.385 . S
C1427 H1402 0.951 . S
C1427 C1425 1.388 . S
C1427 C1428 1.366 . S
C1428 C1427 1.366 . S
C1428 C1429 1.414 . S
C1428 C1431 1.499 . S
C1429 H1403 0.950 . S
C1429 C1428 1.414 . S
C1429 C1430 1.374 . S
C1430 H1404 0.950 . S
C1430 C1426 1.385 . S
C1430 C1429 1.374 . S
C1431 C1428 1.499 . S
C1431 C1432 1.373 . S
C1431 C1433 1.389 . S
C1432 H1405 0.950 . S
C1432 C1418 1.377 1_565 S
C1432 C1431 1.373 . S
C1433 C1417 1.377 1_565 S
C1433 C1431 1.389 . S
C1433 C1434 1.524 . S
C1434 C1433 1.524 . S
C1434 C1435 1.397 . S
C1434 C1439 1.363 . S
C1435 H1406 0.950 . S
C1435 C1434 1.397 . S
C1435 C1436 1.334 . S
C1436 H1407 0.950 . S
C1436 C1435 1.334 . S
C1436 C1437 1.287 . S
C1437 C1436 1.287 . S
C1437 C1438 1.524 . S
C1437 H1440 0.999 . S
C1438 H1408 0.950 . S
C1438 C1437 1.524 . S
C1438 C1439 1.415 . S
C1439 H1409 0.950 . S
C1439 C1434 1.363 . S
C1439 C1438 1.415 . S
H1440 C1437 0.999 . S
H1441 C1422 0.913 . S
H1442 C1460 0.951 . S
H1443 C1462 0.951 . S
H1444 C1464 0.950 . S
H1445 C1465 0.950 . S
H1446 C1467 0.950 . S
H1447 C1470 0.929 1_655 S
H1448 C1471 0.950 1_655 S
H1449 C1473 0.950 . S
H1450 C1474 0.950 . S
H1451 C1475 0.951 . S
H1452 C1477 0.951 . S
H1453 C1479 0.950 . S
H1454 C1480 0.950 . S
H1455 C1482 0.950 . S
H1456 C1485 0.950 . S
H1457 C1486 0.950 . S
H1458 C1488 0.950 . S
H1459 C1489 0.950 . S
C1460 H1442 0.951 . S
C1460 C1461 1.366 . S
C1460 C1462 1.388 . S
C1461 C1460 1.366 . S
C1461 C1465 1.385 . S
C1462 H1443 0.951 . S
C1462 C1460 1.388 . S
C1462 C1463 1.366 . S
C1463 C1462 1.366 . S
C1463 C1464 1.414 . S
C1463 C1466 1.499 . S
C1464 H1444 0.950 . S
C1464 C1463 1.414 . S
C1464 C1465 1.374 . S
C1465 H1445 0.950 . S
C1465 C1461 1.385 . S
C1465 C1464 1.374 . S
C1466 C1463 1.499 . S
C1466 C1467 1.373 . S
C1466 C1468 1.389 1_655 S
C1467 H1446 0.950 . S
C1467 C1466 1.373 . S
C1467 C1483 1.377 1_655 S
C1468 C1466 1.389 1_455 S
C1468 C1469 1.524 . S
C1468 C1482 1.377 . S
C1469 C1468 1.524 . S
C1469 C1470 1.424 . S
C1469 C1474 1.363 . S
C1470 H1447 0.929 1_455 S
C1470 C1469 1.424 . S
C1470 C1471 1.328 . S
C1471 H1448 0.950 1_455 S
C1471 C1470 1.328 . S
C1471 C1472 1.287 . S
C1472 C1471 1.287 . S
C1472 C1473 1.524 . S
C1472 H1491 0.913 . S
C1473 H1449 0.950 . S
C1473 C1472 1.524 . S
C1473 C1474 1.415 . S
C1474 H1450 0.950 . S
C1474 C1469 1.363 . S
C1474 C1473 1.415 . S
C1475 H1451 0.951 . S
C1475 C1476 1.366 . S
C1475 C1477 1.388 . S
C1476 C1475 1.366 . S
C1476 C1480 1.385 . S
C1477 H1452 0.951 . S
C1477 C1475 1.388 . S
C1477 C1478 1.366 . S
C1478 C1477 1.366 . S
C1478 C1479 1.414 . S
C1478 C1481 1.499 . S
C1479 H1453 0.950 . S
C1479 C1478 1.414 . S
C1479 C1480 1.374 . S
C1480 H1454 0.950 . S
C1480 C1476 1.385 . S
C1480 C1479 1.374 . S
C1481 C1478 1.499 . S
C1481 C1482 1.373 . S
C1481 C1483 1.389 . S
C1482 H1455 0.950 . S
C1482 C1468 1.377 . S
C1482 C1481 1.373 . S
C1483 C1467 1.377 1_455 S
C1483 C1481 1.389 . S
C1483 C1484 1.524 . S
C1484 C1483 1.524 . S
C1484 C1485 1.397 . S
C1484 C1489 1.363 1_455 S
C1485 H1456 0.950 . S
C1485 C1484 1.397 . S
C1485 C1486 1.334 . S
C1486 H1457 0.950 . S
C1486 C1485 1.334 . S
C1486 C1487 1.287 1_455 S
C1487 C1486 1.287 1_655 S
C1487 C1488 1.524 . S
C1487 H1490 0.999 . S
C1488 H1458 0.950 . S
C1488 C1487 1.524 . S
C1488 C1489 1.415 . S
C1489 H1459 0.950 . S
C1489 C1484 1.363 1_655 S
C1489 C1488 1.415 . S
H1490 C1487 0.999 . S
H1491 C1472 0.913 . S
H1492 C1510 0.951 . S
H1493 C1512 0.951 . S
H1494 C1514 0.950 . S
H1495 C1515 0.950 . S
H1496 C1517 0.950 . S
H1497 C1520 0.950 . S
H1498 C1521 0.950 . S
H1499 C1523 0.950 . S
H1500 C1524 0.950 . S
H1501 C1525 0.951 . S
H1502 C1527 0.951 . S
H1503 C1529 0.950 . S
H1504 C1530 0.950 . S
H1505 C1532 0.950 . S
H1506 C1535 0.950 . S
H1507 C1536 0.950 . S
H1508 C1538 0.950 . S
H1509 C1539 0.950 . S
C1510 H1492 0.951 . S
C1510 C1511 1.366 . S
C1510 C1512 1.388 . S
C1511 C1510 1.366 . S
C1511 C1515 1.385 . S
C1512 H1493 0.951 . S
C1512 C1510 1.388 . S
C1512 C1513 1.366 . S
C1513 C1512 1.366 . S
C1513 C1514 1.414 . S
C1513 C1516 1.499 . S
C1514 H1494 0.950 . S
C1514 C1513 1.414 . S
C1514 C1515 1.374 . S
C1515 H1495 0.950 . S
C1515 C1511 1.385 . S
C1515 C1514 1.374 . S
C1516 C1513 1.499 . S
C1516 C1517 1.373 . S
C1516 C1518 1.389 . S
C1517 H1496 0.950 . S
C1517 C1516 1.373 . S
C1517 C1533 1.377 . S
C1518 C1516 1.389 . S
C1518 C1519 1.524 . S
C1518 C1532 1.377 . S
C1519 C1518 1.524 . S
C1519 C1520 1.397 . S
C1519 C1524 1.363 . S
C1520 H1497 0.950 . S
C1520 C1519 1.397 . S
C1520 C1521 1.334 . S
C1521 H1498 0.950 . S
C1521 C1520 1.334 . S
C1521 C1522 1.287 . S
C1522 C1521 1.287 . S
C1522 C1523 1.524 . S
C1522 H1541 0.913 . S
C1523 H1499 0.950 . S
C1523 C1522 1.524 . S
C1523 C1524 1.415 . S
C1524 H1500 0.950 . S
C1524 C1519 1.363 . S
C1524 C1523 1.415 . S
C1525 H1501 0.951 . S
C1525 C1526 1.366 . S
C1525 C1527 1.388 . S
C1526 C1525 1.366 . S
C1526 C1530 1.385 . S
C1527 H1502 0.951 . S
C1527 C1525 1.388 . S
C1527 C1528 1.366 . S
C1528 C1527 1.366 . S
C1528 C1529 1.414 . S
C1528 C1531 1.499 . S
C1529 H1503 0.950 . S
C1529 C1528 1.414 . S
C1529 C1530 1.374 . S
C1530 H1504 0.950 . S
C1530 C1526 1.385 . S
C1530 C1529 1.374 . S
C1531 C1528 1.499 . S
C1531 C1532 1.373 . S
C1531 C1533 1.389 . S
C1532 H1505 0.950 . S
C1532 C1518 1.377 . S
C1532 C1531 1.373 . S
C1533 C1517 1.377 . S
C1533 C1531 1.389 . S
C1533 C1534 1.524 . S
C1534 C1533 1.524 . S
C1534 C1535 1.397 . S
C1534 C1539 1.363 . S
C1535 H1506 0.950 . S
C1535 C1534 1.397 . S
C1535 C1536 1.334 . S
C1536 H1507 0.950 . S
C1536 C1535 1.334 . S
C1536 C1537 1.287 . S
C1537 C1536 1.287 . S
C1537 C1538 1.524 . S
C1537 H1540 0.999 . S
C1538 H1508 0.950 . S
C1538 C1537 1.524 . S
C1538 C1539 1.415 . S
C1539 H1509 0.950 . S
C1539 C1534 1.363 . S
C1539 C1538 1.415 . S
H1540 C1537 0.999 . S
H1541 C1522 0.913 . S
H1542 C1560 0.951 . S
H1543 C1562 0.951 . S
H1544 C1564 0.950 . S
H1545 C1565 0.950 . S
H1546 C1567 0.950 . S
H1547 C1570 0.950 . S
H1548 C1571 0.950 . S
H1549 C1573 0.950 . S
H1550 C1574 0.950 . S
H1551 C1575 0.951 . S
H1552 C1577 0.951 . S
H1553 C1579 0.950 . S
H1554 C1580 0.950 . S
H1555 C1582 0.950 . S
H1556 C1585 0.950 . S
H1557 C1586 0.950 . S
H1558 C1588 0.950 . S
H1559 C1589 0.950 . S
C1560 H1542 0.951 . S
C1560 C1561 1.366 . S
C1560 C1562 1.388 . S
C1561 C1560 1.366 . S
C1561 C1565 1.385 . S
C1562 H1543 0.951 . S
C1562 C1560 1.388 . S
C1562 C1563 1.366 . S
C1563 C1562 1.366 . S
C1563 C1564 1.414 . S
C1563 C1566 1.499 . S
C1564 H1544 0.950 . S
C1564 C1563 1.414 . S
C1564 C1565 1.374 . S
C1565 H1545 0.950 . S
C1565 C1561 1.385 . S
C1565 C1564 1.374 . S
C1566 C1563 1.499 . S
C1566 C1567 1.373 . S
C1566 C1568 1.389 . S
C1567 H1546 0.950 . S
C1567 C1566 1.373 . S
C1567 C1583 1.377 . S
C1568 C1566 1.389 . S
C1568 C1569 1.524 . S
C1568 C1582 1.377 . S
C1569 C1568 1.524 . S
C1569 C1570 1.397 . S
C1569 C1574 1.363 . S
C1570 H1547 0.950 . S
C1570 C1569 1.397 . S
C1570 C1571 1.334 . S
C1571 H1548 0.950 . S
C1571 C1570 1.334 . S
C1571 C1572 1.287 . S
C1572 C1571 1.287 . S
C1572 C1573 1.524 . S
C1572 H1591 0.913 . S
C1573 H1549 0.950 . S
C1573 C1572 1.524 . S
C1573 C1574 1.415 . S
C1574 H1550 0.950 . S
C1574 C1569 1.363 . S
C1574 C1573 1.415 . S
C1575 H1551 0.951 . S
C1575 C1576 1.366 . S
C1575 C1577 1.388 . S
C1576 C1575 1.366 . S
C1576 C1580 1.385 . S
C1577 H1552 0.951 . S
C1577 C1575 1.388 . S
C1577 C1578 1.366 . S
C1578 C1577 1.366 . S
C1578 C1579 1.414 . S
C1578 C1581 1.499 . S
C1579 H1553 0.950 . S
C1579 C1578 1.414 . S
C1579 C1580 1.374 . S
C1580 H1554 0.950 . S
C1580 C1576 1.385 . S
C1580 C1579 1.374 . S
C1581 C1578 1.499 . S
C1581 C1582 1.373 . S
C1581 C1583 1.389 . S
C1582 H1555 0.950 . S
C1582 C1568 1.377 . S
C1582 C1581 1.373 . S
C1583 C1567 1.377 . S
C1583 C1581 1.389 . S
C1583 C1584 1.524 . S
C1584 C1583 1.524 . S
C1584 C1585 1.397 . S
C1584 C1589 1.363 . S
C1585 H1556 0.950 . S
C1585 C1584 1.397 . S
C1585 C1586 1.334 . S
C1586 H1557 0.950 . S
C1586 C1585 1.334 . S
C1586 C1587 1.287 . S
C1587 C1586 1.287 . S
C1587 C1588 1.524 . S
C1587 H1590 0.999 . S
C1588 H1558 0.950 . S
C1588 C1587 1.524 . S
C1588 C1589 1.415 . S
C1589 H1559 0.950 . S
C1589 C1584 1.363 . S
C1589 C1588 1.415 . S
H1590 C1587 0.999 . S
H1591 C1572 0.913 . S
H1592 C1610 0.951 . S
H1593 C1612 0.951 . S
H1594 C1614 0.950 . S
H1595 C1615 0.950 . S
H1596 C1617 0.950 . S
H1597 C1620 0.950 . S
H1598 C1621 0.950 . S
H1599 C1623 0.950 . S
H1600 C1624 0.950 . S
H1601 C1625 0.951 . S
H1602 C1627 0.951 . S
H1603 C1629 0.950 . S
H1604 C1630 0.950 . S
H1605 C1632 0.950 . S
H1606 C1635 0.950 . S
H1607 C1636 0.950 . S
H1608 C1638 0.950 . S
H1609 C1639 0.950 . S
C1610 H1592 0.951 . S
C1610 C1611 1.366 . S
C1610 C1612 1.388 . S
C1611 C1610 1.366 . S
C1611 C1615 1.385 . S
C1612 H1593 0.951 . S
C1612 C1610 1.388 . S
C1612 C1613 1.366 . S
C1613 C1612 1.366 . S
C1613 C1614 1.414 . S
C1613 C1616 1.499 . S
C1614 H1594 0.950 . S
C1614 C1613 1.414 . S
C1614 C1615 1.374 . S
C1615 H1595 0.950 . S
C1615 C1611 1.385 . S
C1615 C1614 1.374 . S
C1616 C1613 1.499 . S
C1616 C1617 1.373 . S
C1616 C1618 1.389 . S
C1617 H1596 0.950 . S
C1617 C1616 1.373 . S
C1617 C1633 1.377 . S
C1618 C1616 1.389 . S
C1618 C1619 1.524 . S
C1618 C1632 1.377 . S
C1619 C1618 1.524 . S
C1619 C1620 1.397 . S
C1619 C1624 1.363 . S
C1620 H1597 0.950 . S
C1620 C1619 1.397 . S
C1620 C1621 1.334 . S
C1621 H1598 0.950 . S
C1621 C1620 1.334 . S
C1621 C1622 1.287 . S
C1622 C1621 1.287 . S
C1622 C1623 1.524 . S
C1622 H1641 0.913 . S
C1623 H1599 0.950 . S
C1623 C1622 1.524 . S
C1623 C1624 1.415 . S
C1624 H1600 0.950 . S
C1624 C1619 1.363 . S
C1624 C1623 1.415 . S
C1625 H1601 0.951 . S
C1625 C1626 1.366 . S
C1625 C1627 1.388 . S
C1626 C1625 1.366 . S
C1626 C1630 1.385 . S
C1627 H1602 0.951 . S
C1627 C1625 1.388 . S
C1627 C1628 1.366 . S
C1628 C1627 1.366 . S
C1628 C1629 1.414 . S
C1628 C1631 1.499 . S
C1629 H1603 0.950 . S
C1629 C1628 1.414 . S
C1629 C1630 1.374 . S
C1630 H1604 0.950 . S
C1630 C1626 1.385 . S
C1630 C1629 1.374 . S
C1631 C1628 1.499 . S
C1631 C1632 1.373 . S
C1631 C1633 1.389 . S
C1632 H1605 0.950 . S
C1632 C1618 1.377 . S
C1632 C1631 1.373 . S
C1633 C1617 1.377 . S
C1633 C1631 1.389 . S
C1633 C1634 1.524 . S
C1634 C1633 1.524 . S
C1634 C1635 1.397 . S
C1634 C1639 1.363 . S
C1635 H1606 0.950 . S
C1635 C1634 1.397 . S
C1635 C1636 1.334 . S
C1636 H1607 0.950 . S
C1636 C1635 1.334 . S
C1636 C1637 1.287 . S
C1637 C1636 1.287 . S
C1637 C1638 1.524 . S
C1637 H1640 0.999 . S
C1638 H1608 0.950 . S
C1638 C1637 1.524 . S
C1638 C1639 1.415 . S
C1639 H1609 0.950 . S
C1639 C1634 1.363 . S
C1639 C1638 1.415 . S
H1640 C1637 0.999 . S
H1641 C1622 0.913 . S
H1642 C1660 0.951 . S
H1643 C1662 0.951 . S
H1644 C1664 0.950 . S
H1645 C1665 0.950 . S
H1646 C1667 0.950 . S
H1647 C1670 0.950 . S
H1648 C1671 0.950 . S
H1649 C1673 0.950 . S
H1650 C1674 0.950 . S
H1651 C1675 0.951 . S
H1652 C1677 0.951 . S
H1653 C1679 0.950 . S
H1654 C1680 0.950 . S
H1655 C1682 0.950 . S
H1656 C1685 0.950 . S
H1657 C1686 0.950 . S
H1658 C1688 0.950 . S
H1659 C1689 0.950 . S
C1660 H1642 0.951 . S
C1660 C1661 1.366 . S
C1660 C1662 1.388 . S
C1661 C1660 1.366 . S
C1661 C1665 1.385 . S
C1662 H1643 0.951 . S
C1662 C1660 1.388 . S
C1662 C1663 1.366 . S
C1663 C1662 1.366 . S
C1663 C1664 1.414 . S
C1663 C1666 1.499 . S
C1664 H1644 0.950 . S
C1664 C1663 1.414 . S
C1664 C1665 1.374 . S
C1665 H1645 0.950 . S
C1665 C1661 1.385 . S
C1665 C1664 1.374 . S
C1666 C1663 1.499 . S
C1666 C1667 1.373 . S
C1666 C1668 1.389 . S
C1667 H1646 0.950 . S
C1667 C1666 1.373 . S
C1667 C1683 1.377 . S
C1668 C1666 1.389 . S
C1668 C1669 1.524 . S
C1668 C1682 1.377 . S
C1669 C1668 1.524 . S
C1669 C1670 1.397 . S
C1669 C1674 1.363 . S
C1670 H1647 0.950 . S
C1670 C1669 1.397 . S
C1670 C1671 1.334 . S
C1671 H1648 0.950 . S
C1671 C1670 1.334 . S
C1671 C1672 1.287 . S
C1672 C1671 1.287 . S
C1672 C1673 1.524 . S
C1672 H1691 0.913 . S
C1673 H1649 0.950 . S
C1673 C1672 1.524 . S
C1673 C1674 1.415 . S
C1674 H1650 0.950 . S
C1674 C1669 1.363 . S
C1674 C1673 1.415 . S
C1675 H1651 0.951 . S
C1675 C1676 1.366 . S
C1675 C1677 1.388 . S
C1676 C1675 1.366 . S
C1676 C1680 1.385 . S
C1677 H1652 0.951 . S
C1677 C1675 1.388 . S
C1677 C1678 1.366 . S
C1678 C1677 1.366 . S
C1678 C1679 1.414 . S
C1678 C1681 1.499 . S
C1679 H1653 0.950 . S
C1679 C1678 1.414 . S
C1679 C1680 1.374 . S
C1680 H1654 0.950 . S
C1680 C1676 1.385 . S
C1680 C1679 1.374 . S
C1681 C1678 1.499 . S
C1681 C1682 1.373 . S
C1681 C1683 1.389 . S
C1682 H1655 0.950 . S
C1682 C1668 1.377 . S
C1682 C1681 1.373 . S
C1683 C1667 1.377 . S
C1683 C1681 1.389 . S
C1683 C1684 1.524 . S
C1684 C1683 1.524 . S
C1684 C1685 1.397 . S
C1684 C1689 1.363 . S
C1685 H1656 0.950 . S
C1685 C1684 1.397 . S
C1685 C1686 1.334 . S
C1686 H1657 0.950 . S
C1686 C1685 1.334 . S
C1686 C1687 1.287 . S
C1687 C1686 1.287 . S
C1687 C1688 1.524 . S
C1687 H1690 0.999 . S
C1688 H1658 0.950 . S
C1688 C1687 1.524 . S
C1688 C1689 1.415 . S
C1689 H1659 0.950 . S
C1689 C1684 1.363 . S
C1689 C1688 1.415 . S
H1690 C1687 0.999 . S
H1691 C1672 0.913 . S
H1692 C1710 0.951 . S
H1693 C1712 0.951 . S
H1694 C1714 0.950 . S
H1695 C1715 0.950 . S
H1696 C1717 0.950 . S
H1697 C1720 0.950 . S
H1698 C1721 0.950 . S
H1699 C1723 0.950 . S
H1700 C1724 0.950 . S
H1701 C1725 0.951 . S
H1702 C1727 0.951 . S
H1703 C1729 0.950 . S
H1704 C1730 0.950 . S
H1705 C1732 0.950 . S
H1706 C1735 0.950 . S
H1707 C1736 0.950 . S
H1708 C1738 0.950 . S
H1709 C1739 0.950 . S
C1710 H1692 0.951 . S
C1710 C1711 1.366 . S
C1710 C1712 1.388 . S
C1711 C1710 1.366 . S
C1711 C1715 1.385 . S
C1712 H1693 0.951 . S
C1712 C1710 1.388 . S
C1712 C1713 1.366 . S
C1713 C1712 1.366 . S
C1713 C1714 1.414 . S
C1713 C1716 1.499 . S
C1714 H1694 0.950 . S
C1714 C1713 1.414 . S
C1714 C1715 1.374 . S
C1715 H1695 0.950 . S
C1715 C1711 1.385 . S
C1715 C1714 1.374 . S
C1716 C1713 1.499 . S
C1716 C1717 1.373 . S
C1716 C1718 1.372 1_565 S
C1717 H1696 0.950 . S
C1717 C1716 1.373 . S
C1717 C1733 1.377 1_565 S
C1718 C1716 1.372 1_545 S
C1718 C1719 1.527 1_545 S
C1718 C1732 1.392 . S
C1719 C1718 1.527 1_565 S
C1719 C1720 1.397 . S
C1719 C1724 1.363 1_565 S
C1720 H1697 0.950 . S
C1720 C1719 1.397 . S
C1720 C1721 1.334 . S
C1721 H1698 0.950 . S
C1721 C1720 1.334 . S
C1721 C1722 1.287 . S
C1722 C1721 1.287 . S
C1722 C1723 1.524 1_565 S
C1722 H1741 0.913 . S
C1723 H1699 0.950 . S
C1723 C1722 1.524 1_545 S
C1723 C1724 1.415 . S
C1724 H1700 0.950 . S
C1724 C1719 1.363 1_545 S
C1724 C1723 1.415 . S
C1725 H1701 0.951 . S
C1725 C1726 1.366 . S
C1725 C1727 1.388 . S
C1726 C1725 1.366 . S
C1726 C1730 1.385 . S
C1727 H1702 0.951 . S
C1727 C1725 1.388 . S
C1727 C1728 1.366 . S
C1728 C1727 1.366 . S
C1728 C1729 1.414 . S
C1728 C1731 1.499 . S
C1729 H1703 0.950 . S
C1729 C1728 1.414 . S
C1729 C1730 1.374 . S
C1730 H1704 0.950 . S
C1730 C1726 1.385 . S
C1730 C1729 1.374 . S
C1731 C1728 1.499 . S
C1731 C1732 1.373 . S
C1731 C1733 1.389 . S
C1732 H1705 0.950 . S
C1732 C1718 1.392 . S
C1732 C1731 1.373 . S
C1733 C1717 1.377 1_545 S
C1733 C1731 1.389 . S
C1733 C1734 1.524 . S
C1734 C1733 1.524 . S
C1734 C1735 1.397 . S
C1734 C1739 1.363 1_545 S
C1735 H1706 0.950 . S
C1735 C1734 1.397 . S
C1735 C1736 1.334 . S
C1736 H1707 0.950 . S
C1736 C1735 1.334 . S
C1736 C1737 1.287 . S
C1737 C1736 1.287 . S
C1737 C1738 1.524 1_545 S
C1737 H1740 0.999 . S
C1738 H1708 0.950 . S
C1738 C1737 1.524 1_565 S
C1738 C1739 1.415 . S
C1739 H1709 0.950 . S
C1739 C1734 1.363 1_565 S
C1739 C1738 1.415 . S
H1740 C1737 0.999 . S
H1741 C1722 0.913 . S
H1742 C1760 0.951 . S
H1743 C1762 0.951 . S
H1744 C1764 0.950 . S
H1745 C1765 0.950 . S
H1746 C1767 0.950 . S
H1747 C1770 0.950 . S
H1748 C1771 0.950 . S
H1749 C1773 0.950 . S
H1750 C1774 0.950 . S
H1751 C1775 0.951 . S
H1752 C1777 0.951 . S
H1753 C1779 0.950 . S
H1754 C1780 0.950 . S
H1755 C1782 0.950 . S
H1756 C1785 0.950 . S
H1757 C1786 0.950 . S
H1758 C1788 0.950 . S
H1759 C1789 0.950 . S
C1760 H1742 0.951 . S
C1760 C1761 1.366 . S
C1760 C1762 1.388 . S
C1761 C1760 1.366 . S
C1761 C1765 1.385 . S
C1762 H1743 0.951 . S
C1762 C1760 1.388 . S
C1762 C1763 1.366 . S
C1763 C1762 1.366 . S
C1763 C1764 1.414 . S
C1763 C1766 1.499 . S
C1764 H1744 0.950 . S
C1764 C1763 1.414 . S
C1764 C1765 1.374 . S
C1765 H1745 0.950 . S
C1765 C1761 1.385 . S
C1765 C1764 1.374 . S
C1766 C1763 1.499 . S
C1766 C1767 1.373 . S
C1766 C1768 1.389 . S
C1767 H1746 0.950 . S
C1767 C1766 1.373 . S
C1767 C1783 1.377 1_455 S
C1768 C1766 1.389 . S
C1768 C1769 1.524 . S
C1768 C1782 1.377 1_455 S
C1769 C1768 1.524 . S
C1769 C1770 1.397 . S
C1769 C1774 1.363 . S
C1770 H1747 0.950 . S
C1770 C1769 1.397 . S
C1770 C1771 1.334 . S
C1771 H1748 0.950 . S
C1771 C1770 1.334 . S
C1771 C1772 1.287 . S
C1772 C1771 1.287 . S
C1772 C1773 1.524 . S
C1772 H1791 0.913 . S
C1773 H1749 0.950 . S
C1773 C1772 1.524 . S
C1773 C1774 1.415 . S
C1774 H1750 0.950 . S
C1774 C1769 1.363 . S
C1774 C1773 1.415 . S
C1775 H1751 0.951 . S
C1775 C1776 1.366 . S
C1775 C1777 1.388 . S
C1776 C1775 1.366 . S
C1776 C1780 1.385 . S
C1777 H1752 0.951 . S
C1777 C1775 1.388 . S
C1777 C1778 1.366 . S
C1778 C1777 1.366 . S
C1778 C1779 1.414 . S
C1778 C1781 1.499 . S
C1779 H1753 0.950 . S
C1779 C1778 1.414 . S
C1779 C1780 1.374 . S
C1780 H1754 0.950 . S
C1780 C1776 1.385 . S
C1780 C1779 1.374 . S
C1781 C1778 1.499 . S
C1781 C1782 1.373 . S
C1781 C1783 1.389 . S
C1782 H1755 0.950 . S
C1782 C1768 1.377 1_655 S
C1782 C1781 1.373 . S
C1783 C1767 1.377 1_655 S
C1783 C1781 1.389 . S
C1783 C1784 1.524 . S
C1784 C1783 1.524 . S
C1784 C1785 1.397 . S
C1784 C1789 1.363 . S
C1785 H1756 0.950 . S
C1785 C1784 1.397 . S
C1785 C1786 1.334 . S
C1786 H1757 0.950 . S
C1786 C1785 1.334 . S
C1786 C1787 1.287 . S
C1787 C1786 1.287 . S
C1787 C1788 1.524 . S
C1787 H1790 0.999 . S
C1788 H1758 0.950 . S
C1788 C1787 1.524 . S
C1788 C1789 1.415 . S
C1789 H1759 0.950 . S
C1789 C1784 1.363 . S
C1789 C1788 1.415 . S
H1790 C1787 0.999 . S
H1791 C1772 0.913 . S
H1792 C1810 0.951 . S
H1793 C1812 0.951 . S
H1794 C1814 0.950 . S
H1795 C1815 0.950 . S
H1796 C1817 0.950 . S
H1797 C1820 0.950 . S
H1798 C1821 0.950 . S
H1799 C1823 0.950 . S
H1800 C1824 0.950 . S
H1801 C1825 0.951 . S
H1802 C1827 0.951 . S
H1803 C1829 0.950 . S
H1804 C1830 0.950 . S
H1805 C1832 0.950 . S
H1806 C1835 0.950 . S
H1807 C1836 0.950 . S
H1808 C1838 0.950 . S
H1809 C1839 0.950 . S
C1810 H1792 0.951 . S
C1810 C1811 1.366 . S
C1810 C1812 1.388 . S
C1811 C1810 1.366 . S
C1811 C1815 1.385 . S
C1812 H1793 0.951 . S
C1812 C1810 1.388 . S
C1812 C1813 1.366 . S
C1813 C1812 1.366 . S
C1813 C1814 1.414 . S
C1813 C1816 1.499 . S
C1814 H1794 0.950 . S
C1814 C1813 1.414 . S
C1814 C1815 1.374 . S
C1815 H1795 0.950 . S
C1815 C1811 1.385 . S
C1815 C1814 1.374 . S
C1816 C1813 1.499 . S
C1816 C1817 1.373 . S
C1816 C1818 1.389 . S
C1817 H1796 0.950 . S
C1817 C1816 1.373 . S
C1817 C1833 1.377 . S
C1818 C1816 1.389 . S
C1818 C1819 1.524 . S
C1818 C1832 1.377 . S
C1819 C1818 1.524 . S
C1819 C1820 1.397 . S
C1819 C1824 1.363 . S
C1820 H1797 0.950 . S
C1820 C1819 1.397 . S
C1820 C1821 1.334 . S
C1821 H1798 0.950 . S
C1821 C1820 1.334 . S
C1821 C1822 1.287 . S
C1822 C1821 1.287 . S
C1822 C1823 1.524 . S
C1822 H1841 0.913 . S
C1823 H1799 0.950 . S
C1823 C1822 1.524 . S
C1823 C1824 1.415 . S
C1824 H1800 0.950 . S
C1824 C1819 1.363 . S
C1824 C1823 1.415 . S
C1825 H1801 0.951 . S
C1825 C1826 1.366 . S
C1825 C1827 1.388 . S
C1826 C1825 1.366 . S
C1826 C1830 1.385 . S
C1827 H1802 0.951 . S
C1827 C1825 1.388 . S
C1827 C1828 1.366 . S
C1828 C1827 1.366 . S
C1828 C1829 1.414 . S
C1828 C1831 1.499 . S
C1829 H1803 0.950 . S
C1829 C1828 1.414 . S
C1829 C1830 1.374 . S
C1830 H1804 0.950 . S
C1830 C1826 1.385 . S
C1830 C1829 1.374 . S
C1831 C1828 1.499 . S
C1831 C1832 1.373 . S
C1831 C1833 1.389 . S
C1832 H1805 0.950 . S
C1832 C1818 1.377 . S
C1832 C1831 1.373 . S
C1833 C1817 1.377 . S
C1833 C1831 1.389 . S
C1833 C1834 1.524 . S
C1834 C1833 1.524 . S
C1834 C1835 1.397 . S
C1834 C1839 1.363 . S
C1835 H1806 0.950 . S
C1835 C1834 1.397 . S
C1835 C1836 1.334 . S
C1836 H1807 0.950 . S
C1836 C1835 1.334 . S
C1836 C1837 1.287 . S
C1837 C1836 1.287 . S
C1837 C1838 1.524 . S
C1837 H1840 0.999 . S
C1838 H1808 0.950 . S
C1838 C1837 1.524 . S
C1838 C1839 1.415 . S
C1839 H1809 0.950 . S
C1839 C1834 1.363 . S
C1839 C1838 1.415 . S
H1840 C1837 0.999 . S
H1841 C1822 0.913 . S
H1842 C1860 0.951 . S
H1843 C1862 0.951 . S
H1844 C1864 0.950 . S
H1845 C1865 0.950 . S
H1846 C1867 0.950 . S
H1847 C1870 0.950 . S
H1848 C1871 0.950 . S
H1849 C1873 0.950 . S
H1850 C1874 0.950 . S
H1851 C1875 0.951 . S
H1852 C1877 0.951 . S
H1853 C1879 0.950 . S
H1854 C1880 0.950 . S
H1855 C1882 0.950 . S
H1856 C1885 0.950 . S
H1857 C1886 0.950 . S
H1858 C1888 0.950 . S
H1859 C1889 0.950 . S
C1860 H1842 0.951 . S
C1860 C1861 1.366 . S
C1860 C1862 1.388 . S
C1861 C1860 1.366 . S
C1861 C1865 1.385 . S
C1862 H1843 0.951 . S
C1862 C1860 1.388 . S
C1862 C1863 1.366 . S
C1863 C1862 1.366 . S
C1863 C1864 1.414 . S
C1863 C1866 1.499 . S
C1864 H1844 0.950 . S
C1864 C1863 1.414 . S
C1864 C1865 1.374 . S
C1865 H1845 0.950 . S
C1865 C1861 1.385 . S
C1865 C1864 1.374 . S
C1866 C1863 1.499 . S
C1866 C1867 1.373 . S
C1866 C1868 1.389 . S
C1867 H1846 0.950 . S
C1867 C1866 1.373 . S
C1867 C1883 1.377 1_455 S
C1868 C1866 1.389 . S
C1868 C1869 1.524 . S
C1868 C1882 1.377 1_455 S
C1869 C1868 1.524 . S
C1869 C1870 1.397 . S
C1869 C1874 1.363 . S
C1870 H1847 0.950 . S
C1870 C1869 1.397 . S
C1870 C1871 1.334 . S
C1871 H1848 0.950 . S
C1871 C1870 1.334 . S
C1871 C1872 1.287 . S
C1872 C1871 1.287 . S
C1872 C1873 1.524 . S
C1872 H1891 0.913 . S
C1873 H1849 0.950 . S
C1873 C1872 1.524 . S
C1873 C1874 1.415 . S
C1874 H1850 0.950 . S
C1874 C1869 1.363 . S
C1874 C1873 1.415 . S
C1875 H1851 0.951 . S
C1875 C1876 1.366 . S
C1875 C1877 1.388 . S
C1876 C1875 1.366 . S
C1876 C1880 1.385 . S
C1877 H1852 0.951 . S
C1877 C1875 1.388 . S
C1877 C1878 1.366 . S
C1878 C1877 1.366 . S
C1878 C1879 1.414 . S
C1878 C1881 1.499 . S
C1879 H1853 0.950 . S
C1879 C1878 1.414 . S
C1879 C1880 1.374 . S
C1880 H1854 0.950 . S
C1880 C1876 1.385 . S
C1880 C1879 1.374 . S
C1881 C1878 1.499 . S
C1881 C1882 1.373 . S
C1881 C1883 1.389 . S
C1882 H1855 0.950 . S
C1882 C1868 1.377 1_655 S
C1882 C1881 1.373 . S
C1883 C1867 1.377 1_655 S
C1883 C1881 1.389 . S
C1883 C1884 1.524 . S
C1884 C1883 1.524 . S
C1884 C1885 1.397 . S
C1884 C1889 1.363 . S
C1885 H1856 0.950 . S
C1885 C1884 1.397 . S
C1885 C1886 1.334 . S
C1886 H1857 0.950 . S
C1886 C1885 1.334 . S
C1886 C1887 1.287 . S
C1887 C1886 1.287 . S
C1887 C1888 1.524 . S
C1887 H1890 0.999 . S
C1888 H1858 0.950 . S
C1888 C1887 1.524 . S
C1888 C1889 1.415 . S
C1889 H1859 0.950 . S
C1889 C1884 1.363 . S
C1889 C1888 1.415 . S
H1890 C1887 0.999 . S
H1891 C1872 0.913 . S
H1892 C1910 0.951 . S
H1893 C1912 0.951 . S
H1894 C1914 0.950 . S
H1895 C1915 0.950 . S
H1896 C1917 0.950 . S
H1897 C1920 0.950 . S
H1898 C1921 0.950 . S
H1899 C1923 0.950 . S
H1900 C1924 0.950 . S
H1901 C1925 0.951 . S
H1902 C1927 0.951 . S
H1903 C1929 0.950 . S
H1904 C1930 0.950 . S
H1905 C1932 0.950 . S
H1906 C1935 0.950 . S
H1907 C1936 0.950 . S
H1908 C1938 0.950 . S
H1909 C1939 0.950 . S
C1910 H1892 0.951 . S
C1910 C1911 1.366 . S
C1910 C1912 1.388 . S
C1911 C1910 1.366 . S
C1911 C1915 1.385 . S
C1912 H1893 0.951 . S
C1912 C1910 1.388 . S
C1912 C1913 1.366 . S
C1913 C1912 1.366 . S
C1913 C1914 1.414 . S
C1913 C1916 1.499 . S
C1914 H1894 0.950 . S
C1914 C1913 1.414 . S
C1914 C1915 1.374 . S
C1915 H1895 0.950 . S
C1915 C1911 1.385 . S
C1915 C1914 1.374 . S
C1916 C1913 1.499 . S
C1916 C1917 1.373 . S
C1916 C1918 1.389 . S
C1917 H1896 0.950 . S
C1917 C1916 1.373 . S
C1917 C1933 1.377 . S
C1918 C1916 1.389 . S
C1918 C1919 1.524 . S
C1918 C1932 1.377 . S
C1919 C1918 1.524 . S
C1919 C1920 1.397 . S
C1919 C1924 1.363 . S
C1920 H1897 0.950 . S
C1920 C1919 1.397 . S
C1920 C1921 1.334 . S
C1921 H1898 0.950 . S
C1921 C1920 1.334 . S
C1921 C1922 1.287 . S
C1922 C1921 1.287 . S
C1922 C1923 1.524 . S
C1922 H1941 0.913 . S
C1923 H1899 0.950 . S
C1923 C1922 1.524 . S
C1923 C1924 1.415 . S
C1924 H1900 0.950 . S
C1924 C1919 1.363 . S
C1924 C1923 1.415 . S
C1925 H1901 0.951 . S
C1925 C1926 1.366 . S
C1925 C1927 1.388 . S
C1926 C1925 1.366 . S
C1926 C1930 1.385 . S
C1927 H1902 0.951 . S
C1927 C1925 1.388 . S
C1927 C1928 1.366 . S
C1928 C1927 1.366 . S
C1928 C1929 1.414 . S
C1928 C1931 1.499 . S
C1929 H1903 0.950 . S
C1929 C1928 1.414 . S
C1929 C1930 1.374 . S
C1930 H1904 0.950 . S
C1930 C1926 1.385 . S
C1930 C1929 1.374 . S
C1931 C1928 1.499 . S
C1931 C1932 1.373 . S
C1931 C1933 1.389 . S
C1932 H1905 0.950 . S
C1932 C1918 1.377 . S
C1932 C1931 1.373 . S
C1933 C1917 1.377 . S
C1933 C1931 1.389 . S
C1933 C1934 1.524 . S
C1934 C1933 1.524 . S
C1934 C1935 1.397 . S
C1934 C1939 1.363 . S
C1935 H1906 0.950 . S
C1935 C1934 1.397 . S
C1935 C1936 1.334 . S
C1936 H1907 0.950 . S
C1936 C1935 1.334 . S
C1936 C1937 1.287 . S
C1937 C1936 1.287 . S
C1937 C1938 1.524 . S
C1937 H1940 0.999 . S
C1938 H1908 0.950 . S
C1938 C1937 1.524 . S
C1938 C1939 1.415 . S
C1939 H1909 0.950 . S
C1939 C1934 1.363 . S
C1939 C1938 1.415 . S
H1940 C1937 0.999 . S
H1941 C1922 0.913 . S
H1942 C1960 0.951 . S
H1943 C1962 0.951 . S
H1944 C1964 0.950 . S
H1945 C1965 0.950 . S
H1946 C1967 0.950 . S
H1947 C1970 0.950 . S
H1948 C1971 0.950 . S
H1949 C1973 0.950 . S
H1950 C1974 0.931 1_545 S
H1951 C1975 0.951 . S
H1952 C1977 0.951 . S
H1953 C1979 0.950 . S
H1954 C1980 0.950 . S
H1955 C1982 0.950 . S
H1956 C1985 0.950 . S
H1957 C1986 0.950 . S
H1958 C1988 0.950 . S
H1959 C1989 0.950 1_565 S
C1960 H1942 0.951 . S
C1960 C1961 1.366 . S
C1960 C1962 1.388 . S
C1961 C1960 1.366 . S
C1961 C1965 1.385 . S
C1962 H1943 0.951 . S
C1962 C1960 1.388 . S
C1962 C1963 1.366 . S
C1963 C1962 1.366 . S
C1963 C1964 1.414 . S
C1963 C1966 1.499 . S
C1964 H1944 0.950 . S
C1964 C1963 1.414 . S
C1964 C1965 1.374 . S
C1965 H1945 0.950 . S
C1965 C1961 1.385 . S
C1965 C1964 1.374 . S
C1966 C1963 1.499 . S
C1966 C1967 1.373 . S
C1966 C1968 1.389 . S
C1967 H1946 0.950 . S
C1967 C1966 1.373 . S
C1967 C1983 1.377 1_565 S
C1968 C1966 1.389 . S
C1968 C1969 1.524 . S
C1968 C1982 1.377 1_565 S
C1969 C1968 1.524 . S
C1969 C1970 1.397 . S
C1969 C1974 1.363 . S
C1970 H1947 0.950 . S
C1970 C1969 1.397 . S
C1970 C1971 1.334 . S
C1971 H1948 0.950 . S
C1971 C1970 1.334 . S
C1971 C1972 1.287 . S
C1972 C1971 1.287 . S
C1972 C1973 1.524 . S
C1972 H1991 0.913 . S
C1973 H1949 0.950 . S
C1973 C1972 1.524 . S
C1973 C1974 1.415 . S
C1974 H1950 0.931 1_565 S
C1974 C1969 1.363 . S
C1974 C1973 1.415 . S
C1975 H1951 0.951 . S
C1975 C1976 1.366 . S
C1975 C1977 1.388 . S
C1976 C1975 1.366 . S
C1976 C1980 1.385 . S
C1977 H1952 0.951 . S
C1977 C1975 1.388 . S
C1977 C1978 1.366 . S
C1978 C1977 1.366 . S
C1978 C1979 1.414 . S
C1978 C1981 1.499 . S
C1979 H1953 0.950 . S
C1979 C1978 1.414 . S
C1979 C1980 1.374 . S
C1980 H1954 0.950 . S
C1980 C1976 1.385 . S
C1980 C1979 1.374 . S
C1981 C1978 1.499 . S
C1981 C1982 1.373 . S
C1981 C1983 1.389 . S
C1982 H1955 0.950 . S
C1982 C1968 1.377 1_545 S
C1982 C1981 1.373 . S
C1983 C1967 1.377 1_545 S
C1983 C1981 1.389 . S
C1983 C1984 1.524 . S
C1984 C1983 1.524 . S
C1984 C1985 1.397 . S
C1984 C1989 1.363 . S
C1985 H1956 0.950 . S
C1985 C1984 1.397 . S
C1985 C1986 1.334 . S
C1986 H1957 0.950 . S
C1986 C1985 1.334 . S
C1986 C1987 1.287 . S
C1987 C1986 1.287 . S
C1987 C1988 1.524 . S
C1987 H1990 0.999 . S
C1988 H1958 0.950 . S
C1988 C1987 1.524 . S
C1988 C1989 1.415 . S
C1989 H1959 0.950 1_545 S
C1989 C1984 1.363 . S
C1989 C1988 1.415 . S
H1990 C1987 0.999 . S
H1991 C1972 0.913 . S
H1992 C2010 0.951 . S
H1993 C2012 0.951 . S
H1994 C2014 0.950 . S
H1995 C2015 0.950 . S
H1996 C2017 0.950 . S
H1997 C2020 0.950 . S
H1998 C2021 0.950 . S
H1999 C2023 0.950 . S
H2000 C2024 0.950 . S
H2001 C2025 0.951 . S
H2002 C2027 0.951 . S
H2003 C2029 0.950 . S
H2004 C2030 0.950 . S
H2005 C2032 0.950 . S
H2006 C2035 0.950 . S
H2007 C2036 0.950 . S
H2008 C2038 0.950 . S
H2009 C2039 0.950 . S
C2010 H1992 0.951 . S
C2010 C2011 1.366 . S
C2010 C2012 1.388 . S
C2011 C2010 1.366 . S
C2011 C2015 1.385 . S
C2012 H1993 0.951 . S
C2012 C2010 1.388 . S
C2012 C2013 1.366 . S
C2013 C2012 1.366 . S
C2013 C2014 1.414 . S
C2013 C2016 1.499 . S
C2014 H1994 0.950 . S
C2014 C2013 1.414 . S
C2014 C2015 1.374 . S
C2015 H1995 0.950 . S
C2015 C2011 1.385 . S
C2015 C2014 1.374 . S
C2016 C2013 1.499 . S
C2016 C2017 1.373 . S
C2016 C2018 1.389 . S
C2017 H1996 0.950 . S
C2017 C2016 1.373 . S
C2017 C2033 1.377 . S
C2018 C2016 1.389 . S
C2018 C2019 1.524 . S
C2018 C2032 1.377 . S
C2019 C2018 1.524 . S
C2019 C2020 1.397 . S
C2019 C2024 1.363 . S
C2020 H1997 0.950 . S
C2020 C2019 1.397 . S
C2020 C2021 1.334 . S
C2021 H1998 0.950 . S
C2021 C2020 1.334 . S
C2021 C2022 1.287 . S
C2022 C2021 1.287 . S
C2022 C2023 1.524 . S
C2022 H2041 0.913 . S
C2023 H1999 0.950 . S
C2023 C2022 1.524 . S
C2023 C2024 1.415 . S
C2024 H2000 0.950 . S
C2024 C2019 1.363 . S
C2024 C2023 1.415 . S
C2025 H2001 0.951 . S
C2025 C2026 1.366 . S
C2025 C2027 1.388 . S
C2026 C2025 1.366 . S
C2026 C2030 1.385 . S
C2027 H2002 0.951 . S
C2027 C2025 1.388 . S
C2027 C2028 1.366 . S
C2028 C2027 1.366 . S
C2028 C2029 1.414 . S
C2028 C2031 1.499 . S
C2029 H2003 0.950 . S
C2029 C2028 1.414 . S
C2029 C2030 1.374 . S
C2030 H2004 0.950 . S
C2030 C2026 1.385 . S
C2030 C2029 1.374 . S
C2031 C2028 1.499 . S
C2031 C2032 1.373 . S
C2031 C2033 1.389 . S
C2032 H2005 0.950 . S
C2032 C2018 1.377 . S
C2032 C2031 1.373 . S
C2033 C2017 1.377 . S
C2033 C2031 1.389 . S
C2033 C2034 1.524 . S
C2034 C2033 1.524 . S
C2034 C2035 1.397 . S
C2034 C2039 1.363 . S
C2035 H2006 0.950 . S
C2035 C2034 1.397 . S
C2035 C2036 1.334 . S
C2036 H2007 0.950 . S
C2036 C2035 1.334 . S
C2036 C2037 1.287 . S
C2037 C2036 1.287 . S
C2037 C2038 1.524 . S
C2037 H2040 0.999 . S
C2038 H2008 0.950 . S
C2038 C2037 1.524 . S
C2038 C2039 1.415 . S
C2039 H2009 0.950 . S
C2039 C2034 1.363 . S
C2039 C2038 1.415 . S
H2040 C2037 0.999 . S
H2041 C2022 0.913 . S
H2042 C2060 0.951 . S
H2043 C2062 0.951 . S
H2044 C2064 0.950 . S
H2045 C2065 0.950 . S
H2046 C2067 0.950 . S
H2047 C2070 0.950 . S
H2048 C2071 0.950 . S
H2049 C2073 0.950 . S
H2050 C2074 0.950 . S
H2051 C2075 0.951 . S
H2052 C2077 0.951 . S
H2053 C2079 0.950 . S
H2054 C2080 0.950 . S
H2055 C2082 0.950 . S
H2056 C2085 0.950 . S
H2057 C2086 0.950 . S
H2058 C2088 0.950 . S
H2059 C2089 0.950 . S
C2060 H2042 0.951 . S
C2060 C2061 1.366 . S
C2060 C2062 1.388 . S
C2061 C2060 1.366 . S
C2061 C2065 1.385 . S
C2062 H2043 0.951 . S
C2062 C2060 1.388 . S
C2062 C2063 1.366 . S
C2063 C2062 1.366 . S
C2063 C2064 1.414 . S
C2063 C2066 1.499 . S
C2064 H2044 0.950 . S
C2064 C2063 1.414 . S
C2064 C2065 1.374 . S
C2065 H2045 0.950 . S
C2065 C2061 1.385 . S
C2065 C2064 1.374 . S
C2066 C2063 1.499 . S
C2066 C2067 1.373 . S
C2066 C2068 1.389 . S
C2067 H2046 0.950 . S
C2067 C2066 1.373 . S
C2067 C2083 1.377 . S
C2068 C2066 1.389 . S
C2068 C2069 1.524 . S
C2068 C2082 1.377 . S
C2069 C2068 1.524 . S
C2069 C2070 1.397 . S
C2069 C2074 1.363 . S
C2070 H2047 0.950 . S
C2070 C2069 1.397 . S
C2070 C2071 1.334 . S
C2071 H2048 0.950 . S
C2071 C2070 1.334 . S
C2071 C2072 1.287 . S
C2072 C2071 1.287 . S
C2072 C2073 1.524 . S
C2072 H2091 0.913 . S
C2073 H2049 0.950 . S
C2073 C2072 1.524 . S
C2073 C2074 1.415 . S
C2074 H2050 0.950 . S
C2074 C2069 1.363 . S
C2074 C2073 1.415 . S
C2075 H2051 0.951 . S
C2075 C2076 1.366 . S
C2075 C2077 1.388 . S
C2076 C2075 1.366 . S
C2076 C2080 1.385 . S
C2077 H2052 0.951 . S
C2077 C2075 1.388 . S
C2077 C2078 1.366 . S
C2078 C2077 1.366 . S
C2078 C2079 1.414 . S
C2078 C2081 1.499 . S
C2079 H2053 0.950 . S
C2079 C2078 1.414 . S
C2079 C2080 1.374 . S
C2080 H2054 0.950 . S
C2080 C2076 1.385 . S
C2080 C2079 1.374 . S
C2081 C2078 1.499 . S
C2081 C2082 1.373 . S
C2081 C2083 1.389 . S
C2082 H2055 0.950 . S
C2082 C2068 1.377 . S
C2082 C2081 1.373 . S
C2083 C2067 1.377 . S
C2083 C2081 1.389 . S
C2083 C2084 1.524 . S
C2084 C2083 1.524 . S
C2084 C2085 1.397 . S
C2084 C2089 1.363 . S
C2085 H2056 0.950 . S
C2085 C2084 1.397 . S
C2085 C2086 1.334 . S
C2086 H2057 0.950 . S
C2086 C2085 1.334 . S
C2086 C2087 1.287 . S
C2087 C2086 1.287 . S
C2087 C2088 1.524 . S
C2087 H2090 0.999 . S
C2088 H2058 0.950 . S
C2088 C2087 1.524 . S
C2088 C2089 1.415 . S
C2089 H2059 0.950 . S
C2089 C2084 1.363 . S
C2089 C2088 1.415 . S
H2090 C2087 0.999 . S
H2091 C2072 0.913 . S
H2092 C2110 0.951 . S
H2093 C2112 0.951 . S
H2094 C2114 0.950 . S
H2095 C2115 0.950 . S
H2096 C2117 0.950 . S
H2097 C2120 0.950 . S
H2098 C2121 0.950 . S
H2099 C2123 0.950 . S
H2100 C2124 0.950 . S
H2101 C2125 0.951 . S
H2102 C2127 0.951 . S
H2103 C2129 0.950 . S
H2104 C2130 0.950 . S
H2105 C2132 0.950 . S
H2106 C2135 0.950 . S
H2107 C2136 0.950 . S
H2108 C2138 0.950 . S
H2109 C2139 0.950 . S
C2110 H2092 0.951 . S
C2110 C2111 1.366 . S
C2110 C2112 1.388 . S
C2111 C2110 1.366 . S
C2111 C2115 1.385 . S
C2112 H2093 0.951 . S
C2112 C2110 1.388 . S
C2112 C2113 1.366 . S
C2113 C2112 1.366 . S
C2113 C2114 1.414 . S
C2113 C2116 1.499 . S
C2114 H2094 0.950 . S
C2114 C2113 1.414 . S
C2114 C2115 1.374 . S
C2115 H2095 0.950 . S
C2115 C2111 1.385 . S
C2115 C2114 1.374 . S
C2116 C2113 1.499 . S
C2116 C2117 1.373 . S
C2116 C2118 1.389 . S
C2117 H2096 0.950 . S
C2117 C2116 1.373 . S
C2117 C2133 1.377 . S
C2118 C2116 1.389 . S
C2118 C2119 1.524 . S
C2118 C2132 1.377 . S
C2119 C2118 1.524 . S
C2119 C2120 1.397 . S
C2119 C2124 1.363 . S
C2120 H2097 0.950 . S
C2120 C2119 1.397 . S
C2120 C2121 1.334 . S
C2121 H2098 0.950 . S
C2121 C2120 1.334 . S
C2121 C2122 1.287 . S
C2122 C2121 1.287 . S
C2122 C2123 1.524 . S
C2122 H2141 0.913 . S
C2123 H2099 0.950 . S
C2123 C2122 1.524 . S
C2123 C2124 1.415 . S
C2124 H2100 0.950 . S
C2124 C2119 1.363 . S
C2124 C2123 1.415 . S
C2125 H2101 0.951 . S
C2125 C2126 1.366 . S
C2125 C2127 1.388 . S
C2126 C2125 1.366 . S
C2126 C2130 1.385 . S
C2127 H2102 0.951 . S
C2127 C2125 1.388 . S
C2127 C2128 1.366 . S
C2128 C2127 1.366 . S
C2128 C2129 1.414 . S
C2128 C2131 1.499 . S
C2129 H2103 0.950 . S
C2129 C2128 1.414 . S
C2129 C2130 1.374 . S
C2130 H2104 0.950 . S
C2130 C2126 1.385 . S
C2130 C2129 1.374 . S
C2131 C2128 1.499 . S
C2131 C2132 1.373 . S
C2131 C2133 1.389 . S
C2132 H2105 0.950 . S
C2132 C2118 1.377 . S
C2132 C2131 1.373 . S
C2133 C2117 1.377 . S
C2133 C2131 1.389 . S
C2133 C2134 1.524 . S
C2134 C2133 1.524 . S
C2134 C2135 1.397 . S
C2134 C2139 1.363 . S
C2135 H2106 0.950 . S
C2135 C2134 1.397 . S
C2135 C2136 1.334 . S
C2136 H2107 0.950 . S
C2136 C2135 1.334 . S
C2136 C2137 1.287 . S
C2137 C2136 1.287 . S
C2137 C2138 1.524 . S
C2137 H2140 0.999 . S
C2138 H2108 0.950 . S
C2138 C2137 1.524 . S
C2138 C2139 1.415 . S
C2139 H2109 0.950 . S
C2139 C2134 1.363 . S
C2139 C2138 1.415 . S
H2140 C2137 0.999 . S
H2141 C2122 0.913 . S
H2142 C2160 0.951 . S
H2143 C2162 0.951 . S
H2144 C2164 0.950 . S
H2145 C2165 0.950 . S
H2146 C2167 0.950 . S
H2147 C2170 0.950 . S
H2148 C2171 0.950 . S
H2149 C2173 0.954 1_545 S
H2150 C2174 0.920 1_545 S
H2151 C2175 0.951 . S
H2152 C2177 0.951 . S
H2153 C2179 0.950 . S
H2154 C2180 0.950 . S
H2155 C2182 0.950 . S
H2156 C2185 0.953 . S
H2157 C2186 0.950 1_545 S
H2158 C2188 0.950 . S
H2159 C2189 0.950 . S
C2160 H2142 0.951 . S
C2160 C2161 1.366 . S
C2160 C2162 1.388 . S
C2161 C2160 1.366 . S
C2161 C2165 1.385 . S
C2162 H2143 0.951 . S
C2162 C2160 1.388 . S
C2162 C2163 1.366 . S
C2163 C2162 1.366 . S
C2163 C2164 1.414 . S
C2163 C2166 1.499 . S
C2164 H2144 0.950 . S
C2164 C2163 1.414 . S
C2164 C2165 1.374 . S
C2165 H2145 0.950 . S
C2165 C2161 1.385 . S
C2165 C2164 1.374 . S
C2166 C2163 1.499 . S
C2166 C2167 1.373 . S
C2166 C2168 1.389 . S
C2167 H2146 0.950 . S
C2167 C2166 1.373 . S
C2167 C2183 1.377 . S
C2168 C2166 1.389 . S
C2168 C2169 1.524 . S
C2168 C2182 1.377 . S
C2169 C2168 1.524 . S
C2169 C2170 1.397 . S
C2169 C2174 1.363 . S
C2170 H2147 0.950 . S
C2170 C2169 1.397 . S
C2170 C2171 1.334 . S
C2171 H2148 0.950 . S
C2171 C2170 1.334 . S
C2171 C2172 1.287 . S
C2172 C2171 1.287 . S
C2172 C2173 1.524 . S
C2172 H2191 0.913 . S
C2173 H2149 0.954 1_565 S
C2173 C2172 1.524 . S
C2173 C2174 1.415 . S
C2174 H2150 0.920 1_565 S
C2174 C2169 1.363 . S
C2174 C2173 1.415 . S
C2175 H2151 0.951 . S
C2175 C2176 1.366 . S
C2175 C2177 1.388 . S
C2176 C2175 1.366 . S
C2176 C2180 1.385 1_565 S
C2177 H2152 0.951 . S
C2177 C2175 1.388 . S
C2177 C2178 1.366 . S
C2178 C2177 1.366 . S
C2178 C2179 1.414 1_565 S
C2178 C2181 1.499 . S
C2179 H2153 0.950 . S
C2179 C2178 1.414 1_545 S
C2179 C2180 1.374 . S
C2180 H2154 0.950 . S
C2180 C2176 1.385 1_545 S
C2180 C2179 1.374 . S
C2181 C2178 1.499 . S
C2181 C2182 1.373 . S
C2181 C2183 1.389 . S
C2182 H2155 0.950 . S
C2182 C2168 1.377 . S
C2182 C2181 1.373 . S
C2183 C2167 1.377 . S
C2183 C2181 1.389 . S
C2183 C2184 1.524 . S
C2184 C2183 1.524 . S
C2184 C2185 1.397 . S
C2184 C2189 1.363 . S
C2185 H2156 0.953 . S
C2185 C2184 1.397 . S
C2185 C2186 1.334 . S
C2186 H2157 0.950 1_565 S
C2186 C2185 1.334 . S
C2186 C2187 1.287 . S
C2187 C2186 1.287 . S
C2187 C2188 1.524 . S
C2187 H2190 0.999 . S
C2188 H2158 0.950 . S
C2188 C2187 1.524 . S
C2188 C2189 1.415 . S
C2189 H2159 0.950 . S
C2189 C2184 1.363 . S
C2189 C2188 1.415 . S
H2190 C2187 0.999 . S
H2191 C2172 0.913 . S
H2192 C2210 0.951 . S
H2193 C2212 0.951 . S
H2194 C2214 0.950 . S
H2195 C2215 0.950 . S
H2196 C2217 0.950 . S
H2197 C2220 0.950 1_455 S
H2198 C2221 0.950 . S
H2199 C2223 0.950 . S
H2200 C2224 0.950 . S
H2201 C2225 0.951 . S
H2202 C2227 0.951 . S
H2203 C2229 0.950 1_655 S
H2204 C2230 0.950 1_655 S
H2205 C2232 0.950 1_655 S
H2206 C2235 0.950 . S
H2207 C2236 0.950 . S
H2208 C2238 0.950 . S
H2209 C2239 0.950 . S
C2210 H2192 0.951 . S
C2210 C2211 1.366 . S
C2210 C2212 1.388 . S
C2211 C2210 1.366 . S
C2211 C2215 1.385 . S
C2212 H2193 0.951 . S
C2212 C2210 1.388 . S
C2212 C2213 1.366 . S
C2213 C2212 1.366 . S
C2213 C2214 1.414 . S
C2213 C2216 1.499 . S
C2214 H2194 0.950 . S
C2214 C2213 1.414 . S
C2214 C2215 1.374 . S
C2215 H2195 0.950 . S
C2215 C2211 1.385 . S
C2215 C2214 1.374 . S
C2216 C2213 1.499 . S
C2216 C2217 1.373 . S
C2216 C2218 1.389 . S
C2217 H2196 0.950 . S
C2217 C2216 1.373 . S
C2217 C2233 1.377 . S
C2218 C2216 1.389 . S
C2218 C2219 1.524 1_455 S
C2218 C2232 1.377 . S
C2219 C2218 1.524 1_655 S
C2219 C2220 1.397 . S
C2219 C2224 1.363 . S
C2220 H2197 0.950 1_655 S
C2220 C2219 1.397 . S
C2220 C2221 1.334 . S
C2221 H2198 0.950 . S
C2221 C2220 1.334 . S
C2221 C2222 1.287 . S
C2222 C2221 1.287 . S
C2222 C2223 1.524 . S
C2222 H2241 0.913 . S
C2223 H2199 0.950 . S
C2223 C2222 1.524 . S
C2223 C2224 1.415 . S
C2224 H2200 0.950 . S
C2224 C2219 1.363 . S
C2224 C2223 1.415 . S
C2225 H2201 0.951 . S
C2225 C2226 1.366 . S
C2225 C2227 1.388 . S
C2226 C2225 1.366 . S
C2226 C2230 1.385 . S
C2227 H2202 0.951 . S
C2227 C2225 1.388 . S
C2227 C2228 1.366 . S
C2228 C2227 1.366 . S
C2228 C2229 1.414 . S
C2228 C2231 1.499 . S
C2229 H2203 0.950 1_455 S
C2229 C2228 1.414 . S
C2229 C2230 1.374 . S
C2230 H2204 0.950 1_455 S
C2230 C2226 1.385 . S
C2230 C2229 1.374 . S
C2231 C2228 1.499 . S
C2231 C2232 1.373 . S
C2231 C2233 1.389 . S
C2232 H2205 0.950 1_455 S
C2232 C2218 1.377 . S
C2232 C2231 1.373 . S
C2233 C2217 1.377 . S
C2233 C2231 1.389 . S
C2233 C2234 1.524 . S
C2234 C2233 1.524 . S
C2234 C2235 1.397 . S
C2234 C2239 1.363 . S
C2235 H2206 0.950 . S
C2235 C2234 1.397 . S
C2235 C2236 1.334 . S
C2236 H2207 0.950 . S
C2236 C2235 1.334 . S
C2236 C2237 1.287 . S
C2237 C2236 1.287 . S
C2237 C2238 1.524 . S
C2237 H2240 0.999 . S
C2238 H2208 0.950 . S
C2238 C2237 1.524 . S
C2238 C2239 1.415 . S
C2239 H2209 0.950 . S
C2239 C2234 1.363 . S
C2239 C2238 1.415 . S
H2240 C2237 0.999 . S
H2241 C2222 0.913 . S
H2242 C2260 0.951 . S
H2243 C2262 0.951 . S
H2244 C2264 0.950 . S
H2245 C2265 0.950 . S
H2246 C2267 0.950 . S
H2247 C2270 0.950 . S
H2248 C2271 0.950 . S
H2249 C2273 0.950 . S
H2250 C2274 0.950 . S
H2251 C2275 0.951 . S
H2252 C2277 0.951 . S
H2253 C2279 0.950 . S
H2254 C2280 0.950 . S
H2255 C2282 0.950 . S
H2256 C2285 0.950 . S
H2257 C2286 0.950 . S
H2258 C2288 0.950 . S
H2259 C2289 0.950 . S
C2260 H2242 0.951 . S
C2260 C2261 1.366 . S
C2260 C2262 1.388 . S
C2261 C2260 1.366 . S
C2261 C2265 1.385 . S
C2262 H2243 0.951 . S
C2262 C2260 1.388 . S
C2262 C2263 1.366 . S
C2263 C2262 1.366 . S
C2263 C2264 1.414 . S
C2263 C2266 1.499 . S
C2264 H2244 0.950 . S
C2264 C2263 1.414 . S
C2264 C2265 1.374 . S
C2265 H2245 0.950 . S
C2265 C2261 1.385 . S
C2265 C2264 1.374 . S
C2266 C2263 1.499 . S
C2266 C2267 1.373 . S
C2266 C2268 1.389 . S
C2267 H2246 0.950 . S
C2267 C2266 1.373 . S
C2267 C2283 1.377 . S
C2268 C2266 1.389 . S
C2268 C2269 1.524 . S
C2268 C2282 1.377 . S
C2269 C2268 1.524 . S
C2269 C2270 1.397 . S
C2269 C2274 1.363 . S
C2270 H2247 0.950 . S
C2270 C2269 1.397 . S
C2270 C2271 1.334 . S
C2271 H2248 0.950 . S
C2271 C2270 1.334 . S
C2271 C2272 1.287 . S
C2272 C2271 1.287 . S
C2272 C2273 1.524 . S
C2272 H2291 0.913 . S
C2273 H2249 0.950 . S
C2273 C2272 1.524 . S
C2273 C2274 1.415 . S
C2274 H2250 0.950 . S
C2274 C2269 1.363 . S
C2274 C2273 1.415 . S
C2275 H2251 0.951 . S
C2275 C2276 1.366 . S
C2275 C2277 1.388 . S
C2276 C2275 1.366 . S
C2276 C2280 1.385 . S
C2277 H2252 0.951 . S
C2277 C2275 1.388 . S
C2277 C2278 1.366 . S
C2278 C2277 1.366 . S
C2278 C2279 1.414 . S
C2278 C2281 1.499 . S
C2279 H2253 0.950 . S
C2279 C2278 1.414 . S
C2279 C2280 1.374 . S
C2280 H2254 0.950 . S
C2280 C2276 1.385 . S
C2280 C2279 1.374 . S
C2281 C2278 1.499 . S
C2281 C2282 1.373 . S
C2281 C2283 1.389 . S
C2282 H2255 0.950 . S
C2282 C2268 1.377 . S
C2282 C2281 1.373 . S
C2283 C2267 1.377 . S
C2283 C2281 1.389 . S
C2283 C2284 1.524 . S
C2284 C2283 1.524 . S
C2284 C2285 1.397 . S
C2284 C2289 1.363 . S
C2285 H2256 0.950 . S
C2285 C2284 1.397 . S
C2285 C2286 1.334 . S
C2286 H2257 0.950 . S
C2286 C2285 1.334 . S
C2286 C2287 1.287 . S
C2287 C2286 1.287 . S
C2287 C2288 1.524 . S
C2287 H2290 0.999 . S
C2288 H2258 0.950 . S
C2288 C2287 1.524 . S
C2288 C2289 1.415 . S
C2289 H2259 0.950 . S
C2289 C2284 1.363 . S
C2289 C2288 1.415 . S
H2290 C2287 0.999 . S
H2291 C2272 0.913 . S
H2292 C2310 0.951 . S
H2293 C2312 0.951 . S
H2294 C2314 0.950 . S
H2295 C2315 0.950 . S
H2296 C2317 0.950 . S
H2297 C2320 0.950 . S
H2298 C2321 0.952 1_655 S
H2299 C2323 0.950 . S
H2300 C2324 0.950 . S
H2301 C2325 0.951 . S
H2302 C2327 0.951 . S
H2303 C2329 0.950 . S
H2304 C2330 0.950 . S
H2305 C2332 0.950 1_455 S
H2306 C2335 0.950 . S
H2307 C2336 0.950 . S
H2308 C2338 0.950 . S
H2309 C2339 0.950 . S
C2310 H2292 0.951 . S
C2310 C2311 1.366 . S
C2310 C2312 1.388 . S
C2311 C2310 1.366 . S
C2311 C2315 1.385 . S
C2312 H2293 0.951 . S
C2312 C2310 1.388 . S
C2312 C2313 1.366 . S
C2313 C2312 1.366 . S
C2313 C2314 1.414 . S
C2313 C2316 1.499 . S
C2314 H2294 0.950 . S
C2314 C2313 1.414 . S
C2314 C2315 1.374 . S
C2315 H2295 0.950 . S
C2315 C2311 1.385 . S
C2315 C2314 1.374 . S
C2316 C2313 1.499 . S
C2316 C2317 1.373 . S
C2316 C2318 1.389 . S
C2317 H2296 0.950 . S
C2317 C2316 1.373 . S
C2317 C2333 1.377 . S
C2318 C2316 1.389 . S
C2318 C2319 1.524 1_655 S
C2318 C2332 1.377 . S
C2319 C2318 1.524 1_455 S
C2319 C2320 1.397 1_455 S
C2319 C2324 1.363 . S
C2320 H2297 0.950 . S
C2320 C2319 1.397 1_655 S
C2320 C2321 1.334 1_655 S
C2321 H2298 0.952 1_455 S
C2321 C2320 1.334 1_455 S
C2321 C2322 1.287 . S
C2322 C2321 1.287 . S
C2322 C2323 1.524 . S
C2322 H2341 0.913 . S
C2323 H2299 0.950 . S
C2323 C2322 1.524 . S
C2323 C2324 1.415 . S
C2324 H2300 0.950 . S
C2324 C2319 1.363 . S
C2324 C2323 1.415 . S
C2325 H2301 0.951 . S
C2325 C2326 1.366 . S
C2325 C2327 1.388 . S
C2326 C2325 1.366 . S
C2326 C2330 1.385 1_655 S
C2327 H2302 0.951 . S
C2327 C2325 1.388 . S
C2327 C2328 1.366 . S
C2328 C2327 1.366 . S
C2328 C2329 1.414 1_655 S
C2328 C2331 1.499 . S
C2329 H2303 0.950 . S
C2329 C2328 1.414 1_455 S
C2329 C2330 1.374 . S
C2330 H2304 0.950 . S
C2330 C2326 1.385 1_455 S
C2330 C2329 1.374 . S
C2331 C2328 1.499 . S
C2331 C2332 1.373 . S
C2331 C2333 1.389 . S
C2332 H2305 0.950 1_655 S
C2332 C2318 1.377 . S
C2332 C2331 1.373 . S
C2333 C2317 1.377 . S
C2333 C2331 1.389 . S
C2333 C2334 1.524 . S
C2334 C2333 1.524 . S
C2334 C2335 1.397 . S
C2334 C2339 1.363 . S
C2335 H2306 0.950 . S
C2335 C2334 1.397 . S
C2335 C2336 1.334 . S
C2336 H2307 0.950 . S
C2336 C2335 1.334 . S
C2336 C2337 1.287 . S
C2337 C2336 1.287 . S
C2337 C2338 1.524 . S
C2337 H2340 0.999 . S
C2338 H2308 0.950 . S
C2338 C2337 1.524 . S
C2338 C2339 1.415 . S
C2339 H2309 0.950 . S
C2339 C2334 1.363 . S
C2339 C2338 1.415 . S
H2340 C2337 0.999 . S
H2341 C2322 0.913 . S
H2342 C2360 0.951 . S
H2343 C2362 0.951 . S
H2344 C2364 0.950 . S
H2345 C2365 0.950 . S
H2346 C2367 0.950 . S
H2347 C2370 0.950 . S
H2348 C2371 0.950 . S
H2349 C2373 0.950 . S
H2350 C2374 0.950 . S
H2351 C2375 0.951 . S
H2352 C2377 0.951 . S
H2353 C2379 0.950 . S
H2354 C2380 0.950 . S
H2355 C2382 0.950 . S
H2356 C2385 0.950 . S
H2357 C2386 0.950 . S
H2358 C2388 0.950 . S
H2359 C2389 0.950 . S
C2360 H2342 0.951 . S
C2360 C2361 1.366 . S
C2360 C2362 1.388 . S
C2361 C2360 1.366 . S
C2361 C2365 1.385 . S
C2362 H2343 0.951 . S
C2362 C2360 1.388 . S
C2362 C2363 1.366 . S
C2363 C2362 1.366 . S
C2363 C2364 1.414 . S
C2363 C2366 1.499 . S
C2364 H2344 0.950 . S
C2364 C2363 1.414 . S
C2364 C2365 1.374 . S
C2365 H2345 0.950 . S
C2365 C2361 1.385 . S
C2365 C2364 1.374 . S
C2366 C2363 1.499 . S
C2366 C2367 1.373 . S
C2366 C2368 1.389 . S
C2367 H2346 0.950 . S
C2367 C2366 1.373 . S
C2367 C2383 1.377 . S
C2368 C2366 1.389 . S
C2368 C2369 1.524 . S
C2368 C2382 1.377 . S
C2369 C2368 1.524 . S
C2369 C2370 1.397 . S
C2369 C2374 1.363 . S
C2370 H2347 0.950 . S
C2370 C2369 1.397 . S
C2370 C2371 1.334 . S
C2371 H2348 0.950 . S
C2371 C2370 1.334 . S
C2371 C2372 1.287 . S
C2372 C2371 1.287 . S
C2372 C2373 1.524 . S
C2372 H2391 0.913 . S
C2373 H2349 0.950 . S
C2373 C2372 1.524 . S
C2373 C2374 1.415 . S
C2374 H2350 0.950 . S
C2374 C2369 1.363 . S
C2374 C2373 1.415 . S
C2375 H2351 0.951 . S
C2375 C2376 1.366 . S
C2375 C2377 1.388 . S
C2376 C2375 1.366 . S
C2376 C2380 1.385 . S
C2377 H2352 0.951 . S
C2377 C2375 1.388 . S
C2377 C2378 1.366 . S
C2378 C2377 1.366 . S
C2378 C2379 1.414 . S
C2378 C2381 1.499 . S
C2379 H2353 0.950 . S
C2379 C2378 1.414 . S
C2379 C2380 1.374 . S
C2380 H2354 0.950 . S
C2380 C2376 1.385 . S
C2380 C2379 1.374 . S
C2381 C2378 1.499 . S
C2381 C2382 1.373 . S
C2381 C2383 1.389 . S
C2382 H2355 0.950 . S
C2382 C2368 1.377 . S
C2382 C2381 1.373 . S
C2383 C2367 1.377 . S
C2383 C2381 1.389 . S
C2383 C2384 1.524 . S
C2384 C2383 1.524 . S
C2384 C2385 1.397 . S
C2384 C2389 1.363 . S
C2385 H2356 0.950 . S
C2385 C2384 1.397 . S
C2385 C2386 1.334 . S
C2386 H2357 0.950 . S
C2386 C2385 1.334 . S
C2386 C2387 1.287 . S
C2387 C2386 1.287 . S
C2387 C2388 1.524 . S
C2387 H2390 0.999 . S
C2388 H2358 0.950 . S
C2388 C2387 1.524 . S
C2388 C2389 1.415 . S
C2389 H2359 0.950 . S
C2389 C2384 1.363 . S
C2389 C2388 1.415 . S
H2390 C2387 0.999 . S
H2391 C2372 0.913 . S
H2392 C2410 0.951 . S
H2393 C2412 0.951 . S
H2394 C2414 0.950 . S
H2395 C2415 0.950 . S
H2396 C2417 0.950 . S
H2397 C2420 0.950 . S
H2398 C2421 0.950 . S
H2399 C2423 0.950 . S
H2400 C2424 0.950 . S
H2401 C2425 0.951 . S
H2402 C2427 0.951 . S
H2403 C2429 0.981 . S
H2404 C2430 0.950 . S
H2405 C2432 0.957 . S
H2406 C2435 0.950 . S
H2407 C2436 0.950 . S
H2408 C2438 0.950 . S
H2409 C2439 0.950 . S
C2410 H2392 0.951 . S
C2410 C2411 1.366 . S
C2410 C2412 1.388 . S
C2411 C2410 1.366 . S
C2411 C2415 1.385 . S
C2412 H2393 0.951 . S
C2412 C2410 1.388 . S
C2412 C2413 1.366 . S
C2413 C2412 1.366 . S
C2413 C2414 1.414 . S
C2413 C2416 1.499 . S
C2414 H2394 0.950 . S
C2414 C2413 1.414 . S
C2414 C2415 1.374 . S
C2415 H2395 0.950 . S
C2415 C2411 1.385 . S
C2415 C2414 1.374 . S
C2416 C2413 1.499 . S
C2416 C2417 1.373 . S
C2416 C2418 1.389 . S
C2417 H2396 0.950 . S
C2417 C2416 1.373 . S
C2417 C2433 1.377 . S
C2418 C2416 1.389 . S
C2418 C2419 1.524 . S
C2418 C2432 1.377 . S
C2419 C2418 1.524 . S
C2419 C2420 1.397 . S
C2419 C2424 1.363 1_545 S
C2420 H2397 0.950 . S
C2420 C2419 1.397 . S
C2420 C2421 1.334 . S
C2421 H2398 0.950 . S
C2421 C2420 1.334 . S
C2421 C2422 1.287 1_545 S
C2422 C2421 1.287 1_565 S
C2422 C2423 1.524 . S
C2422 H2441 0.913 . S
C2423 H2399 0.950 . S
C2423 C2422 1.524 . S
C2423 C2424 1.415 . S
C2424 H2400 0.950 . S
C2424 C2419 1.363 1_565 S
C2424 C2423 1.415 . S
C2425 H2401 0.951 . S
C2425 C2426 1.366 . S
C2425 C2427 1.388 . S
C2426 C2425 1.366 . S
C2426 C2430 1.385 1_545 S
C2427 H2402 0.951 . S
C2427 C2425 1.388 . S
C2427 C2428 1.366 . S
C2428 C2427 1.366 . S
C2428 C2429 1.374 1_545 S
C2428 C2431 1.499 . S
C2429 H2403 0.981 . S
C2429 C2428 1.374 1_565 S
C2429 C2430 1.385 . S
C2430 H2404 0.950 . S
C2430 C2426 1.385 1_565 S
C2430 C2429 1.385 . S
C2431 C2428 1.499 . S
C2431 C2432 1.373 . S
C2431 C2433 1.389 . S
C2432 H2405 0.957 . S
C2432 C2418 1.377 . S
C2432 C2431 1.373 . S
C2433 C2417 1.377 . S
C2433 C2431 1.389 . S
C2433 C2434 1.524 . S
C2434 C2433 1.524 . S
C2434 C2435 1.397 . S
C2434 C2439 1.363 . S
C2435 H2406 0.950 . S
C2435 C2434 1.397 . S
C2435 C2436 1.334 . S
C2436 H2407 0.950 . S
C2436 C2435 1.334 . S
C2436 C2437 1.287 . S
C2437 C2436 1.287 . S
C2437 C2438 1.524 . S
C2437 H2440 0.999 . S
C2438 H2408 0.950 . S
C2438 C2437 1.524 . S
C2438 C2439 1.415 . S
C2439 H2409 0.950 . S
C2439 C2434 1.363 . S
C2439 C2438 1.415 . S
H2440 C2437 0.999 . S
H2441 C2422 0.913 . S
H2442 C2460 0.951 . S
H2443 C2462 0.951 . S
H2444 C2464 0.950 . S
H2445 C2465 0.950 . S
H2446 C2467 0.950 . S
H2447 C2470 0.950 . S
H2448 C2471 0.950 . S
H2449 C2473 0.950 . S
H2450 C2474 0.950 . S
H2451 C2475 0.951 . S
H2452 C2477 0.951 . S
H2453 C2479 0.950 . S
H2454 C2480 0.950 . S
H2455 C2482 0.950 . S
H2456 C2485 0.950 . S
H2457 C2486 0.950 . S
H2458 C2488 0.950 . S
H2459 C2489 0.950 . S
C2460 H2442 0.951 . S
C2460 C2461 1.366 . S
C2460 C2462 1.388 . S
C2461 C2460 1.366 . S
C2461 C2465 1.385 . S
C2462 H2443 0.951 . S
C2462 C2460 1.388 . S
C2462 C2463 1.366 . S
C2463 C2462 1.366 . S
C2463 C2464 1.414 . S
C2463 C2466 1.499 . S
C2464 H2444 0.950 . S
C2464 C2463 1.414 . S
C2464 C2465 1.374 . S
C2465 H2445 0.950 . S
C2465 C2461 1.385 . S
C2465 C2464 1.374 . S
C2466 C2463 1.499 . S
C2466 C2467 1.373 . S
C2466 C2468 1.389 . S
C2467 H2446 0.950 . S
C2467 C2466 1.373 . S
C2467 C2483 1.377 . S
C2468 C2466 1.389 . S
C2468 C2469 1.524 . S
C2468 C2482 1.377 . S
C2469 C2468 1.524 . S
C2469 C2470 1.397 . S
C2469 C2474 1.363 . S
C2470 H2447 0.950 . S
C2470 C2469 1.397 . S
C2470 C2471 1.334 . S
C2471 H2448 0.950 . S
C2471 C2470 1.334 . S
C2471 C2472 1.287 . S
C2472 C2471 1.287 . S
C2472 C2473 1.524 . S
C2472 H2491 0.913 . S
C2473 H2449 0.950 . S
C2473 C2472 1.524 . S
C2473 C2474 1.415 . S
C2474 H2450 0.950 . S
C2474 C2469 1.363 . S
C2474 C2473 1.415 . S
C2475 H2451 0.951 . S
C2475 C2476 1.366 . S
C2475 C2477 1.388 . S
C2476 C2475 1.366 . S
C2476 C2480 1.385 . S
C2477 H2452 0.951 . S
C2477 C2475 1.388 . S
C2477 C2478 1.366 . S
C2478 C2477 1.366 . S
C2478 C2479 1.414 . S
C2478 C2481 1.499 . S
C2479 H2453 0.950 . S
C2479 C2478 1.414 . S
C2479 C2480 1.374 . S
C2480 H2454 0.950 . S
C2480 C2476 1.385 . S
C2480 C2479 1.374 . S
C2481 C2478 1.499 . S
C2481 C2482 1.373 . S
C2481 C2483 1.389 . S
C2482 H2455 0.950 . S
C2482 C2468 1.377 . S
C2482 C2481 1.373 . S
C2483 C2467 1.377 . S
C2483 C2481 1.389 . S
C2483 C2484 1.524 . S
C2484 C2483 1.524 . S
C2484 C2485 1.397 . S
C2484 C2489 1.363 . S
C2485 H2456 0.950 . S
C2485 C2484 1.397 . S
C2485 C2486 1.334 . S
C2486 H2457 0.950 . S
C2486 C2485 1.334 . S
C2486 C2487 1.287 . S
C2487 C2486 1.287 . S
C2487 C2488 1.524 . S
C2487 H2490 0.999 . S
C2488 H2458 0.950 . S
C2488 C2487 1.524 . S
C2488 C2489 1.415 . S
C2489 H2459 0.950 . S
C2489 C2484 1.363 . S
C2489 C2488 1.415 . S
H2490 C2487 0.999 . S
H2491 C2472 0.913 . S
H2492 C2510 0.951 . S
H2493 C2512 0.951 . S
H2494 C2514 0.950 . S
H2495 C2515 0.950 . S
H2496 C2517 0.950 . S
H2497 C2520 0.950 . S
H2498 C2521 0.950 . S
H2499 C2523 0.950 . S
H2500 C2524 0.950 . S
H2501 C2525 0.951 . S
H2502 C2527 0.951 . S
H2503 C2529 0.950 . S
H2504 C2530 0.950 . S
H2505 C2532 0.950 . S
H2506 C2535 0.950 . S
H2507 C2536 0.950 . S
H2508 C2538 0.950 . S
H2509 C2539 0.950 . S
C2510 H2492 0.951 . S
C2510 C2511 1.366 . S
C2510 C2512 1.388 . S
C2511 C2510 1.366 . S
C2511 C2515 1.385 . S
C2512 H2493 0.951 . S
C2512 C2510 1.388 . S
C2512 C2513 1.366 . S
C2513 C2512 1.366 . S
C2513 C2514 1.414 . S
C2513 C2516 1.499 . S
C2514 H2494 0.950 . S
C2514 C2513 1.414 . S
C2514 C2515 1.374 . S
C2515 H2495 0.950 . S
C2515 C2511 1.385 . S
C2515 C2514 1.374 . S
C2516 C2513 1.499 . S
C2516 C2517 1.373 . S
C2516 C2518 1.389 . S
C2517 H2496 0.950 . S
C2517 C2516 1.373 . S
C2517 C2533 1.377 . S
C2518 C2516 1.389 . S
C2518 C2519 1.524 . S
C2518 C2532 1.377 . S
C2519 C2518 1.524 . S
C2519 C2520 1.397 . S
C2519 C2524 1.363 . S
C2520 H2497 0.950 . S
C2520 C2519 1.397 . S
C2520 C2521 1.334 . S
C2521 H2498 0.950 . S
C2521 C2520 1.334 . S
C2521 C2522 1.287 . S
C2522 C2521 1.287 . S
C2522 C2523 1.524 . S
C2522 H2541 0.913 . S
C2523 H2499 0.950 . S
C2523 C2522 1.524 . S
C2523 C2524 1.415 . S
C2524 H2500 0.950 . S
C2524 C2519 1.363 . S
C2524 C2523 1.415 . S
C2525 H2501 0.951 . S
C2525 C2526 1.366 . S
C2525 C2527 1.388 . S
C2526 C2525 1.366 . S
C2526 C2530 1.385 . S
C2527 H2502 0.951 . S
C2527 C2525 1.388 . S
C2527 C2528 1.366 . S
C2528 C2527 1.366 . S
C2528 C2529 1.414 . S
C2528 C2531 1.499 . S
C2529 H2503 0.950 . S
C2529 C2528 1.414 . S
C2529 C2530 1.374 . S
C2530 H2504 0.950 . S
C2530 C2526 1.385 . S
C2530 C2529 1.374 . S
C2531 C2528 1.499 . S
C2531 C2532 1.373 . S
C2531 C2533 1.389 . S
C2532 H2505 0.950 . S
C2532 C2518 1.377 . S
C2532 C2531 1.373 . S
C2533 C2517 1.377 . S
C2533 C2531 1.389 . S
C2533 C2534 1.524 . S
C2534 C2533 1.524 . S
C2534 C2535 1.397 . S
C2534 C2539 1.363 . S
C2535 H2506 0.950 . S
C2535 C2534 1.397 . S
C2535 C2536 1.334 . S
C2536 H2507 0.950 . S
C2536 C2535 1.334 . S
C2536 C2537 1.287 . S
C2537 C2536 1.287 . S
C2537 C2538 1.524 . S
C2537 H2540 0.999 . S
C2538 H2508 0.950 . S
C2538 C2537 1.524 . S
C2538 C2539 1.415 . S
C2539 H2509 0.950 . S
C2539 C2534 1.363 . S
C2539 C2538 1.415 . S
H2540 C2537 0.999 . S
H2541 C2522 0.913 . S
H2542 C2560 0.951 . S
H2543 C2562 0.951 . S
H2544 C2564 0.950 . S
H2545 C2565 0.950 . S
H2546 C2567 0.950 . S
H2547 C2570 0.950 . S
H2548 C2571 0.950 . S
H2549 C2573 0.950 . S
H2550 C2574 0.950 . S
H2551 C2575 0.951 . S
H2552 C2577 0.951 . S
H2553 C2579 0.950 . S
H2554 C2580 0.950 . S
H2555 C2582 0.950 . S
H2556 C2585 0.950 . S
H2557 C2586 0.950 . S
H2558 C2588 0.950 . S
H2559 C2589 0.950 . S
C2560 H2542 0.951 . S
C2560 C2561 1.366 . S
C2560 C2562 1.388 . S
C2561 C2560 1.366 . S
C2561 C2565 1.385 . S
C2562 H2543 0.951 . S
C2562 C2560 1.388 . S
C2562 C2563 1.366 . S
C2563 C2562 1.366 . S
C2563 C2564 1.414 . S
C2563 C2566 1.499 . S
C2564 H2544 0.950 . S
C2564 C2563 1.414 . S
C2564 C2565 1.374 . S
C2565 H2545 0.950 . S
C2565 C2561 1.385 . S
C2565 C2564 1.374 . S
C2566 C2563 1.499 . S
C2566 C2567 1.373 . S
C2566 C2568 1.389 . S
C2567 H2546 0.950 . S
C2567 C2566 1.373 . S
C2567 C2583 1.377 . S
C2568 C2566 1.389 . S
C2568 C2569 1.524 . S
C2568 C2582 1.377 . S
C2569 C2568 1.524 . S
C2569 C2570 1.397 . S
C2569 C2574 1.363 . S
C2570 H2547 0.950 . S
C2570 C2569 1.397 . S
C2570 C2571 1.334 . S
C2571 H2548 0.950 . S
C2571 C2570 1.334 . S
C2571 C2572 1.287 . S
C2572 C2571 1.287 . S
C2572 C2573 1.524 . S
C2572 H2591 0.913 . S
C2573 H2549 0.950 . S
C2573 C2572 1.524 . S
C2573 C2574 1.415 . S
C2574 H2550 0.950 . S
C2574 C2569 1.363 . S
C2574 C2573 1.415 . S
C2575 H2551 0.951 . S
C2575 C2576 1.366 . S
C2575 C2577 1.388 . S
C2576 C2575 1.366 . S
C2576 C2580 1.385 . S
C2577 H2552 0.951 . S
C2577 C2575 1.388 . S
C2577 C2578 1.366 . S
C2578 C2577 1.366 . S
C2578 C2579 1.414 . S
C2578 C2581 1.499 . S
C2579 H2553 0.950 . S
C2579 C2578 1.414 . S
C2579 C2580 1.374 . S
C2580 H2554 0.950 . S
C2580 C2576 1.385 . S
C2580 C2579 1.374 . S
C2581 C2578 1.499 . S
C2581 C2582 1.373 . S
C2581 C2583 1.389 . S
C2582 H2555 0.950 . S
C2582 C2568 1.377 . S
C2582 C2581 1.373 . S
C2583 C2567 1.377 . S
C2583 C2581 1.389 . S
C2583 C2584 1.524 . S
C2584 C2583 1.524 . S
C2584 C2585 1.397 . S
C2584 C2589 1.363 . S
C2585 H2556 0.950 . S
C2585 C2584 1.397 . S
C2585 C2586 1.334 . S
C2586 H2557 0.950 . S
C2586 C2585 1.334 . S
C2586 C2587 1.287 . S
C2587 C2586 1.287 . S
C2587 C2588 1.524 . S
C2587 H2590 0.999 . S
C2588 H2558 0.950 . S
C2588 C2587 1.524 . S
C2588 C2589 1.415 . S
C2589 H2559 0.950 . S
C2589 C2584 1.363 . S
C2589 C2588 1.415 . S
H2590 C2587 0.999 . S
H2591 C2572 0.913 . S
H2592 C2610 0.951 . S
H2593 C2612 0.951 . S
H2594 C2614 0.950 . S
H2595 C2615 0.950 . S
H2596 C2617 0.950 . S
H2597 C2620 0.950 . S
H2598 C2621 0.950 . S
H2599 C2623 0.950 . S
H2600 C2624 0.950 . S
H2601 C2625 0.951 . S
H2602 C2627 0.951 . S
H2603 C2629 0.950 . S
H2604 C2630 0.950 . S
H2605 C2632 0.950 . S
H2606 C2635 0.950 . S
H2607 C2636 0.950 . S
H2608 C2638 0.950 . S
H2609 C2639 0.950 . S
C2610 H2592 0.951 . S
C2610 C2611 1.366 . S
C2610 C2612 1.388 . S
C2611 C2610 1.366 . S
C2611 C2615 1.385 . S
C2612 H2593 0.951 . S
C2612 C2610 1.388 . S
C2612 C2613 1.366 . S
C2613 C2612 1.366 . S
C2613 C2614 1.414 . S
C2613 C2616 1.499 . S
C2614 H2594 0.950 . S
C2614 C2613 1.414 . S
C2614 C2615 1.374 . S
C2615 H2595 0.950 . S
C2615 C2611 1.385 . S
C2615 C2614 1.374 . S
C2616 C2613 1.499 . S
C2616 C2617 1.373 . S
C2616 C2618 1.389 . S
C2617 H2596 0.950 . S
C2617 C2616 1.373 . S
C2617 C2633 1.377 . S
C2618 C2616 1.389 . S
C2618 C2619 1.524 . S
C2618 C2632 1.377 . S
C2619 C2618 1.524 . S
C2619 C2620 1.397 . S
C2619 C2624 1.363 . S
C2620 H2597 0.950 . S
C2620 C2619 1.397 . S
C2620 C2621 1.334 . S
C2621 H2598 0.950 . S
C2621 C2620 1.334 . S
C2621 C2622 1.287 . S
C2622 C2621 1.287 . S
C2622 C2623 1.524 . S
C2622 H2641 0.913 . S
C2623 H2599 0.950 . S
C2623 C2622 1.524 . S
C2623 C2624 1.415 . S
C2624 H2600 0.950 . S
C2624 C2619 1.363 . S
C2624 C2623 1.415 . S
C2625 H2601 0.951 . S
C2625 C2626 1.366 . S
C2625 C2627 1.388 . S
C2626 C2625 1.366 . S
C2626 C2630 1.385 . S
C2627 H2602 0.951 . S
C2627 C2625 1.388 . S
C2627 C2628 1.366 . S
C2628 C2627 1.366 . S
C2628 C2629 1.414 . S
C2628 C2631 1.499 . S
C2629 H2603 0.950 . S
C2629 C2628 1.414 . S
C2629 C2630 1.374 . S
C2630 H2604 0.950 . S
C2630 C2626 1.385 . S
C2630 C2629 1.374 . S
C2631 C2628 1.499 . S
C2631 C2632 1.373 . S
C2631 C2633 1.389 . S
C2632 H2605 0.950 . S
C2632 C2618 1.377 . S
C2632 C2631 1.373 . S
C2633 C2617 1.377 . S
C2633 C2631 1.389 . S
C2633 C2634 1.524 . S
C2634 C2633 1.524 . S
C2634 C2635 1.397 . S
C2634 C2639 1.363 . S
C2635 H2606 0.950 . S
C2635 C2634 1.397 . S
C2635 C2636 1.334 . S
C2636 H2607 0.950 . S
C2636 C2635 1.334 . S
C2636 C2637 1.287 . S
C2637 C2636 1.287 . S
C2637 C2638 1.524 . S
C2637 H2640 0.999 . S
C2638 H2608 0.950 . S
C2638 C2637 1.524 . S
C2638 C2639 1.415 . S
C2639 H2609 0.950 . S
C2639 C2634 1.363 . S
C2639 C2638 1.415 . S
H2640 C2637 0.999 . S
H2641 C2622 0.913 . S
H2642 C2660 0.951 . S
H2643 C2662 0.951 . S
H2644 C2664 0.950 . S
H2645 C2665 0.950 . S
H2646 C2667 0.950 . S
H2647 C2670 0.950 . S
H2648 C2671 0.950 . S
H2649 C2673 0.950 . S
H2650 C2674 0.950 . S
H2651 C2675 0.951 . S
H2652 C2677 0.951 . S
H2653 C2679 0.950 . S
H2654 C2680 0.950 . S
H2655 C2682 0.950 . S
H2656 C2685 0.950 . S
H2657 C2686 0.950 . S
H2658 C2688 0.950 . S
H2659 C2689 0.950 . S
C2660 H2642 0.951 . S
C2660 C2661 1.366 . S
C2660 C2662 1.388 . S
C2661 C2660 1.366 . S
C2661 C2665 1.385 . S
C2662 H2643 0.951 . S
C2662 C2660 1.388 . S
C2662 C2663 1.366 . S
C2663 C2662 1.366 . S
C2663 C2664 1.414 . S
C2663 C2666 1.499 . S
C2664 H2644 0.950 . S
C2664 C2663 1.414 . S
C2664 C2665 1.374 . S
C2665 H2645 0.950 . S
C2665 C2661 1.385 . S
C2665 C2664 1.374 . S
C2666 C2663 1.499 . S
C2666 C2667 1.373 . S
C2666 C2668 1.389 . S
C2667 H2646 0.950 . S
C2667 C2666 1.373 . S
C2667 C2683 1.377 . S
C2668 C2666 1.389 . S
C2668 C2669 1.524 . S
C2668 C2682 1.377 . S
C2669 C2668 1.524 . S
C2669 C2670 1.397 . S
C2669 C2674 1.363 . S
C2670 H2647 0.950 . S
C2670 C2669 1.397 . S
C2670 C2671 1.334 . S
C2671 H2648 0.950 . S
C2671 C2670 1.334 . S
C2671 C2672 1.287 . S
C2672 C2671 1.287 . S
C2672 C2673 1.524 . S
C2672 H2691 0.913 . S
C2673 H2649 0.950 . S
C2673 C2672 1.524 . S
C2673 C2674 1.415 . S
C2674 H2650 0.950 . S
C2674 C2669 1.363 . S
C2674 C2673 1.415 . S
C2675 H2651 0.951 . S
C2675 C2676 1.366 . S
C2675 C2677 1.388 . S
C2676 C2675 1.366 . S
C2676 C2680 1.385 . S
C2677 H2652 0.951 . S
C2677 C2675 1.388 . S
C2677 C2678 1.366 . S
C2678 C2677 1.366 . S
C2678 C2679 1.414 . S
C2678 C2681 1.499 . S
C2679 H2653 0.950 . S
C2679 C2678 1.414 . S
C2679 C2680 1.374 . S
C2680 H2654 0.950 . S
C2680 C2676 1.385 . S
C2680 C2679 1.374 . S
C2681 C2678 1.499 . S
C2681 C2682 1.373 . S
C2681 C2683 1.389 . S
C2682 H2655 0.950 . S
C2682 C2668 1.377 . S
C2682 C2681 1.373 . S
C2683 C2667 1.377 . S
C2683 C2681 1.389 . S
C2683 C2684 1.524 . S
C2684 C2683 1.524 . S
C2684 C2685 1.397 . S
C2684 C2689 1.363 . S
C2685 H2656 0.950 . S
C2685 C2684 1.397 . S
C2685 C2686 1.334 . S
C2686 H2657 0.950 . S
C2686 C2685 1.334 . S
C2686 C2687 1.287 . S
C2687 C2686 1.287 . S
C2687 C2688 1.524 . S
C2687 H2690 0.999 . S
C2688 H2658 0.950 . S
C2688 C2687 1.524 . S
C2688 C2689 1.415 . S
C2689 H2659 0.950 . S
C2689 C2684 1.363 . S
C2689 C2688 1.415 . S
H2690 C2687 0.999 . S
H2691 C2672 0.913 . S
H2692 C2710 0.951 . S
H2693 C2712 0.951 . S
H2694 C2714 0.950 . S
H2695 C2715 0.950 . S
H2696 C2717 0.950 . S
H2697 C2720 0.950 . S
H2698 C2721 0.950 . S
H2699 C2723 0.950 . S
H2700 C2724 0.950 . S
H2701 C2725 0.951 . S
H2702 C2727 0.951 . S
H2703 C2729 0.950 . S
H2704 C2730 0.950 . S
H2705 C2732 0.950 . S
H2706 C2735 0.950 . S
H2707 C2736 0.950 . S
H2708 C2738 0.950 . S
H2709 C2739 0.950 . S
C2710 H2692 0.951 . S
C2710 C2711 1.366 . S
C2710 C2712 1.388 . S
C2711 C2710 1.366 . S
C2711 C2715 1.385 . S
C2712 H2693 0.951 . S
C2712 C2710 1.388 . S
C2712 C2713 1.366 . S
C2713 C2712 1.366 . S
C2713 C2714 1.414 . S
C2713 C2716 1.499 . S
C2714 H2694 0.950 . S
C2714 C2713 1.414 . S
C2714 C2715 1.374 . S
C2715 H2695 0.950 . S
C2715 C2711 1.385 . S
C2715 C2714 1.374 . S
C2716 C2713 1.499 . S
C2716 C2717 1.373 . S
C2716 C2718 1.389 . S
C2717 H2696 0.950 . S
C2717 C2716 1.373 . S
C2717 C2733 1.377 . S
C2718 C2716 1.389 . S
C2718 C2719 1.524 . S
C2718 C2732 1.377 . S
C2719 C2718 1.524 . S
C2719 C2720 1.397 . S
C2719 C2724 1.363 . S
C2720 H2697 0.950 . S
C2720 C2719 1.397 . S
C2720 C2721 1.334 . S
C2721 H2698 0.950 . S
C2721 C2720 1.334 . S
C2721 C2722 1.287 . S
C2722 C2721 1.287 . S
C2722 C2723 1.524 . S
C2722 H2741 0.913 . S
C2723 H2699 0.950 . S
C2723 C2722 1.524 . S
C2723 C2724 1.415 . S
C2724 H2700 0.950 . S
C2724 C2719 1.363 . S
C2724 C2723 1.415 . S
C2725 H2701 0.951 . S
C2725 C2726 1.366 . S
C2725 C2727 1.388 . S
C2726 C2725 1.366 . S
C2726 C2730 1.385 . S
C2727 H2702 0.951 . S
C2727 C2725 1.388 . S
C2727 C2728 1.366 . S
C2728 C2727 1.366 . S
C2728 C2729 1.414 . S
C2728 C2731 1.499 . S
C2729 H2703 0.950 . S
C2729 C2728 1.414 . S
C2729 C2730 1.374 . S
C2730 H2704 0.950 . S
C2730 C2726 1.385 . S
C2730 C2729 1.374 . S
C2731 C2728 1.499 . S
C2731 C2732 1.373 . S
C2731 C2733 1.389 . S
C2732 H2705 0.950 . S
C2732 C2718 1.377 . S
C2732 C2731 1.373 . S
C2733 C2717 1.377 . S
C2733 C2731 1.389 . S
C2733 C2734 1.524 . S
C2734 C2733 1.524 . S
C2734 C2735 1.397 . S
C2734 C2739 1.363 . S
C2735 H2706 0.950 . S
C2735 C2734 1.397 . S
C2735 C2736 1.334 . S
C2736 H2707 0.950 . S
C2736 C2735 1.334 . S
C2736 C2737 1.287 . S
C2737 C2736 1.287 . S
C2737 C2738 1.524 . S
C2737 H2740 0.999 . S
C2738 H2708 0.950 . S
C2738 C2737 1.524 . S
C2738 C2739 1.415 . S
C2739 H2709 0.950 . S
C2739 C2734 1.363 . S
C2739 C2738 1.415 . S
H2740 C2737 0.999 . S
H2741 C2722 0.913 . S
H2742 C2760 0.951 . S
H2743 C2762 0.951 . S
H2744 C2764 0.950 . S
H2745 C2765 0.950 . S
H2746 C2767 0.950 . S
H2747 C2770 0.950 . S
H2748 C2771 0.950 . S
H2749 C2773 0.950 . S
H2750 C2774 0.950 . S
H2751 C2775 0.951 . S
H2752 C2777 0.951 . S
H2753 C2779 0.950 . S
H2754 C2780 0.950 . S
H2755 C2782 0.950 . S
H2756 C2785 0.950 . S
H2757 C2786 0.950 . S
H2758 C2788 0.950 . S
H2759 C2789 0.950 . S
C2760 H2742 0.951 . S
C2760 C2761 1.366 . S
C2760 C2762 1.388 . S
C2761 C2760 1.366 . S
C2761 C2765 1.385 . S
C2762 H2743 0.951 . S
C2762 C2760 1.388 . S
C2762 C2763 1.366 . S
C2763 C2762 1.366 . S
C2763 C2764 1.414 . S
C2763 C2766 1.499 . S
C2764 H2744 0.950 . S
C2764 C2763 1.414 . S
C2764 C2765 1.374 . S
C2765 H2745 0.950 . S
C2765 C2761 1.385 . S
C2765 C2764 1.374 . S
C2766 C2763 1.499 . S
C2766 C2767 1.373 . S
C2766 C2768 1.389 . S
C2767 H2746 0.950 . S
C2767 C2766 1.373 . S
C2767 C2783 1.377 . S
C2768 C2766 1.389 . S
C2768 C2769 1.524 . S
C2768 C2782 1.377 . S
C2769 C2768 1.524 . S
C2769 C2770 1.397 . S
C2769 C2774 1.363 . S
C2770 H2747 0.950 . S
C2770 C2769 1.397 . S
C2770 C2771 1.334 . S
C2771 H2748 0.950 . S
C2771 C2770 1.334 . S
C2771 C2772 1.287 . S
C2772 C2771 1.287 . S
C2772 C2773 1.524 . S
C2772 H2791 0.913 . S
C2773 H2749 0.950 . S
C2773 C2772 1.524 . S
C2773 C2774 1.415 . S
C2774 H2750 0.950 . S
C2774 C2769 1.363 . S
C2774 C2773 1.415 . S
C2775 H2751 0.951 . S
C2775 C2776 1.366 . S
C2775 C2777 1.388 . S
C2776 C2775 1.366 . S
C2776 C2780 1.385 . S
C2777 H2752 0.951 . S
C2777 C2775 1.388 . S
C2777 C2778 1.366 . S
C2778 C2777 1.366 . S
C2778 C2779 1.414 . S
C2778 C2781 1.499 . S
C2779 H2753 0.950 . S
C2779 C2778 1.414 . S
C2779 C2780 1.374 . S
C2780 H2754 0.950 . S
C2780 C2776 1.385 . S
C2780 C2779 1.374 . S
C2781 C2778 1.499 . S
C2781 C2782 1.373 . S
C2781 C2783 1.389 . S
C2782 H2755 0.950 . S
C2782 C2768 1.377 . S
C2782 C2781 1.373 . S
C2783 C2767 1.377 . S
C2783 C2781 1.389 . S
C2783 C2784 1.524 . S
C2784 C2783 1.524 . S
C2784 C2785 1.397 . S
C2784 C2789 1.363 . S
C2785 H2756 0.950 . S
C2785 C2784 1.397 . S
C2785 C2786 1.334 . S
C2786 H2757 0.950 . S
C2786 C2785 1.334 . S
C2786 C2787 1.287 . S
C2787 C2786 1.287 . S
C2787 C2788 1.524 . S
C2787 H2790 0.999 . S
C2788 H2758 0.950 . S
C2788 C2787 1.524 . S
C2788 C2789 1.415 . S
C2789 H2759 0.950 . S
C2789 C2784 1.363 . S
C2789 C2788 1.415 . S
H2790 C2787 0.999 . S
H2791 C2772 0.913 . S
H2792 C2810 0.951 . S
H2793 C2812 0.951 . S
H2794 C2814 0.950 . S
H2795 C2815 0.950 . S
H2796 C2817 0.950 . S
H2797 C2820 0.950 . S
H2798 C2821 0.950 . S
H2799 C2823 0.950 . S
H2800 C2824 0.950 . S
H2801 C2825 0.951 . S
H2802 C2827 0.951 . S
H2803 C2829 0.950 . S
H2804 C2830 0.950 . S
H2805 C2832 0.950 . S
H2806 C2835 0.950 . S
H2807 C2836 0.950 . S
H2808 C2838 0.950 . S
H2809 C2839 0.950 . S
C2810 H2792 0.951 . S
C2810 C2811 1.366 . S
C2810 C2812 1.388 . S
C2811 C2810 1.366 . S
C2811 C2815 1.385 . S
C2812 H2793 0.951 . S
C2812 C2810 1.388 . S
C2812 C2813 1.366 . S
C2813 C2812 1.366 . S
C2813 C2814 1.414 . S
C2813 C2816 1.499 . S
C2814 H2794 0.950 . S
C2814 C2813 1.414 . S
C2814 C2815 1.374 . S
C2815 H2795 0.950 . S
C2815 C2811 1.385 . S
C2815 C2814 1.374 . S
C2816 C2813 1.499 . S
C2816 C2817 1.373 . S
C2816 C2818 1.389 . S
C2817 H2796 0.950 . S
C2817 C2816 1.373 . S
C2817 C2833 1.377 . S
C2818 C2816 1.389 . S
C2818 C2819 1.524 . S
C2818 C2832 1.377 . S
C2819 C2818 1.524 . S
C2819 C2820 1.397 . S
C2819 C2824 1.363 . S
C2820 H2797 0.950 . S
C2820 C2819 1.397 . S
C2820 C2821 1.334 . S
C2821 H2798 0.950 . S
C2821 C2820 1.334 . S
C2821 C2822 1.287 . S
C2822 C2821 1.287 . S
C2822 C2823 1.524 . S
C2822 H2841 0.913 . S
C2823 H2799 0.950 . S
C2823 C2822 1.524 . S
C2823 C2824 1.415 . S
C2824 H2800 0.950 . S
C2824 C2819 1.363 . S
C2824 C2823 1.415 . S
C2825 H2801 0.951 . S
C2825 C2826 1.366 . S
C2825 C2827 1.388 . S
C2826 C2825 1.366 . S
C2826 C2830 1.385 . S
C2827 H2802 0.951 . S
C2827 C2825 1.388 . S
C2827 C2828 1.366 . S
C2828 C2827 1.366 . S
C2828 C2829 1.414 . S
C2828 C2831 1.499 . S
C2829 H2803 0.950 . S
C2829 C2828 1.414 . S
C2829 C2830 1.374 . S
C2830 H2804 0.950 . S
C2830 C2826 1.385 . S
C2830 C2829 1.374 . S
C2831 C2828 1.499 . S
C2831 C2832 1.373 . S
C2831 C2833 1.389 . S
C2832 H2805 0.950 . S
C2832 C2818 1.377 . S
C2832 C2831 1.373 . S
C2833 C2817 1.377 . S
C2833 C2831 1.389 . S
C2833 C2834 1.524 . S
C2834 C2833 1.524 . S
C2834 C2835 1.397 . S
C2834 C2839 1.363 . S
C2835 H2806 0.950 . S
C2835 C2834 1.397 . S
C2835 C2836 1.334 . S
C2836 H2807 0.950 . S
C2836 C2835 1.334 . S
C2836 C2837 1.287 . S
C2837 C2836 1.287 . S
C2837 C2838 1.524 . S
C2837 H2840 0.999 . S
C2838 H2808 0.950 . S
C2838 C2837 1.524 . S
C2838 C2839 1.415 . S
C2839 H2809 0.950 . S
C2839 C2834 1.363 . S
C2839 C2838 1.415 . S
H2840 C2837 0.999 . S
H2841 C2822 0.913 . S
H2842 C2860 0.951 . S
H2843 C2862 0.951 . S
H2844 C2864 0.950 . S
H2845 C2865 0.950 . S
H2846 C2867 0.950 . S
H2847 C2870 0.950 . S
H2848 C2871 0.950 . S
H2849 C2873 0.950 . S
H2850 C2874 0.950 . S
H2851 C2875 0.951 . S
H2852 C2877 0.951 . S
H2853 C2879 0.950 . S
H2854 C2880 0.950 . S
H2855 C2882 0.950 . S
H2856 C2885 0.950 . S
H2857 C2886 0.950 . S
H2858 C2888 0.950 . S
H2859 C2889 0.950 . S
C2860 H2842 0.951 . S
C2860 C2861 1.366 . S
C2860 C2862 1.388 . S
C2861 C2860 1.366 . S
C2861 C2865 1.385 . S
C2862 H2843 0.951 . S
C2862 C2860 1.388 . S
C2862 C2863 1.366 . S
C2863 C2862 1.366 . S
C2863 C2864 1.414 . S
C2863 C2866 1.499 . S
C2864 H2844 0.950 . S
C2864 C2863 1.414 . S
C2864 C2865 1.374 . S
C2865 H2845 0.950 . S
C2865 C2861 1.385 . S
C2865 C2864 1.374 . S
C2866 C2863 1.499 . S
C2866 C2867 1.373 . S
C2866 C2868 1.389 . S
C2867 H2846 0.950 . S
C2867 C2866 1.373 . S
C2867 C2883 1.377 . S
C2868 C2866 1.389 . S
C2868 C2869 1.524 . S
C2868 C2882 1.377 . S
C2869 C2868 1.524 . S
C2869 C2870 1.397 . S
C2869 C2874 1.363 . S
C2870 H2847 0.950 . S
C2870 C2869 1.397 . S
C2870 C2871 1.334 . S
C2871 H2848 0.950 . S
C2871 C2870 1.334 . S
C2871 C2872 1.287 . S
C2872 C2871 1.287 . S
C2872 C2873 1.524 . S
C2872 H2891 0.913 . S
C2873 H2849 0.950 . S
C2873 C2872 1.524 . S
C2873 C2874 1.415 . S
C2874 H2850 0.950 . S
C2874 C2869 1.363 . S
C2874 C2873 1.415 . S
C2875 H2851 0.951 . S
C2875 C2876 1.366 . S
C2875 C2877 1.388 . S
C2876 C2875 1.366 . S
C2876 C2880 1.385 . S
C2877 H2852 0.951 . S
C2877 C2875 1.388 . S
C2877 C2878 1.366 . S
C2878 C2877 1.366 . S
C2878 C2879 1.414 . S
C2878 C2881 1.499 . S
C2879 H2853 0.950 . S
C2879 C2878 1.414 . S
C2879 C2880 1.374 . S
C2880 H2854 0.950 . S
C2880 C2876 1.385 . S
C2880 C2879 1.374 . S
C2881 C2878 1.499 . S
C2881 C2882 1.373 . S
C2881 C2883 1.389 . S
C2882 H2855 0.950 . S
C2882 C2868 1.377 . S
C2882 C2881 1.373 . S
C2883 C2867 1.377 . S
C2883 C2881 1.389 . S
C2883 C2884 1.524 . S
C2884 C2883 1.524 . S
C2884 C2885 1.397 . S
C2884 C2889 1.363 . S
C2885 H2856 0.950 . S
C2885 C2884 1.397 . S
C2885 C2886 1.334 . S
C2886 H2857 0.950 . S
C2886 C2885 1.334 . S
C2886 C2887 1.287 . S
C2887 C2886 1.287 . S
C2887 C2888 1.524 . S
C2887 H2890 0.999 . S
C2888 H2858 0.950 . S
C2888 C2887 1.524 . S
C2888 C2889 1.415 . S
C2889 H2859 0.950 . S
C2889 C2884 1.363 . S
C2889 C2888 1.415 . S
H2890 C2887 0.999 . S
H2891 C2872 0.913 . S
H2892 C2910 0.951 . S
H2893 C2912 0.951 . S
H2894 C2914 0.950 . S
H2895 C2915 0.950 . S
H2896 C2917 0.950 . S
H2897 C2920 0.950 . S
H2898 C2921 0.950 . S
H2899 C2923 0.950 . S
H2900 C2924 0.950 . S
H2901 C2925 0.951 . S
H2902 C2927 0.951 . S
H2903 C2929 0.950 . S
H2904 C2930 0.950 . S
H2905 C2932 0.950 . S
H2906 C2935 0.950 . S
H2907 C2936 0.950 . S
H2908 C2938 0.950 . S
H2909 C2939 0.950 . S
C2910 H2892 0.951 . S
C2910 C2911 1.366 . S
C2910 C2912 1.388 . S
C2911 C2910 1.366 . S
C2911 C2915 1.385 . S
C2912 H2893 0.951 . S
C2912 C2910 1.388 . S
C2912 C2913 1.366 . S
C2913 C2912 1.366 . S
C2913 C2914 1.414 . S
C2913 C2916 1.499 . S
C2914 H2894 0.950 . S
C2914 C2913 1.414 . S
C2914 C2915 1.374 . S
C2915 H2895 0.950 . S
C2915 C2911 1.385 . S
C2915 C2914 1.374 . S
C2916 C2913 1.499 . S
C2916 C2917 1.373 . S
C2916 C2918 1.389 . S
C2917 H2896 0.950 . S
C2917 C2916 1.373 . S
C2917 C2933 1.377 . S
C2918 C2916 1.389 . S
C2918 C2919 1.524 . S
C2918 C2932 1.377 . S
C2919 C2918 1.524 . S
C2919 C2920 1.397 . S
C2919 C2924 1.363 . S
C2920 H2897 0.950 . S
C2920 C2919 1.397 . S
C2920 C2921 1.334 . S
C2921 H2898 0.950 . S
C2921 C2920 1.334 . S
C2921 C2922 1.287 . S
C2922 C2921 1.287 . S
C2922 C2923 1.524 . S
C2922 H2941 0.913 . S
C2923 H2899 0.950 . S
C2923 C2922 1.524 . S
C2923 C2924 1.415 . S
C2924 H2900 0.950 . S
C2924 C2919 1.363 . S
C2924 C2923 1.415 . S
C2925 H2901 0.951 . S
C2925 C2926 1.366 . S
C2925 C2927 1.388 . S
C2926 C2925 1.366 . S
C2926 C2930 1.385 . S
C2927 H2902 0.951 . S
C2927 C2925 1.388 . S
C2927 C2928 1.366 . S
C2928 C2927 1.366 . S
C2928 C2929 1.414 . S
C2928 C2931 1.499 . S
C2929 H2903 0.950 . S
C2929 C2928 1.414 . S
C2929 C2930 1.374 . S
C2930 H2904 0.950 . S
C2930 C2926 1.385 . S
C2930 C2929 1.374 . S
C2931 C2928 1.499 . S
C2931 C2932 1.373 . S
C2931 C2933 1.389 . S
C2932 H2905 0.950 . S
C2932 C2918 1.377 . S
C2932 C2931 1.373 . S
C2933 C2917 1.377 . S
C2933 C2931 1.389 . S
C2933 C2934 1.524 . S
C2934 C2933 1.524 . S
C2934 C2935 1.397 . S
C2934 C2939 1.363 . S
C2935 H2906 0.950 . S
C2935 C2934 1.397 . S
C2935 C2936 1.334 . S
C2936 H2907 0.950 . S
C2936 C2935 1.334 . S
C2936 C2937 1.287 . S
C2937 C2936 1.287 . S
C2937 C2938 1.524 . S
C2937 H2940 0.999 . S
C2938 H2908 0.950 . S
C2938 C2937 1.524 . S
C2938 C2939 1.415 . S
C2939 H2909 0.950 . S
C2939 C2934 1.363 . S
C2939 C2938 1.415 . S
H2940 C2937 0.999 . S
H2941 C2922 0.913 . S
H2942 C2960 0.951 . S
H2943 C2962 0.951 . S
H2944 C2964 0.950 . S
H2945 C2965 0.950 . S
H2946 C2967 0.950 . S
H2947 C2970 0.950 . S
H2948 C2971 0.950 . S
H2949 C2973 0.950 . S
H2950 C2974 0.950 . S
H2951 C2975 0.951 . S
H2952 C2977 0.951 . S
H2953 C2979 0.950 . S
H2954 C2980 0.950 . S
H2955 C2982 0.950 . S
H2956 C2985 0.950 . S
H2957 C2986 0.950 . S
H2958 C2988 0.950 . S
H2959 C2989 0.950 . S
C2960 H2942 0.951 . S
C2960 C2961 1.366 . S
C2960 C2962 1.388 . S
C2961 C2960 1.366 . S
C2961 C2965 1.385 . S
C2962 H2943 0.951 . S
C2962 C2960 1.388 . S
C2962 C2963 1.366 . S
C2963 C2962 1.366 . S
C2963 C2964 1.414 . S
C2963 C2966 1.499 . S
C2964 H2944 0.950 . S
C2964 C2963 1.414 . S
C2964 C2965 1.374 . S
C2965 H2945 0.950 . S
C2965 C2961 1.385 . S
C2965 C2964 1.374 . S
C2966 C2963 1.499 . S
C2966 C2967 1.373 . S
C2966 C2968 1.389 . S
C2967 H2946 0.950 . S
C2967 C2966 1.373 . S
C2967 C2983 1.377 . S
C2968 C2966 1.389 . S
C2968 C2969 1.524 . S
C2968 C2982 1.377 . S
C2969 C2968 1.524 . S
C2969 C2970 1.397 . S
C2969 C2974 1.363 . S
C2970 H2947 0.950 . S
C2970 C2969 1.397 . S
C2970 C2971 1.334 . S
C2971 H2948 0.950 . S
C2971 C2970 1.334 . S
C2971 C2972 1.287 . S
C2972 C2971 1.287 . S
C2972 C2973 1.524 . S
C2972 H2991 0.913 . S
C2973 H2949 0.950 . S
C2973 C2972 1.524 . S
C2973 C2974 1.415 . S
C2974 H2950 0.950 . S
C2974 C2969 1.363 . S
C2974 C2973 1.415 . S
C2975 H2951 0.951 . S
C2975 C2976 1.366 . S
C2975 C2977 1.388 . S
C2976 C2975 1.366 . S
C2976 C2980 1.385 . S
C2977 H2952 0.951 . S
C2977 C2975 1.388 . S
C2977 C2978 1.366 . S
C2978 C2977 1.366 . S
C2978 C2979 1.414 . S
C2978 C2981 1.499 . S
C2979 H2953 0.950 . S
C2979 C2978 1.414 . S
C2979 C2980 1.374 . S
C2980 H2954 0.950 . S
C2980 C2976 1.385 . S
C2980 C2979 1.374 . S
C2981 C2978 1.499 . S
C2981 C2982 1.373 . S
C2981 C2983 1.389 . S
C2982 H2955 0.950 . S
C2982 C2968 1.377 . S
C2982 C2981 1.373 . S
C2983 C2967 1.377 . S
C2983 C2981 1.389 . S
C2983 C2984 1.524 . S
C2984 C2983 1.524 . S
C2984 C2985 1.397 . S
C2984 C2989 1.363 . S
C2985 H2956 0.950 . S
C2985 C2984 1.397 . S
C2985 C2986 1.334 . S
C2986 H2957 0.950 . S
C2986 C2985 1.334 . S
C2986 C2987 1.287 . S
C2987 C2986 1.287 . S
C2987 C2988 1.524 . S
C2987 H2990 0.999 . S
C2988 H2958 0.950 . S
C2988 C2987 1.524 . S
C2988 C2989 1.415 . S
C2989 H2959 0.950 . S
C2989 C2984 1.363 . S
C2989 C2988 1.415 . S
H2990 C2987 0.999 . S
H2991 C2972 0.913 . S
H2992 C3010 0.951 . S
H2993 C3012 0.951 . S
H2994 C3014 0.950 . S
H2995 C3015 0.950 . S
H2996 C3017 0.950 . S
H2997 C3020 0.950 . S
H2998 C3021 0.950 . S
H2999 C3023 0.950 . S
H3000 C3024 0.950 . S
H3001 C3025 0.951 . S
H3002 C3027 0.951 . S
H3003 C3029 0.950 . S
H3004 C3030 0.950 . S
H3005 C3032 0.950 . S
H3006 C3035 0.950 . S
H3007 C3036 0.950 . S
H3008 C3038 0.950 . S
H3009 C3039 0.950 . S
C3010 H2992 0.951 . S
C3010 C3011 1.366 . S
C3010 C3012 1.388 . S
C3011 C3010 1.366 . S
C3011 C3015 1.385 . S
C3012 H2993 0.951 . S
C3012 C3010 1.388 . S
C3012 C3013 1.366 . S
C3013 C3012 1.366 . S
C3013 C3014 1.414 . S
C3013 C3016 1.499 . S
C3014 H2994 0.950 . S
C3014 C3013 1.414 . S
C3014 C3015 1.374 . S
C3015 H2995 0.950 . S
C3015 C3011 1.385 . S
C3015 C3014 1.374 . S
C3016 C3013 1.499 . S
C3016 C3017 1.373 . S
C3016 C3018 1.389 . S
C3017 H2996 0.950 . S
C3017 C3016 1.373 . S
C3017 C3033 1.377 . S
C3018 C3016 1.389 . S
C3018 C3019 1.524 . S
C3018 C3032 1.377 . S
C3019 C3018 1.524 . S
C3019 C3020 1.397 . S
C3019 C3024 1.363 . S
C3020 H2997 0.950 . S
C3020 C3019 1.397 . S
C3020 C3021 1.334 . S
C3021 H2998 0.950 . S
C3021 C3020 1.334 . S
C3021 C3022 1.287 . S
C3022 C3021 1.287 . S
C3022 C3023 1.524 . S
C3022 H3041 0.913 . S
C3023 H2999 0.950 . S
C3023 C3022 1.524 . S
C3023 C3024 1.415 . S
C3024 H3000 0.950 . S
C3024 C3019 1.363 . S
C3024 C3023 1.415 . S
C3025 H3001 0.951 . S
C3025 C3026 1.366 . S
C3025 C3027 1.388 . S
C3026 C3025 1.366 . S
C3026 C3030 1.385 . S
C3027 H3002 0.951 . S
C3027 C3025 1.388 . S
C3027 C3028 1.366 . S
C3028 C3027 1.366 . S
C3028 C3029 1.414 . S
C3028 C3031 1.499 . S
C3029 H3003 0.950 . S
C3029 C3028 1.414 . S
C3029 C3030 1.374 . S
C3030 H3004 0.950 . S
C3030 C3026 1.385 . S
C3030 C3029 1.374 . S
C3031 C3028 1.499 . S
C3031 C3032 1.373 . S
C3031 C3033 1.389 . S
C3032 H3005 0.950 . S
C3032 C3018 1.377 . S
C3032 C3031 1.373 . S
C3033 C3017 1.377 . S
C3033 C3031 1.389 . S
C3033 C3034 1.524 . S
C3034 C3033 1.524 . S
C3034 C3035 1.397 . S
C3034 C3039 1.363 . S
C3035 H3006 0.950 . S
C3035 C3034 1.397 . S
C3035 C3036 1.334 . S
C3036 H3007 0.950 . S
C3036 C3035 1.334 . S
C3036 C3037 1.287 . S
C3037 C3036 1.287 . S
C3037 C3038 1.524 . S
C3037 H3040 0.999 . S
C3038 H3008 0.950 . S
C3038 C3037 1.524 . S
C3038 C3039 1.415 . S
C3039 H3009 0.950 . S
C3039 C3034 1.363 . S
C3039 C3038 1.415 . S
H3040 C3037 0.999 . S
H3041 C3022 0.913 . S
C361 C124 1.507 . S
C376 C168 1.489 . S
C411 C130 1.513 . S
C426 C188 1.488 . S
C461 C115 1.501 . S
C476 C211 1.498 . S
C511 C106 1.424 . S
C526 C191 1.421 . S
C576 C208 1.408 . S
C561 C85 1.423 . S
C611 C97 1.406 . S
C626 C171 1.403 . S
C676 C178 1.511 . S
C661 C103 1.528 . S
C726 C198 1.468 . S
C711 C88 1.492 . S
C761 C94 1.501 . S
C776 C203 1.497 . S
C811 C121 1.423 . S
C826 C183 1.419 . S
C861 C133 1.402 . S
C876 C218 1.386 . S
C926 C163 1.425 . S
C911 C112 1.428 . S
C976 C228 1.488 . S
C961 C16 1.507 . S
C1011 C22 1.513 . S
C1026 C248 1.487 . S
C1061 C7 1.501 . S
C1076 C271 1.498 . S
C1111 C160 1.424 . S
C1126 C251 1.420 . S
C1161 C139 1.423 . S
C1176 C268 1.407 . S
C1211 C151 1.406 . S
C1226 C231 1.402 . S
C1261 C157 1.528 . S
C1276 C238 1.510 . S
C1311 C142 1.491 . S
C1326 C258 1.467 . S
C1376 C263 1.497 . S
C1361 C148 1.501 . S
C1411 C13 1.423 . S
C1426 C243 1.419 . S
C1476 C278 1.387 . S
C1461 C25 1.402 . S
C1511 C4 1.429 . S
C1526 C223 1.426 . S
C1576 C288 1.489 . S
C1561 C70 1.507 . S
C1611 C76 1.513 . S
C1626 C308 1.488 . S
C1676 C331 1.498 . S
C1661 C61 1.500 . S
C1726 C311 1.420 . S
C1711 C52 1.424 . S
C1776 C328 1.408 . S
C1761 C31 1.424 . S
C1811 C43 1.406 . S
C1826 C291 1.402 . S
C1861 C49 1.528 . S
C1876 C298 1.511 . S
C1911 C34 1.491 . S
C1926 C318 1.467 . S
C1976 C323 1.498 . S
C1961 C40 1.501 . S
C2011 C67 1.423 . S
C2026 C303 1.419 . S
C2061 C79 1.401 . S
C2076 C338 1.386 . S
C2111 C58 1.428 . S
C2126 C283 1.425 . S
C2161 C140 1.257 . S
C2176 C181 1.230 1_565 S
C2226 C201 1.568 . S
C2211 C149 1.622 . S
C2261 C158 1.476 . S
C2276 C210 1.438 . S
C2311 C59 1.646 . S
C2326 C190 1.592 1_655 S
C2361 C68 1.450 . S
C2376 C221 1.411 . S
C2426 C170 1.215 1_545 S
C2411 C77 1.255 . S
C2461 C32 1.257 . S
C2476 C241 1.231 . S
C2511 C41 1.622 . S
C2526 C261 1.568 . S
C2561 C50 1.477 . S
C2576 C270 1.439 . S
C2611 C113 1.647 . S
C2626 C250 1.593 . S
C2676 C281 1.412 . S
C2661 C122 1.449 . S
C2711 C131 1.254 . S
C2726 C230 1.227 . S
C2761 C86 1.257 . S
C2776 C301 1.231 . S
C2811 C95 1.622 . S
C2826 C321 1.569 . S
C2876 C330 1.438 . S
C2861 C104 1.476 . S
C2911 C5 1.646 . S
C2926 C310 1.593 . S
C2961 C14 1.450 . S
C2976 C341 1.411 . S
C3011 C23 1.255 . S
C3026 C290 1.227 . S
