# Generated by pormake.
# Topology tsx, (6,3)-cn, num edge types: 1
# Building blocks:
#     Node 0, Type 0, BuildingBlock: VOLQOD_clean_sbu_1, # of connection points: 6
#     Node 1, Type 0, BuildingBlock: VOLQOD_clean_sbu_1, # of connection points: 6
#     Node 2, Type 1, BuildingBlock: BETDIP_clean_linker_0, # of connection points: 3
#     Node 3, Type 1, BuildingBlock: BETDIP_clean_linker_0, # of connection points: 3
#     Node 4, Type 1, BuildingBlock: BETDIP_clean_linker_0, # of connection points: 3
#     Node 5, Type 1, BuildingBlock: BETDIP_clean_linker_0, # of connection points: 3
#     Edge 6, Type (0, 1), BuildingBlock: FUNLAD_clean_linker_1, # of connection points: 2
#     Edge 7, Type (0, 1), BuildingBlock: FUNLAD_clean_linker_1, # of connection points: 2
#     Edge 8, Type (0, 1), BuildingBlock: FUNLAD_clean_linker_1, # of connection points: 2
#     Edge 9, Type (0, 1), BuildingBlock: FUNLAD_clean_linker_1, # of connection points: 2
#     Edge 10, Type (0, 1), BuildingBlock: FUNLAD_clean_linker_1, # of connection points: 2
#     Edge 11, Type (0, 1), BuildingBlock: FUNLAD_clean_linker_1, # of connection points: 2
#     Edge 12, Type (0, 1), BuildingBlock: FUNLAD_clean_linker_1, # of connection points: 2
#     Edge 13, Type (0, 1), BuildingBlock: FUNLAD_clean_linker_1, # of connection points: 2
#     Edge 14, Type (0, 1), BuildingBlock: FUNLAD_clean_linker_1, # of connection points: 2
#     Edge 15, Type (0, 1), BuildingBlock: FUNLAD_clean_linker_1, # of connection points: 2
#     Edge 16, Type (0, 1), BuildingBlock: FUNLAD_clean_linker_1, # of connection points: 2
#     Edge 17, Type (0, 1), BuildingBlock: FUNLAD_clean_linker_1, # of connection points: 2
# Relax obj value: 0.057
# Max RMSD: 0.118
# Mean RMSD: 0.105
data_MOF--net-tsx--node1-VOLQOD_clean_sbu_1--node2-BETDIP_clean_linker_0--edge1-FUNLAD_clean_linker_1
_symmetry_space_group_name_H-M    P1
_symmetry_Int_Tables_number       1
_symmetry_cell_setting            triclinic
loop_
_symmetry_equiv_pos_as_xyz
'x, y, z'
_cell_length_a     21.973813
_cell_length_b     22.759601
_cell_length_c     39.148454
_cell_angle_alpha  90.006657
_cell_angle_beta   98.998885
_cell_angle_gamma 90.126447
loop_
_atom_site_label
_atom_site_type_symbol
_atom_site_fract_x
_atom_site_fract_y
_atom_site_fract_z
_atom_type_partial_charge
O0 O 0.07049 0.01147 0.08714 0.0
Zn1 Zn 0.08128 0.01763 0.03707 0.0
O2 O 0.00256 0.02311 0.00646 0.0
Zn3 Zn 0.99189 0.95593 0.97429 0.0
Zn4 Zn 0.93676 0.02481 0.0347 0.0
Zn5 Zn 0.00081 0.09582 0.98013 0.0
O6 O 0.9783 0.98308 0.92385 0.0
O7 O 0.99778 0.07881 0.92973 0.0
O8 O 0.1304 0.94944 0.02444 0.0
O9 O 0.06975 0.90755 0.9803 0.0
O10 O 0.92268 0.90244 0.98455 0.0
O11 O 0.88631 0.95192 0.02608 0.0
O12 O 0.87905 0.09296 0.0221 0.0
O13 O 0.13305 0.08877 0.03265 0.0
O14 O 0.92579 0.14291 0.98484 0.0
O15 O 0.07528 0.14611 0.99482 0.0
C16 C 0.02422 0.01742 0.10273 0.0
C17 C 0.98625 0.03346 0.91086 0.0
C18 C 0.88527 0.90763 0.00623 0.0
C19 C 0.12036 0.91014 0.00119 0.0
C20 C 0.88154 0.13647 0.00197 0.0
C21 C 0.12491 0.13614 0.01531 0.0
O22 O 0.97018 0.02564 0.08614 0.0
O23 O 0.56671 0.49348 0.58038 0.0
Zn24 Zn 0.58382 0.49795 0.53142 0.0
O25 O 0.50601 0.50799 0.49988 0.0
Zn26 Zn 0.49192 0.44004 0.46882 0.0
Zn27 Zn 0.43653 0.51682 0.52542 0.0
Zn28 Zn 0.51231 0.579 0.47315 0.0
O29 O 0.48839 0.46503 0.41859 0.0
O30 O 0.51827 0.55855 0.42428 0.0
O31 O 0.63013 0.42534 0.51988 0.0
O32 O 0.56407 0.38484 0.4776 0.0
O33 O 0.4168 0.393 0.47737 0.0
O34 O 0.38047 0.44622 0.51734 0.0
O35 O 0.38464 0.58928 0.51011 0.0
O36 O 0.64023 0.56793 0.52994 0.0
O37 O 0.4376 0.62941 0.47211 0.0
O38 O 0.58648 0.62772 0.49185 0.0
C39 C 0.5199 0.50541 0.59462 0.0
C40 C 0.50484 0.51306 0.40579 0.0
C41 C 0.37782 0.40113 0.49786 0.0
C42 C 0.61541 0.38459 0.49777 0.0
C43 C 0.3914 0.629 0.48799 0.0
C44 C 0.63421 0.61656 0.51374 0.0
O45 O 0.46791 0.51871 0.57693 0.0
H46 H 0.02967 0.97905 0.46902 0.0
H47 H 0.97354 0.08217 0.37782 0.0
H48 H 0.06782 0.9178 0.37079 0.0
H49 H 0.01456 0.15565 0.4275 0.0
C50 C 0.97897 0.13888 0.44132 0.0
C51 C 0.02745 0.98509 0.44138 0.0
C52 C 0.05466 0.94379 0.42189 0.0
C53 C 0.99976 0.03565 0.42577 0.0
C54 C 0.99649 0.04365 0.38994 0.0
C55 C 0.02078 0.00158 0.36952 0.0
C56 C 0.05015 0.95165 0.38587 0.0
N57 N 0.97369 0.07734 0.44624 0.0
H58 H 0.92343 0.01714 0.54309 0.0
H59 H 0.00817 0.09034 0.64053 0.0
H60 H 0.85431 0.97169 0.63632 0.0
H61 H 0.09437 0.08975 0.60713 0.0
C62 C 0.06899 0.11091 0.58438 0.0
C63 C 0.92616 0.02065 0.5709 0.0
C64 C 0.88457 0.98945 0.58779 0.0
C65 C 0.97087 0.05713 0.58973 0.0
C66 C 0.9746 0.06131 0.626 0.0
C67 C 0.93239 0.03037 0.64301 0.0
C68 C 0.8869 0.9958 0.62346 0.0
N69 N 0.00822 0.09218 0.5712 0.0
H70 H 0.54852 0.49881 0.96047 0.0
H71 H 0.44959 0.57488 0.86777 0.0
H72 H 0.57898 0.43494 0.86125 0.0
H73 H 0.47522 0.66084 0.91233 0.0
C74 C 0.44902 0.63629 0.92896 0.0
C75 C 0.53887 0.50066 0.93246 0.0
C76 C 0.5689 0.46247 0.91265 0.0
C77 C 0.49616 0.54122 0.91642 0.0
C78 C 0.48344 0.54391 0.88016 0.0
C79 C 0.51342 0.50619 0.85984 0.0
C80 C 0.55586 0.46499 0.87636 0.0
N81 N 0.46404 0.57698 0.93715 0.0
H82 H 0.54833 0.42547 0.05191 0.0
H83 H 0.60568 0.52362 0.14555 0.0
H84 H 0.45655 0.40026 0.13996 0.0
H85 H 0.61928 0.59367 0.10413 0.0
C86 C 0.64078 0.56831 0.08573 0.0
C87 C 0.54359 0.43563 0.07843 0.0
C88 C 0.49716 0.40874 0.09359 0.0
C89 C 0.58152 0.47846 0.0966 0.0
C90 C 0.57564 0.49143 0.1312 0.0
C91 C 0.53051 0.46282 0.14698 0.0
C92 C 0.49119 0.42242 0.12778 0.0
N93 N 0.62403 0.50873 0.07912 0.0
H94 H 0.16149 0.22542 0.00999 0.0
C95 C 0.17317 0.18147 0.01976 0.0
H96 H 0.24198 0.12676 0.04679 0.0
H97 H 0.39189 0.36872 0.00941 0.0
H98 H 0.3702 0.33618 0.94975 0.0
H99 H 0.30605 0.24835 0.93362 0.0
H100 H 0.26244 0.19313 0.97708 0.0
C101 C 0.23001 0.17028 0.03646 0.0
C102 C 0.27451 0.21864 0.04616 0.0
C103 C 0.3014 0.24899 0.02061 0.0
C104 C 0.34041 0.29811 0.03012 0.0
C105 C 0.36395 0.3297 0.00386 0.0
C106 C 0.35149 0.31173 0.96945 0.0
C107 C 0.31521 0.2624 0.96036 0.0
C108 C 0.29024 0.23126 0.98552 0.0
H109 H 0.4744 0.33109 0.05982 0.0
C110 C 0.45516 0.36538 0.07422 0.0
H111 H 0.37584 0.40121 0.09012 0.0
H112 H 0.23058 0.16908 0.10142 0.0
H113 H 0.25507 0.19909 0.16133 0.0
H114 H 0.32594 0.28191 0.17831 0.0
H115 H 0.37213 0.33524 0.1355 0.0
C116 C 0.39465 0.36611 0.0761 0.0
C117 C 0.35409 0.31514 0.06533 0.0
C118 C 0.32816 0.28383 0.09096 0.0
C119 C 0.2882 0.23559 0.08132 0.0
C120 C 0.26192 0.2057 0.1073 0.0
C121 C 0.27549 0.22249 0.14186 0.0
C122 C 0.3153 0.26912 0.1514 0.0
C123 C 0.34146 0.29951 0.12643 0.0
H124 H 0.21674 0.881 0.01101 0.0
C125 C 0.1715 0.87084 0.99661 0.0
H126 H 0.12074 0.81711 0.95841 0.0
H127 H 0.33972 0.76176 0.87829 0.0
H128 H 0.26913 0.81499 0.83574 0.0
H129 H 0.17689 0.86258 0.85167 0.0
H130 H 0.15307 0.85487 0.90972 0.0
C131 C 0.16541 0.82669 0.97359 0.0
C132 C 0.2208 0.79685 0.96436 0.0
C133 C 0.23429 0.80238 0.93024 0.0
C134 C 0.28905 0.77735 0.92151 0.0
C135 C 0.29999 0.7815 0.88682 0.0
C136 C 0.25964 0.81176 0.86199 0.0
C137 C 0.20751 0.83825 0.87088 0.0
C138 C 0.19452 0.83349 0.90445 0.0
H139 H 0.37256 0.63584 0.95669 0.0
C140 C 0.40103 0.6627 0.94248 0.0
H141 H 0.41711 0.74907 0.92344 0.0
H142 H 0.20432 0.7697 0.03052 0.0
H143 H 0.27981 0.72554 0.07492 0.0
H144 H 0.38195 0.69616 0.0622 0.0
H145 H 0.40818 0.70868 0.00479 0.0
C146 C 0.3883 0.72246 0.93759 0.0
C147 C 0.33153 0.74897 0.94728 0.0
C148 C 0.31901 0.74533 0.98174 0.0
C149 C 0.26221 0.76668 0.98983 0.0
C150 C 0.24829 0.75744 0.02355 0.0
C151 C 0.29101 0.73175 0.0492 0.0
C152 C 0.34835 0.7149 0.04199 0.0
C153 C 0.36252 0.72168 0.00875 0.0
H154 H 0.80779 0.8698 0.0277 0.0
C155 C 0.84241 0.86001 0.01144 0.0
H156 H 0.88554 0.7919 0.98713 0.0
H157 H 0.78261 0.66878 0.12 0.0
H158 H 0.8782 0.70776 0.15136 0.0
H159 H 0.94718 0.76831 0.1217 0.0
H160 H 0.92092 0.79023 0.06047 0.0
C161 C 0.8501 0.80406 0.00227 0.0
C162 C 0.81571 0.75728 0.01767 0.0
C163 C 0.8328 0.74312 0.05314 0.0
C164 C 0.79326 0.70803 0.07015 0.0
C165 C 0.81076 0.69567 0.10581 0.0
C166 C 0.86562 0.71755 0.12411 0.0
C167 C 0.90445 0.75165 0.10742 0.0
C168 C 0.88862 0.76421 0.07233 0.0
H169 H 0.70138 0.57075 0.04768 0.0
C170 C 0.6807 0.59592 0.06647 0.0
H171 H 0.67417 0.68063 0.0902 0.0
H172 H 0.77474 0.76991 0.94868 0.0
H173 H 0.67968 0.73006 0.9167 0.0
H174 H 0.60952 0.67058 0.94622 0.0
H175 H 0.63382 0.6504 0.00763 0.0
C176 C 0.69314 0.65589 0.07056 0.0
C177 C 0.73725 0.68636 0.05149 0.0
C178 C 0.72203 0.69743 0.01547 0.0
C179 C 0.7618 0.73261 0.9985 0.0
C180 C 0.74561 0.74382 0.9627 0.0
C181 C 0.69136 0.72118 0.94411 0.0
C182 C 0.65191 0.68761 0.96072 0.0
C183 C 0.66663 0.67603 0.99601 0.0
H184 H 0.78489 0.16242 0.00199 0.0
C185 C 0.82894 0.17708 0.9957 0.0
H186 H 0.87722 0.24313 0.97336 0.0
H187 H 0.66448 0.34206 0.86565 0.0
H188 H 0.73352 0.30128 0.82945 0.0
H189 H 0.82241 0.2409 0.85455 0.0
H190 H 0.84318 0.22168 0.91599 0.0
C191 C 0.83316 0.22893 0.97985 0.0
C192 C 0.7775 0.26305 0.96524 0.0
C193 C 0.76493 0.27227 0.92896 0.0
C194 C 0.71262 0.30549 0.91434 0.0
C195 C 0.70265 0.31603 0.87818 0.0
C196 C 0.74205 0.29296 0.85701 0.0
C197 C 0.79213 0.25908 0.87113 0.0
C198 C 0.80364 0.24865 0.9066 0.0
H199 H 0.64774 0.43869 0.95229 0.0
C200 C 0.61592 0.42201 0.93033 0.0
H201 H 0.5873 0.34876 0.89893 0.0
H202 H 0.79159 0.25976 0.03616 0.0
H203 H 0.71788 0.29339 0.07188 0.0
H204 H 0.6202 0.33941 0.04562 0.0
H205 H 0.59679 0.35416 0.98358 0.0
C206 C 0.61977 0.36586 0.92046 0.0
C207 C 0.67194 0.32796 0.9359 0.0
C208 C 0.68278 0.3162 0.97196 0.0
C209 C 0.73695 0.28578 0.98684 0.0
C210 C 0.7495 0.27951 0.02326 0.0
C211 C 0.7078 0.29908 0.04412 0.0
C212 C 0.65297 0.32532 0.02936 0.0
C213 C 0.64036 0.33393 0.99373 0.0
H214 H 0.72512 0.64898 0.53863 0.0
C215 C 0.68298 0.66138 0.52177 0.0
H216 H 0.63375 0.73022 0.49377 0.0
H217 H 0.84747 0.85761 0.61192 0.0
H218 H 0.79768 0.8086 0.65504 0.0
H219 H 0.70961 0.7419 0.6377 0.0
H220 H 0.67264 0.72219 0.57728 0.0
C221 C 0.67525 0.7174 0.51101 0.0
C222 C 0.72286 0.76345 0.52169 0.0
C223 C 0.74052 0.77789 0.55716 0.0
C224 C 0.78759 0.82026 0.56709 0.0
C225 C 0.80889 0.82915 0.60281 0.0
C226 C 0.78117 0.80076 0.62789 0.0
C227 C 0.73189 0.76295 0.61814 0.0
C228 C 0.71156 0.75153 0.58327 0.0
H229 H 0.79232 0.94972 0.57555 0.0
C230 C 0.83882 0.94843 0.5693 0.0
H231 H 0.90282 0.89904 0.54624 0.0
H232 H 0.70143 0.74535 0.45165 0.0
H233 H 0.74775 0.79856 0.40853 0.0
H234 H 0.82345 0.87756 0.42564 0.0
H235 H 0.8538 0.90347 0.48604 0.0
C236 C 0.85591 0.90229 0.55165 0.0
C237 C 0.81249 0.8526 0.54143 0.0
C238 C 0.79473 0.83845 0.50604 0.0
C239 C 0.75024 0.79353 0.49617 0.0
C240 C 0.73425 0.77963 0.46062 0.0
C241 C 0.7606 0.80975 0.43558 0.0
C242 C 0.80326 0.8542 0.44521 0.0
C243 C 0.82028 0.86862 0.47998 0.0
H244 H 0.64325 0.30224 0.47519 0.0
C245 C 0.65945 0.33746 0.49315 0.0
H246 H 0.73673 0.37365 0.52534 0.0
H247 H 0.89525 0.13981 0.53319 0.0
H248 H 0.87549 0.14756 0.59232 0.0
H249 H 0.8042 0.2222 0.60856 0.0
H250 H 0.7523 0.29004 0.56586 0.0
C251 C 0.71935 0.33926 0.50712 0.0
C252 C 0.7636 0.29492 0.49737 0.0
C253 C 0.79324 0.25528 0.52251 0.0
C254 C 0.83376 0.21156 0.51297 0.0
C255 C 0.86347 0.1733 0.53884 0.0
C256 C 0.85266 0.17731 0.5729 0.0
C257 C 0.81249 0.2194 0.58207 0.0
C258 C 0.78302 0.25806 0.5573 0.0
H259 H 0.94749 0.22549 0.4494 0.0
C260 C 0.93952 0.17909 0.45357 0.0
H261 H 0.88021 0.11641 0.4739 0.0
H262 H 0.72377 0.3705 0.44393 0.0
H263 H 0.73788 0.35927 0.38421 0.0
H264 H 0.79562 0.27505 0.36596 0.0
H265 H 0.84221 0.20345 0.40777 0.0
C266 C 0.88814 0.16239 0.46853 0.0
C267 C 0.84406 0.20707 0.47816 0.0
C268 C 0.81291 0.24576 0.45279 0.0
C269 C 0.77506 0.29135 0.46272 0.0
C270 C 0.7497 0.33286 0.4375 0.0
C271 C 0.75777 0.32718 0.40309 0.0
C272 C 0.79069 0.28007 0.39289 0.0
C273 C 0.81788 0.23964 0.4173 0.0
H274 H 0.34412 0.30944 0.49472 0.0
C275 C 0.33348 0.35373 0.50229 0.0
H276 H 0.27452 0.40745 0.52602 0.0
H277 H 0.14747 0.13569 0.51128 0.0
H278 H 0.14413 0.14496 0.44945 0.0
H279 H 0.18607 0.23298 0.42454 0.0
H280 H 0.23324 0.31143 0.46155 0.0
C281 C 0.28466 0.36297 0.51856 0.0
C282 C 0.2504 0.31369 0.53236 0.0
C283 C 0.21948 0.26993 0.51021 0.0
C284 C 0.19115 0.22114 0.52443 0.0
C285 C 0.16593 0.17553 0.50189 0.0
C286 C 0.16434 0.17996 0.46628 0.0
C287 C 0.18824 0.22935 0.45228 0.0
C288 C 0.21565 0.27387 0.47385 0.0
H289 H 0.06981 0.17688 0.54527 0.0
C290 C 0.09711 0.15413 0.5668 0.0
H291 H 0.18637 0.14521 0.59781 0.0
H292 H 0.30572 0.38931 0.58273 0.0
H293 H 0.29955 0.38536 0.64368 0.0
H294 H 0.24236 0.30599 0.66758 0.0
H295 H 0.19087 0.2301 0.63047 0.0
C296 C 0.15958 0.16824 0.57621 0.0
C297 C 0.18941 0.21854 0.56056 0.0
C298 C 0.21787 0.26378 0.58248 0.0
C299 C 0.24924 0.31067 0.56852 0.0
C300 C 0.27949 0.35362 0.59146 0.0
C301 C 0.27678 0.35173 0.62672 0.0
C302 C 0.24463 0.30704 0.64016 0.0
C303 C 0.21549 0.26352 0.61849 0.0
H304 H 0.35278 0.70651 0.45909 0.0
C305 C 0.34438 0.67487 0.47867 0.0
H306 H 0.28136 0.64786 0.51143 0.0
H307 H 0.1791 0.91506 0.49028 0.0
H308 H 0.23527 0.92224 0.54847 0.0
H309 H 0.29565 0.83845 0.57544 0.0
H310 H 0.30058 0.74691 0.54404 0.0
C311 C 0.29132 0.67808 0.49154 0.0
C312 C 0.24508 0.72365 0.47812 0.0
C313 C 0.24039 0.77583 0.49723 0.0
C314 C 0.20416 0.82361 0.48193 0.0
C315 C 0.20387 0.8766 0.50089 0.0
C316 C 0.23638 0.8815 0.53431 0.0
C317 C 0.27049 0.83437 0.54947 0.0
C318 C 0.27296 0.78215 0.53119 0.0
H319 H 0.07156 0.87583 0.46295 0.0
C320 C 0.08722 0.89257 0.43979 0.0
H321 H 0.15514 0.88631 0.40729 0.0
H322 H 0.23763 0.6267 0.43645 0.0
H323 H 0.17862 0.61751 0.37884 0.0
H324 H 0.11495 0.69968 0.35236 0.0
H325 H 0.10984 0.79147 0.38328 0.0
C326 C 0.13795 0.86933 0.4299 0.0
C327 C 0.17108 0.81818 0.44784 0.0
C328 C 0.1732 0.76465 0.42952 0.0
C329 C 0.21004 0.71733 0.44471 0.0
C330 C 0.21114 0.66433 0.42586 0.0
C331 C 0.17724 0.65836 0.39286 0.0
C332 C 0.14138 0.70461 0.37797 0.0
C333 C 0.13906 0.75716 0.39597 0.0
H334 H 0.08178 0.0089 0.15397 0.0
C335 C 0.03462 0.01387 0.14091 0.0
H336 H 0.94097 0.01738 0.14732 0.0
H337 H 0.98654 0.88343 0.29097 0.0
H338 H 0.93496 0.80778 0.25335 0.0
H339 H 0.91342 0.8222 0.19015 0.0
H340 H 0.94295 0.91252 0.16418 0.0
C341 C 0.98863 0.01495 0.15987 0.0
C342 C 0.00122 0.00706 0.19817 0.0
C343 C 0.9836 0.95405 0.21299 0.0
C344 C 0.99671 0.94545 0.24942 0.0
C345 C 0.9783 0.8921 0.26345 0.0
C346 C 0.94856 0.84831 0.24217 0.0
C347 C 0.93637 0.85645 0.20659 0.0
C348 C 0.95354 0.90858 0.19203 0.0
H349 H 0.98009 0.04482 0.32054 0.0
C350 C 0.01207 0.01069 0.33126 0.0
H351 H 0.07359 0.94553 0.3182 0.0
H352 H 0.03661 0.11585 0.17862 0.0
H353 H 0.09154 0.19008 0.21591 0.0
H354 H 0.11952 0.17293 0.27861 0.0
H355 H 0.092 0.08184 0.30448 0.0
C356 C 0.04122 0.98009 0.30919 0.0
C357 C 0.0274 0.98989 0.27105 0.0
C358 C 0.04547 0.04278 0.2562 0.0
C359 C 0.03142 0.05177 0.21981 0.0
C360 C 0.04783 0.10592 0.20589 0.0
C361 C 0.0791 0.14906 0.22703 0.0
C362 C 0.09469 0.13948 0.26235 0.0
C363 C 0.07827 0.08706 0.2769 0.0
H364 H 0.00059 0.0829 0.8646 0.0
C365 C 0.98479 0.04094 0.87328 0.0
H366 H 0.95008 0.957 0.85782 0.0
H367 H 0.92199 0.13423 0.71759 0.0
H368 H 0.85478 0.19409 0.74684 0.0
H369 H 0.83517 0.16811 0.80532 0.0
H370 H 0.88402 0.08329 0.83528 0.0
C371 C 0.96505 -0.00045 0.84963 0.0
C372 C 0.96763 0.00964 0.8121 0.0
C373 C 0.93595 0.05771 0.79421 0.0
C374 C 0.94406 0.07055 0.75962 0.0
C375 C 0.91522 0.121 0.74327 0.0
C376 C 0.87681 0.15594 0.75984 0.0
C377 C 0.86605 0.14151 0.79283 0.0
C378 C 0.89498 0.09299 0.80989 0.0
H379 H 0.89015 0.02109 0.69029 0.0
C380 C 0.93273 0.03278 0.68096 0.0
H381 H 0.02773 0.04936 0.69649 0.0
H382 H 0.03184 0.91177 0.83768 0.0
H383 H 0.09022 0.84658 0.80619 0.0
H384 H 0.1004 0.86648 0.74548 0.0
H385 H 0.05123 0.95117 0.71554 0.0
C386 C 0.98319 0.04218 0.70451 0.0
C387 C 0.98037 0.03309 0.74202 0.0
C388 C 0.01001 0.98375 0.75938 0.0
C389 C 0.00378 0.97208 0.79443 0.0
C390 C 0.03422 0.92253 0.81101 0.0
C391 C 0.06827 0.88483 0.79332 0.0
C392 C 0.07385 0.89593 0.75908 0.0
C393 C 0.04533 0.94477 0.74221 0.0
H394 H 0.57339 0.49547 0.64675 0.0
C395 C 0.52755 0.50414 0.6327 0.0
H396 H 0.43419 0.51957 0.63714 0.0
H397 H 0.46999 0.40087 0.78645 0.0
H398 H 0.408 0.32697 0.7523 0.0
H399 H 0.38359 0.33595 0.68887 0.0
H400 H 0.4205 0.41927 0.65911 0.0
C401 C 0.48087 0.51302 0.6505 0.0
C402 C 0.49155 0.51019 0.68894 0.0
C403 C 0.46845 0.4619 0.7059 0.0
C404 C 0.48261 0.45662 0.74249 0.0
C405 C 0.46021 0.40725 0.75874 0.0
C406 C 0.4247 0.36445 0.73945 0.0
C407 C 0.4109 0.36955 0.70372 0.0
C408 C 0.4324 0.41758 0.68698 0.0
H409 H 0.45401 0.52929 0.81061 0.0
C410 C 0.49799 0.50996 0.82157 0.0
H411 H 0.58269 0.47755 0.80976 0.0
H412 H 0.53663 0.612 0.66496 0.0
H413 H 0.59877 0.68566 0.69916 0.0
H414 H 0.62564 0.675 0.76245 0.0
H415 H 0.59014 0.59073 0.79193 0.0
C416 C 0.53665 0.49319 0.8 0.0
C417 C 0.51953 0.4998 0.76197 0.0
C418 C 0.54143 0.54877 0.74512 0.0
C419 C 0.52686 0.55436 0.70859 0.0
C420 C 0.54773 0.6047 0.69254 0.0
C421 C 0.5831 0.64754 0.71189 0.0
C422 C 0.59816 0.64157 0.74752 0.0
C423 C 0.57758 0.59295 0.76411 0.0
H424 H 0.52922 0.55821 0.36025 0.0
C425 C 0.51218 0.5169 0.36912 0.0
H426 H 0.48706 0.42944 0.35553 0.0
H427 H 0.49361 0.58199 0.20848 0.0
H428 H 0.41044 0.6403 0.22493 0.0
H429 H 0.373 0.62237 0.28024 0.0
H430 H 0.41936 0.54712 0.31971 0.0
C431 C 0.50184 0.47178 0.34691 0.0
C432 C 0.51752 0.47704 0.31134 0.0
C433 C 0.48772 0.51936 0.28784 0.0
C434 C 0.50685 0.52745 0.25511 0.0
C435 C 0.47896 0.57237 0.23302 0.0
C436 C 0.43147 0.60639 0.24223 0.0
C437 C 0.41059 0.59647 0.27343 0.0
C438 C 0.43807 0.55346 0.29602 0.0
H439 H 0.47681 0.46111 0.18998 0.0
C440 C 0.52125 0.47361 0.18315 0.0
H441 H 0.61178 0.50062 0.20376 0.0
H442 H 0.58439 0.3919 0.35006 0.0
H443 H 0.66292 0.32983 0.33193 0.0
H444 H 0.6925 0.34079 0.27407 0.0
H445 H 0.64349 0.41373 0.23384 0.0
C446 C 0.56533 0.49185 0.20862 0.0
C447 C 0.55293 0.49072 0.24497 0.0
C448 C 0.58233 0.44806 0.26826 0.0
C449 C 0.56474 0.44131 0.30152 0.0
C450 C 0.59522 0.39855 0.32432 0.0
C451 C 0.64063 0.3627 0.31432 0.0
C452 C 0.65722 0.36881 0.28171 0.0
C453 C 0.62863 0.41089 0.25886 0.0
loop_
_geom_bond_atom_site_label_1
_geom_bond_atom_site_label_2
_geom_bond_distance
_geom_bond_site_symmetry_2
_ccdc_geom_bond_type
O0 Zn1 1.953 . S
O0 C16 1.225 1_565 S
Zn1 O0 1.953 . S
Zn1 O2 1.949 1_565 S
Zn1 O8 1.919 . S
Zn1 O13 1.924 1_565 S
O2 Zn1 1.949 1_545 S
O2 Zn3 1.923 1_444 S
O2 Zn4 1.950 1_455 S
O2 Zn5 1.945 1_554 S
Zn3 O2 1.923 1_666 S
Zn3 O6 1.933 . S
Zn3 O9 1.941 1_655 S
Zn3 O10 1.965 . S
Zn4 O2 1.950 1_655 S
Zn4 O11 1.938 1_545 S
Zn4 O12 1.906 . S
Zn4 O22 1.953 . S
Zn5 O2 1.945 1_556 S
Zn5 O7 1.932 . S
Zn5 O14 1.977 1_455 S
Zn5 O15 1.910 . S
O6 Zn3 1.933 . S
O6 C17 1.226 1_565 S
O7 Zn5 1.932 . S
O7 C17 1.307 1_455 S
O8 Zn1 1.919 . S
O8 C19 1.253 1_554 S
O9 Zn3 1.941 1_455 S
O9 C19 1.283 . S
O10 Zn3 1.965 . S
O10 C18 1.303 1_556 S
O11 Zn4 1.938 1_565 S
O11 C18 1.247 . S
O12 Zn4 1.906 . S
O12 C20 1.304 1_554 S
O13 Zn1 1.924 1_545 S
O13 C21 1.311 . S
O14 Zn5 1.977 1_655 S
O14 C20 1.272 . S
O15 Zn5 1.910 . S
O15 C21 1.231 1_556 S
C16 O0 1.225 1_545 S
C16 O22 1.298 1_455 S
C17 O6 1.226 1_545 S
C17 O7 1.307 1_655 S
C18 O10 1.303 1_554 S
C18 O11 1.247 . S
C19 O8 1.253 1_556 S
C19 O9 1.283 . S
C20 O12 1.304 1_556 S
C20 O14 1.272 . S
C21 O13 1.311 . S
C21 O15 1.231 1_554 S
O22 Zn4 1.953 . S
O22 C16 1.298 1_655 S
O23 Zn24 1.953 . S
O23 C39 1.225 . S
Zn24 O23 1.953 . S
Zn24 O25 1.949 . S
Zn24 O31 1.919 . S
Zn24 O36 1.924 . S
O25 Zn24 1.949 . S
O25 Zn26 1.923 . S
O25 Zn27 1.950 . S
O25 Zn28 1.945 . S
Zn26 O25 1.923 . S
Zn26 O29 1.933 . S
Zn26 O32 1.941 . S
Zn26 O33 1.965 . S
Zn27 O25 1.950 . S
Zn27 O34 1.938 . S
Zn27 O35 1.906 . S
Zn27 O45 1.953 . S
Zn28 O25 1.945 . S
Zn28 O30 1.932 . S
Zn28 O37 1.977 . S
Zn28 O38 1.910 . S
O29 Zn26 1.933 . S
O29 C40 1.226 . S
O30 Zn28 1.932 . S
O30 C40 1.307 . S
O31 Zn24 1.919 . S
O31 C42 1.253 . S
O32 Zn26 1.941 . S
O32 C42 1.283 . S
O33 Zn26 1.965 . S
O33 C41 1.303 . S
O34 Zn27 1.938 . S
O34 C41 1.247 . S
O35 Zn27 1.906 . S
O35 C43 1.304 . S
O36 Zn24 1.924 . S
O36 C44 1.311 . S
O37 Zn28 1.977 . S
O37 C43 1.272 . S
O38 Zn28 1.910 . S
O38 C44 1.231 . S
C39 O23 1.225 . S
C39 O45 1.298 . S
C40 O29 1.226 . S
C40 O30 1.307 . S
C41 O33 1.303 . S
C41 O34 1.247 . S
C42 O31 1.253 . S
C42 O32 1.283 . S
C43 O35 1.304 . S
C43 O37 1.272 . S
C44 O36 1.311 . S
C44 O38 1.231 . S
O45 Zn27 1.953 . S
O45 C39 1.298 . S
H46 C51 0.930 . S
H47 C54 0.930 . S
H48 C56 0.930 . S
H49 C50 1.016 . S
C50 H49 1.016 . S
C50 N57 1.286 . S
C51 H46 0.930 . S
C51 C52 1.397 . S
C51 C53 1.361 1_465 S
C52 C51 1.397 . S
C52 C56 1.390 . S
C53 C51 1.361 1_645 S
C53 C54 1.393 . S
C53 N57 1.413 . S
C54 H47 0.930 . S
C54 C53 1.393 . S
C54 C55 1.399 1_655 S
C55 C54 1.399 1_455 S
C55 C56 1.381 1_545 S
C56 H48 0.930 . S
C56 C52 1.390 . S
C56 C55 1.381 1_565 S
N57 C50 1.286 . S
N57 C53 1.413 . S
H58 C63 0.930 . S
H59 C66 0.930 . S
H60 C68 0.930 . S
H61 C62 1.016 . S
C62 H61 1.016 . S
C62 N69 1.286 . S
C63 H58 0.930 . S
C63 C64 1.397 . S
C63 C65 1.361 1_665 S
C64 C63 1.397 . S
C64 C68 1.390 . S
C65 C63 1.361 1_445 S
C65 C66 1.393 . S
C65 N69 1.413 . S
C66 H59 0.930 . S
C66 C65 1.393 . S
C66 C67 1.399 1_455 S
C67 C66 1.399 1_655 S
C67 C68 1.381 1_545 S
C68 H60 0.930 . S
C68 C64 1.390 . S
C68 C67 1.381 1_565 S
N69 C62 1.286 . S
N69 C65 1.413 . S
H70 C75 0.930 . S
H71 C78 0.930 . S
H72 C80 0.930 . S
H73 C74 1.016 . S
C74 H73 1.016 . S
C74 N81 1.286 . S
C75 H70 0.930 . S
C75 C76 1.397 . S
C75 C77 1.361 . S
C76 C75 1.397 . S
C76 C80 1.390 . S
C77 C75 1.361 . S
C77 C78 1.393 . S
C77 N81 1.413 . S
C78 H71 0.930 . S
C78 C77 1.393 . S
C78 C79 1.399 . S
C79 C78 1.399 . S
C79 C80 1.381 . S
C80 H72 0.930 . S
C80 C76 1.390 . S
C80 C79 1.381 . S
N81 C74 1.286 . S
N81 C77 1.413 . S
H82 C87 0.930 . S
H83 C90 0.930 . S
H84 C92 0.930 . S
H85 C86 1.016 . S
C86 H85 1.016 . S
C86 N93 1.286 . S
C87 H82 0.930 . S
C87 C88 1.397 . S
C87 C89 1.361 . S
C88 C87 1.397 . S
C88 C92 1.390 . S
C89 C87 1.361 . S
C89 C90 1.393 . S
C89 N93 1.413 . S
C90 H83 0.930 . S
C90 C89 1.393 . S
C90 C91 1.399 . S
C91 C90 1.399 . S
C91 C92 1.381 . S
C92 H84 0.930 . S
C92 C88 1.390 . S
C92 C91 1.381 . S
N93 C86 1.286 . S
N93 C89 1.413 . S
H94 C95 0.951 . S
C95 H94 0.951 . S
C95 C101 1.265 . S
H96 C101 0.950 . S
H97 C105 0.949 . S
H98 C106 0.950 . S
H99 C107 0.951 . S
H100 C108 0.951 1_556 S
C101 C95 1.265 . S
C101 H96 0.950 . S
C101 C102 1.478 . S
C102 C101 1.478 . S
C102 C103 1.397 . S
C102 C119 1.394 . S
C103 C102 1.397 . S
C103 C104 1.438 . S
C103 C108 1.429 . S
C104 C103 1.438 . S
C104 C105 1.428 . S
C104 C117 1.394 . S
C105 H97 0.949 . S
C105 C104 1.428 . S
C105 C106 1.345 1_554 S
C106 H98 0.950 . S
C106 C105 1.345 1_556 S
C106 C107 1.424 . S
C107 H99 0.951 . S
C107 C106 1.424 . S
C107 C108 1.347 1_556 S
C108 H100 0.951 1_554 S
C108 C103 1.429 . S
C108 C107 1.347 1_554 S
H109 C110 0.951 . S
C110 H109 0.951 . S
C110 C116 1.265 . S
H111 C116 0.950 . S
H112 C120 0.949 . S
H113 C121 0.950 . S
H114 C122 0.951 . S
H115 C123 0.951 . S
C116 C110 1.265 . S
C116 H111 0.950 . S
C116 C117 1.478 . S
C117 C104 1.394 . S
C117 C116 1.478 . S
C117 C118 1.397 . S
C118 C117 1.397 . S
C118 C119 1.438 . S
C118 C123 1.429 . S
C119 C102 1.394 . S
C119 C118 1.438 . S
C119 C120 1.428 . S
C120 H112 0.949 . S
C120 C119 1.428 . S
C120 C121 1.345 . S
C121 H113 0.950 . S
C121 C120 1.345 . S
C121 C122 1.424 . S
C122 H114 0.951 . S
C122 C121 1.424 . S
C122 C123 1.347 . S
C123 H115 0.951 . S
C123 C118 1.429 . S
C123 C122 1.347 . S
H124 C125 0.951 . S
C125 H124 0.951 . S
C125 C131 1.265 . S
H126 C131 0.950 . S
H127 C135 0.949 . S
H128 C136 0.950 . S
H129 C137 0.951 . S
H130 C138 0.951 . S
C131 C125 1.265 . S
C131 H126 0.950 . S
C131 C132 1.478 . S
C132 C131 1.478 . S
C132 C133 1.397 . S
C132 C149 1.398 . S
C133 C132 1.397 . S
C133 C134 1.438 . S
C133 C138 1.429 . S
C134 C133 1.438 . S
C134 C135 1.428 . S
C134 C147 1.394 . S
C135 H127 0.949 . S
C135 C134 1.428 . S
C135 C136 1.345 . S
C136 H128 0.950 . S
C136 C135 1.345 . S
C136 C137 1.424 . S
C137 H129 0.951 . S
C137 C136 1.424 . S
C137 C138 1.347 . S
C138 H130 0.951 . S
C138 C133 1.429 . S
C138 C137 1.347 . S
H139 C140 0.951 . S
C140 H139 0.951 . S
C140 C146 1.265 . S
H141 C146 0.950 . S
H142 C150 0.949 . S
H143 C151 0.950 . S
H144 C152 0.951 . S
H145 C153 0.951 . S
C146 C140 1.265 . S
C146 H141 0.950 . S
C146 C147 1.478 . S
C147 C134 1.394 . S
C147 C146 1.478 . S
C147 C148 1.397 . S
C148 C147 1.397 . S
C148 C149 1.439 . S
C148 C153 1.429 1_556 S
C149 C132 1.398 . S
C149 C148 1.439 . S
C149 C150 1.422 1_556 S
C150 H142 0.949 . S
C150 C149 1.422 1_554 S
C150 C151 1.345 . S
C151 H143 0.950 . S
C151 C150 1.345 . S
C151 C152 1.424 . S
C152 H144 0.951 . S
C152 C151 1.424 . S
C152 C153 1.347 . S
C153 H145 0.951 . S
C153 C148 1.429 1_554 S
C153 C152 1.347 . S
H154 C155 0.951 . S
C155 H154 0.951 . S
C155 C161 1.265 . S
H156 C161 0.950 . S
H157 C165 0.949 . S
H158 C166 0.950 . S
H159 C167 0.951 . S
H160 C168 0.951 . S
C161 C155 1.265 . S
C161 H156 0.950 . S
C161 C162 1.478 . S
C162 C161 1.478 . S
C162 C163 1.397 . S
C162 C179 1.394 . S
C163 C162 1.397 . S
C163 C164 1.438 . S
C163 C168 1.429 . S
C164 C163 1.438 . S
C164 C165 1.428 . S
C164 C177 1.394 . S
C165 H157 0.949 . S
C165 C164 1.428 . S
C165 C166 1.345 . S
C166 H158 0.950 . S
C166 C165 1.345 . S
C166 C167 1.424 . S
C167 H159 0.951 . S
C167 C166 1.424 . S
C167 C168 1.347 . S
C168 H160 0.951 . S
C168 C163 1.429 . S
C168 C167 1.347 . S
H169 C170 0.951 . S
C170 H169 0.951 . S
C170 C176 1.265 . S
H171 C176 0.950 . S
H172 C180 0.949 . S
H173 C181 0.950 . S
H174 C182 0.951 . S
H175 C183 0.951 . S
C176 C170 1.265 . S
C176 H171 0.950 . S
C176 C177 1.478 . S
C177 C164 1.394 . S
C177 C176 1.478 . S
C177 C178 1.397 . S
C178 C177 1.397 . S
C178 C179 1.438 . S
C178 C183 1.429 1_554 S
C179 C162 1.394 . S
C179 C178 1.438 . S
C179 C180 1.428 1_554 S
C180 H172 0.949 . S
C180 C179 1.428 1_556 S
C180 C181 1.345 . S
C181 H173 0.950 . S
C181 C180 1.345 . S
C181 C182 1.424 . S
C182 H174 0.951 . S
C182 C181 1.424 . S
C182 C183 1.347 . S
C183 H175 0.951 . S
C183 C178 1.429 1_556 S
C183 C182 1.347 . S
H184 C185 0.951 . S
C185 H184 0.951 . S
C185 C191 1.265 . S
H186 C191 0.950 . S
H187 C195 0.949 . S
H188 C196 0.950 . S
H189 C197 0.951 . S
H190 C198 0.951 . S
C191 C185 1.265 . S
C191 H186 0.950 . S
C191 C192 1.478 . S
C192 C191 1.478 . S
C192 C193 1.397 . S
C192 C209 1.394 . S
C193 C192 1.397 . S
C193 C194 1.438 . S
C193 C198 1.429 . S
C194 C193 1.438 . S
C194 C195 1.428 . S
C194 C207 1.394 . S
C195 H187 0.949 . S
C195 C194 1.428 . S
C195 C196 1.345 . S
C196 H188 0.950 . S
C196 C195 1.345 . S
C196 C197 1.424 . S
C197 H189 0.951 . S
C197 C196 1.424 . S
C197 C198 1.347 . S
C198 H190 0.951 . S
C198 C193 1.429 . S
C198 C197 1.347 . S
H199 C200 0.951 . S
C200 H199 0.951 . S
C200 C206 1.265 . S
H201 C206 0.950 . S
H202 C210 0.949 . S
H203 C211 0.950 . S
H204 C212 0.951 . S
H205 C213 0.951 . S
C206 C200 1.265 . S
C206 H201 0.950 . S
C206 C207 1.478 . S
C207 C194 1.394 . S
C207 C206 1.478 . S
C207 C208 1.397 . S
C208 C207 1.397 . S
C208 C209 1.438 . S
C208 C213 1.429 . S
C209 C192 1.394 . S
C209 C208 1.438 . S
C209 C210 1.428 1_556 S
C210 H202 0.949 . S
C210 C209 1.428 1_554 S
C210 C211 1.345 . S
C211 H203 0.950 . S
C211 C210 1.345 . S
C211 C212 1.424 . S
C212 H204 0.951 . S
C212 C211 1.424 . S
C212 C213 1.347 1_554 S
C213 H205 0.951 . S
C213 C208 1.429 . S
C213 C212 1.347 1_556 S
H214 C215 0.951 . S
C215 H214 0.951 . S
C215 C221 1.265 . S
H216 C221 0.950 . S
H217 C225 0.949 . S
H218 C226 0.950 . S
H219 C227 0.951 . S
H220 C228 0.951 . S
C221 C215 1.265 . S
C221 H216 0.950 . S
C221 C222 1.478 . S
C222 C221 1.478 . S
C222 C223 1.397 . S
C222 C239 1.394 . S
C223 C222 1.397 . S
C223 C224 1.438 . S
C223 C228 1.429 . S
C224 C223 1.438 . S
C224 C225 1.428 . S
C224 C237 1.394 . S
C225 H217 0.949 . S
C225 C224 1.428 . S
C225 C226 1.345 . S
C226 H218 0.950 . S
C226 C225 1.345 . S
C226 C227 1.424 . S
C227 H219 0.951 . S
C227 C226 1.424 . S
C227 C228 1.347 . S
C228 H220 0.951 . S
C228 C223 1.429 . S
C228 C227 1.347 . S
H229 C230 0.951 . S
C230 H229 0.951 . S
C230 C236 1.265 . S
H231 C236 0.950 . S
H232 C240 0.949 . S
H233 C241 0.950 . S
H234 C242 0.951 . S
H235 C243 0.951 . S
C236 C230 1.265 . S
C236 H231 0.950 . S
C236 C237 1.478 . S
C237 C224 1.394 . S
C237 C236 1.478 . S
C237 C238 1.397 . S
C238 C237 1.397 . S
C238 C239 1.438 . S
C238 C243 1.429 . S
C239 C222 1.394 . S
C239 C238 1.438 . S
C239 C240 1.428 . S
C240 H232 0.949 . S
C240 C239 1.428 . S
C240 C241 1.345 . S
C241 H233 0.950 . S
C241 C240 1.345 . S
C241 C242 1.424 . S
C242 H234 0.951 . S
C242 C241 1.424 . S
C242 C243 1.347 . S
C243 H235 0.951 . S
C243 C238 1.429 . S
C243 C242 1.347 . S
H244 C245 0.951 . S
C245 H244 0.951 . S
C245 C251 1.265 . S
H246 C251 0.950 . S
H247 C255 0.949 . S
H248 C256 0.950 . S
H249 C257 0.951 . S
H250 C258 0.951 . S
C251 C245 1.265 . S
C251 H246 0.950 . S
C251 C252 1.478 . S
C252 C251 1.478 . S
C252 C253 1.397 . S
C252 C269 1.394 . S
C253 C252 1.397 . S
C253 C254 1.438 . S
C253 C258 1.429 . S
C254 C253 1.438 . S
C254 C255 1.428 . S
C254 C267 1.394 . S
C255 H247 0.949 . S
C255 C254 1.428 . S
C255 C256 1.345 . S
C256 H248 0.950 . S
C256 C255 1.345 . S
C256 C257 1.424 . S
C257 H249 0.951 . S
C257 C256 1.424 . S
C257 C258 1.347 . S
C258 H250 0.951 . S
C258 C253 1.429 . S
C258 C257 1.347 . S
H259 C260 0.951 . S
C260 H259 0.951 . S
C260 C266 1.265 . S
H261 C266 0.950 . S
H262 C270 0.949 . S
H263 C271 0.950 . S
H264 C272 0.951 . S
H265 C273 0.951 . S
C266 C260 1.265 . S
C266 H261 0.950 . S
C266 C267 1.478 . S
C267 C254 1.394 . S
C267 C266 1.478 . S
C267 C268 1.397 . S
C268 C267 1.397 . S
C268 C269 1.438 . S
C268 C273 1.429 . S
C269 C252 1.394 . S
C269 C268 1.438 . S
C269 C270 1.428 . S
C270 H262 0.949 . S
C270 C269 1.428 . S
C270 C271 1.345 . S
C271 H263 0.950 . S
C271 C270 1.345 . S
C271 C272 1.424 . S
C272 H264 0.951 . S
C272 C271 1.424 . S
C272 C273 1.347 . S
C273 H265 0.951 . S
C273 C268 1.429 . S
C273 C272 1.347 . S
H274 C275 0.951 . S
C275 H274 0.951 . S
C275 C281 1.265 . S
H276 C281 0.950 . S
H277 C285 0.949 . S
H278 C286 0.950 . S
H279 C287 0.951 . S
H280 C288 0.951 . S
C281 C275 1.265 . S
C281 H276 0.950 . S
C281 C282 1.478 . S
C282 C281 1.478 . S
C282 C283 1.397 . S
C282 C299 1.394 . S
C283 C282 1.397 . S
C283 C284 1.438 . S
C283 C288 1.429 . S
C284 C283 1.438 . S
C284 C285 1.428 . S
C284 C297 1.394 . S
C285 H277 0.949 . S
C285 C284 1.428 . S
C285 C286 1.345 . S
C286 H278 0.950 . S
C286 C285 1.345 . S
C286 C287 1.424 . S
C287 H279 0.951 . S
C287 C286 1.424 . S
C287 C288 1.347 . S
C288 H280 0.951 . S
C288 C283 1.429 . S
C288 C287 1.347 . S
H289 C290 0.951 . S
C290 H289 0.951 . S
C290 C296 1.265 . S
H291 C296 0.950 . S
H292 C300 0.949 . S
H293 C301 0.950 . S
H294 C302 0.951 . S
H295 C303 0.951 . S
C296 C290 1.265 . S
C296 H291 0.950 . S
C296 C297 1.478 . S
C297 C284 1.394 . S
C297 C296 1.478 . S
C297 C298 1.397 . S
C298 C297 1.397 . S
C298 C299 1.438 . S
C298 C303 1.429 . S
C299 C282 1.394 . S
C299 C298 1.438 . S
C299 C300 1.428 . S
C300 H292 0.949 . S
C300 C299 1.428 . S
C300 C301 1.345 . S
C301 H293 0.950 . S
C301 C300 1.345 . S
C301 C302 1.424 . S
C302 H294 0.951 . S
C302 C301 1.424 . S
C302 C303 1.347 . S
C303 H295 0.951 . S
C303 C298 1.429 . S
C303 C302 1.347 . S
H304 C305 0.951 . S
C305 H304 0.951 . S
C305 C311 1.265 . S
H306 C311 0.950 . S
H307 C315 0.949 . S
H308 C316 0.950 . S
H309 C317 0.951 . S
H310 C318 0.951 . S
C311 C305 1.265 . S
C311 H306 0.950 . S
C311 C312 1.478 . S
C312 C311 1.478 . S
C312 C313 1.397 . S
C312 C329 1.394 . S
C313 C312 1.397 . S
C313 C314 1.438 . S
C313 C318 1.429 . S
C314 C313 1.438 . S
C314 C315 1.428 . S
C314 C327 1.394 . S
C315 H307 0.949 . S
C315 C314 1.428 . S
C315 C316 1.345 . S
C316 H308 0.950 . S
C316 C315 1.345 . S
C316 C317 1.424 . S
C317 H309 0.951 . S
C317 C316 1.424 . S
C317 C318 1.347 . S
C318 H310 0.951 . S
C318 C313 1.429 . S
C318 C317 1.347 . S
H319 C320 0.951 . S
C320 H319 0.951 . S
C320 C326 1.265 . S
H321 C326 0.950 . S
H322 C330 0.949 . S
H323 C331 0.950 . S
H324 C332 0.951 . S
H325 C333 0.951 . S
C326 C320 1.265 . S
C326 H321 0.950 . S
C326 C327 1.478 . S
C327 C314 1.394 . S
C327 C326 1.478 . S
C327 C328 1.397 . S
C328 C327 1.397 . S
C328 C329 1.438 . S
C328 C333 1.429 . S
C329 C312 1.394 . S
C329 C328 1.438 . S
C329 C330 1.428 . S
C330 H322 0.949 . S
C330 C329 1.428 . S
C330 C331 1.345 . S
C331 H323 0.950 . S
C331 C330 1.345 . S
C331 C332 1.424 . S
C332 H324 0.951 . S
C332 C331 1.424 . S
C332 C333 1.347 . S
C333 H325 0.951 . S
C333 C328 1.429 . S
C333 C332 1.347 . S
H334 C335 0.951 . S
C335 H334 0.951 . S
C335 C341 1.265 1_455 S
H336 C341 0.950 1_565 S
H337 C345 0.950 . S
H338 C346 0.950 . S
H339 C347 0.951 . S
H340 C348 0.951 . S
C341 C335 1.265 1_655 S
C341 H336 0.950 1_545 S
C341 C342 1.478 1_655 S
C342 C341 1.478 1_455 S
C342 C343 1.397 1_445 S
C342 C359 1.394 . S
C343 C342 1.397 1_665 S
C343 C344 1.438 1_655 S
C343 C348 1.429 . S
C344 C343 1.438 1_455 S
C344 C345 1.432 . S
C344 C357 1.394 1_565 S
C345 H337 0.950 . S
C345 C344 1.432 . S
C345 C346 1.340 1_455 S
C346 H338 0.950 . S
C346 C345 1.340 1_655 S
C346 C347 1.424 . S
C347 H339 0.951 . S
C347 C346 1.424 . S
C347 C348 1.347 . S
C348 H340 0.951 . S
C348 C343 1.429 . S
C348 C347 1.347 . S
H349 C350 0.951 1_665 S
C350 H349 0.951 1_445 S
C350 C356 1.265 . S
H351 C356 0.950 . S
H352 C360 0.949 . S
H353 C361 0.950 . S
H354 C362 0.951 . S
H355 C363 0.951 . S
C356 C350 1.265 . S
C356 H351 0.950 . S
C356 C357 1.478 . S
C357 C344 1.394 1_545 S
C357 C356 1.478 . S
C357 C358 1.397 . S
C358 C357 1.397 . S
C358 C359 1.438 . S
C358 C363 1.429 . S
C359 C342 1.394 . S
C359 C358 1.438 . S
C359 C360 1.428 . S
C360 H352 0.949 . S
C360 C359 1.428 . S
C360 C361 1.345 . S
C361 H353 0.950 . S
C361 C360 1.345 . S
C361 C362 1.424 . S
C362 H354 0.951 . S
C362 C361 1.424 . S
C362 C363 1.347 . S
C363 H355 0.951 . S
C363 C358 1.429 . S
C363 C362 1.347 . S
H364 C365 0.951 . S
C365 H364 0.951 . S
C365 C371 1.265 1_455 S
H366 C371 0.950 . S
H367 C375 0.949 . S
H368 C376 0.950 . S
H369 C377 0.951 . S
H370 C378 0.951 . S
C371 C365 1.265 1_655 S
C371 H366 0.950 . S
C371 C372 1.478 . S
C372 C371 1.478 . S
C372 C373 1.397 . S
C372 C389 1.394 1_645 S
C373 C372 1.397 . S
C373 C374 1.438 . S
C373 C378 1.429 . S
C374 C373 1.438 . S
C374 C375 1.428 . S
C374 C387 1.394 1_655 S
C375 H367 0.949 . S
C375 C374 1.428 . S
C375 C376 1.345 . S
C376 H368 0.950 . S
C376 C375 1.345 . S
C376 C377 1.424 . S
C377 H369 0.951 . S
C377 C376 1.424 . S
C377 C378 1.347 . S
C378 H370 0.951 . S
C378 C373 1.429 . S
C378 C377 1.347 . S
H379 C380 0.951 . S
C380 H379 0.951 . S
C380 C386 1.265 1_655 S
H381 C386 0.950 1_565 S
H382 C390 0.949 . S
H383 C391 0.950 . S
H384 C392 0.951 . S
H385 C393 0.951 . S
C386 C380 1.265 1_455 S
C386 H381 0.950 1_545 S
C386 C387 1.478 . S
C387 C374 1.394 1_455 S
C387 C386 1.478 . S
C387 C388 1.397 1_545 S
C388 C387 1.397 1_565 S
C388 C389 1.438 . S
C388 C393 1.429 . S
C389 C372 1.394 1_465 S
C389 C388 1.438 . S
C389 C390 1.428 . S
C390 H382 0.949 . S
C390 C389 1.428 . S
C390 C391 1.345 . S
C391 H383 0.950 . S
C391 C390 1.345 . S
C391 C392 1.424 . S
C392 H384 0.951 . S
C392 C391 1.424 . S
C392 C393 1.347 . S
C393 H385 0.951 . S
C393 C388 1.429 . S
C393 C392 1.347 . S
H394 C395 0.951 . S
C395 H394 0.951 . S
C395 C401 1.265 . S
H396 C401 0.950 . S
H397 C405 0.949 . S
H398 C406 0.950 . S
H399 C407 0.951 . S
H400 C408 0.951 . S
C401 C395 1.265 . S
C401 H396 0.950 . S
C401 C402 1.478 . S
C402 C401 1.478 . S
C402 C403 1.397 . S
C402 C419 1.394 . S
C403 C402 1.397 . S
C403 C404 1.438 . S
C403 C408 1.429 . S
C404 C403 1.438 . S
C404 C405 1.428 . S
C404 C417 1.394 . S
C405 H397 0.949 . S
C405 C404 1.428 . S
C405 C406 1.345 . S
C406 H398 0.950 . S
C406 C405 1.345 . S
C406 C407 1.424 . S
C407 H399 0.951 . S
C407 C406 1.424 . S
C407 C408 1.347 . S
C408 H400 0.951 . S
C408 C403 1.429 . S
C408 C407 1.347 . S
H409 C410 0.951 . S
C410 H409 0.951 . S
C410 C416 1.265 . S
H411 C416 0.950 . S
H412 C420 0.949 . S
H413 C421 0.950 . S
H414 C422 0.951 . S
H415 C423 0.951 . S
C416 C410 1.265 . S
C416 H411 0.950 . S
C416 C417 1.478 . S
C417 C404 1.394 . S
C417 C416 1.478 . S
C417 C418 1.397 . S
C418 C417 1.397 . S
C418 C419 1.438 . S
C418 C423 1.429 . S
C419 C402 1.394 . S
C419 C418 1.438 . S
C419 C420 1.428 . S
C420 H412 0.949 . S
C420 C419 1.428 . S
C420 C421 1.345 . S
C421 H413 0.950 . S
C421 C420 1.345 . S
C421 C422 1.424 . S
C422 H414 0.951 . S
C422 C421 1.424 . S
C422 C423 1.347 . S
C423 H415 0.951 . S
C423 C418 1.429 . S
C423 C422 1.347 . S
H424 C425 0.951 . S
C425 H424 0.951 . S
C425 C431 1.265 . S
H426 C431 0.950 . S
H427 C435 0.949 . S
H428 C436 0.950 . S
H429 C437 0.951 . S
H430 C438 0.951 . S
C431 C425 1.265 . S
C431 H426 0.950 . S
C431 C432 1.478 . S
C432 C431 1.478 . S
C432 C433 1.397 . S
C432 C449 1.394 . S
C433 C432 1.397 . S
C433 C434 1.438 . S
C433 C438 1.429 . S
C434 C433 1.438 . S
C434 C435 1.428 . S
C434 C447 1.394 . S
C435 H427 0.949 . S
C435 C434 1.428 . S
C435 C436 1.345 . S
C436 H428 0.950 . S
C436 C435 1.345 . S
C436 C437 1.424 . S
C437 H429 0.951 . S
C437 C436 1.424 . S
C437 C438 1.347 . S
C438 H430 0.951 . S
C438 C433 1.429 . S
C438 C437 1.347 . S
H439 C440 0.951 . S
C440 H439 0.951 . S
C440 C446 1.265 . S
H441 C446 0.950 . S
H442 C450 0.949 . S
H443 C451 0.950 . S
H444 C452 0.951 . S
H445 C453 0.951 . S
C446 C440 1.265 . S
C446 H441 0.950 . S
C446 C447 1.478 . S
C447 C434 1.394 . S
C447 C446 1.478 . S
C447 C448 1.397 . S
C448 C447 1.397 . S
C448 C449 1.438 . S
C448 C453 1.429 . S
C449 C432 1.394 . S
C449 C448 1.438 . S
C449 C450 1.428 . S
C450 H442 0.949 . S
C450 C449 1.428 . S
C450 C451 1.345 . S
C451 H443 0.950 . S
C451 C450 1.345 . S
C451 C452 1.424 . S
C452 H444 0.951 . S
C452 C451 1.424 . S
C452 C453 1.347 . S
C453 H445 0.951 . S
C453 C448 1.429 . S
C453 C452 1.347 . S
C110 C88 1.498 . S
C95 C21 1.513 . S
C125 C19 1.402 . S
C140 C74 1.369 . S
C155 C18 1.329 . S
C170 C86 1.350 . S
C185 C20 1.519 . S
C200 C76 1.514 . S
C215 C44 1.497 . S
C230 C64 1.514 . S
C245 C42 1.388 . S
C260 C50 1.379 . S
C290 C62 1.372 . S
C275 C41 1.393 . S
C320 C52 1.494 . S
C305 C43 1.477 . S
C335 C16 1.524 . S
C350 C55 1.522 . S
C365 C17 1.483 1_455 S
C380 C67 1.474 . S
C410 C79 1.523 . S
C395 C39 1.524 . S
C425 C40 1.483 . S
C440 C91 1.474 . S
