# Generated by pormake.
# Topology ptr, (4,4)-cn, num edge types: 1
# Building blocks:
#     Node 0, Type 0, BuildingBlock: UXUYUI_clean_sbu_0, # of connection points: 4
#     Node 1, Type 0, BuildingBlock: UXUYUI_clean_sbu_0, # of connection points: 4
#     Node 2, Type 0, BuildingBlock: UXUYUI_clean_sbu_0, # of connection points: 4
#     Node 3, Type 0, BuildingBlock: UXUYUI_clean_sbu_0, # of connection points: 4
#     Node 4, Type 0, BuildingBlock: UXUYUI_clean_sbu_0, # of connection points: 4
#     Node 5, Type 0, BuildingBlock: UXUYUI_clean_sbu_0, # of connection points: 4
#     Node 6, Type 0, BuildingBlock: UXUYUI_clean_sbu_0, # of connection points: 4
#     Node 7, Type 0, BuildingBlock: UXUYUI_clean_sbu_0, # of connection points: 4
#     Node 8, Type 0, BuildingBlock: UXUYUI_clean_sbu_0, # of connection points: 4
#     Node 9, Type 0, BuildingBlock: UXUYUI_clean_sbu_0, # of connection points: 4
#     Node 10, Type 0, BuildingBlock: UXUYUI_clean_sbu_0, # of connection points: 4
#     Node 11, Type 0, BuildingBlock: UXUYUI_clean_sbu_0, # of connection points: 4
#     Node 12, Type 0, BuildingBlock: UXUYUI_clean_sbu_0, # of connection points: 4
#     Node 13, Type 0, BuildingBlock: UXUYUI_clean_sbu_0, # of connection points: 4
#     Node 14, Type 0, BuildingBlock: UXUYUI_clean_sbu_0, # of connection points: 4
#     Node 15, Type 0, BuildingBlock: UXUYUI_clean_sbu_0, # of connection points: 4
#     Node 16, Type 0, BuildingBlock: UXUYUI_clean_sbu_0, # of connection points: 4
#     Node 17, Type 0, BuildingBlock: UXUYUI_clean_sbu_0, # of connection points: 4
#     Node 18, Type 1, BuildingBlock: KUFVIS_clean_linker_0, # of connection points: 4
#     Node 19, Type 1, BuildingBlock: KUFVIS_clean_linker_0, # of connection points: 4
#     Node 20, Type 1, BuildingBlock: KUFVIS_clean_linker_0, # of connection points: 4
#     Node 21, Type 1, BuildingBlock: KUFVIS_clean_linker_0, # of connection points: 4
#     Node 22, Type 1, BuildingBlock: KUFVIS_clean_linker_0, # of connection points: 4
#     Node 23, Type 1, BuildingBlock: KUFVIS_clean_linker_0, # of connection points: 4
#     Node 24, Type 1, BuildingBlock: KUFVIS_clean_linker_0, # of connection points: 4
#     Node 25, Type 1, BuildingBlock: KUFVIS_clean_linker_0, # of connection points: 4
#     Node 26, Type 1, BuildingBlock: KUFVIS_clean_linker_0, # of connection points: 4
#     Node 27, Type 1, BuildingBlock: KUFVIS_clean_linker_0, # of connection points: 4
#     Node 28, Type 1, BuildingBlock: KUFVIS_clean_linker_0, # of connection points: 4
#     Node 29, Type 1, BuildingBlock: KUFVIS_clean_linker_0, # of connection points: 4
#     Node 30, Type 1, BuildingBlock: KUFVIS_clean_linker_0, # of connection points: 4
#     Node 31, Type 1, BuildingBlock: KUFVIS_clean_linker_0, # of connection points: 4
#     Node 32, Type 1, BuildingBlock: KUFVIS_clean_linker_0, # of connection points: 4
#     Node 33, Type 1, BuildingBlock: KUFVIS_clean_linker_0, # of connection points: 4
#     Node 34, Type 1, BuildingBlock: KUFVIS_clean_linker_0, # of connection points: 4
#     Node 35, Type 1, BuildingBlock: KUFVIS_clean_linker_0, # of connection points: 4
#     Edge 36, Type (0, 1), BuildingBlock: AJUNOK_clean_linker_0, # of connection points: 2
#     Edge 37, Type (0, 1), BuildingBlock: AJUNOK_clean_linker_0, # of connection points: 2
#     Edge 38, Type (0, 1), BuildingBlock: AJUNOK_clean_linker_0, # of connection points: 2
#     Edge 39, Type (0, 1), BuildingBlock: AJUNOK_clean_linker_0, # of connection points: 2
#     Edge 40, Type (0, 1), BuildingBlock: AJUNOK_clean_linker_0, # of connection points: 2
#     Edge 41, Type (0, 1), BuildingBlock: AJUNOK_clean_linker_0, # of connection points: 2
#     Edge 42, Type (0, 1), BuildingBlock: AJUNOK_clean_linker_0, # of connection points: 2
#     Edge 43, Type (0, 1), BuildingBlock: AJUNOK_clean_linker_0, # of connection points: 2
#     Edge 44, Type (0, 1), BuildingBlock: AJUNOK_clean_linker_0, # of connection points: 2
#     Edge 45, Type (0, 1), BuildingBlock: AJUNOK_clean_linker_0, # of connection points: 2
#     Edge 46, Type (0, 1), BuildingBlock: AJUNOK_clean_linker_0, # of connection points: 2
#     Edge 47, Type (0, 1), BuildingBlock: AJUNOK_clean_linker_0, # of connection points: 2
#     Edge 48, Type (0, 1), BuildingBlock: AJUNOK_clean_linker_0, # of connection points: 2
#     Edge 49, Type (0, 1), BuildingBlock: AJUNOK_clean_linker_0, # of connection points: 2
#     Edge 50, Type (0, 1), BuildingBlock: AJUNOK_clean_linker_0, # of connection points: 2
#     Edge 51, Type (0, 1), BuildingBlock: AJUNOK_clean_linker_0, # of connection points: 2
#     Edge 52, Type (0, 1), BuildingBlock: AJUNOK_clean_linker_0, # of connection points: 2
#     Edge 53, Type (0, 1), BuildingBlock: AJUNOK_clean_linker_0, # of connection points: 2
#     Edge 54, Type (0, 1), BuildingBlock: AJUNOK_clean_linker_0, # of connection points: 2
#     Edge 55, Type (0, 1), BuildingBlock: AJUNOK_clean_linker_0, # of connection points: 2
#     Edge 56, Type (0, 1), BuildingBlock: AJUNOK_clean_linker_0, # of connection points: 2
#     Edge 57, Type (0, 1), BuildingBlock: AJUNOK_clean_linker_0, # of connection points: 2
#     Edge 58, Type (0, 1), BuildingBlock: AJUNOK_clean_linker_0, # of connection points: 2
#     Edge 59, Type (0, 1), BuildingBlock: AJUNOK_clean_linker_0, # of connection points: 2
#     Edge 60, Type (0, 1), BuildingBlock: AJUNOK_clean_linker_0, # of connection points: 2
#     Edge 61, Type (0, 1), BuildingBlock: AJUNOK_clean_linker_0, # of connection points: 2
#     Edge 62, Type (0, 1), BuildingBlock: AJUNOK_clean_linker_0, # of connection points: 2
#     Edge 63, Type (0, 1), BuildingBlock: AJUNOK_clean_linker_0, # of connection points: 2
#     Edge 64, Type (0, 1), BuildingBlock: AJUNOK_clean_linker_0, # of connection points: 2
#     Edge 65, Type (0, 1), BuildingBlock: AJUNOK_clean_linker_0, # of connection points: 2
#     Edge 66, Type (0, 1), BuildingBlock: AJUNOK_clean_linker_0, # of connection points: 2
#     Edge 67, Type (0, 1), BuildingBlock: AJUNOK_clean_linker_0, # of connection points: 2
#     Edge 68, Type (0, 1), BuildingBlock: AJUNOK_clean_linker_0, # of connection points: 2
#     Edge 69, Type (0, 1), BuildingBlock: AJUNOK_clean_linker_0, # of connection points: 2
#     Edge 70, Type (0, 1), BuildingBlock: AJUNOK_clean_linker_0, # of connection points: 2
#     Edge 71, Type (0, 1), BuildingBlock: AJUNOK_clean_linker_0, # of connection points: 2
#     Edge 72, Type (0, 1), BuildingBlock: AJUNOK_clean_linker_0, # of connection points: 2
#     Edge 73, Type (0, 1), BuildingBlock: AJUNOK_clean_linker_0, # of connection points: 2
#     Edge 74, Type (0, 1), BuildingBlock: AJUNOK_clean_linker_0, # of connection points: 2
#     Edge 75, Type (0, 1), BuildingBlock: AJUNOK_clean_linker_0, # of connection points: 2
#     Edge 76, Type (0, 1), BuildingBlock: AJUNOK_clean_linker_0, # of connection points: 2
#     Edge 77, Type (0, 1), BuildingBlock: AJUNOK_clean_linker_0, # of connection points: 2
#     Edge 78, Type (0, 1), BuildingBlock: AJUNOK_clean_linker_0, # of connection points: 2
#     Edge 79, Type (0, 1), BuildingBlock: AJUNOK_clean_linker_0, # of connection points: 2
#     Edge 80, Type (0, 1), BuildingBlock: AJUNOK_clean_linker_0, # of connection points: 2
#     Edge 81, Type (0, 1), BuildingBlock: AJUNOK_clean_linker_0, # of connection points: 2
#     Edge 82, Type (0, 1), BuildingBlock: AJUNOK_clean_linker_0, # of connection points: 2
#     Edge 83, Type (0, 1), BuildingBlock: AJUNOK_clean_linker_0, # of connection points: 2
#     Edge 84, Type (0, 1), BuildingBlock: AJUNOK_clean_linker_0, # of connection points: 2
#     Edge 85, Type (0, 1), BuildingBlock: AJUNOK_clean_linker_0, # of connection points: 2
#     Edge 86, Type (0, 1), BuildingBlock: AJUNOK_clean_linker_0, # of connection points: 2
#     Edge 87, Type (0, 1), BuildingBlock: AJUNOK_clean_linker_0, # of connection points: 2
#     Edge 88, Type (0, 1), BuildingBlock: AJUNOK_clean_linker_0, # of connection points: 2
#     Edge 89, Type (0, 1), BuildingBlock: AJUNOK_clean_linker_0, # of connection points: 2
#     Edge 90, Type (0, 1), BuildingBlock: AJUNOK_clean_linker_0, # of connection points: 2
#     Edge 91, Type (0, 1), BuildingBlock: AJUNOK_clean_linker_0, # of connection points: 2
#     Edge 92, Type (0, 1), BuildingBlock: AJUNOK_clean_linker_0, # of connection points: 2
#     Edge 93, Type (0, 1), BuildingBlock: AJUNOK_clean_linker_0, # of connection points: 2
#     Edge 94, Type (0, 1), BuildingBlock: AJUNOK_clean_linker_0, # of connection points: 2
#     Edge 95, Type (0, 1), BuildingBlock: AJUNOK_clean_linker_0, # of connection points: 2
#     Edge 96, Type (0, 1), BuildingBlock: AJUNOK_clean_linker_0, # of connection points: 2
#     Edge 97, Type (0, 1), BuildingBlock: AJUNOK_clean_linker_0, # of connection points: 2
#     Edge 98, Type (0, 1), BuildingBlock: AJUNOK_clean_linker_0, # of connection points: 2
#     Edge 99, Type (0, 1), BuildingBlock: AJUNOK_clean_linker_0, # of connection points: 2
#     Edge 100, Type (0, 1), BuildingBlock: AJUNOK_clean_linker_0, # of connection points: 2
#     Edge 101, Type (0, 1), BuildingBlock: AJUNOK_clean_linker_0, # of connection points: 2
#     Edge 102, Type (0, 1), BuildingBlock: AJUNOK_clean_linker_0, # of connection points: 2
#     Edge 103, Type (0, 1), BuildingBlock: AJUNOK_clean_linker_0, # of connection points: 2
#     Edge 104, Type (0, 1), BuildingBlock: AJUNOK_clean_linker_0, # of connection points: 2
#     Edge 105, Type (0, 1), BuildingBlock: AJUNOK_clean_linker_0, # of connection points: 2
#     Edge 106, Type (0, 1), BuildingBlock: AJUNOK_clean_linker_0, # of connection points: 2
#     Edge 107, Type (0, 1), BuildingBlock: AJUNOK_clean_linker_0, # of connection points: 2
# Relax obj value: 0.092
# Max RMSD: 0.233
# Mean RMSD: 0.128
data_MOF--net-ptr--node1-UXUYUI_clean_sbu_0--node2-KUFVIS_clean_linker_0--edge1-AJUNOK_clean_linker_0
_symmetry_space_group_name_H-M    P1
_symmetry_Int_Tables_number       1
_symmetry_cell_setting            triclinic
loop_
_symmetry_equiv_pos_as_xyz
'x, y, z'
_cell_length_a     76.546502
_cell_length_b     76.666211
_cell_length_c     45.466988
_cell_angle_alpha  89.986676
_cell_angle_beta   90.047758
_cell_angle_gamma 120.02741
loop_
_atom_site_label
_atom_site_type_symbol
_atom_site_fract_x
_atom_site_fract_y
_atom_site_fract_z
_atom_type_partial_charge
Li0 Li 0.9992 0.35057 0.00322 0.0
Li1 Li 0.03509 0.36773 0.00969 0.0
Li2 Li 1.01629 0.38219 0.03173 0.0
Li3 Li 0.02197 0.38385 0.97706 0.0
C4 C 1.01126 0.339 0.055 0.0
N5 N 1.00498 0.30427 0.08272 0.0
C6 C 1.01561 0.3256 0.0404 0.0
C7 C 1.00371 0.33476 0.08369 0.0
C8 C 1.01236 0.30813 0.05481 0.0
C9 C 1.00062 0.3171 0.09732 0.0
C10 C 0.02644 0.34904 0.95184 0.0
C11 C 0.0467 0.35241 0.90934 0.0
N12 N 0.03979 0.33225 0.91009 0.0
C13 C 0.01932 0.32832 0.952 0.0
C14 C 0.04007 0.36119 0.93019 0.0
C15 C 0.02635 0.32014 0.93079 0.0
C16 C 0.96724 0.32288 0.9694 0.0
N17 N 0.97486 0.32552 -0.00293 0.0
C18 C 0.94847 0.29268 0.01106 0.0
C19 C 0.9657 0.31101 0.018 0.0
C20 C 0.94052 0.28944 0.98246 0.0
C21 C 0.94997 0.30492 0.96161 0.0
H22 H 0.97482 0.33468 0.95323 0.0
H23 H 0.97175 0.31351 0.04001 0.0
C24 C 0.06517 0.36822 0.04511 0.0
N25 N 0.05799 0.36407 0.01709 0.0
C26 C 0.08226 0.36721 0.05299 0.0
C27 C 0.0839 0.35672 0.00349 0.0
C28 C 0.06697 0.35833 -0.00364 0.0
C29 C 0.09181 0.36142 0.03202 0.0
H30 H 0.05773 0.37261 0.06127 0.0
H31 H 0.06128 0.35517 0.97423 0.0
C32 C 0.979 0.37337 0.00961 0.0
N33 N 0.94448 0.37132 0.03177 0.0
C34 C 0.97149 0.38491 -0.00298 0.0
C35 C 0.96905 0.36083 0.03349 0.0
C36 C 0.95399 0.38366 0.00855 0.0
C37 C 0.95158 0.35997 0.04435 0.0
C38 C 0.06166 0.40635 0.01589 0.0
C39 C 0.06813 0.41393 0.0442 0.0
C40 C 0.07572 0.40825 0.9947 0.0
C41 C 0.08866 0.4232 0.05094 0.0
C42 C 0.09611 0.41759 0.00233 0.0
N43 N 0.10211 0.4248 0.03006 0.0
C44 C 1.01398 0.39384 0.09079 0.0
C45 C 1.01116 0.41331 0.05251 0.0
C46 C 1.01223 0.40609 0.11196 0.0
N47 N 1.01345 0.39771 0.06174 0.0
C48 C 1.00928 0.42588 0.07288 0.0
C49 C 1.01002 0.42246 0.10305 0.0
H50 H 1.01604 0.38146 0.09747 0.0
H51 H 1.01089 0.41603 0.02921 0.0
C52 C 1.00827 0.39586 0.92793 0.0
N53 N 0.02479 0.40058 0.9446 0.0
C54 C 1.0089 0.40945 0.9069 0.0
C55 C 0.04366 0.43231 0.9202 0.0
C56 C 0.04232 0.41833 0.9411 0.0
C57 C 0.02673 0.42801 0.90304 0.0
H58 H 0.9944 0.38182 0.93168 0.0
H59 H 0.05503 0.42196 0.95524 0.0
O60 O 1.01419 0.35617 0.04139 0.0
O61 O 0.01967 0.35731 0.97227 0.0
O62 O 0.99639 0.37485 -0.00087 0.0
O63 O 0.04159 0.39677 0.00911 0.0
H64 H 0.02139 0.32863 0.01819 0.0
H65 H 1.00009 0.34489 0.0952 0.0
H66 H 1.01568 0.29762 0.04379 0.0
H67 H 0.99471 0.31359 0.11947 0.0
H68 H 0.05735 0.36162 0.89255 0.0
H69 H 1.00847 0.31867 0.96829 0.0
H70 H 0.04556 0.37722 0.92966 0.0
H71 H 0.02107 0.30415 0.93072 0.0
H72 H 0.94149 0.28114 0.02777 0.0
H73 H 0.94441 0.30291 0.93923 0.0
H74 H 0.08788 0.37076 0.07534 0.0
H75 H 0.09093 0.35219 0.98681 0.0
H76 H 0.97918 0.39482 0.97868 0.0
H77 H 0.97487 0.35201 0.0437 0.0
H78 H 0.948 0.39253 -0.00092 0.0
H79 H 0.94371 0.35036 0.06285 0.0
H80 H 0.05738 0.41248 0.06085 0.0
H81 H 0.07088 0.40223 0.97278 0.0
H82 H 0.0939 0.42905 0.07281 0.0
H83 H 0.10716 0.41902 0.98625 0.0
H84 H 1.01305 0.40309 0.13505 0.0
H85 H 1.00731 0.43813 0.06511 0.0
H86 H 0.99556 0.40559 0.89395 0.0
H87 H 0.05756 0.44658 0.91814 0.0
Li88 Li 0.68127 0.65625 0.00746 0.0
Li89 Li 0.66129 0.6724 0.01311 0.0
Li90 Li 0.64996 0.63895 0.03739 0.0
Li91 Li 0.64646 0.6416 0.98407 0.0
C92 C 0.68751 0.66626 0.06766 0.0
N93 N 0.71229 0.66732 0.11283 0.0
C94 C 0.70134 0.68461 0.08066 0.0
C95 C 0.68615 0.64847 0.07801 0.0
C96 C 0.71379 0.68484 0.10333 0.0
C97 C 0.6988 0.64929 0.10077 0.0
C98 C 0.67931 0.68595 0.96285 0.0
C99 C 0.67544 0.70917 0.93154 0.0
N100 N 0.69436 0.72392 0.93896 0.0
C101 C 0.69876 0.70128 0.97 0.0
C102 C 0.66757 0.68986 0.94334 0.0
C103 C 0.70608 0.7204 0.95775 0.0
C104 C 0.70951 0.64806 0.98162 0.0
N105 N 0.70775 0.66042 0.00131 0.0
C106 C 0.7435 0.67868 0.00876 0.0
C107 C 0.72424 0.67559 0.01478 0.0
C108 C 0.74572 0.66597 0.98878 0.0
C109 C 0.72841 0.65051 0.97512 0.0
H110 H 0.6962 0.63644 0.97067 0.0
H111 H 0.72253 0.68563 0.02963 0.0
C112 C 0.64822 0.70162 0.00874 0.0
N113 N 0.66343 0.69839 0.01715 0.0
C114 C 0.64977 0.72039 0.01323 0.0
C115 C 0.68268 0.73227 0.03468 0.0
C116 C 0.68063 0.71341 0.02928 0.0
C117 C 0.66705 0.73598 0.02682 0.0
H118 H 0.63473 0.68958 -0.001 0.0
H119 H 0.69266 0.71062 0.03517 0.0
C120 C 0.65885 0.61024 0.00987 0.0
N121 N 0.65899 0.5746 0.01872 0.0
C122 C 0.64287 0.59201 -0.00036 0.0
C123 C 0.67515 0.61033 0.02396 0.0
C124 C 0.64313 0.57416 0.00452 0.0
C125 C 0.67488 0.59218 0.0284 0.0
C126 C 0.61467 0.64308 0.00813 0.0
C127 C 0.5984 0.62973 0.02555 0.0
C128 C 0.61111 0.65024 0.98185 0.0
C129 C 0.57878 0.62362 0.01622 0.0
C130 C 0.59128 0.64377 0.97327 0.0
N131 N 0.57565 0.63069 0.99048 0.0
C132 C 0.63806 0.6257 0.09732 0.0
C133 C 0.6203 0.60195 0.05966 0.0
C134 C 0.62624 0.61169 0.1188 0.0
N135 N 0.63507 0.62052 0.06838 0.0
C136 C 0.60802 0.58757 0.08035 0.0
C137 C 0.61102 0.59233 0.11036 0.0
H138 H 0.64939 0.64077 0.10373 0.0
H139 H 0.61769 0.5985 0.0365 0.0
C140 C 0.63399 0.6309 0.92395 0.0
N141 N 0.62902 0.62587 0.95263 0.0
C142 C 0.62108 0.61864 0.90164 0.0
C143 C 0.59823 0.59637 0.93879 0.0
C144 C 0.61149 0.60907 0.96031 0.0
C145 C 0.60304 0.601 0.90902 0.0
H146 H 0.64805 0.64429 0.91842 0.0
H147 H 0.60788 0.60543 0.98329 0.0
O148 O 0.67525 0.66577 0.04525 0.0
O149 O 0.6717 0.66732 0.97532 0.0
O150 O 0.6589 0.62792 0.00497 0.0
O151 O 0.63396 0.64892 0.01669 0.0
H152 H 0.70258 0.69857 0.07334 0.0
H153 H 0.67517 0.63411 0.06899 0.0
H154 H 0.72463 0.69896 0.1134 0.0
H155 H 0.69783 0.63558 0.10895 0.0
H156 H 0.66649 0.71245 0.91651 0.0
H157 H 0.708 0.69851 0.98518 0.0
H158 H 0.65253 0.67813 0.93742 0.0
H159 H 0.72105 0.73245 0.96327 0.0
H160 H 0.75654 0.69102 0.01925 0.0
H161 H 0.72952 0.64084 0.95875 0.0
H162 H 0.63735 0.72252 0.00676 0.0
H163 H 0.69604 0.74349 0.04604 0.0
H164 H 0.63032 0.59156 0.98815 0.0
H165 H 0.68802 0.62426 0.03119 0.0
H166 H 0.63075 0.55995 -0.00308 0.0
H167 H 0.68736 0.59208 0.03942 0.0
H168 H 0.60089 0.62422 0.04611 0.0
H169 H 0.62353 0.66043 0.968 0.0
H170 H 0.56604 0.61326 0.02946 0.0
H171 H 0.58831 0.64908 0.95287 0.0
H172 H 0.62861 0.61612 0.14173 0.0
H173 H 0.59623 0.57292 0.07297 0.0
H174 H 0.62532 0.62267 0.87886 0.0
H175 H 0.58434 0.5831 0.94537 0.0
Li176 Li 0.38873 0.01289 0.97841 0.0
Li177 Li 0.39013 0.01502 0.03263 0.0
Li178 Li 0.35632 0.99516 0.0053 0.0
Li179 Li 0.37555 0.03115 0.00325 0.0
C180 C 0.3823 0.97466 0.00299 0.0
N181 N 0.38722 0.9416 -0.00463 0.0
C182 C 0.39985 0.97519 0.01283 0.0
C183 C 0.36707 0.95714 0.98978 0.0
C184 C 0.40211 0.95838 0.00864 0.0
C185 C 0.36989 0.94064 0.98597 0.0
C186 C 0.41637 0.0537 0.98849 0.0
C187 C 0.44788 0.0849 0.98408 0.0
N188 N 0.44188 0.08817 0.95749 0.0
C189 C 0.41045 0.05739 0.96118 0.0
C190 C 0.4352 0.06755 9e-05 0.0
C191 C 0.42359 0.07489 0.94581 0.0
C192 C 0.40389 0.01729 0.91912 0.0
N193 N 0.40608 0.01342 0.94767 0.0
C194 C 0.43718 0.01453 0.93652 0.0
C195 C 0.42236 0.01214 0.95662 0.0
C196 C 0.43544 0.01876 0.90704 0.0
C197 C 0.41841 0.01988 0.89829 0.0
H198 H 0.39122 0.01896 0.91264 0.0
H199 H 0.42421 1.00998 0.97963 0.0
C200 C 0.39779 1.00563 0.09013 0.0
N201 N 0.40613 0.01479 0.06418 0.0
C202 C 0.4096 1.00312 0.1113 0.0
C203 C 0.43831 0.01974 0.07874 0.0
C204 C 0.42602 0.02216 0.05839 0.0
C205 C 0.43002 1.00972 0.10535 0.0
H206 H 0.38188 0.99983 0.09403 0.0
H207 H 0.43212 0.02908 0.03732 0.0
C208 C 0.35286 1.00082 0.94541 0.0
N209 N 0.33257 0.97714 0.89738 0.0
C210 C 0.3392 1.00434 0.92971 0.0
C211 C 0.35626 0.98534 0.93649 0.0
C212 C 0.32905 0.99217 0.90556 0.0
C213 C 0.34587 0.97353 0.91219 0.0
C214 C 0.35719 0.02545 0.0528 0.0
C215 C 0.3379 0.02216 0.04658 0.0
C216 C 0.36982 0.04093 0.07193 0.0
C217 C 0.3316 0.03462 0.05947 0.0
C218 C 0.36295 0.05306 0.0844 0.0
N219 N 0.34415 0.04969 0.07793 0.0
C220 C 0.32965 0.95867 0.03124 0.0
C221 C 0.31401 0.96753 0.99373 0.0
C222 C 0.31143 0.94132 0.03774 0.0
N223 N 0.33063 0.97135 0.0096 0.0
C224 C 0.29539 0.95027 -0.00049 0.0
C225 C 0.29394 0.93691 0.02183 0.0
H226 H 0.34303 0.9623 0.0439 0.0
H227 H 0.31504 0.97807 0.9771 0.0
C228 C 0.38748 0.07301 0.01095 0.0
N229 N 0.37299 0.05479 0.00055 0.0
C230 C 0.38621 0.09033 0.00554 0.0
C231 C 0.35472 0.06964 0.98006 0.0
C232 C 0.35664 0.0528 0.98582 0.0
C233 C 0.36973 0.08878 0.98967 0.0
H234 H 0.4003 0.0742 0.02273 0.0
H235 H 0.34534 0.03815 0.97789 0.0
O236 O 0.37964 0.99085 0.00747 0.0
O237 O 0.40372 0.03682 0.00416 0.0
O238 O 0.36277 0.01257 0.96926 0.0
O239 O 0.36386 0.01385 0.03967 0.0
H240 H 0.41166 0.98842 0.02353 0.0
H241 H 0.35316 0.95619 0.98258 0.0
H242 H 0.41569 0.95866 0.01601 0.0
H243 H 0.35827 0.92705 0.97564 0.0
H244 H 0.46249 0.09578 0.99282 0.0
H245 H 0.39583 0.04693 0.95202 0.0
H246 H 0.4399 0.06496 0.02132 0.0
H247 H 0.41923 0.07793 0.92464 0.0
H248 H 0.45019 0.01374 0.94411 0.0
H249 H 0.41645 0.02293 0.87563 0.0
H250 H 0.40276 0.9959 0.13195 0.0
H251 H 0.45395 0.02507 0.07328 0.0
H252 H 0.33638 0.01628 0.93615 0.0
H253 H 0.36711 0.98273 0.9478 0.0
H254 H 0.31838 0.99469 0.89332 0.0
H255 H 0.34846 0.96156 0.90504 0.0
H256 H 0.32802 1.01026 0.03167 0.0
H257 H 0.38484 0.04367 0.07682 0.0
H258 H 0.31675 0.03236 0.05471 0.0
H259 H 0.37258 0.06519 0.09913 0.0
H260 H 0.31091 0.93192 0.05588 0.0
H261 H 0.28221 0.94759 0.98706 0.0
H262 H 0.39815 0.10482 0.01316 0.0
H263 H 0.34203 0.06779 0.96708 0.0
Li264 Li 0.0361 0.67524 0.0072 0.0
Li265 Li 1.01584 0.64218 0.03154 0.0
Li266 Li 0.02047 0.64417 0.9767 0.0
Li267 Li 0.99833 0.65464 0.00044 0.0
C268 C 0.06008 0.65633 0.00473 0.0
N269 N 0.09937 0.66485 -0.00257 0.0
C270 C 0.07076 0.65476 0.02853 0.0
C271 C 0.06924 0.66195 0.97714 0.0
C272 C 0.09066 0.65923 0.02442 0.0
C273 C 0.08915 0.66626 0.97391 0.0
C274 C 1.01109 0.66741 0.06681 0.0
C275 C 0.98946 0.65451 0.1093 0.0
N276 N 1.0051 0.66731 0.12676 0.0
C277 C 0.02691 0.68057 0.08513 0.0
C278 C 0.99217 0.65438 0.07892 0.0
C279 C 0.0236 0.68024 0.11541 0.0
C280 C 0.06076 0.71784 -0.00169 0.0
N281 N 0.05908 0.7015 0.01268 0.0
C282 C 0.08983 0.72225 0.03866 0.0
C283 C 0.0732 0.70339 0.03254 0.0
C284 C 0.09193 0.73946 0.02441 0.0
C285 C 0.07722 0.73707 0.00375 0.0
H286 H 0.04917 0.71599 0.98292 0.0
H287 H 0.07122 0.6903 0.04436 0.0
C288 C 1.00436 0.6054 0.05924 0.0
N289 N 1.01512 0.62568 0.06346 0.0
C290 C 1.00563 0.59235 0.07942 0.0
C291 C 0.02871 0.62124 0.10834 0.0
C292 C 0.02712 0.63375 0.08746 0.0
C293 C 0.01825 0.60025 0.10408 0.0
H294 H 0.99539 0.59938 0.03954 0.0
H295 H 0.03607 0.6499 0.08987 0.0
C296 C 0.02534 0.67648 0.94197 0.0
N297 N 0.03649 0.6901 0.88494 0.0
C298 C 1.01062 0.67218 0.92052 0.0
C299 C 0.04575 0.6879 0.93442 0.0
C300 C 1.01655 0.67914 0.8918 0.0
C301 C 0.05107 0.6946 0.90548 0.0
C302 C 0.97644 0.61352 0.99516 0.0
C303 C 0.97035 0.60532 0.96704 0.0
C304 C 0.96241 0.60697 0.01804 0.0
C305 C 0.95015 0.5909 0.96217 0.0
C306 C 0.94235 0.59252 0.01229 0.0
N307 N 0.93669 0.58487 0.9847 0.0
C308 C 0.02085 0.61084 0.95607 0.0
C309 C 0.02604 0.63347 0.91711 0.0
C310 C 0.0211 0.59695 0.9365 0.0
N311 N 0.02311 0.62859 0.94614 0.0
C312 C 0.02644 0.62003 0.89676 0.0
C313 C 0.02371 0.6014 0.90637 0.0
H314 H 0.01855 0.60738 0.9793 0.0
H315 H 0.02782 0.64758 0.90955 0.0
C316 C 0.96829 0.66548 0.01337 0.0
N317 N 0.97403 0.65548 0.99454 0.0
C318 C 0.95093 0.66668 0.0076 0.0
C319 C 0.9457 0.64708 0.9635 0.0
C320 C 0.96314 0.6464 0.96997 0.0
C321 C 0.93938 0.65732 0.98239 0.0
H322 H 0.97739 0.67286 0.03253 0.0
H323 H 0.96825 0.63901 0.95495 0.0
O324 O 0.04062 0.65202 0.0084 0.0
O325 O 1.01408 0.66739 0.03714 0.0
O326 O 0.0198 0.6698 0.97022 0.0
O327 O 0.99611 0.62772 0.00032 0.0
H328 H 0.06381 0.65029 0.04999 0.0
H329 H 0.06104 0.66282 0.95839 0.0
H330 H 0.09917 0.65822 0.04269 0.0
H331 H 0.09645 0.67067 0.95268 0.0
H332 H 0.9749 0.64446 0.11898 0.0
H333 H 0.04162 0.69085 0.07611 0.0
H334 H 0.97971 0.6443 0.06501 0.0
H335 H 0.03574 0.69024 0.12987 0.0
H336 H 0.10055 0.72344 0.05522 0.0
H337 H 0.0783 0.74993 0.99221 0.0
H338 H 0.99737 0.57628 0.07526 0.0
H339 H 0.03825 0.62795 0.12741 0.0
H340 H 0.99478 0.66351 0.92589 0.0
H341 H 0.05737 0.69156 0.9507 0.0
H342 H 1.00531 0.67582 0.87497 0.0
H343 H 0.0668 0.70338 0.89935 0.0
H344 H 0.98103 0.61024 0.94907 0.0
H345 H 0.96697 0.61296 0.04001 0.0
H346 H 0.94518 0.58454 0.94047 0.0
H347 H 0.9313 0.58736 0.02976 0.0
H348 H 0.01928 0.5829 0.94483 0.0
H349 H 0.02842 0.62397 0.87364 0.0
H350 H 0.94671 0.675 0.02243 0.0
H351 H 0.93768 0.6403 0.94326 0.0
Li352 Li 0.35739 0.37141 0.00717 0.0
Li353 Li 0.39047 0.38297 0.03047 0.0
Li354 Li 0.38721 0.38486 0.9765 0.0
Li355 Li 0.37504 0.35228 -0.00048 0.0
C356 C 0.37598 0.41259 0.01433 0.0
N357 N 0.36485 0.4408 0.02775 0.0
C358 C 0.37525 0.41769 0.04362 0.0
C359 C 0.37141 0.42207 0.99183 0.0
C360 C 0.36947 0.43191 0.04997 0.0
C361 C 0.36573 0.43624 -0.00093 0.0
C362 C 0.36648 0.34611 0.05975 0.0
C363 C 0.3865 0.33579 0.08782 0.0
N364 N 0.37004 0.32362 0.10438 0.0
C365 C 0.34976 0.33352 0.07703 0.0
C366 C 0.38501 0.34729 0.06517 0.0
C367 C 0.35186 0.32226 0.0995 0.0
C368 C 0.31705 0.36307 0.9941 0.0
N369 N 0.33215 0.36999 0.01439 0.0
C370 C 0.31195 0.37548 0.04905 0.0
C371 C 0.32979 0.37583 0.0416 0.0
C372 C 0.29622 0.36876 0.02843 0.0
C373 C 0.29881 0.36229 0.00074 0.0
H374 H 0.31899 0.35787 0.97295 0.0
H375 H 0.3417 0.38049 0.05771 0.0
C376 C 0.42588 0.41431 0.05303 0.0
N377 N 0.40811 0.39819 0.06166 0.0
C378 C 0.43968 0.42726 0.0739 0.0
C379 C 0.41667 0.40665 0.11219 0.0
C380 C 0.40318 0.39425 0.09057 0.0
C381 C 0.43517 0.42337 0.10388 0.0
H382 H 0.4292 0.4172 0.02983 0.0
H383 H 0.38871 0.3817 0.09687 0.0
C384 C 0.35532 0.36065 0.94147 0.0
N385 N 0.34525 0.3631 0.8838 0.0
C386 C 0.35454 0.34692 0.9205 0.0
C387 C 0.35084 0.37552 0.93311 0.0
C388 C 0.34946 0.34844 0.89145 0.0
C389 C 0.3458 0.37653 0.90386 0.0
C390 C 0.41557 0.37237 0.98051 0.0
C391 C 0.40808 0.36156 0.95437 0.0
C392 C 0.4359 0.38042 0.98773 0.0
C393 C 0.42112 0.35896 0.93581 0.0
C394 C 0.44846 0.37747 0.96861 0.0
N395 N 0.44088 0.36689 0.94326 0.0
C396 C 0.41533 0.42193 0.95436 0.0
C397 C 0.40143 0.39732 0.91666 0.0
C398 C 0.42819 0.4365 0.93431 0.0
N399 N 0.40228 0.4028 0.94531 0.0
C400 C 0.41382 0.41149 0.89578 0.0
C401 C 0.42751 0.4313 0.90463 0.0
H402 H 0.41595 0.42579 0.97736 0.0
H403 H 0.39151 0.38194 0.91002 0.0
C404 C 0.35539 0.31173 0.98064 0.0
N405 N 0.37196 0.32605 0.995 0.0
C406 C 0.35334 0.29291 0.97466 0.0
C407 C 0.38495 0.30354 -0.00035 0.0
C408 C 0.38656 0.32228 0.0047 0.0
C409 C 0.36828 0.28859 0.98412 0.0
H410 H 0.34406 0.31516 0.97301 0.0
H411 H 0.39974 0.33398 0.01574 0.0
O412 O 0.38155 0.39868 0.00768 0.0
O413 O 0.36461 0.35724 0.03774 0.0
O414 O 0.3605 0.35956 0.96997 0.0
O415 O 0.40314 0.37521 -0.00104 0.0
H416 H 0.37887 0.41057 0.06128 0.0
H417 H 0.37237 0.41863 0.96903 0.0
H418 H 0.36865 0.43587 0.07255 0.0
H419 H 0.36208 0.44365 0.98189 0.0
H420 H 0.40076 0.33657 0.09227 0.0
H421 H 0.33531 0.33249 0.07313 0.0
H422 H 0.39815 0.35706 0.05215 0.0
H423 H 0.33905 0.31246 0.11307 0.0
H424 H 0.31026 0.37983 0.07106 0.0
H425 H 0.28683 0.35658 0.98453 0.0
H426 H 0.45375 0.44008 0.06674 0.0
H427 H 0.41253 0.40346 0.13516 0.0
H428 H 0.35797 0.33531 0.9265 0.0
H429 H 0.35125 0.38617 0.94906 0.0
H430 H 0.34891 0.338 0.87497 0.0
H431 H 0.34235 0.388 0.8971 0.0
H432 H 0.3924 0.35527 0.94849 0.0
H433 H 0.44188 0.38884 0.00791 0.0
H434 H 0.41553 0.35063 0.91549 0.0
H435 H 0.46425 0.38359 0.97391 0.0
H436 H 0.43855 0.45164 0.94188 0.0
H437 H 0.41311 0.4069 0.87307 0.0
H438 H 0.34059 0.28223 0.96167 0.0
H439 H 0.39689 0.30096 0.00721 0.0
Li440 Li 0.65907 0.99189 0.00798 0.0
Li441 Li 0.64869 0.01416 0.03059 0.0
Li442 Li 0.64659 1.00961 0.97691 0.0
Li443 Li 0.67952 0.02963 0.00097 0.0
C444 C 0.61746 0.96998 0.00482 0.0
N445 N 0.5877 0.93017 -0.0014 0.0
C446 C 0.60644 0.95895 0.02928 0.0
C447 C 0.61313 0.96088 0.97712 0.0
C448 C 0.59153 0.9388 0.02572 0.0
C449 C 0.59808 0.94071 0.97444 0.0
C450 C 0.67719 0.01823 0.06709 0.0
C451 C 0.68427 0.04186 0.1066 0.0
N452 N 0.6824 0.02766 0.12629 0.0
C453 C 0.67543 1.0039 0.0877 0.0
C454 C 0.68173 0.03739 0.07657 0.0
C455 C 0.67809 1.00896 0.11754 0.0
C456 C 0.67103 0.96255 -0.00317 0.0
N457 N 0.65992 0.9677 0.01434 0.0
C458 C 0.65044 0.93894 0.04483 0.0
C459 C 0.64977 0.95633 0.03802 0.0
C460 C 0.66164 0.93307 0.02704 0.0
C461 C 0.672 0.94513 0.00271 0.0
H462 H 0.67952 0.97217 0.97869 0.0
H463 H 0.64165 0.96115 0.05219 0.0
C464 C 0.62755 0.03016 0.0603 0.0
N465 N 0.63402 0.01661 0.06265 0.0
C466 C 0.61457 0.03072 0.0814 0.0
C467 C 0.61525 1.00343 0.10702 0.0
C468 C 0.62826 1.00345 0.0855 0.0
C469 C 0.60807 0.01704 0.1049 0.0
H470 H 0.63187 0.04002 0.04145 0.0
H471 H 0.63324 0.99252 0.0865 0.0
C472 C 0.67293 1.00286 0.94247 0.0
N473 N 0.67585 0.9934 0.88462 0.0
C474 C 0.68578 0.01793 0.92286 0.0
C475 C 0.66175 0.98295 0.93263 0.0
C476 C 0.68699 0.01285 0.89372 0.0
C477 C 0.6634 0.97848 0.90332 0.0
C478 C 0.66252 0.0521 0.9833 0.0
C479 C 0.66797 0.0526 0.95388 0.0
C480 C 0.66348 0.06916 -0.00404 0.0
C481 C 0.67414 0.07012 0.93747 0.0
C482 C 0.66977 0.08643 0.97886 0.0
N483 N 0.67491 0.08654 0.9502 0.0
C484 C 0.6112 1.00559 0.95515 0.0
C485 C 0.63254 1.00721 0.91624 0.0
C486 C 0.59666 1.00412 0.93519 0.0
N487 N 0.62875 1.00717 0.94548 0.0
C488 C 0.61841 1.00579 0.8955 0.0
C489 C 0.60027 1.0044 0.90491 0.0
H490 H 0.60858 1.00556 0.97853 0.0
H491 H 0.64657 1.0087 0.90882 0.0
C492 C 0.71978 0.04968 0.98101 0.0
N493 N 0.70613 0.05221 -0.00324 0.0
C494 C 0.73879 0.06614 0.97486 0.0
C495 C 0.72986 0.08732 0.00283 0.0
C496 C 0.7109 0.07048 0.00812 0.0
C497 C 0.74403 0.08535 0.98563 0.0
H498 H 0.71566 0.03496 0.97241 0.0
H499 H 0.69985 0.0721 0.02073 0.0
O500 O 0.63222 0.98967 0.00798 0.0
O501 O 0.67431 0.01349 0.03782 0.0
O502 O 0.67155 1.00756 0.97115 0.0
O503 O 0.65686 0.03524 -4e-05 0.0
H504 H 0.60948 0.96582 0.05084 0.0
H505 H 0.6212 0.96929 0.95786 0.0
H506 H 0.58299 0.93004 0.04452 0.0
H507 H 0.59462 0.93346 0.95314 0.0
H508 H 0.68766 0.05658 0.11425 0.0
H509 H 0.672 0.98903 0.08074 0.0
H510 H 0.68296 0.04858 0.06092 0.0
H511 H 0.67671 0.998 0.13375 0.0
H512 H 0.64297 0.93067 0.06457 0.0
H513 H 0.68108 0.94137 0.98873 0.0
H514 H 0.60909 0.04119 0.07875 0.0
H515 H 0.61059 0.99268 0.1249 0.0
H516 H 0.69458 0.03344 0.92993 0.0
H517 H 0.65196 0.97103 0.94746 0.0
H518 H 0.69675 0.02439 0.87831 0.0
H519 H 0.65478 0.96314 0.89545 0.0
H520 H 0.66755 0.03966 0.94388 0.0
H521 H 0.65966 0.06917 0.01886 0.0
H522 H 0.67838 0.07068 0.91465 0.0
H523 H 0.67064 0.09976 0.9884 0.0
H524 H 0.58276 1.00279 0.94334 0.0
H525 H 0.62184 1.00625 0.8723 0.0
H526 H 0.74889 0.06392 0.96072 0.0
H527 H 0.73322 0.10183 0.01152 0.0
Li528 Li 0.66561 0.68302 0.33834 0.0
Li529 Li 0.70204 0.69931 0.34084 0.0
Li530 Li 0.68305 0.71444 0.36611 0.0
Li531 Li 0.68661 0.71588 0.31236 0.0
C532 C 0.6726 0.67023 0.38777 0.0
N533 N 0.6516 0.63248 0.41304 0.0
C534 C 0.67719 0.65532 0.38019 0.0
C535 C 0.65751 0.66605 0.40843 0.0
C536 C 0.66636 0.6363 0.39315 0.0
C537 C 0.64701 0.64684 0.4209 0.0
C538 C 0.69521 0.68767 0.281 0.0
C539 C 0.72066 0.7032 0.24336 0.0
N540 N 0.71591 0.68465 0.23324 0.0
C541 C 0.69041 0.66876 0.26995 0.0
C542 C 0.71033 0.70502 0.26738 0.0
C543 C 0.70112 0.66755 0.24592 0.0
C544 C 0.6229 0.65525 0.34003 0.0
N545 N 0.64134 0.65729 0.33492 0.0
C546 C 0.62594 0.62313 0.31839 0.0
C547 C 0.64312 0.64154 0.32494 0.0
C548 C 0.60667 0.62082 0.32225 0.0
C549 C 0.60529 0.63702 0.33408 0.0
H550 H 0.62176 0.6679 0.34787 0.0
H551 H 0.65792 0.64347 0.32125 0.0
C552 C 0.73872 0.70812 0.36585 0.0
N553 N 0.725 0.69589 0.34556 0.0
C554 C 0.75564 0.70641 0.37213 0.0
C555 C 0.74413 0.67949 0.33651 0.0
C556 C 0.72737 0.68174 0.33089 0.0
C557 C 0.75844 0.69181 0.3576 0.0
H558 H 0.73632 0.71904 0.37751 0.0
H559 H 0.71608 0.67188 0.31533 0.0
C560 C 0.64837 0.71194 0.34539 0.0
N561 N 0.62172 0.72362 0.36541 0.0
C562 C 0.6442 0.72456 0.32825 0.0
C563 C 0.6389 0.70516 0.37261 0.0
C564 C 0.6307 0.73032 0.33878 0.0
C565 C 0.62549 0.71126 0.38238 0.0
C566 C 0.72572 0.74478 0.33599 0.0
C567 C 0.72945 0.76337 0.34693 0.0
C568 C 0.74056 0.74378 0.31937 0.0
C569 C 0.74769 0.78072 0.34034 0.0
C570 C 0.75861 0.76146 0.31328 0.0
N571 N 0.76177 0.77942 0.32375 0.0
C572 C 0.68677 0.7287 0.42551 0.0
C573 C 0.68188 0.74774 0.38867 0.0
C574 C 0.68893 0.74276 0.44692 0.0
N575 N 0.68349 0.73155 0.39699 0.0
C576 C 0.6838 0.76205 0.40931 0.0
C577 C 0.68775 0.75985 0.43875 0.0
H578 H 0.68811 0.71576 0.4315 0.0
H579 H 0.67971 0.74987 0.36574 0.0
C580 C 0.68132 0.72632 0.25393 0.0
N581 N 0.68772 0.73321 0.28163 0.0
C582 C 0.6798 0.73886 0.23303 0.0
C583 C 0.69136 0.76524 0.26961 0.0
C584 C 0.69273 0.75223 0.28972 0.0
C585 C 0.68466 0.75852 0.24091 0.0
H586 H 0.67684 0.71093 0.24831 0.0
H587 H 0.69682 0.75697 0.31225 0.0
O588 O 0.68273 0.68876 0.37479 0.0
O589 O 0.68476 0.68909 0.30449 0.0
O590 O 0.66184 0.70647 0.33566 0.0
O591 O 0.70801 0.72759 0.34259 0.0
H592 H 0.68882 0.65832 0.36418 0.0
H593 H 0.65394 0.67751 0.41478 0.0
H594 H 0.66964 0.62456 0.38733 0.0
H595 H 0.63522 0.64335 0.43683 0.0
H596 H 0.73241 0.71654 0.23268 0.0
H597 H 0.67862 0.65513 0.27988 0.0
H598 H 0.7139 0.71977 0.27499 0.0
H599 H 0.69764 0.653 0.23732 0.0
H600 H 0.62778 0.61113 0.30912 0.0
H601 H 0.59078 0.63582 0.33797 0.0
H602 H 0.76609 0.71597 0.38893 0.0
H603 H 0.74575 0.6681 0.32476 0.0
H604 H 0.65126 0.7298 0.30701 0.0
H605 H 0.642 0.69544 0.38613 0.0
H606 H 0.62736 0.74011 0.32577 0.0
H607 H 0.61813 0.7062 0.40347 0.0
H608 H 0.71838 0.76446 0.36028 0.0
H609 H 0.73833 0.72952 0.3115 0.0
H610 H 0.75068 0.79521 0.34849 0.0
H611 H 0.77017 0.76088 0.30034 0.0
H612 H 0.69163 0.7404 0.46957 0.0
H613 H 0.68286 0.77504 0.40218 0.0
H614 H 0.67456 0.73314 0.21107 0.0
H615 H 0.69474 0.78008 0.27676 0.0
Li616 Li 0.3137 0.97686 0.31205 0.0
Li617 Li 0.31598 0.97444 0.36513 0.0
Li618 Li 0.32975 1.00836 0.34187 0.0
Li619 Li 0.34768 0.98946 0.33785 0.0
C620 C 0.28738 0.98972 0.33182 0.0
N621 N 0.2592 0.99859 0.30941 0.0
C622 C 0.26803 0.98077 0.3439 0.0
C623 C 0.29245 1.00324 0.30847 0.0
C624 C 0.25397 0.98542 0.33222 0.0
C625 C 0.27799 1.00753 0.29743 0.0
C626 C 0.31889 0.94348 0.34603 0.0
C627 C 0.32557 0.92275 0.37872 0.0
N628 N 0.30735 0.90663 0.37163 0.0
C629 C 0.30034 0.92669 0.33881 0.0
C630 C 0.33171 0.9415 0.36591 0.0
C631 C 0.29474 0.9082 0.35209 0.0
C632 C 0.30443 0.96184 0.25329 0.0
N633 N 0.29667 0.96197 0.2801 0.0
C634 C 0.26365 0.93673 0.26469 0.0
C635 C 0.2767 0.94989 0.28605 0.0
C636 C 0.27131 0.9358 0.23711 0.0
C637 C 0.2919 0.94887 0.23127 0.0
H638 H 0.32041 0.97139 0.24928 0.0
H639 H 0.27103 0.94991 0.3078 0.0
C640 C 0.30644 0.95746 0.42371 0.0
N641 N 0.29972 0.95689 0.39585 0.0
C642 C 0.29353 0.94381 0.4448 0.0
C643 C 0.26711 0.92939 0.40819 0.0
C644 C 0.28046 0.94336 0.3879 0.0
C645 C 0.27362 0.9294 0.43703 0.0
H646 H 0.3217 0.96856 0.42963 0.0
H647 H 0.27552 0.94333 0.3656 0.0
C648 C 0.35014 0.01645 0.28473 0.0
N649 N 0.37091 0.04535 0.24228 0.0
C650 C 0.37086 0.02968 0.28773 0.0
C651 C 0.34004 0.01772 0.2599 0.0
C652 C 0.38107 0.04426 0.26611 0.0
C653 C 0.35079 0.03248 0.23874 0.0
C654 C 0.35769 1.00839 0.39234 0.0
C655 C 0.36911 0.02936 0.39488 0.0
C656 C 0.36318 0.99634 0.40845 0.0
C657 C 0.386 0.03793 0.41328 0.0
C658 C 0.38017 1.0055 0.42661 0.0
N659 N 0.39115 0.02592 0.42861 0.0
C660 C 0.31924 0.03541 0.3657 0.0
C661 C 0.34763 0.05145 0.33427 0.0
C662 C 0.32075 0.05388 0.37239 0.0
N663 N 0.33258 0.03449 0.34697 0.0
C664 C 0.34976 0.07029 0.34043 0.0
C665 C 0.33622 0.07167 0.35978 0.0
H666 H 0.30769 0.02179 0.37605 0.0
H667 H 0.35837 0.05053 0.32004 0.0
C668 C 0.37415 0.9768 0.31767 0.0
N669 N 0.37365 0.9916 0.33345 0.0
C670 C 0.39255 0.97798 0.31118 0.0
C671 C 0.40966 1.00934 0.338 0.0
C672 C 0.39094 1.00767 0.34368 0.0
C673 C 0.41069 0.99448 0.32126 0.0
H674 H 0.36025 0.96438 0.30926 0.0
H675 H 0.39037 0.01962 0.3553 0.0
O676 O 0.30127 0.98525 0.34296 0.0
O677 O 0.3244 0.96181 0.33392 0.0
O678 O 0.33993 1.00187 0.30543 0.0
O679 O 0.34109 0.99976 0.37449 0.0
H680 H 0.26392 0.97032 0.36208 0.0
H681 H 0.30743 1.01046 0.29919 0.0
H682 H 0.23891 0.97857 0.3413 0.0
H683 H 0.28172 0.01799 0.27937 0.0
H684 H 0.33528 0.92102 0.39429 0.0
H685 H 0.29029 0.92799 0.32337 0.0
H686 H 0.34622 0.95432 0.37141 0.0
H687 H 0.28034 0.8951 0.3469 0.0
H688 H 0.2479 0.92683 0.27005 0.0
H689 H 0.2983 0.94881 0.21006 0.0
H690 H 0.29898 0.94474 0.46706 0.0
H691 H 0.2519 0.91861 0.40131 0.0
H692 H 0.37891 0.02893 0.30676 0.0
H693 H 0.32408 1.00736 0.25687 0.0
H694 H 0.39708 0.05471 0.26831 0.0
H695 H 0.34316 0.03367 0.21947 0.0
H696 H 0.36504 0.03891 0.38268 0.0
H697 H 0.35448 0.98011 0.40685 0.0
H698 H 0.39503 0.05413 0.41535 0.0
H699 H 0.38464 0.99635 0.4391 0.0
H700 H 0.31042 0.05431 0.38825 0.0
H701 H 0.36207 0.08368 0.33063 0.0
H702 H 0.39257 0.96655 0.29722 0.0
H703 H 0.42324 0.02243 0.3459 0.0
Li704 Li 0.05514 0.34408 0.31407 0.0
Li705 Li 0.05694 0.34903 0.36727 0.0
Li706 Li 0.02325 0.32848 0.34261 0.0
Li707 Li 0.0423 0.36513 0.33855 0.0
C708 C 0.04371 0.30502 0.33884 0.0
N709 N 0.03807 0.26727 0.32635 0.0
C710 C 0.05527 0.29813 0.35318 0.0
C711 C 0.02904 0.29254 0.31854 0.0
C712 C 0.05228 0.27906 0.34644 0.0
C713 C 0.02647 0.27355 0.31243 0.0
C714 C 0.08881 0.38189 0.34747 0.0
C715 C 0.11047 0.40515 0.38458 0.0
N716 N 0.12668 0.40562 0.37153 0.0
C717 C 0.10569 0.38272 0.33428 0.0
C718 C 0.09122 0.39331 0.37268 0.0
C719 C 0.12471 0.39478 0.34682 0.0
C720 C 0.0724 0.35161 0.25721 0.0
N721 N 0.07109 0.34258 0.28346 0.0
C722 C 0.09758 0.33625 0.26989 0.0
C723 C 0.08314 0.33477 0.29001 0.0
C724 C 0.09971 0.34604 0.24297 0.0
C725 C 0.08655 0.35332 0.23637 0.0
H726 H 0.06286 0.358 0.25283 0.0
H727 H 0.08224 0.32829 0.31143 0.0
C728 C 0.0721 0.35447 0.42686 0.0
N729 N 0.07423 0.35043 0.39842 0.0
C730 C 0.08574 0.35542 0.44817 0.0
C731 C 0.10334 0.34799 0.41049 0.0
C732 C 0.08943 0.34722 0.38999 0.0
C733 C 0.10165 0.35221 0.43998 0.0
H734 H 0.05983 0.35692 0.43295 0.0
H735 H 0.09077 0.34413 0.36715 0.0
C736 C 1.0174 0.3361 0.28217 0.0
N737 N 0.9926 0.31873 0.23392 0.0
C738 C 1.00254 0.34095 0.2752 0.0
C739 C 0.01987 0.3227 0.26418 0.0
C740 C 0.99007 0.33192 0.25085 0.0
C741 C 1.00713 0.314 0.24 0.0
C742 C 0.0213 0.35761 0.3872 0.0
C743 C 1.0008 0.34988 0.38138 0.0
C744 C 0.03167 0.37471 0.40486 0.0
C745 C 0.99104 0.35958 0.39307 0.0
C746 C 0.02138 0.384 0.41611 0.0
N747 N 1.00145 0.37631 0.41001 0.0
C748 C 0.99637 0.29326 0.37149 0.0
C749 C 0.98119 0.29912 0.33013 0.0
C750 C 0.97839 0.2757 0.37825 0.0
N751 N 0.99747 0.30461 0.34784 0.0
C752 C 0.96286 0.2816 0.33607 0.0
C753 C 0.96129 0.26961 0.36042 0.0
H754 H 1.00948 0.29807 0.38538 0.0
H755 H 0.98223 0.3084 0.31166 0.0
C756 C 0.05767 0.40733 0.33368 0.0
N757 N 0.04044 0.38909 0.33375 0.0
C758 C 0.05709 0.42485 0.3272 0.0
C759 C 0.021 0.40459 0.32105 0.0
C760 C 0.02225 0.3875 0.32818 0.0
C761 C 0.03863 0.42363 0.32016 0.0
H762 H 0.07202 0.40829 0.33764 0.0
H763 H 1.00876 0.37288 0.32826 0.0
O764 O 0.04638 0.32364 0.34536 0.0
O765 O 0.07001 0.3698 0.33593 0.0
O766 O 0.02996 0.34509 0.3057 0.0
O767 O 0.03118 0.34854 0.37549 0.0
H768 H 0.06643 0.30738 0.36937 0.0
H769 H 0.01948 0.29727 0.30799 0.0
H770 H 0.06121 0.2736 0.35726 0.0
H771 H 1.01516 0.26376 0.29674 0.0
H772 H 0.11252 0.41393 0.40424 0.0
H773 H 0.10415 0.37414 0.31463 0.0
H774 H 0.0783 0.39283 0.38314 0.0
H775 H 0.1379 0.39549 0.33692 0.0
H776 H 0.10748 0.33051 0.27578 0.0
H777 H 0.08741 0.36053 0.21552 0.0
H778 H 0.08371 0.35833 0.47086 0.0
H779 H 0.11538 0.34546 0.40332 0.0
H780 H 1.00049 0.35142 0.28855 0.0
H781 H 0.03159 0.31912 0.2686 0.0
H782 H 0.97841 0.33542 0.24541 0.0
H783 H 1.00887 0.30356 0.226 0.0
H784 H 0.99257 0.33668 0.36769 0.0
H785 H 0.0475 0.38079 0.40976 0.0
H786 H 0.97521 0.35385 0.38859 0.0
H787 H 0.02923 0.39732 0.42969 0.0
H788 H 0.97773 0.26737 0.39786 0.0
H789 H 0.94998 0.27759 0.32197 0.0
H790 H 0.07107 0.43915 0.32674 0.0
H791 H 1.00649 0.40267 0.31484 0.0
Li792 Li 0.70286 1.0054 0.3413 0.0
Li793 Li 0.68347 0.97266 0.3646 0.0
Li794 Li 0.68803 0.975 0.31179 0.0
Li795 Li 0.6666 0.98602 0.33499 0.0
C796 C 0.72454 0.98768 0.36139 0.0
N797 N 0.75594 0.99671 0.39974 0.0
C798 C 0.72597 0.99755 0.38792 0.0
C799 C 0.73904 0.9824 0.35439 0.0
C800 C 0.74196 1.00198 0.407 0.0
C801 C 0.75482 0.9871 0.37406 0.0
C802 C 0.6688 0.99421 0.39519 0.0
C803 C 0.63872 0.97225 0.42264 0.0
N804 N 0.64315 0.98744 0.44198 0.0
C805 C 0.67309 1.00958 0.4154 0.0
C806 C 0.65153 0.97536 0.3989 0.0
C807 C 0.65992 1.00587 0.43889 0.0
C808 C 0.72302 0.0457 0.36135 0.0
N809 N 0.72572 0.03201 0.34606 0.0
C810 C 0.7611 0.05549 0.34163 0.0
C811 C 0.74429 0.03656 0.33608 0.0
C812 C 0.7589 0.06983 0.35799 0.0
C813 C 0.73947 0.06469 0.3678 0.0
H814 H 0.70816 0.04164 0.36934 0.0
H815 H 0.74621 0.02533 0.3245 0.0
C816 C 0.67831 0.93693 0.38759 0.0
N817 N 0.68132 0.95524 0.39612 0.0
C818 C 0.67676 0.92287 0.4085 0.0
C819 C 0.68132 0.94673 0.44669 0.0
C820 C 0.683 0.96043 0.42502 0.0
C821 C 0.6781 0.92766 0.43847 0.0
H822 H 0.6772 0.93331 0.36443 0.0
H823 H 0.68578 0.97521 0.43126 0.0
C824 C 0.69958 1.0108 0.28087 0.0
N825 N 0.72379 0.0312 0.23342 0.0
C826 C 0.69389 0.02123 0.26149 0.0
C827 C 0.71751 1.01062 0.27598 0.0
C828 C 0.70634 0.03147 0.23765 0.0
C829 C 0.72958 0.02108 0.25194 0.0
C830 C 0.64765 0.94646 0.31511 0.0
C831 C 0.64527 0.95417 0.28848 0.0
C832 C 0.63446 0.92633 0.32232 0.0
C833 C 0.62964 0.94157 0.26952 0.0
C834 C 0.61901 0.91421 0.30277 0.0
N835 N 0.61694 0.92201 0.277 0.0
C836 C 0.69516 0.94564 0.28908 0.0
C837 C 0.68915 0.96343 0.25146 0.0
C838 C 0.69706 0.93326 0.26833 0.0
N839 N 0.69129 0.96035 0.28038 0.0
C840 C 0.69119 0.95155 0.22994 0.0
C841 C 0.69519 0.93624 0.23835 0.0
H842 H 0.69655 0.94341 0.31227 0.0
H843 H 0.6856 0.9749 0.24509 0.0
C844 C 0.6445 1.00431 0.31658 0.0
N845 N 0.64257 0.98759 0.32994 0.0
C846 C 0.6274 1.0056 0.30961 0.0
C847 C 0.60663 0.97276 0.33132 0.0
C848 C 0.62414 0.97205 0.3377 0.0
C849 C 0.6081 0.98953 0.31651 0.0
H850 H 0.65932 0.01643 0.31061 0.0
H851 H 0.62292 0.95883 0.34816 0.0
O852 O 0.70904 0.9831 0.34225 0.0
O853 O 0.6819 0.99754 0.37256 0.0
O854 O 0.68719 1.00022 0.30376 0.0
O855 O 0.66281 0.95841 0.33415 0.0
H856 H 0.71492 1.00178 0.39377 0.0
H857 H 0.73811 0.97475 0.33393 0.0
H858 H 0.74327 1.00961 0.42759 0.0
H859 H 0.76617 0.98311 0.36891 0.0
H860 H 0.62532 0.95772 0.42578 0.0
H861 H 0.68653 0.0242 0.41308 0.0
H862 H 0.64819 0.96314 0.38391 0.0
H863 H 0.66308 0.01763 0.45472 0.0
H864 H 0.77577 0.05867 0.33382 0.0
H865 H 0.73705 0.07486 0.38144 0.0
H866 H 0.6744 0.90837 0.40135 0.0
H867 H 0.68288 0.95112 0.46961 0.0
H868 H 0.67991 0.02129 0.26471 0.0
H869 H 0.72191 1.00223 0.29031 0.0
H870 H 0.7021 0.03958 0.22246 0.0
H871 H 0.74348 0.02104 0.24789 0.0
H872 H 0.6553 0.96971 0.28248 0.0
H873 H 0.63614 0.92016 0.34286 0.0
H874 H 0.6276 0.94733 0.24887 0.0
H875 H 0.60866 0.89859 0.30809 0.0
H876 H 0.7 0.92151 0.27562 0.0
H877 H 0.68919 0.95397 0.207 0.0
H878 H 0.62924 0.01872 0.29789 0.0
H879 H 0.5921 0.96017 0.33742 0.0
Li880 Li 0.05669 0.71399 0.36385 0.0
Li881 Li 0.02474 0.70321 0.33934 0.0
Li882 Li 0.04138 0.68331 0.33493 0.0
Li883 Li 0.05555 0.71601 0.31112 0.0
C884 C 0.03214 0.67836 0.39461 0.0
N885 N 0.03554 0.65751 0.44181 0.0
C886 C 1.01564 0.6672 0.41309 0.0
C887 C 0.05041 0.679 0.40025 0.0
C888 C 1.01765 0.65674 0.43681 0.0
C889 C 0.05182 0.66833 0.42417 0.0
C890 C 0.04523 0.74275 0.35863 0.0
C891 C 0.04875 0.77506 0.37003 0.0
N892 N 0.03843 0.76736 0.39552 0.0
C893 C 0.03468 0.73515 0.38497 0.0
C894 C 0.05235 0.76286 0.3511 0.0
C895 C 0.03139 0.74783 0.40331 0.0
C896 C 0.09309 0.74287 0.3867 0.0
N897 N 0.0742 0.72878 0.39531 0.0
C898 C 0.08227 0.73888 0.44545 0.0
C899 C 0.06854 0.72653 0.42402 0.0
C900 C 0.10181 0.75378 0.43708 0.0
C901 C 0.10723 0.75561 0.40733 0.0
H902 H 0.09705 0.74436 0.36364 0.0
H903 H 0.05333 0.71541 0.43023 0.0
C904 C 0.98417 0.6845 0.35623 0.0
N905 N 0.99898 0.70148 0.34337 0.0
C906 C 0.96567 0.68293 0.36322 0.0
C907 C 0.97765 0.71604 0.34259 0.0
C908 C 0.99599 0.71701 0.33609 0.0
C909 C 0.96234 0.69899 0.35692 0.0
H910 H 0.98698 0.67243 0.36192 0.0
H911 H 1.00802 0.73045 0.32609 0.0
C912 C 0.08136 0.70092 0.31669 0.0
N913 N 0.10488 0.69239 0.28006 0.0
C914 C 0.07322 0.69 0.29077 0.0
C915 C 0.10145 0.70753 0.32395 0.0
C916 C 0.08536 0.68583 0.27255 0.0
C917 C 0.1131 0.70305 0.30516 0.0
C918 C 0.02127 0.69356 0.27717 0.0
C919 C 1.01551 0.67902 0.25507 0.0
C920 C 0.01996 0.71084 0.27213 0.0
C921 C 1.0083 0.68193 0.22834 0.0
C922 C 1.01261 0.71317 0.24514 0.0
N923 N 1.00699 0.69879 0.22399 0.0
C924 C 0.02088 0.64309 0.31561 0.0
C925 C 0.05113 0.65204 0.34142 0.0
C926 C 0.01822 0.62409 0.30924 0.0
N927 N 0.03729 0.6567 0.33103 0.0
C928 C 0.04893 0.63312 0.33587 0.0
C929 C 0.03244 0.61892 0.31923 0.0
H930 H 1.01024 0.64728 0.30734 0.0
H931 H 0.06426 0.66323 0.35317 0.0
C932 C 0.08653 0.75139 0.28842 0.0
N933 N 0.07188 0.73274 0.27989 0.0
C934 C 0.10078 0.76454 0.26824 0.0
C935 C 0.08444 0.7391 0.23067 0.0
C936 C 0.07053 0.7264 0.25163 0.0
C937 C 0.09989 0.75842 0.23894 0.0
H938 H 0.08743 0.75585 0.3112 0.0
H939 H 0.059 0.71136 0.24547 0.0
O940 O 0.03041 0.68891 0.37159 0.0
O941 O 0.04877 0.73074 0.34025 0.0
O942 O 0.06993 0.70545 0.3348 0.0
O943 O 0.02922 0.69135 0.3029 0.0
H944 H 1.00143 0.66668 0.4092 0.0
H945 H 0.06344 0.68778 0.3865 0.0
H946 H 1.00499 0.64805 0.45129 0.0
H947 H 0.06587 0.66871 0.42877 0.0
H948 H 0.05417 0.79066 0.36445 0.0
H949 H 0.02904 0.71964 0.39123 0.0
H950 H 0.06057 0.76895 0.3308 0.0
H951 H 0.02324 0.74215 0.42373 0.0
H952 H 0.07753 0.73717 0.46822 0.0
H953 H 0.1222 0.76679 0.40011 0.0
H954 H 0.9544 0.6696 0.37458 0.0
H955 H 0.97564 0.72865 0.33702 0.0
H956 H 0.05773 0.6848 0.28469 0.0
H957 H 0.10796 0.71605 0.34391 0.0
H958 H 0.07926 0.6774 0.25243 0.0
H959 H 0.12868 0.70807 0.31051 0.0
H960 H 1.01683 0.66575 0.2584 0.0
H961 H 0.02498 0.72253 0.28862 0.0
H962 H 1.00384 0.67083 0.21101 0.0
H963 H 1.01154 0.72649 0.24093 0.0
H964 H 1.00567 0.61397 0.29544 0.0
H965 H 0.06034 0.62984 0.34376 0.0
H966 H 0.11266 0.77911 0.27568 0.0
H967 H 0.08321 0.73383 0.20824 0.0
Li968 Li 0.31461 0.34734 0.36534 0.0
Li969 Li 0.32583 0.32509 0.34367 0.0
Li970 Li 0.34522 0.36172 0.3344 0.0
Li971 Li 0.3125 0.34091 0.31161 0.0
C972 C 0.35143 0.36053 0.39487 0.0
N973 N 0.37414 0.38747 0.43855 0.0
C974 C 0.36405 0.35674 0.41268 0.0
C975 C 0.35033 0.378 0.39929 0.0
C976 C 0.37542 0.37055 0.43465 0.0
C977 C 0.36193 0.39143 0.42148 0.0
C978 C 0.28467 0.30273 0.35067 0.0
C979 C 0.2615 0.26854 0.33605 0.0
N980 N 0.25662 0.26345 0.36477 0.0
C981 C 0.27923 0.29726 0.37998 0.0
C982 C 0.27558 0.28835 0.32847 0.0
C983 C 0.26511 0.27729 0.38669 0.0
C984 C 0.28547 0.35515 0.38745 0.0
N985 N 0.30001 0.35102 0.39617 0.0
C986 C 0.2909 0.35044 0.44653 0.0
C987 C 0.30296 0.34866 0.42504 0.0
C988 C 0.27555 0.35442 0.43812 0.0
C989 C 0.27301 0.35696 0.40817 0.0
H990 H 0.28337 0.35673 0.36427 0.0
H991 H 0.3144 0.34503 0.43134 0.0
C992 C 0.33488 0.29353 0.3322 0.0
N993 N 0.32727 0.30135 0.35192 0.0
C994 C 0.33589 0.27627 0.33918 0.0
C995 C 0.32149 0.27562 0.3867 0.0
C996 C 0.32093 0.29294 0.37893 0.0
C997 C 0.32894 0.26699 0.36665 0.0
H998 H 0.34048 0.30083 0.31125 0.0
H999 H 0.31574 0.29991 0.39467 0.0
C1000 C 0.32511 0.38179 0.31337 0.0
N1001 N 0.33012 0.41142 0.27411 0.0
C1002 C 0.33605 0.38471 0.28749 0.0
C1003 C 0.31672 0.39392 0.31934 0.0
C1004 C 0.33841 0.39976 0.26789 0.0
C1005 C 0.31943 0.40884 0.29921 0.0
C1006 C 0.33695 0.33274 0.27778 0.0
C1007 C 0.35092 0.34549 0.25688 0.0
C1008 C 0.3222 0.31327 0.26965 0.0
C1009 C 0.34974 0.33859 0.2281 0.0
C1010 C 0.32153 0.30692 0.24066 0.0
N1011 N 0.33518 0.31961 0.22065 0.0
C1012 C 0.38598 0.38193 0.31652 0.0
C1013 C 0.37535 0.40328 0.33781 0.0
C1014 C 0.40501 0.39845 0.31061 0.0
N1015 N 0.37154 0.38465 0.32951 0.0
C1016 C 0.39428 0.42019 0.3327 0.0
C1017 C 0.40939 0.41795 0.31869 0.0
H1018 H 0.38251 0.36697 0.31001 0.0
H1019 H 0.36356 0.4051 0.34784 0.0
C1020 C 0.27545 0.33152 0.28838 0.0
N1021 N 0.29467 0.33751 0.27983 0.0
C1022 C 0.26106 0.32972 0.26785 0.0
C1023 C 0.2864 0.33999 0.22987 0.0
C1024 C 0.30038 0.34185 0.2512 0.0
C1025 C 0.26653 0.33408 0.23822 0.0
H1026 H 0.2714 0.32851 0.31135 0.0
H1027 H 0.31583 0.34722 0.24493 0.0
O1028 O 0.3402 0.3471 0.37334 0.0
O1029 O 0.29854 0.32217 0.34369 0.0
O1030 O 0.32242 0.36702 0.33274 0.0
O1031 O 0.33775 0.3393 0.30603 0.0
H1032 H 0.36503 0.34326 0.40956 0.0
H1033 H 0.34058 0.38113 0.38581 0.0
H1034 H 0.38525 0.36782 0.4486 0.0
H1035 H 0.36123 0.40501 0.42513 0.0
H1036 H 0.25439 0.25721 0.31911 0.0
H1037 H 0.28604 0.30827 0.39741 0.0
H1038 H 0.27926 0.29246 0.30562 0.0
H1039 H 0.2609 0.27278 0.40931 0.0
H1040 H 0.29317 0.34818 0.46942 0.0
H1041 H 0.26149 0.36023 0.40085 0.0
H1042 H 0.34215 0.27031 0.3234 0.0
H1043 H 0.31672 0.26941 0.40856 0.0
H1044 H 0.34261 0.37543 0.28256 0.0
H1045 H 0.30821 0.39182 0.33933 0.0
H1046 H 0.34682 0.40216 0.24774 0.0
H1047 H 0.31302 0.41836 0.30354 0.0
H1048 H 0.36247 0.36061 0.26272 0.0
H1049 H 0.31141 0.30317 0.28558 0.0
H1050 H 0.36038 0.34833 0.21168 0.0
H1051 H 0.31016 0.2919 0.23408 0.0
H1052 H 0.41585 0.39599 0.29877 0.0
H1053 H 0.39692 0.43492 0.33913 0.0
H1054 H 0.24587 0.32509 0.27506 0.0
H1055 H 0.29121 0.34376 0.20722 0.0
Li1056 Li 0.33122 0.01488 0.67421 0.0
Li1057 Li 0.36751 0.03313 0.67726 0.0
Li1058 Li 0.34619 0.0451 0.70557 0.0
Li1059 Li 0.34994 0.04801 0.65058 0.0
C1060 C 0.34152 1.00409 0.72832 0.0
N1061 N 0.32859 0.97128 0.76514 0.0
C1062 C 0.34568 0.98878 0.72142 0.0
C1063 C 0.33094 1.00283 0.75401 0.0
C1064 C 0.33896 0.97227 0.7403 0.0
C1065 C 0.32449 0.98608 0.77232 0.0
C1066 C 0.3584 0.0163 0.6205 0.0
C1067 C 0.38195 0.02244 0.58124 0.0
N1068 N 0.37436 1.00224 0.57845 0.0
C1069 C 0.35073 0.9956 0.61712 0.0
C1070 C 0.37405 0.02984 0.60232 0.0
C1071 C 0.35905 0.9888 0.59579 0.0
C1072 C 0.3014 0.98543 0.63952 0.0
N1073 N 0.30803 0.98861 0.66783 0.0
C1074 C 0.28179 0.95553 0.68134 0.0
C1075 C 0.29842 0.97419 0.6888 0.0
C1076 C 0.27475 0.952 0.65228 0.0
C1077 C 0.28464 0.96723 0.63128 0.0
H1078 H 0.30921 0.99713 0.6233 0.0
H1079 H 0.30346 0.97707 0.7113 0.0
C1080 C 0.40665 0.04533 0.69732 0.0
N1081 N 0.3914 0.03112 0.68068 0.0
C1082 C 0.42371 0.04377 0.70342 0.0
C1083 C 0.40948 0.01338 0.67428 0.0
C1084 C 0.39256 0.01537 0.6691 0.0
C1085 C 0.42514 0.02742 0.69228 0.0
H1086 H 0.40523 0.05752 0.70673 0.0
H1087 H 0.38011 1.00392 0.65668 0.0
C1088 C 0.30517 0.0275 0.67037 0.0
N1089 N 0.26417 1.00537 0.66013 0.0
C1090 C 0.2975 0.02757 0.6425 0.0
C1091 C 0.29204 0.01629 0.69307 0.0
C1092 C 0.2767 0.01626 0.63777 0.0
C1093 C 0.27134 1.00516 0.68743 0.0
C1094 C 0.38584 0.07898 0.6721 0.0
C1095 C 0.38657 0.09639 0.6829 0.0
C1096 C 0.40017 0.08054 0.65169 0.0
C1097 C 0.40153 0.11516 0.67267 0.0
C1098 C 0.41489 0.09958 0.64201 0.0
N1099 N 0.41525 0.11636 0.65259 0.0
C1100 C 0.361 0.07048 0.75545 0.0
C1101 C 0.32791 0.0617 0.74049 0.0
C1102 C 0.36108 0.0839 0.77634 0.0
N1103 N 0.3446 0.05984 0.73796 0.0
C1104 C 0.3273 0.07484 0.76118 0.0
C1105 C 0.34412 0.08629 0.7792 0.0
H1106 H 0.37425 0.06905 0.75245 0.0
H1107 H 0.31533 0.05355 0.7257 0.0
C1108 C 0.34875 0.05994 0.59122 0.0
N1109 N 0.35024 0.06514 0.62007 0.0
C1110 C 0.34693 0.072 0.56977 0.0
C1111 C 0.34843 0.09458 0.60807 0.0
C1112 C 0.35001 0.08199 0.62878 0.0
C1113 C 0.34654 0.08944 0.57821 0.0
H1114 H 0.3484 0.04617 0.58492 0.0
H1115 H 0.35048 0.08535 0.65194 0.0
O1116 O 0.34813 0.02046 0.71038 0.0
O1117 O 0.35031 0.02321 0.64111 0.0
O1118 O 0.3255 0.03794 0.6752 0.0
O1119 O 0.37126 0.0605 0.68173 0.0
H1120 H 0.35388 0.98958 0.70161 0.0
H1121 H 0.32771 0.01465 0.75965 0.0
H1122 H 0.34199 0.96025 0.73522 0.0
H1123 H 0.31622 0.98485 0.79224 0.0
H1124 H 0.39409 0.03274 0.56704 0.0
H1125 H 0.33866 0.98491 0.63108 0.0
H1126 H 0.37996 0.04588 0.60434 0.0
H1127 H 0.35335 0.97283 0.59306 0.0
H1128 H 0.27441 0.94406 0.69806 0.0
H1129 H 0.27966 0.96492 0.60858 0.0
H1130 H 0.43524 0.05479 0.71779 0.0
H1131 H 0.41004 1.00068 0.6649 0.0
H1132 H 0.30751 0.03609 0.62467 0.0
H1133 H 0.29782 0.01591 0.71467 0.0
H1134 H 0.27053 0.01607 0.61628 0.0
H1135 H 0.26099 0.99628 0.70472 0.0
H1136 H 0.3756 0.09539 0.69883 0.0
H1137 H 0.39997 0.06719 0.64353 0.0
H1138 H 0.40222 0.12878 0.68068 0.0
H1139 H 0.42606 0.10103 0.62614 0.0
H1140 H 0.37432 0.09247 0.78994 0.0
H1141 H 0.31408 0.07651 0.76242 0.0
H1142 H 0.34564 0.06766 0.54685 0.0
H1143 H 0.348 0.10781 0.61537 0.0
Li1144 Li 1.01309 0.32196 0.6699 0.0
Li1145 Li 0.993 0.33804 0.67754 0.0
Li1146 Li 0.98213 0.30436 0.70053 0.0
Li1147 Li 0.97782 0.30766 0.6473 0.0
C1148 C 0.01963 0.33121 0.73057 0.0
N1149 N 0.04452 0.33161 0.77503 0.0
C1150 C 0.03263 0.34918 0.74519 0.0
C1151 C 0.01916 0.31345 0.73887 0.0
C1152 C 0.04515 0.34908 0.7675 0.0
C1153 C 0.03186 0.31394 0.76133 0.0
C1154 C 1.01067 0.35248 0.62754 0.0
C1155 C 1.00646 0.37659 0.59891 0.0
N1156 N 0.02554 0.39106 0.60616 0.0
C1157 C 0.03027 0.36753 0.63455 0.0
C1158 C 0.99867 0.35696 0.60945 0.0
C1159 C 0.03751 0.38697 0.62357 0.0
C1160 C 0.04136 0.3144 0.6419 0.0
N1161 N 0.03955 0.32585 0.66316 0.0
C1162 C 0.07501 0.34212 0.67312 0.0
C1163 C 0.05591 0.33967 0.67855 0.0
C1164 C 0.0773 0.3303 0.65154 0.0
C1165 C 0.06014 0.31638 0.63571 0.0
H1166 H 0.02818 0.30379 0.6296 0.0
H1167 H 0.05426 0.34902 0.69477 0.0
C1168 C 0.97915 0.36673 0.67566 0.0
N1169 N 0.99471 0.36379 0.68313 0.0
C1170 C 0.98023 0.38518 0.68128 0.0
C1171 C 1.01351 0.39748 0.70158 0.0
C1172 C 1.01187 0.37888 0.69528 0.0
C1173 C 0.99739 0.40072 0.69508 0.0
H1174 H 0.96578 0.35475 0.66562 0.0
H1175 H 0.02421 0.37637 0.70036 0.0
C1176 C 0.98981 0.27559 0.67041 0.0
N1177 N 0.98855 0.23908 0.6764 0.0
C1178 C 0.97303 0.25782 0.6606 0.0
C1179 C 1.00616 0.27479 0.68265 0.0
C1180 C 0.9726 0.23951 0.66401 0.0
C1181 C 1.00519 0.2562 0.68566 0.0
C1182 C 0.94654 0.30975 0.67521 0.0
C1183 C 0.93115 0.29803 0.69505 0.0
C1184 C 0.94196 0.3164 0.64926 0.0
C1185 C 0.91137 0.29309 0.68853 0.0
C1186 C 0.922 0.31114 0.64353 0.0
N1187 N 0.90724 0.29969 0.66312 0.0
C1188 C 0.97139 0.29015 0.76037 0.0
C1189 C 0.95197 0.26756 0.72238 0.0
C1190 C 0.95958 0.276 0.7817 0.0
N1191 N 0.96755 0.28561 0.73132 0.0
C1192 C 0.93968 0.25305 0.74292 0.0
C1193 C 0.9435 0.25716 0.77302 0.0
H1194 H 0.98331 0.30488 0.76705 0.0
H1195 H 0.94872 0.26465 0.69921 0.0
C1196 C 0.96419 0.29711 0.5874 0.0
N1197 N 0.95959 0.29244 0.61626 0.0
C1198 C 0.95056 0.28507 0.56557 0.0
C1199 C 0.92766 0.26398 0.60357 0.0
C1200 C 0.94169 0.27635 0.62458 0.0
C1201 C 0.93213 0.2681 0.57361 0.0
H1202 H 0.97852 0.30999 0.58136 0.0
H1203 H 0.93838 0.27299 0.64768 0.0
O1204 O 1.00741 0.33109 0.70841 0.0
O1205 O 1.00314 0.33356 0.63884 0.0
O1206 O 0.99055 0.29372 0.66691 0.0
O1207 O 0.96591 0.31435 0.68101 0.0
H1208 H 0.03314 0.36309 0.73938 0.0
H1209 H 1.00876 0.29934 0.72858 0.0
H1210 H 0.05535 0.36291 0.77885 0.0
H1211 H 0.03156 0.30024 0.76798 0.0
H1212 H 0.99732 0.38032 0.58501 0.0
H1213 H 0.03969 0.36429 0.64865 0.0
H1214 H 0.98349 0.34544 0.60374 0.0
H1215 H 0.0526 0.39882 0.62899 0.0
H1216 H 0.08788 0.35326 0.68546 0.0
H1217 H 0.06128 0.3075 0.61809 0.0
H1218 H 0.96763 0.38714 0.67522 0.0
H1219 H 0.02703 0.40898 0.71232 0.0
H1220 H 0.9604 0.25808 0.65053 0.0
H1221 H 0.01958 0.28834 0.68959 0.0
H1222 H 0.95961 0.22565 0.65671 0.0
H1223 H 1.0177 0.25539 0.69524 0.0
H1224 H 0.93445 0.29286 0.71533 0.0
H1225 H 0.95368 0.32533 0.63355 0.0
H1226 H 0.8993 0.28402 0.70369 0.0
H1227 H 0.91824 0.31612 0.62347 0.0
H1228 H 0.9626 0.27997 0.80474 0.0
H1229 H 0.92723 0.23884 0.73539 0.0
H1230 H 0.95458 0.2887 0.54264 0.0
H1231 H 0.9135 0.25128 0.61072 0.0
Li1232 Li 0.70853 0.69759 0.66928 0.0
Li1233 Li 0.68931 0.66011 0.67105 0.0
Li1234 Li 0.72071 0.67846 0.69557 0.0
Li1235 Li 0.72127 0.67681 0.64341 0.0
C1236 C 0.6983 0.68507 0.73264 0.0
N1237 N 0.70365 0.69578 0.79139 0.0
C1238 C 0.68967 0.67025 0.75438 0.0
C1239 C 0.70962 0.70534 0.74079 0.0
C1240 C 0.69256 0.67597 0.78396 0.0
C1241 C 0.71216 0.71044 0.7706 0.0
C1242 C 0.68043 0.67925 0.62345 0.0
C1243 C 0.66224 0.68091 0.58124 0.0
N1244 N 0.64909 0.68262 0.59947 0.0
C1245 C 0.66674 0.68101 0.64177 0.0
C1246 C 0.67821 0.67922 0.59295 0.0
C1247 C 0.651 0.68271 0.62922 0.0
C1248 C 0.71841 0.73486 0.6447 0.0
N1249 N 0.70655 0.72133 0.6654 0.0
C1250 C 0.69036 0.7405 0.67548 0.0
C1251 C 0.69285 0.72392 0.68101 0.0
C1252 C 0.70206 0.75445 0.65366 0.0
C1253 C 0.71647 0.75164 0.63853 0.0
H1254 H 0.729 0.73227 0.6324 0.0
H1255 H 0.68347 0.71282 0.69718 0.0
C1256 C 0.66171 0.62498 0.69834 0.0
N1257 N 0.66316 0.63652 0.67478 0.0
C1258 C 0.64335 0.60803 0.70551 0.0
C1259 C 0.62823 0.61462 0.66343 0.0
C1260 C 0.64703 0.63139 0.65685 0.0
C1261 C 0.62624 0.6028 0.68816 0.0
H1262 H 0.67485 0.62921 0.71192 0.0
H1263 H 0.64855 0.64033 0.63769 0.0
C1264 C 0.75429 0.71317 0.6794 0.0
N1265 N 0.79204 0.7375 0.70334 0.0
C1266 C 0.76851 0.70684 0.67953 0.0
C1267 C 0.75928 0.73193 0.69117 0.0
C1268 C 0.78751 0.71933 0.69184 0.0
C1269 C 0.77845 0.74401 0.70322 0.0
C1270 C 0.70551 0.63692 0.65457 0.0
C1271 C 0.71175 0.62317 0.66195 0.0
C1272 C 0.69322 0.63325 0.62985 0.0
C1273 C 0.7055 0.60597 0.6447 0.0
C1274 C 0.68726 0.61586 0.61321 0.0
N1275 N 0.69347 0.60269 0.62091 0.0
C1276 C 0.73555 0.66013 0.73295 0.0
C1277 C 0.7478 0.69418 0.74615 0.0
C1278 C 0.74777 0.65833 0.75406 0.0
N1279 N 0.736 0.67792 0.72895 0.0
C1280 C 0.76025 0.69303 0.76769 0.0
C1281 C 0.76042 0.67494 0.77168 0.0
H1282 H 0.72592 0.64737 0.71936 0.0
H1283 H 0.74794 0.70819 0.7428 0.0
C1284 C 0.73854 0.68567 0.5858 0.0
N1285 N 0.73749 0.67659 0.61192 0.0
C1286 C 0.75263 0.68756 0.56461 0.0
C1287 C 0.76399 0.67048 0.59749 0.0
C1288 C 0.74962 0.6688 0.6179 0.0
C1289 C 0.76592 0.68032 0.57066 0.0
H1290 H 0.72879 0.69186 0.58172 0.0
H1291 H 0.74861 0.66186 0.63901 0.0
O1292 O 0.69565 0.67981 0.70353 0.0
O1293 O 0.69622 0.67804 0.6352 0.0
O1294 O 0.73561 0.70117 0.66758 0.0
O1295 O 0.71171 0.65391 0.67131 0.0
H1296 H 0.68082 0.65451 0.74851 0.0
H1297 H 0.71661 0.71699 0.7243 0.0
H1298 H 0.68596 0.66466 0.80102 0.0
H1299 H 0.72097 0.72606 0.7772 0.0
H1300 H 0.66032 0.6809 0.55766 0.0
H1301 H 0.66815 0.68086 0.66543 0.0
H1302 H 0.68874 0.67793 0.57849 0.0
H1303 H 0.64028 0.68406 0.64314 0.0
H1304 H 0.67916 0.74218 0.68772 0.0
H1305 H 0.72558 0.76188 0.62123 0.0
H1306 H 0.64238 0.59954 0.72509 0.0
H1307 H 0.61534 0.61103 0.64957 0.0
H1308 H 0.76482 0.6923 0.67068 0.0
H1309 H 0.74842 0.73706 0.69113 0.0
H1310 H 0.79862 0.71455 0.69234 0.0
H1311 H 0.78252 0.75854 0.71252 0.0
H1312 H 0.72145 0.62576 0.68069 0.0
H1313 H 0.68821 0.64357 0.62347 0.0
H1314 H 0.71025 0.59524 0.65022 0.0
H1315 H 0.67771 0.61285 0.59413 0.0
H1316 H 0.74758 0.64417 0.75618 0.0
H1317 H 0.76964 0.70613 0.78108 0.0
H1318 H 0.7532 0.69473 0.54383 0.0
H1319 H 0.77389 0.66467 0.60302 0.0
Li1320 Li 0.37153 0.34154 0.67718 0.0
Li1321 Li 0.35121 0.30915 0.7004 0.0
Li1322 Li 0.35611 0.30962 0.64721 0.0
Li1323 Li 0.33438 0.32128 0.66959 0.0
C1324 C 0.38923 0.31703 0.69834 0.0
N1325 N 0.41235 0.31173 0.74021 0.0
C1326 C 0.39794 0.33081 0.72141 0.0
C1327 C 0.39235 0.30061 0.69651 0.0
C1328 C 0.4096 0.32788 0.74233 0.0
C1329 C 0.40404 0.29815 0.71794 0.0
C1330 C 0.34646 0.33433 0.73591 0.0
C1331 C 0.32534 0.32027 0.77871 0.0
N1332 N 0.34029 0.33447 0.7958 0.0
C1333 C 0.36158 0.34886 0.75388 0.0
C1334 C 0.32815 0.31998 0.74838 0.0
C1335 C 0.35818 0.34864 0.78411 0.0
C1336 C 0.39233 0.38308 0.69128 0.0
N1337 N 0.39463 0.36783 0.68051 0.0
C1338 C 0.43051 0.38912 0.67954 0.0
C1339 C 0.4132 0.37057 0.67414 0.0
C1340 C 0.42869 0.40498 0.69162 0.0
C1341 C 0.40924 0.40184 0.69718 0.0
H1342 H 0.37739 0.38041 0.69642 0.0
H1343 H 0.41463 0.35813 0.66586 0.0
C1344 C 0.3421 0.2725 0.72561 0.0
N1345 N 0.34969 0.29225 0.73266 0.0
C1346 C 0.34377 0.2594 0.74527 0.0
C1347 C 0.36035 0.28699 0.7796 0.0
C1348 C 0.35846 0.29957 0.75926 0.0
C1349 C 0.3535 0.26677 0.77233 0.0
H1350 H 0.33562 0.26713 0.70408 0.0
H1351 H 0.36499 0.31536 0.76422 0.0
C1352 C 0.36822 0.3463 0.61647 0.0
N1353 N 0.39347 0.36901 0.57124 0.0
C1354 C 0.36271 0.35728 0.59791 0.0
C1355 C 0.38657 0.34687 0.61205 0.0
C1356 C 0.37569 0.36867 0.57515 0.0
C1357 C 0.39913 0.35844 0.58907 0.0
C1358 C 0.31175 0.28181 0.66176 0.0
C1359 C 0.3069 0.27678 0.63217 0.0
C1360 C 0.29644 0.27453 0.68284 0.0
C1361 C 0.28669 0.26471 0.6241 0.0
C1362 C 0.27641 0.2625 0.67388 0.0
N1363 N 0.27199 0.2579 0.64494 0.0
C1364 C 0.35869 0.27727 0.62583 0.0
C1365 C 0.36068 0.29917 0.58754 0.0
C1366 C 0.36047 0.26451 0.6057 0.0
N1367 N 0.35912 0.29435 0.61657 0.0
C1368 C 0.36252 0.28682 0.56662 0.0
C1369 C 0.3626 0.26932 0.57567 0.0
H1370 H 0.35668 0.27345 0.64894 0.0
H1371 H 0.36013 0.31234 0.58048 0.0
C1372 C 0.30089 0.32718 0.68333 0.0
N1373 N 0.31036 0.32253 0.662 0.0
C1374 C 0.28336 0.3279 0.67678 0.0
C1375 C 0.28569 0.31897 0.62657 0.0
C1376 C 0.30322 0.31865 0.63397 0.0
C1377 C 0.27555 0.32371 0.64807 0.0
H1378 H 0.30699 0.33049 0.70536 0.0
H1379 H 0.31123 0.31535 0.6173 0.0
O1380 O 0.37719 0.31929 0.67822 0.0
O1381 O 0.34947 0.33433 0.70624 0.0
O1382 O 0.35571 0.3352 0.63893 0.0
O1383 O 0.33138 0.29391 0.67006 0.0
H1384 H 0.39535 0.34338 0.72358 0.0
H1385 H 0.38575 0.28979 0.67888 0.0
H1386 H 0.41629 0.33834 0.76042 0.0
H1387 H 0.40647 0.28543 0.7169 0.0
H1388 H 0.31128 0.3092 0.78866 0.0
H1389 H 0.37585 0.36008 0.74465 0.0
H1390 H 0.31628 0.30867 0.73481 0.0
H1391 H 0.36979 0.35972 0.7983 0.0
H1392 H 0.44521 0.39085 0.67514 0.0
H1393 H 0.40711 0.41341 0.70736 0.0
H1394 H 0.33827 0.2439 0.73889 0.0
H1395 H 0.36757 0.29316 0.80054 0.0
H1396 H 0.34855 0.357 0.60108 0.0
H1397 H 0.39097 0.33831 0.62603 0.0
H1398 H 0.37162 0.37724 0.5606 0.0
H1399 H 0.41334 0.35898 0.58536 0.0
H1400 H 0.31857 0.28238 0.61556 0.0
H1401 H 0.3 0.27815 0.70586 0.0
H1402 H 0.28269 0.26082 0.60125 0.0
H1403 H 0.26439 0.25682 0.68994 0.0
H1404 H 0.36015 0.251 0.61352 0.0
H1405 H 0.36335 0.29067 0.54354 0.0
H1406 H 0.276 0.33166 0.69394 0.0
H1407 H 0.28036 0.31599 0.60404 0.0
Li1408 Li 0.69033 0.03626 0.6733 0.0
Li1409 Li 0.72326 0.04877 0.6973 0.0
Li1410 Li 0.72013 0.04821 0.6434 0.0
Li1411 Li 0.7078 0.01653 0.66885 0.0
C1412 C 0.70825 0.07722 0.67569 0.0
N1413 N 0.69552 0.10487 0.68308 0.0
C1414 C 0.70685 0.08365 0.70389 0.0
C1415 C 0.70352 0.08508 0.65122 0.0
C1416 C 0.70027 0.09756 0.70718 0.0
C1417 C 0.69703 0.09899 0.65541 0.0
C1418 C 0.69942 0.01337 0.72952 0.0
C1419 C 0.71942 1.00399 0.7595 0.0
N1420 N 0.70345 0.99386 0.77793 0.0
C1421 C 0.68321 1.0029 0.74877 0.0
C1422 C 0.71769 0.01398 0.73494 0.0
C1423 C 0.68555 0.99313 0.77312 0.0
C1424 C 0.65011 0.02859 0.65944 0.0
N1425 N 0.66514 0.0352 0.67982 0.0
C1426 C 0.64513 0.04096 0.71451 0.0
C1427 C 0.66284 0.04106 0.70705 0.0
C1428 C 0.62942 0.03444 0.6939 0.0
C1429 C 0.63194 0.02797 0.66614 0.0
H1430 H 0.65208 0.02352 0.63818 0.0
H1431 H 0.67475 0.04563 0.72315 0.0
C1432 C 0.75828 0.08093 0.71965 0.0
N1433 N 0.74013 0.06529 0.7281 0.0
C1434 C 0.77081 0.09545 0.74005 0.0
C1435 C 0.74569 0.07746 0.7775 0.0
C1436 C 0.73368 0.06322 0.7564 0.0
C1437 C 0.76435 0.09399 0.76924 0.0
H1438 H 0.76268 0.0825 0.69679 0.0
H1439 H 0.71897 0.05093 0.76239 0.0
C1440 C 0.68942 0.02257 0.60843 0.0
N1441 N 0.68154 0.02212 0.54901 0.0
C1442 C 0.68991 1.0082 0.59003 0.0
C1443 C 0.68472 0.03656 0.59665 0.0
C1444 C 0.68593 1.00826 0.56003 0.0
C1445 C 0.68084 0.03613 0.56655 0.0
C1446 C 0.74984 0.03905 0.64975 0.0
C1447 C 0.7438 0.02579 0.62589 0.0
C1448 C 0.77034 0.05255 0.65435 0.0
C1449 C 0.75838 0.02629 0.60694 0.0
C1450 C 0.78448 0.05259 0.63491 0.0
N1451 N 0.77826 0.03958 0.6118 0.0
C1452 C 0.74905 0.08407 0.61874 0.0
C1453 C 0.737 0.0572 0.58451 0.0
C1454 C 0.76388 0.09699 0.59902 0.0
N1455 N 0.73612 0.06454 0.61135 0.0
C1456 C 0.75152 0.06963 0.56406 0.0
C1457 C 0.76551 0.08967 0.57152 0.0
H1458 H 0.74836 0.08941 0.64048 0.0
H1459 H 0.72708 0.04154 0.5793 0.0
C1460 C 0.68774 0.97532 0.6541 0.0
N1461 N 0.70487 0.99032 0.6664 0.0
C1462 C 0.68609 0.95671 0.64787 0.0
C1463 C 0.71941 0.96902 0.66824 0.0
C1464 C 0.72044 0.98743 0.674 0.0
C1465 C 0.70217 0.95345 0.65461 0.0
H1466 H 0.67572 0.97813 0.64791 0.0
H1467 H 0.73401 0.99969 0.68343 0.0
O1468 O 0.71453 0.06353 0.67203 0.0
O1469 O 0.69739 0.02325 0.70587 0.0
O1470 O 0.69332 0.02279 0.63786 0.0
O1471 O 0.73574 0.03917 0.66806 0.0
H1472 H 0.71057 0.07779 0.72306 0.0
H1473 H 0.70497 0.08059 0.62922 0.0
H1474 H 0.69893 0.10253 0.7289 0.0
H1475 H 0.69326 0.10516 0.63667 0.0
H1476 H 0.73347 1.00435 0.76397 0.0
H1477 H 0.66901 1.00241 0.74496 0.0
H1478 H 0.73048 0.02222 0.72052 0.0
H1479 H 0.67314 0.98499 0.78822 0.0
H1480 H 0.64351 0.04539 0.73651 0.0
H1481 H 0.61998 0.02247 0.64991 0.0
H1482 H 0.78505 0.10804 0.7329 0.0
H1483 H 0.74033 0.07573 0.79995 0.0
H1484 H 0.69346 0.9972 0.59874 0.0
H1485 H 0.68409 0.04763 0.61062 0.0
H1486 H 0.68638 0.99731 0.54551 0.0
H1487 H 0.67726 0.04692 0.55713 0.0
H1488 H 0.72799 0.01545 0.62175 0.0
H1489 H 0.77529 0.0629 0.67272 0.0
H1490 H 0.7539 0.0162 0.58828 0.0
H1491 H 0.8004 0.06297 0.63819 0.0
H1492 H 0.77439 0.11234 0.6056 0.0
H1493 H 0.752 0.06351 0.54281 0.0
H1494 H 0.67278 0.9454 0.6365 0.0
H1495 H 0.73219 0.96718 0.67356 0.0
Li1496 Li 0.98117 0.68073 0.6974 0.0
Li1497 Li 0.99352 0.65955 0.67581 0.0
Li1498 Li 1.01182 0.69729 0.66763 0.0
Li1499 Li 0.97925 0.67537 0.64404 0.0
C1500 C 1.01123 0.68739 0.73389 0.0
N1501 N 1.01786 0.69838 0.79247 0.0
C1502 C 1.01032 0.67373 0.75504 0.0
C1503 C 1.01564 0.70668 0.74246 0.0
C1504 C 1.01369 0.67957 0.78457 0.0
C1505 C 0.01891 0.71194 0.77221 0.0
C1506 C 0.9509 0.63602 0.67519 0.0
C1507 C 0.92923 0.60537 0.64881 0.0
N1508 N 0.9202 0.59633 0.67457 0.0
C1509 C 0.94122 0.62654 0.70133 0.0
C1510 C 0.94472 0.62545 0.64866 0.0
C1511 C 0.92582 0.60642 0.70059 0.0
C1512 C 0.95687 0.694 0.72376 0.0
N1513 N 0.96598 0.68295 0.72896 0.0
C1514 C 0.94958 0.6725 0.77558 0.0
C1515 C 0.96261 0.6723 0.75427 0.0
C1516 C 0.93978 0.6836 0.77064 0.0
C1517 C 0.94369 0.6946 0.74444 0.0
H1518 H 0.9593 0.70179 0.70306 0.0
H1519 H 0.9695 0.66312 0.75753 0.0
C1520 C 1.00928 0.63311 0.66605 0.0
N1521 N 0.99635 0.63639 0.68249 0.0
C1522 C 1.01154 0.61637 0.67157 0.0
C1523 C 0.98739 0.60692 0.71108 0.0
C1524 C 0.98566 0.62382 0.70487 0.0
C1525 C 1.0004 0.60294 0.69425 0.0
H1526 H 0.01809 0.64363 0.64893 0.0
H1527 H 0.97615 0.62719 0.71842 0.0
C1528 C 0.99208 0.7165 0.64673 0.0
N1529 N 1.0006 0.74768 0.60828 0.0
C1530 C 1.00019 0.717 0.61903 0.0
C1531 C 0.9884 0.73193 0.65495 0.0
C1532 C 1.00435 0.73285 0.59986 0.0
C1533 C 0.9928 0.74756 0.6352 0.0
C1534 C 1.00603 0.66819 0.61119 0.0
C1535 C 0.01927 0.68149 0.59004 0.0
C1536 C 0.99387 0.64781 0.60419 0.0
C1537 C 0.01983 0.67421 0.56209 0.0
C1538 C 0.9949 0.64112 0.57601 0.0
N1539 N 1.00772 0.65435 0.5557 0.0
C1540 C 0.0524 0.71864 0.64979 0.0
C1541 C 0.04065 0.73926 0.67048 0.0
C1542 C 0.07103 0.73555 0.64341 0.0
N1543 N 0.0376 0.7208 0.6627 0.0
C1544 C 0.05906 0.75661 0.66442 0.0
C1545 C 0.07451 0.75488 0.65056 0.0
H1546 H 0.04951 0.70379 0.64372 0.0
H1547 H 0.02863 0.74057 0.68078 0.0
C1548 C 0.94309 0.66868 0.62129 0.0
N1549 N 0.96133 0.67171 0.61224 0.0
C1550 C 0.9287 0.66695 0.60083 0.0
C1551 C 0.95202 0.67126 0.56194 0.0
C1552 C 0.96599 0.67292 0.58317 0.0
C1553 C 0.9332 0.6685 0.57073 0.0
H1554 H 0.93985 0.66789 0.64456 0.0
H1555 H 0.98064 0.67569 0.57636 0.0
O1556 O 1.00767 0.68187 0.70494 0.0
O1557 O 0.96597 0.65572 0.67555 0.0
O1558 O 0.98808 0.70123 0.666 0.0
O1559 O 1.00514 0.6751 0.63861 0.0
H1560 H 1.00692 0.65874 0.74873 0.0
H1561 H 1.01631 0.71738 0.72634 0.0
H1562 H 1.01294 0.66913 0.80123 0.0
H1563 H 0.02224 0.72678 0.77919 0.0
H1564 H 0.92434 0.59698 0.62844 0.0
H1565 H 0.94569 0.63457 0.72201 0.0
H1566 H 0.95166 0.6327 0.62812 0.0
H1567 H 0.91833 0.59883 0.7207 0.0
H1568 H 0.94695 0.66381 0.79553 0.0
H1569 H 0.93611 0.70298 0.73951 0.0
H1570 H 0.02202 0.61406 0.65847 0.0
H1571 H 0.97916 0.59746 0.72957 0.0
H1572 H 1.00329 0.70533 0.61241 0.0
H1573 H 0.98237 0.73195 0.67646 0.0
H1574 H 1.01059 0.73337 0.57833 0.0
H1575 H 0.99005 0.75961 0.64129 0.0
H1576 H 0.02891 0.6973 0.59507 0.0
H1577 H 0.98386 0.63724 0.6204 0.0
H1578 H 0.0299 0.68436 0.54547 0.0
H1579 H 0.98553 0.62539 0.5703 0.0
H1580 H 0.0823 0.73356 0.63192 0.0
H1581 H 0.0611 0.77124 0.67005 0.0
H1582 H 0.91427 0.66457 0.60848 0.0
H1583 H 0.95613 0.67274 0.5389 0.0
H1584 H 0.24654 0.34625 0.11709 0.0
H1585 H 0.20599 0.36072 0.07344 0.0
H1586 H 0.19279 0.33501 0.16139 0.0
H1587 H 0.17699 0.35115 0.16709 0.0
H1588 H 0.13006 0.35586 0.12434 0.0
H1589 H 0.17356 0.35079 0.07149 0.0
C1590 C 0.23235 0.34624 0.11712 0.0
C1591 C 0.22047 0.34048 0.14239 0.0
C1592 C 0.2268 0.35288 0.09216 0.0
C1593 C 0.20926 0.35439 0.09249 0.0
C1594 C 0.19657 0.34825 0.11763 0.0
C1595 C 0.20228 0.34074 0.14217 0.0
C1596 C 0.17798 0.35031 0.119 0.0
C1597 C 0.16985 0.35123 0.14663 0.0
C1598 C 0.1525 0.35286 0.14837 0.0
C1599 C 0.14347 0.35446 0.1228 0.0
C1600 C 0.1513 0.3542 0.09526 0.0
C1601 C 0.16824 0.35168 0.09315 0.0
H1602 H 0.68455 0.90564 0.11713 0.0
H1603 H 0.66872 0.85072 0.07247 0.0
H1604 H 0.69301 0.86146 0.16144 0.0
H1605 H 0.67785 0.82971 0.16589 0.0
H1606 H 0.67219 0.77834 0.12132 0.0
H1607 H 0.67694 0.82732 0.07016 0.0
C1608 C 0.68398 0.8912 0.11695 0.0
C1609 C 0.68922 0.88456 0.14216 0.0
C1610 C 0.67728 0.87933 0.09172 0.0
C1611 C 0.67498 0.85996 0.09185 0.0
C1612 C 0.68044 0.85276 0.11704 0.0
C1613 C 0.68793 0.86567 0.14196 0.0
C1614 C 0.67802 0.83194 0.11783 0.0
C1615 C 0.6774 0.82264 0.14515 0.0
C1616 C 0.67568 0.8036 0.14631 0.0
C1617 C 0.67355 0.79313 0.12037 0.0
C1618 C 0.67346 0.80142 0.09314 0.0
C1619 C 0.67622 0.82097 0.09165 0.0
H1620 H 0.24856 0.90571 0.11571 0.0
H1621 H 0.20412 0.85475 0.06797 0.0
H1622 H 0.19738 0.86116 0.16193 0.0
H1623 H 0.17708 0.83014 0.16324 0.0
H1624 H 0.12808 0.78221 0.11768 0.0
H1625 H 0.17297 0.83141 0.06771 0.0
C1626 C 0.23423 0.89167 0.11537 0.0
C1627 C 0.22387 0.88391 0.14153 0.0
C1628 C 0.22678 0.88147 0.0889 0.0
C1629 C 0.2088 0.86272 0.08863 0.0
C1630 C 0.19748 0.85457 0.11494 0.0
C1631 C 0.20526 0.86597 0.14124 0.0
C1632 C 0.17812 0.83429 0.11537 0.0
C1633 C 0.16973 0.82422 0.14243 0.0
C1634 C 0.15165 0.80572 0.14322 0.0
C1635 C 0.14204 0.7966 0.11705 0.0
C1636 C 0.14992 0.8057 0.09003 0.0
C1637 C 0.16772 0.82457 0.08902 0.0
H1638 H 0.35466 0.11968 0.89758 0.0
H1639 H 0.36834 0.17428 0.94183 0.0
H1640 H 0.34781 0.16388 0.85076 0.0
H1641 H 0.36104 0.19527 0.84661 0.0
H1642 H 0.3648 0.24615 0.88985 0.0
H1643 H 0.36053 0.19789 0.94235 0.0
C1644 C 0.35548 0.13424 0.89731 0.0
C1645 C 0.3512 0.14103 0.87146 0.0
C1646 C 0.36126 0.14603 0.92264 0.0
C1647 C 0.36307 0.16523 0.92213 0.0
C1648 C 0.35842 0.17248 0.89614 0.0
C1649 C 0.35221 0.15976 0.87097 0.0
C1650 C 0.36029 0.19311 0.89479 0.0
C1651 C 0.36102 0.20223 0.86721 0.0
C1652 C 0.36227 0.22105 0.8656 0.0
C1653 C 0.36372 0.2315 0.89126 0.0
C1654 C 0.36358 0.22338 0.91872 0.0
C1655 C 0.36139 0.20406 0.92069 0.0
H1656 H 0.78484 0.12393 0.8904 0.0
H1657 H 0.83506 0.16702 0.94118 0.0
H1658 H 0.83571 0.17059 0.84566 0.0
H1659 H 0.86798 0.18509 0.85021 0.0
H1660 H 0.91278 0.23802 0.89368 0.0
H1661 H 0.85739 0.19978 0.93836 0.0
C1662 C 0.79968 0.13733 0.89126 0.0
C1663 C 0.80962 0.14632 0.86518 0.0
C1664 C 0.80857 0.14505 0.91848 0.0
C1665 C 0.82818 0.1618 0.91982 0.0
C1666 C 0.83865 0.17144 0.89358 0.0
C1667 C 0.82884 0.16347 0.8663 0.0
C1668 C 0.85955 0.18963 0.89429 0.0
C1669 C 0.87243 0.19463 0.86947 0.0
C1670 C 0.89147 0.21209 0.86911 0.0
C1671 C 0.89821 0.22427 0.89403 0.0
C1672 C 0.88619 0.21959 0.91906 0.0
C1673 C 0.86676 0.20253 0.91918 0.0
H1674 H 0.7878 0.67579 0.89377 0.0
H1675 H 0.8372 0.67835 0.94128 0.0
H1676 H 0.83328 0.67137 0.84606 0.0
H1677 H 0.86524 0.68416 0.84665 0.0
H1678 H 0.90865 0.6739 0.88988 0.0
H1679 H 0.8581 0.66711 0.93912 0.0
C1680 C 0.80198 0.67578 0.89369 0.0
C1681 C 0.80994 0.674 0.86713 0.0
C1682 C 0.81153 0.67683 0.92026 0.0
C1683 C 0.82995 0.67697 0.92033 0.0
C1684 C 0.83872 0.67555 0.89353 0.0
C1685 C 0.82809 0.6737 0.86699 0.0
C1686 C 0.85852 0.67564 0.89302 0.0
C1687 C 0.86987 0.67997 0.86662 0.0
C1688 C 0.88748 0.67871 0.86543 0.0
C1689 C 0.89486 0.67463 0.89087 0.0
C1690 C 0.88459 0.6711 0.91745 0.0
C1691 C 0.86622 0.67104 0.91853 0.0
H1692 H 0.91412 0.68054 0.44951 0.0
H1693 H 0.87345 0.69383 0.40339 0.0
H1694 H 0.86014 0.66996 0.49239 0.0
H1695 H 0.84415 0.6863 0.49619 0.0
H1696 H 0.79561 0.6867 0.45096 0.0
H1697 H 0.84032 0.68189 0.40073 0.0
C1698 C 0.89995 0.68056 0.44895 0.0
C1699 C 0.88786 0.67506 0.47398 0.0
C1700 C 0.89457 0.68687 0.42347 0.0
C1701 C 0.87679 0.688 0.42294 0.0
C1702 C 0.86396 0.68218 0.44793 0.0
C1703 C 0.86967 0.6753 0.47315 0.0
C1704 C 0.84505 0.6837 0.44833 0.0
C1705 C 0.83678 0.6853 0.47547 0.0
C1706 C 0.8189 0.68607 0.47629 0.0
C1707 C 0.80944 0.68603 0.45018 0.0
C1708 C 0.81729 0.68485 0.42308 0.0
C1709 C 0.83493 0.68347 0.42198 0.0
H1710 H 0.35229 0.23889 0.45564 0.0
H1711 H 0.33586 0.18404 0.40989 0.0
H1712 H 0.35951 0.19353 0.49903 0.0
H1713 H 0.34179 0.16094 0.50195 0.0
H1714 H 0.34245 0.11284 0.45567 0.0
H1715 H 0.34801 0.16303 0.40677 0.0
C1716 C 0.35144 0.22432 0.45509 0.0
C1717 C 0.35637 0.21724 0.48014 0.0
C1718 C 0.34447 0.21258 0.42974 0.0
C1719 C 0.34216 0.19321 0.42936 0.0
C1720 C 0.34757 0.18579 0.4543 0.0
C1721 C 0.35482 0.19825 0.4796 0.0
C1722 C 0.34552 0.1652 0.45436 0.0
C1723 C 0.34321 0.15483 0.48124 0.0
C1724 C 0.3422 0.13607 0.48173 0.0
C1725 C 0.34308 0.12731 0.45535 0.0
C1726 C 0.34471 0.13676 0.42849 0.0
C1727 C 0.3461 0.15573 0.42783 0.0
H1728 H 0.91154 0.2396 0.45046 0.0
H1729 H 0.87216 0.18544 0.404 0.0
H1730 H 0.85964 0.19404 0.49455 0.0
H1731 H 0.84342 0.16231 0.49785 0.0
H1732 H 0.79745 0.11129 0.45295 0.0
H1733 H 0.84048 0.16145 0.40213 0.0
C1734 C 0.89777 0.22505 0.45002 0.0
C1735 C 0.88639 0.2176 0.47556 0.0
C1736 C 0.89233 0.21374 0.42419 0.0
C1737 C 0.87534 0.19425 0.42388 0.0
C1738 C 0.86301 0.18637 0.44931 0.0
C1739 C 0.86871 0.19872 0.47486 0.0
C1740 C 0.84476 0.16535 0.44982 0.0
C1741 C 0.83658 0.15554 0.47706 0.0
C1742 C 0.81946 0.13633 0.47805 0.0
C1743 C 0.81074 0.12621 0.45203 0.0
C1744 C 0.81855 0.13501 0.42482 0.0
C1745 C 0.83524 0.15471 0.42353 0.0
H1746 H 0.0206 0.45274 0.22409 0.0
H1747 H 0.03382 0.5065 0.27041 0.0
H1748 H 1.00945 0.4957 0.18155 0.0
H1749 H 0.02403 0.52751 0.17739 0.0
H1750 H 0.02722 0.57755 0.2227 0.0
H1751 H 0.02401 0.52888 0.27314 0.0
C1752 C 0.02056 0.46688 0.22478 0.0
C1753 C 1.0149 0.4734 0.19986 0.0
C1754 C 0.02696 0.47856 0.25025 0.0
C1755 C 0.0279 0.49736 0.25087 0.0
C1756 C 0.02192 0.50434 0.22594 0.0
C1757 C 1.01495 0.49169 0.20077 0.0
C1758 C 0.02347 0.5248 0.22544 0.0
C1759 C 0.02397 0.53421 0.19825 0.0
C1760 C 0.02482 0.55287 0.19745 0.0
C1761 C 0.02629 0.56294 0.2235 0.0
C1762 C 0.02649 0.55453 0.25059 0.0
C1763 C 0.02461 0.53533 0.25177 0.0
H1764 H 0.45537 0.45195 0.22642 0.0
H1765 H 0.50064 0.50061 0.27679 0.0
H1766 H 0.50569 0.49883 0.1815 0.0
H1767 H 0.53678 0.51867 0.18653 0.0
H1768 H 0.57809 0.57301 0.23015 0.0
H1769 H 0.52351 0.53198 0.27414 0.0
C1770 C 0.46966 0.46602 0.22722 0.0
C1771 C 0.48056 0.47396 0.20145 0.0
C1772 C 0.47663 0.47589 0.25401 0.0
C1773 C 0.49529 0.4939 0.25542 0.0
C1774 C 0.50663 0.50277 0.22938 0.0
C1775 C 0.49844 0.49264 0.20228 0.0
C1776 C 0.52678 0.5222 0.23019 0.0
C1777 C 0.5401 0.5281 0.20571 0.0
C1778 C 0.5584 0.54639 0.20557 0.0
C1779 C 0.56406 0.55868 0.23033 0.0
C1780 C 0.55175 0.55323 0.2551 0.0
C1781 C 0.53303 0.53525 0.25504 0.0
H1782 H 0.45218 1.00058 0.22512 0.0
H1783 H 0.50161 1.00427 0.27441 0.0
H1784 H 0.50032 1.00042 0.17882 0.0
H1785 H 0.53222 0.01477 0.1811 0.0
H1786 H 0.5761 1.00489 0.22335 0.0
H1787 H 0.52354 0.9937 0.27174 0.0
C1788 C 0.46658 1.00103 0.22563 0.0
C1789 C 0.47579 1.00102 0.19934 0.0
C1790 C 0.4757 1.00189 0.25256 0.0
C1791 C 0.49459 1.00293 0.25326 0.0
C1792 C 0.50428 1.00275 0.22667 0.0
C1793 C 0.49426 1.00145 0.19976 0.0
C1794 C 0.52464 1.00402 0.22654 0.0
C1795 C 0.53667 1.00999 0.20067 0.0
C1796 C 0.55481 1.00978 0.19948 0.0
C1797 C 0.56195 1.00494 0.22443 0.0
C1798 C 0.55094 0.99963 0.25054 0.0
C1799 C 0.53218 0.99882 0.25163 0.0
H1800 H 0.57961 0.01394 0.78362 0.0
H1801 H 0.54018 0.02912 0.73788 0.0
H1802 H 0.5273 1.00692 0.82774 0.0
H1803 H 0.51286 0.02491 0.83097 0.0
H1804 H 0.46403 0.02521 0.78622 0.0
H1805 H 0.50687 0.01738 0.736 0.0
C1806 C 0.56579 0.01464 0.78325 0.0
C1807 C 0.5542 1.01024 0.8087 0.0
C1808 C 0.56052 0.02097 0.75769 0.0
C1809 C 0.54338 0.02321 0.75748 0.0
C1810 C 0.53095 0.0183 0.7828 0.0
C1811 C 0.53653 0.01144 0.80816 0.0
C1812 C 0.51259 0.02073 0.78335 0.0
C1813 C 0.50513 0.02355 0.81045 0.0
C1814 C 0.48762 0.02501 0.81148 0.0
C1815 C 0.47775 0.02433 0.78542 0.0
C1816 C 0.48485 0.02197 0.75835 0.0
C1817 C 0.50211 0.01997 0.75715 0.0
H1818 H 1.01731 0.57205 0.78508 0.0
H1819 H 1.01172 0.52198 0.73606 0.0
H1820 H 1.01604 0.52338 0.83167 0.0
H1821 H 0.02633 0.50282 0.82858 0.0
H1822 H 1.01561 0.44941 0.78485 0.0
H1823 H 1.00332 0.49067 0.73872 0.0
C1824 C 1.01667 0.55758 0.78467 0.0
C1825 C 1.01785 0.54896 0.81095 0.0
C1826 C 1.0139 0.54761 0.75799 0.0
C1827 C 1.01313 0.52889 0.75727 0.0
C1828 C 1.01451 0.5197 0.78372 0.0
C1829 C 1.01607 0.52987 0.81062 0.0
C1830 C 1.01472 0.5 0.78361 0.0
C1831 C 0.02104 0.49374 0.80896 0.0
C1832 C 0.02108 0.47551 0.80942 0.0
C1833 C 1.01564 0.46359 0.78435 0.0
C1834 C 1.0096 0.46924 0.7589 0.0
C1835 C 1.00881 0.48719 0.75847 0.0
H1836 H 0.58088 0.57395 0.78359 0.0
H1837 H 0.53474 0.52468 0.73531 0.0
H1838 H 0.53244 0.5264 0.83087 0.0
H1839 H 0.5013 0.50597 0.82768 0.0
H1840 H 0.45975 0.4512 0.78505 0.0
H1841 H 0.51228 0.49347 0.73824 0.0
C1842 C 0.56666 0.5598 0.7835 0.0
C1843 C 0.55692 0.5515 0.81 0.0
C1844 C 0.55888 0.54988 0.75691 0.0
C1845 C 0.54056 0.53152 0.75647 0.0
C1846 C 0.53013 0.52253 0.78305 0.0
C1847 C 0.53906 0.53273 0.80982 0.0
C1848 C 0.51025 0.50279 0.78313 0.0
C1849 C 0.49769 0.49651 0.80849 0.0
C1850 C 0.47975 0.47785 0.80942 0.0
C1851 C 0.47362 0.46567 0.7845 0.0
C1852 C 0.48507 0.47158 0.75886 0.0
C1853 C 0.50347 0.48986 0.75815 0.0
H1854 H 0.69417 0.78924 0.56 0.0
H1855 H 0.68962 0.83433 0.60908 0.0
H1856 H 0.69447 0.83772 0.51361 0.0
H1857 H 0.6791 0.85462 0.5163 0.0
H1858 H 0.68822 0.90777 0.56002 0.0
H1859 H 0.70037 0.86669 0.60684 0.0
C1860 C 0.69363 0.80313 0.56034 0.0
C1861 C 0.69406 0.81253 0.53396 0.0
C1862 C 0.69251 0.81121 0.58722 0.0
C1863 C 0.69119 0.82884 0.58792 0.0
C1864 C 0.69153 0.83882 0.56138 0.0
C1865 C 0.69326 0.8304 0.53443 0.0
C1866 C 0.69012 0.8578 0.5615 0.0
C1867 C 0.68387 0.86383 0.53589 0.0
C1868 C 0.68329 0.88182 0.53527 0.0
C1869 C 0.68839 0.89369 0.56049 0.0
C1870 C 0.69401 0.88799 0.58629 0.0
C1871 C 0.69517 0.87027 0.58685 0.0
H1872 H 0.12061 0.78608 0.55769 0.0
H1873 H 0.16324 0.83847 0.6045 0.0
H1874 H 0.17544 0.82731 0.51499 0.0
H1875 H 0.19621 0.85828 0.51159 0.0
H1876 H 0.24471 0.90579 0.55861 0.0
H1877 H 0.19433 0.8613 0.60715 0.0
C1878 C 0.13511 0.79991 0.55823 0.0
C1879 C 0.14729 0.80596 0.53331 0.0
C1880 C 0.14113 0.81138 0.58386 0.0
C1881 C 0.1595 0.8297 0.58455 0.0
C1882 C 0.1724 0.8364 0.55952 0.0
C1883 C 0.16602 0.82381 0.5342 0.0
C1884 C 0.1923 0.85611 0.55952 0.0
C1885 C 0.20264 0.86471 0.53271 0.0
C1886 C 0.22176 0.88205 0.53259 0.0
C1887 C 0.23021 0.89194 0.55888 0.0
C1888 C 0.21997 0.88478 0.58539 0.0
C1889 C 0.20136 0.86672 0.58599 0.0
H1890 H 0.12558 0.34765 0.56164 0.0
H1891 H 0.16973 0.34097 0.61019 0.0
H1892 H 0.17213 0.34507 0.51455 0.0
H1893 H 0.20322 0.35575 0.51776 0.0
H1894 H 0.24445 0.34169 0.55927 0.0
H1895 H 0.19222 0.33183 0.60696 0.0
C1896 C 0.13928 0.34672 0.56195 0.0
C1897 C 0.14892 0.34774 0.53561 0.0
C1898 C 0.14644 0.34374 0.58855 0.0
C1899 C 0.16422 0.34256 0.58907 0.0
C1900 C 0.17459 0.34372 0.56249 0.0
C1901 C 0.16594 0.34542 0.5357 0.0
C1902 C 0.19426 0.3434 0.56224 0.0
C1903 C 0.20675 0.34969 0.5368 0.0
C1904 C 0.22451 0.34868 0.53549 0.0
C1905 C 0.23068 0.34247 0.56018 0.0
C1906 C 0.21931 0.33686 0.58594 0.0
C1907 C 0.201 0.33698 0.58701 0.0
C1908 C 0.99656 0.42815 0.14999 0.0
C1909 C 1.00916 0.43619 0.1253 0.0
C1910 C 0.99732 0.44057 0.17312 0.0
C1911 C 1.01072 0.46149 0.17243 0.0
H1912 H 0.98647 0.41205 0.15187 0.0
H1913 H 0.98803 0.43366 0.19235 0.0
S1914 S 0.04622 0.49017 0.11223 0.0
N1915 N 0.03483 0.46652 0.10097 0.0
N1916 N 0.03619 0.48985 0.14451 0.0
C1917 C 0.02261 0.46988 0.1472 0.0
C1918 C 0.02187 0.45723 0.12362 0.0
C1919 C 0.57645 0.56871 0.13 0.0
C1920 C 0.59755 0.57767 0.13273 0.0
C1921 C 0.56355 0.55706 0.15286 0.0
C1922 C 0.57135 0.55393 0.17907 0.0
H1923 H 0.56995 0.57167 0.1108 0.0
H1924 H 0.54753 0.55159 0.15077 0.0
S1925 S 0.62505 0.57108 0.19495 0.0
N1926 N 0.62537 0.58047 0.16212 0.0
N1927 N 0.60111 0.55845 0.20492 0.0
C1928 C 0.59224 0.56147 0.18106 0.0
C1929 C 0.60535 0.57341 0.15796 0.0
C1930 C 0.46219 0.02204 0.13391 0.0
C1931 C 0.44268 1.00629 0.12681 0.0
C1932 C 0.47366 0.01971 0.15602 0.0
C1933 C 0.466 1.00156 0.17167 0.0
H1934 H 0.46827 0.03658 0.1233 0.0
H1935 H 0.4881 0.03252 0.16204 0.0
S1936 S 0.41726 0.95489 0.15903 0.0
N1937 N 0.41736 0.97114 0.13506 0.0
N1938 N 0.43879 0.96711 0.17717 0.0
C1939 C 0.44712 0.98538 0.16376 0.0
C1940 C 0.43548 0.98766 0.1412 0.0
C1941 C 0.45767 1.00791 0.88206 0.0
C1942 C 0.45138 0.02219 0.88546 0.0
C1943 C 0.47093 1.00975 0.85934 0.0
C1944 C 0.47835 0.02599 0.83953 0.0
H1945 H 0.4515 0.99471 0.89603 0.0
H1946 H 0.47436 0.99778 0.85614 0.0
S1947 S 0.46925 0.06909 0.84218 0.0
N1948 N 0.45562 0.05435 0.86948 0.0
N1949 N 0.48048 0.05775 0.82689 0.0
C1950 C 0.47337 0.04108 0.84412 0.0
C1951 C 0.45987 0.03919 0.86705 0.0
C1952 C 1.01218 0.44805 0.88142 0.0
C1953 C 0.02741 0.44283 0.88141 0.0
C1954 C 1.01127 0.46033 0.8593 0.0
C1955 C 0.02547 0.46765 0.83639 0.0
H1956 H 1.00055 0.44209 0.89814 0.0
H1957 H 0.99869 0.46309 0.85911 0.0
S1958 S 0.06893 0.45954 0.82722 0.0
N1959 N 0.05762 0.44695 0.85739 0.0
N1960 N 0.05575 0.46993 0.81578 0.0
C1961 C 0.04129 0.46342 0.83693 0.0
C1962 C 0.04232 0.45104 0.85948 0.0
C1963 C 0.58371 0.59559 0.86234 0.0
C1964 C 0.58945 0.58749 0.88564 0.0
C1965 C 0.57219 0.58351 0.83883 0.0
C1966 C 0.56607 0.56287 0.83756 0.0
H1967 H 0.58843 0.61148 0.86206 0.0
H1968 H 0.56851 0.59051 0.82101 0.0
S1969 S 0.57677 0.53423 0.89343 0.0
N1970 N 0.58767 0.55743 0.90653 0.0
N1971 N 0.56614 0.53474 0.86206 0.0
C1972 C 0.57106 0.5544 0.86122 0.0
C1973 C 0.58276 0.56671 0.8853 0.0
C1974 C 0.03834 0.59318 0.86305 0.0
C1975 C 0.0233 0.58669 0.88477 0.0
C1976 C 0.03712 0.58032 0.84033 0.0
C1977 C 0.02082 0.56047 0.83845 0.0
H1978 H 0.05087 0.60852 0.86317 0.0
H1979 H 0.04861 0.58618 0.82338 0.0
S1980 S 0.97796 0.53581 0.89036 0.0
N1981 N 0.99197 0.55882 0.90358 0.0
N1982 N 0.9898 0.5346 0.86073 0.0
C1983 C 1.0062 0.55343 0.86073 0.0
C1984 C 1.00741 0.56656 0.88393 0.0
C1985 C 0.43346 0.44955 0.85701 0.0
C1986 C 0.44134 0.44617 0.88288 0.0
C1987 C 0.4462 0.4614 0.83429 0.0
C1988 C 0.46729 0.47007 0.83642 0.0
H1989 H 0.41728 0.44243 0.85393 0.0
H1990 H 0.43944 0.46294 0.81422 0.0
S1991 S 0.49546 0.46672 0.90051 0.0
N1992 N 0.47151 0.45341 0.9103 0.0
N1993 N 0.49553 0.47541 0.86723 0.0
C1994 C 0.47543 0.46775 0.86288 0.0
C1995 C 0.46242 0.4558 0.88618 0.0
C1996 C 0.58021 0.99087 0.85867 0.0
C1997 C 0.58562 1.00389 0.883 0.0
C1998 C 0.56858 0.99192 0.83568 0.0
C1999 C 0.56197 1.00605 0.83612 0.0
H2000 H 0.58555 0.98022 0.85693 0.0
H2001 H 0.56553 0.98223 0.81673 0.0
S2002 S 0.57125 0.0429 0.89542 0.0
N2003 N 0.58273 0.03074 0.90679 0.0
N2004 N 0.56085 0.03269 0.86349 0.0
C2005 C 0.56633 0.0184 0.86103 0.0
C2006 C 0.57819 0.01735 0.88448 0.0
C2007 C 0.57594 0.99763 0.13306 0.0
C2008 C 0.59319 0.01624 0.12655 0.0
C2009 C 0.56257 0.996 0.15533 0.0
C2010 C 0.56599 0.01291 0.1718 0.0
H2011 H 0.57305 0.98413 0.12137 0.0
H2012 H 0.55002 0.98125 0.16071 0.0
S2013 S 0.60829 0.06507 0.16294 0.0
N2014 N 0.61246 0.05205 0.13774 0.0
N2015 N 0.58724 0.0488 0.1798 0.0
C2016 C 0.58264 0.03169 0.16485 0.0
C2017 C 0.59625 0.03342 0.14209 0.0
C2018 C 1.00334 0.56932 0.13587 0.0
C2019 C 0.02053 0.58668 0.12518 0.0
C2020 C 1.00498 0.55737 0.15786 0.0
C2021 C 0.02386 0.56229 0.16968 0.0
H2022 H 0.98843 0.56548 0.12821 0.0
H2023 H 0.99134 0.54484 0.16678 0.0
S2024 S 0.07357 0.60444 0.14698 0.0
N2025 N 0.0572 0.60682 0.12613 0.0
N2026 N 0.06008 0.58453 0.16794 0.0
C2027 C 0.04119 0.57887 0.15821 0.0
C2028 C 0.03958 0.59103 0.13582 0.0
C2029 C 0.45586 0.45762 0.12651 0.0
C2030 C 0.44943 0.43689 0.12655 0.0
C2031 C 0.46725 0.4701 0.14997 0.0
C2032 C 0.47262 0.46219 0.17397 0.0
H2033 H 0.45119 0.46399 0.10901 0.0
H2034 H 0.47088 0.48569 0.15011 0.0
S2035 S 0.46238 0.40977 0.18205 0.0
N2036 N 0.45125 0.40963 0.15085 0.0
N2037 N 0.47286 0.43307 0.1946 0.0
C2038 C 0.46754 0.44186 0.1731 0.0
C2039 C 0.45585 0.42919 0.14949 0.0
C2040 C 0.67667 0.78187 0.4639 0.0
C2041 C 0.69092 0.77548 0.46075 0.0
C2042 C 0.67854 0.79527 0.48641 0.0
C2043 C 0.6948 0.80277 0.50626 0.0
H2044 H 0.66351 0.77575 0.44977 0.0
H2045 H 0.66663 0.79885 0.48934 0.0
S2046 S 0.73778 0.79336 0.50436 0.0
N2047 N 0.723 0.7796 0.47714 0.0
N2048 N 0.72651 0.80477 0.51927 0.0
C2049 C 0.70982 0.79761 0.50199 0.0
C2050 C 0.70787 0.78393 0.47931 0.0
C2051 C 0.23987 0.91215 0.46219 0.0
C2052 C 0.25946 0.91497 0.45918 0.0
C2053 C 0.22699 0.9002 0.48488 0.0
C2054 C 0.23329 0.89068 0.50521 0.0
H2055 H 0.2348 0.91998 0.44778 0.0
H2056 H 0.21249 0.89929 0.48749 0.0
S2057 S 0.28171 0.89077 0.50464 0.0
N2058 N 0.28346 0.90527 0.47661 0.0
N2059 N 0.25936 0.88318 0.51949 0.0
C2060 C 0.25228 0.8924 0.50147 0.0
C2061 C 0.26535 0.90446 0.47841 0.0
C2062 C 0.12002 0.33658 0.46407 0.0
C2063 C 0.11606 0.35264 0.46222 0.0
C2064 C 0.13198 0.33569 0.4868 0.0
C2065 C 0.1404 0.35088 0.50826 0.0
H2066 H 0.11305 0.32415 0.44868 0.0
H2067 H 0.13373 0.32255 0.48854 0.0
S2068 S 0.13729 0.39757 0.51061 0.0
N2069 N 0.12352 0.38515 0.4818 0.0
N2070 N 0.14589 0.38341 0.52452 0.0
C2071 C 0.13766 0.36761 0.50551 0.0
C2072 C 0.12549 0.36849 0.48252 0.0
C2073 C 0.1181 0.3324 0.21396 0.0
C2074 C 0.1157 0.34884 0.22191 0.0
C2075 C 0.13152 0.33422 0.19157 0.0
C2076 C 0.14298 0.35255 0.17664 0.0
H2077 H 0.10879 0.31778 0.22401 0.0
H2078 H 0.13201 0.32095 0.18467 0.0
S2079 S 0.14464 0.40075 0.19207 0.0
N2080 N 0.12783 0.38462 0.21549 0.0
N2081 N 0.15271 0.38781 0.17305 0.0
C2082 C 0.14174 0.36937 0.18567 0.0
C2083 C 0.12817 0.36757 0.20841 0.0
C2084 C 0.66374 0.76355 0.20341 0.0
C2085 C 0.68182 0.77152 0.21954 0.0
C2086 C 0.66126 0.77472 0.18115 0.0
C2087 C 0.67673 0.7943 0.17426 0.0
H2088 H 0.65159 0.74834 0.20752 0.0
H2089 H 0.64747 0.76767 0.16832 0.0
S2090 S 0.72653 0.82252 0.21085 0.0
N2091 N 0.71512 0.80057 0.22795 0.0
N2092 N 0.71032 0.82161 0.18603 0.0
C2093 C 0.69445 0.80289 0.19118 0.0
C2094 C 0.69703 0.79148 0.21385 0.0
C2095 C 0.23953 0.91926 0.20684 0.0
C2096 C 0.25805 0.92081 0.21487 0.0
C2097 C 0.22763 0.90624 0.18417 0.0
C2098 C 0.23384 0.89428 0.16913 0.0
H2099 H 0.23462 0.92877 0.21732 0.0
H2100 H 0.21402 0.9062 0.17747 0.0
S2101 S 0.27949 0.89068 0.18431 0.0
N2102 N 0.28084 0.90769 0.20791 0.0
N2103 N 0.25856 0.88341 0.16531 0.0
C2104 C 0.25168 0.89486 0.17804 0.0
C2105 C 0.26378 0.90809 0.20092 0.0
C2106 C 0.68382 0.90183 0.21783 0.0
C2107 C 0.69645 0.92287 0.21589 0.0
C2108 C 0.68273 0.88915 0.19474 0.0
C2109 C 0.69435 0.89711 0.16912 0.0
H2110 H 0.67389 0.89526 0.23655 0.0
H2111 H 0.6718 0.87321 0.19616 0.0
S2112 S 0.73236 0.95066 0.15569 0.0
N2113 N 0.72259 0.95075 0.18803 0.0
N2114 N 0.72079 0.9269 0.14492 0.0
C2115 C 0.70819 0.9179 0.16806 0.0
C2116 C 0.70915 0.93079 0.19134 0.0
C2117 C 0.12424 0.76394 0.19843 0.0
C2118 C 0.11521 0.7718 0.2171 0.0
C2119 C 0.13729 0.77559 0.17582 0.0
C2120 C 0.14191 0.79557 0.17112 0.0
H2121 H 0.12081 0.74849 0.20085 0.0
H2122 H 0.14319 0.76866 0.1611 0.0
S2123 S 0.12295 0.8236 0.21435 0.0
N2124 N 0.11237 0.80111 0.22988 0.0
N2125 N 0.13713 0.82303 0.18743 0.0
C2126 C 0.13381 0.80397 0.19041 0.0
C2127 C 0.1204 0.79208 0.2134 0.0
C2128 C 0.24871 0.32228 0.19004 0.0
C2129 C 0.25195 0.33334 0.21609 0.0
C2130 C 0.23702 0.32337 0.16717 0.0
C2131 C 0.22837 0.33578 0.16932 0.0
H2132 H 0.25575 0.31318 0.18699 0.0
H2133 H 0.23552 0.31515 0.14706 0.0
S2134 S 0.2317 0.36708 0.23365 0.0
N2135 N 0.24479 0.35625 0.24351 0.0
N2136 N 0.22315 0.35866 0.20024 0.0
C2137 C 0.23067 0.34613 0.19588 0.0
C2138 C 0.24244 0.34487 0.21931 0.0
C2139 C 0.2701 0.36679 0.4862 0.0
C2140 C 0.26192 0.3552 0.46063 0.0
C2141 C 0.25768 0.3658 0.50949 0.0
C2142 C 0.23661 0.35311 0.50817 0.0
H2143 H 0.28629 0.37623 0.48859 0.0
H2144 H 0.26469 0.37434 0.52929 0.0
S2145 S 0.2076 0.32043 0.44554 0.0
N2146 N 0.23136 0.33135 0.43474 0.0
N2147 N 0.20801 0.32945 0.47868 0.0
C2148 C 0.22813 0.34226 0.48212 0.0
C2149 C 0.24079 0.34329 0.45832 0.0
C2150 C 0.68969 0.90494 0.45969 0.0
C2151 C 0.67685 0.91314 0.46113 0.0
C2152 C 0.6906 0.8933 0.48289 0.0
C2153 C 0.67859 0.8894 0.50812 0.0
H2154 H 0.69988 0.90845 0.44126 0.0
H2155 H 0.70164 0.88841 0.48188 0.0
S2156 S 0.64001 0.90438 0.52023 0.0
N2157 N 0.65014 0.91442 0.48813 0.0
N2158 N 0.65167 0.89237 0.53147 0.0
C2159 C 0.66459 0.89618 0.5087 0.0
C2160 C 0.6638 0.90813 0.48531 0.0
C2161 C 0.11958 0.7598 0.48529 0.0
C2162 C 0.11617 0.76765 0.45939 0.0
C2163 C 0.13111 0.77251 0.50827 0.0
C2164 C 0.1395 0.79354 0.50632 0.0
H2165 H 0.1128 0.74367 0.48814 0.0
H2166 H 0.13271 0.76578 0.52831 0.0
S2167 S 0.13581 0.82166 0.44254 0.0
N2168 N 0.12292 0.79778 0.43241 0.0
N2169 N 0.14444 0.8217 0.47587 0.0
C2170 C 0.1371 0.80166 0.47994 0.0
C2171 C 0.12542 0.7887 0.45643 0.0
C2172 C 0.36044 0.1209 0.80114 0.0
C2173 C 0.3442 0.10094 0.8006 0.0
C2174 C 0.36175 0.13452 0.82284 0.0
C2175 C 0.34693 0.12855 0.84478 0.0
H2176 H 0.37247 0.12585 0.78513 0.0
H2177 H 0.37498 0.14942 0.82347 0.0
S2178 S 0.30095 0.07854 0.85231 0.0
N2179 N 0.31252 0.0763 0.82312 0.0
N2180 N 0.31515 0.10193 0.86397 0.0
C2181 C 0.33022 0.10899 0.84374 0.0
C2182 C 0.32879 0.09517 0.82159 0.0
C2183 C 0.90895 0.23461 0.79356 0.0
C2184 C 0.92996 0.2425 0.79534 0.0
C2185 C 0.89615 0.22315 0.81662 0.0
C2186 C 0.90395 0.21916 0.84212 0.0
H2187 H 0.9025 0.23831 0.77501 0.0
H2188 H 0.88029 0.21858 0.81533 0.0
S2189 S 0.95721 0.23323 0.85525 0.0
N2190 N 0.95753 0.24326 0.82294 0.0
N2191 N 0.93345 0.22163 0.86615 0.0
C2192 C 0.92465 0.22556 0.84308 0.0
C2193 C 0.93767 0.2373 0.81976 0.0
C2194 C 0.79408 0.68825 0.79648 0.0
C2195 C 0.77355 0.67334 0.79432 0.0
C2196 C 0.8064 0.68762 0.8189 0.0
C2197 C 0.79852 0.67212 0.83993 0.0
H2198 H 0.80055 0.70068 0.78105 0.0
H2199 H 0.82185 0.69984 0.82069 0.0
S2200 S 0.74622 0.62907 0.84342 0.0
N2201 N 0.74622 0.64232 0.81478 0.0
N2202 N 0.76947 0.64105 0.85646 0.0
C2203 C 0.77833 0.65672 0.83728 0.0
C2204 C 0.76581 0.65735 0.81461 0.0
C2205 C 0.78441 0.66654 0.54205 0.0
C2206 C 0.78166 0.68291 0.5491 0.0
C2207 C 0.79789 0.66813 0.51988 0.0
C2208 C 0.80908 0.68616 0.50415 0.0
H2209 H 0.77541 0.65211 0.55277 0.0
H2210 H 0.7987 0.65488 0.51386 0.0
S2211 S 0.80964 0.73414 0.51657 0.0
N2212 N 0.79311 0.71839 0.54063 0.0
N2213 N 0.81799 0.72108 0.4985 0.0
C2214 C 0.80737 0.70291 0.51202 0.0
C2215 C 0.79376 0.70136 0.5346 0.0
C2216 C 0.35766 0.12269 0.55359 0.0
C2217 C 0.3437 0.10194 0.55594 0.0
C2218 C 0.3563 0.13422 0.53061 0.0
C2219 C 0.34085 0.12535 0.50949 0.0
H2220 H 0.37024 0.12982 0.56876 0.0
H2221 H 0.36803 0.14984 0.52839 0.0
S2222 S 0.29869 0.07252 0.50892 0.0
N2223 N 0.31265 0.07366 0.53737 0.0
N2224 N 0.30999 0.09534 0.49447 0.0
C2225 C 0.32601 0.10501 0.51295 0.0
C2226 C 0.32748 0.09329 0.53608 0.0
C2227 C 0.91295 0.26248 0.52656 0.0
C2228 C 0.91799 0.25444 0.55078 0.0
C2229 C 0.90133 0.25015 0.50326 0.0
C2230 C 0.89437 0.22932 0.5032 0.0
H2231 H 0.91845 0.27851 0.52528 0.0
H2232 H 0.89847 0.2571 0.48452 0.0
S2233 S 0.90285 0.20072 0.56182 0.0
N2234 N 0.91452 0.22421 0.57377 0.0
N2235 N 0.89274 0.20108 0.52989 0.0
C2236 C 0.89849 0.22093 0.52789 0.0
C2237 C 0.91031 0.23348 0.55167 0.0
C2238 C 0.34946 0.23475 0.55449 0.0
C2239 C 0.36363 0.25553 0.55366 0.0
C2240 C 0.34832 0.22189 0.53167 0.0
C2241 C 0.36132 0.22941 0.50733 0.0
H2242 H 0.33842 0.22857 0.57202 0.0
H2243 H 0.33633 0.2063 0.5321 0.0
S2244 S 0.40318 0.28174 0.49701 0.0
N2245 N 0.39258 0.28238 0.52832 0.0
N2246 N 0.39023 0.25821 0.48534 0.0
C2247 C 0.37647 0.24977 0.50733 0.0
C2248 C 0.37765 0.26284 0.53048 0.0
C2249 C 0.7853 0.12226 0.54413 0.0
C2250 C 0.78178 0.1028 0.55072 0.0
C2251 C 0.79899 0.13396 0.52204 0.0
C2252 C 0.80959 0.12657 0.50599 0.0
H2253 H 0.77667 0.12805 0.55502 0.0
H2254 H 0.80034 0.14829 0.51624 0.0
S2255 S 0.80829 0.07816 0.51783 0.0
N2256 N 0.79201 0.07788 0.54191 0.0
N2257 N 0.81738 0.09976 0.50005 0.0
C2258 C 0.80724 0.1078 0.51369 0.0
C2259 C 0.79341 0.09593 0.53614 0.0
C2260 C 0.91447 0.65594 0.52324 0.0
C2261 C 0.91878 0.66804 0.54844 0.0
C2262 C 0.90301 0.65713 0.50012 0.0
C2263 C 0.8955 0.67053 0.50126 0.0
H2264 H 0.92052 0.6459 0.52098 0.0
H2265 H 0.90078 0.64817 0.48057 0.0
S2266 S 0.90181 0.70489 0.56286 0.0
N2267 N 0.91392 0.69325 0.57374 0.0
N2268 N 0.89241 0.69551 0.53016 0.0
C2269 C 0.89879 0.68196 0.52696 0.0
C2270 C 0.91046 0.68074 0.55056 0.0
C2271 C 0.91004 0.66408 0.80343 0.0
C2272 C 0.92487 0.68283 0.79225 0.0
C2273 C 0.89691 0.66287 0.82576 0.0
C2274 C 0.89805 0.68033 0.83759 0.0
H2275 H 0.9089 0.65025 0.79536 0.0
H2276 H 0.88635 0.64822 0.83478 0.0
S2277 S 0.93347 0.73292 0.81549 0.0
N2278 N 0.9394 0.71922 0.79413 0.0
N2279 N 0.91448 0.71676 0.83616 0.0
C2280 C 0.91212 0.69908 0.82587 0.0
C2281 C 0.92558 0.70037 0.80312 0.0
C2282 C 0.34071 0.23455 0.80069 0.0
C2283 C 0.35683 0.25361 0.79279 0.0
C2284 C 0.34302 0.22304 0.82276 0.0
C2285 C 0.36155 0.23021 0.83741 0.0
H2286 H 0.32595 0.22898 0.79091 0.0
H2287 H 0.32996 0.20908 0.82969 0.0
S2288 S 0.40911 0.27752 0.82181 0.0
N2289 N 0.39255 0.27786 0.79885 0.0
N2290 N 0.39668 0.25636 0.84066 0.0
C2291 C 0.37807 0.24853 0.82834 0.0
C2292 C 0.37577 0.26021 0.80593 0.0
C2293 C 0.79711 0.1153 0.79566 0.0
C2294 C 0.77681 0.10981 0.79096 0.0
C2295 C 0.80838 0.12855 0.81847 0.0
C2296 C 0.79968 0.13676 0.83709 0.0
H2297 H 0.804 0.10854 0.78259 0.0
H2298 H 0.82353 0.13141 0.82267 0.0
S2299 S 0.74835 0.12988 0.83074 0.0
N2300 N 0.74939 0.11559 0.80441 0.0
N2301 N 0.77057 0.14047 0.84717 0.0
C2302 C 0.77994 0.13255 0.83119 0.0
C2303 C 0.76848 0.11905 0.80818 0.0
C2304 C 0.12676 0.37725 0.05206 0.0
C2305 C 0.10981 0.36016 0.04053 0.0
C2306 C 0.14215 0.37564 0.06624 0.0
C2307 C 0.14096 0.35683 0.06967 0.0
H2308 H 0.12749 0.39174 0.05177 0.0
H2309 H 0.15402 0.38883 0.07715 0.0
S2310 S 0.1007 0.30794 0.04085 0.0
N2311 N 0.09364 0.32423 0.0309 0.0
N2312 N 0.12243 0.32115 0.05827 0.0
C2313 C 0.12495 0.33995 0.05612 0.0
C2314 C 0.10935 0.34161 0.04141 0.0
C2315 C 0.65066 0.75396 0.04956 0.0
C2316 C 0.66773 0.755 0.03611 0.0
C2317 C 0.652 0.77048 0.06472 0.0
C2318 C 0.67044 0.78864 0.06714 0.0
H2319 H 0.63656 0.73981 0.05065 0.0
H2320 H 0.63901 0.76839 0.07714 0.0
S2321 S 0.71848 0.80065 0.03101 0.0
N2322 N 0.70278 0.77696 0.02188 0.0
N2323 N 0.70535 0.80774 0.0516 0.0
C2324 C 0.68705 0.79062 0.05136 0.0
C2325 C 0.6857 0.77383 0.03563 0.0
C2326 C 0.25789 0.92314 0.03666 0.0
C2327 C 0.27404 0.91976 0.03104 0.0
C2328 C 0.24081 0.90901 0.05222 0.0
C2329 C 0.23921 0.89097 0.0625 0.0
H2330 H 0.25919 0.93752 0.03134 0.0
H2331 H 0.22969 0.91308 0.05872 0.0
S2332 S 0.27545 0.87326 0.04894 0.0
N2333 N 0.28586 0.89564 0.0331 0.0
N2334 N 0.25385 0.86932 0.06289 0.0
C2335 C 0.25421 0.8865 0.05447 0.0
C2336 C 0.27164 0.90087 0.03865 0.0
C2337 C 0.38578 0.12271 0.96561 0.0
C2338 C 0.36909 0.10705 0.98026 0.0
C2339 C 0.384 0.13755 0.95001 0.0
C2340 C 0.36553 0.13732 0.94877 0.0
H2341 H 0.3998 0.1225 0.96397 0.0
H2342 H 0.39653 0.14805 0.93648 0.0
S2343 S 0.31842 0.10178 0.98751 0.0
N2344 N 0.33439 0.094 -0.00399 0.0
N2345 N 0.33104 0.12175 0.96627 0.0
C2346 C 0.34939 0.12301 0.96569 0.0
C2347 C 0.35115 0.10787 0.98151 0.0
C2348 C 0.90708 0.26895 0.95759 0.0
C2349 C 0.92327 0.26969 0.97338 0.0
C2350 C 0.89296 0.25131 0.94308 0.0
C2351 C 0.89461 0.23387 0.94384 0.0
H2352 H 0.90607 0.28246 0.95489 0.0
H2353 H 0.88185 0.25189 0.92896 0.0
S2354 S 0.93309 0.2274 0.98397 0.0
N2355 N 0.93913 0.25094 0.99073 0.0
N2356 N 0.91261 0.21786 0.96326 0.0
C2357 C 0.90972 0.23393 0.96141 0.0
C2358 C 0.92407 0.25184 0.97625 0.0
C2359 C 0.78019 0.68922 0.969 0.0
C2360 C 0.766 0.66999 0.97951 0.0
C2361 C 0.79712 0.6922 0.95301 0.0
C2362 C 0.80049 0.6761 0.94725 0.0
H2363 H 0.77725 0.70162 0.97077 0.0
H2364 H 0.80649 0.70667 0.94256 0.0
S2365 S 0.76997 0.62383 0.97466 0.0
N2366 N 0.7581 0.63539 0.98691 0.0
N2367 N 0.78987 0.64103 0.95654 0.0
C2368 C 0.78767 0.6574 0.96037 0.0
C2369 C 0.77037 0.65431 0.97651 0.0
C2370 C 0.92474 0.67938 0.97149 0.0
C2371 C 0.92206 0.65988 0.97376 0.0
C2372 C 0.91076 0.68276 0.95624 0.0
C2373 C 0.89358 0.66674 0.94311 0.0
H2374 H 0.93856 0.69229 0.97921 0.0
H2375 H 0.91436 0.69815 0.95234 0.0
S2376 S 0.87792 0.61265 0.94704 0.0
N2377 N 0.89954 0.62411 0.96513 0.0
N2378 N 0.87342 0.63061 0.93625 0.0
C2379 C 0.88974 0.64706 0.94774 0.0
C2380 C 0.90397 0.64359 0.96311 0.0
C2381 C 0.38512 0.27061 0.96285 0.0
C2382 C 0.36766 0.26963 0.97473 0.0
C2383 C 0.38418 0.25414 0.94801 0.0
C2384 C 0.36577 0.23609 0.94445 0.0
H2385 H 0.39934 0.28468 0.96282 0.0
H2386 H 0.39756 0.2562 0.93678 0.0
S2387 S 0.31649 0.22437 0.97591 0.0
N2388 N 0.33202 0.24791 0.98591 0.0
N2389 N 0.33026 0.21723 0.95696 0.0
C2390 C 0.34863 0.23421 0.95855 0.0
C2391 C 0.34956 0.25094 0.97386 0.0
C2392 C 0.76246 0.12036 0.96518 0.0
C2393 C 0.7631 0.10346 0.97599 0.0
C2394 C 0.7788 0.13565 0.94979 0.0
C2395 C 0.79639 0.13464 0.94466 0.0
H2396 H 0.74866 0.12099 0.96638 0.0
H2397 H 0.77693 0.14733 0.93936 0.0
S2398 S 0.80724 0.09578 0.9729 0.0
N2399 N 0.78411 0.0884 0.98445 0.0
N2400 N 0.81457 0.11695 0.9546 0.0
C2401 C 0.79803 0.11897 0.95774 0.0
C2402 C 0.78142 0.10339 0.97356 0.0
C2403 C 0.68404 0.91875 0.03761 0.0
C2404 C 0.66443 0.91596 0.03613 0.0
C2405 C 0.68782 0.90497 0.05252 0.0
C2406 C 0.67214 0.8879 0.06632 0.0
H2407 H 0.69682 0.9325 0.02948 0.0
H2408 H 0.70334 0.90869 0.0557 0.0
S2409 S 0.61779 0.87173 0.06429 0.0
N2410 N 0.62878 0.89318 0.04586 0.0
N2411 N 0.63611 0.86758 0.07451 0.0
C2412 C 0.65229 0.88388 0.06251 0.0
C2413 C 0.64839 0.89787 0.0473 0.0
C2414 C 0.12828 0.763 0.03694 0.0
C2415 C 0.10858 0.75974 0.03324 0.0
C2416 C 0.14309 0.78002 0.05194 0.0
C2417 C 0.13872 0.79436 0.06365 0.0
H2418 H 0.13186 0.75163 0.03 0.0
H2419 H 0.15737 0.78092 0.05692 0.0
S2420 S 0.09045 0.7942 0.05719 0.0
N2421 N 0.08622 0.77338 0.04025 0.0
N2422 N 0.11419 0.80537 0.06814 0.0
C2423 C 0.11979 0.79228 0.05767 0.0
C2424 C 0.10466 0.77495 0.04255 0.0
C2425 C 0.25884 0.34796 0.03493 0.0
C2426 C 0.27663 0.36678 0.03721 0.0
C2427 C 0.24124 0.3442 0.04979 0.0
C2428 C 0.24082 0.35921 0.06704 0.0
H2429 H 0.25903 0.33554 0.02385 0.0
H2430 H 0.22853 0.32895 0.05013 0.0
S2431 S 0.2822 0.41186 0.07586 0.0
N2432 N 0.29185 0.40132 0.05461 0.0
N2433 N 0.25871 0.39412 0.08263 0.0
C2434 C 0.25779 0.37859 0.06695 0.0
C2435 C 0.27574 0.38241 0.05204 0.0
C2436 C 0.79485 0.70552 0.37069 0.0
C2437 C 0.77543 0.68874 0.36647 0.0
C2438 C 0.80989 0.70367 0.38567 0.0
C2439 C 0.80605 0.68499 0.39678 0.0
H2440 H 0.79799 0.72041 0.36417 0.0
H2441 H 0.82389 0.71724 0.39105 0.0
S2442 S 0.75871 0.63616 0.38894 0.0
N2443 N 0.75393 0.65252 0.37245 0.0
N2444 N 0.78235 0.64919 0.40027 0.0
C2445 C 0.78743 0.66786 0.39033 0.0
C2446 C 0.77206 0.66969 0.37524 0.0
C2447 C 0.35847 0.10614 0.38037 0.0
C2448 C 0.33944 0.09156 0.36957 0.0
C2449 C 0.36083 0.12282 0.39636 0.0
C2450 C 0.3443 0.12557 0.40185 0.0
H2451 H 0.37124 0.10375 0.37873 0.0
H2452 H 0.37521 0.13255 0.4069 0.0
S2453 S 0.29224 0.09383 0.37391 0.0
N2454 N 0.3045 0.08262 0.3618 0.0
N2455 N 0.30898 0.1139 0.39226 0.0
C2456 C 0.32574 0.11229 0.38866 0.0
C2457 C 0.32328 0.09526 0.37247 0.0
C2458 C 0.92441 0.25438 0.37112 0.0
C2459 C 0.94152 0.2521 0.3692 0.0
C2460 C 0.90694 0.24007 0.38575 0.0
C2461 C 0.90591 0.22293 0.39875 0.0
H2462 H 0.92509 0.2681 0.36355 0.0
H2463 H 0.89491 0.24339 0.38935 0.0
S2464 S 0.945 0.20806 0.39525 0.0
N2465 N 0.9551 0.22982 0.37766 0.0
N2466 N 0.92231 0.20318 0.40566 0.0
C2467 C 0.92204 0.21946 0.39443 0.0
C2468 C 0.93987 0.23402 0.37958 0.0
C2469 C 0.0525 0.45381 0.28712 0.0
C2470 C 0.0381 0.44152 0.30824 0.0
C2471 C 0.05016 0.46803 0.27087 0.0
C2472 C 0.03333 0.4705 0.27501 0.0
H2473 H 0.06483 0.45137 0.28133 0.0
H2474 H 0.06059 0.47583 0.25306 0.0
S2475 S 0.99332 0.4449 0.33099 0.0
N2476 N 1.00811 0.43514 0.33551 0.0
N2477 N 1.0034 0.46142 0.30397 0.0
C2478 C 0.01985 0.45974 0.29777 0.0
C2479 C 0.02227 0.44531 0.31456 0.0
C2480 C 0.58656 0.5832 0.316 0.0
C2481 C 0.58847 0.60227 0.31134 0.0
C2482 C 0.57225 0.56615 0.30047 0.0
C2483 C 0.55926 0.56754 0.27998 0.0
H2484 H 0.59706 0.58171 0.3303 0.0
H2485 H 0.57264 0.55226 0.30249 0.0
S2486 S 0.55656 0.61314 0.26163 0.0
N2487 N 0.57489 0.62095 0.28614 0.0
N2488 N 0.54784 0.58876 0.25768 0.0
C2489 C 0.55973 0.58598 0.27711 0.0
C2490 C 0.57439 0.6034 0.29261 0.0
C2491 C 0.445 0.01619 0.29951 0.0
C2492 C 0.43051 0.99741 0.31114 0.0
C2493 C 0.46169 0.01832 0.28379 0.0
C2494 C 0.46454 1.00179 0.27911 0.0
H2495 H 0.44258 0.02895 0.30034 0.0
H2496 H 0.47134 0.03249 0.27274 0.0
S2497 S 0.43329 0.95046 0.30952 0.0
N2498 N 0.422 0.96282 0.32085 0.0
N2499 N 0.45313 0.9668 0.29038 0.0
C2500 C 0.45138 0.98351 0.29302 0.0
C2501 C 0.43438 0.98131 0.30917 0.0
C2502 C 0.58865 1.00754 0.30865 0.0
C2503 C 0.58981 0.98983 0.30604 0.0
C2504 C 0.57386 1.00973 0.29353 0.0
C2505 C 0.55966 0.99424 0.27548 0.0
H2506 H 0.60001 0.02027 0.321 0.0
H2507 H 0.57467 0.02425 0.29385 0.0
S2508 S 0.55491 0.94435 0.26306 0.0
N2509 N 0.57442 0.95602 0.28545 0.0
N2510 N 0.54653 0.96018 0.25759 0.0
C2511 C 0.55956 0.97591 0.27467 0.0
C2512 C 0.57467 0.97368 0.28981 0.0
C2513 C 0.04876 0.60075 0.29705 0.0
C2514 C 0.03142 0.59996 0.30906 0.0
C2515 C 0.04746 0.58447 0.28121 0.0
C2516 C 0.02882 0.56682 0.27686 0.0
H2517 H 0.06317 0.61461 0.2977 0.0
H2518 H 0.0608 0.58643 0.26992 0.0
S2519 S 0.97966 0.55564 0.30809 0.0
N2520 N 0.99557 0.5788 0.31928 0.0
N2521 N 0.99317 0.54843 0.28864 0.0
C2522 C 1.01176 0.56505 0.29103 0.0
C2523 C 1.01304 0.58159 0.30729 0.0
C2524 C 0.4284 0.45222 0.29577 0.0
C2525 C 0.42875 0.43592 0.30952 0.0
C2526 C 0.4454 0.46721 0.2811 0.0
C2527 C 0.46336 0.46647 0.27963 0.0
H2528 H 0.41445 0.45255 0.29415 0.0
H2529 H 0.44388 0.47832 0.26835 0.0
S2530 S 0.47341 0.42931 0.3164 0.0
N2531 N 0.44968 0.42186 0.32463 0.0
N2532 N 0.48139 0.44976 0.29603 0.0
C2533 C 0.46456 0.45146 0.29559 0.0
C2534 C 0.44729 0.43622 0.31071 0.0
C2535 C 0.35014 0.25094 0.37417 0.0
C2536 C 0.33113 0.24957 0.37575 0.0
C2537 C 0.35383 0.23698 0.38881 0.0
C2538 C 0.33856 0.22106 0.40508 0.0
H2539 H 0.36269 0.26381 0.36371 0.0
H2540 H 0.36914 0.23969 0.3896 0.0
S2541 S 0.2855 0.20897 0.41212 0.0
N2542 N 0.29625 0.22956 0.39173 0.0
N2543 N 0.30332 0.20341 0.41926 0.0
C2544 C 0.31908 0.21844 0.40446 0.0
C2545 C 0.31533 0.2327 0.38981 0.0
C2546 C 0.79386 0.08845 0.37907 0.0
C2547 C 0.77697 0.08897 0.3678 0.0
C2548 C 0.80918 0.10496 0.39421 0.0
C2549 C 0.80823 0.12261 0.39869 0.0
H2550 H 0.7945 0.07466 0.3784 0.0
H2551 H 0.82084 0.10319 0.40497 0.0
S2552 S 0.76941 0.13317 0.36909 0.0
N2553 N 0.76199 0.10992 0.3582 0.0
N2554 N 0.79055 0.14066 0.38767 0.0
C2555 C 0.79255 0.12409 0.3852 0.0
C2556 C 0.77694 0.10731 0.36959 0.0
C2557 C 0.92479 0.68055 0.36441 0.0
C2558 C 0.94361 0.69832 0.36758 0.0
C2559 C 0.90771 0.67787 0.37974 0.0
C2560 C 0.90881 0.69291 0.39859 0.0
H2561 H 0.92357 0.66814 0.35144 0.0
H2562 H 0.89405 0.66329 0.3789 0.0
S2563 S 0.95373 0.74277 0.41271 0.0
N2564 N 0.96177 0.73173 0.38956 0.0
N2565 N 0.92952 0.72664 0.41785 0.0
C2566 C 0.92699 0.71133 0.40001 0.0
C2567 C 0.94444 0.71405 0.38464 0.0
C2568 C 0.46181 0.04078 0.70378 0.0
C2569 C 0.442 0.02427 0.70188 0.0
C2570 C 0.477 0.03923 0.71885 0.0
C2571 C 0.47294 0.02108 0.73227 0.0
H2572 H 0.46527 0.05535 0.69522 0.0
H2573 H 0.49142 0.05277 0.72237 0.0
S2574 S 0.42447 0.97293 0.73134 0.0
N2575 N 0.41978 0.98873 0.71296 0.0
N2576 N 0.44854 0.98591 0.74053 0.0
C2577 C 0.45384 1.00405 0.7282 0.0
C2578 C 0.43829 1.00561 0.7132 0.0
C2579 C 1.0161 0.43835 0.70142 0.0
C2580 C 0.99816 0.4197 0.7047 0.0
C2581 C 0.01879 0.45571 0.7159 0.0
C2582 C 1.00358 0.45506 0.73394 0.0
H2583 H 0.02864 0.43926 0.6891 0.0
H2584 H 0.03351 0.4692 0.71521 0.0
S2585 S 0.95317 0.41081 0.74762 0.0
N2586 N 0.96437 0.40224 0.72568 0.0
N2587 N 0.96947 0.435 0.75226 0.0
C2588 C 0.98498 0.43708 0.73522 0.0
C2589 C 0.98225 0.41935 0.72077 0.0
C2590 C 0.59055 0.59047 0.70323 0.0
C2591 C 0.60622 0.58632 0.69787 0.0
C2592 C 0.57347 0.57706 0.7195 0.0
C2593 C 0.57138 0.55897 0.73048 0.0
H2594 H 0.59231 0.60493 0.69712 0.0
H2595 H 0.56273 0.58169 0.72577 0.0
S2596 S 0.60647 0.53964 0.71831 0.0
N2597 N 0.61728 0.56171 0.70151 0.0
N2598 N 0.58511 0.53653 0.73203 0.0
C2599 C 0.58592 0.55377 0.72275 0.0
C2600 C 0.60339 0.56746 0.70648 0.0
C2601 C 0.71472 0.79049 0.63985 0.0
C2602 C 0.69833 0.77094 0.64457 0.0
C2603 C 0.71219 0.80503 0.6247 0.0
C2604 C 0.69319 0.8005 0.61378 0.0
H2605 H 0.72982 0.79412 0.64614 0.0
H2606 H 0.72547 0.81916 0.61895 0.0
S2607 S 0.64518 0.75247 0.6228 0.0
N2608 N 0.66214 0.74854 0.63927 0.0
N2609 N 0.65753 0.77597 0.61095 0.0
C2610 C 0.67644 0.78172 0.62068 0.0
C2611 C 0.67897 0.76689 0.63603 0.0
C2612 C 0.24059 0.93164 0.63005 0.0
C2613 C 0.25762 0.93237 0.64301 0.0
C2614 C 0.22644 0.91452 0.61463 0.0
C2615 C 0.22902 0.8977 0.61142 0.0
H2616 H 0.23895 0.94488 0.63015 0.0
H2617 H 0.21452 0.91519 0.60274 0.0
S2618 S 0.27008 0.89151 0.64334 0.0
N2619 N 0.27535 0.91427 0.65387 0.0
N2620 N 0.24891 0.8822 0.62423 0.0
C2621 C 0.2451 0.89767 0.62617 0.0
C2622 C 0.25941 0.91503 0.64214 0.0
C2623 C 0.11342 0.3535 0.63778 0.0
C2624 C 0.09764 0.33377 0.64339 0.0
C2625 C 0.13114 0.35696 0.62359 0.0
C2626 C 0.13376 0.34085 0.61465 0.0
H2627 H 0.11138 0.36627 0.64202 0.0
H2628 H 0.14194 0.3722 0.61687 0.0
S2629 S 0.09882 0.28672 0.62918 0.0
N2630 N 0.08726 0.29815 0.6431 0.0
N2631 N 0.12045 0.30476 0.61585 0.0
C2632 C 0.11912 0.32127 0.62291 0.0
C2633 C 0.10104 0.3177 0.63732 0.0
C2634 C 0.24205 0.30966 0.62295 0.0
C2635 C 0.25754 0.32517 0.63961 0.0
C2636 C 0.22734 0.31247 0.60886 0.0
C2637 C 0.22763 0.33091 0.61085 0.0
H2638 H 0.24211 0.29573 0.61916 0.0
H2639 H 0.21691 0.3009 0.59395 0.0
S2640 S 0.26353 0.37547 0.65422 0.0
N2641 N 0.27106 0.35893 0.65955 0.0
N2642 N 0.24342 0.36417 0.63282 0.0
C2643 C 0.24188 0.34584 0.62953 0.0
C2644 C 0.25687 0.34299 0.64396 0.0
C2645 C 0.71817 0.9366 0.62753 0.0
C2646 C 0.70184 0.93489 0.64411 0.0
C2647 C 0.71653 0.92018 0.6116 0.0
C2648 C 0.69858 0.90145 0.61189 0.0
H2649 H 0.7317 0.95112 0.6248 0.0
H2650 H 0.72866 0.92264 0.59684 0.0
S2651 S 0.65278 0.88813 0.65556 0.0
N2652 N 0.66822 0.91217 0.66304 0.0
N2653 N 0.66509 0.88143 0.63258 0.0
C2654 C 0.6829 0.89902 0.63047 0.0
C2655 C 0.68452 0.91572 0.64667 0.0
C2656 C 0.09209 0.78782 0.62387 0.0
C2657 C 0.09334 0.77306 0.64069 0.0
C2658 C 0.10887 0.80249 0.60836 0.0
C2659 C 0.12747 0.803 0.60937 0.0
H2660 H 0.07767 0.78699 0.62058 0.0
H2661 H 0.10677 0.81224 0.59327 0.0
S2662 S 0.13958 0.77014 0.65426 0.0
N2663 N 0.11544 0.76177 0.66082 0.0
N2664 N 0.14688 0.78923 0.63127 0.0
C2665 C 0.12944 0.78968 0.62839 0.0
C2666 C 0.11237 0.77469 0.64411 0.0
C2667 C 0.02351 0.5899 0.7077 0.0
C2668 C 1.00376 0.58606 0.70255 0.0
C2669 C 0.02697 0.57576 0.72228 0.0
C2670 C 1.01081 0.55726 0.73192 0.0
H2671 H 0.03634 0.60457 0.70282 0.0
H2672 H 0.04227 0.58013 0.72861 0.0
S2673 S 0.9565 0.53848 0.71905 0.0
N2674 N 0.96799 0.56123 0.70433 0.0
N2675 N 0.97457 0.53481 0.73202 0.0
C2676 C 0.99115 0.55242 0.72416 0.0
C2677 C 0.98759 0.56682 0.70948 0.0
C2678 C 0.46129 0.42239 0.71937 0.0
C2679 C 0.44684 0.42376 0.70182 0.0
C2680 C 0.47592 0.43913 0.73497 0.0
C2681 C 0.47671 0.45781 0.73346 0.0
H2682 H 0.46024 0.40795 0.7231 0.0
H2683 H 0.48542 0.43696 0.75051 0.0
S2684 S 0.44481 0.47025 0.68672 0.0
N2685 N 0.43624 0.44608 0.68048 0.0
N2686 N 0.46356 0.47741 0.71041 0.0
C2687 C 0.46371 0.45988 0.71384 0.0
C2688 C 0.44878 0.44286 0.69792 0.0
C2689 C 0.59205 0.01412 0.70132 0.0
C2690 C 0.61 0.03286 0.70271 0.0
C2691 C 0.57464 1.01093 0.71625 0.0
C2692 C 0.57456 0.02645 0.73263 0.0
H2693 H 0.59197 1.00139 0.69084 0.0
H2694 H 0.56179 0.99579 0.71724 0.0
S2695 S 0.61656 0.079 0.73923 0.0
N2696 N 0.6258 0.06776 0.71864 0.0
N2697 N 0.59303 0.06167 0.74662 0.0
C2698 C 0.59173 0.0457 0.73174 0.0
C2699 C 0.60949 0.04892 0.71682 0.0
loop_
_geom_bond_atom_site_label_1
_geom_bond_atom_site_label_2
_geom_bond_distance
_geom_bond_site_symmetry_2
_ccdc_geom_bond_type
Li0 N17 1.990 1_554 S
Li0 O60 1.956 . S
Li0 O61 1.970 1_654 S
Li0 O62 1.961 . S
Li1 N25 1.990 . S
Li1 O60 1.970 1_455 S
Li1 O61 1.956 1_554 S
Li1 O63 1.961 . S
Li2 N47 1.990 . S
Li2 O60 1.961 . S
Li2 O62 1.956 . S
Li2 O63 1.970 1_655 S
Li3 N53 1.990 . S
Li3 O61 1.961 . S
Li3 O62 1.970 1_456 S
Li3 O63 1.956 1_556 S
C4 C6 1.348 1_655 S
C4 C7 1.356 . S
C4 O60 1.325 . S
N5 C8 1.314 . S
N5 C9 1.279 . S
C6 C4 1.348 1_455 S
C6 C8 1.353 1_455 S
C6 H64 0.929 . S
C7 C4 1.356 . S
C7 C9 1.358 . S
C7 H65 0.930 . S
C8 N5 1.314 . S
C8 C6 1.353 1_655 S
C8 H66 0.930 1_655 S
C9 N5 1.279 . S
C9 C7 1.358 . S
C9 H67 0.930 . S
C10 C13 1.348 1_455 S
C10 C14 1.356 . S
C10 O61 1.325 . S
C11 N12 1.279 . S
C11 C14 1.358 . S
C11 H68 0.930 . S
N12 C11 1.279 . S
N12 C15 1.314 . S
C13 C10 1.348 1_655 S
C13 C15 1.338 1_655 S
C13 H69 0.946 . S
C14 C10 1.356 . S
C14 C11 1.358 . S
C14 H70 0.930 . S
C15 N12 1.314 . S
C15 C13 1.338 1_455 S
C15 H71 0.930 1_455 S
C16 N17 1.314 . S
C16 C21 1.353 . S
C16 H22 0.930 . S
N17 Li0 1.990 1_556 S
N17 C16 1.314 . S
N17 C19 1.279 1_556 S
C18 C19 1.358 . S
C18 C20 1.356 1_554 S
C18 H72 0.930 . S
C19 N17 1.279 1_554 S
C19 C18 1.358 . S
C19 H23 0.930 . S
C20 C18 1.356 1_556 S
C20 C21 1.348 . S
C21 C16 1.353 . S
C21 C20 1.348 . S
C21 H73 0.929 . S
H22 C16 0.930 . S
H23 C19 0.930 . S
C24 N25 1.314 . S
C24 C26 1.353 . S
C24 H30 0.930 . S
N25 Li1 1.990 . S
N25 C24 1.314 . S
N25 C28 1.279 . S
C26 C24 1.353 . S
C26 C29 1.348 . S
C26 H74 0.929 . S
C27 C28 1.358 . S
C27 C29 1.356 . S
C27 H75 0.952 . S
C28 N25 1.279 . S
C28 C27 1.358 . S
C28 H31 0.930 1_554 S
C29 C26 1.348 . S
C29 C27 1.356 . S
H30 C24 0.930 . S
H31 C28 0.930 1_556 S
C32 C34 1.348 . S
C32 C35 1.356 1_556 S
C32 O62 1.325 1_556 S
N33 C36 1.314 . S
N33 C37 1.279 1_556 S
C34 C32 1.348 . S
C34 C36 1.353 . S
C34 H76 0.929 . S
C35 C32 1.356 1_554 S
C35 C37 1.358 . S
C35 H77 0.930 . S
C36 N33 1.314 . S
C36 C34 1.353 . S
C36 H78 0.930 . S
C37 N33 1.279 1_554 S
C37 C35 1.358 . S
C37 H79 0.930 . S
C38 C39 1.348 . S
C38 C40 1.356 . S
C38 O63 1.325 . S
C39 C38 1.348 . S
C39 C41 1.353 . S
C39 H80 0.929 . S
C40 C38 1.356 . S
C40 C42 1.358 . S
C40 H81 0.930 1_554 S
C41 C39 1.353 . S
C41 N43 1.314 . S
C41 H82 0.930 . S
C42 C40 1.358 . S
C42 N43 1.279 . S
C42 H83 0.930 . S
N43 C41 1.314 . S
N43 C42 1.279 . S
C44 C46 1.353 . S
C44 N47 1.314 . S
C44 H50 0.930 1_655 S
C45 N47 1.279 . S
C45 C48 1.358 . S
C45 H51 0.930 . S
C46 C44 1.353 . S
C46 C49 1.348 . S
C46 H84 0.965 . S
N47 Li2 1.990 . S
N47 C44 1.314 . S
N47 C45 1.279 . S
C48 C45 1.358 . S
C48 C49 1.356 . S
C48 H85 0.930 . S
C49 C46 1.348 . S
C49 C48 1.356 . S
H50 C44 0.930 1_455 S
H51 C45 0.930 . S
C52 N53 1.314 . S
C52 C54 1.353 . S
C52 H58 0.930 1_455 S
N53 Li3 1.990 . S
N53 C52 1.314 . S
N53 C56 1.279 . S
C54 C52 1.353 . S
C54 C57 1.348 . S
C54 H86 0.929 . S
C55 C56 1.358 . S
C55 C57 1.356 . S
C55 H87 0.930 . S
C56 N53 1.279 . S
C56 C55 1.358 . S
C56 H59 0.930 . S
C57 C54 1.348 . S
C57 C55 1.356 . S
H58 C52 0.930 1_655 S
H59 C56 0.930 . S
O60 Li0 1.956 . S
O60 Li1 1.970 1_655 S
O60 Li2 1.961 . S
O60 C4 1.325 . S
O61 Li0 1.970 1_456 S
O61 Li1 1.956 1_556 S
O61 Li3 1.961 . S
O61 C10 1.325 . S
O62 Li0 1.961 . S
O62 Li2 1.956 . S
O62 Li3 1.970 1_654 S
O62 C32 1.325 1_554 S
O63 Li1 1.961 . S
O63 Li2 1.970 1_455 S
O63 Li3 1.956 1_554 S
O63 C38 1.325 . S
H64 C6 0.929 . S
H65 C7 0.930 . S
H66 C8 0.930 1_455 S
H67 C9 0.930 . S
H68 C11 0.930 . S
H69 C13 0.946 . S
H70 C14 0.930 . S
H71 C15 0.930 1_655 S
H72 C18 0.930 . S
H73 C21 0.929 . S
H74 C26 0.929 . S
H75 C27 0.952 . S
H76 C34 0.929 . S
H77 C35 0.930 . S
H78 C36 0.930 . S
H79 C37 0.930 . S
H80 C39 0.929 . S
H81 C40 0.930 1_556 S
H82 C41 0.930 . S
H83 C42 0.930 . S
H84 C46 0.965 . S
H85 C48 0.930 . S
H86 C54 0.929 . S
H87 C55 0.930 . S
Li88 N105 1.990 1_554 S
Li88 O148 1.956 . S
Li88 O149 1.970 1_554 S
Li88 O150 1.959 1_554 S
Li89 N113 1.990 . S
Li89 O148 1.970 . S
Li89 O149 1.956 1_554 S
Li89 O151 1.961 . S
Li90 N135 1.990 . S
Li90 O148 1.961 . S
Li90 O150 1.926 1_554 S
Li90 O151 1.970 . S
Li91 N141 1.990 . S
Li91 O149 1.961 . S
Li91 O150 1.984 . S
Li91 O151 1.956 1_556 S
C92 C94 1.348 . S
C92 C95 1.356 . S
C92 O148 1.325 . S
N93 C96 1.314 . S
N93 C97 1.279 . S
C94 C92 1.348 . S
C94 C96 1.353 . S
C94 H152 0.929 . S
C95 C92 1.356 . S
C95 C97 1.358 . S
C95 H153 0.930 . S
C96 N93 1.314 . S
C96 C94 1.353 . S
C96 H154 0.930 . S
C97 N93 1.279 . S
C97 C95 1.358 . S
C97 H155 0.930 . S
C98 C101 1.348 . S
C98 C102 1.356 . S
C98 O149 1.325 . S
C99 N100 1.279 . S
C99 C102 1.358 . S
C99 H156 0.930 . S
N100 C99 1.279 . S
N100 C103 1.314 . S
C101 C98 1.348 . S
C101 C103 1.353 . S
C101 H157 0.929 . S
C102 C98 1.356 . S
C102 C99 1.358 . S
C102 H158 0.930 . S
C103 N100 1.314 . S
C103 C101 1.353 . S
C103 H159 0.930 . S
C104 N105 1.314 . S
C104 C109 1.353 . S
C104 H110 0.930 . S
N105 Li88 1.990 1_556 S
N105 C104 1.314 . S
N105 C107 1.279 1_556 S
C106 C107 1.362 . S
C106 C108 1.345 1_554 S
C106 H160 0.938 . S
C107 N105 1.279 1_554 S
C107 C106 1.362 . S
C107 H111 0.930 . S
C108 C106 1.345 1_556 S
C108 C109 1.348 . S
C109 C104 1.353 . S
C109 C108 1.348 . S
C109 H161 0.929 . S
H110 C104 0.930 . S
H111 C107 0.930 . S
C112 N113 1.314 . S
C112 C114 1.353 . S
C112 H118 0.930 . S
N113 Li89 1.990 . S
N113 C112 1.314 . S
N113 C116 1.279 . S
C114 C112 1.353 . S
C114 C117 1.348 . S
C114 H162 0.929 . S
C115 C116 1.358 . S
C115 C117 1.356 . S
C115 H163 0.930 . S
C116 N113 1.279 . S
C116 C115 1.358 . S
C116 H119 0.930 1_554 S
C117 C114 1.348 . S
C117 C115 1.356 . S
H118 C112 0.930 . S
H119 C116 0.930 1_556 S
C120 C122 1.348 . S
C120 C123 1.356 1_556 S
C120 O150 1.332 . S
N121 C124 1.314 . S
N121 C125 1.279 . S
C122 C120 1.348 . S
C122 C124 1.353 . S
C122 H164 0.929 . S
C123 C120 1.356 1_554 S
C123 C125 1.358 1_554 S
C123 H165 0.930 . S
C124 N121 1.314 . S
C124 C122 1.353 . S
C124 H166 0.930 . S
C125 N121 1.279 . S
C125 C123 1.358 1_556 S
C125 H167 0.930 1_556 S
C126 C127 1.348 . S
C126 C128 1.356 . S
C126 O151 1.325 . S
C127 C126 1.348 . S
C127 C129 1.353 . S
C127 H168 0.929 . S
C128 C126 1.356 . S
C128 C130 1.358 . S
C128 H169 0.930 . S
C129 C127 1.353 . S
C129 N131 1.314 . S
C129 H170 0.930 . S
C130 C128 1.358 . S
C130 N131 1.279 . S
C130 H171 0.930 . S
N131 C129 1.314 . S
N131 C130 1.279 . S
C132 C134 1.353 . S
C132 N135 1.314 . S
C132 H138 0.930 . S
C133 N135 1.279 . S
C133 C136 1.358 . S
C133 H139 0.930 . S
C134 C132 1.353 . S
C134 C137 1.348 . S
C134 H172 0.929 . S
N135 Li90 1.990 . S
N135 C132 1.314 . S
N135 C133 1.279 . S
C136 C133 1.358 . S
C136 C137 1.356 . S
C136 H173 0.930 . S
C137 C134 1.348 . S
C137 C136 1.356 . S
H138 C132 0.930 . S
H139 C133 0.930 . S
C140 N141 1.314 . S
C140 C142 1.353 . S
C140 H146 0.930 . S
N141 Li91 1.990 . S
N141 C140 1.314 . S
N141 C144 1.279 . S
C142 C140 1.353 . S
C142 C145 1.348 . S
C142 H174 0.929 . S
C143 C144 1.358 . S
C143 C145 1.356 . S
C143 H175 0.930 . S
C144 N141 1.279 . S
C144 C143 1.358 . S
C144 H147 0.930 . S
C145 C142 1.348 . S
C145 C143 1.356 . S
H146 C140 0.930 . S
H147 C144 0.930 . S
O148 Li88 1.956 . S
O148 Li89 1.970 . S
O148 Li90 1.961 . S
O148 C92 1.325 . S
O149 Li88 1.970 1_556 S
O149 Li89 1.956 1_556 S
O149 Li91 1.961 . S
O149 C98 1.325 . S
O150 Li88 1.959 1_556 S
O150 Li90 1.926 1_556 S
O150 Li91 1.984 . S
O150 C120 1.332 . S
O151 Li89 1.961 . S
O151 Li90 1.970 . S
O151 Li91 1.956 1_554 S
O151 C126 1.325 . S
H152 C94 0.929 . S
H153 C95 0.930 . S
H154 C96 0.930 . S
H155 C97 0.930 . S
H156 C99 0.930 . S
H157 C101 0.929 . S
H158 C102 0.930 . S
H159 C103 0.930 . S
H160 C106 0.938 . S
H161 C109 0.929 . S
H162 C114 0.929 . S
H163 C115 0.930 . S
H164 C122 0.929 . S
H165 C123 0.930 . S
H166 C124 0.930 . S
H167 C125 0.930 1_554 S
H168 C127 0.929 . S
H169 C128 0.930 . S
H170 C129 0.930 . S
H171 C130 0.930 . S
H172 C134 0.929 . S
H173 C136 0.930 . S
H174 C142 0.929 . S
H175 C143 0.930 . S
Li176 N193 1.990 . S
Li176 O236 1.956 1_556 S
Li176 O237 1.958 1_566 S
Li176 O238 1.961 . S
Li177 N201 1.990 . S
Li177 O236 1.970 1_545 S
Li177 O237 1.979 . S
Li177 O239 1.961 . S
Li178 N223 1.990 . S
Li178 O236 1.961 . S
Li178 O238 1.956 1_554 S
Li178 O239 1.970 1_565 S
Li179 N229 1.990 1_554 S
Li179 O237 1.963 . S
Li179 O238 1.970 1_544 S
Li179 O239 1.956 . S
C180 C182 1.348 . S
C180 C183 1.356 . S
C180 O236 1.325 . S
N181 C184 1.314 . S
N181 C185 1.279 . S
C182 C180 1.348 . S
C182 C184 1.353 . S
C182 H240 0.929 . S
C183 C180 1.356 . S
C183 C185 1.358 . S
C183 H241 0.930 1_554 S
C184 N181 1.314 . S
C184 C182 1.353 . S
C184 H242 0.930 . S
C185 N181 1.279 . S
C185 C183 1.358 . S
C185 H243 0.930 . S
C186 C189 1.348 . S
C186 C190 1.356 1_556 S
C186 O237 1.321 1_556 S
C187 N188 1.279 1_554 S
C187 C190 1.358 . S
C187 H244 0.930 . S
N188 C187 1.279 1_556 S
N188 C191 1.314 . S
C189 C186 1.348 . S
C189 C191 1.353 . S
C189 H245 0.929 . S
C190 C186 1.356 1_554 S
C190 C187 1.358 . S
C190 H246 0.930 . S
C191 N188 1.314 . S
C191 C189 1.353 . S
C191 H247 0.930 . S
C192 N193 1.314 . S
C192 C197 1.353 . S
C192 H198 0.930 1_565 S
N193 Li176 1.990 . S
N193 C192 1.314 . S
N193 C195 1.279 . S
C194 C195 1.358 . S
C194 C196 1.356 . S
C194 H248 0.930 . S
C195 N193 1.279 . S
C195 C194 1.358 . S
C195 H199 0.930 . S
C196 C194 1.356 . S
C196 C197 1.348 . S
C197 C192 1.353 . S
C197 C196 1.348 . S
C197 H249 0.929 . S
H198 C192 0.930 1_545 S
H199 C195 0.930 . S
C200 N201 1.314 . S
C200 C202 1.353 . S
C200 H206 0.930 1_545 S
N201 Li177 1.990 . S
N201 C200 1.314 . S
N201 C204 1.279 . S
C202 C200 1.353 . S
C202 C205 1.348 . S
C202 H250 0.929 . S
C203 C204 1.358 . S
C203 C205 1.356 . S
C203 H251 0.930 . S
C204 N201 1.279 . S
C204 C203 1.358 . S
C204 H207 0.930 . S
C205 C202 1.348 . S
C205 C203 1.356 . S
H206 C200 0.930 1_565 S
H207 C204 0.930 . S
C208 C210 1.348 1_565 S
C208 C211 1.356 . S
C208 O238 1.325 . S
N209 C212 1.314 . S
N209 C213 1.279 . S
C210 C208 1.348 1_545 S
C210 C212 1.353 1_545 S
C210 H252 0.929 . S
C211 C208 1.356 . S
C211 C213 1.358 . S
C211 H253 0.930 . S
C212 N209 1.314 . S
C212 C210 1.353 1_565 S
C212 H254 0.930 1_565 S
C213 N209 1.279 . S
C213 C211 1.358 . S
C213 H255 0.930 . S
C214 C215 1.348 1_545 S
C214 C216 1.356 . S
C214 O239 1.325 . S
C215 C214 1.348 1_565 S
C215 C217 1.341 1_565 S
C215 H256 0.942 . S
C216 C214 1.356 . S
C216 C218 1.358 . S
C216 H257 0.930 . S
C217 C215 1.341 1_545 S
C217 N219 1.314 . S
C217 H258 0.930 1_545 S
C218 C216 1.358 . S
C218 N219 1.279 . S
C218 H259 0.930 . S
N219 C217 1.314 . S
N219 C218 1.279 . S
C220 C222 1.353 . S
C220 N223 1.314 . S
C220 H226 0.930 . S
C221 N223 1.279 . S
C221 C224 1.358 . S
C221 H227 0.930 1_554 S
C222 C220 1.353 . S
C222 C225 1.348 . S
C222 H260 0.929 . S
N223 Li178 1.990 . S
N223 C220 1.314 . S
N223 C221 1.279 . S
C224 C221 1.358 . S
C224 C225 1.356 . S
C224 H261 0.914 1_554 S
C225 C222 1.348 . S
C225 C224 1.356 . S
H226 C220 0.930 . S
H227 C221 0.930 1_556 S
C228 N229 1.314 . S
C228 C230 1.353 . S
C228 H234 0.930 . S
N229 Li179 1.990 1_556 S
N229 C228 1.314 . S
N229 C232 1.279 1_556 S
C230 C228 1.353 . S
C230 C233 1.348 . S
C230 H262 0.929 . S
C231 C232 1.358 . S
C231 C233 1.356 1_554 S
C231 H263 0.930 . S
C232 N229 1.279 1_554 S
C232 C231 1.358 . S
C232 H235 0.930 . S
C233 C230 1.348 . S
C233 C231 1.356 1_556 S
H234 C228 0.930 . S
H235 C232 0.930 . S
O236 Li176 1.956 1_554 S
O236 Li177 1.970 1_565 S
O236 Li178 1.961 . S
O236 C180 1.325 . S
O237 Li176 1.958 1_544 S
O237 Li177 1.979 . S
O237 Li179 1.963 . S
O237 C186 1.321 1_554 S
O238 Li176 1.961 . S
O238 Li178 1.956 1_556 S
O238 Li179 1.970 1_566 S
O238 C208 1.325 . S
O239 Li177 1.961 . S
O239 Li178 1.970 1_545 S
O239 Li179 1.956 . S
O239 C214 1.325 . S
H240 C182 0.929 . S
H241 C183 0.930 1_556 S
H242 C184 0.930 . S
H243 C185 0.930 . S
H244 C187 0.930 . S
H245 C189 0.929 . S
H246 C190 0.930 . S
H247 C191 0.930 . S
H248 C194 0.930 . S
H249 C197 0.929 . S
H250 C202 0.929 . S
H251 C203 0.930 . S
H252 C210 0.929 . S
H253 C211 0.930 . S
H254 C212 0.930 1_545 S
H255 C213 0.930 . S
H256 C215 0.942 . S
H257 C216 0.930 . S
H258 C217 0.930 1_565 S
H259 C218 0.930 . S
H260 C222 0.929 . S
H261 C224 0.914 1_556 S
H262 C230 0.929 . S
H263 C231 0.930 . S
Li264 N281 1.990 . S
Li264 O324 1.956 . S
Li264 O325 1.970 1_455 S
Li264 O326 1.961 1_554 S
Li265 N289 1.990 . S
Li265 O324 1.970 1_655 S
Li265 O325 1.956 . S
Li265 O327 1.961 . S
Li266 N311 1.990 . S
Li266 O324 1.961 1_556 S
Li266 O326 1.956 . S
Li266 O327 1.970 1_456 S
Li267 N317 1.990 1_554 S
Li267 O325 1.961 . S
Li267 O326 1.970 1_654 S
Li267 O327 1.956 . S
C268 C270 1.348 . S
C268 C271 1.356 . S
C268 O324 1.325 . S
N269 C272 1.314 . S
N269 C273 1.279 . S
C270 C268 1.348 . S
C270 C272 1.353 . S
C270 H328 0.929 . S
C271 C268 1.356 . S
C271 C273 1.358 . S
C271 H329 0.930 1_554 S
C272 N269 1.314 . S
C272 C270 1.353 . S
C272 H330 0.930 . S
C273 N269 1.279 . S
C273 C271 1.358 . S
C273 H331 0.930 1_554 S
C274 C277 1.348 1_655 S
C274 C278 1.356 . S
C274 O325 1.325 . S
C275 N276 1.279 . S
C275 C278 1.358 . S
C275 H332 0.930 . S
N276 C275 1.279 . S
N276 C279 1.300 1_655 S
C277 C274 1.348 1_455 S
C277 C279 1.362 . S
C277 H333 0.929 . S
C278 C274 1.356 . S
C278 C275 1.358 . S
C278 H334 0.930 . S
C279 N276 1.300 1_455 S
C279 C277 1.362 . S
C279 H335 0.937 . S
C280 N281 1.314 . S
C280 C285 1.353 . S
C280 H286 0.930 . S
N281 Li264 1.990 . S
N281 C280 1.314 . S
N281 C283 1.279 . S
C282 C283 1.358 . S
C282 C284 1.356 . S
C282 H336 0.930 . S
C283 N281 1.279 . S
C283 C282 1.358 . S
C283 H287 0.930 . S
C284 C282 1.356 . S
C284 C285 1.348 . S
C285 C280 1.353 . S
C285 C284 1.348 . S
C285 H337 0.929 . S
H286 C280 0.930 . S
H287 C283 0.930 . S
C288 N289 1.314 . S
C288 C290 1.353 . S
C288 H294 0.930 . S
N289 Li265 1.990 . S
N289 C288 1.314 . S
N289 C292 1.279 . S
C290 C288 1.353 . S
C290 C293 1.348 . S
C290 H338 0.929 . S
C291 C292 1.358 . S
C291 C293 1.356 . S
C291 H339 0.930 . S
C292 N289 1.279 . S
C292 C291 1.358 . S
C292 H295 0.930 . S
C293 C290 1.348 . S
C293 C291 1.356 . S
H294 C288 0.930 . S
H295 C292 0.930 . S
C296 C298 1.348 1_455 S
C296 C299 1.356 . S
C296 O326 1.325 . S
N297 C300 1.297 1_455 S
N297 C301 1.279 . S
C298 C296 1.348 1_655 S
C298 C300 1.352 . S
C298 H340 0.929 . S
C299 C296 1.356 . S
C299 C301 1.358 . S
C299 H341 0.930 . S
C300 N297 1.297 1_655 S
C300 C298 1.352 . S
C300 H342 0.951 . S
C301 N297 1.279 . S
C301 C299 1.358 . S
C301 H343 0.930 . S
C302 C303 1.348 . S
C302 C304 1.356 1_556 S
C302 O327 1.325 1_556 S
C303 C302 1.348 . S
C303 C305 1.353 . S
C303 H344 0.929 . S
C304 C302 1.356 1_554 S
C304 C306 1.358 . S
C304 H345 0.930 . S
C305 C303 1.353 . S
C305 N307 1.314 . S
C305 H346 0.930 . S
C306 C304 1.358 . S
C306 N307 1.279 1_554 S
C306 H347 0.930 . S
N307 C305 1.314 . S
N307 C306 1.279 1_556 S
C308 C310 1.353 . S
C308 N311 1.314 . S
C308 H314 0.930 . S
C309 N311 1.279 . S
C309 C312 1.358 . S
C309 H315 0.930 . S
C310 C308 1.353 . S
C310 C313 1.348 . S
C310 H348 0.929 . S
N311 Li266 1.990 . S
N311 C308 1.314 . S
N311 C309 1.279 . S
C312 C309 1.358 . S
C312 C313 1.356 . S
C312 H349 0.930 . S
C313 C310 1.348 . S
C313 C312 1.356 . S
H314 C308 0.930 . S
H315 C309 0.930 . S
C316 N317 1.314 1_554 S
C316 C318 1.353 1_554 S
C316 H322 0.930 . S
N317 Li267 1.990 1_556 S
N317 C316 1.314 1_556 S
N317 C320 1.279 . S
C318 C316 1.353 1_556 S
C318 C321 1.348 . S
C318 H350 0.929 1_556 S
C319 C320 1.358 . S
C319 C321 1.356 . S
C319 H351 0.930 . S
C320 N317 1.279 . S
C320 C319 1.358 . S
C320 H323 0.930 . S
C321 C318 1.348 . S
C321 C319 1.356 . S
H322 C316 0.930 . S
H323 C320 0.930 . S
O324 Li264 1.956 . S
O324 Li265 1.970 1_455 S
O324 Li266 1.961 1_554 S
O324 C268 1.325 . S
O325 Li264 1.970 1_655 S
O325 Li265 1.956 . S
O325 Li267 1.961 . S
O325 C274 1.325 . S
O326 Li264 1.961 1_556 S
O326 Li266 1.956 . S
O326 Li267 1.970 1_456 S
O326 C296 1.325 . S
O327 Li265 1.961 . S
O327 Li266 1.970 1_654 S
O327 Li267 1.956 . S
O327 C302 1.325 1_554 S
H328 C270 0.929 . S
H329 C271 0.930 1_556 S
H330 C272 0.930 . S
H331 C273 0.930 1_556 S
H332 C275 0.930 . S
H333 C277 0.929 . S
H334 C278 0.930 . S
H335 C279 0.937 . S
H336 C282 0.930 . S
H337 C285 0.929 . S
H338 C290 0.929 . S
H339 C291 0.930 . S
H340 C298 0.929 . S
H341 C299 0.930 . S
H342 C300 0.951 . S
H343 C301 0.930 . S
H344 C303 0.929 . S
H345 C304 0.930 . S
H346 C305 0.930 . S
H347 C306 0.930 . S
H348 C310 0.929 . S
H349 C312 0.930 . S
H350 C318 0.929 1_554 S
H351 C319 0.930 . S
Li352 N369 1.990 . S
Li352 O412 1.956 . S
Li352 O413 1.970 . S
Li352 O414 1.961 1_554 S
Li353 N377 1.990 . S
Li353 O412 1.970 . S
Li353 O413 1.956 . S
Li353 O415 1.961 1_554 S
Li354 N399 1.990 . S
Li354 O412 1.961 1_556 S
Li354 O414 1.956 . S
Li354 O415 1.970 . S
Li355 N405 1.983 1_554 S
Li355 O413 1.994 . S
Li355 O414 1.952 1_554 S
Li355 O415 1.955 1_554 S
C356 C358 1.348 . S
C356 C359 1.356 . S
C356 O412 1.325 . S
N357 C360 1.314 . S
N357 C361 1.279 . S
C358 C356 1.348 . S
C358 C360 1.353 . S
C358 H416 0.929 . S
C359 C356 1.356 . S
C359 C361 1.358 . S
C359 H417 0.930 1_554 S
C360 N357 1.314 . S
C360 C358 1.353 . S
C360 H418 0.930 . S
C361 N357 1.279 . S
C361 C359 1.358 . S
C361 H419 0.930 . S
C362 C365 1.348 . S
C362 C366 1.356 . S
C362 O413 1.325 . S
C363 N364 1.279 . S
C363 C366 1.358 . S
C363 H420 0.930 . S
N364 C363 1.279 . S
N364 C367 1.314 . S
C365 C362 1.348 . S
C365 C367 1.353 . S
C365 H421 0.929 . S
C366 C362 1.356 . S
C366 C363 1.358 . S
C366 H422 0.930 . S
C367 N364 1.314 . S
C367 C365 1.353 . S
C367 H423 0.930 . S
C368 N369 1.314 . S
C368 C373 1.353 . S
C368 H374 0.930 . S
N369 Li352 1.990 . S
N369 C368 1.314 . S
N369 C371 1.279 . S
C370 C371 1.358 . S
C370 C372 1.356 . S
C370 H424 0.930 . S
C371 N369 1.279 . S
C371 C370 1.358 . S
C371 H375 0.930 . S
C372 C370 1.356 . S
C372 C373 1.348 . S
C373 C368 1.353 . S
C373 C372 1.348 . S
C373 H425 0.929 . S
H374 C368 0.930 . S
H375 C371 0.930 . S
C376 N377 1.314 . S
C376 C378 1.353 . S
C376 H382 0.930 . S
N377 Li353 1.990 . S
N377 C376 1.314 . S
N377 C380 1.279 . S
C378 C376 1.353 . S
C378 C381 1.348 . S
C378 H426 0.929 . S
C379 C380 1.358 . S
C379 C381 1.356 . S
C379 H427 0.930 . S
C380 N377 1.279 . S
C380 C379 1.358 . S
C380 H383 0.930 . S
C381 C378 1.348 . S
C381 C379 1.356 . S
H382 C376 0.930 . S
H383 C380 0.930 . S
C384 C386 1.348 . S
C384 C387 1.356 . S
C384 O414 1.325 . S
N385 C388 1.314 . S
N385 C389 1.279 . S
C386 C384 1.348 . S
C386 C388 1.353 . S
C386 H428 0.929 . S
C387 C384 1.356 . S
C387 C389 1.358 . S
C387 H429 0.930 . S
C388 N385 1.314 . S
C388 C386 1.353 . S
C388 H430 0.930 . S
C389 N385 1.279 . S
C389 C387 1.358 . S
C389 H431 0.930 . S
C390 C391 1.348 . S
C390 C392 1.356 1_556 S
C390 O415 1.325 . S
C391 C390 1.348 . S
C391 C393 1.353 . S
C391 H432 0.929 . S
C392 C390 1.356 1_554 S
C392 C394 1.358 . S
C392 H433 0.930 . S
C393 C391 1.353 . S
C393 N395 1.314 . S
C393 H434 0.930 . S
C394 C392 1.358 . S
C394 N395 1.279 1_554 S
C394 H435 0.930 . S
N395 C393 1.314 . S
N395 C394 1.279 1_556 S
C396 C398 1.353 . S
C396 N399 1.314 . S
C396 H402 0.930 . S
C397 N399 1.279 . S
C397 C400 1.358 . S
C397 H403 0.930 . S
C398 C396 1.353 . S
C398 C401 1.348 . S
C398 H436 0.929 . S
N399 Li354 1.990 . S
N399 C396 1.314 . S
N399 C397 1.279 . S
C400 C397 1.358 . S
C400 C401 1.356 . S
C400 H437 0.930 . S
C401 C398 1.348 . S
C401 C400 1.356 . S
H402 C396 0.930 . S
H403 C397 0.930 . S
C404 N405 1.314 . S
C404 C406 1.353 . S
C404 H410 0.930 1_556 S
N405 Li355 1.983 1_556 S
N405 C404 1.314 . S
N405 C408 1.279 . S
C406 C404 1.353 . S
C406 C409 1.348 . S
C406 H438 0.929 . S
C407 C408 1.358 . S
C407 C409 1.356 . S
C407 H439 0.930 . S
C408 N405 1.279 . S
C408 C407 1.358 . S
C408 H411 0.930 . S
C409 C406 1.348 . S
C409 C407 1.356 . S
H410 C404 0.930 1_554 S
H411 C408 0.930 . S
O412 Li352 1.956 . S
O412 Li353 1.970 . S
O412 Li354 1.961 1_554 S
O412 C356 1.325 . S
O413 Li352 1.970 . S
O413 Li353 1.956 . S
O413 Li355 1.994 . S
O413 C362 1.325 . S
O414 Li352 1.961 1_556 S
O414 Li354 1.956 . S
O414 Li355 1.952 1_556 S
O414 C384 1.325 . S
O415 Li353 1.961 1_556 S
O415 Li354 1.970 . S
O415 Li355 1.955 1_556 S
O415 C390 1.325 . S
H416 C358 0.929 . S
H417 C359 0.930 1_556 S
H418 C360 0.930 . S
H419 C361 0.930 . S
H420 C363 0.930 . S
H421 C365 0.929 . S
H422 C366 0.930 . S
H423 C367 0.930 . S
H424 C370 0.930 . S
H425 C373 0.929 . S
H426 C378 0.929 . S
H427 C379 0.930 . S
H428 C386 0.929 . S
H429 C387 0.930 . S
H430 C388 0.930 . S
H431 C389 0.930 . S
H432 C391 0.929 . S
H433 C392 0.930 . S
H434 C393 0.930 . S
H435 C394 0.930 . S
H436 C398 0.929 . S
H437 C400 0.930 . S
H438 C406 0.929 . S
H439 C407 0.930 . S
Li440 N457 1.990 . S
Li440 O500 1.956 . S
Li440 O501 1.970 1_565 S
Li440 O502 1.961 1_554 S
Li441 N465 1.990 . S
Li441 O500 1.970 1_545 S
Li441 O501 1.956 . S
Li441 O503 1.961 . S
Li442 N487 1.990 . S
Li442 O500 1.961 1_556 S
Li442 O502 1.956 . S
Li442 O503 1.970 1_566 S
Li443 N493 1.990 1_554 S
Li443 O501 1.961 . S
Li443 O502 1.970 1_544 S
Li443 O503 1.956 . S
C444 C446 1.348 . S
C444 C447 1.356 . S
C444 O500 1.325 . S
N445 C448 1.314 . S
N445 C449 1.279 . S
C446 C444 1.348 . S
C446 C448 1.353 . S
C446 H504 0.929 . S
C447 C444 1.356 . S
C447 C449 1.358 . S
C447 H505 0.930 1_554 S
C448 N445 1.314 . S
C448 C446 1.353 . S
C448 H506 0.930 . S
C449 N445 1.279 . S
C449 C447 1.358 . S
C449 H507 0.930 1_554 S
C450 C453 1.348 1_545 S
C450 C454 1.356 . S
C450 O501 1.325 . S
C451 N452 1.279 . S
C451 C454 1.358 . S
C451 H508 0.930 . S
N452 C451 1.279 . S
N452 C455 1.300 1_545 S
C453 C450 1.348 1_565 S
C453 C455 1.352 . S
C453 H509 0.929 . S
C454 C450 1.356 . S
C454 C451 1.358 . S
C454 H510 0.930 . S
C455 N452 1.300 1_565 S
C455 C453 1.352 . S
C455 H511 0.947 . S
C456 N457 1.314 . S
C456 C461 1.353 . S
C456 H462 0.930 . S
N457 Li440 1.990 . S
N457 C456 1.314 . S
N457 C459 1.279 . S
C458 C459 1.358 . S
C458 C460 1.356 . S
C458 H512 0.930 . S
C459 N457 1.279 . S
C459 C458 1.358 . S
C459 H463 0.930 . S
C460 C458 1.356 . S
C460 C461 1.348 . S
C461 C456 1.353 . S
C461 C460 1.348 . S
C461 H513 0.929 . S
H462 C456 0.930 . S
H463 C459 0.930 . S
C464 N465 1.314 . S
C464 C466 1.353 . S
C464 H470 0.930 . S
N465 Li441 1.990 . S
N465 C464 1.314 . S
N465 C468 1.279 . S
C466 C464 1.353 . S
C466 C469 1.348 . S
C466 H514 0.929 . S
C467 C468 1.358 . S
C467 C469 1.356 . S
C467 H515 0.930 . S
C468 N465 1.279 . S
C468 C467 1.358 . S
C468 H471 0.930 . S
C469 C466 1.348 . S
C469 C467 1.356 . S
H470 C464 0.930 . S
H471 C468 0.930 . S
C472 C474 1.348 1_565 S
C472 C475 1.356 . S
C472 O502 1.325 . S
N473 C476 1.305 1_565 S
N473 C477 1.279 . S
C474 C472 1.348 1_545 S
C474 C476 1.358 . S
C474 H516 0.929 . S
C475 C472 1.356 . S
C475 C477 1.358 . S
C475 H517 0.930 . S
C476 N473 1.305 1_545 S
C476 C474 1.358 . S
C476 H518 0.934 . S
C477 N473 1.279 . S
C477 C475 1.358 . S
C477 H519 0.930 . S
C478 C479 1.348 . S
C478 C480 1.356 1_556 S
C478 O503 1.325 1_556 S
C479 C478 1.348 . S
C479 C481 1.353 . S
C479 H520 0.929 . S
C480 C478 1.356 1_554 S
C480 C482 1.358 . S
C480 H521 0.930 . S
C481 C479 1.353 . S
C481 N483 1.314 . S
C481 H522 0.930 . S
C482 C480 1.358 . S
C482 N483 1.279 1_554 S
C482 H523 0.930 . S
N483 C481 1.314 . S
N483 C482 1.279 1_556 S
C484 C486 1.353 . S
C484 N487 1.314 . S
C484 H490 0.930 . S
C485 N487 1.279 . S
C485 C488 1.358 . S
C485 H491 0.930 . S
C486 C484 1.353 . S
C486 C489 1.348 . S
C486 H524 0.929 . S
N487 Li442 1.990 . S
N487 C484 1.314 . S
N487 C485 1.279 . S
C488 C485 1.358 . S
C488 C489 1.356 . S
C488 H525 0.930 . S
C489 C486 1.348 . S
C489 C488 1.356 . S
H490 C484 0.930 . S
H491 C485 0.930 . S
C492 N493 1.314 1_554 S
C492 C494 1.353 1_554 S
C492 H498 0.930 . S
N493 Li443 1.990 1_556 S
N493 C492 1.314 1_556 S
N493 C496 1.279 . S
C494 C492 1.353 1_556 S
C494 C497 1.348 . S
C494 H526 0.929 1_556 S
C495 C496 1.358 . S
C495 C497 1.356 . S
C495 H527 0.930 . S
C496 N493 1.279 . S
C496 C495 1.358 . S
C496 H499 0.930 . S
C497 C494 1.348 . S
C497 C495 1.356 . S
H498 C492 0.930 . S
H499 C496 0.930 . S
O500 Li440 1.956 . S
O500 Li441 1.970 1_565 S
O500 Li442 1.961 1_554 S
O500 C444 1.325 . S
O501 Li440 1.970 1_545 S
O501 Li441 1.956 . S
O501 Li443 1.961 . S
O501 C450 1.325 . S
O502 Li440 1.961 1_556 S
O502 Li442 1.956 . S
O502 Li443 1.970 1_566 S
O502 C472 1.325 . S
O503 Li441 1.961 . S
O503 Li442 1.970 1_544 S
O503 Li443 1.956 . S
O503 C478 1.325 1_554 S
H504 C446 0.929 . S
H505 C447 0.930 1_556 S
H506 C448 0.930 . S
H507 C449 0.930 1_556 S
H508 C451 0.930 . S
H509 C453 0.929 . S
H510 C454 0.930 . S
H511 C455 0.947 . S
H512 C458 0.930 . S
H513 C461 0.929 . S
H514 C466 0.929 . S
H515 C467 0.930 . S
H516 C474 0.929 . S
H517 C475 0.930 . S
H518 C476 0.934 . S
H519 C477 0.930 . S
H520 C479 0.929 . S
H521 C480 0.930 . S
H522 C481 0.930 . S
H523 C482 0.930 . S
H524 C486 0.929 . S
H525 C488 0.930 . S
H526 C494 0.929 1_554 S
H527 C495 0.930 . S
Li528 N545 1.990 . S
Li528 O588 1.956 . S
Li528 O589 1.970 . S
Li528 O590 1.961 . S
Li529 N553 1.990 . S
Li529 O588 1.970 . S
Li529 O589 1.956 . S
Li529 O591 1.961 . S
Li530 N575 1.990 . S
Li530 O588 1.961 . S
Li530 O590 1.956 . S
Li530 O591 1.970 . S
Li531 N581 1.990 . S
Li531 O589 1.961 . S
Li531 O590 1.970 . S
Li531 O591 1.956 . S
C532 C534 1.348 . S
C532 C535 1.356 . S
C532 O588 1.325 . S
N533 C536 1.314 . S
N533 C537 1.279 . S
C534 C532 1.348 . S
C534 C536 1.353 . S
C534 H592 0.929 . S
C535 C532 1.356 . S
C535 C537 1.358 . S
C535 H593 0.930 . S
C536 N533 1.314 . S
C536 C534 1.353 . S
C536 H594 0.930 . S
C537 N533 1.279 . S
C537 C535 1.358 . S
C537 H595 0.930 . S
C538 C541 1.348 . S
C538 C542 1.356 . S
C538 O589 1.325 . S
C539 N540 1.279 . S
C539 C542 1.358 . S
C539 H596 0.930 . S
N540 C539 1.279 . S
N540 C543 1.314 . S
C541 C538 1.348 . S
C541 C543 1.353 . S
C541 H597 0.929 . S
C542 C538 1.356 . S
C542 C539 1.358 . S
C542 H598 0.930 . S
C543 N540 1.314 . S
C543 C541 1.353 . S
C543 H599 0.930 . S
C544 N545 1.314 . S
C544 C549 1.353 . S
C544 H550 0.930 . S
N545 Li528 1.990 . S
N545 C544 1.314 . S
N545 C547 1.279 . S
C546 C547 1.358 . S
C546 C548 1.356 . S
C546 H600 0.930 . S
C547 N545 1.279 . S
C547 C546 1.358 . S
C547 H551 0.930 . S
C548 C546 1.356 . S
C548 C549 1.348 . S
C549 C544 1.353 . S
C549 C548 1.348 . S
C549 H601 0.929 . S
H550 C544 0.930 . S
H551 C547 0.930 . S
C552 N553 1.314 . S
C552 C554 1.353 . S
C552 H558 0.930 . S
N553 Li529 1.990 . S
N553 C552 1.314 . S
N553 C556 1.279 . S
C554 C552 1.353 . S
C554 C557 1.348 . S
C554 H602 0.929 . S
C555 C556 1.358 . S
C555 C557 1.356 . S
C555 H603 0.930 . S
C556 N553 1.279 . S
C556 C555 1.358 . S
C556 H559 0.930 . S
C557 C554 1.348 . S
C557 C555 1.356 . S
H558 C552 0.930 . S
H559 C556 0.930 . S
C560 C562 1.348 . S
C560 C563 1.356 . S
C560 O590 1.325 . S
N561 C564 1.314 . S
N561 C565 1.279 . S
C562 C560 1.348 . S
C562 C564 1.353 . S
C562 H604 0.929 . S
C563 C560 1.356 . S
C563 C565 1.358 . S
C563 H605 0.930 . S
C564 N561 1.314 . S
C564 C562 1.353 . S
C564 H606 0.930 . S
C565 N561 1.279 . S
C565 C563 1.358 . S
C565 H607 0.930 . S
C566 C567 1.348 . S
C566 C568 1.356 . S
C566 O591 1.325 . S
C567 C566 1.348 . S
C567 C569 1.353 . S
C567 H608 0.929 . S
C568 C566 1.356 . S
C568 C570 1.358 . S
C568 H609 0.930 . S
C569 C567 1.353 . S
C569 N571 1.314 . S
C569 H610 0.930 . S
C570 C568 1.358 . S
C570 N571 1.279 . S
C570 H611 0.930 . S
N571 C569 1.314 . S
N571 C570 1.279 . S
C572 C574 1.353 . S
C572 N575 1.314 . S
C572 H578 0.930 . S
C573 N575 1.279 . S
C573 C576 1.358 . S
C573 H579 0.930 . S
C574 C572 1.353 . S
C574 C577 1.348 . S
C574 H612 0.929 . S
N575 Li530 1.990 . S
N575 C572 1.314 . S
N575 C573 1.279 . S
C576 C573 1.358 . S
C576 C577 1.356 . S
C576 H613 0.930 . S
C577 C574 1.348 . S
C577 C576 1.356 . S
H578 C572 0.930 . S
H579 C573 0.930 . S
C580 N581 1.314 . S
C580 C582 1.353 . S
C580 H586 0.930 . S
N581 Li531 1.990 . S
N581 C580 1.314 . S
N581 C584 1.279 . S
C582 C580 1.353 . S
C582 C585 1.348 . S
C582 H614 0.929 . S
C583 C584 1.358 . S
C583 C585 1.356 . S
C583 H615 0.930 . S
C584 N581 1.279 . S
C584 C583 1.358 . S
C584 H587 0.930 . S
C585 C582 1.348 . S
C585 C583 1.356 . S
H586 C580 0.930 . S
H587 C584 0.930 . S
O588 Li528 1.956 . S
O588 Li529 1.970 . S
O588 Li530 1.961 . S
O588 C532 1.325 . S
O589 Li528 1.970 . S
O589 Li529 1.956 . S
O589 Li531 1.961 . S
O589 C538 1.325 . S
O590 Li528 1.961 . S
O590 Li530 1.956 . S
O590 Li531 1.970 . S
O590 C560 1.325 . S
O591 Li529 1.961 . S
O591 Li530 1.970 . S
O591 Li531 1.956 . S
O591 C566 1.325 . S
H592 C534 0.929 . S
H593 C535 0.930 . S
H594 C536 0.930 . S
H595 C537 0.930 . S
H596 C539 0.930 . S
H597 C541 0.929 . S
H598 C542 0.930 . S
H599 C543 0.930 . S
H600 C546 0.930 . S
H601 C549 0.929 . S
H602 C554 0.929 . S
H603 C555 0.930 . S
H604 C562 0.929 . S
H605 C563 0.930 . S
H606 C564 0.930 . S
H607 C565 0.930 . S
H608 C567 0.929 . S
H609 C568 0.930 . S
H610 C569 0.930 . S
H611 C570 0.930 . S
H612 C574 0.929 . S
H613 C576 0.930 . S
H614 C582 0.929 . S
H615 C583 0.930 . S
Li616 N633 1.990 . S
Li616 O676 1.956 . S
Li616 O677 1.970 . S
Li616 O678 1.961 . S
Li617 N641 1.990 . S
Li617 O676 1.970 . S
Li617 O677 1.956 . S
Li617 O679 1.961 . S
Li618 N663 1.990 . S
Li618 O676 1.961 1_545 S
Li618 O678 1.956 1_545 S
Li618 O679 1.970 1_545 S
Li619 N669 1.990 . S
Li619 O677 1.961 . S
Li619 O678 1.970 . S
Li619 O679 1.956 . S
C620 C622 1.348 . S
C620 C623 1.356 . S
C620 O676 1.325 . S
N621 C624 1.314 . S
N621 C625 1.279 . S
C622 C620 1.348 . S
C622 C624 1.353 . S
C622 H680 0.929 . S
C623 C620 1.356 . S
C623 C625 1.358 . S
C623 H681 0.943 . S
C624 N621 1.314 . S
C624 C622 1.353 . S
C624 H682 0.930 . S
C625 N621 1.279 . S
C625 C623 1.358 . S
C625 H683 0.930 . S
C626 C629 1.348 . S
C626 C630 1.356 . S
C626 O677 1.325 . S
C627 N628 1.279 . S
C627 C630 1.358 . S
C627 H684 0.930 . S
N628 C627 1.279 . S
N628 C631 1.314 . S
C629 C626 1.348 . S
C629 C631 1.353 . S
C629 H685 0.929 . S
C630 C626 1.356 . S
C630 C627 1.358 . S
C630 H686 0.930 . S
C631 N628 1.314 . S
C631 C629 1.353 . S
C631 H687 0.930 . S
C632 N633 1.314 . S
C632 C637 1.353 . S
C632 H638 0.930 . S
N633 Li616 1.990 . S
N633 C632 1.314 . S
N633 C635 1.279 . S
C634 C635 1.358 . S
C634 C636 1.356 . S
C634 H688 0.930 . S
C635 N633 1.279 . S
C635 C634 1.358 . S
C635 H639 0.930 . S
C636 C634 1.356 . S
C636 C637 1.348 . S
C637 C632 1.353 . S
C637 C636 1.348 . S
C637 H689 0.929 . S
H638 C632 0.930 . S
H639 C635 0.930 . S
C640 N641 1.314 . S
C640 C642 1.353 . S
C640 H646 0.930 . S
N641 Li617 1.990 . S
N641 C640 1.314 . S
N641 C644 1.279 . S
C642 C640 1.353 . S
C642 C645 1.348 . S
C642 H690 0.929 . S
C643 C644 1.358 . S
C643 C645 1.356 . S
C643 H691 0.930 . S
C644 N641 1.279 . S
C644 C643 1.358 . S
C644 H647 0.930 . S
C645 C642 1.348 . S
C645 C643 1.356 . S
H646 C640 0.930 . S
H647 C644 0.930 . S
C648 C650 1.348 . S
C648 C651 1.356 . S
C648 O678 1.325 1_545 S
N649 C652 1.314 . S
N649 C653 1.279 . S
C650 C648 1.348 . S
C650 C652 1.353 . S
C650 H692 0.929 . S
C651 C648 1.356 . S
C651 C653 1.358 . S
C651 H693 0.930 . S
C652 N649 1.314 . S
C652 C650 1.353 . S
C652 H694 0.930 . S
C653 N649 1.279 . S
C653 C651 1.358 . S
C653 H695 0.930 . S
C654 C655 1.348 1_565 S
C654 C656 1.356 . S
C654 O679 1.325 . S
C655 C654 1.348 1_545 S
C655 C657 1.353 . S
C655 H696 0.929 . S
C656 C654 1.356 . S
C656 C658 1.358 . S
C656 H697 0.930 . S
C657 C655 1.353 . S
C657 N659 1.314 . S
C657 H698 0.930 . S
C658 C656 1.358 . S
C658 N659 1.279 1_565 S
C658 H699 0.930 . S
N659 C657 1.314 . S
N659 C658 1.279 1_545 S
C660 C662 1.353 . S
C660 N663 1.314 . S
C660 H666 0.930 . S
C661 N663 1.279 . S
C661 C664 1.358 . S
C661 H667 0.930 . S
C662 C660 1.353 . S
C662 C665 1.348 . S
C662 H700 0.929 . S
N663 Li618 1.990 . S
N663 C660 1.314 . S
N663 C661 1.279 . S
C664 C661 1.358 . S
C664 C665 1.356 . S
C664 H701 0.930 . S
C665 C662 1.348 . S
C665 C664 1.356 . S
H666 C660 0.930 . S
H667 C661 0.930 . S
C668 N669 1.314 . S
C668 C670 1.353 . S
C668 H674 0.930 . S
N669 Li619 1.990 . S
N669 C668 1.314 . S
N669 C672 1.279 . S
C670 C668 1.353 . S
C670 C673 1.348 . S
C670 H702 0.929 . S
C671 C672 1.358 . S
C671 C673 1.356 . S
C671 H703 0.930 1_565 S
C672 N669 1.279 . S
C672 C671 1.358 . S
C672 H675 0.930 1_565 S
C673 C670 1.348 . S
C673 C671 1.356 . S
H674 C668 0.930 . S
H675 C672 0.930 1_545 S
O676 Li616 1.956 . S
O676 Li617 1.970 . S
O676 Li618 1.961 1_565 S
O676 C620 1.325 . S
O677 Li616 1.970 . S
O677 Li617 1.956 . S
O677 Li619 1.961 . S
O677 C626 1.325 . S
O678 Li616 1.961 . S
O678 Li618 1.956 1_565 S
O678 Li619 1.970 . S
O678 C648 1.325 1_565 S
O679 Li617 1.961 . S
O679 Li618 1.970 1_565 S
O679 Li619 1.956 . S
O679 C654 1.325 . S
H680 C622 0.929 . S
H681 C623 0.943 . S
H682 C624 0.930 . S
H683 C625 0.930 . S
H684 C627 0.930 . S
H685 C629 0.929 . S
H686 C630 0.930 . S
H687 C631 0.930 . S
H688 C634 0.930 . S
H689 C637 0.929 . S
H690 C642 0.929 . S
H691 C643 0.930 . S
H692 C650 0.929 . S
H693 C651 0.930 . S
H694 C652 0.930 . S
H695 C653 0.930 . S
H696 C655 0.929 . S
H697 C656 0.930 . S
H698 C657 0.930 . S
H699 C658 0.930 . S
H700 C662 0.929 . S
H701 C664 0.930 . S
H702 C670 0.929 . S
H703 C671 0.930 1_545 S
Li704 N721 1.990 . S
Li704 O764 1.956 . S
Li704 O765 1.970 . S
Li704 O766 1.961 . S
Li705 N729 1.990 . S
Li705 O764 1.970 . S
Li705 O765 1.956 . S
Li705 O767 1.961 . S
Li706 N751 1.990 . S
Li706 O764 1.961 1_655 S
Li706 O766 1.956 1_655 S
Li706 O767 1.970 1_655 S
Li707 N757 1.990 . S
Li707 O765 1.961 . S
Li707 O766 1.970 . S
Li707 O767 1.956 . S
C708 C710 1.348 . S
C708 C711 1.356 . S
C708 O764 1.325 . S
N709 C712 1.314 . S
N709 C713 1.279 . S
C710 C708 1.348 . S
C710 C712 1.353 . S
C710 H768 0.929 . S
C711 C708 1.356 . S
C711 C713 1.358 . S
C711 H769 0.930 . S
C712 N709 1.314 . S
C712 C710 1.353 . S
C712 H770 0.930 . S
C713 N709 1.279 . S
C713 C711 1.358 . S
C713 H771 0.930 . S
C714 C717 1.348 . S
C714 C718 1.356 . S
C714 O765 1.325 . S
C715 N716 1.279 . S
C715 C718 1.358 . S
C715 H772 0.930 . S
N716 C715 1.279 . S
N716 C719 1.314 . S
C717 C714 1.348 . S
C717 C719 1.353 . S
C717 H773 0.929 . S
C718 C714 1.356 . S
C718 C715 1.358 . S
C718 H774 0.930 . S
C719 N716 1.314 . S
C719 C717 1.353 . S
C719 H775 0.930 . S
C720 N721 1.314 . S
C720 C725 1.353 . S
C720 H726 0.930 . S
N721 Li704 1.990 . S
N721 C720 1.314 . S
N721 C723 1.279 . S
C722 C723 1.358 . S
C722 C724 1.356 . S
C722 H776 0.930 . S
C723 N721 1.279 . S
C723 C722 1.358 . S
C723 H727 0.930 . S
C724 C722 1.356 . S
C724 C725 1.348 . S
C725 C720 1.353 . S
C725 C724 1.348 . S
C725 H777 0.929 . S
H726 C720 0.930 . S
H727 C723 0.930 . S
C728 N729 1.314 . S
C728 C730 1.353 . S
C728 H734 0.930 . S
N729 Li705 1.990 . S
N729 C728 1.314 . S
N729 C732 1.279 . S
C730 C728 1.353 . S
C730 C733 1.348 . S
C730 H778 0.929 . S
C731 C732 1.358 . S
C731 C733 1.356 . S
C731 H779 0.930 . S
C732 N729 1.279 . S
C732 C731 1.358 . S
C732 H735 0.930 . S
C733 C730 1.348 . S
C733 C731 1.356 . S
H734 C728 0.930 . S
H735 C732 0.930 . S
C736 C738 1.348 . S
C736 C739 1.356 . S
C736 O766 1.325 1_655 S
N737 C740 1.314 . S
N737 C741 1.279 . S
C738 C736 1.348 . S
C738 C740 1.353 . S
C738 H780 0.929 . S
C739 C736 1.356 . S
C739 C741 1.358 . S
C739 H781 0.930 . S
C740 N737 1.314 . S
C740 C738 1.353 . S
C740 H782 0.930 . S
C741 N737 1.279 . S
C741 C739 1.358 . S
C741 H783 0.930 . S
C742 C743 1.348 1_455 S
C742 C744 1.356 . S
C742 O767 1.325 . S
C743 C742 1.348 1_655 S
C743 C745 1.353 . S
C743 H784 0.929 . S
C744 C742 1.356 . S
C744 C746 1.358 . S
C744 H785 0.930 . S
C745 C743 1.353 . S
C745 N747 1.314 . S
C745 H786 0.930 . S
C746 C744 1.358 . S
C746 N747 1.279 1_455 S
C746 H787 0.930 . S
N747 C745 1.314 . S
N747 C746 1.279 1_655 S
C748 C750 1.353 . S
C748 N751 1.314 . S
C748 H754 0.930 . S
C749 N751 1.279 . S
C749 C752 1.358 . S
C749 H755 0.930 . S
C750 C748 1.353 . S
C750 C753 1.348 . S
C750 H788 0.929 . S
N751 Li706 1.990 . S
N751 C748 1.314 . S
N751 C749 1.279 . S
C752 C749 1.358 . S
C752 C753 1.356 . S
C752 H789 0.930 . S
C753 C750 1.348 . S
C753 C752 1.356 . S
H754 C748 0.930 . S
H755 C749 0.930 . S
C756 N757 1.314 . S
C756 C758 1.353 . S
C756 H762 0.930 . S
N757 Li707 1.990 . S
N757 C756 1.314 . S
N757 C760 1.279 . S
C758 C756 1.353 . S
C758 C761 1.348 . S
C758 H790 0.929 . S
C759 C760 1.358 . S
C759 C761 1.356 . S
C759 H791 0.930 1_455 S
C760 N757 1.279 . S
C760 C759 1.358 . S
C760 H763 0.930 1_455 S
C761 C758 1.348 . S
C761 C759 1.356 . S
H762 C756 0.930 . S
H763 C760 0.930 1_655 S
O764 Li704 1.956 . S
O764 Li705 1.970 . S
O764 Li706 1.961 1_455 S
O764 C708 1.325 . S
O765 Li704 1.970 . S
O765 Li705 1.956 . S
O765 Li707 1.961 . S
O765 C714 1.325 . S
O766 Li704 1.961 . S
O766 Li706 1.956 1_455 S
O766 Li707 1.970 . S
O766 C736 1.325 1_455 S
O767 Li705 1.961 . S
O767 Li706 1.970 1_455 S
O767 Li707 1.956 . S
O767 C742 1.325 . S
H768 C710 0.929 . S
H769 C711 0.930 . S
H770 C712 0.930 . S
H771 C713 0.930 . S
H772 C715 0.930 . S
H773 C717 0.929 . S
H774 C718 0.930 . S
H775 C719 0.930 . S
H776 C722 0.930 . S
H777 C725 0.929 . S
H778 C730 0.929 . S
H779 C731 0.930 . S
H780 C738 0.929 . S
H781 C739 0.930 . S
H782 C740 0.930 . S
H783 C741 0.930 . S
H784 C743 0.929 . S
H785 C744 0.930 . S
H786 C745 0.930 . S
H787 C746 0.930 . S
H788 C750 0.929 . S
H789 C752 0.930 . S
H790 C758 0.929 . S
H791 C759 0.930 1_655 S
Li792 N809 1.990 . S
Li792 O852 1.956 1_545 S
Li792 O853 1.970 1_545 S
Li792 O854 1.961 1_545 S
Li793 N817 1.990 . S
Li793 O852 1.970 . S
Li793 O853 1.956 . S
Li793 O855 1.961 . S
Li794 N839 1.990 . S
Li794 O852 1.961 . S
Li794 O854 1.956 . S
Li794 O855 1.970 . S
Li795 N845 1.990 . S
Li795 O853 1.961 . S
Li795 O854 1.970 . S
Li795 O855 1.956 . S
C796 C798 1.348 . S
C796 C799 1.356 . S
C796 O852 1.325 . S
N797 C800 1.314 . S
N797 C801 1.279 . S
C798 C796 1.348 . S
C798 C800 1.353 . S
C798 H856 0.929 . S
C799 C796 1.356 . S
C799 C801 1.358 . S
C799 H857 0.930 . S
C800 N797 1.314 . S
C800 C798 1.353 . S
C800 H858 0.930 . S
C801 N797 1.279 . S
C801 C799 1.358 . S
C801 H859 0.930 . S
C802 C805 1.348 1_565 S
C802 C806 1.356 . S
C802 O853 1.325 . S
C803 N804 1.279 1_565 S
C803 C806 1.358 . S
C803 H860 0.930 . S
N804 C803 1.279 1_545 S
N804 C807 1.314 . S
C805 C802 1.348 1_545 S
C805 C807 1.353 . S
C805 H861 0.929 . S
C806 C802 1.356 . S
C806 C803 1.358 . S
C806 H862 0.930 . S
C807 N804 1.314 . S
C807 C805 1.353 . S
C807 H863 0.930 . S
C808 N809 1.314 . S
C808 C813 1.353 . S
C808 H814 0.930 . S
N809 Li792 1.990 . S
N809 C808 1.314 . S
N809 C811 1.279 . S
C810 C811 1.358 . S
C810 C812 1.356 . S
C810 H864 0.930 . S
C811 N809 1.279 . S
C811 C810 1.358 . S
C811 H815 0.930 . S
C812 C810 1.356 . S
C812 C813 1.348 . S
C813 C808 1.353 . S
C813 C812 1.348 . S
C813 H865 0.929 . S
H814 C808 0.930 . S
H815 C811 0.930 . S
C816 N817 1.314 . S
C816 C818 1.353 . S
C816 H822 0.930 . S
N817 Li793 1.990 . S
N817 C816 1.314 . S
N817 C820 1.279 . S
C818 C816 1.353 . S
C818 C821 1.348 . S
C818 H866 0.929 . S
C819 C820 1.358 . S
C819 C821 1.356 . S
C819 H867 0.930 . S
C820 N817 1.279 . S
C820 C819 1.358 . S
C820 H823 0.930 . S
C821 C818 1.348 . S
C821 C819 1.356 . S
H822 C816 0.930 . S
H823 C820 0.930 . S
C824 C826 1.348 . S
C824 C827 1.356 . S
C824 O854 1.325 1_545 S
N825 C828 1.314 . S
N825 C829 1.279 . S
C826 C824 1.348 . S
C826 C828 1.353 . S
C826 H868 0.928 1_545 S
C827 C824 1.356 . S
C827 C829 1.358 . S
C827 H869 0.930 . S
C828 N825 1.314 . S
C828 C826 1.353 . S
C828 H870 0.930 . S
C829 N825 1.279 . S
C829 C827 1.358 . S
C829 H871 0.930 . S
C830 C831 1.348 . S
C830 C832 1.356 . S
C830 O855 1.325 . S
C831 C830 1.348 . S
C831 C833 1.353 . S
C831 H872 0.929 . S
C832 C830 1.356 . S
C832 C834 1.358 . S
C832 H873 0.930 . S
C833 C831 1.353 . S
C833 N835 1.314 . S
C833 H874 0.930 . S
C834 C832 1.358 . S
C834 N835 1.279 . S
C834 H875 0.930 . S
N835 C833 1.314 . S
N835 C834 1.279 . S
C836 C838 1.353 . S
C836 N839 1.314 . S
C836 H842 0.930 . S
C837 N839 1.279 . S
C837 C840 1.358 . S
C837 H843 0.930 . S
C838 C836 1.353 . S
C838 C841 1.348 . S
C838 H876 0.929 . S
N839 Li794 1.990 . S
N839 C836 1.314 . S
N839 C837 1.279 . S
C840 C837 1.358 . S
C840 C841 1.356 . S
C840 H877 0.930 . S
C841 C838 1.348 . S
C841 C840 1.356 . S
H842 C836 0.930 . S
H843 C837 0.930 . S
C844 N845 1.314 . S
C844 C846 1.321 1_565 S
C844 H850 0.930 1_565 S
N845 Li795 1.990 . S
N845 C844 1.314 . S
N845 C848 1.279 . S
C846 C844 1.321 1_545 S
C846 C849 1.330 1_545 S
C846 H878 0.979 . S
C847 C848 1.358 . S
C847 C849 1.356 . S
C847 H879 0.930 . S
C848 N845 1.279 . S
C848 C847 1.358 . S
C848 H851 0.930 . S
C849 C846 1.330 1_565 S
C849 C847 1.356 . S
H850 C844 0.930 1_545 S
H851 C848 0.930 . S
O852 Li792 1.956 1_565 S
O852 Li793 1.970 . S
O852 Li794 1.961 . S
O852 C796 1.325 . S
O853 Li792 1.970 1_565 S
O853 Li793 1.956 . S
O853 Li795 1.961 . S
O853 C802 1.325 . S
O854 Li792 1.961 1_565 S
O854 Li794 1.956 . S
O854 Li795 1.970 . S
O854 C824 1.325 1_565 S
O855 Li793 1.961 . S
O855 Li794 1.970 . S
O855 Li795 1.956 . S
O855 C830 1.325 . S
H856 C798 0.929 . S
H857 C799 0.930 . S
H858 C800 0.930 . S
H859 C801 0.930 . S
H860 C803 0.930 . S
H861 C805 0.929 . S
H862 C806 0.930 . S
H863 C807 0.930 . S
H864 C810 0.930 . S
H865 C813 0.929 . S
H866 C818 0.929 . S
H867 C819 0.930 . S
H868 C826 0.928 1_565 S
H869 C827 0.930 . S
H870 C828 0.930 . S
H871 C829 0.930 . S
H872 C831 0.929 . S
H873 C832 0.930 . S
H874 C833 0.930 . S
H875 C834 0.930 . S
H876 C838 0.929 . S
H877 C840 0.930 . S
H878 C846 0.979 . S
H879 C847 0.930 . S
Li880 N897 1.990 . S
Li880 O940 1.956 . S
Li880 O941 1.970 . S
Li880 O942 1.961 . S
Li881 N905 1.990 . S
Li881 O940 1.970 1_655 S
Li881 O941 1.956 1_655 S
Li881 O943 1.961 1_655 S
Li882 N927 1.990 . S
Li882 O940 1.961 . S
Li882 O942 1.956 . S
Li882 O943 1.970 . S
Li883 N933 1.990 . S
Li883 O941 1.961 . S
Li883 O942 1.970 . S
Li883 O943 1.956 . S
C884 C886 1.348 1_455 S
C884 C887 1.356 . S
C884 O940 1.325 . S
N885 C888 1.314 . S
N885 C889 1.279 1_655 S
C886 C884 1.348 1_655 S
C886 C888 1.353 . S
C886 H944 0.929 . S
C887 C884 1.356 . S
C887 C889 1.358 . S
C887 H945 0.930 . S
C888 N885 1.314 . S
C888 C886 1.353 . S
C888 H946 0.930 . S
C889 N885 1.279 1_455 S
C889 C887 1.358 . S
C889 H947 0.930 . S
C890 C893 1.348 . S
C890 C894 1.356 . S
C890 O941 1.325 . S
C891 N892 1.279 . S
C891 C894 1.358 . S
C891 H948 0.930 . S
N892 C891 1.279 . S
N892 C895 1.314 . S
C893 C890 1.348 . S
C893 C895 1.353 . S
C893 H949 0.929 . S
C894 C890 1.356 . S
C894 C891 1.358 . S
C894 H950 0.930 . S
C895 N892 1.314 . S
C895 C893 1.353 . S
C895 H951 0.930 . S
C896 N897 1.314 . S
C896 C901 1.353 . S
C896 H902 0.930 . S
N897 Li880 1.990 . S
N897 C896 1.314 . S
N897 C899 1.279 . S
C898 C899 1.358 . S
C898 C900 1.356 . S
C898 H952 0.930 . S
C899 N897 1.279 . S
C899 C898 1.358 . S
C899 H903 0.930 . S
C900 C898 1.356 . S
C900 C901 1.348 . S
C901 C896 1.353 . S
C901 C900 1.348 . S
C901 H953 0.929 . S
H902 C896 0.930 . S
H903 C899 0.930 . S
C904 N905 1.314 . S
C904 C906 1.353 . S
C904 H910 0.930 . S
N905 Li881 1.990 . S
N905 C904 1.314 . S
N905 C908 1.279 . S
C906 C904 1.353 . S
C906 C909 1.348 . S
C906 H954 0.929 . S
C907 C908 1.358 . S
C907 C909 1.356 . S
C907 H955 0.930 . S
C908 N905 1.279 . S
C908 C907 1.358 . S
C908 H911 0.930 . S
C909 C906 1.348 . S
C909 C907 1.356 . S
H910 C904 0.930 . S
H911 C908 0.930 . S
C912 C914 1.348 . S
C912 C915 1.356 . S
C912 O942 1.325 . S
N913 C916 1.314 . S
N913 C917 1.279 . S
C914 C912 1.348 . S
C914 C916 1.353 . S
C914 H956 0.929 . S
C915 C912 1.356 . S
C915 C917 1.358 . S
C915 H957 0.930 . S
C916 N913 1.314 . S
C916 C914 1.353 . S
C916 H958 0.930 . S
C917 N913 1.279 . S
C917 C915 1.358 . S
C917 H959 0.930 . S
C918 C919 1.348 . S
C918 C920 1.356 . S
C918 O943 1.325 1_655 S
C919 C918 1.348 . S
C919 C921 1.353 . S
C919 H960 0.935 . S
C920 C918 1.356 . S
C920 C922 1.358 . S
C920 H961 0.930 . S
C921 C919 1.353 . S
C921 N923 1.314 . S
C921 H962 0.930 . S
C922 C920 1.358 . S
C922 N923 1.279 . S
C922 H963 0.930 . S
N923 C921 1.314 . S
N923 C922 1.279 . S
C924 C926 1.353 1_455 S
C924 N927 1.314 . S
C924 H930 0.930 1_455 S
C925 N927 1.279 . S
C925 C928 1.358 . S
C925 H931 0.930 . S
C926 C924 1.353 1_655 S
C926 C929 1.348 1_655 S
C926 H964 0.929 . S
N927 Li882 1.990 . S
N927 C924 1.314 . S
N927 C925 1.279 . S
C928 C925 1.358 . S
C928 C929 1.356 . S
C928 H965 0.930 . S
C929 C926 1.348 1_455 S
C929 C928 1.356 . S
H930 C924 0.930 1_655 S
H931 C925 0.930 . S
C932 N933 1.314 . S
C932 C934 1.353 . S
C932 H938 0.930 . S
N933 Li883 1.990 . S
N933 C932 1.314 . S
N933 C936 1.279 . S
C934 C932 1.353 . S
C934 C937 1.348 . S
C934 H966 0.929 . S
C935 C936 1.358 . S
C935 C937 1.356 . S
C935 H967 0.930 . S
C936 N933 1.279 . S
C936 C935 1.358 . S
C936 H939 0.930 . S
C937 C934 1.348 . S
C937 C935 1.356 . S
H938 C932 0.930 . S
H939 C936 0.930 . S
O940 Li880 1.956 . S
O940 Li881 1.970 1_455 S
O940 Li882 1.961 . S
O940 C884 1.325 . S
O941 Li880 1.970 . S
O941 Li881 1.956 1_455 S
O941 Li883 1.961 . S
O941 C890 1.325 . S
O942 Li880 1.961 . S
O942 Li882 1.956 . S
O942 Li883 1.970 . S
O942 C912 1.325 . S
O943 Li881 1.961 1_455 S
O943 Li882 1.970 . S
O943 Li883 1.956 . S
O943 C918 1.325 1_455 S
H944 C886 0.929 . S
H945 C887 0.930 . S
H946 C888 0.930 . S
H947 C889 0.930 . S
H948 C891 0.930 . S
H949 C893 0.929 . S
H950 C894 0.930 . S
H951 C895 0.930 . S
H952 C898 0.930 . S
H953 C901 0.929 . S
H954 C906 0.929 . S
H955 C907 0.930 . S
H956 C914 0.929 . S
H957 C915 0.930 . S
H958 C916 0.930 . S
H959 C917 0.930 . S
H960 C919 0.935 . S
H961 C920 0.930 . S
H962 C921 0.930 . S
H963 C922 0.930 . S
H964 C926 0.929 . S
H965 C928 0.930 . S
H966 C934 0.929 . S
H967 C935 0.930 . S
Li968 N985 1.990 . S
Li968 O1028 1.956 . S
Li968 O1029 1.970 . S
Li968 O1030 1.961 . S
Li969 N993 1.990 . S
Li969 O1028 1.970 . S
Li969 O1029 1.956 . S
Li969 O1031 1.961 . S
Li970 N1015 1.990 . S
Li970 O1028 1.961 . S
Li970 O1030 1.956 . S
Li970 O1031 1.970 . S
Li971 N1021 1.990 . S
Li971 O1029 1.961 . S
Li971 O1030 1.970 . S
Li971 O1031 1.956 . S
C972 C974 1.348 . S
C972 C975 1.356 . S
C972 O1028 1.325 . S
N973 C976 1.314 . S
N973 C977 1.279 . S
C974 C972 1.348 . S
C974 C976 1.353 . S
C974 H1032 0.929 . S
C975 C972 1.356 . S
C975 C977 1.358 . S
C975 H1033 0.930 . S
C976 N973 1.314 . S
C976 C974 1.353 . S
C976 H1034 0.930 . S
C977 N973 1.279 . S
C977 C975 1.358 . S
C977 H1035 0.930 . S
C978 C981 1.348 . S
C978 C982 1.356 . S
C978 O1029 1.325 . S
C979 N980 1.279 . S
C979 C982 1.358 . S
C979 H1036 0.930 . S
N980 C979 1.279 . S
N980 C983 1.314 . S
C981 C978 1.348 . S
C981 C983 1.353 . S
C981 H1037 0.929 . S
C982 C978 1.356 . S
C982 C979 1.358 . S
C982 H1038 0.930 . S
C983 N980 1.314 . S
C983 C981 1.353 . S
C983 H1039 0.930 . S
C984 N985 1.314 . S
C984 C989 1.353 . S
C984 H990 0.930 . S
N985 Li968 1.990 . S
N985 C984 1.314 . S
N985 C987 1.279 . S
C986 C987 1.358 . S
C986 C988 1.356 . S
C986 H1040 0.930 . S
C987 N985 1.279 . S
C987 C986 1.358 . S
C987 H991 0.930 . S
C988 C986 1.356 . S
C988 C989 1.348 . S
C989 C984 1.353 . S
C989 C988 1.348 . S
C989 H1041 0.929 . S
H990 C984 0.930 . S
H991 C987 0.930 . S
C992 N993 1.314 . S
C992 C994 1.353 . S
C992 H998 0.930 . S
N993 Li969 1.990 . S
N993 C992 1.314 . S
N993 C996 1.279 . S
C994 C992 1.353 . S
C994 C997 1.348 . S
C994 H1042 0.929 . S
C995 C996 1.358 . S
C995 C997 1.356 . S
C995 H1043 0.930 . S
C996 N993 1.279 . S
C996 C995 1.358 . S
C996 H999 0.930 . S
C997 C994 1.348 . S
C997 C995 1.356 . S
H998 C992 0.930 . S
H999 C996 0.930 . S
C1000 C1002 1.348 . S
C1000 C1003 1.356 . S
C1000 O1030 1.325 . S
N1001 C1004 1.314 . S
N1001 C1005 1.279 . S
C1002 C1000 1.348 . S
C1002 C1004 1.353 . S
C1002 H1044 0.929 . S
C1003 C1000 1.356 . S
C1003 C1005 1.358 . S
C1003 H1045 0.930 . S
C1004 N1001 1.314 . S
C1004 C1002 1.353 . S
C1004 H1046 0.930 . S
C1005 N1001 1.279 . S
C1005 C1003 1.358 . S
C1005 H1047 0.930 . S
C1006 C1007 1.348 . S
C1006 C1008 1.356 . S
C1006 O1031 1.325 . S
C1007 C1006 1.348 . S
C1007 C1009 1.353 . S
C1007 H1048 0.929 . S
C1008 C1006 1.356 . S
C1008 C1010 1.358 . S
C1008 H1049 0.930 . S
C1009 C1007 1.353 . S
C1009 N1011 1.314 . S
C1009 H1050 0.930 . S
C1010 C1008 1.358 . S
C1010 N1011 1.279 . S
C1010 H1051 0.930 . S
N1011 C1009 1.314 . S
N1011 C1010 1.279 . S
C1012 C1014 1.353 . S
C1012 N1015 1.314 . S
C1012 H1018 0.930 . S
C1013 N1015 1.279 . S
C1013 C1016 1.358 . S
C1013 H1019 0.930 . S
C1014 C1012 1.353 . S
C1014 C1017 1.348 . S
C1014 H1052 0.929 . S
N1015 Li970 1.990 . S
N1015 C1012 1.314 . S
N1015 C1013 1.279 . S
C1016 C1013 1.358 . S
C1016 C1017 1.356 . S
C1016 H1053 0.930 . S
C1017 C1014 1.348 . S
C1017 C1016 1.356 . S
H1018 C1012 0.930 . S
H1019 C1013 0.930 . S
C1020 N1021 1.314 . S
C1020 C1022 1.353 . S
C1020 H1026 0.930 . S
N1021 Li971 1.990 . S
N1021 C1020 1.314 . S
N1021 C1024 1.279 . S
C1022 C1020 1.353 . S
C1022 C1025 1.348 . S
C1022 H1054 0.929 . S
C1023 C1024 1.358 . S
C1023 C1025 1.356 . S
C1023 H1055 0.930 . S
C1024 N1021 1.279 . S
C1024 C1023 1.358 . S
C1024 H1027 0.930 . S
C1025 C1022 1.348 . S
C1025 C1023 1.356 . S
H1026 C1020 0.930 . S
H1027 C1024 0.930 . S
O1028 Li968 1.956 . S
O1028 Li969 1.970 . S
O1028 Li970 1.961 . S
O1028 C972 1.325 . S
O1029 Li968 1.970 . S
O1029 Li969 1.956 . S
O1029 Li971 1.961 . S
O1029 C978 1.325 . S
O1030 Li968 1.961 . S
O1030 Li970 1.956 . S
O1030 Li971 1.970 . S
O1030 C1000 1.325 . S
O1031 Li969 1.961 . S
O1031 Li970 1.970 . S
O1031 Li971 1.956 . S
O1031 C1006 1.325 . S
H1032 C974 0.929 . S
H1033 C975 0.930 . S
H1034 C976 0.930 . S
H1035 C977 0.930 . S
H1036 C979 0.930 . S
H1037 C981 0.929 . S
H1038 C982 0.930 . S
H1039 C983 0.930 . S
H1040 C986 0.930 . S
H1041 C989 0.929 . S
H1042 C994 0.929 . S
H1043 C995 0.930 . S
H1044 C1002 0.929 . S
H1045 C1003 0.930 . S
H1046 C1004 0.930 . S
H1047 C1005 0.930 . S
H1048 C1007 0.929 . S
H1049 C1008 0.930 . S
H1050 C1009 0.930 . S
H1051 C1010 0.930 . S
H1052 C1014 0.929 . S
H1053 C1016 0.930 . S
H1054 C1022 0.929 . S
H1055 C1023 0.930 . S
Li1056 N1073 1.990 . S
Li1056 O1116 1.956 1_565 S
Li1056 O1117 1.970 1_565 S
Li1056 O1118 1.961 1_565 S
Li1057 N1081 1.990 . S
Li1057 O1116 1.970 . S
Li1057 O1117 1.956 . S
Li1057 O1119 1.961 . S
Li1058 N1103 1.990 . S
Li1058 O1116 1.961 . S
Li1058 O1118 1.956 . S
Li1058 O1119 1.970 . S
Li1059 N1109 1.990 . S
Li1059 O1117 1.961 . S
Li1059 O1118 1.970 . S
Li1059 O1119 1.956 . S
C1060 C1062 1.348 . S
C1060 C1063 1.356 . S
C1060 O1116 1.325 1_565 S
N1061 C1064 1.314 . S
N1061 C1065 1.279 . S
C1062 C1060 1.348 . S
C1062 C1064 1.353 . S
C1062 H1120 0.929 . S
C1063 C1060 1.356 . S
C1063 C1065 1.358 . S
C1063 H1121 0.930 . S
C1064 N1061 1.314 . S
C1064 C1062 1.353 . S
C1064 H1122 0.930 . S
C1065 N1061 1.279 . S
C1065 C1063 1.358 . S
C1065 H1123 0.930 . S
C1066 C1069 1.348 1_545 S
C1066 C1070 1.356 . S
C1066 O1117 1.325 . S
C1067 N1068 1.279 1_545 S
C1067 C1070 1.358 . S
C1067 H1124 0.930 . S
N1068 C1067 1.279 1_565 S
N1068 C1071 1.314 . S
C1069 C1066 1.348 1_565 S
C1069 C1071 1.353 . S
C1069 H1125 0.929 . S
C1070 C1066 1.356 . S
C1070 C1067 1.358 . S
C1070 H1126 0.930 . S
C1071 N1068 1.314 . S
C1071 C1069 1.353 . S
C1071 H1127 0.930 . S
C1072 N1073 1.314 . S
C1072 C1077 1.353 . S
C1072 H1078 0.930 . S
N1073 Li1056 1.990 . S
N1073 C1072 1.314 . S
N1073 C1075 1.279 . S
C1074 C1075 1.358 . S
C1074 C1076 1.356 . S
C1074 H1128 0.930 . S
C1075 N1073 1.279 . S
C1075 C1074 1.358 . S
C1075 H1079 0.930 . S
C1076 C1074 1.356 . S
C1076 C1077 1.348 . S
C1077 C1072 1.353 . S
C1077 C1076 1.348 . S
C1077 H1129 0.929 . S
H1078 C1072 0.930 . S
H1079 C1075 0.930 . S
C1080 N1081 1.314 . S
C1080 C1082 1.353 . S
C1080 H1086 0.930 . S
N1081 Li1057 1.990 . S
N1081 C1080 1.314 . S
N1081 C1084 1.279 . S
C1082 C1080 1.353 . S
C1082 C1085 1.348 . S
C1082 H1130 0.929 . S
C1083 C1084 1.358 . S
C1083 C1085 1.356 . S
C1083 H1131 0.930 1_545 S
C1084 N1081 1.279 . S
C1084 C1083 1.358 . S
C1084 H1087 0.928 1_545 S
C1085 C1082 1.348 . S
C1085 C1083 1.356 . S
H1086 C1080 0.930 . S
H1087 C1084 0.928 1_565 S
C1088 C1090 1.348 . S
C1088 C1091 1.356 . S
C1088 O1118 1.325 . S
N1089 C1092 1.314 . S
N1089 C1093 1.279 . S
C1090 C1088 1.348 . S
C1090 C1092 1.353 . S
C1090 H1132 0.929 . S
C1091 C1088 1.356 . S
C1091 C1093 1.358 . S
C1091 H1133 0.930 . S
C1092 N1089 1.314 . S
C1092 C1090 1.353 . S
C1092 H1134 0.930 . S
C1093 N1089 1.279 . S
C1093 C1091 1.358 . S
C1093 H1135 0.930 . S
C1094 C1095 1.348 . S
C1094 C1096 1.356 . S
C1094 O1119 1.325 . S
C1095 C1094 1.348 . S
C1095 C1097 1.353 . S
C1095 H1136 0.929 . S
C1096 C1094 1.356 . S
C1096 C1098 1.358 . S
C1096 H1137 0.930 . S
C1097 C1095 1.353 . S
C1097 N1099 1.314 . S
C1097 H1138 0.930 . S
C1098 C1096 1.358 . S
C1098 N1099 1.279 . S
C1098 H1139 0.930 . S
N1099 C1097 1.314 . S
N1099 C1098 1.279 . S
C1100 C1102 1.353 . S
C1100 N1103 1.314 . S
C1100 H1106 0.930 . S
C1101 N1103 1.279 . S
C1101 C1104 1.358 . S
C1101 H1107 0.930 . S
C1102 C1100 1.353 . S
C1102 C1105 1.348 . S
C1102 H1140 0.929 . S
N1103 Li1058 1.990 . S
N1103 C1100 1.314 . S
N1103 C1101 1.279 . S
C1104 C1101 1.358 . S
C1104 C1105 1.356 . S
C1104 H1141 0.930 . S
C1105 C1102 1.348 . S
C1105 C1104 1.356 . S
H1106 C1100 0.930 . S
H1107 C1101 0.930 . S
C1108 N1109 1.314 . S
C1108 C1110 1.353 . S
C1108 H1114 0.930 . S
N1109 Li1059 1.990 . S
N1109 C1108 1.314 . S
N1109 C1112 1.279 . S
C1110 C1108 1.353 . S
C1110 C1113 1.348 . S
C1110 H1142 0.929 . S
C1111 C1112 1.358 . S
C1111 C1113 1.356 . S
C1111 H1143 0.930 . S
C1112 N1109 1.279 . S
C1112 C1111 1.358 . S
C1112 H1115 0.930 . S
C1113 C1110 1.348 . S
C1113 C1111 1.356 . S
H1114 C1108 0.930 . S
H1115 C1112 0.930 . S
O1116 Li1056 1.956 1_545 S
O1116 Li1057 1.970 . S
O1116 Li1058 1.961 . S
O1116 C1060 1.325 1_545 S
O1117 Li1056 1.970 1_545 S
O1117 Li1057 1.956 . S
O1117 Li1059 1.961 . S
O1117 C1066 1.325 . S
O1118 Li1056 1.961 1_545 S
O1118 Li1058 1.956 . S
O1118 Li1059 1.970 . S
O1118 C1088 1.325 . S
O1119 Li1057 1.961 . S
O1119 Li1058 1.970 . S
O1119 Li1059 1.956 . S
O1119 C1094 1.325 . S
H1120 C1062 0.929 . S
H1121 C1063 0.930 . S
H1122 C1064 0.930 . S
H1123 C1065 0.930 . S
H1124 C1067 0.930 . S
H1125 C1069 0.929 . S
H1126 C1070 0.930 . S
H1127 C1071 0.930 . S
H1128 C1074 0.930 . S
H1129 C1077 0.929 . S
H1130 C1082 0.929 . S
H1131 C1083 0.930 1_565 S
H1132 C1090 0.929 . S
H1133 C1091 0.930 . S
H1134 C1092 0.930 . S
H1135 C1093 0.930 . S
H1136 C1095 0.929 . S
H1137 C1096 0.930 . S
H1138 C1097 0.930 . S
H1139 C1098 0.930 . S
H1140 C1102 0.929 . S
H1141 C1104 0.930 . S
H1142 C1110 0.929 . S
H1143 C1111 0.930 . S
Li1144 N1161 1.990 . S
Li1144 O1204 1.956 1_455 S
Li1144 O1205 1.970 1_455 S
Li1144 O1206 1.961 1_455 S
Li1145 N1169 1.990 . S
Li1145 O1204 1.970 . S
Li1145 O1205 1.956 . S
Li1145 O1207 1.961 . S
Li1146 N1191 1.990 . S
Li1146 O1204 1.961 . S
Li1146 O1206 1.956 . S
Li1146 O1207 1.970 . S
Li1147 N1197 1.990 . S
Li1147 O1205 1.961 . S
Li1147 O1206 1.970 . S
Li1147 O1207 1.956 . S
C1148 C1150 1.348 . S
C1148 C1151 1.356 . S
C1148 O1204 1.325 1_455 S
N1149 C1152 1.314 . S
N1149 C1153 1.279 . S
C1150 C1148 1.348 . S
C1150 C1152 1.353 . S
C1150 H1208 0.929 . S
C1151 C1148 1.356 . S
C1151 C1153 1.358 . S
C1151 H1209 0.930 . S
C1152 N1149 1.314 . S
C1152 C1150 1.353 . S
C1152 H1210 0.930 . S
C1153 N1149 1.279 . S
C1153 C1151 1.358 . S
C1153 H1211 0.930 . S
C1154 C1157 1.348 1_655 S
C1154 C1158 1.356 . S
C1154 O1205 1.325 . S
C1155 N1156 1.279 1_655 S
C1155 C1158 1.358 . S
C1155 H1212 0.930 . S
N1156 C1155 1.279 1_455 S
N1156 C1159 1.314 . S
C1157 C1154 1.348 1_455 S
C1157 C1159 1.353 . S
C1157 H1213 0.929 . S
C1158 C1154 1.356 . S
C1158 C1155 1.358 . S
C1158 H1214 0.930 . S
C1159 N1156 1.314 . S
C1159 C1157 1.353 . S
C1159 H1215 0.930 . S
C1160 N1161 1.314 . S
C1160 C1165 1.353 . S
C1160 H1166 0.930 . S
N1161 Li1144 1.990 . S
N1161 C1160 1.314 . S
N1161 C1163 1.279 . S
C1162 C1163 1.358 . S
C1162 C1164 1.356 . S
C1162 H1216 0.930 . S
C1163 N1161 1.279 . S
C1163 C1162 1.358 . S
C1163 H1167 0.930 . S
C1164 C1162 1.356 . S
C1164 C1165 1.348 . S
C1165 C1160 1.353 . S
C1165 C1164 1.348 . S
C1165 H1217 0.929 . S
H1166 C1160 0.930 . S
H1167 C1163 0.930 . S
C1168 N1169 1.314 . S
C1168 C1170 1.353 . S
C1168 H1174 0.930 . S
N1169 Li1145 1.990 . S
N1169 C1168 1.314 . S
N1169 C1172 1.279 . S
C1170 C1168 1.353 . S
C1170 C1173 1.348 . S
C1170 H1218 0.929 . S
C1171 C1172 1.358 . S
C1171 C1173 1.356 . S
C1171 H1219 0.930 1_655 S
C1172 N1169 1.279 . S
C1172 C1171 1.358 . S
C1172 H1175 0.892 1_655 S
C1173 C1170 1.348 . S
C1173 C1171 1.356 . S
H1174 C1168 0.930 . S
H1175 C1172 0.892 1_455 S
C1176 C1178 1.348 . S
C1176 C1179 1.356 . S
C1176 O1206 1.325 . S
N1177 C1180 1.314 . S
N1177 C1181 1.279 . S
C1178 C1176 1.348 . S
C1178 C1180 1.353 . S
C1178 H1220 0.929 . S
C1179 C1176 1.356 . S
C1179 C1181 1.358 . S
C1179 H1221 0.943 . S
C1180 N1177 1.314 . S
C1180 C1178 1.353 . S
C1180 H1222 0.930 . S
C1181 N1177 1.279 . S
C1181 C1179 1.358 . S
C1181 H1223 0.930 . S
C1182 C1183 1.348 . S
C1182 C1184 1.356 . S
C1182 O1207 1.325 . S
C1183 C1182 1.348 . S
C1183 C1185 1.353 . S
C1183 H1224 0.929 . S
C1184 C1182 1.356 . S
C1184 C1186 1.358 . S
C1184 H1225 0.930 . S
C1185 C1183 1.353 . S
C1185 N1187 1.314 . S
C1185 H1226 0.930 . S
C1186 C1184 1.358 . S
C1186 N1187 1.279 . S
C1186 H1227 0.930 . S
N1187 C1185 1.314 . S
N1187 C1186 1.279 . S
C1188 C1190 1.353 . S
C1188 N1191 1.314 . S
C1188 H1194 0.930 . S
C1189 N1191 1.279 . S
C1189 C1192 1.358 . S
C1189 H1195 0.930 . S
C1190 C1188 1.353 . S
C1190 C1193 1.348 . S
C1190 H1228 0.929 . S
N1191 Li1146 1.990 . S
N1191 C1188 1.314 . S
N1191 C1189 1.279 . S
C1192 C1189 1.358 . S
C1192 C1193 1.356 . S
C1192 H1229 0.930 . S
C1193 C1190 1.348 . S
C1193 C1192 1.356 . S
H1194 C1188 0.930 . S
H1195 C1189 0.930 . S
C1196 N1197 1.314 . S
C1196 C1198 1.353 . S
C1196 H1202 0.930 . S
N1197 Li1147 1.990 . S
N1197 C1196 1.314 . S
N1197 C1200 1.279 . S
C1198 C1196 1.353 . S
C1198 C1201 1.348 . S
C1198 H1230 0.929 . S
C1199 C1200 1.358 . S
C1199 C1201 1.356 . S
C1199 H1231 0.930 . S
C1200 N1197 1.279 . S
C1200 C1199 1.358 . S
C1200 H1203 0.930 . S
C1201 C1198 1.348 . S
C1201 C1199 1.356 . S
H1202 C1196 0.930 . S
H1203 C1200 0.930 . S
O1204 Li1144 1.956 1_655 S
O1204 Li1145 1.970 . S
O1204 Li1146 1.961 . S
O1204 C1148 1.325 1_655 S
O1205 Li1144 1.970 1_655 S
O1205 Li1145 1.956 . S
O1205 Li1147 1.961 . S
O1205 C1154 1.325 . S
O1206 Li1144 1.961 1_655 S
O1206 Li1146 1.956 . S
O1206 Li1147 1.970 . S
O1206 C1176 1.325 . S
O1207 Li1145 1.961 . S
O1207 Li1146 1.970 . S
O1207 Li1147 1.956 . S
O1207 C1182 1.325 . S
H1208 C1150 0.929 . S
H1209 C1151 0.930 . S
H1210 C1152 0.930 . S
H1211 C1153 0.930 . S
H1212 C1155 0.930 . S
H1213 C1157 0.929 . S
H1214 C1158 0.930 . S
H1215 C1159 0.930 . S
H1216 C1162 0.930 . S
H1217 C1165 0.929 . S
H1218 C1170 0.929 . S
H1219 C1171 0.930 1_455 S
H1220 C1178 0.929 . S
H1221 C1179 0.943 . S
H1222 C1180 0.930 . S
H1223 C1181 0.930 . S
H1224 C1183 0.929 . S
H1225 C1184 0.930 . S
H1226 C1185 0.930 . S
H1227 C1186 0.930 . S
H1228 C1190 0.929 . S
H1229 C1192 0.930 . S
H1230 C1198 0.929 . S
H1231 C1199 0.930 . S
Li1232 N1249 1.990 . S
Li1232 O1292 1.956 . S
Li1232 O1293 1.970 . S
Li1232 O1294 1.961 . S
Li1233 N1257 1.990 . S
Li1233 O1292 1.970 . S
Li1233 O1293 1.956 . S
Li1233 O1295 1.961 . S
Li1234 N1279 1.990 . S
Li1234 O1292 1.961 . S
Li1234 O1294 1.956 . S
Li1234 O1295 1.970 . S
Li1235 N1285 1.990 . S
Li1235 O1293 1.961 . S
Li1235 O1294 1.970 . S
Li1235 O1295 1.956 . S
C1236 C1238 1.348 . S
C1236 C1239 1.356 . S
C1236 O1292 1.325 . S
N1237 C1240 1.314 . S
N1237 C1241 1.279 . S
C1238 C1236 1.348 . S
C1238 C1240 1.353 . S
C1238 H1296 0.929 . S
C1239 C1236 1.356 . S
C1239 C1241 1.358 . S
C1239 H1297 0.930 . S
C1240 N1237 1.314 . S
C1240 C1238 1.353 . S
C1240 H1298 0.930 . S
C1241 N1237 1.279 . S
C1241 C1239 1.358 . S
C1241 H1299 0.930 . S
C1242 C1245 1.348 . S
C1242 C1246 1.356 . S
C1242 O1293 1.325 . S
C1243 N1244 1.279 . S
C1243 C1246 1.358 . S
C1243 H1300 0.930 . S
N1244 C1243 1.279 . S
N1244 C1247 1.314 . S
C1245 C1242 1.348 . S
C1245 C1247 1.353 . S
C1245 H1301 0.929 . S
C1246 C1242 1.356 . S
C1246 C1243 1.358 . S
C1246 H1302 0.930 . S
C1247 N1244 1.314 . S
C1247 C1245 1.353 . S
C1247 H1303 0.930 . S
C1248 N1249 1.314 . S
C1248 C1253 1.353 . S
C1248 H1254 0.930 . S
N1249 Li1232 1.990 . S
N1249 C1248 1.314 . S
N1249 C1251 1.279 . S
C1250 C1251 1.358 . S
C1250 C1252 1.356 . S
C1250 H1304 0.930 . S
C1251 N1249 1.279 . S
C1251 C1250 1.358 . S
C1251 H1255 0.930 . S
C1252 C1250 1.356 . S
C1252 C1253 1.348 . S
C1253 C1248 1.353 . S
C1253 C1252 1.348 . S
C1253 H1305 0.929 . S
H1254 C1248 0.930 . S
H1255 C1251 0.930 . S
C1256 N1257 1.314 . S
C1256 C1258 1.353 . S
C1256 H1262 0.930 . S
N1257 Li1233 1.990 . S
N1257 C1256 1.314 . S
N1257 C1260 1.279 . S
C1258 C1256 1.353 . S
C1258 C1261 1.348 . S
C1258 H1306 0.929 . S
C1259 C1260 1.358 . S
C1259 C1261 1.356 . S
C1259 H1307 0.930 . S
C1260 N1257 1.279 . S
C1260 C1259 1.358 . S
C1260 H1263 0.930 . S
C1261 C1258 1.348 . S
C1261 C1259 1.356 . S
H1262 C1256 0.930 . S
H1263 C1260 0.930 . S
C1264 C1266 1.348 . S
C1264 C1267 1.356 . S
C1264 O1294 1.325 . S
N1265 C1268 1.314 . S
N1265 C1269 1.279 . S
C1266 C1264 1.348 . S
C1266 C1268 1.353 . S
C1266 H1308 0.929 . S
C1267 C1264 1.356 . S
C1267 C1269 1.358 . S
C1267 H1309 0.930 . S
C1268 N1265 1.314 . S
C1268 C1266 1.353 . S
C1268 H1310 0.930 . S
C1269 N1265 1.279 . S
C1269 C1267 1.358 . S
C1269 H1311 0.930 . S
C1270 C1271 1.348 . S
C1270 C1272 1.356 . S
C1270 O1295 1.325 . S
C1271 C1270 1.348 . S
C1271 C1273 1.353 . S
C1271 H1312 0.929 . S
C1272 C1270 1.356 . S
C1272 C1274 1.358 . S
C1272 H1313 0.930 . S
C1273 C1271 1.353 . S
C1273 N1275 1.314 . S
C1273 H1314 0.930 . S
C1274 C1272 1.358 . S
C1274 N1275 1.279 . S
C1274 H1315 0.930 . S
N1275 C1273 1.314 . S
N1275 C1274 1.279 . S
C1276 C1278 1.353 . S
C1276 N1279 1.314 . S
C1276 H1282 0.930 . S
C1277 N1279 1.279 . S
C1277 C1280 1.358 . S
C1277 H1283 0.930 . S
C1278 C1276 1.353 . S
C1278 C1281 1.348 . S
C1278 H1316 0.929 . S
N1279 Li1234 1.990 . S
N1279 C1276 1.314 . S
N1279 C1277 1.279 . S
C1280 C1277 1.358 . S
C1280 C1281 1.356 . S
C1280 H1317 0.930 . S
C1281 C1278 1.348 . S
C1281 C1280 1.356 . S
H1282 C1276 0.930 . S
H1283 C1277 0.930 . S
C1284 N1285 1.314 . S
C1284 C1286 1.353 . S
C1284 H1290 0.930 . S
N1285 Li1235 1.990 . S
N1285 C1284 1.314 . S
N1285 C1288 1.279 . S
C1286 C1284 1.353 . S
C1286 C1289 1.348 . S
C1286 H1318 0.929 . S
C1287 C1288 1.358 . S
C1287 C1289 1.356 . S
C1287 H1319 0.930 . S
C1288 N1285 1.279 . S
C1288 C1287 1.358 . S
C1288 H1291 0.930 . S
C1289 C1286 1.348 . S
C1289 C1287 1.356 . S
H1290 C1284 0.930 . S
H1291 C1288 0.930 . S
O1292 Li1232 1.956 . S
O1292 Li1233 1.970 . S
O1292 Li1234 1.961 . S
O1292 C1236 1.325 . S
O1293 Li1232 1.970 . S
O1293 Li1233 1.956 . S
O1293 Li1235 1.961 . S
O1293 C1242 1.325 . S
O1294 Li1232 1.961 . S
O1294 Li1234 1.956 . S
O1294 Li1235 1.970 . S
O1294 C1264 1.325 . S
O1295 Li1233 1.961 . S
O1295 Li1234 1.970 . S
O1295 Li1235 1.956 . S
O1295 C1270 1.325 . S
H1296 C1238 0.929 . S
H1297 C1239 0.930 . S
H1298 C1240 0.930 . S
H1299 C1241 0.930 . S
H1300 C1243 0.930 . S
H1301 C1245 0.929 . S
H1302 C1246 0.930 . S
H1303 C1247 0.930 . S
H1304 C1250 0.930 . S
H1305 C1253 0.929 . S
H1306 C1258 0.929 . S
H1307 C1259 0.930 . S
H1308 C1266 0.929 . S
H1309 C1267 0.930 . S
H1310 C1268 0.930 . S
H1311 C1269 0.930 . S
H1312 C1271 0.929 . S
H1313 C1272 0.930 . S
H1314 C1273 0.930 . S
H1315 C1274 0.930 . S
H1316 C1278 0.929 . S
H1317 C1280 0.930 . S
H1318 C1286 0.929 . S
H1319 C1287 0.930 . S
Li1320 N1337 1.990 . S
Li1320 O1380 1.956 . S
Li1320 O1381 1.970 . S
Li1320 O1382 1.961 . S
Li1321 N1345 1.990 . S
Li1321 O1380 1.970 . S
Li1321 O1381 1.956 . S
Li1321 O1383 1.961 . S
Li1322 N1367 1.990 . S
Li1322 O1380 1.961 . S
Li1322 O1382 1.956 . S
Li1322 O1383 1.970 . S
Li1323 N1373 1.990 . S
Li1323 O1381 1.961 . S
Li1323 O1382 1.970 . S
Li1323 O1383 1.956 . S
C1324 C1326 1.348 . S
C1324 C1327 1.356 . S
C1324 O1380 1.325 . S
N1325 C1328 1.314 . S
N1325 C1329 1.279 . S
C1326 C1324 1.348 . S
C1326 C1328 1.353 . S
C1326 H1384 0.929 . S
C1327 C1324 1.356 . S
C1327 C1329 1.358 . S
C1327 H1385 0.930 . S
C1328 N1325 1.314 . S
C1328 C1326 1.353 . S
C1328 H1386 0.930 . S
C1329 N1325 1.279 . S
C1329 C1327 1.358 . S
C1329 H1387 0.930 . S
C1330 C1333 1.348 . S
C1330 C1334 1.356 . S
C1330 O1381 1.325 . S
C1331 N1332 1.279 . S
C1331 C1334 1.358 . S
C1331 H1388 0.930 . S
N1332 C1331 1.279 . S
N1332 C1335 1.314 . S
C1333 C1330 1.348 . S
C1333 C1335 1.353 . S
C1333 H1389 0.929 . S
C1334 C1330 1.356 . S
C1334 C1331 1.358 . S
C1334 H1390 0.930 . S
C1335 N1332 1.314 . S
C1335 C1333 1.353 . S
C1335 H1391 0.930 . S
C1336 N1337 1.314 . S
C1336 C1341 1.353 . S
C1336 H1342 0.930 . S
N1337 Li1320 1.990 . S
N1337 C1336 1.314 . S
N1337 C1339 1.279 . S
C1338 C1339 1.358 . S
C1338 C1340 1.356 . S
C1338 H1392 0.930 . S
C1339 N1337 1.279 . S
C1339 C1338 1.358 . S
C1339 H1343 0.930 . S
C1340 C1338 1.356 . S
C1340 C1341 1.348 . S
C1341 C1336 1.353 . S
C1341 C1340 1.348 . S
C1341 H1393 0.929 . S
H1342 C1336 0.930 . S
H1343 C1339 0.930 . S
C1344 N1345 1.314 . S
C1344 C1346 1.353 . S
C1344 H1350 0.930 . S
N1345 Li1321 1.990 . S
N1345 C1344 1.314 . S
N1345 C1348 1.279 . S
C1346 C1344 1.353 . S
C1346 C1349 1.348 . S
C1346 H1394 0.929 . S
C1347 C1348 1.358 . S
C1347 C1349 1.356 . S
C1347 H1395 0.930 . S
C1348 N1345 1.279 . S
C1348 C1347 1.358 . S
C1348 H1351 0.930 . S
C1349 C1346 1.348 . S
C1349 C1347 1.356 . S
H1350 C1344 0.930 . S
H1351 C1348 0.930 . S
C1352 C1354 1.348 . S
C1352 C1355 1.356 . S
C1352 O1382 1.325 . S
N1353 C1356 1.314 . S
N1353 C1357 1.279 . S
C1354 C1352 1.348 . S
C1354 C1356 1.353 . S
C1354 H1396 0.929 . S
C1355 C1352 1.356 . S
C1355 C1357 1.358 . S
C1355 H1397 0.930 . S
C1356 N1353 1.314 . S
C1356 C1354 1.353 . S
C1356 H1398 0.930 . S
C1357 N1353 1.279 . S
C1357 C1355 1.358 . S
C1357 H1399 0.930 . S
C1358 C1359 1.348 . S
C1358 C1360 1.356 . S
C1358 O1383 1.325 . S
C1359 C1358 1.348 . S
C1359 C1361 1.353 . S
C1359 H1400 0.929 . S
C1360 C1358 1.356 . S
C1360 C1362 1.358 . S
C1360 H1401 0.930 . S
C1361 C1359 1.353 . S
C1361 N1363 1.314 . S
C1361 H1402 0.930 . S
C1362 C1360 1.358 . S
C1362 N1363 1.279 . S
C1362 H1403 0.930 . S
N1363 C1361 1.314 . S
N1363 C1362 1.279 . S
C1364 C1366 1.353 . S
C1364 N1367 1.314 . S
C1364 H1370 0.930 . S
C1365 N1367 1.279 . S
C1365 C1368 1.358 . S
C1365 H1371 0.930 . S
C1366 C1364 1.353 . S
C1366 C1369 1.348 . S
C1366 H1404 0.929 . S
N1367 Li1322 1.990 . S
N1367 C1364 1.314 . S
N1367 C1365 1.279 . S
C1368 C1365 1.358 . S
C1368 C1369 1.356 . S
C1368 H1405 0.930 . S
C1369 C1366 1.348 . S
C1369 C1368 1.356 . S
H1370 C1364 0.930 . S
H1371 C1365 0.930 . S
C1372 N1373 1.314 . S
C1372 C1374 1.353 . S
C1372 H1378 0.930 . S
N1373 Li1323 1.990 . S
N1373 C1372 1.314 . S
N1373 C1376 1.279 . S
C1374 C1372 1.353 . S
C1374 C1377 1.348 . S
C1374 H1406 0.929 . S
C1375 C1376 1.358 . S
C1375 C1377 1.356 . S
C1375 H1407 0.930 . S
C1376 N1373 1.279 . S
C1376 C1375 1.358 . S
C1376 H1379 0.930 . S
C1377 C1374 1.348 . S
C1377 C1375 1.356 . S
H1378 C1372 0.930 . S
H1379 C1376 0.930 . S
O1380 Li1320 1.956 . S
O1380 Li1321 1.970 . S
O1380 Li1322 1.961 . S
O1380 C1324 1.325 . S
O1381 Li1320 1.970 . S
O1381 Li1321 1.956 . S
O1381 Li1323 1.961 . S
O1381 C1330 1.325 . S
O1382 Li1320 1.961 . S
O1382 Li1322 1.956 . S
O1382 Li1323 1.970 . S
O1382 C1352 1.325 . S
O1383 Li1321 1.961 . S
O1383 Li1322 1.970 . S
O1383 Li1323 1.956 . S
O1383 C1358 1.325 . S
H1384 C1326 0.929 . S
H1385 C1327 0.930 . S
H1386 C1328 0.930 . S
H1387 C1329 0.930 . S
H1388 C1331 0.930 . S
H1389 C1333 0.929 . S
H1390 C1334 0.930 . S
H1391 C1335 0.930 . S
H1392 C1338 0.930 . S
H1393 C1341 0.929 . S
H1394 C1346 0.929 . S
H1395 C1347 0.930 . S
H1396 C1354 0.929 . S
H1397 C1355 0.930 . S
H1398 C1356 0.930 . S
H1399 C1357 0.930 . S
H1400 C1359 0.929 . S
H1401 C1360 0.930 . S
H1402 C1361 0.930 . S
H1403 C1362 0.930 . S
H1404 C1366 0.929 . S
H1405 C1368 0.930 . S
H1406 C1374 0.929 . S
H1407 C1375 0.930 . S
Li1408 N1425 1.990 . S
Li1408 O1468 1.956 . S
Li1408 O1469 1.970 . S
Li1408 O1470 1.961 . S
Li1409 N1433 1.990 . S
Li1409 O1468 1.970 . S
Li1409 O1469 1.956 . S
Li1409 O1471 1.961 . S
Li1410 N1455 1.990 . S
Li1410 O1468 1.961 . S
Li1410 O1470 1.956 . S
Li1410 O1471 1.970 . S
Li1411 N1461 1.990 . S
Li1411 O1469 1.961 1_565 S
Li1411 O1470 1.970 1_565 S
Li1411 O1471 1.956 1_565 S
C1412 C1414 1.348 . S
C1412 C1415 1.356 . S
C1412 O1468 1.325 . S
N1413 C1416 1.314 . S
N1413 C1417 1.279 . S
C1414 C1412 1.348 . S
C1414 C1416 1.353 . S
C1414 H1472 0.929 . S
C1415 C1412 1.356 . S
C1415 C1417 1.358 . S
C1415 H1473 0.930 . S
C1416 N1413 1.314 . S
C1416 C1414 1.353 . S
C1416 H1474 0.930 . S
C1417 N1413 1.279 . S
C1417 C1415 1.358 . S
C1417 H1475 0.930 . S
C1418 C1421 1.348 . S
C1418 C1422 1.356 . S
C1418 O1469 1.325 1_565 S
C1419 N1420 1.279 . S
C1419 C1422 1.358 . S
C1419 H1476 0.930 . S
N1420 C1419 1.279 . S
N1420 C1423 1.314 . S
C1421 C1418 1.348 . S
C1421 C1423 1.353 . S
C1421 H1477 0.935 . S
C1422 C1418 1.356 . S
C1422 C1419 1.358 . S
C1422 H1478 0.930 . S
C1423 N1420 1.314 . S
C1423 C1421 1.353 . S
C1423 H1479 0.930 . S
C1424 N1425 1.314 . S
C1424 C1429 1.353 1_545 S
C1424 H1430 0.930 1_545 S
N1425 Li1408 1.990 . S
N1425 C1424 1.314 . S
N1425 C1427 1.279 . S
C1426 C1427 1.358 . S
C1426 C1428 1.356 . S
C1426 H1480 0.930 . S
C1427 N1425 1.279 . S
C1427 C1426 1.358 . S
C1427 H1431 0.930 . S
C1428 C1426 1.356 . S
C1428 C1429 1.348 1_545 S
C1429 C1424 1.353 1_565 S
C1429 C1428 1.348 1_565 S
C1429 H1481 0.929 . S
H1430 C1424 0.930 1_565 S
H1431 C1427 0.930 . S
C1432 N1433 1.314 . S
C1432 C1434 1.353 . S
C1432 H1438 0.930 . S
N1433 Li1409 1.990 . S
N1433 C1432 1.314 . S
N1433 C1436 1.279 . S
C1434 C1432 1.353 . S
C1434 C1437 1.348 . S
C1434 H1482 0.929 . S
C1435 C1436 1.358 . S
C1435 C1437 1.356 . S
C1435 H1483 0.930 . S
C1436 N1433 1.279 . S
C1436 C1435 1.358 . S
C1436 H1439 0.930 . S
C1437 C1434 1.348 . S
C1437 C1435 1.356 . S
H1438 C1432 0.930 . S
H1439 C1436 0.930 . S
C1440 C1442 1.348 1_545 S
C1440 C1443 1.356 . S
C1440 O1470 1.325 . S
N1441 C1444 1.314 . S
N1441 C1445 1.279 1_565 S
C1442 C1440 1.348 1_565 S
C1442 C1444 1.353 . S
C1442 H1484 0.929 . S
C1443 C1440 1.356 . S
C1443 C1445 1.358 . S
C1443 H1485 0.930 . S
C1444 N1441 1.314 . S
C1444 C1442 1.353 . S
C1444 H1486 0.930 . S
C1445 N1441 1.279 1_545 S
C1445 C1443 1.358 . S
C1445 H1487 0.930 . S
C1446 C1447 1.348 . S
C1446 C1448 1.356 . S
C1446 O1471 1.325 . S
C1447 C1446 1.348 . S
C1447 C1449 1.353 . S
C1447 H1488 0.929 . S
C1448 C1446 1.356 . S
C1448 C1450 1.358 . S
C1448 H1489 0.930 . S
C1449 C1447 1.353 . S
C1449 N1451 1.314 . S
C1449 H1490 0.930 . S
C1450 C1448 1.358 . S
C1450 N1451 1.279 . S
C1450 H1491 0.930 . S
N1451 C1449 1.314 . S
N1451 C1450 1.279 . S
C1452 C1454 1.353 . S
C1452 N1455 1.314 . S
C1452 H1458 0.930 . S
C1453 N1455 1.279 . S
C1453 C1456 1.358 . S
C1453 H1459 0.930 . S
C1454 C1452 1.353 . S
C1454 C1457 1.348 . S
C1454 H1492 0.929 . S
N1455 Li1410 1.990 . S
N1455 C1452 1.314 . S
N1455 C1453 1.279 . S
C1456 C1453 1.358 . S
C1456 C1457 1.356 . S
C1456 H1493 0.930 . S
C1457 C1454 1.348 . S
C1457 C1456 1.356 . S
H1458 C1452 0.930 . S
H1459 C1453 0.930 . S
C1460 N1461 1.314 . S
C1460 C1462 1.353 . S
C1460 H1466 0.930 . S
N1461 Li1411 1.990 . S
N1461 C1460 1.314 . S
N1461 C1464 1.279 . S
C1462 C1460 1.353 . S
C1462 C1465 1.348 . S
C1462 H1494 0.929 . S
C1463 C1464 1.358 . S
C1463 C1465 1.356 . S
C1463 H1495 0.930 . S
C1464 N1461 1.279 . S
C1464 C1463 1.358 . S
C1464 H1467 0.930 . S
C1465 C1462 1.348 . S
C1465 C1463 1.356 . S
H1466 C1460 0.930 . S
H1467 C1464 0.930 . S
O1468 Li1408 1.956 . S
O1468 Li1409 1.970 . S
O1468 Li1410 1.961 . S
O1468 C1412 1.325 . S
O1469 Li1408 1.970 . S
O1469 Li1409 1.956 . S
O1469 Li1411 1.961 1_545 S
O1469 C1418 1.325 1_545 S
O1470 Li1408 1.961 . S
O1470 Li1410 1.956 . S
O1470 Li1411 1.970 1_545 S
O1470 C1440 1.325 . S
O1471 Li1409 1.961 . S
O1471 Li1410 1.970 . S
O1471 Li1411 1.956 1_545 S
O1471 C1446 1.325 . S
H1472 C1414 0.929 . S
H1473 C1415 0.930 . S
H1474 C1416 0.930 . S
H1475 C1417 0.930 . S
H1476 C1419 0.930 . S
H1477 C1421 0.935 . S
H1478 C1422 0.930 . S
H1479 C1423 0.930 . S
H1480 C1426 0.930 . S
H1481 C1429 0.929 . S
H1482 C1434 0.929 . S
H1483 C1435 0.930 . S
H1484 C1442 0.929 . S
H1485 C1443 0.930 . S
H1486 C1444 0.930 . S
H1487 C1445 0.930 . S
H1488 C1447 0.929 . S
H1489 C1448 0.930 . S
H1490 C1449 0.930 . S
H1491 C1450 0.930 . S
H1492 C1454 0.929 . S
H1493 C1456 0.930 . S
H1494 C1462 0.929 . S
H1495 C1463 0.930 . S
Li1496 N1513 1.990 . S
Li1496 O1556 1.956 . S
Li1496 O1557 1.970 . S
Li1496 O1558 1.961 . S
Li1497 N1521 1.990 . S
Li1497 O1556 1.970 . S
Li1497 O1557 1.956 . S
Li1497 O1559 1.961 . S
Li1498 N1543 1.990 . S
Li1498 O1556 1.961 1_455 S
Li1498 O1558 1.956 1_455 S
Li1498 O1559 1.970 1_455 S
Li1499 N1549 1.990 . S
Li1499 O1557 1.961 . S
Li1499 O1558 1.970 . S
Li1499 O1559 1.956 . S
C1500 C1502 1.348 . S
C1500 C1503 1.356 . S
C1500 O1556 1.325 1_455 S
N1501 C1504 1.314 . S
N1501 C1505 1.279 . S
C1502 C1500 1.348 . S
C1502 C1504 1.353 . S
C1502 H1560 0.928 1_455 S
C1503 C1500 1.356 . S
C1503 C1505 1.358 . S
C1503 H1561 0.930 . S
C1504 N1501 1.314 . S
C1504 C1502 1.353 . S
C1504 H1562 0.930 . S
C1505 N1501 1.279 . S
C1505 C1503 1.358 . S
C1505 H1563 0.930 . S
C1506 C1509 1.348 . S
C1506 C1510 1.356 . S
C1506 O1557 1.325 . S
C1507 N1508 1.279 . S
C1507 C1510 1.358 . S
C1507 H1564 0.930 . S
N1508 C1507 1.279 . S
N1508 C1511 1.314 . S
C1509 C1506 1.348 . S
C1509 C1511 1.353 . S
C1509 H1565 0.929 . S
C1510 C1506 1.356 . S
C1510 C1507 1.358 . S
C1510 H1566 0.930 . S
C1511 N1508 1.314 . S
C1511 C1509 1.353 . S
C1511 H1567 0.930 . S
C1512 N1513 1.314 . S
C1512 C1517 1.353 . S
C1512 H1518 0.930 . S
N1513 Li1496 1.990 . S
N1513 C1512 1.314 . S
N1513 C1515 1.279 . S
C1514 C1515 1.358 . S
C1514 C1516 1.356 . S
C1514 H1568 0.930 . S
C1515 N1513 1.279 . S
C1515 C1514 1.358 . S
C1515 H1519 0.930 . S
C1516 C1514 1.356 . S
C1516 C1517 1.348 . S
C1517 C1512 1.353 . S
C1517 C1516 1.348 . S
C1517 H1569 0.929 . S
H1518 C1512 0.930 . S
H1519 C1515 0.930 . S
C1520 N1521 1.314 . S
C1520 C1522 1.323 1_655 S
C1520 H1526 0.930 1_655 S
N1521 Li1497 1.990 . S
N1521 C1520 1.314 . S
N1521 C1524 1.279 . S
C1522 C1520 1.323 1_455 S
C1522 C1525 1.331 1_455 S
C1522 H1570 0.977 . S
C1523 C1524 1.358 . S
C1523 C1525 1.356 . S
C1523 H1571 0.930 . S
C1524 N1521 1.279 . S
C1524 C1523 1.358 . S
C1524 H1527 0.930 . S
C1525 C1522 1.331 1_655 S
C1525 C1523 1.356 . S
H1526 C1520 0.930 1_455 S
H1527 C1524 0.930 . S
C1528 C1530 1.348 . S
C1528 C1531 1.356 . S
C1528 O1558 1.325 . S
N1529 C1532 1.314 . S
N1529 C1533 1.279 . S
C1530 C1528 1.348 . S
C1530 C1532 1.353 . S
C1530 H1572 0.929 . S
C1531 C1528 1.356 . S
C1531 C1533 1.358 . S
C1531 H1573 0.930 . S
C1532 N1529 1.314 . S
C1532 C1530 1.353 . S
C1532 H1574 0.930 . S
C1533 N1529 1.279 . S
C1533 C1531 1.358 . S
C1533 H1575 0.930 . S
C1534 C1535 1.348 1_655 S
C1534 C1536 1.356 . S
C1534 O1559 1.325 . S
C1535 C1534 1.348 1_455 S
C1535 C1537 1.353 . S
C1535 H1576 0.929 . S
C1536 C1534 1.356 . S
C1536 C1538 1.358 . S
C1536 H1577 0.930 . S
C1537 C1535 1.353 . S
C1537 N1539 1.314 . S
C1537 H1578 0.930 . S
C1538 C1536 1.358 . S
C1538 N1539 1.279 1_655 S
C1538 H1579 0.930 . S
N1539 C1537 1.314 . S
N1539 C1538 1.279 1_455 S
C1540 C1542 1.353 . S
C1540 N1543 1.314 . S
C1540 H1546 0.930 . S
C1541 N1543 1.279 . S
C1541 C1544 1.358 . S
C1541 H1547 0.930 . S
C1542 C1540 1.353 . S
C1542 C1545 1.348 . S
C1542 H1580 0.929 . S
N1543 Li1498 1.990 . S
N1543 C1540 1.314 . S
N1543 C1541 1.279 . S
C1544 C1541 1.358 . S
C1544 C1545 1.356 . S
C1544 H1581 0.930 . S
C1545 C1542 1.348 . S
C1545 C1544 1.356 . S
H1546 C1540 0.930 . S
H1547 C1541 0.930 . S
C1548 N1549 1.314 . S
C1548 C1550 1.353 . S
C1548 H1554 0.930 . S
N1549 Li1499 1.990 . S
N1549 C1548 1.314 . S
N1549 C1552 1.279 . S
C1550 C1548 1.353 . S
C1550 C1553 1.348 . S
C1550 H1582 0.929 . S
C1551 C1552 1.358 . S
C1551 C1553 1.356 . S
C1551 H1583 0.930 . S
C1552 N1549 1.279 . S
C1552 C1551 1.358 . S
C1552 H1555 0.930 . S
C1553 C1550 1.348 . S
C1553 C1551 1.356 . S
H1554 C1548 0.930 . S
H1555 C1552 0.930 . S
O1556 Li1496 1.956 . S
O1556 Li1497 1.970 . S
O1556 Li1498 1.961 1_655 S
O1556 C1500 1.325 1_655 S
O1557 Li1496 1.970 . S
O1557 Li1497 1.956 . S
O1557 Li1499 1.961 . S
O1557 C1506 1.325 . S
O1558 Li1496 1.961 . S
O1558 Li1498 1.956 1_655 S
O1558 Li1499 1.970 . S
O1558 C1528 1.325 . S
O1559 Li1497 1.961 . S
O1559 Li1498 1.970 1_655 S
O1559 Li1499 1.956 . S
O1559 C1534 1.325 . S
H1560 C1502 0.928 1_655 S
H1561 C1503 0.930 . S
H1562 C1504 0.930 . S
H1563 C1505 0.930 . S
H1564 C1507 0.930 . S
H1565 C1509 0.929 . S
H1566 C1510 0.930 . S
H1567 C1511 0.930 . S
H1568 C1514 0.930 . S
H1569 C1517 0.929 . S
H1570 C1522 0.977 . S
H1571 C1523 0.930 . S
H1572 C1530 0.929 . S
H1573 C1531 0.930 . S
H1574 C1532 0.930 . S
H1575 C1533 0.930 . S
H1576 C1535 0.929 . S
H1577 C1536 0.930 . S
H1578 C1537 0.930 . S
H1579 C1538 0.930 . S
H1580 C1542 0.929 . S
H1581 C1544 0.930 . S
H1582 C1550 0.929 . S
H1583 C1551 0.930 . S
H1584 C1590 0.930 . S
H1585 C1593 0.931 . S
H1586 C1595 0.931 . S
H1587 C1597 0.930 . S
H1588 C1599 0.930 . S
H1589 C1601 0.931 . S
C1590 H1584 0.930 . S
C1590 C1591 1.380 . S
C1590 C1592 1.394 . S
C1591 C1590 1.380 . S
C1591 C1595 1.382 . S
C1592 C1590 1.394 . S
C1592 C1593 1.400 . S
C1593 H1585 0.931 . S
C1593 C1592 1.400 . S
C1593 C1594 1.375 . S
C1594 C1593 1.375 . S
C1594 C1595 1.415 . S
C1594 C1596 1.501 . S
C1595 H1586 0.931 . S
C1595 C1591 1.382 . S
C1595 C1594 1.415 . S
C1596 C1594 1.501 . S
C1596 C1597 1.384 . S
C1596 C1601 1.408 . S
C1597 H1587 0.930 . S
C1597 C1596 1.384 . S
C1597 C1598 1.389 . S
C1598 C1597 1.389 . S
C1598 C1599 1.405 . S
C1599 H1588 0.930 . S
C1599 C1598 1.405 . S
C1599 C1600 1.364 . S
C1600 C1599 1.364 . S
C1600 C1601 1.400 . S
C1601 H1589 0.931 . S
C1601 C1596 1.408 . S
C1601 C1600 1.400 . S
H1602 C1608 0.930 . S
H1603 C1611 0.931 . S
H1604 C1613 0.931 . S
H1605 C1615 0.930 . S
H1606 C1617 0.930 . S
H1607 C1619 0.931 . S
C1608 H1602 0.930 . S
C1608 C1609 1.380 . S
C1608 C1610 1.394 . S
C1609 C1608 1.380 . S
C1609 C1613 1.382 . S
C1610 C1608 1.394 . S
C1610 C1611 1.400 . S
C1611 H1603 0.931 . S
C1611 C1610 1.400 . S
C1611 C1612 1.375 . S
C1612 C1611 1.375 . S
C1612 C1613 1.415 . S
C1612 C1614 1.501 . S
C1613 H1604 0.931 . S
C1613 C1609 1.382 . S
C1613 C1612 1.415 . S
C1614 C1612 1.501 . S
C1614 C1615 1.384 . S
C1614 C1619 1.408 . S
C1615 H1605 0.930 . S
C1615 C1614 1.384 . S
C1615 C1616 1.389 . S
C1616 C1615 1.389 . S
C1616 C1617 1.405 . S
C1617 H1606 0.930 . S
C1617 C1616 1.405 . S
C1617 C1618 1.364 . S
C1618 C1617 1.364 . S
C1618 C1619 1.400 . S
C1619 H1607 0.931 . S
C1619 C1614 1.408 . S
C1619 C1618 1.400 . S
H1620 C1626 0.930 . S
H1621 C1629 0.931 . S
H1622 C1631 0.931 . S
H1623 C1633 0.930 . S
H1624 C1635 0.930 . S
H1625 C1637 0.931 . S
C1626 H1620 0.930 . S
C1626 C1627 1.380 . S
C1626 C1628 1.394 . S
C1627 C1626 1.380 . S
C1627 C1631 1.382 . S
C1628 C1626 1.394 . S
C1628 C1629 1.400 . S
C1629 H1621 0.931 . S
C1629 C1628 1.400 . S
C1629 C1630 1.375 . S
C1630 C1629 1.375 . S
C1630 C1631 1.415 . S
C1630 C1632 1.501 . S
C1631 H1622 0.931 . S
C1631 C1627 1.382 . S
C1631 C1630 1.415 . S
C1632 C1630 1.501 . S
C1632 C1633 1.384 . S
C1632 C1637 1.408 . S
C1633 H1623 0.930 . S
C1633 C1632 1.384 . S
C1633 C1634 1.389 . S
C1634 C1633 1.389 . S
C1634 C1635 1.405 . S
C1635 H1624 0.930 . S
C1635 C1634 1.405 . S
C1635 C1636 1.364 . S
C1636 C1635 1.364 . S
C1636 C1637 1.400 . S
C1637 H1625 0.931 . S
C1637 C1632 1.408 . S
C1637 C1636 1.400 . S
H1638 C1644 0.930 . S
H1639 C1647 0.931 . S
H1640 C1649 0.931 . S
H1641 C1651 0.930 . S
H1642 C1653 0.930 . S
H1643 C1655 0.931 . S
C1644 H1638 0.930 . S
C1644 C1645 1.380 . S
C1644 C1646 1.394 . S
C1645 C1644 1.380 . S
C1645 C1649 1.382 . S
C1646 C1644 1.394 . S
C1646 C1647 1.400 . S
C1647 H1639 0.931 . S
C1647 C1646 1.400 . S
C1647 C1648 1.375 . S
C1648 C1647 1.375 . S
C1648 C1649 1.415 . S
C1648 C1650 1.501 . S
C1649 H1640 0.931 . S
C1649 C1645 1.382 . S
C1649 C1648 1.415 . S
C1650 C1648 1.501 . S
C1650 C1651 1.384 . S
C1650 C1655 1.408 . S
C1651 H1641 0.930 . S
C1651 C1650 1.384 . S
C1651 C1652 1.389 . S
C1652 C1651 1.389 . S
C1652 C1653 1.405 . S
C1653 H1642 0.930 . S
C1653 C1652 1.405 . S
C1653 C1654 1.364 . S
C1654 C1653 1.364 . S
C1654 C1655 1.400 . S
C1655 H1643 0.931 . S
C1655 C1650 1.408 . S
C1655 C1654 1.400 . S
H1656 C1662 0.930 . S
H1657 C1665 0.931 . S
H1658 C1667 0.931 . S
H1659 C1669 0.930 . S
H1660 C1671 0.930 . S
H1661 C1673 0.931 . S
C1662 H1656 0.930 . S
C1662 C1663 1.380 . S
C1662 C1664 1.394 . S
C1663 C1662 1.380 . S
C1663 C1667 1.382 . S
C1664 C1662 1.394 . S
C1664 C1665 1.400 . S
C1665 H1657 0.931 . S
C1665 C1664 1.400 . S
C1665 C1666 1.375 . S
C1666 C1665 1.375 . S
C1666 C1667 1.415 . S
C1666 C1668 1.501 . S
C1667 H1658 0.931 . S
C1667 C1663 1.382 . S
C1667 C1666 1.415 . S
C1668 C1666 1.501 . S
C1668 C1669 1.384 . S
C1668 C1673 1.408 . S
C1669 H1659 0.930 . S
C1669 C1668 1.384 . S
C1669 C1670 1.389 . S
C1670 C1669 1.389 . S
C1670 C1671 1.405 . S
C1671 H1660 0.930 . S
C1671 C1670 1.405 . S
C1671 C1672 1.364 . S
C1672 C1671 1.364 . S
C1672 C1673 1.400 . S
C1673 H1661 0.931 . S
C1673 C1668 1.408 . S
C1673 C1672 1.400 . S
H1674 C1680 0.930 . S
H1675 C1683 0.931 . S
H1676 C1685 0.931 . S
H1677 C1687 0.930 . S
H1678 C1689 0.930 . S
H1679 C1691 0.931 . S
C1680 H1674 0.930 . S
C1680 C1681 1.380 . S
C1680 C1682 1.394 . S
C1681 C1680 1.380 . S
C1681 C1685 1.382 . S
C1682 C1680 1.394 . S
C1682 C1683 1.400 . S
C1683 H1675 0.931 . S
C1683 C1682 1.400 . S
C1683 C1684 1.375 . S
C1684 C1683 1.375 . S
C1684 C1685 1.415 . S
C1684 C1686 1.501 . S
C1685 H1676 0.931 . S
C1685 C1681 1.382 . S
C1685 C1684 1.415 . S
C1686 C1684 1.501 . S
C1686 C1687 1.384 . S
C1686 C1691 1.408 . S
C1687 H1677 0.930 . S
C1687 C1686 1.384 . S
C1687 C1688 1.389 . S
C1688 C1687 1.389 . S
C1688 C1689 1.405 . S
C1689 H1678 0.930 . S
C1689 C1688 1.405 . S
C1689 C1690 1.364 . S
C1690 C1689 1.364 . S
C1690 C1691 1.400 . S
C1691 H1679 0.931 . S
C1691 C1686 1.408 . S
C1691 C1690 1.400 . S
H1692 C1698 0.930 . S
H1693 C1701 0.931 . S
H1694 C1703 0.931 . S
H1695 C1705 0.930 . S
H1696 C1707 0.930 . S
H1697 C1709 0.931 . S
C1698 H1692 0.930 . S
C1698 C1699 1.380 . S
C1698 C1700 1.394 . S
C1699 C1698 1.380 . S
C1699 C1703 1.382 . S
C1700 C1698 1.394 . S
C1700 C1701 1.400 . S
C1701 H1693 0.931 . S
C1701 C1700 1.400 . S
C1701 C1702 1.375 . S
C1702 C1701 1.375 . S
C1702 C1703 1.415 . S
C1702 C1704 1.501 . S
C1703 H1694 0.931 . S
C1703 C1699 1.382 . S
C1703 C1702 1.415 . S
C1704 C1702 1.501 . S
C1704 C1705 1.384 . S
C1704 C1709 1.408 . S
C1705 H1695 0.930 . S
C1705 C1704 1.384 . S
C1705 C1706 1.389 . S
C1706 C1705 1.389 . S
C1706 C1707 1.405 . S
C1707 H1696 0.930 . S
C1707 C1706 1.405 . S
C1707 C1708 1.364 . S
C1708 C1707 1.364 . S
C1708 C1709 1.400 . S
C1709 H1697 0.931 . S
C1709 C1704 1.408 . S
C1709 C1708 1.400 . S
H1710 C1716 0.930 . S
H1711 C1719 0.931 . S
H1712 C1721 0.931 . S
H1713 C1723 0.930 . S
H1714 C1725 0.930 . S
H1715 C1727 0.931 . S
C1716 H1710 0.930 . S
C1716 C1717 1.380 . S
C1716 C1718 1.394 . S
C1717 C1716 1.380 . S
C1717 C1721 1.382 . S
C1718 C1716 1.394 . S
C1718 C1719 1.400 . S
C1719 H1711 0.931 . S
C1719 C1718 1.400 . S
C1719 C1720 1.375 . S
C1720 C1719 1.375 . S
C1720 C1721 1.415 . S
C1720 C1722 1.501 . S
C1721 H1712 0.931 . S
C1721 C1717 1.382 . S
C1721 C1720 1.415 . S
C1722 C1720 1.501 . S
C1722 C1723 1.384 . S
C1722 C1727 1.408 . S
C1723 H1713 0.930 . S
C1723 C1722 1.384 . S
C1723 C1724 1.389 . S
C1724 C1723 1.389 . S
C1724 C1725 1.405 . S
C1725 H1714 0.930 . S
C1725 C1724 1.405 . S
C1725 C1726 1.364 . S
C1726 C1725 1.364 . S
C1726 C1727 1.400 . S
C1727 H1715 0.931 . S
C1727 C1722 1.408 . S
C1727 C1726 1.400 . S
H1728 C1734 0.930 . S
H1729 C1737 0.931 . S
H1730 C1739 0.931 . S
H1731 C1741 0.930 . S
H1732 C1743 0.930 . S
H1733 C1745 0.931 . S
C1734 H1728 0.930 . S
C1734 C1735 1.380 . S
C1734 C1736 1.394 . S
C1735 C1734 1.380 . S
C1735 C1739 1.382 . S
C1736 C1734 1.394 . S
C1736 C1737 1.400 . S
C1737 H1729 0.931 . S
C1737 C1736 1.400 . S
C1737 C1738 1.375 . S
C1738 C1737 1.375 . S
C1738 C1739 1.415 . S
C1738 C1740 1.501 . S
C1739 H1730 0.931 . S
C1739 C1735 1.382 . S
C1739 C1738 1.415 . S
C1740 C1738 1.501 . S
C1740 C1741 1.384 . S
C1740 C1745 1.408 . S
C1741 H1731 0.930 . S
C1741 C1740 1.384 . S
C1741 C1742 1.389 . S
C1742 C1741 1.389 . S
C1742 C1743 1.405 . S
C1743 H1732 0.930 . S
C1743 C1742 1.405 . S
C1743 C1744 1.364 . S
C1744 C1743 1.364 . S
C1744 C1745 1.400 . S
C1745 H1733 0.931 . S
C1745 C1740 1.408 . S
C1745 C1744 1.400 . S
H1746 C1752 0.922 . S
H1747 C1755 0.931 . S
H1748 C1757 0.931 . S
H1749 C1759 0.930 . S
H1750 C1761 0.930 . S
H1751 C1763 0.941 . S
C1752 H1746 0.922 . S
C1752 C1753 1.387 . S
C1752 C1754 1.395 1_655 S
C1753 C1752 1.387 . S
C1753 C1757 1.382 . S
C1754 C1752 1.395 1_455 S
C1754 C1755 1.400 . S
C1755 H1747 0.931 . S
C1755 C1754 1.400 . S
C1755 C1756 1.375 . S
C1756 C1755 1.375 . S
C1756 C1757 1.415 1_455 S
C1756 C1758 1.501 . S
C1757 H1748 0.931 . S
C1757 C1753 1.382 . S
C1757 C1756 1.415 1_655 S
C1758 C1756 1.501 . S
C1758 C1759 1.384 . S
C1758 C1763 1.425 . S
C1759 H1749 0.930 . S
C1759 C1758 1.384 . S
C1759 C1760 1.389 . S
C1760 C1759 1.389 . S
C1760 C1761 1.405 . S
C1761 H1750 0.930 . S
C1761 C1760 1.405 . S
C1761 C1762 1.356 . S
C1762 C1761 1.356 . S
C1762 C1763 1.393 . S
C1763 H1751 0.941 . S
C1763 C1758 1.425 . S
C1763 C1762 1.393 . S
H1764 C1770 0.930 . S
H1765 C1773 0.931 . S
H1766 C1775 0.931 . S
H1767 C1777 0.930 . S
H1768 C1779 0.930 . S
H1769 C1781 0.931 . S
C1770 H1764 0.930 . S
C1770 C1771 1.380 . S
C1770 C1772 1.394 . S
C1771 C1770 1.380 . S
C1771 C1775 1.382 . S
C1772 C1770 1.394 . S
C1772 C1773 1.400 . S
C1773 H1765 0.931 . S
C1773 C1772 1.400 . S
C1773 C1774 1.375 . S
C1774 C1773 1.375 . S
C1774 C1775 1.415 . S
C1774 C1776 1.501 . S
C1775 H1766 0.931 . S
C1775 C1771 1.382 . S
C1775 C1774 1.415 . S
C1776 C1774 1.501 . S
C1776 C1777 1.384 . S
C1776 C1781 1.408 . S
C1777 H1767 0.930 . S
C1777 C1776 1.384 . S
C1777 C1778 1.389 . S
C1778 C1777 1.389 . S
C1778 C1779 1.405 . S
C1779 H1768 0.930 . S
C1779 C1778 1.405 . S
C1779 C1780 1.364 . S
C1780 C1779 1.364 . S
C1780 C1781 1.400 . S
C1781 H1769 0.931 . S
C1781 C1776 1.408 . S
C1781 C1780 1.400 . S
H1782 C1788 0.948 . S
H1783 C1791 0.931 . S
H1784 C1793 0.931 . S
H1785 C1795 0.930 . S
H1786 C1797 0.930 . S
H1787 C1799 0.919 . S
C1788 H1782 0.948 . S
C1788 C1789 1.376 . S
C1788 C1790 1.381 1_545 S
C1789 C1788 1.376 . S
C1789 C1793 1.382 . S
C1790 C1788 1.381 1_565 S
C1790 C1791 1.400 . S
C1791 H1783 0.931 . S
C1791 C1790 1.400 . S
C1791 C1792 1.375 . S
C1792 C1791 1.375 . S
C1792 C1793 1.415 1_565 S
C1792 C1794 1.501 . S
C1793 H1784 0.931 . S
C1793 C1789 1.382 . S
C1793 C1792 1.415 1_545 S
C1794 C1792 1.501 . S
C1794 C1795 1.384 . S
C1794 C1799 1.396 . S
C1795 H1785 0.930 . S
C1795 C1794 1.384 . S
C1795 C1796 1.389 . S
C1796 C1795 1.389 . S
C1796 C1797 1.405 . S
C1797 H1786 0.930 . S
C1797 C1796 1.405 . S
C1797 C1798 1.380 . S
C1798 C1797 1.380 . S
C1798 C1799 1.405 . S
C1799 H1787 0.919 . S
C1799 C1794 1.396 . S
C1799 C1798 1.405 . S
H1800 C1806 0.915 . S
H1801 C1809 0.931 . S
H1802 C1811 0.927 . S
H1803 C1813 0.930 . S
H1804 C1815 0.930 . S
H1805 C1817 0.931 . S
C1806 H1800 0.915 . S
C1806 C1807 1.387 . S
C1806 C1808 1.412 1_545 S
C1807 C1806 1.387 . S
C1807 C1811 1.400 1_545 S
C1808 C1806 1.412 1_565 S
C1808 C1809 1.381 . S
C1809 H1801 0.931 . S
C1809 C1808 1.381 . S
C1809 C1810 1.375 . S
C1810 C1809 1.375 . S
C1810 C1811 1.409 . S
C1810 C1812 1.501 . S
C1811 H1802 0.927 . S
C1811 C1807 1.400 1_565 S
C1811 C1810 1.409 . S
C1812 C1810 1.501 . S
C1812 C1813 1.384 . S
C1812 C1817 1.408 1_565 S
C1813 H1803 0.930 . S
C1813 C1812 1.384 . S
C1813 C1814 1.389 . S
C1814 C1813 1.389 . S
C1814 C1815 1.405 . S
C1815 H1804 0.930 . S
C1815 C1814 1.405 . S
C1815 C1816 1.364 1_565 S
C1816 C1815 1.364 1_545 S
C1816 C1817 1.400 . S
C1817 H1805 0.931 . S
C1817 C1812 1.408 1_545 S
C1817 C1816 1.400 . S
H1818 C1824 0.957 . S
H1819 C1827 0.931 . S
H1820 C1829 0.934 . S
H1821 C1831 0.930 . S
H1822 C1833 0.930 . S
H1823 C1835 0.931 . S
C1824 H1818 0.957 . S
C1824 C1825 1.372 . S
C1824 C1826 1.373 1_655 S
C1825 C1824 1.372 . S
C1825 C1829 1.360 1_655 S
C1826 C1824 1.373 1_455 S
C1826 C1827 1.419 . S
C1827 H1819 0.931 . S
C1827 C1826 1.419 . S
C1827 C1828 1.375 . S
C1828 C1827 1.375 . S
C1828 C1829 1.423 . S
C1828 C1830 1.501 . S
C1829 H1820 0.934 . S
C1829 C1825 1.360 1_455 S
C1829 C1828 1.423 . S
C1830 C1828 1.501 . S
C1830 C1831 1.384 . S
C1830 C1835 1.408 1_455 S
C1831 H1821 0.930 . S
C1831 C1830 1.384 . S
C1831 C1832 1.389 . S
C1832 C1831 1.389 . S
C1832 C1833 1.405 . S
C1833 H1822 0.930 . S
C1833 C1832 1.405 . S
C1833 C1834 1.364 1_455 S
C1834 C1833 1.364 1_655 S
C1834 C1835 1.400 . S
C1835 H1823 0.931 . S
C1835 C1830 1.408 1_655 S
C1835 C1834 1.400 . S
H1836 C1842 0.930 . S
H1837 C1845 0.931 . S
H1838 C1847 0.931 . S
H1839 C1849 0.930 . S
H1840 C1851 0.930 . S
H1841 C1853 0.931 . S
C1842 H1836 0.930 . S
C1842 C1843 1.380 . S
C1842 C1844 1.394 . S
C1843 C1842 1.380 . S
C1843 C1847 1.382 . S
C1844 C1842 1.394 . S
C1844 C1845 1.400 . S
C1845 H1837 0.931 . S
C1845 C1844 1.400 . S
C1845 C1846 1.375 . S
C1846 C1845 1.375 . S
C1846 C1847 1.415 . S
C1846 C1848 1.501 . S
C1847 H1838 0.931 . S
C1847 C1843 1.382 . S
C1847 C1846 1.415 . S
C1848 C1846 1.501 . S
C1848 C1849 1.384 . S
C1848 C1853 1.408 . S
C1849 H1839 0.930 . S
C1849 C1848 1.384 . S
C1849 C1850 1.389 . S
C1850 C1849 1.389 . S
C1850 C1851 1.405 . S
C1851 H1840 0.930 . S
C1851 C1850 1.405 . S
C1851 C1852 1.364 . S
C1852 C1851 1.364 . S
C1852 C1853 1.400 . S
C1853 H1841 0.931 . S
C1853 C1848 1.408 . S
C1853 C1852 1.400 . S
H1854 C1860 0.930 . S
H1855 C1863 0.931 . S
H1856 C1865 0.931 . S
H1857 C1867 0.930 . S
H1858 C1869 0.930 . S
H1859 C1871 0.931 . S
C1860 H1854 0.930 . S
C1860 C1861 1.380 . S
C1860 C1862 1.394 . S
C1861 C1860 1.380 . S
C1861 C1865 1.382 . S
C1862 C1860 1.394 . S
C1862 C1863 1.400 . S
C1863 H1855 0.931 . S
C1863 C1862 1.400 . S
C1863 C1864 1.375 . S
C1864 C1863 1.375 . S
C1864 C1865 1.415 . S
C1864 C1866 1.501 . S
C1865 H1856 0.931 . S
C1865 C1861 1.382 . S
C1865 C1864 1.415 . S
C1866 C1864 1.501 . S
C1866 C1867 1.384 . S
C1866 C1871 1.408 . S
C1867 H1857 0.930 . S
C1867 C1866 1.384 . S
C1867 C1868 1.389 . S
C1868 C1867 1.389 . S
C1868 C1869 1.405 . S
C1869 H1858 0.930 . S
C1869 C1868 1.405 . S
C1869 C1870 1.364 . S
C1870 C1869 1.364 . S
C1870 C1871 1.400 . S
C1871 H1859 0.931 . S
C1871 C1866 1.408 . S
C1871 C1870 1.400 . S
H1872 C1878 0.930 . S
H1873 C1881 0.931 . S
H1874 C1883 0.931 . S
H1875 C1885 0.930 . S
H1876 C1887 0.930 . S
H1877 C1889 0.931 . S
C1878 H1872 0.930 . S
C1878 C1879 1.380 . S
C1878 C1880 1.394 . S
C1879 C1878 1.380 . S
C1879 C1883 1.382 . S
C1880 C1878 1.394 . S
C1880 C1881 1.400 . S
C1881 H1873 0.931 . S
C1881 C1880 1.400 . S
C1881 C1882 1.375 . S
C1882 C1881 1.375 . S
C1882 C1883 1.415 . S
C1882 C1884 1.501 . S
C1883 H1874 0.931 . S
C1883 C1879 1.382 . S
C1883 C1882 1.415 . S
C1884 C1882 1.501 . S
C1884 C1885 1.384 . S
C1884 C1889 1.408 . S
C1885 H1875 0.930 . S
C1885 C1884 1.384 . S
C1885 C1886 1.389 . S
C1886 C1885 1.389 . S
C1886 C1887 1.405 . S
C1887 H1876 0.930 . S
C1887 C1886 1.405 . S
C1887 C1888 1.364 . S
C1888 C1887 1.364 . S
C1888 C1889 1.400 . S
C1889 H1877 0.931 . S
C1889 C1884 1.408 . S
C1889 C1888 1.400 . S
H1890 C1896 0.930 . S
H1891 C1899 0.931 . S
H1892 C1901 0.931 . S
H1893 C1903 0.930 . S
H1894 C1905 0.930 . S
H1895 C1907 0.931 . S
C1896 H1890 0.930 . S
C1896 C1897 1.380 . S
C1896 C1898 1.394 . S
C1897 C1896 1.380 . S
C1897 C1901 1.382 . S
C1898 C1896 1.394 . S
C1898 C1899 1.400 . S
C1899 H1891 0.931 . S
C1899 C1898 1.400 . S
C1899 C1900 1.375 . S
C1900 C1899 1.375 . S
C1900 C1901 1.415 . S
C1900 C1902 1.501 . S
C1901 H1892 0.931 . S
C1901 C1897 1.382 . S
C1901 C1900 1.415 . S
C1902 C1900 1.501 . S
C1902 C1903 1.384 . S
C1902 C1907 1.408 . S
C1903 H1893 0.930 . S
C1903 C1902 1.384 . S
C1903 C1904 1.389 . S
C1904 C1903 1.389 . S
C1904 C1905 1.405 . S
C1905 H1894 0.930 . S
C1905 C1904 1.405 . S
C1905 C1906 1.364 . S
C1906 C1905 1.364 . S
C1906 C1907 1.400 . S
C1907 H1895 0.931 . S
C1907 C1902 1.408 . S
C1907 C1906 1.400 . S
C1908 C1909 1.369 . S
C1908 C1910 1.419 . S
C1908 H1912 0.930 . S
C1909 C1908 1.369 . S
C1909 C1918 1.429 . S
C1910 C1908 1.419 . S
C1910 C1911 1.363 . S
C1910 H1913 0.929 . S
C1911 C1910 1.363 . S
C1911 C1917 1.428 . S
H1912 C1908 0.930 . S
H1913 C1910 0.929 . S
S1914 N1915 1.613 1_455 S
S1914 N1916 1.610 . S
N1915 S1914 1.613 1_655 S
N1915 C1918 1.350 . S
N1916 S1914 1.610 . S
N1916 C1917 1.351 1_455 S
C1917 C1911 1.428 . S
C1917 N1916 1.351 1_655 S
C1917 C1918 1.434 . S
C1918 C1909 1.429 . S
C1918 N1915 1.350 . S
C1918 C1917 1.434 . S
C1919 C1920 1.369 . S
C1919 C1921 1.419 . S
C1919 H1923 0.930 . S
C1920 C1919 1.369 . S
C1920 C1929 1.429 . S
C1921 C1919 1.419 . S
C1921 C1922 1.363 . S
C1921 H1924 0.929 . S
C1922 C1921 1.363 . S
C1922 C1928 1.428 . S
H1923 C1919 0.930 . S
H1924 C1921 0.929 . S
S1925 N1926 1.613 . S
S1925 N1927 1.610 . S
N1926 S1925 1.613 . S
N1926 C1929 1.350 . S
N1927 S1925 1.610 . S
N1927 C1928 1.351 . S
C1928 C1922 1.428 . S
C1928 N1927 1.351 . S
C1928 C1929 1.434 . S
C1929 C1920 1.429 . S
C1929 N1926 1.350 . S
C1929 C1928 1.434 . S
C1930 C1931 1.369 . S
C1930 C1932 1.419 . S
C1930 H1934 0.930 . S
C1931 C1930 1.369 . S
C1931 C1940 1.379 1_545 S
C1932 C1930 1.419 . S
C1932 C1933 1.363 . S
C1932 H1935 0.929 . S
C1933 C1932 1.363 . S
C1933 C1939 1.428 1_545 S
H1934 C1930 0.930 . S
H1935 C1932 0.929 . S
S1936 N1937 1.613 . S
S1936 N1938 1.610 . S
N1937 S1936 1.613 . S
N1937 C1940 1.375 . S
N1938 S1936 1.610 . S
N1938 C1939 1.351 . S
C1939 C1933 1.428 1_565 S
C1939 N1938 1.351 . S
C1939 C1940 1.465 . S
C1940 C1931 1.379 1_565 S
C1940 N1937 1.375 . S
C1940 C1939 1.465 . S
C1941 C1942 1.369 . S
C1941 C1943 1.419 . S
C1941 H1945 0.930 . S
C1942 C1941 1.369 . S
C1942 C1951 1.429 1_565 S
C1943 C1941 1.419 . S
C1943 C1944 1.363 . S
C1943 H1946 0.929 . S
C1944 C1943 1.363 . S
C1944 C1950 1.428 1_565 S
H1945 C1941 0.930 . S
H1946 C1943 0.929 . S
S1947 N1948 1.613 . S
S1947 N1949 1.610 . S
N1948 S1947 1.613 . S
N1948 C1951 1.350 . S
N1949 S1947 1.610 . S
N1949 C1950 1.351 . S
C1950 C1944 1.428 1_545 S
C1950 N1949 1.351 . S
C1950 C1951 1.434 . S
C1951 C1942 1.429 1_545 S
C1951 N1948 1.350 . S
C1951 C1950 1.434 . S
C1952 C1953 1.377 . S
C1952 C1954 1.412 1_455 S
C1952 H1956 0.928 1_455 S
C1953 C1952 1.377 . S
C1953 C1962 1.429 . S
C1954 C1952 1.412 1_655 S
C1954 C1955 1.363 1_655 S
C1954 H1957 0.929 . S
C1955 C1954 1.363 1_455 S
C1955 C1961 1.428 . S
H1956 C1952 0.928 1_655 S
H1957 C1954 0.929 . S
S1958 N1959 1.613 . S
S1958 N1960 1.610 . S
N1959 S1958 1.613 . S
N1959 C1962 1.350 . S
N1960 S1958 1.610 . S
N1960 C1961 1.351 . S
C1961 C1955 1.428 . S
C1961 N1960 1.351 . S
C1961 C1962 1.434 . S
C1962 C1953 1.429 . S
C1962 N1959 1.350 . S
C1962 C1961 1.434 . S
C1963 C1964 1.369 . S
C1963 C1965 1.419 . S
C1963 H1967 0.930 . S
C1964 C1963 1.369 . S
C1964 C1973 1.429 . S
C1965 C1963 1.419 . S
C1965 C1966 1.363 . S
C1965 H1968 0.929 . S
C1966 C1965 1.363 . S
C1966 C1972 1.428 . S
H1967 C1963 0.930 . S
H1968 C1965 0.929 . S
S1969 N1970 1.613 . S
S1969 N1971 1.610 . S
N1970 S1969 1.613 . S
N1970 C1973 1.350 . S
N1971 S1969 1.610 . S
N1971 C1972 1.351 . S
C1972 C1966 1.428 . S
C1972 N1971 1.351 . S
C1972 C1973 1.434 . S
C1973 C1964 1.429 . S
C1973 N1970 1.350 . S
C1973 C1972 1.434 . S
C1974 C1975 1.369 . S
C1974 C1976 1.419 . S
C1974 H1978 0.930 . S
C1975 C1974 1.369 . S
C1975 C1984 1.429 . S
C1976 C1974 1.419 . S
C1976 C1977 1.363 . S
C1976 H1979 0.929 . S
C1977 C1976 1.363 . S
C1977 C1983 1.412 1_455 S
H1978 C1974 0.930 . S
H1979 C1976 0.929 . S
S1980 N1981 1.613 . S
S1980 N1982 1.610 . S
N1981 S1980 1.613 . S
N1981 C1984 1.351 1_655 S
N1982 S1980 1.610 . S
N1982 C1983 1.358 . S
C1983 C1977 1.412 1_655 S
C1983 N1982 1.358 . S
C1983 C1984 1.447 1_655 S
C1984 C1975 1.429 . S
C1984 N1981 1.351 1_455 S
C1984 C1983 1.447 1_455 S
C1985 C1986 1.369 . S
C1985 C1987 1.419 . S
C1985 H1989 0.930 . S
C1986 C1985 1.369 . S
C1986 C1995 1.429 . S
C1987 C1985 1.419 . S
C1987 C1988 1.363 . S
C1987 H1990 0.929 . S
C1988 C1987 1.363 . S
C1988 C1994 1.428 . S
H1989 C1985 0.930 . S
H1990 C1987 0.929 . S
S1991 N1992 1.613 . S
S1991 N1993 1.610 . S
N1992 S1991 1.613 . S
N1992 C1995 1.350 . S
N1993 S1991 1.610 . S
N1993 C1994 1.351 . S
C1994 C1988 1.428 . S
C1994 N1993 1.351 . S
C1994 C1995 1.434 . S
C1995 C1986 1.429 . S
C1995 N1992 1.350 . S
C1995 C1994 1.434 . S
C1996 C1997 1.369 . S
C1996 C1998 1.419 . S
C1996 H2000 0.930 . S
C1997 C1996 1.369 . S
C1997 C2006 1.429 . S
C1998 C1996 1.419 . S
C1998 C1999 1.363 . S
C1998 H2001 0.929 . S
C1999 C1998 1.363 . S
C1999 C2005 1.428 1_565 S
H2000 C1996 0.930 . S
H2001 C1998 0.929 . S
S2002 N2003 1.613 . S
S2002 N2004 1.610 . S
N2003 S2002 1.613 . S
N2003 C2006 1.350 1_545 S
N2004 S2002 1.610 . S
N2004 C2005 1.351 . S
C2005 C1999 1.428 1_545 S
C2005 N2004 1.351 . S
C2005 C2006 1.434 1_545 S
C2006 C1997 1.429 . S
C2006 N2003 1.350 1_565 S
C2006 C2005 1.434 1_565 S
C2007 C2008 1.369 1_565 S
C2007 C2009 1.419 . S
C2007 H2011 0.930 . S
C2008 C2007 1.369 1_545 S
C2008 C2017 1.429 . S
C2009 C2007 1.419 . S
C2009 C2010 1.363 1_565 S
C2009 H2012 0.929 . S
C2010 C2009 1.363 1_545 S
C2010 C2016 1.428 . S
H2011 C2007 0.930 . S
H2012 C2009 0.929 . S
S2013 N2014 1.613 . S
S2013 N2015 1.610 . S
N2014 S2013 1.613 . S
N2014 C2017 1.350 . S
N2015 S2013 1.610 . S
N2015 C2016 1.351 . S
C2016 C2010 1.428 . S
C2016 N2015 1.351 . S
C2016 C2017 1.434 . S
C2017 C2008 1.429 . S
C2017 N2014 1.350 . S
C2017 C2016 1.434 . S
C2018 C2019 1.369 . S
C2018 C2020 1.419 . S
C2018 H2022 0.930 . S
C2019 C2018 1.369 . S
C2019 C2028 1.429 1_655 S
C2020 C2018 1.419 . S
C2020 C2021 1.363 . S
C2020 H2023 0.929 . S
C2021 C2020 1.363 . S
C2021 C2027 1.428 1_655 S
H2022 C2018 0.930 . S
H2023 C2020 0.929 . S
S2024 N2025 1.613 . S
S2024 N2026 1.610 . S
N2025 S2024 1.613 . S
N2025 C2028 1.350 . S
N2026 S2024 1.610 . S
N2026 C2027 1.351 . S
C2027 C2021 1.428 1_455 S
C2027 N2026 1.351 . S
C2027 C2028 1.434 . S
C2028 C2019 1.429 1_455 S
C2028 N2025 1.350 . S
C2028 C2027 1.434 . S
C2029 C2030 1.369 . S
C2029 C2031 1.419 . S
C2029 H2033 0.930 . S
C2030 C2029 1.369 . S
C2030 C2039 1.429 . S
C2031 C2029 1.419 . S
C2031 C2032 1.363 . S
C2031 H2034 0.929 . S
C2032 C2031 1.363 . S
C2032 C2038 1.428 . S
H2033 C2029 0.930 . S
H2034 C2031 0.929 . S
S2035 N2036 1.613 . S
S2035 N2037 1.610 . S
N2036 S2035 1.613 . S
N2036 C2039 1.350 . S
N2037 S2035 1.610 . S
N2037 C2038 1.351 . S
C2038 C2032 1.428 . S
C2038 N2037 1.351 . S
C2038 C2039 1.434 . S
C2039 C2030 1.429 . S
C2039 N2036 1.350 . S
C2039 C2038 1.434 . S
C2040 C2041 1.369 . S
C2040 C2042 1.419 . S
C2040 H2044 0.930 . S
C2041 C2040 1.369 . S
C2041 C2050 1.429 . S
C2042 C2040 1.419 . S
C2042 C2043 1.363 . S
C2042 H2045 0.929 . S
C2043 C2042 1.363 . S
C2043 C2049 1.428 . S
H2044 C2040 0.930 . S
H2045 C2042 0.929 . S
S2046 N2047 1.613 . S
S2046 N2048 1.610 . S
N2047 S2046 1.613 . S
N2047 C2050 1.350 . S
N2048 S2046 1.610 . S
N2048 C2049 1.351 . S
C2049 C2043 1.428 . S
C2049 N2048 1.351 . S
C2049 C2050 1.434 . S
C2050 C2041 1.429 . S
C2050 N2047 1.350 . S
C2050 C2049 1.434 . S
C2051 C2052 1.369 . S
C2051 C2053 1.419 . S
C2051 H2055 0.930 . S
C2052 C2051 1.369 . S
C2052 C2061 1.429 . S
C2053 C2051 1.419 . S
C2053 C2054 1.363 . S
C2053 H2056 0.929 . S
C2054 C2053 1.363 . S
C2054 C2060 1.428 . S
H2055 C2051 0.930 . S
H2056 C2053 0.929 . S
S2057 N2058 1.613 . S
S2057 N2059 1.610 . S
N2058 S2057 1.613 . S
N2058 C2061 1.350 . S
N2059 S2057 1.610 . S
N2059 C2060 1.351 . S
C2060 C2054 1.428 . S
C2060 N2059 1.351 . S
C2060 C2061 1.434 . S
C2061 C2052 1.429 . S
C2061 N2058 1.350 . S
C2061 C2060 1.434 . S
C2062 C2063 1.369 . S
C2062 C2064 1.419 . S
C2062 H2066 0.930 . S
C2063 C2062 1.369 . S
C2063 C2072 1.429 . S
C2064 C2062 1.419 . S
C2064 C2065 1.363 . S
C2064 H2067 0.929 . S
C2065 C2064 1.363 . S
C2065 C2071 1.428 . S
H2066 C2062 0.930 . S
H2067 C2064 0.929 . S
S2068 N2069 1.613 . S
S2068 N2070 1.610 . S
N2069 S2068 1.613 . S
N2069 C2072 1.350 . S
N2070 S2068 1.610 . S
N2070 C2071 1.351 . S
C2071 C2065 1.428 . S
C2071 N2070 1.351 . S
C2071 C2072 1.434 . S
C2072 C2063 1.429 . S
C2072 N2069 1.350 . S
C2072 C2071 1.434 . S
C2073 C2074 1.369 . S
C2073 C2075 1.419 . S
C2073 H2077 0.930 . S
C2074 C2073 1.369 . S
C2074 C2083 1.429 . S
C2075 C2073 1.419 . S
C2075 C2076 1.363 . S
C2075 H2078 0.929 . S
C2076 C2075 1.363 . S
C2076 C2082 1.428 . S
H2077 C2073 0.930 . S
H2078 C2075 0.929 . S
S2079 N2080 1.613 . S
S2079 N2081 1.610 . S
N2080 S2079 1.613 . S
N2080 C2083 1.350 . S
N2081 S2079 1.610 . S
N2081 C2082 1.351 . S
C2082 C2076 1.428 . S
C2082 N2081 1.351 . S
C2082 C2083 1.434 . S
C2083 C2074 1.429 . S
C2083 N2080 1.350 . S
C2083 C2082 1.434 . S
C2084 C2085 1.369 . S
C2084 C2086 1.419 . S
C2084 H2088 0.930 . S
C2085 C2084 1.369 . S
C2085 C2094 1.429 . S
C2086 C2084 1.419 . S
C2086 C2087 1.363 . S
C2086 H2089 0.929 . S
C2087 C2086 1.363 . S
C2087 C2093 1.428 . S
H2088 C2084 0.930 . S
H2089 C2086 0.929 . S
S2090 N2091 1.613 . S
S2090 N2092 1.610 . S
N2091 S2090 1.613 . S
N2091 C2094 1.350 . S
N2092 S2090 1.610 . S
N2092 C2093 1.351 . S
C2093 C2087 1.428 . S
C2093 N2092 1.351 . S
C2093 C2094 1.434 . S
C2094 C2085 1.429 . S
C2094 N2091 1.350 . S
C2094 C2093 1.434 . S
C2095 C2096 1.369 . S
C2095 C2097 1.419 . S
C2095 H2099 0.930 . S
C2096 C2095 1.369 . S
C2096 C2105 1.429 . S
C2097 C2095 1.419 . S
C2097 C2098 1.363 . S
C2097 H2100 0.929 . S
C2098 C2097 1.363 . S
C2098 C2104 1.428 . S
H2099 C2095 0.930 . S
H2100 C2097 0.929 . S
S2101 N2102 1.613 . S
S2101 N2103 1.610 . S
N2102 S2101 1.613 . S
N2102 C2105 1.350 . S
N2103 S2101 1.610 . S
N2103 C2104 1.351 . S
C2104 C2098 1.428 . S
C2104 N2103 1.351 . S
C2104 C2105 1.434 . S
C2105 C2096 1.429 . S
C2105 N2102 1.350 . S
C2105 C2104 1.434 . S
C2106 C2107 1.369 . S
C2106 C2108 1.419 . S
C2106 H2110 0.930 . S
C2107 C2106 1.369 . S
C2107 C2116 1.429 . S
C2108 C2106 1.419 . S
C2108 C2109 1.363 . S
C2108 H2111 0.929 . S
C2109 C2108 1.363 . S
C2109 C2115 1.428 . S
H2110 C2106 0.930 . S
H2111 C2108 0.929 . S
S2112 N2113 1.613 . S
S2112 N2114 1.610 . S
N2113 S2112 1.613 . S
N2113 C2116 1.350 . S
N2114 S2112 1.610 . S
N2114 C2115 1.351 . S
C2115 C2109 1.428 . S
C2115 N2114 1.351 . S
C2115 C2116 1.434 . S
C2116 C2107 1.429 . S
C2116 N2113 1.350 . S
C2116 C2115 1.434 . S
C2117 C2118 1.369 . S
C2117 C2119 1.419 . S
C2117 H2121 0.930 . S
C2118 C2117 1.369 . S
C2118 C2127 1.429 . S
C2119 C2117 1.419 . S
C2119 C2120 1.363 . S
C2119 H2122 0.929 . S
C2120 C2119 1.363 . S
C2120 C2126 1.428 . S
H2121 C2117 0.930 . S
H2122 C2119 0.929 . S
S2123 N2124 1.613 . S
S2123 N2125 1.610 . S
N2124 S2123 1.613 . S
N2124 C2127 1.350 . S
N2125 S2123 1.610 . S
N2125 C2126 1.351 . S
C2126 C2120 1.428 . S
C2126 N2125 1.351 . S
C2126 C2127 1.434 . S
C2127 C2118 1.429 . S
C2127 N2124 1.350 . S
C2127 C2126 1.434 . S
C2128 C2129 1.369 . S
C2128 C2130 1.419 . S
C2128 H2132 0.930 . S
C2129 C2128 1.369 . S
C2129 C2138 1.429 . S
C2130 C2128 1.419 . S
C2130 C2131 1.363 . S
C2130 H2133 0.929 . S
C2131 C2130 1.363 . S
C2131 C2137 1.428 . S
H2132 C2128 0.930 . S
H2133 C2130 0.929 . S
S2134 N2135 1.613 . S
S2134 N2136 1.610 . S
N2135 S2134 1.613 . S
N2135 C2138 1.350 . S
N2136 S2134 1.610 . S
N2136 C2137 1.351 . S
C2137 C2131 1.428 . S
C2137 N2136 1.351 . S
C2137 C2138 1.434 . S
C2138 C2129 1.429 . S
C2138 N2135 1.350 . S
C2138 C2137 1.434 . S
C2139 C2140 1.369 . S
C2139 C2141 1.419 . S
C2139 H2143 0.930 . S
C2140 C2139 1.369 . S
C2140 C2149 1.429 . S
C2141 C2139 1.419 . S
C2141 C2142 1.363 . S
C2141 H2144 0.929 . S
C2142 C2141 1.363 . S
C2142 C2148 1.428 . S
H2143 C2139 0.930 . S
H2144 C2141 0.929 . S
S2145 N2146 1.613 . S
S2145 N2147 1.610 . S
N2146 S2145 1.613 . S
N2146 C2149 1.350 . S
N2147 S2145 1.610 . S
N2147 C2148 1.351 . S
C2148 C2142 1.428 . S
C2148 N2147 1.351 . S
C2148 C2149 1.434 . S
C2149 C2140 1.429 . S
C2149 N2146 1.350 . S
C2149 C2148 1.434 . S
C2150 C2151 1.369 . S
C2150 C2152 1.419 . S
C2150 H2154 0.930 . S
C2151 C2150 1.369 . S
C2151 C2160 1.429 . S
C2152 C2150 1.419 . S
C2152 C2153 1.363 . S
C2152 H2155 0.929 . S
C2153 C2152 1.363 . S
C2153 C2159 1.428 . S
H2154 C2150 0.930 . S
H2155 C2152 0.929 . S
S2156 N2157 1.613 . S
S2156 N2158 1.610 . S
N2157 S2156 1.613 . S
N2157 C2160 1.350 . S
N2158 S2156 1.610 . S
N2158 C2159 1.351 . S
C2159 C2153 1.428 . S
C2159 N2158 1.351 . S
C2159 C2160 1.434 . S
C2160 C2151 1.429 . S
C2160 N2157 1.350 . S
C2160 C2159 1.434 . S
C2161 C2162 1.369 . S
C2161 C2163 1.419 . S
C2161 H2165 0.930 . S
C2162 C2161 1.369 . S
C2162 C2171 1.429 . S
C2163 C2161 1.419 . S
C2163 C2164 1.363 . S
C2163 H2166 0.929 . S
C2164 C2163 1.363 . S
C2164 C2170 1.428 . S
H2165 C2161 0.930 . S
H2166 C2163 0.929 . S
S2167 N2168 1.613 . S
S2167 N2169 1.610 . S
N2168 S2167 1.613 . S
N2168 C2171 1.350 . S
N2169 S2167 1.610 . S
N2169 C2170 1.351 . S
C2170 C2164 1.428 . S
C2170 N2169 1.351 . S
C2170 C2171 1.434 . S
C2171 C2162 1.429 . S
C2171 N2168 1.350 . S
C2171 C2170 1.434 . S
C2172 C2173 1.369 . S
C2172 C2174 1.419 . S
C2172 H2176 0.930 . S
C2173 C2172 1.369 . S
C2173 C2182 1.429 . S
C2174 C2172 1.419 . S
C2174 C2175 1.363 . S
C2174 H2177 0.929 . S
C2175 C2174 1.363 . S
C2175 C2181 1.428 . S
H2176 C2172 0.930 . S
H2177 C2174 0.929 . S
S2178 N2179 1.613 . S
S2178 N2180 1.610 . S
N2179 S2178 1.613 . S
N2179 C2182 1.350 . S
N2180 S2178 1.610 . S
N2180 C2181 1.351 . S
C2181 C2175 1.428 . S
C2181 N2180 1.351 . S
C2181 C2182 1.434 . S
C2182 C2173 1.429 . S
C2182 N2179 1.350 . S
C2182 C2181 1.434 . S
C2183 C2184 1.369 . S
C2183 C2185 1.419 . S
C2183 H2187 0.930 . S
C2184 C2183 1.369 . S
C2184 C2193 1.429 . S
C2185 C2183 1.419 . S
C2185 C2186 1.363 . S
C2185 H2188 0.929 . S
C2186 C2185 1.363 . S
C2186 C2192 1.428 . S
H2187 C2183 0.930 . S
H2188 C2185 0.929 . S
S2189 N2190 1.613 . S
S2189 N2191 1.610 . S
N2190 S2189 1.613 . S
N2190 C2193 1.350 . S
N2191 S2189 1.610 . S
N2191 C2192 1.351 . S
C2192 C2186 1.428 . S
C2192 N2191 1.351 . S
C2192 C2193 1.434 . S
C2193 C2184 1.429 . S
C2193 N2190 1.350 . S
C2193 C2192 1.434 . S
C2194 C2195 1.369 . S
C2194 C2196 1.419 . S
C2194 H2198 0.930 . S
C2195 C2194 1.369 . S
C2195 C2204 1.429 . S
C2196 C2194 1.419 . S
C2196 C2197 1.363 . S
C2196 H2199 0.929 . S
C2197 C2196 1.363 . S
C2197 C2203 1.428 . S
H2198 C2194 0.930 . S
H2199 C2196 0.929 . S
S2200 N2201 1.613 . S
S2200 N2202 1.610 . S
N2201 S2200 1.613 . S
N2201 C2204 1.350 . S
N2202 S2200 1.610 . S
N2202 C2203 1.351 . S
C2203 C2197 1.428 . S
C2203 N2202 1.351 . S
C2203 C2204 1.434 . S
C2204 C2195 1.429 . S
C2204 N2201 1.350 . S
C2204 C2203 1.434 . S
C2205 C2206 1.369 . S
C2205 C2207 1.419 . S
C2205 H2209 0.930 . S
C2206 C2205 1.369 . S
C2206 C2215 1.429 . S
C2207 C2205 1.419 . S
C2207 C2208 1.363 . S
C2207 H2210 0.929 . S
C2208 C2207 1.363 . S
C2208 C2214 1.428 . S
H2209 C2205 0.930 . S
H2210 C2207 0.929 . S
S2211 N2212 1.613 . S
S2211 N2213 1.610 . S
N2212 S2211 1.613 . S
N2212 C2215 1.350 . S
N2213 S2211 1.610 . S
N2213 C2214 1.351 . S
C2214 C2208 1.428 . S
C2214 N2213 1.351 . S
C2214 C2215 1.434 . S
C2215 C2206 1.429 . S
C2215 N2212 1.350 . S
C2215 C2214 1.434 . S
C2216 C2217 1.369 . S
C2216 C2218 1.419 . S
C2216 H2220 0.930 . S
C2217 C2216 1.369 . S
C2217 C2226 1.429 . S
C2218 C2216 1.419 . S
C2218 C2219 1.363 . S
C2218 H2221 0.929 . S
C2219 C2218 1.363 . S
C2219 C2225 1.428 . S
H2220 C2216 0.930 . S
H2221 C2218 0.929 . S
S2222 N2223 1.613 . S
S2222 N2224 1.610 . S
N2223 S2222 1.613 . S
N2223 C2226 1.350 . S
N2224 S2222 1.610 . S
N2224 C2225 1.351 . S
C2225 C2219 1.428 . S
C2225 N2224 1.351 . S
C2225 C2226 1.434 . S
C2226 C2217 1.429 . S
C2226 N2223 1.350 . S
C2226 C2225 1.434 . S
C2227 C2228 1.369 . S
C2227 C2229 1.419 . S
C2227 H2231 0.930 . S
C2228 C2227 1.369 . S
C2228 C2237 1.429 . S
C2229 C2227 1.419 . S
C2229 C2230 1.363 . S
C2229 H2232 0.929 . S
C2230 C2229 1.363 . S
C2230 C2236 1.428 . S
H2231 C2227 0.930 . S
H2232 C2229 0.929 . S
S2233 N2234 1.613 . S
S2233 N2235 1.610 . S
N2234 S2233 1.613 . S
N2234 C2237 1.350 . S
N2235 S2233 1.610 . S
N2235 C2236 1.351 . S
C2236 C2230 1.428 . S
C2236 N2235 1.351 . S
C2236 C2237 1.434 . S
C2237 C2228 1.429 . S
C2237 N2234 1.350 . S
C2237 C2236 1.434 . S
C2238 C2239 1.369 . S
C2238 C2240 1.419 . S
C2238 H2242 0.930 . S
C2239 C2238 1.369 . S
C2239 C2248 1.429 . S
C2240 C2238 1.419 . S
C2240 C2241 1.363 . S
C2240 H2243 0.929 . S
C2241 C2240 1.363 . S
C2241 C2247 1.428 . S
H2242 C2238 0.930 . S
H2243 C2240 0.929 . S
S2244 N2245 1.613 . S
S2244 N2246 1.610 . S
N2245 S2244 1.613 . S
N2245 C2248 1.350 . S
N2246 S2244 1.610 . S
N2246 C2247 1.351 . S
C2247 C2241 1.428 . S
C2247 N2246 1.351 . S
C2247 C2248 1.434 . S
C2248 C2239 1.429 . S
C2248 N2245 1.350 . S
C2248 C2247 1.434 . S
C2249 C2250 1.369 . S
C2249 C2251 1.419 . S
C2249 H2253 0.930 . S
C2250 C2249 1.369 . S
C2250 C2259 1.429 . S
C2251 C2249 1.419 . S
C2251 C2252 1.363 . S
C2251 H2254 0.929 . S
C2252 C2251 1.363 . S
C2252 C2258 1.428 . S
H2253 C2249 0.930 . S
H2254 C2251 0.929 . S
S2255 N2256 1.613 . S
S2255 N2257 1.610 . S
N2256 S2255 1.613 . S
N2256 C2259 1.350 . S
N2257 S2255 1.610 . S
N2257 C2258 1.351 . S
C2258 C2252 1.428 . S
C2258 N2257 1.351 . S
C2258 C2259 1.434 . S
C2259 C2250 1.429 . S
C2259 N2256 1.350 . S
C2259 C2258 1.434 . S
C2260 C2261 1.369 . S
C2260 C2262 1.419 . S
C2260 H2264 0.930 . S
C2261 C2260 1.369 . S
C2261 C2270 1.429 . S
C2262 C2260 1.419 . S
C2262 C2263 1.363 . S
C2262 H2265 0.929 . S
C2263 C2262 1.363 . S
C2263 C2269 1.428 . S
H2264 C2260 0.930 . S
H2265 C2262 0.929 . S
S2266 N2267 1.613 . S
S2266 N2268 1.610 . S
N2267 S2266 1.613 . S
N2267 C2270 1.350 . S
N2268 S2266 1.610 . S
N2268 C2269 1.351 . S
C2269 C2263 1.428 . S
C2269 N2268 1.351 . S
C2269 C2270 1.434 . S
C2270 C2261 1.429 . S
C2270 N2267 1.350 . S
C2270 C2269 1.434 . S
C2271 C2272 1.369 . S
C2271 C2273 1.419 . S
C2271 H2275 0.930 . S
C2272 C2271 1.369 . S
C2272 C2281 1.429 . S
C2273 C2271 1.419 . S
C2273 C2274 1.363 . S
C2273 H2276 0.929 . S
C2274 C2273 1.363 . S
C2274 C2280 1.428 . S
H2275 C2271 0.930 . S
H2276 C2273 0.929 . S
S2277 N2278 1.613 . S
S2277 N2279 1.610 . S
N2278 S2277 1.613 . S
N2278 C2281 1.350 . S
N2279 S2277 1.610 . S
N2279 C2280 1.351 . S
C2280 C2274 1.428 . S
C2280 N2279 1.351 . S
C2280 C2281 1.434 . S
C2281 C2272 1.429 . S
C2281 N2278 1.350 . S
C2281 C2280 1.434 . S
C2282 C2283 1.369 . S
C2282 C2284 1.419 . S
C2282 H2286 0.930 . S
C2283 C2282 1.369 . S
C2283 C2292 1.429 . S
C2284 C2282 1.419 . S
C2284 C2285 1.363 . S
C2284 H2287 0.929 . S
C2285 C2284 1.363 . S
C2285 C2291 1.428 . S
H2286 C2282 0.930 . S
H2287 C2284 0.929 . S
S2288 N2289 1.613 . S
S2288 N2290 1.610 . S
N2289 S2288 1.613 . S
N2289 C2292 1.350 . S
N2290 S2288 1.610 . S
N2290 C2291 1.351 . S
C2291 C2285 1.428 . S
C2291 N2290 1.351 . S
C2291 C2292 1.434 . S
C2292 C2283 1.429 . S
C2292 N2289 1.350 . S
C2292 C2291 1.434 . S
C2293 C2294 1.369 . S
C2293 C2295 1.419 . S
C2293 H2297 0.930 . S
C2294 C2293 1.369 . S
C2294 C2303 1.429 . S
C2295 C2293 1.419 . S
C2295 C2296 1.363 . S
C2295 H2298 0.929 . S
C2296 C2295 1.363 . S
C2296 C2302 1.428 . S
H2297 C2293 0.930 . S
H2298 C2295 0.929 . S
S2299 N2300 1.613 . S
S2299 N2301 1.610 . S
N2300 S2299 1.613 . S
N2300 C2303 1.350 . S
N2301 S2299 1.610 . S
N2301 C2302 1.351 . S
C2302 C2296 1.428 . S
C2302 N2301 1.351 . S
C2302 C2303 1.434 . S
C2303 C2294 1.429 . S
C2303 N2300 1.350 . S
C2303 C2302 1.434 . S
C2304 C2305 1.369 . S
C2304 C2306 1.419 . S
C2304 H2308 0.930 . S
C2305 C2304 1.369 . S
C2305 C2314 1.429 . S
C2306 C2304 1.419 . S
C2306 C2307 1.363 . S
C2306 H2309 0.929 . S
C2307 C2306 1.363 . S
C2307 C2313 1.428 . S
H2308 C2304 0.930 . S
H2309 C2306 0.929 . S
S2310 N2311 1.613 . S
S2310 N2312 1.610 . S
N2311 S2310 1.613 . S
N2311 C2314 1.350 . S
N2312 S2310 1.610 . S
N2312 C2313 1.351 . S
C2313 C2307 1.428 . S
C2313 N2312 1.351 . S
C2313 C2314 1.434 . S
C2314 C2305 1.429 . S
C2314 N2311 1.350 . S
C2314 C2313 1.434 . S
C2315 C2316 1.369 . S
C2315 C2317 1.419 . S
C2315 H2319 0.930 . S
C2316 C2315 1.369 . S
C2316 C2325 1.429 . S
C2317 C2315 1.419 . S
C2317 C2318 1.363 . S
C2317 H2320 0.929 . S
C2318 C2317 1.363 . S
C2318 C2324 1.428 . S
H2319 C2315 0.930 . S
H2320 C2317 0.929 . S
S2321 N2322 1.613 1_556 S
S2321 N2323 1.610 1_556 S
N2322 S2321 1.613 1_554 S
N2322 C2325 1.350 . S
N2323 S2321 1.610 1_554 S
N2323 C2324 1.351 . S
C2324 C2318 1.428 . S
C2324 N2323 1.351 . S
C2324 C2325 1.434 . S
C2325 C2316 1.429 . S
C2325 N2322 1.350 . S
C2325 C2324 1.434 . S
C2326 C2327 1.369 . S
C2326 C2328 1.419 . S
C2326 H2330 0.930 . S
C2327 C2326 1.369 . S
C2327 C2336 1.429 . S
C2328 C2326 1.419 . S
C2328 C2329 1.363 . S
C2328 H2331 0.929 . S
C2329 C2328 1.363 . S
C2329 C2335 1.428 . S
H2330 C2326 0.930 . S
H2331 C2328 0.929 . S
S2332 N2333 1.613 . S
S2332 N2334 1.610 . S
N2333 S2332 1.613 . S
N2333 C2336 1.350 . S
N2334 S2332 1.610 . S
N2334 C2335 1.351 . S
C2335 C2329 1.428 . S
C2335 N2334 1.351 . S
C2335 C2336 1.434 . S
C2336 C2327 1.429 . S
C2336 N2333 1.350 . S
C2336 C2335 1.434 . S
C2337 C2338 1.369 . S
C2337 C2339 1.419 . S
C2337 H2341 0.930 . S
C2338 C2337 1.369 . S
C2338 C2347 1.429 . S
C2339 C2337 1.419 . S
C2339 C2340 1.363 . S
C2339 H2342 0.929 . S
C2340 C2339 1.363 . S
C2340 C2346 1.428 . S
H2341 C2337 0.930 . S
H2342 C2339 0.929 . S
S2343 N2344 1.613 . S
S2343 N2345 1.610 1_554 S
N2344 S2343 1.613 . S
N2344 C2347 1.350 1_554 S
N2345 S2343 1.610 1_556 S
N2345 C2346 1.351 . S
C2346 C2340 1.428 . S
C2346 N2345 1.351 . S
C2346 C2347 1.434 . S
C2347 C2338 1.429 . S
C2347 N2344 1.350 1_556 S
C2347 C2346 1.434 . S
C2348 C2349 1.369 . S
C2348 C2350 1.419 . S
C2348 H2352 0.930 . S
C2349 C2348 1.369 . S
C2349 C2358 1.429 . S
C2350 C2348 1.419 . S
C2350 C2351 1.363 . S
C2350 H2353 0.929 . S
C2351 C2350 1.363 . S
C2351 C2357 1.428 . S
H2352 C2348 0.930 . S
H2353 C2350 0.929 . S
S2354 N2355 1.613 . S
S2354 N2356 1.610 . S
N2355 S2354 1.613 . S
N2355 C2358 1.350 . S
N2356 S2354 1.610 . S
N2356 C2357 1.351 . S
C2357 C2351 1.428 . S
C2357 N2356 1.351 . S
C2357 C2358 1.434 . S
C2358 C2349 1.429 . S
C2358 N2355 1.350 . S
C2358 C2357 1.434 . S
C2359 C2360 1.369 . S
C2359 C2361 1.419 . S
C2359 H2363 0.930 . S
C2360 C2359 1.369 . S
C2360 C2369 1.429 . S
C2361 C2359 1.419 . S
C2361 C2362 1.363 . S
C2361 H2364 0.929 . S
C2362 C2361 1.363 . S
C2362 C2368 1.428 . S
H2363 C2359 0.930 . S
H2364 C2361 0.929 . S
S2365 N2366 1.613 . S
S2365 N2367 1.610 1_554 S
N2366 S2365 1.613 . S
N2366 C2369 1.350 1_554 S
N2367 S2365 1.610 1_556 S
N2367 C2368 1.351 . S
C2368 C2362 1.428 . S
C2368 N2367 1.351 . S
C2368 C2369 1.434 . S
C2369 C2360 1.429 . S
C2369 N2366 1.350 1_556 S
C2369 C2368 1.434 . S
C2370 C2371 1.369 . S
C2370 C2372 1.419 . S
C2370 H2374 0.930 . S
C2371 C2370 1.369 . S
C2371 C2380 1.429 . S
C2372 C2370 1.419 . S
C2372 C2373 1.363 . S
C2372 H2375 0.929 . S
C2373 C2372 1.363 . S
C2373 C2379 1.428 . S
H2374 C2370 0.930 . S
H2375 C2372 0.929 . S
S2376 N2377 1.613 . S
S2376 N2378 1.610 . S
N2377 S2376 1.613 . S
N2377 C2380 1.350 . S
N2378 S2376 1.610 . S
N2378 C2379 1.351 . S
C2379 C2373 1.428 . S
C2379 N2378 1.351 . S
C2379 C2380 1.434 . S
C2380 C2371 1.429 . S
C2380 N2377 1.350 . S
C2380 C2379 1.434 . S
C2381 C2382 1.369 . S
C2381 C2383 1.419 . S
C2381 H2385 0.930 . S
C2382 C2381 1.369 . S
C2382 C2391 1.429 . S
C2383 C2381 1.419 . S
C2383 C2384 1.363 . S
C2383 H2386 0.929 . S
C2384 C2383 1.363 . S
C2384 C2390 1.428 . S
H2385 C2381 0.930 . S
H2386 C2383 0.929 . S
S2387 N2388 1.613 1_554 S
S2387 N2389 1.611 1_554 S
N2388 S2387 1.613 1_556 S
N2388 C2391 1.350 . S
N2389 S2387 1.611 1_556 S
N2389 C2390 1.351 . S
C2390 C2384 1.428 . S
C2390 N2389 1.351 . S
C2390 C2391 1.434 . S
C2391 C2382 1.429 . S
C2391 N2388 1.350 . S
C2391 C2390 1.434 . S
C2392 C2393 1.369 . S
C2392 C2394 1.419 . S
C2392 H2396 0.930 . S
C2393 C2392 1.369 . S
C2393 C2402 1.429 . S
C2394 C2392 1.419 . S
C2394 C2395 1.363 . S
C2394 H2397 0.929 . S
C2395 C2394 1.363 . S
C2395 C2401 1.428 . S
H2396 C2392 0.930 . S
H2397 C2394 0.929 . S
S2398 N2399 1.613 . S
S2398 N2400 1.610 1_554 S
N2399 S2398 1.613 . S
N2399 C2402 1.350 1_554 S
N2400 S2398 1.610 1_556 S
N2400 C2401 1.351 . S
C2401 C2395 1.428 . S
C2401 N2400 1.351 . S
C2401 C2402 1.434 . S
C2402 C2393 1.429 . S
C2402 N2399 1.350 1_556 S
C2402 C2401 1.434 . S
C2403 C2404 1.369 . S
C2403 C2405 1.419 . S
C2403 H2407 0.930 . S
C2404 C2403 1.369 . S
C2404 C2413 1.429 . S
C2405 C2403 1.419 . S
C2405 C2406 1.363 . S
C2405 H2408 0.929 . S
C2406 C2405 1.363 . S
C2406 C2412 1.428 . S
H2407 C2403 0.930 . S
H2408 C2405 0.929 . S
S2409 N2410 1.613 . S
S2409 N2411 1.610 . S
N2410 S2409 1.613 . S
N2410 C2413 1.350 . S
N2411 S2409 1.610 . S
N2411 C2412 1.351 . S
C2412 C2406 1.428 . S
C2412 N2411 1.351 . S
C2412 C2413 1.434 . S
C2413 C2404 1.429 . S
C2413 N2410 1.350 . S
C2413 C2412 1.434 . S
C2414 C2415 1.369 . S
C2414 C2416 1.419 . S
C2414 H2418 0.930 . S
C2415 C2414 1.369 . S
C2415 C2424 1.429 . S
C2416 C2414 1.419 . S
C2416 C2417 1.363 . S
C2416 H2419 0.929 . S
C2417 C2416 1.363 . S
C2417 C2423 1.428 . S
H2418 C2414 0.930 . S
H2419 C2416 0.929 . S
S2420 N2421 1.613 . S
S2420 N2422 1.610 . S
N2421 S2420 1.613 . S
N2421 C2424 1.350 . S
N2422 S2420 1.610 . S
N2422 C2423 1.351 . S
C2423 C2417 1.428 . S
C2423 N2422 1.351 . S
C2423 C2424 1.434 . S
C2424 C2415 1.429 . S
C2424 N2421 1.350 . S
C2424 C2423 1.434 . S
C2425 C2426 1.369 . S
C2425 C2427 1.419 . S
C2425 H2429 0.930 . S
C2426 C2425 1.369 . S
C2426 C2435 1.429 . S
C2427 C2425 1.419 . S
C2427 C2428 1.363 . S
C2427 H2430 0.929 . S
C2428 C2427 1.363 . S
C2428 C2434 1.428 . S
H2429 C2425 0.930 . S
H2430 C2427 0.929 . S
S2431 N2432 1.613 . S
S2431 N2433 1.610 . S
N2432 S2431 1.613 . S
N2432 C2435 1.350 . S
N2433 S2431 1.610 . S
N2433 C2434 1.351 . S
C2434 C2428 1.428 . S
C2434 N2433 1.351 . S
C2434 C2435 1.434 . S
C2435 C2426 1.429 . S
C2435 N2432 1.350 . S
C2435 C2434 1.434 . S
C2436 C2437 1.369 . S
C2436 C2438 1.419 . S
C2436 H2440 0.930 . S
C2437 C2436 1.369 . S
C2437 C2446 1.429 . S
C2438 C2436 1.419 . S
C2438 C2439 1.363 . S
C2438 H2441 0.929 . S
C2439 C2438 1.363 . S
C2439 C2445 1.428 . S
H2440 C2436 0.930 . S
H2441 C2438 0.929 . S
S2442 N2443 1.613 . S
S2442 N2444 1.610 . S
N2443 S2442 1.613 . S
N2443 C2446 1.350 . S
N2444 S2442 1.610 . S
N2444 C2445 1.351 . S
C2445 C2439 1.428 . S
C2445 N2444 1.351 . S
C2445 C2446 1.434 . S
C2446 C2437 1.429 . S
C2446 N2443 1.350 . S
C2446 C2445 1.434 . S
C2447 C2448 1.369 . S
C2447 C2449 1.419 . S
C2447 H2451 0.930 . S
C2448 C2447 1.369 . S
C2448 C2457 1.429 . S
C2449 C2447 1.419 . S
C2449 C2450 1.363 . S
C2449 H2452 0.929 . S
C2450 C2449 1.363 . S
C2450 C2456 1.428 . S
H2451 C2447 0.930 . S
H2452 C2449 0.929 . S
S2453 N2454 1.613 . S
S2453 N2455 1.610 . S
N2454 S2453 1.613 . S
N2454 C2457 1.350 . S
N2455 S2453 1.610 . S
N2455 C2456 1.351 . S
C2456 C2450 1.428 . S
C2456 N2455 1.351 . S
C2456 C2457 1.434 . S
C2457 C2448 1.429 . S
C2457 N2454 1.350 . S
C2457 C2456 1.434 . S
C2458 C2459 1.369 . S
C2458 C2460 1.419 . S
C2458 H2462 0.930 . S
C2459 C2458 1.369 . S
C2459 C2468 1.429 . S
C2460 C2458 1.419 . S
C2460 C2461 1.363 . S
C2460 H2463 0.929 . S
C2461 C2460 1.363 . S
C2461 C2467 1.428 . S
H2462 C2458 0.930 . S
H2463 C2460 0.929 . S
S2464 N2465 1.613 . S
S2464 N2466 1.610 . S
N2465 S2464 1.613 . S
N2465 C2468 1.350 . S
N2466 S2464 1.610 . S
N2466 C2467 1.351 . S
C2467 C2461 1.428 . S
C2467 N2466 1.351 . S
C2467 C2468 1.434 . S
C2468 C2459 1.429 . S
C2468 N2465 1.350 . S
C2468 C2467 1.434 . S
C2469 C2470 1.369 . S
C2469 C2471 1.419 . S
C2469 H2473 0.930 . S
C2470 C2469 1.369 . S
C2470 C2479 1.429 . S
C2471 C2469 1.419 . S
C2471 C2472 1.363 . S
C2471 H2474 0.929 . S
C2472 C2471 1.363 . S
C2472 C2478 1.428 . S
H2473 C2469 0.930 . S
H2474 C2471 0.929 . S
S2475 N2476 1.613 . S
S2475 N2477 1.610 . S
N2476 S2475 1.613 . S
N2476 C2479 1.350 . S
N2477 S2475 1.610 . S
N2477 C2478 1.351 . S
C2478 C2472 1.428 . S
C2478 N2477 1.351 . S
C2478 C2479 1.434 . S
C2479 C2470 1.429 . S
C2479 N2476 1.350 . S
C2479 C2478 1.434 . S
C2480 C2481 1.369 . S
C2480 C2482 1.419 . S
C2480 H2484 0.930 . S
C2481 C2480 1.369 . S
C2481 C2490 1.429 . S
C2482 C2480 1.419 . S
C2482 C2483 1.363 . S
C2482 H2485 0.929 . S
C2483 C2482 1.363 . S
C2483 C2489 1.428 . S
H2484 C2480 0.930 . S
H2485 C2482 0.929 . S
S2486 N2487 1.613 . S
S2486 N2488 1.610 . S
N2487 S2486 1.613 . S
N2487 C2490 1.350 . S
N2488 S2486 1.610 . S
N2488 C2489 1.351 . S
C2489 C2483 1.428 . S
C2489 N2488 1.351 . S
C2489 C2490 1.434 . S
C2490 C2481 1.429 . S
C2490 N2487 1.350 . S
C2490 C2489 1.434 . S
C2491 C2492 1.369 . S
C2491 C2493 1.419 . S
C2491 H2495 0.930 . S
C2492 C2491 1.369 . S
C2492 C2501 1.429 . S
C2493 C2491 1.419 . S
C2493 C2494 1.363 . S
C2493 H2496 0.925 1_565 S
C2494 C2493 1.363 . S
C2494 C2500 1.428 . S
H2495 C2491 0.930 . S
H2496 C2493 0.925 1_545 S
S2497 N2498 1.613 . S
S2497 N2499 1.610 . S
N2498 S2497 1.613 . S
N2498 C2501 1.350 . S
N2499 S2497 1.610 . S
N2499 C2500 1.351 . S
C2500 C2494 1.428 . S
C2500 N2499 1.351 . S
C2500 C2501 1.434 . S
C2501 C2492 1.429 . S
C2501 N2498 1.350 . S
C2501 C2500 1.434 . S
C2502 C2503 1.369 1_545 S
C2502 C2504 1.419 . S
C2502 H2506 0.930 . S
C2503 C2502 1.369 1_565 S
C2503 C2512 1.429 . S
C2504 C2502 1.419 . S
C2504 C2505 1.363 1_545 S
C2504 H2507 0.929 . S
C2505 C2504 1.363 1_565 S
C2505 C2511 1.428 . S
H2506 C2502 0.930 . S
H2507 C2504 0.929 . S
S2508 N2509 1.613 . S
S2508 N2510 1.610 . S
N2509 S2508 1.613 . S
N2509 C2512 1.350 . S
N2510 S2508 1.610 . S
N2510 C2511 1.351 . S
C2511 C2505 1.428 . S
C2511 N2510 1.351 . S
C2511 C2512 1.434 . S
C2512 C2503 1.429 . S
C2512 N2509 1.350 . S
C2512 C2511 1.434 . S
C2513 C2514 1.369 . S
C2513 C2515 1.419 . S
C2513 H2517 0.930 . S
C2514 C2513 1.369 . S
C2514 C2523 1.429 . S
C2515 C2513 1.419 . S
C2515 C2516 1.363 . S
C2515 H2518 0.929 . S
C2516 C2515 1.363 . S
C2516 C2522 1.428 1_455 S
H2517 C2513 0.930 . S
H2518 C2515 0.929 . S
S2519 N2520 1.613 . S
S2519 N2521 1.610 . S
N2520 S2519 1.613 . S
N2520 C2523 1.348 1_655 S
N2521 S2519 1.610 . S
N2521 C2522 1.351 . S
C2522 C2516 1.428 1_655 S
C2522 N2521 1.351 . S
C2522 C2523 1.435 1_655 S
C2523 C2514 1.429 . S
C2523 N2520 1.348 1_455 S
C2523 C2522 1.435 1_455 S
C2524 C2525 1.369 . S
C2524 C2526 1.419 . S
C2524 H2528 0.930 . S
C2525 C2524 1.369 . S
C2525 C2534 1.429 . S
C2526 C2524 1.419 . S
C2526 C2527 1.363 . S
C2526 H2529 0.929 . S
C2527 C2526 1.363 . S
C2527 C2533 1.428 . S
H2528 C2524 0.930 . S
H2529 C2526 0.929 . S
S2530 N2531 1.613 . S
S2530 N2532 1.610 . S
N2531 S2530 1.613 . S
N2531 C2534 1.350 . S
N2532 S2530 1.610 . S
N2532 C2533 1.351 . S
C2533 C2527 1.428 . S
C2533 N2532 1.351 . S
C2533 C2534 1.434 . S
C2534 C2525 1.429 . S
C2534 N2531 1.350 . S
C2534 C2533 1.434 . S
C2535 C2536 1.369 . S
C2535 C2537 1.419 . S
C2535 H2539 0.930 . S
C2536 C2535 1.369 . S
C2536 C2545 1.429 . S
C2537 C2535 1.419 . S
C2537 C2538 1.363 . S
C2537 H2540 0.929 . S
C2538 C2537 1.363 . S
C2538 C2544 1.428 . S
H2539 C2535 0.930 . S
H2540 C2537 0.929 . S
S2541 N2542 1.613 . S
S2541 N2543 1.610 . S
N2542 S2541 1.613 . S
N2542 C2545 1.350 . S
N2543 S2541 1.610 . S
N2543 C2544 1.351 . S
C2544 C2538 1.428 . S
C2544 N2543 1.351 . S
C2544 C2545 1.434 . S
C2545 C2536 1.429 . S
C2545 N2542 1.350 . S
C2545 C2544 1.434 . S
C2546 C2547 1.369 . S
C2546 C2548 1.419 . S
C2546 H2550 0.930 . S
C2547 C2546 1.369 . S
C2547 C2556 1.429 . S
C2548 C2546 1.419 . S
C2548 C2549 1.363 . S
C2548 H2551 0.929 . S
C2549 C2548 1.363 . S
C2549 C2555 1.428 . S
H2550 C2546 0.930 . S
H2551 C2548 0.929 . S
S2552 N2553 1.613 . S
S2552 N2554 1.610 . S
N2553 S2552 1.613 . S
N2553 C2556 1.350 . S
N2554 S2552 1.610 . S
N2554 C2555 1.351 . S
C2555 C2549 1.428 . S
C2555 N2554 1.351 . S
C2555 C2556 1.434 . S
C2556 C2547 1.429 . S
C2556 N2553 1.350 . S
C2556 C2555 1.434 . S
C2557 C2558 1.369 . S
C2557 C2559 1.419 . S
C2557 H2561 0.930 . S
C2558 C2557 1.369 . S
C2558 C2567 1.429 . S
C2559 C2557 1.419 . S
C2559 C2560 1.363 . S
C2559 H2562 0.929 . S
C2560 C2559 1.363 . S
C2560 C2566 1.428 . S
H2561 C2557 0.930 . S
H2562 C2559 0.929 . S
S2563 N2564 1.613 . S
S2563 N2565 1.610 . S
N2564 S2563 1.613 . S
N2564 C2567 1.350 . S
N2565 S2563 1.610 . S
N2565 C2566 1.351 . S
C2566 C2560 1.428 . S
C2566 N2565 1.351 . S
C2566 C2567 1.434 . S
C2567 C2558 1.429 . S
C2567 N2564 1.350 . S
C2567 C2566 1.434 . S
C2568 C2569 1.369 . S
C2568 C2570 1.419 . S
C2568 H2572 0.930 . S
C2569 C2568 1.369 . S
C2569 C2578 1.429 1_545 S
C2570 C2568 1.419 . S
C2570 C2571 1.363 . S
C2570 H2573 0.929 . S
C2571 C2570 1.363 . S
C2571 C2577 1.428 1_545 S
H2572 C2568 0.930 . S
H2573 C2570 0.929 . S
S2574 N2575 1.613 . S
S2574 N2576 1.610 . S
N2575 S2574 1.613 . S
N2575 C2578 1.350 . S
N2576 S2574 1.610 . S
N2576 C2577 1.351 . S
C2577 C2571 1.428 1_565 S
C2577 N2576 1.351 . S
C2577 C2578 1.434 . S
C2578 C2569 1.429 1_565 S
C2578 N2575 1.350 . S
C2578 C2577 1.434 . S
C2579 C2580 1.369 . S
C2579 C2581 1.419 . S
C2579 H2583 0.930 . S
C2580 C2579 1.369 . S
C2580 C2589 1.429 . S
C2581 C2579 1.419 . S
C2581 C2582 1.363 . S
C2581 H2584 0.929 . S
C2582 C2581 1.363 . S
C2582 C2588 1.428 . S
H2583 C2579 0.930 . S
H2584 C2581 0.929 . S
S2585 N2586 1.609 . S
S2585 N2587 1.616 . S
N2586 S2585 1.609 . S
N2586 C2589 1.350 . S
N2587 S2585 1.616 . S
N2587 C2588 1.360 . S
C2588 C2582 1.428 . S
C2588 N2587 1.360 . S
C2588 C2589 1.434 . S
C2589 C2580 1.429 . S
C2589 N2586 1.350 . S
C2589 C2588 1.434 . S
C2590 C2591 1.369 . S
C2590 C2592 1.419 . S
C2590 H2594 0.930 . S
C2591 C2590 1.369 . S
C2591 C2600 1.429 . S
C2592 C2590 1.419 . S
C2592 C2593 1.363 . S
C2592 H2595 0.929 . S
C2593 C2592 1.363 . S
C2593 C2599 1.428 . S
H2594 C2590 0.930 . S
H2595 C2592 0.929 . S
S2596 N2597 1.613 . S
S2596 N2598 1.610 . S
N2597 S2596 1.613 . S
N2597 C2600 1.350 . S
N2598 S2596 1.610 . S
N2598 C2599 1.351 . S
C2599 C2593 1.428 . S
C2599 N2598 1.351 . S
C2599 C2600 1.434 . S
C2600 C2591 1.429 . S
C2600 N2597 1.350 . S
C2600 C2599 1.434 . S
C2601 C2602 1.369 . S
C2601 C2603 1.419 . S
C2601 H2605 0.930 . S
C2602 C2601 1.369 . S
C2602 C2611 1.429 . S
C2603 C2601 1.419 . S
C2603 C2604 1.363 . S
C2603 H2606 0.929 . S
C2604 C2603 1.363 . S
C2604 C2610 1.428 . S
H2605 C2601 0.930 . S
H2606 C2603 0.929 . S
S2607 N2608 1.613 . S
S2607 N2609 1.610 . S
N2608 S2607 1.613 . S
N2608 C2611 1.350 . S
N2609 S2607 1.610 . S
N2609 C2610 1.351 . S
C2610 C2604 1.428 . S
C2610 N2609 1.351 . S
C2610 C2611 1.434 . S
C2611 C2602 1.429 . S
C2611 N2608 1.350 . S
C2611 C2610 1.434 . S
C2612 C2613 1.369 . S
C2612 C2614 1.419 . S
C2612 H2616 0.930 . S
C2613 C2612 1.369 . S
C2613 C2622 1.429 . S
C2614 C2612 1.419 . S
C2614 C2615 1.363 . S
C2614 H2617 0.929 . S
C2615 C2614 1.363 . S
C2615 C2621 1.428 . S
H2616 C2612 0.930 . S
H2617 C2614 0.929 . S
S2618 N2619 1.613 . S
S2618 N2620 1.610 . S
N2619 S2618 1.613 . S
N2619 C2622 1.350 . S
N2620 S2618 1.610 . S
N2620 C2621 1.351 . S
C2621 C2615 1.428 . S
C2621 N2620 1.351 . S
C2621 C2622 1.434 . S
C2622 C2613 1.429 . S
C2622 N2619 1.350 . S
C2622 C2621 1.434 . S
C2623 C2624 1.369 . S
C2623 C2625 1.419 . S
C2623 H2627 0.930 . S
C2624 C2623 1.369 . S
C2624 C2633 1.429 . S
C2625 C2623 1.419 . S
C2625 C2626 1.363 . S
C2625 H2628 0.929 . S
C2626 C2625 1.363 . S
C2626 C2632 1.428 . S
H2627 C2623 0.930 . S
H2628 C2625 0.929 . S
S2629 N2630 1.613 . S
S2629 N2631 1.610 . S
N2630 S2629 1.613 . S
N2630 C2633 1.350 . S
N2631 S2629 1.610 . S
N2631 C2632 1.351 . S
C2632 C2626 1.428 . S
C2632 N2631 1.351 . S
C2632 C2633 1.434 . S
C2633 C2624 1.429 . S
C2633 N2630 1.350 . S
C2633 C2632 1.434 . S
C2634 C2635 1.369 . S
C2634 C2636 1.419 . S
C2634 H2638 0.930 . S
C2635 C2634 1.369 . S
C2635 C2644 1.429 . S
C2636 C2634 1.419 . S
C2636 C2637 1.363 . S
C2636 H2639 0.929 . S
C2637 C2636 1.363 . S
C2637 C2643 1.428 . S
H2638 C2634 0.930 . S
H2639 C2636 0.929 . S
S2640 N2641 1.613 . S
S2640 N2642 1.610 . S
N2641 S2640 1.613 . S
N2641 C2644 1.350 . S
N2642 S2640 1.610 . S
N2642 C2643 1.351 . S
C2643 C2637 1.428 . S
C2643 N2642 1.351 . S
C2643 C2644 1.434 . S
C2644 C2635 1.429 . S
C2644 N2641 1.350 . S
C2644 C2643 1.434 . S
C2645 C2646 1.369 . S
C2645 C2647 1.419 . S
C2645 H2649 0.930 . S
C2646 C2645 1.369 . S
C2646 C2655 1.429 . S
C2647 C2645 1.419 . S
C2647 C2648 1.363 . S
C2647 H2650 0.929 . S
C2648 C2647 1.363 . S
C2648 C2654 1.428 . S
H2649 C2645 0.930 . S
H2650 C2647 0.929 . S
S2651 N2652 1.613 . S
S2651 N2653 1.610 . S
N2652 S2651 1.613 . S
N2652 C2655 1.350 . S
N2653 S2651 1.610 . S
N2653 C2654 1.351 . S
C2654 C2648 1.428 . S
C2654 N2653 1.351 . S
C2654 C2655 1.434 . S
C2655 C2646 1.429 . S
C2655 N2652 1.350 . S
C2655 C2654 1.434 . S
C2656 C2657 1.369 . S
C2656 C2658 1.419 . S
C2656 H2660 0.930 . S
C2657 C2656 1.369 . S
C2657 C2666 1.429 . S
C2658 C2656 1.419 . S
C2658 C2659 1.363 . S
C2658 H2661 0.929 . S
C2659 C2658 1.363 . S
C2659 C2665 1.428 . S
H2660 C2656 0.930 . S
H2661 C2658 0.929 . S
S2662 N2663 1.613 . S
S2662 N2664 1.610 . S
N2663 S2662 1.613 . S
N2663 C2666 1.350 . S
N2664 S2662 1.610 . S
N2664 C2665 1.351 . S
C2665 C2659 1.428 . S
C2665 N2664 1.351 . S
C2665 C2666 1.434 . S
C2666 C2657 1.429 . S
C2666 N2663 1.350 . S
C2666 C2665 1.434 . S
C2667 C2668 1.393 . S
C2667 C2669 1.389 1_655 S
C2667 H2671 0.939 1_655 S
C2668 C2667 1.393 . S
C2668 C2677 1.429 . S
C2669 C2667 1.389 1_455 S
C2669 C2670 1.363 1_455 S
C2669 H2672 0.929 . S
C2670 C2669 1.363 1_655 S
C2670 C2676 1.428 . S
H2671 C2667 0.939 1_455 S
H2672 C2669 0.929 . S
S2673 N2674 1.613 . S
S2673 N2675 1.610 . S
N2674 S2673 1.613 . S
N2674 C2677 1.350 . S
N2675 S2673 1.610 . S
N2675 C2676 1.351 . S
C2676 C2670 1.428 . S
C2676 N2675 1.351 . S
C2676 C2677 1.434 . S
C2677 C2668 1.429 . S
C2677 N2674 1.350 . S
C2677 C2676 1.434 . S
C2678 C2679 1.369 . S
C2678 C2680 1.419 . S
C2678 H2682 0.930 . S
C2679 C2678 1.369 . S
C2679 C2688 1.429 . S
C2680 C2678 1.419 . S
C2680 C2681 1.363 . S
C2680 H2683 0.929 . S
C2681 C2680 1.363 . S
C2681 C2687 1.428 . S
H2682 C2678 0.930 . S
H2683 C2680 0.929 . S
S2684 N2685 1.613 . S
S2684 N2686 1.610 . S
N2685 S2684 1.613 . S
N2685 C2688 1.350 . S
N2686 S2684 1.610 . S
N2686 C2687 1.351 . S
C2687 C2681 1.428 . S
C2687 N2686 1.351 . S
C2687 C2688 1.434 . S
C2688 C2679 1.429 . S
C2688 N2685 1.350 . S
C2688 C2687 1.434 . S
C2689 C2690 1.369 1_565 S
C2689 C2691 1.419 . S
C2689 H2693 0.930 . S
C2690 C2689 1.369 1_545 S
C2690 C2699 1.429 . S
C2691 C2689 1.419 . S
C2691 C2692 1.363 1_565 S
C2691 H2694 0.929 . S
C2692 C2691 1.363 1_545 S
C2692 C2698 1.428 . S
H2693 C2689 0.930 . S
H2694 C2691 0.929 . S
S2695 N2696 1.613 . S
S2695 N2697 1.610 . S
N2696 S2695 1.613 . S
N2696 C2699 1.350 . S
N2697 S2695 1.610 . S
N2697 C2698 1.351 . S
C2698 C2692 1.428 . S
C2698 N2697 1.351 . S
C2698 C2699 1.434 . S
C2699 C2690 1.429 . S
C2699 N2696 1.350 . S
C2699 C2698 1.434 . S
C1909 C49 1.698 . S
C1911 C1753 1.703 . S
C1920 C137 1.697 . S
C1922 C1778 1.676 . S
C1933 C1789 1.708 . S
C1931 C205 1.707 . S
C1942 C196 1.701 . S
C1944 C1814 1.698 . S
C1953 C57 1.706 . S
C1955 C1832 1.712 . S
C1964 C145 1.691 . S
C1966 C1843 1.671 . S
C1975 C313 1.725 . S
C1977 C1825 1.721 1_455 S
C1988 C1850 1.678 . S
C1986 C401 1.684 . S
C1999 C1807 1.718 1_565 S
C1997 C489 1.726 . S
C2008 C469 1.732 . S
C2010 C1796 1.728 1_545 S
C2021 C1760 1.735 1_655 S
C2019 C293 1.727 . S
C2030 C381 1.689 . S
C2032 C1771 1.667 . S
C2041 C577 1.719 . S
C2043 C1861 1.687 . S
C2052 C645 1.701 . S
C2054 C1886 1.677 . S
C2065 C1897 1.656 . S
C2063 C733 1.690 . S
C2074 C724 1.698 . S
C2076 C1598 1.677 . S
C2085 C585 1.708 . S
C2087 C1616 1.695 . S
C2096 C636 1.717 . S
C2098 C1627 1.688 . S
C2107 C841 1.690 . S
C2109 C1609 1.669 . S
C2118 C937 1.707 . S
C2120 C1634 1.696 . S
C2131 C1591 1.687 . S
C2129 C1025 1.698 . S
C2142 C1904 1.697 . S
C2140 C988 1.704 . S
C2153 C1868 1.654 . S
C2151 C821 1.677 . S
C2164 C1879 1.665 . S
C2162 C900 1.681 . S
C2173 C1105 1.695 . S
C2175 C1645 1.677 . S
C2184 C1193 1.719 . S
C2186 C1670 1.697 . S
C2195 C1281 1.713 . S
C2197 C1681 1.682 . S
C2206 C1289 1.716 . S
C2208 C1706 1.695 . S
C2219 C1724 1.664 . S
C2217 C1113 1.690 . S
C2230 C1735 1.668 . S
C2228 C1201 1.698 . S
C2241 C1717 1.686 . S
C2239 C1369 1.709 . S
C2252 C1742 1.665 . S
C2250 C1457 1.684 . S
C2261 C1553 1.671 . S
C2263 C1699 1.653 . S
C2274 C1688 1.679 . S
C2272 C1516 1.687 . S
C2283 C1349 1.703 . S
C2285 C1652 1.687 . S
C2296 C1663 1.690 . S
C2294 C1437 1.703 . S
C2307 C1600 1.394 . S
C2305 C29 1.427 . S
C2316 C117 1.379 . S
C2318 C1618 1.327 . S
C2329 C1628 1.393 . S
C2327 C225 1.443 . S
C2340 C1646 1.388 . S
C2338 C233 1.426 . S
C2351 C1672 1.404 . S
C2349 C20 1.437 . S
C2362 C1682 1.318 . S
C2360 C108 1.382 . S
C2371 C321 1.495 . S
C2373 C1690 1.411 . S
C2382 C409 1.441 . S
C2384 C1654 1.340 . S
C2393 C497 1.508 . S
C2395 C1664 1.446 . S
C2404 C460 1.493 . S
C2406 C1610 1.434 . S
C2417 C1636 1.421 . S
C2415 C284 1.501 . S
C2426 C372 1.446 . S
C2428 C1592 1.357 . S
C2439 C1708 1.333 . S
C2437 C557 1.388 . S
C2448 C665 1.430 . S
C2450 C1726 1.369 . S
C2459 C753 1.435 . S
C2461 C1736 1.358 . S
C2472 C1754 1.231 . S
C2470 C761 1.284 . S
C2481 C548 1.382 . S
C2483 C1780 1.321 . S
C2492 C673 1.292 . S
C2494 C1790 1.237 . S
C2503 C849 1.310 . S
C2505 C1798 1.247 . S
C2514 C929 1.315 . S
C2516 C1762 1.232 . S
C2527 C1772 1.364 . S
C2525 C1017 1.440 . S
C2536 C997 1.451 . S
C2538 C1718 1.361 . S
C2547 C812 1.490 . S
C2549 C1744 1.384 . S
C2560 C1700 1.395 . S
C2558 C909 1.484 . S
C2571 C1816 1.224 . S
C2569 C1085 1.285 . S
C2580 C1173 1.289 . S
C2582 C1834 1.224 . S
C2591 C1261 1.382 . S
C2593 C1844 1.311 . S
C2604 C1862 1.319 . S
C2602 C1252 1.383 . S
C2615 C1888 1.366 . S
C2613 C1076 1.432 . S
C2624 C1164 1.431 . S
C2626 C1898 1.359 . S
C2635 C1377 1.451 . S
C2637 C1906 1.343 . S
C2646 C1465 1.486 . S
C2648 C1870 1.381 . S
C2659 C1880 1.405 . S
C2657 C1545 1.489 . S
C2670 C1826 1.230 1_655 S
C2668 C1525 1.305 . S
C2681 C1852 1.343 . S
C2679 C1340 1.441 . S
C2690 C1428 1.315 . S
C2692 C1808 1.260 1_545 S
