# Generated by pormake.
# Topology anh, (6,3)-cn, num edge types: 1
# Building blocks:
#     Node 0, Type 0, BuildingBlock: BETFAJ_clean_sbu_0, # of connection points: 6
#     Node 1, Type 0, BuildingBlock: BETFAJ_clean_sbu_0, # of connection points: 6
#     Node 2, Type 0, BuildingBlock: BETFAJ_clean_sbu_0, # of connection points: 6
#     Node 3, Type 1, BuildingBlock: PAMTOO_clean_linker_0, # of connection points: 3
#     Node 4, Type 1, BuildingBlock: PAMTOO_clean_linker_0, # of connection points: 3
#     Node 5, Type 1, BuildingBlock: PAMTOO_clean_linker_0, # of connection points: 3
#     Node 6, Type 1, BuildingBlock: PAMTOO_clean_linker_0, # of connection points: 3
#     Node 7, Type 1, BuildingBlock: PAMTOO_clean_linker_0, # of connection points: 3
#     Node 8, Type 1, BuildingBlock: PAMTOO_clean_linker_0, # of connection points: 3
#     Edge 9, Type (0, 1), BuildingBlock: OJICUG_clean_linker_0, # of connection points: 2
#     Edge 10, Type (0, 1), BuildingBlock: OJICUG_clean_linker_0, # of connection points: 2
#     Edge 11, Type (0, 1), BuildingBlock: OJICUG_clean_linker_0, # of connection points: 2
#     Edge 12, Type (0, 1), BuildingBlock: OJICUG_clean_linker_0, # of connection points: 2
#     Edge 13, Type (0, 1), BuildingBlock: OJICUG_clean_linker_0, # of connection points: 2
#     Edge 14, Type (0, 1), BuildingBlock: OJICUG_clean_linker_0, # of connection points: 2
#     Edge 15, Type (0, 1), BuildingBlock: OJICUG_clean_linker_0, # of connection points: 2
#     Edge 16, Type (0, 1), BuildingBlock: OJICUG_clean_linker_0, # of connection points: 2
#     Edge 17, Type (0, 1), BuildingBlock: OJICUG_clean_linker_0, # of connection points: 2
#     Edge 18, Type (0, 1), BuildingBlock: OJICUG_clean_linker_0, # of connection points: 2
#     Edge 19, Type (0, 1), BuildingBlock: OJICUG_clean_linker_0, # of connection points: 2
#     Edge 20, Type (0, 1), BuildingBlock: OJICUG_clean_linker_0, # of connection points: 2
#     Edge 21, Type (0, 1), BuildingBlock: OJICUG_clean_linker_0, # of connection points: 2
#     Edge 22, Type (0, 1), BuildingBlock: OJICUG_clean_linker_0, # of connection points: 2
#     Edge 23, Type (0, 1), BuildingBlock: OJICUG_clean_linker_0, # of connection points: 2
#     Edge 24, Type (0, 1), BuildingBlock: OJICUG_clean_linker_0, # of connection points: 2
#     Edge 25, Type (0, 1), BuildingBlock: OJICUG_clean_linker_0, # of connection points: 2
#     Edge 26, Type (0, 1), BuildingBlock: OJICUG_clean_linker_0, # of connection points: 2
# Relax obj value: 0.228
# Max RMSD: 0.213
# Mean RMSD: 0.133
data_MOF--net-anh--node1-BETFAJ_clean_sbu_0--node2-PAMTOO_clean_linker_0--edge1-OJICUG_clean_linker_0
_symmetry_space_group_name_H-M    P1
_symmetry_Int_Tables_number       1
_symmetry_cell_setting            triclinic
loop_
_symmetry_equiv_pos_as_xyz
'x, y, z'
_cell_length_a     22.071699
_cell_length_b     29.920677
_cell_length_c     35.981397
_cell_angle_alpha  89.911785
_cell_angle_beta   90.813419
_cell_angle_gamma 134.84922
loop_
_atom_site_label
_atom_site_type_symbol
_atom_site_fract_x
_atom_site_fract_y
_atom_site_fract_z
_atom_type_partial_charge
Sm0 Sm 0.35871 0.60967 0.14418 0.0
Sm1 Sm 0.24635 0.62472 0.17584 0.0
C2 C 0.4464 0.59611 0.10633 0.0
C3 C 0.435 0.54162 0.10389 0.0
C4 C 0.47301 0.53683 0.07552 0.0
C5 C 0.45457 0.4817 0.07135 0.0
C6 C 0.3977 0.4307 0.09549 0.0
C7 C 0.36075 0.4363 0.12415 0.0
C8 C 0.37904 0.49116 0.12823 0.0
C9 C 0.34017 0.59681 0.22011 0.0
C10 C 0.44415 0.75383 0.15682 0.0
C11 C 1.15687 0.63703 0.21321 0.0
C12 C 1.06364 0.59273 0.2143 0.0
C13 C 1.02422 0.61191 0.22541 0.0
C14 C 0.93562 0.571 0.2207 0.0
C15 C 0.88582 0.51073 0.20447 0.0
C16 C 0.92585 0.49095 0.19557 0.0
C17 C 1.01356 0.53148 0.2004 0.0
C18 C 0.21807 0.59222 0.10114 0.0
C19 C 0.16495 0.48365 0.16602 0.0
O20 O 0.47231 0.62491 0.13874 0.0
O21 O 0.38319 0.58637 0.09174 0.0
O22 O 0.35121 0.63742 0.20114 0.0
O23 O 0.34166 0.56231 0.19928 0.0
O24 O 0.45394 0.71839 0.14273 0.0
O25 O 0.37228 0.72908 0.17239 0.0
O26 O 0.18751 0.61628 0.22824 0.0
O27 O 0.19014 0.66333 0.18088 0.0
O28 O 0.28983 0.63157 0.11739 0.0
O29 O 1.15809 0.57209 0.12369 0.0
O30 O 0.16809 0.52087 0.18757 0.0
O31 O 0.22493 0.50733 0.14142 0.0
H32 H 0.5156 0.57513 0.05627 0.0
H33 H 0.48462 0.47891 0.04923 0.0
H34 H 0.31577 0.39758 0.14282 0.0
H35 H 0.34782 0.49361 0.14987 0.0
H36 H 1.06216 0.65915 0.23623 0.0
H37 H 0.90682 0.58756 0.22821 0.0
H38 H 0.89088 0.44579 0.18223 0.0
H39 H 1.04292 0.51599 0.1913 0.0
Sm40 Sm 0.84569 0.09134 0.47732 0.0
Sm41 Sm 0.72236 0.11288 0.46746 0.0
C42 C 0.91939 0.05397 0.4982 0.0
C43 C 0.89414 0.99512 0.50945 0.0
C44 C 0.87522 0.97514 0.54657 0.0
C45 C 0.85402 0.92043 0.55686 0.0
C46 C 0.85125 0.88457 0.53026 0.0
C47 C 0.86975 0.90443 0.49317 0.0
C48 C 0.89137 0.95919 0.48293 0.0
C49 C 0.82635 0.11367 0.40637 0.0
C50 C 0.63472 0.96801 0.47027 0.0
C51 C 0.64298 0.14333 0.4417 0.0
C52 C 0.64312 0.19114 0.45203 0.0
C53 C 0.65206 0.22842 0.42436 0.0
C54 C 0.65854 0.27702 0.43383 0.0
C55 C 0.6559 0.28924 0.47125 0.0
C56 C 0.64576 0.2511 0.49887 0.0
C57 C 0.6399 0.20283 0.48939 0.0
C58 C 0.75774 0.11385 0.54207 0.0
C59 C 0.93386 0.23549 0.4733 0.0
O60 O 0.90515 0.07951 0.52135 0.0
O61 O 0.90417 0.05686 0.46342 0.0
O62 O 0.76694 0.08038 0.42971 0.0
O63 O 0.89607 0.13167 0.41933 0.0
O64 O 0.70998 0.99058 0.48072 0.0
O65 O 0.62451 1.00497 0.45998 0.0
O66 O 0.71441 0.16554 0.42786 0.0
O67 O 0.60783 0.09698 0.465 0.0
O68 O 0.78384 0.10757 0.51397 0.0
O69 O 0.71025 0.1223 0.53107 0.0
O70 O 0.85843 0.2126 0.46297 0.0
O71 O 0.94488 0.19931 0.48447 0.0
H72 H 0.87721 1.00187 0.56774 0.0
H73 H 0.8395 0.90605 0.58563 0.0
H74 H 0.86951 0.87842 0.47215 0.0
H75 H 0.90674 0.9737 0.45419 0.0
H76 H 0.65566 0.22069 0.3954 0.0
H77 H 0.66753 0.30588 0.41183 0.0
H78 H 0.64205 0.25834 0.52789 0.0
H79 H 0.6338 0.17515 0.51138 0.0
Sm80 Sm 0.74671 0.60422 0.84617 0.0
Sm81 Sm 0.61998 0.46023 0.83877 0.0
C82 C 0.83185 0.72477 0.83805 0.0
C83 C 0.816 0.7631 0.82445 0.0
C84 C 0.82872 0.78137 0.78703 0.0
C85 C 0.81673 0.81929 0.7747 0.0
C86 C 0.79209 0.84041 0.79944 0.0
C87 C 0.7794 0.82206 0.83686 0.0
C88 C 0.79138 0.78417 0.84918 0.0
C89 C 0.70256 0.5404 0.91136 0.0
C90 C 0.53743 0.52014 0.84262 0.0
C91 C 0.51738 0.33689 0.84284 0.0
C92 C 0.53078 0.29559 0.8349 0.0
C93 C 0.60652 0.31323 0.84645 0.0
C94 C 0.61968 0.27477 0.83853 0.0
C95 C 0.55772 0.21771 0.81861 0.0
C96 C 0.48215 0.20036 0.80684 0.0
C97 C 0.46886 0.23881 0.81495 0.0
C98 C 0.70524 0.52523 0.77455 0.0
C99 C 0.82538 0.5429 0.85068 0.0
O100 O 0.83244 0.69279 0.81345 0.0
O101 O 0.79568 0.69399 0.86904 0.0
O102 O 0.65309 0.52434 0.88476 0.0
O103 O 0.78031 0.59378 0.90494 0.0
O104 O 0.61746 0.57655 0.84443 0.0
O105 O 0.52106 0.46795 0.84008 0.0
O106 O 0.55957 0.37507 0.87164 0.0
O107 O 0.51662 0.36368 0.81418 0.0
O108 O 0.67523 0.53766 0.79692 0.0
O109 O 0.68785 0.47597 0.78522 0.0
O110 O 0.74566 0.4897 0.85808 0.0
O111 O 0.84224 0.59343 0.83999 0.0
H112 H 0.84877 0.76685 0.76723 0.0
H113 H 0.82847 0.83305 0.74582 0.0
H114 H 0.75941 0.83652 0.85672 0.0
H115 H 0.78163 0.77161 0.87825 0.0
H116 H 0.65598 0.35702 0.86154 0.0
H117 H 0.67912 0.29029 0.8476 0.0
H118 H 0.43258 0.15651 0.79179 0.0
H119 H 0.41009 0.22415 0.80561 0.0
H120 H 0.91349 0.2385 0.25638 0.0
H121 H 0.74995 0.04165 0.23056 0.0
H122 H 0.88492 0.17758 0.14335 0.0
H123 H 0.72218 0.03545 0.10902 0.0
C124 C 0.70603 1.02632 0.13896 0.0
O125 O 0.78014 0.05749 0.15956 0.0
H126 H 0.67779 0.04492 0.14531 0.0
C127 C 0.88354 0.20104 0.23599 0.0
C128 C 0.90502 0.21624 0.19829 0.0
C129 C 0.82821 0.13843 0.24806 0.0
C130 C 0.79252 0.09022 0.22182 0.0
C131 C 0.8127 0.10437 0.18421 0.0
C132 C 0.86933 0.16724 0.1725 0.0
H133 H 0.77044 0.67337 0.62945 0.0
H134 H 0.7528 0.5248 0.59936 0.0
H135 H 0.78692 0.64132 0.51517 0.0
H136 H 0.6682 0.50574 0.48827 0.0
C137 C 0.68055 0.48999 0.51262 0.0
O138 O 0.75882 0.54205 0.52841 0.0
H139 H 0.62816 0.46777 0.53274 0.0
C140 C 0.7725 0.64807 0.60894 0.0
C141 C 0.78348 0.66535 0.57142 0.0
C142 C 0.76155 0.59755 0.6199 0.0
C143 C 0.75975 0.56336 0.59221 0.0
C144 C 0.76629 0.57809 0.55465 0.0
C145 C 0.7794 0.62944 0.54431 0.0
H146 H 1.0694 0.55845 0.93953 0.0
H147 H 0.27142 0.56618 0.93122 0.0
H148 H 1.13607 0.54 0.83268 0.0
H149 H 0.19765 0.46391 0.83523 0.0
C150 C 0.2449 0.49447 0.85812 0.0
O151 O 0.25966 0.54831 0.86027 0.0
H152 H 0.21523 0.4673 0.88427 0.0
C153 C 1.10927 0.55774 0.9229 0.0
C154 C 1.09593 0.55059 0.88413 0.0
C155 C 0.17179 0.56317 0.94049 0.0
C156 C 0.22161 0.56056 0.91847 0.0
C157 C 0.20871 0.55079 0.87987 0.0
C158 C 1.1458 0.5464 0.86252 0.0
H159 H 0.18847 0.46296 0.37671 0.0
H160 H 0.37855 0.66508 0.39173 0.0
H161 H 0.24139 0.54468 0.48545 0.0
H162 H 0.31105 0.68262 0.49802 0.0
C163 C 0.33907 0.695 0.46995 0.0
O164 O 0.36119 0.66251 0.4631 0.0
H165 H 0.2897 0.681 0.4494 0.0
C166 C 0.22483 0.50434 0.39453 0.0
C167 C 0.20869 0.49646 0.43285 0.0
C168 C 0.28477 0.56497 0.379 0.0
C169 C 0.3302 0.61787 0.4027 0.0
C170 C 0.31456 0.61068 0.44084 0.0
C171 C 0.25319 0.55 0.45588 0.0
H172 H 0.78521 1.00724 0.69228 0.0
H173 H 0.70506 0.1013 0.71304 0.0
H174 H 0.70715 1.00726 0.80142 0.0
H175 H 0.57514 1.01737 0.81341 0.0
C176 C 0.59952 0.04835 0.78888 0.0
O177 O 0.68342 0.07941 0.78321 0.0
H178 H 0.55814 1.01733 0.76462 0.0
C179 C 0.76091 1.02001 0.71065 0.0
C180 C 0.74573 1.00082 0.74811 0.0
C181 C 0.74714 0.0567 0.69711 0.0
C182 C 0.71883 0.07473 0.72221 0.0
C183 C 0.70597 0.05796 0.75961 0.0
C184 C 0.71894 1.02086 0.77251 0.0
H185 H 0.69065 0.46071 0.07458 0.0
H186 H 0.47407 0.29603 0.0134 0.0
H187 H 0.50024 0.28324 0.13006 0.0
H188 H 0.29286 0.17242 0.10063 0.0
C189 C 0.32421 0.20368 0.0761 0.0
O190 O 0.40195 0.22266 0.07095 0.0
H191 H 0.28191 0.17494 0.05161 0.0
C192 C 0.63158 0.41114 0.07385 0.0
C193 C 0.60218 0.37564 0.10656 0.0
C194 C 0.58624 0.3834 0.04005 0.0
C195 C 0.51044 0.31881 0.0391 0.0
C196 C 0.47925 0.2833 0.07161 0.0
C197 C 0.52535 0.31139 0.10515 0.0
C198 C 0.37038 0.34019 0.12159 0.0
C199 C 0.37547 0.3713 0.09058 0.0
H200 H 0.34932 0.26249 0.14119 0.0
C201 C 0.35824 0.3449 0.05497 0.0
H202 H 0.3844 0.35981 0.14933 0.0
C203 C 0.33727 0.28892 0.05046 0.0
C204 C 0.33345 0.25847 0.08144 0.0
H205 H 0.36091 0.36748 0.03058 0.0
H206 H 0.32648 0.27029 0.02269 0.0
C207 C 0.34987 0.28442 0.11704 0.0
C208 C 1.00074 0.34637 0.47237 0.0
C209 C 1.00916 0.30414 0.46861 0.0
H210 H 1.0585 0.44089 0.46484 0.0
C211 C 1.08681 0.32715 0.45595 0.0
H212 H 0.94152 0.32994 0.48193 0.0
C213 C 1.15279 0.39027 0.44531 0.0
C214 C 1.14324 0.43188 0.44812 0.0
H215 H 1.09478 0.29562 0.4523 0.0
H216 H 0.21059 0.40629 0.43403 0.0
C217 C 1.06753 0.40979 0.46266 0.0
C218 C 0.74388 0.87206 0.75109 0.0
C219 C 0.78013 0.88155 0.78637 0.0
H220 H 0.7034 0.90088 0.71177 0.0
C221 C 0.80482 0.93075 0.809 0.0
H222 H 0.72263 0.83414 0.73304 0.0
C223 C 0.79363 0.96918 0.79676 0.0
C224 C 0.75757 0.95974 0.76145 0.0
H225 H 0.83426 0.94041 0.83607 0.0
H226 H 0.81472 1.00707 0.81479 0.0
C227 C 0.73279 0.9105 0.73885 0.0
C228 C 0.77676 0.50302 0.17309 0.0
C229 C 0.79711 0.47279 0.19051 0.0
H230 H 0.69573 0.49493 0.13394 0.0
C231 C 0.73856 0.40674 0.18727 0.0
H232 H 0.81938 0.55361 0.17514 0.0
C233 C 0.66942 0.37345 0.16227 0.0
C234 C 0.65642 0.40546 0.14086 0.0
H235 H 0.75046 0.38153 0.20145 0.0
H236 H 0.63133 0.32394 0.15738 0.0
C237 C 0.70644 0.46945 0.14883 0.0
C238 C 0.48054 0.87099 0.45422 0.0
C239 C 0.55949 0.89836 0.46973 0.0
H240 H 0.34996 0.78576 0.4419 0.0
C241 C 0.5659 0.85836 0.48492 0.0
H242 H 0.47299 0.90016 0.44239 0.0
C243 C 0.49525 0.79285 0.48468 0.0
C244 C 0.41684 0.76555 0.46865 0.0
H245 H 0.62533 0.8776 0.49741 0.0
H246 H 0.50188 0.76349 0.49718 0.0
C247 C 0.41008 0.8054 0.45376 0.0
C248 C 0.60906 0.16722 0.83726 0.0
C249 C 0.57168 0.17643 0.8104 0.0
H250 H 0.64709 0.11994 0.85144 0.0
C251 C 0.54719 0.14541 0.77576 0.0
H252 H 0.62823 0.18986 0.86433 0.0
C253 C 0.55826 0.1055 0.76846 0.0
C254 C 0.59335 0.09506 0.79571 0.0
H255 H 0.51968 0.15215 0.75415 0.0
H256 H 0.53808 0.08194 0.74164 0.0
C257 C 0.61972 0.12705 0.82999 0.0
C258 C 0.86929 0.82869 0.57346 0.0
C259 C 0.83176 0.82771 0.54122 0.0
H260 H 0.88518 0.77903 0.60773 0.0
C261 C 0.77757 0.77272 0.519 0.0
H262 H 0.91245 0.87069 0.59082 0.0
C263 C 0.76154 0.71994 0.52876 0.0
C264 C 0.79958 0.72107 0.56091 0.0
H265 H 0.74694 0.77032 0.49419 0.0
H266 H 0.71858 0.67804 0.51134 0.0
C267 C 0.85362 0.77611 0.58313 0.0
C268 C 0.8763 0.49084 0.86813 0.0
C269 C 0.89591 0.54463 0.85555 0.0
H270 H 0.92226 0.45016 0.88598 0.0
C271 C 0.98294 0.59894 0.84864 0.0
H272 H 0.81094 0.44789 0.87402 0.0
C273 C 1.04745 0.59974 0.85516 0.0
C274 C 1.02739 0.54617 0.86852 0.0
H275 H 1.00168 0.64151 0.83905 0.0
H276 H 1.11366 0.64326 0.85122 0.0
C277 C 0.94048 0.49175 0.87466 0.0
C278 C 0.58666 0.85293 0.13252 0.0
C279 C 0.51467 0.82371 0.15437 0.0
H280 H 0.70343 0.93987 0.11063 0.0
C281 C 0.50893 0.862 0.17294 0.0
H282 H 0.59347 0.82506 0.11797 0.0
C283 C 0.57199 0.9275 0.16883 0.0
C284 C 0.64179 0.95625 0.14575 0.0
H285 H 0.45502 0.84139 0.19034 0.0
H286 H 0.56514 0.95561 0.18302 0.0
C287 C 0.64959 0.91857 0.12828 0.0
C288 C 0.70963 0.37836 0.51381 0.0
C289 C 0.66425 0.34174 0.48143 0.0
H290 H 0.75013 0.45344 0.54909 0.0
C291 C 0.62634 0.35541 0.45902 0.0
H292 H 0.74044 0.36974 0.53158 0.0
C293 C 0.63354 0.40427 0.46873 0.0
C294 C 0.67919 0.44088 0.50093 0.0
H295 H 0.58942 0.32751 0.43433 0.0
H296 H 0.60238 0.41293 0.45127 0.0
C297 C 0.71626 0.42693 0.52364 0.0
C298 C 0.47844 0.56865 0.85398 0.0
C299 C 0.46428 0.51568 0.84491 0.0
H300 H 0.42358 0.60499 0.86554 0.0
C301 C 0.37868 0.4579 0.8391 0.0
H302 H 0.54294 0.61414 0.859 0.0
C303 C 0.3105 0.45308 0.84235 0.0
C304 C 0.32414 0.50555 0.85163 0.0
H305 H 0.3639 0.41581 0.83224 0.0
H306 H 0.24585 0.40727 0.83814 0.0
C307 C 0.40967 0.56359 0.85764 0.0
C308 C 1.02699 0.38932 0.19484 0.0
C309 C 1.0949 0.41437 0.17125 0.0
H310 H 0.91329 0.30752 0.22103 0.0
C311 C 1.0966 0.37287 0.15438 0.0
H312 H 1.0229 0.41961 0.20804 0.0
C313 C 1.03343 0.30815 0.16206 0.0
C314 C 0.96731 0.2836 0.18678 0.0
H315 H 1.14803 0.39056 0.13611 0.0
H316 H 1.03826 0.27778 0.14975 0.0
C317 C 0.96408 0.3249 0.20242 0.0
C318 C 0.21938 0.55178 0.04081 0.0
C319 C 0.20667 0.585 0.06038 0.0
H320 H 0.21571 0.51687 0.98813 0.0
C321 C 0.18279 0.61122 0.04074 0.0
H322 H 0.23651 0.53032 0.05554 0.0
C323 C 0.17278 0.60502 0.00197 0.0
C324 C 0.18456 0.57116 0.98196 0.0
H325 H 0.17309 0.63734 0.05536 0.0
H326 H 1.15669 0.6275 0.98773 0.0
C327 C 0.2078 0.54446 0.0021 0.0
C328 C 0.79702 0.14615 0.35061 0.0
C329 C 0.81207 0.11168 0.36616 0.0
H330 H 0.79 0.1816 0.30056 0.0
C331 C 0.82499 0.08173 0.3427 0.0
H332 H 0.7885 0.17053 0.36829 0.0
C333 C 0.82547 0.08764 0.30418 0.0
C334 C 0.81465 0.12468 0.28844 0.0
H335 H 0.83761 0.05544 0.35427 0.0
H336 H 0.83889 0.06599 0.28686 0.0
C337 C 0.79871 0.15289 0.31198 0.0
C338 C 0.68765 0.49961 0.70723 0.0
C339 C 0.72268 0.54478 0.73548 0.0
H340 H 0.66805 0.47959 0.64914 0.0
C341 C 0.77192 0.60759 0.72593 0.0
H342 H 0.64841 0.45056 0.71394 0.0
C343 C 0.78672 0.62515 0.68858 0.0
C344 C 0.74977 0.5797 0.65992 0.0
H345 H 0.79999 0.64324 0.7473 0.0
H346 H 0.82748 0.67451 0.68238 0.0
C347 C 0.69977 0.51658 0.66994 0.0
C348 C 0.78138 0.14308 0.60901 0.0
C349 C 0.76749 0.10416 0.581 0.0
H350 H 0.79293 0.1621 0.667 0.0
C351 C 0.75381 0.05229 0.59087 0.0
H352 H 0.79268 0.18365 0.60194 0.0
C353 C 0.7488 0.03736 0.62841 0.0
C354 C 0.76014 0.07525 0.65693 0.0
H355 H 0.74197 1.02118 0.56959 0.0
H356 H 0.73246 0.99459 0.63476 0.0
C357 C 0.77992 0.12979 0.64643 0.0
C358 C 0.73327 0.51056 0.96826 0.0
C359 C 0.67433 0.501 0.9443 0.0
H360 H 0.75159 0.47926 0.01661 0.0
C361 C 0.5866 0.45188 0.95133 0.0
H362 H 0.80117 0.54765 0.96308 0.0
C363 C 0.55812 0.41343 0.98214 0.0
C364 C 0.61675 0.4227 0.00634 0.0
H365 H 0.53978 0.4436 0.93321 0.0
H366 H 0.49019 0.37728 0.98736 0.0
C367 C 0.70472 0.47144 -0.00112 0.0
C368 C 0.31336 0.54145 0.27917 0.0
C369 C 0.32661 0.58903 0.26064 0.0
H370 H 0.29125 0.49712 0.33102 0.0
C371 C 0.32617 0.62867 0.28112 0.0
H372 H 0.31347 0.51022 0.26405 0.0
C373 C 0.3124 0.62074 0.31941 0.0
C374 C 0.2993 0.57321 0.33816 0.0
H375 H 0.33617 0.66573 0.26754 0.0
H376 H 0.31096 0.65144 0.33424 0.0
C377 C 0.29999 0.53367 0.31751 0.0
loop_
_geom_bond_atom_site_label_1
_geom_bond_atom_site_label_2
_geom_bond_distance
_geom_bond_site_symmetry_2
_ccdc_geom_bond_type
Sm0 C2 2.846 . S
Sm0 O20 2.543 . S
Sm0 O21 2.450 . S
Sm0 O22 2.681 1_455 S
Sm0 O23 2.464 . S
Sm0 O24 2.396 . S
Sm0 O28 2.386 . S
Sm0 O31 2.408 1_455 S
Sm1 C11 2.846 . S
Sm1 O22 2.386 . S
Sm1 O25 2.408 1_655 S
Sm1 O26 2.543 . S
Sm1 O27 2.450 . S
Sm1 O28 2.681 1_655 S
Sm1 O29 2.464 . S
Sm1 O30 2.396 . S
C2 Sm0 2.846 . S
C2 C3 1.506 . S
C2 O20 1.261 . S
C2 O21 1.242 . S
C3 C2 1.506 . S
C3 C4 1.358 . S
C3 C8 1.382 . S
C4 C3 1.358 . S
C4 C5 1.385 . S
C4 H32 0.930 . S
C5 C4 1.385 . S
C5 C6 1.395 . S
C5 H33 0.929 . S
C6 C5 1.395 . S
C6 C7 1.335 . S
C7 C6 1.335 . S
C7 C8 1.398 . S
C7 H34 0.930 . S
C8 C3 1.382 . S
C8 C7 1.398 . S
C8 H35 0.929 . S
C9 O22 1.271 1_455 S
C9 O23 1.251 . S
C10 O24 1.252 . S
C10 O25 1.272 . S
C11 Sm1 2.846 . S
C11 C12 1.506 . S
C11 O26 1.261 . S
C11 O27 1.242 . S
C12 C11 1.506 . S
C12 C13 1.358 . S
C12 C17 1.382 . S
C13 C12 1.358 . S
C13 C14 1.385 . S
C13 H36 0.930 . S
C14 C13 1.385 . S
C14 C15 1.395 . S
C14 H37 0.929 . S
C15 C14 1.395 . S
C15 C16 1.335 . S
C16 C15 1.335 . S
C16 C17 1.398 . S
C16 H38 0.930 . S
C17 C12 1.382 . S
C17 C16 1.398 . S
C17 H39 0.929 . S
C18 O28 1.271 . S
C18 O29 1.251 1_455 S
C19 O30 1.252 . S
C19 O31 1.272 . S
O20 Sm0 2.543 . S
O20 C2 1.261 . S
O21 Sm0 2.450 . S
O21 C2 1.242 . S
O22 Sm0 2.681 1_655 S
O22 Sm1 2.386 . S
O22 C9 1.271 1_655 S
O23 Sm0 2.464 . S
O23 C9 1.251 . S
O24 Sm0 2.396 . S
O24 C10 1.252 . S
O25 Sm1 2.408 1_455 S
O25 C10 1.272 . S
O26 Sm1 2.543 . S
O26 C11 1.261 . S
O27 Sm1 2.450 . S
O27 C11 1.242 . S
O28 Sm0 2.386 . S
O28 Sm1 2.681 1_455 S
O28 C18 1.271 . S
O29 Sm1 2.464 . S
O29 C18 1.251 1_655 S
O30 Sm1 2.396 . S
O30 C19 1.252 . S
O31 Sm0 2.408 1_655 S
O31 C19 1.272 . S
H32 C4 0.930 . S
H33 C5 0.929 . S
H34 C7 0.930 . S
H35 C8 0.929 . S
H36 C13 0.930 . S
H37 C14 0.929 . S
H38 C16 0.930 . S
H39 C17 0.929 . S
Sm40 C42 2.846 1_545 S
Sm40 O60 2.543 1_545 S
Sm40 O61 2.450 1_545 S
Sm40 O62 2.681 . S
Sm40 O63 2.464 . S
Sm40 O64 2.396 1_545 S
Sm40 O68 2.386 . S
Sm40 O71 2.408 . S
Sm41 C51 2.846 . S
Sm41 O62 2.386 . S
Sm41 O65 2.408 1_545 S
Sm41 O66 2.543 . S
Sm41 O67 2.450 . S
Sm41 O68 2.681 . S
Sm41 O69 2.464 . S
Sm41 O70 2.396 . S
C42 Sm40 2.846 1_565 S
C42 C43 1.506 . S
C42 O60 1.261 . S
C42 O61 1.242 . S
C43 C42 1.506 . S
C43 C44 1.358 . S
C43 C48 1.382 . S
C44 C43 1.358 . S
C44 C45 1.385 . S
C44 H72 0.930 . S
C45 C44 1.385 . S
C45 C46 1.395 . S
C45 H73 0.929 . S
C46 C45 1.395 . S
C46 C47 1.335 . S
C47 C46 1.335 . S
C47 C48 1.398 . S
C47 H74 0.930 . S
C48 C43 1.382 . S
C48 C47 1.398 . S
C48 H75 0.929 . S
C49 O62 1.271 . S
C49 O63 1.251 . S
C50 O64 1.252 . S
C50 O65 1.272 . S
C51 Sm41 2.846 . S
C51 C52 1.506 . S
C51 O66 1.261 . S
C51 O67 1.242 . S
C52 C51 1.506 . S
C52 C53 1.358 . S
C52 C57 1.382 . S
C53 C52 1.358 . S
C53 C54 1.385 . S
C53 H76 0.930 . S
C54 C53 1.385 . S
C54 C55 1.395 . S
C54 H77 0.929 . S
C55 C54 1.395 . S
C55 C56 1.335 . S
C56 C55 1.335 . S
C56 C57 1.398 . S
C56 H78 0.930 . S
C57 C52 1.382 . S
C57 C56 1.398 . S
C57 H79 0.929 . S
C58 O68 1.271 . S
C58 O69 1.251 . S
C59 O70 1.252 . S
C59 O71 1.272 . S
O60 Sm40 2.543 1_565 S
O60 C42 1.261 . S
O61 Sm40 2.450 1_565 S
O61 C42 1.242 . S
O62 Sm40 2.681 . S
O62 Sm41 2.386 . S
O62 C49 1.271 . S
O63 Sm40 2.464 . S
O63 C49 1.251 . S
O64 Sm40 2.396 1_565 S
O64 C50 1.252 . S
O65 Sm41 2.408 1_565 S
O65 C50 1.272 . S
O66 Sm41 2.543 . S
O66 C51 1.261 . S
O67 Sm41 2.450 . S
O67 C51 1.242 . S
O68 Sm40 2.386 . S
O68 Sm41 2.681 . S
O68 C58 1.271 . S
O69 Sm41 2.464 . S
O69 C58 1.251 . S
O70 Sm41 2.396 . S
O70 C59 1.252 . S
O71 Sm40 2.408 . S
O71 C59 1.272 . S
H72 C44 0.930 . S
H73 C45 0.929 . S
H74 C47 0.930 . S
H75 C48 0.929 . S
H76 C53 0.930 . S
H77 C54 0.929 . S
H78 C56 0.930 . S
H79 C57 0.929 . S
Sm80 C82 2.846 . S
Sm80 O100 2.543 . S
Sm80 O101 2.450 . S
Sm80 O102 2.681 . S
Sm80 O103 2.464 . S
Sm80 O104 2.396 . S
Sm80 O108 2.386 . S
Sm80 O111 2.408 . S
Sm81 C91 2.846 . S
Sm81 O102 2.386 . S
Sm81 O105 2.408 . S
Sm81 O106 2.543 . S
Sm81 O107 2.450 . S
Sm81 O108 2.681 . S
Sm81 O109 2.464 . S
Sm81 O110 2.396 . S
C82 Sm80 2.846 . S
C82 C83 1.506 . S
C82 O100 1.261 . S
C82 O101 1.242 . S
C83 C82 1.506 . S
C83 C84 1.358 . S
C83 C88 1.382 . S
C84 C83 1.358 . S
C84 C85 1.385 . S
C84 H112 0.930 . S
C85 C84 1.385 . S
C85 C86 1.395 . S
C85 H113 0.929 . S
C86 C85 1.395 . S
C86 C87 1.335 . S
C87 C86 1.335 . S
C87 C88 1.398 . S
C87 H114 0.930 . S
C88 C83 1.382 . S
C88 C87 1.398 . S
C88 H115 0.929 . S
C89 O102 1.271 . S
C89 O103 1.251 . S
C90 O104 1.252 . S
C90 O105 1.272 . S
C91 Sm81 2.846 . S
C91 C92 1.506 . S
C91 O106 1.261 . S
C91 O107 1.242 . S
C92 C91 1.506 . S
C92 C93 1.358 . S
C92 C97 1.382 . S
C93 C92 1.358 . S
C93 C94 1.385 . S
C93 H116 0.930 . S
C94 C93 1.385 . S
C94 C95 1.395 . S
C94 H117 0.929 . S
C95 C94 1.395 . S
C95 C96 1.335 . S
C96 C95 1.335 . S
C96 C97 1.398 . S
C96 H118 0.930 . S
C97 C92 1.382 . S
C97 C96 1.398 . S
C97 H119 0.929 . S
C98 O108 1.271 . S
C98 O109 1.251 . S
C99 O110 1.252 . S
C99 O111 1.272 . S
O100 Sm80 2.543 . S
O100 C82 1.261 . S
O101 Sm80 2.450 . S
O101 C82 1.242 . S
O102 Sm80 2.681 . S
O102 Sm81 2.386 . S
O102 C89 1.271 . S
O103 Sm80 2.464 . S
O103 C89 1.251 . S
O104 Sm80 2.396 . S
O104 C90 1.252 . S
O105 Sm81 2.408 . S
O105 C90 1.272 . S
O106 Sm81 2.543 . S
O106 C91 1.261 . S
O107 Sm81 2.450 . S
O107 C91 1.242 . S
O108 Sm80 2.386 . S
O108 Sm81 2.681 . S
O108 C98 1.271 . S
O109 Sm81 2.464 . S
O109 C98 1.251 . S
O110 Sm81 2.396 . S
O110 C99 1.252 . S
O111 Sm80 2.408 . S
O111 C99 1.272 . S
H112 C84 0.930 . S
H113 C85 0.929 . S
H114 C87 0.930 . S
H115 C88 0.929 . S
H116 C93 0.930 . S
H117 C94 0.929 . S
H118 C96 0.930 . S
H119 C97 0.929 . S
H120 C127 0.929 . S
H121 C130 0.930 . S
H122 C132 0.929 . S
H123 C124 0.969 . S
C124 H123 0.969 . S
C124 O125 1.550 . S
C124 H126 0.973 . S
O125 C124 1.550 . S
O125 C131 1.412 . S
H126 C124 0.973 . S
C127 H120 0.929 . S
C127 C128 1.400 . S
C127 C129 1.364 . S
C128 C127 1.400 . S
C128 C132 1.377 . S
C129 C127 1.364 . S
C129 C130 1.374 1_545 S
C130 H121 0.930 . S
C130 C129 1.374 1_565 S
C130 C131 1.383 . S
C131 O125 1.412 . S
C131 C130 1.383 . S
C131 C132 1.394 1_565 S
C132 H122 0.929 . S
C132 C128 1.377 . S
C132 C131 1.394 1_545 S
H133 C140 0.929 . S
H134 C143 0.930 . S
H135 C145 0.929 . S
H136 C137 0.969 . S
C137 H136 0.969 . S
C137 O138 1.550 . S
C137 H139 0.973 . S
O138 C137 1.550 . S
O138 C144 1.412 . S
H139 C137 0.973 . S
C140 H133 0.929 . S
C140 C141 1.400 . S
C140 C142 1.364 . S
C141 C140 1.400 . S
C141 C145 1.377 . S
C142 C140 1.364 . S
C142 C143 1.374 . S
C143 H134 0.930 . S
C143 C142 1.374 . S
C143 C144 1.383 . S
C144 O138 1.412 . S
C144 C143 1.383 . S
C144 C145 1.394 . S
C145 H135 0.929 . S
C145 C141 1.377 . S
C145 C144 1.394 . S
H146 C153 0.929 1_655 S
H147 C156 0.930 . S
H148 C158 0.929 . S
H149 C150 0.969 . S
C150 H149 0.969 . S
C150 O151 1.550 . S
C150 H152 0.973 . S
O151 C150 1.550 . S
O151 C157 1.412 . S
H152 C150 0.973 . S
C153 H146 0.929 1_455 S
C153 C154 1.400 . S
C153 C155 1.364 . S
C154 C153 1.400 . S
C154 C158 1.377 . S
C155 C153 1.364 . S
C155 C156 1.374 . S
C156 H147 0.930 . S
C156 C155 1.374 . S
C156 C157 1.383 . S
C157 O151 1.412 . S
C157 C156 1.383 . S
C157 C158 1.394 . S
C158 H148 0.929 . S
C158 C154 1.377 . S
C158 C157 1.394 . S
H159 C166 0.929 . S
H160 C169 0.930 . S
H161 C171 0.929 . S
H162 C163 0.969 . S
C163 H162 0.969 . S
C163 O164 1.550 . S
C163 H165 0.973 . S
O164 C163 1.550 . S
O164 C170 1.412 . S
H165 C163 0.973 . S
C166 H159 0.929 . S
C166 C167 1.400 . S
C166 C168 1.364 1_655 S
C167 C166 1.400 . S
C167 C171 1.377 1_655 S
C168 C166 1.364 1_455 S
C168 C169 1.374 . S
C169 H160 0.930 . S
C169 C168 1.374 . S
C169 C170 1.383 . S
C170 O164 1.412 . S
C170 C169 1.383 . S
C170 C171 1.394 . S
C171 H161 0.929 . S
C171 C167 1.377 1_455 S
C171 C170 1.394 . S
H172 C179 0.929 . S
H173 C182 0.930 . S
H174 C184 0.929 . S
H175 C176 0.969 . S
C176 H175 0.969 . S
C176 O177 1.550 . S
C176 H178 0.973 . S
O177 C176 1.550 . S
O177 C183 1.412 . S
H178 C176 0.973 . S
C179 H172 0.929 . S
C179 C180 1.400 . S
C179 C181 1.364 1_565 S
C180 C179 1.400 . S
C180 C184 1.377 . S
C181 C179 1.364 1_545 S
C181 C182 1.374 . S
C182 H173 0.930 . S
C182 C181 1.374 . S
C182 C183 1.383 . S
C183 O177 1.412 . S
C183 C182 1.383 . S
C183 C184 1.394 1_545 S
C184 H174 0.929 . S
C184 C180 1.377 . S
C184 C183 1.394 1_565 S
H185 C192 0.929 . S
H186 C195 0.930 . S
H187 C197 0.929 . S
H188 C189 0.969 . S
C189 H188 0.969 . S
C189 O190 1.550 . S
C189 H191 0.973 . S
O190 C189 1.550 . S
O190 C196 1.412 . S
H191 C189 0.973 . S
C192 H185 0.929 . S
C192 C193 1.400 . S
C192 C194 1.364 . S
C193 C192 1.400 . S
C193 C197 1.377 . S
C194 C192 1.364 . S
C194 C195 1.374 . S
C195 H186 0.930 . S
C195 C194 1.374 . S
C195 C196 1.383 . S
C196 O190 1.412 . S
C196 C195 1.383 . S
C196 C197 1.394 . S
C197 H187 0.929 . S
C197 C193 1.377 . S
C197 C196 1.394 . S
C198 C199 1.387 . S
C198 H202 0.950 . S
C198 C207 1.390 . S
C199 C198 1.387 . S
C199 C201 1.387 . S
H200 C207 0.950 . S
C201 C199 1.387 . S
C201 C203 1.390 . S
C201 H205 0.950 . S
H202 C198 0.950 . S
C203 C201 1.390 . S
C203 C204 1.387 . S
C203 H206 0.950 . S
C204 C203 1.387 . S
C204 C207 1.387 . S
H205 C201 0.950 . S
H206 C203 0.950 . S
C207 C198 1.390 . S
C207 H200 0.950 . S
C207 C204 1.387 . S
C208 C209 1.387 . S
C208 H212 0.950 . S
C208 C217 1.390 . S
C209 C208 1.387 . S
C209 C211 1.387 . S
H210 C217 0.950 . S
C211 C209 1.387 . S
C211 C213 1.390 . S
C211 H215 0.950 . S
H212 C208 0.950 . S
C213 C211 1.390 . S
C213 C214 1.387 . S
C213 H216 0.950 . S
C214 C213 1.387 . S
C214 C217 1.387 . S
H215 C211 0.950 . S
H216 C213 0.950 . S
C217 C208 1.390 . S
C217 H210 0.950 . S
C217 C214 1.387 . S
C218 C219 1.387 . S
C218 H222 0.950 . S
C218 C227 1.390 . S
C219 C218 1.387 . S
C219 C221 1.387 . S
H220 C227 0.950 . S
C221 C219 1.387 . S
C221 C223 1.390 . S
C221 H225 0.950 . S
H222 C218 0.950 . S
C223 C221 1.390 . S
C223 C224 1.387 . S
C223 H226 0.950 . S
C224 C223 1.387 . S
C224 C227 1.387 . S
H225 C221 0.950 . S
H226 C223 0.950 . S
C227 C218 1.390 . S
C227 H220 0.950 . S
C227 C224 1.387 . S
C228 C229 1.387 . S
C228 H232 0.950 . S
C228 C237 1.390 . S
C229 C228 1.387 . S
C229 C231 1.387 . S
H230 C237 0.950 . S
C231 C229 1.387 . S
C231 C233 1.390 . S
C231 H235 0.950 . S
H232 C228 0.950 . S
C233 C231 1.390 . S
C233 C234 1.387 . S
C233 H236 0.950 . S
C234 C233 1.387 . S
C234 C237 1.387 . S
H235 C231 0.950 . S
H236 C233 0.950 . S
C237 C228 1.390 . S
C237 H230 0.950 . S
C237 C234 1.387 . S
C238 C239 1.387 . S
C238 H242 0.950 . S
C238 C247 1.390 . S
C239 C238 1.387 . S
C239 C241 1.387 . S
H240 C247 0.950 . S
C241 C239 1.387 . S
C241 C243 1.390 . S
C241 H245 0.950 . S
H242 C238 0.950 . S
C243 C241 1.390 . S
C243 C244 1.387 . S
C243 H246 0.950 . S
C244 C243 1.387 . S
C244 C247 1.387 . S
H245 C241 0.950 . S
H246 C243 0.950 . S
C247 C238 1.390 . S
C247 H240 0.950 . S
C247 C244 1.387 . S
C248 C249 1.387 . S
C248 H252 0.950 . S
C248 C257 1.390 . S
C249 C248 1.387 . S
C249 C251 1.387 . S
H250 C257 0.950 . S
C251 C249 1.387 . S
C251 C253 1.390 . S
C251 H255 0.950 . S
H252 C248 0.950 . S
C253 C251 1.390 . S
C253 C254 1.387 . S
C253 H256 0.950 . S
C254 C253 1.387 . S
C254 C257 1.387 . S
H255 C251 0.950 . S
H256 C253 0.950 . S
C257 C248 1.390 . S
C257 H250 0.950 . S
C257 C254 1.387 . S
C258 C259 1.387 . S
C258 H262 0.950 . S
C258 C267 1.390 . S
C259 C258 1.387 . S
C259 C261 1.387 . S
H260 C267 0.950 . S
C261 C259 1.387 . S
C261 C263 1.390 . S
C261 H265 0.950 . S
H262 C258 0.950 . S
C263 C261 1.390 . S
C263 C264 1.387 . S
C263 H266 0.950 . S
C264 C263 1.387 . S
C264 C267 1.387 . S
H265 C261 0.950 . S
H266 C263 0.950 . S
C267 C258 1.390 . S
C267 H260 0.950 . S
C267 C264 1.387 . S
C268 C269 1.387 . S
C268 H272 0.950 . S
C268 C277 1.390 . S
C269 C268 1.387 . S
C269 C271 1.387 . S
H270 C277 0.950 . S
C271 C269 1.387 . S
C271 C273 1.390 . S
C271 H275 0.950 . S
H272 C268 0.950 . S
C273 C271 1.390 . S
C273 C274 1.387 . S
C273 H276 0.950 . S
C274 C273 1.387 . S
C274 C277 1.387 . S
H275 C271 0.950 . S
H276 C273 0.950 . S
C277 C268 1.390 . S
C277 H270 0.950 . S
C277 C274 1.387 . S
C278 C279 1.387 . S
C278 H282 0.950 . S
C278 C287 1.390 . S
C279 C278 1.387 . S
C279 C281 1.387 . S
H280 C287 0.950 . S
C281 C279 1.387 . S
C281 C283 1.390 . S
C281 H285 0.950 . S
H282 C278 0.950 . S
C283 C281 1.390 . S
C283 C284 1.387 . S
C283 H286 0.950 . S
C284 C283 1.387 . S
C284 C287 1.387 . S
H285 C281 0.950 . S
H286 C283 0.950 . S
C287 C278 1.390 . S
C287 H280 0.950 . S
C287 C284 1.387 . S
C288 C289 1.387 . S
C288 H292 0.950 . S
C288 C297 1.390 . S
C289 C288 1.387 . S
C289 C291 1.387 . S
H290 C297 0.950 . S
C291 C289 1.387 . S
C291 C293 1.390 . S
C291 H295 0.950 . S
H292 C288 0.950 . S
C293 C291 1.390 . S
C293 C294 1.387 . S
C293 H296 0.950 . S
C294 C293 1.387 . S
C294 C297 1.387 . S
H295 C291 0.950 . S
H296 C293 0.950 . S
C297 C288 1.390 . S
C297 H290 0.950 . S
C297 C294 1.387 . S
C298 C299 1.387 . S
C298 H302 0.950 . S
C298 C307 1.390 . S
C299 C298 1.387 . S
C299 C301 1.387 . S
H300 C307 0.950 . S
C301 C299 1.387 . S
C301 C303 1.390 . S
C301 H305 0.950 . S
H302 C298 0.950 . S
C303 C301 1.390 . S
C303 C304 1.387 . S
C303 H306 0.950 . S
C304 C303 1.387 . S
C304 C307 1.387 . S
H305 C301 0.950 . S
H306 C303 0.950 . S
C307 C298 1.390 . S
C307 H300 0.950 . S
C307 C304 1.387 . S
C308 C309 1.387 . S
C308 H312 0.950 . S
C308 C317 1.390 . S
C309 C308 1.387 . S
C309 C311 1.387 . S
H310 C317 0.950 . S
C311 C309 1.387 . S
C311 C313 1.390 . S
C311 H315 0.950 . S
H312 C308 0.950 . S
C313 C311 1.390 . S
C313 C314 1.387 . S
C313 H316 0.950 . S
C314 C313 1.387 . S
C314 C317 1.387 . S
H315 C311 0.950 . S
H316 C313 0.950 . S
C317 C308 1.390 . S
C317 H310 0.950 . S
C317 C314 1.387 . S
C318 C319 1.387 . S
C318 H322 0.950 1_455 S
C318 C327 1.390 1_554 S
C319 C318 1.387 . S
C319 C321 1.387 . S
H320 C327 0.950 . S
C321 C319 1.387 . S
C321 C323 1.390 . S
C321 H325 0.950 . S
H322 C318 0.950 1_655 S
C323 C321 1.390 . S
C323 C324 1.387 1_554 S
C323 H326 0.950 1_554 S
C324 C323 1.387 1_556 S
C324 C327 1.387 . S
H325 C321 0.950 . S
H326 C323 0.950 1_556 S
C327 C318 1.390 1_556 S
C327 H320 0.950 . S
C327 C324 1.387 . S
C328 C329 1.387 . S
C328 H332 0.950 . S
C328 C337 1.390 . S
C329 C328 1.387 . S
C329 C331 1.387 1_545 S
H330 C337 0.950 . S
C331 C329 1.387 1_565 S
C331 C333 1.390 . S
C331 H335 0.950 . S
H332 C328 0.950 . S
C333 C331 1.390 . S
C333 C334 1.387 1_565 S
C333 H336 0.950 . S
C334 C333 1.387 1_545 S
C334 C337 1.387 . S
H335 C331 0.950 . S
H336 C333 0.950 . S
C337 C328 1.390 . S
C337 H330 0.950 . S
C337 C334 1.387 . S
C338 C339 1.387 . S
C338 H342 0.950 . S
C338 C347 1.390 . S
C339 C338 1.387 . S
C339 C341 1.387 . S
H340 C347 0.950 . S
C341 C339 1.387 . S
C341 C343 1.390 . S
C341 H345 0.950 . S
H342 C338 0.950 . S
C343 C341 1.390 . S
C343 C344 1.387 . S
C343 H346 0.950 . S
C344 C343 1.387 . S
C344 C347 1.387 . S
H345 C341 0.950 . S
H346 C343 0.950 . S
C347 C338 1.390 . S
C347 H340 0.950 . S
C347 C344 1.387 . S
C348 C349 1.387 . S
C348 H352 0.950 . S
C348 C357 1.390 . S
C349 C348 1.387 . S
C349 C351 1.387 1_545 S
H350 C357 0.950 . S
C351 C349 1.387 1_565 S
C351 C353 1.390 . S
C351 H355 0.950 . S
H352 C348 0.950 . S
C353 C351 1.390 . S
C353 C354 1.387 1_565 S
C353 H356 0.950 . S
C354 C353 1.387 1_545 S
C354 C357 1.387 . S
H355 C351 0.950 . S
H356 C353 0.950 . S
C357 C348 1.390 . S
C357 H350 0.950 . S
C357 C354 1.387 . S
C358 C359 1.387 . S
C358 H362 0.950 . S
C358 C367 1.390 1_556 S
C359 C358 1.387 . S
C359 C361 1.387 . S
H360 C367 0.950 . S
C361 C359 1.387 . S
C361 C363 1.390 . S
C361 H365 0.950 . S
H362 C358 0.950 . S
C363 C361 1.390 . S
C363 C364 1.387 1_556 S
C363 H366 0.950 . S
C364 C363 1.387 1_554 S
C364 C367 1.387 . S
H365 C361 0.950 . S
H366 C363 0.950 . S
C367 C358 1.390 1_554 S
C367 H360 0.950 . S
C367 C364 1.387 . S
C368 C369 1.386 . S
C368 H372 0.950 . S
C368 C377 1.390 . S
C369 C368 1.386 . S
C369 C371 1.389 1_655 S
H370 C377 0.950 . S
C371 C369 1.389 1_455 S
C371 C373 1.390 . S
C371 H375 0.950 . S
H372 C368 0.950 . S
C373 C371 1.390 . S
C373 C374 1.387 . S
C373 H376 0.950 . S
C374 C373 1.387 . S
C374 C377 1.387 1_455 S
H375 C371 0.950 . S
H376 C373 0.950 . S
C377 C368 1.390 . S
C377 H370 0.950 . S
C377 C374 1.387 1_655 S
C199 C6 0.976 . S
C204 C189 1.093 . S
C209 C59 1.878 . S
C214 C167 1.847 . S
C219 C86 1.355 . S
C224 C180 1.390 . S
C229 C15 0.749 . S
C234 C193 0.739 . S
C244 C163 1.857 . S
C239 C50 2.036 . S
C254 C176 1.367 . S
C249 C95 1.377 . S
C259 C46 1.164 . S
C264 C141 1.176 . S
C269 C99 3.084 . S
C274 C154 3.046 1_655 S
C279 C10 2.057 . S
C284 C124 1.900 . S
C294 C137 1.439 . S
C289 C55 1.404 . S
C304 C150 2.915 . S
C299 C90 3.102 . S
C309 C19 1.894 . S
C314 C128 1.888 . S
C324 C155 1.780 . S
C319 C18 1.730 . S
C329 C49 1.444 . S
C334 C129 1.472 . S
C339 C98 1.485 . S
C344 C142 1.600 . S
C354 C181 1.534 . S
C349 C58 1.453 . S
C364 C194 1.261 . S
C359 C89 1.272 . S
C369 C9 1.392 1_655 S
C374 C168 1.452 . S
