# Generated by pormake.
# Topology pyr, (3,6)-cn, num edge types: 1
# Building blocks:
#     Node 0, Type 0, BuildingBlock: QEWDON_clean_linker_0, # of connection points: 3
#     Node 1, Type 0, BuildingBlock: QEWDON_clean_linker_0, # of connection points: 3
#     Node 2, Type 0, BuildingBlock: QEWDON_clean_linker_0, # of connection points: 3
#     Node 3, Type 0, BuildingBlock: QEWDON_clean_linker_0, # of connection points: 3
#     Node 4, Type 0, BuildingBlock: QEWDON_clean_linker_0, # of connection points: 3
#     Node 5, Type 0, BuildingBlock: QEWDON_clean_linker_0, # of connection points: 3
#     Node 6, Type 0, BuildingBlock: QEWDON_clean_linker_0, # of connection points: 3
#     Node 7, Type 0, BuildingBlock: QEWDON_clean_linker_0, # of connection points: 3
#     Node 8, Type 1, BuildingBlock: BETDAH_clean_sbu_0, # of connection points: 6
#     Node 9, Type 1, BuildingBlock: BETDAH_clean_sbu_0, # of connection points: 6
#     Node 10, Type 1, BuildingBlock: BETDAH_clean_sbu_0, # of connection points: 6
#     Node 11, Type 1, BuildingBlock: BETDAH_clean_sbu_0, # of connection points: 6
#     Edge 12, Type (0, 1), BuildingBlock: CIFDUS_clean_linker_0, # of connection points: 2
#     Edge 13, Type (0, 1), BuildingBlock: CIFDUS_clean_linker_0, # of connection points: 2
#     Edge 14, Type (0, 1), BuildingBlock: CIFDUS_clean_linker_0, # of connection points: 2
#     Edge 15, Type (0, 1), BuildingBlock: CIFDUS_clean_linker_0, # of connection points: 2
#     Edge 16, Type (0, 1), BuildingBlock: CIFDUS_clean_linker_0, # of connection points: 2
#     Edge 17, Type (0, 1), BuildingBlock: CIFDUS_clean_linker_0, # of connection points: 2
#     Edge 18, Type (0, 1), BuildingBlock: CIFDUS_clean_linker_0, # of connection points: 2
#     Edge 19, Type (0, 1), BuildingBlock: CIFDUS_clean_linker_0, # of connection points: 2
#     Edge 20, Type (0, 1), BuildingBlock: CIFDUS_clean_linker_0, # of connection points: 2
#     Edge 21, Type (0, 1), BuildingBlock: CIFDUS_clean_linker_0, # of connection points: 2
#     Edge 22, Type (0, 1), BuildingBlock: CIFDUS_clean_linker_0, # of connection points: 2
#     Edge 23, Type (0, 1), BuildingBlock: CIFDUS_clean_linker_0, # of connection points: 2
#     Edge 24, Type (0, 1), BuildingBlock: CIFDUS_clean_linker_0, # of connection points: 2
#     Edge 25, Type (0, 1), BuildingBlock: CIFDUS_clean_linker_0, # of connection points: 2
#     Edge 26, Type (0, 1), BuildingBlock: CIFDUS_clean_linker_0, # of connection points: 2
#     Edge 27, Type (0, 1), BuildingBlock: CIFDUS_clean_linker_0, # of connection points: 2
#     Edge 28, Type (0, 1), BuildingBlock: CIFDUS_clean_linker_0, # of connection points: 2
#     Edge 29, Type (0, 1), BuildingBlock: CIFDUS_clean_linker_0, # of connection points: 2
#     Edge 30, Type (0, 1), BuildingBlock: CIFDUS_clean_linker_0, # of connection points: 2
#     Edge 31, Type (0, 1), BuildingBlock: CIFDUS_clean_linker_0, # of connection points: 2
#     Edge 32, Type (0, 1), BuildingBlock: CIFDUS_clean_linker_0, # of connection points: 2
#     Edge 33, Type (0, 1), BuildingBlock: CIFDUS_clean_linker_0, # of connection points: 2
#     Edge 34, Type (0, 1), BuildingBlock: CIFDUS_clean_linker_0, # of connection points: 2
#     Edge 35, Type (0, 1), BuildingBlock: CIFDUS_clean_linker_0, # of connection points: 2
# Relax obj value: 0.190
# Max RMSD: 0.265
# Mean RMSD: 0.196
data_MOF--net-pyr--node1-BETDAH_clean_sbu_0--node2-QEWDON_clean_linker_0--edge1-CIFDUS_clean_linker_0
_symmetry_space_group_name_H-M    P1
_symmetry_Int_Tables_number       1
_symmetry_cell_setting            triclinic
loop_
_symmetry_equiv_pos_as_xyz
'x, y, z'
_cell_length_a     33.823484
_cell_length_b     37.025425
_cell_length_c     35.125803
_cell_angle_alpha  92.274056
_cell_angle_beta   89.565896
_cell_angle_gamma 110.22973
loop_
_atom_site_label
_atom_site_type_symbol
_atom_site_fract_x
_atom_site_fract_y
_atom_site_fract_z
_atom_type_partial_charge
H0 H 0.43328 0.34059 0.18849 0.0
C1 C 0.41578 0.33238 0.21464 0.0
C2 C 0.40943 0.29607 0.22913 0.0
C3 C 0.39865 0.35767 0.23331 0.0
H4 H 0.38011 0.25654 0.27281 0.0
C5 C 0.38626 0.2852 0.2625 0.0
C6 C 0.36848 0.31006 0.28095 0.0
C7 C 0.37502 0.34636 0.2664 0.0
C8 C 0.40406 0.39545 0.21774 0.0
H9 H 0.3615 0.3658 0.28075 0.0
C10 C 0.36874 0.40617 0.21155 0.0
C11 C 0.37346 0.4423 0.19715 0.0
C12 C 0.44438 0.421 0.20941 0.0
H13 H 0.47199 0.41325 0.21421 0.0
C14 C 0.44938 0.45709 0.19554 0.0
H15 H 0.33753 0.38588 0.21704 0.0
C16 C 0.41423 0.46777 0.18945 0.0
H17 H 0.41902 0.49606 0.17894 0.0
H18 H 0.48061 0.4769 0.18955 0.0
H19 H 0.20339 0.9071 0.74819 0.0
C20 C 0.22473 0.89335 0.73673 0.0
C21 C 0.26029 0.89477 0.75784 0.0
C22 C 0.21568 0.8726 0.7017 0.0
H23 H 0.31439 0.87684 0.75994 0.0
C24 C 0.28712 0.876 0.74342 0.0
C25 C 0.27869 0.85563 0.70829 0.0
C26 C 0.24312 0.85434 0.68745 0.0
C27 C 0.17724 0.86882 0.6799 0.0
H28 H 0.23686 0.83926 0.65985 0.0
C29 C 0.16613 0.90125 0.67308 0.0
C30 C 0.13235 0.89817 0.64838 0.0
C31 C 0.15288 0.83271 0.66387 0.0
H32 H 0.16035 0.8072 0.66941 0.0
C33 C 0.11918 0.82922 0.63993 0.0
H34 H 0.18457 0.92879 0.68628 0.0
C35 C 0.10947 0.86163 0.63158 0.0
H36 H 0.08451 0.8578 0.6111 0.0
H37 H 0.10111 0.8014 0.62702 0.0
H38 H 0.72366 0.479 0.91721 0.0
C39 C 0.71062 0.44921 0.92495 0.0
C40 C 0.73133 0.4348 0.95265 0.0
C41 C 0.67125 0.4265 0.90915 0.0
H42 H 0.7245 0.38582 0.98729 0.0
C43 C 0.71009 0.39696 0.96551 0.0
C44 C 0.66984 0.37367 0.95123 0.0
C45 C 0.65239 0.38857 0.92154 0.0
C46 C 0.64385 0.44473 0.88917 0.0
H47 H 0.62237 0.37153 0.90886 0.0
C48 C 0.64991 0.45895 0.85132 0.0
C49 C 0.62121 0.47544 0.8356 0.0
C50 C 0.60926 0.44724 0.91006 0.0
H51 H 0.60371 0.43689 0.93874 0.0
C52 C 0.58138 0.46297 0.89476 0.0
H53 H 0.67628 0.45728 0.83459 0.0
C54 C 0.58718 0.47679 0.85818 0.0
H55 H 0.56439 0.48844 0.84727 0.0
H56 H 0.55489 0.46441 0.91145 0.0
H57 H 0.92673 0.81949 0.40893 0.0
C58 C 0.90109 0.79983 0.42463 0.0
C59 C 0.89118 0.81137 0.46133 0.0
C60 C 0.8771 0.76346 0.40751 0.0
H61 H 0.84741 0.79598 0.50749 0.0
C62 C 0.85632 0.78638 0.48026 0.0
C63 C 0.83161 0.75016 0.46436 0.0
C64 C 0.84214 0.73902 0.42769 0.0
C65 C 0.88138 0.7559 0.3655 0.0
H66 H 0.8225 0.71193 0.41435 0.0
C67 C 0.90416 0.73292 0.34903 0.0
C68 C 0.90499 0.72686 0.30845 0.0
C69 C 0.86063 0.77268 0.34113 0.0
H70 H 0.84318 0.79021 0.3527 0.0
C71 C 0.86178 0.76717 0.30182 0.0
H72 H 0.92034 0.71966 0.36737 0.0
C73 C 0.88353 0.74466 0.28572 0.0
H74 H 0.88387 0.74147 0.25493 0.0
H75 H 0.84558 0.7805 0.28357 0.0
H76 H 0.71506 0.79889 0.97585 0.0
C77 C 0.73004 0.81535 0.95159 0.0
C78 C 0.76776 0.81259 0.93737 0.0
C79 C 0.71197 0.83982 0.93484 0.0
H80 H 0.81734 0.83359 0.89655 0.0
C81 C 0.78721 0.83445 0.90644 0.0
C82 C 0.76922 0.85861 0.88924 0.0
C83 C 0.73161 0.86128 0.90365 0.0
C84 C 0.67273 0.84346 0.94989 0.0
H85 H 0.71724 0.87964 0.8903 0.0
C86 C 0.67054 0.88011 0.95817 0.0
C87 C 0.63284 0.88399 0.97097 0.0
C88 C 0.63708 0.81056 0.95497 0.0
H89 H 0.63816 0.78207 0.9485 0.0
C90 C 0.59943 0.81432 0.9676 0.0
H91 H 0.6981 0.90561 0.95444 0.0
C92 C 0.59718 0.85082 0.97545 0.0
H93 H 0.56778 0.85314 0.98556 0.0
H94 H 0.5719 0.7889 0.97125 0.0
H95 H 0.7577 0.18356 0.59227 0.0
C96 C 0.75081 0.18029 0.56201 0.0
C97 C 0.77641 0.16789 0.53681 0.0
C98 C 0.71624 0.18882 0.54866 0.0
H99 H 0.786 0.15494 0.47763 0.0
C100 C 0.76783 0.16577 0.49761 0.0
C101 C 0.7346 0.17605 0.48379 0.0
C102 C 0.7086 0.18721 0.50939 0.0
C103 C 0.68773 0.19849 0.57609 0.0
H104 H 0.68215 0.19412 0.49877 0.0
C105 C 0.67465 0.22998 0.57054 0.0
C106 C 0.64916 0.24004 0.59762 0.0
C107 C 0.67405 0.17649 0.60848 0.0
H108 H 0.68317 0.15167 0.61307 0.0
C109 C 0.64828 0.18619 0.63516 0.0
H110 H 0.68545 0.24745 0.5459 0.0
C111 C 0.6361 0.218 0.62997 0.0
H112 H 0.6162 0.22523 0.65104 0.0
H113 H 0.63787 0.16909 0.66 0.0
H114 H 0.44728 0.83436 0.26462 0.0
C115 C 0.41576 0.81836 0.25419 0.0
C116 C 0.39727 0.8351 0.22696 0.0
C117 C 0.39568 0.7801 0.26616 0.0
H118 H 0.34341 0.82486 0.19077 0.0
C119 C 0.35744 0.81257 0.212 0.0
C120 C 0.33552 0.7746 0.22369 0.0
C121 C 0.35533 0.75865 0.25075 0.0
C122 C 0.42206 0.76041 0.28581 0.0
H123 H 0.34014 0.72918 0.25892 0.0
C124 C 0.41607 0.746 0.32374 0.0
C125 C 0.44414 0.72838 0.33902 0.0
C126 C 0.45585 0.75683 0.26446 0.0
H127 H 0.46132 0.76717 0.23576 0.0
C128 C 0.48312 0.7402 0.27928 0.0
H129 H 0.39027 0.74838 0.34084 0.0
C130 C 0.47754 0.72638 0.31586 0.0
H131 H 0.5001 0.71422 0.32628 0.0
H132 H 0.50908 0.7381 0.26222 0.0
H133 H 0.26366 0.48323 0.77028 0.0
C134 C 0.24096 0.45771 0.75685 0.0
C135 C 0.25052 0.44349 0.72109 0.0
C136 C 0.20394 0.43706 0.77708 0.0
H137 H 0.22813 0.39769 0.67824 0.0
C138 C 0.22149 0.40873 0.70557 0.0
C139 C 0.18585 0.38635 0.72563 0.0
C140 C 0.17708 0.4013 0.76113 0.0
C141 C 0.20034 0.44535 0.81908 0.0
H142 H 0.15045 0.38415 0.77758 0.0
C143 C 0.17764 0.46841 0.83552 0.0
C144 C 0.17325 0.47137 0.87612 0.0
C145 C 0.21867 0.42649 0.84353 0.0
H146 H 0.23581 0.40866 0.832 0.0
C147 C 0.21475 0.42959 0.88283 0.0
H148 H 0.16304 0.48305 0.81714 0.0
C149 C 0.19235 0.45154 0.89889 0.0
H150 H 0.19055 0.45347 0.92968 0.0
H151 H 0.22915 0.41468 0.9011 0.0
Ho152 Ho 0.05646 0.11869 0.54029 0.0
Ho153 Ho 0.03545 0.08942 0.61875 0.0
C154 C 0.0856 0.17927 0.61339 0.0
C155 C 0.06882 0.15479 0.47794 0.0
C156 C 0.10639 0.17973 0.45892 0.0
C157 C 0.1104 0.21795 0.45267 0.0
C158 C 0.14529 0.24171 0.43351 0.0
C159 C 0.17635 0.22736 0.41994 0.0
C160 C 0.17291 0.1894 0.42734 0.0
C161 C 0.13834 0.16583 0.44687 0.0
C162 C 0.11374 0.09086 0.57066 0.0
C163 C 0.9972 0.03104 0.54409 0.0
C164 C 0.02671 0.05187 0.67994 0.0
C165 C 0.9916 1.02036 0.6948 0.0
C166 C 0.99967 0.9915 0.71442 0.0
C167 C 0.96655 0.96257 0.73072 0.0
C168 C 0.92514 0.96248 0.72764 0.0
C169 C 0.91693 0.99039 0.70639 0.0
C170 C 0.94996 1.01904 0.68978 0.0
C171 C 0.9797 0.11816 0.58968 0.0
O172 O 0.07542 0.17395 0.57674 0.0
O173 O 0.07911 0.1495 0.63526 0.0
O174 O 0.06512 0.11859 0.47964 0.0
O175 O 0.0588 0.1689 0.50977 0.0
O176 O 0.10368 0.08801 0.53499 0.0
O177 O 0.09456 0.11036 0.58752 0.0
O178 O 1.00621 0.03419 0.58119 0.0
O179 O 1.00709 0.06213 0.52376 0.0
O180 O 0.02063 0.08478 0.67837 0.0
O181 O 0.04437 0.04327 0.64935 0.0
O182 O 0.98716 0.11836 0.62578 0.0
O183 O 0.9977 0.09842 0.5717 0.0
H184 H 0.08628 0.22927 0.4622 0.0
H185 H 0.14755 0.27107 0.42868 0.0
H186 H 0.19604 0.17733 0.41678 0.0
H187 H 0.13634 0.13653 0.45172 0.0
H188 H 0.03164 0.99194 0.71796 0.0
H189 H 0.97352 0.94141 0.74729 0.0
H190 H 0.88512 0.99058 0.70352 0.0
H191 H 0.94305 0.04069 0.67392 0.0
Ho192 Ho 0.57043 0.10554 0.11215 0.0
Ho193 Ho 0.49779 0.09604 0.06365 0.0
C194 C 0.50716 0.14557 0.14117 0.0
C195 C 0.63945 0.11677 0.14868 0.0
C196 C 0.64625 0.12155 0.18972 0.0
C197 C 0.61582 0.12905 0.21295 0.0
C198 C 0.62154 0.13349 0.25221 0.0
C199 C 0.65758 0.13005 0.26881 0.0
C200 C 0.68755 0.12164 0.24545 0.0
C201 C 0.6819 0.11748 0.20603 0.0
C202 C 0.5015 0.04404 0.1314 0.0
C203 C 0.56415 0.06038 0.0318 0.0
C204 C 0.42329 0.07297 0.03468 0.0
C205 C 0.39514 0.03881 1.01482 0.0
C206 C 0.41038 1.01034 1.00041 0.0
C207 C 0.38654 0.98264 0.97384 0.0
C208 C 0.34726 0.9832 0.96169 0.0
C209 C 0.33087 1.00999 0.97861 0.0
C210 C 0.35487 0.03783 1.00494 0.0
C211 C 0.55519 0.16595 0.04537 0.0
O212 O 0.54659 0.14755 0.14322 0.0
O213 O 0.4808 0.12249 0.11626 0.0
O214 O 0.61457 0.08263 0.13708 0.0
O215 O 0.63035 0.14446 0.13322 0.0
O216 O 0.52549 0.06972 0.15521 0.0
O217 O 0.51409 0.05362 0.09784 0.0
O218 O 0.52441 0.05772 0.03023 0.0
O219 O 0.58997 0.08264 0.05787 0.0
O220 O 0.45735 0.09104 1.01572 0.0
O221 O 0.43037 0.07008 0.07083 0.0
O222 O 0.51831 0.14996 0.03058 0.0
O223 O 0.56085 0.14386 0.06986 0.0
H224 H 0.58773 0.13171 0.20071 0.0
H225 H 0.59816 0.14031 0.26944 0.0
H226 H 0.71526 0.11816 0.25767 0.0
H227 H 0.70521 0.11105 0.18836 0.0
H228 H 0.44173 1.0111 1.00776 0.0
H229 H 0.40011 0.96258 0.96094 0.0
H230 H 0.30043 1.01063 0.97003 0.0
H231 H 0.34301 0.05989 1.01586 0.0
Ho232 Ho 0.531 0.5675 0.56487 0.0
Ho233 Ho 0.54066 0.63778 0.60701 0.0
C234 C 0.57083 0.57662 0.65089 0.0
C235 C 0.5446 0.51285 0.52514 0.0
C236 C 0.55098 0.47644 0.53045 0.0
C237 C 0.56646 0.45994 0.49998 0.0
C238 C 0.57531 0.42635 0.50468 0.0
C239 C 0.56866 0.40871 0.54001 0.0
C240 C 0.55252 0.4252 0.57045 0.0
C241 C 0.54388 0.459 0.56573 0.0
C242 C 0.45963 0.56259 0.60459 0.0
C243 C 0.49857 0.62759 0.52289 0.0
C244 C 0.53436 0.69658 0.6452 0.0
C245 C 0.50561 0.71855 0.64787 0.0
C246 C 0.46468 0.702 0.66222 0.0
C247 C 0.43902 0.72409 0.66751 0.0
C248 C 0.45367 0.76311 0.65843 0.0
C249 C 0.49423 0.7794 0.64323 0.0
C250 C 0.52005 0.7573 0.63815 0.0
C251 C 0.61098 0.6407 0.567 0.0
O252 O 0.56237 0.55553 0.61856 0.0
O253 O 0.56369 0.60954 0.65345 0.0
O254 O 0.50692 0.51366 0.53218 0.0
O255 O 0.5746 0.54346 0.53861 0.0
O256 O 0.46043 0.54663 0.5712 0.0
O257 O 0.4972 0.57873 0.61622 0.0
O258 O 0.49895 0.64338 0.55755 0.0
O259 O 0.51492 0.60008 0.51803 0.0
O260 O 0.5564 0.69957 0.61407 0.0
O261 O 0.51989 0.66142 0.65692 0.0
O262 O 0.61118 0.65333 0.60191 0.0
O263 O 0.57331 0.62677 0.55538 0.0
H264 H 0.57245 0.47345 0.4727 0.0
H265 H 0.5884 0.41479 0.48092 0.0
H266 H 0.54669 0.41205 0.59789 0.0
H267 H 0.53211 0.4717 0.58958 0.0
H268 H 0.45271 0.67227 0.67031 0.0
H269 H 0.40818 0.71086 0.67989 0.0
H270 H 0.50615 0.80928 0.63556 0.0
H271 H 0.55158 0.77066 0.62719 0.0
Ho272 Ho 0.0311 0.55938 0.11795 0.0
Ho273 Ho 0.03744 0.62383 0.0742 0.0
C274 C 0.11744 0.63318 0.12465 0.0
C275 C 0.04375 0.50387 0.15227 0.0
C276 C 0.08163 0.4947 0.16159 0.0
C277 C 0.10372 0.482 0.13307 0.0
C278 C 0.13984 0.47403 0.14218 0.0
C279 C 0.15481 0.4787 0.17994 0.0
C280 C 0.13266 0.49134 0.20844 0.0
C281 C 0.09636 0.49911 0.19936 0.0
C282 C 0.99155 0.60461 0.15281 0.0
C283 C 0.95133 0.54781 0.06587 0.0
C284 C 0.02706 0.68242 0.04377 0.0
C285 C 0.99283 0.69118 0.02564 0.0
C286 C 0.96126 0.66319 1.00406 0.0
C287 C 0.92775 0.67215 0.98906 0.0
C288 C 0.92526 0.70895 0.99602 0.0
C289 C 0.95706 0.73675 1.01752 0.0
C290 C 0.99059 0.72792 0.03214 0.0
C291 C 0.07437 0.57707 0.03757 0.0
O292 O 0.1007 0.59524 0.12505 0.0
O293 O 0.09618 0.65272 0.1092 0.0
O294 O 0.0399 0.53401 0.17023 0.0
O295 O 0.03353 0.50186 0.11626 0.0
O296 O 0.97647 0.56742 0.14964 0.0
O297 O 0.02728 0.61659 0.13667 0.0
O298 O 0.96955 0.58506 0.0598 0.0
O299 O 0.9707 0.52977 0.08624 0.0
O300 O 0.04206 0.65879 0.02528 0.0
O301 O 0.02187 0.67555 0.0799 0.0
O302 O 0.08971 0.61442 0.03895 0.0
O303 O 0.03995 0.56628 0.05584 0.0
H304 H 0.09321 0.47819 0.10365 0.0
H305 H 0.15576 0.46375 0.11964 0.0
H306 H 0.14365 0.49568 0.23772 0.0
H307 H 0.07994 0.50887 0.22188 0.0
H308 H 0.96228 0.63445 0.99916 0.0
H309 H 0.90347 0.65025 0.97265 0.0
H310 H 0.95617 0.76549 1.02279 0.0
H311 H 1.0146 0.74971 0.04893 0.0
H312 H 0.29205 0.31613 0.28958 0.0
H313 H 0.38014 0.27298 0.34331 0.0
H314 H 0.32919 0.24627 0.39373 0.0
H315 H 0.25848 0.23275 0.42023 0.0
H316 H 0.16956 0.27293 0.3634 0.0
H317 H 0.22289 0.30493 0.31726 0.0
C318 C 0.30042 0.30161 0.31279 0.0
C319 C 0.33966 0.29665 0.31308 0.0
C320 C 0.27105 0.28615 0.34115 0.0
C321 C 0.34988 0.27694 0.34265 0.0
C322 C 0.32091 0.26182 0.37141 0.0
C323 C 0.25088 0.24861 0.39779 0.0
C324 C 0.21022 0.25048 0.39518 0.0
C325 C 0.2812 0.26582 0.37058 0.0
C326 C 0.20087 0.2716 0.36638 0.0
C327 C 0.23116 0.28953 0.33972 0.0
H328 H 0.28047 0.86754 0.82206 0.0
H329 H 0.26066 0.9669 0.77747 0.0
H330 H 0.28301 1.00229 0.83846 0.0
H331 H 0.3137 1.00631 0.902 0.0
H332 H 0.33542 0.90742 0.94582 0.0
H333 H 0.30765 0.87047 0.88676 0.0
C334 C 0.28101 0.89695 0.82579 0.0
C335 C 0.26943 0.91487 0.79547 0.0
C336 C 0.29455 0.91712 0.86041 0.0
C337 C 0.26935 0.95261 0.80064 0.0
C338 C 0.28235 0.97285 0.8353 0.0
C339 C 0.31133 0.97636 0.89902 0.0
C340 C 0.32621 0.95939 0.92818 0.0
C341 C 0.29566 0.95553 0.86509 0.0
C342 C 0.32417 0.92097 0.92359 0.0
C343 C 0.30829 0.8999 0.88996 0.0
H344 H 0.62165 0.54626 0.81772 0.0
H345 H 0.62315 0.44006 0.76457 0.0
H346 H 0.60901 0.4615 0.70216 0.0
H347 H 0.58925 0.50898 0.66324 0.0
H348 H 0.58734 0.61403 0.72019 0.0
H349 H 0.60764 0.59427 0.77957 0.0
C350 C 0.61985 0.52802 0.79238 0.0
C351 C 0.6239 0.49156 0.79624 0.0
C352 C 0.61053 0.54013 0.75687 0.0
C353 C 0.62103 0.46847 0.76279 0.0
C354 C 0.61225 0.4806 0.72702 0.0
C355 C 0.59366 0.52773 0.68852 0.0
C356 C 0.58628 0.56323 0.68641 0.0
C357 C 0.60579 0.5161 0.72372 0.0
C358 C 0.59238 0.58669 0.72005 0.0
C359 C 0.60419 0.57542 0.75447 0.0
H360 H 0.87293 0.67024 0.25356 0.0
H361 H 0.98833 0.73076 0.31442 0.0
H362 H 0.02667 0.70096 0.27076 0.0
H363 H 0.02773 0.65907 0.21221 0.0
H364 H 0.91026 0.59832 0.15414 0.0
H365 H 0.87309 0.62738 0.19862 0.0
C366 C 0.90644 0.67665 0.25771 0.0
C367 C 0.92744 0.70288 0.28764 0.0
C368 C 0.92831 0.65992 0.23203 0.0
C369 C 0.97095 0.71044 0.29225 0.0
C370 C 0.99304 0.69372 0.26678 0.0
C371 C 0.99413 0.65271 0.20903 0.0
C372 C 0.97203 0.62699 0.17896 0.0
C373 C 0.97226 0.66889 0.23593 0.0
C374 C 0.92825 0.6183 0.17633 0.0
C375 C 0.90682 0.63475 0.20205 0.0
H376 H 0.46144 0.26092 0.25483 0.0
H377 H 0.38939 0.2688 0.15676 0.0
H378 H 0.41171 0.22082 0.12169 0.0
H379 H 0.45253 0.17802 0.11871 0.0
H380 H 0.52934 0.17296 0.21437 0.0
H381 H 0.50424 0.21858 0.25111 0.0
C382 C 0.45089 0.25204 0.22574 0.0
C383 C 0.42423 0.26822 0.20804 0.0
C384 C 0.46454 0.22512 0.20563 0.0
C385 C 0.41043 0.25685 0.17049 0.0
C386 C 0.42297 0.2294 0.15062 0.0
C387 C 0.46354 0.18671 0.14773 0.0
C388 C 0.49236 0.17218 0.16415 0.0
C389 C 0.4501 0.21354 0.16788 0.0
C390 C 0.50713 0.18403 0.20138 0.0
C391 C 0.49279 0.20997 0.22225 0.0
H392 H 0.18508 0.97473 0.647 0.0
H393 H 0.05526 0.90092 0.62829 0.0
H394 H 0.04067 0.95277 0.59872 0.0
H395 H 0.06649 1.01648 0.57247 0.0
H396 H 0.18717 0.09711 0.60748 0.0
H397 H 0.20483 0.04443 0.63539 0.0
C398 C 0.15321 0.96989 0.63755 0.0
C399 C 0.12204 0.93271 0.63807 0.0
C400 C 0.14384 1.00082 0.62283 0.0
C401 C 0.08088 0.92806 0.62602 0.0
C402 C 0.07217 0.95792 0.60944 0.0
C403 C 0.09565 1.02313 0.5879 0.0
C404 C 0.12486 0.06059 0.58888 0.0
C405 C 0.10372 0.99393 0.6067 0.0
C406 C 0.16401 0.06828 0.60679 0.0
C407 C 0.17392 0.03829 0.62282 0.0
H408 H 0.76735 0.43272 1.0237 0.0
H409 H 0.79396 0.49488 0.91943 0.0
H410 H 0.86091 0.53692 0.94589 0.0
H411 H 0.91443 0.55572 0.99807 0.0
H412 H 0.89116 0.48811 0.09832 0.0
H413 H 0.8218 0.4485 0.07354 0.0
C414 C 0.78767 0.45479 1.00604 0.0
C415 C 0.774 0.46006 0.96921 0.0
C416 C 0.82758 0.47832 1.02086 0.0
C417 C 0.80184 0.49004 0.9481 0.0
C418 C 0.84086 0.51419 0.96313 0.0
C419 C 0.89402 0.5325 1.0146 0.0
C420 C 0.90819 0.5253 0.05032 0.0
C421 C 0.85424 0.5087 0.9995 0.0
C422 C 0.88136 0.49453 0.07086 0.0
C423 C 0.8415 0.47174 0.05665 0.0
H424 H 0.75013 0.70715 0.44007 0.0
H425 H 0.82953 0.73784 0.5404 0.0
H426 H 0.76924 0.70701 0.58031 0.0
H427 H 0.69326 0.67381 0.58798 0.0
H428 H 0.61293 0.63981 0.48871 0.0
H429 H 0.6738 0.6685 0.44755 0.0
C430 C 0.75441 0.70641 0.47054 0.0
C431 C 0.79468 0.72555 0.48697 0.0
C432 C 0.71918 0.688 0.4938 0.0
C433 C 0.7991 0.72423 0.52674 0.0
C434 C 0.76451 0.70642 0.54977 0.0
C435 C 0.68908 0.67234 0.5573 0.0
C436 C 0.64843 0.6548 0.54159 0.0
C437 C 0.72429 0.68872 0.53379 0.0
C438 C 0.64378 0.65309 0.50169 0.0
C439 C 0.67867 0.66964 0.47809 0.0
H440 H 0.30282 0.42865 0.24048 0.0
H441 H 0.35947 0.47952 0.13595 0.0
H442 H 0.29763 0.49642 0.12226 0.0
H443 H 0.22729 0.49609 0.13938 0.0
H444 H 0.16871 0.44216 0.24199 0.0
H445 H 0.2316 0.42725 0.25705 0.0
C446 C 0.30152 0.44317 0.21455 0.0
C447 C 0.33587 0.45293 0.18936 0.0
C448 C 0.26559 0.45234 0.20653 0.0
C449 C 0.33385 0.47224 0.15617 0.0
C450 C 0.29836 0.48168 0.14816 0.0
C451 C 0.22808 0.48073 0.16486 0.0
C452 C 0.19329 0.4702 0.18945 0.0
C453 C 0.26403 0.47176 0.17305 0.0
C454 C 0.19523 0.45103 0.22278 0.0
C455 C 0.23108 0.44225 0.23129 0.0
H456 H 0.6962 0.32139 0.99246 0.0
H457 H 0.5832 0.3388 0.95313 0.0
H458 H 0.54076 0.27769 0.97679 0.0
H459 H 0.53334 0.2186 1.0086 0.0
H460 H 0.64223 0.20138 0.05593 0.0
H461 H 0.68768 0.26334 0.03092 0.0
C462 C 0.66234 0.31236 0.98916 0.0
C463 C 0.64412 0.3354 0.96876 0.0
C464 C 0.63676 0.27696 1.00501 0.0
C465 C 0.59964 0.32199 0.96599 0.0
C466 C 0.57465 0.28682 0.98042 0.0
C467 C 0.56707 0.22829 1.0137 0.0
C468 C 0.58419 0.20489 0.03393 0.0
C469 C 0.59271 0.26396 0.99969 0.0
C470 C 0.62798 0.21853 0.04048 0.0
C471 C 0.654 0.25401 0.02595 0.0
H472 H 0.91648 0.88408 0.4322 0.0
H473 H 0.91915 0.82514 0.53501 0.0
H474 H 0.95022 0.88671 0.57009 0.0
H475 H 0.97536 0.95805 0.57248 0.0
H476 H 0.97313 1.01685 0.46933 0.0
H477 H 0.94343 0.95543 0.43423 0.0
C478 C 0.92453 0.8847 0.46209 0.0
C479 C 0.91536 0.84968 0.48071 0.0
C480 C 0.94216 0.92054 0.48248 0.0
C481 C 0.92556 0.85142 0.51978 0.0
C482 C 0.94331 0.88675 0.54001 0.0
C483 C 0.96832 0.95748 0.54237 0.0
C484 C 0.97654 0.99251 0.52396 0.0
C485 C 0.95136 0.92163 0.52186 0.0
C486 C 0.96711 0.99073 0.48471 0.0
C487 C 0.95017 0.9554 0.46434 0.0
H488 H 0.36419 0.87987 0.71106 0.0
H489 H 0.25465 0.78378 0.67425 0.0
H490 H 0.29959 0.74788 0.65289 0.0
H491 H 0.36952 0.7429 0.64684 0.0
H492 H 0.47858 0.83669 0.68866 0.0
H493 H 0.43421 0.87454 0.70574 0.0
C494 C 0.35014 0.85098 0.69858 0.0
C495 C 0.3062 0.83455 0.69415 0.0
C496 C 0.37602 0.83017 0.6872 0.0
C497 C 0.28847 0.79733 0.67738 0.0
C498 C 0.31408 0.77666 0.66543 0.0
C499 C 0.38356 0.77155 0.65986 0.0
C500 C 0.42721 0.78695 0.66648 0.0
C501 C 0.35782 0.7927 0.67051 0.0
C502 C 0.4451 0.82439 0.68273 0.0
C503 C 0.41973 0.84592 0.69282 0.0
H504 H 0.80676 0.83534 0.82968 0.0
H505 H 0.78026 0.93392 0.87699 0.0
H506 H 0.82246 0.97378 0.82739 0.0
H507 H 0.87278 0.98196 0.77524 0.0
H508 H 0.90406 0.88479 0.73141 0.0
H509 H 0.85447 0.84283 0.77568 0.0
C510 C 0.81024 0.86556 0.82912 0.0
C511 C 0.79082 0.88178 0.85707 0.0
C512 C 0.83561 0.88848 0.80149 0.0
C513 C 0.7947 0.92072 0.85557 0.0
C514 C 0.81907 0.94358 0.82746 0.0
C515 C 0.86792 0.95139 0.77485 0.0
C516 C 0.8916 0.93618 0.75027 0.0
C517 C 0.84038 0.92792 0.80087 0.0
C518 C 0.88598 0.89685 0.75033 0.0
C519 C 0.85778 0.87301 0.77555 0.0
H520 H 0.65989 0.14082 0.44809 0.0
H521 H 0.79098 0.20475 0.42756 0.0
H522 H 0.77831 0.19667 0.35882 0.0
H523 H 0.7304 0.17037 0.30506 0.0
H524 H 0.59978 0.10419 0.3253 0.0
H525 H 0.61157 0.11505 0.39397 0.0
C526 C 0.68546 0.15339 0.42848 0.0
C527 C 0.72621 0.17332 0.44254 0.0
C528 C 0.67806 0.14824 0.38919 0.0
C529 C 0.75938 0.18906 0.4171 0.0
C530 C 0.75217 0.18451 0.37794 0.0
C531 C 0.70464 0.15794 0.32453 0.0
C532 C 0.66445 0.13629 0.31028 0.0
C533 C 0.71176 0.16379 0.36375 0.0
C534 C 0.63102 0.12117 0.3357 0.0
C535 C 0.63774 0.12721 0.37489 0.0
H536 H 0.44712 0.65834 0.35643 0.0
H537 H 0.43864 0.76152 0.41095 0.0
H538 H 0.45244 0.73956 0.47326 0.0
H539 H 0.47448 0.6929 0.51194 0.0
H540 H 0.48476 0.59182 0.45302 0.0
H541 H 0.46392 0.61146 0.39385 0.0
C542 C 0.44755 0.67595 0.38196 0.0
C543 C 0.44167 0.71176 0.37838 0.0
C544 C 0.45698 0.66374 0.41743 0.0
C545 C 0.44239 0.73371 0.41229 0.0
C546 C 0.45096 0.72128 0.44807 0.0
C547 C 0.47169 0.67493 0.48628 0.0
C548 C 0.48174 0.64063 0.4878 0.0
C549 C 0.45951 0.68667 0.45104 0.0
C550 C 0.47781 0.61827 0.45362 0.0
C551 C 0.46565 0.62947 0.41932 0.0
H552 H 0.1145 0.44932 0.93276 0.0
H553 H 0.18273 0.54796 0.86823 0.0
H554 H 0.15869 0.58943 0.91207 0.0
H555 H 0.12275 0.59859 0.97254 0.0
H556 H 0.05357 0.4989 0.03552 0.0
H557 H 0.07398 0.45742 0.98928 0.0
C558 C 0.12362 0.47984 0.9278 0.0
C559 C 0.15068 0.49526 0.89687 0.0
C560 C 0.11016 0.50363 0.95363 0.0
C561 C 0.16173 0.53494 0.89119 0.0
C562 C 0.14836 0.55882 0.91674 0.0
C563 C 0.1121 0.56777 0.97617 0.0
C564 C 0.08693 0.55214 1.00819 0.0
C565 C 0.12343 0.5437 0.94871 0.0
C566 C 0.07305 0.51197 1.01168 0.0
C567 C 0.08469 0.48814 0.98504 0.0
H568 H 0.57465 0.91272 0.94654 0.0
H569 H 0.68669 0.94136 1.01592 0.0
H570 H 0.67896 1.00247 0.03661 0.0
H571 H 0.63561 0.0436 0.04055 0.0
H572 H 0.52213 1.01355 0.97245 0.0
H573 H 0.53568 0.9575 0.94502 0.0
C574 C 0.59745 0.93255 0.96598 0.0
C575 C 0.63072 0.92251 0.98022 0.0
C576 C 0.59262 0.96731 0.97788 0.0
C577 C 0.66072 0.94859 1.00475 0.0
C578 C 0.65625 0.98341 1.01662 0.0
C579 C 0.61435 1.02536 1.01902 0.0
C580 C 0.57764 0.0325 1.00889 0.0
C581 C 0.62169 0.99258 1.0041 0.0
C582 C 0.55046 1.00854 0.98096 0.0
C583 C 0.55802 0.97633 0.96541 0.0
H584 H 0.85157 0.17404 0.50244 0.0
H585 H 0.77934 0.13405 0.60427 0.0
H586 H 0.83702 0.11794 0.63022 0.0
H587 H 0.9077 0.11468 0.62436 0.0
H588 H 0.97524 0.14393 0.51906 0.0
H589 H 0.91889 0.16363 0.49346 0.0
C590 C 0.84783 0.16113 0.52999 0.0
C591 C 0.81116 0.15625 0.55158 0.0
C592 C 0.88027 0.14986 0.54408 0.0
C593 C 0.80763 0.13976 0.58745 0.0
C594 C 0.84045 0.12998 0.60225 0.0
C595 C 0.91001 0.1255 0.59586 0.0
C596 C 0.9456 0.12879 0.57379 0.0
C597 C 0.87693 0.13514 0.58095 0.0
C598 C 0.94812 0.14176 0.53657 0.0
C599 C 0.91597 0.15292 0.522 0.0
H600 H 0.29868 0.69586 0.20533 0.0
H601 H 0.27347 0.80249 0.20313 0.0
H602 H 0.20707 0.76951 0.1705 0.0
H603 H 0.15464 0.71046 0.14262 0.0
H604 H 0.17589 0.60252 0.14878 0.0
H605 H 0.24401 0.63563 0.18001 0.0
C606 C 0.27858 0.71196 0.19826 0.0
C607 C 0.29247 0.75225 0.20642 0.0
C608 C 0.23911 0.69242 0.17998 0.0
C609 C 0.26518 0.77197 0.19648 0.0
C610 C 0.2266 0.75297 0.17794 0.0
C611 C 0.17419 0.69408 0.15056 0.0
C612 C 0.15986 0.65388 0.14282 0.0
C613 C 0.21323 0.71326 0.1693 0.0
C614 C 0.18581 0.63342 0.154 0.0
C615 C 0.22495 0.65241 0.17203 0.0
H616 H 0.30105 0.52129 0.71579 0.0
H617 H 0.29666 0.40651 0.68152 0.0
H618 H 0.35763 0.43282 0.64178 0.0
H619 H 0.41222 0.48788 0.61456 0.0
H620 H 0.42502 0.60291 0.65371 0.0
H621 H 0.36217 0.57736 0.69383 0.0
C622 C 0.31358 0.50198 0.7 0.0
C623 C 0.29211 0.46163 0.70072 0.0
C624 C 0.35068 0.51744 0.67782 0.0
C625 C 0.31017 0.43754 0.68034 0.0
C626 C 0.34579 0.45258 0.65772 0.0
C627 C 0.40128 0.50739 0.63192 0.0
C628 C 0.42294 0.54733 0.63067 0.0
C629 C 0.36596 0.49238 0.65569 0.0
C630 C 0.40881 0.57209 0.65398 0.0
C631 C 0.37277 0.5574 0.6769 0.0
H632 H 0.79927 0.76218 0.90243 0.0
H633 H 0.78413 0.81075 1.01287 0.0
H634 H 0.82885 0.77943 0.04165 0.0
H635 H 0.87777 0.74382 0.03405 0.0
H636 H 0.89493 0.69716 0.92323 0.0
H637 H 0.84351 0.7219 0.89578 0.0
C638 C 0.80542 0.76544 0.93288 0.0
C639 C 0.78879 0.78879 0.95557 0.0
C640 C 0.83165 0.74798 0.94898 0.0
C641 C 0.79642 0.79261 0.99499 0.0
C642 C 0.82223 0.77502 1.01134 0.0
C643 C 0.8699 0.73884 1.00395 0.0
C644 C 0.89025 0.71915 0.98052 0.0
C645 C 0.84085 0.7535 0.98842 0.0
C646 C 0.87946 0.71219 0.94174 0.0
C647 C 0.85033 0.72651 0.92605 0.0
H648 H 0.39924 0.86508 0.15484 0.0
H649 H 0.44559 0.8986 0.26976 0.0
H650 H 0.48024 0.96471 0.25079 0.0
H651 H 0.49752 1.01404 0.20209 0.0
H652 H 0.45264 0.98157 0.08687 0.0
H653 H 0.41688 0.9149 0.10561 0.0
C654 C 0.41657 0.88677 0.17598 0.0
C655 C 0.4194 0.876 0.21406 0.0
C656 C 0.43665 0.92542 0.16481 0.0
C657 C 0.44296 0.90512 0.24032 0.0
C658 C 0.46267 0.94333 0.22949 0.0
C659 C 0.47974 0.99252 0.18098 0.0
C660 C 0.4778 1.00334 0.14296 0.0
C661 C 0.45973 0.95394 0.1919 0.0
C662 C 0.45476 0.97452 0.11625 0.0
C663 C 0.43433 0.9362 0.12703 0.0
H664 H 0.16625 0.35904 0.6513 0.0
H665 H 0.15115 0.32075 0.76673 0.0
H666 H 0.11902 0.25407 0.74296 0.0
H667 H 0.09783 0.20553 0.6889 0.0
H668 H 0.11628 0.245 0.5739 0.0
H669 H 0.14565 0.31145 0.59805 0.0
C670 C 0.1563 0.33628 0.6715 0.0
C671 C 0.16155 0.34567 0.71104 0.0
C672 C 0.13887 0.29765 0.6576 0.0
C673 C 0.14716 0.31516 0.73626 0.0
C674 C 0.12917 0.27669 0.72262 0.0
C675 C 0.10841 0.22864 0.66911 0.0
C676 C 0.1047 0.21979 0.62945 0.0
C677 C 0.12533 0.26743 0.68328 0.0
C678 C 0.11844 0.25048 0.60447 0.0
C679 C 0.13529 0.28875 0.61829 0.0
H680 H 0.61112 0.25549 0.53605 0.0
H681 H 0.65976 0.30016 0.64791 0.0
H682 H 0.639 0.35652 0.64001 0.0
H683 H 0.60759 0.39299 0.60112 0.0
H684 H 0.55565 0.34687 0.49036 0.0
H685 H 0.57757 0.29126 0.49775 0.0
C686 C 0.61718 0.27771 0.55854 0.0
C687 C 0.63676 0.27395 0.59249 0.0
C688 C 0.60465 0.30961 0.55399 0.0
C689 C 0.64434 0.30255 0.62169 0.0
C690 C 0.6326 0.33469 0.61714 0.0
C691 C 0.60046 0.3705 0.57884 0.0
C692 C 0.58005 0.37406 0.54527 0.0
C693 C 0.61259 0.33842 0.58348 0.0
C694 C 0.57181 0.34503 0.51632 0.0
C695 C 0.58416 0.31315 0.52057 0.0
loop_
_geom_bond_atom_site_label_1
_geom_bond_atom_site_label_2
_geom_bond_distance
_geom_bond_site_symmetry_2
_ccdc_geom_bond_type
H0 C1 0.949 . S
C1 H0 0.949 . S
C1 C2 1.395 . S
C1 C3 1.391 . S
C2 C1 1.395 . S
C2 C5 1.390 . S
C3 C1 1.391 . S
C3 C7 1.387 . S
C3 C8 1.491 . S
H4 C5 0.950 . S
C5 C2 1.390 . S
C5 H4 0.950 . S
C5 C6 1.378 . S
C6 C5 1.378 . S
C6 C7 1.409 . S
C7 C3 1.387 . S
C7 C6 1.409 . S
C7 H9 0.951 . S
C8 C3 1.491 . S
C8 C10 1.382 . S
C8 C12 1.404 . S
H9 C7 0.951 . S
C10 C8 1.382 . S
C10 C11 1.390 . S
C10 H15 0.949 . S
C11 C10 1.390 . S
C11 C16 1.399 . S
C12 C8 1.404 . S
C12 H13 0.950 . S
C12 C14 1.375 . S
H13 C12 0.950 . S
C14 C12 1.375 . S
C14 C16 1.382 . S
C14 H18 0.950 . S
H15 C10 0.949 . S
C16 C11 1.399 . S
C16 C14 1.382 . S
C16 H17 0.952 . S
H17 C16 0.952 . S
H18 C14 0.950 . S
H19 C20 0.949 . S
C20 H19 0.949 . S
C20 C21 1.395 . S
C20 C22 1.391 . S
C21 C20 1.395 . S
C21 C24 1.390 . S
C22 C20 1.391 . S
C22 C26 1.387 . S
C22 C27 1.491 . S
H23 C24 0.950 . S
C24 C21 1.390 . S
C24 H23 0.950 . S
C24 C25 1.378 . S
C25 C24 1.378 . S
C25 C26 1.409 . S
C26 C22 1.387 . S
C26 C25 1.409 . S
C26 H28 0.951 . S
C27 C22 1.491 . S
C27 C29 1.382 . S
C27 C31 1.404 . S
H28 C26 0.951 . S
C29 C27 1.382 . S
C29 C30 1.390 . S
C29 H34 0.949 . S
C30 C29 1.390 . S
C30 C35 1.399 . S
C31 C27 1.404 . S
C31 H32 0.950 . S
C31 C33 1.375 . S
H32 C31 0.950 . S
C33 C31 1.375 . S
C33 C35 1.382 . S
C33 H37 0.950 . S
H34 C29 0.949 . S
C35 C30 1.399 . S
C35 C33 1.382 . S
C35 H36 0.952 . S
H36 C35 0.952 . S
H37 C33 0.950 . S
H38 C39 0.949 . S
C39 H38 0.949 . S
C39 C40 1.395 . S
C39 C41 1.391 . S
C40 C39 1.395 . S
C40 C43 1.390 . S
C41 C39 1.391 . S
C41 C45 1.387 . S
C41 C46 1.491 . S
H42 C43 0.950 . S
C43 C40 1.390 . S
C43 H42 0.950 . S
C43 C44 1.378 . S
C44 C43 1.378 . S
C44 C45 1.409 . S
C45 C41 1.387 . S
C45 C44 1.409 . S
C45 H47 0.951 . S
C46 C41 1.491 . S
C46 C48 1.382 . S
C46 C50 1.404 . S
H47 C45 0.951 . S
C48 C46 1.382 . S
C48 C49 1.390 . S
C48 H53 0.949 . S
C49 C48 1.390 . S
C49 C54 1.399 . S
C50 C46 1.404 . S
C50 H51 0.950 . S
C50 C52 1.375 . S
H51 C50 0.950 . S
C52 C50 1.375 . S
C52 C54 1.382 . S
C52 H56 0.950 . S
H53 C48 0.949 . S
C54 C49 1.399 . S
C54 C52 1.382 . S
C54 H55 0.952 . S
H55 C54 0.952 . S
H56 C52 0.950 . S
H57 C58 0.949 . S
C58 H57 0.949 . S
C58 C59 1.395 . S
C58 C60 1.391 . S
C59 C58 1.395 . S
C59 C62 1.390 . S
C60 C58 1.391 . S
C60 C64 1.387 . S
C60 C65 1.491 . S
H61 C62 0.950 . S
C62 C59 1.390 . S
C62 H61 0.950 . S
C62 C63 1.378 . S
C63 C62 1.378 . S
C63 C64 1.409 . S
C64 C60 1.387 . S
C64 C63 1.409 . S
C64 H66 0.951 . S
C65 C60 1.491 . S
C65 C67 1.382 . S
C65 C69 1.404 . S
H66 C64 0.951 . S
C67 C65 1.382 . S
C67 C68 1.390 . S
C67 H72 0.949 . S
C68 C67 1.390 . S
C68 C73 1.399 . S
C69 C65 1.404 . S
C69 H70 0.950 . S
C69 C71 1.375 . S
H70 C69 0.950 . S
C71 C69 1.375 . S
C71 C73 1.382 . S
C71 H75 0.950 . S
H72 C67 0.949 . S
C73 C68 1.399 . S
C73 C71 1.382 . S
C73 H74 0.952 . S
H74 C73 0.952 . S
H75 C71 0.950 . S
H76 C77 0.949 . S
C77 H76 0.949 . S
C77 C78 1.395 . S
C77 C79 1.391 . S
C78 C77 1.395 . S
C78 C81 1.390 . S
C79 C77 1.391 . S
C79 C83 1.387 . S
C79 C84 1.491 . S
H80 C81 0.950 . S
C81 C78 1.390 . S
C81 H80 0.950 . S
C81 C82 1.378 . S
C82 C81 1.378 . S
C82 C83 1.409 . S
C83 C79 1.387 . S
C83 C82 1.409 . S
C83 H85 0.951 . S
C84 C79 1.491 . S
C84 C86 1.382 . S
C84 C88 1.404 . S
H85 C83 0.951 . S
C86 C84 1.382 . S
C86 C87 1.390 . S
C86 H91 0.949 . S
C87 C86 1.390 . S
C87 C92 1.399 . S
C88 C84 1.404 . S
C88 H89 0.950 . S
C88 C90 1.375 . S
H89 C88 0.950 . S
C90 C88 1.375 . S
C90 C92 1.382 . S
C90 H94 0.950 . S
H91 C86 0.949 . S
C92 C87 1.399 . S
C92 C90 1.382 . S
C92 H93 0.952 . S
H93 C92 0.952 . S
H94 C90 0.950 . S
H95 C96 0.949 . S
C96 H95 0.949 . S
C96 C97 1.395 . S
C96 C98 1.391 . S
C97 C96 1.395 . S
C97 C100 1.390 . S
C98 C96 1.391 . S
C98 C102 1.387 . S
C98 C103 1.491 . S
H99 C100 0.950 . S
C100 C97 1.390 . S
C100 H99 0.950 . S
C100 C101 1.378 . S
C101 C100 1.378 . S
C101 C102 1.409 . S
C102 C98 1.387 . S
C102 C101 1.409 . S
C102 H104 0.951 . S
C103 C98 1.491 . S
C103 C105 1.382 . S
C103 C107 1.404 . S
H104 C102 0.951 . S
C105 C103 1.382 . S
C105 C106 1.390 . S
C105 H110 0.949 . S
C106 C105 1.390 . S
C106 C111 1.399 . S
C107 C103 1.404 . S
C107 H108 0.950 . S
C107 C109 1.375 . S
H108 C107 0.950 . S
C109 C107 1.375 . S
C109 C111 1.382 . S
C109 H113 0.950 . S
H110 C105 0.949 . S
C111 C106 1.399 . S
C111 C109 1.382 . S
C111 H112 0.952 . S
H112 C111 0.952 . S
H113 C109 0.950 . S
H114 C115 0.949 . S
C115 H114 0.949 . S
C115 C116 1.395 . S
C115 C117 1.391 . S
C116 C115 1.395 . S
C116 C119 1.390 . S
C117 C115 1.391 . S
C117 C121 1.387 . S
C117 C122 1.491 . S
H118 C119 0.950 . S
C119 C116 1.390 . S
C119 H118 0.950 . S
C119 C120 1.378 . S
C120 C119 1.378 . S
C120 C121 1.409 . S
C121 C117 1.387 . S
C121 C120 1.409 . S
C121 H123 0.951 . S
C122 C117 1.491 . S
C122 C124 1.382 . S
C122 C126 1.404 . S
H123 C121 0.951 . S
C124 C122 1.382 . S
C124 C125 1.390 . S
C124 H129 0.949 . S
C125 C124 1.390 . S
C125 C130 1.399 . S
C126 C122 1.404 . S
C126 H127 0.950 . S
C126 C128 1.375 . S
H127 C126 0.950 . S
C128 C126 1.375 . S
C128 C130 1.382 . S
C128 H132 0.950 . S
H129 C124 0.949 . S
C130 C125 1.399 . S
C130 C128 1.382 . S
C130 H131 0.952 . S
H131 C130 0.952 . S
H132 C128 0.950 . S
H133 C134 0.949 . S
C134 H133 0.949 . S
C134 C135 1.395 . S
C134 C136 1.391 . S
C135 C134 1.395 . S
C135 C138 1.390 . S
C136 C134 1.391 . S
C136 C140 1.387 . S
C136 C141 1.491 . S
H137 C138 0.950 . S
C138 C135 1.390 . S
C138 H137 0.950 . S
C138 C139 1.378 . S
C139 C138 1.378 . S
C139 C140 1.409 . S
C140 C136 1.387 . S
C140 C139 1.409 . S
C140 H142 0.951 . S
C141 C136 1.491 . S
C141 C143 1.382 . S
C141 C145 1.404 . S
H142 C140 0.951 . S
C143 C141 1.382 . S
C143 C144 1.390 . S
C143 H148 0.949 . S
C144 C143 1.390 . S
C144 C149 1.399 . S
C145 C141 1.404 . S
C145 H146 0.950 . S
C145 C147 1.375 . S
H146 C145 0.950 . S
C147 C145 1.375 . S
C147 C149 1.382 . S
C147 H151 0.950 . S
H148 C143 0.949 . S
C149 C144 1.399 . S
C149 C147 1.382 . S
C149 H150 0.952 . S
H150 C149 0.952 . S
H151 C147 0.950 . S
Ho152 C155 2.811 . S
Ho152 O172 2.322 . S
Ho152 O174 2.378 . S
Ho152 O175 2.524 . S
Ho152 O176 2.381 . S
Ho152 O177 2.669 . S
Ho152 O179 2.346 1_445 S
Ho152 O183 2.305 1_455 S
Ho153 C164 2.811 1_545 S
Ho153 O173 2.346 1_655 S
Ho153 O177 2.305 1_655 S
Ho153 O178 2.322 1_545 S
Ho153 O180 2.378 1_545 S
Ho153 O181 2.524 1_545 S
Ho153 O182 2.381 . S
Ho153 O183 2.669 . S
C154 O172 1.259 . S
C154 O173 1.268 . S
C155 Ho152 2.811 . S
C155 C156 1.488 . S
C155 O174 1.215 . S
C155 O175 1.289 . S
C156 C155 1.488 . S
C156 C157 1.348 . S
C156 C161 1.413 . S
C157 C156 1.348 . S
C157 C158 1.442 . S
C157 H184 0.930 . S
C158 C157 1.442 . S
C158 C159 1.381 . S
C158 H185 0.931 . S
C159 C158 1.381 . S
C159 C160 1.321 . S
C160 C159 1.321 . S
C160 C161 1.403 . S
C160 H186 0.934 . S
C161 C156 1.413 . S
C161 C160 1.403 . S
C161 H187 0.930 . S
C162 O176 1.275 . S
C162 O177 1.256 . S
C163 O178 1.259 . S
C163 O179 1.268 . S
C164 Ho153 2.811 1_565 S
C164 C165 1.488 . S
C164 O180 1.215 . S
C164 O181 1.289 . S
C165 C164 1.488 . S
C165 C166 1.348 . S
C165 C170 1.413 . S
C166 C165 1.348 . S
C166 C167 1.442 . S
C166 H188 0.930 . S
C167 C166 1.442 . S
C167 C168 1.381 . S
C167 H189 0.931 . S
C168 C167 1.381 . S
C168 C169 1.321 . S
C169 C168 1.321 . S
C169 C170 1.403 . S
C169 H190 0.934 . S
C170 C165 1.413 . S
C170 C169 1.403 . S
C170 H191 0.930 . S
C171 O182 1.275 . S
C171 O183 1.256 . S
O172 Ho152 2.322 . S
O172 C154 1.259 . S
O173 Ho153 2.346 1_455 S
O173 C154 1.268 . S
O174 Ho152 2.378 . S
O174 C155 1.215 . S
O175 Ho152 2.524 . S
O175 C155 1.289 . S
O176 Ho152 2.381 . S
O176 C162 1.275 . S
O177 Ho152 2.669 . S
O177 Ho153 2.305 1_455 S
O177 C162 1.256 . S
O178 Ho153 2.322 1_565 S
O178 C163 1.259 . S
O179 Ho152 2.346 1_665 S
O179 C163 1.268 . S
O180 Ho153 2.378 1_565 S
O180 C164 1.215 . S
O181 Ho153 2.524 1_565 S
O181 C164 1.289 . S
O182 Ho153 2.381 . S
O182 C171 1.275 . S
O183 Ho152 2.305 1_655 S
O183 Ho153 2.669 . S
O183 C171 1.256 . S
H184 C157 0.930 . S
H185 C158 0.931 . S
H186 C160 0.934 . S
H187 C161 0.930 . S
H188 C166 0.930 . S
H189 C167 0.931 . S
H190 C169 0.934 . S
H191 C170 0.930 . S
Ho192 C195 2.811 . S
Ho192 O212 2.322 . S
Ho192 O214 2.378 . S
Ho192 O215 2.524 . S
Ho192 O216 2.381 1_545 S
Ho192 O217 2.669 1_545 S
Ho192 O219 2.346 . S
Ho192 O223 2.305 . S
Ho193 C204 2.811 1_544 S
Ho193 O213 2.346 . S
Ho193 O217 2.305 1_545 S
Ho193 O218 2.322 . S
Ho193 O220 2.378 1_554 S
Ho193 O221 2.524 1_545 S
Ho193 O222 2.381 . S
Ho193 O223 2.669 . S
C194 O212 1.259 . S
C194 O213 1.268 . S
C195 Ho192 2.811 . S
C195 C196 1.488 . S
C195 O214 1.215 . S
C195 O215 1.289 . S
C196 C195 1.488 . S
C196 C197 1.348 . S
C196 C201 1.413 . S
C197 C196 1.348 . S
C197 C198 1.442 . S
C197 H224 0.930 . S
C198 C197 1.442 . S
C198 C199 1.381 . S
C198 H225 0.931 . S
C199 C198 1.381 . S
C199 C200 1.321 . S
C200 C199 1.321 . S
C200 C201 1.403 . S
C200 H226 0.934 . S
C201 C196 1.413 . S
C201 C200 1.403 . S
C201 H227 0.930 . S
C202 O216 1.275 . S
C202 O217 1.256 . S
C203 O218 1.259 1_565 S
C203 O219 1.268 1_565 S
C204 Ho193 2.811 1_566 S
C204 C205 1.488 . S
C204 O220 1.215 1_565 S
C204 O221 1.289 1_556 S
C205 C204 1.488 . S
C205 C206 1.348 . S
C205 C210 1.413 . S
C206 C205 1.348 . S
C206 C207 1.442 . S
C206 H228 0.930 . S
C207 C206 1.442 . S
C207 C208 1.381 . S
C207 H229 0.931 . S
C208 C207 1.381 . S
C208 C209 1.321 . S
C209 C208 1.321 . S
C209 C210 1.403 . S
C209 H230 0.934 . S
C210 C205 1.413 . S
C210 C209 1.403 . S
C210 H231 0.930 1_565 S
C211 O222 1.275 . S
C211 O223 1.256 . S
O212 Ho192 2.322 . S
O212 C194 1.259 . S
O213 Ho193 2.346 . S
O213 C194 1.268 . S
O214 Ho192 2.378 . S
O214 C195 1.215 . S
O215 Ho192 2.524 . S
O215 C195 1.289 . S
O216 Ho192 2.381 1_565 S
O216 C202 1.275 . S
O217 Ho192 2.669 1_565 S
O217 Ho193 2.305 1_565 S
O217 C202 1.256 . S
O218 Ho193 2.322 . S
O218 C203 1.259 1_545 S
O219 Ho192 2.346 . S
O219 C203 1.268 1_545 S
O220 Ho193 2.378 1_556 S
O220 C204 1.215 1_545 S
O221 Ho193 2.524 1_565 S
O221 C204 1.289 1_554 S
O222 Ho193 2.381 . S
O222 C211 1.275 . S
O223 Ho192 2.305 . S
O223 Ho193 2.669 . S
O223 C211 1.256 . S
H224 C197 0.930 . S
H225 C198 0.931 . S
H226 C200 0.934 . S
H227 C201 0.930 . S
H228 C206 0.930 . S
H229 C207 0.931 . S
H230 C209 0.934 . S
H231 C210 0.930 1_545 S
Ho232 C235 2.811 . S
Ho232 O252 2.322 . S
Ho232 O254 2.378 . S
Ho232 O255 2.524 . S
Ho232 O256 2.381 . S
Ho232 O257 2.669 . S
Ho232 O259 2.346 . S
Ho232 O263 2.305 . S
Ho233 C244 2.811 . S
Ho233 O253 2.346 . S
Ho233 O257 2.305 . S
Ho233 O258 2.322 . S
Ho233 O260 2.378 . S
Ho233 O261 2.524 . S
Ho233 O262 2.381 . S
Ho233 O263 2.669 . S
C234 O252 1.259 . S
C234 O253 1.268 . S
C235 Ho232 2.811 . S
C235 C236 1.488 . S
C235 O254 1.215 . S
C235 O255 1.289 . S
C236 C235 1.488 . S
C236 C237 1.348 . S
C236 C241 1.413 . S
C237 C236 1.348 . S
C237 C238 1.442 . S
C237 H264 0.930 . S
C238 C237 1.442 . S
C238 C239 1.381 . S
C238 H265 0.931 . S
C239 C238 1.381 . S
C239 C240 1.321 . S
C240 C239 1.321 . S
C240 C241 1.403 . S
C240 H266 0.934 . S
C241 C236 1.413 . S
C241 C240 1.403 . S
C241 H267 0.930 . S
C242 O256 1.275 . S
C242 O257 1.256 . S
C243 O258 1.259 . S
C243 O259 1.268 . S
C244 Ho233 2.811 . S
C244 C245 1.488 . S
C244 O260 1.215 . S
C244 O261 1.289 . S
C245 C244 1.488 . S
C245 C246 1.348 . S
C245 C250 1.413 . S
C246 C245 1.348 . S
C246 C247 1.442 . S
C246 H268 0.930 . S
C247 C246 1.442 . S
C247 C248 1.381 . S
C247 H269 0.931 . S
C248 C247 1.381 . S
C248 C249 1.321 . S
C249 C248 1.321 . S
C249 C250 1.403 . S
C249 H270 0.934 . S
C250 C245 1.413 . S
C250 C249 1.403 . S
C250 H271 0.930 . S
C251 O262 1.275 . S
C251 O263 1.256 . S
O252 Ho232 2.322 . S
O252 C234 1.259 . S
O253 Ho233 2.346 . S
O253 C234 1.268 . S
O254 Ho232 2.378 . S
O254 C235 1.215 . S
O255 Ho232 2.524 . S
O255 C235 1.289 . S
O256 Ho232 2.381 . S
O256 C242 1.275 . S
O257 Ho232 2.669 . S
O257 Ho233 2.305 . S
O257 C242 1.256 . S
O258 Ho233 2.322 . S
O258 C243 1.259 . S
O259 Ho232 2.346 . S
O259 C243 1.268 . S
O260 Ho233 2.378 . S
O260 C244 1.215 . S
O261 Ho233 2.524 . S
O261 C244 1.289 . S
O262 Ho233 2.381 . S
O262 C251 1.275 . S
O263 Ho232 2.305 . S
O263 Ho233 2.669 . S
O263 C251 1.256 . S
H264 C237 0.930 . S
H265 C238 0.931 . S
H266 C240 0.934 . S
H267 C241 0.930 . S
H268 C246 0.930 . S
H269 C247 0.931 . S
H270 C249 0.934 . S
H271 C250 0.930 . S
Ho272 C275 2.811 . S
Ho272 O292 2.322 . S
Ho272 O294 2.378 . S
Ho272 O295 2.524 . S
Ho272 O296 2.381 . S
Ho272 O297 2.669 . S
Ho272 O299 2.346 1_455 S
Ho272 O303 2.305 . S
Ho273 C284 2.811 1_454 S
Ho273 O293 2.346 . S
Ho273 O297 2.305 . S
Ho273 O298 2.322 1_454 S
Ho273 O300 2.378 1_554 S
Ho273 O301 2.524 1_455 S
Ho273 O302 2.381 1_554 S
Ho273 O303 2.669 . S
C274 O292 1.259 . S
C274 O293 1.268 . S
C275 Ho272 2.811 . S
C275 C276 1.488 . S
C275 O294 1.215 . S
C275 O295 1.289 . S
C276 C275 1.488 . S
C276 C277 1.348 . S
C276 C281 1.413 . S
C277 C276 1.348 . S
C277 C278 1.442 . S
C277 H304 0.930 . S
C278 C277 1.442 . S
C278 C279 1.381 . S
C278 H305 0.931 . S
C279 C278 1.381 . S
C279 C280 1.321 . S
C280 C279 1.321 . S
C280 C281 1.403 . S
C280 H306 0.934 . S
C281 C276 1.413 . S
C281 C280 1.403 . S
C281 H307 0.930 . S
C282 O296 1.274 1_655 S
C282 O297 1.256 1_655 S
C283 O298 1.259 . S
C283 O299 1.268 1_556 S
C284 Ho273 2.811 1_656 S
C284 C285 1.488 . S
C284 O300 1.215 1_655 S
C284 O301 1.289 1_556 S
C285 C284 1.488 . S
C285 C286 1.348 . S
C285 C290 1.413 . S
C286 C285 1.348 . S
C286 C287 1.442 . S
C286 H308 0.930 . S
C287 C286 1.442 . S
C287 C288 1.381 . S
C287 H309 0.931 . S
C288 C287 1.381 . S
C288 C289 1.321 . S
C289 C288 1.321 . S
C289 C290 1.403 . S
C289 H310 0.934 . S
C290 C285 1.413 . S
C290 C289 1.403 . S
C290 H311 0.930 . S
C291 O302 1.275 . S
C291 O303 1.256 1_556 S
O292 Ho272 2.322 . S
O292 C274 1.259 . S
O293 Ho273 2.346 . S
O293 C274 1.268 . S
O294 Ho272 2.378 . S
O294 C275 1.215 . S
O295 Ho272 2.524 . S
O295 C275 1.289 . S
O296 Ho272 2.381 . S
O296 C282 1.274 1_455 S
O297 Ho272 2.669 . S
O297 Ho273 2.305 . S
O297 C282 1.256 1_455 S
O298 Ho273 2.322 1_656 S
O298 C283 1.259 . S
O299 Ho272 2.346 1_655 S
O299 C283 1.268 1_554 S
O300 Ho273 2.378 1_556 S
O300 C284 1.215 1_455 S
O301 Ho273 2.524 1_655 S
O301 C284 1.289 1_554 S
O302 Ho273 2.381 1_556 S
O302 C291 1.275 . S
O303 Ho272 2.305 . S
O303 Ho273 2.669 . S
O303 C291 1.256 1_554 S
H304 C277 0.930 . S
H305 C278 0.931 . S
H306 C280 0.934 . S
H307 C281 0.930 . S
H308 C286 0.930 . S
H309 C287 0.931 . S
H310 C289 0.934 . S
H311 C290 0.930 . S
H312 C318 0.930 . S
H313 C321 0.930 . S
H314 C322 0.930 . S
H315 C323 0.930 . S
H316 C326 0.930 . S
H317 C327 0.930 . S
C318 H312 0.930 . S
C318 C319 1.355 . S
C318 C320 1.415 . S
C319 C318 1.355 . S
C319 C321 1.419 . S
C320 C318 1.415 . S
C320 C325 1.425 . S
C320 C327 1.409 . S
C321 H313 0.930 . S
C321 C319 1.419 . S
C321 C322 1.362 . S
C322 H314 0.930 . S
C322 C321 1.362 . S
C322 C325 1.409 . S
C323 H315 0.930 . S
C323 C324 1.355 . S
C323 C325 1.415 . S
C324 C323 1.355 . S
C324 C326 1.419 . S
C325 C320 1.425 . S
C325 C322 1.409 . S
C325 C323 1.415 . S
C326 H316 0.930 . S
C326 C324 1.419 . S
C326 C327 1.362 . S
C327 H317 0.930 . S
C327 C320 1.409 . S
C327 C326 1.362 . S
H328 C334 0.930 . S
H329 C337 0.930 . S
H330 C338 0.930 . S
H331 C339 0.930 . S
H332 C342 0.930 . S
H333 C343 0.930 . S
C334 H328 0.930 . S
C334 C335 1.355 . S
C334 C336 1.415 . S
C335 C334 1.355 . S
C335 C337 1.419 . S
C336 C334 1.415 . S
C336 C341 1.425 . S
C336 C343 1.409 . S
C337 H329 0.930 . S
C337 C335 1.419 . S
C337 C338 1.362 . S
C338 H330 0.930 . S
C338 C337 1.362 . S
C338 C341 1.409 . S
C339 H331 0.930 . S
C339 C340 1.355 . S
C339 C341 1.415 . S
C340 C339 1.355 . S
C340 C342 1.419 . S
C341 C336 1.425 . S
C341 C338 1.409 . S
C341 C339 1.415 . S
C342 H332 0.930 . S
C342 C340 1.419 . S
C342 C343 1.362 . S
C343 H333 0.930 . S
C343 C336 1.409 . S
C343 C342 1.362 . S
H344 C350 0.930 . S
H345 C353 0.930 . S
H346 C354 0.930 . S
H347 C355 0.930 . S
H348 C358 0.930 . S
H349 C359 0.930 . S
C350 H344 0.930 . S
C350 C351 1.355 . S
C350 C352 1.415 . S
C351 C350 1.355 . S
C351 C353 1.419 . S
C352 C350 1.415 . S
C352 C357 1.425 . S
C352 C359 1.409 . S
C353 H345 0.930 . S
C353 C351 1.419 . S
C353 C354 1.362 . S
C354 H346 0.930 . S
C354 C353 1.362 . S
C354 C357 1.409 . S
C355 H347 0.930 . S
C355 C356 1.355 . S
C355 C357 1.415 . S
C356 C355 1.355 . S
C356 C358 1.419 . S
C357 C352 1.425 . S
C357 C354 1.409 . S
C357 C355 1.415 . S
C358 H348 0.930 . S
C358 C356 1.419 . S
C358 C359 1.362 . S
C359 H349 0.930 . S
C359 C352 1.409 . S
C359 C358 1.362 . S
H360 C366 0.930 . S
H361 C369 0.930 . S
H362 C370 0.930 . S
H363 C371 0.930 . S
H364 C374 0.930 1_455 S
H365 C375 0.930 . S
C366 H360 0.930 . S
C366 C367 1.355 . S
C366 C368 1.415 . S
C367 C366 1.355 . S
C367 C369 1.419 . S
C368 C366 1.415 . S
C368 C373 1.425 . S
C368 C375 1.409 . S
C369 H361 0.930 . S
C369 C367 1.419 . S
C369 C370 1.362 . S
C370 H362 0.930 . S
C370 C369 1.362 . S
C370 C373 1.409 . S
C371 H363 0.930 . S
C371 C372 1.355 . S
C371 C373 1.415 . S
C372 C371 1.355 . S
C372 C374 1.419 . S
C373 C368 1.425 . S
C373 C370 1.409 . S
C373 C371 1.415 . S
C374 H364 0.930 1_655 S
C374 C372 1.419 . S
C374 C375 1.362 . S
C375 H365 0.930 . S
C375 C368 1.409 . S
C375 C374 1.362 . S
H376 C382 0.930 . S
H377 C385 0.930 . S
H378 C386 0.930 . S
H379 C387 0.930 . S
H380 C390 0.930 . S
H381 C391 0.930 . S
C382 H376 0.930 . S
C382 C383 1.355 . S
C382 C384 1.415 . S
C383 C382 1.355 . S
C383 C385 1.419 . S
C384 C382 1.415 . S
C384 C389 1.425 . S
C384 C391 1.409 . S
C385 H377 0.930 . S
C385 C383 1.419 . S
C385 C386 1.362 . S
C386 H378 0.930 . S
C386 C385 1.362 . S
C386 C389 1.409 . S
C387 H379 0.930 . S
C387 C388 1.355 . S
C387 C389 1.415 . S
C388 C387 1.355 . S
C388 C390 1.419 . S
C389 C384 1.425 . S
C389 C386 1.409 . S
C389 C387 1.415 . S
C390 H380 0.930 . S
C390 C388 1.419 . S
C390 C391 1.362 . S
C391 H381 0.930 . S
C391 C384 1.409 . S
C391 C390 1.362 . S
H392 C398 0.930 . S
H393 C401 0.930 . S
H394 C402 0.930 . S
H395 C403 0.930 . S
H396 C406 0.930 . S
H397 C407 0.929 . S
C398 H392 0.930 . S
C398 C399 1.355 . S
C398 C400 1.415 . S
C399 C398 1.355 . S
C399 C401 1.419 . S
C400 C398 1.415 . S
C400 C405 1.425 . S
C400 C407 1.409 . S
C401 H393 0.930 . S
C401 C399 1.419 . S
C401 C402 1.362 . S
C402 H394 0.930 . S
C402 C401 1.362 . S
C402 C405 1.409 . S
C403 H395 0.930 . S
C403 C404 1.355 1_565 S
C403 C405 1.415 . S
C404 C403 1.355 1_545 S
C404 C406 1.419 . S
C405 C400 1.425 . S
C405 C402 1.409 . S
C405 C403 1.415 . S
C406 H396 0.930 . S
C406 C404 1.419 . S
C406 C407 1.362 1_545 S
C407 H397 0.929 . S
C407 C400 1.409 . S
C407 C406 1.362 1_565 S
H408 C414 0.930 . S
H409 C417 0.930 . S
H410 C418 0.930 . S
H411 C419 0.930 . S
H412 C422 0.930 . S
H413 C423 0.930 . S
C414 H408 0.930 . S
C414 C415 1.355 . S
C414 C416 1.415 . S
C415 C414 1.355 . S
C415 C417 1.419 . S
C416 C414 1.415 . S
C416 C421 1.425 . S
C416 C423 1.409 1_556 S
C417 H409 0.930 . S
C417 C415 1.419 . S
C417 C418 1.362 . S
C418 H410 0.930 . S
C418 C417 1.362 . S
C418 C421 1.409 . S
C419 H411 0.930 . S
C419 C420 1.355 . S
C419 C421 1.415 . S
C420 C419 1.355 . S
C420 C422 1.419 1_556 S
C421 C416 1.425 . S
C421 C418 1.409 . S
C421 C419 1.415 . S
C422 H412 0.930 . S
C422 C420 1.419 1_554 S
C422 C423 1.362 . S
C423 H413 0.930 . S
C423 C416 1.409 1_554 S
C423 C422 1.362 . S
H424 C430 0.930 . S
H425 C433 0.930 . S
H426 C434 0.930 . S
H427 C435 0.930 . S
H428 C438 0.930 . S
H429 C439 0.930 . S
C430 H424 0.930 . S
C430 C431 1.355 . S
C430 C432 1.415 . S
C431 C430 1.355 . S
C431 C433 1.419 . S
C432 C430 1.415 . S
C432 C437 1.425 . S
C432 C439 1.409 . S
C433 H425 0.930 . S
C433 C431 1.419 . S
C433 C434 1.362 . S
C434 H426 0.930 . S
C434 C433 1.362 . S
C434 C437 1.409 . S
C435 H427 0.930 . S
C435 C436 1.355 . S
C435 C437 1.415 . S
C436 C435 1.355 . S
C436 C438 1.419 . S
C437 C432 1.425 . S
C437 C434 1.409 . S
C437 C435 1.415 . S
C438 H428 0.930 . S
C438 C436 1.419 . S
C438 C439 1.362 . S
C439 H429 0.930 . S
C439 C432 1.409 . S
C439 C438 1.362 . S
H440 C446 0.930 . S
H441 C449 0.930 . S
H442 C450 0.930 . S
H443 C451 0.930 . S
H444 C454 0.930 . S
H445 C455 0.930 . S
C446 H440 0.930 . S
C446 C447 1.355 . S
C446 C448 1.415 . S
C447 C446 1.355 . S
C447 C449 1.419 . S
C448 C446 1.415 . S
C448 C453 1.425 . S
C448 C455 1.409 . S
C449 H441 0.930 . S
C449 C447 1.419 . S
C449 C450 1.362 . S
C450 H442 0.930 . S
C450 C449 1.362 . S
C450 C453 1.409 . S
C451 H443 0.930 . S
C451 C452 1.355 . S
C451 C453 1.415 . S
C452 C451 1.355 . S
C452 C454 1.419 . S
C453 C448 1.425 . S
C453 C450 1.409 . S
C453 C451 1.415 . S
C454 H444 0.930 . S
C454 C452 1.419 . S
C454 C455 1.362 . S
C455 H445 0.930 . S
C455 C448 1.409 . S
C455 C454 1.362 . S
H456 C462 0.930 . S
H457 C465 0.930 . S
H458 C466 0.930 . S
H459 C467 0.930 . S
H460 C470 0.930 . S
H461 C471 0.930 . S
C462 H456 0.930 . S
C462 C463 1.355 . S
C462 C464 1.415 . S
C463 C462 1.355 . S
C463 C465 1.419 . S
C464 C462 1.415 . S
C464 C469 1.425 . S
C464 C471 1.409 1_556 S
C465 H457 0.930 . S
C465 C463 1.419 . S
C465 C466 1.362 . S
C466 H458 0.930 . S
C466 C465 1.362 . S
C466 C469 1.409 . S
C467 H459 0.930 . S
C467 C468 1.355 . S
C467 C469 1.415 1_554 S
C468 C467 1.355 . S
C468 C470 1.419 . S
C469 C464 1.425 . S
C469 C466 1.409 . S
C469 C467 1.415 1_556 S
C470 H460 0.930 . S
C470 C468 1.419 . S
C470 C471 1.362 . S
C471 H461 0.930 . S
C471 C464 1.409 1_554 S
C471 C470 1.362 . S
H472 C478 0.930 . S
H473 C481 0.930 . S
H474 C482 0.930 . S
H475 C483 0.930 . S
H476 C486 0.930 . S
H477 C487 0.930 . S
C478 H472 0.930 . S
C478 C479 1.355 . S
C478 C480 1.415 . S
C479 C478 1.355 . S
C479 C481 1.419 . S
C480 C478 1.415 . S
C480 C485 1.425 . S
C480 C487 1.409 . S
C481 H473 0.930 . S
C481 C479 1.419 . S
C481 C482 1.362 . S
C482 H474 0.930 . S
C482 C481 1.362 . S
C482 C485 1.409 . S
C483 H475 0.930 . S
C483 C484 1.355 . S
C483 C485 1.415 . S
C484 C483 1.355 . S
C484 C486 1.419 . S
C485 C480 1.425 . S
C485 C482 1.409 . S
C485 C483 1.415 . S
C486 H476 0.930 . S
C486 C484 1.419 . S
C486 C487 1.362 . S
C487 H477 0.930 . S
C487 C480 1.409 . S
C487 C486 1.362 . S
H488 C494 0.930 . S
H489 C497 0.930 . S
H490 C498 0.930 . S
H491 C499 0.930 . S
H492 C502 0.930 . S
H493 C503 0.930 . S
C494 H488 0.930 . S
C494 C495 1.355 . S
C494 C496 1.415 . S
C495 C494 1.355 . S
C495 C497 1.419 . S
C496 C494 1.415 . S
C496 C501 1.425 . S
C496 C503 1.409 . S
C497 H489 0.930 . S
C497 C495 1.419 . S
C497 C498 1.362 . S
C498 H490 0.930 . S
C498 C497 1.362 . S
C498 C501 1.409 . S
C499 H491 0.930 . S
C499 C500 1.355 . S
C499 C501 1.415 . S
C500 C499 1.355 . S
C500 C502 1.419 . S
C501 C496 1.425 . S
C501 C498 1.409 . S
C501 C499 1.415 . S
C502 H492 0.930 . S
C502 C500 1.419 . S
C502 C503 1.362 . S
C503 H493 0.930 . S
C503 C496 1.409 . S
C503 C502 1.362 . S
H504 C510 0.930 . S
H505 C513 0.930 . S
H506 C514 0.930 . S
H507 C515 0.930 . S
H508 C518 0.930 . S
H509 C519 0.930 . S
C510 H504 0.930 . S
C510 C511 1.355 . S
C510 C512 1.415 . S
C511 C510 1.355 . S
C511 C513 1.419 . S
C512 C510 1.415 . S
C512 C517 1.425 . S
C512 C519 1.409 . S
C513 H505 0.930 . S
C513 C511 1.419 . S
C513 C514 1.362 . S
C514 H506 0.930 . S
C514 C513 1.362 . S
C514 C517 1.409 . S
C515 H507 0.930 . S
C515 C516 1.355 . S
C515 C517 1.415 . S
C516 C515 1.355 . S
C516 C518 1.419 . S
C517 C512 1.425 . S
C517 C514 1.409 . S
C517 C515 1.415 . S
C518 H508 0.930 . S
C518 C516 1.419 . S
C518 C519 1.362 . S
C519 H509 0.930 . S
C519 C512 1.409 . S
C519 C518 1.362 . S
H520 C526 0.930 . S
H521 C529 0.930 . S
H522 C530 0.930 . S
H523 C531 0.930 . S
H524 C534 0.930 . S
H525 C535 0.930 . S
C526 H520 0.930 . S
C526 C527 1.355 . S
C526 C528 1.415 . S
C527 C526 1.355 . S
C527 C529 1.419 . S
C528 C526 1.415 . S
C528 C533 1.425 . S
C528 C535 1.409 . S
C529 H521 0.930 . S
C529 C527 1.419 . S
C529 C530 1.362 . S
C530 H522 0.930 . S
C530 C529 1.362 . S
C530 C533 1.409 . S
C531 H523 0.930 . S
C531 C532 1.355 . S
C531 C533 1.415 . S
C532 C531 1.355 . S
C532 C534 1.419 . S
C533 C528 1.425 . S
C533 C530 1.409 . S
C533 C531 1.415 . S
C534 H524 0.930 . S
C534 C532 1.419 . S
C534 C535 1.362 . S
C535 H525 0.930 . S
C535 C528 1.409 . S
C535 C534 1.362 . S
H536 C542 0.930 . S
H537 C545 0.930 . S
H538 C546 0.930 . S
H539 C547 0.930 . S
H540 C550 0.930 . S
H541 C551 0.930 . S
C542 H536 0.930 . S
C542 C543 1.355 . S
C542 C544 1.415 . S
C543 C542 1.355 . S
C543 C545 1.419 . S
C544 C542 1.415 . S
C544 C549 1.425 . S
C544 C551 1.409 . S
C545 H537 0.930 . S
C545 C543 1.419 . S
C545 C546 1.362 . S
C546 H538 0.930 . S
C546 C545 1.362 . S
C546 C549 1.409 . S
C547 H539 0.930 . S
C547 C548 1.355 . S
C547 C549 1.415 . S
C548 C547 1.355 . S
C548 C550 1.419 . S
C549 C544 1.425 . S
C549 C546 1.409 . S
C549 C547 1.415 . S
C550 H540 0.930 . S
C550 C548 1.419 . S
C550 C551 1.362 . S
C551 H541 0.930 . S
C551 C544 1.409 . S
C551 C550 1.362 . S
H552 C558 0.930 . S
H553 C561 0.930 . S
H554 C562 0.930 . S
H555 C563 0.930 . S
H556 C566 0.930 . S
H557 C567 0.930 . S
C558 H552 0.930 . S
C558 C559 1.355 . S
C558 C560 1.415 . S
C559 C558 1.355 . S
C559 C561 1.419 . S
C560 C558 1.415 . S
C560 C565 1.425 . S
C560 C567 1.409 . S
C561 H553 0.930 . S
C561 C559 1.419 . S
C561 C562 1.362 . S
C562 H554 0.930 . S
C562 C561 1.362 . S
C562 C565 1.409 . S
C563 H555 0.930 . S
C563 C564 1.355 . S
C563 C565 1.415 . S
C564 C563 1.355 . S
C564 C566 1.419 . S
C565 C560 1.425 . S
C565 C562 1.409 . S
C565 C563 1.415 . S
C566 H556 0.930 . S
C566 C564 1.419 . S
C566 C567 1.362 . S
C567 H557 0.930 . S
C567 C560 1.409 . S
C567 C566 1.362 . S
H568 C574 0.930 . S
H569 C577 0.930 . S
H570 C578 0.905 1_554 S
H571 C579 0.930 . S
H572 C582 0.930 . S
H573 C583 0.930 . S
C574 H568 0.930 . S
C574 C575 1.355 . S
C574 C576 1.415 . S
C575 C574 1.355 . S
C575 C577 1.419 . S
C576 C574 1.415 . S
C576 C581 1.425 . S
C576 C583 1.409 . S
C577 H569 0.930 . S
C577 C575 1.419 . S
C577 C578 1.380 . S
C578 H570 0.905 1_556 S
C578 C577 1.380 . S
C578 C581 1.417 . S
C579 H571 0.930 . S
C579 C580 1.355 . S
C579 C581 1.415 1_554 S
C580 C579 1.355 . S
C580 C582 1.419 1_554 S
C581 C576 1.425 . S
C581 C578 1.417 . S
C581 C579 1.415 1_556 S
C582 H572 0.930 . S
C582 C580 1.419 1_556 S
C582 C583 1.362 . S
C583 H573 0.930 . S
C583 C576 1.409 . S
C583 C582 1.362 . S
H584 C590 0.930 . S
H585 C593 0.930 . S
H586 C594 0.930 . S
H587 C595 0.930 . S
H588 C598 0.930 . S
H589 C599 0.930 . S
C590 H584 0.930 . S
C590 C591 1.355 . S
C590 C592 1.415 . S
C591 C590 1.355 . S
C591 C593 1.419 . S
C592 C590 1.415 . S
C592 C597 1.425 . S
C592 C599 1.409 . S
C593 H585 0.930 . S
C593 C591 1.419 . S
C593 C594 1.362 . S
C594 H586 0.930 . S
C594 C593 1.362 . S
C594 C597 1.409 . S
C595 H587 0.930 . S
C595 C596 1.355 . S
C595 C597 1.415 . S
C596 C595 1.355 . S
C596 C598 1.419 . S
C597 C592 1.425 . S
C597 C594 1.409 . S
C597 C595 1.415 . S
C598 H588 0.930 . S
C598 C596 1.419 . S
C598 C599 1.362 . S
C599 H589 0.930 . S
C599 C592 1.409 . S
C599 C598 1.362 . S
H600 C606 0.930 . S
H601 C609 0.930 . S
H602 C610 0.930 . S
H603 C611 0.930 . S
H604 C614 0.930 . S
H605 C615 0.930 . S
C606 H600 0.930 . S
C606 C607 1.355 . S
C606 C608 1.415 . S
C607 C606 1.355 . S
C607 C609 1.419 . S
C608 C606 1.415 . S
C608 C613 1.425 . S
C608 C615 1.409 . S
C609 H601 0.930 . S
C609 C607 1.419 . S
C609 C610 1.362 . S
C610 H602 0.930 . S
C610 C609 1.362 . S
C610 C613 1.409 . S
C611 H603 0.930 . S
C611 C612 1.355 . S
C611 C613 1.415 . S
C612 C611 1.355 . S
C612 C614 1.419 . S
C613 C608 1.425 . S
C613 C610 1.409 . S
C613 C611 1.415 . S
C614 H604 0.930 . S
C614 C612 1.419 . S
C614 C615 1.362 . S
C615 H605 0.930 . S
C615 C608 1.409 . S
C615 C614 1.362 . S
H616 C622 0.930 . S
H617 C625 0.930 . S
H618 C626 0.930 . S
H619 C627 0.930 . S
H620 C630 0.930 . S
H621 C631 0.930 . S
C622 H616 0.930 . S
C622 C623 1.355 . S
C622 C624 1.415 . S
C623 C622 1.355 . S
C623 C625 1.419 . S
C624 C622 1.415 . S
C624 C629 1.425 . S
C624 C631 1.409 . S
C625 H617 0.930 . S
C625 C623 1.419 . S
C625 C626 1.362 . S
C626 H618 0.930 . S
C626 C625 1.362 . S
C626 C629 1.409 . S
C627 H619 0.930 . S
C627 C628 1.355 . S
C627 C629 1.415 . S
C628 C627 1.355 . S
C628 C630 1.419 . S
C629 C624 1.425 . S
C629 C626 1.409 . S
C629 C627 1.415 . S
C630 H620 0.930 . S
C630 C628 1.419 . S
C630 C631 1.362 . S
C631 H621 0.930 . S
C631 C624 1.409 . S
C631 C630 1.362 . S
H632 C638 0.930 . S
H633 C641 0.930 . S
H634 C642 0.930 . S
H635 C643 0.930 . S
H636 C646 0.930 . S
H637 C647 0.930 . S
C638 H632 0.930 . S
C638 C639 1.355 . S
C638 C640 1.415 . S
C639 C638 1.355 . S
C639 C641 1.419 . S
C640 C638 1.415 . S
C640 C645 1.425 . S
C640 C647 1.409 . S
C641 H633 0.930 . S
C641 C639 1.419 . S
C641 C642 1.362 . S
C642 H634 0.930 . S
C642 C641 1.362 . S
C642 C645 1.409 . S
C643 H635 0.930 . S
C643 C644 1.355 . S
C643 C645 1.415 . S
C644 C643 1.355 . S
C644 C646 1.419 . S
C645 C640 1.425 . S
C645 C642 1.409 . S
C645 C643 1.415 . S
C646 H636 0.930 . S
C646 C644 1.419 . S
C646 C647 1.362 . S
C647 H637 0.930 . S
C647 C640 1.409 . S
C647 C646 1.362 . S
H648 C654 0.930 . S
H649 C657 0.930 . S
H650 C658 0.930 . S
H651 C659 0.930 . S
H652 C662 0.930 . S
H653 C663 0.930 . S
C654 H648 0.930 . S
C654 C655 1.355 . S
C654 C656 1.415 . S
C655 C654 1.355 . S
C655 C657 1.419 . S
C656 C654 1.415 . S
C656 C661 1.425 . S
C656 C663 1.409 . S
C657 H649 0.930 . S
C657 C655 1.419 . S
C657 C658 1.362 . S
C658 H650 0.930 . S
C658 C657 1.362 . S
C658 C661 1.409 . S
C659 H651 0.930 . S
C659 C660 1.355 . S
C659 C661 1.415 . S
C660 C659 1.355 . S
C660 C662 1.419 . S
C661 C656 1.425 . S
C661 C658 1.409 . S
C661 C659 1.415 . S
C662 H652 0.930 . S
C662 C660 1.419 . S
C662 C663 1.362 . S
C663 H653 0.930 . S
C663 C656 1.409 . S
C663 C662 1.362 . S
H664 C670 0.930 . S
H665 C673 0.930 . S
H666 C674 0.930 . S
H667 C675 0.930 . S
H668 C678 0.930 . S
H669 C679 0.930 . S
C670 H664 0.930 . S
C670 C671 1.355 . S
C670 C672 1.415 . S
C671 C670 1.355 . S
C671 C673 1.419 . S
C672 C670 1.415 . S
C672 C677 1.425 . S
C672 C679 1.409 . S
C673 H665 0.930 . S
C673 C671 1.419 . S
C673 C674 1.362 . S
C674 H666 0.930 . S
C674 C673 1.362 . S
C674 C677 1.409 . S
C675 H667 0.930 . S
C675 C676 1.355 . S
C675 C677 1.415 . S
C676 C675 1.355 . S
C676 C678 1.419 . S
C677 C672 1.425 . S
C677 C674 1.409 . S
C677 C675 1.415 . S
C678 H668 0.930 . S
C678 C676 1.419 . S
C678 C679 1.362 . S
C679 H669 0.930 . S
C679 C672 1.409 . S
C679 C678 1.362 . S
H680 C686 0.930 . S
H681 C689 0.930 . S
H682 C690 0.930 . S
H683 C691 0.930 . S
H684 C694 0.930 . S
H685 C695 0.930 . S
C686 H680 0.930 . S
C686 C687 1.355 . S
C686 C688 1.415 . S
C687 C686 1.355 . S
C687 C689 1.419 . S
C688 C686 1.415 . S
C688 C693 1.425 . S
C688 C695 1.409 . S
C689 H681 0.930 . S
C689 C687 1.419 . S
C689 C690 1.362 . S
C690 H682 0.930 . S
C690 C689 1.362 . S
C690 C693 1.409 . S
C691 H683 0.930 . S
C691 C692 1.355 . S
C691 C693 1.415 . S
C692 C691 1.355 . S
C692 C694 1.419 . S
C693 C688 1.425 . S
C693 C690 1.409 . S
C693 C691 1.415 . S
C694 H684 0.930 . S
C694 C692 1.419 . S
C694 C695 1.362 . S
C695 H685 0.930 . S
C695 C688 1.409 . S
C695 C694 1.362 . S
C319 C6 1.238 . S
C324 C159 1.224 . S
C335 C21 1.461 . S
C340 C208 1.492 . S
C356 C234 1.932 . S
C351 C49 1.920 . S
C367 C68 2.101 . S
C372 C282 2.154 . S
C388 C194 2.921 . S
C383 C2 2.777 . S
C404 C162 0.347 . S
C399 C30 0.427 . S
C420 C283 1.925 . S
C415 C40 1.985 . S
C436 C251 1.593 . S
C431 C63 1.581 . S
C447 C11 1.427 . S
C452 C279 1.568 . S
C468 C211 2.621 . S
C463 C44 2.668 . S
C479 C59 1.995 . S
C484 C163 1.989 . S
C495 C25 1.422 . S
C500 C248 1.399 . S
C516 C168 1.417 . S
C511 C82 1.376 . S
C527 C101 1.318 . S
C532 C199 1.316 . S
C543 C125 2.261 . S
C548 C243 2.396 . S
C559 C144 1.906 . S
C564 C291 1.962 . S
C575 C87 1.933 . S
C580 C203 2.059 . S
C596 C171 1.697 . S
C591 C97 1.702 . S
C612 C274 1.712 . S
C607 C120 1.779 . S
C628 C242 1.672 . S
C623 C135 1.718 . S
C639 C78 1.854 . S
C644 C288 1.998 . S
C660 C202 1.906 . S
C655 C116 1.964 . S
C676 C154 2.632 . S
C671 C139 2.620 . S
C687 C106 0.764 . S
C692 C239 0.973 . S
