# Generated by pormake.
# Topology zzz, (3,6)-cn, num edge types: 1
# Building blocks:
#     Node 0, Type 0, BuildingBlock: BETDAH_clean_linker_0, # of connection points: 3
#     Node 1, Type 0, BuildingBlock: BETDAH_clean_linker_0, # of connection points: 3
#     Node 2, Type 0, BuildingBlock: BETDAH_clean_linker_0, # of connection points: 3
#     Node 3, Type 0, BuildingBlock: BETDAH_clean_linker_0, # of connection points: 3
#     Node 4, Type 0, BuildingBlock: BETDAH_clean_linker_0, # of connection points: 3
#     Node 5, Type 0, BuildingBlock: BETDAH_clean_linker_0, # of connection points: 3
#     Node 6, Type 0, BuildingBlock: BETDAH_clean_linker_0, # of connection points: 3
#     Node 7, Type 0, BuildingBlock: BETDAH_clean_linker_0, # of connection points: 3
#     Node 8, Type 1, BuildingBlock: KUMBOL_clean_sbu_0, # of connection points: 6
#     Node 9, Type 1, BuildingBlock: KUMBOL_clean_sbu_0, # of connection points: 6
#     Node 10, Type 1, BuildingBlock: KUMBOL_clean_sbu_0, # of connection points: 6
#     Node 11, Type 1, BuildingBlock: KUMBOL_clean_sbu_0, # of connection points: 6
#     Edge 12, Type (0, 1), BuildingBlock: ZUJKAS_clean_linker_0, # of connection points: 2
#     Edge 13, Type (0, 1), BuildingBlock: ZUJKAS_clean_linker_0, # of connection points: 2
#     Edge 14, Type (0, 1), BuildingBlock: ZUJKAS_clean_linker_0, # of connection points: 2
#     Edge 15, Type (0, 1), BuildingBlock: ZUJKAS_clean_linker_0, # of connection points: 2
#     Edge 16, Type (0, 1), BuildingBlock: ZUJKAS_clean_linker_0, # of connection points: 2
#     Edge 17, Type (0, 1), BuildingBlock: ZUJKAS_clean_linker_0, # of connection points: 2
#     Edge 18, Type (0, 1), BuildingBlock: ZUJKAS_clean_linker_0, # of connection points: 2
#     Edge 19, Type (0, 1), BuildingBlock: ZUJKAS_clean_linker_0, # of connection points: 2
#     Edge 20, Type (0, 1), BuildingBlock: ZUJKAS_clean_linker_0, # of connection points: 2
#     Edge 21, Type (0, 1), BuildingBlock: ZUJKAS_clean_linker_0, # of connection points: 2
#     Edge 22, Type (0, 1), BuildingBlock: ZUJKAS_clean_linker_0, # of connection points: 2
#     Edge 23, Type (0, 1), BuildingBlock: ZUJKAS_clean_linker_0, # of connection points: 2
#     Edge 24, Type (0, 1), BuildingBlock: ZUJKAS_clean_linker_0, # of connection points: 2
#     Edge 25, Type (0, 1), BuildingBlock: ZUJKAS_clean_linker_0, # of connection points: 2
#     Edge 26, Type (0, 1), BuildingBlock: ZUJKAS_clean_linker_0, # of connection points: 2
#     Edge 27, Type (0, 1), BuildingBlock: ZUJKAS_clean_linker_0, # of connection points: 2
#     Edge 28, Type (0, 1), BuildingBlock: ZUJKAS_clean_linker_0, # of connection points: 2
#     Edge 29, Type (0, 1), BuildingBlock: ZUJKAS_clean_linker_0, # of connection points: 2
#     Edge 30, Type (0, 1), BuildingBlock: ZUJKAS_clean_linker_0, # of connection points: 2
#     Edge 31, Type (0, 1), BuildingBlock: ZUJKAS_clean_linker_0, # of connection points: 2
#     Edge 32, Type (0, 1), BuildingBlock: ZUJKAS_clean_linker_0, # of connection points: 2
#     Edge 33, Type (0, 1), BuildingBlock: ZUJKAS_clean_linker_0, # of connection points: 2
#     Edge 34, Type (0, 1), BuildingBlock: ZUJKAS_clean_linker_0, # of connection points: 2
#     Edge 35, Type (0, 1), BuildingBlock: ZUJKAS_clean_linker_0, # of connection points: 2
# Relax obj value: 0.146
# Max RMSD: 0.152
# Mean RMSD: 0.113
data_MOF--net-zzz--node1-KUMBOL_clean_sbu_0--node2-BETDAH_clean_linker_0--edge1-ZUJKAS_clean_linker_0
_symmetry_space_group_name_H-M    P1
_symmetry_Int_Tables_number       1
_symmetry_cell_setting            triclinic
loop_
_symmetry_equiv_pos_as_xyz
'x, y, z'
_cell_length_a     65.900554
_cell_length_b     65.763162
_cell_length_c     19.164941
_cell_angle_alpha  90.863361
_cell_angle_beta   90.083406
_cell_angle_gamma 89.851627
loop_
_atom_site_label
_atom_site_type_symbol
_atom_site_fract_x
_atom_site_fract_y
_atom_site_fract_z
_atom_type_partial_charge
H0 H 0.80767 0.53258 0.11405 0.0
H1 H 0.74553 0.53107 0.04914 0.0
H2 H 0.76052 0.52587 0.2674 0.0
C3 C 0.79181 0.53094 0.12762 0.0
C4 C 0.78626 0.5286 0.19782 0.0
C5 C 0.77729 0.53146 0.07404 0.0
C6 C 0.75665 0.53062 0.09075 0.0
C7 C 0.75047 0.52875 0.16061 0.0
C8 C 0.76534 0.52774 0.21387 0.0
N9 N 0.7295 0.52751 0.17855 0.0
C10 C 0.71356 0.5273 0.13021 0.0
H11 H 0.97756 0.81911 0.12568 0.0
H12 H 0.9866 0.75834 0.04794 0.0
H13 H 1.00794 0.77521 0.25384 0.0
C14 C 0.98303 0.80378 0.13411 0.0
C15 C 0.99314 0.79927 0.19664 0.0
C16 C 0.98074 0.78917 0.08055 0.0
C17 C 0.98812 0.76941 0.09002 0.0
C18 C 0.99767 0.76409 0.15288 0.0
C19 C 1.00008 0.77911 0.20618 0.0
N20 N 1.00549 0.74405 0.16286 0.0
C21 C 1.00476 0.72821 0.11303 0.0
H22 H 0.71505 0.97517 0.15105 0.0
H23 H 0.77661 0.97953 0.08127 0.0
H24 H 0.76064 0.99964 0.28961 0.0
C25 C 0.73071 0.97911 0.16207 0.0
C26 C 0.73578 0.98798 0.22689 0.0
C27 C 0.7453 0.97612 0.1097 0.0
C28 C 0.76552 0.98155 0.12249 0.0
C29 C 0.77129 0.98968 0.18793 0.0
C30 C 0.75633 0.99281 0.23999 0.0
N31 N 0.7918 0.99534 0.20217 0.0
C32 C 0.8077 0.99408 0.15393 0.0
H33 H 0.55939 0.73044 0.19551 0.0
H34 H 0.55033 0.7899 0.11235 0.0
H35 H 0.53396 0.77788 0.32584 0.0
C36 C 0.55493 0.74619 0.2036 0.0
C37 C 0.54681 0.75243 0.26808 0.0
C38 C 0.55605 0.7596 0.14763 0.0
C39 C 0.54956 0.77976 0.15627 0.0
C40 C 0.54192 0.78662 0.22108 0.0
C41 C 0.54026 0.77277 0.2764 0.0
N42 N 0.53551 0.80715 0.2318 0.0
C43 C 0.53692 0.82232 0.18176 0.0
H44 H 0.22479 0.47971 0.07315 0.0
H45 H 0.28411 0.49299 0.15286 0.0
H46 H 0.26896 0.5078 0.94022 0.0
C47 C 0.24004 0.48525 0.06405 0.0
C48 C 0.24502 0.49348 0.99912 0.0
C49 C 0.25404 0.48518 0.11912 0.0
C50 C 0.27354 0.49297 0.10951 0.0
C51 C 0.27921 0.50088 0.04461 0.0
C52 C 0.26476 0.5014 0.98989 0.0
N53 N 0.29916 0.50859 0.03336 0.0
C54 C 0.31482 0.50821 0.0828 0.0
H55 H 0.03551 0.22321 0.10673 0.0
H56 H 0.03875 0.28669 0.16237 0.0
H57 H 0.01795 0.2682 0.95787 0.0
C58 C 0.03378 0.23904 0.09293 0.0
C59 C 0.02662 0.24367 0.026 0.0
C60 C 0.03835 0.2544 0.14238 0.0
C61 C 0.03521 0.2748 0.12469 0.0
C62 C 0.02757 0.27997 0.05879 0.0
C63 C 0.02375 0.26432 0.0089 0.0
N64 N 0.0233 0.30066 0.04222 0.0
C65 C 0.02362 0.31688 0.09068 0.0
H66 H 0.31104 0.05576 0.07055 0.0
H67 H 0.25051 0.0445 0.142 0.0
H68 H 0.26853 0.0251 0.93505 0.0
C69 C 0.29576 0.05042 0.05986 0.0
C70 C 0.29156 0.04071 0.99587 0.0
C71 C 0.2811 0.05153 0.11272 0.0
C72 C 0.26161 0.0438 0.10039 0.0
C73 C 0.25674 0.03462 0.03577 0.0
C74 C 0.27195 0.03278 0.98407 0.0
N75 N 0.23699 0.02657 0.02245 0.0
C76 C 0.22091 0.02744 0.07004 0.0
H77 H 0.48093 0.31036 0.05612 0.0
H78 H 0.48689 0.24848 0.12139 0.0
H79 H 0.49402 0.26336 0.90437 0.0
C80 C 0.48309 0.2944 0.04312 0.0
C81 C 0.48697 0.2887 0.97356 0.0
C82 C 0.48317 0.28003 0.09666 0.0
C83 C 0.48689 0.25952 0.08005 0.0
C84 C 0.49068 0.25334 0.01063 0.0
C85 C 0.49091 0.26805 0.95775 0.0
N86 N 0.49449 0.23255 0.99275 0.0
C87 C 0.49468 0.21676 0.04077 0.0
Gd88 Gd 0.99773 0.02576 0.54982 0.0
Gd89 Gd 0.0317 0.0139 0.69424 0.0
C90 C 0.03066 0.06695 0.85422 0.0
C91 C 0.06115 0.0855 0.82501 0.0
C92 C 0.05252 0.05418 0.76199 0.0
C93 C 0.03508 0.05242 0.80108 0.0
C94 C 0.06611 0.07041 0.77535 0.0
C95 C 0.04346 0.08374 0.86453 0.0
C96 C 0.01371 0.06401 0.89642 0.0
C97 C 1.00205 0.0466 0.88692 0.0
N98 N 0.02281 0.03615 0.78917 0.0
C99 C 1.007 0.03265 0.83388 0.0
H100 H 0.99818 0.01898 0.83121 0.0
C101 C 0.0764 0.03803 0.68881 0.0
N102 N 0.05706 0.03918 0.71513 0.0
C103 C 0.09019 0.0539 0.69914 0.0
C104 C 0.08479 0.07049 0.74106 0.0
H105 H 0.08159 0.02473 0.66045 0.0
H106 H 0.04007 0.09519 0.90411 0.0
H107 H 0.03044 0.99791 0.43972 0.0
H108 H 0.00983 0.0748 0.93759 0.0
H109 H 0.9893 0.04377 0.92095 0.0
H110 H 0.07124 0.09819 0.83503 0.0
H111 H 0.94955 0.03804 0.58207 0.0
H112 H 0.99454 0.96183 0.30357 0.0
H113 H 0.02786 0.97438 0.34301 0.0
H114 H 0.9265 0.9747 0.37632 0.0
H115 H 0.10514 0.05308 0.67596 0.0
H116 H 0.0956 0.08265 0.74988 0.0
H117 H 0.95703 0.96139 0.3182 0.0
H118 H 0.91515 0.0268 0.54884 0.0
N119 N 0.99831 1.0004 0.45858 0.0
C120 C 0.99539 0.97256 0.34696 0.0
C121 C 0.01418 0.9797 0.36877 0.0
C122 C 0.97792 0.97924 0.38141 0.0
C123 C 0.9798 0.99344 0.43725 0.0
C124 C 0.01541 0.99362 0.42428 0.0
N125 N 0.96457 0.01577 0.51903 0.0
C126 C 0.96251 1.00111 0.46917 0.0
C127 C 0.9283 0.0193 0.52641 0.0
C128 C 0.9259 1.0036 0.47752 0.0
C129 C 0.94781 0.0255 0.54551 0.0
C130 C 0.94306 0.99461 0.44708 0.0
H131 H 0.91076 0.99897 0.46203 0.0
O132 O 0.98063 0.04544 0.48082 0.0
O133 O 0.01549 0.03885 0.63959 0.0
O134 O 0.99956 1.00406 0.72352 0.0
O135 O 0.9773 0.01413 0.63547 0.0
O136 O 0.98505 0.04693 0.63225 0.0
O137 O 0.01149 0.05296 0.50766 0.0
O138 O 0.05828 0.99869 0.73602 0.0
O139 O 0.01221 1.0008 0.6092 0.0
O140 O 0.02969 0.02611 0.50726 0.0
O141 O 0.05151 0.01923 0.59991 0.0
O142 O 0.0401 0.98729 0.62339 0.0
O143 O 0.02864 0.99317 0.7803 0.0
C144 C 1.00175 0.05021 0.66576 0.0
C145 C 0.94128 0.97991 0.3937 0.0
C146 C 0.95866 0.97237 0.36058 0.0
C147 C 0.99437 0.05958 0.48291 0.0
C148 C 0.98798 0.07995 0.50815 0.0
C149 C 0.96817 0.08346 0.53288 0.0
C150 C 1.00227 0.09573 0.51239 0.0
C151 C 0.99693 0.11488 0.54066 0.0
C152 C 0.96284 0.10233 0.5616 0.0
C153 C 0.97705 0.11797 0.56531 0.0
C154 C 0.98098 1.00651 0.69785 0.0
C155 C 0.02344 0.98631 0.58821 0.0
C156 C 0.04757 0.98747 0.77726 0.0
C157 C 0.05142 0.96547 0.77223 0.0
C158 C 0.06972 0.9577 0.7976 0.0
C159 C 0.03696 0.95219 0.74263 0.0
C160 C 0.04009 0.93098 0.74249 0.0
C161 C 0.0734 0.93685 0.79519 0.0
C162 C 0.05868 0.92356 0.76894 0.0
C163 C 0.04805 0.02365 0.5339 0.0
H164 H 0.95681 0.07162 0.5308 0.0
H165 H 0.01763 0.09299 0.49433 0.0
H166 H 0.94756 0.1049 0.58049 0.0
H167 H 0.97227 0.13268 0.58552 0.0
H168 H 0.0811 0.96777 0.8198 0.0
H169 H 0.02315 0.95846 0.7211 0.0
H170 H 0.0875 0.93088 0.81563 0.0
H171 H 0.06172 0.90744 0.77236 0.0
Gd172 Gd 0.51017 1.00103 0.54554 0.0
Gd173 Gd 0.5205 0.03817 0.68589 0.0
C174 C 0.46702 0.05008 0.83612 0.0
C175 C 0.45761 0.08476 0.80901 0.0
C176 C 0.48581 0.06821 0.74851 0.0
C177 C 0.48263 0.05071 0.78558 0.0
C178 C 0.47366 0.08564 0.76121 0.0
C179 C 0.45437 0.06705 0.84669 0.0
C180 C 0.46477 0.03258 0.8756 0.0
C181 C 0.47825 0.01649 0.86581 0.0
N182 N 0.49522 0.03459 0.77424 0.0
C183 C 0.49351 0.01781 0.81554 0.0
H184 H 0.50334 1.00492 0.80991 0.0
C185 C 0.50776 0.08702 0.67748 0.0
N186 N 0.50175 0.06875 0.704 0.0
C187 C 0.49602 0.10455 0.68718 0.0
C188 C 0.47861 0.10375 0.7281 0.0
H189 H 0.52176 0.08807 0.64865 0.0
H190 H 0.44237 0.06682 0.88526 0.0
H191 H 0.53766 0.03255 0.43413 0.0
H192 H 0.45293 0.03147 0.91451 0.0
H193 H 0.47685 1.00294 0.89681 0.0
H194 H 0.44807 0.09793 0.81904 0.0
H195 H 0.49992 0.95329 0.58928 0.0
H196 H 0.57397 0.99483 0.30399 0.0
H197 H 0.56117 0.02869 0.33879 0.0
H198 H 0.56227 0.92775 0.38549 0.0
H199 H 0.50062 0.11872 0.66405 0.0
H200 H 0.46966 0.11742 0.73649 0.0
H201 H 0.57487 0.95752 0.32339 0.0
H202 H 0.51144 0.91847 0.55999 0.0
N203 N 0.53561 1.00063 0.4566 0.0
C204 C 0.56329 0.99625 0.34675 0.0
C205 C 0.55603 0.01535 0.36599 0.0
C206 C 0.55689 0.97922 0.38319 0.0
C207 C 0.54281 0.98183 0.43831 0.0
C208 C 0.54217 0.01731 0.42066 0.0
N209 N 0.5212 0.96756 0.52257 0.0
C210 C 0.53562 0.96492 0.47285 0.0
C211 C 0.51847 0.93137 0.5354 0.0
C212 C 0.53388 0.9284 0.48658 0.0
C213 C 0.51205 0.9511 0.55198 0.0
C214 C 0.54239 0.9452 0.45367 0.0
H215 H 0.53871 0.91307 0.47325 0.0
O216 O 0.49212 0.98176 0.47639 0.0
O217 O 0.49655 0.0202 0.63077 0.0
O218 O 0.52738 1.00643 0.72548 0.0
O219 O 0.52406 0.9829 0.63352 0.0
O220 O 0.48833 0.98975 0.62665 0.0
O221 O 0.48263 0.0126 0.4974 0.0
O222 O 0.53901 0.06222 0.73082 0.0
O223 O 0.53398 0.01779 0.60432 0.0
O224 O 0.50908 0.03215 0.49778 0.0
O225 O 0.51116 0.05575 0.58993 0.0
O226 O 0.54619 0.04646 0.613 0.0
O227 O 0.54173 0.03169 0.76964 0.0
C228 C 0.48485 1.00707 0.65698 0.0
C229 C 0.55686 0.94275 0.40066 0.0
C230 C 0.56399 0.95969 0.36523 0.0
C231 C 0.4773 0.99477 0.47374 0.0
C232 C 0.45709 0.98766 0.49573 0.0
C233 C 0.45444 0.96826 0.52422 0.0
C234 C 0.4405 1.00101 0.49295 0.0
C235 C 0.42145 0.99535 0.51931 0.0
C236 C 0.4356 0.9625 0.55025 0.0
C237 C 0.4192 0.97591 0.54798 0.0
C238 C 0.52851 0.98766 0.69926 0.0
C239 C 0.54789 0.02905 0.58165 0.0
C240 C 0.54953 0.04987 0.76871 0.0
C241 C 0.57169 0.05157 0.76133 0.0
C242 C 0.5809 0.07031 0.77625 0.0
C243 C 0.58366 0.03505 0.73803 0.0
C244 C 0.60493 0.03691 0.73314 0.0
C245 C 0.60178 0.07254 0.76908 0.0
C246 C 0.61375 0.05601 0.74853 0.0
C247 C 0.50863 0.05096 0.52314 0.0
H248 H 0.46693 0.9576 0.52738 0.0
H249 H 0.44249 0.01581 0.46981 0.0
H250 H 0.43372 0.9476 0.57261 0.0
H251 H 0.40481 0.97106 0.56909 0.0
H252 H 0.57189 0.08325 0.79346 0.0
H253 H 0.57642 0.02075 0.72473 0.0
H254 H 0.6088 0.08704 0.78119 0.0
H255 H 0.63001 0.05814 0.74775 0.0
Gd256 Gd 0.4912 0.52706 0.6835 0.0
Gd257 Gd 0.53177 0.51601 0.5573 0.0
C258 C 0.59956 0.51826 0.60852 0.0
C259 C 0.61086 0.54684 0.53982 0.0
C260 C 0.57552 0.53628 0.53643 0.0
C261 C 0.57961 0.52115 0.58358 0.0
C262 C 0.59116 0.54904 0.51281 0.0
C263 C 0.61505 0.53146 0.58762 0.0
C264 C 0.60345 0.50185 0.65218 0.0
C265 C 0.58776 0.48856 0.66853 0.0
N266 N 0.56429 0.50866 0.60249 0.0
C267 C 0.56825 0.49204 0.64238 0.0
H268 H 0.55638 0.48162 0.65601 0.0
C269 C 0.55212 0.55102 0.45839 0.0
N270 N 0.55639 0.53788 0.51112 0.0
C271 C 0.56709 0.56406 0.43339 0.0
C272 C 0.58665 0.56326 0.46138 0.0
H273 H 0.53697 0.55185 0.43703 0.0
H274 H 0.63041 0.52961 0.60684 0.0
H275 H 0.46881 0.56298 0.58343 0.0
H276 H 0.61856 0.49904 0.67217 0.0
H277 H 0.59066 0.47564 0.70144 0.0
H278 H 0.62304 0.55662 0.52284 0.0
H279 H 0.48364 0.49053 0.7991 0.0
H280 H 0.40555 0.5506 0.57134 0.0
H281 H 0.43503 0.5718 0.54113 0.0
H282 H 0.3974 0.49217 0.71453 0.0
H283 H 0.56351 0.57477 0.39283 0.0
H284 H 0.59823 0.57335 0.44188 0.0
H285 H 0.39176 0.52041 0.63396 0.0
H286 H 0.45567 0.46901 0.84139 0.0
N287 N 0.45929 0.5364 0.63681 0.0
C288 C 0.42051 0.54646 0.58993 0.0
C289 C 0.43709 0.55851 0.57304 0.0
C290 C 0.42337 0.52944 0.63164 0.0
C291 C 0.44315 0.52487 0.65517 0.0
C292 C 0.45638 0.55338 0.59761 0.0
N293 N 0.4652 0.50615 0.72601 0.0
C294 C 0.44624 0.50916 0.70088 0.0
C295 C 0.4528 0.48019 0.80168 0.0
C296 C 0.43334 0.48248 0.77397 0.0
C297 C 0.46858 0.49241 0.7777 0.0
C298 C 0.42977 0.49734 0.72386 0.0
H299 H 0.4211 0.47308 0.79287 0.0
O300 O 0.48816 0.53241 0.79469 0.0
O301 O 0.52443 0.52484 0.66613 0.0
O302 O 0.52267 0.48761 0.61688 0.0
O303 O 0.48963 0.49348 0.65531 0.0
O304 O 0.51387 0.51269 0.75733 0.0
O305 O 0.4887 0.55795 0.72474 0.0
O306 O 0.53161 0.50939 0.44626 0.0
O307 O 0.49846 0.51767 0.57541 0.0
O308 O 0.50108 0.55542 0.62436 0.0
O309 O 0.53422 0.54922 0.58741 0.0
O310 O 0.50863 0.52978 0.48371 0.0
O311 O 0.53906 0.48563 0.51941 0.0
C312 C 0.52996 0.51661 0.72206 0.0
C313 C 0.41022 0.50117 0.69793 0.0
C314 C 0.40701 0.51725 0.6521 0.0
C315 C 0.49085 0.55193 0.78895 0.0
C316 C 0.50809 0.5606 0.82889 0.0
C317 C 0.51713 0.54942 0.88279 0.0
C318 C 0.51656 0.57939 0.81048 0.0
C319 C 0.5341 0.58667 0.84428 0.0
C320 C 0.53453 0.55657 0.9162 0.0
C321 C 0.5431 0.57499 0.89685 0.0
C322 C 0.50495 0.48104 0.64042 0.0
C323 C 0.49268 0.52584 0.51971 0.0
C324 C 0.5336 0.48989 0.45574 0.0
C325 C 0.51784 0.47682 0.42351 0.0
C326 C 0.5067 0.48372 0.36591 0.0
C327 C 0.5134 0.45762 0.45112 0.0
C328 C 0.49835 0.44514 0.42077 0.0
C329 C 0.4915 0.47169 0.3364 0.0
C330 C 0.48744 0.45252 0.36299 0.0
C331 C 0.519 0.5618 0.60164 0.0
H332 H 0.51095 0.53495 0.89858 0.0
H333 H 0.5097 0.58826 0.76942 0.0
H334 H 0.54129 0.54782 0.95761 0.0
H335 H 0.55639 0.58043 0.92468 0.0
H336 H 0.50969 0.49845 0.34364 0.0
H337 H 0.52171 0.45242 0.4962 0.0
H338 H 0.48305 0.47711 0.29187 0.0
H339 H 0.47618 0.44329 0.33641 0.0
Gd340 Gd 1.00728 0.50201 0.67839 0.0
Gd341 Gd 0.02146 0.53886 0.54528 0.0
C342 C 0.02308 0.60778 0.58631 0.0
C343 C 0.99722 0.61993 0.50658 0.0
C344 C 1.00532 0.58387 0.51139 0.0
C345 C 0.01946 0.58766 0.5628 0.0
C346 C 0.9944 0.59999 0.48118 0.0
C347 C 0.01152 0.62381 0.55922 0.0
C348 C 0.03858 0.61125 0.63485 0.0
C349 C 0.0505 0.59499 0.65659 0.0
N350 N 0.03042 0.57178 0.58721 0.0
C351 C 0.04641 0.57535 0.63137 0.0
H352 H 0.05577 0.56315 0.64978 0.0
C353 C 0.9913 0.56031 0.43086 0.0
N354 N 1.00312 0.56449 0.48796 0.0
C355 C 0.98018 0.57576 0.39891 0.0
C356 C 0.98148 0.59565 0.42492 0.0
H357 H 0.98998 0.54489 0.41111 0.0
H358 H 0.01393 0.63932 0.5772 0.0
H359 H 0.97224 0.47687 0.58041 0.0
H360 H 0.04178 0.62644 0.65453 0.0
H361 H 0.06279 0.59753 0.69318 0.0
H362 H 0.98881 0.63249 0.48462 0.0
H363 H 0.04164 0.49751 0.80551 0.0
H364 H 0.98713 0.41372 0.57837 0.0
H365 H 0.9651 0.44206 0.54104 0.0
H366 H 0.04315 0.40959 0.73689 0.0
H367 H 0.97051 0.57227 0.35467 0.0
H368 H 0.97285 0.6076 0.40018 0.0
H369 H 0.01655 0.40181 0.65034 0.0
H370 H 0.06287 0.47081 0.85843 0.0
N371 N 0.9986 0.46893 0.63896 0.0
C372 C 0.99043 0.4291 0.5959 0.0
C373 C 0.97794 0.44504 0.57493 0.0
C374 C 1.00665 0.43312 0.64104 0.0
C375 C 0.01025 0.45342 0.66252 0.0
C376 C 0.9821 0.46489 0.5977 0.0
N377 N 0.02741 0.47726 0.73306 0.0
C378 C 0.02515 0.45773 0.71111 0.0
C379 C 0.05237 0.46691 0.8169 0.0
C380 C 0.05091 0.44686 0.79247 0.0
C381 C 0.04028 0.48197 0.787 0.0
C382 C 0.03697 0.44199 0.73968 0.0
H383 H 0.06028 0.4352 0.81573 0.0
O384 O 1.00018 0.50296 0.78865 0.0
O385 O 0.0102 0.53488 0.65308 0.0
O386 O 0.0484 0.52994 0.61424 0.0
O387 O 0.04076 0.49785 0.65589 0.0
O388 O 0.0213 0.52621 0.74856 0.0
O389 O 0.97596 0.49971 0.71278 0.0
O390 O 0.02965 0.53686 0.43581 0.0
O391 O 0.01769 0.50611 0.56996 0.0
O392 O 0.9799 0.51062 0.61192 0.0
O393 O 0.98726 0.54152 0.5591 0.0
O394 O 1.00689 0.51516 0.47453 0.0
O395 O 0.05316 0.53969 0.51404 0.0
C396 C 0.01791 0.54154 0.70929 0.0
C397 C 0.0341 0.42188 0.7161 0.0
C398 C 0.01896 0.41745 0.66683 0.0
C399 C 0.98075 0.50457 0.77701 0.0
C400 C 0.97066 0.52282 0.807 0.0
C401 C 0.98125 0.53598 0.85272 0.0
C402 C 0.9508 0.52795 0.7867 0.0
C403 C 0.94168 0.54609 0.81095 0.0
C404 C 0.97238 0.55405 0.87625 0.0
C405 C 0.95279 0.55918 0.85529 0.0
C406 C 0.05397 0.51234 0.64167 0.0
C407 C 0.00966 0.49971 0.51389 0.0
C408 C 0.04881 0.53437 0.44993 0.0
C409 C 0.05823 0.51526 0.42378 0.0
C410 C 0.04733 0.5019 0.37958 0.0
C411 C 0.07758 0.50945 0.44733 0.0
C412 C 0.08589 0.49047 0.42784 0.0
C413 C 0.05535 0.48295 0.3611 0.0
C414 C 0.07446 0.4772 0.38511 0.0
C415 C 0.97425 0.52726 0.57848 0.0
H416 H 0.99655 0.53253 0.86965 0.0
H417 H 0.94237 0.51765 0.75287 0.0
H418 H 0.98075 0.56409 0.91098 0.0
H419 H 0.94624 0.57332 0.87432 0.0
H420 H 0.03241 0.50585 0.3603 0.0
H421 H 0.0861 0.51961 0.48134 0.0
H422 H 0.04674 0.47269 0.32777 0.0
H423 H 0.08054 0.46264 0.36815 0.0
H424 H 0.18368 0.04324 0.04622 0.0
H425 H 0.15444 0.04355 0.12578 0.0
H426 H 0.1902 0.01249 0.2801 0.0
H427 H 0.21951 0.01252 0.20084 0.0
H428 H 0.13372 0.01182 0.18251 0.0
H429 H 0.16698 0.05917 0.39501 0.0
H430 H 0.17842 0.057 0.30972 0.0
H431 H 0.18204 0.03727 0.37257 0.0
C432 C 0.18527 0.03664 0.09741 0.0
C433 C 0.20379 0.02797 0.11782 0.0
C434 C 0.16857 0.03677 0.14279 0.0
C435 C 0.1701 0.02832 0.20963 0.0
C436 C 0.18868 0.01953 0.22966 0.0
H437 H 0.08641 1.00817 0.55284 0.0
H438 H 0.1154 0.00975 0.4739 0.0
C439 C 0.20539 0.01943 0.18425 0.0
C440 C 0.15211 0.02818 0.25727 0.0
H441 H 0.13567 0.04294 0.41975 0.0
C442 C 0.13413 0.01875 0.23421 0.0
C443 C 0.15254 0.03717 0.32494 0.0
C444 C 0.17095 0.0484 0.35192 0.0
C445 C 0.11683 0.01767 0.27719 0.0
C446 C 0.1173 0.02659 0.34495 0.0
C447 C 0.13525 0.03608 0.36795 0.0
C448 C 0.09947 0.02599 0.39316 0.0
C449 C 0.09838 1.00648 0.2503 0.0
C450 C 0.08077 0.03481 0.37483 0.0
C451 C 0.06412 0.03409 0.42037 0.0
C452 C 0.06581 0.02472 0.48574 0.0
C453 C 0.08459 0.01598 0.50395 0.0
C454 C 0.10121 0.01672 0.45846 0.0
H455 H 0.10219 0.99611 0.20589 0.0
H456 H 0.09127 0.99745 0.29217 0.0
H457 H 0.08705 0.01767 0.23171 0.0
H458 H 0.07908 0.04239 0.3254 0.0
H459 H 0.04995 0.04101 0.40449 0.0
H460 H 0.512 0.21624 0.16877 0.0
H461 H 0.51334 0.18746 0.24925 0.0
H462 H 0.47912 0.15094 0.1021 0.0
H463 H 0.47809 0.17961 0.0214 0.0
H464 H 0.48247 0.16608 0.31223 0.0
H465 H 0.52745 0.11431 0.14101 0.0
H466 H 0.52473 0.14109 0.12396 0.0
H467 H 0.50466 0.12371 0.10135 0.0
C468 C 0.50483 0.20201 0.15381 0.0
C469 C 0.49505 0.19998 0.08905 0.0
C470 C 0.50557 0.1856 0.19971 0.0
C471 C 0.49664 0.16685 0.18139 0.0
C472 C 0.48654 0.16503 0.11689 0.0
H473 H 0.48875 0.05019 0.39716 0.0
H474 H 0.4848 0.0781 0.31442 0.0
C475 C 0.48583 0.18143 0.07102 0.0
C476 C 0.49766 0.14936 0.23015 0.0
H477 H 0.51438 0.10028 0.2448 0.0
C478 C 0.4895 0.15172 0.29748 0.0
C479 C 0.50675 0.13053 0.21101 0.0
C480 C 0.51657 0.12724 0.14065 0.0
C481 C 0.49 0.1358 0.34577 0.0
C482 C 0.49925 0.11704 0.32686 0.0
C483 C 0.50723 0.1146 0.25932 0.0
C484 C 0.50142 0.10006 0.3772 0.0
C485 C 0.48032 0.13912 0.41635 0.0
C486 C 0.51241 0.1029 0.43937 0.0
C487 C 0.51469 0.087 0.48649 0.0
C488 C 0.50604 0.06783 0.47285 0.0
C489 C 0.49543 0.06482 0.40973 0.0
C490 C 0.49315 0.08077 0.3624 0.0
H491 H 0.46902 0.15169 0.41557 0.0
H492 H 0.47268 0.1251 0.43427 0.0
H493 H 0.49224 0.14326 0.45494 0.0
H494 H 0.51955 0.11738 0.451 0.0
H495 H 0.5238 0.08962 0.53254 0.0
H496 H 0.3204 0.53343 0.19415 0.0
H497 H 0.34988 0.5346 0.27303 0.0
H498 H 0.37673 0.484 0.16066 0.0
H499 H 0.34738 0.48307 0.08132 0.0
H500 H 0.36666 0.50596 0.36164 0.0
H501 H 0.42187 0.52606 0.15578 0.0
H502 H 0.3948 0.52718 0.14207 0.0
H503 H 0.40789 0.50316 0.13805 0.0
C504 C 0.33261 0.52256 0.18659 0.0
C505 C 0.33175 0.50823 0.13167 0.0
C506 C 0.34944 0.5232 0.23167 0.0
C507 C 0.36578 0.5096 0.22236 0.0
C508 C 0.36459 0.49494 0.16826 0.0
H509 H 0.46434 0.49547 0.535 0.0
H510 H 0.43336 0.49022 0.46582 0.0
C511 C 0.34777 0.49431 0.1232 0.0
C512 C 0.38407 0.51097 0.26869 0.0
H513 H 0.43526 0.51936 0.26738 0.0
C514 C 0.38168 0.50893 0.3411 0.0
C515 C 0.40369 0.51492 0.24217 0.0
C516 C 0.40728 0.51815 0.16537 0.0
C517 C 0.39823 0.51083 0.38755 0.0
C518 C 0.41795 0.5147 0.36108 0.0
C519 C 0.42028 0.51649 0.28838 0.0
C520 C 0.43625 0.51798 0.40697 0.0
C521 C 0.39414 0.50923 0.46458 0.0
C522 C 0.44868 0.53505 0.39681 0.0
C523 C 0.46662 0.53774 0.43506 0.0
C524 C 0.47245 0.52374 0.48594 0.0
C525 C 0.45996 0.50681 0.49744 0.0
C526 C 0.44215 0.50386 0.45791 0.0
H527 H 0.37805 0.5127 0.47733 0.0
H528 H 0.39737 0.49348 0.48141 0.0
H529 H 0.40393 0.51975 0.49483 0.0
H530 H 0.44467 0.54625 0.35824 0.0
H531 H 0.47607 0.5508 0.42453 0.0
H532 H 0.99823 0.34912 0.08624 0.0
H533 H 0.99715 0.37862 0.16633 0.0
H534 H 0.04654 0.35323 0.28481 0.0
H535 H 0.04777 0.32383 0.20387 0.0
H536 H 0.98975 0.3804 0.3067 0.0
H537 H 0.0667 0.41081 0.25562 0.0
H538 H 0.05504 0.39174 0.20011 0.0
H539 H 0.06623 0.38472 0.28192 0.0
C540 C 0.00891 0.34992 0.12924 0.0
C541 C 0.02313 0.33429 0.13879 0.0
C542 C 1.00829 0.36678 0.17509 0.0
C543 C 0.02197 0.36846 0.23137 0.0
C544 C 0.03611 0.35265 0.24114 0.0
H545 H 0.03649 0.46849 0.54316 0.0
H546 H 0.03941 0.43546 0.48146 0.0
C547 C 0.03672 0.33576 0.19516 0.0
C548 C 0.02087 0.38644 0.28051 0.0
H549 H 0.04769 0.42729 0.34442 0.0
C550 C 1.00246 0.3906 0.31491 0.0
C551 C 0.03744 0.39981 0.29207 0.0
C552 C 0.05743 0.39672 0.25512 0.0
C553 C 1.00012 0.40762 0.35982 0.0
C554 C 0.01652 0.42128 0.37015 0.0
C555 C 0.0351 0.41689 0.33704 0.0
C556 C 0.01427 0.44082 0.41106 0.0
C557 C 0.98001 0.41063 0.39607 0.0
C558 C 0.99932 0.45501 0.39231 0.0
C559 C 0.99751 0.47366 0.42797 0.0
C560 C 0.0106 0.47877 0.48346 0.0
C561 C 0.02574 0.46473 0.50217 0.0
C562 C 0.02754 0.44594 0.46636 0.0
H563 H 0.97207 0.39593 0.40315 0.0
H564 H 0.98193 0.41809 0.44786 0.0
H565 H 0.97013 0.42039 0.36361 0.0
H566 H 0.98928 0.45188 0.34872 0.0
H567 H 0.98601 0.48434 0.41122 0.0
H568 H 0.82336 0.96123 0.08544 0.0
H569 H 0.85355 0.96031 0.00988 0.0
H570 H 0.86106 0.02496 0.04088 0.0
H571 H 0.83114 0.02575 0.11708 0.0
H572 H 0.86194 0.97908 0.88768 0.0
H573 H 0.91733 1.00437 0.08793 0.0
H574 H 0.89195 0.99645 0.10973 0.0
H575 H 0.8965 0.02177 0.07908 0.0
C576 C 0.83153 0.97519 0.076 0.0
C577 C 0.82506 0.99355 0.10707 0.0
C578 C 0.84877 0.97468 0.03289 0.0
C579 C 0.85993 0.99249 0.02052 0.0
C580 C 0.85312 0.01091 0.0508 0.0
H581 H 0.94176 0.01972 0.68469 0.0
H582 H 0.91317 0.01411 0.76161 0.0
C583 C 0.83591 0.0114 0.09387 0.0
C584 C 0.87836 0.99195 0.97483 0.0
H585 H 0.92861 1.00503 0.96944 0.0
C586 C 0.87654 0.98461 0.90584 0.0
C587 C 0.89762 0.99878 0.99846 0.0
C588 C 0.90107 1.00559 0.07305 0.0
C589 C 0.89312 0.98464 0.85941 0.0
C590 C 0.91207 0.99254 0.88191 0.0
C591 C 0.9141 0.99916 0.95165 0.0
C592 C 0.92962 0.99498 0.83316 0.0
C593 C 0.89014 0.97606 0.78666 0.0
C594 C 0.94876 0.98647 0.84777 0.0
C595 C 0.96535 0.98967 0.80311 0.0
C596 C 0.96321 1.00156 0.74298 0.0
C597 C 0.944 0.00999 0.72882 0.0
C598 C 0.92751 1.00682 0.77324 0.0
H599 H 0.87751 0.96491 0.78477 0.0
H600 H 0.88623 0.98861 0.75096 0.0
H601 H 0.90414 0.9685 0.76707 0.0
H602 H 0.95089 0.9774 0.89393 0.0
H603 H 0.97989 0.983 0.81613 0.0
H604 H 0.54399 0.86197 0.21032 0.0
H605 H 0.54457 0.89006 0.12714 0.0
H606 H 0.53312 0.84752 0.95813 0.0
H607 H 0.53221 0.81952 0.04161 0.0
H608 H 0.56875 0.89741 0.01307 0.0
H609 H 0.48849 0.88928 0.9301 0.0
H610 H 0.49861 0.87663 0.00549 0.0
H611 H 0.50307 0.86636 0.91932 0.0
C612 C 0.5416 0.8587 0.15534 0.0
C613 C 0.53795 0.83871 0.13208 0.0
C614 C 0.54196 0.87472 0.10786 0.0
C615 C 0.53856 0.87102 0.03633 0.0
C616 C 0.53535 0.85088 0.0131 0.0
H617 H 0.53335 0.94686 0.669 0.0
H618 H 0.53689 0.91898 0.7505 0.0
C619 C 0.53496 0.83487 0.06064 0.0
C620 C 0.53833 0.88823 0.98632 0.0
H621 H 0.50873 0.91207 0.86547 0.0
C622 C 0.55559 0.90065 0.98102 0.0
C623 C 0.52114 0.89258 0.94455 0.0
C624 C 0.5017 0.88065 0.95046 0.0
C625 C 0.55624 0.91699 0.93432 0.0
C626 C 0.53913 0.92116 0.89217 0.0
C627 C 0.52189 0.90879 0.89751 0.0
C628 C 0.53865 0.93835 0.84241 0.0
C629 C 0.57533 0.92948 0.92936 0.0
C630 C 0.53877 0.95861 0.86658 0.0
C631 C 0.5364 0.97468 0.81986 0.0
C632 C 0.53371 0.97083 0.74785 0.0
C633 C 0.53466 0.95052 0.7238 0.0
C634 C 0.53686 0.93448 0.7705 0.0
H635 H 0.58847 0.92189 0.95451 0.0
H636 H 0.57913 0.93239 0.87397 0.0
H637 H 0.57288 0.94439 0.95588 0.0
H638 H 0.54005 0.962 0.92189 0.0
H639 H 0.53611 0.99007 0.8407 0.0
H640 H 0.68036 0.50372 0.14108 0.0
H641 H 0.65044 0.50326 0.06456 0.0
H642 H 0.67747 0.54962 0.93807 0.0
H643 H 0.70757 0.54982 0.01432 0.0
H644 H 0.62398 0.53437 0.03792 0.0
H645 H 0.65975 0.50844 0.78987 0.0
H646 H 0.67249 0.50664 0.87302 0.0
H647 H 0.67114 0.53059 0.82923 0.0
C648 C 0.67994 0.51366 0.09651 0.0
C649 C 0.69622 0.52673 0.0832 0.0
C650 C 0.66285 0.51342 0.05284 0.0
C651 C 0.66171 0.5262 0.9947 0.0
C652 C 0.67809 0.53929 0.98147 0.0
H653 H 0.55965 0.54547 0.70189 0.0
H654 H 0.59192 0.54909 0.76577 0.0
C655 C 0.69522 0.53951 0.02526 0.0
C656 C 0.64297 0.52635 0.95042 0.0
H657 H 0.62507 0.51791 0.78454 0.0
C658 C 0.62427 0.53069 0.98257 0.0
C659 C 0.64325 0.52182 0.87781 0.0
C660 C 0.66268 0.51643 0.84035 0.0
C661 C 0.60597 0.53045 0.94463 0.0
C662 C 0.60617 0.52548 0.87254 0.0
C663 C 0.62488 0.52164 0.8398 0.0
C664 C 0.58697 0.52314 0.83167 0.0
C665 C 0.5865 0.53599 0.98153 0.0
C666 C 0.57355 0.50724 0.84666 0.0
C667 C 0.55528 0.50506 0.80995 0.0
C668 C 0.55009 0.51853 0.75654 0.0
C669 C 0.56348 0.53452 0.74146 0.0
C670 C 0.58186 0.53668 0.77824 0.0
H671 H 0.58925 0.54259 0.0344 0.0
H672 H 0.57793 0.54718 0.95028 0.0
H673 H 0.57696 0.52224 0.98697 0.0
H674 H 0.5772 0.49651 0.88716 0.0
H675 H 0.54516 0.49277 0.82331 0.0
H676 H 0.99503 0.68938 0.14224 0.0
H677 H 0.99631 0.65965 0.06313 0.0
H678 H 0.01557 0.69811 0.89548 0.0
H679 H 0.01449 0.72783 0.97514 0.0
H680 H 0.97608 0.65079 0.9401 0.0
H681 H 0.05903 0.65398 0.89153 0.0
H682 H 0.04696 0.66863 0.96023 0.0
H683 H 0.04538 0.67682 0.87133 0.0
C684 C 0.99949 0.69145 0.08842 0.0
C685 C 1.00473 0.71083 0.06475 0.0
C686 C 1.00021 0.67446 0.04315 0.0
C687 C 1.00633 0.67644 0.97324 0.0
C688 C 0.0112 0.69599 0.94931 0.0
H689 H 0.99123 0.57234 0.67376 0.0
H690 H 0.98785 0.60607 0.72995 0.0
C691 C 0.01046 0.713 0.9947 0.0
C692 C 1.00761 0.65801 0.92615 0.0
H693 H 0.04069 0.62866 0.83025 0.0
C694 C 0.9902 0.64601 0.91583 0.0
C695 C 0.02602 0.65161 0.89447 0.0
C696 C 0.04548 0.66329 0.90522 0.0
C697 C 0.99073 0.62777 0.87602 0.0
C698 C 0.00918 0.62127 0.84461 0.0
C699 C 0.0265 0.63351 0.8539 0.0
C700 C 0.01137 0.60112 0.80708 0.0
C701 C 0.97165 0.61526 0.87049 0.0
C702 C 0.02609 0.58715 0.82961 0.0
C703 C 0.02828 0.56811 0.79665 0.0
C704 C 0.016 0.56249 0.73955 0.0
C705 C 1.0012 0.57636 0.71671 0.0
C706 C 0.99907 0.59557 0.74961 0.0
H707 H 0.96041 0.61958 0.91126 0.0
H708 H 0.96452 0.61766 0.81878 0.0
H709 H 0.97516 0.59887 0.8753 0.0
H710 H 0.03576 0.59085 0.87373 0.0
H711 H 0.03963 0.55767 0.81612 0.0
H712 H 0.02839 0.27301 0.26744 0.0
H713 H 0.03405 0.25993 0.38395 0.0
H714 H 0.06729 0.20913 0.29537 0.0
H715 H 0.06353 0.22318 0.18013 0.0
H716 H 0.01637 0.22883 0.41808 0.0
H717 H 0.09552 0.21113 0.47394 0.0
H718 H 0.08881 0.22874 0.40618 0.0
H719 H 0.09121 0.2018 0.38716 0.0
C720 C 0.03777 0.25959 0.27291 0.0
C721 C 0.04505 0.24886 0.2139 0.0
C722 C 0.04094 0.25207 0.33988 0.0
C723 C 0.05108 0.23347 0.34913 0.0
C724 C 0.0598 0.22371 0.29069 0.0
H725 H 0.02359 0.12408 0.43715 0.0
H726 H 0.04199 0.15568 0.42301 0.0
C727 C 0.05713 0.2315 0.22408 0.0
C728 C 0.04837 0.22187 0.41443 0.0
H729 H 0.07057 0.18284 0.50184 0.0
C730 C 0.02844 0.21945 0.43882 0.0
C731 C 0.06403 0.20978 0.44306 0.0
C732 C 0.08609 0.21326 0.42649 0.0
C733 C 0.0233 0.20338 0.48238 0.0
C734 C 0.03853 0.1894 0.50201 0.0
C735 C 0.05886 0.19338 0.48555 0.0
C736 C 0.03281 0.16865 0.5225 0.0
C737 C 1.00122 0.2001 0.5 0.0
C738 C 0.02243 0.16506 0.58489 0.0
C739 C 0.01177 0.1469 0.5931 0.0
C740 C 0.01144 0.13211 0.5392 0.0
C741 C 0.02354 0.13503 0.4799 0.0
C742 C 0.03415 0.15313 0.47176 0.0
H743 H 0.99121 0.2121 0.47848 0.0
H744 H 0.99609 0.18513 0.47911 0.0
H745 H 0.99928 0.20007 0.5575 0.0
H746 H 0.02138 0.17682 0.62492 0.0
H747 H 1.00295 0.1449 0.63997 0.0
H748 H 0.29758 0.08762 0.15763 0.0
H749 H 0.31623 0.0932 0.2673 0.0
H750 H 0.29946 0.03305 0.33324 0.0
H751 H 0.27977 0.02816 0.22683 0.0
H752 H 0.30534 0.05662 0.44415 0.0
H753 H 0.37012 0.06669 0.26012 0.0
H754 H 0.3509 0.08601 0.26019 0.0
H755 H 0.34507 0.06072 0.22896 0.0
C756 C 0.2973 0.076 0.19709 0.0
C757 C 0.28752 0.05738 0.18394 0.0
C758 C 0.30808 0.07909 0.25929 0.0
C759 C 0.30994 0.06323 0.30724 0.0
C760 C 0.29841 0.04549 0.29697 0.0
H761 H 0.38202 0.98575 0.48932 0.0
H762 H 0.35424 1.00899 0.46547 0.0
C763 C 0.28717 0.04265 0.23601 0.0
C764 C 0.32622 0.06307 0.36085 0.0
H765 H 0.37757 0.05714 0.37243 0.0
C766 C 0.32117 0.0573 0.42904 0.0
C767 C 0.34698 0.06413 0.34151 0.0
C768 C 0.35369 0.0696 0.26876 0.0
C769 C 0.3361 0.05043 0.47545 0.0
C770 C 0.35649 0.0496 0.45329 0.0
C771 C 0.36183 0.05777 0.38885 0.0
C772 C 0.37157 0.03629 0.4869 0.0
C773 C 0.32982 0.04272 0.54584 0.0
C774 C 0.39046 0.04394 0.50823 0.0
C775 C 0.40643 0.03061 0.52261 0.0
C776 C 0.40387 0.00945 0.51414 0.0
C777 C 0.38455 1.0019 0.49678 0.0
C778 C 0.36856 0.0152 0.48353 0.0
H779 H 0.31578 0.05043 0.56449 0.0
H780 H 0.32665 0.02618 0.54148 0.0
H781 H 0.34205 0.04504 0.58512 0.0
H782 H 0.3931 0.06019 0.51048 0.0
H783 H 0.42097 0.03691 0.53794 0.0
H784 H 0.4557 0.30723 0.14986 0.0
H785 H 0.45817 0.3255 0.26126 0.0
H786 H 0.50795 0.28693 0.32215 0.0
H787 H 0.50603 0.26896 0.20947 0.0
H788 H 0.46117 0.31836 0.41187 0.0
H789 H 0.53354 0.34316 0.28818 0.0
H790 H 0.51482 0.32895 0.23944 0.0
H791 H 0.53004 0.31655 0.30402 0.0
C792 C 0.46688 0.30233 0.1876 0.0
C793 C 0.48104 0.28707 0.17022 0.0
C794 C 0.46812 0.31262 0.2516 0.0
C795 C 0.48349 0.3078 0.29929 0.0
C796 C 0.49612 0.291 0.28559 0.0
H797 H 0.52648 0.41883 0.47744 0.0
H798 H 0.52332 0.38233 0.48798 0.0
C799 C 0.49496 0.28072 0.22125 0.0
C800 C 0.48872 0.32302 0.35396 0.0
H801 H 0.52028 0.36343 0.37606 0.0
C802 C 0.47439 0.32796 0.40567 0.0
C803 C 0.50612 0.33534 0.34646 0.0
C804 C 0.52203 0.3309 0.29151 0.0
C805 C 0.47621 0.34585 0.44627 0.0
C806 C 0.49241 0.35935 0.43303 0.0
C807 C 0.50776 0.35324 0.38636 0.0
C808 C 0.49196 0.38118 0.45452 0.0
C809 C 0.46035 0.35038 0.5009 0.0
C810 C 0.47488 0.39304 0.43822 0.0
C811 C 0.4764 0.41416 0.43473 0.0
C812 C 0.49524 0.42384 0.44454 0.0
C813 C 0.5117 0.41215 0.46869 0.0
C814 C 0.50996 0.39108 0.4745 0.0
H815 H 0.45645 0.33632 0.52931 0.0
H816 H 0.46549 0.36211 0.53918 0.0
H817 H 0.44627 0.35576 0.4751 0.0
H818 H 0.46081 0.38599 0.4218 0.0
H819 H 0.4631 0.42268 0.41926 0.0
H820 H 0.24549 0.50951 0.22962 0.0
H821 H 0.22463 0.50071 0.32945 0.0
H822 H 0.22595 0.43756 0.26408 0.0
H823 H 0.24589 0.44678 0.16141 0.0
H824 H 0.18993 0.44928 0.26813 0.0
H825 H 0.22201 0.47669 0.51573 0.0
H826 H 0.22371 0.49708 0.45534 0.0
H827 H 0.2375 0.47372 0.43851 0.0
C828 C 0.24199 0.49366 0.23837 0.0
C829 C 0.24715 0.47879 0.18838 0.0
C830 C 0.23023 0.48854 0.29597 0.0
C831 C 0.22379 0.46838 0.30516 0.0
C832 C 0.23075 0.4532 0.25845 0.0
H833 H 0.10113 0.45362 0.46919 0.0
H834 H 0.13688 0.44327 0.46701 0.0
C835 C 0.24213 0.45841 0.19991 0.0
C836 C 0.20624 0.46437 0.35157 0.0
H837 H 0.18438 0.48121 0.50333 0.0
C838 C 0.18899 0.4555 0.32074 0.0
C839 C 0.20486 0.47237 0.42042 0.0
C840 C 0.22316 0.48027 0.4594 0.0
C841 C 0.17 0.45656 0.35316 0.0
C842 C 0.16824 0.4666 0.41872 0.0
C843 C 0.18577 0.47368 0.45279 0.0
C844 C 0.14812 0.47331 0.44422 0.0
C845 C 0.15166 0.44875 0.31366 0.0
C846 C 0.14285 0.49386 0.43731 0.0
C847 C 0.12253 0.49978 0.43809 0.0
C848 C 0.10716 0.48521 0.44585 0.0
C849 C 0.11265 0.46506 0.46116 0.0
C850 C 0.13304 0.45916 0.46054 0.0
H851 H 0.15554 0.44312 0.26035 0.0
H852 H 0.14476 0.43601 0.34248 0.0
H853 H 0.14007 0.46095 0.309 0.0
H854 H 0.1543 0.50502 0.42473 0.0
H855 H 0.11886 0.51542 0.42629 0.0
H856 H 0.94547 0.80934 0.05229 0.0
H857 H 0.93889 0.82964 0.94872 0.0
H858 H 0.99313 0.80528 0.8528 0.0
H859 H 0.99933 0.78463 0.95501 0.0
H860 H 0.96679 0.85727 0.93602 0.0
H861 H 0.96106 0.81844 0.68087 0.0
H862 H 0.95536 0.80576 0.76159 0.0
H863 H 0.98114 0.8073 0.73061 0.0
C864 C 0.95539 0.80762 0.00756 0.0
C865 C 0.97307 0.79573 0.01183 0.0
C866 C 0.95157 0.81912 0.94825 0.0
C867 C 0.96554 0.8191 0.89288 0.0
C868 C 0.98188 0.80533 0.89393 0.0
H869 H 0.04279 0.89138 0.69176 0.0
H870 H 0.01727 0.86535 0.70812 0.0
C871 C 0.98554 0.79362 0.95285 0.0
C872 C 0.96677 0.837 0.84684 0.0
H873 H 0.98023 0.85078 0.68227 0.0
C874 C 0.96899 0.85601 0.88003 0.0
C875 C 0.96978 0.83534 0.77397 0.0
C876 C 0.96649 0.81559 0.73476 0.0
C877 C 0.97641 0.87283 0.84444 0.0
C878 C 0.98091 0.87086 0.77221 0.0
C879 C 0.97682 0.85233 0.73745 0.0
C880 C 0.99331 0.88645 0.73678 0.0
C881 C 0.98137 0.89177 0.8869 0.0
C882 C 0.98786 0.90707 0.74004 0.0
C883 C 1.00281 0.92201 0.73556 0.0
C884 C 0.02329 0.91654 0.72411 0.0
C885 C 0.02759 0.89614 0.70593 0.0
C886 C 0.01282 0.88117 0.71358 0.0
H887 H 0.98022 0.88928 0.94398 0.0
H888 H 0.99701 0.89703 0.87572 0.0
H889 H 0.97056 0.90408 0.87363 0.0
H890 H 0.97258 0.91153 0.75429 0.0
H891 H 0.9984 0.93748 0.74805 0.0
H892 H 0.74908 0.99687 0.98922 0.0
H893 H 0.72757 0.99253 0.88596 0.0
H894 H 0.70396 0.9368 0.96892 0.0
H895 H 0.72502 0.94147 0.07342 0.0
H896 H 0.71329 0.96225 0.77966 0.0
H897 H 0.65851 0.98001 0.994 0.0
H898 H 0.68552 0.98178 0.00672 0.0
H899 H 0.67344 0.95732 1.00273 0.0
C900 C 0.73999 0.98323 0.98387 0.0
C901 C 0.73838 0.96966 0.03942 0.0
C902 C 0.72775 0.98072 0.92477 0.0
C903 C 0.71391 0.96455 0.92055 0.0
C904 C 0.71441 0.94948 0.97162 0.0
H905 H 0.59749 0.99708 0.76885 0.0
H906 H 0.62279 0.97098 0.78657 0.0
C907 C 0.7264 0.95215 0.03123 0.0
C908 C 0.69605 0.96647 0.87419 0.0
H909 H 0.64674 0.98174 0.88101 0.0
C910 C 0.69856 0.96609 0.80141 0.0
C911 C 0.67686 0.97145 0.90281 0.0
C912 C 0.67332 0.97283 0.98074 0.0
C913 C 0.6825 0.97137 0.75654 0.0
C914 C 0.6637 0.97765 0.78557 0.0
C915 C 0.661 0.97677 0.85818 0.0
C916 C 0.64773 0.98844 0.74534 0.0
C917 C 0.68601 0.97052 0.67884 0.0
C918 C 0.65278 1.00607 0.70879 0.0
C919 C 0.63804 0.02084 0.69576 0.0
C920 C 0.6182 0.01868 0.72186 0.0
C921 C 0.61259 0.9997 0.74887 0.0
C922 C 0.62718 0.98463 0.75947 0.0
H923 H 0.69608 0.95753 0.66465 0.0
H924 H 0.67158 0.96902 0.64926 0.0
H925 H 0.6938 0.98463 0.66265 0.0
H926 H 0.66843 0.00956 0.69696 0.0
H927 H 0.64275 0.03476 0.67117 0.0
H928 H 0.59321 0.74592 0.10705 0.0
H929 H 0.60004 0.72298 0.00794 0.0
H930 H 0.53796 0.72984 0.93962 0.0
H931 H 0.53161 0.75356 0.03614 0.0
H932 H 0.58207 0.68906 0.0129 0.0
H933 H 0.56317 0.7193 0.75526 0.0
H934 H 0.56789 0.73583 0.82968 0.0
H935 H 0.54293 0.72543 0.81414 0.0
C936 C 0.58143 0.74331 0.06848 0.0
C937 C 0.56193 0.7514 0.07863 0.0
C938 C 0.58529 0.7302 0.01197 0.0
C939 C 0.56955 0.72461 0.96594 0.0
C940 C 0.55055 0.73422 0.97287 0.0
H941 H 0.51267 0.6219 0.83397 0.0
H942 H 0.52628 0.65636 0.8403 0.0
C943 C 0.54684 0.74768 0.02849 0.0
C944 C 0.5712 0.70551 0.92382 0.0
H945 H 0.55476 0.68294 0.77235 0.0
C946 C 0.57681 0.68784 0.95935 0.0
C947 C 0.56425 0.70379 0.85405 0.0
C948 C 0.55944 0.7222 0.81107 0.0
C949 C 0.57386 0.66849 0.92988 0.0
C950 C 0.56536 0.66671 0.8622 0.0
C951 C 0.5612 0.68436 0.82432 0.0
C952 C 0.55772 0.64687 0.83616 0.0
C953 C 0.57818 0.65012 0.9741 0.0
C954 C 0.57089 0.63022 0.82732 0.0
C955 C 0.56314 0.61046 0.82471 0.0
C956 C 0.54212 0.60718 0.82969 0.0
C957 C 0.52893 0.62399 0.83019 0.0
C958 C 0.53669 0.6437 0.83359 0.0
H959 H 0.58195 0.65435 0.02895 0.0
H960 H 0.56489 0.63978 0.97448 0.0
H961 H 0.59127 0.6416 0.95192 0.0
H962 H 0.58717 0.63241 0.82801 0.0
H963 H 0.5736 0.59773 0.82287 0.0
H964 H 0.76439 0.55741 0.97182 0.0
H965 H 0.781 0.56314 0.8591 0.0
H966 H 0.82301 0.51437 0.90216 0.0
H967 H 0.80607 0.50818 0.01162 0.0
H968 H 0.81622 0.57723 0.84913 0.0
H969 H 0.82119 0.50672 0.69952 0.0
H970 H 0.80209 0.51006 0.76641 0.0
H971 H 0.82663 0.49918 0.78674 0.0
C972 C 0.77668 0.54746 0.95552 0.0
C973 C 0.78422 0.53258 1.00071 0.0
C974 C 0.78616 0.55073 0.89118 0.0
C975 C 0.80317 0.53906 0.87115 0.0
C976 C 0.80959 0.52323 0.91451 0.0
H977 H 0.91304 0.56071 0.90006 0.0
H978 H 0.87708 0.56468 0.87947 0.0
C979 C 0.80013 0.51993 0.97811 0.0
C980 C 0.81706 0.54576 0.81496 0.0
H981 H 0.85576 0.52418 0.7225 0.0
C982 C 0.82434 0.56581 0.8187 0.0
C983 C 0.82727 0.53149 0.77142 0.0
C984 C 0.81861 0.51076 0.75532 0.0
C985 C 0.84351 0.57064 0.7922 0.0
C986 C 0.85577 0.55489 0.76395 0.0
C987 C 0.84681 0.53609 0.74742 0.0
C988 C 0.87819 0.55572 0.77015 0.0
C989 C 0.85124 0.59207 0.80127 0.0
C990 C 0.891 0.54896 0.71599 0.0
C991 C 0.91185 0.54655 0.72802 0.0
C992 C 0.92013 0.55063 0.79459 0.0
C993 C 0.90731 0.55789 0.84782 0.0
C994 C 0.88665 0.56031 0.83583 0.0
H995 H 0.83895 0.60315 0.79002 0.0
H996 H 0.85595 0.59464 0.85633 0.0
H997 H 0.86434 0.5951 0.76654 0.0
H998 H 0.88479 0.54498 0.66523 0.0
H999 H 0.92142 0.54114 0.6858 0.0
H1000 H 1.00186 0.2113 0.04875 0.0
H1001 H 0.99778 0.18044 0.97705 0.0
H1002 H 0.03713 0.20539 0.82092 0.0
H1003 H 0.04119 0.23655 0.89286 0.0
H1004 H 0.98415 0.17499 0.83169 0.0
H1005 H 0.06362 0.14933 0.87485 0.0
H1006 H 0.05163 0.16835 0.92999 0.0
H1007 H 0.05992 0.1748 0.84403 0.0
C1008 C 0.00943 0.21036 0.99866 0.0
C1009 C 0.02185 0.22643 0.97657 0.0
C1010 C 1.00711 0.19266 0.95772 0.0
C1011 C 0.01736 0.19035 0.8939 0.0
C1012 C 0.02925 0.20665 0.87033 0.0
H1013 H 0.03192 0.07797 0.63992 0.0
H1014 H 0.03517 0.11258 0.68866 0.0
C1015 C 0.03139 0.22455 0.91111 0.0
C1016 C 0.01584 0.17066 0.85365 0.0
H1017 H 0.04262 0.12782 0.80819 0.0
C1018 C 0.99696 0.1647 0.82624 0.0
C1019 C 0.03253 0.15721 0.84599 0.0
C1020 C 0.05309 0.16255 0.87549 0.0
C1021 C 0.99427 0.14578 0.79175 0.0
C1022 C 0.01081 0.13189 0.78623 0.0
C1023 C 0.02983 0.13815 0.81235 0.0
C1024 C 0.00868 0.11077 0.75523 0.0
C1025 C 0.9737 0.14127 0.76056 0.0
C1026 C 0.99288 0.09783 0.77615 0.0
C1027 C 0.99079 0.07824 0.74704 0.0
C1028 C 1.00503 0.07056 0.69895 0.0
C1029 C 0.02101 0.08327 0.67835 0.0
C1030 C 0.02281 0.10312 0.70614 0.0
H1031 H 0.96613 0.15545 0.74329 0.0
H1032 H 0.97468 0.13065 0.71525 0.0
H1033 H 0.96391 0.13441 0.80092 0.0
H1034 H 0.98213 0.1028 0.81549 0.0
H1035 H 0.97819 0.06888 0.76321 0.0
H1036 H 0.30801 1.00474 0.95006 0.0
H1037 H 0.34009 0.99982 0.88699 0.0
H1038 H 0.34559 0.06477 0.86523 0.0
H1039 H 0.31415 0.06966 0.93158 0.0
H1040 H 0.35476 1.0069 0.765 0.0
H1041 H 0.39898 0.05429 0.95102 0.0
H1042 H 0.37289 0.04766 0.96681 0.0
H1043 H 0.37906 0.06858 0.91099 0.0
C1044 C 0.31594 0.01792 0.93075 0.0
C1045 C 0.30857 0.03758 0.94559 0.0
C1046 C 0.33437 0.01513 0.89503 0.0
C1047 C 0.34579 0.03193 0.87292 0.0
C1048 C 0.33766 0.05154 0.88386 0.0
H1049 H 0.4615 0.04178 0.64694 0.0
H1050 H 0.42755 0.04792 0.69656 0.0
C1051 C 0.31947 0.05433 0.92079 0.0
C1052 C 0.36621 0.02892 0.83944 0.0
H1053 H 0.416 0.04371 0.84754 0.0
C1054 C 0.3681 0.01497 0.78342 0.0
C1055 C 0.38391 0.0392 0.86336 0.0
C1056 C 0.38369 0.05309 0.9268 0.0
C1057 C 0.3869 0.01127 0.75056 0.0
C1058 C 0.40441 0.02189 0.77343 0.0
C1059 C 0.40257 0.03584 0.82913 0.0
C1060 C 0.4249 0.01814 0.74215 0.0
C1061 C 0.38787 0.996 0.69143 0.0
C1062 C 0.43476 0.99939 0.75102 0.0
C1063 C 0.45424 0.99601 0.72372 0.0
C1064 C 0.46445 0.01136 0.68752 0.0
C1065 C 0.45433 0.02991 0.67665 0.0
C1066 C 0.43487 0.03337 0.70457 0.0
H1067 H 0.37281 0.99372 0.66636 0.0
H1068 H 0.39883 1.00093 0.6516 0.0
H1069 H 0.39312 0.98118 0.71182 0.0
H1070 H 0.42746 0.9874 0.77978 0.0
H1071 H 0.46146 0.98141 0.73162 0.0
H1072 H 0.45899 0.31854 0.95075 0.0
H1073 H 0.46225 0.34823 0.87623 0.0
H1074 H 0.51988 0.32579 0.80147 0.0
H1075 H 0.5167 0.29593 0.87654 0.0
H1076 H 0.51923 0.36745 0.85918 0.0
H1077 H 0.45816 0.35581 0.66217 0.0
H1078 H 0.45221 0.34996 0.75098 0.0
H1079 H 0.47064 0.33484 0.70473 0.0
C1080 C 0.47219 0.31971 0.91742 0.0
C1081 C 0.48757 0.30484 0.91952 0.0
C1082 C 0.47398 0.33666 0.87451 0.0
C1083 C 0.49121 0.3392 0.83256 0.0
C1084 C 0.50636 0.32408 0.83288 0.0
H1085 H 0.53415 0.4511 0.63396 0.0
H1086 H 0.53137 0.41584 0.67084 0.0
C1087 C 0.50448 0.30696 0.87546 0.0
C1088 C 0.49413 0.35853 0.79399 0.0
H1089 H 0.47359 0.38823 0.66676 0.0
C1090 C 0.50943 0.37191 0.81651 0.0
C1091 C 0.48114 0.36446 0.73903 0.0
C1092 C 0.46467 0.35053 0.71217 0.0
C1093 C 0.51164 0.39132 0.78749 0.0
C1094 C 0.49865 0.39735 0.73234 0.0
C1095 C 0.4836 0.38372 0.7088 0.0
C1096 C 0.4998 0.41809 0.70123 0.0
C1097 C 0.52727 0.40553 0.81886 0.0
C1098 C 0.48266 0.43085 0.7009 0.0
C1099 C 0.48408 0.45097 0.6781 0.0
C1100 C 0.50277 0.45896 0.65609 0.0
C1101 C 0.51961 0.44575 0.65228 0.0
C1102 C 0.51809 0.42554 0.67396 0.0
H1103 H 0.53183 0.40085 0.87211 0.0
H1104 H 0.54106 0.4053 0.78575 0.0
H1105 H 0.52145 0.42138 0.82197 0.0
H1106 H 0.46824 0.42546 0.7203 0.0
H1107 H 0.47058 0.46034 0.67901 0.0
H1108 H 0.23369 0.5259 0.91776 0.0
H1109 H 0.20324 0.52853 0.84376 0.0
H1110 H 0.18928 0.46575 0.88287 0.0
H1111 H 0.21944 0.46307 0.95657 0.0
H1112 H 0.18743 0.5061 0.72306 0.0
H1113 H 0.13922 0.49671 0.95755 0.0
H1114 H 0.16598 0.50225 0.96335 0.0
H1115 H 0.15755 0.47679 0.94422 0.0
C1116 C 0.22437 0.51254 0.90926 0.0
C1117 C 0.22892 0.49434 0.94384 0.0
C1118 C 0.2069 0.51408 0.86719 0.0
C1119 C 0.19365 0.49746 0.85885 0.0
C1120 C 0.19894 0.47893 0.8896 0.0
H1121 H 0.07269 0.47735 0.68571 0.0
H1122 H 0.107 0.47359 0.73275 0.0
C1123 C 0.21627 0.47741 0.93163 0.0
C1124 C 0.17369 0.49964 0.82209 0.0
H1125 H 0.12242 0.49641 0.84838 0.0
C1126 C 0.17322 0.50409 0.75051 0.0
C1127 C 0.15505 0.49701 0.85767 0.0
C1128 C 0.15436 0.49311 0.93505 0.0
C1129 C 0.15469 0.50552 0.71358 0.0
C1130 C 0.13611 0.50279 0.74931 0.0
C1131 C 0.13662 0.49842 0.82079 0.0
C1132 C 0.11587 0.5047 0.71441 0.0
C1133 C 0.15513 0.50943 0.63623 0.0
C1134 C 0.10933 0.52338 0.68756 0.0
C1135 C 0.08951 0.52568 0.66168 0.0
C1136 C 0.07567 0.50938 0.66234 0.0
C1137 C 0.08261 0.49044 0.68627 0.0
C1138 C 0.10235 0.4882 0.71269 0.0
H1139 H 0.17036 0.50641 0.61349 0.0
H1140 H 0.1438 0.49982 0.60831 0.0
H1141 H 0.15121 0.52558 0.627 0.0
H1142 H 0.11932 0.53643 0.68887 0.0
H1143 H 0.08491 0.54044 0.64305 0.0
H1144 H 1.00608 0.8378 0.16965 0.0
H1145 H 0.00861 0.86694 0.24916 0.0
H1146 H 0.99194 0.82912 0.42142 0.0
H1147 H 0.98904 0.79961 0.34105 0.0
H1148 H 0.97613 0.88284 0.33279 0.0
H1149 H 0.04271 0.861 0.49418 0.0
H1150 H 0.03758 0.84912 0.41039 0.0
H1151 H 0.02242 0.84288 0.48465 0.0
C1152 C 1.00292 0.83555 0.22443 0.0
C1153 C 0.99705 0.81627 0.24846 0.0
C1154 C 1.00446 0.85231 0.27003 0.0
C1155 C 1.00044 0.8504 0.34152 0.0
C1156 C 0.99529 0.83104 0.36663 0.0
H1157 H 0.98554 0.96797 0.57996 0.0
H1158 H 0.97762 0.93422 0.5297 0.0
C1159 C 0.99368 0.81413 0.32061 0.0
C1160 C 1.00091 0.86905 0.38773 0.0
H1161 H 0.02835 0.89317 0.51608 0.0
C1162 C 0.98745 0.88506 0.37334 0.0
C1163 C 0.01556 0.87197 0.44097 0.0
C1164 C 0.03052 0.85544 0.45866 0.0
C1165 C 0.98872 0.90406 0.40826 0.0
C1166 C 1.00392 0.90738 0.45978 0.0
C1167 C 0.01681 0.89096 0.4763 0.0
C1168 C 1.0081 0.92804 0.49223 0.0
C1169 C 0.97427 0.92061 0.38682 0.0
C1170 C 0.02791 0.93593 0.49028 0.0
C1171 C 0.03246 0.95496 0.52011 0.0
C1172 C 0.01732 0.96702 0.55185 0.0
C1173 C 0.99744 0.95931 0.55419 0.0
C1174 C 0.99292 0.93996 0.52524 0.0
H1175 H 0.96743 0.9175 0.33473 0.0
H1176 H 0.96177 0.9218 0.42538 0.0
H1177 H 0.98214 0.93537 0.38526 0.0
H1178 H 0.04001 0.92733 0.46541 0.0
H1179 H 0.04798 0.96033 0.51819 0.0
H1180 H 0.69901 1.00517 0.19863 0.0
H1181 H 0.66993 0.0096 0.27578 0.0
H1182 H 0.70501 0.98695 0.44798 0.0
H1183 H 0.73443 0.98205 0.36993 0.0
H1184 H 0.65224 0.97541 0.35532 0.0
H1185 H 0.67593 0.04139 0.52142 0.0
H1186 H 0.6869 0.03683 0.43622 0.0
H1187 H 0.69336 0.02056 0.50711 0.0
C1188 C 0.70067 1.00109 0.2529 0.0
C1189 C 0.71907 0.99292 0.27762 0.0
C1190 C 0.68398 1.00375 0.29711 0.0
C1191 C 0.68518 0.99857 0.3677 0.0
C1192 C 0.70373 0.99117 0.39375 0.0
H1193 H 0.56579 0.99101 0.58596 0.0
H1194 H 0.59992 0.98144 0.54542 0.0
C1195 C 0.72056 0.98842 0.34913 0.0
C1196 C 0.66647 1.00001 0.41158 0.0
H1197 H 0.6424 0.02996 0.53337 0.0
C1198 C 0.65014 0.98714 0.39508 0.0
C1199 C 0.66376 0.01526 0.46353 0.0
C1200 C 0.68082 0.02942 0.48347 0.0
C1201 C 0.63096 0.98967 0.42644 0.0
C1202 C 0.62784 1.00558 0.4762 0.0
C1203 C 0.64455 0.01786 0.49506 0.0
C1204 C 0.60715 0.01105 0.50398 0.0
C1205 C 0.61399 0.97594 0.40266 0.0
C1206 C 0.5998 0.031 0.4966 0.0
C1207 C 0.58047 0.03652 0.52075 0.0
C1208 C 0.56773 0.02221 0.55212 0.0
C1209 C 0.57502 1.00225 0.56028 0.0
C1210 C 0.59458 0.99678 0.53696 0.0
H1211 H 0.61747 0.96807 0.35236 0.0
H1212 H 0.61134 0.96416 0.44245 0.0
H1213 H 0.59987 0.98479 0.39631 0.0
H1214 H 0.60901 0.04239 0.47159 0.0
H1215 H 0.5754 0.05208 0.51458 0.0
H1216 H 0.51265 0.74394 0.34405 0.0
H1217 H 0.50706 0.71459 0.41957 0.0
H1218 H 0.56931 0.6961 0.39021 0.0
H1219 H 0.57495 0.72534 0.31533 0.0
H1220 H 0.51184 0.67405 0.37245 0.0
H1221 H 0.56133 0.68914 0.60122 0.0
H1222 H 0.55351 0.70888 0.54231 0.0
H1223 H 0.57397 0.69198 0.51899 0.0
C1224 C 0.52528 0.73394 0.35542 0.0
C1225 C 0.54426 0.737 0.32379 0.0
C1226 C 0.52204 0.71709 0.39821 0.0
C1227 C 0.5378 0.70317 0.41121 0.0
C1228 C 0.55699 0.70675 0.38213 0.0
H1229 H 0.55417 0.58198 0.5695 0.0
H1230 H 0.55767 0.61679 0.52827 0.0
C1231 C 0.56017 0.72343 0.33896 0.0
C1232 C 0.53381 0.68386 0.44885 0.0
H1233 H 0.54982 0.65489 0.58537 0.0
C1234 C 0.51992 0.66998 0.4196 0.0
C1235 C 0.54448 0.67844 0.51004 0.0
C1236 C 0.55903 0.69295 0.54546 0.0
C1237 C 0.51697 0.65061 0.44812 0.0
C1238 C 0.52785 0.64504 0.50882 0.0
C1239 C 0.54146 0.65909 0.53893 0.0
C1240 C 0.52588 0.62441 0.53976 0.0
C1241 C 0.50287 0.63596 0.41104 0.0
C1242 C 0.50699 0.61719 0.56254 0.0
C1243 C 0.50488 0.59713 0.5852 0.0
C1244 C 0.52163 0.5838 0.58581 0.0
C1245 C 0.54078 0.59152 0.56745 0.0
C1246 C 0.54286 0.61154 0.54445 0.0
H1247 H 0.49975 0.6406 0.35656 0.0
H1248 H 0.50932 0.62034 0.40988 0.0
H1249 H 0.48819 0.63554 0.43922 0.0
H1250 H 0.49376 0.62698 0.56156 0.0
H1251 H 0.48999 0.59199 0.60051 0.0
H1252 H 0.82328 0.5097 0.18482 0.0
H1253 H 0.85166 0.51025 0.26487 0.0
H1254 H 0.81528 0.5422 0.41809 0.0
H1255 H 0.78697 0.54338 0.33462 0.0
H1256 H 0.85071 0.55809 0.42092 0.0
H1257 H 0.8644 0.47577 0.42278 0.0
H1258 H 0.86565 0.48392 0.33431 0.0
H1259 H 0.84215 0.48637 0.38225 0.0
C1260 C 0.82118 0.5171 0.23514 0.0
C1261 C 0.80269 0.52681 0.2522 0.0
C1262 C 0.83748 0.51699 0.28189 0.0
C1263 C 0.83573 0.52582 0.3488 0.0
C1264 C 0.81714 0.53513 0.36709 0.0
H1265 H 0.9427 0.50173 0.61038 0.0
H1266 H 0.90785 0.50275 0.56801 0.0
C1267 C 0.80082 0.53562 0.31943 0.0
C1268 C 0.85372 0.52609 0.39722 0.0
H1269 H 0.89358 0.49682 0.45101 0.0
C1270 C 0.85988 0.54458 0.42841 0.0
C1271 C 0.86559 0.50846 0.40962 0.0
C1272 C 0.85892 0.48751 0.38609 0.0
C1273 C 0.87795 0.54613 0.46785 0.0
C1274 C 0.8909 0.52894 0.47375 0.0
C1275 C 0.88415 0.51024 0.44572 0.0
C1276 C 0.91166 0.52988 0.50663 0.0
C1277 C 0.88266 0.56619 0.50343 0.0
C1278 C 0.92568 0.54503 0.48844 0.0
C1279 C 0.94558 0.54483 0.51469 0.0
C1280 C 0.95242 0.52898 0.55733 0.0
C1281 C 0.93827 0.51406 0.57676 0.0
C1282 C 0.9182 0.51459 0.55222 0.0
H1283 H 0.86848 0.5743 0.51853 0.0
H1284 H 0.89206 0.5642 0.55096 0.0
H1285 H 0.89093 0.57604 0.46659 0.0
H1286 H 0.9215 0.55677 0.45217 0.0
H1287 H 0.9557 0.55689 0.50006 0.0
loop_
_geom_bond_atom_site_label_1
_geom_bond_atom_site_label_2
_geom_bond_distance
_geom_bond_site_symmetry_2
_ccdc_geom_bond_type
H0 C3 0.929 . S
H1 C6 0.929 . S
H2 C8 0.930 . S
C3 H0 0.929 . S
C3 C4 1.398 . S
C3 C5 1.396 . S
C4 C3 1.398 . S
C4 C8 1.407 . S
C5 C3 1.396 . S
C5 C6 1.394 . S
C6 H1 0.929 . S
C6 C5 1.394 . S
C6 C7 1.382 . S
C7 C6 1.382 . S
C7 C8 1.392 . S
C7 N9 1.420 . S
C8 H2 0.930 . S
C8 C4 1.407 . S
C8 C7 1.392 . S
N9 C7 1.420 . S
N9 C10 1.244 . S
C10 N9 1.244 . S
H11 C14 0.929 . S
H12 C17 0.929 . S
H13 C19 0.930 . S
C14 H11 0.929 . S
C14 C15 1.398 . S
C14 C16 1.396 . S
C15 C14 1.398 . S
C15 C19 1.407 . S
C16 C14 1.396 . S
C16 C17 1.394 . S
C17 H12 0.929 . S
C17 C16 1.394 . S
C17 C18 1.382 . S
C18 C17 1.382 . S
C18 C19 1.392 . S
C18 N20 1.420 . S
C19 H13 0.930 . S
C19 C15 1.407 . S
C19 C18 1.392 . S
N20 C18 1.420 . S
N20 C21 1.244 . S
C21 N20 1.244 . S
H22 C25 0.929 . S
H23 C28 0.929 . S
H24 C30 0.930 . S
C25 H22 0.929 . S
C25 C26 1.398 . S
C25 C27 1.396 . S
C26 C25 1.398 . S
C26 C30 1.407 . S
C27 C25 1.396 . S
C27 C28 1.394 . S
C28 H23 0.929 . S
C28 C27 1.394 . S
C28 C29 1.382 . S
C29 C28 1.382 . S
C29 C30 1.392 . S
C29 N31 1.420 . S
C30 H24 0.930 . S
C30 C26 1.407 . S
C30 C29 1.392 . S
N31 C29 1.420 . S
N31 C32 1.244 . S
C32 N31 1.244 . S
H33 C36 0.929 . S
H34 C39 0.929 . S
H35 C41 0.930 . S
C36 H33 0.929 . S
C36 C37 1.398 . S
C36 C38 1.396 . S
C37 C36 1.398 . S
C37 C41 1.407 . S
C38 C36 1.396 . S
C38 C39 1.394 . S
C39 H34 0.929 . S
C39 C38 1.394 . S
C39 C40 1.382 . S
C40 C39 1.382 . S
C40 C41 1.392 . S
C40 N42 1.420 . S
C41 H35 0.930 . S
C41 C37 1.407 . S
C41 C40 1.392 . S
N42 C40 1.420 . S
N42 C43 1.244 . S
C43 N42 1.244 . S
H44 C47 0.929 . S
H45 C50 0.929 . S
H46 C52 0.930 . S
C47 H44 0.929 . S
C47 C48 1.398 . S
C47 C49 1.396 1_556 S
C48 C47 1.398 . S
C48 C52 1.407 . S
C49 C47 1.396 1_554 S
C49 C50 1.394 . S
C50 H45 0.929 . S
C50 C49 1.394 . S
C50 C51 1.382 . S
C51 C50 1.382 . S
C51 C52 1.392 1_554 S
C51 N53 1.420 . S
C52 H46 0.930 . S
C52 C48 1.407 . S
C52 C51 1.392 1_556 S
N53 C51 1.420 . S
N53 C54 1.244 . S
C54 N53 1.244 . S
H55 C58 0.929 . S
H56 C61 0.929 . S
H57 C63 0.930 . S
C58 H55 0.929 . S
C58 C59 1.398 . S
C58 C60 1.396 1_556 S
C59 C58 1.398 . S
C59 C63 1.407 . S
C60 C58 1.396 1_554 S
C60 C61 1.394 . S
C61 H56 0.929 . S
C61 C60 1.394 . S
C61 C62 1.382 . S
C62 C61 1.382 . S
C62 C63 1.392 1_554 S
C62 N64 1.420 . S
C63 H57 0.930 . S
C63 C59 1.407 . S
C63 C62 1.392 1_556 S
N64 C62 1.420 . S
N64 C65 1.244 . S
C65 N64 1.244 . S
H66 C69 0.929 . S
H67 C72 0.929 . S
H68 C74 0.930 . S
C69 H66 0.929 . S
C69 C70 1.398 . S
C69 C71 1.396 1_556 S
C70 C69 1.398 . S
C70 C74 1.407 . S
C71 C69 1.396 1_554 S
C71 C72 1.394 . S
C72 H67 0.929 . S
C72 C71 1.394 . S
C72 C73 1.382 . S
C73 C72 1.382 . S
C73 C74 1.392 1_554 S
C73 N75 1.420 . S
C74 H68 0.930 . S
C74 C70 1.407 . S
C74 C73 1.392 1_556 S
N75 C73 1.420 . S
N75 C76 1.244 . S
C76 N75 1.244 . S
H77 C80 0.929 . S
H78 C83 0.929 . S
H79 C85 0.930 . S
C80 H77 0.929 . S
C80 C81 1.398 . S
C80 C82 1.396 1_556 S
C81 C80 1.398 . S
C81 C85 1.407 . S
C82 C80 1.396 1_554 S
C82 C83 1.394 . S
C83 H78 0.929 . S
C83 C82 1.394 . S
C83 C84 1.382 . S
C84 C83 1.382 . S
C84 C85 1.392 1_554 S
C84 N86 1.420 . S
C85 H79 0.930 . S
C85 C81 1.407 . S
C85 C84 1.392 1_556 S
N86 C84 1.420 . S
N86 C87 1.244 . S
C87 N86 1.244 . S
Gd88 N119 2.661 . S
Gd88 N125 2.601 . S
Gd88 O132 2.545 . S
Gd88 O133 2.606 1_655 S
Gd88 O135 2.429 . S
Gd88 O136 2.545 1_655 S
Gd88 O137 2.412 1_655 S
Gd88 O139 2.362 1_545 S
Gd88 O140 2.324 1_655 S
Gd88 C147 2.828 . S
Gd89 N98 2.661 1_565 S
Gd89 N102 2.598 1_565 S
Gd89 O133 2.362 1_565 S
Gd89 O134 2.324 1_455 S
Gd89 O138 2.545 . S
Gd89 O139 2.606 1_455 S
Gd89 O141 2.429 . S
Gd89 O142 2.545 . S
Gd89 O143 2.412 . S
Gd89 C156 2.828 . S
C90 C93 1.417 . S
C90 C95 1.431 . S
C90 C96 1.412 . S
C91 C94 1.437 . S
C91 C95 1.317 . S
C91 H110 0.929 . S
C92 C93 1.426 . S
C92 C94 1.413 . S
C92 N102 1.367 . S
C93 C90 1.417 . S
C93 C92 1.426 . S
C93 N98 1.350 . S
C94 C91 1.437 . S
C94 C92 1.413 . S
C94 C104 1.391 . S
C95 C90 1.431 . S
C95 C91 1.317 . S
C95 H106 0.930 . S
C96 C90 1.412 . S
C96 C97 1.355 . S
C96 H108 0.930 . S
C97 C96 1.355 . S
C97 C99 1.402 . S
C97 H109 0.930 1_455 S
N98 Gd89 2.661 1_545 S
N98 C93 1.350 . S
N98 C99 1.307 . S
C99 C97 1.402 . S
C99 N98 1.307 . S
C99 H100 0.930 1_455 S
H100 C99 0.930 1_655 S
C101 N102 1.328 1_565 S
C101 C103 1.394 . S
C101 H105 0.930 . S
N102 Gd89 2.598 1_545 S
N102 C92 1.367 . S
N102 C101 1.328 1_545 S
C103 C101 1.394 . S
C103 C104 1.359 1_565 S
C103 H115 0.930 . S
C104 C94 1.391 . S
C104 C103 1.359 1_545 S
C104 H116 0.929 . S
H105 C101 0.930 . S
H106 C95 0.930 . S
H107 C124 0.930 . S
H108 C96 0.930 . S
H109 C97 0.930 1_655 S
H110 C91 0.929 . S
H111 C129 0.930 . S
H112 C120 0.930 . S
H113 C121 0.930 . S
H114 C145 0.929 . S
H115 C103 0.930 . S
H116 C104 0.929 . S
H117 C146 0.930 . S
H118 C127 0.930 . S
N119 Gd88 2.661 . S
N119 C123 1.342 1_545 S
N119 C124 1.307 1_645 S
C120 H112 0.930 . S
C120 C121 1.355 1_655 S
C120 C122 1.412 . S
C121 H113 0.930 . S
C121 C120 1.355 1_455 S
C121 C124 1.402 . S
C122 C120 1.412 . S
C122 C123 1.446 . S
C122 C146 1.431 . S
C123 N119 1.342 1_565 S
C123 C122 1.446 . S
C123 C126 1.408 1_565 S
C124 H107 0.930 . S
C124 N119 1.307 1_465 S
C124 C121 1.402 . S
N125 Gd88 2.601 . S
N125 C126 1.359 . S
N125 C129 1.334 . S
C126 C123 1.408 1_545 S
C126 N125 1.359 . S
C126 C130 1.413 . S
C127 H118 0.930 . S
C127 C128 1.359 . S
C127 C129 1.394 . S
C128 C127 1.359 . S
C128 C130 1.391 . S
C128 H131 0.929 . S
C129 H111 0.930 . S
C129 N125 1.334 . S
C129 C127 1.394 . S
C130 C126 1.413 . S
C130 C128 1.391 . S
C130 C145 1.437 1_545 S
H131 C128 0.929 . S
O132 Gd88 2.545 . S
O132 C147 1.258 . S
O133 Gd88 2.606 1_455 S
O133 Gd89 2.362 1_545 S
O133 C144 1.284 . S
O134 Gd89 2.324 1_655 S
O134 C154 1.254 1_565 S
O135 Gd88 2.429 . S
O135 C154 1.268 . S
O136 Gd88 2.545 1_455 S
O136 C144 1.250 . S
O137 Gd88 2.412 1_455 S
O137 C147 1.251 1_455 S
O138 Gd89 2.545 . S
O138 C156 1.258 . S
O139 Gd88 2.362 1_565 S
O139 Gd89 2.606 1_655 S
O139 C155 1.284 . S
O140 Gd88 2.324 1_455 S
O140 C163 1.254 . S
O141 Gd89 2.429 . S
O141 C163 1.268 1_565 S
O142 Gd89 2.545 . S
O142 C155 1.250 1_455 S
O143 Gd89 2.412 . S
O143 C156 1.252 . S
C144 O133 1.284 . S
C144 O136 1.250 . S
C145 H114 0.929 . S
C145 C130 1.437 1_565 S
C145 C146 1.317 . S
C146 H117 0.930 . S
C146 C122 1.431 . S
C146 C145 1.317 . S
C147 Gd88 2.828 . S
C147 O132 1.258 . S
C147 O137 1.251 1_655 S
C147 C148 1.497 . S
C148 C147 1.497 . S
C148 C149 1.395 . S
C148 C150 1.339 1_655 S
C149 C148 1.395 . S
C149 C152 1.398 . S
C149 H164 0.930 . S
C150 C148 1.339 1_455 S
C150 C151 1.389 1_455 S
C150 H165 0.975 . S
C151 C150 1.389 1_655 S
C151 C153 1.397 . S
C152 C149 1.398 . S
C152 C153 1.380 . S
C152 H166 0.930 . S
C153 C151 1.397 . S
C153 C152 1.380 . S
C153 H167 0.930 . S
C154 O134 1.254 1_545 S
C154 O135 1.268 . S
C155 O139 1.284 . S
C155 O142 1.250 1_655 S
C156 Gd89 2.828 . S
C156 O138 1.258 . S
C156 O143 1.252 . S
C156 C157 1.497 . S
C157 C156 1.497 . S
C157 C158 1.395 . S
C157 C159 1.380 . S
C158 C157 1.395 . S
C158 C161 1.398 . S
C158 H168 0.930 . S
C159 C157 1.380 . S
C159 C160 1.391 . S
C159 H169 0.930 1_455 S
C160 C159 1.391 . S
C160 C162 1.387 . S
C161 C158 1.398 . S
C161 C162 1.380 . S
C161 H170 0.930 . S
C162 C160 1.387 . S
C162 C161 1.380 . S
C162 H171 0.930 . S
C163 O140 1.254 . S
C163 O141 1.268 1_545 S
H164 C149 0.930 . S
H165 C150 0.975 . S
H166 C152 0.930 . S
H167 C153 0.930 . S
H168 C158 0.930 . S
H169 C159 0.930 1_655 S
H170 C161 0.930 . S
H171 C162 0.930 . S
Gd172 N203 2.661 . S
Gd172 N209 2.601 . S
Gd172 O216 2.545 . S
Gd172 O217 2.606 1_565 S
Gd172 O219 2.429 . S
Gd172 O220 2.545 1_565 S
Gd172 O221 2.412 1_565 S
Gd172 O223 2.361 . S
Gd172 O224 2.324 1_565 S
Gd172 C231 2.828 . S
Gd173 N182 2.661 . S
Gd173 N186 2.601 . S
Gd173 O217 2.362 . S
Gd173 O218 2.324 1_545 S
Gd173 O222 2.545 . S
Gd173 O223 2.608 1_545 S
Gd173 O225 2.429 . S
Gd173 O226 2.545 . S
Gd173 O227 2.412 . S
Gd173 C240 2.828 . S
C174 C177 1.417 . S
C174 C179 1.431 . S
C174 C180 1.412 . S
C175 C178 1.437 . S
C175 C179 1.317 . S
C175 H194 0.929 . S
C176 C177 1.426 . S
C176 C178 1.413 . S
C176 N186 1.359 . S
C177 C174 1.417 . S
C177 C176 1.426 . S
C177 N182 1.350 . S
C178 C175 1.437 . S
C178 C176 1.413 . S
C178 C188 1.391 . S
C179 C174 1.431 . S
C179 C175 1.317 . S
C179 H190 0.930 . S
C180 C174 1.412 . S
C180 C181 1.355 . S
C180 H192 0.930 . S
C181 C180 1.355 . S
C181 C183 1.402 . S
C181 H193 0.930 1_545 S
N182 Gd173 2.661 . S
N182 C177 1.350 . S
N182 C183 1.307 . S
C183 C181 1.402 . S
C183 N182 1.307 . S
C183 H184 0.930 1_545 S
H184 C183 0.930 1_565 S
C185 N186 1.334 . S
C185 C187 1.394 . S
C185 H189 0.930 . S
N186 Gd173 2.601 . S
N186 C176 1.359 . S
N186 C185 1.334 . S
C187 C185 1.394 . S
C187 C188 1.359 . S
C187 H199 0.930 . S
C188 C178 1.391 . S
C188 C187 1.359 . S
C188 H200 0.929 . S
H189 C185 0.930 . S
H190 C179 0.930 . S
H191 C208 0.930 . S
H192 C180 0.930 . S
H193 C181 0.930 1_565 S
H194 C175 0.929 . S
H195 C213 0.930 . S
H196 C204 0.930 . S
H197 C205 0.930 . S
H198 C229 0.929 . S
H199 C187 0.930 . S
H200 C188 0.929 . S
H201 C230 0.930 . S
H202 C211 0.930 . S
N203 Gd172 2.661 . S
N203 C207 1.350 . S
N203 C208 1.307 1_565 S
C204 H196 0.930 . S
C204 C205 1.355 1_565 S
C204 C206 1.412 . S
C205 H197 0.930 . S
C205 C204 1.355 1_545 S
C205 C208 1.402 . S
C206 C204 1.412 . S
C206 C207 1.417 . S
C206 C230 1.431 . S
C207 N203 1.350 . S
C207 C206 1.417 . S
C207 C210 1.426 . S
C208 H191 0.930 . S
C208 N203 1.307 1_545 S
C208 C205 1.402 . S
N209 Gd172 2.601 . S
N209 C210 1.359 . S
N209 C213 1.334 . S
C210 C207 1.426 . S
C210 N209 1.359 . S
C210 C214 1.413 . S
C211 H202 0.930 . S
C211 C212 1.359 . S
C211 C213 1.394 . S
C212 C211 1.359 . S
C212 C214 1.391 . S
C212 H215 0.929 . S
C213 H195 0.930 . S
C213 N209 1.334 . S
C213 C211 1.394 . S
C214 C210 1.413 . S
C214 C212 1.391 . S
C214 C229 1.437 . S
H215 C212 0.929 . S
O216 Gd172 2.545 . S
O216 C231 1.258 . S
O217 Gd172 2.606 1_545 S
O217 Gd173 2.362 . S
O217 C228 1.284 . S
O218 Gd173 2.324 1_565 S
O218 C238 1.254 . S
O219 Gd172 2.429 . S
O219 C238 1.268 . S
O220 Gd172 2.545 1_545 S
O220 C228 1.250 . S
O221 Gd172 2.412 1_545 S
O221 C231 1.252 1_545 S
O222 Gd173 2.545 . S
O222 C240 1.258 . S
O223 Gd172 2.361 . S
O223 Gd173 2.608 1_565 S
O223 C239 1.284 1_565 S
O224 Gd172 2.324 1_545 S
O224 C247 1.254 . S
O225 Gd173 2.429 . S
O225 C247 1.268 . S
O226 Gd173 2.545 . S
O226 C239 1.258 . S
O227 Gd173 2.412 . S
O227 C240 1.252 . S
C228 O217 1.284 . S
C228 O220 1.250 . S
C229 H198 0.929 . S
C229 C214 1.437 . S
C229 C230 1.317 . S
C230 H201 0.930 . S
C230 C206 1.431 . S
C230 C229 1.317 . S
C231 Gd172 2.828 . S
C231 O216 1.258 . S
C231 O221 1.252 1_565 S
C231 C232 1.497 . S
C232 C231 1.497 . S
C232 C233 1.395 . S
C232 C234 1.380 1_565 S
C233 C232 1.395 . S
C233 C236 1.398 . S
C233 H248 0.930 . S
C234 C232 1.380 1_545 S
C234 C235 1.391 . S
C234 H249 0.930 . S
C235 C234 1.391 . S
C235 C237 1.387 1_545 S
C236 C233 1.398 . S
C236 C237 1.380 . S
C236 H250 0.930 . S
C237 C235 1.387 1_565 S
C237 C236 1.380 . S
C237 H251 0.930 . S
C238 O218 1.254 . S
C238 O219 1.268 . S
C239 O223 1.284 1_545 S
C239 O226 1.258 . S
C240 Gd173 2.828 . S
C240 O222 1.258 . S
C240 O227 1.252 . S
C240 C241 1.497 . S
C241 C240 1.497 . S
C241 C242 1.395 . S
C241 C243 1.380 . S
C242 C241 1.395 . S
C242 C245 1.398 . S
C242 H252 0.930 . S
C243 C241 1.380 . S
C243 C244 1.391 . S
C243 H253 0.930 . S
C244 C243 1.391 . S
C244 C246 1.387 . S
C245 C242 1.398 . S
C245 C246 1.380 . S
C245 H254 0.930 . S
C246 C244 1.387 . S
C246 C245 1.380 . S
C246 H255 0.930 . S
C247 O224 1.254 . S
C247 O225 1.268 . S
H248 C233 0.930 . S
H249 C234 0.930 . S
H250 C236 0.930 . S
H251 C237 0.930 . S
H252 C242 0.930 . S
H253 C243 0.930 . S
H254 C245 0.930 . S
H255 C246 0.930 . S
Gd256 N287 2.661 . S
Gd256 N293 2.601 . S
Gd256 O300 2.545 . S
Gd256 O301 2.606 . S
Gd256 O303 2.429 . S
Gd256 O304 2.545 . S
Gd256 O305 2.412 . S
Gd256 O307 2.362 . S
Gd256 O308 2.324 . S
Gd256 C315 2.828 . S
Gd257 N266 2.661 . S
Gd257 N270 2.601 . S
Gd257 O301 2.362 . S
Gd257 O302 2.324 . S
Gd257 O306 2.545 . S
Gd257 O307 2.606 . S
Gd257 O309 2.429 . S
Gd257 O310 2.545 . S
Gd257 O311 2.412 . S
Gd257 C324 2.828 . S
C258 C261 1.417 . S
C258 C263 1.431 . S
C258 C264 1.412 . S
C259 C262 1.437 . S
C259 C263 1.317 . S
C259 H278 0.929 . S
C260 C261 1.426 . S
C260 C262 1.413 . S
C260 N270 1.359 . S
C261 C258 1.417 . S
C261 C260 1.426 . S
C261 N266 1.350 . S
C262 C259 1.437 . S
C262 C260 1.413 . S
C262 C272 1.391 . S
C263 C258 1.431 . S
C263 C259 1.317 . S
C263 H274 0.930 . S
C264 C258 1.412 . S
C264 C265 1.355 . S
C264 H276 0.930 . S
C265 C264 1.355 . S
C265 C267 1.402 . S
C265 H277 0.930 . S
N266 Gd257 2.661 . S
N266 C261 1.350 . S
N266 C267 1.307 . S
C267 C265 1.402 . S
C267 N266 1.307 . S
C267 H268 0.930 . S
H268 C267 0.930 . S
C269 N270 1.334 . S
C269 C271 1.394 . S
C269 H273 0.930 . S
N270 Gd257 2.601 . S
N270 C260 1.359 . S
N270 C269 1.334 . S
C271 C269 1.394 . S
C271 C272 1.359 . S
C271 H283 0.930 . S
C272 C262 1.391 . S
C272 C271 1.359 . S
C272 H284 0.929 . S
H273 C269 0.930 . S
H274 C263 0.930 . S
H275 C292 0.930 . S
H276 C264 0.930 . S
H277 C265 0.930 . S
H278 C259 0.929 . S
H279 C297 0.930 . S
H280 C288 0.930 . S
H281 C289 0.930 . S
H282 C313 0.929 . S
H283 C271 0.930 . S
H284 C272 0.929 . S
H285 C314 0.930 . S
H286 C295 0.930 . S
N287 Gd256 2.661 . S
N287 C291 1.350 . S
N287 C292 1.307 . S
C288 H280 0.930 . S
C288 C289 1.355 . S
C288 C290 1.412 . S
C289 H281 0.930 . S
C289 C288 1.355 . S
C289 C292 1.402 . S
C290 C288 1.412 . S
C290 C291 1.417 . S
C290 C314 1.431 . S
C291 N287 1.350 . S
C291 C290 1.417 . S
C291 C294 1.426 . S
C292 H275 0.930 . S
C292 N287 1.307 . S
C292 C289 1.402 . S
N293 Gd256 2.601 . S
N293 C294 1.359 . S
N293 C297 1.334 . S
C294 C291 1.426 . S
C294 N293 1.359 . S
C294 C298 1.413 . S
C295 H286 0.930 . S
C295 C296 1.359 . S
C295 C297 1.394 . S
C296 C295 1.359 . S
C296 C298 1.391 . S
C296 H299 0.929 . S
C297 H279 0.930 . S
C297 N293 1.334 . S
C297 C295 1.394 . S
C298 C294 1.413 . S
C298 C296 1.391 . S
C298 C313 1.437 . S
H299 C296 0.929 . S
O300 Gd256 2.545 . S
O300 C315 1.258 . S
O301 Gd256 2.606 . S
O301 Gd257 2.362 . S
O301 C312 1.284 . S
O302 Gd257 2.324 . S
O302 C322 1.254 . S
O303 Gd256 2.429 . S
O303 C322 1.268 . S
O304 Gd256 2.545 . S
O304 C312 1.250 . S
O305 Gd256 2.412 . S
O305 C315 1.252 . S
O306 Gd257 2.545 . S
O306 C324 1.258 . S
O307 Gd256 2.362 . S
O307 Gd257 2.606 . S
O307 C323 1.284 . S
O308 Gd256 2.324 . S
O308 C331 1.254 . S
O309 Gd257 2.429 . S
O309 C331 1.268 . S
O310 Gd257 2.545 . S
O310 C323 1.250 . S
O311 Gd257 2.412 . S
O311 C324 1.252 . S
C312 O301 1.284 . S
C312 O304 1.250 . S
C313 H282 0.929 . S
C313 C298 1.437 . S
C313 C314 1.317 . S
C314 H285 0.930 . S
C314 C290 1.431 . S
C314 C313 1.317 . S
C315 Gd256 2.828 . S
C315 O300 1.258 . S
C315 O305 1.252 . S
C315 C316 1.497 . S
C316 C315 1.497 . S
C316 C317 1.395 . S
C316 C318 1.380 . S
C317 C316 1.395 . S
C317 C320 1.398 . S
C317 H332 0.930 . S
C318 C316 1.380 . S
C318 C319 1.391 . S
C318 H333 0.930 . S
C319 C318 1.391 . S
C319 C321 1.387 . S
C320 C317 1.398 . S
C320 C321 1.380 . S
C320 H334 0.930 1_556 S
C321 C319 1.387 . S
C321 C320 1.380 . S
C321 H335 0.930 . S
C322 O302 1.254 . S
C322 O303 1.268 . S
C323 O307 1.284 . S
C323 O310 1.250 . S
C324 Gd257 2.828 . S
C324 O306 1.258 . S
C324 O311 1.252 . S
C324 C325 1.497 . S
C325 C324 1.497 . S
C325 C326 1.395 . S
C325 C327 1.380 . S
C326 C325 1.395 . S
C326 C329 1.398 . S
C326 H336 0.930 . S
C327 C325 1.380 . S
C327 C328 1.391 . S
C327 H337 0.930 . S
C328 C327 1.391 . S
C328 C330 1.387 . S
C329 C326 1.398 . S
C329 C330 1.380 . S
C329 H338 0.930 . S
C330 C328 1.387 . S
C330 C329 1.380 . S
C330 H339 0.930 . S
C331 O308 1.254 . S
C331 O309 1.268 . S
H332 C317 0.930 . S
H333 C318 0.930 . S
H334 C320 0.930 1_554 S
H335 C321 0.930 . S
H336 C326 0.930 . S
H337 C327 0.930 . S
H338 C329 0.930 . S
H339 C330 0.930 . S
Gd340 N371 2.661 . S
Gd340 N377 2.601 . S
Gd340 O384 2.545 . S
Gd340 O385 2.606 1_655 S
Gd340 O387 2.429 1_655 S
Gd340 O388 2.545 . S
Gd340 O389 2.412 . S
Gd340 O391 2.362 1_655 S
Gd340 O392 2.324 . S
Gd340 C399 2.828 . S
Gd341 N350 2.661 . S
Gd341 N354 2.601 . S
Gd341 O385 2.362 . S
Gd341 O386 2.324 . S
Gd341 O390 2.545 . S
Gd341 O391 2.606 . S
Gd341 O393 2.429 1_455 S
Gd341 O394 2.545 . S
Gd341 O395 2.412 . S
Gd341 C408 2.828 . S
C342 C345 1.417 . S
C342 C347 1.431 . S
C342 C348 1.412 . S
C343 C346 1.437 . S
C343 C347 1.317 . S
C343 H362 0.929 . S
C344 C345 1.426 . S
C344 C346 1.413 . S
C344 N354 1.359 . S
C345 C342 1.417 . S
C345 C344 1.426 . S
C345 N350 1.350 . S
C346 C343 1.437 . S
C346 C344 1.413 . S
C346 C356 1.391 . S
C347 C342 1.431 . S
C347 C343 1.317 . S
C347 H358 0.930 . S
C348 C342 1.412 . S
C348 C349 1.355 . S
C348 H360 0.930 . S
C349 C348 1.355 . S
C349 C351 1.402 . S
C349 H361 0.930 . S
N350 Gd341 2.661 . S
N350 C345 1.350 . S
N350 C351 1.307 . S
C351 C349 1.402 . S
C351 N350 1.307 . S
C351 H352 0.930 . S
H352 C351 0.930 . S
C353 N354 1.334 . S
C353 C355 1.394 . S
C353 H357 0.930 1_455 S
N354 Gd341 2.601 . S
N354 C344 1.359 . S
N354 C353 1.334 . S
C355 C353 1.394 . S
C355 C356 1.359 . S
C355 H367 0.930 1_455 S
C356 C346 1.391 . S
C356 C355 1.359 . S
C356 H368 0.929 . S
H357 C353 0.930 1_655 S
H358 C347 0.930 . S
H359 C376 0.930 . S
H360 C348 0.930 . S
H361 C349 0.930 . S
H362 C343 0.929 . S
H363 C381 0.930 . S
H364 C372 0.930 . S
H365 C373 0.930 . S
H366 C397 0.929 . S
H367 C355 0.930 1_655 S
H368 C356 0.929 . S
H369 C398 0.930 . S
H370 C379 0.930 . S
N371 Gd340 2.661 . S
N371 C375 1.350 . S
N371 C376 1.307 . S
C372 H364 0.930 . S
C372 C373 1.355 . S
C372 C374 1.412 . S
C373 H365 0.930 . S
C373 C372 1.355 . S
C373 C376 1.402 . S
C374 C372 1.412 . S
C374 C375 1.417 . S
C374 C398 1.431 . S
C375 N371 1.350 . S
C375 C374 1.417 . S
C375 C378 1.426 . S
C376 H359 0.930 . S
C376 N371 1.307 . S
C376 C373 1.402 . S
N377 Gd340 2.601 . S
N377 C378 1.359 . S
N377 C381 1.334 1_655 S
C378 C375 1.426 . S
C378 N377 1.359 . S
C378 C382 1.413 . S
C379 H370 0.930 . S
C379 C380 1.359 . S
C379 C381 1.394 . S
C380 C379 1.359 . S
C380 C382 1.391 1_455 S
C380 H383 0.929 . S
C381 H363 0.930 . S
C381 N377 1.334 1_455 S
C381 C379 1.394 . S
C382 C378 1.413 . S
C382 C380 1.391 1_655 S
C382 C397 1.437 . S
H383 C380 0.929 . S
O384 Gd340 2.545 . S
O384 C399 1.258 . S
O385 Gd340 2.606 1_455 S
O385 Gd341 2.362 . S
O385 C396 1.284 1_455 S
O386 Gd341 2.324 . S
O386 C406 1.254 . S
O387 Gd340 2.429 1_455 S
O387 C406 1.268 . S
O388 Gd340 2.545 . S
O388 C396 1.250 . S
O389 Gd340 2.412 . S
O389 C399 1.252 . S
O390 Gd341 2.545 . S
O390 C408 1.258 . S
O391 Gd340 2.362 1_455 S
O391 Gd341 2.606 . S
O391 C407 1.284 . S
O392 Gd340 2.324 . S
O392 C415 1.254 . S
O393 Gd341 2.429 1_655 S
O393 C415 1.268 . S
O394 Gd341 2.545 . S
O394 C407 1.250 . S
O395 Gd341 2.412 . S
O395 C408 1.252 . S
C396 O385 1.284 1_655 S
C396 O388 1.250 . S
C397 H366 0.929 . S
C397 C382 1.437 . S
C397 C398 1.317 . S
C398 H369 0.930 . S
C398 C374 1.431 . S
C398 C397 1.317 . S
C399 Gd340 2.828 . S
C399 O384 1.258 . S
C399 O389 1.252 . S
C399 C400 1.497 . S
C400 C399 1.497 . S
C400 C401 1.395 . S
C400 C402 1.380 . S
C401 C400 1.395 . S
C401 C404 1.398 . S
C401 H416 0.930 . S
C402 C400 1.380 . S
C402 C403 1.391 . S
C402 H417 0.930 . S
C403 C402 1.391 . S
C403 C405 1.387 . S
C404 C401 1.398 . S
C404 C405 1.380 . S
C404 H418 0.930 1_556 S
C405 C403 1.387 . S
C405 C404 1.380 . S
C405 H419 0.930 . S
C406 O386 1.254 . S
C406 O387 1.268 . S
C407 O391 1.284 . S
C407 O394 1.250 . S
C408 Gd341 2.828 . S
C408 O390 1.258 . S
C408 O395 1.252 . S
C408 C409 1.497 . S
C409 C408 1.497 . S
C409 C410 1.395 . S
C409 C411 1.380 . S
C410 C409 1.395 . S
C410 C413 1.398 . S
C410 H420 0.930 . S
C411 C409 1.380 . S
C411 C412 1.391 . S
C411 H421 0.930 . S
C412 C411 1.391 . S
C412 C414 1.387 . S
C413 C410 1.398 . S
C413 C414 1.380 . S
C413 H422 0.930 . S
C414 C412 1.387 . S
C414 C413 1.380 . S
C414 H423 0.930 . S
C415 O392 1.254 . S
C415 O393 1.268 . S
H416 C401 0.930 . S
H417 C402 0.930 . S
H418 C404 0.930 1_554 S
H419 C405 0.930 . S
H420 C410 0.930 . S
H421 C411 0.930 . S
H422 C413 0.930 . S
H423 C414 0.930 . S
H424 C432 0.929 . S
H425 C434 0.930 . S
H426 C436 0.930 . S
H427 C439 0.929 . S
H428 C442 0.930 . S
H429 C444 0.960 . S
H430 C444 0.960 . S
H431 C444 0.960 . S
C432 H424 0.929 . S
C432 C433 1.377 . S
C432 C434 1.384 . S
C433 C432 1.377 . S
C433 C439 1.390 . S
C434 H425 0.930 . S
C434 C432 1.384 . S
C434 C435 1.372 . S
C435 C434 1.372 . S
C435 C436 1.400 . S
C435 C440 1.490 . S
C436 H426 0.930 . S
C436 C435 1.400 . S
C436 C439 1.386 . S
H437 C453 0.930 1_565 S
H438 C454 0.931 . S
C439 H427 0.929 . S
C439 C433 1.390 . S
C439 C436 1.386 . S
C440 C435 1.490 . S
C440 C442 1.395 . S
C440 C443 1.403 . S
H441 C447 0.930 . S
C442 H428 0.930 . S
C442 C440 1.395 . S
C442 C445 1.403 . S
C443 C440 1.403 . S
C443 C444 1.524 . S
C443 C447 1.400 . S
C444 H429 0.960 . S
C444 H430 0.960 . S
C444 H431 0.960 . S
C444 C443 1.524 . S
C445 C442 1.403 . S
C445 C446 1.392 . S
C445 C449 1.495 . S
C446 C445 1.392 . S
C446 C447 1.385 . S
C446 C448 1.478 . S
C447 H441 0.930 . S
C447 C443 1.400 . S
C447 C446 1.385 . S
C448 C446 1.478 . S
C448 C450 1.381 . S
C448 C454 1.383 . S
C449 C445 1.495 . S
C449 H455 0.959 . S
C449 H456 0.961 . S
C449 H457 0.960 . S
C450 C448 1.381 . S
C450 C451 1.394 . S
C450 H458 0.930 . S
C451 C450 1.394 . S
C451 C452 1.383 . S
C451 H459 0.929 . S
C452 C451 1.383 . S
C452 C453 1.377 . S
C453 H437 0.930 1_545 S
C453 C452 1.377 . S
C453 C454 1.379 . S
C454 H438 0.931 . S
C454 C448 1.383 . S
C454 C453 1.379 . S
H455 C449 0.959 . S
H456 C449 0.961 . S
H457 C449 0.960 . S
H458 C450 0.930 . S
H459 C451 0.929 . S
H460 C468 0.929 . S
H461 C470 0.930 . S
H462 C472 0.930 . S
H463 C475 0.929 . S
H464 C478 0.930 . S
H465 C480 0.960 . S
H466 C480 0.960 . S
H467 C480 0.960 . S
C468 H460 0.929 . S
C468 C469 1.377 . S
C468 C470 1.384 . S
C469 C468 1.377 . S
C469 C475 1.390 . S
C470 H461 0.930 . S
C470 C468 1.384 . S
C470 C471 1.372 . S
C471 C470 1.372 . S
C471 C472 1.400 . S
C471 C476 1.490 . S
C472 H462 0.930 . S
C472 C471 1.400 . S
C472 C475 1.386 . S
H473 C489 0.930 . S
H474 C490 0.931 . S
C475 H463 0.929 . S
C475 C469 1.390 . S
C475 C472 1.386 . S
C476 C471 1.490 . S
C476 C478 1.395 . S
C476 C479 1.403 . S
H477 C483 0.930 . S
C478 H464 0.930 . S
C478 C476 1.395 . S
C478 C481 1.403 . S
C479 C476 1.403 . S
C479 C480 1.524 . S
C479 C483 1.400 . S
C480 H465 0.960 . S
C480 H466 0.960 . S
C480 H467 0.960 . S
C480 C479 1.524 . S
C481 C478 1.403 . S
C481 C482 1.392 . S
C481 C485 1.495 . S
C482 C481 1.392 . S
C482 C483 1.385 . S
C482 C484 1.478 . S
C483 H477 0.930 . S
C483 C479 1.400 . S
C483 C482 1.385 . S
C484 C482 1.478 . S
C484 C486 1.381 . S
C484 C490 1.383 . S
C485 C481 1.495 . S
C485 H491 0.959 . S
C485 H492 0.961 . S
C485 H493 0.960 . S
C486 C484 1.381 . S
C486 C487 1.394 . S
C486 H494 0.930 . S
C487 C486 1.394 . S
C487 C488 1.383 . S
C487 H495 0.929 . S
C488 C487 1.383 . S
C488 C489 1.377 . S
C489 H473 0.930 . S
C489 C488 1.377 . S
C489 C490 1.379 . S
C490 H474 0.931 . S
C490 C484 1.383 . S
C490 C489 1.379 . S
H491 C485 0.959 . S
H492 C485 0.961 . S
H493 C485 0.960 . S
H494 C486 0.930 . S
H495 C487 0.929 . S
H496 C504 0.929 . S
H497 C506 0.930 . S
H498 C508 0.930 . S
H499 C511 0.929 . S
H500 C514 0.930 . S
H501 C516 0.960 . S
H502 C516 0.960 . S
H503 C516 0.960 . S
C504 H496 0.929 . S
C504 C505 1.377 . S
C504 C506 1.384 . S
C505 C504 1.377 . S
C505 C511 1.390 . S
C506 H497 0.930 . S
C506 C504 1.384 . S
C506 C507 1.372 . S
C507 C506 1.372 . S
C507 C508 1.400 . S
C507 C512 1.490 . S
C508 H498 0.930 . S
C508 C507 1.400 . S
C508 C511 1.386 . S
H509 C525 0.930 . S
H510 C526 0.931 . S
C511 H499 0.929 . S
C511 C505 1.390 . S
C511 C508 1.386 . S
C512 C507 1.490 . S
C512 C514 1.395 . S
C512 C515 1.403 . S
H513 C519 0.930 . S
C514 H500 0.930 . S
C514 C512 1.395 . S
C514 C517 1.403 . S
C515 C512 1.403 . S
C515 C516 1.524 . S
C515 C519 1.400 . S
C516 H501 0.960 . S
C516 H502 0.960 . S
C516 H503 0.960 . S
C516 C515 1.524 . S
C517 C514 1.403 . S
C517 C518 1.392 . S
C517 C521 1.495 . S
C518 C517 1.392 . S
C518 C519 1.385 . S
C518 C520 1.478 . S
C519 H513 0.930 . S
C519 C515 1.400 . S
C519 C518 1.385 . S
C520 C518 1.478 . S
C520 C522 1.381 . S
C520 C526 1.383 . S
C521 C517 1.495 . S
C521 H527 0.959 . S
C521 H528 0.961 . S
C521 H529 0.960 . S
C522 C520 1.381 . S
C522 C523 1.394 . S
C522 H530 0.930 . S
C523 C522 1.394 . S
C523 C524 1.383 . S
C523 H531 0.929 . S
C524 C523 1.383 . S
C524 C525 1.377 . S
C525 H509 0.930 . S
C525 C524 1.377 . S
C525 C526 1.379 . S
C526 H510 0.931 . S
C526 C520 1.383 . S
C526 C525 1.379 . S
H527 C521 0.959 . S
H528 C521 0.961 . S
H529 C521 0.960 . S
H530 C522 0.930 . S
H531 C523 0.929 . S
H532 C540 0.929 . S
H533 C542 0.930 . S
H534 C544 0.930 . S
H535 C547 0.929 . S
H536 C550 0.930 . S
H537 C552 0.960 . S
H538 C552 0.960 . S
H539 C552 0.960 . S
C540 H532 0.929 . S
C540 C541 1.377 . S
C540 C542 1.384 . S
C541 C540 1.377 . S
C541 C547 1.390 . S
C542 H533 0.930 . S
C542 C540 1.384 . S
C542 C543 1.372 . S
C543 C542 1.372 . S
C543 C544 1.400 . S
C543 C548 1.490 . S
C544 H534 0.930 . S
C544 C543 1.400 . S
C544 C547 1.386 . S
H545 C561 0.930 . S
H546 C562 0.931 . S
C547 H535 0.929 . S
C547 C541 1.390 . S
C547 C544 1.386 . S
C548 C543 1.490 . S
C548 C550 1.395 . S
C548 C551 1.403 . S
H549 C555 0.930 . S
C550 H536 0.930 . S
C550 C548 1.395 . S
C550 C553 1.403 . S
C551 C548 1.403 . S
C551 C552 1.524 . S
C551 C555 1.400 . S
C552 H537 0.960 . S
C552 H538 0.960 . S
C552 H539 0.960 . S
C552 C551 1.524 . S
C553 C550 1.403 . S
C553 C554 1.392 . S
C553 C557 1.495 . S
C554 C553 1.392 . S
C554 C555 1.385 . S
C554 C556 1.478 . S
C555 H549 0.930 . S
C555 C551 1.400 . S
C555 C554 1.385 . S
C556 C554 1.478 . S
C556 C558 1.381 . S
C556 C562 1.383 . S
C557 C553 1.495 . S
C557 H563 0.959 1_455 S
C557 H564 0.961 . S
C557 H565 0.960 1_455 S
C558 C556 1.381 . S
C558 C559 1.394 . S
C558 H566 0.930 . S
C559 C558 1.394 . S
C559 C560 1.383 . S
C559 H567 0.929 1_455 S
C560 C559 1.383 . S
C560 C561 1.377 . S
C561 H545 0.930 . S
C561 C560 1.377 . S
C561 C562 1.379 . S
C562 H546 0.931 . S
C562 C556 1.383 . S
C562 C561 1.379 . S
H563 C557 0.959 1_655 S
H564 C557 0.961 . S
H565 C557 0.960 1_655 S
H566 C558 0.930 . S
H567 C559 0.929 1_655 S
H568 C576 0.929 . S
H569 C578 0.930 . S
H570 C580 0.930 . S
H571 C583 0.929 . S
H572 C586 0.930 . S
H573 C588 0.960 . S
H574 C588 0.960 . S
H575 C588 0.960 . S
C576 H568 0.929 . S
C576 C577 1.377 . S
C576 C578 1.384 . S
C577 C576 1.377 . S
C577 C583 1.390 . S
C578 H569 0.930 . S
C578 C576 1.384 . S
C578 C579 1.372 . S
C579 C578 1.372 . S
C579 C580 1.400 . S
C579 C584 1.490 1_554 S
C580 H570 0.930 . S
C580 C579 1.400 . S
C580 C583 1.386 . S
H581 C597 0.930 . S
H582 C598 0.931 . S
C583 H571 0.929 . S
C583 C577 1.390 . S
C583 C580 1.386 . S
C584 C579 1.490 1_556 S
C584 C586 1.395 . S
C584 C587 1.403 . S
H585 C591 0.930 . S
C586 H572 0.930 . S
C586 C584 1.395 . S
C586 C589 1.403 . S
C587 C584 1.403 . S
C587 C588 1.524 1_556 S
C587 C591 1.400 . S
C588 H573 0.960 . S
C588 H574 0.960 . S
C588 H575 0.960 . S
C588 C587 1.524 1_554 S
C589 C586 1.403 . S
C589 C590 1.392 . S
C589 C593 1.495 . S
C590 C589 1.392 . S
C590 C591 1.385 . S
C590 C592 1.478 . S
C591 H585 0.930 . S
C591 C587 1.400 . S
C591 C590 1.385 . S
C592 C590 1.478 . S
C592 C594 1.381 . S
C592 C598 1.383 1_565 S
C593 C589 1.495 . S
C593 H599 0.959 . S
C593 H600 0.961 . S
C593 H601 0.960 . S
C594 C592 1.381 . S
C594 C595 1.394 . S
C594 H602 0.930 . S
C595 C594 1.394 . S
C595 C596 1.383 . S
C595 H603 0.929 . S
C596 C595 1.383 . S
C596 C597 1.377 1_565 S
C597 H581 0.930 . S
C597 C596 1.377 1_545 S
C597 C598 1.379 . S
C598 H582 0.931 . S
C598 C592 1.383 1_545 S
C598 C597 1.379 . S
H599 C593 0.959 . S
H600 C593 0.961 . S
H601 C593 0.960 . S
H602 C594 0.930 . S
H603 C595 0.929 . S
H604 C612 0.929 . S
H605 C614 0.930 . S
H606 C616 0.930 1_556 S
H607 C619 0.929 . S
H608 C622 0.930 . S
H609 C624 0.960 . S
H610 C624 0.960 . S
H611 C624 0.960 . S
C612 H604 0.929 . S
C612 C613 1.377 . S
C612 C614 1.384 . S
C613 C612 1.377 . S
C613 C619 1.390 . S
C614 H605 0.930 . S
C614 C612 1.384 . S
C614 C615 1.372 . S
C615 C614 1.372 . S
C615 C616 1.400 . S
C615 C620 1.490 1_554 S
C616 H606 0.930 1_554 S
C616 C615 1.400 . S
C616 C619 1.386 . S
H617 C633 0.930 . S
H618 C634 0.931 . S
C619 H607 0.929 . S
C619 C613 1.390 . S
C619 C616 1.386 . S
C620 C615 1.490 1_556 S
C620 C622 1.395 . S
C620 C623 1.403 . S
H621 C627 0.930 . S
C622 H608 0.930 . S
C622 C620 1.395 . S
C622 C625 1.403 . S
C623 C620 1.403 . S
C623 C624 1.524 1_556 S
C623 C627 1.400 . S
C624 H609 0.960 . S
C624 H610 0.960 . S
C624 H611 0.960 . S
C624 C623 1.524 1_554 S
C625 C622 1.403 . S
C625 C626 1.392 . S
C625 C629 1.495 . S
C626 C625 1.392 . S
C626 C627 1.385 . S
C626 C628 1.478 . S
C627 H621 0.930 . S
C627 C623 1.400 . S
C627 C626 1.385 . S
C628 C626 1.478 . S
C628 C630 1.381 . S
C628 C634 1.383 . S
C629 C625 1.495 . S
C629 H635 0.959 . S
C629 H636 0.961 . S
C629 H637 0.960 . S
C630 C628 1.381 . S
C630 C631 1.394 . S
C630 H638 0.930 . S
C631 C630 1.394 . S
C631 C632 1.383 . S
C631 H639 0.929 . S
C632 C631 1.383 . S
C632 C633 1.377 . S
C633 H617 0.930 . S
C633 C632 1.377 . S
C633 C634 1.379 . S
C634 H618 0.931 . S
C634 C628 1.383 . S
C634 C633 1.379 . S
H635 C629 0.959 . S
H636 C629 0.961 . S
H637 C629 0.960 . S
H638 C630 0.930 . S
H639 C631 0.929 . S
H640 C648 0.929 . S
H641 C650 0.930 . S
H642 C652 0.930 1_556 S
H643 C655 0.929 . S
H644 C658 0.930 1_554 S
H645 C660 0.960 . S
H646 C660 0.960 . S
H647 C660 0.960 . S
C648 H640 0.929 . S
C648 C649 1.377 . S
C648 C650 1.384 . S
C649 C648 1.377 . S
C649 C655 1.390 . S
C650 H641 0.930 . S
C650 C648 1.384 . S
C650 C651 1.372 . S
C651 C650 1.372 . S
C651 C652 1.400 . S
C651 C656 1.490 1_554 S
C652 H642 0.930 1_554 S
C652 C651 1.400 . S
C652 C655 1.386 . S
H653 C669 0.930 . S
H654 C670 0.931 . S
C655 H643 0.929 . S
C655 C649 1.390 . S
C655 C652 1.386 . S
C656 C651 1.490 1_556 S
C656 C658 1.395 . S
C656 C659 1.403 . S
H657 C663 0.930 . S
C658 H644 0.930 1_556 S
C658 C656 1.395 . S
C658 C661 1.403 . S
C659 C656 1.403 . S
C659 C660 1.524 . S
C659 C663 1.400 . S
C660 H645 0.960 . S
C660 H646 0.960 . S
C660 H647 0.960 . S
C660 C659 1.524 . S
C661 C658 1.403 . S
C661 C662 1.392 . S
C661 C665 1.495 . S
C662 C661 1.392 . S
C662 C663 1.385 . S
C662 C664 1.478 . S
C663 H657 0.930 . S
C663 C659 1.400 . S
C663 C662 1.385 . S
C664 C662 1.478 . S
C664 C666 1.381 . S
C664 C670 1.383 . S
C665 C661 1.495 . S
C665 H671 0.959 1_556 S
C665 H672 0.961 . S
C665 H673 0.960 . S
C666 C664 1.381 . S
C666 C667 1.394 . S
C666 H674 0.930 . S
C667 C666 1.394 . S
C667 C668 1.383 . S
C667 H675 0.929 . S
C668 C667 1.383 . S
C668 C669 1.377 . S
C669 H653 0.930 . S
C669 C668 1.377 . S
C669 C670 1.379 . S
C670 H654 0.931 . S
C670 C664 1.383 . S
C670 C669 1.379 . S
H671 C665 0.959 1_554 S
H672 C665 0.961 . S
H673 C665 0.960 . S
H674 C666 0.930 . S
H675 C667 0.929 . S
H676 C684 0.929 . S
H677 C686 0.930 . S
H678 C688 0.930 1_556 S
H679 C691 0.929 . S
H680 C694 0.930 . S
H681 C696 0.960 1_556 S
H682 C696 0.962 . S
H683 C696 0.960 . S
C684 H676 0.929 . S
C684 C685 1.377 . S
C684 C686 1.384 . S
C685 C684 1.377 . S
C685 C691 1.390 . S
C686 H677 0.930 . S
C686 C684 1.384 . S
C686 C687 1.372 . S
C687 C686 1.372 . S
C687 C688 1.400 . S
C687 C692 1.490 1_554 S
C688 H678 0.930 1_554 S
C688 C687 1.400 . S
C688 C691 1.386 . S
H689 C705 0.930 1_455 S
H690 C706 0.931 . S
C691 H679 0.929 . S
C691 C685 1.390 . S
C691 C688 1.386 . S
C692 C687 1.490 1_556 S
C692 C694 1.395 . S
C692 C695 1.403 . S
H693 C699 0.887 1_455 S
C694 H680 0.930 . S
C694 C692 1.395 . S
C694 C697 1.403 . S
C695 C692 1.403 . S
C695 C696 1.524 1_656 S
C695 C699 1.400 . S
C696 H681 0.960 1_554 S
C696 H682 0.962 . S
C696 H683 0.960 . S
C696 C695 1.524 1_454 S
C697 C694 1.403 . S
C697 C698 1.392 . S
C697 C701 1.495 . S
C698 C697 1.392 . S
C698 C699 1.385 . S
C698 C700 1.478 . S
C699 H693 0.887 1_655 S
C699 C695 1.400 . S
C699 C698 1.385 . S
C700 C698 1.478 . S
C700 C702 1.381 . S
C700 C706 1.383 . S
C701 C697 1.495 . S
C701 H707 0.959 . S
C701 H708 0.961 . S
C701 H709 0.960 . S
C702 C700 1.381 . S
C702 C703 1.394 . S
C702 H710 0.930 . S
C703 C702 1.394 . S
C703 C704 1.383 . S
C703 H711 0.929 . S
C704 C703 1.383 . S
C704 C705 1.377 . S
C705 H689 0.930 1_655 S
C705 C704 1.377 . S
C705 C706 1.379 . S
C706 H690 0.931 . S
C706 C700 1.383 . S
C706 C705 1.379 . S
H707 C701 0.959 . S
H708 C701 0.961 . S
H709 C701 0.960 . S
H710 C702 0.930 . S
H711 C703 0.929 . S
H712 C720 0.929 . S
H713 C722 0.930 . S
H714 C724 0.930 . S
H715 C727 0.929 1_556 S
H716 C730 0.930 . S
H717 C732 0.960 . S
H718 C732 0.960 . S
H719 C732 0.960 . S
C720 H712 0.929 . S
C720 C721 1.377 . S
C720 C722 1.384 . S
C721 C720 1.377 . S
C721 C727 1.390 . S
C722 H713 0.930 . S
C722 C720 1.384 . S
C722 C723 1.372 . S
C723 C722 1.372 . S
C723 C724 1.400 . S
C723 C728 1.490 . S
C724 H714 0.930 . S
C724 C723 1.400 . S
C724 C727 1.386 . S
H725 C741 0.930 . S
H726 C742 0.931 . S
C727 H715 0.929 1_554 S
C727 C721 1.390 . S
C727 C724 1.386 . S
C728 C723 1.490 . S
C728 C730 1.395 . S
C728 C731 1.403 . S
H729 C735 0.930 . S
C730 H716 0.930 . S
C730 C728 1.395 . S
C730 C733 1.403 . S
C731 C728 1.403 . S
C731 C732 1.524 . S
C731 C735 1.400 . S
C732 H717 0.960 . S
C732 H718 0.960 . S
C732 H719 0.960 . S
C732 C731 1.524 . S
C733 C730 1.403 . S
C733 C734 1.392 . S
C733 C737 1.495 1_455 S
C734 C733 1.392 . S
C734 C735 1.385 . S
C734 C736 1.478 . S
C735 H729 0.930 . S
C735 C731 1.400 . S
C735 C734 1.385 . S
C736 C734 1.478 . S
C736 C738 1.381 . S
C736 C742 1.383 . S
C737 C733 1.495 1_655 S
C737 H743 0.959 . S
C737 H744 0.961 . S
C737 H745 0.960 . S
C738 C736 1.381 . S
C738 C739 1.394 . S
C738 H746 0.930 . S
C739 C738 1.394 . S
C739 C740 1.383 . S
C739 H747 0.929 . S
C740 C739 1.383 . S
C740 C741 1.377 . S
C741 H725 0.930 . S
C741 C740 1.377 . S
C741 C742 1.379 . S
C742 H726 0.931 . S
C742 C736 1.383 . S
C742 C741 1.379 . S
H743 C737 0.959 . S
H744 C737 0.961 . S
H745 C737 0.960 . S
H746 C738 0.930 . S
H747 C739 0.929 . S
H748 C756 0.929 . S
H749 C758 0.930 . S
H750 C760 0.930 . S
H751 C763 0.929 . S
H752 C766 0.930 . S
H753 C768 0.960 . S
H754 C768 0.960 . S
H755 C768 0.960 . S
C756 H748 0.929 . S
C756 C757 1.377 . S
C756 C758 1.384 . S
C757 C756 1.377 . S
C757 C763 1.390 . S
C758 H749 0.930 . S
C758 C756 1.384 . S
C758 C759 1.372 . S
C759 C758 1.372 . S
C759 C760 1.400 . S
C759 C764 1.490 . S
C760 H750 0.930 . S
C760 C759 1.400 . S
C760 C763 1.386 . S
H761 C777 0.930 . S
H762 C778 0.931 1_565 S
C763 H751 0.929 . S
C763 C757 1.390 . S
C763 C760 1.386 . S
C764 C759 1.490 . S
C764 C766 1.395 . S
C764 C767 1.403 . S
H765 C771 0.930 . S
C766 H752 0.930 . S
C766 C764 1.395 . S
C766 C769 1.403 . S
C767 C764 1.403 . S
C767 C768 1.524 . S
C767 C771 1.400 . S
C768 H753 0.960 . S
C768 H754 0.960 . S
C768 H755 0.960 . S
C768 C767 1.524 . S
C769 C766 1.403 . S
C769 C770 1.392 . S
C769 C773 1.495 . S
C770 C769 1.392 . S
C770 C771 1.385 . S
C770 C772 1.478 . S
C771 H765 0.930 . S
C771 C767 1.400 . S
C771 C770 1.385 . S
C772 C770 1.478 . S
C772 C774 1.381 . S
C772 C778 1.383 . S
C773 C769 1.495 . S
C773 H779 0.959 . S
C773 H780 0.961 . S
C773 H781 0.960 . S
C774 C772 1.381 . S
C774 C775 1.394 . S
C774 H782 0.930 . S
C775 C774 1.394 . S
C775 C776 1.383 . S
C775 H783 0.929 . S
C776 C775 1.383 . S
C776 C777 1.377 1_545 S
C777 H761 0.930 . S
C777 C776 1.377 1_565 S
C777 C778 1.379 1_565 S
C778 H762 0.931 1_545 S
C778 C772 1.383 . S
C778 C777 1.379 1_545 S
H779 C773 0.959 . S
H780 C773 0.961 . S
H781 C773 0.960 . S
H782 C774 0.930 . S
H783 C775 0.929 . S
H784 C792 0.929 . S
H785 C794 0.930 . S
H786 C796 0.930 . S
H787 C799 0.929 . S
H788 C802 0.930 . S
H789 C804 0.960 . S
H790 C804 0.960 . S
H791 C804 0.960 . S
C792 H784 0.929 . S
C792 C793 1.377 . S
C792 C794 1.384 . S
C793 C792 1.377 . S
C793 C799 1.390 . S
C794 H785 0.930 . S
C794 C792 1.384 . S
C794 C795 1.372 . S
C795 C794 1.372 . S
C795 C796 1.400 . S
C795 C800 1.490 . S
C796 H786 0.930 . S
C796 C795 1.400 . S
C796 C799 1.386 . S
H797 C813 0.930 . S
H798 C814 0.931 . S
C799 H787 0.929 . S
C799 C793 1.390 . S
C799 C796 1.386 . S
C800 C795 1.490 . S
C800 C802 1.395 . S
C800 C803 1.403 . S
H801 C807 0.930 . S
C802 H788 0.930 . S
C802 C800 1.395 . S
C802 C805 1.403 . S
C803 C800 1.403 . S
C803 C804 1.524 . S
C803 C807 1.400 . S
C804 H789 0.960 . S
C804 H790 0.960 . S
C804 H791 0.960 . S
C804 C803 1.524 . S
C805 C802 1.403 . S
C805 C806 1.392 . S
C805 C809 1.495 . S
C806 C805 1.392 . S
C806 C807 1.385 . S
C806 C808 1.478 . S
C807 H801 0.930 . S
C807 C803 1.400 . S
C807 C806 1.385 . S
C808 C806 1.478 . S
C808 C810 1.381 . S
C808 C814 1.383 . S
C809 C805 1.495 . S
C809 H815 0.959 . S
C809 H816 0.961 . S
C809 H817 0.960 . S
C810 C808 1.381 . S
C810 C811 1.394 . S
C810 H818 0.930 . S
C811 C810 1.394 . S
C811 C812 1.383 . S
C811 H819 0.929 . S
C812 C811 1.383 . S
C812 C813 1.377 . S
C813 H797 0.930 . S
C813 C812 1.377 . S
C813 C814 1.379 . S
C814 H798 0.931 . S
C814 C808 1.383 . S
C814 C813 1.379 . S
H815 C809 0.959 . S
H816 C809 0.961 . S
H817 C809 0.960 . S
H818 C810 0.930 . S
H819 C811 0.929 . S
H820 C828 0.929 . S
H821 C830 0.930 . S
H822 C832 0.930 . S
H823 C835 0.929 . S
H824 C838 0.930 . S
H825 C840 0.960 . S
H826 C840 0.960 . S
H827 C840 0.960 . S
C828 H820 0.929 . S
C828 C829 1.377 . S
C828 C830 1.384 . S
C829 C828 1.377 . S
C829 C835 1.390 . S
C830 H821 0.930 . S
C830 C828 1.384 . S
C830 C831 1.372 . S
C831 C830 1.372 . S
C831 C832 1.400 . S
C831 C836 1.490 . S
C832 H822 0.930 . S
C832 C831 1.400 . S
C832 C835 1.386 . S
H833 C849 0.930 . S
H834 C850 0.931 . S
C835 H823 0.929 . S
C835 C829 1.390 . S
C835 C832 1.386 . S
C836 C831 1.490 . S
C836 C838 1.395 . S
C836 C839 1.403 . S
H837 C843 0.930 . S
C838 H824 0.930 . S
C838 C836 1.395 . S
C838 C841 1.403 . S
C839 C836 1.403 . S
C839 C840 1.524 . S
C839 C843 1.400 . S
C840 H825 0.960 . S
C840 H826 0.960 . S
C840 H827 0.960 . S
C840 C839 1.524 . S
C841 C838 1.403 . S
C841 C842 1.392 . S
C841 C845 1.495 . S
C842 C841 1.392 . S
C842 C843 1.385 . S
C842 C844 1.478 . S
C843 H837 0.930 . S
C843 C839 1.400 . S
C843 C842 1.385 . S
C844 C842 1.478 . S
C844 C846 1.381 . S
C844 C850 1.383 . S
C845 C841 1.495 . S
C845 H851 0.959 . S
C845 H852 0.961 . S
C845 H853 0.960 . S
C846 C844 1.381 . S
C846 C847 1.394 . S
C846 H854 0.930 . S
C847 C846 1.394 . S
C847 C848 1.383 . S
C847 H855 0.929 . S
C848 C847 1.383 . S
C848 C849 1.377 . S
C849 H833 0.930 . S
C849 C848 1.377 . S
C849 C850 1.379 . S
C850 H834 0.931 . S
C850 C844 1.383 . S
C850 C849 1.379 . S
H851 C845 0.959 . S
H852 C845 0.961 . S
H853 C845 0.960 . S
H854 C846 0.930 . S
H855 C847 0.929 . S
H856 C864 0.929 . S
H857 C866 0.930 . S
H858 C868 0.933 . S
H859 C871 0.929 . S
H860 C874 0.930 . S
H861 C876 0.960 . S
H862 C876 0.960 . S
H863 C876 0.960 . S
C864 H856 0.929 . S
C864 C865 1.377 . S
C864 C866 1.384 . S
C865 C864 1.377 . S
C865 C871 1.390 . S
C866 H857 0.930 . S
C866 C864 1.384 . S
C866 C867 1.372 . S
C867 C866 1.372 . S
C867 C868 1.400 . S
C867 C872 1.490 . S
C868 H858 0.933 . S
C868 C867 1.400 . S
C868 C871 1.386 . S
H869 C885 0.930 . S
H870 C886 0.931 . S
C871 H859 0.929 . S
C871 C865 1.390 . S
C871 C868 1.386 . S
C872 C867 1.490 . S
C872 C874 1.395 . S
C872 C875 1.403 1_554 S
H873 C879 0.930 . S
C874 H860 0.930 . S
C874 C872 1.395 . S
C874 C877 1.403 . S
C875 C872 1.403 1_556 S
C875 C876 1.524 . S
C875 C879 1.400 . S
C876 H861 0.960 . S
C876 H862 0.960 . S
C876 H863 0.960 . S
C876 C875 1.524 . S
C877 C874 1.403 . S
C877 C878 1.392 1_554 S
C877 C881 1.495 1_655 S
C878 C877 1.392 1_556 S
C878 C879 1.385 . S
C878 C880 1.478 . S
C879 H873 0.930 . S
C879 C875 1.400 . S
C879 C878 1.385 . S
C880 C878 1.478 . S
C880 C882 1.381 . S
C880 C886 1.383 1_655 S
C881 C877 1.495 1_455 S
C881 H887 0.959 . S
C881 H888 0.961 . S
C881 H889 0.960 . S
C882 C880 1.381 . S
C882 C883 1.394 . S
C882 H890 0.930 1_556 S
C883 C882 1.394 . S
C883 C884 1.383 1_655 S
C883 H891 0.929 . S
C884 C883 1.383 1_455 S
C884 C885 1.377 . S
C885 H869 0.930 . S
C885 C884 1.377 . S
C885 C886 1.379 . S
C886 H870 0.931 . S
C886 C880 1.383 1_455 S
C886 C885 1.379 . S
H887 C881 0.959 . S
H888 C881 0.961 . S
H889 C881 0.960 . S
H890 C882 0.930 1_554 S
H891 C883 0.929 . S
H892 C900 0.929 . S
H893 C902 0.930 . S
H894 C904 0.930 . S
H895 C907 0.929 . S
H896 C910 0.930 . S
H897 C912 0.960 . S
H898 C912 0.960 . S
H899 C912 0.960 . S
C900 H892 0.929 . S
C900 C901 1.377 . S
C900 C902 1.384 . S
C901 C900 1.377 . S
C901 C907 1.390 . S
C902 H893 0.930 . S
C902 C900 1.384 . S
C902 C903 1.372 . S
C903 C902 1.372 . S
C903 C904 1.400 . S
C903 C908 1.490 . S
C904 H894 0.930 . S
C904 C903 1.400 . S
C904 C907 1.386 . S
H905 C921 0.930 . S
H906 C922 0.931 . S
C907 H895 0.929 . S
C907 C901 1.390 . S
C907 C904 1.386 . S
C908 C903 1.490 . S
C908 C910 1.395 1_554 S
C908 C911 1.403 . S
H909 C915 0.930 . S
C910 H896 0.930 . S
C910 C908 1.395 1_556 S
C910 C913 1.403 . S
C911 C908 1.403 . S
C911 C912 1.524 . S
C911 C915 1.400 . S
C912 H897 0.960 . S
C912 H898 0.960 . S
C912 H899 0.960 . S
C912 C911 1.524 . S
C913 C910 1.403 . S
C913 C914 1.392 . S
C913 C917 1.495 . S
C914 C913 1.392 . S
C914 C915 1.385 1_556 S
C914 C916 1.478 . S
C915 H909 0.930 . S
C915 C911 1.400 . S
C915 C914 1.385 1_554 S
C916 C914 1.478 . S
C916 C918 1.381 1_565 S
C916 C922 1.383 . S
C917 C913 1.495 . S
C917 H923 0.959 . S
C917 H924 0.961 . S
C917 H925 0.960 . S
C918 C916 1.381 1_545 S
C918 C919 1.394 . S
C918 H926 0.930 . S
C919 C918 1.394 . S
C919 C920 1.383 . S
C919 H927 0.929 . S
C920 C919 1.383 . S
C920 C921 1.377 1_545 S
C921 H905 0.930 . S
C921 C920 1.377 1_565 S
C921 C922 1.379 . S
C922 H906 0.931 . S
C922 C916 1.383 . S
C922 C921 1.379 . S
H923 C917 0.959 . S
H924 C917 0.961 . S
H925 C917 0.960 . S
H926 C918 0.930 . S
H927 C919 0.929 . S
H928 C936 0.929 . S
H929 C938 0.930 . S
H930 C940 0.930 . S
H931 C943 0.929 . S
H932 C946 0.930 . S
H933 C948 0.960 . S
H934 C948 0.960 . S
H935 C948 0.960 . S
C936 H928 0.929 . S
C936 C937 1.377 . S
C936 C938 1.384 . S
C937 C936 1.377 . S
C937 C943 1.390 . S
C938 H929 0.930 . S
C938 C936 1.384 . S
C938 C939 1.372 . S
C939 C938 1.372 . S
C939 C940 1.400 . S
C939 C944 1.490 . S
C940 H930 0.930 . S
C940 C939 1.400 . S
C940 C943 1.386 . S
H941 C957 0.930 . S
H942 C958 0.931 . S
C943 H931 0.929 . S
C943 C937 1.390 . S
C943 C940 1.386 . S
C944 C939 1.490 . S
C944 C946 1.395 . S
C944 C947 1.403 1_554 S
H945 C951 0.930 . S
C946 H932 0.930 . S
C946 C944 1.395 . S
C946 C949 1.403 . S
C947 C944 1.403 1_556 S
C947 C948 1.524 . S
C947 C951 1.400 . S
C948 H933 0.960 . S
C948 H934 0.960 . S
C948 H935 0.960 . S
C948 C947 1.524 . S
C949 C946 1.403 . S
C949 C950 1.392 1_554 S
C949 C953 1.495 . S
C950 C949 1.392 1_556 S
C950 C951 1.385 . S
C950 C952 1.478 . S
C951 H945 0.930 . S
C951 C947 1.400 . S
C951 C950 1.385 . S
C952 C950 1.478 . S
C952 C954 1.381 . S
C952 C958 1.383 . S
C953 C949 1.495 . S
C953 H959 0.959 . S
C953 H960 0.961 . S
C953 H961 0.960 . S
C954 C952 1.381 . S
C954 C955 1.394 . S
C954 H962 0.930 . S
C955 C954 1.394 . S
C955 C956 1.383 . S
C955 H963 0.929 . S
C956 C955 1.383 . S
C956 C957 1.377 . S
C957 H941 0.930 . S
C957 C956 1.377 . S
C957 C958 1.379 . S
C958 H942 0.931 . S
C958 C952 1.383 . S
C958 C957 1.379 . S
H959 C953 0.959 . S
H960 C953 0.961 . S
H961 C953 0.960 . S
H962 C954 0.930 . S
H963 C955 0.929 . S
H964 C972 0.929 . S
H965 C974 0.930 . S
H966 C976 0.930 . S
H967 C979 0.929 . S
H968 C982 0.930 . S
H969 C984 0.960 . S
H970 C984 0.960 . S
H971 C984 0.960 1_554 S
C972 H964 0.929 . S
C972 C973 1.377 . S
C972 C974 1.384 . S
C973 C972 1.377 . S
C973 C979 1.390 . S
C974 H965 0.930 . S
C974 C972 1.384 . S
C974 C975 1.372 . S
C975 C974 1.372 . S
C975 C976 1.400 . S
C975 C980 1.490 . S
C976 H966 0.930 . S
C976 C975 1.400 . S
C976 C979 1.386 . S
H977 C993 0.930 . S
H978 C994 0.931 . S
C979 H967 0.929 . S
C979 C973 1.390 . S
C979 C976 1.386 . S
C980 C975 1.490 . S
C980 C982 1.395 . S
C980 C983 1.403 1_554 S
H981 C987 0.930 . S
C982 H968 0.930 . S
C982 C980 1.395 . S
C982 C985 1.403 . S
C983 C980 1.403 1_556 S
C983 C984 1.524 . S
C983 C987 1.400 . S
C984 H969 0.960 . S
C984 H970 0.960 . S
C984 H971 0.960 1_556 S
C984 C983 1.524 . S
C985 C982 1.403 . S
C985 C986 1.392 1_554 S
C985 C989 1.495 . S
C986 C985 1.392 1_556 S
C986 C987 1.385 . S
C986 C988 1.478 . S
C987 H981 0.930 . S
C987 C983 1.400 . S
C987 C986 1.385 . S
C988 C986 1.478 . S
C988 C990 1.381 . S
C988 C994 1.383 . S
C989 C985 1.495 . S
C989 H995 0.959 . S
C989 H996 0.961 . S
C989 H997 0.960 . S
C990 C988 1.381 . S
C990 C991 1.394 . S
C990 H998 0.930 . S
C991 C990 1.394 . S
C991 C992 1.383 . S
C991 H999 0.929 . S
C992 C991 1.383 . S
C992 C993 1.377 . S
C993 H977 0.930 . S
C993 C992 1.377 . S
C993 C994 1.379 . S
C994 H978 0.931 . S
C994 C988 1.383 . S
C994 C993 1.379 . S
H995 C989 0.959 . S
H996 C989 0.961 . S
H997 C989 0.960 . S
H998 C990 0.930 . S
H999 C991 0.929 . S
H1000 C1008 0.929 . S
H1001 C1010 0.930 . S
H1002 C1012 0.930 . S
H1003 C1015 0.929 . S
H1004 C1018 0.930 . S
H1005 C1020 0.960 . S
H1006 C1020 0.960 . S
H1007 C1020 0.960 . S
C1008 H1000 0.929 . S
C1008 C1009 1.377 . S
C1008 C1010 1.384 . S
C1009 C1008 1.377 . S
C1009 C1015 1.390 . S
C1010 H1001 0.930 . S
C1010 C1008 1.384 . S
C1010 C1011 1.372 . S
C1011 C1010 1.372 . S
C1011 C1012 1.400 . S
C1011 C1016 1.490 . S
C1012 H1002 0.930 . S
C1012 C1011 1.400 . S
C1012 C1015 1.386 . S
H1013 C1029 0.930 . S
H1014 C1030 0.931 . S
C1015 H1003 0.929 . S
C1015 C1009 1.390 . S
C1015 C1012 1.386 . S
C1016 C1011 1.490 . S
C1016 C1018 1.395 . S
C1016 C1019 1.403 . S
H1017 C1023 0.930 . S
C1018 H1004 0.930 . S
C1018 C1016 1.395 . S
C1018 C1021 1.403 . S
C1019 C1016 1.403 . S
C1019 C1020 1.524 . S
C1019 C1023 1.400 . S
C1020 H1005 0.960 . S
C1020 H1006 0.960 . S
C1020 H1007 0.960 . S
C1020 C1019 1.524 . S
C1021 C1018 1.403 . S
C1021 C1022 1.392 . S
C1021 C1025 1.495 . S
C1022 C1021 1.392 . S
C1022 C1023 1.385 . S
C1022 C1024 1.478 . S
C1023 H1017 0.930 . S
C1023 C1019 1.400 . S
C1023 C1022 1.385 . S
C1024 C1022 1.478 . S
C1024 C1026 1.381 . S
C1024 C1030 1.383 . S
C1025 C1021 1.495 . S
C1025 H1031 0.959 1_455 S
C1025 H1032 0.961 . S
C1025 H1033 0.960 1_455 S
C1026 C1024 1.381 . S
C1026 C1027 1.394 . S
C1026 H1034 0.930 . S
C1027 C1026 1.394 . S
C1027 C1028 1.383 . S
C1027 H1035 0.929 . S
C1028 C1027 1.383 . S
C1028 C1029 1.377 . S
C1029 H1013 0.930 . S
C1029 C1028 1.377 . S
C1029 C1030 1.379 . S
C1030 H1014 0.931 . S
C1030 C1024 1.383 . S
C1030 C1029 1.379 . S
H1031 C1025 0.959 1_655 S
H1032 C1025 0.961 . S
H1033 C1025 0.960 1_655 S
H1034 C1026 0.930 . S
H1035 C1027 0.929 . S
H1036 C1044 0.929 . S
H1037 C1046 0.930 . S
H1038 C1048 0.930 . S
H1039 C1051 0.929 . S
H1040 C1054 0.930 . S
H1041 C1056 0.960 . S
H1042 C1056 0.960 . S
H1043 C1056 0.960 . S
C1044 H1036 0.929 . S
C1044 C1045 1.377 . S
C1044 C1046 1.384 . S
C1045 C1044 1.377 . S
C1045 C1051 1.390 . S
C1046 H1037 0.930 . S
C1046 C1044 1.384 . S
C1046 C1047 1.372 . S
C1047 C1046 1.372 . S
C1047 C1048 1.400 . S
C1047 C1052 1.490 . S
C1048 H1038 0.930 . S
C1048 C1047 1.400 . S
C1048 C1051 1.386 . S
H1049 C1065 0.930 . S
H1050 C1066 0.931 . S
C1051 H1039 0.929 . S
C1051 C1045 1.390 . S
C1051 C1048 1.386 . S
C1052 C1047 1.490 . S
C1052 C1054 1.395 . S
C1052 C1055 1.403 . S
H1053 C1059 0.930 . S
C1054 H1040 0.930 . S
C1054 C1052 1.395 . S
C1054 C1057 1.403 . S
C1055 C1052 1.403 . S
C1055 C1056 1.524 . S
C1055 C1059 1.400 . S
C1056 H1041 0.960 . S
C1056 H1042 0.960 . S
C1056 H1043 0.960 . S
C1056 C1055 1.524 . S
C1057 C1054 1.403 . S
C1057 C1058 1.392 . S
C1057 C1061 1.495 . S
C1058 C1057 1.392 . S
C1058 C1059 1.385 . S
C1058 C1060 1.478 . S
C1059 H1053 0.930 . S
C1059 C1055 1.400 . S
C1059 C1058 1.385 . S
C1060 C1058 1.478 . S
C1060 C1062 1.381 . S
C1060 C1066 1.383 . S
C1061 C1057 1.495 . S
C1061 H1067 0.959 1_545 S
C1061 H1068 0.961 . S
C1061 H1069 0.960 1_545 S
C1062 C1060 1.381 . S
C1062 C1063 1.394 . S
C1062 H1070 0.930 . S
C1063 C1062 1.394 . S
C1063 C1064 1.383 . S
C1063 H1071 0.929 . S
C1064 C1063 1.383 . S
C1064 C1065 1.377 . S
C1065 H1049 0.930 . S
C1065 C1064 1.377 . S
C1065 C1066 1.379 . S
C1066 H1050 0.931 . S
C1066 C1060 1.383 . S
C1066 C1065 1.379 . S
H1067 C1061 0.959 1_565 S
H1068 C1061 0.961 . S
H1069 C1061 0.960 1_565 S
H1070 C1062 0.930 . S
H1071 C1063 0.929 . S
H1072 C1080 0.929 . S
H1073 C1082 0.930 . S
H1074 C1084 0.930 . S
H1075 C1087 0.929 . S
H1076 C1090 0.930 . S
H1077 C1092 0.960 . S
H1078 C1092 0.960 . S
H1079 C1092 0.960 . S
C1080 H1072 0.929 . S
C1080 C1081 1.377 . S
C1080 C1082 1.384 . S
C1081 C1080 1.377 . S
C1081 C1087 1.390 . S
C1082 H1073 0.930 . S
C1082 C1080 1.384 . S
C1082 C1083 1.372 . S
C1083 C1082 1.372 . S
C1083 C1084 1.400 . S
C1083 C1088 1.490 . S
C1084 H1074 0.930 . S
C1084 C1083 1.400 . S
C1084 C1087 1.386 . S
H1085 C1101 0.930 . S
H1086 C1102 0.931 . S
C1087 H1075 0.929 . S
C1087 C1081 1.390 . S
C1087 C1084 1.386 . S
C1088 C1083 1.490 . S
C1088 C1090 1.395 . S
C1088 C1091 1.403 . S
H1089 C1095 0.930 . S
C1090 H1076 0.930 . S
C1090 C1088 1.395 . S
C1090 C1093 1.403 . S
C1091 C1088 1.403 . S
C1091 C1092 1.524 . S
C1091 C1095 1.400 . S
C1092 H1077 0.960 . S
C1092 H1078 0.960 . S
C1092 H1079 0.960 . S
C1092 C1091 1.524 . S
C1093 C1090 1.403 . S
C1093 C1094 1.392 . S
C1093 C1097 1.495 . S
C1094 C1093 1.392 . S
C1094 C1095 1.385 . S
C1094 C1096 1.478 . S
C1095 H1089 0.930 . S
C1095 C1091 1.400 . S
C1095 C1094 1.385 . S
C1096 C1094 1.478 . S
C1096 C1098 1.381 . S
C1096 C1102 1.383 . S
C1097 C1093 1.495 . S
C1097 H1103 0.959 . S
C1097 H1104 0.961 . S
C1097 H1105 0.960 . S
C1098 C1096 1.381 . S
C1098 C1099 1.394 . S
C1098 H1106 0.930 . S
C1099 C1098 1.394 . S
C1099 C1100 1.383 . S
C1099 H1107 0.929 . S
C1100 C1099 1.383 . S
C1100 C1101 1.377 . S
C1101 H1085 0.930 . S
C1101 C1100 1.377 . S
C1101 C1102 1.379 . S
C1102 H1086 0.931 . S
C1102 C1096 1.383 . S
C1102 C1101 1.379 . S
H1103 C1097 0.959 . S
H1104 C1097 0.961 . S
H1105 C1097 0.960 . S
H1106 C1098 0.930 . S
H1107 C1099 0.929 . S
H1108 C1116 0.929 . S
H1109 C1118 0.930 . S
H1110 C1120 0.930 . S
H1111 C1123 0.929 . S
H1112 C1126 0.930 . S
H1113 C1128 0.960 . S
H1114 C1128 0.960 . S
H1115 C1128 0.960 . S
C1116 H1108 0.929 . S
C1116 C1117 1.377 . S
C1116 C1118 1.384 . S
C1117 C1116 1.377 . S
C1117 C1123 1.390 . S
C1118 H1109 0.930 . S
C1118 C1116 1.384 . S
C1118 C1119 1.372 . S
C1119 C1118 1.372 . S
C1119 C1120 1.400 . S
C1119 C1124 1.490 . S
C1120 H1110 0.930 . S
C1120 C1119 1.400 . S
C1120 C1123 1.386 . S
H1121 C1137 0.930 . S
H1122 C1138 0.931 . S
C1123 H1111 0.929 . S
C1123 C1117 1.390 . S
C1123 C1120 1.386 . S
C1124 C1119 1.490 . S
C1124 C1126 1.395 . S
C1124 C1127 1.403 . S
H1125 C1131 0.930 . S
C1126 H1112 0.930 . S
C1126 C1124 1.395 . S
C1126 C1129 1.403 . S
C1127 C1124 1.403 . S
C1127 C1128 1.524 . S
C1127 C1131 1.400 . S
C1128 H1113 0.960 . S
C1128 H1114 0.960 . S
C1128 H1115 0.960 . S
C1128 C1127 1.524 . S
C1129 C1126 1.403 . S
C1129 C1130 1.392 . S
C1129 C1133 1.495 . S
C1130 C1129 1.392 . S
C1130 C1131 1.385 . S
C1130 C1132 1.478 . S
C1131 H1125 0.930 . S
C1131 C1127 1.400 . S
C1131 C1130 1.385 . S
C1132 C1130 1.478 . S
C1132 C1134 1.381 . S
C1132 C1138 1.383 . S
C1133 C1129 1.495 . S
C1133 H1139 0.959 . S
C1133 H1140 0.961 . S
C1133 H1141 0.960 . S
C1134 C1132 1.381 . S
C1134 C1135 1.394 . S
C1134 H1142 0.930 . S
C1135 C1134 1.394 . S
C1135 C1136 1.383 . S
C1135 H1143 0.929 . S
C1136 C1135 1.383 . S
C1136 C1137 1.377 . S
C1137 H1121 0.930 . S
C1137 C1136 1.377 . S
C1137 C1138 1.379 . S
C1138 H1122 0.931 . S
C1138 C1132 1.383 . S
C1138 C1137 1.379 . S
H1139 C1133 0.959 . S
H1140 C1133 0.961 . S
H1141 C1133 0.960 . S
H1142 C1134 0.930 . S
H1143 C1135 0.929 . S
H1144 C1152 0.929 . S
H1145 C1154 0.930 . S
H1146 C1156 0.930 . S
H1147 C1159 0.929 . S
H1148 C1162 0.930 . S
H1149 C1164 0.949 1_455 S
H1150 C1164 0.955 1_455 S
H1151 C1164 0.965 . S
C1152 H1144 0.929 . S
C1152 C1153 1.377 . S
C1152 C1154 1.384 . S
C1153 C1152 1.377 . S
C1153 C1159 1.390 . S
C1154 H1145 0.930 . S
C1154 C1152 1.384 . S
C1154 C1155 1.372 . S
C1155 C1154 1.372 . S
C1155 C1156 1.400 . S
C1155 C1160 1.490 . S
C1156 H1146 0.930 . S
C1156 C1155 1.400 . S
C1156 C1159 1.386 . S
H1157 C1173 0.930 . S
H1158 C1174 0.931 . S
C1159 H1147 0.929 . S
C1159 C1153 1.390 . S
C1159 C1156 1.386 . S
C1160 C1155 1.490 . S
C1160 C1162 1.395 . S
C1160 C1163 1.403 . S
H1161 C1167 0.930 . S
C1162 H1148 0.930 . S
C1162 C1160 1.395 . S
C1162 C1165 1.403 . S
C1163 C1160 1.403 . S
C1163 C1164 1.535 . S
C1163 C1167 1.400 . S
C1164 H1149 0.949 1_655 S
C1164 H1150 0.955 1_655 S
C1164 H1151 0.965 . S
C1164 C1163 1.535 . S
C1165 C1162 1.403 . S
C1165 C1166 1.392 . S
C1165 C1169 1.495 . S
C1166 C1165 1.392 . S
C1166 C1167 1.385 . S
C1166 C1168 1.478 . S
C1167 H1161 0.930 . S
C1167 C1163 1.400 . S
C1167 C1166 1.385 . S
C1168 C1166 1.478 . S
C1168 C1170 1.381 . S
C1168 C1174 1.383 . S
C1169 C1165 1.495 . S
C1169 H1175 0.959 . S
C1169 H1176 0.961 . S
C1169 H1177 0.960 . S
C1170 C1168 1.381 . S
C1170 C1171 1.394 . S
C1170 H1178 0.930 . S
C1171 C1170 1.394 . S
C1171 C1172 1.383 . S
C1171 H1179 0.929 . S
C1172 C1171 1.383 . S
C1172 C1173 1.377 . S
C1173 H1157 0.930 . S
C1173 C1172 1.377 . S
C1173 C1174 1.379 . S
C1174 H1158 0.931 . S
C1174 C1168 1.383 . S
C1174 C1173 1.379 . S
H1175 C1169 0.959 . S
H1176 C1169 0.961 . S
H1177 C1169 0.960 . S
H1178 C1170 0.930 . S
H1179 C1171 0.929 . S
H1180 C1188 0.929 . S
H1181 C1190 0.930 . S
H1182 C1192 0.930 . S
H1183 C1195 0.929 . S
H1184 C1198 0.930 . S
H1185 C1200 0.935 1_545 S
H1186 C1200 0.938 1_545 S
H1187 C1200 0.984 . S
C1188 H1180 0.929 . S
C1188 C1189 1.377 . S
C1188 C1190 1.384 . S
C1189 C1188 1.377 . S
C1189 C1195 1.390 . S
C1190 H1181 0.930 . S
C1190 C1188 1.384 . S
C1190 C1191 1.372 . S
C1191 C1190 1.372 . S
C1191 C1192 1.400 . S
C1191 C1196 1.490 . S
C1192 H1182 0.930 . S
C1192 C1191 1.400 . S
C1192 C1195 1.386 . S
H1193 C1209 0.930 . S
H1194 C1210 0.931 . S
C1195 H1183 0.929 . S
C1195 C1189 1.390 . S
C1195 C1192 1.386 . S
C1196 C1191 1.490 . S
C1196 C1198 1.395 . S
C1196 C1199 1.403 . S
H1197 C1203 0.930 . S
C1198 H1184 0.930 . S
C1198 C1196 1.395 . S
C1198 C1201 1.403 . S
C1199 C1196 1.403 . S
C1199 C1200 1.550 . S
C1199 C1203 1.400 . S
C1200 H1185 0.935 1_565 S
C1200 H1186 0.938 1_565 S
C1200 H1187 0.984 . S
C1200 C1199 1.550 . S
C1201 C1198 1.403 . S
C1201 C1202 1.392 . S
C1201 C1205 1.495 . S
C1202 C1201 1.392 . S
C1202 C1203 1.385 . S
C1202 C1204 1.478 . S
C1203 H1197 0.930 . S
C1203 C1199 1.400 . S
C1203 C1202 1.385 . S
C1204 C1202 1.478 . S
C1204 C1206 1.381 . S
C1204 C1210 1.383 . S
C1205 C1201 1.495 . S
C1205 H1211 0.959 . S
C1205 H1212 0.961 . S
C1205 H1213 0.960 . S
C1206 C1204 1.381 . S
C1206 C1207 1.394 . S
C1206 H1214 0.930 . S
C1207 C1206 1.394 . S
C1207 C1208 1.383 . S
C1207 H1215 0.929 . S
C1208 C1207 1.383 . S
C1208 C1209 1.377 . S
C1209 H1193 0.930 . S
C1209 C1208 1.377 . S
C1209 C1210 1.379 . S
C1210 H1194 0.931 . S
C1210 C1204 1.383 . S
C1210 C1209 1.379 . S
H1211 C1205 0.959 . S
H1212 C1205 0.961 . S
H1213 C1205 0.960 . S
H1214 C1206 0.930 . S
H1215 C1207 0.929 . S
H1216 C1224 0.929 . S
H1217 C1226 0.930 . S
H1218 C1228 0.930 . S
H1219 C1231 0.929 . S
H1220 C1234 0.930 . S
H1221 C1236 0.960 . S
H1222 C1236 0.960 . S
H1223 C1236 0.960 . S
C1224 H1216 0.929 . S
C1224 C1225 1.377 . S
C1224 C1226 1.384 . S
C1225 C1224 1.377 . S
C1225 C1231 1.390 . S
C1226 H1217 0.930 . S
C1226 C1224 1.384 . S
C1226 C1227 1.372 . S
C1227 C1226 1.372 . S
C1227 C1228 1.400 . S
C1227 C1232 1.490 . S
C1228 H1218 0.930 . S
C1228 C1227 1.400 . S
C1228 C1231 1.386 . S
H1229 C1245 0.930 . S
H1230 C1246 0.931 . S
C1231 H1219 0.929 . S
C1231 C1225 1.390 . S
C1231 C1228 1.386 . S
C1232 C1227 1.490 . S
C1232 C1234 1.395 . S
C1232 C1235 1.403 . S
H1233 C1239 0.930 . S
C1234 H1220 0.930 . S
C1234 C1232 1.395 . S
C1234 C1237 1.403 . S
C1235 C1232 1.403 . S
C1235 C1236 1.524 . S
C1235 C1239 1.400 . S
C1236 H1221 0.960 . S
C1236 H1222 0.960 . S
C1236 H1223 0.960 . S
C1236 C1235 1.524 . S
C1237 C1234 1.403 . S
C1237 C1238 1.392 . S
C1237 C1241 1.495 . S
C1238 C1237 1.392 . S
C1238 C1239 1.385 . S
C1238 C1240 1.478 . S
C1239 H1233 0.930 . S
C1239 C1235 1.400 . S
C1239 C1238 1.385 . S
C1240 C1238 1.478 . S
C1240 C1242 1.381 . S
C1240 C1246 1.383 . S
C1241 C1237 1.495 . S
C1241 H1247 0.959 . S
C1241 H1248 0.961 . S
C1241 H1249 0.960 . S
C1242 C1240 1.381 . S
C1242 C1243 1.394 . S
C1242 H1250 0.930 . S
C1243 C1242 1.394 . S
C1243 C1244 1.383 . S
C1243 H1251 0.929 . S
C1244 C1243 1.383 . S
C1244 C1245 1.377 . S
C1245 H1229 0.930 . S
C1245 C1244 1.377 . S
C1245 C1246 1.379 . S
C1246 H1230 0.931 . S
C1246 C1240 1.383 . S
C1246 C1245 1.379 . S
H1247 C1241 0.959 . S
H1248 C1241 0.961 . S
H1249 C1241 0.960 . S
H1250 C1242 0.930 . S
H1251 C1243 0.929 . S
H1252 C1260 0.929 . S
H1253 C1262 0.930 . S
H1254 C1264 0.930 . S
H1255 C1267 0.929 . S
H1256 C1270 0.930 . S
H1257 C1272 0.960 . S
H1258 C1272 0.960 . S
H1259 C1272 0.960 . S
C1260 H1252 0.929 . S
C1260 C1261 1.377 . S
C1260 C1262 1.384 . S
C1261 C1260 1.377 . S
C1261 C1267 1.390 . S
C1262 H1253 0.930 . S
C1262 C1260 1.384 . S
C1262 C1263 1.372 . S
C1263 C1262 1.372 . S
C1263 C1264 1.400 . S
C1263 C1268 1.490 . S
C1264 H1254 0.930 . S
C1264 C1263 1.400 . S
C1264 C1267 1.386 . S
H1265 C1281 0.930 . S
H1266 C1282 0.931 . S
C1267 H1255 0.929 . S
C1267 C1261 1.390 . S
C1267 C1264 1.386 . S
C1268 C1263 1.490 . S
C1268 C1270 1.395 . S
C1268 C1271 1.403 . S
H1269 C1275 0.930 . S
C1270 H1256 0.930 . S
C1270 C1268 1.395 . S
C1270 C1273 1.403 . S
C1271 C1268 1.403 . S
C1271 C1272 1.524 . S
C1271 C1275 1.400 . S
C1272 H1257 0.960 . S
C1272 H1258 0.960 . S
C1272 H1259 0.960 . S
C1272 C1271 1.524 . S
C1273 C1270 1.403 . S
C1273 C1274 1.392 . S
C1273 C1277 1.495 . S
C1274 C1273 1.392 . S
C1274 C1275 1.385 . S
C1274 C1276 1.478 . S
C1275 H1269 0.930 . S
C1275 C1271 1.400 . S
C1275 C1274 1.385 . S
C1276 C1274 1.478 . S
C1276 C1278 1.381 . S
C1276 C1282 1.383 . S
C1277 C1273 1.495 . S
C1277 H1283 0.959 . S
C1277 H1284 0.961 . S
C1277 H1285 0.960 . S
C1278 C1276 1.381 . S
C1278 C1279 1.394 . S
C1278 H1286 0.930 . S
C1279 C1278 1.394 . S
C1279 C1280 1.383 . S
C1279 H1287 0.929 . S
C1280 C1279 1.383 . S
C1280 C1281 1.377 . S
C1281 H1265 0.930 . S
C1281 C1280 1.377 . S
C1281 C1282 1.379 . S
C1282 H1266 0.931 . S
C1282 C1276 1.383 . S
C1282 C1281 1.379 . S
H1283 C1277 0.959 . S
H1284 C1277 0.961 . S
H1285 C1277 0.960 . S
H1286 C1278 0.930 . S
H1287 C1279 0.929 . S
C433 C76 1.800 . S
C452 C163 1.828 . S
C488 C247 1.895 . S
C469 C87 1.826 . S
C524 C323 1.915 . S
C505 C54 1.942 . S
C560 C407 1.887 . S
C541 C65 1.920 . S
C596 C154 1.865 1_565 S
C577 C32 1.813 . S
C613 C43 1.843 . S
C632 C238 1.894 . S
C649 C10 1.948 . S
C668 C312 1.858 . S
C685 C21 1.930 . S
C704 C396 1.863 . S
C740 C151 0.445 1_455 S
C721 C60 0.506 . S
C776 C235 0.507 . S
C757 C71 0.468 . S
C812 C328 0.558 . S
C793 C82 0.424 . S
C829 C49 0.473 . S
C848 C412 0.425 . S
C865 C16 0.507 . S
C884 C160 0.455 . S
C920 C244 0.569 . S
C901 C27 0.463 . S
C956 C319 0.413 . S
C937 C38 0.472 . S
C973 C5 0.498 . S
C992 C403 0.499 . S
C1009 C59 1.942 . S
C1028 C144 1.961 . S
C1045 C70 1.906 . S
C1064 C228 1.924 . S
C1100 C322 1.921 . S
C1081 C81 1.808 . S
C1136 C406 1.961 . S
C1117 C48 1.835 . S
C1153 C15 1.931 . S
C1172 C155 2.009 . S
C1208 C239 1.971 1_565 S
C1189 C26 1.897 . S
C1244 C331 1.921 . S
C1225 C37 1.805 . S
C1261 C4 1.828 . S
C1280 C415 1.971 . S
