# Generated by pormake.
# Topology the, (3,8)-cn, num edge types: 1
# Building blocks:
#     Node 0, Type 0, BuildingBlock: ESEHIV_clean_linker_0, # of connection points: 3
#     Node 1, Type 0, BuildingBlock: ESEHIV_clean_linker_0, # of connection points: 3
#     Node 2, Type 0, BuildingBlock: ESEHIV_clean_linker_0, # of connection points: 3
#     Node 3, Type 0, BuildingBlock: ESEHIV_clean_linker_0, # of connection points: 3
#     Node 4, Type 0, BuildingBlock: ESEHIV_clean_linker_0, # of connection points: 3
#     Node 5, Type 0, BuildingBlock: ESEHIV_clean_linker_0, # of connection points: 3
#     Node 6, Type 0, BuildingBlock: ESEHIV_clean_linker_0, # of connection points: 3
#     Node 7, Type 0, BuildingBlock: ESEHIV_clean_linker_0, # of connection points: 3
#     Node 8, Type 1, BuildingBlock: GIZVER_clean_sbu_0, # of connection points: 8
#     Node 9, Type 1, BuildingBlock: GIZVER_clean_sbu_0, # of connection points: 8
#     Node 10, Type 1, BuildingBlock: GIZVER_clean_sbu_0, # of connection points: 8
#     Edge 11, Type (0, 1), BuildingBlock: EZIPEK_clean_linker_0, # of connection points: 2
#     Edge 12, Type (0, 1), BuildingBlock: EZIPEK_clean_linker_0, # of connection points: 2
#     Edge 13, Type (0, 1), BuildingBlock: EZIPEK_clean_linker_0, # of connection points: 2
#     Edge 14, Type (0, 1), BuildingBlock: EZIPEK_clean_linker_0, # of connection points: 2
#     Edge 15, Type (0, 1), BuildingBlock: EZIPEK_clean_linker_0, # of connection points: 2
#     Edge 16, Type (0, 1), BuildingBlock: EZIPEK_clean_linker_0, # of connection points: 2
#     Edge 17, Type (0, 1), BuildingBlock: EZIPEK_clean_linker_0, # of connection points: 2
#     Edge 18, Type (0, 1), BuildingBlock: EZIPEK_clean_linker_0, # of connection points: 2
#     Edge 19, Type (0, 1), BuildingBlock: EZIPEK_clean_linker_0, # of connection points: 2
#     Edge 20, Type (0, 1), BuildingBlock: EZIPEK_clean_linker_0, # of connection points: 2
#     Edge 21, Type (0, 1), BuildingBlock: EZIPEK_clean_linker_0, # of connection points: 2
#     Edge 22, Type (0, 1), BuildingBlock: EZIPEK_clean_linker_0, # of connection points: 2
#     Edge 23, Type (0, 1), BuildingBlock: EZIPEK_clean_linker_0, # of connection points: 2
#     Edge 24, Type (0, 1), BuildingBlock: EZIPEK_clean_linker_0, # of connection points: 2
#     Edge 25, Type (0, 1), BuildingBlock: EZIPEK_clean_linker_0, # of connection points: 2
#     Edge 26, Type (0, 1), BuildingBlock: EZIPEK_clean_linker_0, # of connection points: 2
#     Edge 27, Type (0, 1), BuildingBlock: EZIPEK_clean_linker_0, # of connection points: 2
#     Edge 28, Type (0, 1), BuildingBlock: EZIPEK_clean_linker_0, # of connection points: 2
#     Edge 29, Type (0, 1), BuildingBlock: EZIPEK_clean_linker_0, # of connection points: 2
#     Edge 30, Type (0, 1), BuildingBlock: EZIPEK_clean_linker_0, # of connection points: 2
#     Edge 31, Type (0, 1), BuildingBlock: EZIPEK_clean_linker_0, # of connection points: 2
#     Edge 32, Type (0, 1), BuildingBlock: EZIPEK_clean_linker_0, # of connection points: 2
#     Edge 33, Type (0, 1), BuildingBlock: EZIPEK_clean_linker_0, # of connection points: 2
#     Edge 34, Type (0, 1), BuildingBlock: EZIPEK_clean_linker_0, # of connection points: 2
# Relax obj value: 0.055
# Max RMSD: 0.137
# Mean RMSD: 0.083
data_MOF--net-the--node1-GIZVER_clean_sbu_0--node2-ESEHIV_clean_linker_0--edge1-EZIPEK_clean_linker_0
_symmetry_space_group_name_H-M    P1
_symmetry_Int_Tables_number       1
_symmetry_cell_setting            triclinic
loop_
_symmetry_equiv_pos_as_xyz
'x, y, z'
_cell_length_a     28.622711
_cell_length_b     27.097157
_cell_length_c     24.928317
_cell_angle_alpha  86.371971
_cell_angle_beta   98.208056
_cell_angle_gamma 108.94324
loop_
_atom_site_label
_atom_site_type_symbol
_atom_site_fract_x
_atom_site_fract_y
_atom_site_fract_z
_atom_type_partial_charge
H0 H 0.26634 0.3791 0.33207 0.0
H1 H 0.37764 0.303 0.3398 0.0
H2 H 0.27331 0.26293 0.45597 0.0
C3 C 0.28407 0.35156 0.35135 0.0
C4 C 0.26785 0.32456 0.39868 0.0
C5 C 0.32393 0.34436 0.32983 0.0
C6 C 0.34635 0.30872 0.35551 0.0
C7 C 0.32689 0.27804 0.39935 0.0
C8 C 0.28744 0.2857 0.42097 0.0
H9 H 0.75348 0.30257 0.37805 0.0
H10 H 0.75154 0.43042 0.26655 0.0
H11 H 0.62512 0.29011 0.26065 0.0
C12 C 0.7357 0.31854 0.34305 0.0
C13 C 0.68701 0.2901 0.3209 0.0
C14 C 0.75984 0.36931 0.32391 0.0
C15 C 0.73463 0.39064 0.28018 0.0
C16 C 0.68641 0.3615 0.25598 0.0
C17 C 0.66328 0.3112 0.27652 0.0
H18 H 0.67098 0.77745 0.26328 0.0
H19 H 0.78285 0.7031 0.26352 0.0
H20 H 0.79868 0.8145 0.38555 0.0
C21 C 0.70734 0.77446 0.27884 0.0
C22 C 0.73475 0.80337 0.32445 0.0
C23 C 0.72441 0.73796 0.25673 0.0
C24 C 0.7705 0.73267 0.27897 0.0
C25 C 0.79697 0.75942 0.32587 0.0
C26 C 0.77967 0.79576 0.34777 0.0
H27 H 0.29213 0.75109 0.38336 0.0
H28 H 0.41279 0.7613 0.29347 0.0
H29 H 0.27917 0.62924 0.27411 0.0
C30 C 0.30663 0.73643 0.35211 0.0
C31 C 0.27893 0.68798 0.32864 0.0
C32 C 0.35522 0.76321 0.33987 0.0
C33 C 0.3748 0.74215 0.30156 0.0
C34 C 0.34731 0.69419 0.27713 0.0
C35 C 0.29916 0.66771 0.29024 0.0
H36 H 0.32887 0.74885 0.65299 0.0
H37 H 0.31046 0.63899 0.78806 0.0
H38 H 0.44995 0.75972 0.77927 0.0
C39 C 0.34223 0.73548 0.69226 0.0
C40 C 0.39063 0.76262 0.71659 0.0
C41 C 0.31172 0.6909 0.71772 0.0
C42 C 0.33234 0.67326 0.76744 0.0
C43 C 0.38313 0.69554 0.78743 0.0
C44 C 0.41097 0.74202 0.7638 0.0
H45 H 0.29166 0.33317 0.78227 0.0
H46 H 0.38806 0.2427 0.78012 0.0
H47 H 0.2728 0.23483 0.64771 0.0
C48 C 0.30056 0.30289 0.76348 0.0
C49 C 0.27546 0.284 0.71237 0.0
C50 C 0.34298 0.29048 0.78572 0.0
C51 C 0.35374 0.24973 0.76347 0.0
C52 C 0.32368 0.22224 0.7175 0.0
C53 C 0.28867 0.24502 0.68897 0.0
H54 H 0.69423 0.29094 0.77998 0.0
H55 H 0.78439 0.30458 0.65173 0.0
H56 H 0.82981 0.41929 0.77616 0.0
C57 C 0.72782 0.31036 0.76172 0.0
C58 C 0.76036 0.35815 0.78296 0.0
C59 C 0.73587 0.29007 0.71415 0.0
C60 C 0.77884 0.31746 0.68993 0.0
C61 C 0.81349 0.36306 0.71321 0.0
C62 C 0.80458 0.38243 0.76026 0.0
H63 H 0.68625 0.72047 0.67249 0.0
H64 H 0.79288 0.64097 0.66981 0.0
H65 H 0.82431 0.79946 0.60963 0.0
C66 C 0.72114 0.71988 0.66081 0.0
C67 C 0.75193 0.76409 0.63598 0.0
C68 C 0.73774 0.67733 0.67638 0.0
C69 C 0.78141 0.67513 0.65924 0.0
C70 C 0.8128 0.7188 0.63384 0.0
C71 C 0.79902 0.76431 0.62555 0.0
Co72 Co 0.11796 0.45958 0.57327 0.0
Co73 Co 0.07893 0.44745 0.47193 0.0
Co74 Co 0.03954 0.52867 0.51712 0.0
O75 O 0.05588 0.46213 0.53285 0.0
H76 H 0.02766 0.43318 0.54169 0.0
O77 O 1.02404 0.59539 0.50208 0.0
Co78 Co 0.96027 0.59675 0.46829 0.0
Co79 Co 1.0069 0.60928 0.56697 0.0
H80 H 0.05143 0.62388 0.49073 0.0
O81 O 0.08209 0.38154 0.46185 0.0
O82 O 0.14082 0.44868 0.50479 0.0
O83 O 0.09591 0.50094 0.41525 0.0
O84 O 0.09567 0.56199 0.47024 0.0
O85 O 0.98946 0.49486 0.45307 0.0
O86 O 0.90322 0.60057 0.43568 0.0
O87 O 0.9762 0.66557 0.44788 0.0
O88 O 0.93391 0.52441 0.48127 0.0
O89 O 0.98475 0.49514 0.5643 0.0
O90 O 0.99005 0.55496 0.62296 0.0
O91 O 0.94722 0.61823 0.54004 0.0
O92 O 1.01703 0.67609 0.58437 0.0
C93 C 0.14655 0.40286 0.61185 0.0
C94 C 0.13205 0.56559 0.58929 0.0
C95 C 0.10999 0.54839 0.42869 0.0
C96 C 0.12871 0.40571 0.47832 0.0
C97 C 0.92838 0.64937 0.4302 0.0
C98 C 0.94414 0.49434 0.45073 0.0
C99 C 0.9738 0.50804 0.608 0.0
C100 C 0.96967 0.66159 0.56698 0.0
O101 O 0.17229 0.45205 0.6103 0.0
O102 O 0.10026 0.3885 0.58849 0.0
O103 O 0.08647 0.5631 0.58188 0.0
O104 O 0.14621 0.5332 0.56663 0.0
Co105 Co 0.59759 0.94457 0.48262 0.0
Co106 Co 0.62209 0.97387 0.58258 0.0
Co107 Co 0.54418 0.02665 0.52732 0.0
O108 O 0.60484 1.00719 0.52038 0.0
H109 H 0.63268 0.03625 0.51097 0.0
O110 O 0.48222 0.04392 0.53203 0.0
Co111 Co 0.47712 0.09889 0.57299 0.0
Co112 Co 0.46914 0.08133 0.47057 0.0
H113 H 0.45407 1.01269 0.53452 0.0
O114 O 0.68643 0.9766 0.60245 0.0
O115 O 0.62521 0.91495 0.55166 0.0
O116 O 0.57467 0.94922 0.63392 0.0
O117 O 0.51369 0.96523 0.57718 0.0
O118 O 0.58124 0.07159 0.59159 0.0
O119 O 0.46691 0.14712 0.61136 0.0
O120 O 0.41098 0.07135 0.58144 0.0
O121 O 0.54636 0.1343 0.57343 0.0
O122 O 0.57662 0.08861 0.47841 0.0
O123 O 0.5187 0.11108 0.4234 0.0
O124 O 0.46024 0.13494 0.50458 0.0
O125 O 0.40723 0.07885 0.44213 0.0
C126 C 0.63948 0.91639 0.43981 0.0
C127 C 0.5002 0.93292 0.46542 0.0
C128 C 0.52876 0.94162 0.61885 0.0
C129 C 0.66967 0.93129 0.57969 0.0
C130 C 0.42223 0.11406 0.60916 0.0
C131 C 0.58156 0.11841 0.5974 0.0
C132 C 0.56371 0.11471 0.43767 0.0
C133 C 0.42044 0.12208 0.4686 0.0
O134 O 0.59398 0.88976 0.44611 0.0
O135 O 0.65922 0.96302 0.46068 0.0
O136 O 0.50607 0.98178 0.46372 0.0
O137 O 0.531 0.91599 0.4967 0.0
Co138 Co 0.48774 0.55598 0.11631 0.0
Co139 Co 0.461 0.46097 0.0901 0.0
Co140 Co 0.53872 0.5239 1.01254 0.0
O141 O 0.48043 0.52032 0.05034 0.0
H142 H 0.45225 0.52314 0.02538 0.0
O143 O 0.59776 0.52956 0.97366 0.0
Co144 Co 0.60858 0.4761 0.93158 0.0
Co145 Co 0.58797 0.55483 0.90584 0.0
H146 H 0.62866 0.55099 0.99307 0.0
O147 O 0.39588 0.43184 0.09498 0.0
O148 O 0.45561 0.48707 0.15446 0.0
O149 O 0.50562 0.42057 0.10714 0.0
O150 O 0.5665 0.47596 0.06614 0.0
O151 O 0.4922 0.46373 0.96657 0.0
O152 O 0.62208 0.42848 0.89663 0.0
O153 O 0.67698 0.49521 0.94462 0.0
O154 O 0.54054 0.44706 0.91234 0.0
O155 O 0.51192 0.57447 0.96326 0.0
O156 O 0.52649 0.56674 0.87995 0.0
O157 O 0.61388 0.52157 0.86303 0.0
O158 O 0.63867 0.60714 0.88747 0.0
C159 C 0.44764 0.59169 0.15386 0.0
C160 C 0.58551 0.58437 0.10924 0.0
C161 C 0.55092 0.43789 0.09955 0.0
C162 C 0.4118 0.45126 0.14311 0.0
C163 C 0.66775 0.45414 0.91466 0.0
C164 C 0.498 0.4405 0.92599 0.0
C165 C 0.50342 0.5814 0.91205 0.0
C166 C 0.63957 0.57104 0.85595 0.0
O167 O 0.49169 0.59149 0.17508 0.0
O168 O 0.42808 0.56809 0.10776 0.0
O169 O 0.58293 0.58407 0.05778 0.0
O170 O 0.55224 0.55123 0.13343 0.0
C171 C 0.24573 0.36683 0.4736 0.0
C172 C 0.23089 0.33891 0.42447 0.0
C173 C 0.15537 0.36309 0.40764 0.0
C174 C 0.16759 0.38827 0.4585 0.0
N175 N 0.23449 0.43073 0.52891 0.0
N176 N 0.16663 0.2986 0.35274 0.0
C177 C 0.21525 0.3943 0.48926 0.0
C178 C 0.18399 0.33315 0.39426 0.0
N179 N 0.28948 0.36807 0.50487 0.0
N180 N 0.12014 0.37288 0.36919 0.0
H181 H 0.18669 0.27534 0.34246 0.0
H182 H 0.1304 0.28911 0.33268 0.0
H183 H 0.10368 0.40127 0.37367 0.0
H184 H 0.11293 0.35901 0.32981 0.0
H185 H 0.29815 0.37927 0.54521 0.0
H186 H 0.3161 0.35437 0.49235 0.0
H187 H 0.26953 0.43816 0.55126 0.0
H188 H 0.22027 0.46036 0.53414 0.0
C189 C 0.64575 0.192 0.33161 0.0
C190 C 0.65747 0.2434 0.35097 0.0
C191 C 0.61936 0.20751 0.43284 0.0
C192 C 0.60198 0.15672 0.41099 0.0
N193 N 0.59542 0.10048 0.33744 0.0
N194 N 0.64369 0.30007 0.41359 0.0
C195 C 0.61438 0.14887 0.35967 0.0
C196 C 0.64114 0.25112 0.3999 0.0
N197 N 0.6651 0.18445 0.28699 0.0
N198 N 0.61564 0.21427 0.48556 0.0
H199 H 0.65641 0.33277 0.38884 0.0
H200 H 0.62773 0.30727 0.44606 0.0
H201 H 0.60145 0.18297 0.51104 0.0
H202 H 0.63206 0.24971 0.50531 0.0
H203 H 0.662 0.14776 0.2736 0.0
H204 H 0.68736 0.21527 0.26538 0.0
H205 H 0.5983 0.09306 0.29778 0.0
H206 H 0.57448 0.06797 0.35814 0.0
C207 C 0.88382 0.75317 0.34574 0.0
C208 C 0.83447 0.73885 0.35871 0.0
C209 C 0.85252 0.67649 0.42722 0.0
C210 C 0.89963 0.68517 0.40901 0.0
N211 N 0.95788 0.72804 0.34618 0.0
N212 N 0.76983 0.68347 0.40851 0.0
C213 C 0.91517 0.72314 0.36753 0.0
C214 C 0.81837 0.69969 0.39863 0.0
N215 N 0.90051 0.79542 0.31245 0.0
N216 N 0.84088 0.64754 0.47337 0.0
H217 H 0.74409 0.70165 0.39179 0.0
H218 H 0.75397 0.64965 0.43053 0.0
H219 H 0.86539 0.63207 0.49801 0.0
H220 H 0.80933 0.64416 0.49144 0.0
H221 H 0.93751 0.81122 0.30544 0.0
H222 H 0.87802 0.81748 0.29559 0.0
H223 H 0.96824 0.7509 0.312 0.0
H224 H 0.98114 0.70595 0.35966 0.0
C225 C 0.40009 0.80451 0.42913 0.0
C226 C 0.38833 0.80954 0.37213 0.0
C227 C 0.44868 0.89852 0.37538 0.0
C228 C 0.45719 0.89449 0.43288 0.0
N229 N 0.42732 0.84982 0.51397 0.0
N230 N 0.39319 0.86613 0.29301 0.0
C231 C 0.42856 0.84936 0.45953 0.0
C232 C 0.41003 0.85816 0.34586 0.0
N233 N 0.38676 0.75659 0.45426 0.0
N234 N 0.47896 0.93919 0.34853 0.0
H235 H 0.36451 0.83785 0.27059 0.0
H236 H 0.40423 0.90231 0.27326 0.0
H237 H 0.50789 0.96919 0.36825 0.0
H238 H 0.47794 0.9409 0.30653 0.0
H239 H 0.39879 0.75074 0.49493 0.0
H240 H 0.36858 0.72199 0.43351 0.0
H241 H 0.40396 0.81938 0.53492 0.0
H242 H 0.44481 0.88345 0.53643 0.0
C243 C 0.24293 0.60463 0.69236 0.0
C244 C 0.26043 0.66025 0.68991 0.0
C245 C 0.1862 0.65593 0.62356 0.0
C246 C 0.16886 0.6009 0.63005 0.0
N247 N 0.16917 0.53015 0.69266 0.0
N248 N 0.23523 0.7372 0.66752 0.0
C249 C 0.19321 0.57781 0.67202 0.0
C250 C 0.228 0.68573 0.65978 0.0
N251 N 0.27416 0.5762 0.70787 0.0
N252 N 0.16382 0.6797 0.58279 0.0
H253 H 0.26206 0.75874 0.69745 0.0
H254 H 0.21063 0.75623 0.64907 0.0
H255 H 0.1327 0.65894 0.55671 0.0
H256 H 0.1782 0.71932 0.57328 0.0
H257 H 0.26182 0.53554 0.70724 0.0
H258 H 0.31256 0.59273 0.71252 0.0
H259 H 0.18421 0.51644 0.72888 0.0
H260 H 0.13239 0.50913 0.67816 0.0
C261 C 0.37008 0.15435 0.72558 0.0
C262 C 0.33543 0.17649 0.69563 0.0
C263 C 0.34158 0.13332 0.6146 0.0
C264 C 0.38621 0.12552 0.6406 0.0
N265 N 0.43846 0.12044 0.72443 0.0
N266 N 0.26389 0.14456 0.6286 0.0
C267 C 0.39887 0.13317 0.69738 0.0
C268 C 0.31356 0.15409 0.64441 0.0
N269 N 0.37035 0.14708 0.78027 0.0
N270 N 0.3263 0.12207 0.56133 0.0
H271 H 0.24069 0.14941 0.65515 0.0
H272 H 0.24493 0.12448 0.59357 0.0
H273 H 0.34387 0.10329 0.53983 0.0
H274 H 0.2976 0.13315 0.53879 0.0
H275 H 0.39155 0.12696 0.80393 0.0
H276 H 0.34421 0.15532 0.8004 0.0
H277 H 0.45324 0.13146 0.7642 0.0
H278 H 0.45729 0.10016 0.70635 0.0
C279 C 0.90342 0.39415 0.69566 0.0
C280 C 0.85418 0.39653 0.68303 0.0
C281 C 0.88333 0.47144 0.62178 0.0
C282 C 0.933 0.47 0.63499 0.0
N283 N 0.98996 0.42652 0.67809 0.0
N284 N 0.79627 0.43689 0.6355 0.0
C285 C 0.94293 0.43025 0.67016 0.0
C286 C 0.84389 0.43479 0.64609 0.0
N287 N 0.91237 0.35831 0.73338 0.0
N288 N 0.8735 0.50631 0.58354 0.0
H289 H 0.76557 0.40796 0.64812 0.0
H290 H 0.78666 0.46791 0.6159 0.0
H291 H 0.90127 0.53405 0.56569 0.0
H292 H 0.83812 0.50608 0.56643 0.0
H293 H 0.94771 0.35727 0.74907 0.0
H294 H 0.88396 0.3303 0.75098 0.0
H295 H 0.99936 0.39586 0.69884 0.0
H296 H 1.01978 0.45324 0.66135 0.0
C297 C 0.73754 0.83486 0.57104 0.0
C298 C 0.73547 0.81089 0.62341 0.0
C299 C 0.69122 0.86785 0.64806 0.0
C300 C 0.69635 0.89354 0.59688 0.0
N301 N 0.7425 0.9151 0.52047 0.0
N302 N 0.7265 0.81894 0.71723 0.0
C303 C 0.72569 0.8817 0.56187 0.0
C304 C 0.71719 0.8317 0.66379 0.0
N305 N 0.74707 0.81121 0.52909 0.0
N306 N 0.66119 0.87719 0.68138 0.0
H307 H 0.74868 0.79564 0.73071 0.0
H308 H 0.71726 0.83646 0.7484 0.0
H309 H 0.64245 0.90442 0.672 0.0
H310 H 0.6522 0.85508 0.71644 0.0
H311 H 0.7485 0.82718 0.49001 0.0
H312 H 0.74647 0.77254 0.53177 0.0
H313 H 0.76689 0.90949 0.49592 0.0
H314 H 0.7366 0.9512 0.51518 0.0
C315 C 0.39796 0.25234 0.44649 0.0
C316 C 0.34813 0.23729 0.42156 0.0
C317 C 0.34275 0.14557 0.43252 0.0
C318 C 0.39486 0.16116 0.45137 0.0
N319 N 0.47386 0.23141 0.45404 0.0
N320 N 0.2759 0.17046 0.37979 0.0
C321 C 0.42319 0.21515 0.45257 0.0
C322 C 0.3212 0.18413 0.41132 0.0
N323 N 0.42155 0.30234 0.46339 0.0
N324 N 0.31319 0.09477 0.43653 0.0
H325 H 0.25865 0.19752 0.36343 0.0
H326 H 0.25755 0.13275 0.3658 0.0
H327 H 0.32581 0.065 0.45465 0.0
H328 H 0.27449 0.0832 0.42811 0.0
H329 H 0.45685 0.31372 0.48587 0.0
H330 H 0.40384 0.33077 0.4597 0.0
H331 H 0.49505 0.27063 0.45106 0.0
H332 H 0.49388 0.20625 0.44964 0.0
C333 C 0.8531 0.4215 0.32966 0.0
C334 C 0.80875 0.40143 0.35472 0.0
C335 C 0.85875 0.42842 0.44285 0.0
C336 C 0.90122 0.45599 0.41741 0.0
N337 N 0.93676 0.48377 0.33407 0.0
N338 N 0.76914 0.39994 0.43441 0.0
C339 C 0.89802 0.45369 0.36002 0.0
C340 C 0.81158 0.40886 0.41117 0.0
N341 N 0.85288 0.40876 0.27749 0.0
N342 N 0.86363 0.41966 0.49755 0.0
H343 H 0.73403 0.39019 0.41177 0.0
H344 H 0.76948 0.40885 0.47458 0.0
H345 H 0.89829 0.43037 0.52131 0.0
H346 H 0.83445 0.39629 0.5177 0.0
H347 H 0.88509 0.41792 0.25891 0.0
H348 H 0.82116 0.38501 0.25442 0.0
H349 H 0.93439 0.48816 0.29205 0.0
H350 H 0.97009 0.50735 0.3546 0.0
C351 C 0.67815 0.80713 0.39095 0.0
C352 C 0.71174 0.8337 0.35408 0.0
C353 C 0.69822 0.916 0.37193 0.0
C354 C 0.66819 0.89018 0.41262 0.0
N355 N 0.64102 0.81332 0.47008 0.0
N356 N 0.76006 0.9145 0.31513 0.0
C357 C 0.66128 0.83631 0.4246 0.0
C358 C 0.72396 0.88859 0.34658 0.0
N359 N 0.66188 0.75378 0.3938 0.0
N360 N 0.69974 0.96536 0.35488 0.0
H361 H 0.77816 0.89538 0.29437 0.0
H362 H 0.77456 0.95504 0.31287 0.0
H363 H 0.68005 0.98611 0.3706 0.0
H364 H 0.71675 0.98394 0.32154 0.0
H365 H 0.63272 0.73238 0.41501 0.0
H366 H 0.6742 0.73053 0.37122 0.0
H367 H 0.63977 0.77579 0.48356 0.0
H368 H 0.6314 0.83356 0.49856 0.0
C369 C 0.2424 0.61635 0.39392 0.0
C370 C 0.23481 0.65319 0.35355 0.0
C371 C 0.14455 0.62112 0.36089 0.0
C372 C 0.15276 0.58616 0.40338 0.0
N373 N 0.21148 0.5587 0.46727 0.0
N374 N 0.18027 0.69524 0.30197 0.0
C375 C 0.20222 0.58602 0.42153 0.0
C376 C 0.18625 0.65697 0.33804 0.0
N377 N 0.28821 0.60972 0.4058 0.0
N378 N 0.09682 0.61916 0.34171 0.0
H379 H 0.2097 0.72068 0.28355 0.0
H380 H 0.14715 0.70388 0.29258 0.0
H381 H 0.06602 0.59443 0.35857 0.0
H382 H 0.08733 0.63964 0.30747 0.0
H383 H 0.29423 0.57814 0.42833 0.0
H384 H 0.32001 0.63365 0.3903 0.0
H385 H 0.24693 0.56216 0.48715 0.0
H386 H 0.18332 0.53631 0.4884 0.0
C387 C 0.46083 0.80134 0.6613 0.0
C388 C 0.42335 0.80841 0.68854 0.0
C389 C 0.4552 0.9034 0.67142 0.0
C390 C 0.49209 0.8961 0.64317 0.0
N391 N 0.52325 0.83695 0.60152 0.0
N392 N 0.38002 0.86414 0.71436 0.0
C393 C 0.49325 0.84476 0.63584 0.0
C394 C 0.41896 0.85891 0.69183 0.0
N395 N 0.46573 0.75283 0.66002 0.0
N396 N 0.45609 0.95299 0.68043 0.0
H397 H 0.35414 0.8328 0.73147 0.0
H398 H 0.37133 0.89863 0.71334 0.0
H399 H 0.4819 0.9861 0.66581 0.0
H400 H 0.4336 0.96185 0.70508 0.0
H401 H 0.49684 0.74628 0.64875 0.0
H402 H 0.43981 0.71892 0.67293 0.0
H403 H 0.52122 0.80047 0.58854 0.0
H404 H 0.54721 0.86722 0.58163 0.0
C405 C 0.1927 0.28366 0.6536 0.0
C406 C 0.2405 0.31082 0.68189 0.0
C407 C 0.21539 0.38822 0.67717 0.0
C408 C 0.17285 0.36602 0.63934 0.0
N409 N 0.12717 0.29097 0.58328 0.0
N410 N 0.30174 0.39656 0.69705 0.0
C411 C 0.16298 0.3131 0.62479 0.0
C412 C 0.25345 0.36559 0.68574 0.0
N413 N 0.17427 0.23055 0.65613 0.0
N414 N 0.21827 0.4289 0.70805 0.0
H415 H 0.33155 0.38217 0.69835 0.0
H416 H 0.31145 0.43713 0.69844 0.0
H417 H 0.18699 0.44014 0.70928 0.0
H418 H 0.24825 0.44429 0.73797 0.0
H419 H 0.13815 0.20981 0.63945 0.0
H420 H 0.19272 0.2079 0.68 0.0
H421 H 0.12241 0.25412 0.56888 0.0
H422 H 0.10565 0.31082 0.55997 0.0
C423 C 0.64583 0.23913 0.68031 0.0
C424 C 0.69708 0.24325 0.68681 0.0
C425 C 0.67416 0.16365 0.63266 0.0
C426 C 0.6227 0.15662 0.63294 0.0
N427 N 0.56364 0.17733 0.67986 0.0
N428 N 0.75695 0.19831 0.68184 0.0
C429 C 0.60979 0.19119 0.66389 0.0
C430 C 0.71046 0.2021 0.66685 0.0
N431 N 0.631 0.28124 0.68662 0.0
N432 N 0.68899 0.13595 0.59852 0.0
H433 H 0.78336 0.22332 0.70961 0.0
H434 H 0.76691 0.1667 0.67161 0.0
H435 H 0.66416 0.10936 0.57114 0.0
H436 H 0.72629 0.14349 0.59374 0.0
H437 H 0.5937 0.2795 0.6789 0.0
H438 H 0.65595 0.31887 0.69235 0.0
H439 H 0.55355 0.20056 0.70492 0.0
H440 H 0.53895 0.13951 0.67459 0.0
C441 C 0.87746 0.73264 0.56841 0.0
C442 C 0.86146 0.71693 0.6203 0.0
C443 C 0.92567 0.67497 0.64181 0.0
C444 C 0.93932 0.68815 0.58911 0.0
N445 N 0.94566 0.74962 0.51469 0.0
N446 N 0.88754 0.69696 0.71327 0.0
C447 C 0.92138 0.72433 0.55674 0.0
C448 C 0.89119 0.69571 0.65939 0.0
N449 N 0.8491 0.75107 0.52872 0.0
N450 N 0.94466 0.64198 0.67472 0.0
H451 H 0.86504 0.71543 0.72746 0.0
H452 H 0.91107 0.68547 0.74371 0.0
H453 H 0.97253 0.62865 0.66477 0.0
H454 H 0.93098 0.62617 0.71075 0.0
H455 H 0.85938 0.76294 0.49041 0.0
H456 H 0.81265 0.74858 0.53154 0.0
H457 H 0.93634 0.77949 0.49198 0.0
H458 H 0.9785 0.74433 0.50664 0.0
C459 C 0.35139 0.42656 0.27161 0.0
C460 C 0.34125 0.37179 0.27913 0.0
C461 C 0.37782 0.36934 0.19718 0.0
C462 C 0.38448 0.42326 0.18775 0.0
N463 N 0.35525 0.49427 0.20315 0.0
N464 N 0.32636 0.28978 0.23543 0.0
C465 C 0.36454 0.44946 0.22104 0.0
C466 C 0.34864 0.34261 0.23762 0.0
N467 N 0.35101 0.45727 0.31277 0.0
N468 N 0.40022 0.34366 0.16908 0.0
H469 H 0.30136 0.26918 0.26192 0.0
H470 H 0.32792 0.26777 0.20329 0.0
H471 H 0.423 0.36162 0.13971 0.0
H472 H 0.39977 0.30552 0.17882 0.0
H473 H 0.36002 0.49768 0.30859 0.0
H474 H 0.3471 0.44337 0.35236 0.0
H475 H 0.33665 0.51228 0.22453 0.0
H476 H 0.36045 0.50901 0.16404 0.0
C477 C 0.43321 0.6817 0.87689 0.0
C478 C 0.40994 0.66462 0.82408 0.0
C479 C 0.4351 0.58649 0.84 0.0
C480 C 0.46631 0.60762 0.88792 0.0
N481 N 0.49945 0.6805 0.94904 0.0
N482 N 0.40476 0.60873 0.75007 0.0
C483 C 0.46624 0.65647 0.9062 0.0
C484 C 0.41506 0.61905 0.80412 0.0
N485 N 0.424 0.72195 0.89884 0.0
N486 N 0.42403 0.53501 0.8289 0.0
H487 H 0.39534 0.63465 0.72121 0.0
H488 H 0.41172 0.57772 0.73366 0.0
H489 H 0.43491 0.5092 0.85681 0.0
H490 H 0.39893 0.51731 0.79567 0.0
H491 H 0.43615 0.73298 0.93905 0.0
H492 H 0.40048 0.74123 0.87803 0.0
H493 H 0.50427 0.7184 0.96027 0.0
H494 H 0.52524 0.66463 0.97059 0.0
C495 C 0.37952 0.32641 0.87979 0.0
C496 C 0.38171 0.32837 0.82313 0.0
C497 C 0.45291 0.40895 0.834 0.0
C498 C 0.45457 0.4042 0.89153 0.0
N499 N 0.42362 0.35259 0.96935 0.0
N500 N 0.4247 0.3678 0.74679 0.0
C501 C 0.41867 0.36161 0.9146 0.0
C502 C 0.41969 0.3685 0.80052 0.0
N503 N 0.33996 0.29091 0.90035 0.0
N504 N 0.48182 0.45334 0.81076 0.0
H505 H 0.39978 0.34103 0.71951 0.0
H506 H 0.45581 0.39144 0.72984 0.0
H507 H 0.50641 0.48451 0.83298 0.0
H508 H 0.47761 0.46197 0.76939 0.0
H509 H 0.33307 0.2912 0.94021 0.0
H510 H 0.31199 0.26334 0.87633 0.0
H511 H 0.40187 0.31918 0.98788 0.0
H512 H 0.4523 0.37606 0.9962 0.0
C513 C 0.733 0.36298 0.87477 0.0
C514 C 0.74491 0.38644 0.82369 0.0
C515 C 0.72972 0.46481 0.85086 0.0
C516 C 0.7073 0.43743 0.89537 0.0
N517 N 0.68793 0.35978 0.95119 0.0
N518 N 0.74376 0.45726 0.75938 0.0
C519 C 0.70948 0.38633 0.90804 0.0
C520 C 0.74098 0.43707 0.81087 0.0
N521 N 0.74482 0.31911 0.8918 0.0
N522 N 0.73958 0.51735 0.84638 0.0
H523 H 0.74683 0.43648 0.72712 0.0
H524 H 0.73668 0.492 0.74742 0.0
H525 H 0.73382 0.53799 0.87718 0.0
H526 H 0.7592 0.5402 0.81653 0.0
H527 H 0.74079 0.30269 0.93047 0.0
H528 H 0.76302 0.30195 0.86892 0.0
H529 H 0.68276 0.32029 0.95917 0.0
H530 H 0.67357 0.37755 0.97777 0.0
C531 C 0.67467 0.59832 0.71172 0.0
C532 C 0.71685 0.64318 0.72175 0.0
C533 C 0.71582 0.62853 0.81944 0.0
C534 C 0.66871 0.5891 0.80954 0.0
N535 N 0.59976 0.54136 0.74446 0.0
N536 N 0.77542 0.70478 0.78501 0.0
C537 C 0.64743 0.57441 0.75524 0.0
C538 C 0.73714 0.65904 0.77559 0.0
N539 N 0.66032 0.57911 0.66051 0.0
N540 N 0.7406 0.63656 0.87095 0.0
H541 H 0.79314 0.72826 0.75438 0.0
H542 H 0.78707 0.7218 0.82297 0.0
H543 H 0.72677 0.61473 0.90455 0.0
H544 H 0.7773 0.66067 0.87965 0.0
H545 H 0.63288 0.54344 0.65155 0.0
H546 H 0.67915 0.59668 0.62785 0.0
H547 H 0.58083 0.53422 0.70539 0.0
H548 H 0.57702 0.52464 0.77413 0.0
C549 C 0.6773 0.64508 0.22946 0.0
C550 C 0.69072 0.69933 0.21639 0.0
C551 C 0.63438 0.67897 0.13096 0.0
C552 C 0.62572 0.62475 0.14189 0.0
N553 N 0.6524 0.5584 0.1936 0.0
N554 N 0.6901 0.76692 0.14867 0.0
C555 C 0.65151 0.60854 0.18866 0.0
C556 C 0.6718 0.71605 0.16517 0.0
N557 N 0.68641 0.62812 0.28145 0.0
N558 N 0.60532 0.69531 0.09009 0.0
H559 H 0.71809 0.79486 0.17223 0.0
H560 H 0.68094 0.78005 0.10964 0.0
H561 H 0.57645 0.66977 0.06516 0.0
H562 H 0.60687 0.7342 0.08426 0.0
H563 H 0.6734 0.58897 0.29332 0.0
H564 H 0.70135 0.65342 0.31376 0.0
H565 H 0.67391 0.54562 0.22528 0.0
H566 H 0.63656 0.53174 0.16249 0.0
C567 C 0.36507 0.67012 0.18738 0.0
C568 C 0.37215 0.66765 0.24487 0.0
C569 C 0.42281 0.61024 0.24204 0.0
C570 C 0.41989 0.61669 0.18447 0.0
N571 N 0.39706 0.66309 0.10427 0.0
N572 N 0.41422 0.64219 0.32752 0.0
C573 C 0.39308 0.64913 0.1575 0.0
C574 C 0.40323 0.64001 0.2723 0.0
N575 N 0.33163 0.69269 0.16123 0.0
N576 N 0.44166 0.57334 0.26789 0.0
H577 H 0.39865 0.66099 0.35173 0.0
H578 H 0.44189 0.62896 0.34915 0.0
H579 H 0.45208 0.5469 0.24767 0.0
H580 H 0.44132 0.56419 0.30904 0.0
H581 H 0.32056 0.69045 0.11955 0.0
H582 H 0.31207 0.71031 0.18173 0.0
H583 H 0.3825 0.69077 0.0841 0.0
H584 H 0.41945 0.65152 0.08159 0.0
C585 C 0.6569 0.38322 0.15887 0.0
C586 C 0.65577 0.38586 0.21542 0.0
C587 C 0.58962 0.42662 0.19581 0.0
C588 C 0.58773 0.42018 0.13895 0.0
N589 N 0.61483 0.38539 0.06718 0.0
N590 N 0.61816 0.40579 0.28817 0.0
C591 C 0.62048 0.39706 0.12068 0.0
C592 C 0.62135 0.40647 0.23386 0.0
N593 N 0.69323 0.36797 0.14163 0.0
N594 N 0.5628 0.45436 0.21377 0.0
H595 H 0.6433 0.3957 0.31775 0.0
H596 H 0.58897 0.4123 0.30402 0.0
H597 H 0.53862 0.46952 0.18835 0.0
H598 H 0.56772 0.46669 0.25349 0.0
H599 H 0.69961 0.3703 0.10131 0.0
H600 H 0.71964 0.35676 0.16842 0.0
H601 H 0.63203 0.36145 0.05271 0.0
H602 H 0.58922 0.3954 0.03811 0.0
loop_
_geom_bond_atom_site_label_1
_geom_bond_atom_site_label_2
_geom_bond_distance
_geom_bond_site_symmetry_2
_ccdc_geom_bond_type
H0 C3 0.931 . S
H1 C6 0.928 . S
H2 C8 0.930 . S
C3 H0 0.931 . S
C3 C4 1.413 . S
C3 C5 1.360 . S
C4 C3 1.413 . S
C4 C8 1.429 . S
C5 C3 1.360 . S
C5 C6 1.372 . S
C6 H1 0.928 . S
C6 C5 1.372 . S
C6 C7 1.404 . S
C7 C6 1.404 . S
C7 C8 1.391 . S
C8 H2 0.930 . S
C8 C4 1.429 . S
C8 C7 1.391 . S
H9 C12 0.931 . S
H10 C15 0.928 . S
H11 C17 0.930 . S
C12 H9 0.931 . S
C12 C13 1.413 . S
C12 C14 1.360 . S
C13 C12 1.413 . S
C13 C17 1.429 . S
C14 C12 1.360 . S
C14 C15 1.372 . S
C15 H10 0.928 . S
C15 C14 1.372 . S
C15 C16 1.404 . S
C16 C15 1.404 . S
C16 C17 1.391 . S
C17 H11 0.930 . S
C17 C13 1.429 . S
C17 C16 1.391 . S
H18 C21 0.931 . S
H19 C24 0.928 . S
H20 C26 0.930 . S
C21 H18 0.931 . S
C21 C22 1.413 . S
C21 C23 1.360 . S
C22 C21 1.413 . S
C22 C26 1.429 . S
C23 C21 1.360 . S
C23 C24 1.372 . S
C24 H19 0.928 . S
C24 C23 1.372 . S
C24 C25 1.404 . S
C25 C24 1.404 . S
C25 C26 1.391 . S
C26 H20 0.930 . S
C26 C22 1.429 . S
C26 C25 1.391 . S
H27 C30 0.931 . S
H28 C33 0.928 . S
H29 C35 0.930 . S
C30 H27 0.931 . S
C30 C31 1.413 . S
C30 C32 1.360 . S
C31 C30 1.413 . S
C31 C35 1.429 . S
C32 C30 1.360 . S
C32 C33 1.372 . S
C33 H28 0.928 . S
C33 C32 1.372 . S
C33 C34 1.404 . S
C34 C33 1.404 . S
C34 C35 1.391 . S
C35 H29 0.930 . S
C35 C31 1.429 . S
C35 C34 1.391 . S
H36 C39 0.931 . S
H37 C42 0.928 . S
H38 C44 0.930 . S
C39 H36 0.931 . S
C39 C40 1.413 . S
C39 C41 1.360 . S
C40 C39 1.413 . S
C40 C44 1.429 . S
C41 C39 1.360 . S
C41 C42 1.372 . S
C42 H37 0.928 . S
C42 C41 1.372 . S
C42 C43 1.404 . S
C43 C42 1.404 . S
C43 C44 1.391 . S
C44 H38 0.930 . S
C44 C40 1.429 . S
C44 C43 1.391 . S
H45 C48 0.931 . S
H46 C51 0.928 . S
H47 C53 0.930 . S
C48 H45 0.931 . S
C48 C49 1.413 . S
C48 C50 1.360 . S
C49 C48 1.413 . S
C49 C53 1.429 . S
C50 C48 1.360 . S
C50 C51 1.372 . S
C51 H46 0.928 . S
C51 C50 1.372 . S
C51 C52 1.404 . S
C52 C51 1.404 . S
C52 C53 1.391 . S
C53 H47 0.930 . S
C53 C49 1.429 . S
C53 C52 1.391 . S
H54 C57 0.931 . S
H55 C60 0.928 . S
H56 C62 0.930 . S
C57 H54 0.931 . S
C57 C58 1.413 . S
C57 C59 1.360 . S
C58 C57 1.413 . S
C58 C62 1.429 . S
C59 C57 1.360 . S
C59 C60 1.372 . S
C60 H55 0.928 . S
C60 C59 1.372 . S
C60 C61 1.404 . S
C61 C60 1.404 . S
C61 C62 1.391 . S
C62 H56 0.930 . S
C62 C58 1.429 . S
C62 C61 1.391 . S
H63 C66 0.931 . S
H64 C69 0.928 . S
H65 C71 0.930 . S
C66 H63 0.931 . S
C66 C67 1.413 . S
C66 C68 1.360 . S
C67 C66 1.413 . S
C67 C71 1.429 . S
C68 C66 1.360 . S
C68 C69 1.372 . S
C69 H64 0.928 . S
C69 C68 1.372 . S
C69 C70 1.404 . S
C70 C69 1.404 . S
C70 C71 1.391 . S
C71 H65 0.930 . S
C71 C67 1.429 . S
C71 C70 1.391 . S
Co72 O75 2.042 . S
Co72 O82 2.264 . S
Co72 O101 2.286 . S
Co72 O102 2.069 . S
Co72 O104 2.015 . S
Co73 O75 2.122 . S
Co73 O81 2.073 . S
Co73 O82 2.327 . S
Co73 O83 1.976 . S
Co74 O75 2.087 . S
Co74 O77 2.087 1_455 S
Co74 O84 2.111 . S
Co74 O85 2.143 1_455 S
Co74 O89 2.111 1_455 S
Co74 O103 2.143 . S
O75 Co72 2.042 . S
O75 Co73 2.122 . S
O75 Co74 2.087 . S
O75 H76 0.980 . S
H76 O75 0.980 . S
O77 Co74 2.087 1_655 S
O77 Co78 2.042 . S
O77 Co79 2.122 . S
O77 H80 0.972 1_655 S
Co78 O77 2.042 . S
Co78 O86 2.286 . S
Co78 O87 2.069 . S
Co78 O88 2.015 . S
Co78 O91 2.264 . S
Co79 O77 2.122 . S
Co79 O90 1.976 . S
Co79 O91 2.327 . S
Co79 O92 2.073 . S
H80 O77 0.972 1_455 S
O81 Co73 2.073 . S
O81 C96 1.245 . S
O82 Co72 2.264 . S
O82 Co73 2.327 . S
O82 C96 1.257 . S
O83 Co73 1.976 . S
O83 C95 1.251 . S
O84 Co74 2.111 . S
O84 C95 1.274 . S
O85 Co74 2.143 1_655 S
O85 C98 1.246 . S
O86 Co78 2.286 . S
O86 C97 1.259 . S
O87 Co78 2.069 . S
O87 C97 1.289 . S
O88 Co78 2.015 . S
O88 C98 1.257 . S
O89 Co74 2.111 1_655 S
O89 C99 1.274 . S
O90 Co79 1.976 . S
O90 C99 1.251 . S
O91 Co78 2.264 . S
O91 Co79 2.327 . S
O91 C100 1.257 . S
O92 Co79 2.073 . S
O92 C100 1.245 . S
C93 O101 1.259 . S
C93 O102 1.289 . S
C94 O103 1.246 . S
C94 O104 1.257 . S
C95 O83 1.251 . S
C95 O84 1.274 . S
C96 O81 1.245 . S
C96 O82 1.257 . S
C97 O86 1.259 . S
C97 O87 1.289 . S
C98 O85 1.246 . S
C98 O88 1.257 . S
C99 O89 1.274 . S
C99 O90 1.251 . S
C100 O91 1.257 . S
C100 O92 1.245 . S
O101 Co72 2.286 . S
O101 C93 1.259 . S
O102 Co72 2.069 . S
O102 C93 1.289 . S
O103 Co74 2.143 . S
O103 C94 1.246 . S
O104 Co72 2.015 . S
O104 C94 1.257 . S
Co105 O108 2.042 . S
Co105 O115 2.264 . S
Co105 O134 2.286 . S
Co105 O135 2.069 . S
Co105 O137 2.015 . S
Co106 O108 2.122 . S
Co106 O114 2.073 . S
Co106 O115 2.327 . S
Co106 O116 1.976 . S
Co107 O108 2.087 1_545 S
Co107 O110 2.087 . S
Co107 O117 2.111 1_545 S
Co107 O118 2.143 . S
Co107 O122 2.111 . S
Co107 O136 2.143 1_545 S
O108 Co105 2.042 . S
O108 Co106 2.122 . S
O108 Co107 2.087 1_565 S
O108 H109 0.980 . S
H109 O108 0.980 . S
O110 Co107 2.087 . S
O110 Co111 2.042 . S
O110 Co112 2.122 . S
O110 H113 0.980 . S
Co111 O110 2.042 . S
Co111 O119 2.286 . S
Co111 O120 2.069 . S
Co111 O121 2.015 . S
Co111 O124 2.264 . S
Co112 O110 2.122 . S
Co112 O123 1.976 . S
Co112 O124 2.327 . S
Co112 O125 2.073 . S
H113 O110 0.980 . S
O114 Co106 2.073 . S
O114 C129 1.245 . S
O115 Co105 2.264 . S
O115 Co106 2.327 . S
O115 C129 1.257 . S
O116 Co106 1.976 . S
O116 C128 1.251 . S
O117 Co107 2.111 1_565 S
O117 C128 1.274 . S
O118 Co107 2.143 . S
O118 C131 1.246 . S
O119 Co111 2.286 . S
O119 C130 1.259 . S
O120 Co111 2.069 . S
O120 C130 1.289 . S
O121 Co111 2.015 . S
O121 C131 1.257 . S
O122 Co107 2.111 . S
O122 C132 1.274 . S
O123 Co112 1.976 . S
O123 C132 1.251 . S
O124 Co111 2.264 . S
O124 Co112 2.327 . S
O124 C133 1.257 . S
O125 Co112 2.073 . S
O125 C133 1.245 . S
C126 O134 1.259 . S
C126 O135 1.289 . S
C127 O136 1.246 . S
C127 O137 1.257 . S
C128 O116 1.251 . S
C128 O117 1.274 . S
C129 O114 1.245 . S
C129 O115 1.257 . S
C130 O119 1.259 . S
C130 O120 1.289 . S
C131 O118 1.246 . S
C131 O121 1.257 . S
C132 O122 1.274 . S
C132 O123 1.251 . S
C133 O124 1.257 . S
C133 O125 1.245 . S
O134 Co105 2.286 . S
O134 C126 1.259 . S
O135 Co105 2.069 . S
O135 C126 1.289 . S
O136 Co107 2.143 1_565 S
O136 C127 1.246 . S
O137 Co105 2.015 . S
O137 C127 1.257 . S
Co138 O141 2.042 . S
Co138 O148 2.264 . S
Co138 O167 2.286 . S
Co138 O168 2.069 . S
Co138 O170 2.015 . S
Co139 O141 2.122 . S
Co139 O147 2.073 . S
Co139 O148 2.327 . S
Co139 O149 1.976 . S
Co140 O141 2.087 . S
Co140 O143 2.087 1_554 S
Co140 O150 2.111 . S
Co140 O151 2.143 1_554 S
Co140 O155 2.111 1_554 S
Co140 O169 2.143 . S
O141 Co138 2.042 . S
O141 Co139 2.122 . S
O141 Co140 2.087 . S
O141 H142 0.980 . S
H142 O141 0.980 . S
O143 Co140 2.087 1_556 S
O143 Co144 2.042 . S
O143 Co145 2.122 . S
O143 H146 0.980 . S
Co144 O143 2.042 . S
Co144 O152 2.286 . S
Co144 O153 2.069 . S
Co144 O154 2.015 . S
Co144 O157 2.264 . S
Co145 O143 2.122 . S
Co145 O156 1.976 . S
Co145 O157 2.327 . S
Co145 O158 2.073 . S
H146 O143 0.980 . S
O147 Co139 2.073 . S
O147 C162 1.245 . S
O148 Co138 2.264 . S
O148 Co139 2.327 . S
O148 C162 1.257 . S
O149 Co139 1.976 . S
O149 C161 1.251 . S
O150 Co140 2.111 . S
O150 C161 1.274 . S
O151 Co140 2.143 1_556 S
O151 C164 1.246 . S
O152 Co144 2.286 . S
O152 C163 1.259 . S
O153 Co144 2.069 . S
O153 C163 1.289 . S
O154 Co144 2.015 . S
O154 C164 1.257 . S
O155 Co140 2.111 1_556 S
O155 C165 1.274 . S
O156 Co145 1.976 . S
O156 C165 1.251 . S
O157 Co144 2.264 . S
O157 Co145 2.327 . S
O157 C166 1.257 . S
O158 Co145 2.073 . S
O158 C166 1.245 . S
C159 O167 1.259 . S
C159 O168 1.289 . S
C160 O169 1.246 . S
C160 O170 1.257 . S
C161 O149 1.251 . S
C161 O150 1.274 . S
C162 O147 1.245 . S
C162 O148 1.257 . S
C163 O152 1.259 . S
C163 O153 1.289 . S
C164 O151 1.246 . S
C164 O154 1.257 . S
C165 O155 1.274 . S
C165 O156 1.251 . S
C166 O157 1.257 . S
C166 O158 1.245 . S
O167 Co138 2.286 . S
O167 C159 1.259 . S
O168 Co138 2.069 . S
O168 C159 1.289 . S
O169 Co140 2.143 . S
O169 C160 1.246 . S
O170 Co138 2.015 . S
O170 C160 1.257 . S
C171 C172 1.363 . S
C171 C177 1.379 . S
C171 N179 1.356 . S
C172 C171 1.363 . S
C172 C178 1.363 . S
C173 C174 1.363 . S
C173 C178 1.379 . S
C173 N180 1.356 . S
C174 C173 1.363 . S
C174 C177 1.363 . S
N175 C177 1.356 . S
N175 H187 0.984 . S
N175 H188 0.985 . S
N176 C178 1.356 . S
N176 H181 0.984 . S
N176 H182 0.985 . S
C177 C171 1.379 . S
C177 C174 1.363 . S
C177 N175 1.356 . S
C178 C172 1.363 . S
C178 C173 1.379 . S
C178 N176 1.356 . S
N179 C171 1.356 . S
N179 H185 0.984 . S
N179 H186 0.984 . S
N180 C173 1.356 . S
N180 H183 0.984 . S
N180 H184 0.985 . S
H181 N176 0.984 . S
H182 N176 0.985 . S
H183 N180 0.984 . S
H184 N180 0.985 . S
H185 N179 0.984 . S
H186 N179 0.984 . S
H187 N175 0.984 . S
H188 N175 0.985 . S
C189 C190 1.363 . S
C189 C195 1.379 . S
C189 N197 1.356 . S
C190 C189 1.363 . S
C190 C196 1.363 . S
C191 C192 1.363 . S
C191 C196 1.379 . S
C191 N198 1.356 . S
C192 C191 1.363 . S
C192 C195 1.363 . S
N193 C195 1.356 . S
N193 H205 0.984 . S
N193 H206 0.985 . S
N194 C196 1.356 . S
N194 H199 0.984 . S
N194 H200 0.985 . S
C195 C189 1.379 . S
C195 C192 1.363 . S
C195 N193 1.356 . S
C196 C190 1.363 . S
C196 C191 1.379 . S
C196 N194 1.356 . S
N197 C189 1.356 . S
N197 H203 0.984 . S
N197 H204 0.984 . S
N198 C191 1.356 . S
N198 H201 0.984 . S
N198 H202 0.985 . S
H199 N194 0.984 . S
H200 N194 0.985 . S
H201 N198 0.984 . S
H202 N198 0.985 . S
H203 N197 0.984 . S
H204 N197 0.984 . S
H205 N193 0.984 . S
H206 N193 0.985 . S
C207 C208 1.363 . S
C207 C213 1.379 . S
C207 N215 1.356 . S
C208 C207 1.363 . S
C208 C214 1.363 . S
C209 C210 1.363 . S
C209 C214 1.379 . S
C209 N216 1.356 . S
C210 C209 1.363 . S
C210 C213 1.363 . S
N211 C213 1.356 . S
N211 H223 0.984 . S
N211 H224 0.985 . S
N212 C214 1.356 . S
N212 H217 0.984 . S
N212 H218 0.985 . S
C213 C207 1.379 . S
C213 C210 1.363 . S
C213 N211 1.356 . S
C214 C208 1.363 . S
C214 C209 1.379 . S
C214 N212 1.356 . S
N215 C207 1.356 . S
N215 H221 0.984 . S
N215 H222 0.984 . S
N216 C209 1.356 . S
N216 H219 0.984 . S
N216 H220 0.985 . S
H217 N212 0.984 . S
H218 N212 0.985 . S
H219 N216 0.984 . S
H220 N216 0.985 . S
H221 N215 0.984 . S
H222 N215 0.984 . S
H223 N211 0.984 . S
H224 N211 0.985 . S
C225 C226 1.363 . S
C225 C231 1.379 . S
C225 N233 1.356 . S
C226 C225 1.363 . S
C226 C232 1.363 . S
C227 C228 1.363 . S
C227 C232 1.379 . S
C227 N234 1.356 . S
C228 C227 1.363 . S
C228 C231 1.363 . S
N229 C231 1.356 . S
N229 H241 0.984 . S
N229 H242 0.985 . S
N230 C232 1.356 . S
N230 H235 0.984 . S
N230 H236 0.985 . S
C231 C225 1.379 . S
C231 C228 1.363 . S
C231 N229 1.356 . S
C232 C226 1.363 . S
C232 C227 1.379 . S
C232 N230 1.356 . S
N233 C225 1.356 . S
N233 H239 0.984 . S
N233 H240 0.984 . S
N234 C227 1.356 . S
N234 H237 0.984 . S
N234 H238 0.985 . S
H235 N230 0.984 . S
H236 N230 0.985 . S
H237 N234 0.984 . S
H238 N234 0.985 . S
H239 N233 0.984 . S
H240 N233 0.984 . S
H241 N229 0.984 . S
H242 N229 0.985 . S
C243 C244 1.363 . S
C243 C249 1.379 . S
C243 N251 1.356 . S
C244 C243 1.363 . S
C244 C250 1.363 . S
C245 C246 1.363 . S
C245 C250 1.379 . S
C245 N252 1.356 . S
C246 C245 1.363 . S
C246 C249 1.363 . S
N247 C249 1.356 . S
N247 H259 0.984 . S
N247 H260 0.985 . S
N248 C250 1.356 . S
N248 H253 0.984 . S
N248 H254 0.985 . S
C249 C243 1.379 . S
C249 C246 1.363 . S
C249 N247 1.356 . S
C250 C244 1.363 . S
C250 C245 1.379 . S
C250 N248 1.356 . S
N251 C243 1.356 . S
N251 H257 0.984 . S
N251 H258 0.984 . S
N252 C245 1.356 . S
N252 H255 0.984 . S
N252 H256 0.985 . S
H253 N248 0.984 . S
H254 N248 0.985 . S
H255 N252 0.984 . S
H256 N252 0.985 . S
H257 N251 0.984 . S
H258 N251 0.984 . S
H259 N247 0.984 . S
H260 N247 0.985 . S
C261 C262 1.363 . S
C261 C267 1.379 . S
C261 N269 1.356 . S
C262 C261 1.363 . S
C262 C268 1.363 . S
C263 C264 1.363 . S
C263 C268 1.379 . S
C263 N270 1.356 . S
C264 C263 1.363 . S
C264 C267 1.363 . S
N265 C267 1.356 . S
N265 H277 0.984 . S
N265 H278 0.985 . S
N266 C268 1.356 . S
N266 H271 0.984 . S
N266 H272 0.985 . S
C267 C261 1.379 . S
C267 C264 1.363 . S
C267 N265 1.356 . S
C268 C262 1.363 . S
C268 C263 1.379 . S
C268 N266 1.356 . S
N269 C261 1.356 . S
N269 H275 0.984 . S
N269 H276 0.984 . S
N270 C263 1.356 . S
N270 H273 0.984 . S
N270 H274 0.985 . S
H271 N266 0.984 . S
H272 N266 0.985 . S
H273 N270 0.984 . S
H274 N270 0.985 . S
H275 N269 0.984 . S
H276 N269 0.984 . S
H277 N265 0.984 . S
H278 N265 0.985 . S
C279 C280 1.363 . S
C279 C285 1.379 . S
C279 N287 1.356 . S
C280 C279 1.363 . S
C280 C286 1.363 . S
C281 C282 1.363 . S
C281 C286 1.379 . S
C281 N288 1.356 . S
C282 C281 1.363 . S
C282 C285 1.363 . S
N283 C285 1.356 . S
N283 H295 0.984 . S
N283 H296 0.985 . S
N284 C286 1.356 . S
N284 H289 0.984 . S
N284 H290 0.985 . S
C285 C279 1.379 . S
C285 C282 1.363 . S
C285 N283 1.356 . S
C286 C280 1.363 . S
C286 C281 1.379 . S
C286 N284 1.356 . S
N287 C279 1.356 . S
N287 H293 0.984 . S
N287 H294 0.984 . S
N288 C281 1.356 . S
N288 H291 0.984 . S
N288 H292 0.985 . S
H289 N284 0.984 . S
H290 N284 0.985 . S
H291 N288 0.984 . S
H292 N288 0.985 . S
H293 N287 0.984 . S
H294 N287 0.984 . S
H295 N283 0.984 . S
H296 N283 0.985 . S
C297 C298 1.363 . S
C297 C303 1.379 . S
C297 N305 1.356 . S
C298 C297 1.363 . S
C298 C304 1.363 . S
C299 C300 1.363 . S
C299 C304 1.379 . S
C299 N306 1.356 . S
C300 C299 1.363 . S
C300 C303 1.363 . S
N301 C303 1.356 . S
N301 H313 0.984 . S
N301 H314 0.985 . S
N302 C304 1.356 . S
N302 H307 0.984 . S
N302 H308 0.985 . S
C303 C297 1.379 . S
C303 C300 1.363 . S
C303 N301 1.356 . S
C304 C298 1.363 . S
C304 C299 1.379 . S
C304 N302 1.356 . S
N305 C297 1.356 . S
N305 H311 0.984 . S
N305 H312 0.984 . S
N306 C299 1.356 . S
N306 H309 0.984 . S
N306 H310 0.985 . S
H307 N302 0.984 . S
H308 N302 0.985 . S
H309 N306 0.984 . S
H310 N306 0.985 . S
H311 N305 0.984 . S
H312 N305 0.984 . S
H313 N301 0.984 . S
H314 N301 0.985 . S
C315 C316 1.363 . S
C315 C321 1.379 . S
C315 N323 1.356 . S
C316 C315 1.363 . S
C316 C322 1.363 . S
C317 C318 1.363 . S
C317 C322 1.379 . S
C317 N324 1.356 . S
C318 C317 1.363 . S
C318 C321 1.363 . S
N319 C321 1.356 . S
N319 H331 0.984 . S
N319 H332 0.985 . S
N320 C322 1.356 . S
N320 H325 0.984 . S
N320 H326 0.985 . S
C321 C315 1.379 . S
C321 C318 1.363 . S
C321 N319 1.356 . S
C322 C316 1.363 . S
C322 C317 1.379 . S
C322 N320 1.356 . S
N323 C315 1.356 . S
N323 H329 0.984 . S
N323 H330 0.984 . S
N324 C317 1.356 . S
N324 H327 0.984 . S
N324 H328 0.985 . S
H325 N320 0.984 . S
H326 N320 0.985 . S
H327 N324 0.984 . S
H328 N324 0.985 . S
H329 N323 0.984 . S
H330 N323 0.984 . S
H331 N319 0.984 . S
H332 N319 0.985 . S
C333 C334 1.363 . S
C333 C339 1.379 . S
C333 N341 1.356 . S
C334 C333 1.363 . S
C334 C340 1.363 . S
C335 C336 1.363 . S
C335 C340 1.379 . S
C335 N342 1.356 . S
C336 C335 1.363 . S
C336 C339 1.363 . S
N337 C339 1.356 . S
N337 H349 0.984 . S
N337 H350 0.985 . S
N338 C340 1.356 . S
N338 H343 0.984 . S
N338 H344 0.985 . S
C339 C333 1.379 . S
C339 C336 1.363 . S
C339 N337 1.356 . S
C340 C334 1.363 . S
C340 C335 1.379 . S
C340 N338 1.356 . S
N341 C333 1.356 . S
N341 H347 0.984 . S
N341 H348 0.984 . S
N342 C335 1.356 . S
N342 H345 0.984 . S
N342 H346 0.985 . S
H343 N338 0.984 . S
H344 N338 0.985 . S
H345 N342 0.984 . S
H346 N342 0.985 . S
H347 N341 0.984 . S
H348 N341 0.984 . S
H349 N337 0.984 . S
H350 N337 0.985 . S
C351 C352 1.363 . S
C351 C357 1.379 . S
C351 N359 1.356 . S
C352 C351 1.363 . S
C352 C358 1.363 . S
C353 C354 1.363 . S
C353 C358 1.379 . S
C353 N360 1.356 . S
C354 C353 1.363 . S
C354 C357 1.363 . S
N355 C357 1.356 . S
N355 H367 0.984 . S
N355 H368 0.985 . S
N356 C358 1.356 . S
N356 H361 0.984 . S
N356 H362 0.985 . S
C357 C351 1.379 . S
C357 C354 1.363 . S
C357 N355 1.356 . S
C358 C352 1.363 . S
C358 C353 1.379 . S
C358 N356 1.356 . S
N359 C351 1.356 . S
N359 H365 0.984 . S
N359 H366 0.984 . S
N360 C353 1.356 . S
N360 H363 0.984 . S
N360 H364 0.985 . S
H361 N356 0.984 . S
H362 N356 0.985 . S
H363 N360 0.984 . S
H364 N360 0.985 . S
H365 N359 0.984 . S
H366 N359 0.984 . S
H367 N355 0.984 . S
H368 N355 0.985 . S
C369 C370 1.363 . S
C369 C375 1.379 . S
C369 N377 1.356 . S
C370 C369 1.363 . S
C370 C376 1.363 . S
C371 C372 1.363 . S
C371 C376 1.379 . S
C371 N378 1.356 . S
C372 C371 1.363 . S
C372 C375 1.363 . S
N373 C375 1.356 . S
N373 H385 0.984 . S
N373 H386 0.985 . S
N374 C376 1.356 . S
N374 H379 0.984 . S
N374 H380 0.985 . S
C375 C369 1.379 . S
C375 C372 1.363 . S
C375 N373 1.356 . S
C376 C370 1.363 . S
C376 C371 1.379 . S
C376 N374 1.356 . S
N377 C369 1.356 . S
N377 H383 0.984 . S
N377 H384 0.984 . S
N378 C371 1.356 . S
N378 H381 0.984 . S
N378 H382 0.985 . S
H379 N374 0.984 . S
H380 N374 0.985 . S
H381 N378 0.984 . S
H382 N378 0.985 . S
H383 N377 0.984 . S
H384 N377 0.984 . S
H385 N373 0.984 . S
H386 N373 0.985 . S
C387 C388 1.363 . S
C387 C393 1.379 . S
C387 N395 1.356 . S
C388 C387 1.363 . S
C388 C394 1.363 . S
C389 C390 1.363 . S
C389 C394 1.379 . S
C389 N396 1.356 . S
C390 C389 1.363 . S
C390 C393 1.363 . S
N391 C393 1.356 . S
N391 H403 0.984 . S
N391 H404 0.985 . S
N392 C394 1.356 . S
N392 H397 0.984 . S
N392 H398 0.985 . S
C393 C387 1.379 . S
C393 C390 1.363 . S
C393 N391 1.356 . S
C394 C388 1.363 . S
C394 C389 1.379 . S
C394 N392 1.356 . S
N395 C387 1.356 . S
N395 H401 0.984 . S
N395 H402 0.984 . S
N396 C389 1.356 . S
N396 H399 0.984 . S
N396 H400 0.985 . S
H397 N392 0.984 . S
H398 N392 0.985 . S
H399 N396 0.984 . S
H400 N396 0.985 . S
H401 N395 0.984 . S
H402 N395 0.984 . S
H403 N391 0.984 . S
H404 N391 0.985 . S
C405 C406 1.363 . S
C405 C411 1.379 . S
C405 N413 1.356 . S
C406 C405 1.363 . S
C406 C412 1.363 . S
C407 C408 1.363 . S
C407 C412 1.379 . S
C407 N414 1.356 . S
C408 C407 1.363 . S
C408 C411 1.363 . S
N409 C411 1.356 . S
N409 H421 0.984 . S
N409 H422 0.985 . S
N410 C412 1.356 . S
N410 H415 0.984 . S
N410 H416 0.985 . S
C411 C405 1.379 . S
C411 C408 1.363 . S
C411 N409 1.356 . S
C412 C406 1.363 . S
C412 C407 1.379 . S
C412 N410 1.356 . S
N413 C405 1.356 . S
N413 H419 0.984 . S
N413 H420 0.984 . S
N414 C407 1.356 . S
N414 H417 0.984 . S
N414 H418 0.985 . S
H415 N410 0.984 . S
H416 N410 0.985 . S
H417 N414 0.984 . S
H418 N414 0.985 . S
H419 N413 0.984 . S
H420 N413 0.984 . S
H421 N409 0.984 . S
H422 N409 0.985 . S
C423 C424 1.363 . S
C423 C429 1.379 . S
C423 N431 1.356 . S
C424 C423 1.363 . S
C424 C430 1.363 . S
C425 C426 1.363 . S
C425 C430 1.379 . S
C425 N432 1.356 . S
C426 C425 1.363 . S
C426 C429 1.363 . S
N427 C429 1.356 . S
N427 H439 0.984 . S
N427 H440 0.985 . S
N428 C430 1.356 . S
N428 H433 0.984 . S
N428 H434 0.985 . S
C429 C423 1.379 . S
C429 C426 1.363 . S
C429 N427 1.356 . S
C430 C424 1.363 . S
C430 C425 1.379 . S
C430 N428 1.356 . S
N431 C423 1.356 . S
N431 H437 0.984 . S
N431 H438 0.984 . S
N432 C425 1.356 . S
N432 H435 0.984 . S
N432 H436 0.985 . S
H433 N428 0.984 . S
H434 N428 0.985 . S
H435 N432 0.984 . S
H436 N432 0.985 . S
H437 N431 0.984 . S
H438 N431 0.984 . S
H439 N427 0.984 . S
H440 N427 0.985 . S
C441 C442 1.363 . S
C441 C447 1.379 . S
C441 N449 1.356 . S
C442 C441 1.363 . S
C442 C448 1.363 . S
C443 C444 1.363 . S
C443 C448 1.379 . S
C443 N450 1.356 . S
C444 C443 1.363 . S
C444 C447 1.363 . S
N445 C447 1.356 . S
N445 H457 0.984 . S
N445 H458 0.985 . S
N446 C448 1.356 . S
N446 H451 0.984 . S
N446 H452 0.985 . S
C447 C441 1.379 . S
C447 C444 1.363 . S
C447 N445 1.356 . S
C448 C442 1.363 . S
C448 C443 1.379 . S
C448 N446 1.356 . S
N449 C441 1.356 . S
N449 H455 0.984 . S
N449 H456 0.984 . S
N450 C443 1.356 . S
N450 H453 0.984 . S
N450 H454 0.985 . S
H451 N446 0.984 . S
H452 N446 0.985 . S
H453 N450 0.984 . S
H454 N450 0.985 . S
H455 N449 0.984 . S
H456 N449 0.984 . S
H457 N445 0.984 . S
H458 N445 0.985 . S
C459 C460 1.363 . S
C459 C465 1.379 . S
C459 N467 1.356 . S
C460 C459 1.363 . S
C460 C466 1.363 . S
C461 C462 1.363 . S
C461 C466 1.379 . S
C461 N468 1.356 . S
C462 C461 1.363 . S
C462 C465 1.363 . S
N463 C465 1.356 . S
N463 H475 0.984 . S
N463 H476 0.985 . S
N464 C466 1.356 . S
N464 H469 0.984 . S
N464 H470 0.985 . S
C465 C459 1.379 . S
C465 C462 1.363 . S
C465 N463 1.356 . S
C466 C460 1.363 . S
C466 C461 1.379 . S
C466 N464 1.356 . S
N467 C459 1.356 . S
N467 H473 0.984 . S
N467 H474 0.984 . S
N468 C461 1.356 . S
N468 H471 0.984 . S
N468 H472 0.985 . S
H469 N464 0.984 . S
H470 N464 0.985 . S
H471 N468 0.984 . S
H472 N468 0.985 . S
H473 N467 0.984 . S
H474 N467 0.984 . S
H475 N463 0.984 . S
H476 N463 0.985 . S
C477 C478 1.363 . S
C477 C483 1.379 . S
C477 N485 1.356 . S
C478 C477 1.363 . S
C478 C484 1.363 . S
C479 C480 1.363 . S
C479 C484 1.379 . S
C479 N486 1.356 . S
C480 C479 1.363 . S
C480 C483 1.363 . S
N481 C483 1.356 . S
N481 H493 0.984 . S
N481 H494 0.985 . S
N482 C484 1.356 . S
N482 H487 0.984 . S
N482 H488 0.985 . S
C483 C477 1.379 . S
C483 C480 1.363 . S
C483 N481 1.356 . S
C484 C478 1.363 . S
C484 C479 1.379 . S
C484 N482 1.356 . S
N485 C477 1.356 . S
N485 H491 0.984 . S
N485 H492 0.984 . S
N486 C479 1.356 . S
N486 H489 0.984 . S
N486 H490 0.985 . S
H487 N482 0.984 . S
H488 N482 0.985 . S
H489 N486 0.984 . S
H490 N486 0.985 . S
H491 N485 0.984 . S
H492 N485 0.984 . S
H493 N481 0.984 . S
H494 N481 0.985 . S
C495 C496 1.363 . S
C495 C501 1.379 . S
C495 N503 1.356 . S
C496 C495 1.363 . S
C496 C502 1.363 . S
C497 C498 1.363 . S
C497 C502 1.379 . S
C497 N504 1.356 . S
C498 C497 1.363 . S
C498 C501 1.363 . S
N499 C501 1.356 . S
N499 H511 0.984 . S
N499 H512 0.985 . S
N500 C502 1.356 . S
N500 H505 0.984 . S
N500 H506 0.985 . S
C501 C495 1.379 . S
C501 C498 1.363 . S
C501 N499 1.356 . S
C502 C496 1.363 . S
C502 C497 1.379 . S
C502 N500 1.356 . S
N503 C495 1.356 . S
N503 H509 0.984 . S
N503 H510 0.984 . S
N504 C497 1.356 . S
N504 H507 0.984 . S
N504 H508 0.985 . S
H505 N500 0.984 . S
H506 N500 0.985 . S
H507 N504 0.984 . S
H508 N504 0.985 . S
H509 N503 0.984 . S
H510 N503 0.984 . S
H511 N499 0.984 . S
H512 N499 0.985 . S
C513 C514 1.363 . S
C513 C519 1.379 . S
C513 N521 1.356 . S
C514 C513 1.363 . S
C514 C520 1.363 . S
C515 C516 1.363 . S
C515 C520 1.379 . S
C515 N522 1.356 . S
C516 C515 1.363 . S
C516 C519 1.363 . S
N517 C519 1.356 . S
N517 H529 0.984 . S
N517 H530 0.985 . S
N518 C520 1.356 . S
N518 H523 0.984 . S
N518 H524 0.985 . S
C519 C513 1.379 . S
C519 C516 1.363 . S
C519 N517 1.356 . S
C520 C514 1.363 . S
C520 C515 1.379 . S
C520 N518 1.356 . S
N521 C513 1.356 . S
N521 H527 0.984 . S
N521 H528 0.984 . S
N522 C515 1.356 . S
N522 H525 0.984 . S
N522 H526 0.985 . S
H523 N518 0.984 . S
H524 N518 0.985 . S
H525 N522 0.984 . S
H526 N522 0.985 . S
H527 N521 0.984 . S
H528 N521 0.984 . S
H529 N517 0.984 . S
H530 N517 0.985 . S
C531 C532 1.363 . S
C531 C537 1.379 . S
C531 N539 1.356 . S
C532 C531 1.363 . S
C532 C538 1.363 . S
C533 C534 1.363 . S
C533 C538 1.379 . S
C533 N540 1.356 . S
C534 C533 1.363 . S
C534 C537 1.363 . S
N535 C537 1.356 . S
N535 H547 0.984 . S
N535 H548 0.985 . S
N536 C538 1.356 . S
N536 H541 0.984 . S
N536 H542 0.985 . S
C537 C531 1.379 . S
C537 C534 1.363 . S
C537 N535 1.356 . S
C538 C532 1.363 . S
C538 C533 1.379 . S
C538 N536 1.356 . S
N539 C531 1.356 . S
N539 H545 0.984 . S
N539 H546 0.984 . S
N540 C533 1.356 . S
N540 H543 0.984 . S
N540 H544 0.985 . S
H541 N536 0.984 . S
H542 N536 0.985 . S
H543 N540 0.984 . S
H544 N540 0.985 . S
H545 N539 0.984 . S
H546 N539 0.984 . S
H547 N535 0.984 . S
H548 N535 0.985 . S
C549 C550 1.363 . S
C549 C555 1.379 . S
C549 N557 1.356 . S
C550 C549 1.363 . S
C550 C556 1.363 . S
C551 C552 1.363 . S
C551 C556 1.379 . S
C551 N558 1.356 . S
C552 C551 1.363 . S
C552 C555 1.363 . S
N553 C555 1.356 . S
N553 H565 0.984 . S
N553 H566 0.985 . S
N554 C556 1.356 . S
N554 H559 0.984 . S
N554 H560 0.985 . S
C555 C549 1.379 . S
C555 C552 1.363 . S
C555 N553 1.356 . S
C556 C550 1.363 . S
C556 C551 1.379 . S
C556 N554 1.356 . S
N557 C549 1.356 . S
N557 H563 0.984 . S
N557 H564 0.984 . S
N558 C551 1.356 . S
N558 H561 0.984 . S
N558 H562 0.985 . S
H559 N554 0.984 . S
H560 N554 0.985 . S
H561 N558 0.984 . S
H562 N558 0.985 . S
H563 N557 0.984 . S
H564 N557 0.984 . S
H565 N553 0.984 . S
H566 N553 0.985 . S
C567 C568 1.363 . S
C567 C573 1.379 . S
C567 N575 1.356 . S
C568 C567 1.363 . S
C568 C574 1.363 . S
C569 C570 1.363 . S
C569 C574 1.379 . S
C569 N576 1.356 . S
C570 C569 1.363 . S
C570 C573 1.363 . S
N571 C573 1.356 . S
N571 H583 0.984 . S
N571 H584 0.985 . S
N572 C574 1.356 . S
N572 H577 0.984 . S
N572 H578 0.985 . S
C573 C567 1.379 . S
C573 C570 1.363 . S
C573 N571 1.356 . S
C574 C568 1.363 . S
C574 C569 1.379 . S
C574 N572 1.356 . S
N575 C567 1.356 . S
N575 H581 0.984 . S
N575 H582 0.984 . S
N576 C569 1.356 . S
N576 H579 0.984 . S
N576 H580 0.985 . S
H577 N572 0.984 . S
H578 N572 0.985 . S
H579 N576 0.984 . S
H580 N576 0.985 . S
H581 N575 0.984 . S
H582 N575 0.984 . S
H583 N571 0.984 . S
H584 N571 0.985 . S
C585 C586 1.363 . S
C585 C591 1.379 . S
C585 N593 1.356 . S
C586 C585 1.363 . S
C586 C592 1.363 . S
C587 C588 1.363 . S
C587 C592 1.379 . S
C587 N594 1.356 . S
C588 C587 1.363 . S
C588 C591 1.363 . S
N589 C591 1.356 . S
N589 H601 0.984 . S
N589 H602 0.985 . S
N590 C592 1.356 . S
N590 H595 0.984 . S
N590 H596 0.985 . S
C591 C585 1.379 . S
C591 C588 1.363 . S
C591 N589 1.356 . S
C592 C586 1.363 . S
C592 C587 1.379 . S
C592 N590 1.356 . S
N593 C585 1.356 . S
N593 H599 0.984 . S
N593 H600 0.984 . S
N594 C587 1.356 . S
N594 H597 0.984 . S
N594 H598 0.985 . S
H595 N590 0.984 . S
H596 N590 0.985 . S
H597 N594 0.984 . S
H598 N594 0.985 . S
H599 N593 0.984 . S
H600 N593 0.984 . S
H601 N589 0.984 . S
H602 N589 0.985 . S
C174 C96 1.245 . S
C172 C4 1.334 . S
C192 C132 1.607 . S
C190 C13 1.727 . S
C210 C97 1.341 . S
C208 C25 1.357 . S
C228 C127 1.458 . S
C226 C32 1.509 . S
C246 C94 1.445 . S
C244 C41 1.526 . S
C262 C52 1.557 . S
C264 C130 1.570 . S
C280 C61 1.336 . S
C282 C99 1.197 . S
C300 C129 1.381 . S
C298 C67 1.423 . S
C318 C133 1.378 . S
C316 C7 1.417 . S
C336 C98 1.458 . S
C334 C14 1.535 . S
C354 C126 1.582 . S
C352 C22 1.570 . S
C372 C95 1.193 . S
C370 C31 1.332 . S
C390 C128 1.594 . S
C388 C40 1.715 . S
C406 C49 1.363 . S
C408 C93 1.347 . S
C424 C59 1.517 . S
C426 C131 1.463 . S
C444 C100 1.241 . S
C442 C70 1.329 . S
C462 C162 1.504 . S
C460 C5 1.635 . S
C478 C43 1.943 . S
C480 C165 1.791 . S
C498 C164 1.549 . S
C496 C50 1.592 . S
C514 C58 1.857 . S
C516 C163 1.841 . S
C534 C166 1.501 . S
C532 C68 1.631 . S
C550 C23 1.597 . S
C552 C160 1.555 . S
C570 C159 1.821 . S
C568 C34 1.839 . S
C586 C16 1.956 . S
C588 C161 1.807 . S
