# Generated by pormake.
# Topology pth, (4,4)-cn, num edge types: 1
# Building blocks:
#     Node 0, Type 0, BuildingBlock: GALJAG_clean_sbu_0, # of connection points: 4
#     Node 1, Type 0, BuildingBlock: GALJAG_clean_sbu_0, # of connection points: 4
#     Node 2, Type 0, BuildingBlock: GALJAG_clean_sbu_0, # of connection points: 4
#     Node 3, Type 1, BuildingBlock: MIFKUJ_clean_linker_1, # of connection points: 4
#     Node 4, Type 1, BuildingBlock: MIFKUJ_clean_linker_1, # of connection points: 4
#     Node 5, Type 1, BuildingBlock: MIFKUJ_clean_linker_1, # of connection points: 4
#     Edge 6, Type (0, 1), BuildingBlock: MIFKUJ_clean_linker_0, # of connection points: 2
#     Edge 7, Type (0, 1), BuildingBlock: MIFKUJ_clean_linker_0, # of connection points: 2
#     Edge 8, Type (0, 1), BuildingBlock: MIFKUJ_clean_linker_0, # of connection points: 2
#     Edge 9, Type (0, 1), BuildingBlock: MIFKUJ_clean_linker_0, # of connection points: 2
#     Edge 10, Type (0, 1), BuildingBlock: MIFKUJ_clean_linker_0, # of connection points: 2
#     Edge 11, Type (0, 1), BuildingBlock: MIFKUJ_clean_linker_0, # of connection points: 2
#     Edge 12, Type (0, 1), BuildingBlock: MIFKUJ_clean_linker_0, # of connection points: 2
#     Edge 13, Type (0, 1), BuildingBlock: MIFKUJ_clean_linker_0, # of connection points: 2
#     Edge 14, Type (0, 1), BuildingBlock: MIFKUJ_clean_linker_0, # of connection points: 2
#     Edge 15, Type (0, 1), BuildingBlock: MIFKUJ_clean_linker_0, # of connection points: 2
#     Edge 16, Type (0, 1), BuildingBlock: MIFKUJ_clean_linker_0, # of connection points: 2
#     Edge 17, Type (0, 1), BuildingBlock: MIFKUJ_clean_linker_0, # of connection points: 2
# Relax obj value: 0.002
# Max RMSD: 0.043
# Mean RMSD: 0.028
data_MOF--net-pth--node1-GALJAG_clean_sbu_0--node2-MIFKUJ_clean_linker_1--edge1-MIFKUJ_clean_linker_0
_symmetry_space_group_name_H-M    P1
_symmetry_Int_Tables_number       1
_symmetry_cell_setting            triclinic
loop_
_symmetry_equiv_pos_as_xyz
'x, y, z'
_cell_length_a     37.510774
_cell_length_b     37.531402
_cell_length_c     77.442448
_cell_angle_alpha  90.168156
_cell_angle_beta   90.123847
_cell_angle_gamma 119.9974
loop_
_atom_site_label
_atom_site_type_symbol
_atom_site_fract_x
_atom_site_fract_y
_atom_site_fract_z
_atom_type_partial_charge
In0 In 0.99959 0.00233 0.03978 0.0
O1 O 0.97189 0.04146 0.04831 0.0
O2 O 0.0173 0.04032 0.06451 0.0
C3 C 0.94091 0.95319 0.01669 0.0
C4 C 0.0634 0.05889 0.02105 0.0
C5 C 0.00369 0.94757 0.06102 0.0
O6 O 0.93274 0.9666 0.03017 0.0
O7 O 0.97851 0.96508 0.01475 0.0
O8 O 0.03295 0.97063 0.05115 0.0
O9 O 0.97268 0.95217 0.06012 0.0
C10 C 0.99309 0.05405 0.06201 0.0
O11 O 0.06132 0.02583 0.02594 0.0
O12 O 0.03353 0.06321 0.02558 0.0
In13 In 0.00517 0.00629 0.37252 0.0
O14 O 0.03776 0.07153 0.36165 0.0
O15 O 0.97842 0.02903 0.35176 0.0
C16 C 0.06611 0.01293 0.39339 0.0
C17 C 0.94736 0.0029 0.3942 0.0
C18 C 0.99711 0.94591 0.35092 0.0
O19 O 0.07274 0.03687 0.38087 0.0
O20 O 0.02888 0.98592 0.39541 0.0
O21 O 0.9729 0.93915 0.36336 0.0
O22 O 0.02509 0.98289 0.34941 0.0
C23 C 0.00893 0.06505 0.35137 0.0
O24 O 0.94014 0.97438 0.38361 0.0
O25 O 0.98373 0.03286 0.39392 0.0
In26 In 0.00092 0.99411 0.70623 0.0
O27 O 0.96389 0.92767 0.7157 0.0
O28 O 0.96037 0.97382 0.73022 0.0
C29 C 0.05291 0.98701 0.68428 0.0
C30 C 0.94577 0.99918 0.68542 0.0
C31 C 0.0573 0.05499 0.7265 0.0
O32 O 0.03724 0.96365 0.69711 0.0
O33 O 0.04206 0.01363 0.68244 0.0
O34 O 0.03167 0.05938 0.71747 0.0
O35 O 0.05428 0.02007 0.72529 0.0
C36 C 0.94891 0.93619 0.72856 0.0
O37 O 0.96941 0.02814 0.69542 0.0
O38 O 0.95017 0.96801 0.68591 0.0
H39 H 0.0544 0.4779 0.17128 0.0
H40 H 0.05386 0.42247 0.15424 0.0
H41 H 0.95087 0.33255 0.18378 0.0
H42 H 0.94954 0.3878 0.20009 0.0
H43 H 0.00541 0.50484 0.17415 0.0
H44 H 0.06009 0.45108 0.21576 0.0
H45 H 0.0635 0.39801 0.23278 0.0
H46 H 0.94682 0.36583 0.25622 0.0
H47 H 0.9432 0.41841 0.23892 0.0
H48 H 0.92947 0.52867 0.23106 0.0
H49 H 0.92584 0.58294 0.24711 0.0
H50 H 0.05513 0.66569 0.23709 0.0
H51 H 0.05761 0.61174 0.22033 0.0
H52 H 0.99266 0.50049 0.23798 0.0
H53 H 0.93768 0.55069 0.19164 0.0
H54 H 0.93873 0.60583 0.17456 0.0
H55 H 0.06715 0.65163 0.16284 0.0
H56 H 0.06499 0.59514 0.1793 0.0
C57 C 0.00244 0.43719 0.18721 0.0
C58 C 0.0315 0.44632 0.17405 0.0
C59 C 0.03133 0.41475 0.16437 0.0
C60 C 0.00258 0.37351 0.16789 0.0
C61 C 0.97366 0.36422 0.18105 0.0
C62 C 0.97314 0.39579 0.19043 0.0
C63 C 0.00197 0.47092 0.19718 0.0
C64 C 0.00322 0.50393 0.18812 0.0
C65 C 0.99877 0.47005 0.21544 0.0
C66 C 0.00121 0.43841 0.22597 0.0
C67 C 0.03517 0.43245 0.22451 0.0
C68 C 0.03723 0.40235 0.23433 0.0
C69 C 0.00537 0.37771 0.2458 0.0
C70 C 0.97157 0.384 0.24733 0.0
C71 C 0.96962 0.41422 0.23757 0.0
C72 C 0.99376 0.56637 0.22456 0.0
C73 C 0.95689 0.55863 0.23231 0.0
C74 C 0.95501 0.58966 0.24157 0.0
C75 C 0.99025 0.62883 0.24351 0.0
C76 C 0.02718 0.63627 0.23566 0.0
C77 C 0.02882 0.60539 0.22619 0.0
C78 C 0.9958 0.53352 0.21487 0.0
C79 C 0.99496 0.50098 0.22401 0.0
C80 C 0.00034 0.53522 0.19679 0.0
C81 C 0.00123 0.56894 0.18665 0.0
C82 C 0.96596 0.57266 0.18534 0.0
C83 C 0.96678 0.60443 0.17567 0.0
C84 C 0.00306 0.63336 0.16728 0.0
C85 C 0.03845 0.62957 0.16882 0.0
C86 C 0.03741 0.59746 0.1783 0.0
H87 H 0.59396 0.0661 0.50976 0.0
H88 H 0.64864 0.06554 0.49266 0.0
H89 H 0.61269 0.94427 0.51188 0.0
H90 H 0.55796 0.94485 0.52879 0.0
H91 H 0.51044 0.01418 0.50786 0.0
H92 H 0.61466 0.05954 0.55101 0.0
H93 H 0.6697 0.06013 0.56825 0.0
H94 H 0.58435 0.93833 0.5869 0.0
H95 H 0.52935 0.9378 0.5695 0.0
H96 H 0.41324 0.93338 0.56726 0.0
H97 H 0.35543 0.92844 0.58372 0.0
H98 H 0.38981 0.05229 0.56848 0.0
H99 H 0.44676 0.05639 0.55167 0.0
H100 H 0.4973 0.98967 0.57107 0.0
H101 H 0.39274 0.94687 0.52642 0.0
H102 H 0.34022 0.95058 0.5091 0.0
H103 H 0.42957 0.07476 0.49423 0.0
H104 H 0.48214 0.0702 0.51121 0.0
C105 C 0.5721 0.00564 0.52061 0.0
C106 C 0.59796 0.03947 0.5103 0.0
C107 C 0.62929 0.0392 0.50064 0.0
C108 C 0.63488 0.00484 0.50095 0.0
C109 C 0.60889 0.97102 0.51129 0.0
C110 C 0.57784 0.97145 0.52105 0.0
C111 C 0.5383 0.00537 0.5306 0.0
C112 C 0.5079 0.00945 0.52172 0.0
C113 C 0.53469 0.99866 0.54863 0.0
C114 C 0.568 0.99851 0.5589 0.0
C115 C 0.60787 0.03285 0.55872 0.0
C116 C 0.63919 0.03328 0.56866 0.0
C117 C 0.63127 0.99928 0.57891 0.0
C118 C 0.59138 0.9648 0.57899 0.0
C119 C 0.55993 0.96455 0.56917 0.0
C120 C 0.43408 0.99512 0.55817 0.0
C121 C 0.40818 0.95938 0.56746 0.0
C122 C 0.37527 0.95672 0.57693 0.0
C123 C 0.36789 0.98999 0.57747 0.0
C124 C 0.39405 0.0258 0.56813 0.0
C125 C 0.42677 0.0283 0.55857 0.0
C126 C 0.4692 0.99797 0.5483 0.0
C127 C 0.49988 0.99442 0.55722 0.0
C128 C 0.47333 0.00572 0.53034 0.0
C129 C 0.44125 0.00833 0.52015 0.0
C130 C 0.40088 0.97494 0.51949 0.0
C131 C 0.37085 0.97722 0.50963 0.0
C132 C 0.38056 0.01302 0.50026 0.0
C133 C 0.42109 0.04649 0.50105 0.0
C134 C 0.45117 0.04404 0.51081 0.0
H135 H 0.47498 0.41267 0.84112 0.0
H136 H 0.41979 0.35894 0.82363 0.0
H137 H 0.33213 0.38603 0.84772 0.0
H138 H 0.38761 0.44067 0.86462 0.0
H139 H 0.50458 0.49328 0.84148 0.0
H140 H 0.45395 0.39 0.88622 0.0
H141 H 0.40251 0.33504 0.90412 0.0
H142 H 0.35453 0.41426 0.91899 0.0
H143 H 0.40789 0.46974 0.90186 0.0
H144 H 0.52508 0.59056 0.90117 0.0
H145 H 0.57938 0.64826 0.91737 0.0
H146 H 0.66585 0.60963 0.90215 0.0
H147 H 0.61165 0.55307 0.88548 0.0
H148 H 0.49647 0.50422 0.90508 0.0
H149 H 0.55316 0.60918 0.86035 0.0
H150 H 0.60902 0.66285 0.84347 0.0
H151 H 0.64855 0.57662 0.82892 0.0
H152 H 0.59146 0.52281 0.84528 0.0
C153 C 0.4354 0.43041 0.85433 0.0
C154 C 0.44385 0.40696 0.84264 0.0
C155 C 0.41221 0.37606 0.83274 0.0
C156 C 0.37151 0.36813 0.83429 0.0
C157 C 0.36317 0.39158 0.84608 0.0
C158 C 0.3948 0.42249 0.85593 0.0
C159 C 0.46917 0.46435 0.86433 0.0
C160 C 0.50303 0.49527 0.85541 0.0
C161 C 0.46709 0.46748 0.88246 0.0
C162 C 0.43461 0.43381 0.89275 0.0
C163 C 0.43226 0.39537 0.89337 0.0
C164 C 0.40254 0.36386 0.90353 0.0
C165 C 0.3741 0.36995 0.91309 0.0
C166 C 0.37632 0.40853 0.91217 0.0
C167 C 0.40661 0.44026 0.90227 0.0
C168 C 0.56446 0.56777 0.89209 0.0
C169 C 0.5558 0.59469 0.90134 0.0
C170 C 0.58687 0.62751 0.91066 0.0
C171 C 0.62712 0.63369 0.91112 0.0
C172 C 0.63551 0.60638 0.90186 0.0
C173 C 0.6045 0.57384 0.8924 0.0
C174 C 0.53154 0.53306 0.8822 0.0
C175 C 0.49792 0.50208 0.89115 0.0
C176 C 0.53416 0.52958 0.86414 0.0
C177 C 0.5683 0.56214 0.85405 0.0
C178 C 0.57394 0.60197 0.8535 0.0
C179 C 0.6061 0.63268 0.84393 0.0
C180 C 0.63349 0.62422 0.83481 0.0
C181 C 0.62772 0.58417 0.83551 0.0
C182 C 0.59524 0.55337 0.84492 0.0
H183 H 0.95927 0.10232 0.05566 0.0
H184 H 0.96043 0.15539 0.07456 0.0
H185 H 0.02354 0.12636 0.1138 0.0
H186 H 0.02316 0.0737 0.09486 0.0
H187 H 0.95505 0.13671 0.12576 0.0
H188 H 0.07968 0.20467 0.09212 0.0
H189 H 0.11917 0.22389 0.065 0.0
H190 H 0.05284 0.28273 0.04733 0.0
H191 H 0.01246 0.26325 0.07425 0.0
H192 H 0.01459 0.31171 0.17912 0.0
H193 H 0.01349 0.25637 0.16182 0.0
H194 H 0.98553 0.30413 0.11625 0.0
H195 H 0.98924 0.36079 0.13342 0.0
H196 H 0.03689 0.28267 0.10777 0.0
H197 H 0.91153 0.21565 0.14042 0.0
H198 H 0.86896 0.19499 0.16672 0.0
H199 H 0.93117 0.13267 0.18524 0.0
H200 H 0.97467 0.15362 0.15921 0.0
C201 C 0.9731 0.10704 0.06837 0.0
C202 C 0.99127 0.08405 0.07379 0.0
C203 C 0.97381 0.13736 0.07911 0.0
C204 C 0.99223 0.14479 0.09551 0.0
C205 C 0.00918 0.12097 0.10118 0.0
C206 C 0.00906 0.09108 0.09034 0.0
C207 C 0.99516 0.17851 0.10645 0.0
C208 C 0.97326 0.16872 0.12199 0.0
C209 C 0.0182 0.22002 0.10124 0.0
C210 C 0.04275 0.23212 0.08512 0.0
C211 C 0.07326 0.22139 0.08239 0.0
C212 C 0.09585 0.23238 0.06707 0.0
C213 C 0.08844 0.25442 0.05443 0.0
C214 C 0.0585 0.26561 0.05712 0.0
C215 C 0.03577 0.25462 0.07241 0.0
C216 C 0.00835 0.31024 0.16539 0.0
C217 C 0.00194 0.34019 0.15752 0.0
C218 C 0.00739 0.27851 0.15553 0.0
C219 C 0.99856 0.27544 0.13774 0.0
C220 C 0.99238 0.3057 0.12992 0.0
C221 C 0.99439 0.33798 0.1397 0.0
C222 C 0.99627 0.24115 0.12717 0.0
C223 C 0.01847 0.25077 0.11165 0.0
C224 C 0.97297 0.1994 0.13232 0.0
C225 C 0.94665 0.18658 0.14794 0.0
C226 C 0.91635 0.19781 0.15016 0.0
C227 C 0.89206 0.18605 0.16502 0.0
C228 C 0.89748 0.16269 0.17768 0.0
C229 C 0.92711 0.1509 0.17546 0.0
C230 C 0.95159 0.1627 0.16066 0.0
H231 H 0.87866 0.15363 0.18918 0.0
H232 H 0.10596 0.2629 0.04257 0.0
H233 H 0.86702 0.94211 0.39705 0.0
H234 H 0.8141 0.9415 0.41568 0.0
H235 H 0.90277 0.06082 0.43592 0.0
H236 H 0.95594 0.06134 0.41751 0.0
H237 H 0.85629 0.01084 0.46134 0.0
H238 H 0.83257 0.05112 0.40577 0.0
H239 H 0.82038 0.04515 0.37432 0.0
H240 H 0.70853 0.93017 0.38133 0.0
H241 H 0.72036 0.93517 0.41282 0.0
H242 H 0.71519 0.06541 0.49741 0.0
H243 H 0.76839 0.06372 0.47969 0.0
H244 H 0.68085 0.94067 0.4628 0.0
H245 H 0.62748 0.94228 0.48038 0.0
H246 H 0.72635 0.99184 0.43588 0.0
H247 H 0.75027 0.95308 0.49185 0.0
H248 H 0.76279 0.96062 0.52327 0.0
H249 H 0.87487 0.0749 0.51542 0.0
H250 H 0.86269 0.06835 0.48394 0.0
C251 C 0.87525 0.96814 0.40551 0.0
C252 C 0.91557 0.00185 0.40578 0.0
C253 C 0.84496 0.96783 0.4161 0.0
C254 C 0.85437 0.00135 0.42704 0.0
C255 C 0.89482 0.03466 0.42757 0.0
C256 C 0.92512 0.03496 0.417 0.0
C257 C 0.82196 0.0019 0.43782 0.0
C258 C 0.82811 0.0072 0.45575 0.0
C259 C 0.78484 0.99638 0.43056 0.0
C260 C 0.77758 0.99331 0.41164 0.0
C261 C 0.80555 0.02439 0.40059 0.0
C262 C 0.79867 0.02121 0.38276 0.0
C263 C 0.76376 0.98724 0.37583 0.0
C264 C 0.73559 0.95643 0.38672 0.0
C265 C 0.74235 0.95944 0.40456 0.0
C266 C 0.7073 0.03809 0.48986 0.0
C267 C 0.66725 0.00393 0.49031 0.0
C268 C 0.73773 0.03705 0.47985 0.0
C269 C 0.72859 0.00195 0.47004 0.0
C270 C 0.68853 0.968 0.47031 0.0
C271 C 0.65819 0.96886 0.48044 0.0
C272 C 0.76073 0.00077 0.45936 0.0
C273 C 0.75453 0.99541 0.44146 0.0
C274 C 0.79786 0.00646 0.46663 0.0
C275 C 0.80534 0.01043 0.48555 0.0
C276 C 0.7774 0.98001 0.49683 0.0
C277 C 0.78447 0.98407 0.51465 0.0
C278 C 0.81955 0.01828 0.52134 0.0
C279 C 0.84768 0.04845 0.51022 0.0
C280 C 0.84072 0.04457 0.49239 0.0
H281 H 0.82498 0.02135 0.53514 0.0
H282 H 0.75848 0.98485 0.36202 0.0
H283 H 0.9121 0.85273 0.72525 0.0
H284 H 0.8602 0.80049 0.74418 0.0
H285 H 0.86669 0.89584 0.77752 0.0
H286 H 0.91859 0.94828 0.75864 0.0
H287 H 0.86452 0.8309 0.79573 0.0
H288 H 0.78969 0.85147 0.75029 0.0
H289 H 0.77181 0.8564 0.72007 0.0
H290 H 0.73997 0.73094 0.71107 0.0
H291 H 0.75827 0.72545 0.74118 0.0
H292 H 0.6808 0.70664 0.84239 0.0
H293 H 0.73494 0.76017 0.8249 0.0
H294 H 0.71948 0.66926 0.78684 0.0
H295 H 0.66333 0.61601 0.80363 0.0
H296 H 0.72693 0.73357 0.77131 0.0
H297 H 0.80258 0.71318 0.81696 0.0
H298 H 0.8197 0.70849 0.84733 0.0
H299 H 0.84943 0.83339 0.85617 0.0
H300 H 0.83212 0.8387 0.82588 0.0
C301 C 0.90266 0.86255 0.73667 0.0
C302 C 0.91921 0.90456 0.74043 0.0
C303 C 0.87295 0.8327 0.74743 0.0
C304 C 0.85938 0.84435 0.76215 0.0
C305 C 0.87675 0.88625 0.76621 0.0
C306 C 0.90625 0.91613 0.75538 0.0
C307 C 0.82614 0.81282 0.77301 0.0
C308 C 0.83428 0.80985 0.79047 0.0
C309 C 0.78694 0.78505 0.76604 0.0
C310 C 0.77577 0.78819 0.74794 0.0
C311 C 0.77922 0.82504 0.74182 0.0
C312 C 0.76895 0.82792 0.72472 0.0
C313 C 0.75488 0.79404 0.71364 0.0
C314 C 0.75094 0.75718 0.71966 0.0
C315 C 0.76123 0.75416 0.73674 0.0
C316 C 0.6885 0.69801 0.8302 0.0
C317 C 0.66758 0.65684 0.82447 0.0
C318 C 0.71997 0.72865 0.82032 0.0
C319 C 0.73187 0.71871 0.80467 0.0
C320 C 0.71105 0.6777 0.79891 0.0
C321 C 0.6792 0.64715 0.80865 0.0
C322 C 0.76532 0.75106 0.79407 0.0
C323 C 0.75719 0.75439 0.77662 0.0
C324 C 0.80452 0.77909 0.80107 0.0
C325 C 0.81574 0.77622 0.81919 0.0
C326 C 0.81261 0.73958 0.8254 0.0
C327 C 0.82237 0.73683 0.8426 0.0
C328 C 0.83555 0.77059 0.85368 0.0
C329 C 0.83919 0.80726 0.84757 0.0
C330 C 0.82949 0.81018 0.83038 0.0
H331 H 0.84301 0.76837 0.867 0.0
H332 H 0.74692 0.79632 0.70041 0.0
H333 H 0.05743 0.91848 0.06016 0.0
H334 H 0.05773 0.86606 0.07892 0.0
H335 H 0.95423 0.85662 0.10701 0.0
H336 H 0.95324 0.90839 0.08814 0.0
H337 H 0.02009 0.86124 0.12824 0.0
H338 H 0.93288 0.78582 0.08035 0.0
H339 H 0.91532 0.76996 0.04952 0.0
H340 H 0.01612 0.7475 0.04315 0.0
H341 H 0.03465 0.76386 0.07391 0.0
H342 H 0.96332 0.67685 0.17366 0.0
H343 H 0.96325 0.73046 0.15599 0.0
H344 H 0.0465 0.72181 0.12012 0.0
H345 H 0.04432 0.66608 0.137 0.0
H346 H 0.99062 0.72752 0.10297 0.0
H347 H 0.0774 0.80175 0.15128 0.0
H348 H 0.09463 0.8177 0.18213 0.0
H349 H 0.99583 0.84336 0.18789 0.0
H350 H 0.97754 0.82687 0.15714 0.0
C351 C 0.03488 0.90533 0.07038 0.0
C352 C 0.00521 0.91731 0.07267 0.0
C353 C 0.03506 0.87543 0.08105 0.0
C354 C 0.00592 0.8575 0.09429 0.0
C355 C 0.97697 0.8702 0.09687 0.0
C356 C 0.97635 0.89958 0.08604 0.0
C357 C 0.00485 0.82455 0.10509 0.0
C358 C 0.01327 0.8318 0.1228 0.0
C359 C 0.99659 0.78655 0.09786 0.0
C360 C 0.98544 0.77653 0.07938 0.0
C361 C 0.95154 0.77789 0.07234 0.0
C362 C 0.94136 0.76873 0.05488 0.0
C363 C 0.96467 0.75786 0.04437 0.0
C364 C 0.99814 0.75601 0.0513 0.0
C365 C 0.00848 0.76519 0.06875 0.0
C366 C 0.98121 0.6859 0.1619 0.0
C367 C 0.0039 0.66703 0.15682 0.0
C368 C 0.98163 0.71707 0.15192 0.0
C369 C 0.00548 0.73078 0.13687 0.0
C370 C 0.02804 0.71196 0.13173 0.0
C371 C 0.02714 0.68037 0.14154 0.0
C372 C 0.00636 0.76413 0.12624 0.0
C373 C 0.99772 0.75695 0.10849 0.0
C374 C 0.01457 0.80226 0.13347 0.0
C375 C 0.02586 0.81269 0.15193 0.0
C376 C 0.05917 0.81052 0.15915 0.0
C377 C 0.06912 0.81966 0.17662 0.0
C378 C 0.04623 0.83137 0.18698 0.0
C379 C 0.01345 0.83415 0.17987 0.0
C380 C 0.00329 0.82494 0.16241 0.0
H381 H 0.05396 0.8384 0.20051 0.0
H382 H 0.95674 0.75076 0.03086 0.0
H383 H 0.05783 0.97287 0.42371 0.0
H384 H 0.11263 0.97621 0.44207 0.0
H385 H 0.20385 0.06184 0.40679 0.0
H386 H 0.14914 0.05896 0.38841 0.0
H387 H 0.21567 0.99584 0.41653 0.0
H388 H 0.19172 0.09788 0.44316 0.0
H389 H 0.14941 0.12406 0.45629 0.0
H390 H 0.11207 0.03363 0.49636 0.0
H391 H 0.15371 0.0065 0.48332 0.0
H392 H 0.39021 0.04901 0.46852 0.0
H393 H 0.33795 0.05202 0.45083 0.0
H394 H 0.24613 0.98314 0.48931 0.0
H395 H 0.29873 0.98204 0.50757 0.0
H396 H 0.23506 0.04216 0.47764 0.0
H397 H 0.25515 0.9379 0.45148 0.0
H398 H 0.29446 0.90809 0.43853 0.0
H399 H 0.33529 0.99749 0.39792 0.0
H400 H 0.29665 0.0282 0.41077 0.0
C401 C 0.08957 0.99255 0.4199 0.0
C402 C 0.09926 0.01571 0.40465 0.0
C403 C 0.1208 0.9945 0.43042 0.0
C404 C 0.16224 0.01943 0.42582 0.0
C405 C 0.17202 0.04246 0.41056 0.0
C406 C 0.14079 0.04089 0.40012 0.0
C407 C 0.19527 0.02074 0.43678 0.0
C408 C 0.22041 0.00657 0.42981 0.0
C409 C 0.20046 0.03354 0.45425 0.0
C410 C 0.17553 0.04991 0.46216 0.0
C411 C 0.17421 0.08334 0.45468 0.0
C412 C 0.1504 0.0984 0.46213 0.0
C413 C 0.12798 0.08045 0.47713 0.0
C414 C 0.12941 0.04747 0.48473 0.0
C415 C 0.15314 0.03227 0.47733 0.0
C416 C 0.35905 0.03501 0.47338 0.0
C417 C 0.34874 0.01515 0.48949 0.0
C418 C 0.32905 0.0363 0.46312 0.0
C419 C 0.28792 0.01718 0.46858 0.0
C420 C 0.27761 0.99791 0.48476 0.0
C421 C 0.30768 0.99693 0.49512 0.0
C422 C 0.25564 0.01719 0.45742 0.0
C423 C 0.23053 0.03155 0.46435 0.0
C424 C 0.25011 0.00402 0.43996 0.0
C425 C 0.27335 0.98561 0.43219 0.0
C426 C 0.27278 0.95141 0.43987 0.0
C427 C 0.29489 0.93432 0.43253 0.0
C428 C 0.31745 0.95096 0.41744 0.0
C429 C 0.31785 0.98467 0.40963 0.0
C430 C 0.29583 0.00192 0.41692 0.0
H431 H 0.33454 0.93767 0.41178 0.0
H432 H 0.10957 0.09215 0.48287 0.0
H433 H 0.11913 0.05386 0.74449 0.0
H434 H 0.17076 0.10787 0.76298 0.0
H435 H 0.1174 0.18422 0.75249 0.0
H436 H 0.06606 0.13046 0.73357 0.0
H437 H 0.19905 0.22831 0.75103 0.0
H438 H 0.10122 0.13339 0.79122 0.0
H439 H 0.05682 0.06565 0.80447 0.0
H440 H 0.16313 0.05574 0.81691 0.0
H441 H 0.20815 0.1232 0.80352 0.0
H442 H 0.3087 0.37217 0.81805 0.0
H443 H 0.25372 0.31946 0.8002 0.0
H444 H 0.30413 0.23944 0.80762 0.0
H445 H 0.35843 0.29147 0.82601 0.0
H446 H 0.22176 0.19819 0.8111 0.0
H447 H 0.31916 0.29261 0.77 0.0
H448 H 0.3631 0.36053 0.75679 0.0
H449 H 0.2566 0.37162 0.74632 0.0
H450 H 0.21207 0.30398 0.75968 0.0
C451 C 0.11833 0.08213 0.74613 0.0
C452 C 0.08844 0.08789 0.73765 0.0
C453 C 0.14776 0.11291 0.75677 0.0
C454 C 0.14756 0.14985 0.75936 0.0
C455 C 0.11804 0.1559 0.75074 0.0
C456 C 0.08869 0.12516 0.73997 0.0
C457 C 0.17855 0.18226 0.77091 0.0
C458 C 0.20357 0.22189 0.76425 0.0
C459 C 0.185 0.1737 0.78807 0.0
C460 C 0.15803 0.13321 0.79623 0.0
C461 C 0.11511 0.11664 0.79667 0.0
C462 C 0.08984 0.07831 0.80422 0.0
C463 C 0.10714 0.05636 0.81149 0.0
C464 C 0.14977 0.07276 0.81126 0.0
C465 C 0.17518 0.11107 0.80371 0.0
C466 C 0.30787 0.34319 0.81604 0.0
C467 C 0.33802 0.33606 0.82344 0.0
C468 C 0.27664 0.31325 0.80569 0.0
C469 C 0.27511 0.27571 0.8024 0.0
C470 C 0.30483 0.26827 0.80993 0.0
C471 C 0.33604 0.29817 0.82031 0.0
C472 C 0.24245 0.24408 0.79117 0.0
C473 C 0.2171 0.20461 0.79789 0.0
C474 C 0.23561 0.25284 0.7741 0.0
C475 C 0.26234 0.29342 0.76599 0.0
C476 C 0.30515 0.30968 0.765 0.0
C477 C 0.33015 0.3481 0.75746 0.0
C478 C 0.31267 0.37043 0.75076 0.0
C479 C 0.27011 0.35432 0.75154 0.0
C480 C 0.24497 0.31593 0.75907 0.0
H481 H 0.33208 0.40017 0.74494 0.0
H482 H 0.08752 0.02669 0.81733 0.0
H483 H 0.89479 0.94187 0.662 0.0
H484 H 0.84319 0.9444 0.64356 0.0
H485 H 0.87547 0.06328 0.66475 0.0
H486 H 0.92712 0.06081 0.68338 0.0
H487 H 0.79261 0.01258 0.66324 0.0
H488 H 0.90627 0.05626 0.62485 0.0
H489 H 0.9622 0.05264 0.60977 0.0
H490 H 0.87409 0.9387 0.58585 0.0
H491 H 0.81764 0.94131 0.60099 0.0
H492 H 0.68574 0.06133 0.59992 0.0
H493 H 0.74033 0.06263 0.61779 0.0
H494 H 0.70623 0.94052 0.60013 0.0
H495 H 0.65165 0.93912 0.58214 0.0
H496 H 0.79124 0.99514 0.59964 0.0
H497 H 0.6779 0.95116 0.63882 0.0
H498 H 0.62233 0.95556 0.65383 0.0
H499 H 0.71081 0.07158 0.67612 0.0
H500 H 0.7669 0.06816 0.66102 0.0
C501 C 0.89101 0.96863 0.66271 0.0
C502 C 0.91506 0.00121 0.67411 0.0
C503 C 0.86162 0.97009 0.65211 0.0
C504 C 0.85578 0.00422 0.65265 0.0
C505 C 0.87956 0.0367 0.66411 0.0
C506 C 0.90911 0.03531 0.6747 0.0
C507 C 0.82425 0.00548 0.64148 0.0
C508 C 0.79269 0.00944 0.64931 0.0
C509 C 0.82388 0.00049 0.62334 0.0
C510 C 0.85775 0.99878 0.6142 0.0
C511 C 0.89884 0.03024 0.61649 0.0
C512 C 0.93063 0.0284 0.60791 0.0
C513 C 0.92171 0.9954 0.5969 0.0
C514 C 0.88096 0.96421 0.59441 0.0
C515 C 0.84904 0.96587 0.60298 0.0
C516 C 0.69006 0.03487 0.59978 0.0
C517 C 0.66443 9e-05 0.58967 0.0
C518 C 0.72105 0.03556 0.61006 0.0
C519 C 0.7271 0.00157 0.61035 0.0
C520 C 0.70197 0.96703 0.60009 0.0
C521 C 0.67068 0.96616 0.58993 0.0
C522 C 0.75961 0.00205 0.62142 0.0
C523 C 0.79132 0.99842 0.61357 0.0
C524 C 0.7602 0.00749 0.63953 0.0
C525 C 0.72655 0.00961 0.64863 0.0
C526 C 0.68548 0.9778 0.64679 0.0
C527 C 0.65389 0.98007 0.65534 0.0
C528 C 0.66302 0.01389 0.66588 0.0
C529 C 0.70378 0.04544 0.66793 0.0
C530 C 0.73549 0.04334 0.65938 0.0
H531 H 0.63852 0.01558 0.6725 0.0
H532 H 0.94638 0.99404 0.59026 0.0
H533 H 0.85745 0.91479 0.02048 0.0
H534 H 0.80495 0.86236 0.00155 0.0
H535 H 0.89966 0.87298 0.96691 0.0
H536 H 0.95233 0.92541 0.98578 0.0
H537 H 0.83244 0.86747 0.94952 0.0
H538 H 0.85991 0.79575 0.99377 0.0
H539 H 0.86844 0.77873 0.02366 0.0
H540 H 0.74258 0.74235 0.03452 0.0
H541 H 0.73346 0.75973 0.00474 0.0
H542 H 0.70907 0.68171 0.90312 0.0
H543 H 0.76311 0.73664 0.92041 0.0
H544 H 0.67379 0.72034 0.95918 0.0
H545 H 0.62007 0.66354 0.94254 0.0
H546 H 0.74026 0.72928 0.97408 0.0
H547 H 0.71397 0.80232 0.92896 0.0
H548 H 0.70698 0.81801 0.89865 0.0
H549 H 0.8323 0.8505 0.88895 0.0
H550 H 0.83992 0.83465 0.91918 0.0
C551 C 0.86705 0.90622 0.00875 0.0
C552 C 0.90897 0.924 0.00465 0.0
C553 C 0.83706 0.8762 0.99799 0.0
C554 C 0.84849 0.86352 0.98293 0.0
C555 C 0.89023 0.88232 0.97848 0.0
C556 C 0.92025 0.91214 0.9893 0.0
C557 C 0.817 0.82956 0.97219 0.0
C558 C 0.8125 0.83712 0.95481 0.0
C559 C 0.79084 0.79012 0.97917 0.0
C560 C 0.79613 0.77946 0.99708 0.0
C561 C 0.83414 0.78445 0.00257 0.0
C562 C 0.83908 0.77468 0.01949 0.0
C563 C 0.80611 0.75958 0.031 0.0
C564 C 0.76811 0.75411 0.0256 0.0
C565 C 0.76303 0.76389 0.0087 0.0
C566 C 0.70091 0.68941 0.91542 0.0
C567 C 0.66004 0.66811 0.92138 0.0
C568 C 0.73183 0.72129 0.92519 0.0
C569 C 0.72245 0.73317 0.94098 0.0
C570 C 0.68177 0.71191 0.947 0.0
C571 C 0.65095 0.67969 0.93735 0.0
C572 C 0.75502 0.76725 0.95142 0.0
C573 C 0.75994 0.75966 0.96876 0.0
C574 C 0.78169 0.80657 0.94435 0.0
C575 C 0.77741 0.81701 0.92629 0.0
C576 C 0.73999 0.81267 0.92034 0.0
C577 C 0.73592 0.82161 0.90318 0.0
C578 C 0.76915 0.83516 0.89187 0.0
C579 C 0.80659 0.83999 0.89772 0.0
C580 C 0.81082 0.83112 0.91488 0.0
H581 H 0.76591 0.84197 0.87858 0.0
H582 H 0.80999 0.75203 0.04409 0.0
H583 H 0.94377 0.86312 0.35312 0.0
H584 H 0.94011 0.80904 0.33413 0.0
H585 H 0.03892 0.90077 0.30333 0.0
H586 H 0.04265 0.95494 0.32219 0.0
H587 H 0.97635 0.84164 0.28333 0.0
H588 H 0.05919 0.8476 0.332 0.0
H589 H 0.0746 0.84681 0.36292 0.0
H590 H 0.9704 0.72509 0.36758 0.0
H591 H 0.95401 0.72539 0.33672 0.0
H592 H 0.03102 0.71226 0.23774 0.0
H593 H 0.03075 0.76566 0.25559 0.0
H594 H 0.94378 0.67309 0.29011 0.0
H595 H 0.94635 0.61972 0.27311 0.0
H596 H 0.99908 0.73282 0.30813 0.0
H597 H 0.91654 0.7259 0.25923 0.0
H598 H 0.90163 0.72641 0.22823 0.0
H599 H 0.00431 0.84909 0.22381 0.0
H600 H 0.02016 0.84913 0.25476 0.0
C601 C 0.96457 0.87174 0.34225 0.0
C602 C 0.99364 0.91321 0.33918 0.0
C603 C 0.96252 0.84085 0.33145 0.0
C604 C 0.9895 0.85091 0.31742 0.0
C605 C 0.01783 0.89237 0.31409 0.0
C606 C 0.02003 0.92324 0.32492 0.0
C607 C 0.98902 0.8182 0.30648 0.0
C608 C 0.98166 0.81801 0.28869 0.0
C609 C 0.99522 0.78701 0.31356 0.0
C610 C 0.00513 0.7867 0.3321 0.0
C611 C 0.03936 0.8208 0.33965 0.0
C612 C 0.04831 0.82041 0.35716 0.0
C613 C 0.02343 0.78596 0.36722 0.0
C614 C 0.98961 0.75178 0.35978 0.0
C615 C 0.98049 0.75203 0.34228 0.0
C616 C 0.01218 0.70317 0.24923 0.0
C617 C 0.98869 0.66148 0.25392 0.0
C618 C 0.01157 0.7338 0.2593 0.0
C619 C 0.98666 0.72343 0.27405 0.0
C620 C 0.96308 0.6819 0.27874 0.0
C621 C 0.96421 0.6513 0.26885 0.0
C622 C 0.98603 0.75585 0.28491 0.0
C623 C 0.99339 0.75616 0.30272 0.0
C624 C 0.97967 0.78703 0.27783 0.0
C625 C 0.96972 0.78738 0.25929 0.0
C626 C 0.93605 0.75291 0.25163 0.0
C627 C 0.92744 0.75311 0.23407 0.0
C628 C 0.95208 0.78771 0.22405 0.0
C629 C 0.98529 0.82228 0.23159 0.0
C630 C 0.99406 0.82224 0.24914 0.0
H631 H 0.94538 0.78776 0.21045 0.0
H632 H 0.03041 0.78572 0.38077 0.0
H633 H 0.08218 0.02635 0.65359 0.0
H634 H 0.13353 0.024 0.63489 0.0
H635 H 0.14282 0.94019 0.67012 0.0
H636 H 0.0912 0.94211 0.68883 0.0
H637 H 0.21928 0.00708 0.66032 0.0
H638 H 0.09366 0.90339 0.63367 0.0
H639 H 0.02494 0.87635 0.62052 0.0
H640 H 0.0767 0.96704 0.5805 0.0
H641 H 0.1457 0.99502 0.59356 0.0
H642 H 0.3412 0.95428 0.6092 0.0
H643 H 0.2856 0.95118 0.62656 0.0
H644 H 0.26257 0.01911 0.58754 0.0
H645 H 0.31668 0.02033 0.56961 0.0
H646 H 0.19234 0.96005 0.59928 0.0
H647 H 0.31634 0.06543 0.62522 0.0
H648 H 0.38566 0.09625 0.63817 0.0
H649 H 0.33835 0.00788 0.67918 0.0
H650 H 0.2688 0.97614 0.66634 0.0
C651 C 0.09499 0.00723 0.6573 0.0
C652 C 0.08269 0.98437 0.67265 0.0
C653 C 0.12421 0.00584 0.64659 0.0
C654 C 0.14179 0.98178 0.6511 0.0
C655 C 0.12955 0.9589 0.66642 0.0
C656 C 0.09999 0.95993 0.67705 0.0
C657 C 0.17381 0.98138 0.64007 0.0
C658 C 0.21331 0.99623 0.64705 0.0
C659 C 0.16621 0.96848 0.62262 0.0
C660 C 0.12479 0.95155 0.61469 0.0
C661 C 0.09035 0.9178 0.62215 0.0
C662 C 0.05135 0.90225 0.61469 0.0
C663 C 0.04644 0.92004 0.59971 0.0
C664 C 0.08054 0.95333 0.59212 0.0
C665 C 0.11961 0.96902 0.59953 0.0
C666 C 0.32395 0.96804 0.60415 0.0
C667 C 0.33361 0.98769 0.58799 0.0
C668 C 0.29246 0.96669 0.61421 0.0
C669 C 0.27034 0.98555 0.60851 0.0
C670 C 0.27936 0.00455 0.59227 0.0
C671 C 0.31063 0.00559 0.58211 0.0
C672 C 0.23799 0.98563 0.61953 0.0
C673 C 0.19842 0.97083 0.61256 0.0
C674 C 0.24566 0.99913 0.63695 0.0
C675 C 0.28744 0.01815 0.64472 0.0
C676 C 0.32077 0.05236 0.63693 0.0
C677 C 0.3601 0.07003 0.64426 0.0
C678 C 0.36643 0.05396 0.65946 0.0
C679 C 0.33341 0.02025 0.66739 0.0
C680 C 0.29403 0.00243 0.6601 0.0
H681 H 0.3969 0.0677 0.66512 0.0
H682 H 0.01622 0.90796 0.59396 0.0
H683 H 0.11619 0.04815 0.00035 0.0
H684 H 0.16998 0.09943 0.98175 0.0
H685 H 0.14234 0.19151 0.00037 0.0
H686 H 0.08716 0.13979 0.01815 0.0
H687 H 0.15138 0.20011 0.96827 0.0
H688 H 0.2316 0.18536 0.01283 0.0
H689 H 0.25519 0.14886 0.032 0.0
H690 H 0.29229 0.10567 0.98796 0.0
H691 H 0.26843 0.14149 0.96851 0.0
H692 H 0.34304 0.37728 0.94421 0.0
H693 H 0.29054 0.32252 0.96188 0.0
H694 H 0.28311 0.23178 0.92562 0.0
H695 H 0.33364 0.28629 0.90717 0.0
H696 H 0.29303 0.22185 0.96553 0.0
H697 H 0.21095 0.24038 0.9215 0.0
H698 H 0.19083 0.28261 0.9042 0.0
H699 H 0.16132 0.32544 0.95052 0.0
H700 H 0.18191 0.28392 0.96811 0.0
C701 C 0.12186 0.07942 0.0005 0.0
C702 C 0.09759 0.09008 0.01064 0.0
C703 C 0.15275 0.1088 0.98995 0.0
C704 C 0.16073 0.14964 0.98977 0.0
C705 C 0.13679 0.16028 1.00017 0.0
C706 C 0.10534 0.13074 0.01039 0.0
C707 C 0.19293 0.18107 0.97836 0.0
C708 C 0.18242 0.205 0.96789 0.0
C709 C 0.23346 0.18734 0.97755 0.0
C710 C 0.24782 0.16575 0.98921 0.0
C711 C 0.24449 0.16781 0.00723 0.0
C712 C 0.25797 0.1473 0.01815 0.0
C713 C 0.27512 0.12486 0.0112 0.0
C714 C 0.27894 0.123 0.99332 0.0
C715 C 0.26547 0.14343 0.98235 0.0
C716 C 0.32986 0.34583 0.93975 0.0
C717 C 0.34266 0.33648 0.92412 0.0
C718 C 0.30017 0.31456 0.95 0.0
C719 C 0.2832 0.2733 0.94502 0.0
C720 C 0.2962 0.26355 0.92969 0.0
C721 C 0.3253 0.29484 0.91922 0.0
C722 C 0.25117 0.24046 0.95574 0.0
C723 C 0.26182 0.2165 0.96601 0.0
C724 C 0.21107 0.23472 0.95668 0.0
C725 C 0.1984 0.25942 0.94612 0.0
C726 C 0.20057 0.25913 0.928 0.0
C727 C 0.18899 0.28286 0.91814 0.0
C728 C 0.17492 0.30679 0.92625 0.0
C729 C 0.17228 0.30694 0.94425 0.0
C730 C 0.18387 0.2833 0.95417 0.0
H731 H 0.16596 0.32514 0.9186 0.0
H732 H 0.28554 0.109 0.01968 0.0
H733 H 0.0731 0.14301 0.34653 0.0
H734 H 0.07479 0.19627 0.32782 0.0
H735 H 0.94958 0.11298 0.31189 0.0
H736 H 0.94806 0.05937 0.33025 0.0
H737 H 0.99472 0.15393 0.28487 0.0
H738 H 0.97281 0.18918 0.342 0.0
H739 H 0.98773 0.20506 0.37299 0.0
H740 H 0.1052 0.30935 0.36068 0.0
H741 H 0.0912 0.29375 0.32961 0.0
H742 H 0.94369 0.29897 0.25163 0.0
H743 H 0.94682 0.24628 0.26902 0.0
H744 H 0.07466 0.33082 0.28053 0.0
H745 H 0.07154 0.38397 0.26341 0.0
H746 H 0.03061 0.29027 0.30932 0.0
H747 H 0.05011 0.25573 0.25175 0.0
H748 H 0.03286 0.24026 0.22089 0.0
H749 H 0.9174 0.13445 0.23419 0.0
H750 H 0.93369 0.14963 0.26517 0.0
C751 C 0.04599 0.13606 0.339 0.0
C752 C 0.01039 0.09712 0.3399 0.0
C753 C 0.04693 0.16654 0.32837 0.0
C754 C 0.01211 0.15878 0.31862 0.0
C755 C 0.97678 0.11967 0.3193 0.0
C756 C 0.97592 0.08911 0.32984 0.0
C757 C 0.01225 0.19153 0.30787 0.0
C758 C 0.00214 0.18358 0.29026 0.0
C759 C 0.0227 0.23052 0.31481 0.0
C760 C 0.03113 0.24004 0.33349 0.0
C761 C 0.00196 0.21531 0.34591 0.0
C762 C 0.01022 0.22429 0.36349 0.0
C763 C 0.04744 0.25813 0.36881 0.0
C764 C 0.07641 0.28312 0.35655 0.0
C765 C 0.06832 0.27424 0.33895 0.0
C766 C 0.9724 0.3064 0.25795 0.0
C767 C 0.00739 0.34558 0.25615 0.0
C768 C 0.97423 0.27618 0.26775 0.0
C769 C 0.01108 0.28456 0.27592 0.0
C770 C 0.04598 0.32373 0.27427 0.0
C771 C 0.04422 0.35392 0.2644 0.0
C772 C 0.01298 0.25259 0.2864 0.0
C773 C 0.02341 0.26068 0.30393 0.0
C774 C 0.00258 0.21368 0.27941 0.0
C775 C 0.99298 0.20404 0.26079 0.0
C776 C 0.02092 0.22931 0.2481 0.0
C777 C 0.01133 0.22058 0.23059 0.0
C778 C 0.97402 0.18646 0.22558 0.0
C779 C 0.94628 0.1609 0.23809 0.0
C780 C 0.9557 0.16953 0.25563 0.0
H781 H 0.96664 0.17981 0.21202 0.0
H782 H 0.05378 0.26503 0.38242 0.0
loop_
_geom_bond_atom_site_label_1
_geom_bond_atom_site_label_2
_geom_bond_distance
_geom_bond_site_symmetry_2
_ccdc_geom_bond_type
In0 O1 2.294 1_455 S
In0 O2 2.326 . S
In0 O6 2.266 1_445 S
In0 O7 2.326 1_445 S
In0 O8 2.266 1_545 S
In0 O9 2.326 1_445 S
In0 O11 2.294 . S
In0 O12 2.326 . S
O1 In0 2.294 1_655 S
O1 C10 1.240 1_655 S
O2 In0 2.326 . S
O2 C10 1.252 . S
C3 O6 1.252 . S
C3 O7 1.260 . S
C4 O11 1.240 . S
C4 O12 1.252 . S
C5 O8 1.246 1_655 S
C5 O9 1.270 . S
O6 In0 2.266 1_665 S
O6 C3 1.252 . S
O7 In0 2.326 1_665 S
O7 C3 1.260 . S
O8 In0 2.266 1_565 S
O8 C5 1.246 1_455 S
O9 In0 2.326 1_665 S
O9 C5 1.270 . S
C10 O1 1.240 1_455 S
C10 O2 1.252 . S
O11 In0 2.294 . S
O11 C4 1.240 . S
O12 In0 2.326 . S
O12 C4 1.252 . S
In13 O14 2.292 . S
In13 O15 2.307 1_455 S
In13 O19 2.290 . S
In13 O20 2.342 1_545 S
In13 O21 2.269 1_445 S
In13 O22 2.345 1_545 S
In13 O24 2.271 1_445 S
In13 O25 2.310 1_455 S
O14 In13 2.292 . S
O14 C23 1.240 1_455 S
O15 In13 2.307 1_655 S
O15 C23 1.252 . S
C16 O19 1.234 1_565 S
C16 O20 1.268 . S
C17 O24 1.240 1_545 S
C17 O25 1.252 . S
C18 O21 1.252 1_455 S
C18 O22 1.260 . S
O19 In13 2.290 . S
O19 C16 1.234 1_545 S
O20 In13 2.342 1_565 S
O20 C16 1.268 . S
O21 In13 2.269 1_665 S
O21 C18 1.252 1_655 S
O22 In13 2.345 1_565 S
O22 C18 1.260 . S
C23 O14 1.240 1_655 S
C23 O15 1.252 . S
O24 In13 2.271 1_665 S
O24 C17 1.240 1_565 S
O25 In13 2.310 1_655 S
O25 C17 1.252 . S
In26 O27 2.280 1_445 S
In26 O28 2.328 1_445 S
In26 O32 2.252 1_545 S
In26 O33 2.328 . S
In26 O34 2.280 . S
In26 O35 2.323 . S
In26 O37 2.308 1_455 S
In26 O38 2.324 1_445 S
O27 In26 2.280 1_665 S
O27 C36 1.240 . S
O28 In26 2.328 1_665 S
O28 C36 1.252 . S
C29 O32 1.252 1_545 S
C29 O33 1.260 . S
C30 O37 1.240 1_565 S
C30 O38 1.252 . S
C31 O34 1.252 . S
C31 O35 1.260 . S
O32 In26 2.252 1_565 S
O32 C29 1.252 1_565 S
O33 In26 2.328 . S
O33 C29 1.260 . S
O34 In26 2.280 . S
O34 C31 1.252 . S
O35 In26 2.323 . S
O35 C31 1.260 . S
C36 O27 1.240 . S
C36 O28 1.252 . S
O37 In26 2.308 1_655 S
O37 C30 1.240 1_545 S
O38 In26 2.324 1_665 S
O38 C30 1.252 . S
H39 C58 0.949 . S
H40 C59 0.950 . S
H41 C61 0.950 . S
H42 C62 0.950 . S
H43 C64 0.950 . S
H44 C67 0.950 . S
H45 C68 0.950 . S
H46 C70 0.951 . S
H47 C71 0.949 . S
H48 C73 0.949 . S
H49 C74 0.950 . S
H50 C76 0.950 . S
H51 C77 0.950 . S
H52 C79 0.950 . S
H53 C82 0.950 . S
H54 C83 0.950 . S
H55 C85 0.951 . S
H56 C86 0.949 . S
C57 C58 1.376 . S
C57 C62 1.386 1_455 S
C57 C63 1.483 . S
C58 H39 0.949 . S
C58 C57 1.376 . S
C58 C59 1.397 . S
C59 H40 0.950 . S
C59 C58 1.397 . S
C59 C60 1.391 . S
C60 C59 1.391 . S
C60 C61 1.405 1_455 S
C61 H41 0.950 . S
C61 C60 1.405 1_655 S
C61 C62 1.367 . S
C62 H42 0.950 . S
C62 C57 1.386 1_655 S
C62 C61 1.367 . S
C63 C57 1.483 . S
C63 C64 1.382 . S
C63 C65 1.403 1_455 S
C64 H43 0.950 . S
C64 C63 1.382 . S
C64 C80 1.411 . S
C65 C63 1.403 1_655 S
C65 C66 1.489 . S
C65 C79 1.411 . S
C66 C65 1.489 . S
C66 C67 1.383 1_655 S
C66 C71 1.382 . S
C67 H44 0.950 . S
C67 C66 1.383 1_455 S
C67 C68 1.395 . S
C68 H45 0.950 . S
C68 C67 1.395 . S
C68 C69 1.288 1_455 S
C69 C68 1.288 1_655 S
C69 C70 1.392 . S
C70 H46 0.951 . S
C70 C69 1.392 . S
C70 C71 1.392 . S
C71 H47 0.949 . S
C71 C66 1.382 . S
C71 C70 1.392 . S
C72 C73 1.376 . S
C72 C77 1.386 1_655 S
C72 C78 1.494 . S
C73 H48 0.949 . S
C73 C72 1.376 . S
C73 C74 1.397 . S
C74 H49 0.950 . S
C74 C73 1.397 . S
C74 C75 1.384 1_655 S
C75 C74 1.384 1_455 S
C75 C76 1.419 . S
C76 H50 0.950 . S
C76 C75 1.419 . S
C76 C77 1.367 . S
C77 H51 0.950 . S
C77 C72 1.386 1_455 S
C77 C76 1.367 . S
C78 C72 1.494 . S
C78 C79 1.373 . S
C78 C80 1.399 1_655 S
C79 H52 0.950 . S
C79 C65 1.411 . S
C79 C78 1.373 . S
C80 C64 1.411 . S
C80 C78 1.399 1_455 S
C80 C81 1.489 . S
C81 C80 1.489 . S
C81 C82 1.383 1_455 S
C81 C86 1.382 . S
C82 H53 0.950 . S
C82 C81 1.383 1_655 S
C82 C83 1.395 . S
C83 H54 0.950 . S
C83 C82 1.395 . S
C83 C84 1.288 1_655 S
C84 C83 1.288 1_455 S
C84 C85 1.392 . S
C85 H55 0.951 . S
C85 C84 1.392 . S
C85 C86 1.392 . S
C86 H56 0.949 . S
C86 C81 1.382 . S
C86 C85 1.392 . S
H87 C106 0.949 . S
H88 C107 0.950 . S
H89 C109 0.950 . S
H90 C110 0.950 . S
H91 C112 0.950 . S
H92 C115 0.950 . S
H93 C116 0.950 . S
H94 C118 0.951 . S
H95 C119 0.949 . S
H96 C121 0.949 . S
H97 C122 0.950 . S
H98 C124 0.950 . S
H99 C125 0.950 . S
H100 C127 0.950 . S
H101 C130 0.950 . S
H102 C131 0.950 . S
H103 C133 0.951 . S
H104 C134 0.949 . S
C105 C106 1.376 . S
C105 C110 1.386 1_545 S
C105 C111 1.483 . S
C106 H87 0.949 . S
C106 C105 1.376 . S
C106 C107 1.397 . S
C107 H88 0.950 . S
C107 C106 1.397 . S
C107 C108 1.391 . S
C108 C107 1.391 . S
C108 C109 1.405 1_545 S
C109 H89 0.950 . S
C109 C108 1.405 1_565 S
C109 C110 1.367 . S
C110 H90 0.950 . S
C110 C105 1.386 1_565 S
C110 C109 1.367 . S
C111 C105 1.483 . S
C111 C112 1.382 . S
C111 C113 1.403 1_545 S
C112 H91 0.950 . S
C112 C111 1.382 . S
C112 C128 1.411 . S
C113 C111 1.403 1_565 S
C113 C114 1.489 . S
C113 C127 1.411 . S
C114 C113 1.489 . S
C114 C115 1.383 1_565 S
C114 C119 1.382 . S
C115 H92 0.950 . S
C115 C114 1.383 1_545 S
C115 C116 1.395 . S
C116 H93 0.950 . S
C116 C115 1.395 . S
C116 C117 1.288 1_545 S
C117 C116 1.288 1_565 S
C117 C118 1.392 . S
C118 H94 0.951 . S
C118 C117 1.392 . S
C118 C119 1.392 . S
C119 H95 0.949 . S
C119 C114 1.382 . S
C119 C118 1.392 . S
C120 C121 1.376 . S
C120 C125 1.386 1_565 S
C120 C126 1.470 . S
C121 H96 0.949 . S
C121 C120 1.376 . S
C121 C122 1.397 . S
C122 H97 0.950 . S
C122 C121 1.397 . S
C122 C123 1.379 1_565 S
C123 C122 1.379 1_545 S
C123 C124 1.412 . S
C124 H98 0.950 . S
C124 C123 1.412 . S
C124 C125 1.367 . S
C125 H99 0.950 . S
C125 C120 1.386 1_545 S
C125 C124 1.367 . S
C126 C120 1.470 . S
C126 C127 1.398 . S
C126 C128 1.399 1_565 S
C127 H100 0.950 . S
C127 C113 1.411 . S
C127 C126 1.398 . S
C128 C112 1.411 . S
C128 C126 1.399 1_545 S
C128 C129 1.489 . S
C129 C128 1.489 . S
C129 C130 1.383 1_545 S
C129 C134 1.382 . S
C130 H101 0.950 . S
C130 C129 1.383 1_565 S
C130 C131 1.395 . S
C131 H102 0.950 . S
C131 C130 1.395 . S
C131 C132 1.288 1_565 S
C132 C131 1.288 1_545 S
C132 C133 1.392 . S
C133 H103 0.951 . S
C133 C132 1.392 . S
C133 C134 1.392 . S
C134 H104 0.949 . S
C134 C129 1.382 . S
C134 C133 1.392 . S
H135 C154 0.949 . S
H136 C155 0.950 . S
H137 C157 0.950 . S
H138 C158 0.950 . S
H139 C160 0.950 . S
H140 C163 0.950 . S
H141 C164 0.950 . S
H142 C166 0.951 . S
H143 C167 0.949 . S
H144 C169 0.949 . S
H145 C170 0.950 . S
H146 C172 0.950 . S
H147 C173 0.950 . S
H148 C175 0.950 . S
H149 C178 0.950 . S
H150 C179 0.950 . S
H151 C181 0.951 . S
H152 C182 0.949 . S
C153 C154 1.376 . S
C153 C158 1.386 . S
C153 C159 1.483 . S
C154 H135 0.949 . S
C154 C153 1.376 . S
C154 C155 1.397 . S
C155 H136 0.950 . S
C155 C154 1.397 . S
C155 C156 1.391 . S
C156 C155 1.391 . S
C156 C157 1.405 . S
C157 H137 0.950 . S
C157 C156 1.405 . S
C157 C158 1.367 . S
C158 H138 0.950 . S
C158 C153 1.386 . S
C158 C157 1.367 . S
C159 C153 1.483 . S
C159 C160 1.382 . S
C159 C161 1.403 . S
C160 H139 0.950 . S
C160 C159 1.382 . S
C160 C176 1.411 . S
C161 C159 1.403 . S
C161 C162 1.489 . S
C161 C175 1.411 . S
C162 C161 1.489 . S
C162 C163 1.383 . S
C162 C167 1.382 . S
C163 H140 0.950 . S
C163 C162 1.383 . S
C163 C164 1.395 . S
C164 H141 0.950 . S
C164 C163 1.395 . S
C164 C165 1.288 . S
C165 C164 1.288 . S
C165 C166 1.392 . S
C166 H142 0.951 . S
C166 C165 1.392 . S
C166 C167 1.392 . S
C167 H143 0.949 . S
C167 C162 1.382 . S
C167 C166 1.392 . S
C168 C169 1.376 . S
C168 C173 1.386 . S
C168 C174 1.483 . S
C169 H144 0.949 . S
C169 C168 1.376 . S
C169 C170 1.397 . S
C170 H145 0.950 . S
C170 C169 1.397 . S
C170 C171 1.391 . S
C171 C170 1.391 . S
C171 C172 1.405 . S
C172 H146 0.950 . S
C172 C171 1.405 . S
C172 C173 1.367 . S
C173 H147 0.950 . S
C173 C168 1.386 . S
C173 C172 1.367 . S
C174 C168 1.483 . S
C174 C175 1.382 . S
C174 C176 1.403 . S
C175 H148 0.950 . S
C175 C161 1.411 . S
C175 C174 1.382 . S
C176 C160 1.411 . S
C176 C174 1.403 . S
C176 C177 1.489 . S
C177 C176 1.489 . S
C177 C178 1.383 . S
C177 C182 1.382 . S
C178 H149 0.950 . S
C178 C177 1.383 . S
C178 C179 1.395 . S
C179 H150 0.950 . S
C179 C178 1.395 . S
C179 C180 1.288 . S
C180 C179 1.288 . S
C180 C181 1.392 . S
C181 H151 0.951 . S
C181 C180 1.392 . S
C181 C182 1.392 . S
C182 H152 0.949 . S
C182 C177 1.382 . S
C182 C181 1.392 . S
H183 C201 0.951 1_655 S
H184 C203 0.951 1_655 S
H185 C205 0.950 . S
H186 C206 0.950 . S
H187 C208 0.950 . S
H188 C211 0.950 . S
H189 C212 0.950 . S
H190 C214 0.950 . S
H191 C215 0.950 . S
H192 C216 0.951 . S
H193 C218 0.951 . S
H194 C220 0.950 . S
H195 C221 0.950 . S
H196 C223 0.950 . S
H197 C226 0.950 . S
H198 C227 0.950 . S
H199 C229 0.950 . S
H200 C230 0.950 . S
C201 H183 0.951 1_455 S
C201 C202 1.366 . S
C201 C203 1.388 . S
C202 C201 1.366 . S
C202 C206 1.385 . S
C203 H184 0.951 1_455 S
C203 C201 1.388 . S
C203 C204 1.366 . S
C204 C203 1.366 . S
C204 C205 1.414 . S
C204 C207 1.499 . S
C205 H185 0.950 . S
C205 C204 1.414 . S
C205 C206 1.374 . S
C206 H186 0.950 . S
C206 C202 1.385 . S
C206 C205 1.374 . S
C207 C204 1.499 . S
C207 C208 1.373 1_455 S
C207 C209 1.389 . S
C208 H187 0.950 . S
C208 C207 1.373 1_655 S
C208 C224 1.377 . S
C209 C207 1.389 . S
C209 C210 1.524 . S
C209 C223 1.377 . S
C210 C209 1.524 . S
C210 C211 1.397 . S
C210 C215 1.363 . S
C211 H188 0.950 . S
C211 C210 1.397 . S
C211 C212 1.334 . S
C212 H189 0.950 . S
C212 C211 1.334 . S
C212 C213 1.287 . S
C213 C212 1.287 . S
C213 C214 1.524 . S
C213 H232 0.913 . S
C214 H190 0.950 . S
C214 C213 1.524 . S
C214 C215 1.415 . S
C215 H191 0.950 . S
C215 C210 1.363 . S
C215 C214 1.415 . S
C216 H192 0.951 . S
C216 C217 1.366 . S
C216 C218 1.388 . S
C217 C216 1.366 . S
C217 C221 1.385 1_455 S
C218 H193 0.951 . S
C218 C216 1.388 . S
C218 C219 1.366 . S
C219 C218 1.366 . S
C219 C220 1.414 1_455 S
C219 C222 1.499 . S
C220 H194 0.950 . S
C220 C219 1.414 1_655 S
C220 C221 1.374 . S
C221 H195 0.950 . S
C221 C217 1.385 1_655 S
C221 C220 1.374 . S
C222 C219 1.499 . S
C222 C223 1.373 . S
C222 C224 1.389 1_455 S
C223 H196 0.950 . S
C223 C209 1.377 . S
C223 C222 1.373 . S
C224 C208 1.377 . S
C224 C222 1.389 1_655 S
C224 C225 1.524 . S
C225 C224 1.524 . S
C225 C226 1.397 . S
C225 C230 1.363 . S
C226 H197 0.950 . S
C226 C225 1.397 . S
C226 C227 1.334 . S
C227 H198 0.950 . S
C227 C226 1.334 . S
C227 C228 1.287 . S
C228 C227 1.287 . S
C228 C229 1.524 . S
C228 H231 0.999 . S
C229 H199 0.950 . S
C229 C228 1.524 . S
C229 C230 1.415 . S
C230 H200 0.950 . S
C230 C225 1.363 . S
C230 C229 1.415 . S
H231 C228 0.999 . S
H232 C213 0.913 . S
H233 C251 0.951 . S
H234 C253 0.951 . S
H235 C255 0.950 . S
H236 C256 0.950 . S
H237 C258 0.950 1_565 S
H238 C261 0.950 . S
H239 C262 0.950 . S
H240 C264 0.950 1_565 S
H241 C265 0.950 1_565 S
H242 C266 0.951 . S
H243 C268 0.951 . S
H244 C270 0.950 . S
H245 C271 0.950 . S
H246 C273 0.950 . S
H247 C276 0.950 . S
H248 C277 0.950 . S
H249 C279 0.950 1_545 S
H250 C280 0.950 . S
C251 H233 0.951 . S
C251 C252 1.366 1_565 S
C251 C253 1.388 . S
C252 C251 1.366 1_545 S
C252 C256 1.385 . S
C253 H234 0.951 . S
C253 C251 1.388 . S
C253 C254 1.366 1_565 S
C254 C253 1.366 1_545 S
C254 C255 1.414 . S
C254 C257 1.499 . S
C255 H235 0.950 . S
C255 C254 1.414 . S
C255 C256 1.374 . S
C256 H236 0.950 . S
C256 C252 1.385 . S
C256 C255 1.374 . S
C257 C254 1.499 . S
C257 C258 1.373 . S
C257 C259 1.389 . S
C258 H237 0.950 1_545 S
C258 C257 1.373 . S
C258 C274 1.377 1_545 S
C259 C257 1.389 . S
C259 C260 1.524 . S
C259 C273 1.377 . S
C260 C259 1.524 . S
C260 C261 1.397 . S
C260 C265 1.363 . S
C261 H238 0.950 . S
C261 C260 1.397 . S
C261 C262 1.334 . S
C262 H239 0.950 . S
C262 C261 1.334 . S
C262 C263 1.287 . S
C263 C262 1.287 . S
C263 C264 1.524 . S
C263 H282 0.913 . S
C264 H240 0.950 1_545 S
C264 C263 1.524 . S
C264 C265 1.415 . S
C265 H241 0.950 1_545 S
C265 C260 1.363 . S
C265 C264 1.415 . S
C266 H242 0.951 . S
C266 C267 1.366 . S
C266 C268 1.388 . S
C267 C266 1.366 . S
C267 C271 1.385 1_545 S
C268 H243 0.951 . S
C268 C266 1.388 . S
C268 C269 1.366 . S
C269 C268 1.366 . S
C269 C270 1.414 1_545 S
C269 C272 1.499 . S
C270 H244 0.950 . S
C270 C269 1.414 1_565 S
C270 C271 1.374 . S
C271 H245 0.950 . S
C271 C267 1.385 1_565 S
C271 C270 1.374 . S
C272 C269 1.499 . S
C272 C273 1.373 . S
C272 C274 1.389 1_545 S
C273 H246 0.950 . S
C273 C259 1.377 . S
C273 C272 1.373 . S
C274 C258 1.377 1_565 S
C274 C272 1.389 1_565 S
C274 C275 1.524 . S
C275 C274 1.524 . S
C275 C276 1.397 . S
C275 C280 1.363 1_565 S
C276 H247 0.950 . S
C276 C275 1.397 . S
C276 C277 1.334 . S
C277 H248 0.950 . S
C277 C276 1.334 . S
C277 C278 1.287 . S
C278 C277 1.287 . S
C278 C279 1.524 . S
C278 H281 0.999 . S
C279 H249 0.950 1_565 S
C279 C278 1.524 . S
C279 C280 1.415 1_565 S
C280 H250 0.950 . S
C280 C275 1.363 1_545 S
C280 C279 1.415 1_545 S
H281 C278 0.999 . S
H282 C263 0.913 . S
H283 C301 0.951 . S
H284 C303 0.951 . S
H285 C305 0.950 . S
H286 C306 0.950 . S
H287 C308 0.950 . S
H288 C311 0.950 . S
H289 C312 0.950 . S
H290 C314 0.950 . S
H291 C315 0.950 . S
H292 C316 0.951 . S
H293 C318 0.951 . S
H294 C320 0.950 . S
H295 C321 0.950 . S
H296 C323 0.950 . S
H297 C326 0.950 . S
H298 C327 0.950 . S
H299 C329 0.950 . S
H300 C330 0.950 . S
C301 H283 0.951 . S
C301 C302 1.366 . S
C301 C303 1.388 . S
C302 C301 1.366 . S
C302 C306 1.385 . S
C303 H284 0.951 . S
C303 C301 1.388 . S
C303 C304 1.366 . S
C304 C303 1.366 . S
C304 C305 1.414 . S
C304 C307 1.499 . S
C305 H285 0.950 . S
C305 C304 1.414 . S
C305 C306 1.374 . S
C306 H286 0.950 . S
C306 C302 1.385 . S
C306 C305 1.374 . S
C307 C304 1.499 . S
C307 C308 1.373 . S
C307 C309 1.389 . S
C308 H287 0.950 . S
C308 C307 1.373 . S
C308 C324 1.377 . S
C309 C307 1.389 . S
C309 C310 1.524 . S
C309 C323 1.377 . S
C310 C309 1.524 . S
C310 C311 1.397 . S
C310 C315 1.363 . S
C311 H288 0.950 . S
C311 C310 1.397 . S
C311 C312 1.334 . S
C312 H289 0.950 . S
C312 C311 1.334 . S
C312 C313 1.287 . S
C313 C312 1.287 . S
C313 C314 1.524 . S
C313 H332 0.913 . S
C314 H290 0.950 . S
C314 C313 1.524 . S
C314 C315 1.415 . S
C315 H291 0.950 . S
C315 C310 1.363 . S
C315 C314 1.415 . S
C316 H292 0.951 . S
C316 C317 1.366 . S
C316 C318 1.388 . S
C317 C316 1.366 . S
C317 C321 1.385 . S
C318 H293 0.951 . S
C318 C316 1.388 . S
C318 C319 1.366 . S
C319 C318 1.366 . S
C319 C320 1.414 . S
C319 C322 1.499 . S
C320 H294 0.950 . S
C320 C319 1.414 . S
C320 C321 1.374 . S
C321 H295 0.950 . S
C321 C317 1.385 . S
C321 C320 1.374 . S
C322 C319 1.499 . S
C322 C323 1.373 . S
C322 C324 1.389 . S
C323 H296 0.950 . S
C323 C309 1.377 . S
C323 C322 1.373 . S
C324 C308 1.377 . S
C324 C322 1.389 . S
C324 C325 1.524 . S
C325 C324 1.524 . S
C325 C326 1.397 . S
C325 C330 1.363 . S
C326 H297 0.950 . S
C326 C325 1.397 . S
C326 C327 1.334 . S
C327 H298 0.950 . S
C327 C326 1.334 . S
C327 C328 1.287 . S
C328 C327 1.287 . S
C328 C329 1.524 . S
C328 H331 0.999 . S
C329 H299 0.950 . S
C329 C328 1.524 . S
C329 C330 1.415 . S
C330 H300 0.950 . S
C330 C325 1.363 . S
C330 C329 1.415 . S
H331 C328 0.999 . S
H332 C313 0.913 . S
H333 C351 0.951 . S
H334 C353 0.951 . S
H335 C355 0.950 . S
H336 C356 0.950 . S
H337 C358 0.950 . S
H338 C361 0.950 . S
H339 C362 0.950 . S
H340 C364 0.950 . S
H341 C365 0.950 . S
H342 C366 0.951 . S
H343 C368 0.951 . S
H344 C370 0.950 . S
H345 C371 0.950 . S
H346 C373 0.950 . S
H347 C376 0.950 . S
H348 C377 0.950 . S
H349 C379 0.950 . S
H350 C380 0.950 . S
C351 H333 0.951 . S
C351 C352 1.368 1_455 S
C351 C353 1.388 . S
C352 C351 1.368 1_655 S
C352 C356 1.384 . S
C353 H334 0.951 . S
C353 C351 1.388 . S
C353 C354 1.366 1_455 S
C354 C353 1.366 1_655 S
C354 C355 1.414 . S
C354 C357 1.499 . S
C355 H335 0.950 . S
C355 C354 1.414 . S
C355 C356 1.374 . S
C356 H336 0.950 . S
C356 C352 1.384 . S
C356 C355 1.374 . S
C357 C354 1.499 . S
C357 C358 1.373 1_655 S
C357 C359 1.389 . S
C358 H337 0.950 . S
C358 C357 1.373 1_455 S
C358 C374 1.377 . S
C359 C357 1.389 . S
C359 C360 1.524 . S
C359 C373 1.377 . S
C360 C359 1.524 . S
C360 C361 1.397 . S
C360 C365 1.363 . S
C361 H338 0.950 . S
C361 C360 1.397 . S
C361 C362 1.334 . S
C362 H339 0.950 . S
C362 C361 1.334 . S
C362 C363 1.287 . S
C363 C362 1.287 . S
C363 C364 1.524 . S
C363 H382 0.913 . S
C364 H340 0.950 . S
C364 C363 1.524 . S
C364 C365 1.415 . S
C365 H341 0.950 . S
C365 C360 1.363 . S
C365 C364 1.415 . S
C366 H342 0.951 . S
C366 C367 1.366 1_655 S
C366 C368 1.388 . S
C367 C366 1.366 1_455 S
C367 C371 1.385 . S
C368 H343 0.951 . S
C368 C366 1.388 . S
C368 C369 1.366 1_655 S
C369 C368 1.366 1_455 S
C369 C370 1.414 . S
C369 C372 1.499 . S
C370 H344 0.950 . S
C370 C369 1.414 . S
C370 C371 1.374 . S
C371 H345 0.950 . S
C371 C367 1.385 . S
C371 C370 1.374 . S
C372 C369 1.499 . S
C372 C373 1.373 1_455 S
C372 C374 1.389 . S
C373 H346 0.950 . S
C373 C359 1.377 . S
C373 C372 1.373 1_655 S
C374 C358 1.377 . S
C374 C372 1.389 . S
C374 C375 1.524 . S
C375 C374 1.524 . S
C375 C376 1.397 . S
C375 C380 1.363 . S
C376 H347 0.950 . S
C376 C375 1.397 . S
C376 C377 1.334 . S
C377 H348 0.950 . S
C377 C376 1.334 . S
C377 C378 1.287 . S
C378 C377 1.287 . S
C378 C379 1.524 . S
C378 H381 0.999 . S
C379 H349 0.950 . S
C379 C378 1.524 . S
C379 C380 1.415 . S
C380 H350 0.950 . S
C380 C375 1.363 . S
C380 C379 1.415 . S
H381 C378 0.999 . S
H382 C363 0.913 . S
H383 C401 0.951 . S
H384 C403 0.951 . S
H385 C405 0.950 . S
H386 C406 0.950 . S
H387 C408 0.950 . S
H388 C411 0.950 . S
H389 C412 0.950 . S
H390 C414 0.950 . S
H391 C415 0.950 . S
H392 C416 0.951 . S
H393 C418 0.951 . S
H394 C420 0.950 . S
H395 C421 0.950 . S
H396 C423 0.950 . S
H397 C426 0.950 . S
H398 C427 0.950 . S
H399 C429 0.950 . S
H400 C430 0.950 . S
C401 H383 0.951 . S
C401 C402 1.370 . S
C401 C403 1.388 . S
C402 C401 1.370 . S
C402 C406 1.386 1_565 S
C403 H384 0.951 . S
C403 C401 1.388 . S
C403 C404 1.366 1_565 S
C404 C403 1.366 1_545 S
C404 C405 1.414 . S
C404 C407 1.499 . S
C405 H385 0.950 . S
C405 C404 1.414 . S
C405 C406 1.374 . S
C406 H386 0.950 . S
C406 C402 1.386 1_545 S
C406 C405 1.374 . S
C407 C404 1.499 . S
C407 C408 1.373 1_545 S
C407 C409 1.389 . S
C408 H387 0.950 . S
C408 C407 1.373 1_565 S
C408 C424 1.377 . S
C409 C407 1.389 . S
C409 C410 1.524 . S
C409 C423 1.377 . S
C410 C409 1.524 . S
C410 C411 1.397 . S
C410 C415 1.363 . S
C411 H388 0.950 . S
C411 C410 1.397 . S
C411 C412 1.334 . S
C412 H389 0.950 . S
C412 C411 1.334 . S
C412 C413 1.287 . S
C413 C412 1.287 . S
C413 C414 1.524 . S
C413 H432 0.913 . S
C414 H390 0.950 . S
C414 C413 1.524 . S
C414 C415 1.415 . S
C415 H391 0.950 . S
C415 C410 1.363 . S
C415 C414 1.415 . S
C416 H392 0.951 . S
C416 C417 1.366 . S
C416 C418 1.388 . S
C417 C416 1.366 . S
C417 C421 1.385 1_545 S
C418 H393 0.951 . S
C418 C416 1.388 . S
C418 C419 1.367 1_545 S
C419 C418 1.367 1_565 S
C419 C420 1.417 . S
C419 C422 1.494 . S
C420 H394 0.950 . S
C420 C419 1.417 . S
C420 C421 1.374 . S
C421 H395 0.950 . S
C421 C417 1.385 1_565 S
C421 C420 1.374 . S
C422 C419 1.494 . S
C422 C423 1.373 1_565 S
C422 C424 1.389 . S
C423 H396 0.950 . S
C423 C409 1.377 . S
C423 C422 1.373 1_545 S
C424 C408 1.377 . S
C424 C422 1.389 . S
C424 C425 1.524 . S
C425 C424 1.524 . S
C425 C426 1.397 . S
C425 C430 1.363 . S
C426 H397 0.950 . S
C426 C425 1.397 . S
C426 C427 1.334 . S
C427 H398 0.950 . S
C427 C426 1.334 . S
C427 C428 1.287 . S
C428 C427 1.287 . S
C428 C429 1.524 . S
C428 H431 0.999 . S
C429 H399 0.950 . S
C429 C428 1.524 . S
C429 C430 1.415 . S
C430 H400 0.950 . S
C430 C425 1.363 . S
C430 C429 1.415 . S
H431 C428 0.999 . S
H432 C413 0.913 . S
H433 C451 0.951 . S
H434 C453 0.951 . S
H435 C455 0.950 . S
H436 C456 0.950 . S
H437 C458 0.950 . S
H438 C461 0.950 . S
H439 C462 0.950 . S
H440 C464 0.950 . S
H441 C465 0.950 . S
H442 C466 0.951 . S
H443 C468 0.951 . S
H444 C470 0.950 . S
H445 C471 0.950 . S
H446 C473 0.950 . S
H447 C476 0.950 . S
H448 C477 0.950 . S
H449 C479 0.950 . S
H450 C480 0.950 . S
C451 H433 0.951 . S
C451 C452 1.366 . S
C451 C453 1.388 . S
C452 C451 1.366 . S
C452 C456 1.385 . S
C453 H434 0.951 . S
C453 C451 1.388 . S
C453 C454 1.366 . S
C454 C453 1.366 . S
C454 C455 1.414 . S
C454 C457 1.499 . S
C455 H435 0.950 . S
C455 C454 1.414 . S
C455 C456 1.374 . S
C456 H436 0.950 . S
C456 C452 1.385 . S
C456 C455 1.374 . S
C457 C454 1.499 . S
C457 C458 1.373 . S
C457 C459 1.389 . S
C458 H437 0.950 . S
C458 C457 1.373 . S
C458 C474 1.377 . S
C459 C457 1.389 . S
C459 C460 1.524 . S
C459 C473 1.377 . S
C460 C459 1.524 . S
C460 C461 1.397 . S
C460 C465 1.363 . S
C461 H438 0.950 . S
C461 C460 1.397 . S
C461 C462 1.334 . S
C462 H439 0.950 . S
C462 C461 1.334 . S
C462 C463 1.287 . S
C463 C462 1.287 . S
C463 C464 1.524 . S
C463 H482 0.913 . S
C464 H440 0.950 . S
C464 C463 1.524 . S
C464 C465 1.415 . S
C465 H441 0.950 . S
C465 C460 1.363 . S
C465 C464 1.415 . S
C466 H442 0.951 . S
C466 C467 1.366 . S
C466 C468 1.388 . S
C467 C466 1.366 . S
C467 C471 1.385 . S
C468 H443 0.951 . S
C468 C466 1.388 . S
C468 C469 1.366 . S
C469 C468 1.366 . S
C469 C470 1.414 . S
C469 C472 1.499 . S
C470 H444 0.950 . S
C470 C469 1.414 . S
C470 C471 1.374 . S
C471 H445 0.950 . S
C471 C467 1.385 . S
C471 C470 1.374 . S
C472 C469 1.499 . S
C472 C473 1.373 . S
C472 C474 1.389 . S
C473 H446 0.950 . S
C473 C459 1.377 . S
C473 C472 1.373 . S
C474 C458 1.377 . S
C474 C472 1.389 . S
C474 C475 1.524 . S
C475 C474 1.524 . S
C475 C476 1.397 . S
C475 C480 1.363 . S
C476 H447 0.950 . S
C476 C475 1.397 . S
C476 C477 1.334 . S
C477 H448 0.950 . S
C477 C476 1.334 . S
C477 C478 1.287 . S
C478 C477 1.287 . S
C478 C479 1.524 . S
C478 H481 0.999 . S
C479 H449 0.950 . S
C479 C478 1.524 . S
C479 C480 1.415 . S
C480 H450 0.950 . S
C480 C475 1.363 . S
C480 C479 1.415 . S
H481 C478 0.999 . S
H482 C463 0.913 . S
H483 C501 0.951 . S
H484 C503 0.951 . S
H485 C505 0.950 . S
H486 C506 0.950 . S
H487 C508 0.950 . S
H488 C511 0.950 . S
H489 C512 0.950 . S
H490 C514 0.950 . S
H491 C515 0.950 1_565 S
H492 C516 0.951 . S
H493 C518 0.951 . S
H494 C520 0.950 . S
H495 C521 0.950 . S
H496 C523 0.950 . S
H497 C526 0.950 . S
H498 C527 0.950 . S
H499 C529 0.950 . S
H500 C530 0.950 1_545 S
C501 H483 0.951 . S
C501 C502 1.366 . S
C501 C503 1.388 . S
C502 C501 1.366 . S
C502 C506 1.385 1_565 S
C503 H484 0.951 . S
C503 C501 1.388 . S
C503 C504 1.358 1_565 S
C504 C503 1.358 1_545 S
C504 C505 1.417 . S
C504 C507 1.503 . S
C505 H485 0.950 . S
C505 C504 1.417 . S
C505 C506 1.374 . S
C506 H486 0.950 . S
C506 C502 1.385 1_545 S
C506 C505 1.374 . S
C507 C504 1.503 . S
C507 C508 1.373 1_545 S
C507 C509 1.389 . S
C508 H487 0.950 . S
C508 C507 1.373 1_565 S
C508 C524 1.377 . S
C509 C507 1.389 . S
C509 C510 1.524 . S
C509 C523 1.377 . S
C510 C509 1.524 . S
C510 C511 1.397 . S
C510 C515 1.363 . S
C511 H488 0.950 . S
C511 C510 1.397 . S
C511 C512 1.334 . S
C512 H489 0.950 . S
C512 C511 1.334 . S
C512 C513 1.287 . S
C513 C512 1.287 . S
C513 C514 1.524 . S
C513 H532 0.913 . S
C514 H490 0.950 . S
C514 C513 1.524 . S
C514 C515 1.415 . S
C515 H491 0.950 1_545 S
C515 C510 1.363 . S
C515 C514 1.415 . S
C516 H492 0.951 . S
C516 C517 1.366 . S
C516 C518 1.388 . S
C517 C516 1.366 . S
C517 C521 1.385 1_545 S
C518 H493 0.951 . S
C518 C516 1.388 . S
C518 C519 1.366 1_545 S
C519 C518 1.366 1_565 S
C519 C520 1.414 . S
C519 C522 1.499 . S
C520 H494 0.950 . S
C520 C519 1.414 . S
C520 C521 1.374 . S
C521 H495 0.950 . S
C521 C517 1.385 1_565 S
C521 C520 1.374 . S
C522 C519 1.499 . S
C522 C523 1.373 1_565 S
C522 C524 1.389 . S
C523 H496 0.950 . S
C523 C509 1.377 . S
C523 C522 1.373 1_545 S
C524 C508 1.377 . S
C524 C522 1.389 . S
C524 C525 1.524 . S
C525 C524 1.524 . S
C525 C526 1.397 . S
C525 C530 1.363 . S
C526 H497 0.950 . S
C526 C525 1.397 . S
C526 C527 1.334 . S
C527 H498 0.950 . S
C527 C526 1.334 . S
C527 C528 1.287 . S
C528 C527 1.287 . S
C528 C529 1.524 . S
C528 H531 0.999 . S
C529 H499 0.950 . S
C529 C528 1.524 . S
C529 C530 1.415 . S
C530 H500 0.950 1_565 S
C530 C525 1.363 . S
C530 C529 1.415 . S
H531 C528 0.999 . S
H532 C513 0.913 . S
H533 C551 0.951 . S
H534 C553 0.951 . S
H535 C555 0.950 . S
H536 C556 0.950 . S
H537 C558 0.950 . S
H538 C561 0.950 . S
H539 C562 0.950 . S
H540 C564 0.950 . S
H541 C565 0.950 . S
H542 C566 0.951 . S
H543 C568 0.951 . S
H544 C570 0.950 . S
H545 C571 0.950 . S
H546 C573 0.950 . S
H547 C576 0.950 . S
H548 C577 0.950 . S
H549 C579 0.950 . S
H550 C580 0.950 . S
C551 H533 0.951 . S
C551 C552 1.366 . S
C551 C553 1.388 . S
C552 C551 1.366 . S
C552 C556 1.385 1_554 S
C553 H534 0.951 . S
C553 C551 1.388 . S
C553 C554 1.366 1_554 S
C554 C553 1.366 1_556 S
C554 C555 1.414 . S
C554 C557 1.499 . S
C555 H535 0.950 . S
C555 C554 1.414 . S
C555 C556 1.374 . S
C556 H536 0.950 . S
C556 C552 1.385 1_556 S
C556 C555 1.374 . S
C557 C554 1.499 . S
C557 C558 1.373 . S
C557 C559 1.389 . S
C558 H537 0.950 . S
C558 C557 1.373 . S
C558 C574 1.377 . S
C559 C557 1.389 . S
C559 C560 1.524 1_556 S
C559 C573 1.377 . S
C560 C559 1.524 1_554 S
C560 C561 1.397 . S
C560 C565 1.363 . S
C561 H538 0.950 . S
C561 C560 1.397 . S
C561 C562 1.334 . S
C562 H539 0.950 . S
C562 C561 1.334 . S
C562 C563 1.287 . S
C563 C562 1.287 . S
C563 C564 1.524 . S
C563 H582 0.913 . S
C564 H540 0.950 . S
C564 C563 1.524 . S
C564 C565 1.415 . S
C565 H541 0.950 . S
C565 C560 1.363 . S
C565 C564 1.415 . S
C566 H542 0.951 . S
C566 C567 1.366 . S
C566 C568 1.388 . S
C567 C566 1.366 . S
C567 C571 1.385 . S
C568 H543 0.951 . S
C568 C566 1.388 . S
C568 C569 1.366 . S
C569 C568 1.366 . S
C569 C570 1.414 . S
C569 C572 1.499 . S
C570 H544 0.950 . S
C570 C569 1.414 . S
C570 C571 1.374 . S
C571 H545 0.950 . S
C571 C567 1.385 . S
C571 C570 1.374 . S
C572 C569 1.499 . S
C572 C573 1.373 . S
C572 C574 1.389 . S
C573 H546 0.950 . S
C573 C559 1.377 . S
C573 C572 1.373 . S
C574 C558 1.377 . S
C574 C572 1.389 . S
C574 C575 1.524 . S
C575 C574 1.524 . S
C575 C576 1.397 . S
C575 C580 1.363 . S
C576 H547 0.950 . S
C576 C575 1.397 . S
C576 C577 1.334 . S
C577 H548 0.950 . S
C577 C576 1.334 . S
C577 C578 1.287 . S
C578 C577 1.287 . S
C578 C579 1.524 . S
C578 H581 0.999 . S
C579 H549 0.950 . S
C579 C578 1.524 . S
C579 C580 1.415 . S
C580 H550 0.950 . S
C580 C575 1.363 . S
C580 C579 1.415 . S
H581 C578 0.999 . S
H582 C563 0.913 . S
H583 C601 0.951 . S
H584 C603 0.951 . S
H585 C605 0.950 . S
H586 C606 0.950 . S
H587 C608 0.960 . S
H588 C611 0.950 . S
H589 C612 0.950 . S
H590 C614 0.950 1_655 S
H591 C615 0.950 . S
H592 C616 0.951 . S
H593 C618 0.951 . S
H594 C620 0.950 . S
H595 C621 0.950 . S
H596 C623 0.950 . S
H597 C626 0.950 . S
H598 C627 0.950 . S
H599 C629 0.950 . S
H600 C630 0.950 . S
C601 H583 0.951 . S
C601 C602 1.366 1_655 S
C601 C603 1.388 . S
C602 C601 1.366 1_455 S
C602 C606 1.385 . S
C603 H584 0.951 . S
C603 C601 1.388 . S
C603 C604 1.366 1_655 S
C604 C603 1.366 1_455 S
C604 C605 1.414 . S
C604 C607 1.499 . S
C605 H585 0.950 . S
C605 C604 1.414 . S
C605 C606 1.374 . S
C606 H586 0.950 . S
C606 C602 1.385 . S
C606 C605 1.374 . S
C607 C604 1.499 . S
C607 C608 1.373 . S
C607 C609 1.389 . S
C608 H587 0.960 . S
C608 C607 1.373 . S
C608 C624 1.377 1_455 S
C609 C607 1.389 . S
C609 C610 1.524 . S
C609 C623 1.377 . S
C610 C609 1.524 . S
C610 C611 1.397 . S
C610 C615 1.363 1_455 S
C611 H588 0.950 . S
C611 C610 1.397 . S
C611 C612 1.334 . S
C612 H589 0.950 . S
C612 C611 1.334 . S
C612 C613 1.287 . S
C613 C612 1.287 . S
C613 C614 1.524 . S
C613 H632 0.913 . S
C614 H590 0.950 1_455 S
C614 C613 1.524 . S
C614 C615 1.415 1_455 S
C615 H591 0.950 . S
C615 C610 1.363 1_655 S
C615 C614 1.415 1_655 S
C616 H592 0.951 . S
C616 C617 1.366 . S
C616 C618 1.388 . S
C617 C616 1.366 . S
C617 C621 1.385 1_455 S
C618 H593 0.951 . S
C618 C616 1.388 . S
C618 C619 1.366 . S
C619 C618 1.366 . S
C619 C620 1.414 1_455 S
C619 C622 1.503 . S
C620 H594 0.950 . S
C620 C619 1.414 1_655 S
C620 C621 1.374 . S
C621 H595 0.950 . S
C621 C617 1.385 1_655 S
C621 C620 1.374 . S
C622 C619 1.503 . S
C622 C623 1.375 . S
C622 C624 1.384 1_455 S
C623 H596 0.950 . S
C623 C609 1.377 . S
C623 C622 1.375 . S
C624 C608 1.377 1_655 S
C624 C622 1.384 1_655 S
C624 C625 1.524 . S
C625 C624 1.524 . S
C625 C626 1.397 . S
C625 C630 1.363 1_655 S
C626 H597 0.950 . S
C626 C625 1.397 . S
C626 C627 1.334 . S
C627 H598 0.950 . S
C627 C626 1.334 . S
C627 C628 1.287 . S
C628 C627 1.287 . S
C628 C629 1.524 1_655 S
C628 H631 0.999 . S
C629 H599 0.950 . S
C629 C628 1.524 1_455 S
C629 C630 1.415 . S
C630 H600 0.950 . S
C630 C625 1.363 1_455 S
C630 C629 1.415 . S
H631 C628 0.999 . S
H632 C613 0.913 . S
H633 C651 0.951 . S
H634 C653 0.951 . S
H635 C655 0.950 . S
H636 C656 0.950 . S
H637 C658 0.950 . S
H638 C661 0.950 . S
H639 C662 0.950 . S
H640 C664 0.950 . S
H641 C665 0.950 . S
H642 C666 0.951 . S
H643 C668 0.951 . S
H644 C670 0.950 . S
H645 C671 0.950 . S
H646 C673 0.950 . S
H647 C676 0.950 . S
H648 C677 0.950 . S
H649 C679 0.950 . S
H650 C680 0.950 . S
C651 H633 0.951 . S
C651 C652 1.366 . S
C651 C653 1.388 . S
C652 C651 1.366 . S
C652 C656 1.385 1_545 S
C653 H634 0.951 . S
C653 C651 1.388 . S
C653 C654 1.366 . S
C654 C653 1.366 . S
C654 C655 1.414 1_545 S
C654 C657 1.511 . S
C655 H635 0.950 . S
C655 C654 1.414 1_565 S
C655 C656 1.374 . S
C656 H636 0.950 . S
C656 C652 1.385 1_565 S
C656 C655 1.374 . S
C657 C654 1.511 . S
C657 C658 1.373 . S
C657 C659 1.380 1_545 S
C658 H637 0.950 . S
C658 C657 1.373 . S
C658 C674 1.377 . S
C659 C657 1.380 1_565 S
C659 C660 1.524 . S
C659 C673 1.377 . S
C660 C659 1.524 . S
C660 C661 1.397 . S
C660 C665 1.363 . S
C661 H638 0.950 . S
C661 C660 1.397 . S
C661 C662 1.334 . S
C662 H639 0.950 . S
C662 C661 1.334 . S
C662 C663 1.287 . S
C663 C662 1.287 . S
C663 C664 1.524 . S
C663 H682 0.913 . S
C664 H640 0.950 . S
C664 C663 1.524 . S
C664 C665 1.415 . S
C665 H641 0.950 . S
C665 C660 1.363 . S
C665 C664 1.415 . S
C666 H642 0.951 . S
C666 C667 1.366 1_565 S
C666 C668 1.388 . S
C667 C666 1.366 1_545 S
C667 C671 1.385 . S
C668 H643 0.951 . S
C668 C666 1.388 . S
C668 C669 1.366 1_565 S
C669 C668 1.366 1_545 S
C669 C670 1.414 . S
C669 C672 1.499 . S
C670 H644 0.950 . S
C670 C669 1.414 . S
C670 C671 1.374 . S
C671 H645 0.950 . S
C671 C667 1.385 . S
C671 C670 1.374 . S
C672 C669 1.499 . S
C672 C673 1.373 1_545 S
C672 C674 1.389 . S
C673 H646 0.950 . S
C673 C659 1.377 . S
C673 C672 1.373 1_565 S
C674 C658 1.377 . S
C674 C672 1.389 . S
C674 C675 1.524 . S
C675 C674 1.524 . S
C675 C676 1.397 . S
C675 C680 1.363 . S
C676 H647 0.950 . S
C676 C675 1.397 . S
C676 C677 1.334 . S
C677 H648 0.950 . S
C677 C676 1.334 . S
C677 C678 1.287 . S
C678 C677 1.287 . S
C678 C679 1.524 . S
C678 H681 0.999 . S
C679 H649 0.950 . S
C679 C678 1.524 . S
C679 C680 1.415 . S
C680 H650 0.950 . S
C680 C675 1.363 . S
C680 C679 1.415 . S
H681 C678 0.999 . S
H682 C663 0.913 . S
H683 C701 0.951 . S
H684 C703 0.951 . S
H685 C705 0.952 . S
H686 C706 0.950 . S
H687 C708 0.950 . S
H688 C711 0.950 . S
H689 C712 0.950 . S
H690 C714 0.950 . S
H691 C715 0.950 . S
H692 C716 0.951 . S
H693 C718 0.951 . S
H694 C720 0.950 . S
H695 C721 0.950 . S
H696 C723 0.950 . S
H697 C726 0.950 . S
H698 C727 0.950 . S
H699 C729 0.950 . S
H700 C730 0.950 . S
C701 H683 0.951 . S
C701 C702 1.366 1_556 S
C701 C703 1.388 . S
C702 C701 1.366 1_554 S
C702 C706 1.385 . S
C703 H684 0.951 . S
C703 C701 1.388 . S
C703 C704 1.366 . S
C704 C703 1.366 . S
C704 C705 1.406 1_556 S
C704 C707 1.499 . S
C705 H685 0.952 . S
C705 C704 1.406 1_554 S
C705 C706 1.380 . S
C706 H686 0.950 . S
C706 C702 1.385 . S
C706 C705 1.380 . S
C707 C704 1.499 . S
C707 C708 1.373 . S
C707 C709 1.389 . S
C708 H687 0.950 . S
C708 C707 1.373 . S
C708 C724 1.377 . S
C709 C707 1.389 . S
C709 C710 1.524 . S
C709 C723 1.377 . S
C710 C709 1.524 . S
C710 C711 1.397 1_556 S
C710 C715 1.363 . S
C711 H688 0.950 . S
C711 C710 1.397 1_554 S
C711 C712 1.334 . S
C712 H689 0.950 . S
C712 C711 1.334 . S
C712 C713 1.287 . S
C713 C712 1.287 . S
C713 C714 1.524 1_554 S
C713 H732 0.913 . S
C714 H690 0.950 . S
C714 C713 1.524 1_556 S
C714 C715 1.415 . S
C715 H691 0.950 . S
C715 C710 1.363 . S
C715 C714 1.415 . S
C716 H692 0.951 . S
C716 C717 1.366 . S
C716 C718 1.388 . S
C717 C716 1.366 . S
C717 C721 1.385 . S
C718 H693 0.951 . S
C718 C716 1.388 . S
C718 C719 1.366 . S
C719 C718 1.366 . S
C719 C720 1.414 . S
C719 C722 1.499 . S
C720 H694 0.950 . S
C720 C719 1.414 . S
C720 C721 1.374 . S
C721 H695 0.950 . S
C721 C717 1.385 . S
C721 C720 1.374 . S
C722 C719 1.499 . S
C722 C723 1.373 . S
C722 C724 1.389 . S
C723 H696 0.950 . S
C723 C709 1.377 . S
C723 C722 1.373 . S
C724 C708 1.377 . S
C724 C722 1.389 . S
C724 C725 1.524 . S
C725 C724 1.524 . S
C725 C726 1.397 . S
C725 C730 1.363 . S
C726 H697 0.950 . S
C726 C725 1.397 . S
C726 C727 1.334 . S
C727 H698 0.950 . S
C727 C726 1.334 . S
C727 C728 1.287 . S
C728 C727 1.287 . S
C728 C729 1.524 . S
C728 H731 0.999 . S
C729 H699 0.950 . S
C729 C728 1.524 . S
C729 C730 1.415 . S
C730 H700 0.950 . S
C730 C725 1.363 . S
C730 C729 1.415 . S
H731 C728 0.999 . S
H732 C713 0.913 . S
H733 C751 0.951 . S
H734 C753 0.951 . S
H735 C755 0.950 . S
H736 C756 0.950 . S
H737 C758 0.950 . S
H738 C761 0.950 1_655 S
H739 C762 0.949 1_655 S
H740 C764 0.950 . S
H741 C765 0.950 . S
H742 C766 0.951 . S
H743 C768 0.951 . S
H744 C770 0.950 . S
H745 C771 0.950 . S
H746 C773 0.950 . S
H747 C776 0.950 1_455 S
H748 C777 0.959 . S
H749 C779 0.950 . S
H750 C780 0.950 . S
C751 H733 0.951 . S
C751 C752 1.366 1_455 S
C751 C753 1.388 . S
C752 C751 1.366 1_655 S
C752 C756 1.385 . S
C753 H734 0.951 . S
C753 C751 1.388 . S
C753 C754 1.366 1_455 S
C754 C753 1.366 1_655 S
C754 C755 1.414 . S
C754 C757 1.499 . S
C755 H735 0.950 . S
C755 C754 1.414 . S
C755 C756 1.374 . S
C756 H736 0.950 . S
C756 C752 1.385 . S
C756 C755 1.374 . S
C757 C754 1.499 . S
C757 C758 1.373 . S
C757 C759 1.389 1_655 S
C758 H737 0.950 . S
C758 C757 1.373 . S
C758 C774 1.377 . S
C759 C757 1.389 1_455 S
C759 C760 1.524 . S
C759 C773 1.377 . S
C760 C759 1.524 . S
C760 C761 1.397 . S
C760 C765 1.363 . S
C761 H738 0.950 1_455 S
C761 C760 1.397 . S
C761 C762 1.334 . S
C762 H739 0.949 1_455 S
C762 C761 1.334 . S
C762 C763 1.287 . S
C763 C762 1.287 . S
C763 C764 1.524 . S
C763 H782 0.913 . S
C764 H740 0.950 . S
C764 C763 1.524 . S
C764 C765 1.415 . S
C765 H741 0.950 . S
C765 C760 1.363 . S
C765 C764 1.415 . S
C766 H742 0.951 . S
C766 C767 1.366 1_655 S
C766 C768 1.388 . S
C767 C766 1.366 1_455 S
C767 C771 1.385 . S
C768 H743 0.951 . S
C768 C766 1.388 . S
C768 C769 1.366 1_655 S
C769 C768 1.366 1_455 S
C769 C770 1.414 . S
C769 C772 1.499 . S
C770 H744 0.950 . S
C770 C769 1.414 . S
C770 C771 1.374 . S
C771 H745 0.950 . S
C771 C767 1.385 . S
C771 C770 1.374 . S
C772 C769 1.499 . S
C772 C773 1.373 . S
C772 C774 1.389 1_455 S
C773 H746 0.950 . S
C773 C759 1.377 . S
C773 C772 1.373 . S
C774 C758 1.377 . S
C774 C772 1.389 1_655 S
C774 C775 1.524 . S
C775 C774 1.524 . S
C775 C776 1.397 . S
C775 C780 1.363 . S
C776 H747 0.950 1_655 S
C776 C775 1.397 . S
C776 C777 1.334 . S
C777 H748 0.959 . S
C777 C776 1.334 . S
C777 C778 1.287 . S
C778 C777 1.287 . S
C778 C779 1.524 . S
C778 H781 0.999 . S
C779 H749 0.950 . S
C779 C778 1.524 . S
C779 C780 1.415 . S
C780 H750 0.950 . S
C780 C775 1.363 . S
C780 C779 1.415 . S
H781 C778 0.999 . S
H782 C763 0.913 . S
C217 C60 1.542 . S
C202 C10 1.542 . S
C252 C17 1.542 . S
C267 C108 1.542 . S
C302 C36 1.543 . S
C317 C180 1.540 . S
C352 C5 1.539 . S
C367 C84 1.539 . S
C417 C132 1.539 . S
C402 C16 1.548 . S
C452 C31 1.543 . S
C467 C156 1.542 . S
C517 C117 1.537 1_545 S
C502 C30 1.542 . S
C552 C3 1.543 . S
C567 C171 1.542 . S
C617 C75 1.537 . S
C602 C18 1.544 . S
C667 C123 1.548 . S
C652 C29 1.544 . S
C717 C165 1.538 . S
C702 C4 1.543 . S
C752 C23 1.542 . S
C767 C69 1.537 1_455 S
