# Generated by pormake.
# Topology pto, (3,4)-cn, num edge types: 1
# Building blocks:
#     Node 0, Type 0, BuildingBlock: WUSLED_clean_sbu_0, # of connection points: 3
#     Node 1, Type 0, BuildingBlock: WUSLED_clean_sbu_0, # of connection points: 3
#     Node 2, Type 0, BuildingBlock: WUSLED_clean_sbu_0, # of connection points: 3
#     Node 3, Type 0, BuildingBlock: WUSLED_clean_sbu_0, # of connection points: 3
#     Node 4, Type 0, BuildingBlock: WUSLED_clean_sbu_0, # of connection points: 3
#     Node 5, Type 0, BuildingBlock: WUSLED_clean_sbu_0, # of connection points: 3
#     Node 6, Type 0, BuildingBlock: WUSLED_clean_sbu_0, # of connection points: 3
#     Node 7, Type 0, BuildingBlock: WUSLED_clean_sbu_0, # of connection points: 3
#     Node 8, Type 1, BuildingBlock: MIFKUJ_clean_linker_1, # of connection points: 4
#     Node 9, Type 1, BuildingBlock: MIFKUJ_clean_linker_1, # of connection points: 4
#     Node 10, Type 1, BuildingBlock: MIFKUJ_clean_linker_1, # of connection points: 4
#     Node 11, Type 1, BuildingBlock: MIFKUJ_clean_linker_1, # of connection points: 4
#     Node 12, Type 1, BuildingBlock: MIFKUJ_clean_linker_1, # of connection points: 4
#     Node 13, Type 1, BuildingBlock: MIFKUJ_clean_linker_1, # of connection points: 4
#     Edge 14, Type (0, 1), BuildingBlock: CIFDUS_clean_linker_0, # of connection points: 2
#     Edge 15, Type (0, 1), BuildingBlock: CIFDUS_clean_linker_0, # of connection points: 2
#     Edge 16, Type (0, 1), BuildingBlock: CIFDUS_clean_linker_0, # of connection points: 2
#     Edge 17, Type (0, 1), BuildingBlock: CIFDUS_clean_linker_0, # of connection points: 2
#     Edge 18, Type (0, 1), BuildingBlock: CIFDUS_clean_linker_0, # of connection points: 2
#     Edge 19, Type (0, 1), BuildingBlock: CIFDUS_clean_linker_0, # of connection points: 2
#     Edge 20, Type (0, 1), BuildingBlock: CIFDUS_clean_linker_0, # of connection points: 2
#     Edge 21, Type (0, 1), BuildingBlock: CIFDUS_clean_linker_0, # of connection points: 2
#     Edge 22, Type (0, 1), BuildingBlock: CIFDUS_clean_linker_0, # of connection points: 2
#     Edge 23, Type (0, 1), BuildingBlock: CIFDUS_clean_linker_0, # of connection points: 2
#     Edge 24, Type (0, 1), BuildingBlock: CIFDUS_clean_linker_0, # of connection points: 2
#     Edge 25, Type (0, 1), BuildingBlock: CIFDUS_clean_linker_0, # of connection points: 2
#     Edge 26, Type (0, 1), BuildingBlock: CIFDUS_clean_linker_0, # of connection points: 2
#     Edge 27, Type (0, 1), BuildingBlock: CIFDUS_clean_linker_0, # of connection points: 2
#     Edge 28, Type (0, 1), BuildingBlock: CIFDUS_clean_linker_0, # of connection points: 2
#     Edge 29, Type (0, 1), BuildingBlock: CIFDUS_clean_linker_0, # of connection points: 2
#     Edge 30, Type (0, 1), BuildingBlock: CIFDUS_clean_linker_0, # of connection points: 2
#     Edge 31, Type (0, 1), BuildingBlock: CIFDUS_clean_linker_0, # of connection points: 2
#     Edge 32, Type (0, 1), BuildingBlock: CIFDUS_clean_linker_0, # of connection points: 2
#     Edge 33, Type (0, 1), BuildingBlock: CIFDUS_clean_linker_0, # of connection points: 2
#     Edge 34, Type (0, 1), BuildingBlock: CIFDUS_clean_linker_0, # of connection points: 2
#     Edge 35, Type (0, 1), BuildingBlock: CIFDUS_clean_linker_0, # of connection points: 2
#     Edge 36, Type (0, 1), BuildingBlock: CIFDUS_clean_linker_0, # of connection points: 2
#     Edge 37, Type (0, 1), BuildingBlock: CIFDUS_clean_linker_0, # of connection points: 2
# Relax obj value: 0.001
# Max RMSD: 0.013
# Mean RMSD: 0.005
data_MOF--net-pto--node1-WUSLED_clean_sbu_0--node2-MIFKUJ_clean_linker_1--edge1-CIFDUS_clean_linker_0
_symmetry_space_group_name_H-M    P1
_symmetry_Int_Tables_number       1
_symmetry_cell_setting            triclinic
loop_
_symmetry_equiv_pos_as_xyz
'x, y, z'
_cell_length_a     45.070857
_cell_length_b     66.216177
_cell_length_c     55.912882
_cell_angle_alpha  89.467398
_cell_angle_beta   90.77633
_cell_angle_gamma 90.622266
loop_
_atom_site_label
_atom_site_type_symbol
_atom_site_fract_x
_atom_site_fract_y
_atom_site_fract_z
_atom_type_partial_charge
C0 C 0.23857 0.23222 0.3542 0.0
C1 C 0.26094 0.2186 0.3484 0.0
C2 C 0.24287 0.1947 0.37848 0.0
C3 C 0.26312 0.20004 0.36046 0.0
C4 C 0.22041 0.20843 0.3841 0.0
C5 C 0.21832 0.22701 0.37208 0.0
U6 U 0.25888 0.26713 0.30242 0.0
O7 O 0.23175 0.28813 0.28096 0.0
O8 O 0.27001 0.29961 0.30167 0.0
C9 C 0.24692 0.3041 0.28812 0.0
C10 C 0.23606 0.25178 0.34164 0.0
C11 C 0.22963 0.32171 0.29548 0.0
C12 C 0.18575 0.33682 0.31247 0.0
C13 C 0.20214 0.31965 0.30685 0.0
C14 C 0.22441 0.35819 0.29586 0.0
C15 C 0.19667 0.3563 0.30694 0.0
C16 C 0.24066 0.34108 0.29019 0.0
C17 C 0.31159 0.24821 0.25489 0.0
C18 C 0.32315 0.26786 0.21921 0.0
C19 C 0.34837 0.23632 0.22715 0.0
C20 C 0.3323 0.23377 0.2482 0.0
C21 C 0.34397 0.25337 0.21237 0.0
C22 C 0.30714 0.26532 0.24033 0.0
C23 C 0.29482 0.24521 0.27703 0.0
O24 O 0.26035 0.26296 0.34148 0.0
O25 O 0.22239 0.25122 0.32073 0.0
O26 O 0.2658 0.24462 0.27443 0.0
O27 O 0.3038 0.25616 0.29527 0.0
H28 H 0.27677 0.22236 0.33459 0.0
H29 H 0.2809 0.18999 0.35584 0.0
H30 H 0.20415 0.20472 0.39757 0.0
H31 H 0.2008 0.23729 0.37669 0.0
H32 H 0.16461 0.33485 0.32121 0.0
H33 H 0.19325 0.30483 0.3112 0.0
H34 H 0.23331 0.3729 0.29102 0.0
H35 H 0.26176 0.34298 0.28133 0.0
H36 H 0.31947 0.28126 0.20837 0.0
H37 H 0.36391 0.22475 0.22226 0.0
H38 H 0.33596 0.22046 0.25923 0.0
H39 H 0.2913 0.27668 0.24531 0.0
C40 C 0.22872 0.80789 0.67011 0.0
C41 C 0.24725 0.82417 0.67656 0.0
C42 C 0.22882 0.84376 0.64241 0.0
C43 C 0.24732 0.84196 0.66281 0.0
C44 C 0.21051 0.82727 0.636 0.0
C45 C 0.21047 0.80953 0.64974 0.0
U46 U 0.25646 0.77461 0.72195 0.0
O47 O 0.2314 0.75527 0.7468 0.0
O48 O 0.26397 0.74178 0.72306 0.0
C49 C 0.24285 0.73854 0.73865 0.0
C50 C 0.22799 0.78915 0.6844 0.0
C51 C 0.22149 0.72231 0.73273 0.0
C52 C 0.17429 0.71078 0.71594 0.0
C53 C 0.19477 0.72637 0.7205 0.0
C54 C 0.20738 0.68687 0.73525 0.0
C55 C 0.18033 0.69085 0.72336 0.0
C56 C 0.22772 0.70247 0.73991 0.0
C57 C 0.31827 0.79294 0.76419 0.0
C58 C 0.35188 0.77225 0.78819 0.0
C59 C 0.34126 0.80641 0.80034 0.0
C60 C 0.32258 0.80879 0.78037 0.0
C61 C 0.3562 0.78814 0.80443 0.0
C62 C 0.33296 0.77458 0.76832 0.0
C63 C 0.29833 0.79588 0.74331 0.0
O64 O 0.25154 0.77773 0.68289 0.0
O65 O 0.21847 0.79093 0.70639 0.0
O66 O 0.27004 0.79766 0.7482 0.0
O67 O 0.30311 0.78445 0.72465 0.0
H68 H 0.2615 0.82314 0.69228 0.0
H69 H 0.26146 0.85443 0.66839 0.0
H70 H 0.19636 0.82799 0.62022 0.0
H71 H 0.19613 0.79706 0.64445 0.0
H72 H 0.15381 0.71428 0.70652 0.0
H73 H 0.18964 0.74161 0.71466 0.0
H74 H 0.21255 0.67175 0.74144 0.0
H75 H 0.24822 0.69907 0.74939 0.0
H76 H 0.36285 0.75794 0.79102 0.0
H77 H 0.34436 0.81898 0.81241 0.0
H78 H 0.31147 0.82306 0.77753 0.0
H79 H 0.32981 0.76202 0.75624 0.0
C80 C 0.71828 0.79597 0.26267 0.0
C81 C 0.72002 0.77887 0.24813 0.0
C82 C 0.67961 0.79152 0.22289 0.0
C83 C 0.70088 0.77669 0.22835 0.0
C84 C 0.67813 0.80863 0.23756 0.0
C85 C 0.6973 0.81081 0.25725 0.0
U86 U 0.77676 0.77598 0.30672 0.0
O87 O 0.81513 0.79142 0.32336 0.0
O88 O 0.77955 0.77925 0.34586 0.0
C89 C 0.80371 0.7905 0.34487 0.0
C90 C 0.73782 0.79842 0.28374 0.0
C91 C 0.80224 0.8099 0.35746 0.0
C92 C 0.7869 0.84496 0.35879 0.0
C93 C 0.78816 0.82655 0.34676 0.0
C94 C 0.81338 0.83019 0.39252 0.0
C95 C 0.79953 0.84702 0.38181 0.0
C96 C 0.81475 0.81181 0.38042 0.0
C97 C 0.80514 0.72167 0.29663 0.0
C98 C 0.84284 0.70415 0.32018 0.0
C99 C 0.81712 0.68691 0.28784 0.0
C100 C 0.80076 0.70427 0.28296 0.0
C101 C 0.83825 0.68654 0.30659 0.0
C102 C 0.82633 0.7216 0.31527 0.0
C103 C 0.78711 0.7395 0.29093 0.0
O104 O 0.73113 0.78699 0.30227 0.0
O105 O 0.76642 0.79912 0.27945 0.0
O106 O 0.80158 0.75568 0.28354 0.0
O107 O 0.76587 0.74352 0.30599 0.0
H108 H 0.73604 0.7672 0.25215 0.0
H109 H 0.70241 0.76324 0.21757 0.0
H110 H 0.66233 0.82046 0.23368 0.0
H111 H 0.6957 0.82411 0.26829 0.0
H112 H 0.77573 0.85752 0.35016 0.0
H113 H 0.77814 0.82531 0.3291 0.0
H114 H 0.82358 0.83132 0.41012 0.0
H115 H 0.82566 0.7991 0.38897 0.0
H116 H 0.85882 0.70433 0.33482 0.0
H117 H 0.81339 0.67379 0.27673 0.0
H118 H 0.78461 0.7041 0.26843 0.0
H119 H 0.82996 0.73494 0.32603 0.0
C120 C 0.75873 0.21067 0.70118 0.0
C121 C 0.78231 0.20995 0.68507 0.0
C122 C 0.76405 0.17752 0.67016 0.0
C123 C 0.78493 0.1935 0.66963 0.0
C124 C 0.74016 0.17865 0.68603 0.0
C125 C 0.73758 0.19504 0.70137 0.0
U126 U 0.78045 0.26267 0.7268 0.0
O127 O 0.75195 0.28594 0.74189 0.0
O128 O 0.78598 0.27151 0.76448 0.0
C129 C 0.76347 0.28394 0.7635 0.0
C130 C 0.75607 0.22716 0.71845 0.0
C131 C 0.7422 0.28208 0.78315 0.0
C132 C 0.69775 0.26755 0.80087 0.0
C133 C 0.71805 0.26854 0.78211 0.0
C134 C 0.7259 0.29336 0.82196 0.0
C135 C 0.70132 0.28008 0.82096 0.0
C136 C 0.74607 0.29435 0.80323 0.0
C137 C 0.83955 0.29647 0.69951 0.0
C138 C 0.85301 0.32831 0.71827 0.0
C139 C 0.87622 0.31869 0.6813 0.0
C140 C 0.85953 0.30074 0.68113 0.0
C141 C 0.8732 0.3327 0.69989 0.0
C142 C 0.83633 0.31036 0.71807 0.0
C143 C 0.82213 0.27756 0.69922 0.0
O144 O 0.7789 0.22985 0.733 0.0
O145 O 0.74514 0.24416 0.71002 0.0
O146 O 0.79366 0.27965 0.69457 0.0
O147 O 0.82752 0.26508 0.71714 0.0
H148 H 0.79886 0.22193 0.68468 0.0
H149 H 0.80367 0.19305 0.65774 0.0
H150 H 0.7234 0.16681 0.68661 0.0
H151 H 0.71916 0.1954 0.71361 0.0
H152 H 0.67898 0.25727 0.79943 0.0
H153 H 0.71477 0.25889 0.76673 0.0
H154 H 0.72969 0.30293 0.83732 0.0
H155 H 0.7647 0.3048 0.8044 0.0
H156 H 0.85038 0.33861 0.733 0.0
H157 H 0.89123 0.3217 0.6667 0.0
H158 H 0.86219 0.29022 0.66662 0.0
H159 H 0.82099 0.30727 0.73244 0.0
C160 C 0.81773 0.72265 0.74505 0.0
C161 C 0.83473 0.72127 0.72429 0.0
C162 C 0.8568 0.69007 0.73938 0.0
C163 C 0.85409 0.70505 0.72145 0.0
C164 C 0.83956 0.69161 0.76006 0.0
C165 C 0.82026 0.70774 0.76284 0.0
U166 U 0.78202 0.77387 0.72872 0.0
O167 O 0.73521 0.78245 0.73192 0.0
O168 O 0.76952 0.79817 0.75303 0.0
C169 C 0.74097 0.7952 0.7493 0.0
C170 C 0.79715 0.73936 0.74873 0.0
C171 C 0.72344 0.79212 0.77104 0.0
C172 C 0.71129 0.77218 0.80634 0.0
C173 C 0.72751 0.77485 0.78538 0.0
C174 C 0.68656 0.80396 0.79874 0.0
C175 C 0.69068 0.78674 0.81333 0.0
C176 C 0.70284 0.80661 0.77778 0.0
C177 C 0.80493 0.80495 0.67394 0.0
C178 C 0.78011 0.83596 0.66206 0.0
C179 C 0.82369 0.82523 0.64092 0.0
C180 C 0.82568 0.80823 0.65586 0.0
C181 C 0.80084 0.83931 0.64377 0.0
C182 C 0.78216 0.81894 0.67703 0.0
C183 C 0.80747 0.78696 0.68945 0.0
O184 O 0.80936 0.75677 0.75457 0.0
O185 O 0.77536 0.74108 0.73301 0.0
O186 O 0.78429 0.77473 0.68945 0.0
O187 O 0.8185 0.79021 0.71097 0.0
H188 H 0.83304 0.73272 0.71038 0.0
H189 H 0.86721 0.70438 0.7054 0.0
H190 H 0.84068 0.68019 0.77402 0.0
H191 H 0.8072 0.70854 0.77893 0.0
H192 H 0.71474 0.75864 0.81699 0.0
H193 H 0.74333 0.76347 0.78039 0.0
H194 H 0.67117 0.81558 0.80374 0.0
H195 H 0.69951 0.82007 0.76694 0.0
H196 H 0.76205 0.84634 0.66461 0.0
H197 H 0.84031 0.82747 0.62732 0.0
H198 H 0.84351 0.79764 0.65332 0.0
H199 H 0.76594 0.81664 0.69095 0.0
C200 C 0.72842 0.24208 0.25975 0.0
C201 C 0.73927 0.25476 0.24151 0.0
C202 C 0.69617 0.2468 0.21646 0.0
C203 C 0.72339 0.257 0.22002 0.0
C204 C 0.68512 0.2344 0.23494 0.0
C205 C 0.70118 0.23202 0.25637 0.0
U206 U 0.78146 0.26272 0.30705 0.0
O207 O 0.78109 0.25988 0.3463 0.0
O208 O 0.8189 0.24862 0.32624 0.0
C209 C 0.80598 0.2497 0.34711 0.0
C210 C 0.74509 0.23946 0.28241 0.0
C211 C 0.80522 0.23077 0.36109 0.0
C212 C 0.78786 0.19619 0.36693 0.0
C213 C 0.78781 0.21423 0.35363 0.0
C214 C 0.82259 0.21112 0.39529 0.0
C215 C 0.80538 0.19438 0.38787 0.0
C216 C 0.82249 0.22912 0.38201 0.0
C217 C 0.80958 0.31753 0.2964 0.0
C218 C 0.84731 0.33547 0.31965 0.0
C219 C 0.81983 0.35298 0.28837 0.0
C220 C 0.80399 0.33526 0.28336 0.0
C221 C 0.84163 0.35336 0.30661 0.0
C222 C 0.83132 0.31767 0.31461 0.0
C223 C 0.79238 0.29924 0.29038 0.0
O224 O 0.77412 0.23882 0.28055 0.0
O225 O 0.73637 0.25072 0.30016 0.0
O226 O 0.77 0.29489 0.30441 0.0
O227 O 0.80772 0.28333 0.28442 0.0
H228 H 0.76007 0.26291 0.24386 0.0
H229 H 0.73227 0.26685 0.20623 0.0
H230 H 0.66433 0.22624 0.23265 0.0
H231 H 0.69237 0.22226 0.27028 0.0
H232 H 0.7746 0.18355 0.36056 0.0
H233 H 0.77439 0.21524 0.33745 0.0
H234 H 0.83599 0.21037 0.41149 0.0
H235 H 0.836 0.24176 0.38805 0.0
H236 H 0.86381 0.3353 0.33391 0.0
H237 H 0.81523 0.36634 0.2777 0.0
H238 H 0.78737 0.33539 0.26917 0.0
H239 H 0.83587 0.30408 0.32489 0.0
C240 C 0.23742 0.23222 0.66866 0.0
C241 C 0.25227 0.21509 0.67739 0.0
C242 C 0.24407 0.19818 0.63927 0.0
C243 C 0.2555 0.19818 0.66283 0.0
C244 C 0.22944 0.21549 0.63061 0.0
C245 C 0.22613 0.23233 0.6452 0.0
U246 U 0.25609 0.26329 0.72425 0.0
O247 O 0.2616 0.29621 0.72807 0.0
O248 O 0.22693 0.28002 0.74801 0.0
C249 C 0.2385 0.29764 0.74201 0.0
C250 C 0.23345 0.25004 0.68374 0.0
C251 C 0.21731 0.31365 0.73565 0.0
C252 C 0.17066 0.32491 0.71797 0.0
C253 C 0.19088 0.30947 0.72296 0.0
C254 C 0.20342 0.34892 0.73779 0.0
C255 C 0.17668 0.34481 0.72541 0.0
C256 C 0.22348 0.33347 0.74288 0.0
C257 C 0.31352 0.24532 0.76979 0.0
C258 C 0.32423 0.2646 0.80571 0.0
C259 C 0.35103 0.23382 0.7982 0.0
C260 C 0.335 0.23126 0.77683 0.0
C261 C 0.34582 0.25051 0.81293 0.0
C262 C 0.30825 0.26203 0.78431 0.0
C263 C 0.29672 0.24241 0.74736 0.0
O264 O 0.22125 0.24656 0.70463 0.0
O265 O 0.25625 0.26255 0.68489 0.0
O266 O 0.30292 0.25537 0.73014 0.0
O267 O 0.26809 0.23918 0.7498 0.0
H268 H 0.26131 0.2148 0.69545 0.0
H269 H 0.26717 0.18519 0.66994 0.0
H270 H 0.22007 0.2159 0.61268 0.0
H271 H 0.2146 0.24543 0.63819 0.0
H272 H 0.15041 0.32132 0.7082 0.0
H273 H 0.18578 0.29427 0.71706 0.0
H274 H 0.20856 0.36401 0.74401 0.0
H275 H 0.24374 0.33698 0.75272 0.0
H276 H 0.31991 0.27773 0.81648 0.0
H277 H 0.36719 0.22255 0.80338 0.0
H278 H 0.33929 0.21825 0.76584 0.0
H279 H 0.29177 0.27308 0.77907 0.0
C280 C 0.21101 0.7358 0.33194 0.0
C281 C 0.2234 0.72021 0.31862 0.0
C282 C 0.18229 0.69777 0.32908 0.0
C283 C 0.20925 0.70135 0.31729 0.0
C284 C 0.1697 0.71357 0.34207 0.0
C285 C 0.184 0.73241 0.34353 0.0
U286 U 0.26724 0.77356 0.30824 0.0
O287 O 0.26622 0.80668 0.30485 0.0
O288 O 0.30104 0.79221 0.32663 0.0
C289 C 0.28902 0.80926 0.31946 0.0
C290 C 0.22616 0.75556 0.33379 0.0
C291 C 0.28601 0.8248 0.33788 0.0
C292 C 0.25956 0.84037 0.37045 0.0
C293 C 0.26161 0.8252 0.35321 0.0
C294 C 0.30629 0.85468 0.3572 0.0
C295 C 0.28198 0.85525 0.37269 0.0
C296 C 0.30825 0.83962 0.34001 0.0
C297 C 0.3097 0.75922 0.25196 0.0
C298 C 0.35718 0.77307 0.23917 0.0
C299 C 0.32547 0.75523 0.21092 0.0
C300 C 0.30453 0.75198 0.22879 0.0
C301 C 0.35211 0.76572 0.21593 0.0
C302 C 0.33607 0.76994 0.25702 0.0
C303 C 0.28748 0.75513 0.27053 0.0
O304 O 0.25462 0.75482 0.33918 0.0
O305 O 0.22005 0.76851 0.31651 0.0
O306 O 0.26393 0.76666 0.26981 0.0
O307 O 0.29787 0.75205 0.29233 0.0
H308 H 0.2441 0.72261 0.30933 0.0
H309 H 0.2193 0.68959 0.30688 0.0
H310 H 0.14908 0.71124 0.35149 0.0
H311 H 0.17407 0.74428 0.35383 0.0
H312 H 0.24067 0.8403 0.38222 0.0
H313 H 0.24424 0.81381 0.35185 0.0
H314 H 0.32369 0.86607 0.35813 0.0
H315 H 0.32719 0.83958 0.32827 0.0
H316 H 0.37733 0.7814 0.24349 0.0
H317 H 0.32106 0.74919 0.19328 0.0
H318 H 0.28433 0.74366 0.22455 0.0
H319 H 0.34042 0.77582 0.27476 0.0
H320 H 0.95774 0.49229 0.2938 0.0
H321 H 0.92974 0.46048 0.29317 0.0
H322 H 0.98156 0.43866 0.35339 0.0
H323 H 1.00919 0.4707 0.35428 0.0
H324 H 0.96349 0.5211 0.32505 0.0
H325 H 0.03079 0.47569 0.28788 0.0
H326 H 0.05848 0.44435 0.28465 0.0
H327 H 0.10539 0.45816 0.35054 0.0
H328 H 0.07786 0.4897 0.3534 0.0
H329 H 0.07821 0.55368 0.35383 0.0
H330 H 0.10426 0.58633 0.35322 0.0
H331 H 0.05393 0.60385 0.29024 0.0
H332 H 0.02826 0.57113 0.29074 0.0
H333 H 0.0735 0.52277 0.32292 0.0
H334 H 1.00685 0.57179 0.35581 0.0
H335 H 0.97844 0.60313 0.3552 0.0
H336 H 0.92861 0.58188 0.29371 0.0
H337 H 0.95733 0.5508 0.29413 0.0
C338 C 0.98582 0.48387 0.32391 0.0
C339 C 0.96294 0.48074 0.30701 0.0
C340 C 0.94693 0.46255 0.30668 0.0
C341 C 0.95349 0.44705 0.32321 0.0
C342 C 0.97625 0.45023 0.34024 0.0
C343 C 0.99207 0.46853 0.34073 0.0
C344 C 1.00305 0.50319 0.32383 0.0
C345 C 0.98753 0.52147 0.32434 0.0
C346 C 0.03448 0.50369 0.3233 0.0
C347 C 0.05205 0.48495 0.321 0.0
C348 C 0.047 0.47194 0.30165 0.0
C349 C 0.06277 0.45396 0.2999 0.0
C350 C 0.08406 0.44861 0.31743 0.0
C351 C 0.0894 0.46187 0.3366 0.0
C352 C 0.07363 0.47989 0.3383 0.0
C353 C 0.05092 0.56005 0.32258 0.0
C354 C 0.07301 0.56447 0.33975 0.0
C355 C 0.08789 0.58313 0.33937 0.0
C356 C 0.08096 0.59774 0.3218 0.0
C357 C 0.0594 0.59306 0.30424 0.0
C358 C 0.04473 0.57435 0.30451 0.0
C359 C 0.03389 0.54071 0.32388 0.0
C360 C 0.04946 0.52242 0.32373 0.0
C361 C 1.00243 0.54022 0.32437 0.0
C362 C 0.9845 0.55898 0.32484 0.0
C363 C 0.98994 0.57393 0.3421 0.0
C364 C 0.97369 0.59184 0.34175 0.0
C365 C 0.95129 0.59499 0.3244 0.0
C366 C 0.94548 0.57982 0.30747 0.0
C367 C 0.96191 0.56204 0.30768 0.0
H368 H 0.06916 0.54835 0.66919 0.0
H369 H 0.10139 0.57829 0.66985 0.0
H370 H 0.06325 0.59606 0.73683 0.0
H371 H 0.03117 0.56604 0.73614 0.0
H372 H 0.0685 0.51764 0.69981 0.0
H373 H 0.99644 0.56649 0.67246 0.0
H374 H 0.9686 0.59798 0.67448 0.0
H375 H 0.93326 0.57907 0.74265 0.0
H376 H 0.96152 0.5478 0.74071 0.0
H377 H 0.95863 0.4861 0.73901 0.0
H378 H 0.92981 0.45459 0.73983 0.0
H379 H 0.96864 0.43721 0.67295 0.0
H380 H 0.99742 0.46869 0.67227 0.0
H381 H 0.95918 0.51722 0.70868 0.0
H382 H 0.02968 0.4684 0.73604 0.0
H383 H 0.06113 0.43853 0.73703 0.0
H384 H 0.10082 0.45763 0.67054 0.0
H385 H 0.06922 0.48742 0.66957 0.0
C386 C 0.04756 0.55498 0.70251 0.0
C387 C 0.06761 0.55876 0.68395 0.0
C388 C 0.08607 0.57585 0.68438 0.0
C389 C 0.08492 0.58954 0.70342 0.0
C390 C 0.06439 0.58596 0.72175 0.0
C391 C 0.04602 0.56879 0.72137 0.0
C392 C 0.02962 0.536 0.70279 0.0
C393 C 0.04452 0.51755 0.70129 0.0
C394 C 0.99845 0.53588 0.70559 0.0
C395 C 0.98125 0.55486 0.70653 0.0
C396 C 0.98281 0.56919 0.68789 0.0
C397 C 0.96674 0.58711 0.68899 0.0
C398 C 0.94883 0.59106 0.70878 0.0
C399 C 0.94718 0.5766 0.72733 0.0
C400 C 0.96311 0.55865 0.72616 0.0
C401 C 0.98044 0.47971 0.70571 0.0
C402 C 0.96087 0.47552 0.72449 0.0
C403 C 0.94436 0.45751 0.72491 0.0
C404 C 0.94698 0.44332 0.7065 0.0
C405 C 0.96646 0.44763 0.68762 0.0
C406 C 0.9829 0.46566 0.68719 0.0
C407 C 0.99807 0.49882 0.70538 0.0
C408 C 0.98313 0.51729 0.70698 0.0
C409 C 0.02928 0.49897 0.70274 0.0
C410 C 0.04692 0.48012 0.70264 0.0
C411 C 0.04476 0.46598 0.72145 0.0
C412 C 0.06276 0.4489 0.72199 0.0
C413 C 0.08352 0.44574 0.70388 0.0
C414 C 0.0853 0.45976 0.6849 0.0
C415 C 0.06721 0.47677 0.6843 0.0
H416 H 0.21012 0.98858 0.55934 0.0
H417 H 0.21154 0.95732 0.58278 0.0
H418 H 0.29115 0.93993 0.54632 0.0
H419 H 0.29032 0.97169 0.52371 0.0
H420 H 0.24744 0.01918 0.55853 0.0
H421 H 0.20995 0.97237 0.49949 0.0
H422 H 0.21041 0.94199 0.47485 0.0
H423 H 0.29268 0.9622 0.44336 0.0
H424 H 0.29235 0.99234 0.46833 0.0
H425 H 0.28816 0.05479 0.46906 0.0
H426 H 0.28603 0.08719 0.44765 0.0
H427 H 0.20526 0.10145 0.48433 0.0
H428 H 0.20736 0.06903 0.50548 0.0
H429 H 0.25221 0.02276 0.47003 0.0
H430 H 0.2875 0.07088 0.52826 0.0
H431 H 0.28649 0.10075 0.5537 0.0
H432 H 0.20677 0.07789 0.58697 0.0
H433 H 0.2079 0.04813 0.56153 0.0
C434 C 0.24994 0.98245 0.53956 0.0
C435 C 0.22791 0.97805 0.55641 0.0
C436 C 0.22861 0.96005 0.56966 0.0
C437 C 0.25139 0.94601 0.5664 0.0
C438 C 0.27343 0.95046 0.54948 0.0
C439 C 0.27279 0.96852 0.53629 0.0
C440 C 0.24948 1.00196 0.52613 0.0
C441 C 0.24805 0.01995 0.53915 0.0
C442 C 0.25112 1.00299 0.50086 0.0
C443 C 0.25126 0.98455 0.48591 0.0
C444 C 0.22819 0.97018 0.4874 0.0
C445 C 0.22836 0.95289 0.47318 0.0
C446 C 0.25163 0.94964 0.4572 0.0
C447 C 0.27465 0.96411 0.45572 0.0
C448 C 0.27437 0.98142 0.46984 0.0
C449 C 0.24818 0.05956 0.48917 0.0
C450 C 0.26992 0.06485 0.4724 0.0
C451 C 0.26864 0.08336 0.46014 0.0
C452 C 0.24557 0.09696 0.4644 0.0
C453 C 0.22361 0.09149 0.48095 0.0
C454 C 0.22479 0.07294 0.49307 0.0
C455 C 0.24979 0.04 0.50245 0.0
C456 C 0.25157 0.022 0.48941 0.0
C457 C 0.24832 0.03894 0.52774 0.0
C458 C 0.24765 0.0573 0.54284 0.0
C459 C 0.26965 0.0724 0.54088 0.0
C460 C 0.26904 0.08948 0.55543 0.0
C461 C 0.24657 0.0917 0.5724 0.0
C462 C 0.22461 0.07653 0.57433 0.0
C463 C 0.22518 0.05952 0.55974 0.0
H464 H 0.46534 0.81289 0.97905 0.0
H465 H 0.43344 0.81528 0.94356 0.0
H466 H 0.46472 0.75731 0.92013 0.0
H467 H 0.49725 0.75534 0.95547 0.0
H468 H 0.46422 0.78466 0.01449 0.0
H469 H 0.53253 0.81005 0.95754 0.0
H470 H 0.55912 0.81155 0.91982 0.0
H471 H 0.59876 0.75384 0.93618 0.0
H472 H 0.57196 0.75242 0.97402 0.0
H473 H 0.57521 0.75048 0.04914 0.0
H474 H 0.60701 0.75024 0.08496 0.0
H475 H 0.56964 0.80696 0.10653 0.0
H476 H 0.53784 0.80703 0.07082 0.0
H477 H 0.57341 0.77673 1.01249 0.0
H478 H 0.50412 0.75383 0.0725 0.0
H479 H 0.47225 0.75328 0.10766 0.0
H480 H 0.43362 0.80974 0.08463 0.0
H481 H 0.46556 0.81029 0.04968 0.0
C482 C 0.48372 0.78397 0.96989 0.0
C483 C 0.46537 0.80072 0.96623 0.0
C484 C 0.44701 0.802 0.94596 0.0
C485 C 0.44628 0.78641 0.929 0.0
C486 C 0.46494 0.76971 0.93263 0.0
C487 C 0.4835 0.76852 0.95287 0.0
C488 C 0.50229 0.78247 0.99196 0.0
C489 C 0.48816 0.78318 0.01412 0.0
C490 C 0.53343 0.7801 0.99133 0.0
C491 C 0.54987 0.78097 0.96847 0.0
C492 C 0.54668 0.7976 0.95291 0.0
C493 C 0.5619 0.79843 0.93132 0.0
C494 C 0.58092 0.78274 0.9249 0.0
C495 C 0.58445 0.76624 0.94068 0.0
C496 C 0.5691 0.76538 0.96227 0.0
C497 C 0.55388 0.77865 0.05739 0.0
C498 C 0.57382 0.76282 0.06164 0.0
C499 C 0.59206 0.76275 0.08209 0.0
C500 C 0.59086 0.77857 0.09867 0.0
C501 C 0.57078 0.79436 0.09438 0.0
C502 C 0.55258 0.79443 0.07393 0.0
C503 C 0.53531 0.77906 0.03521 0.0
C504 C 0.54946 0.77811 0.01296 0.0
C505 C 0.50416 0.78158 0.03577 0.0
C506 C 0.48728 0.78211 0.05842 0.0
C507 C 0.48924 0.7663 0.07528 0.0
C508 C 0.47099 0.76599 0.09536 0.0
C509 C 0.45025 0.78139 0.09879 0.0
C510 C 0.44905 0.79751 0.08229 0.0
C511 C 0.46735 0.79786 0.06234 0.0
H512 H 0.74459 0.98775 0.5648 0.0
H513 H 0.74567 0.95744 0.59008 0.0
H514 H 0.82672 0.93911 0.55653 0.0
H515 H 0.82564 0.96954 0.53137 0.0
H516 H 0.78161 0.01854 0.56213 0.0
H517 H 0.74625 0.96807 0.50792 0.0
H518 H 0.74743 0.93605 0.48656 0.0
H519 H 0.82767 0.95545 0.45131 0.0
H520 H 0.8265 0.98743 0.47288 0.0
H521 H 0.82504 0.04911 0.4714 0.0
H522 H 0.82367 0.07985 0.44686 0.0
H523 H 0.74221 0.09702 0.48073 0.0
H524 H 0.74311 0.06589 0.5045 0.0
H525 H 0.78811 0.0175 0.4737 0.0
H526 H 0.82211 0.06877 0.52916 0.0
H527 H 0.82075 0.09948 0.55319 0.0
H528 H 0.74006 0.07801 0.58617 0.0
H529 H 0.74157 0.04742 0.5622 0.0
C530 C 0.78488 0.98089 0.54601 0.0
C531 C 0.76263 0.97722 0.56289 0.0
C532 C 0.7633 0.9599 0.57738 0.0
C533 C 0.78628 0.94585 0.57533 0.0
C534 C 0.80849 0.94949 0.55833 0.0
C535 C 0.8079 0.96689 0.54393 0.0
C536 C 0.78437 0.99965 0.53112 0.0
C537 C 0.78261 0.01831 0.54276 0.0
C538 C 0.78635 0.99934 0.50585 0.0
C539 C 0.78654 0.98008 0.4923 0.0
C540 C 0.76424 0.96538 0.49574 0.0
C541 C 0.76494 0.94707 0.48351 0.0
C542 C 0.78774 0.94314 0.46732 0.0
C543 C 0.80967 0.95806 0.4635 0.0
C544 C 0.80906 0.97634 0.47585 0.0
C545 C 0.78437 0.05525 0.49002 0.0
C546 C 0.80682 0.05946 0.47347 0.0
C547 C 0.80614 0.07715 0.45959 0.0
C548 C 0.7829 0.091 0.46187 0.0
C549 C 0.7603 0.08664 0.47833 0.0
C550 C 0.76096 0.06893 0.49215 0.0
C551 C 0.78522 0.03642 0.50474 0.0
C552 C 0.7871 0.01774 0.49307 0.0
C553 C 0.78306 0.03669 0.53 0.0
C554 C 0.78186 0.05579 0.54376 0.0
C555 C 0.80395 0.07079 0.54137 0.0
C556 C 0.80314 0.08835 0.55512 0.0
C557 C 0.78038 0.09116 0.57171 0.0
C558 C 0.75818 0.07618 0.57387 0.0
C559 C 0.75895 0.0587 0.5601 0.0
H560 H 0.46385 0.28527 0.97536 0.0
H561 H 0.43631 0.28336 0.93738 0.0
H562 H 0.48158 0.22812 0.92077 0.0
H563 H 0.50908 0.23021 0.95861 0.0
H564 H 0.46611 0.25976 0.01359 0.0
H565 H 0.53514 0.28585 0.95577 0.0
H566 H 0.56502 0.28593 0.9196 0.0
H567 H 0.61116 0.23307 0.9457 0.0
H568 H 0.58039 0.23261 0.98132 0.0
H569 H 0.57928 0.23243 0.05101 0.0
H570 H 0.60707 0.23139 0.08885 0.0
H571 H 0.56005 0.28379 0.11283 0.0
H572 H 0.53266 0.28503 0.07474 0.0
H573 H 0.57615 0.25879 0.01612 0.0
H574 H 0.50617 0.22983 0.07074 0.0
H575 H 0.47813 0.22821 0.10778 0.0
H576 H 0.43535 0.28432 0.08874 0.0
H577 H 0.46339 0.28573 0.05152 0.0
C578 C 0.48882 0.25804 0.96969 0.0
C579 C 0.46776 0.27274 0.96354 0.0
C580 C 0.45198 0.27159 0.94185 0.0
C581 C 0.45685 0.25565 0.92595 0.0
C582 C 0.47768 0.24081 0.93237 0.0
C583 C 0.49339 0.24196 0.95403 0.0
C584 C 0.50585 0.25937 0.99258 0.0
C585 C 0.49018 0.25987 0.01413 0.0
C586 C 0.53727 0.25899 0.9933 0.0
C587 C 0.5553 0.25911 0.97121 0.0
C588 C 0.55143 0.27412 0.95356 0.0
C589 C 0.56876 0.27427 0.93298 0.0
C590 C 0.59052 0.2595 0.9297 0.0
C591 C 0.59433 0.2445 0.94744 0.0
C592 C 0.57695 0.24433 0.96795 0.0
C593 C 0.5536 0.25867 0.06007 0.0
C594 C 0.57509 0.24381 0.06432 0.0
C595 C 0.59099 0.24323 0.08594 0.0
C596 C 0.58567 0.25747 0.10384 0.0
C597 C 0.56434 0.27245 0.0995 0.0
C598 C 0.54865 0.27315 0.07775 0.0
C599 C 0.53645 0.25891 0.03713 0.0
C600 C 0.55208 0.25876 0.01557 0.0
C601 C 0.50502 0.25933 0.03639 0.0
C602 C 0.48716 0.25804 0.0585 0.0
C603 C 0.49083 0.24182 0.07458 0.0
C604 C 0.47484 0.24095 0.0958 0.0
C605 C 0.45465 0.25622 0.10135 0.0
C606 C 0.45053 0.27223 0.08494 0.0
C607 C 0.46658 0.27309 0.06369 0.0
H608 H 0.13718 0.36184 0.30023 0.0
H609 H 0.21684 0.39217 0.32512 0.0
H610 H 0.18911 0.42317 0.33086 0.0
H611 H 0.14271 0.4421 0.32732 0.0
H612 H 0.06269 0.41161 0.30339 0.0
H613 H 0.09011 0.38034 0.29873 0.0
C614 C 0.14839 0.37514 0.30725 0.0
C615 C 0.17912 0.37466 0.31209 0.0
C616 C 0.1323 0.39298 0.31049 0.0
C617 C 0.19332 0.39216 0.32089 0.0
C618 C 0.17745 0.4099 0.32427 0.0
C619 C 0.13113 0.42856 0.3214 0.0
C620 C 0.10066 0.42933 0.31558 0.0
C621 C 0.147 0.41055 0.31888 0.0
C622 C 0.08622 0.41163 0.3076 0.0
C623 C 0.10185 0.39366 0.30507 0.0
H624 H 0.19084 0.65281 0.70778 0.0
H625 H 0.12031 0.69173 0.72983 0.0
H626 H 0.08441 0.66408 0.72497 0.0
H627 H 0.07329 0.62845 0.71568 0.0
H628 H 0.14419 0.58957 0.69422 0.0
H629 H 0.17961 0.61756 0.6976 0.0
C630 C 0.16762 0.65522 0.7116 0.0
C631 C 0.15832 0.67429 0.71926 0.0
C632 C 0.14713 0.63924 0.70889 0.0
C633 C 0.12805 0.67726 0.72372 0.0
C634 C 0.10752 0.66142 0.72109 0.0
C635 C 0.09651 0.62611 0.71182 0.0
C636 C 0.10604 0.60693 0.70472 0.0
C637 C 0.11685 0.64229 0.71389 0.0
C638 C 0.13616 0.60422 0.69945 0.0
C639 C 0.15649 0.62019 0.70152 0.0
H640 H 0.89742 0.68282 0.31734 0.0
H641 H 0.81688 0.64785 0.30745 0.0
H642 H 0.84453 0.61665 0.31259 0.0
H643 H 0.89172 0.59914 0.31852 0.0
H644 H 0.97246 0.63371 0.32867 0.0
H645 H 0.94457 0.66515 0.32535 0.0
C646 C 0.88587 0.66838 0.31664 0.0
C647 C 0.85513 0.66773 0.31172 0.0
C648 C 0.90195 0.65039 0.31966 0.0
C649 C 0.84059 0.64884 0.31072 0.0
C650 C 0.85636 0.63095 0.31377 0.0
C651 C 0.90322 0.61356 0.31995 0.0
C652 C 0.93414 0.61407 0.32368 0.0
C653 C 0.88709 0.63154 0.31791 0.0
C654 C 0.94864 0.63288 0.32595 0.0
C655 C 0.93272 0.65087 0.32392 0.0
H656 H 0.85512 0.37048 0.71177 0.0
H657 H 0.93172 0.33776 0.68859 0.0
H658 H 0.96111 0.36894 0.68847 0.0
H659 H 0.96527 0.40549 0.69525 0.0
H660 H 0.88872 0.4382 0.71851 0.0
H661 H 0.8594 0.40697 0.71889 0.0
C662 C 0.87832 0.37012 0.70692 0.0
C663 C 0.89111 0.35175 0.70013 0.0
C664 C 0.89519 0.38811 0.70702 0.0
C665 C 0.92113 0.35168 0.69355 0.0
C666 C 0.93803 0.36951 0.69362 0.0
C667 C 0.9421 0.40582 0.70022 0.0
C668 C 0.92926 0.4242 0.70683 0.0
C669 C 0.92529 0.38781 0.70026 0.0
C670 C 0.89932 0.42426 0.71361 0.0
C671 C 0.88246 0.40642 0.7137 0.0
H672 H 0.23454 0.18678 0.42597 0.0
H673 H 0.25606 0.15785 0.35965 0.0
H674 H 0.25962 0.12534 0.38036 0.0
H675 H 0.25549 0.10488 0.41717 0.0
H676 H 0.23305 0.13375 0.48329 0.0
H677 H 0.23032 0.16637 0.46268 0.0
C678 C 0.23973 0.17335 0.41596 0.0
C679 C 0.24504 0.17486 0.39123 0.0
C680 C 0.24141 0.15462 0.42794 0.0
C681 C 0.25226 0.15727 0.37872 0.0
C682 C 0.25411 0.13861 0.39054 0.0
C683 C 0.25025 0.11835 0.42711 0.0
C684 C 0.24441 0.11683 0.45174 0.0
C685 C 0.24869 0.13709 0.41513 0.0
C686 C 0.23726 0.13441 0.46427 0.0
C687 C 0.23584 0.15311 0.45252 0.0
H688 H 0.34562 0.79872 0.85035 0.0
H689 H 0.41183 0.77212 0.80585 0.0
H690 H 0.44544 0.76897 0.84038 0.0
H691 H 0.45653 0.77476 0.88301 0.0
H692 H 0.38937 0.80038 0.9276 0.0
H693 H 0.35597 0.80331 0.89317 0.0
C694 C 0.36747 0.79232 0.8482 0.0
C695 C 0.37627 0.78575 0.82556 0.0
C696 C 0.38662 0.79052 0.86812 0.0
C697 C 0.40445 0.77716 0.82313 0.0
C698 C 0.42373 0.77545 0.84284 0.0
C699 C 0.43447 0.78077 0.88529 0.0
C700 C 0.42571 0.78752 0.90793 0.0
C701 C 0.4151 0.78216 0.86542 0.0
C702 C 0.39707 0.79547 0.91037 0.0
C703 C 0.3778 0.79702 0.89069 0.0
H704 H 0.78717 0.85352 0.42874 0.0
H705 H 0.80948 0.88479 0.36327 0.0
H706 H 0.80768 0.91715 0.38378 0.0
H707 H 0.79981 0.93665 0.42035 0.0
H708 H 0.77793 0.90537 0.48591 0.0
H709 H 0.77952 0.87301 0.46536 0.0
C710 C 0.79188 0.8674 0.41901 0.0
C711 C 0.79846 0.86669 0.39448 0.0
C712 C 0.79081 0.88599 0.43093 0.0
C713 C 0.80403 0.88489 0.38207 0.0
C714 C 0.80315 0.90341 0.39382 0.0
C715 C 0.79562 0.92274 0.43018 0.0
C716 C 0.78876 0.92347 0.45465 0.0
C717 C 0.79659 0.90415 0.41825 0.0
C718 C 0.78293 0.90529 0.46702 0.0
C719 C 0.78399 0.88675 0.45531 0.0
H720 H 0.67422 0.24703 0.84108 0.0
H721 H 0.67929 0.31204 0.8454 0.0
H722 H 0.64544 0.3114 0.87904 0.0
H723 H 0.61545 0.29244 0.90798 0.0
H724 H 0.6089 0.22753 0.90306 0.0
H725 H 0.64217 0.22813 0.86894 0.0
C726 C 0.66764 0.26108 0.84918 0.0
C727 C 0.67954 0.27954 0.84078 0.0
C728 C 0.64797 0.26064 0.86851 0.0
C729 C 0.67097 0.29757 0.85173 0.0
C730 C 0.65144 0.29725 0.87091 0.0
C731 C 0.62092 0.27843 0.89925 0.0
C732 C 0.6097 0.25997 0.90819 0.0
C733 C 0.63996 0.27887 0.87956 0.0
C734 C 0.61752 0.24195 0.89683 0.0
C735 C 0.63644 0.24228 0.87721 0.0
H736 H 0.27577 0.8677 0.62932 0.0
H737 H 0.18043 0.86264 0.62299 0.0
H738 H 0.17912 0.89335 0.59861 0.0
H739 H 0.20489 0.92161 0.57895 0.0
H740 H 0.30002 0.92754 0.58641 0.0
H741 H 0.30152 0.89652 0.61031 0.0
C742 C 0.25468 0.87342 0.6228 0.0
C743 C 0.22827 0.86277 0.62795 0.0
C744 C 0.25403 0.89121 0.60886 0.0
C745 C 0.20117 0.8703 0.61904 0.0
C746 C 0.20036 0.88795 0.60518 0.0
C747 C 0.22595 0.91626 0.58599 0.0
C748 C 0.25229 0.92697 0.58082 0.0
C749 C 0.22664 0.89852 0.59996 0.0
C750 C 0.27941 0.91951 0.58977 0.0
C751 C 0.28028 0.90182 0.60361 0.0
H752 H 0.69237 0.77842 0.17807 0.0
H753 H 0.62027 0.79949 0.22094 0.0
H754 H 0.5865 0.79706 0.18656 0.0
H755 H 0.57746 0.78932 0.14421 0.0
H756 H 0.64961 0.76859 0.10116 0.0
H757 H 0.68305 0.77001 0.13584 0.0
C758 C 0.66919 0.78226 0.17996 0.0
C759 C 0.65895 0.78924 0.20206 0.0
C760 C 0.64983 0.78081 0.1601 0.0
C761 C 0.62889 0.79439 0.20407 0.0
C762 C 0.6095 0.7929 0.18445 0.0
C763 C 0.60054 0.78523 0.14236 0.0
C764 C 0.61095 0.77889 0.12005 0.0
C765 C 0.61977 0.78628 0.16233 0.0
C766 C 0.64085 0.77329 0.11814 0.0
C767 C 0.66008 0.77423 0.13794 0.0
H768 H 0.77986 0.17617 0.62304 0.0
H769 H 0.75584 0.13804 0.68291 0.0
H770 H 0.759 0.10822 0.65791 0.0
H771 H 0.76803 0.09285 0.6191 0.0
H772 H 0.79197 0.13054 0.5589 0.0
H773 H 0.7901 0.16052 0.58408 0.0
C774 C 0.7756 0.16132 0.63066 0.0
C775 C 0.76733 0.15942 0.6548 0.0
C776 C 0.77753 0.14411 0.61614 0.0
C777 C 0.76169 0.14003 0.6643 0.0
C778 C 0.76365 0.12292 0.65005 0.0
C779 C 0.77261 0.10764 0.6114 0.0
C780 C 0.77993 0.10942 0.58708 0.0
C781 C 0.7713 0.12479 0.62592 0.0
C782 C 0.78646 0.12869 0.57759 0.0
C783 C 0.78525 0.14586 0.59196 0.0
H784 H 0.40263 0.24635 0.20537 0.0
H785 H 0.32313 0.266 0.16859 0.0
H786 H 0.3504 0.26916 0.13123 0.0
H787 H 0.39644 0.26515 0.10867 0.0
H788 H 0.47592 0.2456 0.14566 0.0
H789 H 0.44887 0.24318 0.1831 0.0
C790 C 0.39122 0.2512 0.18915 0.0
C791 C 0.36084 0.25586 0.1898 0.0
C792 C 0.40698 0.25286 0.1677 0.0
C793 C 0.34655 0.2625 0.16868 0.0
C794 C 0.36209 0.26419 0.14726 0.0
C795 C 0.40794 0.26057 0.12497 0.0
C796 C 0.43815 0.25543 0.12425 0.0
C797 C 0.39228 0.25931 0.14653 0.0
C798 C 0.45256 0.2493 0.14555 0.0
C799 C 0.43716 0.24803 0.16703 0.0
H800 H 0.86622 0.66752 0.69954 0.0
H801 H 0.89354 0.67372 0.77342 0.0
H802 H 0.9246 0.64395 0.77035 0.0
H803 H 0.94306 0.6156 0.74711 0.0
H804 H 0.91613 0.60924 0.67322 0.0
H805 H 0.88645 0.63983 0.67573 0.0
C806 C 0.87928 0.66252 0.71487 0.0
C807 C 0.87729 0.67277 0.73674 0.0
C808 C 0.8972 0.64534 0.713 0.0
C809 C 0.8942 0.66593 0.75649 0.0
C810 C 0.91209 0.64895 0.75474 0.0
C811 C 0.93059 0.62087 0.73158 0.0
C812 C 0.93169 0.61008 0.71006 0.0
C813 C 0.91348 0.63839 0.73318 0.0
C814 C 0.91585 0.61733 0.68997 0.0
C815 C 0.89874 0.63477 0.69142 0.0
H816 H 0.90103 0.35823 0.31587 0.0
H817 H 0.81951 0.39149 0.30876 0.0
H818 H 0.84676 0.42321 0.31371 0.0
H819 H 0.89385 0.44169 0.31867 0.0
H820 H 0.97551 0.40875 0.32613 0.0
H821 H 0.94809 0.37677 0.32295 0.0
C822 C 0.88918 0.3724 0.31575 0.0
C823 C 0.85827 0.37244 0.31167 0.0
C824 C 0.90503 0.39067 0.31865 0.0
C825 C 0.84334 0.391 0.31139 0.0
C826 C 0.85889 0.40917 0.31432 0.0
C827 C 0.90564 0.4275 0.31954 0.0
C828 C 0.93668 0.42761 0.32247 0.0
C829 C 0.88976 0.40921 0.31762 0.0
C830 C 0.9516 0.40909 0.32402 0.0
C831 C 0.93594 0.3908 0.32208 0.0
H832 H 0.18816 0.38306 0.70971 0.0
H833 H 0.11647 0.34336 0.73085 0.0
H834 H 0.08113 0.37084 0.72537 0.0
H835 H 0.07087 0.40655 0.71592 0.0
H836 H 0.14295 0.44619 0.6954 0.0
H837 H 0.17778 0.41837 0.69926 0.0
C838 C 0.16481 0.38044 0.71319 0.0
C839 C 0.15501 0.36121 0.7208 0.0
C840 C 0.14466 0.39632 0.71013 0.0
C841 C 0.12458 0.35797 0.7248 0.0
C842 C 0.10438 0.37371 0.72182 0.0
C843 C 0.09422 0.40908 0.71236 0.0
C844 C 0.10426 0.42844 0.7054 0.0
C845 C 0.11421 0.393 0.71471 0.0
C846 C 0.13454 0.43141 0.70051 0.0
C847 C 0.15452 0.41553 0.70286 0.0
H848 H 0.12363 0.68913 0.32154 0.0
H849 H 0.20824 0.66092 0.33445 0.0
H850 H 0.18455 0.62758 0.33315 0.0
H851 H 0.13971 0.60637 0.32861 0.0
H852 H 0.05509 0.63455 0.31567 0.0
H853 H 0.07882 0.6679 0.31667 0.0
C854 C 0.13683 0.67568 0.32422 0.0
C855 C 0.16766 0.67753 0.32812 0.0
C856 C 0.12307 0.65653 0.32339 0.0
C857 C 0.18453 0.65993 0.33119 0.0
C858 C 0.17098 0.64085 0.33056 0.0
C859 C 0.12646 0.61983 0.32615 0.0
C860 C 0.09568 0.61796 0.32209 0.0
C861 C 0.14026 0.63897 0.32672 0.0
C862 C 0.07887 0.63554 0.31857 0.0
C863 C 0.0924 0.65463 0.31927 0.0
H864 H 0.78702 0.87796 0.65576 0.0
H865 H 0.80992 0.84126 0.59548 0.0
H866 H 0.80778 0.87083 0.56917 0.0
H867 H 0.7992 0.90716 0.56313 0.0
H868 H 0.77577 0.94376 0.62331 0.0
H869 H 0.77765 0.91414 0.64961 0.0
C870 C 0.79123 0.87636 0.63682 0.0
C871 C 0.79874 0.85736 0.6277 0.0
C872 C 0.78975 0.89343 0.6217 0.0
C873 C 0.80454 0.85571 0.60313 0.0
C874 C 0.80316 0.87261 0.588 0.0
C875 C 0.79471 0.90867 0.58203 0.0
C876 C 0.78734 0.92767 0.5912 0.0
C877 C 0.7959 0.89156 0.5971 0.0
C878 C 0.78115 0.92929 0.61569 0.0
C879 C 0.78238 0.91237 0.63079 0.0
H880 H 0.63704 0.25329 0.20965 0.0
H881 H 0.71843 0.24486 0.17145 0.0
H882 H 0.69158 0.24768 0.13334 0.0
H883 H 0.64489 0.25212 0.11081 0.0
H884 H 0.56345 0.26078 0.14883 0.0
H885 H 0.59036 0.25838 0.18702 0.0
C886 C 0.64883 0.25197 0.19296 0.0
C887 C 0.67966 0.24882 0.19339 0.0
C888 C 0.63326 0.25369 0.17109 0.0
C889 C 0.69474 0.24746 0.17162 0.0
C890 C 0.67939 0.24898 0.14982 0.0
C891 C 0.63303 0.25338 0.12747 0.0
C892 C 0.60221 0.25654 0.12699 0.0
C893 C 0.64864 0.25203 0.14933 0.0
C894 C 0.58721 0.2585 0.14872 0.0
C895 C 0.60256 0.25702 0.17056 0.0
H896 H 0.23602 0.15865 0.65174 0.0
H897 H 0.2586 0.19723 0.59195 0.0
H898 H 0.2617 0.1678 0.5661 0.0
H899 H 0.25698 0.13112 0.56025 0.0
H900 H 0.23498 0.09256 0.62023 0.0
H901 H 0.23272 0.12193 0.64617 0.0
C902 C 0.24197 0.1606 0.63312 0.0
C903 C 0.24701 0.18014 0.62381 0.0
C904 C 0.24368 0.14361 0.61834 0.0
C905 C 0.25424 0.1824 0.59953 0.0
C906 C 0.25615 0.16556 0.58475 0.0
C907 C 0.25201 0.12912 0.57906 0.0
C908 C 0.24605 0.10965 0.58822 0.0
C909 C 0.25076 0.1461 0.59392 0.0
C910 C 0.23924 0.10739 0.61259 0.0
C911 C 0.23809 0.12417 0.62749 0.0
H912 H 0.34251 0.77755 0.16985 0.0
H913 H 0.41217 0.76063 0.21949 0.0
H914 H 0.44887 0.76428 0.18785 0.0
H915 H 0.46096 0.77149 0.14566 0.0
H916 H 0.39086 0.78824 0.09628 0.0
H917 H 0.35462 0.78543 0.12817 0.0
C918 C 0.36571 0.77458 0.17371 0.0
C919 C 0.37456 0.76873 0.19695 0.0
C920 C 0.38664 0.77667 0.15546 0.0
C921 C 0.4048 0.7653 0.20179 0.0
C922 C 0.42577 0.76727 0.18367 0.0
C923 C 0.43773 0.77446 0.14191 0.0
C924 C 0.42866 0.7801 0.11863 0.0
C925 C 0.41692 0.77281 0.16038 0.0
C926 C 0.39852 0.78413 0.1141 0.0
C927 C 0.37773 0.78242 0.13229 0.0
H928 H 0.75885 0.16928 0.39879 0.0
H929 H 0.85359 0.17606 0.40843 0.0
H930 H 0.85496 0.14495 0.43213 0.0
H931 H 0.8293 0.11597 0.45053 0.0
H932 H 0.73478 0.10858 0.44001 0.0
H933 H 0.73334 0.13973 0.41634 0.0
C934 C 0.77984 0.16385 0.40586 0.0
C935 C 0.80605 0.1751 0.40187 0.0
C936 C 0.78052 0.14586 0.41944 0.0
C937 C 0.83299 0.16793 0.41149 0.0
C938 C 0.83384 0.15005 0.42496 0.0
C939 C 0.80841 0.12103 0.44285 0.0
C940 C 0.78219 0.10989 0.44714 0.0
C941 C 0.80775 0.13892 0.42911 0.0
C942 C 0.75526 0.11694 0.43733 0.0
C943 C 0.75443 0.13472 0.42364 0.0
H944 H 0.40483 0.24459 0.82118 0.0
H945 H 0.32452 0.2622 0.8562 0.0
H946 H 0.35181 0.26589 0.89398 0.0
H947 H 0.39819 0.26308 0.9174 0.0
H948 H 0.47845 0.24545 0.88229 0.0
H949 H 0.45133 0.24238 0.8444 0.0
C950 C 0.39324 0.2491 0.83712 0.0
C951 C 0.36264 0.25307 0.83582 0.0
C952 C 0.40902 0.25105 0.85883 0.0
C953 C 0.34811 0.25925 0.85659 0.0
C954 C 0.36367 0.26125 0.87825 0.0
C955 C 0.40983 0.25878 0.90141 0.0
C956 C 0.44032 0.25441 0.90277 0.0
C957 C 0.39411 0.25712 0.87961 0.0
C958 C 0.45492 0.2486 0.88188 0.0
C959 C 0.43946 0.24694 0.86016 0.0
H960 H 0.23357 0.87716 0.38517 0.0
H961 H 0.32677 0.8698 0.40126 0.0
H962 H 0.32546 0.89796 0.429 0.0
H963 H 0.29834 0.92537 0.44787 0.0
H964 H 0.20517 0.93291 0.43203 0.0
H965 H 0.20584 0.90378 0.40549 0.0
C966 C 0.25349 0.88154 0.39499 0.0
C967 C 0.28029 0.87146 0.39092 0.0
C968 C 0.25261 0.89781 0.41099 0.0
C969 C 0.30595 0.87749 0.40369 0.0
C970 C 0.30522 0.89356 0.41965 0.0
C971 C 0.2782 0.92068 0.43854 0.0
C972 C 0.2518 0.93139 0.44185 0.0
C973 C 0.27878 0.904 0.42321 0.0
C974 C 0.22576 0.92486 0.42996 0.0
C975 C 0.22616 0.90826 0.41467 0.0
H976 H 0.63224 0.79443 0.82088 0.0
H977 H 0.71153 0.77322 0.85672 0.0
H978 H 0.68445 0.76943 0.89404 0.0
H979 H 0.63865 0.77321 0.91691 0.0
H980 H 0.55946 0.79463 0.8811 0.0
H981 H 0.58624 0.79763 0.84355 0.0
C982 C 0.64366 0.78911 0.83689 0.0
C983 C 0.67391 0.78415 0.83594 0.0
C984 C 0.62801 0.78711 0.85837 0.0
C985 C 0.68819 0.77694 0.85681 0.0
C986 C 0.67276 0.77488 0.87823 0.0
C987 C 0.62716 0.77832 0.90083 0.0
C988 C 0.59711 0.78377 0.90188 0.0
C989 C 0.6427 0.77999 0.87925 0.0
C990 C 0.58269 0.79062 0.88091 0.0
C991 C 0.59795 0.79224 0.85938 0.0
loop_
_geom_bond_atom_site_label_1
_geom_bond_atom_site_label_2
_geom_bond_distance
_geom_bond_site_symmetry_2
_ccdc_geom_bond_type
C0 C1 1.264 . S
C0 C5 1.479 . S
C0 C10 1.465 . S
C1 C0 1.264 . S
C1 C3 1.339 . S
C1 H28 0.931 . S
C2 C3 1.395 . S
C2 C4 1.320 . S
C3 C1 1.339 . S
C3 C2 1.395 . S
C3 H29 0.929 . S
C4 C2 1.320 . S
C4 C5 1.405 . S
C4 H30 0.930 . S
C5 C0 1.479 . S
C5 C4 1.405 . S
C5 H31 0.931 . S
U6 O7 2.454 . S
U6 O8 2.458 . S
U6 C9 2.984 . S
U6 C10 2.847 . S
U6 C23 2.882 . S
U6 O24 2.441 . S
U6 O25 2.420 . S
U6 O26 2.455 . S
U6 O27 2.449 . S
O7 U6 2.454 . S
O7 C9 1.353 . S
O8 U6 2.458 . S
O8 C9 1.286 . S
C9 U6 2.984 . S
C9 O7 1.353 . S
C9 O8 1.286 . S
C9 C11 1.363 . S
C10 C0 1.465 . S
C10 U6 2.847 . S
C10 O24 1.249 . S
C10 O25 1.202 . S
C11 C9 1.363 . S
C11 C13 1.408 . S
C11 C16 1.342 . S
C12 C13 1.310 . S
C12 C15 1.461 . S
C12 H32 0.932 . S
C13 C11 1.408 . S
C13 C12 1.310 . S
C13 H33 0.930 . S
C14 C15 1.474 . S
C14 C16 1.285 . S
C14 H34 0.929 . S
C15 C12 1.461 . S
C15 C14 1.474 . S
C16 C11 1.342 . S
C16 C14 1.285 . S
C16 H35 0.930 . S
C17 C20 1.424 . S
C17 C22 1.245 . S
C17 C23 1.428 . S
C18 C21 1.260 . S
C18 C22 1.477 . S
C18 H36 0.932 . S
C19 C20 1.384 . S
C19 C21 1.479 . S
C19 H37 0.929 . S
C20 C17 1.424 . S
C20 C19 1.384 . S
C20 H38 0.928 . S
C21 C18 1.260 . S
C21 C19 1.479 . S
C22 C17 1.245 . S
C22 C18 1.477 . S
C22 H39 0.932 . S
C23 U6 2.882 . S
C23 C17 1.428 . S
C23 O26 1.301 . S
C23 O27 1.282 . S
O24 U6 2.441 . S
O24 C10 1.249 . S
O25 U6 2.420 . S
O25 C10 1.202 . S
O26 U6 2.455 . S
O26 C23 1.301 . S
O27 U6 2.449 . S
O27 C23 1.282 . S
H28 C1 0.931 . S
H29 C3 0.929 . S
H30 C4 0.930 . S
H31 C5 0.931 . S
H32 C12 0.932 . S
H33 C13 0.930 . S
H34 C14 0.929 . S
H35 C16 0.930 . S
H36 C18 0.932 . S
H37 C19 0.929 . S
H38 C20 0.928 . S
H39 C22 0.932 . S
C40 C41 1.264 . S
C40 C45 1.479 . S
C40 C50 1.465 . S
C41 C40 1.264 . S
C41 C43 1.339 . S
C41 H68 0.931 . S
C42 C43 1.395 . S
C42 C44 1.320 . S
C43 C41 1.339 . S
C43 C42 1.395 . S
C43 H69 0.929 . S
C44 C42 1.320 . S
C44 C45 1.405 . S
C44 H70 0.930 . S
C45 C40 1.479 . S
C45 C44 1.405 . S
C45 H71 0.931 . S
U46 O47 2.454 . S
U46 O48 2.458 . S
U46 C49 2.984 . S
U46 C50 2.847 . S
U46 C63 2.882 . S
U46 O64 2.441 . S
U46 O65 2.420 . S
U46 O66 2.455 . S
U46 O67 2.449 . S
O47 U46 2.454 . S
O47 C49 1.353 . S
O48 U46 2.458 . S
O48 C49 1.286 . S
C49 U46 2.984 . S
C49 O47 1.353 . S
C49 O48 1.286 . S
C49 C51 1.363 . S
C50 C40 1.465 . S
C50 U46 2.847 . S
C50 O64 1.249 . S
C50 O65 1.202 . S
C51 C49 1.363 . S
C51 C53 1.408 . S
C51 C56 1.342 . S
C52 C53 1.310 . S
C52 C55 1.461 . S
C52 H72 0.932 . S
C53 C51 1.408 . S
C53 C52 1.310 . S
C53 H73 0.930 . S
C54 C55 1.474 . S
C54 C56 1.285 . S
C54 H74 0.929 . S
C55 C52 1.461 . S
C55 C54 1.474 . S
C56 C51 1.342 . S
C56 C54 1.285 . S
C56 H75 0.930 . S
C57 C60 1.424 . S
C57 C62 1.245 . S
C57 C63 1.428 . S
C58 C61 1.260 . S
C58 C62 1.477 . S
C58 H76 0.932 . S
C59 C60 1.384 . S
C59 C61 1.479 . S
C59 H77 0.929 . S
C60 C57 1.424 . S
C60 C59 1.384 . S
C60 H78 0.928 . S
C61 C58 1.260 . S
C61 C59 1.479 . S
C62 C57 1.245 . S
C62 C58 1.477 . S
C62 H79 0.932 . S
C63 U46 2.882 . S
C63 C57 1.428 . S
C63 O66 1.301 . S
C63 O67 1.282 . S
O64 U46 2.441 . S
O64 C50 1.249 . S
O65 U46 2.420 . S
O65 C50 1.202 . S
O66 U46 2.455 . S
O66 C63 1.301 . S
O67 U46 2.449 . S
O67 C63 1.282 . S
H68 C41 0.931 . S
H69 C43 0.929 . S
H70 C44 0.930 . S
H71 C45 0.931 . S
H72 C52 0.932 . S
H73 C53 0.930 . S
H74 C54 0.929 . S
H75 C56 0.930 . S
H76 C58 0.932 . S
H77 C59 0.929 . S
H78 C60 0.928 . S
H79 C62 0.932 . S
C80 C81 1.264 . S
C80 C85 1.479 . S
C80 C90 1.465 . S
C81 C80 1.264 . S
C81 C83 1.339 . S
C81 H108 0.931 . S
C82 C83 1.395 . S
C82 C84 1.320 . S
C83 C81 1.339 . S
C83 C82 1.395 . S
C83 H109 0.929 . S
C84 C82 1.320 . S
C84 C85 1.405 . S
C84 H110 0.930 . S
C85 C80 1.479 . S
C85 C84 1.405 . S
C85 H111 0.931 . S
U86 O87 2.454 . S
U86 O88 2.458 . S
U86 C89 2.984 . S
U86 C90 2.847 . S
U86 C103 2.882 . S
U86 O104 2.441 . S
U86 O105 2.420 . S
U86 O106 2.455 . S
U86 O107 2.449 . S
O87 U86 2.454 . S
O87 C89 1.353 . S
O88 U86 2.458 . S
O88 C89 1.286 . S
C89 U86 2.984 . S
C89 O87 1.353 . S
C89 O88 1.286 . S
C89 C91 1.363 . S
C90 C80 1.465 . S
C90 U86 2.847 . S
C90 O104 1.249 . S
C90 O105 1.202 . S
C91 C89 1.363 . S
C91 C93 1.408 . S
C91 C96 1.342 . S
C92 C93 1.310 . S
C92 C95 1.461 . S
C92 H112 0.932 . S
C93 C91 1.408 . S
C93 C92 1.310 . S
C93 H113 0.930 . S
C94 C95 1.474 . S
C94 C96 1.285 . S
C94 H114 0.929 . S
C95 C92 1.461 . S
C95 C94 1.474 . S
C96 C91 1.342 . S
C96 C94 1.285 . S
C96 H115 0.930 . S
C97 C100 1.424 . S
C97 C102 1.245 . S
C97 C103 1.428 . S
C98 C101 1.260 . S
C98 C102 1.477 . S
C98 H116 0.932 . S
C99 C100 1.384 . S
C99 C101 1.479 . S
C99 H117 0.929 . S
C100 C97 1.424 . S
C100 C99 1.384 . S
C100 H118 0.928 . S
C101 C98 1.260 . S
C101 C99 1.479 . S
C102 C97 1.245 . S
C102 C98 1.477 . S
C102 H119 0.932 . S
C103 U86 2.882 . S
C103 C97 1.428 . S
C103 O106 1.301 . S
C103 O107 1.282 . S
O104 U86 2.441 . S
O104 C90 1.249 . S
O105 U86 2.420 . S
O105 C90 1.202 . S
O106 U86 2.455 . S
O106 C103 1.301 . S
O107 U86 2.449 . S
O107 C103 1.282 . S
H108 C81 0.931 . S
H109 C83 0.929 . S
H110 C84 0.930 . S
H111 C85 0.931 . S
H112 C92 0.932 . S
H113 C93 0.930 . S
H114 C94 0.929 . S
H115 C96 0.930 . S
H116 C98 0.932 . S
H117 C99 0.929 . S
H118 C100 0.928 . S
H119 C102 0.932 . S
C120 C121 1.264 . S
C120 C125 1.479 . S
C120 C130 1.465 . S
C121 C120 1.264 . S
C121 C123 1.339 . S
C121 H148 0.931 . S
C122 C123 1.395 . S
C122 C124 1.320 . S
C123 C121 1.339 . S
C123 C122 1.395 . S
C123 H149 0.929 . S
C124 C122 1.320 . S
C124 C125 1.405 . S
C124 H150 0.930 . S
C125 C120 1.479 . S
C125 C124 1.405 . S
C125 H151 0.931 . S
U126 O127 2.454 . S
U126 O128 2.458 . S
U126 C129 2.984 . S
U126 C130 2.847 . S
U126 C143 2.882 . S
U126 O144 2.441 . S
U126 O145 2.420 . S
U126 O146 2.455 . S
U126 O147 2.449 . S
O127 U126 2.454 . S
O127 C129 1.353 . S
O128 U126 2.458 . S
O128 C129 1.286 . S
C129 U126 2.984 . S
C129 O127 1.353 . S
C129 O128 1.286 . S
C129 C131 1.363 . S
C130 C120 1.465 . S
C130 U126 2.847 . S
C130 O144 1.249 . S
C130 O145 1.202 . S
C131 C129 1.363 . S
C131 C133 1.408 . S
C131 C136 1.342 . S
C132 C133 1.310 . S
C132 C135 1.461 . S
C132 H152 0.932 . S
C133 C131 1.408 . S
C133 C132 1.310 . S
C133 H153 0.930 . S
C134 C135 1.474 . S
C134 C136 1.285 . S
C134 H154 0.929 . S
C135 C132 1.461 . S
C135 C134 1.474 . S
C136 C131 1.342 . S
C136 C134 1.285 . S
C136 H155 0.930 . S
C137 C140 1.424 . S
C137 C142 1.245 . S
C137 C143 1.428 . S
C138 C141 1.260 . S
C138 C142 1.477 . S
C138 H156 0.932 . S
C139 C140 1.384 . S
C139 C141 1.479 . S
C139 H157 0.929 . S
C140 C137 1.424 . S
C140 C139 1.384 . S
C140 H158 0.928 . S
C141 C138 1.260 . S
C141 C139 1.479 . S
C142 C137 1.245 . S
C142 C138 1.477 . S
C142 H159 0.932 . S
C143 U126 2.882 . S
C143 C137 1.428 . S
C143 O146 1.301 . S
C143 O147 1.282 . S
O144 U126 2.441 . S
O144 C130 1.249 . S
O145 U126 2.420 . S
O145 C130 1.202 . S
O146 U126 2.455 . S
O146 C143 1.301 . S
O147 U126 2.449 . S
O147 C143 1.282 . S
H148 C121 0.931 . S
H149 C123 0.929 . S
H150 C124 0.930 . S
H151 C125 0.931 . S
H152 C132 0.932 . S
H153 C133 0.930 . S
H154 C134 0.929 . S
H155 C136 0.930 . S
H156 C138 0.932 . S
H157 C139 0.929 . S
H158 C140 0.928 . S
H159 C142 0.932 . S
C160 C161 1.264 . S
C160 C165 1.479 . S
C160 C170 1.465 . S
C161 C160 1.264 . S
C161 C163 1.339 . S
C161 H188 0.931 . S
C162 C163 1.395 . S
C162 C164 1.320 . S
C163 C161 1.339 . S
C163 C162 1.395 . S
C163 H189 0.929 . S
C164 C162 1.320 . S
C164 C165 1.405 . S
C164 H190 0.930 . S
C165 C160 1.479 . S
C165 C164 1.405 . S
C165 H191 0.931 . S
U166 O167 2.454 . S
U166 O168 2.458 . S
U166 C169 2.984 . S
U166 C170 2.847 . S
U166 C183 2.882 . S
U166 O184 2.441 . S
U166 O185 2.420 . S
U166 O186 2.455 . S
U166 O187 2.449 . S
O167 U166 2.454 . S
O167 C169 1.353 . S
O168 U166 2.458 . S
O168 C169 1.286 . S
C169 U166 2.984 . S
C169 O167 1.353 . S
C169 O168 1.286 . S
C169 C171 1.363 . S
C170 C160 1.465 . S
C170 U166 2.847 . S
C170 O184 1.249 . S
C170 O185 1.202 . S
C171 C169 1.363 . S
C171 C173 1.408 . S
C171 C176 1.342 . S
C172 C173 1.310 . S
C172 C175 1.461 . S
C172 H192 0.932 . S
C173 C171 1.408 . S
C173 C172 1.310 . S
C173 H193 0.930 . S
C174 C175 1.474 . S
C174 C176 1.285 . S
C174 H194 0.929 . S
C175 C172 1.461 . S
C175 C174 1.474 . S
C176 C171 1.342 . S
C176 C174 1.285 . S
C176 H195 0.930 . S
C177 C180 1.424 . S
C177 C182 1.245 . S
C177 C183 1.428 . S
C178 C181 1.260 . S
C178 C182 1.477 . S
C178 H196 0.932 . S
C179 C180 1.384 . S
C179 C181 1.479 . S
C179 H197 0.929 . S
C180 C177 1.424 . S
C180 C179 1.384 . S
C180 H198 0.928 . S
C181 C178 1.260 . S
C181 C179 1.479 . S
C182 C177 1.245 . S
C182 C178 1.477 . S
C182 H199 0.932 . S
C183 U166 2.882 . S
C183 C177 1.428 . S
C183 O186 1.301 . S
C183 O187 1.282 . S
O184 U166 2.441 . S
O184 C170 1.249 . S
O185 U166 2.420 . S
O185 C170 1.202 . S
O186 U166 2.455 . S
O186 C183 1.301 . S
O187 U166 2.449 . S
O187 C183 1.282 . S
H188 C161 0.931 . S
H189 C163 0.929 . S
H190 C164 0.930 . S
H191 C165 0.931 . S
H192 C172 0.932 . S
H193 C173 0.930 . S
H194 C174 0.929 . S
H195 C176 0.930 . S
H196 C178 0.932 . S
H197 C179 0.929 . S
H198 C180 0.928 . S
H199 C182 0.932 . S
C200 C201 1.264 . S
C200 C205 1.479 . S
C200 C210 1.465 . S
C201 C200 1.264 . S
C201 C203 1.339 . S
C201 H228 0.931 . S
C202 C203 1.395 . S
C202 C204 1.320 . S
C203 C201 1.339 . S
C203 C202 1.395 . S
C203 H229 0.929 . S
C204 C202 1.320 . S
C204 C205 1.405 . S
C204 H230 0.930 . S
C205 C200 1.479 . S
C205 C204 1.405 . S
C205 H231 0.931 . S
U206 O207 2.454 . S
U206 O208 2.458 . S
U206 C209 2.984 . S
U206 C210 2.847 . S
U206 C223 2.882 . S
U206 O224 2.441 . S
U206 O225 2.420 . S
U206 O226 2.455 . S
U206 O227 2.449 . S
O207 U206 2.454 . S
O207 C209 1.353 . S
O208 U206 2.458 . S
O208 C209 1.286 . S
C209 U206 2.984 . S
C209 O207 1.353 . S
C209 O208 1.286 . S
C209 C211 1.363 . S
C210 C200 1.465 . S
C210 U206 2.847 . S
C210 O224 1.249 . S
C210 O225 1.202 . S
C211 C209 1.363 . S
C211 C213 1.408 . S
C211 C216 1.342 . S
C212 C213 1.310 . S
C212 C215 1.461 . S
C212 H232 0.932 . S
C213 C211 1.408 . S
C213 C212 1.310 . S
C213 H233 0.930 . S
C214 C215 1.474 . S
C214 C216 1.285 . S
C214 H234 0.929 . S
C215 C212 1.461 . S
C215 C214 1.474 . S
C216 C211 1.342 . S
C216 C214 1.285 . S
C216 H235 0.930 . S
C217 C220 1.424 . S
C217 C222 1.245 . S
C217 C223 1.428 . S
C218 C221 1.260 . S
C218 C222 1.477 . S
C218 H236 0.932 . S
C219 C220 1.384 . S
C219 C221 1.479 . S
C219 H237 0.929 . S
C220 C217 1.424 . S
C220 C219 1.384 . S
C220 H238 0.928 . S
C221 C218 1.260 . S
C221 C219 1.479 . S
C222 C217 1.245 . S
C222 C218 1.477 . S
C222 H239 0.932 . S
C223 U206 2.882 . S
C223 C217 1.428 . S
C223 O226 1.301 . S
C223 O227 1.282 . S
O224 U206 2.441 . S
O224 C210 1.249 . S
O225 U206 2.420 . S
O225 C210 1.202 . S
O226 U206 2.455 . S
O226 C223 1.301 . S
O227 U206 2.449 . S
O227 C223 1.282 . S
H228 C201 0.931 . S
H229 C203 0.929 . S
H230 C204 0.930 . S
H231 C205 0.931 . S
H232 C212 0.932 . S
H233 C213 0.930 . S
H234 C214 0.929 . S
H235 C216 0.930 . S
H236 C218 0.932 . S
H237 C219 0.929 . S
H238 C220 0.928 . S
H239 C222 0.932 . S
C240 C241 1.264 . S
C240 C245 1.479 . S
C240 C250 1.465 . S
C241 C240 1.264 . S
C241 C243 1.339 . S
C241 H268 0.931 . S
C242 C243 1.395 . S
C242 C244 1.320 . S
C243 C241 1.339 . S
C243 C242 1.395 . S
C243 H269 0.929 . S
C244 C242 1.320 . S
C244 C245 1.405 . S
C244 H270 0.930 . S
C245 C240 1.479 . S
C245 C244 1.405 . S
C245 H271 0.931 . S
U246 O247 2.454 . S
U246 O248 2.458 . S
U246 C249 2.984 . S
U246 C250 2.847 . S
U246 C263 2.882 . S
U246 O264 2.441 . S
U246 O265 2.420 . S
U246 O266 2.455 . S
U246 O267 2.449 . S
O247 U246 2.454 . S
O247 C249 1.353 . S
O248 U246 2.458 . S
O248 C249 1.286 . S
C249 U246 2.984 . S
C249 O247 1.353 . S
C249 O248 1.286 . S
C249 C251 1.363 . S
C250 C240 1.465 . S
C250 U246 2.847 . S
C250 O264 1.249 . S
C250 O265 1.202 . S
C251 C249 1.363 . S
C251 C253 1.408 . S
C251 C256 1.342 . S
C252 C253 1.310 . S
C252 C255 1.461 . S
C252 H272 0.932 . S
C253 C251 1.408 . S
C253 C252 1.310 . S
C253 H273 0.930 . S
C254 C255 1.474 . S
C254 C256 1.285 . S
C254 H274 0.929 . S
C255 C252 1.461 . S
C255 C254 1.474 . S
C256 C251 1.342 . S
C256 C254 1.285 . S
C256 H275 0.930 . S
C257 C260 1.424 . S
C257 C262 1.245 . S
C257 C263 1.428 . S
C258 C261 1.260 . S
C258 C262 1.477 . S
C258 H276 0.932 . S
C259 C260 1.384 . S
C259 C261 1.479 . S
C259 H277 0.929 . S
C260 C257 1.424 . S
C260 C259 1.384 . S
C260 H278 0.928 . S
C261 C258 1.260 . S
C261 C259 1.479 . S
C262 C257 1.245 . S
C262 C258 1.477 . S
C262 H279 0.932 . S
C263 U246 2.882 . S
C263 C257 1.428 . S
C263 O266 1.301 . S
C263 O267 1.282 . S
O264 U246 2.441 . S
O264 C250 1.249 . S
O265 U246 2.420 . S
O265 C250 1.202 . S
O266 U246 2.455 . S
O266 C263 1.301 . S
O267 U246 2.449 . S
O267 C263 1.282 . S
H268 C241 0.931 . S
H269 C243 0.929 . S
H270 C244 0.930 . S
H271 C245 0.931 . S
H272 C252 0.932 . S
H273 C253 0.930 . S
H274 C254 0.929 . S
H275 C256 0.930 . S
H276 C258 0.932 . S
H277 C259 0.929 . S
H278 C260 0.928 . S
H279 C262 0.932 . S
C280 C281 1.264 . S
C280 C285 1.479 . S
C280 C290 1.465 . S
C281 C280 1.264 . S
C281 C283 1.339 . S
C281 H308 0.931 . S
C282 C283 1.395 . S
C282 C284 1.320 . S
C283 C281 1.339 . S
C283 C282 1.395 . S
C283 H309 0.929 . S
C284 C282 1.320 . S
C284 C285 1.405 . S
C284 H310 0.930 . S
C285 C280 1.479 . S
C285 C284 1.405 . S
C285 H311 0.931 . S
U286 O287 2.454 . S
U286 O288 2.458 . S
U286 C289 2.984 . S
U286 C290 2.847 . S
U286 C303 2.882 . S
U286 O304 2.441 . S
U286 O305 2.420 . S
U286 O306 2.455 . S
U286 O307 2.449 . S
O287 U286 2.454 . S
O287 C289 1.353 . S
O288 U286 2.458 . S
O288 C289 1.286 . S
C289 U286 2.984 . S
C289 O287 1.353 . S
C289 O288 1.286 . S
C289 C291 1.363 . S
C290 C280 1.465 . S
C290 U286 2.847 . S
C290 O304 1.249 . S
C290 O305 1.202 . S
C291 C289 1.363 . S
C291 C293 1.408 . S
C291 C296 1.342 . S
C292 C293 1.310 . S
C292 C295 1.461 . S
C292 H312 0.932 . S
C293 C291 1.408 . S
C293 C292 1.310 . S
C293 H313 0.930 . S
C294 C295 1.474 . S
C294 C296 1.285 . S
C294 H314 0.929 . S
C295 C292 1.461 . S
C295 C294 1.474 . S
C296 C291 1.342 . S
C296 C294 1.285 . S
C296 H315 0.930 . S
C297 C300 1.424 . S
C297 C302 1.245 . S
C297 C303 1.428 . S
C298 C301 1.260 . S
C298 C302 1.477 . S
C298 H316 0.932 . S
C299 C300 1.384 . S
C299 C301 1.479 . S
C299 H317 0.929 . S
C300 C297 1.424 . S
C300 C299 1.384 . S
C300 H318 0.928 . S
C301 C298 1.260 . S
C301 C299 1.479 . S
C302 C297 1.245 . S
C302 C298 1.477 . S
C302 H319 0.932 . S
C303 U286 2.882 . S
C303 C297 1.428 . S
C303 O306 1.301 . S
C303 O307 1.282 . S
O304 U286 2.441 . S
O304 C290 1.249 . S
O305 U286 2.420 . S
O305 C290 1.202 . S
O306 U286 2.455 . S
O306 C303 1.301 . S
O307 U286 2.449 . S
O307 C303 1.282 . S
H308 C281 0.931 . S
H309 C283 0.929 . S
H310 C284 0.930 . S
H311 C285 0.931 . S
H312 C292 0.932 . S
H313 C293 0.930 . S
H314 C294 0.929 . S
H315 C296 0.930 . S
H316 C298 0.932 . S
H317 C299 0.929 . S
H318 C300 0.928 . S
H319 C302 0.932 . S
H320 C339 0.949 . S
H321 C340 0.950 . S
H322 C342 0.950 . S
H323 C343 0.950 . S
H324 C345 0.950 . S
H325 C348 0.950 . S
H326 C349 0.950 . S
H327 C351 0.951 . S
H328 C352 0.949 . S
H329 C354 0.949 . S
H330 C355 0.950 . S
H331 C357 0.950 . S
H332 C358 0.950 . S
H333 C360 0.950 . S
H334 C363 0.950 . S
H335 C364 0.950 . S
H336 C366 0.951 . S
H337 C367 0.949 . S
C338 C339 1.376 . S
C338 C343 1.386 . S
C338 C344 1.483 . S
C339 H320 0.949 . S
C339 C338 1.376 . S
C339 C340 1.397 . S
C340 H321 0.950 . S
C340 C339 1.397 . S
C340 C341 1.391 . S
C341 C340 1.391 . S
C341 C342 1.405 . S
C342 H322 0.950 . S
C342 C341 1.405 . S
C342 C343 1.367 . S
C343 H323 0.950 . S
C343 C338 1.386 . S
C343 C342 1.367 . S
C344 C338 1.483 . S
C344 C345 1.382 . S
C344 C346 1.403 1_655 S
C345 H324 0.950 . S
C345 C344 1.382 . S
C345 C361 1.411 . S
C346 C344 1.403 1_455 S
C346 C347 1.489 . S
C346 C360 1.411 . S
C347 C346 1.489 . S
C347 C348 1.383 . S
C347 C352 1.382 . S
C348 H325 0.950 . S
C348 C347 1.383 . S
C348 C349 1.395 . S
C349 H326 0.950 . S
C349 C348 1.395 . S
C349 C350 1.288 . S
C350 C349 1.288 . S
C350 C351 1.392 . S
C351 H327 0.951 . S
C351 C350 1.392 . S
C351 C352 1.392 . S
C352 H328 0.949 . S
C352 C347 1.382 . S
C352 C351 1.392 . S
C353 C354 1.376 . S
C353 C358 1.386 . S
C353 C359 1.483 . S
C354 H329 0.949 . S
C354 C353 1.376 . S
C354 C355 1.397 . S
C355 H330 0.950 . S
C355 C354 1.397 . S
C355 C356 1.391 . S
C356 C355 1.391 . S
C356 C357 1.405 . S
C357 H331 0.950 . S
C357 C356 1.405 . S
C357 C358 1.367 . S
C358 H332 0.950 . S
C358 C353 1.386 . S
C358 C357 1.367 . S
C359 C353 1.483 . S
C359 C360 1.382 . S
C359 C361 1.403 1_455 S
C360 H333 0.950 . S
C360 C346 1.411 . S
C360 C359 1.382 . S
C361 C345 1.411 . S
C361 C359 1.403 1_655 S
C361 C362 1.489 . S
C362 C361 1.489 . S
C362 C363 1.383 . S
C362 C367 1.382 . S
C363 H334 0.950 . S
C363 C362 1.383 . S
C363 C364 1.395 . S
C364 H335 0.950 . S
C364 C363 1.395 . S
C364 C365 1.288 . S
C365 C364 1.288 . S
C365 C366 1.392 . S
C366 H336 0.951 . S
C366 C365 1.392 . S
C366 C367 1.392 . S
C367 H337 0.949 . S
C367 C362 1.382 . S
C367 C366 1.392 . S
H368 C387 0.949 . S
H369 C388 0.950 . S
H370 C390 0.950 . S
H371 C391 0.950 . S
H372 C393 0.950 . S
H373 C396 0.950 . S
H374 C397 0.950 . S
H375 C399 0.951 . S
H376 C400 0.949 . S
H377 C402 0.949 . S
H378 C403 0.950 . S
H379 C405 0.950 . S
H380 C406 0.950 . S
H381 C408 0.950 . S
H382 C411 0.950 . S
H383 C412 0.950 . S
H384 C414 0.951 . S
H385 C415 0.949 . S
C386 C387 1.376 . S
C386 C391 1.386 . S
C386 C392 1.483 . S
C387 H368 0.949 . S
C387 C386 1.376 . S
C387 C388 1.397 . S
C388 H369 0.950 . S
C388 C387 1.397 . S
C388 C389 1.391 . S
C389 C388 1.391 . S
C389 C390 1.405 . S
C390 H370 0.950 . S
C390 C389 1.405 . S
C390 C391 1.367 . S
C391 H371 0.950 . S
C391 C386 1.386 . S
C391 C390 1.367 . S
C392 C386 1.483 . S
C392 C393 1.382 . S
C392 C394 1.403 1_455 S
C393 H372 0.950 . S
C393 C392 1.382 . S
C393 C409 1.411 . S
C394 C392 1.403 1_655 S
C394 C395 1.489 . S
C394 C408 1.411 . S
C395 C394 1.489 . S
C395 C396 1.383 . S
C395 C400 1.382 . S
C396 H373 0.950 . S
C396 C395 1.383 . S
C396 C397 1.395 . S
C397 H374 0.950 . S
C397 C396 1.395 . S
C397 C398 1.288 . S
C398 C397 1.288 . S
C398 C399 1.392 . S
C399 H375 0.951 . S
C399 C398 1.392 . S
C399 C400 1.392 . S
C400 H376 0.949 . S
C400 C395 1.382 . S
C400 C399 1.392 . S
C401 C402 1.376 . S
C401 C406 1.386 . S
C401 C407 1.483 . S
C402 H377 0.949 . S
C402 C401 1.376 . S
C402 C403 1.397 . S
C403 H378 0.950 . S
C403 C402 1.397 . S
C403 C404 1.391 . S
C404 C403 1.391 . S
C404 C405 1.405 . S
C405 H379 0.950 . S
C405 C404 1.405 . S
C405 C406 1.367 . S
C406 H380 0.950 . S
C406 C401 1.386 . S
C406 C405 1.367 . S
C407 C401 1.483 . S
C407 C408 1.382 . S
C407 C409 1.403 1_655 S
C408 H381 0.950 . S
C408 C394 1.411 . S
C408 C407 1.382 . S
C409 C393 1.411 . S
C409 C407 1.403 1_455 S
C409 C410 1.489 . S
C410 C409 1.489 . S
C410 C411 1.383 . S
C410 C415 1.382 . S
C411 H382 0.950 . S
C411 C410 1.383 . S
C411 C412 1.395 . S
C412 H383 0.950 . S
C412 C411 1.395 . S
C412 C413 1.288 . S
C413 C412 1.288 . S
C413 C414 1.392 . S
C414 H384 0.951 . S
C414 C413 1.392 . S
C414 C415 1.392 . S
C415 H385 0.949 . S
C415 C410 1.382 . S
C415 C414 1.392 . S
H416 C435 0.949 . S
H417 C436 0.950 . S
H418 C438 0.950 . S
H419 C439 0.950 . S
H420 C441 0.950 . S
H421 C444 0.950 . S
H422 C445 0.950 . S
H423 C447 0.951 . S
H424 C448 0.949 . S
H425 C450 0.949 . S
H426 C451 0.950 . S
H427 C453 0.950 . S
H428 C454 0.950 . S
H429 C456 0.950 . S
H430 C459 0.950 . S
H431 C460 0.950 . S
H432 C462 0.951 . S
H433 C463 0.949 . S
C434 C435 1.376 . S
C434 C439 1.386 . S
C434 C440 1.483 . S
C435 H416 0.949 . S
C435 C434 1.376 . S
C435 C436 1.397 . S
C436 H417 0.950 . S
C436 C435 1.397 . S
C436 C437 1.391 . S
C437 C436 1.391 . S
C437 C438 1.405 . S
C438 H418 0.950 . S
C438 C437 1.405 . S
C438 C439 1.367 . S
C439 H419 0.950 . S
C439 C434 1.386 . S
C439 C438 1.367 . S
C440 C434 1.483 . S
C440 C441 1.382 1_565 S
C440 C442 1.403 . S
C441 H420 0.950 . S
C441 C440 1.382 1_545 S
C441 C457 1.411 . S
C442 C440 1.403 . S
C442 C443 1.489 . S
C442 C456 1.411 1_565 S
C443 C442 1.489 . S
C443 C444 1.383 . S
C443 C448 1.382 . S
C444 H421 0.950 . S
C444 C443 1.383 . S
C444 C445 1.395 . S
C445 H422 0.950 . S
C445 C444 1.395 . S
C445 C446 1.288 . S
C446 C445 1.288 . S
C446 C447 1.392 . S
C447 H423 0.951 . S
C447 C446 1.392 . S
C447 C448 1.392 . S
C448 H424 0.949 . S
C448 C443 1.382 . S
C448 C447 1.392 . S
C449 C450 1.376 . S
C449 C454 1.386 . S
C449 C455 1.483 . S
C450 H425 0.949 . S
C450 C449 1.376 . S
C450 C451 1.397 . S
C451 H426 0.950 . S
C451 C450 1.397 . S
C451 C452 1.391 . S
C452 C451 1.391 . S
C452 C453 1.405 . S
C453 H427 0.950 . S
C453 C452 1.405 . S
C453 C454 1.367 . S
C454 H428 0.950 . S
C454 C449 1.386 . S
C454 C453 1.367 . S
C455 C449 1.483 . S
C455 C456 1.382 . S
C455 C457 1.403 . S
C456 H429 0.950 . S
C456 C442 1.411 1_545 S
C456 C455 1.382 . S
C457 C441 1.411 . S
C457 C455 1.403 . S
C457 C458 1.489 . S
C458 C457 1.489 . S
C458 C459 1.383 . S
C458 C463 1.382 . S
C459 H430 0.950 . S
C459 C458 1.383 . S
C459 C460 1.395 . S
C460 H431 0.950 . S
C460 C459 1.395 . S
C460 C461 1.288 . S
C461 C460 1.288 . S
C461 C462 1.392 . S
C462 H432 0.951 . S
C462 C461 1.392 . S
C462 C463 1.392 . S
C463 H433 0.949 . S
C463 C458 1.382 . S
C463 C462 1.392 . S
H464 C483 0.949 . S
H465 C484 0.950 . S
H466 C486 0.950 . S
H467 C487 0.950 . S
H468 C489 0.950 . S
H469 C492 0.950 . S
H470 C493 0.950 . S
H471 C495 0.951 . S
H472 C496 0.949 . S
H473 C498 0.949 . S
H474 C499 0.950 . S
H475 C501 0.950 . S
H476 C502 0.950 . S
H477 C504 0.950 . S
H478 C507 0.950 . S
H479 C508 0.950 . S
H480 C510 0.951 . S
H481 C511 0.949 . S
C482 C483 1.376 . S
C482 C487 1.386 . S
C482 C488 1.483 . S
C483 H464 0.949 . S
C483 C482 1.376 . S
C483 C484 1.397 . S
C484 H465 0.950 . S
C484 C483 1.397 . S
C484 C485 1.391 . S
C485 C484 1.391 . S
C485 C486 1.405 . S
C486 H466 0.950 . S
C486 C485 1.405 . S
C486 C487 1.367 . S
C487 H467 0.950 . S
C487 C482 1.386 . S
C487 C486 1.367 . S
C488 C482 1.483 . S
C488 C489 1.382 1_556 S
C488 C490 1.403 . S
C489 H468 0.950 . S
C489 C488 1.382 1_554 S
C489 C505 1.411 . S
C490 C488 1.403 . S
C490 C491 1.489 . S
C490 C504 1.411 1_556 S
C491 C490 1.489 . S
C491 C492 1.383 . S
C491 C496 1.382 . S
C492 H469 0.950 . S
C492 C491 1.383 . S
C492 C493 1.395 . S
C493 H470 0.950 . S
C493 C492 1.395 . S
C493 C494 1.288 . S
C494 C493 1.288 . S
C494 C495 1.392 . S
C495 H471 0.951 . S
C495 C494 1.392 . S
C495 C496 1.392 . S
C496 H472 0.949 . S
C496 C491 1.382 . S
C496 C495 1.392 . S
C497 C498 1.376 . S
C497 C502 1.386 . S
C497 C503 1.483 . S
C498 H473 0.949 . S
C498 C497 1.376 . S
C498 C499 1.397 . S
C499 H474 0.950 . S
C499 C498 1.397 . S
C499 C500 1.391 . S
C500 C499 1.391 . S
C500 C501 1.405 . S
C501 H475 0.950 . S
C501 C500 1.405 . S
C501 C502 1.367 . S
C502 H476 0.950 . S
C502 C497 1.386 . S
C502 C501 1.367 . S
C503 C497 1.483 . S
C503 C504 1.382 . S
C503 C505 1.403 . S
C504 H477 0.950 . S
C504 C490 1.411 1_554 S
C504 C503 1.382 . S
C505 C489 1.411 . S
C505 C503 1.403 . S
C505 C506 1.489 . S
C506 C505 1.489 . S
C506 C507 1.383 . S
C506 C511 1.382 . S
C507 H478 0.950 . S
C507 C506 1.383 . S
C507 C508 1.395 . S
C508 H479 0.950 . S
C508 C507 1.395 . S
C508 C509 1.288 . S
C509 C508 1.288 . S
C509 C510 1.392 . S
C510 H480 0.951 . S
C510 C509 1.392 . S
C510 C511 1.392 . S
C511 H481 0.949 . S
C511 C506 1.382 . S
C511 C510 1.392 . S
H512 C531 0.949 . S
H513 C532 0.950 . S
H514 C534 0.950 . S
H515 C535 0.950 . S
H516 C537 0.951 . S
H517 C540 0.950 . S
H518 C541 0.950 . S
H519 C543 0.951 . S
H520 C544 0.949 . S
H521 C546 0.949 . S
H522 C547 0.950 . S
H523 C549 0.950 . S
H524 C550 0.950 . S
H525 C552 0.950 . S
H526 C555 0.950 . S
H527 C556 0.950 . S
H528 C558 0.951 . S
H529 C559 0.949 . S
C530 C531 1.376 . S
C530 C535 1.386 . S
C530 C536 1.483 . S
C531 H512 0.949 . S
C531 C530 1.376 . S
C531 C532 1.397 . S
C532 H513 0.950 . S
C532 C531 1.397 . S
C532 C533 1.391 . S
C533 C532 1.391 . S
C533 C534 1.405 . S
C534 H514 0.950 . S
C534 C533 1.405 . S
C534 C535 1.367 . S
C535 H515 0.950 . S
C535 C530 1.386 . S
C535 C534 1.367 . S
C536 C530 1.483 . S
C536 C537 1.382 1_565 S
C536 C538 1.403 . S
C537 H516 0.951 . S
C537 C536 1.382 1_545 S
C537 C553 1.411 . S
C538 C536 1.403 . S
C538 C539 1.489 . S
C538 C552 1.411 1_565 S
C539 C538 1.489 . S
C539 C540 1.383 . S
C539 C544 1.382 . S
C540 H517 0.950 . S
C540 C539 1.383 . S
C540 C541 1.395 . S
C541 H518 0.950 . S
C541 C540 1.395 . S
C541 C542 1.288 . S
C542 C541 1.288 . S
C542 C543 1.392 . S
C543 H519 0.951 . S
C543 C542 1.392 . S
C543 C544 1.392 . S
C544 H520 0.949 . S
C544 C539 1.382 . S
C544 C543 1.392 . S
C545 C546 1.376 . S
C545 C550 1.386 . S
C545 C551 1.483 . S
C546 H521 0.949 . S
C546 C545 1.376 . S
C546 C547 1.397 . S
C547 H522 0.950 . S
C547 C546 1.397 . S
C547 C548 1.391 . S
C548 C547 1.391 . S
C548 C549 1.405 . S
C549 H523 0.950 . S
C549 C548 1.405 . S
C549 C550 1.367 . S
C550 H524 0.950 . S
C550 C545 1.386 . S
C550 C549 1.367 . S
C551 C545 1.483 . S
C551 C552 1.382 . S
C551 C553 1.403 . S
C552 H525 0.950 . S
C552 C538 1.411 1_545 S
C552 C551 1.382 . S
C553 C537 1.411 . S
C553 C551 1.403 . S
C553 C554 1.489 . S
C554 C553 1.489 . S
C554 C555 1.383 . S
C554 C559 1.382 . S
C555 H526 0.950 . S
C555 C554 1.383 . S
C555 C556 1.395 . S
C556 H527 0.950 . S
C556 C555 1.395 . S
C556 C557 1.288 . S
C557 C556 1.288 . S
C557 C558 1.392 . S
C558 H528 0.951 . S
C558 C557 1.392 . S
C558 C559 1.392 . S
C559 H529 0.949 . S
C559 C554 1.382 . S
C559 C558 1.392 . S
H560 C579 0.949 . S
H561 C580 0.950 . S
H562 C582 0.950 . S
H563 C583 0.950 . S
H564 C585 0.950 . S
H565 C588 0.950 . S
H566 C589 0.950 . S
H567 C591 0.951 . S
H568 C592 0.949 . S
H569 C594 0.949 . S
H570 C595 0.950 . S
H571 C597 0.950 . S
H572 C598 0.950 . S
H573 C600 0.950 . S
H574 C603 0.950 . S
H575 C604 0.950 . S
H576 C606 0.951 . S
H577 C607 0.949 . S
C578 C579 1.376 . S
C578 C583 1.386 . S
C578 C584 1.483 . S
C579 H560 0.949 . S
C579 C578 1.376 . S
C579 C580 1.397 . S
C580 H561 0.950 . S
C580 C579 1.397 . S
C580 C581 1.391 . S
C581 C580 1.391 . S
C581 C582 1.405 . S
C582 H562 0.950 . S
C582 C581 1.405 . S
C582 C583 1.367 . S
C583 H563 0.950 . S
C583 C578 1.386 . S
C583 C582 1.367 . S
C584 C578 1.483 . S
C584 C585 1.382 1_556 S
C584 C586 1.403 . S
C585 H564 0.950 . S
C585 C584 1.382 1_554 S
C585 C601 1.411 . S
C586 C584 1.403 . S
C586 C587 1.489 . S
C586 C600 1.411 1_556 S
C587 C586 1.489 . S
C587 C588 1.383 . S
C587 C592 1.382 . S
C588 H565 0.950 . S
C588 C587 1.383 . S
C588 C589 1.395 . S
C589 H566 0.950 . S
C589 C588 1.395 . S
C589 C590 1.288 . S
C590 C589 1.288 . S
C590 C591 1.392 . S
C591 H567 0.951 . S
C591 C590 1.392 . S
C591 C592 1.392 . S
C592 H568 0.949 . S
C592 C587 1.382 . S
C592 C591 1.392 . S
C593 C594 1.376 . S
C593 C598 1.386 . S
C593 C599 1.483 . S
C594 H569 0.949 . S
C594 C593 1.376 . S
C594 C595 1.397 . S
C595 H570 0.950 . S
C595 C594 1.397 . S
C595 C596 1.391 . S
C596 C595 1.391 . S
C596 C597 1.405 . S
C597 H571 0.950 . S
C597 C596 1.405 . S
C597 C598 1.367 . S
C598 H572 0.950 . S
C598 C593 1.386 . S
C598 C597 1.367 . S
C599 C593 1.483 . S
C599 C600 1.382 . S
C599 C601 1.403 . S
C600 H573 0.950 . S
C600 C586 1.411 1_554 S
C600 C599 1.382 . S
C601 C585 1.411 . S
C601 C599 1.403 . S
C601 C602 1.489 . S
C602 C601 1.489 . S
C602 C603 1.383 . S
C602 C607 1.382 . S
C603 H574 0.950 . S
C603 C602 1.383 . S
C603 C604 1.395 . S
C604 H575 0.950 . S
C604 C603 1.395 . S
C604 C605 1.288 . S
C605 C604 1.288 . S
C605 C606 1.392 . S
C606 H576 0.951 . S
C606 C605 1.392 . S
C606 C607 1.392 . S
C607 H577 0.949 . S
C607 C602 1.382 . S
C607 C606 1.392 . S
H608 C614 0.930 . S
H609 C617 0.930 . S
H610 C618 0.930 . S
H611 C619 0.930 . S
H612 C622 0.930 . S
H613 C623 0.930 . S
C614 H608 0.930 . S
C614 C615 1.355 . S
C614 C616 1.415 . S
C615 C614 1.355 . S
C615 C617 1.419 . S
C616 C614 1.415 . S
C616 C621 1.425 . S
C616 C623 1.409 . S
C617 H609 0.930 . S
C617 C615 1.419 . S
C617 C618 1.362 . S
C618 H610 0.930 . S
C618 C617 1.362 . S
C618 C621 1.409 . S
C619 H611 0.930 . S
C619 C620 1.355 . S
C619 C621 1.415 . S
C620 C619 1.355 . S
C620 C622 1.419 . S
C621 C616 1.425 . S
C621 C618 1.409 . S
C621 C619 1.415 . S
C622 H612 0.930 . S
C622 C620 1.419 . S
C622 C623 1.362 . S
C623 H613 0.930 . S
C623 C616 1.409 . S
C623 C622 1.362 . S
H624 C630 0.930 . S
H625 C633 0.930 . S
H626 C634 0.930 . S
H627 C635 0.930 . S
H628 C638 0.930 . S
H629 C639 0.930 . S
C630 H624 0.930 . S
C630 C631 1.355 . S
C630 C632 1.415 . S
C631 C630 1.355 . S
C631 C633 1.419 . S
C632 C630 1.415 . S
C632 C637 1.425 . S
C632 C639 1.409 . S
C633 H625 0.930 . S
C633 C631 1.419 . S
C633 C634 1.362 . S
C634 H626 0.930 . S
C634 C633 1.362 . S
C634 C637 1.409 . S
C635 H627 0.930 . S
C635 C636 1.355 . S
C635 C637 1.415 . S
C636 C635 1.355 . S
C636 C638 1.419 . S
C637 C632 1.425 . S
C637 C634 1.409 . S
C637 C635 1.415 . S
C638 H628 0.930 . S
C638 C636 1.419 . S
C638 C639 1.362 . S
C639 H629 0.930 . S
C639 C632 1.409 . S
C639 C638 1.362 . S
H640 C646 0.930 . S
H641 C649 0.930 . S
H642 C650 0.930 . S
H643 C651 0.930 . S
H644 C654 0.930 . S
H645 C655 0.930 . S
C646 H640 0.930 . S
C646 C647 1.355 . S
C646 C648 1.415 . S
C647 C646 1.355 . S
C647 C649 1.419 . S
C648 C646 1.415 . S
C648 C653 1.425 . S
C648 C655 1.409 . S
C649 H641 0.930 . S
C649 C647 1.419 . S
C649 C650 1.362 . S
C650 H642 0.930 . S
C650 C649 1.362 . S
C650 C653 1.409 . S
C651 H643 0.930 . S
C651 C652 1.355 . S
C651 C653 1.415 . S
C652 C651 1.355 . S
C652 C654 1.419 . S
C653 C648 1.425 . S
C653 C650 1.409 . S
C653 C651 1.415 . S
C654 H644 0.930 . S
C654 C652 1.419 . S
C654 C655 1.362 . S
C655 H645 0.930 . S
C655 C648 1.409 . S
C655 C654 1.362 . S
H656 C662 0.930 . S
H657 C665 0.930 . S
H658 C666 0.930 . S
H659 C667 0.930 . S
H660 C670 0.930 . S
H661 C671 0.930 . S
C662 H656 0.930 . S
C662 C663 1.355 . S
C662 C664 1.415 . S
C663 C662 1.355 . S
C663 C665 1.419 . S
C664 C662 1.415 . S
C664 C669 1.425 . S
C664 C671 1.409 . S
C665 H657 0.930 . S
C665 C663 1.419 . S
C665 C666 1.362 . S
C666 H658 0.930 . S
C666 C665 1.362 . S
C666 C669 1.409 . S
C667 H659 0.930 . S
C667 C668 1.355 . S
C667 C669 1.415 . S
C668 C667 1.355 . S
C668 C670 1.419 . S
C669 C664 1.425 . S
C669 C666 1.409 . S
C669 C667 1.415 . S
C670 H660 0.930 . S
C670 C668 1.419 . S
C670 C671 1.362 . S
C671 H661 0.930 . S
C671 C664 1.409 . S
C671 C670 1.362 . S
H672 C678 0.930 . S
H673 C681 0.930 . S
H674 C682 0.930 . S
H675 C683 0.930 . S
H676 C686 0.930 . S
H677 C687 0.930 . S
C678 H672 0.930 . S
C678 C679 1.355 . S
C678 C680 1.415 . S
C679 C678 1.355 . S
C679 C681 1.419 . S
C680 C678 1.415 . S
C680 C685 1.425 . S
C680 C687 1.409 . S
C681 H673 0.930 . S
C681 C679 1.419 . S
C681 C682 1.362 . S
C682 H674 0.930 . S
C682 C681 1.362 . S
C682 C685 1.409 . S
C683 H675 0.930 . S
C683 C684 1.355 . S
C683 C685 1.415 . S
C684 C683 1.355 . S
C684 C686 1.419 . S
C685 C680 1.425 . S
C685 C682 1.409 . S
C685 C683 1.415 . S
C686 H676 0.930 . S
C686 C684 1.419 . S
C686 C687 1.362 . S
C687 H677 0.930 . S
C687 C680 1.409 . S
C687 C686 1.362 . S
H688 C694 0.930 . S
H689 C697 0.930 . S
H690 C698 0.930 . S
H691 C699 0.930 . S
H692 C702 0.930 . S
H693 C703 0.930 . S
C694 H688 0.930 . S
C694 C695 1.355 . S
C694 C696 1.415 . S
C695 C694 1.355 . S
C695 C697 1.419 . S
C696 C694 1.415 . S
C696 C701 1.425 . S
C696 C703 1.409 . S
C697 H689 0.930 . S
C697 C695 1.419 . S
C697 C698 1.362 . S
C698 H690 0.930 . S
C698 C697 1.362 . S
C698 C701 1.409 . S
C699 H691 0.930 . S
C699 C700 1.355 . S
C699 C701 1.415 . S
C700 C699 1.355 . S
C700 C702 1.419 . S
C701 C696 1.425 . S
C701 C698 1.409 . S
C701 C699 1.415 . S
C702 H692 0.930 . S
C702 C700 1.419 . S
C702 C703 1.362 . S
C703 H693 0.930 . S
C703 C696 1.409 . S
C703 C702 1.362 . S
H704 C710 0.930 . S
H705 C713 0.930 . S
H706 C714 0.930 . S
H707 C715 0.930 . S
H708 C718 0.930 . S
H709 C719 0.930 . S
C710 H704 0.930 . S
C710 C711 1.355 . S
C710 C712 1.415 . S
C711 C710 1.355 . S
C711 C713 1.419 . S
C712 C710 1.415 . S
C712 C717 1.425 . S
C712 C719 1.409 . S
C713 H705 0.930 . S
C713 C711 1.419 . S
C713 C714 1.362 . S
C714 H706 0.930 . S
C714 C713 1.362 . S
C714 C717 1.409 . S
C715 H707 0.930 . S
C715 C716 1.355 . S
C715 C717 1.415 . S
C716 C715 1.355 . S
C716 C718 1.419 . S
C717 C712 1.425 . S
C717 C714 1.409 . S
C717 C715 1.415 . S
C718 H708 0.930 . S
C718 C716 1.419 . S
C718 C719 1.362 . S
C719 H709 0.930 . S
C719 C712 1.409 . S
C719 C718 1.362 . S
H720 C726 0.930 . S
H721 C729 0.930 . S
H722 C730 0.930 . S
H723 C731 0.930 . S
H724 C734 0.930 . S
H725 C735 0.930 . S
C726 H720 0.930 . S
C726 C727 1.355 . S
C726 C728 1.415 . S
C727 C726 1.355 . S
C727 C729 1.419 . S
C728 C726 1.415 . S
C728 C733 1.425 . S
C728 C735 1.409 . S
C729 H721 0.930 . S
C729 C727 1.419 . S
C729 C730 1.362 . S
C730 H722 0.930 . S
C730 C729 1.362 . S
C730 C733 1.409 . S
C731 H723 0.930 . S
C731 C732 1.355 . S
C731 C733 1.415 . S
C732 C731 1.355 . S
C732 C734 1.419 . S
C733 C728 1.425 . S
C733 C730 1.409 . S
C733 C731 1.415 . S
C734 H724 0.930 . S
C734 C732 1.419 . S
C734 C735 1.362 . S
C735 H725 0.930 . S
C735 C728 1.409 . S
C735 C734 1.362 . S
H736 C742 0.930 . S
H737 C745 0.930 . S
H738 C746 0.930 . S
H739 C747 0.930 . S
H740 C750 0.930 . S
H741 C751 0.930 . S
C742 H736 0.930 . S
C742 C743 1.355 . S
C742 C744 1.415 . S
C743 C742 1.355 . S
C743 C745 1.419 . S
C744 C742 1.415 . S
C744 C749 1.425 . S
C744 C751 1.409 . S
C745 H737 0.930 . S
C745 C743 1.419 . S
C745 C746 1.362 . S
C746 H738 0.930 . S
C746 C745 1.362 . S
C746 C749 1.409 . S
C747 H739 0.930 . S
C747 C748 1.355 . S
C747 C749 1.415 . S
C748 C747 1.355 . S
C748 C750 1.419 . S
C749 C744 1.425 . S
C749 C746 1.409 . S
C749 C747 1.415 . S
C750 H740 0.930 . S
C750 C748 1.419 . S
C750 C751 1.362 . S
C751 H741 0.930 . S
C751 C744 1.409 . S
C751 C750 1.362 . S
H752 C758 0.930 . S
H753 C761 0.930 . S
H754 C762 0.930 . S
H755 C763 0.930 . S
H756 C766 0.930 . S
H757 C767 0.930 . S
C758 H752 0.930 . S
C758 C759 1.355 . S
C758 C760 1.415 . S
C759 C758 1.355 . S
C759 C761 1.419 . S
C760 C758 1.415 . S
C760 C765 1.425 . S
C760 C767 1.409 . S
C761 H753 0.930 . S
C761 C759 1.419 . S
C761 C762 1.362 . S
C762 H754 0.930 . S
C762 C761 1.362 . S
C762 C765 1.409 . S
C763 H755 0.930 . S
C763 C764 1.355 . S
C763 C765 1.415 . S
C764 C763 1.355 . S
C764 C766 1.419 . S
C765 C760 1.425 . S
C765 C762 1.409 . S
C765 C763 1.415 . S
C766 H756 0.930 . S
C766 C764 1.419 . S
C766 C767 1.362 . S
C767 H757 0.930 . S
C767 C760 1.409 . S
C767 C766 1.362 . S
H768 C774 0.930 . S
H769 C777 0.930 . S
H770 C778 0.930 . S
H771 C779 0.930 . S
H772 C782 0.930 . S
H773 C783 0.930 . S
C774 H768 0.930 . S
C774 C775 1.355 . S
C774 C776 1.415 . S
C775 C774 1.355 . S
C775 C777 1.419 . S
C776 C774 1.415 . S
C776 C781 1.425 . S
C776 C783 1.409 . S
C777 H769 0.930 . S
C777 C775 1.419 . S
C777 C778 1.362 . S
C778 H770 0.930 . S
C778 C777 1.362 . S
C778 C781 1.409 . S
C779 H771 0.930 . S
C779 C780 1.355 . S
C779 C781 1.415 . S
C780 C779 1.355 . S
C780 C782 1.419 . S
C781 C776 1.425 . S
C781 C778 1.409 . S
C781 C779 1.415 . S
C782 H772 0.930 . S
C782 C780 1.419 . S
C782 C783 1.362 . S
C783 H773 0.930 . S
C783 C776 1.409 . S
C783 C782 1.362 . S
H784 C790 0.930 . S
H785 C793 0.930 . S
H786 C794 0.930 . S
H787 C795 0.930 . S
H788 C798 0.930 . S
H789 C799 0.930 . S
C790 H784 0.930 . S
C790 C791 1.355 . S
C790 C792 1.415 . S
C791 C790 1.355 . S
C791 C793 1.419 . S
C792 C790 1.415 . S
C792 C797 1.425 . S
C792 C799 1.409 . S
C793 H785 0.930 . S
C793 C791 1.419 . S
C793 C794 1.362 . S
C794 H786 0.930 . S
C794 C793 1.362 . S
C794 C797 1.409 . S
C795 H787 0.930 . S
C795 C796 1.355 . S
C795 C797 1.415 . S
C796 C795 1.355 . S
C796 C798 1.419 . S
C797 C792 1.425 . S
C797 C794 1.409 . S
C797 C795 1.415 . S
C798 H788 0.930 . S
C798 C796 1.419 . S
C798 C799 1.362 . S
C799 H789 0.930 . S
C799 C792 1.409 . S
C799 C798 1.362 . S
H800 C806 0.930 . S
H801 C809 0.930 . S
H802 C810 0.930 . S
H803 C811 0.930 . S
H804 C814 0.930 . S
H805 C815 0.930 . S
C806 H800 0.930 . S
C806 C807 1.355 . S
C806 C808 1.415 . S
C807 C806 1.355 . S
C807 C809 1.419 . S
C808 C806 1.415 . S
C808 C813 1.425 . S
C808 C815 1.409 . S
C809 H801 0.930 . S
C809 C807 1.419 . S
C809 C810 1.362 . S
C810 H802 0.930 . S
C810 C809 1.362 . S
C810 C813 1.409 . S
C811 H803 0.930 . S
C811 C812 1.355 . S
C811 C813 1.415 . S
C812 C811 1.355 . S
C812 C814 1.419 . S
C813 C808 1.425 . S
C813 C810 1.409 . S
C813 C811 1.415 . S
C814 H804 0.930 . S
C814 C812 1.419 . S
C814 C815 1.362 . S
C815 H805 0.930 . S
C815 C808 1.409 . S
C815 C814 1.362 . S
H816 C822 0.930 . S
H817 C825 0.930 . S
H818 C826 0.930 . S
H819 C827 0.930 . S
H820 C830 0.930 . S
H821 C831 0.930 . S
C822 H816 0.930 . S
C822 C823 1.355 . S
C822 C824 1.415 . S
C823 C822 1.355 . S
C823 C825 1.419 . S
C824 C822 1.415 . S
C824 C829 1.425 . S
C824 C831 1.409 . S
C825 H817 0.930 . S
C825 C823 1.419 . S
C825 C826 1.362 . S
C826 H818 0.930 . S
C826 C825 1.362 . S
C826 C829 1.409 . S
C827 H819 0.930 . S
C827 C828 1.355 . S
C827 C829 1.415 . S
C828 C827 1.355 . S
C828 C830 1.419 . S
C829 C824 1.425 . S
C829 C826 1.409 . S
C829 C827 1.415 . S
C830 H820 0.930 . S
C830 C828 1.419 . S
C830 C831 1.362 . S
C831 H821 0.930 . S
C831 C824 1.409 . S
C831 C830 1.362 . S
H832 C838 0.930 . S
H833 C841 0.930 . S
H834 C842 0.930 . S
H835 C843 0.930 . S
H836 C846 0.930 . S
H837 C847 0.930 . S
C838 H832 0.930 . S
C838 C839 1.355 . S
C838 C840 1.415 . S
C839 C838 1.355 . S
C839 C841 1.419 . S
C840 C838 1.415 . S
C840 C845 1.425 . S
C840 C847 1.409 . S
C841 H833 0.930 . S
C841 C839 1.419 . S
C841 C842 1.362 . S
C842 H834 0.930 . S
C842 C841 1.362 . S
C842 C845 1.409 . S
C843 H835 0.930 . S
C843 C844 1.355 . S
C843 C845 1.415 . S
C844 C843 1.355 . S
C844 C846 1.419 . S
C845 C840 1.425 . S
C845 C842 1.409 . S
C845 C843 1.415 . S
C846 H836 0.930 . S
C846 C844 1.419 . S
C846 C847 1.362 . S
C847 H837 0.930 . S
C847 C840 1.409 . S
C847 C846 1.362 . S
H848 C854 0.930 . S
H849 C857 0.930 . S
H850 C858 0.930 . S
H851 C859 0.930 . S
H852 C862 0.930 . S
H853 C863 0.930 . S
C854 H848 0.930 . S
C854 C855 1.355 . S
C854 C856 1.415 . S
C855 C854 1.355 . S
C855 C857 1.419 . S
C856 C854 1.415 . S
C856 C861 1.425 . S
C856 C863 1.409 . S
C857 H849 0.930 . S
C857 C855 1.419 . S
C857 C858 1.362 . S
C858 H850 0.930 . S
C858 C857 1.362 . S
C858 C861 1.409 . S
C859 H851 0.930 . S
C859 C860 1.355 . S
C859 C861 1.415 . S
C860 C859 1.355 . S
C860 C862 1.419 . S
C861 C856 1.425 . S
C861 C858 1.409 . S
C861 C859 1.415 . S
C862 H852 0.930 . S
C862 C860 1.419 . S
C862 C863 1.362 . S
C863 H853 0.930 . S
C863 C856 1.409 . S
C863 C862 1.362 . S
H864 C870 0.930 . S
H865 C873 0.930 . S
H866 C874 0.930 . S
H867 C875 0.930 . S
H868 C878 0.930 . S
H869 C879 0.930 . S
C870 H864 0.930 . S
C870 C871 1.355 . S
C870 C872 1.415 . S
C871 C870 1.355 . S
C871 C873 1.419 . S
C872 C870 1.415 . S
C872 C877 1.425 . S
C872 C879 1.409 . S
C873 H865 0.930 . S
C873 C871 1.419 . S
C873 C874 1.362 . S
C874 H866 0.930 . S
C874 C873 1.362 . S
C874 C877 1.409 . S
C875 H867 0.930 . S
C875 C876 1.355 . S
C875 C877 1.415 . S
C876 C875 1.355 . S
C876 C878 1.419 . S
C877 C872 1.425 . S
C877 C874 1.409 . S
C877 C875 1.415 . S
C878 H868 0.930 . S
C878 C876 1.419 . S
C878 C879 1.362 . S
C879 H869 0.930 . S
C879 C872 1.409 . S
C879 C878 1.362 . S
H880 C886 0.930 . S
H881 C889 0.930 . S
H882 C890 0.930 . S
H883 C891 0.930 . S
H884 C894 0.930 . S
H885 C895 0.930 . S
C886 H880 0.930 . S
C886 C887 1.355 . S
C886 C888 1.415 . S
C887 C886 1.355 . S
C887 C889 1.419 . S
C888 C886 1.415 . S
C888 C893 1.425 . S
C888 C895 1.409 . S
C889 H881 0.930 . S
C889 C887 1.419 . S
C889 C890 1.362 . S
C890 H882 0.930 . S
C890 C889 1.362 . S
C890 C893 1.409 . S
C891 H883 0.930 . S
C891 C892 1.355 . S
C891 C893 1.415 . S
C892 C891 1.355 . S
C892 C894 1.419 . S
C893 C888 1.425 . S
C893 C890 1.409 . S
C893 C891 1.415 . S
C894 H884 0.930 . S
C894 C892 1.419 . S
C894 C895 1.362 . S
C895 H885 0.930 . S
C895 C888 1.409 . S
C895 C894 1.362 . S
H896 C902 0.930 . S
H897 C905 0.930 . S
H898 C906 0.930 . S
H899 C907 0.930 . S
H900 C910 0.930 . S
H901 C911 0.930 . S
C902 H896 0.930 . S
C902 C903 1.355 . S
C902 C904 1.415 . S
C903 C902 1.355 . S
C903 C905 1.419 . S
C904 C902 1.415 . S
C904 C909 1.425 . S
C904 C911 1.409 . S
C905 H897 0.930 . S
C905 C903 1.419 . S
C905 C906 1.362 . S
C906 H898 0.930 . S
C906 C905 1.362 . S
C906 C909 1.409 . S
C907 H899 0.930 . S
C907 C908 1.355 . S
C907 C909 1.415 . S
C908 C907 1.355 . S
C908 C910 1.419 . S
C909 C904 1.425 . S
C909 C906 1.409 . S
C909 C907 1.415 . S
C910 H900 0.930 . S
C910 C908 1.419 . S
C910 C911 1.362 . S
C911 H901 0.930 . S
C911 C904 1.409 . S
C911 C910 1.362 . S
H912 C918 0.930 . S
H913 C921 0.930 . S
H914 C922 0.930 . S
H915 C923 0.930 . S
H916 C926 0.930 . S
H917 C927 0.930 . S
C918 H912 0.930 . S
C918 C919 1.355 . S
C918 C920 1.415 . S
C919 C918 1.355 . S
C919 C921 1.419 . S
C920 C918 1.415 . S
C920 C925 1.425 . S
C920 C927 1.409 . S
C921 H913 0.930 . S
C921 C919 1.419 . S
C921 C922 1.362 . S
C922 H914 0.930 . S
C922 C921 1.362 . S
C922 C925 1.409 . S
C923 H915 0.930 . S
C923 C924 1.355 . S
C923 C925 1.415 . S
C924 C923 1.355 . S
C924 C926 1.419 . S
C925 C920 1.425 . S
C925 C922 1.409 . S
C925 C923 1.415 . S
C926 H916 0.930 . S
C926 C924 1.419 . S
C926 C927 1.362 . S
C927 H917 0.930 . S
C927 C920 1.409 . S
C927 C926 1.362 . S
H928 C934 0.930 . S
H929 C937 0.930 . S
H930 C938 0.930 . S
H931 C939 0.930 . S
H932 C942 0.930 . S
H933 C943 0.930 . S
C934 H928 0.930 . S
C934 C935 1.355 . S
C934 C936 1.415 . S
C935 C934 1.355 . S
C935 C937 1.419 . S
C936 C934 1.415 . S
C936 C941 1.425 . S
C936 C943 1.409 . S
C937 H929 0.930 . S
C937 C935 1.419 . S
C937 C938 1.362 . S
C938 H930 0.930 . S
C938 C937 1.362 . S
C938 C941 1.409 . S
C939 H931 0.930 . S
C939 C940 1.355 . S
C939 C941 1.415 . S
C940 C939 1.355 . S
C940 C942 1.419 . S
C941 C936 1.425 . S
C941 C938 1.409 . S
C941 C939 1.415 . S
C942 H932 0.930 . S
C942 C940 1.419 . S
C942 C943 1.362 . S
C943 H933 0.930 . S
C943 C936 1.409 . S
C943 C942 1.362 . S
H944 C950 0.930 . S
H945 C953 0.930 . S
H946 C954 0.930 . S
H947 C955 0.930 . S
H948 C958 0.930 . S
H949 C959 0.930 . S
C950 H944 0.930 . S
C950 C951 1.355 . S
C950 C952 1.415 . S
C951 C950 1.355 . S
C951 C953 1.419 . S
C952 C950 1.415 . S
C952 C957 1.425 . S
C952 C959 1.409 . S
C953 H945 0.930 . S
C953 C951 1.419 . S
C953 C954 1.362 . S
C954 H946 0.930 . S
C954 C953 1.362 . S
C954 C957 1.409 . S
C955 H947 0.930 . S
C955 C956 1.355 . S
C955 C957 1.415 . S
C956 C955 1.355 . S
C956 C958 1.419 . S
C957 C952 1.425 . S
C957 C954 1.409 . S
C957 C955 1.415 . S
C958 H948 0.930 . S
C958 C956 1.419 . S
C958 C959 1.362 . S
C959 H949 0.930 . S
C959 C952 1.409 . S
C959 C958 1.362 . S
H960 C966 0.930 . S
H961 C969 0.930 . S
H962 C970 0.930 . S
H963 C971 0.930 . S
H964 C974 0.930 . S
H965 C975 0.930 . S
C966 H960 0.930 . S
C966 C967 1.355 . S
C966 C968 1.415 . S
C967 C966 1.355 . S
C967 C969 1.419 . S
C968 C966 1.415 . S
C968 C973 1.425 . S
C968 C975 1.409 . S
C969 H961 0.930 . S
C969 C967 1.419 . S
C969 C970 1.362 . S
C970 H962 0.930 . S
C970 C969 1.362 . S
C970 C973 1.409 . S
C971 H963 0.930 . S
C971 C972 1.355 . S
C971 C973 1.415 . S
C972 C971 1.355 . S
C972 C974 1.419 . S
C973 C968 1.425 . S
C973 C970 1.409 . S
C973 C971 1.415 . S
C974 H964 0.930 . S
C974 C972 1.419 . S
C974 C975 1.362 . S
C975 H965 0.930 . S
C975 C968 1.409 . S
C975 C974 1.362 . S
H976 C982 0.930 . S
H977 C985 0.930 . S
H978 C986 0.930 . S
H979 C987 0.930 . S
H980 C990 0.930 . S
H981 C991 0.930 . S
C982 H976 0.930 . S
C982 C983 1.355 . S
C982 C984 1.415 . S
C983 C982 1.355 . S
C983 C985 1.419 . S
C984 C982 1.415 . S
C984 C989 1.425 . S
C984 C991 1.409 . S
C985 H977 0.930 . S
C985 C983 1.419 . S
C985 C986 1.362 . S
C986 H978 0.930 . S
C986 C985 1.362 . S
C986 C989 1.409 . S
C987 H979 0.930 . S
C987 C988 1.355 . S
C987 C989 1.415 . S
C988 C987 1.355 . S
C988 C990 1.419 . S
C989 C984 1.425 . S
C989 C986 1.409 . S
C989 C987 1.415 . S
C990 H980 0.930 . S
C990 C988 1.419 . S
C990 C991 1.362 . S
C991 H981 0.930 . S
C991 C984 1.409 . S
C991 C990 1.362 . S
C620 C350 1.579 . S
C615 C15 1.580 . S
C636 C389 1.587 . S
C631 C55 1.587 . S
C652 C365 1.607 . S
C647 C101 1.602 . S
C668 C404 1.613 . S
C663 C141 1.629 . S
C684 C452 1.554 . S
C679 C2 1.538 . S
C700 C485 1.543 . S
C695 C61 1.532 . S
C711 C95 1.672 . S
C716 C542 1.686 . S
C732 C590 1.532 . S
C727 C135 1.538 . S
C748 C437 1.542 . S
C743 C42 1.495 . S
C759 C82 1.535 . S
C764 C500 1.552 . S
C780 C557 1.648 . S
C775 C122 1.681 . S
C796 C605 1.542 . S
C791 C21 1.512 . S
C807 C162 1.642 . S
C812 C398 1.624 . S
C828 C341 1.593 . S
C823 C221 1.597 . S
C839 C255 1.592 . S
C844 C413 1.591 . S
C855 C282 1.571 . S
C860 C356 1.564 . S
C876 C533 1.675 . S
C871 C181 1.697 . S
C892 C596 1.532 . S
C887 C202 1.544 . S
C908 C461 1.565 . S
C903 C242 1.548 . S
C919 C301 1.536 . S
C924 C509 1.545 . S
C940 C548 1.664 . S
C935 C215 1.675 . S
C956 C581 1.518 . S
C951 C261 1.545 . S
C972 C446 1.554 . S
C967 C295 1.564 . S
C983 C175 1.525 . S
C988 C494 1.512 . S
